drugbank_target|P07014 Succinate dehydrogenase iron-sulfur subunit (DB04631; DB07671; DB08690)
 OpenBabel12092120423D

  0  0  0     0  0            999 V3000
M  V30 BEGIN CTAB
M  V30 COUNTS 3729 3768 0 0 0
M  V30 BEGIN ATOM
M  V30 1 H -0.908 1.98254 -0.117106 0
M  V30 2 N 0 1.576 0 0
M  V30 3 C 0.933 2.03868 1.02534 0
M  V30 4 C 1.911 0.928543 1.3348 0
M  V30 5 O 3.095 1.19667 1.45644 0
M  V30 6 C 0.222 2.43627 2.35294 0
M  V30 7 C -0.732 3.65373 2.2001 0
M  V30 8 S 0.101 5.13292 1.52614 0
M  V30 9 C 1.257 5.56322 2.86805 0
M  V30 10 H 1.49 2.90518 0.631377 0
M  V30 11 H -0.977 1.52953 0.210867 0
M  V30 12 H 0.981 2.67203 3.11629 0
M  V30 13 H -0.358 1.57376 2.7183 0
M  V30 14 H -1.165 3.90944 3.18086 0
M  V30 15 H -1.563 3.418 1.51819 0
M  V30 16 H 0.729 5.58782 3.83104 0
M  V30 17 H 1.672 6.56266 2.65933 0
M  V30 18 H 2.08 4.83886 2.90714 0
M  V30 19 N 1.4781 -0.272755 1.55222 0
M  V30 20 C 2.8941 -0.619959 1.47067 0
M  V30 21 C 3.0941 -1.895 0.684978 0
M  V30 22 O 2.1501 -2.51675 0.203931 0
M  V30 23 C 3.4631 -0.746693 2.91282 0
M  V30 24 C 5.0111 -0.840731 3.01497 0
M  V30 25 C 5.4861 -0.99924 4.46967 0
M  V30 26 N 6.9771 -1.06476 4.50796 0
M  V30 27 C 7.7121 -1.20621 5.6057 0
M  V30 28 N 7.2081 -1.31483 6.80209 0
M  V30 29 N 9.0011 -1.23733 5.48312 0
M  V30 30 H 1.1521 0.564606 2.04758 0
M  V30 31 H 3.4151 0.191177 0.928523 0
M  V30 32 H 3.1211 0.119753 3.51496 0
M  V30 33 H 2.9951 -1.6269 3.40311 0
M  V30 34 H 5.3821 -1.69764 2.41379 0
M  V30 35 H 5.4631 0.0640874 2.5572 0
M  V30 36 H 5.1071 -0.146984 5.07687 0
M  V30 37 H 5.0371 -1.91871 4.90401 0
M  V30 38 H 7.5281 -0.993196 3.64615 0
M  V30 39 H 7.8411 -1.42111 7.59621 0
M  V30 40 H 6.1861 -1.28487 6.8302 0
M  V30 41 H 9.3771 -1.14877 4.53785 0
M  V30 42 H 9.5501 -1.34412 6.33906 0
M  V30 43 N 2.9562 -1.48159 -0.537278 0
M  V30 44 C 3.8862 -1.65029 -1.6519 0
M  V30 45 C 4.8672 -0.499281 -1.62607 0
M  V30 46 O 6.0522 -0.730972 -1.79918 0
M  V30 47 C 3.1822 -1.68303 -3.03795 0
M  V30 48 C 2.1362 -2.8283 -3.21234 0
M  V30 49 C 1.4622 -2.71189 -4.60826 0
M  V30 50 C 2.7622 -4.24211 -3.04701 0
M  V30 51 H 4.4562 -2.58341 -1.51328 0
M  V30 52 H 2.0022 -1.24325 -0.726585 0
M  V30 53 H 3.9552 -1.78693 -3.81637 0
M  V30 54 H 2.6792 -0.715635 -3.18663 0
M  V30 55 H 1.3382 -2.71983 -2.45807 0
M  V30 56 H 0.9862 -1.72435 -4.7252 0
M  V30 57 H 0.6862 -3.48035 -4.7344 0
M  V30 58 H 2.2102 -2.83537 -5.40777 0
M  V30 59 H 3.6242 -4.3593 -3.72341 0
M  V30 60 H 2.0212 -5.01998 -3.28813 0
M  V30 61 H 3.0912 -4.41184 -2.01209 0
M  V30 62 N 4.4343 0.785586 -1.36625 0
M  V30 63 C 5.3443 1.92964 -1.33425 0
M  V30 64 C 6.3603 1.72394 -0.235851 0
M  V30 65 O 7.5363 1.95866 -0.468878 0
M  V30 66 C 4.6013 3.27884 -1.12662 0
M  V30 67 C 3.6623 3.61204 -2.32013 0
M  V30 68 C 2.8953 4.89687 -2.12231 0
M  V30 69 O 3.1183 5.59704 -1.09945 0
M  V30 70 O 2.0523 5.21752 -3.00098 0
M  V30 71 H 5.8783 1.98613 -2.29753 0
M  V30 72 H 3.4633 0.926384 -1.17211 0
M  V30 73 H 5.3453 4.08614 -1.03016 0
M  V30 74 H 4.0203 3.23118 -0.193991 0
M  V30 75 H 2.9273 2.80765 -2.47228 0
M  V30 76 H 4.2603 3.70698 -3.23796 0
M  V30 77 N 5.9124 1.20967 1.01018 0
M  V30 78 C 7.1594 1.02374 1.74716 0
M  V30 79 C 7.4874 -0.443375 1.89379 0
M  V30 80 O 6.7424 -1.34535 1.42123 0
M  V30 81 C 7.0414 1.65997 3.16512 0
M  V30 82 C 6.7074 3.15831 3.2181 0
M  V30 83 C 5.3694 3.56719 3.22963 0
M  V30 84 C 7.7214 4.11816 3.19464 0
M  V30 85 C 5.0494 4.92107 3.19449 0
M  V30 86 C 7.4014 5.47158 3.17491 0
M  V30 87 C 6.0654 5.87451 3.16951 0
M  V30 88 H 5.3354 0.374614 0.639332 0
M  V30 89 H 7.9824 1.50485 1.18434 0
M  V30 90 H 6.2874 1.10166 3.75993 0
M  V30 91 H 7.9844 1.49119 3.72242 0
M  V30 92 H 4.5744 2.83263 3.21652 0
M  V30 93 H 8.7584 3.81257 3.17737 0
M  V30 94 H 4.0144 5.22579 3.17366 0
M  V30 95 H 8.1884 6.21274 3.14629 0
M  V30 96 H 5.8154 6.92329 3.13983 0
M  V30 97 N 7.3905 -1.2043 1.01659 0
M  V30 98 C 8.6155 -1.94318 0.724942 0
M  V30 99 C 9.0405 -1.74266 -0.708034 0
M  V30 100 O 8.3985 -1.03694 -1.48719 0
M  V30 101 C 8.4465 -3.44486 1.06591 0
M  V30 102 O 7.5505 -4.12017 0.177599 0
M  V30 103 H 6.8915 -0.60708 0.26898 0
M  V30 104 H 9.4215 -1.52861 1.35995 0
M  V30 105 H 9.4315 -3.95106 1.01762 0
M  V30 106 H 8.1065 -3.58404 2.10997 0
M  V30 107 H 6.6835 -3.71821 0.283421 0
M  V30 108 N 8.8686 -0.792821 -1.36206 0
M  V30 109 C 10.1176 -0.363353 -1.984 0
M  V30 110 C 10.4306 1.07172 -1.63626 0
M  V30 111 O 11.6366 1.60362 -2.19081 0
M  V30 112 C 10.0926 -0.59872 -3.54885 0
M  V30 113 C 9.7006 -2.04543 -3.9858 0
M  V30 114 C 11.4446 -0.233926 -4.23855 0
M  V30 115 C 9.3516 -2.22727 -5.47856 0
M  V30 116 H 8.2816 -0.13212 -0.742334 0
M  V30 117 H 10.9326 -0.974935 -1.55458 0
M  V30 118 H 9.3146 0.0826222 -3.95914 0
M  V30 119 H 10.4886 -2.76345 -3.68741 0
M  V30 120 H 8.8036 -2.36879 -3.42458 0
M  V30 121 H 11.4006 -0.348027 -5.33566 0
M  V30 122 H 11.7436 0.818351 -4.08177 0
M  V30 123 H 12.2766 -0.868639 -3.882 0
M  V30 124 H 9.0156 -3.2635 -5.68486 0
M  V30 125 H 8.5356 -1.55434 -5.7931 0
M  V30 126 H 10.2146 -2.03607 -6.14128 0
M  V30 127 N 10.3467 1.47872 -0.545128 0
M  V30 128 C 11.5767 2.06589 -0.0210534 0
M  V30 129 C 11.9847 1.39997 1.27269 0
M  V30 130 O 11.3277 0.486421 1.77143 0
M  V30 131 C 11.3897 3.58574 0.257933 0
M  V30 132 C 11.0537 4.47132 -0.944573 0
M  V30 133 C 12.0507 4.85986 -1.84699 0
M  V30 134 C 9.7357 4.88821 -1.15584 0
M  V30 135 C 11.7297 5.65314 -2.94446 0
M  V30 136 C 9.4167 5.67916 -2.25642 0
M  V30 137 C 10.4147 6.06073 -3.14905 0
M  V30 138 O 10.1027 6.83578 -4.23057 0
M  V30 139 H 9.8347 0.674971 -0.0372899 0
M  V30 140 H 12.3887 1.91037 -0.754599 0
M  V30 141 H 10.6187 3.72295 1.04564 0
M  V30 142 H 12.3077 3.99356 0.72592 0
M  V30 143 H 13.0737 4.54388 -1.69577 0
M  V30 144 H 8.9527 4.58595 -0.470279 0
M  V30 145 H 12.4967 5.95016 -3.64145 0
M  V30 146 H 8.3937 5.98927 -2.40742 0
M  V30 147 H 9.1617 7.01954 -4.20954 0
M  V30 148 N 11.8248 0.280983 1.55075 0
M  V30 149 C 13.2408 -0.0729964 1.59433 0
M  V30 150 C 13.4408 -1.5411 1.29817 0
M  V30 151 O 12.4968 -2.29086 1.06187 0
M  V30 152 C 13.8098 0.306921 2.9913 0
M  V30 153 C 15.3578 0.254023 3.11968 0
M  V30 154 C 15.8328 0.608467 4.5394 0
M  V30 155 N 17.3238 0.560241 4.59799 0
M  V30 156 C 18.0588 0.80722 5.6769 0
M  V30 157 N 17.5548 1.11912 6.83701 0
M  V30 158 N 19.3478 0.735623 5.57266 0
M  V30 159 H 11.4988 1.238 1.7259 0
M  V30 160 H 13.7618 0.500547 0.805082 0
M  V30 161 H 13.4678 1.32816 3.25657 0
M  V30 162 H 13.3418 -0.349363 3.75579 0
M  V30 163 H 15.7288 -0.75794 2.852 0
M  V30 164 H 15.8098 0.944649 2.37718 0
M  V30 165 H 15.4538 1.61814 4.81434 0
M  V30 166 H 15.3838 -0.104013 5.26497 0
M  V30 167 H 17.8748 0.329288 3.76463 0
M  V30 168 H 18.1878 1.29409 7.61888 0
M  V30 169 H 16.5328 1.15695 6.85303 0
M  V30 170 H 19.7238 0.491752 4.6551 0
M  V30 171 H 19.8968 0.931482 6.4127 0
M  V30 172 N 13.3029 -1.57598 0.00835791 0
M  V30 173 C 14.5329 -1.94931 -0.684496 0
M  V30 174 C 14.9409 -0.882233 -1.67372 0
M  V30 175 O 14.2839 0.146621 -1.83114 0
M  V30 176 C 14.3459 -3.283 -1.4649 0
M  V30 177 C 14.0099 -4.52548 -0.63634 0
M  V30 178 C 15.0069 -5.19839 0.0795586 0
M  V30 179 C 12.6919 -4.98942 -0.579849 0
M  V30 180 C 14.6859 -6.3183 0.840843 0
M  V30 181 C 12.3729 -6.10819 0.185155 0
M  V30 182 C 13.3709 -6.77121 0.894227 0
M  V30 183 O 13.0589 -7.86853 1.64673 0
M  V30 184 H 12.7909 -0.647249 -0.19505 0
M  V30 185 H 15.3449 -2.05318 0.0581272 0
M  V30 186 H 13.5749 -3.14345 -2.2522 0
M  V30 187 H 15.2639 -3.50685 -2.04389 0
M  V30 188 H 16.0299 -4.84979 0.0451202 0
M  V30 189 H 11.9089 -4.47155 -1.1213 0
M  V30 190 H 15.4529 -6.83513 1.39483 0
M  V30 191 H 11.3499 -6.4512 0.221384 0
M  V30 192 H 12.1179 -8.03412 1.56432 0
M  V30 193 N 14.781 0.264519 -1.55364 0
M  V30 194 C 15.729 1.34702 -1.89626 0
M  V30 195 C 16.723 1.50712 -0.773459 0
M  V30 196 O 17.929 1.52395 -0.957897 0
M  V30 197 H 14.304 0.450682 -0.601988 0
M  V30 198 H 16.275 1.0306 -2.80038 0
M  V30 199 C 15.024 2.6989 -2.19214 0
M  V30 200 H 14.347 2.58365 -3.05103 0
M  V30 201 H 15.787 3.44553 -2.47102 0
M  V30 202 C 14.246 3.21637 -1.00254 0
M  V30 203 O 14.776 4.00973 -0.241501 0
M  V30 204 N 12.982 2.7943 -0.797938 0
M  V30 205 H 12.529 2.15026 -1.4185 0
M  V30 206 H 12.487 3.144 -0.00363422 0
M  V30 207 N 16.2591 1.48442 0.529413 0
M  V30 208 C 17.6701 1.5002 1.11134 0
M  V30 209 C 18.0211 0.27031 1.94329 0
M  V30 210 O 17.1461 -0.622507 2.07253 0
M  V30 211 C 17.7411 2.71834 2.02217 0
M  V30 212 C 16.3001 2.76283 2.55627 0
M  V30 213 C 15.4471 2.43542 1.326 0
M  V30 214 H 18.3981 1.5555 0.314641 0
M  V30 215 H 18.4191 2.50384 2.8651 0
M  V30 216 H 17.9311 3.61331 1.41639 0
M  V30 217 H 16.0321 1.90995 3.19924 0
M  V30 218 H 16.1451 3.77725 2.94721 0
M  V30 219 H 14.5091 1.94709 1.64196 0
M  V30 220 H 15.2921 3.3528 0.737734 0
M  V30 221 N 17.7372 -0.778329 1.37039 0
M  V30 222 C 19.0142 -1.52551 1.22424 0
M  V30 223 C 19.3942 -2.10288 -0.184964 0
M  V30 224 O 18.7422 -1.94953 -1.19187 0
M  V30 225 C 18.9522 -2.61164 2.31504 0
M  V30 226 C 20.3002 -3.28746 2.68721 0
M  V30 227 O 21.3242 -2.71455 2.30631 0
M  V30 228 O 20.1832 -4.3231 3.3432 0
M  V30 229 H 17.2772 -0.675343 0.477326 0
M  V30 230 H 19.8232 -0.815859 1.48801 0
M  V30 231 H 18.5952 -2.16574 3.25901 0
M  V30 232 H 18.2182 -3.39737 2.06554 0
M  V30 233 N 19.2153 -1.21501 -1.00376 0
M  V30 234 C 20.4613 -1.03452 -1.74429 0
M  V30 235 C 20.7943 0.430764 -1.89362 0
M  V30 236 O 20.0693 1.31962 -1.42886 0
M  V30 237 C 20.3523 -1.73375 -3.15615 0
M  V30 238 C 20.2053 -3.27431 -3.08397 0
M  V30 239 C 21.5243 -1.47732 -4.14564 0
M  V30 240 H 18.6433 -0.377226 -0.633143 0
M  V30 241 H 21.2853 -1.49693 -1.17013 0
M  V30 242 H 19.4353 -1.34064 -3.64636 0
M  V30 243 H 21.1073 -3.76119 -2.67081 0
M  V30 244 H 19.3503 -3.5767 -2.45468 0
M  V30 245 H 20.0213 -3.71524 -4.08258 0
M  V30 246 H 22.4973 -1.8186 -3.74254 0
M  V30 247 H 21.3733 -1.99169 -5.11491 0
M  V30 248 H 21.6343 -0.407589 -4.40217 0
M  V30 249 N 20.6934 1.19889 -1.02296 0
M  V30 250 C 21.9704 1.85148 -0.630832 0
M  V30 251 C 22.3504 1.91385 0.890782 0
M  V30 252 O 21.6984 1.42642 1.78509 0
M  V30 253 C 21.9084 3.24442 -1.28602 0
M  V30 254 C 23.2564 4.00663 -1.4055 0
M  V30 255 O 24.2804 3.33818 -1.24273 0
M  V30 256 O 23.1394 5.20387 -1.66913 0
M  V30 257 H 20.2334 0.797613 -0.218499 0
M  V30 258 H 22.7794 1.27427 -1.12074 0
M  V30 259 H 21.5514 3.14704 -2.32545 0
M  V30 260 H 21.1744 3.89802 -0.7836 0
M  V30 261 N 22.1715 0.800033 1.35784 0
M  V30 262 C 23.4485 0.30088 1.93272 0
M  V30 263 C 23.8285 -1.20857 1.73081 0
M  V30 264 O 23.1765 -2.00502 1.09596 0
M  V30 265 C 23.3865 0.70511 3.41803 0
M  V30 266 C 24.7345 0.690871 4.18942 0
M  V30 267 O 25.7585 0.646244 3.50289 0
M  V30 268 O 24.6175 0.74332 5.41421 0
M  V30 269 H 21.7115 0.0771605 0.823393 0
M  V30 270 H 24.2575 0.88329 1.449 0
M  V30 271 H 23.0295 1.74571 3.50201 0
M  V30 272 H 22.6525 0.0971541 3.97481 0
M  V30 273 N 23.6496 -1.47581 0.552962 0
M  V30 274 C 24.6126 -2.28439 -0.186605 0
M  V30 275 C 25.6126 -1.36706 -0.84665 0
M  V30 276 O 26.8026 -1.59378 -0.703164 0
M  V30 277 C 23.9346 -3.16264 -1.2724 0
M  V30 278 H 25.1276 -2.95294 0.523609 0
M  V30 279 H 22.6806 -1.532 0.309745 0
M  V30 280 H 23.4156 -2.54091 -2.01514 0
M  V30 281 H 23.2006 -3.83769 -0.803968 0
M  V30 282 H 24.6906 -3.77198 -1.79196 0
M  V30 283 N 25.1277 -0.289203 -1.54924 0
M  V30 284 C 26.5387 0.205791 -1.85562 0
M  V30 285 C 26.8897 1.54351 -1.2112 0
M  V30 286 O 26.0147 2.10435 -0.504601 0
M  V30 287 C 26.6097 0.380177 -3.3666 0
M  V30 288 C 25.1687 0.819395 -3.67373 0
M  V30 289 C 24.3157 -0.079159 -2.77187 0
M  V30 290 H 27.2667 -0.510577 -1.50262 0
M  V30 291 H 27.2877 1.21659 -3.60526 0
M  V30 292 H 26.7997 -0.593589 -3.83534 0
M  V30 293 H 24.9007 1.80413 -3.26009 0
M  V30 294 H 25.0137 0.646957 -4.74712 0
M  V30 295 H 23.3777 0.439565 -2.50878 0
M  V30 296 H 24.1607 -1.04906 -3.26878 0
M  V30 297 N 26.6058 1.57591 -0.0167156 0
M  V30 298 C 28.0218 1.55946 0.339557 0
M  V30 299 C 28.2218 1.02109 1.73713 0
M  V30 300 O 27.2778 0.662303 2.43659 0
M  V30 301 C 28.5908 3.00037 0.199499 0
M  V30 302 C 30.1388 3.11805 0.273193 0
M  V30 303 C 30.6138 4.57713 0.162068 0
M  V30 304 N 32.1048 4.6268 0.219444 0
M  V30 305 C 32.8398 5.73185 0.157054 0
M  V30 306 N 32.3358 6.92786 0.0442936 0
M  V30 307 N 34.1288 5.61707 0.21014 0
M  V30 308 H 26.2798 1.90921 -0.930758 0
M  V30 309 H 28.5428 0.877674 -0.358319 0
M  V30 310 H 28.2488 3.4333 -0.76273 0
M  V30 311 H 28.1228 3.64387 0.974786 0
M  V30 312 H 30.5098 2.68433 1.22587 0
M  V30 313 H 30.5908 2.50201 -0.532256 0
M  V30 314 H 30.2348 5.01763 -0.78714 0
M  V30 315 H 30.1648 5.17283 0.986222 0
M  V30 316 H 32.6558 3.76649 0.307246 0
M  V30 317 H 32.9688 7.728 0.00304069 0
M  V30 318 H 31.3138 6.94999 0.00968457 0
M  V30 319 H 34.5048 4.6716 0.296546 0
M  V30 320 H 34.6778 6.47807 0.158054 0
M  V30 321 N 28.0839 -0.256276 1.55502 0
M  V30 322 C 29.0169 -1.34321 1.84481 0
M  V30 323 C 29.9949 -1.46802 0.699131 0
M  V30 324 O 31.1789 -1.63165 0.943904 0
M  V30 325 C 28.3059 -2.71779 2.02123 0
M  V30 326 C 27.3519 -2.76496 3.24734 0
M  V30 327 S 28.1849 -2.3405 4.81644 0
M  V30 328 C 29.3409 -3.73452 5.02279 0
M  V30 329 H 29.5739 -1.09539 2.76385 0
M  V30 330 H 27.1069 -0.45678 1.47489 0
M  V30 331 H 29.0649 -3.50932 2.12972 0
M  V30 332 H 27.7259 -2.93803 1.11078 0
M  V30 333 H 26.9189 -3.77424 3.34016 0
M  V30 334 H 26.5209 -2.05379 3.12563 0
M  V30 335 H 28.8129 -4.6887 4.89047 0
M  V30 336 H 29.7559 -3.6911 6.04287 0
M  V30 337 H 30.1639 -3.6553 4.30172 0
M  V30 338 N 29.562 -1.4872 -0.521534 0
M  V30 339 C 30.494 -1.59968 -1.64143 0
M  V30 340 C 31.507 -0.483463 -1.55456 0
M  V30 341 O 32.696 -0.75467 -1.61762 0
M  V30 342 C 29.796 -1.52127 -3.02838 0
M  V30 343 C 28.969 -2.78932 -3.36921 0
M  V30 344 C 28.028 -2.64428 -4.54933 0
M  V30 345 O 27.054 -3.38331 -4.57735 0
M  V30 346 N 28.256 -1.74606 -5.53618 0
M  V30 347 H 31.021 -2.56548 -1.54929 0
M  V30 348 H 28.582 -1.45551 -0.708988 0
M  V30 349 H 30.574 -1.40106 -3.79674 0
M  V30 350 H 29.144 -0.634868 -3.06085 0
M  V30 351 H 28.364 -3.05455 -2.4918 0
M  V30 352 H 29.652 -3.63041 -3.56481 0
M  V30 353 H 29.05 -1.13782 -5.54139 0
M  V30 354 H 27.607 -1.6852 -6.29638 0
M  V30 355 N 31.0401 0.771051 -1.3745 0
M  V30 356 C 32.3171 1.519 -1.23231 0
M  V30 357 C 32.6971 2.10383 0.173809 0
M  V30 358 O 32.0451 1.95583 1.18151 0
M  V30 359 C 32.2551 2.59933 -2.32886 0
M  V30 360 C 33.6031 3.27316 -2.70461 0
M  V30 361 O 34.6271 2.70228 -2.32068 0
M  V30 362 O 33.4861 4.30531 -3.36608 0
M  V30 363 H 30.5801 0.672803 -0.480901 0
M  V30 364 H 33.1261 0.807957 -1.49232 0
M  V30 365 H 31.8981 2.14842 -3.27045 0
M  V30 366 H 31.5211 3.38637 -2.08353 0
M  V30 367 N 32.5182 1.22032 0.997298 0
M  V30 368 C 33.7482 1.06686 1.76923 0
M  V30 369 C 34.1562 -0.385838 1.85224 0
M  V30 370 O 33.4992 -1.27929 1.31833 0
M  V30 371 C 33.5612 1.59802 3.22031 0
M  V30 372 C 33.2252 3.08362 3.37286 0
M  V30 373 C 34.2222 4.05835 3.24952 0
M  V30 374 C 31.9072 3.47727 3.6248 0
M  V30 375 C 33.9012 5.4066 3.37588 0
M  V30 376 C 31.5882 4.82701 3.74757 0
M  V30 377 C 32.5862 5.78977 3.62319 0
M  V30 378 O 32.2742 7.11502 3.74193 0
M  V30 379 H 32.0062 0.374767 0.562606 0
M  V30 380 H 34.5602 1.61991 1.26286 0
M  V30 381 H 32.7902 0.989003 3.73839 0
M  V30 382 H 34.4792 1.40184 3.80924 0
M  V30 383 H 35.2452 3.76766 3.05405 0
M  V30 384 H 31.1242 2.73317 3.7124 0
M  V30 385 H 34.6682 6.15788 3.27796 0
M  V30 386 H 30.5652 5.11453 3.9381 0
M  V30 387 H 31.3332 7.19019 3.91093 0
M  V30 388 N 33.9963 -1.19345 1.0293 0
M  V30 389 C 35.2243 -1.92997 0.745644 0
M  V30 390 C 35.6393 -1.75519 -0.695589 0
M  V30 391 O 34.9963 -1.07737 -1.47306 0
M  V30 392 C 35.0473 -3.44741 1.08792 0
M  V30 393 O 34.7683 -3.61658 2.47256 0
M  V30 394 C 36.2693 -4.35515 0.827129 0
M  V30 395 H 33.4893 -0.613042 0.272801 0
M  V30 396 H 36.0333 -1.51473 1.3739 0
M  V30 397 H 34.1883 -3.84097 0.504832 0
M  V30 398 H 34.6023 -4.55514 2.60015 0
M  V30 399 H 36.0763 -5.40589 1.11658 0
M  V30 400 H 36.5533 -4.38552 -0.238436 0
M  V30 401 H 37.1593 -4.01841 1.39297 0
M  V30 402 N 35.4744 -0.807222 -1.35358 0
M  V30 403 C 36.4044 -0.232509 -2.3234 0
M  V30 404 C 37.3854 0.642386 -1.57504 0
M  V30 405 O 38.5704 0.572526 -1.85569 0
M  V30 406 C 35.7004 0.619238 -3.41735 0
M  V30 407 C 34.6544 -0.157215 -4.27711 0
M  V30 408 C 33.9804 0.816273 -5.28433 0
M  V30 409 C 35.2804 -1.35656 -5.04376 0
M  V30 410 H 36.9744 -1.04276 -2.80654 0
M  V30 411 H 34.5204 -0.50288 -1.34934 0
M  V30 412 H 36.4734 1.03137 -4.08584 0
M  V30 413 H 35.1974 1.46239 -2.92031 0
M  V30 414 H 33.8564 -0.550525 -3.62443 0
M  V30 415 H 33.5044 1.65494 -4.74996 0
M  V30 416 H 33.2044 0.301067 -5.86828 0
M  V30 417 H 34.7284 1.22659 -5.98153 0
M  V30 418 H 36.1424 -1.01927 -5.64166 0
M  V30 419 H 34.5394 -1.8063 -5.7227 0
M  V30 420 H 35.6094 -2.14288 -4.34981 0
M  V30 421 N 36.9525 1.47285 -0.560781 0
M  V30 422 C 37.8625 2.33846 0.187954 0
M  V30 423 C 38.8785 1.48412 0.908293 0
M  V30 424 O 40.0545 1.81332 0.876388 0
M  V30 425 C 37.1195 3.25178 1.2025 0
M  V30 426 C 36.1805 4.26504 0.489208 0
M  V30 427 C 35.4135 5.13472 1.45542 0
M  V30 428 O 35.6365 5.02959 2.6905 0
M  V30 429 O 34.5705 5.93902 0.977963 0
M  V30 430 H 38.3965 2.99177 -0.522177 0
M  V30 431 H 35.9815 1.45903 -0.321364 0
M  V30 432 H 37.8635 3.81584 1.78805 0
M  V30 433 H 36.5385 2.6247 1.89449 0
M  V30 434 H 35.4455 3.73847 -0.137627 0
M  V30 435 H 36.7785 4.91935 -0.161399 0
M  V30 436 N 38.4306 0.297415 1.54768 0
M  V30 437 C 39.3936 -0.567375 2.22066 0
M  V30 438 C 40.3936 -1.06409 1.20556 0
M  V30 439 O 41.5836 -0.960691 1.45315 0
M  V30 440 C 38.7156 -1.78517 2.90421 0
M  V30 441 H 39.9086 0.0205534 2.99893 0
M  V30 442 H 37.4616 0.0482163 1.56226 0
M  V30 443 H 38.1966 -2.41303 2.16664 0
M  V30 444 H 37.9816 -1.43669 3.64831 0
M  V30 445 H 39.4716 -2.39964 3.41771 0
M  V30 446 N 39.9087 -1.5758 0.0250728 0
M  V30 447 C 41.1857 -1.82917 -0.692873 0
M  V30 448 C 41.5657 -0.908137 -1.90568 0
M  V30 449 O 40.9137 0.0372298 -2.2847 0
M  V30 450 C 41.1237 -3.32034 -1.07492 0
M  V30 451 C 42.4717 -3.98406 -1.46826 0
M  V30 452 O 43.4957 -3.36505 -1.16801 0
M  V30 453 O 42.3547 -5.07497 -2.02754 0
M  V30 454 H 39.4487 -0.754079 -0.33955 0
M  V30 455 H 41.9947 -1.69619 0.0524456 0
M  V30 456 H 40.7667 -3.90728 -0.211552 0
M  V30 457 H 40.3897 -3.50424 -1.87854 0
M  V30 458 N 41.3868 0.248026 -1.55636 0
M  V30 459 C 42.2968 1.32859 -1.93354 0
M  V30 460 C 43.3128 1.52719 -0.833838 0
M  V30 461 O 44.4888 1.66363 -1.13513 0
M  V30 462 C 41.5538 2.66337 -2.21958 0
M  V30 463 C 40.6148 2.55008 -3.45354 0
M  V30 464 C 39.8478 3.82121 -3.72584 0
M  V30 465 O 40.0708 4.83951 -3.01907 0
M  V30 466 O 39.0048 3.80822 -4.6611 0
M  V30 467 H 42.8308 1.03862 -2.85388 0
M  V30 468 H 40.4158 0.448686 -1.42503 0
M  V30 469 H 42.2978 3.45216 -2.4167 0
M  V30 470 H 40.9728 2.95068 -1.33103 0
M  V30 471 H 39.8798 1.7442 -3.30951 0
M  V30 472 H 41.2128 2.31222 -4.34508 0
M  V30 473 N 42.8649 1.48995 0.513639 0
M  V30 474 C 44.1129 1.57531 1.26604 0
M  V30 475 C 44.4339 0.258236 1.93283 0
M  V30 476 O 43.7039 -0.721502 1.8213 0
M  V30 477 H 42.2839 0.580387 0.470276 0
M  V30 478 H 44.9459 1.85552 0.596373 0
M  V30 479 H 44.0419 2.36486 2.03669 0
M  V30 480 N 44.343 -0.763751 1.37857 0
M  V30 481 C 45.759 -1.06542 1.18832 0
M  V30 482 C 45.959 -2.01478 0.0299722 0
M  V30 483 O 45.015 -2.4458 -0.627447 0
M  V30 484 C 46.328 -1.65525 2.51042 0
M  V30 485 C 47.876 -1.77745 2.57635 0
M  V30 486 C 48.351 -2.4014 3.89996 0
M  V30 487 N 49.842 -2.47582 3.91481 0
M  V30 488 C 50.577 -2.96732 4.9065 0
M  V30 489 N 50.073 -3.45993 6.00217 0
M  V30 490 N 51.866 -2.95679 4.78048 0
M  V30 491 H 44.017 -0.133556 2.1198 0
M  V30 492 H 46.28 -0.121879 0.940133 0
M  V30 493 H 45.986 -1.03236 3.36207 0
M  V30 494 H 45.86 -2.64719 2.68707 0
M  V30 495 H 48.247 -2.39164 1.72872 0
M  V30 496 H 48.328 -0.772836 2.43846 0
M  V30 497 H 47.972 -1.79358 4.75177 0
M  V30 498 H 47.902 -3.41223 4.01092 0
M  V30 499 H 50.393 -2.1273 3.12337 0
M  V30 500 H 50.706 -3.81922 6.7183 0
M  V30 501 H 49.051 -3.44077 6.03851 0
M  V30 502 H 52.242 -2.56499 3.91568 0
M  V30 503 H 52.415 -3.33672 5.55488 0
M  V30 504 N 45.8211 -1.22559 -0.990812 0
M  V30 505 C 47.0981 -0.959875 -1.70428 0
M  V30 506 C 47.4781 0.524455 -2.04481 0
M  V30 507 O 46.8261 1.49302 -1.72977 0
M  V30 508 C 47.0361 -1.85955 -2.95333 0
M  V30 509 C 48.3841 -2.11687 -3.68068 0
M  V30 510 O 49.4081 -1.8342 -3.05345 0
M  V30 511 O 48.2671 -2.59572 -4.80921 0
M  V30 512 H 45.3611 -0.361154 -0.743974 0
M  V30 513 H 47.9071 -1.33554 -1.04697 0
M  V30 514 H 46.6791 -2.86346 -2.66687 0
M  V30 515 H 46.3021 -1.4856 -3.68803 0
M  V30 516 N 47.2992 1.18797 -1.03562 0
M  V30 517 C 48.2322 2.2105 -0.56676 0
M  V30 518 C 49.2102 1.57704 0.395993 0
M  V30 519 O 50.3942 1.85908 0.311498 0
M  V30 520 C 47.5212 3.38259 0.172704 0
M  V30 521 C 46.5672 4.19987 -0.74252 0
M  V30 522 S 47.4002 4.87199 -2.22254 0
M  V30 523 C 48.5562 6.07813 -1.49379 0
M  V30 524 H 48.7892 2.60478 -1.43312 0
M  V30 525 H 46.3222 1.29151 -0.846133 0
M  V30 526 H 48.2802 4.06191 0.593191 0
M  V30 527 H 46.9412 2.97252 1.01488 0
M  V30 528 H 46.1342 5.03709 -0.171265 0
M  V30 529 H 45.7362 3.57408 -1.10163 0
M  V30 530 H 48.0282 6.72948 -0.784056 0
M  V30 531 H 48.9712 6.69435 -2.30786 0
M  V30 532 H 49.3792 5.55781 -0.988331 0
M  V30 533 N 48.7773 0.814389 1.34928 0
M  V30 534 C 49.7103 0.175641 2.27523 0
M  V30 535 C 50.6883 -0.662953 1.48471 0
M  V30 536 O 51.8723 -0.628545 1.77712 0
M  V30 537 C 48.9993 -0.755516 3.30166 0
M  V30 538 C 48.0453 0.00445305 4.265 0
M  V30 539 S 48.8783 1.34582 5.18313 0
M  V30 540 C 50.0343 0.419315 6.24494 0
M  V30 541 H 50.2673 0.960691 2.8135 0
M  V30 542 H 47.8003 0.609846 1.41846 0
M  V30 543 H 49.7583 -1.28723 3.89796 0
M  V30 544 H 48.4193 -1.51402 2.75202 0
M  V30 545 H 47.6123 -0.703077 4.99072 0
M  V30 546 H 47.2143 0.466447 3.7108 0
M  V30 547 H 49.5063 -0.392432 6.76362 0
M  V30 548 H 50.4493 1.11446 6.99275 0
M  V30 549 H 50.8573 0.0115389 5.64499 0
M  V30 550 N 50.2554 -1.46986 0.568584 0
M  V30 551 C 51.1854 -2.32946 -0.160753 0
M  V30 552 C 52.1664 -1.44487 -0.897631 0
M  V30 553 O 53.3514 -1.73327 -0.875867 0
M  V30 554 C 50.4814 -3.26494 -1.18403 0
M  V30 555 C 49.4354 -4.24282 -0.562895 0
M  V30 556 C 48.7614 -5.07236 -1.69163 0
M  V30 557 C 50.0614 -5.19989 0.490761 0
M  V30 558 H 51.7554 -2.94175 0.556916 0
M  V30 559 H 49.3014 -1.4146 0.26927 0
M  V30 560 H 51.2544 -3.85477 -1.70251 0
M  V30 561 H 49.9784 -2.63343 -1.93179 0
M  V30 562 H 48.6374 -3.66541 -0.0656164 0
M  V30 563 H 48.2854 -4.4048 -2.42871 0
M  V30 564 H 47.9854 -5.7345 -1.28174 0
M  V30 565 H 49.5094 -5.6908 -2.21314 0
M  V30 566 H 50.9234 -5.73271 0.0579047 0
M  V30 567 H 49.3204 -5.94469 0.820165 0
M  V30 568 H 50.3904 -4.64777 1.3824 0
M  V30 569 N 51.7335 -0.305618 -1.54608 0
M  V30 570 C 52.6635 0.561482 -2.26649 0
M  V30 571 C 53.6445 1.13415 -1.26772 0
M  V30 572 O 54.8295 1.16262 -1.55553 0
M  V30 573 C 51.9595 1.73122 -3.01075 0
M  V30 574 C 50.9135 1.2887 -4.08138 0
M  V30 575 C 50.2395 2.54396 -4.70305 0
M  V30 576 C 51.5395 0.416578 -5.20636 0
M  V30 577 H 53.2335 -0.0393902 -2.99374 0
M  V30 578 H 50.7795 -0.020385 -1.43986 0
M  V30 579 H 52.7325 2.34396 -3.50195 0
M  V30 580 H 51.4565 2.3584 -2.25936 0
M  V30 581 H 50.1155 0.698991 -3.59875 0
M  V30 582 H 49.7635 3.15439 -3.918 0
M  V30 583 H 49.4635 2.25486 -5.42614 0
M  V30 584 H 50.9875 3.16464 -5.2219 0
M  V30 585 H 52.4015 0.935116 -5.65622 0
M  V30 586 H 50.7985 0.221046 -5.99693 0
M  V30 587 H 51.8685 -0.557162 -4.81688 0
M  V30 588 N 53.2116 1.57565 -0.0334293 0
M  V30 589 C 54.4886 1.83282 0.683163 0
M  V30 590 C 54.8686 0.91823 1.90084 0
M  V30 591 O 54.2166 -0.025113 2.28486 0
M  V30 592 C 54.4266 3.32599 1.0573 0
M  V30 593 C 55.7746 3.99179 1.44711 0
M  V30 594 O 56.7986 3.3712 1.15015 0
M  V30 595 O 55.6576 5.08565 2.0006 0
M  V30 596 H 52.7516 0.755869 0.335546 0
M  V30 597 H 55.2976 1.69589 -0.0614402 0
M  V30 598 H 54.0696 3.90834 0.190828 0
M  V30 599 H 53.6926 3.51415 1.85993 0
M  V30 600 N 54.6897 -0.239769 1.55765 0
M  V30 601 C 55.6527 -1.28038 1.90103 0
M  V30 602 C 56.6527 -1.40723 0.778055 0
M  V30 603 O 57.8427 -1.39301 1.04599 0
M  V30 604 C 54.9747 -2.65702 2.13577 0
M  V30 605 H 56.1677 -0.988048 2.83157 0
M  V30 606 H 53.7207 -0.479382 1.48767 0
M  V30 607 H 54.4557 -3.00063 1.23015 0
M  V30 608 H 54.2407 -2.57875 2.95369 0
M  V30 609 H 55.7307 -3.40828 2.41301 0
M  V30 610 N 56.1678 -1.49265 -0.50573 0
M  V30 611 C 57.0978 -1.68495 -1.61653 0
M  V30 612 C 58.0788 -0.53366 -1.61512 0
M  V30 613 O 59.2638 -0.76897 -1.78327 0
M  V30 614 C 56.3938 -1.74709 -3.00157 0
M  V30 615 C 55.3478 -2.89581 -3.15162 0
M  V30 616 C 54.6738 -2.80903 -4.5497 0
M  V30 617 C 55.9738 -4.30578 -2.95634 0
M  V30 618 H 57.6678 -2.61493 -1.45814 0
M  V30 619 H 55.2138 -1.25838 -0.70005 0
M  V30 620 H 57.1668 -1.86748 -3.77761 0
M  V30 621 H 55.8908 -0.783067 -3.17074 0
M  V30 622 H 54.5498 -2.77136 -2.39982 0
M  V30 623 H 54.1978 -1.82419 -4.68756 0
M  V30 624 H 53.8978 -3.57999 -4.65951 0
M  V30 625 H 55.4218 -2.94944 -5.34641 0
M  V30 626 H 56.8358 -4.4373 -3.63011 0
M  V30 627 H 55.2328 -5.0886 -3.18091 0
M  V30 628 H 56.3028 -4.45352 -1.91806 0
M  V30 629 N 57.6459 0.756429 -1.3826 0
M  V30 630 C 58.8949 1.51082 -1.3363 0
M  V30 631 C 59.2079 1.95467 0.0720068 0
M  V30 632 O 60.4139 2.7043 0.240834 0
M  V30 633 C 58.8699 2.72893 -2.34644 0
M  V30 634 C 58.4779 2.35544 -3.81081 0
M  V30 635 C 60.2219 3.50791 -2.39052 0
M  V30 636 C 58.1289 3.53948 -4.73787 0
M  V30 637 H 57.0589 0.56727 -0.49671 0
M  V30 638 H 59.7099 0.827147 -1.638 0
M  V30 639 H 58.0919 3.43227 -1.97513 0
M  V30 640 H 59.2659 1.72894 -4.27135 0
M  V30 641 H 57.5809 1.70786 -3.79764 0
M  V30 642 H 60.1779 4.38823 -3.05513 0
M  V30 643 H 60.5209 3.91745 -1.40861 0
M  V30 644 H 61.0539 2.87467 -2.74968 0
M  V30 645 H 57.7929 3.18064 -5.73163 0
M  V30 646 H 57.3129 4.15651 -4.32428 0
M  V30 647 H 58.9919 4.20566 -4.91663 0
M  V30 648 N 59.124 1.23083 0.984299 0
M  V30 649 C 60.056 0.96636 2.07832 0
M  V30 650 C 61.069 -0.0582135 1.62696 0
M  V30 651 O 62.258 0.176843 1.77622 0
M  V30 652 C 59.358 0.433397 3.36117 0
M  V30 653 C 58.531 1.51722 4.10243 0
M  V30 654 C 57.59 0.989821 5.16807 0
M  V30 655 O 56.616 1.67794 5.43906 0
M  V30 656 N 57.818 -0.184367 5.80207 0
M  V30 657 H 60.583 1.90824 2.31098 0
M  V30 658 H 58.144 1.13888 1.1507 0
M  V30 659 H 60.136 0.065699 4.04647 0
M  V30 660 H 58.706 -0.413806 3.09849 0
M  V30 661 H 57.926 2.05786 3.36223 0
M  V30 662 H 59.214 2.24619 4.56534 0
M  V30 663 H 58.612 -0.760062 5.60571 0
M  V30 664 H 57.169 -0.493366 6.4993 0
M  V30 665 N 60.6021 -1.18246 1.0419 0
M  V30 666 C 61.5321 -2.24127 0.654914 0
M  V30 667 C 62.5131 -1.66617 -0.342451 0
M  V30 668 O 63.6981 -1.92924 -0.222277 0
M  V30 669 C 60.8281 -3.47295 0.0183757 0
M  V30 670 C 59.7821 -4.17563 0.939414 0
M  V30 671 C 59.1081 -5.34438 0.167286 0
M  V30 672 C 60.4081 -4.70917 2.25908 0
M  V30 673 H 62.1021 -2.56753 1.54007 0
M  V30 674 H 59.6481 -1.23414 0.74195 0
M  V30 675 H 61.6011 -4.20572 -0.264082 0
M  V30 676 H 60.3251 -3.13907 -0.901664 0
M  V30 677 H 58.9841 -3.46186 1.20628 0
M  V30 678 H 58.6321 -4.97298 -0.7552 0
M  V30 679 H 58.3321 -5.82388 0.780901 0
M  V30 680 H 59.8561 -6.10504 -0.108125 0
M  V30 681 H 61.2701 -5.35882 2.03724 0
M  V30 682 H 59.6671 -5.29406 2.82577 0
M  V30 683 H 60.7371 -3.88272 2.9047 0
M  V30 684 N 62.0802 -0.821533 -1.34494 0
M  V30 685 C 63.0272 -0.240397 -2.29545 0
M  V30 686 C 63.9972 0.634031 -1.53523 0
M  V30 687 O 65.1822 0.575966 -1.81899 0
M  V30 688 C 62.3222 0.592869 -3.39969 0
M  V30 689 C 61.4352 -0.30365 -4.30932 0
M  V30 690 C 60.5702 0.539049 -5.28458 0
M  V30 691 C 59.6092 -0.356942 -6.11058 0
M  V30 692 N 58.7462 0.446603 -7.00678 0
M  V30 693 H 63.5862 -1.05632 -2.7865 0
M  V30 694 H 61.1232 -0.532413 -1.37127 0
M  V30 695 H 63.0812 1.09129 -4.02675 0
M  V30 696 H 61.7112 1.37392 -2.92102 0
M  V30 697 H 60.7632 -0.920276 -3.691 0
M  V30 698 H 62.0752 -0.992661 -4.88823 0
M  V30 699 H 61.2292 1.102 -5.96608 0
M  V30 700 H 59.9682 1.26157 -4.71101 0
M  V30 701 H 58.9732 -0.932047 -5.41842 0
M  V30 702 H 60.1982 -1.07755 -6.70497 0
M  V30 703 H 58.1442 1.15282 -6.45791 0
M  V30 704 H 58.0612 -0.184048 -7.55776 0
M  V30 705 H 59.3292 0.992352 -7.73158 0
M  V30 706 N 63.5583 1.46682 -0.576371 0
M  V30 707 C 64.4683 2.34032 0.163141 0
M  V30 708 C 65.4843 1.49367 0.892501 0
M  V30 709 O 66.6603 1.82252 0.857106 0
M  V30 710 C 63.7253 3.26435 1.16795 0
M  V30 711 C 62.7863 4.26998 0.443944 0
M  V30 712 C 62.0193 5.14986 1.40088 0
M  V30 713 O 62.2423 5.05785 2.637 0
M  V30 714 O 61.1763 5.94906 0.914917 0
M  V30 715 H 65.0023 2.98607 -0.55388 0
M  V30 716 H 62.5873 1.45554 -0.336821 0
M  V30 717 H 64.4693 3.83459 1.74748 0
M  V30 718 H 63.1443 2.64465 1.86655 0
M  V30 719 H 62.0513 3.7368 -0.177271 0
M  V30 720 H 63.3843 4.91736 -0.213566 0
M  V30 721 N 65.0364 0.313813 1.54444 0
M  V30 722 C 65.9834 -0.55655 2.23989 0
M  V30 723 C 66.9534 -1.11943 1.22711 0
M  V30 724 O 68.1384 -1.16158 1.51367 0
M  V30 725 C 65.2784 -1.71635 2.99392 0
M  V30 726 C 64.3914 -1.18364 4.15468 0
M  V30 727 C 63.5264 -2.30834 4.78424 0
M  V30 728 C 62.5654 -1.74762 5.86622 0
M  V30 729 N 61.7024 -2.80855 6.43479 0
M  V30 730 H 66.5424 0.0430893 2.97969 0
M  V30 731 H 64.0794 0.0330359 1.47063 0
M  V30 732 H 66.0374 -2.39868 3.41349 0
M  V30 733 H 64.6674 -2.28742 2.27765 0
M  V30 734 H 63.7194 -0.393163 3.78363 0
M  V30 735 H 65.0314 -0.733262 4.93381 0
M  V30 736 H 64.1854 -3.0699 5.23299 0
M  V30 737 H 62.9244 -2.79204 3.99871 0
M  V30 738 H 61.9294 -0.970995 5.41158 0
M  V30 739 H 63.1544 -1.2728 6.67066 0
M  V30 740 H 61.1004 -3.28535 5.67804 0
M  V30 741 H 61.0174 -2.40351 7.16776 0
M  V30 742 H 62.2854 -3.5687 6.93011 0
M  V30 743 N 66.5145 -1.57545 0.0417849 0
M  V30 744 C 67.7915 -1.83642 -0.673433 0
M  V30 745 C 68.1715 -0.928298 -1.89594 0
M  V30 746 O 67.5195 0.0129955 -2.28496 0
M  V30 747 C 67.7295 -3.33155 -1.03964 0
M  V30 748 C 69.0775 -3.99941 -1.42592 0
M  V30 749 O 70.1015 -3.37725 -1.13226 0
M  V30 750 O 68.9605 -5.09619 -1.9736 0
M  V30 751 H 66.0545 -0.757638 -0.331533 0
M  V30 752 H 68.6005 -1.69554 0.070433 0
M  V30 753 H 67.3725 -3.9093 -0.170098 0
M  V30 754 H 66.9955 -3.52396 -1.84126 0
M  V30 755 N 67.9926 0.231505 -1.5589 0
M  V30 756 C 69.4036 0.799327 -1.68724 0
M  V30 757 C 69.7546 1.85398 -0.642022 0
M  V30 758 O 68.8796 2.1539 0.208784 0
M  V30 759 C 69.4746 1.45664 -3.05888 0
M  V30 760 C 68.0336 1.97197 -3.20609 0
M  V30 761 C 67.1806 0.828552 -2.64632 0
M  V30 762 H 70.1316 0.00702616 -1.58698 0
M  V30 763 H 70.1526 2.32517 -3.01191 0
M  V30 764 H 69.6646 0.688808 -3.81939 0
M  V30 765 H 67.7656 2.76813 -2.4941 0
M  V30 766 H 67.8786 2.15878 -4.27707 0
M  V30 767 H 66.2426 1.23321 -2.22854 0
M  V30 768 H 67.0256 0.0735544 -3.43221 0
M  V30 769 N 69.4707 1.49531 0.497807 0
M  V30 770 C 70.6957 1.63159 1.28039 0
M  V30 771 C 71.1207 0.30418 1.85624 0
M  V30 772 O 70.4787 -0.728618 1.66015 0
M  V30 773 C 70.5267 2.70537 2.38416 0
M  V30 774 O 69.6307 2.29931 3.42353 0
M  V30 775 H 68.9717 0.546001 0.377861 0
M  V30 776 H 71.5017 1.9574 0.59558 0
M  V30 777 H 71.5117 2.92802 2.84132 0
M  V30 778 H 70.1867 3.6689 1.95869 0
M  V30 779 H 68.7637 2.18009 3.02533 0
M  V30 780 N 70.9488 -0.749086 1.3866 0
M  V30 781 C 71.8788 -1.8764 1.38973 0
M  V30 782 C 72.8598 -1.68178 0.255004 0
M  V30 783 O 74.0448 -1.88704 0.458754 0
M  V30 784 C 71.1748 -3.25222 1.21851 0
M  V30 785 C 70.1288 -3.59295 2.32575 0
M  V30 786 C 69.4548 -4.95663 2.00555 0
M  V30 787 C 70.7548 -3.63709 3.7485 0
M  V30 788 H 72.4488 -1.87635 2.3331 0
M  V30 789 H 69.9948 -0.901329 1.12303 0
M  V30 790 H 71.9478 -4.03746 1.20695 0
M  V30 791 H 70.6718 -3.25719 0.239775 0
M  V30 792 H 69.3308 -2.83093 2.32925 0
M  V30 793 H 68.9788 -4.92724 1.01154 0
M  V30 794 H 68.6788 -5.19429 2.74714 0
M  V30 795 H 70.2028 -5.7656 2.01024 0
M  V30 796 H 71.6168 -4.32338 3.76506 0
M  V30 797 H 70.0138 -3.98986 4.48252 0
M  V30 798 H 71.0838 -2.63834 4.06841 0
M  V30 799 N 72.4269 -1.23603 -0.977757 0
M  V30 800 C 73.6519 -1.09735 -1.75991 0
M  V30 801 C 74.0769 0.346858 -1.84874 0
M  V30 802 O 73.4349 1.25093 -1.3123 0
M  V30 803 C 73.4829 -1.73051 -3.16363 0
M  V30 804 O 72.5869 -0.994452 -4.0023 0
M  V30 805 H 71.9279 -0.384476 -0.541364 0
M  V30 806 H 74.4579 -1.6371 -1.2272 0
M  V30 807 H 74.4679 -1.78398 -3.66931 0
M  V30 808 H 73.1429 -2.78137 -3.09213 0
M  V30 809 H 71.7199 -1.01812 -3.58732 0
M  V30 810 N 73.905 1.17692 -1.04816 0
M  V30 811 C 75.152 1.87859 -0.75599 0
M  V30 812 C 75.48 1.80812 0.716752 0
M  V30 813 O 74.735 1.20819 1.53952 0
M  V30 814 C 75.034 3.37462 -1.17703 0
M  V30 815 C 74.7 3.64713 -2.65133 0
M  V30 816 C 73.362 3.71859 -3.05408 0
M  V30 817 C 75.714 3.76492 -3.60421 0
M  V30 818 C 73.042 3.88271 -4.39843 0
M  V30 819 C 75.394 3.94421 -4.94585 0
M  V30 820 C 74.058 3.99806 -5.3452 0
M  V30 821 H 73.328 0.687425 -0.276636 0
M  V30 822 H 75.975 1.39255 -1.31455 0
M  V30 823 H 74.28 3.88097 -0.537395 0
M  V30 824 H 75.977 3.90109 -0.928218 0
M  V30 825 H 72.567 3.59772 -2.32942 0
M  V30 826 H 76.751 3.70295 -3.30447 0
M  V30 827 H 72.007 3.90687 -4.70291 0
M  V30 828 H 76.181 4.02477 -5.68318 0
M  V30 829 H 73.808 4.12276 -6.38696 0
M  V30 830 N 75.3831 0.828654 1.34056 0
M  V30 831 C 76.7991 0.515135 1.51058 0
M  V30 832 C 76.9991 -0.959581 1.77184 0
M  V30 833 O 76.0551 -1.74382 1.82612 0
M  V30 834 C 77.3681 1.37963 2.67183 0
M  V30 835 C 78.9161 1.37735 2.81066 0
M  V30 836 C 79.3911 2.22645 4.00241 0
M  V30 837 N 80.8821 2.203 4.07458 0
M  V30 838 C 81.6171 2.82744 4.98842 0
M  V30 839 N 81.1131 3.54201 5.9541 0
M  V30 840 N 82.9061 2.72268 4.91759 0
M  V30 841 H 75.0571 1.78343 1.15358 0
M  V30 842 H 77.3201 0.760304 0.566252 0
M  V30 843 H 77.0261 2.42714 2.54525 0
M  V30 844 H 76.9001 1.0484 3.62338 0
M  V30 845 H 79.2871 0.337593 2.93163 0
M  V30 846 H 79.3681 1.74859 1.86703 0
M  V30 847 H 79.0121 3.26674 3.88905 0
M  V30 848 H 78.9421 1.82869 4.93829 0
M  V30 849 H 81.4331 1.68327 3.38341 0
M  V30 850 H 81.7461 3.9908 6.61782 0
M  V30 851 H 80.0911 3.58308 5.95517 0
M  V30 852 H 83.2821 2.16014 4.15278 0
M  V30 853 H 83.4551 3.21219 5.62781 0
M  V30 854 N 76.8612 -1.46375 0.584142 0
M  V30 855 C 78.2772 -1.57694 0.245929 0
M  V30 856 C 78.4772 -1.57903 -1.25175 0
M  V30 857 O 77.5332 -1.49676 -2.03355 0
M  V30 858 C 78.8462 -2.87028 0.896402 0
M  V30 859 C 80.3942 -3.00662 0.870127 0
M  V30 860 C 80.8692 -4.32734 1.50017 0
M  V30 861 N 82.3602 -4.39436 1.46458 0
M  V30 862 C 83.0952 -5.40248 1.92144 0
M  V30 863 N 82.5912 -6.47726 2.4581 0
M  V30 864 N 84.3842 -5.31459 1.83052 0
M  V30 865 H 76.5352 -1.44483 1.55687 0
M  V30 866 H 78.7982 -0.689291 0.650831 0
M  V30 867 H 78.5042 -2.9269 1.95002 0
M  V30 868 H 78.3782 -3.75014 0.405486 0
M  V30 869 H 80.7652 -2.94581 -0.174871 0
M  V30 870 H 80.8462 -2.14148 1.39908 0
M  V30 871 H 80.4902 -4.39573 2.54437 0
M  V30 872 H 80.4202 -5.18025 0.946432 0
M  V30 873 H 82.9112 -3.62367 1.07231 0
M  V30 874 H 83.2242 -7.20863 2.78525 0
M  V30 875 H 81.5692 -6.48542 2.49836 0
M  V30 876 H 84.7602 -4.46396 1.40883 0
M  V30 877 H 84.9332 -6.09881 2.18973 0
M  V30 878 N 78.3393 -0.321999 -1.54275 0
M  V30 879 C 79.5643 0.285791 -2.05422 0
M  V30 880 C 79.9893 1.45124 -1.19669 0
M  V30 881 O 79.3473 1.80132 -0.205441 0
M  V30 882 C 79.3953 0.69956 -3.53749 0
M  V30 883 O 78.4993 1.8021 -3.70942 0
M  V30 884 H 77.8403 0.0518962 -0.661969 0
M  V30 885 H 80.3703 -0.469954 -1.9913 0
M  V30 886 H 80.3803 0.982649 -3.9599 0
M  V30 887 H 79.0553 -0.152864 -4.15619 0
M  V30 888 H 77.6323 1.51794 -3.40607 0
M  V30 889 N 79.8174 1.5752 -0.0501392 0
M  V30 890 C 81.0574 1.94521 0.627783 0
M  V30 891 C 81.4214 0.928265 1.68069 0
M  V30 892 O 82.6224 1.18517 2.41261 0
M  V30 893 C 80.8934 3.36319 1.20932 0
M  V30 894 S 82.4524 3.95272 1.90539 0
M  V30 895 H 79.2704 0.680456 0.206158 0
M  V30 896 H 81.8724 1.95139 -0.118829 0
M  V30 897 H 80.5764 4.08132 0.430865 0
M  V30 898 H 80.1074 3.39193 1.99277 0
M  V30 899 H 82.1224 3.80415 3.18589 0
M  V30 900 N 81.2955 -0.223234 1.56011 0
M  V30 901 C 82.7115 -0.572856 1.48965 0
M  V30 902 C 82.9115 -1.87225 0.74492 0
M  V30 903 O 81.9675 -2.50899 0.283896 0
M  V30 904 C 83.2805 -0.653646 2.9351 0
M  V30 905 C 84.8285 -0.744386 3.0402 0
M  V30 906 C 85.3035 -0.856535 4.49919 0
M  V30 907 N 86.7945 -0.9208 4.53955 0
M  V30 908 C 87.5295 -1.02726 5.64123 0
M  V30 909 N 87.0255 -1.09777 6.84047 0
M  V30 910 N 88.8185 -1.06226 5.51971 0
M  V30 911 H 80.9695 0.629462 2.02858 0
M  V30 912 H 83.2325 0.220621 0.921971 0
M  V30 913 H 82.9385 0.231518 3.50937 0
M  V30 914 H 82.8125 -1.51781 3.45315 0
M  V30 915 H 85.1995 -1.61999 2.46658 0
M  V30 916 H 85.2805 0.14541 2.55386 0
M  V30 917 H 84.9245 0.0146069 5.07898 0
M  V30 918 H 84.8545 -1.76172 4.96257 0
M  V30 919 H 87.3455 -0.876694 3.6759 0
M  V30 920 H 87.6585 -1.17872 7.63758 0
M  V30 921 H 86.0035 -1.06693 6.86762 0
M  V30 922 H 89.1945 -1.00382 4.5721 0
M  V30 923 H 89.3675 -1.14177 6.37862 0
M  V30 924 N 82.7736 -1.49793 -0.48987 0
M  V30 925 C 83.6836 -1.70036 -1.61632 0
M  V30 926 C 84.6996 -0.583102 -1.63939 0
M  V30 927 O 85.8756 -0.859169 -1.82154 0
M  V30 928 C 82.9406 -1.77277 -2.97949 0
M  V30 929 C 82.0016 -3.00918 -3.06181 0
M  V30 930 C 81.2346 -3.07804 -4.35996 0
M  V30 931 O 81.4576 -2.21982 -5.25433 0
M  V30 932 O 80.3916 -4.00369 -4.49431 0
M  V30 933 H 84.2176 -2.65486 -1.47482 0
M  V30 934 H 81.8026 -1.33666 -0.667362 0
M  V30 935 H 83.6846 -1.84329 -3.78947 0
M  V30 936 H 82.3596 -0.850076 -3.12339 0
M  V30 937 H 81.2666 -2.99377 -2.2433 0
M  V30 938 H 82.5996 -3.92704 -2.96723 0
M  V30 939 N 84.2517 0.741722 -1.39055 0
M  V30 940 C 85.4997 1.49818 -1.35643 0
M  V30 941 C 85.8207 1.94938 0.0491642 0
M  V30 942 O 85.0907 1.68505 0.999141 0
M  V30 943 H 83.6707 0.555755 -0.499144 0
M  V30 944 H 86.3327 0.880957 -1.73854 0
M  V30 945 H 85.4287 2.38348 -2.01486 0
M  V30 946 N 85.7298 1.2412 0.971189 0
M  V30 947 C 86.9758 1.08041 1.71625 0
M  V30 948 C 87.3088 -0.380407 1.90438 0
M  V30 949 O 86.5838 -1.28127 1.46334 0
M  V30 950 C 86.8668 1.81682 3.10908 0
M  V30 951 C 86.7198 3.35493 2.99608 0
M  V30 952 C 88.0388 1.58671 4.10501 0
M  V30 953 H 85.1578 0.39388 0.622919 0
M  V30 954 H 87.7998 1.52743 1.13003 0
M  V30 955 H 85.9498 1.43684 3.60953 0
M  V30 956 H 87.6218 3.83068 2.57015 0
M  V30 957 H 85.8648 3.64052 2.35899 0
M  V30 958 H 86.5358 3.82217 3.98264 0
M  V30 959 H 89.0118 1.91719 3.69301 0
M  V30 960 H 87.8878 2.1266 5.06031 0
M  V30 961 H 88.1488 0.524161 4.38982 0
M  V30 962 N 87.2079 -1.17134 1.05439 0
M  V30 963 C 88.4479 -1.89137 0.77502 0
M  V30 964 C 88.8119 -1.79345 -0.685526 0
M  V30 965 O 90.0129 -2.46188 -1.0791 0
M  V30 966 C 88.2839 -3.35003 1.2453 0
M  V30 967 S 89.8429 -4.24952 1.09367 0
M  V30 968 H 86.6609 -0.652949 0.281387 0
M  V30 969 H 89.2629 -1.4145 1.34953 0
M  V30 970 H 87.9669 -3.39666 2.30338 0
M  V30 971 H 87.4979 -3.87736 0.665166 0
M  V30 972 H 89.5129 -4.96196 0.0193397 0
M  V30 973 N 88.686 -0.835752 -1.33615 0
M  V30 974 C 89.934 -0.429109 -1.97492 0
M  V30 975 C 90.255 1.01433 -1.66543 0
M  V30 976 O 89.525 1.70611 -0.962744 0
M  V30 977 H 88.105 -0.155686 -0.730596 0
M  V30 978 H 90.767 -1.06802 -1.63031 0
M  V30 979 H 89.863 -0.55861 -3.0706 0
M  V30 980 N 90.1641 1.46063 -0.591896 0
M  V30 981 C 91.3891 2.07226 -0.0850314 0
M  V30 982 C 91.8141 1.43625 1.21463 0
M  V30 983 O 91.1721 0.523305 1.73583 0
M  V30 984 C 91.2201 3.60554 0.0576567 0
M  V30 985 O 90.3241 3.97128 1.11188 0
M  V30 986 H 89.6651 0.660615 -0.0669568 0
M  V30 987 H 92.1951 1.8756 -0.81745 0
M  V30 988 H 92.2051 4.07165 0.2609 0
M  V30 989 H 90.8801 4.06235 -0.891416 0
M  V30 990 H 89.4571 3.62213 0.886356 0
M  V30 991 N 91.6422 0.330177 1.54103 0
M  V30 992 C 92.9192 -0.325007 1.92881 0
M  V30 993 C 93.2992 -1.6934 1.26045 0
M  V30 994 O 92.6472 -2.24855 0.406526 0
M  V30 995 C 92.8572 -0.410634 3.46576 0
M  V30 996 C 94.2052 -0.667801 4.19316 0
M  V30 997 O 95.2292 -0.49329 3.52768 0
M  V30 998 O 94.0882 -1.00491 5.37181 0
M  V30 999 H 91.1822 -0.186873 0.80561 0
M  V30 1000 H 93.7282 0.380376 1.65382 0
M  V30 1001 H 92.5002 0.550164 3.87413 0
M  V30 1002 H 92.1232 -1.16333 3.802 0
M  V30 1003 N 93.1203 -1.57491 0.0584922 0
M  V30 1004 C 94.3683 -1.92597 -0.612436 0
M  V30 1005 C 94.6893 -0.938162 -1.70949 0
M  V30 1006 O 93.9593 0.0158301 -1.95894 0
M  V30 1007 H 92.5393 -0.710964 -0.229214 0
M  V30 1008 H 95.2013 -1.94571 0.113218 0
M  V30 1009 H 94.2973 -2.94038 -1.04633 0
M  V30 1010 N 94.5984 0.214957 -1.56127 0
M  V30 1011 C 95.5284 1.2695 -1.95974 0
M  V30 1012 C 96.5094 1.48539 -0.828868 0
M  V30 1013 O 97.6944 1.60611 -1.09168 0
M  V30 1014 C 94.8244 2.61794 -2.28214 0
M  V30 1015 C 93.7784 2.54851 -3.43853 0
M  V30 1016 C 93.1044 3.93785 -3.61715 0
M  V30 1017 C 94.4044 2.09065 -4.78632 0
M  V30 1018 H 96.0984 0.93846 -2.84312 0
M  V30 1019 H 93.6444 0.449996 -1.36788 0
M  V30 1020 H 95.5974 3.35731 -2.54682 0
M  V30 1021 H 94.3214 2.96599 -1.36736 0
M  V30 1022 H 92.9804 1.8337 -3.17444 0
M  V30 1023 H 92.6284 4.25908 -2.67602 0
M  V30 1024 H 92.3284 3.90019 -4.39498 0
M  V30 1025 H 93.8524 4.69374 -3.90539 0
M  V30 1026 H 95.2664 2.7275 -5.04262 0
M  V30 1027 H 93.6634 2.16346 -5.59745 0
M  V30 1028 H 94.7334 1.04315 -4.73547 0
M  V30 1029 N 96.0765 1.50051 0.48192 0
M  V30 1030 C 97.0245 1.68635 1.60203 0
M  V30 1031 C 98.0185 0.552184 1.60148 0
M  V30 1032 O 99.2245 0.732377 1.64427 0
M  V30 1033 H 95.5995 0.532081 0.531407 0
M  V30 1034 H 97.5705 2.62616 1.41688 0
M  V30 1035 C 96.3195 1.78775 2.9822 0
M  V30 1036 H 95.6425 2.6543 2.98976 0
M  V30 1037 H 97.0825 1.95806 3.7608 0
M  V30 1038 C 95.5415 0.536849 3.32595 0
M  V30 1039 O 96.0715 -0.328897 4.00351 0
M  V30 1040 N 94.2775 0.394091 2.87915 0
M  V30 1041 H 93.8245 1.09962 2.32951 0
M  V30 1042 H 93.7825 -0.441737 3.11281 0
M  V30 1043 N 97.5546 -0.734337 1.39446 0
M  V30 1044 C 98.4876 -1.85715 1.32609 0
M  V30 1045 C 99.4656 -1.6137 0.199636 0
M  V30 1046 O 100.65 -1.84626 0.380195 0
M  V30 1047 C 97.7766 -3.21709 1.05929 0
M  V30 1048 C 96.8226 -3.64913 2.20773 0
M  V30 1049 S 97.6556 -3.74203 3.83056 0
M  V30 1050 C 98.8116 -5.12986 3.58603 0
M  V30 1051 H 99.0446 -1.91232 2.27635 0
M  V30 1052 H 96.5776 -0.899263 1.25509 0
M  V30 1053 H 98.5356 -4.00236 0.912203 0
M  V30 1054 H 97.1966 -3.13848 0.125883 0
M  V30 1055 H 96.3896 -4.63606 1.97699 0
M  V30 1056 H 95.9916 -2.93593 2.31688 0
M  V30 1057 H 98.2836 -5.99339 3.15909 0
M  V30 1058 H 99.2266 -5.41088 4.5676 0
M  V30 1059 H 99.6346 -4.82694 2.9269 0
M  V30 1060 N 99.0327 -1.24633 -0.964593 0
M  V30 1061 C 99.9807 -1.03917 -2.08096 0
M  V30 1062 C 100.975 0.0268581 -1.69379 0
M  V30 1063 O 102.181 -0.127952 -1.79545 0
M  V30 1064 H 98.5557 -0.319044 -0.680966 0
M  V30 1065 H 100.527 -1.98581 -2.22729 0
M  V30 1066 C 99.2757 -0.663983 -3.41301 0
M  V30 1067 H 98.5987 -1.47605 -3.71555 0
M  V30 1068 H 100.039 -0.558663 -4.20303 0
M  V30 1069 C 98.4977 0.629169 -3.30973 0
M  V30 1070 O 99.0277 1.67404 -3.65156 0
M  V30 1071 N 97.2337 0.611057 -2.84103 0
M  V30 1072 H 96.7807 -0.239593 -2.56483 0
M  V30 1073 H 96.7387 1.47647 -2.77575 0
M  V30 1074 N 100.511 1.16574 -1.06058 0
M  V30 1075 C 101.759 1.86677 -0.77434 0
M  V30 1076 C 102.08 1.81959 0.701147 0
M  V30 1077 O 101.35 1.2515 1.50713 0
M  V30 1078 H 99.9298 0.691134 -0.283449 0
M  V30 1079 H 102.592 1.41378 -1.34158 0
M  V30 1080 H 101.688 2.92181 -1.09711 0
M  V30 1081 N 101.989 0.842826 1.3317 0
M  V30 1082 C 102.936 0.276885 2.29133 0
M  V30 1083 C 103.906 -0.609527 1.54512 0
M  V30 1084 O 105.091 -0.546955 1.82792 0
M  V30 1085 C 102.231 -0.538707 3.40869 0
M  V30 1086 C 101.344 0.372169 4.30394 0
M  V30 1087 C 100.479 -0.454908 5.29249 0
M  V30 1088 C 99.5179 0.45411 6.10413 0
M  V30 1089 N 98.6549 -0.335075 7.013 0
M  V30 1090 H 103.495 1.10052 2.76934 0
M  V30 1091 H 101.032 0.554161 1.36262 0
M  V30 1092 H 102.99 -1.02709 4.0436 0
M  V30 1093 H 101.62 -1.32727 2.9425 0
M  V30 1094 H 100.672 0.97888 3.6759 0
M  V30 1095 H 101.984 1.0703 4.87182 0
M  V30 1096 H 101.138 -1.00695 5.98285 0
M  V30 1097 H 99.8769 -1.18646 4.73048 0
M  V30 1098 H 98.8819 1.01813 5.40291 0
M  V30 1099 H 100.107 1.18409 6.68697 0
M  V30 1100 H 98.0529 -1.04994 6.47543 0
M  V30 1101 H 97.9699 0.304262 7.55387 0
M  V30 1102 H 99.2379 -0.869224 7.74638 0
M  V30 1103 N 103.467 -1.45747 0.599634 0
M  V30 1104 C 104.415 -2.322 -0.136426 0
M  V30 1105 C 105.409 -1.45497 -0.867583 0
M  V30 1106 O 106.615 -1.62027 -0.78405 0
M  V30 1107 H 102.99 -0.749368 -0.0628588 0
M  V30 1108 H 104.961 -2.92072 0.611281 0
M  V30 1109 C 103.71 -3.28974 -1.12567 0
M  V30 1110 H 103.033 -3.9568 -0.572484 0
M  V30 1111 H 104.473 -3.92212 -1.61077 0
M  V30 1112 C 102.932 -2.55561 -2.19523 0
M  V30 1113 O 103.462 -2.33111 -3.27143 0
M  V30 1114 N 101.668 -2.15832 -1.94589 0
M  V30 1115 H 101.215 -2.3429 -1.07078 0
M  V30 1116 H 101.173 -1.67034 -2.66359 0
M  V30 1117 N 104.945 -0.338344 -1.53925 0
M  V30 1118 C 106.193 0.259245 -2.0043 0
M  V30 1119 C 106.514 1.51484 -1.22791 0
M  V30 1120 O 105.784 1.93037 -0.33368 0
M  V30 1121 H 104.364 0.0987845 -0.740439 0
M  V30 1122 H 107.026 -0.458302 -1.89435 0
M  V30 1123 H 106.122 0.505334 -3.07982 0
M  V30 1124 N 106.423 1.57458 -0.0668435 0
M  V30 1125 C 107.353 2.15468 0.899764 0
M  V30 1126 C 108.334 1.08042 1.31381 0
M  V30 1127 O 109.519 1.36054 1.38574 0
M  V30 1128 C 106.649 2.71232 2.16911 0
M  V30 1129 C 105.603 3.83781 1.89463 0
M  V30 1130 C 104.929 4.26127 3.22986 0
M  V30 1131 C 106.229 5.08238 1.20381 0
M  V30 1132 H 107.923 2.96488 0.416529 0
M  V30 1133 H 105.469 1.4262 0.198908 0
M  V30 1134 H 107.422 3.10458 2.84945 0
M  V30 1135 H 106.146 1.87426 2.67468 0
M  V30 1136 H 104.805 3.45051 1.23836 0
M  V30 1137 H 104.453 3.39249 3.71374 0
M  V30 1138 H 104.153 5.01993 3.05413 0
M  V30 1139 H 105.677 4.67966 3.92225 0
M  V30 1140 H 107.091 5.44811 1.78475 0
M  V30 1141 H 105.488 5.89349 1.13083 0
M  V30 1142 H 106.558 4.84558 0.182153 0
M  V30 1143 N 107.901 -0.206675 1.56239 0
M  V30 1144 C 108.864 -1.23976 1.92776 0
M  V30 1145 C 109.864 -1.39041 0.807729 0
M  V30 1146 O 111.054 -1.37051 1.0753 0
M  V30 1147 C 108.186 -2.61112 2.19165 0
M  V30 1148 H 109.379 -0.927764 2.85189 0
M  V30 1149 H 106.932 -0.447718 1.4975 0
M  V30 1150 H 107.667 -2.97386 1.29352 0
M  V30 1151 H 107.452 -2.51552 3.00772 0
M  V30 1152 H 108.942 -3.35633 2.48476 0
M  V30 1153 N 109.379 -1.50304 -0.473955 0
M  V30 1154 C 110.619 -1.62786 -1.23612 0
M  V30 1155 C 110.983 -0.319786 -1.89318 0
M  V30 1156 O 112.184 -0.320012 -2.66888 0
M  V30 1157 C 110.455 -2.77351 -2.25414 0
M  V30 1158 S 112.014 -3.09948 -3.10608 0
M  V30 1159 H 108.832 -0.573895 -0.419721 0
M  V30 1160 H 111.434 -1.88076 -0.533623 0
M  V30 1161 H 110.138 -3.70879 -1.75719 0
M  V30 1162 H 109.669 -2.54137 -3.00296 0
M  V30 1163 H 111.684 -2.53553 -4.26527 0
M  V30 1164 N 110.857 0.726932 -1.39834 0
M  V30 1165 C 112.106 1.48214 -1.36805 0
M  V30 1166 C 112.419 1.95576 0.0305291 0
M  V30 1167 O 113.625 2.7088 0.183417 0
M  V30 1168 C 112.081 2.67854 -2.40379 0
M  V30 1169 C 111.689 2.27408 -3.85992 0
M  V30 1170 C 113.433 3.45641 -2.46439 0
M  V30 1171 C 111.34 3.43819 -4.81189 0
M  V30 1172 H 110.27 0.556606 -0.508631 0
M  V30 1173 H 112.921 0.792216 -1.65518 0
M  V30 1174 H 111.303 3.3896 -2.04749 0
M  V30 1175 H 112.477 1.63795 -4.30706 0
M  V30 1176 H 110.792 1.62692 -3.83302 0
M  V30 1177 H 113.389 4.32244 -3.14753 0
M  V30 1178 H 113.732 3.88669 -1.49139 0
M  V30 1179 H 114.265 2.8157 -2.81004 0
M  V30 1180 H 111.004 3.05834 -5.79781 0
M  V30 1181 H 110.524 4.06385 -4.41148 0
M  V30 1182 H 112.203 4.10043 -5.00474 0
M  V30 1183 N 112.336 1.25143 0.95797 0
M  V30 1184 C 113.564 1.12424 1.73691 0
M  V30 1185 C 113.979 -0.322304 1.86029 0
M  V30 1186 O 113.336 -1.22186 1.35561 0
M  V30 1187 C 113.387 1.76933 3.15241 0
M  V30 1188 O 113.108 3.15932 3.03511 0
M  V30 1189 C 114.609 1.6995 4.09429 0
M  V30 1190 H 111.829 0.3923 0.544373 0
M  V30 1191 H 114.373 1.6544 1.20207 0
M  V30 1192 H 112.528 1.27895 3.6568 0
M  V30 1193 H 112.942 3.47598 3.9278 0
M  V30 1194 H 114.416 2.19753 5.06372 0
M  V30 1195 H 114.893 0.662619 4.34173 0
M  V30 1196 H 115.499 2.18461 3.64904 0
M  V30 1197 N 113.814 -1.1601 1.06675 0
M  V30 1198 C 115.225 -1.68235 0.809565 0
M  V30 1199 C 115.576 -1.8454 -0.666303 0
M  V30 1200 O 114.701 -1.54374 -1.5165 0
M  V30 1201 C 115.296 -3.05585 1.46299 0
M  V30 1202 C 113.855 -3.54915 1.25349 0
M  V30 1203 C 113.002 -2.30804 1.53703 0
M  V30 1204 H 115.953 -1.00318 1.22971 0
M  V30 1205 H 115.974 -3.70174 0.880431 0
M  V30 1206 H 115.486 -2.93686 2.53713 0
M  V30 1207 H 113.587 -3.72067 0.199261 0
M  V30 1208 H 113.7 -4.36774 1.9689 0
M  V30 1209 H 112.064 -2.36007 0.957739 0
M  V30 1210 H 112.847 -2.21499 2.62284 0
M  V30 1211 N 115.292 -0.849877 -1.32721 0
M  V30 1212 C 116.541 -0.447175 -1.96681 0
M  V30 1213 C 116.854 1.00135 -1.68025 0
M  V30 1214 O 118.06 1.50926 -2.25685 0
M  V30 1215 C 116.516 -0.7487 -3.52026 0
M  V30 1216 C 116.124 -2.21264 -3.89546 0
M  V30 1217 C 117.868 -0.413487 -4.22481 0
M  V30 1218 C 115.775 -2.45763 -5.37917 0
M  V30 1219 H 114.705 -0.163486 -0.736063 0
M  V30 1220 H 117.356 -1.03999 -1.51183 0
M  V30 1221 H 115.738 -0.0853727 -3.95908 0
M  V30 1222 H 116.912 -2.91736 -3.56689 0
M  V30 1223 H 115.227 -2.5119 -3.32103 0
M  V30 1224 H 117.824 -0.574017 -5.3161 0
M  V30 1225 H 118.167 0.644492 -4.11281 0
M  V30 1226 H 118.7 -1.03251 -3.84167 0
M  V30 1227 H 115.439 -3.50168 -5.54132 0
M  V30 1228 H 114.959 -1.79864 -5.72197 0
M  V30 1229 H 116.638 -2.29471 -6.0494 0
M  V30 1230 N 116.77 1.45427 -0.607355 0
M  V30 1231 C 117.995 2.07124 -0.107006 0
M  V30 1232 C 118.42 1.44906 1.19933 0
M  V30 1233 O 117.778 0.541687 1.73019 0
M  V30 1234 C 117.826 3.60595 0.0194119 0
M  V30 1235 O 116.93 3.98285 1.0697 0
M  V30 1236 H 116.271 0.659868 -0.0739597 0
M  V30 1237 H 118.801 1.86683 -0.837297 0
M  V30 1238 H 118.811 4.07419 0.2177 0
M  V30 1239 H 117.486 4.05266 -0.934453 0
M  V30 1240 H 116.063 3.63133 0.847889 0
M  V30 1241 N 118.248 0.346503 1.53744 0
M  V30 1242 C 119.211 -0.496439 2.23759 0
M  V30 1243 C 120.211 -1.0252 1.2388 0
M  V30 1244 O 121.401 -0.913974 1.48297 0
M  V30 1245 C 118.533 -1.69187 2.95954 0
M  V30 1246 H 119.726 0.115952 2.99676 0
M  V30 1247 H 117.279 0.0978939 1.55993 0
M  V30 1248 H 118.014 -2.34288 2.24231 0
M  V30 1249 H 117.799 -1.31989 3.69217 0
M  V30 1250 H 119.289 -2.28969 3.49232 0
M  V30 1251 N 119.726 -1.57421 0.075193 0
M  V30 1252 C 120.656 -2.15942 -0.888324 0
M  V30 1253 C 121.637 -1.08737 -1.30806 0
M  V30 1254 O 122.822 -1.36787 -1.37851 0
M  V30 1255 C 119.952 -2.72379 -2.1547 0
M  V30 1256 C 118.906 -3.8478 -1.87425 0
M  V30 1257 C 118.232 -4.27834 -3.20721 0
M  V30 1258 C 119.532 -5.08869 -1.17684 0
M  V30 1259 H 121.226 -2.96705 -0.400799 0
M  V30 1260 H 118.772 -1.42723 -0.191342 0
M  V30 1261 H 120.725 -3.11965 -2.83295 0
M  V30 1262 H 119.449 -1.88841 -2.6647 0
M  V30 1263 H 118.108 -3.45703 -1.22004 0
M  V30 1264 H 117.756 -3.41214 -3.6957 0
M  V30 1265 H 117.456 -5.03605 -3.02746 0
M  V30 1266 H 118.98 -4.70039 -3.89738 0
M  V30 1267 H 120.394 -5.4575 -1.75584 0
M  V30 1268 H 118.791 -5.8994 -1.09956 0
M  V30 1269 H 119.861 -4.84648 -0.156453 0
M  V30 1270 N 121.204 0.198386 -1.56346 0
M  V30 1271 C 122.152 1.26538 -1.95169 0
M  V30 1272 C 123.146 1.47295 -0.836685 0
M  V30 1273 O 124.352 1.48195 -1.02167 0
M  V30 1274 H 120.727 0.424744 -0.620561 0
M  V30 1275 H 122.698 0.910904 -2.84157 0
M  V30 1276 C 121.447 2.6035 -2.30463 0
M  V30 1277 H 120.77 2.45192 -3.15786 0
M  V30 1278 H 122.21 3.33762 -2.61494 0
M  V30 1279 C 120.669 3.17096 -1.13806 0
M  V30 1280 O 121.199 3.99588 -0.41135 0
M  V30 1281 N 119.405 2.75795 -0.915736 0
M  V30 1282 H 118.952 2.08816 -1.50843 0
M  V30 1283 H 118.91 3.14101 -0.136979 0
M  V30 1284 N 122.682 1.50554 0.465978 0
M  V30 1285 C 123.614 1.65949 1.58093 0
M  V30 1286 C 124.627 0.540827 1.53554 0
M  V30 1287 O 125.816 0.814187 1.5885 0
M  V30 1288 C 122.916 1.63261 2.96983 0
M  V30 1289 C 122.089 2.91245 3.26336 0
M  V30 1290 C 121.148 2.8113 4.44806 0
M  V30 1291 O 120.174 3.55086 4.44862 0
M  V30 1292 N 121.376 1.95032 5.46756 0
M  V30 1293 H 124.141 2.62122 1.45301 0
M  V30 1294 H 121.702 1.48082 0.65448 0
M  V30 1295 H 123.694 1.54101 3.74212 0
M  V30 1296 H 122.264 0.748032 3.03518 0
M  V30 1297 H 121.484 3.14493 2.37672 0
M  V30 1298 H 122.772 3.76022 3.42761 0
M  V30 1299 H 122.17 1.3427 5.49534 0
M  V30 1300 H 120.727 1.91772 6.2295 0
M  V30 1301 N 124.16 -0.719506 1.40217 0
M  V30 1302 C 125.571 -1.29848 1.34151 0
M  V30 1303 C 125.922 -1.96196 0.0131349 0
M  V30 1304 O 125.047 -1.973 -0.88892 0
M  V30 1305 C 125.642 -2.36118 2.42968 0
M  V30 1306 C 124.201 -2.8965 2.40374 0
M  V30 1307 C 123.348 -1.63393 2.24049 0
M  V30 1308 H 126.299 -0.51591 1.5008 0
M  V30 1309 H 126.32 -3.16871 2.10649 0
M  V30 1310 H 125.832 -1.878 3.39636 0
M  V30 1311 H 123.933 -3.42208 1.47392 0
M  V30 1312 H 124.046 -3.4171 3.35814 0
M  V30 1313 H 122.41 -1.88312 1.71495 0
M  V30 1314 H 123.193 -1.17104 3.2271 0
M  V30 1315 N 125.638 -1.25649 -0.95132 0
M  V30 1316 C 126.886 -1.10375 -1.69298 0
M  V30 1317 C 127.207 0.355339 -1.91735 0
M  V30 1318 O 126.477 1.25188 -1.50681 0
M  V30 1319 H 125.057 -0.405461 -0.627384 0
M  V30 1320 H 127.719 -1.57823 -1.14358 0
M  V30 1321 H 126.815 -1.61465 -2.67087 0
M  V30 1322 N 127.117 1.15442 -1.07289 0
M  V30 1323 C 128.064 2.20161 -0.692653 0
M  V30 1324 C 129.034 1.63073 0.31564 0
M  V30 1325 O 130.219 1.89725 0.202235 0
M  V30 1326 C 127.359 3.44967 -0.0959509 0
M  V30 1327 C 126.472 4.16256 -1.15564 0
M  V30 1328 C 125.607 5.28609 -0.524011 0
M  V30 1329 C 124.646 5.91715 -1.56653 0
M  V30 1330 N 123.783 6.9554 -0.957531 0
M  V30 1331 H 128.623 2.52037 -1.59002 0
M  V30 1332 H 126.16 1.2378 -0.794798 0
M  V30 1333 H 128.118 4.16341 0.267628 0
M  V30 1334 H 126.748 3.1361 0.764772 0
M  V30 1335 H 125.8 3.43385 -1.6368 0
M  V30 1336 H 127.112 4.59268 -1.94613 0
M  V30 1337 H 126.266 6.06604 -0.108032 0
M  V30 1338 H 125.005 4.86787 0.29825 0
M  V30 1339 H 124.01 5.12433 -1.9923 0
M  V30 1340 H 125.235 6.35614 -2.39107 0
M  V30 1341 H 123.181 6.55814 -0.156162 0
M  V30 1342 H 123.098 7.36977 -1.68526 0
M  V30 1343 H 124.366 7.77435 -0.567032 0
M  V30 1344 N 128.595 0.856903 1.32268 0
M  V30 1345 C 129.542 0.301172 2.28827 0
M  V30 1346 C 130.512 -0.593104 1.5515 0
M  V30 1347 O 131.697 -0.527537 1.83362 0
M  V30 1348 C 128.837 -0.502523 3.41422 0
M  V30 1349 C 127.95 0.417797 4.29975 0
M  V30 1350 C 127.085 -0.398749 5.29701 0
M  V30 1351 C 126.124 0.518827 6.09897 0
M  V30 1352 N 125.261 -0.260674 7.01616 0
M  V30 1353 H 130.101 1.12983 2.75751 0
M  V30 1354 H 127.638 0.568582 1.35667 0
M  V30 1355 H 129.596 -0.984141 4.05426 0
M  V30 1356 H 128.226 -1.29599 2.95642 0
M  V30 1357 H 127.278 1.01781 3.66531 0
M  V30 1358 H 128.59 1.12191 4.86019 0
M  V30 1359 H 127.744 -0.943435 5.9932 0
M  V30 1360 H 126.483 -1.13622 4.7428 0
M  V30 1361 H 125.488 1.07538 5.39181 0
M  V30 1362 H 126.713 1.25495 6.67404 0
M  V30 1363 H 124.659 -0.981198 6.4862 0
M  V30 1364 H 124.576 0.384364 7.55022 0
M  V30 1365 H 125.844 -0.787014 7.75517 0
M  V30 1366 N 130.073 -1.45103 0.615059 0
M  V30 1367 C 131.322 -2.01396 0.110718 0
M  V30 1368 C 131.635 -1.48834 -1.26916 0
M  V30 1369 O 132.841 -1.97152 -1.86664 0
M  V30 1370 C 131.297 -3.59599 0.14723 0
M  V30 1371 C 130.905 -4.21158 1.52743 0
M  V30 1372 C 132.649 -4.23428 -0.30148 0
M  V30 1373 C 130.556 -5.71535 1.51992 0
M  V30 1374 H 129.486 -0.753061 0.0376241 0
M  V30 1375 H 132.137 -1.66494 0.77149 0
M  V30 1376 H 130.519 -3.91724 -0.580339 0
M  V30 1377 H 131.693 -4.00594 2.2773 0
M  V30 1378 H 130.008 -3.69552 1.91886 0
M  V30 1379 H 132.605 -5.33703 -0.326392 0
M  V30 1380 H 132.948 -3.94629 -1.32565 0
M  V30 1381 H 133.481 -3.96047 0.373065 0
M  V30 1382 H 130.22 -6.05044 2.52193 0
M  V30 1383 H 129.74 -5.94268 0.81274 0
M  V30 1384 H 131.419 -6.34873 1.24681 0
M  V30 1385 N 131.551 -0.354651 -1.53558 0
M  V30 1386 C 132.797 0.238797 -2.01389 0
M  V30 1387 C 133.13 1.49309 -1.2418 0
M  V30 1388 O 132.405 1.91638 -0.332457 0
M  V30 1389 C 132.688 0.541771 -3.56001 0
M  V30 1390 C 132.541 -0.725388 -4.43912 0
M  V30 1391 C 133.86 1.34685 -4.18984 0
M  V30 1392 H 130.979 0.0853177 -0.732045 0
M  V30 1393 H 133.621 -0.477384 -1.83905 0
M  V30 1394 H 131.771 1.15189 -3.71031 0
M  V30 1395 H 133.443 -1.36313 -4.407 0
M  V30 1396 H 131.686 -1.34801 -4.12324 0
M  V30 1397 H 132.357 -0.468505 -5.50008 0
M  V30 1398 H 134.833 0.830837 -4.07721 0
M  V30 1399 H 133.709 1.52759 -5.27215 0
M  V30 1400 H 133.97 2.35221 -3.74331 0
M  V30 1401 N 133.029 1.57378 -0.0835403 0
M  V30 1402 C 134.278 1.93106 0.582498 0
M  V30 1403 C 134.591 0.96651 1.70053 0
M  V30 1404 O 135.797 1.21705 2.42693 0
M  V30 1405 C 134.253 3.43076 1.08751 0
M  V30 1406 C 133.861 4.48 -0.000146404 0
M  V30 1407 C 135.605 3.87785 1.72694 0
M  V30 1408 C 133.512 5.89113 0.519568 0
M  V30 1409 H 132.442 0.720775 0.221358 0
M  V30 1410 H 135.093 1.82821 -0.157675 0
M  V30 1411 H 133.475 3.48474 1.88101 0
M  V30 1412 H 134.649 4.54233 -0.775199 0
M  V30 1413 H 132.964 4.1283 -0.54406 0
M  V30 1414 H 135.561 4.90604 2.1263 0
M  V30 1415 H 135.904 3.25796 2.59158 0
M  V30 1416 H 136.437 3.8504 0.999457 0
M  V30 1417 H 133.176 6.54775 -0.308186 0
M  V30 1418 H 132.696 5.86376 1.26188 0
M  V30 1419 H 134.375 6.39346 0.992237 0
M  V30 1420 N 134.507 -0.190092 1.56449 0
M  V30 1421 C 135.923 -0.54113 1.50146 0
M  V30 1422 C 136.123 -1.85603 0.784465 0
M  V30 1423 O 135.179 -2.5024 0.337051 0
M  V30 1424 C 136.492 -0.591241 2.9483 0
M  V30 1425 C 138.04 -0.679732 3.0553 0
M  V30 1426 C 138.515 -0.760908 4.51635 0
M  V30 1427 N 140.006 -0.824302 4.55806 0
M  V30 1428 C 140.741 -0.907365 5.66175 0
M  V30 1429 N 140.237 -0.952422 6.86222 0
M  V30 1430 N 142.03 -0.94494 5.541 0
M  V30 1431 H 134.181 0.67235 2.01478 0
M  V30 1432 H 136.444 0.240127 0.917084 0
M  V30 1433 H 136.15 0.305905 3.50367 0
M  V30 1434 H 136.024 -1.44422 3.48457 0
M  V30 1435 H 138.411 -1.56731 2.50039 0
M  V30 1436 H 138.492 0.199549 2.5502 0
M  V30 1437 H 138.136 0.122336 5.07753 0
M  V30 1438 H 138.066 -1.65606 4.99882 0
M  V30 1439 H 140.557 -0.798526 3.69367 0
M  V30 1440 H 140.87 -1.01645 7.66086 0
M  V30 1441 H 139.215 -0.921014 6.8887 0
M  V30 1442 H 142.406 -0.906612 4.59236 0
M  V30 1443 H 142.579 -1.00622 6.4014 0
M  V30 1444 N 135.985 -1.50799 -0.457987 0
M  V30 1445 C 137.396 -1.55152 -1.0385 0
M  V30 1446 C 137.747 -0.362719 -1.92818 0
M  V30 1447 O 136.872 0.522915 -2.09987 0
M  V30 1448 C 137.467 -2.81173 -1.89017 0
M  V30 1449 C 136.026 -2.88164 -2.42154 0
M  V30 1450 C 135.173 -2.49591 -1.20829 0
M  V30 1451 H 138.124 -1.56874 -0.240068 0
M  V30 1452 H 138.145 -2.63769 -2.74238 0
M  V30 1453 H 137.657 -3.67677 -1.24238 0
M  V30 1454 H 135.758 -2.06042 -3.10447 0
M  V30 1455 H 135.871 -3.91356 -2.76364 0
M  V30 1456 H 134.235 -2.02322 -1.54719 0
M  V30 1457 H 135.018 -3.38418 -0.576927 0
M  V30 1458 N 137.463 0.71206 -1.40597 0
M  V30 1459 C 138.393 1.83889 -1.43899 0
M  V30 1460 C 139.374 1.67442 -0.299504 0
M  V30 1461 O 140.559 1.87421 -0.508624 0
M  V30 1462 C 137.689 3.21877 -1.30431 0
M  V30 1463 C 136.643 3.53002 -2.42019 0
M  V30 1464 C 135.969 4.90172 -2.13626 0
M  V30 1465 C 137.269 3.53643 -3.84362 0
M  V30 1466 H 138.963 1.81383 -2.38203 0
M  V30 1467 H 136.509 0.871237 -1.14654 0
M  V30 1468 H 138.462 4.00404 -1.31357 0
M  V30 1469 H 137.186 3.24968 -0.326049 0
M  V30 1470 H 135.845 2.76818 -2.40349 0
M  V30 1471 H 135.493 4.89869 -1.14182 0
M  V30 1472 H 135.193 5.11962 -2.88389 0
M  V30 1473 H 136.717 5.71028 -2.1624 0
M  V30 1474 H 138.131 4.22203 -3.87837 0
M  V30 1475 H 136.528 3.86961 -4.58673 0
M  V30 1476 H 137.598 2.52954 -4.13693 0
M  V30 1477 N 138.941 1.26152 0.944643 0
M  V30 1478 C 140.352 1.10454 1.50522 0
M  V30 1479 C 140.703 -0.31635 1.93633 0
M  V30 1480 O 139.828 -1.20746 1.79581 0
M  V30 1481 C 140.423 1.99891 2.73549 0
M  V30 1482 C 138.982 1.88348 3.25886 0
M  V30 1483 C 138.129 1.93447 1.9868 0
M  V30 1484 H 141.08 1.39292 0.760489 0
M  V30 1485 H 141.101 1.54477 3.47732 0
M  V30 1486 H 140.613 3.03297 2.42141 0
M  V30 1487 H 138.714 0.878636 3.62092 0
M  V30 1488 H 138.827 2.73696 3.93227 0
M  V30 1489 H 137.191 1.37456 2.14425 0
M  V30 1490 H 137.974 2.98476 1.69607 0
M  V30 1491 N 140.419 -1.14872 1.07899 0
M  V30 1492 C 141.667 -1.85422 0.803941 0
M  V30 1493 C 141.988 -1.83051 -0.67211 0
M  V30 1494 O 141.258 -1.27532 -1.48703 0
M  V30 1495 H 139.838 -0.686537 0.294408 0
M  V30 1496 H 142.5 -1.39226 1.3639 0
M  V30 1497 H 141.596 -2.90399 1.14346 0
M  V30 1498 N 141.898 -0.863906 -1.31812 0
M  V30 1499 C 142.828 -0.330843 -2.31144 0
M  V30 1500 C 143.809 0.575005 -1.60087 0
M  V30 1501 O 144.994 0.493304 -1.8783 0
M  V30 1502 C 142.124 0.47374 -3.44054 0
M  V30 1503 C 141.078 -0.338481 -4.26659 0
M  V30 1504 C 140.404 0.591412 -5.31419 0
M  V30 1505 C 141.704 -1.56926 -4.98168 0
M  V30 1506 H 143.398 -1.16086 -2.75979 0
M  V30 1507 H 140.944 -0.559657 -1.32679 0
M  V30 1508 H 142.897 0.857143 -4.12591 0
M  V30 1509 H 141.621 1.33721 -2.9797 0
M  V30 1510 H 140.28 -0.703754 -3.59782 0
M  V30 1511 H 139.928 1.45199 -4.81587 0
M  V30 1512 H 139.628 0.0519022 -5.87577 0
M  V30 1513 H 141.152 0.97179 -6.02817 0
M  V30 1514 H 142.566 -1.25764 -5.59336 0
M  V30 1515 H 140.963 -2.04739 -5.64094 0
M  V30 1516 H 142.033 -2.32544 -4.25501 0
M  V30 1517 N 143.376 1.44774 -0.622745 0
M  V30 1518 C 144.787 1.85546 -0.207226 0
M  V30 1519 C 145.138 1.52093 1.23944 0
M  V30 1520 O 144.263 0.95492 1.94191 0
M  V30 1521 C 144.858 3.36781 -0.369313 0
M  V30 1522 C 143.417 3.76399 -0.00836847 0
M  V30 1523 C 142.564 2.68664 -0.686651 0
M  V30 1524 H 145.515 1.3536 -0.828454 0
M  V30 1525 H 145.536 3.78453 0.394162 0
M  V30 1526 H 145.048 3.61098 -1.42231 0
M  V30 1527 H 143.149 3.57698 1.04322 0
M  V30 1528 H 143.262 4.7732 -0.412584 0
M  V30 1529 H 141.626 2.54404 -0.122777 0
M  V30 1530 H 142.409 2.95815 -1.74208 0
M  V30 1531 N 144.854 0.36279 1.53368 0
M  V30 1532 C 146.1 -0.228113 2.01513 0
M  V30 1533 C 146.433 -1.48648 1.2497 0
M  V30 1534 O 145.708 -1.91459 0.342616 0
M  V30 1535 C 145.991 -0.522884 3.56284 0
M  V30 1536 C 145.844 0.74892 4.43521 0
M  V30 1537 C 147.163 -1.32461 4.19693 0
M  V30 1538 H 144.282 -0.0814343 0.732487 0
M  V30 1539 H 146.924 0.48713 1.83649 0
M  V30 1540 H 145.074 -1.1322 3.71636 0
M  V30 1541 H 146.746 1.38648 4.39971 0
M  V30 1542 H 144.989 1.36986 4.11603 0
M  V30 1543 H 145.66 0.497667 5.49752 0
M  V30 1544 H 148.136 -0.809203 4.08156 0
M  V30 1545 H 147.012 -1.49961 5.28018 0
M  V30 1546 H 147.273 -2.33232 3.75573 0
M  V30 1547 N 146.332 -1.57332 0.0918853 0
M  V30 1548 C 147.581 -1.93412 -0.572249 0
M  V30 1549 C 147.894 -0.975515 -1.69538 0
M  V30 1550 O 149.1 -1.22991 -2.42045 0
M  V30 1551 C 147.556 -3.43648 -1.0693 0
M  V30 1552 C 147.164 -4.47994 0.0239049 0
M  V30 1553 C 148.908 -3.88695 -1.70635 0
M  V30 1554 C 146.815 -5.89381 -0.488319 0
M  V30 1555 H 145.745 -0.721939 -0.217532 0
M  V30 1556 H 148.396 -1.82735 0.167369 0
M  V30 1557 H 146.778 -3.49466 -1.8625 0
M  V30 1558 H 147.952 -4.53815 0.799277 0
M  V30 1559 H 146.267 -4.12536 0.565946 0
M  V30 1560 H 148.864 -4.91725 -2.10025 0
M  V30 1561 H 149.207 -3.27166 -2.57426 0
M  V30 1562 H 149.74 -3.85564 -0.979023 0
M  V30 1563 H 146.479 -6.54602 0.342906 0
M  V30 1564 H 145.999 -5.87037 -1.23077 0
M  V30 1565 H 147.678 -6.39863 -0.958317 0
M  V30 1566 N 147.81 0.181792 -1.56548 0
M  V30 1567 C 149.226 0.53316 -1.50431 0
M  V30 1568 C 149.426 1.85184 -0.794297 0
M  V30 1569 O 148.482 2.50058 -0.350318 0
M  V30 1570 C 149.795 0.575597 -2.9514 0
M  V30 1571 C 151.343 0.663519 -3.05886 0
M  V30 1572 C 151.818 0.736946 -4.52032 0
M  V30 1573 N 153.309 0.800118 -4.56237 0
M  V30 1574 C 154.044 0.877327 -5.66649 0
M  V30 1575 N 153.54 0.916016 -6.86718 0
M  V30 1576 N 155.333 0.915542 -5.54594 0
M  V30 1577 H 147.484 -0.683025 -2.01118 0
M  V30 1578 H 149.747 -0.244988 -0.915797 0
M  V30 1579 H 149.453 -0.324482 -3.502 0
M  V30 1580 H 149.327 1.42572 -3.49218 0
M  V30 1581 H 151.714 1.55403 -2.50867 0
M  V30 1582 H 151.795 -0.21307 -2.54911 0
M  V30 1583 H 151.439 -0.149262 -5.07681 0
M  V30 1584 H 151.369 1.62953 -5.00753 0
M  V30 1585 H 153.86 0.778926 -3.69785 0
M  V30 1586 H 154.173 0.975813 -7.66614 0
M  V30 1587 H 152.518 0.884469 -6.89349 0
M  V30 1588 H 155.709 0.882245 -4.59711 0
M  V30 1589 H 155.882 0.972253 -6.40665 0
M  V30 1590 N 149.288 1.51039 0.449983 0
M  V30 1591 C 150.565 1.53612 1.21089 0
M  V30 1592 C 150.945 0.292997 2.09057 0
M  V30 1593 O 150.293 -0.72259 2.16774 0
M  V30 1594 C 150.503 2.84337 2.0237 0
M  V30 1595 C 151.851 3.35807 2.59843 0
M  V30 1596 O 152.875 2.85802 2.12593 0
M  V30 1597 O 151.734 4.23029 3.45989 0
M  V30 1598 H 148.828 0.617057 0.550608 0
M  V30 1599 H 151.374 1.63344 0.460082 0
M  V30 1600 H 150.146 3.66278 1.37681 0
M  V30 1601 H 149.769 2.77708 2.84542 0
M  V30 1602 N 150.766 -0.704594 1.40972 0
M  V30 1603 C 151.696 -1.83124 1.44872 0
M  V30 1604 C 152.677 -1.67281 0.30838 0
M  V30 1605 O 153.862 -1.87149 0.518556 0
M  V30 1606 C 150.992 -3.21181 1.32136 0
M  V30 1607 C 149.946 -3.51714 2.43888 0
M  V30 1608 C 149.272 -4.89032 2.16222 0
M  V30 1609 C 150.572 -3.516 3.86232 0
M  V30 1610 H 152.266 -1.80117 2.39161 0
M  V30 1611 H 149.812 -0.865145 1.15114 0
M  V30 1612 H 151.765 -3.99702 1.33479 0
M  V30 1613 H 150.489 -3.24791 0.343279 0
M  V30 1614 H 149.148 -2.75539 2.41813 0
M  V30 1615 H 148.796 -4.89256 1.16778 0
M  V30 1616 H 148.496 -5.10426 2.911 0
M  V30 1617 H 150.02 -5.69873 2.19265 0
M  V30 1618 H 151.434 -4.2014 3.9007 0
M  V30 1619 H 149.831 -3.84523 4.60719 0
M  V30 1620 H 150.901 -2.50757 4.15029 0
M  V30 1621 N 152.244 -1.26651 -0.937939 0
M  V30 1622 C 153.49 -1.12553 -1.687 0
M  V30 1623 C 153.823 0.329782 -1.91379 0
M  V30 1624 O 153.098 1.24202 -1.4968 0
M  V30 1625 C 153.381 -1.89862 -3.05981 0
M  V30 1626 C 153.234 -3.43318 -2.90607 0
M  V30 1627 C 154.553 -1.69499 -4.0615 0
M  V30 1628 H 151.672 -0.410257 -0.612257 0
M  V30 1629 H 154.314 -1.55685 -1.08913 0
M  V30 1630 H 152.464 -1.53204 -3.57017 0
M  V30 1631 H 154.136 -3.89747 -2.46769 0
M  V30 1632 H 152.379 -3.70179 -2.26164 0
M  V30 1633 H 153.05 -3.92642 -3.8799 0
M  V30 1634 H 155.526 -2.01442 -3.64088 0
M  V30 1635 H 154.402 -2.26002 -5.00214 0
M  V30 1636 H 154.663 -0.640365 -4.37438 0
M  V30 1637 N 153.722 1.14298 -1.08507 0
M  V30 1638 C 154.968 1.85633 -0.816581 0
M  V30 1639 C 155.301 1.82784 0.656021 0
M  V30 1640 O 154.576 1.25926 1.48233 0
M  V30 1641 C 154.859 3.34223 -1.34041 0
M  V30 1642 C 154.712 3.45639 -2.87843 0
M  V30 1643 C 156.031 4.29356 -0.9665 0
M  V30 1644 H 153.15 0.67402 -0.298104 0
M  V30 1645 H 155.792 1.34214 -1.34487 0
M  V30 1646 H 153.942 3.78144 -0.89104 0
M  V30 1647 H 155.614 3.10498 -3.41158 0
M  V30 1648 H 153.857 2.86817 -3.25451 0
M  V30 1649 H 154.528 4.50089 -3.19569 0
M  V30 1650 H 157.004 3.93457 -1.35391 0
M  V30 1651 H 155.88 5.3178 -1.3602 0
M  V30 1652 H 156.141 4.41919 0.126362 0
M  V30 1653 N 155.201 0.870884 1.31352 0
M  V30 1654 C 156.478 0.402907 1.91405 0
M  V30 1655 C 156.858 -1.11512 1.79244 0
M  V30 1656 O 156.206 -1.94411 1.2007 0
M  V30 1657 C 156.416 0.885301 3.37585 0
M  V30 1658 C 157.764 0.911971 4.14691 0
M  V30 1659 O 158.788 0.831016 3.46371 0
M  V30 1660 O 157.647 1.02927 5.3672 0
M  V30 1661 H 154.741 0.120698 0.818145 0
M  V30 1662 H 157.287 0.958857 1.40014 0
M  V30 1663 H 156.059 1.92889 3.40455 0
M  V30 1664 H 155.682 0.307714 3.96407 0
M  V30 1665 N 156.679 -1.44442 0.630414 0
M  V30 1666 C 157.612 -2.27862 -0.124247 0
M  V30 1667 C 158.59 -1.38495 -0.851931 0
M  V30 1668 O 159.774 -1.67935 -0.856166 0
M  V30 1669 C 156.901 -3.17407 -1.18197 0
M  V30 1670 C 155.947 -4.22875 -0.554892 0
M  V30 1671 S 156.78 -5.31485 0.654489 0
M  V30 1672 C 157.936 -6.246 -0.40326 0
M  V30 1673 H 158.169 -2.91519 0.583435 0
M  V30 1674 H 155.702 -1.48618 0.418565 0
M  V30 1675 H 157.66 -3.69549 -1.78728 0
M  V30 1676 H 156.321 -2.52971 -1.86184 0
M  V30 1677 H 155.514 -4.85542 -1.35148 0
M  V30 1678 H 155.116 -3.73992 -0.0242105 0
M  V30 1679 H 157.408 -6.65375 -1.27602 0
M  V30 1680 H 158.351 -7.07851 0.187813 0
M  V30 1681 H 158.759 -5.59775 -0.728837 0
M  V30 1682 N 158.157 -0.370918 -1.53173 0
M  V30 1683 C 159.405 0.216673 -2.00935 0
M  V30 1684 C 159.726 1.48845 -1.25977 0
M  V30 1685 O 158.996 1.92286 -0.374551 0
M  V30 1686 H 157.576 0.0830565 -0.742368 0
M  V30 1687 H 160.238 -0.49838 -1.8842 0
M  V30 1688 H 159.334 0.439893 -3.08984 0
M  V30 1689 N 159.635 1.57281 -0.100228 0
M  V30 1690 C 160.567 2.11342 0.886972 0
M  V30 1691 C 161.58 1.05182 1.24261 0
M  V30 1692 O 162.769 1.32613 1.19483 0
M  V30 1693 C 159.869 2.5825 2.19454 0
M  V30 1694 C 159.042 3.88302 2.01346 0
M  V30 1695 C 158.101 4.21004 3.15661 0
M  V30 1696 O 157.127 4.9014 2.89398 0
M  V30 1697 N 158.329 3.76818 4.41575 0
M  V30 1698 H 161.094 2.96668 0.425216 0
M  V30 1699 H 158.655 1.61678 0.0847334 0
M  V30 1700 H 160.647 2.7717 2.94888 0
M  V30 1701 H 159.217 1.77907 2.57037 0
M  V30 1702 H 158.437 3.7848 1.10212 0
M  V30 1703 H 159.725 4.73375 1.8653 0
M  V30 1704 H 159.123 3.2102 4.65792 0
M  V30 1705 H 157.68 4.00882 5.13942 0
M  V30 1706 N 161.113 -0.173488 1.56642 0
M  V30 1707 C 162.36 -0.890465 1.81871 0
M  V30 1708 C 162.688 -1.82339 0.67696 0
M  V30 1709 O 161.943 -1.92795 -0.335926 0
M  V30 1710 C 162.242 -1.72069 3.13252 0
M  V30 1711 C 161.908 -0.936878 4.41059 0
M  V30 1712 C 160.57 -0.720545 4.75775 0
M  V30 1713 C 162.922 -0.386919 5.19762 0
M  V30 1714 C 160.25 0.0568829 5.86672 0
M  V30 1715 C 162.602 0.37741 6.31473 0
M  V30 1716 C 161.266 0.604563 6.64757 0
M  V30 1717 H 160.536 -0.325844 0.665512 0
M  V30 1718 H 163.183 -0.155527 1.90867 0
M  V30 1719 H 161.488 -2.52496 2.99588 0
M  V30 1720 H 163.185 -2.27844 3.29982 0
M  V30 1721 H 159.775 -1.11553 4.13828 0
M  V30 1722 H 163.959 -0.541398 4.93338 0
M  V30 1723 H 159.215 0.242635 6.10918 0
M  V30 1724 H 163.389 0.810825 6.91664 0
M  V30 1725 H 161.016 1.20885 7.50527 0
M  V30 1726 N 162.591 -1.51276 -0.441967 0
M  V30 1727 C 163.821 -1.67273 -1.21257 0
M  V30 1728 C 164.229 -0.367624 -1.85594 0
M  V30 1729 O 163.572 0.663349 -1.71305 0
M  V30 1730 C 163.634 -2.72807 -2.34129 0
M  V30 1731 C 163.298 -4.1554 -1.90198 0
M  V30 1732 C 164.295 -5.00471 -1.40801 0
M  V30 1733 C 161.98 -4.61616 -1.9803 0
M  V30 1734 C 163.974 -6.29536 -0.998174 0
M  V30 1735 C 161.661 -5.90679 -1.56658 0
M  V30 1736 C 162.659 -6.74466 -1.07633 0
M  V30 1737 O 162.347 -8.01116 -0.668459 0
M  V30 1738 H 162.079 -0.564614 -0.371734 0
M  V30 1739 H 164.633 -1.9843 -0.530521 0
M  V30 1740 H 162.863 -2.36954 -3.05597 0
M  V30 1741 H 164.552 -2.77729 -2.96009 0
M  V30 1742 H 165.318 -4.66079 -1.34148 0
M  V30 1743 H 161.197 -3.96526 -2.35135 0
M  V30 1744 H 164.741 -6.94885 -0.61482 0
M  V30 1745 H 160.638 -6.24586 -1.62979 0
M  V30 1746 H 161.406 -8.14633 -0.794722 0
M  V30 1747 N 164.069 0.697108 -1.41344 0
M  V30 1748 C 165.032 1.79281 -1.42797 0
M  V30 1749 C 166.032 1.57607 -0.318837 0
M  V30 1750 O 167.222 1.64309 -0.578642 0
M  V30 1751 C 164.354 3.17632 -1.23785 0
M  V30 1752 H 165.547 1.79385 -2.40335 0
M  V30 1753 H 163.1 0.904582 -1.27464 0
M  V30 1754 H 163.835 3.23167 -0.270814 0
M  V30 1755 H 163.62 3.34765 -2.04144 0
M  V30 1756 H 165.11 3.97617 -1.27633 0
M  V30 1757 N 165.547 1.27147 0.931209 0
M  V30 1758 C 166.479 1.05364 2.03546 0
M  V30 1759 C 167.492 0.0108438 1.62796 0
M  V30 1760 O 168.681 0.25202 1.76712 0
M  V30 1761 C 165.781 0.575566 3.33977 0
M  V30 1762 C 164.954 1.68985 4.03439 0
M  V30 1763 C 164.013 1.20813 5.12143 0
M  V30 1764 O 163.039 1.90712 5.363 0
M  V30 1765 N 164.241 0.0618851 5.80467 0
M  V30 1766 H 167.006 2.00454 2.22796 0
M  V30 1767 H 164.567 1.18666 1.10136 0
M  V30 1768 H 166.559 0.237264 4.04004 0
M  V30 1769 H 165.129 -0.282016 3.11325 0
M  V30 1770 H 164.349 2.19861 3.27192 0
M  V30 1771 H 165.637 2.4378 4.46597 0
M  V30 1772 H 165.035 -0.521621 5.6329 0
M  V30 1773 H 163.592 -0.217264 6.51438 0
M  V30 1774 N 167.025 -1.13721 1.09112 0
M  V30 1775 C 168.255 -1.88499 0.845671 0
M  V30 1776 C 168.663 -1.79218 -0.606432 0
M  V30 1777 O 168.006 -1.1544 -1.42896 0
M  V30 1778 C 168.068 -3.38954 1.19793 0
M  V30 1779 C 167.732 -3.72018 2.65428 0
M  V30 1780 C 168.729 -3.7153 3.63677 0
M  V30 1781 C 166.414 -4.01775 3.01467 0
M  V30 1782 C 168.408 -4.00336 4.95994 0
M  V30 1783 C 166.095 -4.30243 4.33975 0
M  V30 1784 C 167.093 -4.29508 5.31048 0
M  V30 1785 O 166.781 -4.5728 6.61173 0
M  V30 1786 H 166.513 -0.603702 0.304171 0
M  V30 1787 H 169.067 -1.44903 1.45576 0
M  V30 1788 H 167.297 -3.83039 0.530871 0
M  V30 1789 H 168.986 -3.95052 0.932146 0
M  V30 1790 H 169.752 -3.4862 3.37179 0
M  V30 1791 H 165.631 -4.01496 2.26544 0
M  V30 1792 H 169.175 -3.99678 5.71755 0
M  V30 1793 H 165.072 -4.52625 4.60219 0
M  V30 1794 H 165.84 -4.74964 6.66597 0
M  V30 1795 N 168.503 -0.877838 -1.30888 0
M  V30 1796 C 169.413 -0.343096 -2.32078 0
M  V30 1797 C 170.429 0.551022 -1.65045 0
M  V30 1798 O 171.605 0.445854 -1.96403 0
M  V30 1799 C 168.67 0.439905 -3.43898 0
M  V30 1800 C 167.731 -0.483111 -4.26573 0
M  V30 1801 C 166.964 0.262616 -5.33053 0
M  V30 1802 O 167.187 1.48967 -5.50604 0
M  V30 1803 O 166.121 -0.383593 -6.00676 0
M  V30 1804 H 169.947 -1.18203 -2.79753 0
M  V30 1805 H 167.532 -0.64145 -1.34929 0
M  V30 1806 H 169.414 0.883504 -4.12034 0
M  V30 1807 H 168.089 1.25526 -2.98371 0
M  V30 1808 H 166.996 -0.975374 -3.61161 0
M  V30 1809 H 168.329 -1.26427 -4.75686 0
M  V30 1810 N 169.982 1.44106 -0.638065 0
M  V30 1811 C 170.929 2.30715 0.062701 0
M  V30 1812 C 171.899 1.43882 0.829883 0
M  V30 1813 O 173.084 1.72775 0.809532 0
M  V30 1814 C 170.224 3.29258 1.03358 0
M  V30 1815 C 169.337 4.31192 0.26409 0
M  V30 1816 C 168.472 5.16825 1.22741 0
M  V30 1817 C 167.511 6.10462 0.447475 0
M  V30 1818 N 166.648 6.8877 1.36161 0
M  V30 1819 H 171.488 2.90096 -0.681781 0
M  V30 1820 H 169.025 1.42925 -0.347988 0
M  V30 1821 H 170.983 3.84886 1.60992 0
M  V30 1822 H 169.613 2.71562 1.74511 0
M  V30 1823 H 168.665 3.77981 -0.428295 0
M  V30 1824 H 169.977 4.97619 -0.343052 0
M  V30 1825 H 169.131 5.77004 1.87487 0
M  V30 1826 H 167.87 4.50488 1.86847 0
M  V30 1827 H 166.875 5.49386 -0.213433 0
M  V30 1828 H 168.1 6.78837 -0.188968 0
M  V30 1829 H 166.046 6.25096 1.98975 0
M  V30 1830 H 165.963 7.51663 0.808656 0
M  V30 1831 H 167.231 7.53467 1.99769 0
M  V30 1832 N 171.46 0.379036 1.52974 0
M  V30 1833 C 172.709 -0.207612 2.00629 0
M  V30 1834 C 173.022 -1.48758 1.27006 0
M  V30 1835 O 174.228 -2.15365 1.65318 0
M  V30 1836 C 172.684 -0.42053 3.57435 0
M  V30 1837 C 172.292 0.845587 4.39948 0
M  V30 1838 C 174.036 -0.964102 4.13407 0
M  V30 1839 C 171.943 0.601513 5.88333 0
M  V30 1840 H 170.873 -0.0813591 0.749598 0
M  V30 1841 H 173.524 0.499853 1.76561 0
M  V30 1842 H 171.906 -1.18959 3.7771 0
M  V30 1843 H 173.08 1.61848 4.31442 0
M  V30 1844 H 171.395 1.31336 3.95145 0
M  V30 1845 H 173.992 -1.16225 5.21916 0
M  V30 1846 H 174.335 -1.93019 3.68849 0
M  V30 1847 H 174.868 -0.25487 3.96983 0
M  V30 1848 H 171.607 1.53831 6.37194 0
M  V30 1849 H 171.127 -0.132628 5.99653 0
M  V30 1850 H 172.806 0.232134 6.46583 0
M  V30 1851 N 172.938 -1.57226 0.108567 0
M  V30 1852 C 173.885 -2.14756 -0.845481 0
M  V30 1853 C 174.855 -1.06971 -1.27068 0
M  V30 1854 O 176.04 -1.34827 -1.35005 0
M  V30 1855 C 173.18 -2.74298 -2.09415 0
M  V30 1856 C 172.293 -3.96358 -1.71826 0
M  V30 1857 C 171.428 -4.44021 -2.9158 0
M  V30 1858 C 170.467 -5.58637 -2.50181 0
M  V30 1859 N 169.604 -6.01091 -3.62814 0
M  V30 1860 H 174.444 -2.95961 -0.348035 0
M  V30 1861 H 171.981 -1.46226 -0.160106 0
M  V30 1862 H 173.939 -3.06945 -2.82561 0
M  V30 1863 H 172.569 -1.95801 -2.56636 0
M  V30 1864 H 171.621 -3.69939 -0.885947 0
M  V30 1865 H 172.933 -4.79504 -1.37394 0
M  V30 1866 H 172.087 -4.78522 -3.72963 0
M  V30 1867 H 170.826 -3.59803 -3.29231 0
M  V30 1868 H 169.831 -5.23751 -1.67228 0
M  V30 1869 H 171.056 -6.44613 -2.13659 0
M  V30 1870 H 169.002 -5.19817 -4.00158 0
M  V30 1871 H 168.919 -6.79066 -3.32273 0
M  V30 1872 H 170.187 -6.40227 -4.44668 0
M  V30 1873 N 174.416 0.165178 -1.56732 0
M  V30 1874 C 175.827 0.727046 -1.71962 0
M  V30 1875 C 176.178 1.82508 -0.720078 0
M  V30 1876 O 175.303 2.16082 0.117242 0
M  V30 1877 C 175.898 1.32559 -3.11791 0
M  V30 1878 C 174.457 1.83422 -3.28684 0
M  V30 1879 C 173.604 0.715567 -2.67908 0
M  V30 1880 H 176.555 -0.0602896 -1.58585 0
M  V30 1881 H 176.576 2.19533 -3.10782 0
M  V30 1882 H 176.088 0.526195 -3.84516 0
M  V30 1883 H 174.189 2.65986 -2.60926 0
M  V30 1884 H 174.302 1.97543 -4.36478 0
M  V30 1885 H 172.666 1.13758 -2.27884 0
M  V30 1886 H 173.449 -0.0720836 -3.43224 0
M  V30 1887 N 175.894 1.51508 0.433938 0
M  V30 1888 C 177.124 1.67914 1.20369 0
M  V30 1889 C 177.532 0.377461 1.85397 0
M  V30 1890 O 176.875 -0.654255 1.71654 0
M  V30 1891 C 176.937 2.74045 2.32679 0
M  V30 1892 C 176.601 4.16543 1.87991 0
M  V30 1893 C 177.598 5.01211 1.38145 0
M  V30 1894 C 175.283 4.6266 1.95579 0
M  V30 1895 C 177.277 6.30056 0.964774 0
M  V30 1896 C 174.964 5.91501 1.53523 0
M  V30 1897 C 175.962 6.75027 1.04055 0
M  V30 1898 O 175.65 8.01459 0.625964 0
M  V30 1899 H 175.382 0.566578 0.368735 0
M  V30 1900 H 177.936 1.98709 0.51999 0
M  V30 1901 H 176.166 2.38572 3.04336 0
M  V30 1902 H 177.855 2.79295 2.94532 0
M  V30 1903 H 178.621 4.66783 1.31675 0
M  V30 1904 H 174.5 3.97767 2.33029 0
M  V30 1905 H 178.044 6.95202 0.57796 0
M  V30 1906 H 173.941 6.25442 1.59665 0
M  V30 1907 H 174.709 8.15043 0.751509 0
M  V30 1908 N 177.372 -0.689602 1.41712 0
M  V30 1909 C 178.302 -1.81577 1.46806 0
M  V30 1910 C 179.283 -1.66945 0.326105 0
M  V30 1911 O 180.468 -1.86588 0.538377 0
M  V30 1912 C 177.598 -3.19762 1.35535 0
M  V30 1913 C 176.552 -3.49107 2.47605 0
M  V30 1914 C 175.878 -4.86711 2.21397 0
M  V30 1915 C 177.178 -3.47483 3.89939 0
M  V30 1916 H 178.872 -1.7757 2.41058 0
M  V30 1917 H 176.418 -0.852887 1.16025 0
M  V30 1918 H 178.371 -3.98263 1.3771 0
M  V30 1919 H 177.095 -3.24409 0.377708 0
M  V30 1920 H 175.754 -2.72959 2.44722 0
M  V30 1921 H 175.402 -4.8799 1.21961 0
M  V30 1922 H 175.102 -5.0731 2.96497 0
M  V30 1923 H 176.626 -5.67515 2.25297 0
M  V30 1924 H 178.04 -4.1598 3.94505 0
M  V30 1925 H 176.437 -3.79615 4.64771 0
M  V30 1926 H 177.507 -2.46341 4.17665 0
M  V30 1927 N 178.85 -1.27639 -0.924453 0
M  V30 1928 C 179.78 -1.13166 -2.04244 0
M  V30 1929 C 180.761 -0.032256 -1.70069 0
M  V30 1930 O 181.946 -0.207328 -1.9309 0
M  V30 1931 C 179.076 -0.781496 -3.38393 0
M  V30 1932 C 178.03 -1.83449 -3.86692 0
M  V30 1933 C 177.356 -1.33822 -5.17683 0
M  V30 1934 C 178.656 -3.23917 -4.09726 0
M  V30 1935 H 180.35 -2.06689 -2.1661 0
M  V30 1936 H 177.896 -0.995136 -1.04082 0
M  V30 1937 H 179.849 -0.667057 -4.16087 0
M  V30 1938 H 178.573 0.189439 -3.2605 0
M  V30 1939 H 177.232 -1.93789 -3.11193 0
M  V30 1940 H 176.88 -0.35665 -5.01734 0
M  V30 1941 H 176.58 -2.04224 -5.50968 0
M  V30 1942 H 178.104 -1.23679 -5.97943 0
M  V30 1943 H 179.518 -3.16559 -4.77978 0
M  V30 1944 H 177.915 -3.92059 -4.54324 0
M  V30 1945 H 178.985 -3.68729 -3.14908 0
M  V30 1946 N 180.328 1.1314 -1.09713 0
M  V30 1947 C 181.276 2.20717 -0.733934 0
M  V30 1948 C 182.27 1.6729 0.266506 0
M  V30 1949 O 183.476 1.79547 0.127656 0
M  V30 1950 H 179.851 0.719292 -0.21937 0
M  V30 1951 H 181.822 2.48611 -1.6503 0
M  V30 1952 C 180.571 3.47265 -0.173849 0
M  V30 1953 H 179.894 3.88716 -0.934873 0
M  V30 1954 H 181.334 4.23979 0.0423126 0
M  V30 1955 C 179.793 3.18724 1.09164 0
M  V30 1956 O 180.323 3.37762 2.17439 0
M  V30 1957 N 178.529 2.72583 1.00732 0
M  V30 1958 H 178.076 2.57291 0.126121 0
M  V30 1959 H 178.034 2.53862 1.85476 0
M  V30 1960 N 181.806 0.884767 1.30421 0
M  V30 1961 C 182.754 0.340869 2.30089 0
M  V30 1962 C 183.748 -0.55201 1.60154 0
M  V30 1963 O 184.954 -0.436467 1.74628 0
M  V30 1964 H 181.329 0.0915739 0.746404 0
M  V30 1965 H 183.3 1.19513 2.73421 0
M  V30 1966 C 182.049 -0.429779 3.45034 0
M  V30 1967 H 181.372 0.248024 3.9903 0
M  V30 1968 H 182.812 -0.775445 4.16849 0
M  V30 1969 C 181.271 -1.62677 2.95022 0
M  V30 1970 O 181.801 -2.72614 2.95033 0
M  V30 1971 N 180.007 -1.46387 2.51036 0
M  V30 1972 H 179.554 -0.569506 2.51226 0
M  V30 1973 H 179.512 -2.26612 2.17932 0
M  V30 1974 N 183.284 -1.43765 0.645699 0
M  V30 1975 C 184.532 -2.01499 0.155731 0
M  V30 1976 C 184.853 -1.51151 -1.232 0
M  V30 1977 O 184.123 -0.721044 -1.82148 0
M  V30 1978 H 182.703 -0.745003 0.0545817 0
M  V30 1979 H 185.365 -1.76075 0.835677 0
M  V30 1980 H 184.461 -3.1181 0.134577 0
M  V30 1981 N 184.763 -0.387143 -1.52771 0
M  V30 1982 C 185.695 0.484089 -2.2403 0
M  V30 1983 C 186.708 1.02849 -1.26198 0
M  V30 1984 O 187.897 0.931186 -1.52286 0
M  V30 1985 C 184.997 1.68337 -2.94136 0
M  V30 1986 C 184.17 1.26672 -4.18656 0
M  V30 1987 C 183.229 2.33045 -4.7178 0
M  V30 1988 O 182.255 1.94541 -5.34923 0
M  V30 1989 N 183.457 3.64929 -4.5145 0
M  V30 1990 H 186.222 -0.126404 -2.99433 0
M  V30 1991 H 183.783 -0.213392 -1.60488 0
M  V30 1992 H 185.775 2.39019 -3.26577 0
M  V30 1993 H 184.345 2.20025 -2.22053 0
M  V30 1994 H 183.565 0.388878 -3.92277 0
M  V30 1995 H 184.853 0.964964 -4.99566 0
M  V30 1996 H 184.251 3.98974 -4.01044 0
M  V30 1997 H 182.808 4.31651 -4.88386 0
M  V30 1998 N 186.241 1.57166 -0.116904 0
M  V30 1999 C 187.189 2.16457 0.851418 0
M  V30 2000 C 188.183 1.11323 1.27686 0
M  V30 2001 O 189.389 1.2963 1.24884 0
M  V30 2002 H 185.764 0.69271 0.292672 0
M  V30 2003 H 187.735 2.96605 0.32685 0
M  V30 2004 C 186.484 2.77689 2.09246 0
M  V30 2005 H 185.807 3.58285 1.77402 0
M  V30 2006 H 187.247 3.22716 2.7501 0
M  V30 2007 C 185.706 1.74667 2.88085 0
M  V30 2008 O 186.236 1.19877 3.83396 0
M  V30 2009 N 184.442 1.44656 2.52038 0
M  V30 2010 H 183.989 1.89402 1.74599 0
M  V30 2011 H 183.947 0.759675 3.05084 0
M  V30 2012 N 187.719 -0.156864 1.56817 0
M  V30 2013 C 189.13 -0.717916 1.72345 0
M  V30 2014 C 189.481 -1.82124 0.729747 0
M  V30 2015 O 188.606 -2.16141 -0.105781 0
M  V30 2016 C 189.201 -1.30904 3.12489 0
M  V30 2017 C 187.76 -1.81676 3.29653 0
M  V30 2018 C 186.907 -0.701349 2.68284 0
M  V30 2019 H 189.858 0.0686989 1.58551 0
M  V30 2020 H 189.879 -2.17882 3.11942 0
M  V30 2021 H 189.391 -0.505796 3.8479 0
M  V30 2022 H 187.492 -2.64598 2.62333 0
M  V30 2023 H 187.605 -1.95226 4.3752 0
M  V30 2024 H 185.969 -1.12548 2.28484 0
M  V30 2025 H 186.752 0.0902846 3.43181 0
M  V30 2026 N 189.197 -1.51736 -0.425897 0
M  V30 2027 C 190.608 -1.5732 -1.00536 0
M  V30 2028 C 190.959 -0.403537 -1.92005 0
M  V30 2029 O 190.084 0.478256 -2.11049 0
M  V30 2030 C 190.679 -2.85119 -1.8301 0
M  V30 2031 C 189.238 -2.93236 -2.35987 0
M  V30 2032 C 188.385 -2.52098 -1.15508 0
M  V30 2033 H 191.336 -1.57348 -0.206739 0
M  V30 2034 H 191.357 -2.69526 -2.68581 0
M  V30 2035 H 190.869 -3.7023 -1.16411 0
M  V30 2036 H 188.97 -2.12581 -3.06007 0
M  V30 2037 H 189.083 -3.9713 -2.68001 0
M  V30 2038 H 187.447 -2.05558 -1.50393 0
M  V30 2039 H 188.23 -3.39565 -0.505014 0
M  V30 2040 N 190.675 0.682077 -1.42076 0
M  V30 2041 C 191.638 1.77756 -1.44691 0
M  V30 2042 C 192.638 1.5726 -0.335535 0
M  V30 2043 O 193.828 1.63686 -0.596037 0
M  V30 2044 C 190.96 3.16301 -1.27146 0
M  V30 2045 H 192.153 1.76826 -2.42224 0
M  V30 2046 H 189.706 0.891012 -1.28416 0
M  V30 2047 H 190.441 3.22862 -0.305075 0
M  V30 2048 H 190.226 3.32581 -2.07683 0
M  V30 2049 H 191.716 3.96241 -1.31843 0
M  V30 2050 N 192.153 1.28127 0.917671 0
M  V30 2051 C 193.569 1.05749 1.19538 0
M  V30 2052 C 193.769 -0.202633 2.00479 0
M  V30 2053 O 192.825 -0.905382 2.3571 0
M  V30 2054 C 194.138 2.30273 1.93378 0
M  V30 2055 C 195.686 2.35412 2.06277 0
M  V30 2056 C 196.161 3.59692 2.83524 0
M  V30 2057 N 197.652 3.60309 2.91087 0
M  V30 2058 C 198.387 4.53147 3.51348 0
M  V30 2059 N 197.883 5.563 4.12919 0
M  V30 2060 N 199.676 4.40751 3.48849 0
M  V30 2061 H 191.827 2.09024 0.377184 0
M  V30 2062 H 194.09 0.919798 0.22951 0
M  V30 2063 H 193.796 3.22055 1.41328 0
M  V30 2064 H 193.67 2.36378 2.93947 0
M  V30 2065 H 196.057 1.4413 2.57508 0
M  V30 2066 H 196.138 2.33304 1.04895 0
M  V30 2067 H 195.782 4.51316 2.32973 0
M  V30 2068 H 195.712 3.59054 3.85211 0
M  V30 2069 H 198.203 2.85714 2.47338 0
M  V30 2070 H 198.516 6.2329 4.56869 0
M  V30 2071 H 196.861 5.60131 4.11435 0
M  V30 2072 H 200.052 3.59367 2.99955 0
M  V30 2073 H 200.225 5.13291 3.9552 0
M  V30 2074 N 193.631 -1.12557 1.10312 0
M  V30 2075 C 194.541 -2.21841 0.763142 0
M  V30 2076 C 195.557 -1.72354 -0.238801 0
M  V30 2077 O 196.733 -2.01249 -0.0778746 0
M  V30 2078 C 193.798 -3.46131 0.198632 0
M  V30 2079 C 192.859 -4.10464 1.25769 0
M  V30 2080 C 192.092 -5.28821 0.72002 0
M  V30 2081 O 192.315 -5.6859 -0.453993 0
M  V30 2082 O 191.249 -5.83437 1.47935 0
M  V30 2083 H 195.075 -2.53312 1.67532 0
M  V30 2084 H 192.66 -1.20867 0.878157 0
M  V30 2085 H 194.542 -4.2125 -0.112401 0
M  V30 2086 H 193.217 -3.16338 -0.686419 0
M  V30 2087 H 192.124 -3.3713 1.62156 0
M  V30 2088 H 193.457 -4.44408 2.11571 0
M  V30 2089 N 195.109 -0.891671 -1.2995 0
M  V30 2090 C 196.059 -0.334811 -2.25528 0
M  V30 2091 C 197.043 0.540553 -1.51548 0
M  V30 2092 O 198.235 0.383882 -1.72787 0
M  V30 2093 C 195.364 0.44374 -3.4042 0
M  V30 2094 C 194.45 -0.44609 -4.21747 0
M  V30 2095 N 194.841 -1.54963 -4.81477 0
M  V30 2096 C 193.139 -0.242415 -4.45341 0
M  V30 2097 C 193.84 -2.10015 -5.42465 0
M  V30 2098 N 192.816 -1.39423 -5.25416 0
M  V30 2099 H 196.618 -1.17792 -2.69262 0
M  V30 2100 H 194.132 -0.741822 -1.44467 0
M  V30 2101 H 196.129 0.859362 -4.07947 0
M  V30 2102 H 194.789 1.28421 -2.98225 0
M  V30 2103 H 195.8 -1.93244 -4.80497 0
M  V30 2104 H 192.477 0.560342 -4.13723 0
M  V30 2105 H 193.867 -3.02724 -5.9984 0
M  V30 2106 N 196.587 1.43421 -0.653314 0
M  V30 2107 C 197.517 2.33487 0.0246656 0
M  V30 2108 C 198.498 1.49475 0.811863 0
M  V30 2109 O 199.683 1.78139 0.773322 0
M  V30 2110 C 196.813 3.32841 0.99166 0
M  V30 2111 C 195.767 4.26842 0.314568 0
M  V30 2112 C 195.093 5.16236 1.39302 0
M  V30 2113 C 196.393 5.16243 -0.793095 0
M  V30 2114 H 198.087 2.90427 -0.727481 0
M  V30 2115 H 195.633 1.39649 -0.351287 0
M  V30 2116 H 197.586 3.94747 1.47487 0
M  V30 2117 H 196.31 2.74158 1.77497 0
M  V30 2118 H 194.969 3.663 -0.148199 0
M  V30 2119 H 194.617 4.53891 2.16776 0
M  V30 2120 H 194.317 5.79948 0.945223 0
M  V30 2121 H 195.841 5.81015 1.87759 0
M  V30 2122 H 197.255 5.71958 -0.392039 0
M  V30 2123 H 195.652 5.88676 -1.16536 0
M  V30 2124 H 196.722 4.55927 -1.65103 0
M  V30 2125 N 198.065 0.39524 1.52563 0
M  V30 2126 C 198.997 -0.472201 2.24283 0
M  V30 2127 C 200.01 -1.02178 1.26742 0
M  V30 2128 O 201.199 -0.923097 1.52778 0
M  V30 2129 C 198.299 -1.66775 2.95024 0
M  V30 2130 C 197.472 -1.2445 4.19322 0
M  V30 2131 C 196.531 -2.30539 4.7301 0
M  V30 2132 O 195.557 -1.91702 5.35947 0
M  V30 2133 N 196.759 -3.6253 4.53379 0
M  V30 2134 H 199.524 0.142282 2.99362 0
M  V30 2135 H 197.085 0.2219 1.60372 0
M  V30 2136 H 199.077 -2.37283 3.27839 0
M  V30 2137 H 197.647 -2.18845 2.23217 0
M  V30 2138 H 196.867 -0.368069 3.92478 0
M  V30 2139 H 198.155 -0.938457 5.0007 0
M  V30 2140 H 197.553 -3.96841 4.03154 0
M  V30 2141 H 196.11 -4.29055 4.90668 0
M  V30 2142 N 199.544 -1.57102 0.125237 0
M  V30 2143 C 200.477 -2.11371 -0.860094 0
M  V30 2144 C 201.455 -1.03168 -1.25679 0
M  V30 2145 O 202.639 -1.30862 -1.35674 0
M  V30 2146 C 199.766 -2.61555 -2.1519 0
M  V30 2147 C 198.812 -3.81701 -1.9028 0
M  V30 2148 S 199.645 -5.23797 -1.11343 0
M  V30 2149 C 200.801 -5.77353 -2.41689 0
M  V30 2150 H 201.034 -2.94617 -0.39852 0
M  V30 2151 H 198.567 -1.54145 -0.0886555 0
M  V30 2152 H 200.525 -2.91122 -2.89411 0
M  V30 2153 H 199.186 -1.78479 -2.58465 0
M  V30 2154 H 198.379 -4.14985 -2.86014 0
M  V30 2155 H 197.981 -3.52783 -1.24178 0
M  V30 2156 H 200.273 -5.87458 -3.37489 0
M  V30 2157 H 201.216 -6.75323 -2.12942 0
M  V30 2158 H 201.624 -5.05457 -2.51342 0
M  V30 2159 N 201.022 0.148545 -1.56898 0
M  V30 2160 C 202.433 0.708766 -1.72723 0
M  V30 2161 C 202.784 1.81734 -0.739395 0
M  V30 2162 O 201.909 2.16194 0.0943169 0
M  V30 2163 C 202.504 1.29245 -3.13179 0
M  V30 2164 C 201.063 1.79925 -3.30611 0
M  V30 2165 C 200.21 0.687111 -2.68652 0
M  V30 2166 H 203.161 -0.0771063 -1.58513 0
M  V30 2167 H 203.182 2.16224 -3.13093 0
M  V30 2168 H 202.694 0.485382 -3.85053 0
M  V30 2169 H 200.795 2.63203 -2.63732 0
M  V30 2170 H 200.908 1.92903 -4.38549 0
M  V30 2171 H 199.272 1.11335 -2.29078 0
M  V30 2172 H 200.055 -0.108483 -3.43129 0
M  V30 2173 N 202.5 1.5196 0.417844 0
M  V30 2174 C 203.41 1.77554 1.53336 0
M  V30 2175 C 204.426 0.660655 1.6097 0
M  V30 2176 O 205.602 0.945099 1.77848 0
M  V30 2177 C 202.667 1.91291 2.89152 0
M  V30 2178 C 201.728 3.15183 2.91475 0
M  V30 2179 C 200.961 3.28256 4.20813 0
M  V30 2180 O 201.184 2.46798 5.14244 0
M  V30 2181 O 200.118 4.21356 4.29817 0
M  V30 2182 H 203.944 2.7222 1.34647 0
M  V30 2183 H 201.529 1.36698 0.602828 0
M  V30 2184 H 203.411 2.02199 3.69721 0
M  V30 2185 H 202.086 0.998129 3.07927 0
M  V30 2186 H 200.993 3.09739 2.09791 0
M  V30 2187 H 202.326 4.06414 2.77648 0
M  V30 2188 N 203.978 -0.674533 1.42435 0
M  V30 2189 C 204.91 -1.80005 1.41883 0
M  V30 2190 C 205.923 -1.59667 0.31787 0
M  V30 2191 O 207.112 -1.68781 0.580973 0
M  V30 2192 C 204.212 -3.17114 1.19549 0
M  V30 2193 C 203.385 -3.64299 2.42084 0
M  V30 2194 C 202.444 -4.80142 2.15291 0
M  V30 2195 O 201.47 -4.90673 2.88493 0
M  V30 2196 N 202.672 -5.68869 1.1562 0
M  V30 2197 H 205.437 -1.80964 2.38898 0
M  V30 2198 H 202.998 -0.857633 1.37318 0
M  V30 2199 H 204.99 -3.92267 0.995417 0
M  V30 2200 H 203.56 -3.11053 0.310569 0
M  V30 2201 H 202.78 -2.79822 2.77657 0
M  V30 2202 H 204.068 -3.92567 3.23679 0
M  V30 2203 H 203.466 -5.63012 0.550765 0
M  V30 2204 H 202.023 -6.43833 1.016 0
M  V30 2205 N 205.456 -1.28612 -0.910864 0
M  V30 2206 C 206.872 -1.06381 -1.18976 0
M  V30 2207 C 207.072 0.191998 -2.00583 0
M  V30 2208 O 206.128 0.892869 -2.36187 0
M  V30 2209 C 207.441 -2.31295 -1.92154 0
M  V30 2210 C 208.989 -2.36503 -2.05025 0
M  V30 2211 C 209.464 -3.61191 -2.81612 0
M  V30 2212 N 210.955 -3.61847 -2.89172 0
M  V30 2213 C 211.69 -4.55004 -3.4894 0
M  V30 2214 N 211.186 -5.58482 -4.09963 0
M  V30 2215 N 212.979 -4.42594 -3.46506 0
M  V30 2216 H 205.13 -2.09221 -0.366094 0
M  V30 2217 H 207.393 -0.921003 -0.224629 0
M  V30 2218 H 207.099 -3.228 -1.39618 0
M  V30 2219 H 206.973 -2.37934 -2.9269 0
M  V30 2220 H 209.36 -1.45494 -2.5674 0
M  V30 2221 H 209.441 -2.33857 -1.03657 0
M  V30 2222 H 209.085 -4.52545 -2.30576 0
M  V30 2223 H 209.015 -3.61092 -3.83302 0
M  V30 2224 H 211.506 -2.87022 -2.45819 0
M  V30 2225 H 211.819 -6.25704 -4.53557 0
M  V30 2226 H 210.164 -5.62305 -4.08459 0
M  V30 2227 H 213.355 -3.60953 -2.98045 0
M  V30 2228 H 213.528 -5.15381 -3.92793 0
M  V30 2229 N 206.934 1.1197 -1.10907 0
M  V30 2230 C 207.844 2.21433 -0.774896 0
M  V30 2231 C 208.86 1.72478 0.229657 0
M  V30 2232 O 210.036 2.01288 0.0672008 0
M  V30 2233 C 207.101 3.4602 -0.216986 0
M  V30 2234 C 206.162 4.09791 -1.27944 0
M  V30 2235 C 205.395 5.28431 -0.748055 0
M  V30 2236 O 205.618 5.68823 0.423833 0
M  V30 2237 O 204.552 5.82644 -1.51027 0
M  V30 2238 H 208.378 2.5242 -1.68873 0
M  V30 2239 H 205.963 1.20399 -0.884555 0
M  V30 2240 H 207.845 4.21304 0.090059 0
M  V30 2241 H 206.52 3.16698 0.669633 0
M  V30 2242 H 205.427 3.36265 -1.63941 0
M  V30 2243 H 206.76 4.4328 -2.13925 0
M  V30 2244 N 208.412 0.89855 1.29475 0
M  V30 2245 C 209.359 0.373819 2.27753 0
M  V30 2246 C 210.329 -0.543444 1.56958 0
M  V30 2247 O 211.514 -0.468934 1.84948 0
M  V30 2248 C 208.654 -0.393648 3.42848 0
M  V30 2249 C 207.767 0.554379 4.28428 0
M  V30 2250 C 206.902 -0.230026 5.30702 0
M  V30 2251 C 205.941 0.712599 6.07938 0
M  V30 2252 N 205.078 -0.0373283 7.0209 0
M  V30 2253 H 209.918 1.21699 2.72017 0
M  V30 2254 H 207.455 0.611456 1.33789 0
M  V30 2255 H 209.413 -0.85466 4.08352 0
M  V30 2256 H 208.043 -1.20128 2.99615 0
M  V30 2257 H 207.095 1.13391 3.63107 0
M  V30 2258 H 208.407 1.27597 4.82204 0
M  V30 2259 H 207.561 -0.752288 6.02018 0
M  V30 2260 H 206.3 -0.984758 4.77654 0
M  V30 2261 H 205.305 1.24637 5.35486 0
M  V30 2262 H 206.53 1.46664 6.63074 0
M  V30 2263 H 204.476 -0.774348 6.51414 0
M  V30 2264 H 204.393 0.624374 7.53417 0
M  V30 2265 H 205.661 -0.539891 7.77628 0
M  V30 2266 N 209.89 -1.43072 0.660911 0
M  V30 2267 C 210.82 -2.33497 -0.0122829 0
M  V30 2268 C 211.801 -1.49903 -0.803925 0
M  V30 2269 O 212.986 -1.78546 -0.763864 0
M  V30 2270 C 210.116 -3.33363 -0.973994 0
M  V30 2271 C 209.07 -4.27003 -0.291928 0
M  V30 2272 C 208.396 -5.16967 -1.36562 0
M  V30 2273 C 209.696 -5.15816 0.820462 0
M  V30 2274 H 211.39 -2.90038 0.742873 0
M  V30 2275 H 208.936 -1.39461 0.358688 0
M  V30 2276 H 210.889 -3.95524 -1.45392 0
M  V30 2277 H 209.613 -2.75095 -1.7604 0
M  V30 2278 H 208.272 -3.66217 0.167623 0
M  V30 2279 H 207.92 -4.55034 -2.14366 0
M  V30 2280 H 207.62 -5.80441 -0.914454 0
M  V30 2281 H 209.144 -5.82003 -1.84675 0
M  V30 2282 H 210.558 -5.71742 0.422366 0
M  V30 2283 H 208.955 -5.8805 1.19656 0
M  V30 2284 H 210.025 -4.55045 1.67518 0
M  V30 2285 N 211.368 -0.403325 -1.52352 0
M  V30 2286 C 212.645 0.232611 -1.94212 0
M  V30 2287 C 213.025 1.63133 -1.33981 0
M  V30 2288 O 212.373 2.22659 -0.513344 0
M  V30 2289 C 212.583 0.244811 -3.4814 0
M  V30 2290 C 213.931 0.46698 -4.22024 0
M  V30 2291 O 214.955 0.324419 -3.5472 0
M  V30 2292 O 213.814 0.74747 -5.41364 0
M  V30 2293 H 210.908 0.148223 -0.813609 0
M  V30 2294 H 213.454 -0.458848 -1.63379 0
M  V30 2295 H 212.226 -0.734378 -3.84347 0
M  V30 2296 H 211.849 0.980611 -3.85318 0
M  V30 2297 N 212.846 1.57033 -0.133567 0
M  V30 2298 C 214.094 1.953 0.519848 0
M  V30 2299 C 214.415 1.01866 1.66278 0
M  V30 2300 O 213.685 0.0776513 1.95746 0
M  V30 2301 H 212.265 0.721091 0.195032 0
M  V30 2302 H 214.927 1.93809 -0.205921 0
M  V30 2303 H 214.023 2.98695 0.904854 0
M  V30 2304 N 214.325 -0.140222 1.56975 0
M  V30 2305 C 215.255 -1.17456 2.01808 0
M  V30 2306 C 216.236 -1.44415 0.898794 0
M  V30 2307 O 217.421 -1.5522 1.16707 0
M  V30 2308 C 214.551 -2.50607 2.40444 0
M  V30 2309 C 213.505 -2.38155 3.55621 0
M  V30 2310 C 212.831 -3.76078 3.80091 0
M  V30 2311 C 214.131 -1.85991 4.88062 0
M  V30 2312 H 215.825 -0.801743 2.88466 0
M  V30 2313 H 213.371 -0.38422 1.38779 0
M  V30 2314 H 215.324 -3.23197 2.7041 0
M  V30 2315 H 214.048 -2.89737 1.50732 0
M  V30 2316 H 212.707 -1.68016 3.25832 0
M  V30 2317 H 212.355 -4.12656 2.87618 0
M  V30 2318 H 212.055 -3.68606 4.57606 0
M  V30 2319 H 213.579 -4.50206 4.12488 0
M  V30 2320 H 214.993 -2.4838 5.16701 0
M  V30 2321 H 213.39 -1.89393 5.6943 0
M  V30 2322 H 214.46 -0.816023 4.77984 0
M  V30 2323 N 215.803 -1.52179 -0.40978 0
M  V30 2324 C 217.033 -1.69807 -1.17682 0
M  V30 2325 C 217.441 -0.406908 -1.84773 0
M  V30 2326 O 216.784 0.626863 -1.72673 0
M  V30 2327 C 216.846 -2.77712 -2.2829 0
M  V30 2328 C 216.51 -4.19481 -1.81341 0
M  V30 2329 C 217.507 -5.03345 -1.30154 0
M  V30 2330 C 215.192 -4.65713 -1.88194 0
M  V30 2331 C 217.186 -6.31511 -0.864416 0
M  V30 2332 C 214.873 -5.93869 -1.44093 0
M  V30 2333 C 215.871 -6.76597 -0.933023 0
M  V30 2334 O 215.559 -8.02354 -0.49838 0
M  V30 2335 H 215.291 -0.572372 -0.359675 0
M  V30 2336 H 217.845 -1.99511 -0.488311 0
M  V30 2337 H 216.075 -2.43383 -3.00502 0
M  V30 2338 H 217.764 -2.83946 -2.90051 0
M  V30 2339 H 218.53 -4.68819 -1.24232 0
M  V30 2340 H 214.409 -4.01424 -2.26671 0
M  V30 2341 H 217.953 -6.96033 -0.467286 0
M  V30 2342 H 213.85 -6.27903 -1.49694 0
M  V30 2343 H 214.618 -8.16135 -0.621747 0
M  V30 2344 N 217.281 0.66697 -1.42791 0
M  V30 2345 C 218.191 1.80962 -1.49299 0
M  V30 2346 C 219.207 1.69775 -0.381108 0
M  V30 2347 O 220.383 1.91188 -0.633188 0
M  V30 2348 C 217.448 3.17156 -1.40045 0
M  V30 2349 C 216.509 3.40242 -2.6179 0
M  V30 2350 C 215.742 4.69939 -2.52969 0
M  V30 2351 O 215.965 5.48372 -1.56985 0
M  V30 2352 O 214.899 4.94441 -3.43237 0
M  V30 2353 H 218.725 1.78427 -2.45759 0
M  V30 2354 H 216.31 0.823713 -1.24641 0
M  V30 2355 H 218.192 3.98413 -1.37276 0
M  V30 2356 H 216.867 3.20312 -0.467138 0
M  V30 2357 H 215.774 2.58802 -2.70134 0
M  V30 2358 H 217.107 3.41923 -3.54047 0
M  V30 2359 N 218.759 1.29093 0.90403 0
M  V30 2360 C 219.999 1.18076 1.66845 0
M  V30 2361 C 220.363 -0.26436 1.90171 0
M  V30 2362 O 221.564 -0.497423 2.64157 0
M  V30 2363 C 219.835 1.96722 2.98388 0
M  V30 2364 S 221.394 2.0219 3.89441 0
M  V30 2365 H 218.212 0.421104 0.572881 0
M  V30 2366 H 220.814 1.63322 1.07453 0
M  V30 2367 H 219.518 3.00866 2.7912 0
M  V30 2368 H 219.049 1.52064 3.62823 0
M  V30 2369 H 221.064 1.13545 4.83034 0
M  V30 2370 N 220.237 -1.11381 1.11499 0
M  V30 2371 C 221.486 -1.82494 0.858993 0
M  V30 2372 C 221.799 -1.85605 -0.617278 0
M  V30 2373 O 223.005 -2.52824 -0.989552 0
M  V30 2374 C 221.461 -3.27745 1.48699 0
M  V30 2375 C 221.069 -3.32961 2.99735 0
M  V30 2376 C 222.813 -4.03754 1.31085 0
M  V30 2377 C 220.72 -4.72612 3.55516 0
M  V30 2378 H 219.65 -0.683802 0.317696 0
M  V30 2379 H 222.301 -1.25331 1.34031 0
M  V30 2380 H 220.683 -3.84844 0.933339 0
M  V30 2381 H 221.857 -2.85741 3.61509 0
M  V30 2382 H 220.172 -2.70433 3.16631 0
M  V30 2383 H 222.769 -5.06891 1.70192 0
M  V30 2384 H 223.112 -4.15527 0.253496 0
M  V30 2385 H 223.645 -3.53043 1.83318 0
M  V30 2386 H 220.384 -4.66036 4.60967 0
M  V30 2387 H 219.904 -5.2024 2.98513 0
M  V30 2388 H 221.583 -5.4157 3.53992 0
M  V30 2389 N 221.715 -0.905404 -1.28997 0
M  V30 2390 C 222.645 -0.404212 -2.29975 0
M  V30 2391 C 223.626 0.523784 -1.61835 0
M  V30 2392 O 224.811 0.433298 -1.89304 0
M  V30 2393 C 221.941 0.364042 -3.45387 0
M  V30 2394 C 220.895 -0.474048 -4.25367 0
M  V30 2395 C 220.221 0.422045 -5.33032 0
M  V30 2396 C 221.521 -1.72696 -4.92923 0
M  V30 2397 H 223.215 -1.24807 -2.72146 0
M  V30 2398 H 220.761 -0.601585 -1.30832 0
M  V30 2399 H 222.714 0.725447 -4.15109 0
M  V30 2400 H 221.438 1.24174 -3.02074 0
M  V30 2401 H 220.097 -0.81786 -3.57361 0
M  V30 2402 H 219.745 1.29804 -4.85963 0
M  V30 2403 H 219.445 -0.135057 -5.87445 0
M  V30 2404 H 220.969 0.779517 -6.05604 0
M  V30 2405 H 222.383 -1.43495 -5.55051 0
M  V30 2406 H 220.78 -2.22582 -5.57295 0
M  V30 2407 H 221.85 -2.45964 -4.17887 0
M  V30 2408 N 223.193 1.4272 -0.668489 0
M  V30 2409 C 224.433 2.03497 -0.19194 0
M  V30 2410 C 224.797 1.51684 1.17712 0
M  V30 2411 O 225.998 2.04205 1.74796 0
M  V30 2412 C 224.269 3.56734 -0.218032 0
M  V30 2413 S 225.828 4.38395 0.188438 0
M  V30 2414 H 222.646 0.706542 -0.0794959 0
M  V30 2415 H 225.248 1.74563 -0.880235 0
M  V30 2416 H 223.952 3.91943 -1.2169 0
M  V30 2417 H 223.483 3.90333 0.490303 0
M  V30 2418 H 225.498 4.75345 1.42345 0
M  V30 2419 N 224.671 0.411399 1.52136 0
M  V30 2420 C 225.634 -0.401089 2.25663 0
M  V30 2421 C 226.634 -0.971732 1.28117 0
M  V30 2422 O 227.824 -0.850254 1.52041 0
M  V30 2423 C 224.956 -1.56483 3.02863 0
M  V30 2424 H 226.149 0.24295 2.98914 0
M  V30 2425 H 223.702 0.163968 1.55438 0
M  V30 2426 H 224.437 -2.24567 2.33967 0
M  V30 2427 H 224.222 -1.16211 3.74483 0
M  V30 2428 H 225.712 -2.13951 3.58629 0
M  V30 2429 N 226.149 -1.5696 0.141893 0
M  V30 2430 C 227.389 -1.9785 -0.513304 0
M  V30 2431 C 227.753 -1.02467 -1.62371 0
M  V30 2432 O 228.954 -1.32382 -2.33941 0
M  V30 2433 C 227.225 -3.42797 -1.01118 0
M  V30 2434 S 228.784 -4.05709 -1.67169 0
M  V30 2435 H 225.602 -0.691318 -0.166135 0
M  V30 2436 H 228.204 -1.94114 0.232398 0
M  V30 2437 H 226.908 -4.0995 -0.192179 0
M  V30 2438 H 226.439 -3.50235 -1.79162 0
M  V30 2439 H 228.454 -3.98342 -2.95868 0
M  V30 2440 N 227.627 0.131896 -1.57047 0
M  V30 2441 C 228.867 0.847972 -1.85981 0
M  V30 2442 C 229.231 1.77655 -0.7282 0
M  V30 2443 O 230.432 2.53322 -0.898968 0
M  V30 2444 C 228.703 1.58919 -3.20124 0
M  V30 2445 S 230.262 2.34862 -3.70655 0
M  V30 2446 H 227.08 0.283273 -0.652133 0
M  V30 2447 H 229.682 0.107057 -1.95207 0
M  V30 2448 H 228.386 0.898771 -4.00438 0
M  V30 2449 H 227.917 2.37073 -3.13942 0
M  V30 2450 H 229.932 3.60344 -3.41126 0
M  V30 2451 N 229.106 1.52395 0.401703 0
M  V30 2452 C 230.331 1.70972 1.17403 0
M  V30 2453 C 230.756 0.421615 1.83314 0
M  V30 2454 O 230.114 -0.621564 1.70312 0
M  V30 2455 C 230.162 2.85151 2.20728 0
M  V30 2456 O 229.266 2.51238 3.27037 0
M  V30 2457 H 228.607 0.568927 0.342372 0
M  V30 2458 H 231.137 1.99131 0.469891 0
M  V30 2459 H 231.147 3.10279 2.64936 0
M  V30 2460 H 229.822 3.78603 1.7214 0
M  V30 2461 H 228.399 2.36808 2.88057 0
M  V30 2462 N 230.584 -0.659388 1.43143 0
M  V30 2463 C 231.812 -1.44723 1.47861 0
M  V30 2464 C 232.227 -1.88563 0.0945886 0
M  V30 2465 O 231.584 -1.59108 -0.893915 0
M  V30 2466 C 231.635 -2.68627 2.41913 0
M  V30 2467 O 231.356 -2.26623 3.74932 0
M  V30 2468 C 232.857 -3.62045 2.55809 0
M  V30 2469 H 230.077 -0.444801 0.502387 0
M  V30 2470 H 232.621 -0.808916 1.87821 0
M  V30 2471 H 230.776 -3.28613 2.05164 0
M  V30 2472 H 231.19 -3.06745 4.2545 0
M  V30 2473 H 232.664 -4.45666 3.25708 0
M  V30 2474 H 233.141 -4.08981 1.60099 0
M  V30 2475 H 233.747 -3.07944 2.93344 0
M  V30 2476 N 232.062 -1.29571 -0.897171 0
M  V30 2477 C 233.287 -1.20705 -1.68656 0
M  V30 2478 C 233.712 0.228582 -1.86706 0
M  V30 2479 O 233.07 1.16494 -1.3892 0
M  V30 2480 C 233.118 -1.9282 -3.04717 0
M  V30 2481 O 232.222 -1.24697 -3.93096 0
M  V30 2482 H 231.563 -0.418126 -0.515816 0
M  V30 2483 H 234.093 -1.71183 -1.12061 0
M  V30 2484 H 234.103 -2.01372 -3.54843 0
M  V30 2485 H 232.778 -2.97239 -2.90899 0
M  V30 2486 H 231.355 -1.2442 -3.51531 0
M  V30 2487 N 233.54 1.10788 -1.12088 0
M  V30 2488 C 234.78 1.84297 -0.883974 0
M  V30 2489 C 235.144 1.83036 0.579797 0
M  V30 2490 O 236.345 2.52061 0.933734 0
M  V30 2491 C 234.616 3.27173 -1.43849 0
M  V30 2492 S 236.175 4.17853 -1.33957 0
M  V30 2493 H 232.993 0.635433 -0.318977 0
M  V30 2494 H 235.595 1.33341 -1.4297 0
M  V30 2495 H 234.299 3.25658 -2.49749 0
M  V30 2496 H 233.83 3.83198 -0.890096 0
M  V30 2497 H 235.845 4.95239 -0.308603 0
M  V30 2498 N 235.018 0.912232 1.28515 0
M  V30 2499 C 236.429 0.591352 1.77087 0
M  V30 2500 C 236.78 -0.8933 1.74684 0
M  V30 2501 O 235.905 -1.69876 1.34056 0
M  V30 2502 C 236.5 1.06668 3.2157 0
M  V30 2503 C 235.059 0.79675 3.67871 0
M  V30 2504 C 234.206 1.23427 2.48316 0
M  V30 2505 H 237.157 1.09365 1.15 0
M  V30 2506 H 237.178 0.407455 3.78312 0
M  V30 2507 H 236.69 2.14726 3.23287 0
M  V30 2508 H 234.791 -0.270679 3.71616 0
M  V30 2509 H 234.904 1.40343 4.58084 0
M  V30 2510 H 233.268 0.653036 2.46186 0
M  V30 2511 H 234.051 2.32316 2.52753 0
M  V30 2512 N 236.496 -1.42363 0.676048 0
M  V30 2513 C 237.721 -2.06377 0.205705 0
M  V30 2514 C 238.146 -1.50463 -1.12883 0
M  V30 2515 O 237.504 -0.623619 -1.70237 0
M  V30 2516 C 237.552 -3.60277 0.152655 0
M  V30 2517 O 236.656 -4.02935 -0.87845 0
M  V30 2518 H 235.997 -0.655588 0.105359 0
M  V30 2519 H 238.527 -1.82475 0.925412 0
M  V30 2520 H 238.537 -4.07993 -0.0230675 0
M  V30 2521 H 237.212 -4.00346 1.12675 0
M  V30 2522 H 235.789 -3.66764 -0.673668 0
M  V30 2523 N 237.974 -0.419461 -1.51915 0
M  V30 2524 C 239.221 0.152939 -2.01922 0
M  V30 2525 C 239.549 1.4426 -1.30458 0
M  V30 2526 O 238.804 1.91514 -0.402593 0
M  V30 2527 C 239.103 0.437067 -3.54717 0
M  V30 2528 C 238.769 -0.764632 -4.44369 0
M  V30 2529 C 237.431 -1.09423 -4.68594 0
M  V30 2530 C 239.783 -1.56713 -4.97082 0
M  V30 2531 C 237.111 -2.22732 -5.42777 0
M  V30 2532 C 239.463 -2.69107 -5.72507 0
M  V30 2533 C 238.127 -3.02541 -5.95 0
M  V30 2534 H 237.397 0.0559644 -0.738884 0
M  V30 2535 H 240.044 -0.562998 -1.83037 0
M  V30 2536 H 238.349 1.23469 -3.71837 0
M  V30 2537 H 240.046 0.893083 -3.90928 0
M  V30 2538 H 236.636 -0.497775 -4.257 0
M  V30 2539 H 240.82 -1.32571 -4.78266 0
M  V30 2540 H 236.076 -2.48971 -5.58411 0
M  V30 2541 H 240.25 -3.31671 -6.12346 0
M  V30 2542 H 237.877 -3.90457 -6.52264 0
M  V30 2543 N 239.452 1.56882 -0.150215 0
M  V30 2544 C 240.698 1.97299 0.494427 0
M  V30 2545 C 241.053 1.0338 1.62266 0
M  V30 2546 O 240.346 0.0694497 1.91474 0
M  V30 2547 C 240.54 3.41801 1.04437 0
M  V30 2548 C 240.369 4.49691 -0.0290451 0
M  V30 2549 C 239.139 5.03095 -0.47156 0
M  V30 2550 C 241.337 5.07693 -0.821703 0
M  V30 2551 N 239.319 5.94593 -1.52749 0
M  V30 2552 C 240.69 5.95431 -1.72805 0
M  V30 2553 C 242.745 4.90256 -0.869134 0
M  V30 2554 C 241.448 6.67599 -2.67777 0
M  V30 2555 C 243.474 5.63127 -1.8067 0
M  V30 2556 C 242.836 6.50576 -2.70057 0
M  V30 2557 H 238.935 0.76755 0.149639 0
M  V30 2558 H 241.519 1.93145 -0.24556 0
M  V30 2559 H 239.69 3.46541 1.75396 0
M  V30 2560 H 241.422 3.69272 1.6559 0
M  V30 2561 H 238.177 4.73543 -0.0732101 0
M  V30 2562 H 238.601 6.45047 -2.05531 0
M  V30 2563 H 243.243 4.22363 -0.192134 0
M  V30 2564 H 240.961 7.34717 -3.36476 0
M  V30 2565 H 244.547 5.51629 -1.84924 0
M  V30 2566 H 243.427 7.05974 -3.41424 0
M  V30 2567 N 240.93 -0.123565 1.57115 0
M  V30 2568 C 242.176 -0.828428 1.85765 0
M  V30 2569 C 242.531 -1.77709 0.737371 0
M  V30 2570 O 241.824 -1.89787 -0.262978 0
M  V30 2571 C 242.018 -1.62016 3.18568 0
M  V30 2572 C 241.847 -0.749663 4.43407 0
M  V30 2573 C 240.617 -0.406251 5.03664 0
M  V30 2574 C 242.815 -0.0693505 5.14253 0
M  V30 2575 N 240.797 0.475389 6.12057 0
M  V30 2576 C 242.168 0.671474 6.16353 0
M  V30 2577 C 244.223 0.00754393 4.97899 0
M  V30 2578 C 242.926 1.48197 7.03868 0
M  V30 2579 C 244.952 0.804845 5.85898 0
M  V30 2580 C 244.314 1.53388 6.87497 0
M  V30 2581 H 240.413 -0.280219 0.73007 0
M  V30 2582 H 242.997 -0.0924183 1.94481 0
M  V30 2583 H 241.168 -2.32724 3.10957 0
M  V30 2584 H 242.9 -2.27 3.35042 0
M  V30 2585 H 239.655 -0.747446 4.67665 0
M  V30 2586 H 240.079 0.907924 6.70884 0
M  V30 2587 H 244.721 -0.541741 4.19315 0
M  V30 2588 H 242.439 2.04242 7.81864 0
M  V30 2589 H 246.025 0.866642 5.75309 0
M  V30 2590 H 244.905 2.1409 7.5441 0
M  V30 2591 N 242.408 -1.52605 -0.393616 0
M  V30 2592 C 243.356 -1.77688 -1.50099 0
M  V30 2593 C 244.35 -0.644615 -1.56656 0
M  V30 2594 O 245.556 -0.826997 -1.59877 0
M  V30 2595 H 241.931 -0.562159 -0.499481 0
M  V30 2596 H 243.902 -2.7043 -1.26135 0
M  V30 2597 C 242.651 -1.95858 -2.87289 0
M  V30 2598 H 241.974 -2.8241 -2.82992 0
M  V30 2599 H 243.414 -2.174 -3.64024 0
M  V30 2600 C 241.873 -0.729848 -3.28899 0
M  V30 2601 O 242.403 0.0949217 -4.01588 0
M  V30 2602 N 240.609 -0.561283 -2.85128 0
M  V30 2603 H 240.156 -1.23357 -2.26143 0
M  V30 2604 H 240.114 0.2595 -3.13327 0
M  V30 2605 N 243.887 0.651787 -1.4349 0
M  V30 2606 C 245.298 1.233 -1.40193 0
M  V30 2607 C 245.649 1.9591 -0.106727 0
M  V30 2608 O 244.774 2.01316 0.793773 0
M  V30 2609 C 245.369 2.24257 -2.53957 0
M  V30 2610 C 243.928 2.77852 -2.5392 0
M  V30 2611 C 243.075 1.52517 -2.3159 0
M  V30 2612 H 246.026 0.443717 -1.52371 0
M  V30 2613 H 246.047 3.0646 -2.25528 0
M  V30 2614 H 245.559 1.71382 -3.4821 0
M  V30 2615 H 243.66 3.34786 -1.63551 0
M  V30 2616 H 243.773 3.25299 -3.51735 0
M  V30 2617 H 242.137 1.79915 -1.80285 0
M  V30 2618 H 242.92 1.01574 -3.27929 0
M  V30 2619 N 245.365 1.30045 0.890287 0
M  V30 2620 C 246.642 1.09227 1.62262 0
M  V30 2621 C 247.022 -0.360305 2.08002 0
M  V30 2622 O 246.37 -1.35084 1.84295 0
M  V30 2623 C 246.58 2.08835 2.79623 0
M  V30 2624 C 247.928 2.40266 3.50082 0
M  V30 2625 O 248.952 2.07104 2.89804 0
M  V30 2626 O 247.811 2.96967 4.58773 0
M  V30 2627 H 244.905 0.419132 0.712922 0
M  V30 2628 H 247.451 1.41451 0.937529 0
M  V30 2629 H 246.223 3.06633 2.43089 0
M  V30 2630 H 245.846 1.77397 3.55832 0
M  V30 2631 N 246.843 -1.10192 1.12674 0
M  V30 2632 C 247.79 -2.16606 0.796906 0
M  V30 2633 C 248.76 -1.64394 -0.237476 0
M  V30 2634 O 249.945 -1.90474 -0.111484 0
M  V30 2635 C 247.085 -3.44116 0.26043 0
M  V30 2636 C 246.198 -4.10268 1.35293 0
M  V30 2637 C 245.333 -5.25507 0.775621 0
M  V30 2638 C 244.372 -5.83567 1.84706 0
M  V30 2639 N 243.509 -6.90179 1.28829 0
M  V30 2640 H 248.349 -2.44163 1.70846 0
M  V30 2641 H 245.886 -1.19846 0.85295 0
M  V30 2642 H 247.844 -4.17143 -0.0686814 0
M  V30 2643 H 246.474 -3.16901 -0.614274 0
M  V30 2644 H 245.526 -3.35184 1.79877 0
M  V30 2645 H 246.838 -4.4946 2.16303 0
M  V30 2646 H 245.992 -6.05398 0.397327 0
M  V30 2647 H 244.731 -4.87656 -0.0656581 0
M  V30 2648 H 243.736 -5.02344 2.23452 0
M  V30 2649 H 244.961 -6.23482 2.69161 0
M  V30 2650 H 242.907 -6.54322 0.468881 0
M  V30 2651 H 242.824 -7.28097 2.03497 0
M  V30 2652 H 244.092 -7.73844 0.937311 0
M  V30 2653 N 248.321 -0.919034 -1.28029 0
M  V30 2654 C 249.568 -0.554934 -1.94748 0
M  V30 2655 C 249.896 0.90231 -1.72304 0
M  V30 2656 O 249.151 1.65767 -1.04018 0
M  V30 2657 C 249.45 -0.816855 -3.4794 0
M  V30 2658 C 249.116 -2.25448 -3.90492 0
M  V30 2659 C 247.778 -2.64752 -4.01821 0
M  V30 2660 C 250.13 -3.18977 -4.12193 0
M  V30 2661 C 247.458 -3.96727 -4.32232 0
M  V30 2662 C 249.81 -4.50523 -4.44086 0
M  V30 2663 C 248.474 -4.89673 -4.53626 0
M  V30 2664 H 247.744 -0.203065 -0.712633 0
M  V30 2665 H 250.391 -1.16136 -1.52265 0
M  V30 2666 H 248.696 -0.127677 -3.91592 0
M  V30 2667 H 250.393 -0.514238 -3.97689 0
M  V30 2668 H 246.983 -1.93952 -3.82205 0
M  V30 2669 H 251.167 -2.89817 -4.02889 0
M  V30 2670 H 246.423 -4.26754 -4.37825 0
M  V30 2671 H 250.597 -5.23005 -4.59825 0
M  V30 2672 H 248.224 -5.91969 -4.76946 0
M  V30 2673 N 249.799 1.42003 -0.683588 0
M  V30 2674 C 251.048 2.00638 -0.206681 0
M  V30 2675 C 251.361 1.5472 1.19671 0
M  V30 2676 O 252.567 2.05833 1.77045 0
M  V30 2677 C 251.023 3.58487 -0.318632 0
M  V30 2678 C 250.631 4.1339 -1.72663 0
M  V30 2679 C 252.375 4.24384 0.0991141 0
M  V30 2680 C 250.282 5.63633 -1.79087 0
M  V30 2681 H 249.212 0.750408 -0.0735107 0
M  V30 2682 H 251.863 1.62624 -0.850048 0
M  V30 2683 H 250.245 3.94047 0.392781 0
M  V30 2684 H 251.419 3.89273 -2.46583 0
M  V30 2685 H 249.734 3.59976 -2.09299 0
M  V30 2686 H 252.331 5.34652 0.0713833 0
M  V30 2687 H 252.674 4.00505 1.13586 0
M  V30 2688 H 253.207 3.93816 -0.561599 0
M  V30 2689 H 249.946 5.92323 -2.80774 0
M  V30 2690 H 249.466 5.89714 -1.09535 0
M  V30 2691 H 251.145 6.28201 -1.5483 0
M  V30 2692 N 251.277 0.427512 1.51691 0
M  V30 2693 C 252.525 -0.141948 2.01601 0
M  V30 2694 C 252.846 -1.44067 1.31414 0
M  V30 2695 O 252.116 -1.90763 0.445658 0
M  V30 2696 H 250.696 -0.0554468 0.744939 0
M  V30 2697 H 253.358 0.567968 1.86441 0
M  V30 2698 H 252.454 -0.324913 3.10404 0
M  V30 2699 N 252.755 -1.56801 0.158532 0
M  V30 2700 C 254.166 -1.83189 -0.360366 0
M  V30 2701 C 254.517 -1.07778 -1.63946 0
M  V30 2702 O 253.642 -0.326718 -2.13919 0
M  V30 2703 C 254.237 -3.32297 -0.660595 0
M  V30 2704 C 252.796 -3.59227 -1.12398 0
M  V30 2705 C 251.943 -2.76877 -0.153097 0
M  V30 2706 H 254.894 -1.54008 0.383031 0
M  V30 2707 H 254.915 -3.4908 -1.51405 0
M  V30 2708 H 254.427 -3.87156 0.270527 0
M  V30 2709 H 252.528 -3.09766 -2.07064 0
M  V30 2710 H 252.641 -4.67632 -1.04197 0
M  V30 2711 H 251.005 -2.46319 -0.647983 0
M  V30 2712 H 251.788 -3.34511 0.77182 0
M  V30 2713 N 254.233 0.115231 -1.57178 0
M  V30 2714 C 255.196 1.12526 -1.99676 0
M  V30 2715 C 256.196 1.34095 -0.88742 0
M  V30 2716 O 257.386 1.30548 -1.15337 0
M  V30 2717 C 254.518 2.4789 -2.34015 0
M  V30 2718 H 255.711 0.759912 -2.90113 0
M  V30 2719 H 253.264 0.359648 -1.52106 0
M  V30 2720 H 253.999 2.89339 -1.4647 0
M  V30 2721 H 253.784 2.33588 -3.14927 0
M  V30 2722 H 255.274 3.20575 -2.67622 0
M  V30 2723 N 255.711 1.52812 0.385517 0
M  V30 2724 C 256.959 1.67694 1.12797 0
M  V30 2725 C 257.28 0.421115 1.90399 0
M  V30 2726 O 256.55 -0.564551 1.87589 0
M  V30 2727 H 255.13 0.618155 0.419396 0
M  V30 2728 H 257.792 1.89938 0.436972 0
M  V30 2729 H 256.888 2.52896 1.82894 0
M  V30 2730 N 257.189 -0.644168 1.43834 0
M  V30 2731 C 258.119 -1.76814 1.52509 0
M  V30 2732 C 259.1 -1.65823 0.379052 0
M  V30 2733 O 260.285 -1.84781 0.597466 0
M  V30 2734 C 257.415 -3.15288 1.4564 0
M  V30 2735 C 256.369 -3.41053 2.58586 0
M  V30 2736 C 255.695 -4.79421 2.36769 0
M  V30 2737 C 256.995 -3.34902 4.00797 0
M  V30 2738 H 258.689 -1.69812 2.46586 0
M  V30 2739 H 256.235 -0.815542 1.1868 0
M  V30 2740 H 258.188 -3.93681 1.50311 0
M  V30 2741 H 256.912 -3.23043 0.480725 0
M  V30 2742 H 255.571 -2.65035 2.53282 0
M  V30 2743 H 255.219 -4.83863 1.37424 0
M  V30 2744 H 254.919 -4.9762 3.12487 0
M  V30 2745 H 256.443 -5.6006 2.43238 0
M  V30 2746 H 257.857 -4.03218 4.07539 0
M  V30 2747 H 256.254 -3.64637 4.76613 0
M  V30 2748 H 257.324 -2.32928 4.25291 0
M  V30 2749 N 258.668 -1.30515 -0.883378 0
M  V30 2750 C 259.598 -1.19607 -2.00541 0
M  V30 2751 C 260.579 -0.086346 -1.69881 0
M  V30 2752 O 261.764 -0.268654 -1.92333 0
M  V30 2753 C 258.894 -0.888758 -3.35736 0
M  V30 2754 C 257.848 -1.95659 -3.8066 0
M  V30 2755 C 257.174 -1.50224 -5.13164 0
M  V30 2756 C 258.474 -3.36788 -3.99213 0
M  V30 2757 H 260.168 -2.13476 -2.09925 0
M  V30 2758 H 257.714 -1.02775 -1.00863 0
M  V30 2759 H 259.667 -0.799094 -4.13754 0
M  V30 2760 H 258.391 0.0856125 -3.26488 0
M  V30 2761 H 257.05 -2.03591 -3.04871 0
M  V30 2762 H 256.698 -0.516092 -5.00345 0
M  V30 2763 H 256.398 -2.2165 -5.44192 0
M  V30 2764 H 257.922 -1.42639 -5.93706 0
M  V30 2765 H 259.336 -3.31605 -4.67665 0
M  V30 2766 H 257.733 -4.06314 -4.41621 0
M  V30 2767 H 258.803 -3.78561 -3.03017 0
M  V30 2768 N 260.146 1.09593 -1.13257 0
M  V30 2769 C 261.109 2.14359 -0.811358 0
M  V30 2770 C 262.109 1.59808 0.178377 0
M  V30 2771 O 263.299 1.74132 -0.0484911 0
M  V30 2772 C 260.431 3.40269 -0.207276 0
M  V30 2773 H 261.624 2.44284 -1.73969 0
M  V30 2774 H 259.177 1.25102 -0.936973 0
M  V30 2775 H 259.912 3.15969 0.73036 0
M  V30 2776 H 259.697 3.81154 -0.919992 0
M  V30 2777 H 261.187 4.176 0.000667944 0
M  V30 2778 N 261.624 0.925811 1.2754 0
M  V30 2779 C 262.587 0.428129 2.25166 0
M  V30 2780 C 263.587 -0.452261 1.54309 0
M  V30 2781 O 264.777 -0.253608 1.72344 0
M  V30 2782 C 261.909 -0.384749 3.38722 0
M  V30 2783 H 263.102 1.29066 2.70706 0
M  V30 2784 H 260.655 0.706323 1.3943 0
M  V30 2785 H 261.39 -1.26618 2.98561 0
M  V30 2786 H 261.175 0.246454 3.91325 0
M  V30 2787 H 262.665 -0.723389 4.11287 0
M  V30 2788 N 263.102 -1.41638 0.69111 0
M  V30 2789 C 264.332 -2.0533 0.228758 0
M  V30 2790 C 264.74 -1.52089 -1.12541 0
M  V30 2791 O 264.083 -0.662145 -1.71351 0
M  V30 2792 C 264.145 -3.59349 0.10407 0
M  V30 2793 C 263.809 -4.35362 1.38956 0
M  V30 2794 C 264.806 -4.64942 2.32648 0
M  V30 2795 C 262.491 -4.74714 1.64169 0
M  V30 2796 C 264.485 -5.32828 3.49818 0
M  V30 2797 C 262.172 -5.42338 2.81625 0
M  V30 2798 C 263.17 -5.71322 3.74273 0
M  V30 2799 O 262.858 -6.37554 4.89673 0
M  V30 2800 H 262.59 -0.667796 0.104997 0
M  V30 2801 H 265.144 -1.82477 0.942938 0
M  V30 2802 H 263.374 -3.80924 -0.665839 0
M  V30 2803 H 265.063 -4.04633 -0.320519 0
M  V30 2804 H 265.829 -4.35025 2.14425 0
M  V30 2805 H 261.708 -4.51538 0.929202 0
M  V30 2806 H 265.252 -5.55368 4.22152 0
M  V30 2807 H 261.149 -5.71673 2.99768 0
M  V30 2808 H 261.917 -6.56049 4.8943 0
M  V30 2809 N 264.58 -0.43555 -1.51462 0
M  V30 2810 C 265.996 -0.0877501 -1.59359 0
M  V30 2811 C 266.196 1.4027 -1.4466 0
M  V30 2812 O 265.252 2.17243 -1.28693 0
M  V30 2813 C 266.565 -0.606264 -2.94525 0
M  V30 2814 C 268.113 -0.566548 -3.0783 0
M  V30 2815 C 268.588 -1.06201 -4.45517 0
M  V30 2816 N 270.079 -1.01992 -4.51832 0
M  V30 2817 C 270.814 -1.37417 -5.5669 0
M  V30 2818 N 270.31 -1.80119 -6.68976 0
M  V30 2819 N 272.103 -1.29245 -5.47039 0
M  V30 2820 H 264.254 -1.40533 -1.59261 0
M  V30 2821 H 266.517 -0.578992 -0.750648 0
M  V30 2822 H 266.223 -1.64901 -3.10645 0
M  V30 2823 H 266.097 -0.0302097 -3.77188 0
M  V30 2824 H 268.484 0.467208 -2.91378 0
M  V30 2825 H 268.565 -1.17898 -2.2701 0
M  V30 2826 H 268.209 -2.09422 -4.62715 0
M  V30 2827 H 268.139 -0.426127 -5.24873 0
M  V30 2828 H 270.63 -0.706308 -3.71241 0
M  V30 2829 H 270.943 -2.05392 -7.45006 0
M  V30 2830 H 269.288 -1.84044 -6.70189 0
M  V30 2831 H 272.479 -0.957522 -4.58202 0
M  V30 2832 H 272.652 -1.57182 -6.28648 0
M  V30 2833 N 266.058 1.56714 -0.166846 0
M  V30 2834 C 267.305 1.96747 0.479252 0
M  V30 2835 C 267.633 1.05263 1.63554 0
M  V30 2836 O 266.888 0.0858098 1.95512 0
M  V30 2837 C 267.187 3.42889 1.00806 0
M  V30 2838 C 266.853 4.50889 -0.0318574 0
M  V30 2839 C 265.515 4.8015 -0.317675 0
M  V30 2840 C 267.867 5.15949 -0.737956 0
M  V30 2841 C 265.195 5.71772 -1.31506 0
M  V30 2842 C 267.547 6.08647 -1.72429 0
M  V30 2843 C 266.211 6.36277 -2.0176 0
M  V30 2844 H 265.481 0.719949 0.175371 0
M  V30 2845 H 268.128 1.89756 -0.257864 0
M  V30 2846 H 266.433 3.4681 1.82291 0
M  V30 2847 H 268.13 3.71203 1.51689 0
M  V30 2848 H 264.72 4.28128 0.201088 0
M  V30 2849 H 268.904 4.93458 -0.530351 0
M  V30 2850 H 264.16 5.91465 -1.54853 0
M  V30 2851 H 268.334 6.58129 -2.27682 0
M  V30 2852 H 265.961 7.07075 -2.79194 0
M  V30 2853 N 267.536 -0.106894 1.57237 0
M  V30 2854 C 268.466 -1.13148 2.04254 0
M  V30 2855 C 269.447 -1.42476 0.929224 0
M  V30 2856 O 270.632 -1.52709 1.19973 0
M  V30 2857 C 267.762 -2.4545 2.45706 0
M  V30 2858 C 266.716 -2.30558 3.60592 0
M  V30 2859 C 266.042 -3.67931 3.87983 0
M  V30 2860 C 267.342 -1.75597 4.91897 0
M  V30 2861 H 269.036 -0.740374 2.90101 0
M  V30 2862 H 266.582 -0.354696 1.39563 0
M  V30 2863 H 268.535 -3.17389 2.77205 0
M  V30 2864 H 267.259 -2.86475 1.56843 0
M  V30 2865 H 265.918 -1.61067 3.29322 0
M  V30 2866 H 265.566 -4.06462 2.96306 0
M  V30 2867 H 265.266 -3.58817 4.65322 0
M  V30 2868 H 266.79 -4.41356 4.21945 0
M  V30 2869 H 268.204 -2.37364 5.21854 0
M  V30 2870 H 266.601 -1.77272 5.73319 0
M  V30 2871 H 267.671 -0.714451 4.79608 0
M  V30 2872 N 269.014 -1.53014 -0.377408 0
M  V30 2873 C 270.263 -1.67845 -1.11853 0
M  V30 2874 C 270.576 -0.430625 -1.90801 0
M  V30 2875 O 271.782 -0.459261 -2.67587 0
M  V30 2876 C 270.238 -2.96668 -2.03756 0
M  V30 2877 C 269.846 -4.28671 -1.30175 0
M  V30 2878 C 271.59 -3.20865 -2.77932 0
M  V30 2879 C 269.497 -5.48591 -2.20911 0
M  V30 2880 H 268.427 -0.625343 -0.421263 0
M  V30 2881 H 271.078 -1.79514 -0.380409 0
M  V30 2882 H 269.46 -2.78773 -2.8125 0
M  V30 2883 H 270.634 -4.57157 -0.578259 0
M  V30 2884 H 268.949 -4.10825 -0.679108 0
M  V30 2885 H 271.546 -4.07642 -3.46024 0
M  V30 2886 H 271.889 -2.36424 -3.4265 0
M  V30 2887 H 272.422 -3.39379 -2.07525 0
M  V30 2888 H 269.161 -6.35474 -1.6079 0
M  V30 2889 H 268.681 -5.244 -2.91144 0
M  V30 2890 H 270.36 -5.8292 -2.80736 0
M  V30 2891 N 270.492 0.636531 -1.44174 0
M  V30 2892 C 271.769 1.39463 -1.37148 0
M  V30 2893 C 272.149 2.11082 -0.027507 0
M  V30 2894 O 271.497 2.05954 0.989716 0
M  V30 2895 C 271.707 2.36552 -2.56601 0
M  V30 2896 C 273.055 3.00048 -3.00427 0
M  V30 2897 O 274.079 2.46878 -2.56767 0
M  V30 2898 O 272.938 3.96488 -3.76111 0
M  V30 2899 H 270.032 0.623903 -0.542839 0
M  V30 2900 H 272.578 0.662039 -1.56253 0
M  V30 2901 H 271.35 1.82692 -3.46034 0
M  V30 2902 H 270.973 3.17236 -2.39681 0
M  V30 2903 N 271.97 1.30982 0.876444 0
M  V30 2904 C 273.195 1.23373 1.66715 0
M  V30 2905 C 273.62 -0.19885 1.87046 0
M  V30 2906 O 272.978 -1.1427 1.40756 0
M  V30 2907 C 273.026 1.97644 3.01611 0
M  V30 2908 O 272.13 1.30935 3.91062 0
M  V30 2909 H 271.471 0.426279 0.509099 0
M  V30 2910 H 274.001 1.72944 1.09323 0
M  V30 2911 H 274.011 2.06992 3.51594 0
M  V30 2912 H 272.686 3.01829 2.86133 0
M  V30 2913 H 271.263 1.29996 3.49507 0
M  V30 2914 N 273.449 -1.08991 1.13837 0
M  V30 2915 C 274.865 -1.33312 0.877506 0
M  V30 2916 C 275.065 -1.95587 -0.48456 0
M  V30 2917 O 274.121 -2.20509 -1.23013 0
M  V30 2918 C 275.434 -2.24045 2.0056 0
M  V30 2919 C 276.982 -2.37542 2.03821 0
M  V30 2920 C 277.457 -3.31614 3.15905 0
M  V30 2921 N 278.948 -3.39189 3.15445 0
M  V30 2922 C 279.683 -4.11992 3.98811 0
M  V30 2923 N 279.179 -4.87553 4.92203 0
M  V30 2924 N 280.972 -4.07762 3.86894 0
M  V30 2925 H 273.123 -0.669456 2.01574 0
M  V30 2926 H 275.386 -0.357482 0.878015 0
M  V30 2927 H 275.092 -1.85521 2.98789 0
M  V30 2928 H 274.966 -3.24466 1.92359 0
M  V30 2929 H 277.353 -2.75327 1.06202 0
M  V30 2930 H 277.434 -1.36884 2.16093 0
M  V30 2931 H 277.078 -2.94551 4.13766 0
M  V30 2932 H 277.008 -4.32186 3.0087 0
M  V30 2933 H 279.499 -2.85314 2.47799 0
M  V30 2934 H 279.812 -5.40549 5.52292 0
M  V30 2935 H 278.157 -4.86627 4.96205 0
M  V30 2936 H 281.348 -3.47833 3.13257 0
M  V30 2937 H 281.521 -4.64238 4.52092 0
M  V30 2938 N 274.927 -0.932562 -1.27047 0
M  V30 2939 C 276.204 -0.49377 -1.89265 0
M  V30 2940 C 276.584 1.02833 -1.8436 0
M  V30 2941 O 275.932 1.88461 -1.29209 0
M  V30 2942 C 276.142 -1.04536 -3.32976 0
M  V30 2943 C 277.49 -1.10879 -4.09867 0
M  V30 2944 O 278.514 -0.995327 -3.42011 0
M  V30 2945 O 277.373 -1.28417 -5.31198 0
M  V30 2946 H 274.467 -0.159596 -0.811454 0
M  V30 2947 H 277.013 -1.02457 -1.3528 0
M  V30 2948 H 275.785 -2.08913 -3.30864 0
M  V30 2949 H 275.408 -0.496494 -3.94488 0
M  V30 2950 N 276.405 1.4127 -0.698611 0
M  V30 2951 C 277.633 2.05503 -0.239992 0
M  V30 2952 C 278.048 1.52584 1.11191 0
M  V30 2953 O 277.405 0.675323 1.69545 0
M  V30 2954 C 277.456 3.60987 -0.192429 0
M  V30 2955 O 277.177 4.1195 -1.49094 0
M  V30 2956 C 278.678 4.42371 0.28681 0
M  V30 2957 H 275.898 0.661748 -0.111045 0
M  V30 2958 H 278.442 1.80987 -0.95205 0
M  V30 2959 H 276.597 3.84533 0.470472 0
M  V30 2960 H 277.011 5.06018 -1.38007 0
M  V30 2961 H 278.485 5.51344 0.26896 0
M  V30 2962 H 278.962 4.18699 1.32619 0
M  V30 2963 H 279.568 4.23897 -0.345201 0
M  V30 2964 N 277.883 0.443576 1.51229 0
M  V30 2965 C 278.793 -0.370721 2.31652 0
M  V30 2966 C 279.809 -1.02186 1.40833 0
M  V30 2967 O 280.985 -1.01586 1.73903 0
M  V30 2968 C 278.05 -1.45376 3.14749 0
M  V30 2969 C 277.111 -0.822099 4.21355 0
M  V30 2970 C 276.344 -1.85353 5.0048 0
M  V30 2971 O 276.567 -3.07656 4.80316 0
M  V30 2972 O 275.501 -1.4406 5.84406 0
M  V30 2973 H 279.327 0.286002 3.0235 0
M  V30 2974 H 276.912 0.20598 1.47973 0
M  V30 2975 H 278.794 -2.08173 3.66391 0
M  V30 2976 H 277.469 -2.09445 2.46809 0
M  V30 2977 H 276.376 -0.155909 3.73775 0
M  V30 2978 H 277.709 -0.224797 4.91686 0
M  V30 2979 N 279.361 -1.56624 0.175154 0
M  V30 2980 C 280.589 -2.01374 -0.474971 0
M  V30 2981 C 281.004 -1.05537 -1.56548 0
M  V30 2982 O 280.361 -0.0568668 -1.82411 0
M  V30 2983 C 280.412 -3.45923 -1.04975 0
M  V30 2984 O 280.133 -4.381 -0.00276605 0
M  V30 2985 C 281.634 -4.06093 -1.77773 0
M  V30 2986 H 278.854 -0.659962 -0.121206 0
M  V30 2987 H 281.398 -2.02601 0.27801 0
M  V30 2988 H 279.553 -3.45458 -1.75321 0
M  V30 2989 H 279.967 -5.22753 -0.427681 0
M  V30 2990 H 281.441 -5.09147 -2.13245 0
M  V30 2991 H 281.918 -3.48405 -2.67414 0
M  V30 2992 H 282.524 -4.10272 -1.12059 0
M  V30 2993 N 280.839 0.0985539 -1.57292 0
M  V30 2994 C 282.116 0.834155 -1.76921 0
M  V30 2995 C 282.496 1.97101 -0.755928 0
M  V30 2996 O 281.844 2.27474 0.216245 0
M  V30 2997 C 282.054 1.33194 -3.22584 0
M  V30 2998 C 283.402 1.77611 -3.85668 0
M  V30 2999 O 284.426 1.42825 -3.26312 0
M  V30 3000 O 283.285 2.4192 -4.90038 0
M  V30 3001 H 280.379 0.397628 -0.725135 0
M  V30 3002 H 282.925 0.0807044 -1.69508 0
M  V30 3003 H 281.697 0.517248 -3.87866 0
M  V30 3004 H 281.32 2.1475 -3.34616 0
M  V30 3005 N 282.317 1.53212 0.369288 0
M  V30 3006 C 283.542 1.73423 1.1375 0
M  V30 3007 C 283.967 0.460404 1.82378 0
M  V30 3008 O 283.325 -0.585298 1.71592 0
M  V30 3009 C 283.373 2.89769 2.1463 0
M  V30 3010 O 282.477 2.58119 3.21634 0
M  V30 3011 H 281.818 0.576061 0.330227 0
M  V30 3012 H 284.348 2.00083 0.427547 0
M  V30 3013 H 284.358 3.15829 2.58294 0
M  V30 3014 H 283.033 3.8217 1.64071 0
M  V30 3015 H 281.61 2.42864 2.82969 0
M  V30 3016 N 283.795 -0.628877 1.44509 0
M  V30 3017 C 285.211 -0.947305 1.28446 0
M  V30 3018 C 285.411 -2.00275 0.221872 0
M  V30 3019 O 284.467 -2.49447 -0.391471 0
M  V30 3020 C 285.78 -1.40843 2.65676 0
M  V30 3021 C 287.328 -1.52379 2.73404 0
M  V30 3022 C 287.803 -2.01875 4.11109 0
M  V30 3023 N 289.294 -2.09142 4.13296 0
M  V30 3024 C 290.029 -2.48615 5.16699 0
M  V30 3025 N 289.525 -2.87209 6.30462 0
M  V30 3026 N 291.318 -2.48768 5.04054 0
M  V30 3027 H 283.469 0.0690977 2.12288 0
M  V30 3028 H 285.732 -0.0317164 0.947469 0
M  V30 3029 H 285.438 -0.707206 3.44516 0
M  V30 3030 H 285.312 -2.37902 2.92716 0
M  V30 3031 H 287.699 -2.21598 1.9488 0
M  V30 3032 H 287.78 -0.536898 2.50102 0
M  V30 3033 H 287.424 -1.3325 4.90109 0
M  V30 3034 H 287.354 -3.0144 4.31789 0
M  V30 3035 H 289.845 -1.81991 3.31191 0
M  V30 3036 H 290.158 -3.16149 7.05174 0
M  V30 3037 H 288.503 -2.84955 6.33897 0
M  V30 3038 H 291.694 -2.18009 4.14234 0
M  V30 3039 H 291.867 -2.79207 5.84763 0
M  V30 3040 N 285.273 -1.31445 -0.869486 0
M  V30 3041 C 286.203 -1.21727 -1.99261 0
M  V30 3042 C 287.184 -0.104359 -1.6978 0
M  V30 3043 O 288.369 -0.289038 -1.92037 0
M  V30 3044 C 285.499 -0.924317 -3.34774 0
M  V30 3045 C 284.453 -1.99685 -3.78563 0
M  V30 3046 C 283.779 -1.55658 -5.11541 0
M  V30 3047 C 285.079 -3.41003 -3.95619 0
M  V30 3048 H 286.773 -2.1569 -2.07649 0
M  V30 3049 H 284.319 -1.03839 -0.997675 0
M  V30 3050 H 286.272 -0.842934 -4.12883 0
M  V30 3051 H 284.996 0.0509793 -3.2656 0
M  V30 3052 H 283.655 -2.06813 -3.02694 0
M  V30 3053 H 283.303 -0.569132 -4.9977 0
M  V30 3054 H 283.003 -2.27409 -5.41811 0
M  V30 3055 H 284.527 -1.48928 -5.92159 0
M  V30 3056 H 285.941 -3.36547 -4.64122 0
M  V30 3057 H 284.338 -4.10975 -4.37286 0
M  V30 3058 H 285.408 -3.81754 -2.98985 0
M  V30 3059 N 286.751 1.08385 -1.14413 0
M  V30 3060 C 288.028 1.77429 -0.823297 0
M  V30 3061 C 288.408 1.9974 0.683163 0
M  V30 3062 O 287.756 1.60739 1.62405 0
M  V30 3063 C 287.966 3.09004 -1.62227 0
M  V30 3064 C 289.314 3.83532 -1.82177 0
M  V30 3065 O 290.338 3.18786 -1.58915 0
M  V30 3066 O 289.197 4.99792 -2.21067 0
M  V30 3067 H 286.291 0.769999 -0.301712 0
M  V30 3068 H 288.837 1.14846 -1.24934 0
M  V30 3069 H 287.609 2.88316 -2.64555 0
M  V30 3070 H 287.232 3.79316 -1.19187 0
M  V30 3071 N 288.23 0.939286 1.26551 0
M  V30 3072 C 289.478 0.58469 1.93457 0
M  V30 3073 C 289.799 -0.878774 1.74076 0
M  V30 3074 O 289.069 -1.62421 1.09528 0
M  V30 3075 H 287.649 0.21325 0.715914 0
M  V30 3076 H 290.311 1.1942 1.54029 0
M  V30 3077 H 289.407 0.800849 3.0165 0
M  V30 3078 N 289.708 -1.40897 0.706093 0
M  V30 3079 C 290.638 -2.33418 0.0620085 0
M  V30 3080 C 291.619 -1.52385 -0.755827 0
M  V30 3081 O 292.804 -1.80886 -0.706674 0
M  V30 3082 C 289.934 -3.36293 -0.867445 0
M  V30 3083 C 288.888 -4.27716 -0.155932 0
M  V30 3084 C 288.214 -5.2105 -1.20046 0
M  V30 3085 C 289.514 -5.12944 0.984149 0
M  V30 3086 H 291.208 -2.87527 0.83477 0
M  V30 3087 H 288.754 -1.38249 0.402875 0
M  V30 3088 H 290.707 -3.99949 -1.32735 0
M  V30 3089 H 289.431 -2.80556 -1.67199 0
M  V30 3090 H 288.09 -3.65498 0.284047 0
M  V30 3091 H 287.738 -4.61624 -1.99781 0
M  V30 3092 H 287.438 -5.83056 -0.729328 0
M  V30 3093 H 288.962 -5.87584 -1.66066 0
M  V30 3094 H 290.376 -5.70109 0.604048 0
M  V30 3095 H 288.773 -5.83945 1.38304 0
M  V30 3096 H 289.843 -4.49485 1.81911 0
M  V30 3097 N 291.186 -0.45159 -1.50991 0
M  V30 3098 C 292.411 0.110667 -2.07105 0
M  V30 3099 C 292.836 1.3446 -1.31538 0
M  V30 3100 O 292.194 1.77743 -0.357365 0
M  V30 3101 C 292.242 0.397238 -3.58405 0
M  V30 3102 O 291.346 1.48124 -3.84881 0
M  V30 3103 H 290.687 -0.00439271 -0.663985 0
M  V30 3104 H 293.217 -0.637026 -1.9443 0
M  V30 3105 H 293.227 0.64351 -4.02893 0
M  V30 3106 H 291.902 -0.504553 -4.12828 0
M  V30 3107 H 290.479 1.22381 -3.52246 0
M  V30 3108 N 292.664 1.56529 -0.183458 0
M  V30 3109 C 293.941 1.88959 0.50536 0
M  V30 3110 C 294.321 1.09523 1.80466 0
M  V30 3111 O 293.669 0.19278 2.27685 0
M  V30 3112 C 293.879 3.41162 0.73547 0
M  V30 3113 C 295.227 4.11155 1.06005 0
M  V30 3114 O 296.251 3.46548 0.823594 0
M  V30 3115 O 295.11 5.25318 1.50675 0
M  V30 3116 H 292.204 0.78441 0.261973 0
M  V30 3117 H 294.75 1.68231 -0.222802 0
M  V30 3118 H 293.522 3.90874 -0.182561 0
M  V30 3119 H 293.145 3.67543 1.51651 0
M  V30 3120 N 294.142 -0.090211 1.57342 0
M  V30 3121 C 295.105 -1.09335 2.01441 0
M  V30 3122 C 296.105 -1.32666 0.908641 0
M  V30 3123 O 297.295 -1.28697 1.174 0
M  V30 3124 C 294.427 -2.44136 2.3793 0
M  V30 3125 H 295.62 -0.713662 2.91285 0
M  V30 3126 H 293.173 -0.335404 1.52659 0
M  V30 3127 H 293.908 -2.86972 1.51055 0
M  V30 3128 H 293.693 -2.28548 3.18603 0
M  V30 3129 H 295.183 -3.16277 2.72688 0
M  V30 3130 N 295.62 -1.53406 -0.361157 0
M  V30 3131 C 296.867 -1.69802 -1.10333 0
M  V30 3132 C 297.195 -0.452087 -1.89173 0
M  V30 3133 O 296.45 0.566017 -1.87336 0
M  V30 3134 C 296.749 -2.90211 -2.08596 0
M  V30 3135 C 296.415 -4.26539 -1.46203 0
M  V30 3136 C 295.077 -4.6361 -1.28915 0
M  V30 3137 C 297.429 -5.113 -1.01101 0
M  V30 3138 C 294.757 -5.83075 -0.651157 0
M  V30 3139 C 297.109 -6.31415 -0.387007 0
M  V30 3140 C 295.773 -6.67195 -0.201657 0
M  V30 3141 H 295.043 -0.621351 -0.403737 0
M  V30 3142 H 297.69 -1.87598 -0.384609 0
M  V30 3143 H 295.995 -2.66946 -2.86788 0
M  V30 3144 H 297.692 -3.00091 -2.65982 0
M  V30 3145 H 294.282 -3.97352 -1.60653 0
M  V30 3146 H 298.466 -4.83206 -1.13249 0
M  V30 3147 H 293.722 -6.09385 -0.496006 0
M  V30 3148 H 297.896 -6.96394 -0.0293563 0
M  V30 3149 H 295.523 -7.59628 0.294766 0
M  V30 3150 N 297.098 0.621204 -1.44841 0
M  V30 3151 C 298.323 1.41244 -1.51871 0
M  V30 3152 C 298.748 1.87519 -0.147764 0
M  V30 3153 O 298.106 1.59334 0.865 0
M  V30 3154 C 298.154 2.60221 -2.49634 0
M  V30 3155 O 297.258 3.60395 -2.00473 0
M  V30 3156 H 296.599 0.42223 -0.512463 0
M  V30 3157 H 299.129 0.757305 -1.90069 0
M  V30 3158 H 299.139 3.0764 -2.67996 0
M  V30 3159 H 297.814 2.25887 -3.4921 0
M  V30 3160 H 296.391 3.19717 -1.91925 0
M  V30 3161 N 298.576 1.31904 0.862503 0
M  V30 3162 C 299.822 1.22197 1.61851 0
M  V30 3163 C 300.155 -0.217641 1.92977 0
M  V30 3164 O 299.43 -1.15264 1.56666 0
M  V30 3165 C 299.713 2.07378 2.94391 0
M  V30 3166 C 299.566 3.59678 2.70096 0
M  V30 3167 C 300.885 1.92891 3.95577 0
M  V30 3168 H 298.004 0.445255 0.587296 0
M  V30 3169 H 300.646 1.6177 0.99651 0
M  V30 3170 H 298.796 1.73758 3.47477 0
M  V30 3171 H 300.468 4.03472 2.23625 0
M  V30 3172 H 298.711 3.82735 2.04197 0
M  V30 3173 H 299.382 4.14595 3.64438 0
M  V30 3174 H 301.858 2.22327 3.51724 0
M  V30 3175 H 300.734 2.54781 4.86187 0
M  V30 3176 H 300.995 0.894315 4.3296 0
M  V30 3177 N 300.054 -1.07777 1.14986 0
M  V30 3178 C 301.301 -1.8029 0.922056 0
M  V30 3179 C 301.629 -1.86531 -0.55105 0
M  V30 3180 O 300.884 -1.34189 -1.42449 0
M  V30 3181 C 301.183 -3.25495 1.47608 0
M  V30 3182 C 300.849 -3.39361 2.96893 0
M  V30 3183 C 299.511 -3.42852 3.37647 0
M  V30 3184 C 301.863 -3.42512 3.92854 0
M  V30 3185 C 299.191 -3.47094 4.73015 0
M  V30 3186 C 301.543 -3.4829 5.28088 0
M  V30 3187 C 300.207 -3.50058 5.68345 0
M  V30 3188 H 299.477 -0.659727 0.337404 0
M  V30 3189 H 302.124 -1.26854 1.43459 0
M  V30 3190 H 300.429 -3.81683 0.88463 0
M  V30 3191 H 302.126 -3.80168 1.27568 0
M  V30 3192 H 298.716 -3.37339 2.64387 0
M  V30 3193 H 302.9 -3.3904 3.62444 0
M  V30 3194 H 298.156 -3.46758 5.03556 0
M  V30 3195 H 302.33 -3.49675 6.02246 0
M  V30 3196 H 299.957 -3.53097 6.73221 0
M  V30 3197 N 301.532 -0.945985 -1.26051 0
M  V30 3198 C 302.948 -0.649045 -1.45807 0
M  V30 3199 C 303.148 0.796158 -1.85104 0
M  V30 3200 O 302.204 1.57233 -1.97571 0
M  V30 3201 C 303.517 -1.61458 -2.53677 0
M  V30 3202 C 305.065 -1.62481 -2.67524 0
M  V30 3203 C 305.54 -2.57776 -3.7857 0
M  V30 3204 N 307.031 -2.5609 -3.85969 0
M  V30 3205 C 307.766 -3.26508 -4.7136 0
M  V30 3206 N 307.262 -4.0637 -5.61102 0
M  V30 3207 N 309.055 -3.15437 -4.65248 0
M  V30 3208 H 301.206 -1.88005 -0.988328 0
M  V30 3209 H 303.469 -0.808198 -0.4955 0
M  V30 3210 H 303.175 -2.64644 -2.31638 0
M  V30 3211 H 303.049 -1.37036 -3.51427 0
M  V30 3212 H 305.436 -0.600167 -2.88933 0
M  V30 3213 H 305.517 -1.90958 -1.70202 0
M  V30 3214 H 305.161 -3.60361 -3.57913 0
M  V30 3215 H 305.091 -2.26587 -4.75359 0
M  V30 3216 H 307.582 -1.98105 -3.21812 0
M  V30 3217 H 307.895 -4.57042 -6.23164 0
M  V30 3218 H 306.24 -4.10469 -5.60839 0
M  V30 3219 H 309.431 -2.52525 -3.94143 0
M  V30 3220 H 309.604 -3.70584 -5.31575 0
M  V30 3221 N 303.011 1.40521 -0.713556 0
M  V30 3222 C 304.251 2.02783 -0.256584 0
M  V30 3223 C 304.615 1.55352 1.12827 0
M  V30 3224 O 305.816 2.09663 1.68211 0
M  V30 3225 C 304.087 3.5586 -0.331414 0
M  V30 3226 S 305.646 4.38773 0.0488703 0
M  V30 3227 H 302.464 0.703655 -0.101934 0
M  V30 3228 H 305.066 1.71674 -0.935325 0
M  V30 3229 H 303.77 3.87874 -1.34098 0
M  V30 3230 H 303.301 3.91695 0.365873 0
M  V30 3231 H 305.316 4.79633 1.2715 0
M  V30 3232 N 304.489 0.459591 1.5075 0
M  V30 3233 C 305.439 -0.358926 2.25157 0
M  V30 3234 C 306.423 -0.971285 1.28276 0
M  V30 3235 O 307.615 -0.885739 1.53244 0
M  V30 3236 C 304.744 -1.44695 3.11317 0
M  V30 3237 C 303.83 -0.842894 4.15639 0
M  V30 3238 N 304.221 0.0299373 5.05791 0
M  V30 3239 C 302.519 -1.10809 4.32015 0
M  V30 3240 C 303.22 0.371563 5.80512 0
M  V30 3241 N 302.196 -0.250409 5.43023 0
M  V30 3242 H 305.998 0.313636 2.92222 0
M  V30 3243 H 303.512 0.273021 1.60089 0
M  V30 3244 H 305.509 -2.04641 3.63218 0
M  V30 3245 H 304.169 -2.12162 2.45799 0
M  V30 3246 H 305.18 0.39797 5.16369 0
M  V30 3247 H 301.857 -1.7786 3.77719 0
M  V30 3248 H 303.247 1.08319 6.63111 0
M  V30 3249 N 305.967 -1.56429 0.191757 0
M  V30 3250 C 307.192 -2.02309 -0.456706 0
M  V30 3251 C 307.617 -1.07103 -1.5463 0
M  V30 3252 O 306.975 -0.0539677 -1.8122 0
M  V30 3253 C 307.023 -3.46654 -0.993159 0
M  V30 3254 O 306.127 -3.54559 -2.10622 0
M  V30 3255 H 305.468 -0.655303 -0.107114 0
M  V30 3256 H 307.998 -2.02364 0.301653 0
M  V30 3257 H 308.008 -3.86377 -1.31061 0
M  V30 3258 H 306.683 -4.1544 -0.195504 0
M  V30 3259 H 305.26 -3.26708 -1.79767 0
M  V30 3260 N 307.445 0.0818655 -1.57387 0
M  V30 3261 C 308.694 0.781681 -1.85937 0
M  V30 3262 C 309.007 1.79246 -0.782957 0
M  V30 3263 O 310.213 2.54112 -0.955987 0
M  V30 3264 C 308.669 1.44109 -3.29789 0
M  V30 3265 C 308.277 0.469396 -4.45534 0
M  V30 3266 C 310.021 2.12386 -3.67549 0
M  V30 3267 C 307.928 1.13415 -5.80423 0
M  V30 3268 H 306.858 0.295682 -0.693605 0
M  V30 3269 H 309.509 0.0348051 -1.83467 0
M  V30 3270 H 307.891 2.23588 -3.2684 0
M  V30 3271 H 309.065 -0.294856 -4.59856 0
M  V30 3272 H 307.38 -0.108383 -4.16259 0
M  V30 3273 H 309.977 2.62878 -4.65617 0
M  V30 3274 H 310.32 2.91877 -2.96839 0
M  V30 3275 H 310.853 1.39751 -3.72444 0
M  V30 3276 H 307.592 0.379771 -6.54399 0
M  V30 3277 H 307.112 1.8695 -5.69921 0
M  V30 3278 H 308.791 1.65686 -6.25426 0
M  V30 3279 N 308.923 1.53595 0.353017 0
M  V30 3280 C 309.856 1.7572 1.45594 0
M  V30 3281 C 310.834 0.605961 1.50887 0
M  V30 3282 O 312.018 0.840023 1.68748 0
M  V30 3283 C 309.145 1.84732 2.83887 0
M  V30 3284 C 308.191 3.06808 2.96262 0
M  V30 3285 S 309.024 4.66065 2.63711 0
M  V30 3286 C 310.18 4.77943 4.04131 0
M  V30 3287 H 310.413 2.68994 1.26608 0
M  V30 3288 H 307.946 1.44343 0.548117 0
M  V30 3289 H 309.904 1.9061 3.63563 0
M  V30 3290 H 308.565 0.92488 3.00175 0
M  V30 3291 H 307.758 3.09761 3.97573 0
M  V30 3292 H 307.36 2.99108 2.24523 0
M  V30 3293 H 309.652 4.5877 4.98534 0
M  V30 3294 H 310.595 5.80022 4.06177 0
M  V30 3295 H 311.003 4.06472 3.91715 0
M  V30 3296 N 310.401 -0.613514 1.45168 0
M  V30 3297 C 311.349 -1.74572 1.53712 0
M  V30 3298 C 312.343 -1.64426 0.407505 0
M  V30 3299 O 313.549 -1.70291 0.583176 0
M  V30 3300 H 309.924 -0.576641 0.48269 0
M  V30 3301 H 311.895 -1.64492 2.48968 0
M  V30 3302 C 310.644 -3.12943 1.51532 0
M  V30 3303 H 309.967 -3.21407 2.37776 0
M  V30 3304 H 311.407 -3.9201 1.61569 0
M  V30 3305 C 309.866 -3.36053 0.238798 0
M  V30 3306 O 310.396 -3.95837 -0.6838 0
M  V30 3307 N 308.602 -2.9028 0.136359 0
M  V30 3308 H 308.149 -2.41811 0.887999 0
M  V30 3309 H 308.107 -3.06116 -0.716944 0
M  V30 3310 N 311.879 -1.3236 -0.855495 0
M  V30 3311 C 313.119 -1.24187 -1.62348 0
M  V30 3312 C 313.483 0.193597 -1.91021 0
M  V30 3313 O 314.684 0.39904 -2.65822 0
M  V30 3314 C 312.955 -2.07661 -2.90881 0
M  V30 3315 S 314.514 -2.16505 -3.81669 0
M  V30 3316 H 311.332 -0.442076 -0.556857 0
M  V30 3317 H 313.934 -1.67198 -1.01317 0
M  V30 3318 H 312.638 -3.11018 -2.67761 0
M  V30 3319 H 312.169 -1.65425 -3.56929 0
M  V30 3320 H 314.184 -1.31394 -4.78487 0
M  V30 3321 N 313.357 1.07166 -1.15556 0
M  V30 3322 C 314.603 1.80065 -0.932984 0
M  V30 3323 C 314.936 1.86586 0.53845 0
M  V30 3324 O 314.211 1.35098 1.39924 0
M  V30 3325 C 314.494 3.25022 -1.55025 0
M  V30 3326 C 314.347 3.26634 -3.09242 0
M  V30 3327 C 315.666 4.22341 -1.2376 0
M  V30 3328 H 312.785 0.653697 -0.340366 0
M  V30 3329 H 315.427 1.25389 -1.4275 0
M  V30 3330 H 313.577 3.71712 -1.12972 0
M  V30 3331 H 315.249 2.88173 -3.60214 0
M  V30 3332 H 313.492 2.65539 -3.43033 0
M  V30 3333 H 314.163 4.28854 -3.47546 0
M  V30 3334 H 316.639 3.8405 -1.60139 0
M  V30 3335 H 315.515 5.22053 -1.69564 0
M  V30 3336 H 315.776 4.41828 -0.154938 0
M  V30 3337 N 314.835 0.952656 1.25548 0
M  V30 3338 C 316.06 0.623025 1.97821 0
M  V30 3339 C 316.485 -0.7976 1.70352 0
M  V30 3340 O 315.843 -1.53905 0.958283 0
M  V30 3341 C 315.891 0.885532 3.49558 0
M  V30 3342 O 314.995 -0.0366641 4.12384 0
M  V30 3343 H 314.336 0.237082 0.620232 0
M  V30 3344 H 316.866 1.27871 1.59719 0
M  V30 3345 H 316.876 0.811009 3.99858 0
M  V30 3346 H 315.551 1.92094 3.6888 0
M  V30 3347 H 314.128 0.0898954 3.72792 0
M  V30 3348 N 316.313 -1.40141 0.720998 0
M  V30 3349 C 317.559 -2.01084 0.263231 0
M  V30 3350 C 317.892 -1.57052 -1.14229 0
M  V30 3351 O 317.167 -0.793027 -1.77599 0
M  V30 3352 C 317.45 -3.58401 0.349344 0
M  V30 3353 C 317.303 -4.12491 1.79363 0
M  V30 3354 C 318.622 -4.39231 -0.276351 0
M  V30 3355 H 315.741 -0.730572 0.0971228 0
M  V30 3356 H 318.383 -1.66543 0.914518 0
M  V30 3357 H 316.533 -3.87958 -0.205165 0
M  V30 3358 H 318.205 -3.93711 2.40394 0
M  V30 3359 H 316.448 -3.66576 2.31958 0
M  V30 3360 H 317.119 -5.21646 1.80524 0
M  V30 3361 H 319.595 -4.15637 0.196184 0
M  V30 3362 H 318.471 -5.48586 -0.185681 0
M  V30 3363 H 318.732 -4.20643 -1.36059 0
M  V30 3364 N 317.792 -0.46758 -1.50504 0
M  V30 3365 C 319.032 0.0874114 -2.04213 0
M  V30 3366 C 319.396 1.37301 -1.34211 0
M  V30 3367 O 320.597 2.01015 -1.78456 0
M  V30 3368 C 318.868 0.270571 -3.56374 0
M  V30 3369 S 320.427 0.784623 -4.31728 0
M  V30 3370 H 317.245 0.0176153 -0.710782 0
M  V30 3371 H 319.847 -0.633915 -1.84937 0
M  V30 3372 H 318.551 -0.670942 -4.04878 0
M  V30 3373 H 318.082 1.01811 -3.79997 0
M  V30 3374 H 320.097 2.05849 -4.51487 0
M  V30 3375 N 319.27 1.56325 -0.20005 0
M  V30 3376 C 320.681 1.8408 0.31167 0
M  V30 3377 C 321.032 1.12087 1.61031 0
M  V30 3378 O 320.157 0.38332 2.12978 0
M  V30 3379 C 320.752 3.33932 0.57226 0
M  V30 3380 C 319.311 3.6208 1.02834 0
M  V30 3381 C 318.458 2.77186 0.079634 0
M  V30 3382 H 321.409 1.52939 -0.423729 0
M  V30 3383 H 321.43 3.52971 1.42096 0
M  V30 3384 H 320.942 3.86303 -0.37308 0
M  V30 3385 H 319.043 3.15147 1.98778 0
M  V30 3386 H 319.156 4.7023 0.917624 0
M  V30 3387 H 317.52 2.47951 0.582448 0
M  V30 3388 H 318.303 3.32347 -0.860238 0
M  V30 3389 N 320.748 -0.0735177 1.57428 0
M  V30 3390 C 321.695 -1.08756 2.0357 0
M  V30 3391 C 322.665 -1.38559 0.916 0
M  V30 3392 O 323.85 -1.49656 1.18354 0
M  V30 3393 C 320.99 -2.39657 2.48311 0
M  V30 3394 C 320.103 -2.16399 3.73892 0
M  V30 3395 C 319.238 -3.40852 4.07423 0
M  V30 3396 C 318.277 -3.1295 5.2605 0
M  V30 3397 N 317.414 -4.29729 5.55228 0
M  V30 3398 H 322.254 -0.687104 2.8997 0
M  V30 3399 H 319.791 -0.327709 1.43403 0
M  V30 3400 H 321.749 -3.16081 2.72303 0
M  V30 3401 H 320.379 -2.77508 1.64891 0
M  V30 3402 H 319.431 -1.30676 3.57251 0
M  V30 3403 H 320.743 -1.91788 4.60455 0
M  V30 3404 H 319.897 -4.25671 4.32306 0
M  V30 3405 H 318.636 -3.68537 3.19425 0
M  V30 3406 H 317.641 -2.26526 5.00965 0
M  V30 3407 H 318.866 -2.86589 6.15665 0
M  V30 3408 H 316.812 -4.57448 4.70188 0
M  V30 3409 H 316.729 -4.08385 6.36206 0
M  V30 3410 H 317.997 -5.1555 5.84661 0
M  V30 3411 N 322.226 -1.5378 -0.344866 0
M  V30 3412 C 323.474 -1.70625 -1.08311 0
M  V30 3413 C 323.795 -0.471447 -1.89215 0
M  V30 3414 O 323.065 0.514616 -1.8902 0
M  V30 3415 H 321.645 -0.629058 -0.402859 0
M  V30 3416 H 324.307 -1.9103 -0.386459 0
M  V30 3417 H 323.403 -2.57656 -1.76124 0
M  V30 3418 N 323.704 0.605807 -1.45491 0
M  V30 3419 C 324.634 1.72709 -1.57143 0
M  V30 3420 C 325.615 1.6476 -0.422884 0
M  V30 3421 O 326.8 1.83132 -0.646247 0
M  V30 3422 C 323.93 3.11316 -1.53948 0
M  V30 3423 C 322.884 3.34077 -2.67537 0
M  V30 3424 C 322.21 4.72975 -2.49397 0
M  V30 3425 C 323.51 3.24158 -4.09535 0
M  V30 3426 H 325.204 1.63214 -2.51001 0
M  V30 3427 H 322.75 0.78379 -1.208 0
M  V30 3428 H 324.703 3.89557 -1.60696 0
M  V30 3429 H 323.427 3.21655 -0.566205 0
M  V30 3430 H 322.086 2.58227 -2.6022 0
M  V30 3431 H 321.734 4.8005 -1.50205 0
M  V30 3432 H 321.434 4.8916 -3.25571 0
M  V30 3433 H 322.958 5.53414 -2.58002 0
M  V30 3434 H 324.372 3.92271 -4.18086 0
M  V30 3435 H 322.769 3.51872 -4.86113 0
M  V30 3436 H 323.839 2.2157 -4.31317 0
M  V30 3437 N 325.182 1.32811 0.848464 0
M  V30 3438 C 326.13 1.22231 1.97895 0
M  V30 3439 C 327.124 0.125749 1.68933 0
M  V30 3440 O 328.33 0.289083 1.77663 0
M  V30 3441 H 324.705 0.379058 0.649476 0
M  V30 3442 H 326.676 2.17828 2.03945 0
M  V30 3443 C 325.425 0.968572 3.33937 0
M  V30 3444 H 324.748 1.80458 3.56756 0
M  V30 3445 H 326.188 0.934808 4.13567 0
M  V30 3446 C 324.647 -0.328628 3.35293 0
M  V30 3447 O 325.177 -1.33848 3.78745 0
M  V30 3448 N 323.383 -0.352788 2.88451 0
M  V30 3449 H 322.93 0.469541 2.53285 0
M  V30 3450 H 322.888 -1.22057 2.89741 0
M  V30 3451 N 326.66 -1.06551 1.16123 0
M  V30 3452 C 328.071 -1.60768 0.949232 0
M  V30 3453 C 328.422 -1.89523 -0.507508 0
M  V30 3454 O 327.547 -1.66671 -1.38021 0
M  V30 3455 C 328.142 -2.92086 1.71671 0
M  V30 3456 C 326.701 -3.43015 1.54977 0
M  V30 3457 C 325.848 -2.16947 1.72711 0
M  V30 3458 H 328.799 -0.895354 1.31031 0
M  V30 3459 H 328.82 -3.6138 1.19099 0
M  V30 3460 H 328.332 -2.71127 2.7769 0
M  V30 3461 H 326.433 -3.69039 0.513873 0
M  V30 3462 H 326.546 -4.18516 2.33198 0
M  V30 3463 H 324.91 -2.27041 1.15431 0
M  V30 3464 H 325.693 -1.98473 2.80113 0
M  V30 3465 N 328.138 -0.959301 -1.25041 0
M  V30 3466 C 329.366 -0.633949 -1.96948 0
M  V30 3467 C 329.781 0.794916 -1.7125 0
M  V30 3468 O 329.138 1.53231 -0.991287 0
M  V30 3469 C 329.189 -0.888805 -3.50403 0
M  V30 3470 O 328.91 -2.26149 -3.75218 0
M  V30 3471 C 330.411 -0.576482 -4.39536 0
M  V30 3472 H 327.631 -0.237263 -0.627652 0
M  V30 3473 H 330.175 -1.28495 -1.59089 0
M  V30 3474 H 328.33 -0.284145 -3.86357 0
M  V30 3475 H 328.744 -2.33514 -4.6965 0
M  V30 3476 H 330.218 -0.805314 -5.46094 0
M  V30 3477 H 330.695 0.489075 -4.36468 0
M  V30 3478 H 331.301 -1.16067 -4.09156 0
M  V30 3479 N 329.616 1.39756 -0.72842 0
M  V30 3480 C 331.032 1.5442 -0.403308 0
M  V30 3481 C 331.232 1.69694 1.08656 0
M  V30 3482 O 330.288 1.69373 1.87267 0
M  V30 3483 C 331.601 2.76555 -1.18058 0
M  V30 3484 C 333.149 2.90384 -1.16815 0
M  V30 3485 C 333.624 4.15449 -1.92785 0
M  V30 3486 N 335.115 4.22475 -1.89918 0
M  V30 3487 C 335.85 5.1818 -2.45514 0
M  V30 3488 N 335.346 6.19714 -3.09719 0
M  V30 3489 N 337.139 5.1035 -2.35584 0
M  V30 3490 H 329.29 1.28089 -1.69431 0
M  V30 3491 H 331.553 0.620327 -0.716867 0
M  V30 3492 H 331.259 2.7159 -2.23455 0
M  V30 3493 H 331.133 3.69033 -0.780662 0
M  V30 3494 H 333.52 2.94846 -0.12234 0
M  V30 3495 H 333.601 1.98988 -1.6074 0
M  V30 3496 H 333.245 4.11749 -2.97364 0
M  V30 3497 H 333.175 5.05877 -1.46272 0
M  V30 3498 H 335.666 3.49743 -1.43138 0
M  V30 3499 H 335.979 6.8919 -3.49625 0
M  V30 3500 H 334.324 6.20121 -3.13807 0
M  V30 3501 H 337.515 4.2996 -1.85072 0
M  V30 3502 H 337.688 5.84761 -2.79211 0
M  V30 3503 N 331.094 0.475555 1.50254 0
M  V30 3504 C 332.057 -0.305016 2.27161 0
M  V30 3505 C 333.057 -0.916519 1.32123 0
M  V30 3506 O 334.247 -0.785003 1.5551 0
M  V30 3507 C 331.379 -1.43496 3.09227 0
M  V30 3508 H 332.572 0.369511 2.97615 0
M  V30 3509 H 330.125 0.229747 1.54602 0
M  V30 3510 H 330.86 -2.14441 2.43281 0
M  V30 3511 H 330.645 -1.00223 3.79075 0
M  V30 3512 H 332.135 -1.98548 3.67381 0
M  V30 3513 N 332.573 -1.56217 0.208337 0
M  V30 3514 C 333.822 -1.97124 -0.427204 0
M  V30 3515 C 334.135 -1.09859 -1.61835 0
M  V30 3516 O 335.341 -1.40606 -2.32255 0
M  V30 3517 C 333.797 -3.50633 -0.811442 0
M  V30 3518 C 333.405 -4.46582 0.35615 0
M  V30 3519 C 335.149 -4.00282 -1.41332 0
M  V30 3520 C 333.056 -5.91379 -0.0497852 0
M  V30 3521 H 331.986 -0.736086 -0.163381 0
M  V30 3522 H 334.637 -1.8099 0.302456 0
M  V30 3523 H 333.019 -3.62319 -1.59815 0
M  V30 3524 H 334.193 -4.46636 1.1337 0
M  V30 3525 H 332.508 -4.07202 0.870396 0
M  V30 3526 H 335.105 -5.0595 -1.72972 0
M  V30 3527 H 335.448 -3.45359 -2.32449 0
M  V30 3528 H 335.981 -3.91764 -0.690323 0
M  V30 3529 H 332.72 -6.50255 0.827529 0
M  V30 3530 H 332.24 -5.94549 -0.791926 0
M  V30 3531 H 333.919 -6.45209 -0.481042 0
M  V30 3532 N 334.051 0.0651679 -1.57465 0
M  V30 3533 C 335.299 0.761555 -1.87202 0
M  V30 3534 C 335.62 1.77778 -0.801243 0
M  V30 3535 O 334.89 1.95166 0.16937 0
M  V30 3536 H 333.47 0.284251 -0.690804 0
M  V30 3537 H 336.132 0.0396827 -1.9486 0
M  V30 3538 H 335.228 1.27365 -2.84929 0
M  V30 3539 N 335.529 1.53961 0.336706 0
M  V30 3540 C 336.479 1.7881 1.41461 0
M  V30 3541 C 337.463 0.643561 1.47469 0
M  V30 3542 O 338.655 0.903166 1.52223 0
M  V30 3543 C 335.784 2.00722 2.78506 0
M  V30 3544 C 334.87 3.2126 2.76862 0
M  V30 3545 N 335.261 4.42588 2.44845 0
M  V30 3546 C 333.559 3.22568 3.08004 0
M  V30 3547 C 334.26 5.2447 2.51607 0
M  V30 3548 N 333.236 4.61344 2.87511 0
M  V30 3549 H 337.038 2.70205 1.15615 0
M  V30 3550 H 334.552 1.52978 0.545112 0
M  V30 3551 H 336.549 2.1666 3.5618 0
M  V30 3552 H 335.209 1.10573 3.05293 0
M  V30 3553 H 336.22 4.69819 2.17922 0
M  V30 3554 H 332.897 2.42409 3.39918 0
M  V30 3555 H 334.287 6.31324 2.29955 0
M  V30 3556 N 337.007 -0.598083 1.45811 0
M  V30 3557 C 338.256 -1.35295 1.49594 0
M  V30 3558 C 338.569 -1.95057 0.145679 0
M  V30 3559 O 339.775 -2.71431 0.0612099 0
M  V30 3560 C 338.231 -2.45124 2.63519 0
M  V30 3561 C 337.839 -1.91732 4.04899 0
M  V30 3562 C 339.583 -3.2205 2.76558 0
M  V30 3563 C 337.49 -2.991 5.1019 0
M  V30 3564 H 336.42 -0.508552 0.556679 0
M  V30 3565 H 339.071 -0.639977 1.71978 0
M  V30 3566 H 337.453 -3.19149 2.34435 0
M  V30 3567 H 338.627 -1.24352 4.43704 0
M  V30 3568 H 336.942 -1.27522 3.96393 0
M  V30 3569 H 339.539 -4.0215 3.52391 0
M  V30 3570 H 339.882 -3.73663 1.83526 0
M  V30 3571 H 340.415 -2.55127 3.05213 0
M  V30 3572 H 337.154 -2.52393 6.04961 0
M  V30 3573 H 336.674 -3.65017 4.75944 0
M  V30 3574 H 338.353 -3.63318 5.35359 0
M  V30 3575 N 338.485 -1.33259 -0.841409 0
M  V30 3576 C 339.432 -1.23302 -1.95103 0
M  V30 3577 C 340.402 -0.112204 -1.65721 0
M  V30 3578 O 341.587 -0.290038 -1.88583 0
M  V30 3579 C 338.727 -0.975583 -3.31023 0
M  V30 3580 C 337.84 -2.18243 -3.72819 0
M  V30 3581 C 336.975 -1.85936 -4.97595 0
M  V30 3582 C 336.014 -3.02866 -5.3192 0
M  V30 3583 N 335.151 -2.70565 -6.47873 0
M  V30 3584 H 339.991 -2.18207 -2.02952 0
M  V30 3585 H 337.528 -1.0851 -0.993173 0
M  V30 3586 H 339.486 -0.80677 -4.09325 0
M  V30 3587 H 338.116 -0.0632755 -3.22738 0
M  V30 3588 H 337.168 -2.46107 -2.90061 0
M  V30 3589 H 338.48 -3.05666 -3.94169 0
M  V30 3590 H 337.634 -1.65684 -5.83638 0
M  V30 3591 H 336.373 -0.957452 -4.78209 0
M  V30 3592 H 335.378 -3.23736 -4.44382 0
M  V30 3593 H 336.603 -3.93809 -5.53255 0
M  V30 3594 H 334.549 -1.8293 -6.29978 0
M  V30 3595 H 334.466 -3.51519 -6.69306 0
M  V30 3596 H 335.734 -2.53774 -7.37034 0
M  V30 3597 N 339.963 1.05934 -1.16686 0
M  V30 3598 C 341.188 1.83029 -0.975455 0
M  V30 3599 C 341.613 1.82096 0.471452 0
M  V30 3600 O 340.971 1.22443 1.33706 0
M  V30 3601 C 341.019 3.27372 -1.51195 0
M  V30 3602 O 340.123 4.06054 -0.720701 0
M  V30 3603 H 339.464 0.566194 -0.346872 0
M  V30 3604 H 341.994 1.33541 -1.55009 0
M  V30 3605 H 342.004 3.78186 -1.53099 0
M  V30 3606 H 340.679 3.27366 -2.56523 0
M  V30 3607 H 339.256 3.64812 -0.772458 0
M  V30 3608 N 341.441 0.965919 1.2453 0
M  V30 3609 C 342.374 0.4393 2.23932 0
M  V30 3610 C 343.352 -0.485615 1.55179 0
M  V30 3611 O 344.536 -0.417402 1.83821 0
M  V30 3612 C 341.663 -0.366042 3.36716 0
M  V30 3613 C 340.709 0.5009 4.23548 0
M  V30 3614 S 341.542 1.94002 4.99123 0
M  V30 3615 C 342.698 1.14342 6.15367 0
M  V30 3616 H 342.931 1.28167 2.68254 0
M  V30 3617 H 340.464 0.770819 1.33782 0
M  V30 3618 H 342.422 -0.824724 4.0213 0
M  V30 3619 H 341.083 -1.18337 2.90956 0
M  V30 3620 H 340.276 -0.117341 5.03863 0
M  V30 3621 H 339.878 0.89524 3.63127 0
M  V30 3622 H 342.17 0.397572 6.76332 0
M  V30 3623 H 343.113 1.92089 6.81548 0
M  V30 3624 H 343.521 0.668579 5.60527 0
M  V30 3625 N 342.919 -1.39368 0.735821 0
M  V30 3626 C 343.849 -2.33234 0.111506 0
M  V30 3627 C 344.83 -1.53954 -0.723334 0
M  V30 3628 O 346.015 -1.82344 -0.668147 0
M  V30 3629 C 343.145 -3.38057 -0.795917 0
M  V30 3630 C 342.099 -4.2795 -0.065172 0
M  V30 3631 C 341.425 -5.23479 -1.08967 0
M  V30 3632 C 342.725 -5.10741 1.09273 0
M  V30 3633 H 344.419 -2.85692 0.895571 0
M  V30 3634 H 341.965 -1.37364 0.432109 0
M  V30 3635 H 343.918 -4.02675 -1.24221 0
M  V30 3636 H 342.642 -2.8404 -1.61211 0
M  V30 3637 H 341.301 -3.64813 0.361511 0
M  V30 3638 H 340.949 -4.65758 -1.89944 0
M  V30 3639 H 340.649 -5.84472 -0.605489 0
M  V30 3640 H 342.173 -5.90974 -1.53565 0
M  V30 3641 H 343.587 -5.68699 0.724841 0
M  V30 3642 H 341.984 -5.8088 1.50659 0
M  V30 3643 H 343.054 -4.45525 1.91404 0
M  V30 3644 N 344.397 -0.483516 -1.5 0
M  V30 3645 C 345.327 0.293829 -2.31644 0
M  V30 3646 C 346.308 0.978864 -1.39112 0
M  V30 3647 O 347.493 0.973644 -1.68029 0
M  V30 3648 C 344.623 1.36897 -3.19181 0
M  V30 3649 C 343.577 0.804833 -4.20365 0
M  V30 3650 C 342.903 1.9792 -4.96721 0
M  V30 3651 C 344.203 -0.192313 -5.21946 0
M  V30 3652 H 345.897 -0.387616 -2.9688 0
M  V30 3653 H 343.443 -0.187856 -1.42769 0
M  V30 3654 H 345.396 1.92037 -3.751 0
M  V30 3655 H 344.12 2.07936 -2.51853 0
M  V30 3656 H 342.779 0.275319 -3.65565 0
M  V30 3657 H 342.427 2.67686 -4.25856 0
M  V30 3658 H 342.127 1.60789 -5.65173 0
M  V30 3659 H 343.651 2.53526 -5.55479 0
M  V30 3660 H 345.065 0.270333 -5.72662 0
M  V30 3661 H 343.462 -0.478543 -5.98189 0
M  V30 3662 H 344.532 -1.11409 -4.71928 0
M  V30 3663 N 345.875 1.56104 -0.216619 0
M  V30 3664 C 346.807 2.17339 0.72776 0
M  V30 3665 C 347.82 1.14109 1.16116 0
M  V30 3666 O 349.009 1.4111 1.09317 0
M  V30 3667 C 346.109 2.73818 1.99693 0
M  V30 3668 C 345.282 4.02168 1.71988 0
M  V30 3669 C 344.341 4.43259 2.83562 0
M  V30 3670 O 343.367 5.10257 2.52244 0
M  V30 3671 N 344.569 4.08535 4.12407 0
M  V30 3672 H 347.334 2.99005 0.203983 0
M  V30 3673 H 344.895 1.61861 -0.0354289 0
M  V30 3674 H 346.887 2.9828 2.73516 0
M  V30 3675 H 345.457 1.96483 2.43132 0
M  V30 3676 H 344.677 3.85612 0.818337 0
M  V30 3677 H 345.965 4.85907 1.50903 0
M  V30 3678 H 345.363 3.54687 4.40696 0
M  V30 3679 H 343.92 4.37901 4.8279 0
M  V30 3680 N 347.353 -0.0568162 1.57498 0
M  V30 3681 C 348.769 -0.411933 1.54192 0
M  V30 3682 C 348.969 -1.78287 0.938942 0
M  V30 3683 O 348.025 -2.46483 0.547919 0
M  V30 3684 C 349.338 -0.339244 2.9878 0
M  V30 3685 C 350.886 -0.418348 3.10192 0
M  V30 3686 C 351.361 -0.375407 4.56459 0
M  V30 3687 N 352.852 -0.435038 4.61153 0
M  V30 3688 C 353.587 -0.424265 5.71828 0
M  V30 3689 N 353.083 -0.367418 6.91825 0
M  V30 3690 N 354.876 -0.471938 5.60115 0
M  V30 3691 H 347.027 0.840684 1.95055 0
M  V30 3692 H 349.29 0.316987 0.893433 0
M  V30 3693 H 348.996 0.601742 3.46514 0
M  V30 3694 H 348.87 -1.14371 3.59443 0
M  V30 3695 H 351.257 -1.34976 2.62422 0
M  V30 3696 H 351.338 0.414962 2.52412 0
M  V30 3697 H 350.982 0.552219 5.04889 0
M  V30 3698 H 350.912 -1.22645 5.12119 0
M  V30 3699 H 353.403 -0.482612 3.74806 0
M  V30 3700 H 353.716 -0.363535 7.71944 0
M  V30 3701 H 352.061 -0.333879 6.94198 0
M  V30 3702 H 355.252 -0.514145 4.65268 0
M  V30 3703 H 355.425 -0.460073 6.46365 0
M  V30 3704 N 348.832 -1.54138 -0.328536 0
M  V30 3705 C 349.78 -1.83894 -1.42428 0
M  V30 3706 C 350.774 -0.710478 -1.53781 0
M  V30 3707 O 351.98 -0.894062 -1.56226 0
M  V30 3708 H 348.355 -0.582837 -0.475189 0
M  V30 3709 H 350.326 -2.75537 -1.14552 0
M  V30 3710 C 349.075 -2.07866 -2.78724 0
M  V30 3711 H 348.398 -2.94158 -2.7076 0
M  V30 3712 H 349.838 -2.32644 -3.54476 0
M  V30 3713 C 348.297 -0.868689 -3.25508 0
M  V30 3714 O 348.827 -0.0754908 -4.01629 0
M  V30 3715 N 347.033 -0.681711 -2.82491 0
M  V30 3716 H 346.58 -1.32838 -2.20708 0
M  V30 3717 H 346.538 0.126374 -3.14146 0
M  V30 3718 N 350.31 0.590341 -1.46126 0
M  V30 3719 C 351.273 1.68194 -1.55703 0
M  V30 3720 C 352.273 1.54808 -0.434868 0
M  V30 3721 O 353.463 1.59564 -0.698928 0
M  V30 3722 C 350.595 3.07575 -1.47005 0
M  V30 3723 H 351.788 1.61064 -2.52979 0
M  V30 3724 H 349.341 0.807541 -1.33823 0
M  V30 3725 H 350.076 3.20268 -0.509785 0
M  V30 3726 H 349.861 3.187 -2.28414 0
M  V30 3727 H 351.351 3.87055 -1.56776 0
M  V30 3728 O 351.827 1.43831 0.734505 0
M  V30 3729 H 352.518 1.35486 1.38431 0
M  V30 END ATOM
M  V30 BEGIN BOND
M  V30 END BOND
M  V30 END CTAB
M  END
$$$$
