drugbank_target|P62750 60S ribosomal protein L23a (DB02494; DB07374; DB08437; DB11638)
 OpenBabel12092120423D

  0  0  0     0  0            999 V3000
M  V30 BEGIN CTAB
M  V30 COUNTS 2621 2644 0 0 0
M  V30 BEGIN ATOM
M  V30 1 H -0.908 1.98254 -0.117106 0
M  V30 2 N 0 1.576 0 0
M  V30 3 C 0.933 2.03868 1.02534 0
M  V30 4 C 1.911 0.928543 1.3348 0
M  V30 5 O 3.095 1.19667 1.45644 0
M  V30 6 C 0.222 2.43627 2.35294 0
M  V30 7 C -0.732 3.65373 2.2001 0
M  V30 8 S 0.101 5.13292 1.52614 0
M  V30 9 C 1.257 5.56322 2.86805 0
M  V30 10 H 1.49 2.90518 0.631377 0
M  V30 11 H -0.977 1.52953 0.210867 0
M  V30 12 H 0.981 2.67203 3.11629 0
M  V30 13 H -0.358 1.57376 2.7183 0
M  V30 14 H -1.165 3.90944 3.18086 0
M  V30 15 H -1.563 3.418 1.51819 0
M  V30 16 H 0.729 5.58782 3.83104 0
M  V30 17 H 1.672 6.56266 2.65933 0
M  V30 18 H 2.08 4.83886 2.90714 0
M  V30 19 N 1.4781 -0.272755 1.55222 0
M  V30 20 C 2.4411 -1.32041 1.87344 0
M  V30 21 C 3.4411 -1.42342 0.74803 0
M  V30 22 O 4.6311 -1.41488 1.0162 0
M  V30 23 C 1.7631 -2.70173 2.07893 0
M  V30 24 H 2.9561 -1.04789 2.80997 0
M  V30 25 H 0.5091 -0.51083 1.47717 0
M  V30 26 H 1.2441 -3.02605 1.16622 0
M  V30 27 H 1.0291 -2.64082 2.89833 0
M  V30 28 H 2.5191 -3.45869 2.34017 0
M  V30 29 N 2.9562 -1.48159 -0.537278 0
M  V30 30 C 4.3672 -1.49429 -1.11928 0
M  V30 31 C 4.7182 -0.26 -1.9447 0
M  V30 32 O 3.8432 0.633489 -2.0692 0
M  V30 33 C 4.4382 -2.70758 -2.03656 0
M  V30 34 C 2.9972 -2.74923 -2.57088 0
M  V30 35 C 2.1442 -2.42835 -1.3389 0
M  V30 36 H 5.0952 -1.55381 -0.322886 0
M  V30 37 H 5.1162 -2.48861 -2.87834 0
M  V30 38 H 4.6282 -3.60575 -1.43553 0
M  V30 39 H 2.7292 -1.89296 -3.20933 0
M  V30 40 H 2.8422 -3.76157 -2.9672 0
M  V30 41 H 1.2062 -1.93836 -1.65226 0
M  V30 42 H 1.9892 -3.34884 -0.755504 0
M  V30 43 N 4.4343 0.785586 -1.36625 0
M  V30 44 C 5.3813 1.89838 -1.31264 0
M  V30 45 C 6.3513 1.65115 -0.180633 0
M  V30 46 O 7.5363 1.87222 -0.36777 0
M  V30 47 C 4.6763 3.26706 -1.11163 0
M  V30 48 C 3.7893 3.63476 -2.33472 0
M  V30 49 C 2.9243 4.89481 -2.06353 0
M  V30 50 C 1.9633 5.18941 -3.24602 0
M  V30 51 N 1.1003 6.36131 -2.97123 0
M  V30 52 H 5.9403 1.93756 -2.26413 0
M  V30 53 H 3.4773 0.947454 -1.12524 0
M  V30 54 H 5.4353 4.05639 -0.975337 0
M  V30 55 H 4.0653 3.222 -0.196674 0
M  V30 56 H 3.1173 2.79636 -2.57891 0
M  V30 57 H 4.4293 3.81193 -3.21704 0
M  V30 58 H 3.5833 5.76288 -1.89675 0
M  V30 59 H 2.3223 4.73841 -1.15437 0
M  V30 60 H 1.3273 4.30615 -3.41834 0
M  V30 61 H 2.5523 5.36498 -4.16349 0
M  V30 62 H 0.4983 6.21875 -2.08823 0
M  V30 63 H 0.4153 6.54198 -3.78894 0
M  V30 64 H 1.6833 7.2591 -2.84033 0
M  V30 65 N 5.9124 1.20967 1.01018 0
M  V30 66 C 6.8754 0.965918 2.07853 0
M  V30 67 C 7.8754 -0.0610545 1.60684 0
M  V30 68 O 9.0654 0.175681 1.73312 0
M  V30 69 C 6.1974 0.455513 3.37843 0
M  V30 70 H 7.3904 1.91365 2.3091 0
M  V30 71 H 4.9434 1.02594 1.17916 0
M  V30 72 H 5.6784 -0.497381 3.20463 0
M  V30 73 H 5.4634 1.19622 3.73407 0
M  V30 74 H 6.9534 0.304667 4.16487 0
M  V30 75 N 7.3905 -1.2043 1.01659 0
M  V30 76 C 8.3375 -2.23215 0.586822 0
M  V30 77 C 9.3075 -1.61382 -0.393085 0
M  V30 78 O 10.4925 -1.88544 -0.292525 0
M  V30 79 C 7.6325 -3.45032 -0.0687464 0
M  V30 80 C 6.7455 -4.21296 0.955724 0
M  V30 81 C 5.8805 -5.30507 0.271208 0
M  V30 82 C 4.9195 -5.98515 1.28244 0
M  V30 83 N 4.0565 -6.99316 0.62459 0
M  V30 84 H 8.8965 -2.59336 1.46796 0
M  V30 85 H 6.4335 -1.27431 0.734836 0
M  V30 86 H 8.3915 -4.1459 -0.465965 0
M  V30 87 H 7.0215 -3.09604 -0.913529 0
M  V30 88 H 6.0735 -3.50803 1.4711 0
M  V30 89 H 7.3855 -4.6803 1.72479 0
M  V30 90 H 6.5395 -6.06428 -0.18151 0
M  V30 91 H 5.2785 -4.8481 -0.530163 0
M  V30 92 H 4.2835 -5.21355 1.74554 0
M  V30 93 H 5.5085 -6.46298 2.08509 0
M  V30 94 H 3.4545 -6.55812 -0.156914 0
M  V30 95 H 3.3715 -7.44178 1.33172 0
M  V30 96 H 4.6395 -7.79255 0.195462 0
M  V30 97 N 8.8686 -0.792821 -1.36206 0
M  V30 98 C 9.8156 -0.191653 -2.30003 0
M  V30 99 C 10.7856 0.666453 -1.52143 0
M  V30 100 O 11.9706 0.61442 -1.80636 0
M  V30 101 C 9.1106 0.664848 -3.38635 0
M  V30 102 C 8.2236 -0.212175 -4.31479 0
M  V30 103 C 7.3586 0.651022 -5.27196 0
M  V30 104 C 6.3976 -0.227247 -6.11678 0
M  V30 105 N 5.5346 0.595127 -6.99573 0
M  V30 106 H 10.3746 -0.996978 -2.80828 0
M  V30 107 H 7.9116 -0.503206 -1.38225 0
M  V30 108 H 9.8696 1.17645 -4.00269 0
M  V30 109 H 8.4996 1.43557 -2.89122 0
M  V30 110 H 7.5516 -0.841777 -3.70969 0
M  V30 111 H 8.8636 -0.888751 -4.90818 0
M  V30 112 H 8.0176 1.2283 -5.94136 0
M  V30 113 H 6.7566 1.36121 -4.68319 0
M  V30 114 H 5.7616 -0.816904 -5.43697 0
M  V30 115 H 6.9866 -0.93509 -6.72631 0
M  V30 116 H 4.9326 1.28955 -6.432 0
M  V30 117 H 4.8496 -0.0236952 -7.55996 0
M  V30 118 H 6.1176 1.15613 -7.70879 0
M  V30 119 N 10.3467 1.47872 -0.545128 0
M  V30 120 C 11.2567 2.33633 0.212746 0
M  V30 121 C 12.2727 1.4744 0.923983 0
M  V30 122 O 13.4487 1.80393 0.895572 0
M  V30 123 C 10.5137 3.23884 1.23693 0
M  V30 124 C 9.5747 4.25961 0.534417 0
M  V30 125 C 8.8077 5.11899 1.5098 0
M  V30 126 O 9.0307 5.00077 2.7437 0
M  V30 127 O 7.9647 5.92831 1.0409 0
M  V30 128 H 11.7907 2.99714 -0.490416 0
M  V30 129 H 9.3757 1.46235 -0.305871 0
M  V30 130 H 11.2577 3.79666 1.82843 0
M  V30 131 H 9.9327 2.60446 1.92222 0
M  V30 132 H 8.8397 3.73972 -0.0979679 0
M  V30 133 H 10.1727 4.92079 -0.109213 0
M  V30 134 N 11.8248 0.280983 1.55075 0
M  V30 135 C 12.7878 -0.590896 2.21452 0
M  V30 136 C 13.7878 -1.07682 1.19421 0
M  V30 137 O 14.9778 -0.97605 1.44288 0
M  V30 138 C 12.1098 -1.81587 2.88511 0
M  V30 139 H 13.3028 -0.0112554 2.99898 0
M  V30 140 H 10.8558 0.0316438 1.56268 0
M  V30 141 H 11.5908 -2.43587 2.14093 0
M  V30 142 H 11.3758 -1.4753 3.63287 0
M  V30 143 H 12.8658 -2.43575 3.39206 0
M  V30 144 N 13.3029 -1.57598 0.00835791 0
M  V30 145 C 14.7139 -1.7892 -0.53333 0
M  V30 146 C 15.0649 -0.916609 -1.73473 0
M  V30 147 O 14.1899 -0.121336 -2.1606 0
M  V30 148 C 14.7849 -3.24488 -0.974313 0
M  V30 149 C 13.3439 -3.46878 -1.46125 0
M  V30 150 C 12.4909 -2.74157 -0.416302 0
M  V30 151 H 15.4419 -1.56958 0.234495 0
M  V30 152 H 15.4629 -3.3306 -1.83988 0
M  V30 153 H 14.9749 -3.87972 -0.099718 0
M  V30 154 H 13.0759 -2.8862 -2.35646 0
M  V30 155 H 13.1889 -4.55572 -1.48295 0
M  V30 156 H 11.5529 -2.39022 -0.87981 0
M  V30 157 H 12.3359 -3.40345 0.44947 0
M  V30 158 N 14.781 0.264519 -1.55364 0
M  V30 159 C 15.744 1.31046 -1.88042 0
M  V30 160 C 16.744 1.41943 -0.755569 0
M  V30 161 O 17.934 1.40947 -1.02369 0
M  V30 162 C 15.066 2.69067 -2.09323 0
M  V30 163 H 16.259 1.03297 -2.81549 0
M  V30 164 H 13.812 0.502989 -1.47986 0
M  V30 165 H 14.547 3.01982 -1.18226 0
M  V30 166 H 14.332 2.62542 -2.91229 0
M  V30 167 H 15.822 3.44623 -2.35848 0
M  V30 168 N 16.2591 1.48442 0.529413 0
M  V30 169 C 17.6701 1.5002 1.11134 0
M  V30 170 C 18.0211 0.27031 1.94329 0
M  V30 171 O 17.1461 -0.622507 2.07253 0
M  V30 172 C 17.7411 2.71834 2.02217 0
M  V30 173 C 16.3001 2.76283 2.55627 0
M  V30 174 C 15.4471 2.43542 1.326 0
M  V30 175 H 18.3981 1.5555 0.314641 0
M  V30 176 H 18.4191 2.50384 2.8651 0
M  V30 177 H 17.9311 3.61331 1.41639 0
M  V30 178 H 16.0321 1.90995 3.19924 0
M  V30 179 H 16.1451 3.77725 2.94721 0
M  V30 180 H 14.5091 1.94709 1.64196 0
M  V30 181 H 15.2921 3.3528 0.737734 0
M  V30 182 N 17.7372 -0.778329 1.37039 0
M  V30 183 C 19.1482 -1.35421 1.28523 0
M  V30 184 C 19.4992 -1.96075 -0.0700901 0
M  V30 185 O 18.6242 -1.93352 -0.971801 0
M  V30 186 C 19.2192 -2.46211 2.32735 0
M  V30 187 C 17.7782 -2.99585 2.27873 0
M  V30 188 C 16.9252 -1.72748 2.16918 0
M  V30 189 H 19.8762 -0.5791 1.47757 0
M  V30 190 H 19.8972 -3.2552 1.9702 0
M  V30 191 H 19.4092 -2.02036 3.31365 0
M  V30 192 H 17.5102 -3.48152 1.32745 0
M  V30 193 H 17.6232 -3.55646 3.21018 0
M  V30 194 H 15.9872 -1.95416 1.63354 0
M  V30 195 H 16.7702 -1.30686 3.17452 0
M  V30 196 N 19.2153 -1.21501 -1.00376 0
M  V30 197 C 20.1623 -0.975387 -2.09177 0
M  V30 198 C 21.1323 0.0990615 -1.65804 0
M  V30 199 O 22.3173 -0.0483147 -1.90739 0
M  V30 200 C 19.4573 -0.547507 -3.40729 0
M  V30 201 C 18.5703 -1.69153 -3.97506 0
M  V30 202 C 17.7053 -1.2127 -5.17172 0
M  V30 203 C 16.7443 -2.32897 -5.66061 0
M  V30 204 N 15.8813 -1.86138 -6.76976 0
M  V30 205 H 20.7213 -1.9068 -2.29009 0
M  V30 206 H 18.2583 -0.950257 -1.12288 0
M  V30 207 H 20.2163 -0.280667 -4.16255 0
M  V30 208 H 18.8463 0.346904 -3.20931 0
M  V30 209 H 17.8983 -2.07298 -3.18954 0
M  V30 210 H 19.2103 -2.5316 -4.29781 0
M  V30 211 H 18.3643 -0.902591 -5.99948 0
M  V30 212 H 17.1033 -0.342692 -4.86495 0
M  V30 213 H 16.1083 -2.64709 -4.81881 0
M  V30 214 H 17.3333 -3.20396 -5.98768 0
M  V30 215 H 15.2793 -1.01484 -6.48103 0
M  V30 216 H 15.1963 -2.63717 -7.08512 0
M  V30 217 H 16.4643 -1.58165 -7.63285 0
M  V30 218 N 20.6934 1.19889 -1.02296 0
M  V30 219 C 21.6564 2.21116 -0.603351 0
M  V30 220 C 22.6564 1.5738 0.329884 0
M  V30 221 O 23.8464 1.73802 0.117702 0
M  V30 222 C 20.9784 3.40696 0.117992 0
M  V30 223 H 22.1714 2.59754 -1.49893 0
M  V30 224 H 19.7244 1.33463 -0.813468 0
M  V30 225 H 20.4594 3.07569 1.0282 0
M  V30 226 H 20.2444 3.88188 -0.552511 0
M  V30 227 H 21.7344 4.15692 0.398696 0
M  V30 228 N 22.1715 0.800033 1.35784 0
M  V30 229 C 23.0815 0.207204 2.33683 0
M  V30 230 C 24.0975 -0.64631 1.61551 0
M  V30 231 O 25.2735 -0.559604 1.93469 0
M  V30 232 C 22.3385 -0.639659 3.40748 0
M  V30 233 C 21.3995 0.233585 4.28664 0
M  V30 234 C 20.6325 -0.572954 5.30616 0
M  V30 235 O 20.8555 -1.80816 5.40982 0
M  V30 236 O 19.7895 0.0327285 6.01891 0
M  V30 237 H 23.6155 1.01692 2.86169 0
M  V30 238 H 21.2005 0.561691 1.38439 0
M  V30 239 H 23.0825 -1.12223 4.06182 0
M  V30 240 H 21.7575 -1.42708 2.90544 0
M  V30 241 H 20.6645 0.763147 3.66233 0
M  V30 242 H 21.9975 0.984784 4.82248 0
M  V30 243 N 23.6496 -1.47581 0.552962 0
M  V30 244 C 24.6126 -2.28439 -0.186605 0
M  V30 245 C 25.6126 -1.36706 -0.84665 0
M  V30 246 O 26.8026 -1.59378 -0.703164 0
M  V30 247 C 23.9346 -3.16264 -1.2724 0
M  V30 248 H 25.1276 -2.95294 0.523609 0
M  V30 249 H 22.6806 -1.532 0.309745 0
M  V30 250 H 23.4156 -2.54091 -2.01514 0
M  V30 251 H 23.2006 -3.83769 -0.803968 0
M  V30 252 H 24.6906 -3.77198 -1.79196 0
M  V30 253 N 25.1277 -0.289203 -1.54924 0
M  V30 254 C 26.0747 0.592115 -2.23075 0
M  V30 255 C 27.0447 1.13881 -1.20915 0
M  V30 256 O 28.2297 1.18551 -1.495 0
M  V30 257 C 25.3697 1.76376 -2.96623 0
M  V30 258 C 24.4827 1.24959 -4.13533 0
M  V30 259 C 23.6177 2.38416 -4.74691 0
M  V30 260 C 22.6567 1.84072 -5.83767 0
M  V30 261 N 21.7937 2.91057 -6.38929 0
M  V30 262 H 26.6337 0.00432038 -2.98 0
M  V30 263 H 24.1707 -0.00963529 -1.47097 0
M  V30 264 H 26.1287 2.45268 -3.3749 0
M  V30 265 H 24.7587 2.32337 -2.24097 0
M  V30 266 H 23.8107 0.453307 -3.77689 0
M  V30 267 H 25.1227 0.811662 -4.92152 0
M  V30 268 H 24.2767 3.15276 -5.18349 0
M  V30 269 H 23.0157 2.8553 -3.95378 0
M  V30 270 H 22.0207 1.05697 -5.39545 0
M  V30 271 H 23.2457 1.37877 -6.64956 0
M  V30 272 H 21.1917 3.37526 -5.62505 0
M  V30 273 H 21.1087 2.51724 -7.12861 0
M  V30 274 H 22.3767 3.6785 -6.87246 0
M  V30 275 N 26.6058 1.57591 -0.0167156 0
M  V30 276 C 27.5688 2.08393 0.954204 0
M  V30 277 C 28.5688 0.996531 1.26198 0
M  V30 278 O 29.7588 1.25858 1.20438 0
M  V30 279 C 26.8908 2.5394 2.27436 0
M  V30 280 H 28.0838 2.95455 0.514451 0
M  V30 281 H 25.6368 1.54582 0.231089 0
M  V30 282 H 26.3718 1.70171 2.76066 0
M  V30 283 H 26.1568 3.33371 2.06412 0
M  V30 284 H 27.6468 2.93512 2.97053 0
M  V30 285 N 28.0839 -0.256276 1.55502 0
M  V30 286 C 29.0309 -1.31714 1.89526 0
M  V30 287 C 30.0009 -1.4828 0.748479 0
M  V30 288 O 31.1859 -1.62416 1.00128 0
M  V30 289 C 28.3259 -2.66933 2.18725 0
M  V30 290 C 27.4389 -2.58452 3.4616 0
M  V30 291 C 26.5739 -3.85961 3.64976 0
M  V30 292 C 25.6129 -3.72059 4.86044 0
M  V30 293 N 24.7499 -4.9144 5.01429 0
M  V30 294 H 29.5899 -1.01998 2.80001 0
M  V30 295 H 27.1269 -0.492413 1.38613 0
M  V30 296 H 29.0849 -3.4563 2.33657 0
M  V30 297 H 27.7149 -2.94816 1.31466 0
M  V30 298 H 26.7669 -1.71374 3.3961 0
M  V30 299 H 28.0789 -2.44085 4.34999 0
M  V30 300 H 27.2329 -4.73101 3.79816 0
M  V30 301 H 25.9719 -4.03215 2.74353 0
M  V30 302 H 24.9769 -2.83302 4.7119 0
M  V30 303 H 26.2019 -3.56309 5.78118 0
M  V30 304 H 24.1479 -5.09072 4.13741 0
M  V30 305 H 24.0649 -4.79668 5.84341 0
M  V30 306 H 25.3329 -5.80104 5.20672 0
M  V30 307 N 29.562 -1.4872 -0.521534 0
M  V30 308 C 30.525 -1.63379 -1.60748 0
M  V30 309 C 31.525 -0.50661 -1.52611 0
M  V30 310 O 32.715 -0.772601 -1.5613 0
M  V30 311 C 29.847 -1.61192 -3.00383 0
M  V30 312 H 31.04 -2.60217 -1.49087 0
M  V30 313 H 28.593 -1.37444 -0.744235 0
M  V30 314 H 29.328 -0.65863 -3.17541 0
M  V30 315 H 29.113 -2.43032 -3.07698 0
M  V30 316 H 30.603 -1.7466 -3.7932 0
M  V30 317 N 31.0401 0.771051 -1.3745 0
M  V30 318 C 31.9701 1.89827 -1.3597 0
M  V30 319 C 32.9511 1.68562 -0.228216 0
M  V30 320 O 34.1361 1.8941 -0.428675 0
M  V30 321 C 31.2661 3.2712 -1.16662 0
M  V30 322 C 30.2201 3.6295 -2.2683 0
M  V30 323 C 29.5461 4.98791 -1.92644 0
M  V30 324 C 30.8461 3.69627 -3.69017 0
M  V30 325 H 32.5401 1.91323 -2.30295 0
M  V30 326 H 30.0861 0.919082 -1.10855 0
M  V30 327 H 32.0391 4.05615 -1.14256 0
M  V30 328 H 30.7631 3.26059 -0.187926 0
M  V30 329 H 29.4221 2.86763 -2.28392 0
M  V30 330 H 29.0701 4.94271 -0.933021 0
M  V30 331 H 28.7701 5.23733 -2.66416 0
M  V30 332 H 30.2941 5.79685 -1.91826 0
M  V30 333 H 31.7081 4.38273 -3.69581 0
M  V30 334 H 30.1051 4.06067 -4.41848 0
M  V30 335 H 31.1751 2.70273 -4.02592 0
M  V30 336 N 32.5182 1.22032 0.997298 0
M  V30 337 C 33.4652 0.986467 2.08656 0
M  V30 338 C 34.4352 -0.0902671 1.65855 0
M  V30 339 O 35.6202 0.0584294 1.90711 0
M  V30 340 C 32.7602 0.565569 3.40434 0
M  V30 341 C 31.8732 1.71259 3.96604 0
M  V30 342 C 31.0082 1.24011 5.16522 0
M  V30 343 C 30.0472 2.35896 5.64818 0
M  V30 344 N 29.1842 1.89726 6.7598 0
M  V30 345 H 34.0242 1.91892 2.27994 0
M  V30 346 H 31.5612 0.956199 1.11782 0
M  V30 347 H 33.5192 0.302738 4.161 0
M  V30 348 H 32.1492 -0.329879 3.2111 0
M  V30 349 H 31.2012 2.08986 3.17851 0
M  V30 350 H 32.5132 2.55436 4.28432 0
M  V30 351 H 31.6672 0.934395 5.99461 0
M  V30 352 H 30.4062 0.368487 4.86306 0
M  V30 353 H 29.4112 2.67261 4.8047 0
M  V30 354 H 30.6362 3.23567 5.97061 0
M  V30 355 H 28.5822 1.0492 6.47555 0
M  V30 356 H 28.4992 2.67471 7.07103 0
M  V30 357 H 29.7672 1.62211 7.62435 0
M  V30 358 N 33.9963 -1.19345 1.0293 0
M  V30 359 C 34.9593 -2.20793 0.615069 0
M  V30 360 C 35.9593 -1.57553 -0.321533 0
M  V30 361 O 37.1493 -1.73862 -0.108483 0
M  V30 362 C 34.2813 -3.40754 -0.0999222 0
M  V30 363 H 35.4743 -2.58955 1.51269 0
M  V30 364 H 33.0273 -1.3303 0.820534 0
M  V30 365 H 33.7623 -3.0811 -1.01187 0
M  V30 366 H 33.5473 -3.87889 0.57309 0
M  V30 367 H 35.0373 -4.15898 -0.376645 0
M  V30 368 N 35.4744 -0.807222 -1.35358 0
M  V30 369 C 36.4214 -0.216037 -2.29787 0
M  V30 370 C 37.3914 0.650278 -1.52842 0
M  V30 371 O 38.5764 0.595227 -1.81278 0
M  V30 372 C 35.7164 0.628893 -3.39321 0
M  V30 373 C 34.8294 -0.257927 -4.31229 0
M  V30 374 C 33.9644 0.595069 -5.27856 0
M  V30 375 C 33.0034 -0.292111 -6.11403 0
M  V30 376 N 32.1404 0.520895 -7.00165 0
M  V30 377 H 36.9804 -1.02671 -2.79755 0
M  V30 378 H 34.5174 -0.517839 -1.37684 0
M  V30 379 H 36.4754 1.13393 -4.01494 0
M  V30 380 H 35.1054 1.40482 -2.90628 0
M  V30 381 H 34.1574 -0.881076 -3.70056 0
M  V30 382 H 35.4694 -0.940759 -4.89848 0
M  V30 383 H 34.6234 1.16522 -5.95405 0
M  V30 384 H 33.3624 1.31146 -4.69736 0
M  V30 385 H 32.3674 -0.874525 -5.428 0
M  V30 386 H 33.5924 -1.00638 -6.71602 0
M  V30 387 H 31.5384 1.22125 -6.44532 0
M  V30 388 H 31.4554 -0.103877 -7.55929 0
M  V30 389 H 32.7234 1.0743 -7.72062 0
M  V30 390 N 36.9525 1.47285 -0.560781 0
M  V30 391 C 37.8995 2.30058 0.18491 0
M  V30 392 C 38.8695 1.39281 0.904986 0
M  V30 393 O 40.0545 1.68241 0.899979 0
M  V30 394 C 37.1945 3.23317 1.20666 0
M  V30 395 C 36.3075 4.29186 0.492285 0
M  V30 396 C 35.4425 5.09592 1.49964 0
M  V30 397 C 34.4815 6.07232 0.770439 0
M  V30 398 N 33.6185 6.80584 1.72479 0
M  V30 399 H 38.4585 2.93302 -0.527048 0
M  V30 400 H 35.9955 1.44568 -0.271738 0
M  V30 401 H 37.9535 3.75811 1.81168 0
M  V30 402 H 36.5835 2.61929 1.88661 0
M  V30 403 H 35.6355 3.7972 -0.227333 0
M  V30 404 H 36.9475 4.98738 -0.0787929 0
M  V30 405 H 36.1015 5.66254 2.17809 0
M  V30 406 H 34.8405 4.3995 2.10464 0
M  V30 407 H 33.8455 5.49745 0.0780846 0
M  V30 408 H 35.0705 6.78884 0.171134 0
M  V30 409 H 33.0165 6.1367 2.3183 0
M  V30 410 H 32.9335 7.46319 1.20596 0
M  V30 411 H 34.2015 7.41818 2.39428 0
M  V30 412 N 38.4306 0.297415 1.54768 0
M  V30 413 C 39.3936 -0.567375 2.22066 0
M  V30 414 C 40.3936 -1.06409 1.20556 0
M  V30 415 O 41.5836 -0.960691 1.45315 0
M  V30 416 C 38.7156 -1.78517 2.90421 0
M  V30 417 H 39.9086 0.0205534 2.99893 0
M  V30 418 H 37.4616 0.0482163 1.56226 0
M  V30 419 H 38.1966 -2.41303 2.16664 0
M  V30 420 H 37.9816 -1.43669 3.64831 0
M  V30 421 H 39.4716 -2.39964 3.41771 0
M  V30 422 N 39.9087 -1.5758 0.0250728 0
M  V30 423 C 41.1547 -1.91917 -0.655413 0
M  V30 424 C 41.4877 -0.901433 -1.72011 0
M  V30 425 O 40.7627 0.0764069 -1.9435 0
M  V30 426 C 41.0457 -3.36751 -1.27558 0
M  V30 427 C 40.8987 -4.49258 -0.220719 0
M  V30 428 C 42.2177 -3.81469 -2.19475 0
M  V30 429 H 39.3367 -0.697925 -0.23679 0
M  V30 430 H 41.9787 -1.89825 0.0815036 0
M  V30 431 H 40.1287 -3.38664 -1.90365 0
M  V30 432 H 41.8007 -4.59478 0.409601 0
M  V30 433 H 40.0437 -4.31415 0.454264 0
M  V30 434 H 40.7147 -5.47618 -0.694175 0
M  V30 435 H 43.1907 -3.81266 -1.66659 0
M  V30 436 H 42.0667 -4.83512 -2.59822 0
M  V30 437 H 42.3277 -3.16744 -3.08424 0
M  V30 438 N 41.3868 0.248026 -1.55636 0
M  V30 439 C 42.3168 1.31079 -1.93237 0
M  V30 440 C 43.2978 1.50264 -0.797174 0
M  V30 441 O 44.4828 1.62891 -1.05737 0
M  V30 442 C 41.6128 2.66575 -2.22609 0
M  V30 443 C 40.5668 2.62087 -3.3837 0
M  V30 444 C 39.8928 4.01369 -3.53281 0
M  V30 445 C 41.1928 2.19171 -4.7409 0
M  V30 446 H 42.8868 0.998556 -2.82257 0
M  V30 447 H 40.4328 0.47891 -1.35803 0
M  V30 448 H 42.3858 3.41057 -2.47503 0
M  V30 449 H 41.1098 2.99432 -1.30414 0
M  V30 450 H 39.7688 1.90063 -3.13483 0
M  V30 451 H 39.4168 4.31489 -2.58508 0
M  V30 452 H 39.1168 3.99254 -4.31127 0
M  V30 453 H 40.6408 4.77552 -3.80495 0
M  V30 454 H 42.0548 2.83384 -4.98363 0
M  V30 455 H 40.4518 2.2817 -5.5503 0
M  V30 456 H 41.5218 1.14336 -4.71227 0
M  V30 457 N 42.8649 1.48995 0.513639 0
M  V30 458 C 43.8119 1.6473 1.61656 0
M  V30 459 C 44.7819 0.488984 1.58739 0
M  V30 460 O 45.9669 0.714478 1.76918 0
M  V30 461 C 43.1069 1.7082 2.99858 0
M  V30 462 C 42.2199 2.9787 3.12885 0
M  V30 463 C 41.3549 2.95017 4.41744 0
M  V30 464 C 40.3939 4.16702 4.48359 0
M  V30 465 N 39.5309 4.11832 5.68629 0
M  V30 466 H 44.3709 2.58909 1.47547 0
M  V30 467 H 41.9079 1.28382 0.71808 0
M  V30 468 H 43.8659 1.72331 3.79944 0
M  V30 469 H 42.4959 0.801181 3.12699 0
M  V30 470 H 41.5479 3.06029 2.25944 0
M  V30 471 H 42.8599 3.8786 3.13633 0
M  V30 472 H 42.0139 2.95021 5.30139 0
M  V30 473 H 40.7529 2.02784 4.43542 0
M  V30 474 H 39.7579 4.16955 3.58369 0
M  V30 475 H 40.9829 5.10113 4.48287 0
M  V30 476 H 38.9289 3.22428 5.71293 0
M  V30 477 H 38.8459 4.95543 5.7094 0
M  V30 478 H 40.1139 4.1592 6.59266 0
M  V30 479 N 44.343 -0.763751 1.37857 0
M  V30 480 C 45.591 -1.51957 1.33243 0
M  V30 481 C 45.912 -1.94835 -0.0801709 0
M  V30 482 O 45.182 -1.66894 -1.02582 0
M  V30 483 H 43.762 -0.563626 0.49024 0
M  V30 484 H 46.424 -0.908504 1.7243 0
M  V30 485 H 45.52 -2.41523 1.97669 0
M  V30 486 N 45.8211 -1.22559 -0.990812 0
M  V30 487 C 47.0671 -1.05297 -1.73322 0
M  V30 488 C 47.4001 0.410655 -1.89808 0
M  V30 489 O 46.6751 1.30439 -1.44277 0
M  V30 490 C 46.9581 -1.76713 -3.13759 0
M  V30 491 C 46.8111 -3.30684 -3.04907 0
M  V30 492 C 48.1301 -1.52121 -4.12974 0
M  V30 493 H 45.2491 -0.38392 -0.629106 0
M  V30 494 H 47.8911 -1.50926 -1.15418 0
M  V30 495 H 46.0411 -1.37924 -3.63193 0
M  V30 496 H 47.7131 -3.7893 -2.63077 0
M  V30 497 H 45.9561 -3.60253 -2.41661 0
M  V30 498 H 46.6271 -3.75833 -4.04294 0
M  V30 499 H 49.1031 -1.85819 -3.72304 0
M  V30 500 H 47.9791 -2.04582 -5.0935 0
M  V30 501 H 48.2401 -0.454257 -4.3976 0
M  V30 502 N 47.2992 1.18797 -1.03562 0
M  V30 503 C 48.2492 2.20161 -0.592724 0
M  V30 504 C 49.2332 1.56772 0.362133 0
M  V30 505 O 50.4252 1.76062 0.182009 0
M  V30 506 C 47.5542 3.43266 0.0481024 0
M  V30 507 C 46.6402 4.13786 -0.9296 0
M  V30 508 N 47.0312 4.60388 -2.09467 0
M  V30 509 C 45.3292 4.39572 -0.754499 0
M  V30 510 C 46.0302 5.14619 -2.71187 0
M  V30 511 N 45.0062 5.05826 -1.991 0
M  V30 512 H 48.8082 2.53877 -1.48066 0
M  V30 513 H 46.3222 1.34946 -0.903514 0
M  V30 514 H 48.3192 4.15136 0.383058 0
M  V30 515 H 46.9792 3.11048 0.931636 0
M  V30 516 H 47.9902 4.54999 -2.47379 0
M  V30 517 H 44.6672 4.17425 0.0793713 0
M  V30 518 H 46.0572 5.60917 -3.69895 0
M  V30 519 N 48.7773 0.814389 1.34928 0
M  V30 520 C 50.0023 0.410097 2.03305 0
M  V30 521 C 50.4273 -0.973464 1.60951 0
M  V30 522 O 49.7853 -1.63185 0.789964 0
M  V30 523 C 49.8333 0.51049 3.56968 0
M  V30 524 O 48.9373 -0.473035 4.09678 0
M  V30 525 H 48.2783 0.170088 0.641846 0
M  V30 526 H 50.8083 1.10244 1.72358 0
M  V30 527 H 50.8183 0.383135 4.06197 0
M  V30 528 H 49.4933 1.51963 3.87144 0
M  V30 529 H 48.0703 -0.305272 3.71648 0
M  V30 530 N 50.2554 -1.46986 0.568584 0
M  V30 531 C 51.2054 -2.27179 -0.193339 0
M  V30 532 C 52.1894 -1.35035 -0.874895 0
M  V30 533 O 53.3814 -1.5931 -0.771322 0
M  V30 534 C 50.5104 -3.21063 -1.21546 0
M  V30 535 C 49.5964 -4.2069 -0.536738 0
M  V30 536 N 49.9874 -5.04218 0.399673 0
M  V30 537 C 48.2854 -4.38961 -0.789254 0
M  V30 538 C 48.9864 -5.76242 0.795017 0
M  V30 539 N 47.9624 -5.434 0.1473 0
M  V30 540 H 51.7644 -2.89146 0.526458 0
M  V30 541 H 49.2784 -1.57664 0.389342 0
M  V30 542 H 51.2754 -3.77209 -1.77536 0
M  V30 543 H 49.9354 -2.60654 -1.93623 0
M  V30 544 H 50.9464 -5.12077 0.774454 0
M  V30 545 H 47.6234 -3.89713 -1.49767 0
M  V30 546 H 49.0134 -6.53417 1.56513 0
M  V30 547 N 51.7335 -0.305618 -1.54608 0
M  V30 548 C 52.6805 0.568421 -2.23691 0
M  V30 549 C 53.6505 1.12592 -1.22116 0
M  V30 550 O 54.8355 1.16959 -1.50749 0
M  V30 551 C 51.9755 1.7322 -2.98477 0
M  V30 552 C 51.0885 1.20566 -4.14835 0
M  V30 553 C 50.2235 2.33368 -4.77193 0
M  V30 554 C 49.2625 1.7787 -5.85686 0
M  V30 555 N 48.3995 2.84263 -6.4198 0
M  V30 556 H 53.2395 -0.0272867 -2.97988 0
M  V30 557 H 50.7765 -0.0252363 -1.47078 0
M  V30 558 H 52.7345 2.41675 -3.40072 0
M  V30 559 H 51.3645 2.29947 -2.26548 0
M  V30 560 H 50.4165 0.413223 -3.78149 0
M  V30 561 H 51.7285 0.759417 -4.92985 0
M  V30 562 H 50.8825 3.09761 -5.21664 0
M  V30 563 H 49.6215 2.8132 -3.98385 0
M  V30 564 H 48.6265 0.99968 -5.40635 0
M  V30 565 H 49.8515 1.30816 -6.66381 0
M  V30 566 H 47.7975 3.31541 -5.66053 0
M  V30 567 H 47.7145 2.44149 -7.15491 0
M  V30 568 H 48.9825 3.6054 -6.91109 0
M  V30 569 N 53.2116 1.57565 -0.0334293 0
M  V30 570 C 54.1586 2.10478 0.946981 0
M  V30 571 C 55.1286 1.00787 1.32027 0
M  V30 572 O 56.3136 1.28232 1.41284 0
M  V30 573 C 53.4536 2.63994 2.22263 0
M  V30 574 C 52.5666 3.87709 1.90541 0
M  V30 575 C 51.7016 4.29604 3.12433 0
M  V30 576 C 50.7406 5.46065 2.76549 0
M  V30 577 N 49.8776 5.83096 3.9108 0
M  V30 578 H 54.7176 2.93963 0.488846 0
M  V30 579 H 52.2546 1.45296 0.22969 0
M  V30 580 H 54.2126 2.93114 2.96884 0
M  V30 581 H 52.8426 1.83333 2.65685 0
M  V30 582 H 51.8946 3.65291 1.06144 0
M  V30 583 H 53.2066 4.72403 1.60116 0
M  V30 584 H 52.3606 4.60182 3.9537 0
M  V30 585 H 51.0996 3.43685 3.46023 0
M  V30 586 H 50.1046 5.15176 1.92026 0
M  V30 587 H 51.3296 6.33685 2.44171 0
M  V30 588 H 49.2756 5.00132 4.24504 0
M  V30 589 H 49.1926 6.6244 3.64293 0
M  V30 590 H 50.4606 6.18282 4.74708 0
M  V30 591 N 54.6897 -0.239769 1.55765 0
M  V30 592 C 55.6367 -1.29696 1.90913 0
M  V30 593 C 56.6067 -1.47478 0.764164 0
M  V30 594 O 57.7917 -1.61345 1.01845 0
M  V30 595 C 54.9317 -2.64598 2.21544 0
M  V30 596 C 54.0447 -2.54765 3.48882 0
M  V30 597 C 53.1797 -3.82069 3.69049 0
M  V30 598 C 52.2187 -3.66883 4.89963 0
M  V30 599 N 51.3557 -4.86094 5.06614 0
M  V30 600 H 56.1957 -0.990224 2.81067 0
M  V30 601 H 53.7327 -0.477684 1.39128 0
M  V30 602 H 55.6907 -3.43132 2.3731 0
M  V30 603 H 54.3207 -2.93405 1.34585 0
M  V30 604 H 53.3727 -1.67763 3.41409 0
M  V30 605 H 54.6847 -2.39457 4.37563 0
M  V30 606 H 53.8387 -4.69046 3.84812 0
M  V30 607 H 52.5777 -4.00282 2.78614 0
M  V30 608 H 51.5827 -2.78289 4.74168 0
M  V30 609 H 52.8077 -3.50157 5.81865 0
M  V30 610 H 50.7537 -5.04655 4.19117 0
M  V30 611 H 50.6707 -4.73443 5.89396 0
M  V30 612 H 51.9387 -5.74549 5.26795 0
M  V30 613 N 56.1678 -1.49265 -0.50573 0
M  V30 614 C 57.1148 -1.65585 -1.6078 0
M  V30 615 C 58.0848 -0.497396 -1.58478 0
M  V30 616 O 59.2698 -0.72385 -1.76536 0
M  V30 617 C 56.4098 -1.72408 -2.98948 0
M  V30 618 C 55.5228 -2.99525 -3.11301 0
M  V30 619 C 54.6578 -2.97356 -4.40174 0
M  V30 620 C 53.6968 -4.19074 -4.46143 0
M  V30 621 N 52.8338 -4.14841 -5.66437 0
M  V30 622 H 57.6738 -2.59688 -1.46172 0
M  V30 623 H 55.2108 -1.28761 -0.711261 0
M  V30 624 H 57.1688 -1.74344 -3.79025 0
M  V30 625 H 55.7988 -0.817753 -3.1227 0
M  V30 626 H 54.8508 -3.07222 -2.24318 0
M  V30 627 H 56.1628 -3.89518 -3.11572 0
M  V30 628 H 55.3168 -2.97829 -5.28567 0
M  V30 629 H 54.0558 -2.05133 -4.42461 0
M  V30 630 H 53.0608 -4.1885 -3.56153 0
M  V30 631 H 54.2858 -5.12483 -4.45575 0
M  V30 632 H 52.2318 -3.25453 -5.69575 0
M  V30 633 H 52.1488 -4.98564 -5.68304 0
M  V30 634 H 53.4168 -4.1941 -6.57051 0
M  V30 635 N 57.6459 0.756429 -1.3826 0
M  V30 636 C 58.8949 1.51082 -1.3363 0
M  V30 637 C 59.2079 1.95467 0.0720068 0
M  V30 638 O 60.4139 2.7043 0.240834 0
M  V30 639 C 58.8699 2.72893 -2.34644 0
M  V30 640 C 58.4779 2.35544 -3.81081 0
M  V30 641 C 60.2219 3.50791 -2.39052 0
M  V30 642 C 58.1289 3.53948 -4.73787 0
M  V30 643 H 57.0589 0.56727 -0.49671 0
M  V30 644 H 59.7099 0.827147 -1.638 0
M  V30 645 H 58.0919 3.43227 -1.97513 0
M  V30 646 H 59.2659 1.72894 -4.27135 0
M  V30 647 H 57.5809 1.70786 -3.79764 0
M  V30 648 H 60.1779 4.38823 -3.05513 0
M  V30 649 H 60.5209 3.91745 -1.40861 0
M  V30 650 H 61.0539 2.87467 -2.74968 0
M  V30 651 H 57.7929 3.18064 -5.73163 0
M  V30 652 H 57.3129 4.15651 -4.32428 0
M  V30 653 H 58.9919 4.20566 -4.91663 0
M  V30 654 N 59.124 1.23083 0.984299 0
M  V30 655 C 60.54 0.992637 1.24975 0
M  V30 656 C 60.74 -0.308618 1.99123 0
M  V30 657 O 59.796 -1.02905 2.30579 0
M  V30 658 C 61.109 2.19698 2.05312 0
M  V30 659 C 62.657 2.24147 2.18465 0
M  V30 660 C 63.132 3.44157 3.02192 0
M  V30 661 N 64.623 3.44372 3.09777 0
M  V30 662 C 65.358 4.33886 3.74874 0
M  V30 663 N 64.854 5.3363 4.41827 0
M  V30 664 N 66.647 4.21639 3.71721 0
M  V30 665 H 58.798 2.06731 0.487453 0
M  V30 666 H 61.061 0.906339 0.277944 0
M  V30 667 H 60.767 3.1411 1.58201 0
M  V30 668 H 60.641 2.20465 3.06064 0
M  V30 669 H 63.028 1.30277 2.64786 0
M  V30 670 H 63.109 2.27415 1.17115 0
M  V30 671 H 62.753 4.38332 2.56568 0
M  V30 672 H 62.683 3.3813 4.03702 0
M  V30 673 H 65.174 2.72201 2.62135 0
M  V30 674 H 65.487 5.98196 4.89266 0
M  V30 675 H 63.832 5.37534 4.40548 0
M  V30 676 H 67.023 3.42962 3.18582 0
M  V30 677 H 67.196 4.91604 4.22173 0
M  V30 678 N 60.6021 -1.18246 1.0419 0
M  V30 679 C 61.8301 -1.92195 0.766072 0
M  V30 680 C 62.2451 -1.76247 -0.676933 0
M  V30 681 O 61.6021 -1.09293 -1.46155 0
M  V30 682 C 61.6531 -3.43568 1.12442 0
M  V30 683 O 61.3741 -3.59015 2.51078 0
M  V30 684 C 62.8751 -4.34613 0.873275 0
M  V30 685 H 60.0951 -0.610114 0.279288 0
M  V30 686 H 62.6391 -1.50007 1.38989 0
M  V30 687 H 60.7941 -3.8354 0.545542 0
M  V30 688 H 61.2081 -4.5273 2.64831 0
M  V30 689 H 62.6821 -5.39374 1.17385 0
M  V30 690 H 63.1591 -4.38781 -0.191909 0
M  V30 691 H 63.7651 -4.00341 1.43551 0
M  V30 692 N 62.0802 -0.821533 -1.34494 0
M  V30 693 C 63.3052 -0.420873 -2.03085 0
M  V30 694 C 63.7302 0.964915 -1.61465 0
M  V30 695 O 63.0882 1.62763 -0.798607 0
M  V30 696 C 63.1362 -0.529414 -3.56693 0
M  V30 697 O 62.2402 0.451302 -4.09923 0
M  V30 698 H 61.5812 -0.173489 -0.640935 0
M  V30 699 H 64.1112 -1.11157 -1.71771 0
M  V30 700 H 64.1212 -0.404671 -4.05988 0
M  V30 701 H 62.7962 -1.54014 -3.86332 0
M  V30 702 H 61.3732 0.285558 -3.71805 0
M  V30 703 N 63.5583 1.46682 -0.576371 0
M  V30 704 C 64.9693 1.86112 -0.148091 0
M  V30 705 C 65.3203 1.48073 1.2872 0
M  V30 706 O 64.4453 0.892656 1.97131 0
M  V30 707 C 65.0403 3.37786 -0.261982 0
M  V30 708 C 63.5993 3.76235 0.111384 0
M  V30 709 C 62.7463 2.70713 -0.60083 0
M  V30 710 H 65.6973 1.37927 -0.78497 0
M  V30 711 H 65.7183 3.77007 0.514364 0
M  V30 712 H 65.2303 3.6544 -1.30671 0
M  V30 713 H 63.3313 3.54198 1.15649 0
M  V30 714 H 63.4443 4.78391 -0.26052 0
M  V30 715 H 61.8083 2.54666 -0.0417783 0
M  V30 716 H 62.5913 3.01208 -1.64708 0
M  V30 717 N 65.0364 0.313813 1.54444 0
M  V30 718 C 66.2644 -0.293918 2.04802 0
M  V30 719 C 66.6794 -1.46537 1.19047 0
M  V30 720 O 66.0364 -1.81182 0.218939 0
M  V30 721 C 66.0874 -0.737806 3.53891 0
M  V30 722 O 65.8084 0.387038 4.36387 0
M  V30 723 C 67.3094 -1.40936 4.203 0
M  V30 724 H 64.5294 -0.0620057 0.668129 0
M  V30 725 H 67.0734 0.457169 1.99324 0
M  V30 726 H 65.2284 -1.43889 3.59687 0
M  V30 727 H 65.6424 0.0391274 5.24485 0
M  V30 728 H 67.1164 -1.67099 5.26101 0
M  V30 729 H 67.5934 -2.35355 3.70816 0
M  V30 730 H 68.1994 -0.751117 4.18615 0
M  V30 731 N 66.5145 -1.57545 0.0417849 0
M  V30 732 C 67.7615 -1.92317 -0.634082 0
M  V30 733 C 68.0895 -0.919334 -1.71402 0
M  V30 734 O 67.3445 0.0698253 -1.95575 0
M  V30 735 C 67.6435 -3.33794 -1.27735 0
M  V30 736 C 67.3095 -4.49716 -0.326543 0
M  V30 737 C 65.9715 -4.81156 -0.0648814 0
M  V30 738 C 68.3235 -5.20182 0.325623 0
M  V30 739 C 65.6515 -5.80414 0.856539 0
M  V30 740 C 68.0035 -6.20424 1.23518 0
M  V30 741 C 66.6675 -6.50298 1.5056 0
M  V30 742 H 65.9375 -0.703736 -0.232027 0
M  V30 743 H 68.5845 -1.91205 0.106259 0
M  V30 744 H 66.8895 -3.31228 -2.09274 0
M  V30 745 H 68.5865 -3.57975 -1.80707 0
M  V30 746 H 65.1765 -4.25176 -0.540665 0
M  V30 747 H 69.3605 -4.96112 0.136546 0
M  V30 748 H 64.6165 -6.019 1.07363 0
M  V30 749 H 68.7905 -6.74141 1.74664 0
M  V30 750 H 66.4175 -7.27025 2.22123 0
M  V30 751 N 67.9926 0.231505 -1.5589 0
M  V30 752 C 69.4086 0.580748 -1.48659 0
M  V30 753 C 69.6086 1.87617 -0.73498 0
M  V30 754 O 68.6646 2.51046 -0.270586 0
M  V30 755 C 69.9776 0.669202 -2.93159 0
M  V30 756 C 71.5256 0.760499 -3.03621 0
M  V30 757 C 72.0006 0.880383 -4.49459 0
M  V30 758 N 73.4916 0.944861 -4.53461 0
M  V30 759 C 74.2266 1.05716 -5.63571 0
M  V30 760 N 73.7226 1.13403 -6.83456 0
M  V30 761 N 75.5156 1.09152 -5.514 0
M  V30 762 H 67.6666 -0.618695 -2.03189 0
M  V30 763 H 69.9296 -0.215728 -0.923128 0
M  V30 764 H 69.6356 -0.212904 -3.51055 0
M  V30 765 H 69.5096 1.5361 -3.44505 0
M  V30 766 H 71.8966 1.63305 -2.45796 0
M  V30 767 H 71.9776 -0.131864 -2.5546 0
M  V30 768 H 71.6216 0.0123284 -5.07899 0
M  V30 769 H 71.5516 1.78802 -4.95316 0
M  V30 770 H 74.0426 0.896176 -3.6712 0
M  V30 771 H 74.3556 1.21921 -7.63122 0
M  V30 772 H 72.7006 1.10333 -6.86186 0
M  V30 773 H 75.8916 1.02805 -4.56671 0
M  V30 774 H 76.0646 1.17558 -6.37247 0
M  V30 775 N 69.4707 1.49531 0.497807 0
M  V30 776 C 70.8867 1.36365 0.829266 0
M  V30 777 C 71.0867 0.399184 1.97506 0
M  V30 778 O 70.1427 -0.167977 2.51941 0
M  V30 779 C 71.4557 2.77153 1.16647 0
M  V30 780 C 73.0037 2.85877 1.27449 0
M  V30 781 C 73.4787 4.2744 1.64497 0
M  V30 782 N 74.9697 4.30265 1.7154 0
M  V30 783 C 75.7047 5.3677 2.01656 0
M  V30 784 N 75.2007 6.53516 2.29976 0
M  V30 785 N 76.9937 5.24189 2.02934 0
M  V30 786 H 69.1447 2.10831 -0.257703 0
M  V30 787 H 71.4077 0.946534 -0.0527091 0
M  V30 788 H 71.1137 3.49442 0.397872 0
M  V30 789 H 70.9877 3.12722 2.10915 0
M  V30 790 H 73.3747 2.13824 2.0338 0
M  V30 791 H 73.4557 2.53887 0.312244 0
M  V30 792 H 73.0997 5.00021 0.891151 0
M  V30 793 H 73.0297 4.56896 2.61827 0
M  V30 794 H 75.5207 3.4607 1.51802 0
M  V30 795 H 75.8337 7.30506 2.52153 0
M  V30 796 H 74.1787 6.56737 2.27425 0
M  V30 797 H 77.3697 4.31988 1.80289 0
M  V30 798 H 77.5427 6.07286 2.26071 0
M  V30 799 N 70.9488 -0.749086 1.3866 0
M  V30 800 C 72.3598 -1.32664 1.31366 0
M  V30 801 C 72.7108 -1.96179 -0.028484 0
M  V30 802 O 71.8358 -1.9537 -0.93057 0
M  V30 803 C 72.4308 -2.41219 2.37905 0
M  V30 804 C 70.9898 -2.94684 2.34176 0
M  V30 805 C 70.1368 -1.68108 2.20533 0
M  V30 806 H 73.0878 -0.547628 1.48952 0
M  V30 807 H 73.1088 -3.21268 2.0388 0
M  V30 808 H 72.6208 -1.94962 3.35576 0
M  V30 809 H 70.7218 -3.45258 1.401 0
M  V30 810 H 70.8348 -3.48757 3.2849 0
M  V30 811 H 69.1988 -1.91907 1.67463 0
M  V30 812 H 69.9818 -1.23923 3.20153 0
M  V30 813 N 72.4269 -1.23603 -0.977757 0
M  V30 814 C 73.3739 -1.01954 -2.07061 0
M  V30 815 C 74.3439 0.0638697 -1.65977 0
M  V30 816 O 75.5289 -0.0887624 -1.90593 0
M  V30 817 C 72.6689 -0.619658 -3.39491 0
M  V30 818 C 71.7819 -1.77547 -3.93829 0
M  V30 819 C 70.9169 -1.32212 -5.14484 0
M  V30 820 C 69.9559 -2.44852 -5.60994 0
M  V30 821 N 69.0929 -2.00456 -6.72876 0
M  V30 822 H 73.9329 -1.95495 -2.24913 0
M  V30 823 H 71.4699 -0.973861 -1.10247 0
M  V30 824 H 73.4279 -0.368898 -4.15566 0
M  V30 825 H 72.0579 0.278752 -3.21594 0
M  V30 826 H 71.1099 -2.14016 -3.14486 0
M  V30 827 H 72.4219 -2.62219 -4.24314 0
M  V30 828 H 71.5759 -1.02965 -5.97899 0
M  V30 829 H 70.3149 -0.445808 -4.85658 0
M  V30 830 H 69.3199 -2.74871 -4.76157 0
M  V30 831 H 70.5449 -3.33024 -5.91837 0
M  V30 832 H 68.4909 -1.15208 -6.45804 0
M  V30 833 H 68.4079 -2.78687 -7.02759 0
M  V30 834 H 69.6759 -1.7432 -7.59758 0
M  V30 835 N 73.905 1.17692 -1.04816 0
M  V30 836 C 75.133 1.91786 -0.776254 0
M  V30 837 C 75.548 1.76604 0.667577 0
M  V30 838 O 74.905 1.10067 1.45573 0
M  V30 839 C 74.956 3.42967 -1.14263 0
M  V30 840 O 74.677 3.57678 -2.52978 0
M  V30 841 C 76.178 4.34144 -0.896311 0
M  V30 842 H 73.398 0.608624 -0.282519 0
M  V30 843 H 75.942 1.49268 -1.39783 0
M  V30 844 H 74.097 3.83245 -0.565874 0
M  V30 845 H 74.511 4.51319 -2.67229 0
M  V30 846 H 75.985 5.38744 -1.20244 0
M  V30 847 H 76.462 4.38876 0.168636 0
M  V30 848 H 77.068 3.99574 -1.45672 0
M  V30 849 N 75.3831 0.828654 1.34056 0
M  V30 850 C 76.3131 0.269443 2.3194 0
M  V30 851 C 77.2941 -0.617247 1.58506 0
M  V30 852 O 78.4791 -0.542931 1.86456 0
M  V30 853 C 75.6091 -0.564793 3.42677 0
M  V30 854 C 74.5631 0.225241 4.27407 0
M  V30 855 C 73.8891 -0.7321 5.29664 0
M  V30 856 C 75.1891 1.43663 5.02154 0
M  V30 857 H 76.8831 1.08728 2.7896 0
M  V30 858 H 74.4291 0.524283 1.34117 0
M  V30 859 H 76.3821 -0.966233 4.10173 0
M  V30 860 H 75.1061 -1.41574 2.9432 0
M  V30 861 H 73.7651 0.608117 3.61521 0
M  V30 862 H 73.4131 -1.57916 4.77568 0
M  V30 863 H 73.1131 -0.20767 5.87233 0
M  V30 864 H 74.6371 -1.13128 6.00029 0
M  V30 865 H 76.0511 1.1089 5.62473 0
M  V30 866 H 74.4481 1.89711 5.69324 0
M  V30 867 H 75.5181 2.21181 4.31517 0
M  V30 868 N 76.8612 -1.46375 0.584142 0
M  V30 869 C 78.2772 -1.57694 0.245929 0
M  V30 870 C 78.4772 -1.57903 -1.25175 0
M  V30 871 O 77.5332 -1.49676 -2.03355 0
M  V30 872 C 78.8462 -2.87028 0.896402 0
M  V30 873 C 80.3942 -3.00662 0.870127 0
M  V30 874 C 80.8692 -4.32734 1.50017 0
M  V30 875 N 82.3602 -4.39436 1.46458 0
M  V30 876 C 83.0952 -5.40248 1.92144 0
M  V30 877 N 82.5912 -6.47726 2.4581 0
M  V30 878 N 84.3842 -5.31459 1.83052 0
M  V30 879 H 76.5352 -1.44483 1.55687 0
M  V30 880 H 78.7982 -0.689291 0.650831 0
M  V30 881 H 78.5042 -2.9269 1.95002 0
M  V30 882 H 78.3782 -3.75014 0.405486 0
M  V30 883 H 80.7652 -2.94581 -0.174871 0
M  V30 884 H 80.8462 -2.14148 1.39908 0
M  V30 885 H 80.4902 -4.39573 2.54437 0
M  V30 886 H 80.4202 -5.18025 0.946432 0
M  V30 887 H 82.9112 -3.62367 1.07231 0
M  V30 888 H 83.2242 -7.20863 2.78525 0
M  V30 889 H 81.5692 -6.48542 2.49836 0
M  V30 890 H 84.7602 -4.46396 1.40883 0
M  V30 891 H 84.9332 -6.09881 2.18973 0
M  V30 892 N 78.3393 -0.321999 -1.54275 0
M  V30 893 C 79.2693 0.537411 -2.27231 0
M  V30 894 C 80.2503 1.12064 -1.27968 0
M  V30 895 O 81.4353 1.14606 -1.56777 0
M  V30 896 C 78.5653 1.69919 -3.02894 0
M  V30 897 C 77.5193 1.24534 -4.09482 0
M  V30 898 C 76.8453 2.49394 -4.72977 0
M  V30 899 C 78.1453 0.361335 -5.21049 0
M  V30 900 H 79.8393 -0.0711406 -2.99315 0
M  V30 901 H 77.3853 -0.0356555 -1.43956 0
M  V30 902 H 79.3383 2.30668 -3.52662 0
M  V30 903 H 78.0623 2.33431 -2.28424 0
M  V30 904 H 76.7213 0.660782 -3.60596 0
M  V30 905 H 76.3693 3.11265 -3.95124 0
M  V30 906 H 76.0693 2.19718 -5.44975 0
M  V30 907 H 77.5933 3.10908 -5.25517 0
M  V30 908 H 79.0073 0.875072 -5.66582 0
M  V30 909 H 77.4043 0.157428 -5.99893 0
M  V30 910 H 78.4743 -0.60822 -4.8107 0
M  V30 911 N 79.8174 1.5752 -0.0501392 0
M  V30 912 C 81.2334 1.56631 0.306402 0
M  V30 913 C 81.4334 1.0577 1.71508 0
M  V30 914 O 80.4894 0.713837 2.422 0
M  V30 915 C 81.8024 3.00393 0.135811 0
M  V30 916 C 83.3504 3.12315 0.206993 0
M  V30 917 C 83.8254 4.57954 0.064944 0
M  V30 918 N 85.3164 4.63041 0.121254 0
M  V30 919 C 86.0514 5.73389 0.0354381 0
M  V30 920 N 85.5474 6.92724 -0.102666 0
M  V30 921 N 87.3404 5.62026 0.090946 0
M  V30 922 H 79.4914 1.88903 -0.971046 0
M  V30 923 H 81.7544 0.869876 -0.376855 0
M  V30 924 H 81.4604 3.41635 -0.835384 0
M  V30 925 H 81.3344 3.66373 0.897275 0
M  V30 926 H 83.7214 2.70973 1.16866 0
M  V30 927 H 83.8024 2.49016 -0.585208 0
M  V30 928 H 83.4464 4.99981 -0.893394 0
M  V30 929 H 83.3764 5.19258 0.876277 0
M  V30 930 H 85.8674 3.77216 0.227284 0
M  V30 931 H 86.1804 7.72633 -0.160882 0
M  V30 932 H 84.5254 6.94864 -0.137737 0
M  V30 933 H 87.7164 4.67684 0.197388 0
M  V30 934 H 87.8894 6.47997 0.0206089 0
M  V30 935 N 81.2955 -0.223234 1.56011 0
M  V30 936 C 82.7115 -0.572856 1.48965 0
M  V30 937 C 82.9115 -1.87225 0.74492 0
M  V30 938 O 81.9675 -2.50899 0.283896 0
M  V30 939 C 83.2805 -0.653646 2.9351 0
M  V30 940 C 84.8285 -0.744386 3.0402 0
M  V30 941 C 85.3035 -0.856535 4.49919 0
M  V30 942 N 86.7945 -0.9208 4.53955 0
M  V30 943 C 87.5295 -1.02726 5.64123 0
M  V30 944 N 87.0255 -1.09777 6.84047 0
M  V30 945 N 88.8185 -1.06226 5.51971 0
M  V30 946 H 80.9695 0.629462 2.02858 0
M  V30 947 H 83.2325 0.220621 0.921971 0
M  V30 948 H 82.9385 0.231518 3.50937 0
M  V30 949 H 82.8125 -1.51781 3.45315 0
M  V30 950 H 85.1995 -1.61999 2.46658 0
M  V30 951 H 85.2805 0.14541 2.55386 0
M  V30 952 H 84.9245 0.0146069 5.07898 0
M  V30 953 H 84.8545 -1.76172 4.96257 0
M  V30 954 H 87.3455 -0.876694 3.6759 0
M  V30 955 H 87.6585 -1.17872 7.63758 0
M  V30 956 H 86.0035 -1.06693 6.86762 0
M  V30 957 H 89.1945 -1.00382 4.5721 0
M  V30 958 H 89.3675 -1.14177 6.37862 0
M  V30 959 N 82.7736 -1.49793 -0.48987 0
M  V30 960 C 83.7056 -1.63413 -1.60713 0
M  V30 961 C 84.7186 -0.516329 -1.54395 0
M  V30 962 O 85.9076 -0.788812 -1.60125 0
M  V30 963 C 83.0076 -1.58516 -2.99543 0
M  V30 964 C 82.1806 -2.86016 -3.30928 0
M  V30 965 C 81.2396 -2.74018 -4.49222 0
M  V30 966 O 80.2656 -3.47964 -4.50455 0
M  V30 967 N 81.4676 -1.86309 -5.4979 0
M  V30 968 H 84.2326 -2.59777 -1.49452 0
M  V30 969 H 81.7936 -1.47022 -0.677955 0
M  V30 970 H 83.7856 -1.48128 -3.76617 0
M  V30 971 H 82.3556 -0.69965 -3.0467 0
M  V30 972 H 81.5756 -3.10672 -2.42645 0
M  V30 973 H 82.8636 -3.70521 -3.487 0
M  V30 974 H 82.2616 -1.2551 -5.51601 0
M  V30 975 H 80.8186 -1.81837 -6.25922 0
M  V30 976 N 84.2517 0.741722 -1.39055 0
M  V30 977 C 85.6627 1.31966 -1.32068 0
M  V30 978 C 86.0137 1.96192 0.0180797 0
M  V30 979 O 85.1387 1.95861 0.920196 0
M  V30 980 C 85.7337 2.39954 -2.39181 0
M  V30 981 C 84.2927 2.93438 -2.35735 0
M  V30 982 C 83.4397 1.66936 -2.21422 0
M  V30 983 H 86.3907 0.539721 -1.4924 0
M  V30 984 H 86.4117 3.20182 -2.05581 0
M  V30 985 H 85.9237 1.9318 -3.36605 0
M  V30 986 H 84.0247 3.4451 -1.41929 0
M  V30 987 H 84.1377 3.4701 -3.30335 0
M  V30 988 H 82.5017 1.91016 -1.68478 0
M  V30 989 H 83.2847 1.22224 -3.20806 0
M  V30 990 N 85.7298 1.2412 0.971189 0
M  V30 991 C 86.6768 1.0305 2.06517 0
M  V30 992 C 87.6468 -0.0550666 1.66009 0
M  V30 993 O 88.8318 0.0988688 1.90544 0
M  V30 994 C 85.9718 0.637653 3.39158 0
M  V30 995 C 85.0848 1.79633 3.92882 0
M  V30 996 C 84.2198 1.34939 5.13775 0
M  V30 997 C 83.2588 2.47823 5.59687 0
M  V30 998 N 82.3958 2.04022 6.71803 0
M  V30 999 H 87.2358 1.96685 2.23873 0
M  V30 1000 H 84.7728 0.979694 1.09729 0
M  V30 1001 H 86.7308 0.390931 4.15364 0
M  V30 1002 H 85.3608 -0.261693 3.21737 0
M  V30 1003 H 84.4128 2.15681 3.13346 0
M  V30 1004 H 85.7248 2.64466 4.22918 0
M  V30 1005 H 84.8788 1.06134 5.97345 0
M  V30 1006 H 83.6178 0.471557 4.85415 0
M  V30 1007 H 82.6228 2.77392 4.74693 0
M  V30 1008 H 83.8478 3.36158 5.90063 0
M  V30 1009 H 81.7938 1.18632 6.45184 0
M  V30 1010 H 81.7108 2.82409 7.01271 0
M  V30 1011 H 82.9788 1.78347 7.58823 0
M  V30 1012 N 87.2079 -1.17134 1.05439 0
M  V30 1013 C 88.4379 -1.91094 0.785274 0
M  V30 1014 C 88.8459 -1.77198 -0.663142 0
M  V30 1015 O 88.1889 -1.10835 -1.46497 0
M  V30 1016 C 88.2509 -3.42594 1.08949 0
M  V30 1017 C 87.9149 -3.80274 2.53458 0
M  V30 1018 C 88.9119 -3.82912 3.51673 0
M  V30 1019 C 86.5969 -4.11162 2.88532 0
M  V30 1020 C 88.5909 -4.15913 4.83006 0
M  V30 1021 C 86.2779 -4.43831 4.20068 0
M  V30 1022 C 87.2759 -4.46185 5.17115 0
M  V30 1023 O 86.9639 -4.78083 6.46291 0
M  V30 1024 H 86.6959 -0.613073 0.284811 0
M  V30 1025 H 89.2499 -1.49461 1.40893 0
M  V30 1026 H 87.4799 -3.84534 0.408741 0
M  V30 1027 H 89.1689 -3.97817 0.805991 0
M  V30 1028 H 89.9349 -3.5917 3.25917 0
M  V30 1029 H 85.8139 -4.085 2.13656 0
M  V30 1030 H 89.3579 -4.17665 5.5875 0
M  V30 1031 H 85.2549 -4.67037 4.45586 0
M  V30 1032 H 86.0229 -4.9593 6.51149 0
M  V30 1033 N 88.686 -0.835752 -1.33615 0
M  V30 1034 C 90.097 -0.487099 -1.80234 0
M  V30 1035 C 90.448 0.993627 -1.69179 0
M  V30 1036 O 89.573 1.77403 -1.23924 0
M  V30 1037 C 90.168 -0.877385 -3.27242 0
M  V30 1038 C 88.727 -0.580915 -3.7189 0
M  V30 1039 C 87.874 -1.0874 -2.5509 0
M  V30 1040 H 90.825 -1.02474 -1.2118 0
M  V30 1041 H 90.846 -0.186195 -3.80044 0
M  V30 1042 H 90.358 -1.95512 -3.35256 0
M  V30 1043 H 88.459 0.486881 -3.69405 0
M  V30 1044 H 88.572 -1.13396 -4.65487 0
M  V30 1045 H 86.936 -0.508392 -2.49575 0
M  V30 1046 H 87.719 -2.17184 -2.65868 0
M  V30 1047 N 90.1641 1.46063 -0.591896 0
M  V30 1048 C 91.5801 1.57561 -0.254288 0
M  V30 1049 C 91.7801 1.58565 1.24336 0
M  V30 1050 O 90.8361 1.50753 2.02558 0
M  V30 1051 C 92.1491 2.86549 -0.911611 0
M  V30 1052 C 93.6971 3.00197 -0.886059 0
M  V30 1053 C 94.1721 4.31933 -1.5231 0
M  V30 1054 N 95.6631 4.38654 -1.48786 0
M  V30 1055 C 96.3981 5.39222 -1.95006 0
M  V30 1056 N 95.8941 6.46414 -2.49241 0
M  V30 1057 N 97.6871 5.3048 -1.85868 0
M  V30 1058 H 89.8381 1.43655 -1.56451 0
M  V30 1059 H 92.1011 0.68583 -0.654478 0
M  V30 1060 H 91.8071 2.91651 -1.96551 0
M  V30 1061 H 91.6811 3.74794 -0.425368 0
M  V30 1062 H 94.0681 2.9467 0.159246 0
M  V30 1063 H 94.1491 2.13403 -1.41041 0
M  V30 1064 H 93.7931 4.38217 -2.56765 0
M  V30 1065 H 93.7231 5.17516 -0.973891 0
M  V30 1066 H 96.2141 3.61793 -1.09151 0
M  V30 1067 H 96.5271 7.19376 -2.82344 0
M  V30 1068 H 94.8721 6.47208 -2.53272 0
M  V30 1069 H 98.0631 4.45643 -1.43248 0
M  V30 1070 H 98.2361 6.08711 -2.22204 0
M  V30 1071 N 91.6422 0.330177 1.54103 0
M  V30 1072 C 92.5892 -0.532762 2.24567 0
M  V30 1073 C 93.5592 -1.10635 1.23892 0
M  V30 1074 O 94.7442 -1.14546 1.5259 0
M  V30 1075 C 91.8842 -1.6845 3.01195 0
M  V30 1076 C 90.9972 -1.13951 4.167 0
M  V30 1077 C 90.1322 -2.25746 4.80845 0
M  V30 1078 C 89.1712 -1.6853 5.88442 0
M  V30 1079 N 88.3082 -2.74014 6.46421 0
M  V30 1080 H 93.1482 0.0746905 2.97906 0
M  V30 1081 H 90.6852 0.048632 1.4702 0
M  V30 1082 H 92.6432 -2.36234 3.43874 0
M  V30 1083 H 91.2732 -2.26314 2.30178 0
M  V30 1084 H 90.3252 -0.35301 3.78758 0
M  V30 1085 H 91.6372 -0.680892 4.94131 0
M  V30 1086 H 90.7912 -3.01422 5.26526 0
M  V30 1087 H 89.5302 -2.74947 4.0281 0
M  V30 1088 H 88.5352 -0.913543 5.42157 0
M  V30 1089 H 89.7602 -1.20198 6.68378 0
M  V30 1090 H 87.7062 -3.22494 5.71256 0
M  V30 1091 H 87.6232 -2.32735 7.19285 0
M  V30 1092 H 88.8912 -3.49499 6.96757 0
M  V30 1093 N 93.1203 -1.57491 0.0584922 0
M  V30 1094 C 94.3453 -1.97711 -0.62652 0
M  V30 1095 C 94.7703 -0.936132 -1.63151 0
M  V30 1096 O 94.1283 0.099811 -1.81025 0
M  V30 1097 C 94.1763 -3.36989 -1.28338 0
M  V30 1098 O 93.2803 -3.35433 -2.39913 0
M  V30 1099 H 92.6213 -0.643868 -0.162266 0
M  V30 1100 H 95.1513 -2.04193 0.129064 0
M  V30 1101 H 95.1613 -3.73879 -1.63335 0
M  V30 1102 H 93.8363 -4.12289 -0.546889 0
M  V30 1103 H 92.4133 -3.10298 -2.06809 0
M  V30 1104 N 94.5984 0.214957 -1.56127 0
M  V30 1105 C 95.5614 1.24997 -1.92116 0
M  V30 1106 C 96.5614 1.39467 -0.800344 0
M  V30 1107 O 97.7514 1.37619 -1.06802 0
M  V30 1108 C 94.8834 2.62271 -2.17777 0
M  V30 1109 H 96.0764 0.942875 -2.84693 0
M  V30 1110 H 93.6294 0.455654 -1.49511 0
M  V30 1111 H 94.3644 2.98068 -1.27773 0
M  V30 1112 H 94.1494 2.53143 -2.99434 0
M  V30 1113 H 95.6394 3.36946 -2.46693 0
M  V30 1114 N 96.0765 1.50051 0.48192 0
M  V30 1115 C 97.4875 1.5348 1.06305 0
M  V30 1116 C 97.8385 0.331997 1.93371 0
M  V30 1117 O 96.9635 -0.556256 2.09129 0
M  V30 1118 C 97.5585 2.7813 1.93466 0
M  V30 1119 C 96.1175 2.84275 2.46707 0
M  V30 1120 C 95.2645 2.47637 1.24785 0
M  V30 1121 H 98.2155 1.56472 0.264995 0
M  V30 1122 H 98.2365 2.59372 2.78399 0
M  V30 1123 H 97.7485 3.65654 1.30072 0
M  V30 1124 H 95.8495 2.01077 3.13686 0
M  V30 1125 H 95.9625 3.8691 2.82555 0
M  V30 1126 H 94.3265 1.99835 1.57918 0
M  V30 1127 H 95.1095 3.37457 0.630694 0
M  V30 1128 N 97.5546 -0.734337 1.39446 0
M  V30 1129 C 98.9706 -1.03997 1.21065 0
M  V30 1130 C 99.1706 -2.01369 0.0727019 0
M  V30 1131 O 98.2266 -2.45856 -0.575426 0
M  V30 1132 C 99.5396 -1.60163 2.54496 0
M  V30 1133 C 101.088 -1.7224 2.61347 0
M  V30 1134 C 101.563 -2.31814 3.95002 0
M  V30 1135 N 103.054 -2.39223 3.96644 0
M  V30 1136 C 103.789 -2.86258 4.96834 0
M  V30 1137 N 103.285 -3.33184 6.07421 0
M  V30 1138 N 105.078 -2.85473 4.84213 0
M  V30 1139 H 97.2286 -0.0885624 2.12215 0
M  V30 1140 H 99.4916 -0.10191 0.942506 0
M  V30 1141 H 99.1976 -0.960811 3.38321 0
M  V30 1142 H 99.0716 -2.5896 2.74262 0
M  V30 1143 H 101.459 -2.35443 1.77906 0
M  V30 1144 H 101.54 -0.720939 2.4543 0
M  V30 1145 H 101.184 -1.69238 4.78875 0
M  V30 1146 H 101.114 -3.32638 4.08239 0
M  V30 1147 H 103.605 -2.06057 3.16779 0
M  V30 1148 H 103.918 -3.67586 6.7978 0
M  V30 1149 H 102.263 -3.31191 6.11013 0
M  V30 1150 H 105.454 -2.48136 3.96921 0
M  V30 1151 H 105.627 -3.21814 5.62441 0
M  V30 1152 N 99.0327 -1.24633 -0.964593 0
M  V30 1153 C 100.449 -1.01239 -1.2338 0
M  V30 1154 C 100.649 0.2769 -1.99588 0
M  V30 1155 O 99.7047 0.992241 -2.32187 0
M  V30 1156 C 101.018 -2.22937 -2.01791 0
M  V30 1157 C 102.566 -2.27594 -2.14872 0
M  V30 1158 C 103.041 -3.48921 -2.96678 0
M  V30 1159 N 104.532 -3.49257 -3.04259 0
M  V30 1160 C 105.267 -4.39795 -3.67924 0
M  V30 1161 N 104.763 -5.40591 -4.33281 0
M  V30 1162 N 106.556 -4.275 -3.64966 0
M  V30 1163 H 98.7067 -2.0748 -0.454502 0
M  V30 1164 H 100.97 -0.910647 -0.26349 0
M  V30 1165 H 100.676 -3.16587 -1.53184 0
M  V30 1166 H 100.55 -2.25306 -3.02518 0
M  V30 1167 H 102.937 -1.34473 -2.6268 0
M  V30 1168 H 103.018 -2.2925 -1.13482 0
M  V30 1169 H 102.662 -4.42359 -2.49562 0
M  V30 1170 H 102.592 -3.4451 -3.98272 0
M  V30 1171 H 105.083 -2.76337 -2.57771 0
M  V30 1172 H 105.396 -6.05904 -4.79687 0
M  V30 1173 H 103.741 -5.44475 -4.3194 0
M  V30 1174 H 106.932 -3.47987 -3.13086 0
M  V30 1175 H 107.105 -4.98258 -4.14298 0
M  V30 1176 N 100.511 1.16574 -1.06058 0
M  V30 1177 C 101.459 2.22941 -0.663343 0
M  V30 1178 C 102.453 1.66358 0.319593 0
M  V30 1179 O 103.659 1.7905 0.184713 0
M  V30 1180 H 100.034 0.725907 -0.196376 0
M  V30 1181 H 102.005 2.53736 -1.57037 0
M  V30 1182 C 100.754 3.47642 -0.0632808 0
M  V30 1183 H 100.077 3.91493 -0.810733 0
M  V30 1184 H 101.517 4.2363 0.177177 0
M  V30 1185 C 99.9758 3.1509 1.19248 0
M  V30 1186 O 100.506 3.30673 2.28075 0
M  V30 1187 N 98.7118 2.6924 1.09353 0
M  V30 1188 H 98.2588 2.5676 0.207912 0
M  V30 1189 H 98.2168 2.47833 1.93458 0
M  V30 1190 N 101.989 0.842826 1.3317 0
M  V30 1191 C 102.936 0.276885 2.29133 0
M  V30 1192 C 103.906 -0.609527 1.54512 0
M  V30 1193 O 105.091 -0.546955 1.82792 0
M  V30 1194 C 102.231 -0.538707 3.40869 0
M  V30 1195 C 101.344 0.372169 4.30394 0
M  V30 1196 C 100.479 -0.454908 5.29249 0
M  V30 1197 C 99.5179 0.45411 6.10413 0
M  V30 1198 N 98.6549 -0.335075 7.013 0
M  V30 1199 H 103.495 1.10052 2.76934 0
M  V30 1200 H 101.032 0.554161 1.36262 0
M  V30 1201 H 102.99 -1.02709 4.0436 0
M  V30 1202 H 101.62 -1.32727 2.9425 0
M  V30 1203 H 100.672 0.97888 3.6759 0
M  V30 1204 H 101.984 1.0703 4.87182 0
M  V30 1205 H 101.138 -1.00695 5.98285 0
M  V30 1206 H 99.8769 -1.18646 4.73048 0
M  V30 1207 H 98.8819 1.01813 5.40291 0
M  V30 1208 H 100.107 1.18409 6.68697 0
M  V30 1209 H 98.0529 -1.04994 6.47543 0
M  V30 1210 H 97.9699 0.304262 7.55387 0
M  V30 1211 H 99.2379 -0.869224 7.74638 0
M  V30 1212 N 103.467 -1.45747 0.599634 0
M  V30 1213 C 104.397 -2.33235 -0.111306 0
M  V30 1214 C 105.378 -1.46359 -0.866781 0
M  V30 1215 O 106.563 -1.75146 -0.838904 0
M  V30 1216 C 103.693 -3.28932 -1.11451 0
M  V30 1217 C 102.647 -4.25381 -0.472772 0
M  V30 1218 C 101.973 -5.1071 -1.58365 0
M  V30 1219 C 103.273 -5.18831 0.600948 0
M  V30 1220 H 104.967 -2.92927 0.61919 0
M  V30 1221 H 102.513 -1.40857 0.299215 0
M  V30 1222 H 104.466 -3.89002 -1.62036 0
M  V30 1223 H 103.19 -2.67381 -1.8755 0
M  V30 1224 H 101.849 -3.66598 0.0121472 0
M  V30 1225 H 101.497 -4.45533 -2.33473 0
M  V30 1226 H 101.197 -5.7604 -1.15982 0
M  V30 1227 H 102.721 -5.73647 -2.09194 0
M  V30 1228 H 104.135 -5.73019 0.179491 0
M  V30 1229 H 102.532 -5.92595 0.946076 0
M  V30 1230 H 103.602 -4.6174 1.48068 0
M  V30 1231 N 104.945 -0.338344 -1.53925 0
M  V30 1232 C 106.222 0.314774 -1.93051 0
M  V30 1233 C 106.602 1.68669 -1.26941 0
M  V30 1234 O 105.95 2.24636 -0.418445 0
M  V30 1235 C 106.16 0.392249 -3.46789 0
M  V30 1236 C 107.508 0.645554 -4.19664 0
M  V30 1237 O 108.532 0.474575 -3.53024 0
M  V30 1238 O 107.391 0.976408 -5.37707 0
M  V30 1239 H 104.485 0.182598 -0.80659 0
M  V30 1240 H 107.031 -0.389141 -1.65178 0
M  V30 1241 H 105.803 -0.570702 -3.87116 0
M  V30 1242 H 105.426 1.14316 -3.80812 0
M  V30 1243 N 106.423 1.57458 -0.0668435 0
M  V30 1244 C 107.373 2.0896 0.912119 0
M  V30 1245 C 108.357 0.998186 1.26195 0
M  V30 1246 O 109.549 1.26133 1.24175 0
M  V30 1247 C 106.678 2.6508 2.18145 0
M  V30 1248 C 105.764 3.81218 1.85832 0
M  V30 1249 N 106.155 4.90378 1.23948 0
M  V30 1250 C 104.453 3.9042 2.15612 0
M  V30 1251 C 105.154 5.71279 1.09616 0
M  V30 1252 N 104.13 5.19389 1.60423 0
M  V30 1253 H 107.932 2.90749 0.42924 0
M  V30 1254 H 105.446 1.6182 0.137184 0
M  V30 1255 H 107.443 3.0029 2.89192 0
M  V30 1256 H 106.103 1.84736 2.67025 0
M  V30 1257 H 107.114 5.09847 0.909731 0
M  V30 1258 H 103.791 3.21043 2.66903 0
M  V30 1259 H 105.181 6.69085 0.614425 0
M  V30 1260 N 107.901 -0.206675 1.56239 0
M  V30 1261 C 109.131 -0.943975 1.83773 0
M  V30 1262 C 109.539 -1.77841 0.645703 0
M  V30 1263 O 108.882 -1.79403 -0.395008 0
M  V30 1264 C 108.944 -1.899 3.05251 0
M  V30 1265 C 108.608 -1.24764 4.39639 0
M  V30 1266 C 109.605 -0.630216 5.16066 0
M  V30 1267 C 107.29 -1.25496 4.8637 0
M  V30 1268 C 109.284 -0.0287946 6.37393 0
M  V30 1269 C 106.971 -0.649698 6.07637 0
M  V30 1270 C 107.969 -0.0376845 6.8299 0
M  V30 1271 O 107.657 0.55812 8.0196 0
M  V30 1272 H 107.389 -0.281508 0.614597 0
M  V30 1273 H 109.943 -0.222458 2.04192 0
M  V30 1274 H 108.173 -2.6599 2.80689 0
M  V30 1275 H 109.862 -2.5031 3.1953 0
M  V30 1276 H 110.628 -0.616785 4.81062 0
M  V30 1277 H 106.507 -1.72072 4.27683 0
M  V30 1278 H 110.051 0.449518 6.9615 0
M  V30 1279 H 105.948 -0.660592 6.42111 0
M  V30 1280 H 106.716 0.453891 8.17241 0
M  V30 1281 N 109.379 -1.50304 -0.473955 0
M  V30 1282 C 110.342 -1.6841 -1.55469 0
M  V30 1283 C 111.342 -0.554905 -1.50922 0
M  V30 1284 O 112.532 -0.821882 -1.53593 0
M  V30 1285 C 109.664 -1.70667 -2.95102 0
M  V30 1286 H 110.857 -2.64828 -1.40733 0
M  V30 1287 H 108.41 -1.39742 -0.700132 0
M  V30 1288 H 109.145 -0.75932 -3.15285 0
M  V30 1289 H 108.93 -2.52698 -2.9981 0
M  V30 1290 H 110.42 -1.8664 -3.73571 0
M  V30 1291 N 110.857 0.726932 -1.39834 0
M  V30 1292 C 112.106 1.48214 -1.36805 0
M  V30 1293 C 112.419 1.95576 0.0305291 0
M  V30 1294 O 113.625 2.7088 0.183417 0
M  V30 1295 C 112.081 2.67854 -2.40379 0
M  V30 1296 C 111.689 2.27408 -3.85992 0
M  V30 1297 C 113.433 3.45641 -2.46439 0
M  V30 1298 C 111.34 3.43819 -4.81189 0
M  V30 1299 H 110.27 0.556606 -0.508631 0
M  V30 1300 H 112.921 0.792216 -1.65518 0
M  V30 1301 H 111.303 3.3896 -2.04749 0
M  V30 1302 H 112.477 1.63795 -4.30706 0
M  V30 1303 H 110.792 1.62692 -3.83302 0
M  V30 1304 H 113.389 4.32244 -3.14753 0
M  V30 1305 H 113.732 3.88669 -1.49139 0
M  V30 1306 H 114.265 2.8157 -2.81004 0
M  V30 1307 H 111.004 3.05834 -5.79781 0
M  V30 1308 H 110.524 4.06385 -4.41148 0
M  V30 1309 H 112.203 4.10043 -5.00474 0
M  V30 1310 N 112.336 1.25143 0.95797 0
M  V30 1311 C 113.585 1.0909 1.69654 0
M  V30 1312 C 113.898 -0.368548 1.92097 0
M  V30 1313 O 115.104 -0.649455 2.63618 0
M  V30 1314 C 113.56 1.90395 3.05414 0
M  V30 1315 C 113.168 3.4081 2.90779 0
M  V30 1316 C 114.912 1.82901 3.83076 0
M  V30 1317 C 112.819 4.14423 4.21909 0
M  V30 1318 H 111.749 0.404625 0.636235 0
M  V30 1319 H 114.4 1.4931 1.06672 0
M  V30 1320 H 112.782 1.42996 3.69281 0
M  V30 1321 H 113.956 3.95859 2.35865 0
M  V30 1322 H 112.271 3.49361 2.26575 0
M  V30 1323 H 114.868 2.35196 4.80195 0
M  V30 1324 H 115.211 0.796224 4.08615 0
M  V30 1325 H 115.744 2.28033 3.25954 0
M  V30 1326 H 112.483 5.18102 4.01561 0
M  V30 1327 H 112.003 3.64159 4.76601 0
M  V30 1328 H 113.682 4.21956 4.90471 0
M  V30 1329 N 113.814 -1.1601 1.06675 0
M  V30 1330 C 114.761 -2.20525 0.680967 0
M  V30 1331 C 115.731 -1.62904 -0.324283 0
M  V30 1332 O 116.916 -1.89615 -0.212294 0
M  V30 1333 C 114.056 -3.45013 0.0776551 0
M  V30 1334 C 113.169 -4.16863 1.13355 0
M  V30 1335 C 112.304 -5.2888 0.49597 0
M  V30 1336 C 111.343 -5.92537 1.53513 0
M  V30 1337 N 110.48 -6.96038 0.920631 0
M  V30 1338 H 115.32 -2.52876 1.57663 0
M  V30 1339 H 112.857 -1.24199 0.788223 0
M  V30 1340 H 114.815 -4.16193 -0.289704 0
M  V30 1341 H 113.445 -3.132 -0.781393 0
M  V30 1342 H 112.497 -3.44248 1.61857 0
M  V30 1343 H 113.809 -4.60294 1.92174 0
M  V30 1344 H 112.963 -6.06653 0.0758604 0
M  V30 1345 H 111.702 -4.86622 -0.324062 0
M  V30 1346 H 110.707 -5.13482 1.9651 0
M  V30 1347 H 111.932 -6.36873 2.35733 0
M  V30 1348 H 109.878 -6.55888 0.12138 0
M  V30 1349 H 109.795 -7.3786 1.64616 0
M  V30 1350 H 111.063 -7.77725 0.525795 0
M  V30 1351 N 115.292 -0.849877 -1.32721 0
M  V30 1352 C 116.539 -0.450923 -1.97416 0
M  V30 1353 C 116.867 0.992376 -1.67279 0
M  V30 1354 O 116.122 1.71048 -0.950845 0
M  V30 1355 C 116.421 -0.631272 -3.51781 0
M  V30 1356 C 116.087 -2.04432 -4.01894 0
M  V30 1357 C 114.749 -2.4308 -4.1529 0
M  V30 1358 C 117.101 -2.96679 -4.28522 0
M  V30 1359 C 114.429 -3.73257 -4.52654 0
M  V30 1360 C 116.781 -4.26349 -4.67343 0
M  V30 1361 C 115.445 -4.64939 -4.78945 0
M  V30 1362 H 114.715 -0.165004 -0.722395 0
M  V30 1363 H 117.362 -1.07901 -1.58207 0
M  V30 1364 H 115.667 0.0800767 -3.91718 0
M  V30 1365 H 117.364 -0.302709 -3.99856 0
M  V30 1366 H 113.954 -1.73419 -3.91949 0
M  V30 1367 H 118.138 -2.68054 -4.17685 0
M  V30 1368 H 113.394 -4.02946 -4.59831 0
M  V30 1369 H 117.568 -4.97895 -4.86902 0
M  V30 1370 H 115.195 -5.65855 -5.07654 0
M  V30 1371 N 116.77 1.45427 -0.607355 0
M  V30 1372 C 118.181 1.85756 -0.187535 0
M  V30 1373 C 118.532 1.5077 1.25551 0
M  V30 1374 O 117.657 0.93427 1.95193 0
M  V30 1375 C 118.252 3.37154 -0.333572 0
M  V30 1376 C 116.811 3.76387 0.0315542 0
M  V30 1377 C 115.958 2.69377 -0.658117 0
M  V30 1378 H 118.909 1.36231 -0.81405 0
M  V30 1379 H 118.93 3.78014 0.43428 0
M  V30 1380 H 118.442 3.62586 -1.38393 0
M  V30 1381 H 116.543 3.56571 1.0811 0
M  V30 1382 H 116.656 4.77731 -0.361935 0
M  V30 1383 H 115.02 2.5452 -0.0957873 0
M  V30 1384 H 115.803 2.97646 -1.7106 0
M  V30 1385 N 118.248 0.346503 1.53744 0
M  V30 1386 C 119.178 -0.501193 2.28058 0
M  V30 1387 C 120.159 -1.10014 1.29734 0
M  V30 1388 O 121.344 -1.12097 1.58581 0
M  V30 1389 C 118.474 -1.65078 3.05559 0
M  V30 1390 C 117.428 -1.18003 4.11411 0
M  V30 1391 C 116.754 -2.41837 4.76884 0
M  V30 1392 C 118.054 -0.278394 5.21558 0
M  V30 1393 H 119.748 0.11875 2.99164 0
M  V30 1394 H 117.294 0.0585531 1.43881 0
M  V30 1395 H 119.247 -2.25028 3.56287 0
M  V30 1396 H 117.971 -2.29767 2.32109 0
M  V30 1397 H 116.63 -0.603331 3.61601 0
M  V30 1398 H 116.278 -3.0494 4.00026 0
M  V30 1399 H 115.978 -2.1102 5.48402 0
M  V30 1400 H 117.502 -3.02508 5.30397 0
M  V30 1401 H 118.916 -0.784823 5.67903 0
M  V30 1402 H 117.313 -0.0619707 6.00068 0
M  V30 1403 H 118.383 0.684677 4.80042 0
M  V30 1404 N 119.726 -1.57421 0.075193 0
M  V30 1405 C 120.954 -1.97946 -0.602076 0
M  V30 1406 C 121.369 -0.953674 -1.62943 0
M  V30 1407 O 120.726 0.0592551 -1.82404 0
M  V30 1408 C 120.777 -3.38546 -1.26762 0
M  V30 1409 O 120.498 -4.37195 -0.281376 0
M  V30 1410 C 121.999 -3.93966 -2.03239 0
M  V30 1411 H 119.219 -0.650918 -0.162931 0
M  V30 1412 H 121.763 -2.03959 0.148601 0
M  V30 1413 H 119.918 -3.33609 -1.96936 0
M  V30 1414 H 120.332 -5.18975 -0.759267 0
M  V30 1415 H 121.806 -4.94555 -2.45193 0
M  V30 1416 H 122.283 -3.30693 -2.8903 0
M  V30 1417 H 122.889 -4.02315 -1.37924 0
M  V30 1418 N 121.204 0.198386 -1.56346 0
M  V30 1419 C 122.432 0.935572 -1.84539 0
M  V30 1420 C 122.847 1.76989 -0.657281 0
M  V30 1421 O 122.204 1.78626 0.374043 0
M  V30 1422 C 122.255 1.8344 -3.11499 0
M  V30 1423 O 121.976 1.03377 -4.25728 0
M  V30 1424 C 123.477 2.68355 -3.52846 0
M  V30 1425 H 120.697 0.273126 -0.612897 0
M  V30 1426 H 123.241 0.20663 -2.03453 0
M  V30 1427 H 121.396 2.51701 -2.94492 0
M  V30 1428 H 121.81 1.64599 -4.98003 0
M  V30 1429 H 123.284 3.27085 -4.44657 0
M  V30 1430 H 123.761 3.41901 -2.75681 0
M  V30 1431 H 124.367 2.05471 -3.72373 0
M  V30 1432 N 122.682 1.50554 0.465978 0
M  V30 1433 C 123.592 1.72585 1.58907 0
M  V30 1434 C 124.608 0.60911 1.6299 0
M  V30 1435 O 125.784 0.88804 1.80765 0
M  V30 1436 C 122.849 1.81995 2.95091 0
M  V30 1437 C 121.91 3.05751 3.01355 0
M  V30 1438 C 121.143 3.14702 4.31043 0
M  V30 1439 O 121.366 2.30313 5.21835 0
M  V30 1440 O 120.3 4.07468 4.43005 0
M  V30 1441 H 124.126 2.67799 1.43239 0
M  V30 1442 H 121.711 1.34711 0.646013 0
M  V30 1443 H 123.593 1.90335 3.75966 0
M  V30 1444 H 122.268 0.899659 3.10947 0
M  V30 1445 H 121.175 3.02908 2.19539 0
M  V30 1446 H 122.508 3.97375 2.90437 0
M  V30 1447 N 124.16 -0.719506 1.40217 0
M  V30 1448 C 125.385 -1.51371 1.4178 0
M  V30 1449 C 125.81 -1.88091 0.0182355 0
M  V30 1450 O 125.168 -1.52997 -0.972707 0
M  V30 1451 C 125.216 -2.768 2.31115 0
M  V30 1452 O 124.32 -3.73349 1.7517 0
M  V30 1453 H 123.661 -0.456529 0.482159 0
M  V30 1454 H 126.191 -0.88644 1.844 0
M  V30 1455 H 126.201 -3.25371 2.46167 0
M  V30 1456 H 124.876 -2.49407 3.3282 0
M  V30 1457 H 123.453 -3.32179 1.69444 0
M  V30 1458 N 125.638 -1.25649 -0.95132 0
M  V30 1459 C 126.601 -1.06399 -2.03007 0
M  V30 1460 C 127.601 -0.0156794 -1.60792 0
M  V30 1461 O 128.791 -0.25817 -1.72276 0
M  V30 1462 C 125.923 -0.616184 -3.35285 0
M  V30 1463 H 127.116 -2.02164 -2.21517 0
M  V30 1464 H 124.669 -1.08103 -1.12887 0
M  V30 1465 H 125.404 0.343917 -3.22471 0
M  V30 1466 H 125.189 -1.37301 -3.67275 0
M  V30 1467 H 126.679 -0.503032 -4.14559 0
M  V30 1468 N 127.117 1.15442 -1.07289 0
M  V30 1469 C 128.05 2.19135 -0.636798 0
M  V30 1470 C 129.028 1.58884 0.34562 0
M  V30 1471 O 130.212 1.86805 0.252195 0
M  V30 1472 C 127.339 3.38638 0.0650014 0
M  V30 1473 C 126.385 4.17412 -0.87576 0
M  V30 1474 S 127.218 4.79882 -2.37642 0
M  V30 1475 C 128.374 6.02753 -1.6864 0
M  V30 1476 H 128.607 2.55787 -1.51526 0
M  V30 1477 H 126.14 1.26394 -0.886793 0
M  V30 1478 H 128.098 4.07873 0.463664 0
M  V30 1479 H 126.759 3.00331 0.919801 0
M  V30 1480 H 125.952 5.02909 -0.33143 0
M  V30 1481 H 125.554 3.53722 -1.21478 0
M  V30 1482 H 127.846 6.70113 -0.997753 0
M  V30 1483 H 128.789 6.61754 -2.51967 0
M  V30 1484 H 129.197 5.52355 -1.16465 0
M  V30 1485 N 128.595 0.856903 1.32268 0
M  V30 1486 C 129.542 0.301172 2.28827 0
M  V30 1487 C 130.512 -0.593104 1.5515 0
M  V30 1488 O 131.697 -0.527537 1.83362 0
M  V30 1489 C 128.837 -0.502523 3.41422 0
M  V30 1490 C 127.95 0.417797 4.29975 0
M  V30 1491 C 127.085 -0.398749 5.29701 0
M  V30 1492 C 126.124 0.518827 6.09897 0
M  V30 1493 N 125.261 -0.260674 7.01616 0
M  V30 1494 H 130.101 1.12983 2.75751 0
M  V30 1495 H 127.638 0.568582 1.35667 0
M  V30 1496 H 129.596 -0.984141 4.05426 0
M  V30 1497 H 128.226 -1.29599 2.95642 0
M  V30 1498 H 127.278 1.01781 3.66531 0
M  V30 1499 H 128.59 1.12191 4.86019 0
M  V30 1500 H 127.744 -0.943435 5.9932 0
M  V30 1501 H 126.483 -1.13622 4.7428 0
M  V30 1502 H 125.488 1.07538 5.39181 0
M  V30 1503 H 126.713 1.25495 6.67404 0
M  V30 1504 H 124.659 -0.981198 6.4862 0
M  V30 1505 H 124.576 0.384364 7.55022 0
M  V30 1506 H 125.844 -0.787014 7.75517 0
M  V30 1507 N 130.073 -1.45103 0.615059 0
M  V30 1508 C 131.02 -2.30586 -0.0993978 0
M  V30 1509 C 131.99 -1.42544 -0.852669 0
M  V30 1510 O 133.175 -1.71465 -0.836917 0
M  V30 1511 C 130.315 -3.27572 -1.08583 0
M  V30 1512 C 129.428 -4.30717 -0.332656 0
M  V30 1513 C 128.563 -5.14807 -1.30947 0
M  V30 1514 C 127.602 -6.09673 -0.544538 0
M  V30 1515 N 126.739 -6.86517 -1.47101 0
M  V30 1516 H 131.579 -2.91144 0.635542 0
M  V30 1517 H 129.116 -1.4346 0.325206 0
M  V30 1518 H 131.074 -3.82276 -1.67095 0
M  V30 1519 H 129.704 -2.68751 -1.78809 0
M  V30 1520 H 128.756 -3.78615 0.368107 0
M  V30 1521 H 130.068 -4.98102 0.263842 0
M  V30 1522 H 129.222 -5.73948 -1.96643 0
M  V30 1523 H 127.961 -4.47458 -1.9399 0
M  V30 1524 H 126.966 -5.49656 0.126003 0
M  V30 1525 H 128.191 -6.79052 0.080947 0
M  V30 1526 H 126.137 -6.21851 -2.08895 0
M  V30 1527 H 126.054 -7.50281 -0.928137 0
M  V30 1528 H 127.322 -7.50194 -2.11731 0
M  V30 1529 N 131.551 -0.354651 -1.53558 0
M  V30 1530 C 132.8 0.239504 -2.00273 0
M  V30 1531 C 133.113 1.50759 -1.24623 0
M  V30 1532 O 134.319 2.17968 -1.61871 0
M  V30 1533 C 132.775 0.477341 -3.5672 0
M  V30 1534 C 132.383 -0.775488 -4.41237 0
M  V30 1535 C 134.127 1.02975 -4.11821 0
M  V30 1536 C 132.034 -0.507838 -5.89216 0
M  V30 1537 H 130.964 0.0932743 -0.748208 0
M  V30 1538 H 133.615 -0.471701 -1.77334 0
M  V30 1539 H 131.997 1.24953 -3.7577 0
M  V30 1540 H 133.171 -1.54963 -4.33962 0
M  V30 1541 H 131.486 -1.25033 -3.97185 0
M  V30 1542 H 134.083 1.24513 -5.2 0
M  V30 1543 H 134.426 1.98862 -3.65731 0
M  V30 1544 H 134.959 0.317994 -3.96527 0
M  V30 1545 H 131.698 -1.43674 -6.39561 0
M  V30 1546 H 131.218 0.228011 -5.99366 0
M  V30 1547 H 132.897 -0.129238 -6.46871 0
M  V30 1548 N 133.029 1.57378 -0.0835403 0
M  V30 1549 C 133.939 2.16897 0.894021 0
M  V30 1550 C 134.955 1.13528 1.31861 0
M  V30 1551 O 136.131 1.45848 1.3889 0
M  V30 1552 C 133.196 2.72831 2.13925 0
M  V30 1553 C 132.257 3.91115 1.76997 0
M  V30 1554 C 131.49 4.44371 2.95584 0
M  V30 1555 O 131.713 3.96596 4.09961 0
M  V30 1556 O 130.647 5.35549 2.74719 0
M  V30 1557 H 134.473 3.00814 0.417679 0
M  V30 1558 H 132.058 1.48741 0.140181 0
M  V30 1559 H 133.94 3.0863 2.86924 0
M  V30 1560 H 132.615 1.91967 2.60635 0
M  V30 1561 H 131.522 3.60148 1.01214 0
M  V30 1562 H 132.855 4.73307 1.3506 0
M  V30 1563 N 134.507 -0.190092 1.56449 0
M  V30 1564 C 135.784 -0.935886 1.71757 0
M  V30 1565 C 136.164 -2.01173 0.639726 0
M  V30 1566 O 135.512 -2.25827 -0.348502 0
M  V30 1567 C 135.722 -1.51775 3.1427 0
M  V30 1568 C 137.07 -1.99794 3.74656 0
M  V30 1569 O 138.094 -1.61607 3.1743 0
M  V30 1570 O 136.953 -2.70079 4.751 0
M  V30 1571 H 134.047 -0.439229 0.700719 0
M  V30 1572 H 136.593 -0.179395 1.68749 0
M  V30 1573 H 135.365 -0.742505 3.84191 0
M  V30 1574 H 134.988 -2.33894 3.21527 0
M  V30 1575 N 135.985 -1.50799 -0.457987 0
M  V30 1576 C 136.933 -1.71162 -1.575 0
M  V30 1577 C 137.927 -0.577592 -1.59249 0
M  V30 1578 O 139.133 -0.758443 -1.63241 0
M  V30 1579 H 135.508 -0.540468 -0.522875 0
M  V30 1580 H 137.479 -2.64837 -1.37492 0
M  V30 1581 C 136.228 -1.83496 -2.95338 0
M  V30 1582 H 135.551 -2.70153 -2.94716 0
M  V30 1583 H 136.991 -2.01765 -3.72917 0
M  V30 1584 C 135.45 -0.589694 -3.31699 0
M  V30 1585 O 135.98 0.265163 -4.00824 0
M  V30 1586 N 134.186 -0.439845 -2.87252 0
M  V30 1587 H 133.733 -1.13655 -2.31172 0
M  V30 1588 H 133.691 0.392159 -3.11945 0
M  V30 1589 N 137.463 0.71206 -1.40597 0
M  V30 1590 C 138.411 1.84746 -1.41321 0
M  V30 1591 C 139.405 1.66842 -0.293268 0
M  V30 1592 O 140.611 1.73904 -0.464481 0
M  V30 1593 H 136.986 0.608522 -0.441819 0
M  V30 1594 H 138.957 1.81252 -2.37045 0
M  V30 1595 C 137.706 3.22638 -1.29614 0
M  V30 1596 H 137.029 3.37023 -2.15071 0
M  V30 1597 H 138.469 4.02209 -1.3418 0
M  V30 1598 C 136.928 3.36899 -0.00673121 0
M  V30 1599 O 137.458 3.90186 0.954859 0
M  V30 1600 N 135.664 2.9053 0.0639327 0
M  V30 1601 H 135.211 2.47353 -0.719311 0
M  V30 1602 H 135.169 3.0045 0.926118 0
M  V30 1603 N 138.941 1.26152 0.944643 0
M  V30 1604 C 140.169 1.14259 1.72489 0
M  V30 1605 C 140.584 -0.302555 1.8636 0
M  V30 1606 O 139.941 -1.20741 1.36849 0
M  V30 1607 C 139.992 1.80266 3.13347 0
M  V30 1608 O 139.713 3.19133 3.00143 0
M  V30 1609 C 141.214 1.74283 4.07603 0
M  V30 1610 H 138.434 0.398051 0.540181 0
M  V30 1611 H 140.978 1.66706 1.18446 0
M  V30 1612 H 139.133 1.31766 3.64303 0
M  V30 1613 H 139.547 3.51744 3.89071 0
M  V30 1614 H 141.021 2.25111 5.04013 0
M  V30 1615 H 141.498 0.708631 4.33446 0
M  V30 1616 H 142.104 2.22319 3.62567 0
M  V30 1617 N 140.419 -1.14872 1.07899 0
M  V30 1618 C 141.349 -2.2193 0.725887 0
M  V30 1619 C 142.33 -1.67622 -0.28927 0
M  V30 1620 O 143.515 -1.93533 -0.160787 0
M  V30 1621 C 140.645 -3.47061 0.128856 0
M  V30 1622 C 139.599 -4.14363 1.07178 0
M  V30 1623 C 138.925 -5.33636 0.337229 0
M  V30 1624 C 140.225 -4.63492 2.40775 0
M  V30 1625 H 141.919 -2.51724 1.62097 0
M  V30 1626 H 139.465 -1.20991 0.780838 0
M  V30 1627 H 141.418 -4.21199 -0.130147 0
M  V30 1628 H 140.142 -3.16617 -0.80134 0
M  V30 1629 H 138.801 -3.42173 1.3158 0
M  V30 1630 H 138.449 -4.99449 -0.596606 0
M  V30 1631 H 138.149 -5.79609 0.965788 0
M  V30 1632 H 139.673 -6.10539 0.0861567 0
M  V30 1633 H 141.087 -5.2913 2.20669 0
M  V30 1634 H 139.484 -5.20148 2.99276 0
M  V30 1635 H 140.554 -3.78834 3.02676 0
M  V30 1636 N 141.898 -0.863906 -1.31812 0
M  V30 1637 C 143.144 -0.472535 -1.97218 0
M  V30 1638 C 143.477 0.971394 -1.68159 0
M  V30 1639 O 142.752 1.68309 -0.974798 0
M  V30 1640 C 143.035 -0.723054 -3.52766 0
M  V30 1641 C 142.888 -2.21608 -3.91421 0
M  V30 1642 C 144.207 -0.185522 -4.39709 0
M  V30 1643 H 141.326 -0.173158 -0.71637 0
M  V30 1644 H 143.968 -1.08403 -1.56041 0
M  V30 1645 H 142.118 -0.202577 -3.87971 0
M  V30 1646 H 143.79 -2.80334 -3.66347 0
M  V30 1647 H 142.033 -2.691 -3.40246 0
M  V30 1648 H 142.704 -2.34203 -4.99853 0
M  V30 1649 H 145.18 -0.630726 -4.11292 0
M  V30 1650 H 144.056 -0.390306 -5.47511 0
M  V30 1651 H 144.317 0.912229 -4.32586 0
M  V30 1652 N 143.376 1.44774 -0.622745 0
M  V30 1653 C 144.623 2.02121 -0.1239 0
M  V30 1654 C 144.951 1.48915 1.25118 0
M  V30 1655 O 144.206 0.660045 1.84233 0
M  V30 1656 C 144.505 3.57364 -0.0508323 0
M  V30 1657 C 144.171 4.29787 -1.36358 0
M  V30 1658 C 142.833 4.4929 -1.72314 0
M  V30 1659 C 145.185 4.71062 -2.23048 0
M  V30 1660 C 142.513 5.07325 -2.94682 0
M  V30 1661 C 144.865 5.30452 -3.44679 0
M  V30 1662 C 143.529 5.48175 -3.80868 0
M  V30 1663 H 142.799 0.739612 -0.0453381 0
M  V30 1664 H 145.446 1.73648 -0.807389 0
M  V30 1665 H 143.751 3.85202 0.715991 0
M  V30 1666 H 145.448 3.99456 0.351533 0
M  V30 1667 H 142.038 4.14932 -1.07375 0
M  V30 1668 H 146.222 4.55715 -1.96565 0
M  V30 1669 H 141.478 5.19235 -3.22809 0
M  V30 1670 H 145.652 5.61385 -4.12092 0
M  V30 1671 H 143.279 5.92912 -4.75773 0
M  V30 1672 N 144.854 0.36279 1.53368 0
M  V30 1673 C 146.103 -0.22888 2.00397 0
M  V30 1674 C 146.416 -1.50096 1.25421 0
M  V30 1675 O 147.622 -2.17106 1.63025 0
M  V30 1676 C 146.078 -0.458417 3.56969 0
M  V30 1677 C 145.686 0.798877 4.4082 0
M  V30 1678 C 147.43 -1.00789 4.12361 0
M  V30 1679 C 145.337 0.539078 5.88938 0
M  V30 1680 H 144.267 -0.089305 0.748693 0
M  V30 1681 H 146.918 0.481099 1.77081 0
M  V30 1682 H 145.3 -1.22959 3.76427 0
M  V30 1683 H 146.474 1.57262 4.33134 0
M  V30 1684 H 144.789 1.27137 3.96516 0
M  V30 1685 H 147.386 -1.21754 5.20653 0
M  V30 1686 H 147.729 -1.9692 3.66781 0
M  V30 1687 H 148.262 -0.296961 3.9669 0
M  V30 1688 H 145.001 1.47064 6.3879 0
M  V30 1689 H 144.521 -0.196222 5.99479 0
M  V30 1690 H 146.2 0.163542 6.46793 0
M  V30 1691 N 146.332 -1.57332 0.0918853 0
M  V30 1692 C 147.578 -1.94524 -0.573425 0
M  V30 1693 C 147.911 -0.973578 -1.68033 0
M  V30 1694 O 147.186 -0.00609226 -1.94499 0
M  V30 1695 C 147.469 -3.41858 -1.13161 0
M  V30 1696 C 147.322 -4.4979 -0.0299747 0
M  V30 1697 C 148.641 -3.90435 -2.03098 0
M  V30 1698 H 145.76 -0.70734 -0.206975 0
M  V30 1699 H 148.402 -1.89309 0.161942 0
M  V30 1700 H 146.552 -3.46433 -1.7583 0
M  V30 1701 H 148.224 -4.57327 0.604112 0
M  V30 1702 H 146.467 -4.291 0.636833 0
M  V30 1703 H 147.138 -5.50069 -0.461287 0
M  V30 1704 H 149.614 -3.87992 -1.50338 0
M  V30 1705 H 148.49 -4.94097 -2.39081 0
M  V30 1706 H 148.751 -3.29541 -2.94712 0
M  V30 1707 N 147.81 0.181792 -1.56548 0
M  V30 1708 C 149.087 0.926765 -1.72251 0
M  V30 1709 C 149.467 2.00831 -0.650386 0
M  V30 1710 O 148.815 2.26008 0.336521 0
M  V30 1711 C 149.025 1.50106 -3.1507 0
M  V30 1712 C 150.373 1.97805 -3.75711 0
M  V30 1713 O 151.397 1.59922 -3.18282 0
M  V30 1714 O 150.256 2.67555 -4.76525 0
M  V30 1715 H 147.35 0.435506 -0.703039 0
M  V30 1716 H 149.896 0.170443 -1.68842 0
M  V30 1717 H 148.668 0.72212 -3.84579 0
M  V30 1718 H 148.291 2.32186 -3.22763 0
M  V30 1719 N 149.288 1.51039 0.449983 0
M  V30 1720 C 150.534 1.63322 1.20223 0
M  V30 1721 C 150.867 0.34241 1.91158 0
M  V30 1722 O 150.142 -0.657344 1.83055 0
M  V30 1723 C 150.425 2.82801 2.22925 0
M  V30 1724 C 150.278 4.21823 1.56157 0
M  V30 1725 C 151.597 2.97807 3.24035 0
M  V30 1726 H 148.716 0.594407 0.435718 0
M  V30 1727 H 151.358 1.83489 0.493136 0
M  V30 1728 H 149.508 2.65738 2.834 0
M  V30 1729 H 151.18 4.50526 0.991162 0
M  V30 1730 H 149.423 4.25105 0.864172 0
M  V30 1731 H 150.094 5.01391 2.30891 0
M  V30 1732 H 152.57 3.13497 2.73603 0
M  V30 1733 H 151.446 3.82992 3.93202 0
M  V30 1734 H 151.707 2.09328 3.89402 0
M  V30 1735 N 150.766 -0.704594 1.40972 0
M  V30 1736 C 151.713 -1.81862 1.42109 0
M  V30 1737 C 152.683 -1.63781 0.276593 0
M  V30 1738 O 153.868 -1.84759 0.4763 0
M  V30 1739 C 151.008 -3.19669 1.30022 0
M  V30 1740 C 150.121 -3.49246 2.54267 0
M  V30 1741 C 149.256 -4.76618 2.3454 0
M  V30 1742 C 148.295 -4.99133 3.54306 0
M  V30 1743 N 147.432 -6.17726 3.33706 0
M  V30 1744 H 152.272 -1.80226 2.37324 0
M  V30 1745 H 149.809 -0.880238 1.17857 0
M  V30 1746 H 151.767 -3.99263 1.21018 0
M  V30 1747 H 150.397 -3.20506 0.384192 0
M  V30 1748 H 149.449 -2.64125 2.73756 0
M  V30 1749 H 150.761 -3.61788 3.43381 0
M  V30 1750 H 149.915 -5.64249 2.22952 0
M  V30 1751 H 148.654 -4.66305 1.42867 0
M  V30 1752 H 147.659 -4.09953 3.66359 0
M  V30 1753 H 148.884 -5.11311 4.4692 0
M  V30 1754 H 146.83 -6.08642 2.44725 0
M  V30 1755 H 146.747 -6.30995 4.16391 0
M  V30 1756 H 148.015 -7.08115 3.25873 0
M  V30 1757 N 152.244 -1.26651 -0.937939 0
M  V30 1758 C 153.207 -1.08546 -2.01867 0
M  V30 1759 C 154.207 -0.0327327 -1.60767 0
M  V30 1760 O 155.397 -0.276427 -1.71993 0
M  V30 1761 C 152.529 -0.651711 -3.34613 0
M  V30 1762 H 153.722 -2.04502 -2.1936 0
M  V30 1763 H 151.275 -1.09294 -1.11734 0
M  V30 1764 H 152.01 0.309696 -3.22818 0
M  V30 1765 H 151.795 -1.41189 -3.65798 0
M  V30 1766 H 153.285 -0.546973 -4.14002 0
M  V30 1767 N 153.722 1.14298 -1.08507 0
M  V30 1768 C 154.67 2.21483 -0.710483 0
M  V30 1769 C 155.664 1.66998 0.284234 0
M  V30 1770 O 156.87 1.79401 0.146692 0
M  V30 1771 H 153.245 0.721578 -0.211729 0
M  V30 1772 H 155.216 2.50348 -1.62384 0
M  V30 1773 C 153.965 3.4743 -0.137007 0
M  V30 1774 H 153.288 3.89686 -0.893592 0
M  V30 1775 H 154.728 4.2391 0.0872789 0
M  V30 1776 C 153.187 3.17548 1.12538 0
M  V30 1777 O 153.717 3.35437 2.21009 0
M  V30 1778 N 151.923 2.71499 1.03617 0
M  V30 1779 H 151.47 2.57143 0.153403 0
M  V30 1780 H 151.428 2.51881 1.88158 0
M  V30 1781 N 155.201 0.870884 1.31352 0
M  V30 1782 C 156.148 0.325425 2.28494 0
M  V30 1783 C 157.118 -0.576615 1.5577 0
M  V30 1784 O 158.303 -0.508059 1.83911 0
M  V30 1785 C 155.443 -0.466283 3.41935 0
M  V30 1786 C 154.556 0.463378 4.29508 0
M  V30 1787 C 153.691 -0.342544 5.30094 0
M  V30 1788 C 152.73 0.583486 6.09313 0
M  V30 1789 N 151.867 -0.186244 7.01853 0
M  V30 1790 H 156.707 1.15901 2.74538 0
M  V30 1791 H 154.244 0.58294 1.35056 0
M  V30 1792 H 156.202 -0.941085 4.06447 0
M  V30 1793 H 154.832 -1.26456 2.97 0
M  V30 1794 H 153.884 1.05663 3.65431 0
M  V30 1795 H 155.196 1.1734 4.84802 0
M  V30 1796 H 154.35 -0.879816 6.00287 0
M  V30 1797 H 153.089 -1.08585 4.75458 0
M  V30 1798 H 152.094 1.13251 5.3801 0
M  V30 1799 H 153.319 1.32566 6.66035 0
M  V30 1800 H 151.265 -0.912348 6.49625 0
M  V30 1801 H 151.182 0.464422 7.54572 0
M  V30 1802 H 152.45 -0.704716 7.76308 0
M  V30 1803 N 156.679 -1.44442 0.630414 0
M  V30 1804 C 157.629 -2.27794 -0.0968103 0
M  V30 1805 C 158.613 -1.38624 -0.816834 0
M  V30 1806 O 159.805 -1.62438 -0.70306 0
M  V30 1807 C 156.934 -3.25929 -1.07819 0
M  V30 1808 C 156.02 -4.22588 -0.357826 0
M  V30 1809 N 156.411 -5.0207 0.613169 0
M  V30 1810 C 154.709 -4.41914 -0.602365 0
M  V30 1811 C 155.41 -5.72351 1.03871 0
M  V30 1812 N 154.386 -5.42287 0.377642 0
M  V30 1813 H 158.188 -2.86653 0.648621 0
M  V30 1814 H 155.702 -1.55871 0.455862 0
M  V30 1815 H 157.699 -3.84399 -1.61378 0
M  V30 1816 H 156.359 -2.68631 -1.82393 0
M  V30 1817 H 157.37 -5.08331 0.990947 0
M  V30 1818 H 154.047 -3.95714 -1.33103 0
M  V30 1819 H 155.437 -6.4619 1.84086 0
M  V30 1820 N 158.157 -0.370918 -1.53173 0
M  V30 1821 C 159.089 0.507823 -2.23503 0
M  V30 1822 C 160.102 1.04182 -1.251 0
M  V30 1823 O 161.291 0.947286 -1.5129 0
M  V30 1824 C 158.391 1.71447 -2.92334 0
M  V30 1825 C 157.564 1.31105 -4.17289 0
M  V30 1826 C 156.623 2.38035 -4.69282 0
M  V30 1827 O 155.649 2.00204 -5.32829 0
M  V30 1828 N 156.851 3.69697 -4.47554 0
M  V30 1829 H 159.616 -0.0946382 -2.99551 0
M  V30 1830 H 157.177 -0.196358 -1.60705 0
M  V30 1831 H 159.169 2.42469 -3.24023 0
M  V30 1832 H 157.739 2.22368 -2.19707 0
M  V30 1833 H 156.959 0.430462 -3.91843 0
M  V30 1834 H 158.247 1.0179 -4.98514 0
M  V30 1835 H 157.645 4.03205 -3.9679 0
M  V30 1836 H 156.202 4.36807 -4.8378 0
M  V30 1837 N 159.635 1.57281 -0.100228 0
M  V30 1838 C 160.884 1.93713 0.561984 0
M  V30 1839 C 161.197 0.984492 1.69018 0
M  V30 1840 O 162.403 1.24273 2.41389 0
M  V30 1841 C 160.859 3.4421 1.05106 0
M  V30 1842 C 160.467 4.47975 -0.0476628 0
M  V30 1843 C 162.211 3.89595 1.68571 0
M  V30 1844 C 160.118 5.89631 0.457055 0
M  V30 1845 H 159.048 0.723082 0.2137 0
M  V30 1846 H 161.699 1.82644 -0.177057 0
M  V30 1847 H 160.081 3.50449 1.84395 0
M  V30 1848 H 161.255 4.53385 -0.823333 0
M  V30 1849 H 159.57 4.1223 -0.587816 0
M  V30 1850 H 162.167 4.92832 2.07414 0
M  V30 1851 H 162.51 3.28526 2.55688 0
M  V30 1852 H 163.043 3.86078 0.958562 0
M  V30 1853 H 159.782 6.54411 -0.377616 0
M  V30 1854 H 159.302 5.87681 1.19962 0
M  V30 1855 H 160.981 6.40363 0.92437 0
M  V30 1856 N 161.113 -0.173488 1.56642 0
M  V30 1857 C 162.06 -1.21482 1.96242 0
M  V30 1858 C 163.03 -1.44104 0.826027 0
M  V30 1859 O 164.215 -1.5688 1.08597 0
M  V30 1860 C 161.355 -2.54964 2.32567 0
M  V30 1861 C 160.468 -2.39739 3.59373 0
M  V30 1862 C 159.603 -3.66072 3.84921 0
M  V30 1863 C 158.642 -3.45771 5.05083 0
M  V30 1864 N 157.779 -4.64169 5.26775 0
M  V30 1865 H 162.619 -0.870123 2.85014 0
M  V30 1866 H 160.156 -0.418245 1.41029 0
M  V30 1867 H 162.114 -3.32758 2.5165 0
M  V30 1868 H 160.744 -2.87433 1.46908 0
M  V30 1869 H 159.796 -1.53131 3.48217 0
M  V30 1870 H 161.108 -2.20683 4.47326 0
M  V30 1871 H 160.262 -4.52303 4.0436 0
M  V30 1872 H 159.001 -3.88105 2.9534 0
M  V30 1873 H 158.006 -2.57927 4.85545 0
M  V30 1874 H 159.231 -3.25163 5.96193 0
M  V30 1875 H 157.177 -4.86425 4.40144 0
M  V30 1876 H 157.094 -4.48019 6.08946 0
M  V30 1877 H 158.362 -5.51689 5.5069 0
M  V30 1878 N 162.591 -1.51276 -0.441967 0
M  V30 1879 C 163.523 -1.68444 -1.55433 0
M  V30 1880 C 164.536 -0.565187 -1.52674 0
M  V30 1881 O 165.725 -0.839356 -1.57534 0
M  V30 1882 C 162.825 -1.67966 -2.94348 0
M  V30 1883 C 161.998 -2.964 -3.21661 0
M  V30 1884 C 161.057 -2.88171 -4.40277 0
M  V30 1885 O 160.083 -3.62119 -4.39157 0
M  V30 1886 N 161.285 -2.03706 -5.43584 0
M  V30 1887 H 164.05 -2.644 -1.41112 0
M  V30 1888 H 161.611 -1.49104 -0.630838 0
M  V30 1889 H 163.603 -1.60035 -3.71713 0
M  V30 1890 H 162.173 -0.796225 -3.0229 0
M  V30 1891 H 161.393 -3.18234 -2.32638 0
M  V30 1892 H 162.681 -3.81427 -3.36736 0
M  V30 1893 H 162.079 -1.42995 -5.47329 0
M  V30 1894 H 160.636 -2.01658 -6.1982 0
M  V30 1895 N 164.069 0.697108 -1.41344 0
M  V30 1896 C 165.032 1.79281 -1.42797 0
M  V30 1897 C 166.032 1.57607 -0.318837 0
M  V30 1898 O 167.222 1.64309 -0.578642 0
M  V30 1899 C 164.354 3.17632 -1.23785 0
M  V30 1900 H 165.547 1.79385 -2.40335 0
M  V30 1901 H 163.1 0.904582 -1.27464 0
M  V30 1902 H 163.835 3.23167 -0.270814 0
M  V30 1903 H 163.62 3.34765 -2.04144 0
M  V30 1904 H 165.11 3.97617 -1.27633 0
M  V30 1905 N 165.547 1.27147 0.931209 0
M  V30 1906 C 166.793 1.13446 1.68101 0
M  V30 1907 C 167.126 -0.319628 1.91552 0
M  V30 1908 O 166.401 -1.23407 1.50336 0
M  V30 1909 C 166.684 1.91482 3.0497 0
M  V30 1910 C 166.537 3.44855 2.88782 0
M  V30 1911 C 167.856 1.71651 4.05246 0
M  V30 1912 H 164.975 0.413498 0.610072 0
M  V30 1913 H 167.617 1.56261 1.08086 0
M  V30 1914 H 165.767 1.55095 3.56199 0
M  V30 1915 H 167.439 3.9105 2.44698 0
M  V30 1916 H 165.682 3.71373 2.24198 0
M  V30 1917 H 166.353 3.94694 3.85902 0
M  V30 1918 H 168.829 2.0337 3.63015 0
M  V30 1919 H 167.705 2.28651 4.99009 0
M  V30 1920 H 167.966 0.663555 4.37092 0
M  V30 1921 N 167.025 -1.13721 1.09112 0
M  V30 1922 C 167.972 -2.19031 0.727591 0
M  V30 1923 C 168.942 -1.63555 -0.289656 0
M  V30 1924 O 170.127 -1.90023 -0.172026 0
M  V30 1925 C 167.267 -3.4477 0.15082 0
M  V30 1926 C 166.38 -4.14365 1.22172 0
M  V30 1927 C 165.515 -5.27709 0.608042 0
M  V30 1928 C 164.554 -5.89147 1.66047 0
M  V30 1929 N 163.691 -6.93929 1.06806 0
M  V30 1930 H 168.531 -2.49475 1.62991 0
M  V30 1931 H 166.068 -1.22499 0.81439 0
M  V30 1932 H 168.026 -4.16714 -0.201358 0
M  V30 1933 H 166.656 -3.14787 -0.714783 0
M  V30 1934 H 165.708 -3.40737 1.69122 0
M  V30 1935 H 167.02 -4.56114 2.01895 0
M  V30 1936 H 166.174 -6.06355 0.204523 0
M  V30 1937 H 164.913 -4.872 -0.220769 0
M  V30 1938 H 163.918 -5.09198 2.07357 0
M  V30 1939 H 165.143 -6.31729 2.49189 0
M  V30 1940 H 163.089 -6.55483 0.260476 0
M  V30 1941 H 163.006 -7.34202 1.8023 0
M  V30 1942 H 164.274 -7.76434 0.690644 0
M  V30 1943 N 168.503 -0.877838 -1.30888 0
M  V30 1944 C 169.45 -0.337538 -2.28318 0
M  V30 1945 C 170.42 0.568346 -1.56074 0
M  V30 1946 O 171.605 0.498298 -1.84178 0
M  V30 1947 C 168.745 0.448142 -3.42178 0
M  V30 1948 C 167.858 -0.48615 -4.29256 0
M  V30 1949 C 166.993 0.314427 -5.30269 0
M  V30 1950 C 166.032 -0.615791 -6.08995 0
M  V30 1951 N 165.169 0.14902 -7.01942 0
M  V30 1952 H 170.009 -1.17356 -2.73919 0
M  V30 1953 H 167.546 -0.590094 -1.34745 0
M  V30 1954 H 169.504 0.919517 -4.06941 0
M  V30 1955 H 168.134 1.24879 -2.97666 0
M  V30 1956 H 167.186 -1.076 -3.64865 0
M  V30 1957 H 168.498 -1.19909 -4.84173 0
M  V30 1958 H 167.652 0.847969 -6.00745 0
M  V30 1959 H 166.391 1.06062 -4.76027 0
M  V30 1960 H 165.396 -1.16102 -5.37401 0
M  V30 1961 H 166.621 -1.36097 -6.65323 0
M  V30 1962 H 164.567 0.877884 -6.50099 0
M  V30 1963 H 164.484 -0.504433 -7.54315 0
M  V30 1964 H 165.752 0.663537 -7.76671 0
M  V30 1965 N 169.982 1.44106 -0.638065 0
M  V30 1966 C 170.912 2.33448 0.0494287 0
M  V30 1967 C 171.893 1.48606 0.827672 0
M  V30 1968 O 173.078 1.77308 0.792173 0
M  V30 1969 C 170.208 3.31771 1.02691 0
M  V30 1970 C 169.162 4.26485 0.359823 0
M  V30 1971 C 168.488 5.14729 1.44769 0
M  V30 1972 C 169.788 5.17056 -0.738296 0
M  V30 1973 H 171.482 2.91183 -0.696636 0
M  V30 1974 H 169.028 1.40014 -0.336456 0
M  V30 1975 H 170.981 3.93161 1.51666 0
M  V30 1976 H 169.705 2.7226 1.80395 0
M  V30 1977 H 168.364 3.66437 -0.10934 0
M  V30 1978 H 168.012 4.51566 2.21578 0
M  V30 1979 H 167.712 5.78913 1.00668 0
M  V30 1980 H 169.236 5.78991 1.93911 0
M  V30 1981 H 170.65 5.72342 -0.331354 0
M  V30 1982 H 169.047 5.89879 -1.10286 0
M  V30 1983 H 170.117 4.57652 -1.60258 0
M  V30 1984 N 171.46 0.379036 1.52974 0
M  V30 1985 C 172.69 -0.20649 2.05566 0
M  V30 1986 C 173.098 -1.41906 1.25137 0
M  V30 1987 O 172.441 -1.81421 0.288464 0
M  V30 1988 C 172.503 -0.651086 3.53555 0
M  V30 1989 C 172.167 0.446626 4.54812 0
M  V30 1990 C 173.164 1.30079 5.03364 0
M  V30 1991 C 170.849 0.610719 4.98573 0
M  V30 1992 C 172.843 2.30426 5.94292 0
M  V30 1993 C 170.53 1.61754 5.89304 0
M  V30 1994 C 171.528 2.46274 6.37054 0
M  V30 1995 O 171.216 3.45237 7.25994 0
M  V30 1996 H 170.948 -0.0372381 0.674974 0
M  V30 1997 H 173.502 0.539718 1.98182 0
M  V30 1998 H 171.732 -1.44911 3.58522 0
M  V30 1999 H 173.421 -1.16112 3.88938 0
M  V30 2000 H 174.187 1.18527 4.70294 0
M  V30 2001 H 170.066 -0.0374044 4.60985 0
M  V30 2002 H 173.61 2.96432 6.31485 0
M  V30 2003 H 169.507 1.73348 6.21788 0
M  V30 2004 H 170.275 3.41124 7.44027 0
M  V30 2005 N 172.938 -1.57226 0.108567 0
M  V30 2006 C 174.215 -1.86333 -0.594939 0
M  V30 2007 C 174.595 -1.00788 -1.85486 0
M  V30 2008 O 173.943 -0.0839293 -2.28346 0
M  V30 2009 C 174.153 -3.37265 -0.897405 0
M  V30 2010 C 175.501 -4.05629 -1.25501 0
M  V30 2011 O 176.525 -3.42224 -0.987998 0
M  V30 2012 O 175.384 -5.17531 -1.75567 0
M  V30 2013 H 172.478 -0.771018 -0.2991 0
M  V30 2014 H 175.024 -1.69102 0.142283 0
M  V30 2015 H 173.796 -3.913 -0.00413806 0
M  V30 2016 H 173.419 -3.59889 -1.69014 0
M  V30 2017 N 174.416 0.165178 -1.56732 0
M  V30 2018 C 175.665 0.879143 -1.81532 0
M  V30 2019 C 175.978 1.83144 -0.686842 0
M  V30 2020 O 177.184 2.58823 -0.819944 0
M  V30 2021 C 175.64 1.61388 -3.21686 0
M  V30 2022 C 175.248 0.704904 -4.4242 0
M  V30 2023 C 176.992 2.3157 -3.55774 0
M  V30 2024 C 174.899 1.44022 -5.73595 0
M  V30 2025 H 173.829 0.332033 -0.676957 0
M  V30 2026 H 176.48 0.132008 -1.83025 0
M  V30 2027 H 174.862 2.40599 -3.14529 0
M  V30 2028 H 176.036 -0.0506815 -4.60772 0
M  V30 2029 H 174.351 0.112419 -4.16248 0
M  V30 2030 H 176.948 2.8719 -4.51028 0
M  V30 2031 H 177.291 3.07201 -2.8095 0
M  V30 2032 H 177.824 1.59297 -3.64513 0
M  V30 2033 H 174.563 0.72612 -6.51466 0
M  V30 2034 H 174.083 2.16898 -5.5921 0
M  V30 2035 H 175.762 1.98606 -6.15764 0
M  V30 2036 N 175.894 1.51508 0.433938 0
M  V30 2037 C 177.171 1.54888 1.19453 0
M  V30 2038 C 177.551 0.315154 2.08734 0
M  V30 2039 O 176.899 -0.699558 2.17528 0
M  V30 2040 C 177.109 2.86467 1.99342 0
M  V30 2041 C 178.457 3.38545 2.56267 0
M  V30 2042 O 179.481 2.88041 2.0955 0
M  V30 2043 O 178.34 4.26675 3.41483 0
M  V30 2044 H 175.434 0.622863 0.544032 0
M  V30 2045 H 177.98 1.63823 0.442732 0
M  V30 2046 H 176.752 3.67718 1.33788 0
M  V30 2047 H 176.375 2.8071 2.8158 0
M  V30 2048 N 177.372 -0.689602 1.41712 0
M  V30 2049 C 178.618 -1.45181 1.41599 0
M  V30 2050 C 178.951 -1.94181 0.0270081 0
M  V30 2051 O 178.226 -1.6993 -0.946265 0
M  V30 2052 C 178.509 -2.65945 2.42787 0
M  V30 2053 C 178.362 -2.22672 3.90816 0
M  V30 2054 C 179.681 -3.68149 2.41151 0
M  V30 2055 H 176.8 -0.526576 0.515642 0
M  V30 2056 H 179.442 -0.784947 1.73028 0
M  V30 2057 H 177.592 -3.2284 2.16116 0
M  V30 2058 H 179.264 -1.71058 4.28412 0
M  V30 2059 H 177.507 -1.54394 4.05395 0
M  V30 2060 H 178.178 -3.0935 4.57172 0
M  V30 2061 H 180.654 -3.2094 2.64834 0
M  V30 2062 H 179.53 -4.50248 3.13955 0
M  V30 2063 H 179.791 -4.18259 1.43221 0
M  V30 2064 N 178.85 -1.27639 -0.924453 0
M  V30 2065 C 179.813 -1.10681 -2.00705 0
M  V30 2066 C 180.813 -0.0497823 -1.60723 0
M  V30 2067 O 182.003 -0.294654 -1.7169 0
M  V30 2068 C 179.135 -0.687164 -3.33902 0
M  V30 2069 H 180.328 -2.06817 -2.17179 0
M  V30 2070 H 177.881 -1.10473 -1.10569 0
M  V30 2071 H 178.616 0.275439 -3.23128 0
M  V30 2072 H 178.401 -1.45061 -3.6428 0
M  V30 2073 H 179.891 -0.590853 -4.13399 0
M  V30 2074 N 180.328 1.1314 -1.09713 0
M  V30 2075 C 181.275 2.18642 -0.739196 0
M  V30 2076 C 182.245 1.63706 0.280978 0
M  V30 2077 O 183.43 1.90111 0.161946 0
M  V30 2078 C 180.57 3.44685 -0.169102 0
M  V30 2079 C 179.683 4.13711 -1.24367 0
M  V30 2080 C 178.818 5.27379 -0.636019 0
M  V30 2081 C 177.857 5.88259 -1.69169 0
M  V30 2082 N 176.994 6.93352 -1.10485 0
M  V30 2083 H 181.834 2.48607 -1.64312 0
M  V30 2084 H 179.371 1.22066 -0.820875 0
M  V30 2085 H 181.329 4.16815 0.179256 0
M  V30 2086 H 179.959 3.15161 0.698079 0
M  V30 2087 H 179.011 3.39835 -1.70927 0
M  V30 2088 H 180.323 4.55037 -2.04311 0
M  V30 2089 H 179.477 6.06238 -0.236677 0
M  V30 2090 H 178.216 4.8731 0.194928 0
M  V30 2091 H 177.221 5.08092 -2.10055 0
M  V30 2092 H 178.446 6.30399 -2.52536 0
M  V30 2093 H 176.392 6.55335 -0.295234 0
M  V30 2094 H 176.309 7.33236 -1.84121 0
M  V30 2095 H 177.577 7.76057 -0.73181 0
M  V30 2096 N 181.806 0.884767 1.30421 0
M  V30 2097 C 183.052 0.503851 1.96441 0
M  V30 2098 C 183.385 -0.944518 1.69684 0
M  V30 2099 O 182.66 -1.66737 1.00145 0
M  V30 2100 C 182.943 0.779085 3.51571 0
M  V30 2101 C 182.796 2.27807 3.87846 0
M  V30 2102 C 184.115 0.255452 4.39358 0
M  V30 2103 H 181.234 0.184533 0.713524 0
M  V30 2104 H 183.876 1.10872 1.54297 0
M  V30 2105 H 182.026 0.264274 3.876 0
M  V30 2106 H 183.698 2.86127 3.61841 0
M  V30 2107 H 181.941 2.74479 3.35922 0
M  V30 2108 H 182.612 2.42125 4.96064 0
M  V30 2109 H 185.088 0.696079 4.10236 0
M  V30 2110 H 183.964 0.477361 5.4682 0
M  V30 2111 H 184.225 -0.843293 4.33983 0
M  V30 2112 N 183.284 -1.43765 0.645699 0
M  V30 2113 C 184.232 -2.32516 -0.0624849 0
M  V30 2114 C 185.226 -1.48183 -0.820855 0
M  V30 2115 O 186.432 -1.64439 -0.732106 0
M  V30 2116 H 182.807 -0.750989 -0.0389864 0
M  V30 2117 H 184.778 -2.89979 0.703892 0
M  V30 2118 C 183.527 -3.32389 -1.02044 0
M  V30 2119 H 182.85 -3.97301 -0.446312 0
M  V30 2120 H 184.29 -3.97138 -1.48517 0
M  V30 2121 C 182.749 -2.62416 -2.11281 0
M  V30 2122 O 183.279 -2.434 -3.19561 0
M  V30 2123 N 181.485 -2.21913 -1.87624 0
M  V30 2124 H 181.032 -2.37578 -0.995703 0
M  V30 2125 H 180.99 -1.75424 -2.6091 0
M  V30 2126 N 184.763 -0.387143 -1.52771 0
M  V30 2127 C 185.991 0.195869 -2.05971 0
M  V30 2128 C 186.406 1.40691 -1.25903 0
M  V30 2129 O 185.763 1.79931 -0.305134 0
M  V30 2130 C 185.814 0.56812 -3.57008 0
M  V30 2131 O 185.535 -0.594803 -4.34043 0
M  V30 2132 C 187.036 1.20723 -4.26545 0
M  V30 2133 H 184.256 0.0300578 -0.670326 0
M  V30 2134 H 186.8 -0.551749 -1.96916 0
M  V30 2135 H 184.955 1.26564 -3.66143 0
M  V30 2136 H 185.369 -0.289322 -5.23701 0
M  V30 2137 H 186.843 1.41807 -5.33474 0
M  V30 2138 H 187.32 2.17395 -3.81623 0
M  V30 2139 H 187.926 0.550535 -4.21722 0
M  V30 2140 N 186.241 1.57166 -0.116904 0
M  V30 2141 C 187.171 2.18222 0.830759 0
M  V30 2142 C 188.152 1.12167 1.27877 0
M  V30 2143 O 189.337 1.40394 1.34176 0
M  V30 2144 C 186.467 2.77996 2.08172 0
M  V30 2145 C 185.421 3.89614 1.77157 0
M  V30 2146 C 184.747 4.36187 3.09265 0
M  V30 2147 C 186.047 5.1181 1.04151 0
M  V30 2148 H 187.741 2.97664 0.321992 0
M  V30 2149 H 185.287 1.4318 0.153434 0
M  V30 2150 H 187.24 3.19366 2.74924 0
M  V30 2151 H 185.964 1.9584 2.6137 0
M  V30 2152 H 184.623 3.48816 1.12796 0
M  V30 2153 H 184.271 3.50893 3.60393 0
M  V30 2154 H 183.971 5.11455 2.89288 0
M  V30 2155 H 185.495 4.80207 3.77139 0
M  V30 2156 H 186.909 5.50214 1.61052 0
M  V30 2157 H 185.306 5.92648 0.942762 0
M  V30 2158 H 186.376 4.84892 0.0279022 0
M  V30 2159 N 187.719 -0.156864 1.56817 0
M  V30 2160 C 188.968 -0.869504 1.81996 0
M  V30 2161 C 189.281 -1.82777 0.696545 0
M  V30 2162 O 190.487 -2.58384 0.833658 0
M  V30 2163 C 188.943 -1.59679 3.22538 0
M  V30 2164 C 188.551 -0.681431 4.42787 0
M  V30 2165 C 190.295 -2.2968 3.56997 0
M  V30 2166 C 188.202 -1.40978 5.74351 0
M  V30 2167 H 187.132 -0.328438 0.678708 0
M  V30 2168 H 189.783 -0.1223 1.83092 0
M  V30 2169 H 188.165 -2.38927 3.158 0
M  V30 2170 H 189.339 0.0751166 4.60739 0
M  V30 2171 H 187.654 -0.0903431 4.16302 0
M  V30 2172 H 190.251 -2.84794 4.52544 0
M  V30 2173 H 190.594 -3.05707 2.82576 0
M  V30 2174 H 191.127 -1.57361 3.65352 0
M  V30 2175 H 187.866 -0.691561 6.51842 0
M  V30 2176 H 187.386 -2.13929 5.60352 0
M  V30 2177 H 189.065 -1.95337 6.16808 0
M  V30 2178 N 189.197 -1.51736 -0.425897 0
M  V30 2179 C 190.613 -1.40166 -0.76326 0
M  V30 2180 C 190.813 -0.492962 -1.95377 0
M  V30 2181 O 189.869 0.0475815 -2.52455 0
M  V30 2182 C 191.182 -2.82403 -1.03291 0
M  V30 2183 C 192.73 -2.91632 -1.13665 0
M  V30 2184 C 193.205 -4.34801 -1.43916 0
M  V30 2185 N 194.696 -4.3796 -1.50816 0
M  V30 2186 C 195.431 -5.4578 -1.75817 0
M  V30 2187 N 194.927 -6.63744 -1.98534 0
M  V30 2188 N 196.72 -5.33274 -1.77694 0
M  V30 2189 H 188.871 -2.09361 0.358 0
M  V30 2190 H 191.134 -0.942941 0.0978094 0
M  V30 2191 H 190.84 -3.50943 -0.230696 0
M  V30 2192 H 190.714 -3.22428 -1.95754 0
M  V30 2193 H 193.101 -2.23284 -1.92947 0
M  V30 2194 H 193.182 -2.55088 -0.190756 0
M  V30 2195 H 192.826 -5.03703 -0.65157 0
M  V30 2196 H 192.756 -4.68868 -2.39729 0
M  V30 2197 H 195.247 -3.52919 -1.35118 0
M  V30 2198 H 195.56 -7.41704 -2.17013 0
M  V30 2199 H 193.905 -6.66839 -1.95832 0
M  V30 2200 H 197.096 -4.40098 -1.59473 0
M  V30 2201 H 197.269 -6.1738 -1.9684 0
M  V30 2202 N 190.675 0.682077 -1.42076 0
M  V30 2203 C 192.086 1.26246 -1.37546 0
M  V30 2204 C 192.437 1.96092 -0.0651481 0
M  V30 2205 O 191.562 1.99587 0.836297 0
M  V30 2206 C 192.157 2.29594 -2.49143 0
M  V30 2207 C 190.716 2.83175 -2.47969 0
M  V30 2208 C 189.863 1.57395 -2.28303 0
M  V30 2209 H 192.814 0.475937 -1.51395 0
M  V30 2210 H 192.835 3.11175 -2.18976 0
M  V30 2211 H 192.347 1.78729 -3.44496 0
M  V30 2212 H 190.448 3.3818 -1.56413 0
M  V30 2213 H 190.561 3.32687 -3.44755 0
M  V30 2214 H 188.925 1.83699 -1.76428 0
M  V30 2215 H 189.708 1.08507 -3.25701 0
M  V30 2216 N 192.153 1.28127 0.917671 0
M  V30 2217 C 193.43 1.05761 1.64542 0
M  V30 2218 C 193.81 -0.404344 2.07191 0
M  V30 2219 O 193.158 -1.38963 1.81388 0
M  V30 2220 C 193.368 2.02857 2.83989 0
M  V30 2221 C 194.716 2.32786 3.551 0
M  V30 2222 O 195.74 2.0091 2.94132 0
M  V30 2223 O 194.599 2.87169 4.64969 0
M  V30 2224 H 191.693 0.403916 0.721652 0
M  V30 2225 H 194.239 1.39431 0.967322 0
M  V30 2226 H 193.011 3.01407 2.49538 0
M  V30 2227 H 192.634 1.69809 3.59514 0
M  V30 2228 N 193.631 -1.12557 1.10312 0
M  V30 2229 C 194.879 -1.83675 0.843091 0
M  V30 2230 C 195.2 -1.84435 -0.633131 0
M  V30 2231 O 194.47 -1.30657 -1.45964 0
M  V30 2232 H 193.05 -0.680138 0.308904 0
M  V30 2233 H 195.712 -1.36301 1.39313 0
M  V30 2234 H 194.808 -2.87908 1.2048 0
M  V30 2235 N 195.109 -0.891671 -1.2995 0
M  V30 2236 C 196.019 -0.367691 -2.31701 0
M  V30 2237 C 197.035 0.533486 -1.6562 0
M  V30 2238 O 198.211 0.424997 -1.96865 0
M  V30 2239 C 195.276 0.403406 -3.44345 0
M  V30 2240 C 194.337 -0.528328 -4.26037 0
M  V30 2241 C 193.57 0.206063 -5.33302 0
M  V30 2242 O 193.793 1.43119 -5.52153 0
M  V30 2243 O 192.727 -0.447281 -6.00236 0
M  V30 2244 H 196.553 -1.21163 -2.78484 0
M  V30 2245 H 194.138 -0.655725 -1.34241 0
M  V30 2246 H 196.02 0.839753 -4.12948 0
M  V30 2247 H 194.695 1.22354 -2.99685 0
M  V30 2248 H 193.602 -1.01362 -3.60106 0
M  V30 2249 H 194.935 -1.31465 -4.74318 0
M  V30 2250 N 196.587 1.43421 -0.653314 0
M  V30 2251 C 197.534 2.30768 0.0382271 0
M  V30 2252 C 198.504 1.44755 0.814576 0
M  V30 2253 O 199.689 1.73624 0.791162 0
M  V30 2254 C 196.829 3.30336 0.998599 0
M  V30 2255 C 195.942 4.31448 0.218342 0
M  V30 2256 C 195.077 5.18098 1.17252 0
M  V30 2257 C 194.116 6.10902 0.382702 0
M  V30 2258 N 193.253 6.90176 1.28848 0
M  V30 2259 H 198.093 2.89357 -0.712511 0
M  V30 2260 H 195.63 1.42548 -0.363128 0
M  V30 2261 H 197.588 3.86572 1.56901 0
M  V30 2262 H 196.218 2.73397 1.71621 0
M  V30 2263 H 195.27 3.77506 -0.46836 0
M  V30 2264 H 196.582 4.97227 -0.395812 0
M  V30 2265 H 195.736 5.7896 1.81356 0
M  V30 2266 H 194.475 4.52444 1.82058 0
M  V30 2267 H 193.48 5.49128 -0.27169 0
M  V30 2268 H 194.705 6.78598 -0.260957 0
M  V30 2269 H 192.651 6.27171 1.92334 0
M  V30 2270 H 192.568 7.52478 0.728887 0
M  V30 2271 H 193.836 7.55543 1.91766 0
M  V30 2272 N 198.065 0.39524 1.52563 0
M  V30 2273 C 199.012 -0.437036 2.26624 0
M  V30 2274 C 199.982 -1.05281 1.28472 0
M  V30 2275 O 201.167 -1.07971 1.57311 0
M  V30 2276 C 198.307 -1.55524 3.08069 0
M  V30 2277 C 197.42 -0.961745 4.21158 0
M  V30 2278 C 196.555 -2.05149 4.89987 0
M  V30 2279 C 195.594 -1.4342 5.95061 0
M  V30 2280 N 194.731 -2.46351 6.57462 0
M  V30 2281 H 199.571 0.200976 2.97322 0
M  V30 2282 H 197.108 0.110944 1.46681 0
M  V30 2283 H 199.066 -2.21437 3.53584 0
M  V30 2284 H 197.696 -2.16348 2.3957 0
M  V30 2285 H 196.748 -0.192048 3.79915 0
M  V30 2286 H 198.06 -0.470701 4.96574 0
M  V30 2287 H 197.214 -2.78819 5.38837 0
M  V30 2288 H 195.953 -2.57615 4.14109 0
M  V30 2289 H 194.958 -0.682774 5.45544 0
M  V30 2290 H 196.183 -0.917416 6.72875 0
M  V30 2291 H 194.129 -2.97975 5.8442 0
M  V30 2292 H 194.046 -2.02019 7.28508 0
M  V30 2293 H 195.314 -3.19633 7.10954 0
M  V30 2294 N 199.544 -1.57102 0.125237 0
M  V30 2295 C 200.507 -2.14471 -0.80838 0
M  V30 2296 C 201.507 -1.0811 -1.19033 0
M  V30 2297 O 202.697 -1.33856 -1.11482 0
M  V30 2298 C 199.829 -2.69005 -2.09402 0
M  V30 2299 H 201.022 -2.98297 -0.309696 0
M  V30 2300 H 198.575 -1.55807 -0.124051 0
M  V30 2301 H 199.31 -1.88785 -2.63687 0
M  V30 2302 H 199.095 -3.46799 -1.82957 0
M  V30 2303 H 200.585 -3.13278 -2.76128 0
M  V30 2304 N 201.022 0.148545 -1.56898 0
M  V30 2305 C 202.252 0.875118 -1.8715 0
M  V30 2306 C 202.66 1.75322 -0.711262 0
M  V30 2307 O 202.003 1.80745 0.328151 0
M  V30 2308 C 202.065 1.7844 -3.12089 0
M  V30 2309 C 201.729 1.08361 -4.43967 0
M  V30 2310 C 202.726 0.438247 -5.1805 0
M  V30 2311 C 200.411 1.07358 -4.90693 0
M  V30 2312 C 202.405 -0.20779 -6.37061 0
M  V30 2313 C 200.092 0.42373 -6.09629 0
M  V30 2314 C 201.09 -0.215829 -6.82659 0
M  V30 2315 O 200.778 -0.855378 -7.99336 0
M  V30 2316 H 200.51 0.258504 -0.624621 0
M  V30 2317 H 203.064 0.14652 -2.04877 0
M  V30 2318 H 201.294 2.55389 -2.90367 0
M  V30 2319 H 202.983 2.38279 -3.286 0
M  V30 2320 H 203.749 0.437817 -4.8302 0
M  V30 2321 H 199.628 1.5608 -4.33774 0
M  V30 2322 H 203.172 -0.70758 -6.94002 0
M  V30 2323 H 199.069 0.421822 -6.4412 0
M  V30 2324 H 199.837 -0.756892 -8.14993 0
M  V30 2325 N 202.5 1.5196 0.417844 0
M  V30 2326 C 203.746 1.65836 1.16732 0
M  V30 2327 C 204.079 0.382881 1.90388 0
M  V30 2328 O 203.354 -0.618368 1.84408 0
M  V30 2329 C 203.637 2.87466 2.16876 0
M  V30 2330 C 203.49 4.25041 1.47174 0
M  V30 2331 C 204.809 3.04613 3.17646 0
M  V30 2332 H 201.928 0.603515 0.423011 0
M  V30 2333 H 204.57 1.84494 0.454105 0
M  V30 2334 H 202.72 2.71689 2.777 0
M  V30 2335 H 204.392 4.52527 0.895376 0
M  V30 2336 H 202.635 4.26843 0.773806 0
M  V30 2337 H 203.306 5.06176 2.20204 0
M  V30 2338 H 205.782 3.1923 2.66892 0
M  V30 2339 H 204.658 3.91247 3.8499 0
M  V30 2340 H 204.919 2.17541 3.84874 0
M  V30 2341 N 203.978 -0.674533 1.42435 0
M  V30 2342 C 205.394 -0.98769 1.25367 0
M  V30 2343 C 205.594 -2.00879 0.158044 0
M  V30 2344 O 204.65 -2.48075 -0.470633 0
M  V30 2345 C 205.963 -1.49224 2.6106 0
M  V30 2346 C 207.511 -1.61 2.68417 0
M  V30 2347 C 207.986 -2.14852 4.04478 0
M  V30 2348 N 209.477 -2.22185 4.06434 0
M  V30 2349 C 210.212 -2.64928 5.08528 0
M  V30 2350 N 209.708 -3.07121 6.21006 0
M  V30 2351 N 211.501 -2.64679 4.95885 0
M  V30 2352 H 203.652 0.00152503 2.124 0
M  V30 2353 H 205.915 -0.0618434 0.945981 0
M  V30 2354 H 205.621 -0.816453 3.42092 0
M  V30 2355 H 205.495 -2.47094 2.84999 0
M  V30 2356 H 207.882 -2.27686 1.87732 0
M  V30 2357 H 207.963 -0.616195 2.48267 0
M  V30 2358 H 207.607 -1.48775 4.85622 0
M  V30 2359 H 207.537 -3.15024 4.2198 0
M  V30 2360 H 210.028 -1.92435 3.25234 0
M  V30 2361 H 210.341 -3.38423 6.94759 0
M  V30 2362 H 208.686 -3.04978 6.24511 0
M  V30 2363 H 211.877 -2.31078 4.07088 0
M  V30 2364 H 212.05 -2.9767 5.75584 0
M  V30 2365 N 205.456 -1.28612 -0.910864 0
M  V30 2366 C 206.386 -1.15326 -2.03032 0
M  V30 2367 C 207.367 -0.0502924 -1.70026 0
M  V30 2368 O 208.552 -0.227797 -1.92859 0
M  V30 2369 C 205.682 -0.817343 -3.37545 0
M  V30 2370 C 204.636 -1.8754 -3.84724 0
M  V30 2371 C 203.962 -1.39305 -5.16235 0
M  V30 2372 C 205.262 -3.28244 -4.06267 0
M  V30 2373 H 206.956 -2.08975 -2.14406 0
M  V30 2374 H 204.502 -1.00612 -1.03021 0
M  V30 2375 H 206.455 -0.711151 -4.15356 0
M  V30 2376 H 205.179 0.154846 -3.26233 0
M  V30 2377 H 203.838 -1.97079 -3.09121 0
M  V30 2378 H 203.486 -0.409846 -5.01328 0
M  V30 2379 H 203.186 -2.10057 -5.48771 0
M  V30 2380 H 204.71 -1.30014 -5.96598 0
M  V30 2381 H 206.124 -3.21611 -4.74594 0
M  V30 2382 H 204.521 -3.96855 -4.5014 0
M  V30 2383 H 205.591 -3.72048 -3.10979 0
M  V30 2384 N 206.934 1.1197 -1.10907 0
M  V30 2385 C 207.897 2.16031 -0.765707 0
M  V30 2386 C 208.897 1.59393 0.212235 0
M  V30 2387 O 210.087 1.74196 -0.0115441 0
M  V30 2388 C 207.219 3.40632 -0.135053 0
M  V30 2389 H 208.412 2.47919 -1.68748 0
M  V30 2390 H 205.965 1.27061 -0.910226 0
M  V30 2391 H 206.7 3.14348 0.797218 0
M  V30 2392 H 206.485 3.8302 -0.838937 0
M  V30 2393 H 207.975 4.17505 0.0892469 0
M  V30 2394 N 208.412 0.89855 1.29475 0
M  V30 2395 C 209.823 0.572537 1.77705 0
M  V30 2396 C 210.174 -0.911778 1.73727 0
M  V30 2397 O 209.299 -1.71288 1.32247 0
M  V30 2398 C 209.894 1.03252 3.22683 0
M  V30 2399 C 208.453 0.757687 3.68695 0
M  V30 2400 C 207.6 1.20787 2.49612 0
M  V30 2401 H 210.551 1.08139 1.16153 0
M  V30 2402 H 210.572 0.367307 3.78723 0
M  V30 2403 H 210.084 2.11285 3.25546 0
M  V30 2404 H 208.185 -0.310079 3.71308 0
M  V30 2405 H 208.298 1.35476 4.59547 0
M  V30 2406 H 206.662 0.626888 2.46865 0
M  V30 2407 H 207.445 2.29622 2.55203 0
M  V30 2408 N 209.89 -1.43072 0.660911 0
M  V30 2409 C 211.167 -1.95307 0.107017 0
M  V30 2410 C 211.547 -1.60192 -1.37484 0
M  V30 2411 O 210.895 -0.890949 -2.10415 0
M  V30 2412 C 211.105 -3.47124 0.361402 0
M  V30 2413 C 212.453 -4.23738 0.270455 0
M  V30 2414 O 213.477 -3.54981 0.294382 0
M  V30 2415 O 212.336 -5.46131 0.200737 0
M  V30 2416 H 209.43 -0.826984 -0.00517729 0
M  V30 2417 H 211.976 -1.52972 0.734681 0
M  V30 2418 H 210.748 -3.65837 1.38848 0
M  V30 2419 H 210.371 -3.96475 -0.298953 0
M  V30 2420 N 211.368 -0.403325 -1.52352 0
M  V30 2421 C 212.598 0.17376 -2.05868 0
M  V30 2422 C 213.006 1.39898 -1.27378 0
M  V30 2423 O 212.349 1.80939 -0.31729 0
M  V30 2424 C 212.411 0.594756 -3.54546 0
M  V30 2425 C 212.075 -0.518926 -4.54044 0
M  V30 2426 C 213.072 -1.3807 -5.01231 0
M  V30 2427 C 210.757 -0.689961 -4.97539 0
M  V30 2428 C 212.751 -2.39852 -5.90551 0
M  V30 2429 C 210.438 -1.71109 -5.86656 0
M  V30 2430 C 211.436 -2.56378 -6.33056 0
M  V30 2431 O 211.124 -3.56743 -7.20409 0
M  V30 2432 H 210.856 0.0264951 -0.675481 0
M  V30 2433 H 213.41 -0.571179 -1.97299 0
M  V30 2434 H 211.64 1.39189 -3.60782 0
M  V30 2435 H 213.329 1.0991 -3.90736 0
M  V30 2436 H 214.095 -1.25994 -4.68349 0
M  V30 2437 H 209.974 -0.035939 -4.60986 0
M  V30 2438 H 213.518 -3.06441 -6.26689 0
M  V30 2439 H 209.415 -1.83218 -6.18952 0
M  V30 2440 H 210.183 -3.52918 -7.38506 0
M  V30 2441 N 212.846 1.57033 -0.133567 0
M  V30 2442 C 214.123 1.87256 0.56522 0
M  V30 2443 C 214.503 1.03726 1.83859 0
M  V30 2444 O 213.851 0.120247 2.28183 0
M  V30 2445 C 214.061 3.3865 0.843636 0
M  V30 2446 C 215.409 4.07574 1.19032 0
M  V30 2447 O 216.433 3.43752 0.933429 0
M  V30 2448 O 215.292 5.20259 1.67312 0
M  V30 2449 H 212.386 0.775678 0.286796 0
M  V30 2450 H 214.932 1.68855 -0.169168 0
M  V30 2451 H 213.704 3.91257 -0.0581149 0
M  V30 2452 H 213.327 3.62532 1.63268 0
M  V30 2453 N 214.325 -0.140222 1.56975 0
M  V30 2454 C 215.288 -1.15689 1.97861 0
M  V30 2455 C 216.288 -1.3549 0.865974 0
M  V30 2456 O 217.478 -1.32367 1.13246 0
M  V30 2457 C 214.61 -2.51582 2.30042 0
M  V30 2458 H 215.803 -0.805971 2.88867 0
M  V30 2459 H 213.356 -0.383801 1.51515 0
M  V30 2460 H 214.091 -2.91632 1.41849 0
M  V30 2461 H 213.876 -2.38569 3.11171 0
M  V30 2462 H 215.366 -3.24792 2.62488 0
M  V30 2463 N 215.803 -1.52179 -0.40978 0
M  V30 2464 C 216.733 -1.78435 -1.5061 0
M  V30 2465 C 217.714 -0.635295 -1.57791 0
M  V30 2466 O 218.899 -0.880823 -1.73076 0
M  V30 2467 C 216.029 -1.93444 -2.88439 0
M  V30 2468 C 214.983 -3.09038 -2.96108 0
M  V30 2469 C 214.309 -3.09268 -4.36185 0
M  V30 2470 C 215.609 -4.48508 -2.67652 0
M  V30 2471 H 217.303 -2.70237 -1.28889 0
M  V30 2472 H 214.849 -1.30036 -0.618605 0
M  V30 2473 H 216.802 -2.10394 -3.65119 0
M  V30 2474 H 215.526 -0.983129 -3.11452 0
M  V30 2475 H 214.185 -2.91837 -2.21872 0
M  V30 2476 H 213.833 -2.11861 -4.56206 0
M  V30 2477 H 213.533 -3.86907 -4.42241 0
M  V30 2478 H 215.057 -3.28348 -5.14801 0
M  V30 2479 H 216.471 -4.65918 -3.34056 0
M  V30 2480 H 214.868 -5.28059 -2.85085 0
M  V30 2481 H 215.938 -4.56649 -1.63095 0
M  V30 2482 N 217.281 0.66697 -1.42791 0
M  V30 2483 C 218.558 1.4234 -1.34159 0
M  V30 2484 C 218.938 2.11093 0.0172729 0
M  V30 2485 O 218.286 2.03808 1.03318 0
M  V30 2486 C 218.496 2.41942 -2.51526 0
M  V30 2487 C 219.844 3.06353 -2.93995 0
M  V30 2488 O 220.868 2.52269 -2.51473 0
M  V30 2489 O 219.727 4.04376 -3.67617 0
M  V30 2490 H 216.821 0.635277 -0.529483 0
M  V30 2491 H 219.367 0.695034 -1.54814 0
M  V30 2492 H 218.139 1.89991 -3.42081 0
M  V30 2493 H 217.762 3.22249 -2.32898 0
M  V30 2494 N 218.759 1.29093 0.90403 0
M  V30 2495 C 220.005 1.16986 1.65656 0
M  V30 2496 C 220.338 -0.278925 1.92186 0
M  V30 2497 O 219.613 -1.2019 1.5292 0
M  V30 2498 C 219.896 1.97908 3.0084 0
M  V30 2499 C 219.749 3.50903 2.81403 0
M  V30 2500 C 221.068 1.80208 4.01513 0
M  V30 2501 H 218.187 0.426346 0.601164 0
M  V30 2502 H 220.829 1.58518 1.04747 0
M  V30 2503 H 218.979 1.62616 3.52829 0
M  V30 2504 H 220.651 3.96153 2.36348 0
M  V30 2505 H 218.894 3.76045 2.1627 0
M  V30 2506 H 219.565 4.02791 3.77443 0
M  V30 2507 H 222.041 2.11025 3.58619 0
M  V30 2508 H 220.917 2.39184 4.94047 0
M  V30 2509 H 221.178 0.756119 4.35586 0
M  V30 2510 N 220.237 -1.11381 1.11499 0
M  V30 2511 C 221.2 -2.15622 0.777153 0
M  V30 2512 C 222.2 -1.59504 -0.203779 0
M  V30 2513 O 223.39 -1.74188 0.020782 0
M  V30 2514 C 220.522 -3.40556 0.153116 0
M  V30 2515 H 221.715 -2.47021 1.70061 0
M  V30 2516 H 219.268 -1.26577 0.916952 0
M  V30 2517 H 220.003 -3.14767 -0.780536 0
M  V30 2518 H 219.788 -3.8257 0.859238 0
M  V30 2519 H 221.278 -4.17546 -0.0671044 0
M  V30 2520 N 221.715 -0.905404 -1.28997 0
M  V30 2521 C 222.663 -0.377431 -2.29517 0
M  V30 2522 C 223.657 0.526461 -1.61012 0
M  V30 2523 O 224.863 0.40863 -1.753 0
M  V30 2524 H 221.238 -0.103437 -0.744852 0
M  V30 2525 H 223.209 -1.23848 -2.71485 0
M  V30 2526 C 221.958 0.374833 -3.45674 0
M  V30 2527 H 221.281 -0.311474 -3.98585 0
M  V30 2528 H 222.721 0.70903 -4.1803 0
M  V30 2529 C 221.18 1.57963 -2.97572 0
M  V30 2530 O 221.71 2.67886 -2.99333 0
M  V30 2531 N 219.916 1.42375 -2.53333 0
M  V30 2532 H 219.463 0.529466 -2.521 0
M  V30 2533 H 219.421 2.23117 -2.21509 0
M  V30 2534 N 223.193 1.4272 -0.668489 0
M  V30 2535 C 224.14 2.30796 0.0137489 0
M  V30 2536 C 225.11 1.4561 0.799177 0
M  V30 2537 O 226.295 1.74453 0.772702 0
M  V30 2538 C 223.435 3.31377 0.963507 0
M  V30 2539 C 222.548 4.31655 0.172569 0
M  V30 2540 C 221.683 5.19312 1.1175 0
M  V30 2541 C 220.722 6.11274 0.317886 0
M  V30 2542 N 219.859 6.91504 1.2152 0
M  V30 2543 H 224.699 2.88585 -0.743161 0
M  V30 2544 H 222.236 1.42154 -0.378226 0
M  V30 2545 H 224.194 3.88214 1.52792 0
M  V30 2546 H 222.824 2.75202 1.68712 0
M  V30 2547 H 221.876 3.76988 -0.508374 0
M  V30 2548 H 223.188 4.96779 -0.448527 0
M  V30 2549 H 222.342 5.80851 1.75206 0
M  V30 2550 H 221.081 4.5435 1.77249 0
M  V30 2551 H 220.086 5.48809 -0.329918 0
M  V30 2552 H 221.311 6.78283 -0.332917 0
M  V30 2553 H 219.257 6.29176 1.85671 0
M  V30 2554 H 219.174 7.53209 0.649036 0
M  V30 2555 H 220.442 7.57535 1.83742 0
M  V30 2556 N 224.671 0.411399 1.52136 0
M  V30 2557 C 225.92 -0.165009 2.01024 0
M  V30 2558 C 226.233 -1.4603 1.30133 0
M  V30 2559 O 227.439 -2.1181 1.69849 0
M  V30 2560 C 225.895 -0.344618 3.58246 0
M  V30 2561 C 225.503 0.938716 4.38055 0
M  V30 2562 C 227.247 -0.876195 4.15359 0
M  V30 2563 C 225.154 0.726172 5.86925 0
M  V30 2564 H 224.084 -0.0654407 0.751155 0
M  V30 2565 H 226.735 0.537192 1.75461 0
M  V30 2566 H 225.117 -1.10921 3.80148 0
M  V30 2567 H 226.291 1.70963 4.27912 0
M  V30 2568 H 224.606 1.39688 3.92271 0
M  V30 2569 H 227.203 -1.05128 5.24263 0
M  V30 2570 H 227.546 -1.85152 3.7286 0
M  V30 2571 H 228.079 -0.170607 3.97434 0
M  V30 2572 H 224.818 1.67312 6.33788 0
M  V30 2573 H 224.338 -0.00540283 5.998 0
M  V30 2574 H 226.017 0.369231 6.45946 0
M  V30 2575 N 226.149 -1.5696 0.141893 0
M  V30 2576 C 227.397 -1.95573 -0.509484 0
M  V30 2577 C 227.718 -1.02746 -1.65736 0
M  V30 2578 O 226.988 -0.0880311 -1.95702 0
M  V30 2579 H 225.568 -0.722115 -0.191205 0
M  V30 2580 H 228.23 -1.93697 0.216196 0
M  V30 2581 H 227.326 -2.99171 -0.889 0
M  V30 2582 N 227.627 0.131896 -1.57047 0
M  V30 2583 C 228.876 0.84044 -1.83356 0
M  V30 2584 C 229.189 1.81646 -0.725535 0
M  V30 2585 O 230.395 2.57025 -0.874659 0
M  V30 2586 C 228.851 1.54528 -3.25037 0
M  V30 2587 C 228.459 0.610902 -4.43815 0
M  V30 2588 C 230.203 2.23972 -3.60606 0
M  V30 2589 C 228.11 1.31823 -5.76521 0
M  V30 2590 H 227.04 0.317599 -0.683847 0
M  V30 2591 H 229.691 0.0931561 -1.83263 0
M  V30 2592 H 228.073 2.33873 -3.19561 0
M  V30 2593 H 229.247 -0.148407 -4.60561 0
M  V30 2594 H 227.562 0.0241016 -4.16393 0
M  V30 2595 H 230.159 2.77558 -4.57018 0
M  V30 2596 H 230.502 3.01173 -2.87403 0
M  V30 2597 H 231.035 1.51529 -3.6781 0
M  V30 2598 H 227.774 0.587771 -6.52859 0
M  V30 2599 H 227.294 2.04987 -5.63685 0
M  V30 2600 H 228.973 1.855 -6.19838 0
M  V30 2601 N 229.106 1.52395 0.401703 0
M  V30 2602 C 230.355 1.66044 1.14509 0
M  V30 2603 C 230.668 0.400216 1.91462 0
M  V30 2604 O 231.874 0.416632 2.68284 0
M  V30 2605 C 230.33 2.93388 2.0845 0
M  V30 2606 C 229.938 4.26545 1.36978 0
M  V30 2607 C 231.682 3.16402 2.83001 0
M  V30 2608 C 229.589 5.45007 2.29611 0
M  V30 2609 H 228.519 0.618562 0.431158 0
M  V30 2610 H 231.17 1.78886 0.40892 0
M  V30 2611 H 229.552 2.74263 2.8565 0
M  V30 2612 H 230.726 4.56179 0.650916 0
M  V30 2613 H 229.041 4.09692 0.74438 0
M  V30 2614 H 231.638 4.02085 3.52465 0
M  V30 2615 H 231.981 2.30943 3.46368 0
M  V30 2616 H 232.514 3.36034 2.12898 0
M  V30 2617 H 229.253 6.32835 1.70879 0
M  V30 2618 H 228.773 5.19702 2.9945 0
M  V30 2619 H 230.452 5.7838 2.89974 0
M  V30 2620 O 230.623 -0.547609 1.51933 0
M  V30 2621 H 231.314 -1.20275 1.51834 0
M  V30 END ATOM
M  V30 BEGIN BOND
M  V30 END BOND
M  V30 END CTAB
M  END
$$$$
