drugbank_target|P18545 Retinal rod rhodopsin-sensitive cGMP 3',5'-cyclic phosphodiesterase subunit gamma (DB00203; DB00862; DB07954)
 OpenBabel12092120343D

  0  0  0     0  0            999 V3000
M  V30 BEGIN CTAB
M  V30 COUNTS 1368 1387 0 0 0
M  V30 BEGIN ATOM
M  V30 1 H -0.908 1.98254 -0.117106 0
M  V30 2 N 0 1.576 0 0
M  V30 3 C 0.933 2.03868 1.02534 0
M  V30 4 C 1.911 0.928543 1.3348 0
M  V30 5 O 3.095 1.19667 1.45644 0
M  V30 6 C 0.222 2.43627 2.35294 0
M  V30 7 C -0.732 3.65373 2.2001 0
M  V30 8 S 0.101 5.13292 1.52614 0
M  V30 9 C 1.257 5.56322 2.86805 0
M  V30 10 H 1.49 2.90518 0.631377 0
M  V30 11 H -0.977 1.52953 0.210867 0
M  V30 12 H 0.981 2.67203 3.11629 0
M  V30 13 H -0.358 1.57376 2.7183 0
M  V30 14 H -1.165 3.90944 3.18086 0
M  V30 15 H -1.563 3.418 1.51819 0
M  V30 16 H 0.729 5.58782 3.83104 0
M  V30 17 H 1.672 6.56266 2.65933 0
M  V30 18 H 2.08 4.83886 2.90714 0
M  V30 19 N 1.4781 -0.272755 1.55222 0
M  V30 20 C 2.4261 -1.35705 1.88909 0
M  V30 21 C 3.4201 -1.5112 0.765456 0
M  V30 22 O 4.6261 -1.52901 0.949802 0
M  V30 23 H 1.0011 -0.453868 0.59959 0
M  V30 24 H 2.9721 -1.04544 2.79487 0
M  V30 25 C 1.7211 -2.71049 2.17779 0
M  V30 26 H 1.0441 -2.59979 3.03728 0
M  V30 27 H 2.4841 -3.45858 2.45272 0
M  V30 28 C 0.9431 -3.22165 0.985473 0
M  V30 29 O 1.4731 -4.01096 0.220233 0
M  V30 30 N -0.3209 -2.7985 0.783108 0
M  V30 31 H -0.7739 -2.15775 1.40708 0
M  V30 32 H -0.8159 -3.14397 -0.0130392 0
M  V30 33 N 2.9562 -1.48159 -0.537278 0
M  V30 34 C 3.8862 -1.65029 -1.6519 0
M  V30 35 C 4.8672 -0.499281 -1.62607 0
M  V30 36 O 6.0522 -0.730972 -1.79918 0
M  V30 37 C 3.1822 -1.68303 -3.03795 0
M  V30 38 C 2.1362 -2.8283 -3.21234 0
M  V30 39 C 1.4622 -2.71189 -4.60826 0
M  V30 40 C 2.7622 -4.24211 -3.04701 0
M  V30 41 H 4.4562 -2.58341 -1.51328 0
M  V30 42 H 2.0022 -1.24325 -0.726585 0
M  V30 43 H 3.9552 -1.78693 -3.81637 0
M  V30 44 H 2.6792 -0.715635 -3.18663 0
M  V30 45 H 1.3382 -2.71983 -2.45807 0
M  V30 46 H 0.9862 -1.72435 -4.7252 0
M  V30 47 H 0.6862 -3.48035 -4.7344 0
M  V30 48 H 2.2102 -2.83537 -5.40777 0
M  V30 49 H 3.6242 -4.3593 -3.72341 0
M  V30 50 H 2.0212 -5.01998 -3.28813 0
M  V30 51 H 3.0912 -4.41184 -2.01209 0
M  V30 52 N 4.4343 0.785586 -1.36625 0
M  V30 53 C 5.3443 1.92964 -1.33425 0
M  V30 54 C 6.3603 1.72394 -0.235851 0
M  V30 55 O 7.5363 1.95866 -0.468878 0
M  V30 56 C 4.6013 3.27884 -1.12662 0
M  V30 57 C 3.6623 3.61204 -2.32013 0
M  V30 58 C 2.8953 4.89687 -2.12231 0
M  V30 59 O 3.1183 5.59704 -1.09945 0
M  V30 60 O 2.0523 5.21752 -3.00098 0
M  V30 61 H 5.8783 1.98613 -2.29753 0
M  V30 62 H 3.4633 0.926384 -1.17211 0
M  V30 63 H 5.3453 4.08614 -1.03016 0
M  V30 64 H 4.0203 3.23118 -0.193991 0
M  V30 65 H 2.9273 2.80765 -2.47228 0
M  V30 66 H 4.2603 3.70698 -3.23796 0
M  V30 67 N 5.9124 1.20967 1.01018 0
M  V30 68 C 7.3234 1.02319 1.56165 0
M  V30 69 C 7.6744 -0.418546 1.91684 0
M  V30 70 O 6.7994 -1.30096 1.72928 0
M  V30 71 C 7.3944 1.85109 2.8376 0
M  V30 72 C 5.9534 1.70809 3.35412 0
M  V30 73 C 5.1004 1.82643 2.08655 0
M  V30 74 H 8.0514 1.35065 0.833255 0
M  V30 75 H 8.0724 1.35827 3.55431 0
M  V30 76 H 7.5844 2.90035 2.57878 0
M  V30 77 H 5.6854 0.685464 3.66241 0
M  V30 78 H 5.7984 2.52467 4.07182 0
M  V30 79 H 4.1624 1.25896 2.21409 0
M  V30 80 H 4.9454 2.89066 1.85191 0
M  V30 81 N 7.3905 -1.2043 1.01659 0
M  V30 82 C 8.8015 -1.71517 0.737482 0
M  V30 83 C 9.1525 -1.81547 -0.743973 0
M  V30 84 O 8.2775 -1.47803 -1.58061 0
M  V30 85 C 8.8725 -3.11515 1.33206 0
M  V30 86 C 7.4315 -3.59912 1.10183 0
M  V30 87 C 6.5785 -2.37116 1.43776 0
M  V30 88 H 9.5295 -1.05444 1.18606 0
M  V30 89 H 9.5505 -3.73575 0.722636 0
M  V30 90 H 9.0625 -3.04182 2.41028 0
M  V30 91 H 7.1635 -3.72577 0.0412756 0
M  V30 92 H 7.2765 -4.44731 1.78188 0
M  V30 93 H 5.6405 -2.39857 0.856778 0
M  V30 94 H 6.4235 -2.32424 2.52654 0
M  V30 95 N 8.8686 -0.792821 -1.36206 0
M  V30 96 C 9.8156 -0.191653 -2.30003 0
M  V30 97 C 10.7856 0.666453 -1.52143 0
M  V30 98 O 11.9706 0.61442 -1.80636 0
M  V30 99 C 9.1106 0.664848 -3.38635 0
M  V30 100 C 8.2236 -0.212175 -4.31479 0
M  V30 101 C 7.3586 0.651022 -5.27196 0
M  V30 102 C 6.3976 -0.227247 -6.11678 0
M  V30 103 N 5.5346 0.595127 -6.99573 0
M  V30 104 H 10.3746 -0.996978 -2.80828 0
M  V30 105 H 7.9116 -0.503206 -1.38225 0
M  V30 106 H 9.8696 1.17645 -4.00269 0
M  V30 107 H 8.4996 1.43557 -2.89122 0
M  V30 108 H 7.5516 -0.841777 -3.70969 0
M  V30 109 H 8.8636 -0.888751 -4.90818 0
M  V30 110 H 8.0176 1.2283 -5.94136 0
M  V30 111 H 6.7566 1.36121 -4.68319 0
M  V30 112 H 5.7616 -0.816904 -5.43697 0
M  V30 113 H 6.9866 -0.93509 -6.72631 0
M  V30 114 H 4.9326 1.28955 -6.432 0
M  V30 115 H 4.8496 -0.0236952 -7.55996 0
M  V30 116 H 6.1176 1.15613 -7.70879 0
M  V30 117 N 10.3467 1.47872 -0.545128 0
M  V30 118 C 11.3097 2.28337 0.198717 0
M  V30 119 C 12.3097 1.36255 0.853888 0
M  V30 120 O 13.4997 1.59003 0.711606 0
M  V30 121 C 10.6317 3.15585 1.28915 0
M  V30 122 H 11.8247 2.95567 -0.507941 0
M  V30 123 H 9.3777 1.53362 -0.301616 0
M  V30 124 H 10.1127 2.53019 2.02859 0
M  V30 125 H 9.8977 3.83337 0.824309 0
M  V30 126 H 11.3877 3.76243 1.81194 0
M  V30 127 N 11.8248 0.280983 1.55075 0
M  V30 128 C 12.7348 -0.61388 2.26426 0
M  V30 129 C 13.7508 -1.16521 1.29224 0
M  V30 130 O 14.9268 -1.19426 1.62171 0
M  V30 131 C 11.9918 -1.7788 2.9759 0
M  V30 132 C 11.0528 -1.26355 4.10284 0
M  V30 133 C 10.2858 -2.37295 4.78045 0
M  V30 134 O 10.5088 -3.56777 4.45047 0
M  V30 135 O 9.4428 -2.05119 5.65871 0
M  V30 136 H 13.2688 -0.0356932 3.03679 0
M  V30 137 H 10.8538 0.0481686 1.49322 0
M  V30 138 H 12.7358 -2.45791 3.42293 0
M  V30 139 H 11.4108 -2.34397 2.23249 0
M  V30 140 H 10.3178 -0.550735 3.70024 0
M  V30 141 H 11.6508 -0.744065 4.86543 0
M  V30 142 N 13.3029 -1.57598 0.00835791 0
M  V30 143 C 14.5499 -1.90928 -0.674732 0
M  V30 144 C 14.8779 -0.88277 -1.73313 0
M  V30 145 O 14.1329 0.111294 -1.95383 0
M  V30 146 C 14.4319 -3.3101 -1.34787 0
M  V30 147 C 14.0979 -4.48922 -0.421861 0
M  V30 148 C 12.7599 -4.8091 -0.166927 0
M  V30 149 C 15.1119 -5.20755 0.215211 0
M  V30 150 C 12.4399 -5.821 0.733232 0
M  V30 151 C 14.7919 -6.22905 1.1033 0
M  V30 152 C 13.4559 -6.53346 1.36733 0
M  V30 153 H 12.7259 -0.698656 -0.246902 0
M  V30 154 H 15.3729 -1.91387 0.0656779 0
M  V30 155 H 13.6779 -3.26714 -2.16253 0
M  V30 156 H 15.3749 -3.54061 -1.8826 0
M  V30 157 H 11.9649 -4.23934 -0.630729 0
M  V30 158 H 16.1489 -4.9629 0.0312829 0
M  V30 159 H 11.4049 -6.04042 0.945712 0
M  V30 160 H 15.5789 -6.77694 1.60325 0
M  V30 161 H 13.2059 -7.31573 2.06652 0
M  V30 162 N 14.781 0.264519 -1.55364 0
M  V30 163 C 16.197 0.61215 -1.47394 0
M  V30 164 C 16.397 1.89134 -0.695018 0
M  V30 165 O 15.453 2.51563 -0.217275 0
M  V30 166 C 16.766 0.731235 -2.91674 0
M  V30 167 C 18.314 0.82473 -3.01939 0
M  V30 168 C 18.789 0.975522 -4.4749 0
M  V30 169 N 20.28 1.04083 -4.51354 0
M  V30 170 C 21.015 1.17646 -5.61201 0
M  V30 171 N 20.511 1.27874 -6.80896 0
M  V30 172 N 22.304 1.20823 -5.48961 0
M  V30 173 H 14.455 -0.575456 -2.04456 0
M  V30 174 H 16.718 -0.196099 -0.927496 0
M  V30 175 H 16.424 -0.138392 -3.51428 0
M  V30 176 H 16.298 1.60883 -3.41169 0
M  V30 177 H 18.685 1.68482 -2.42276 0
M  V30 178 H 18.766 -0.0776479 -2.55682 0
M  V30 179 H 18.41 0.120058 -5.07758 0
M  V30 180 H 18.34 1.89268 -4.91412 0
M  V30 181 H 20.831 0.973846 -3.65136 0
M  V30 182 H 21.144 1.38081 -7.60364 0
M  V30 183 H 19.489 1.24863 -6.83692 0
M  V30 184 H 22.68 1.12469 -4.54388 0
M  V30 185 H 22.853 1.31049 -6.3461 0
M  V30 186 N 16.2591 1.48442 0.529413 0
M  V30 187 C 17.4841 1.60406 1.31471 0
M  V30 188 C 17.9091 0.264738 1.86228 0
M  V30 189 O 17.2671 -0.763668 1.64432 0
M  V30 190 C 17.3151 2.65419 2.44101 0
M  V30 191 O 16.4191 2.22618 3.47153 0
M  V30 192 H 15.7601 0.537863 0.389357 0
M  V30 193 H 18.2901 1.94432 0.636965 0
M  V30 194 H 18.3001 2.86709 2.90279 0
M  V30 195 H 16.9751 3.62652 2.03608 0
M  V30 196 H 15.5521 2.11543 3.0709 0
M  V30 197 N 17.7372 -0.778329 1.37039 0
M  V30 198 C 18.7002 -1.87301 1.32102 0
M  V30 199 C 19.7002 -1.59198 0.226405 0
M  V30 200 O 20.8902 -1.67403 0.481861 0
M  V30 201 C 18.0222 -3.24309 1.05055 0
M  V30 202 H 19.2152 -1.93093 2.29467 0
M  V30 203 H 16.7682 -0.977358 1.21973 0
M  V30 204 H 17.5032 -3.24196 0.0819373 0
M  V30 205 H 17.2882 -3.46098 1.84279 0
M  V30 206 H 18.7782 -4.04382 1.04234 0
M  V30 207 N 19.2153 -1.21501 -1.00376 0
M  V30 208 C 20.4433 -1.059 -1.77744 0
M  V30 209 C 20.8583 0.391125 -1.84704 0
M  V30 210 O 20.2153 1.27133 -1.30933 0
M  V30 211 C 20.2663 -1.65111 -3.21591 0
M  V30 212 O 19.9873 -3.0445 -3.15027 0
M  V30 213 C 21.4883 -1.54637 -4.15454 0
M  V30 214 H 18.7083 -0.371825 -0.558558 0
M  V30 215 H 21.2523 -1.60865 -1.26264 0
M  V30 216 H 19.4073 -1.14235 -3.70175 0
M  V30 217 H 19.8213 -3.3278 -4.0541 0
M  V30 218 H 21.2953 -2.00808 -5.14179 0
M  V30 219 H 21.7723 -0.501022 -4.36333 0
M  V30 220 H 22.3783 -2.04767 -3.72761 0
M  V30 221 N 20.6934 1.19889 -1.02296 0
M  V30 222 C 22.1094 1.41462 -0.738954 0
M  V30 223 C 22.3094 1.89721 0.678846 0
M  V30 224 O 21.3654 2.07016 1.4457 0
M  V30 225 C 22.6784 2.43083 -1.77005 0
M  V30 226 C 24.2264 2.5684 -1.78892 0
M  V30 227 C 24.7014 3.61709 -2.80945 0
M  V30 228 N 26.1924 3.69199 -2.79725 0
M  V30 229 C 26.9274 4.50019 -3.55345 0
M  V30 230 N 26.4234 5.34592 -4.40662 0
M  V30 231 N 28.2164 4.44612 -3.43914 0
M  V30 232 H 20.3674 0.868827 -1.93817 0
M  V30 233 H 22.6304 0.44399 -0.837602 0
M  V30 234 H 22.3364 2.14636 -2.78612 0
M  V30 235 H 22.2104 3.4217 -1.58744 0
M  V30 236 H 24.5974 2.84614 -0.779674 0
M  V30 237 H 24.6784 1.57927 -2.01228 0
M  V30 238 H 24.3224 3.34678 -3.82038 0
M  V30 239 H 24.2524 4.60259 -2.5587 0
M  V30 240 H 26.7434 3.08794 -2.17842 0
M  V30 241 H 27.0564 5.93363 -4.95116 0
M  V30 242 H 25.4014 5.34073 -4.44737 0
M  V30 243 H 28.5924 3.7758 -2.76679 0
M  V30 244 H 28.7654 5.0736 -4.031 0
M  V30 245 N 22.1715 0.800033 1.35784 0
M  V30 246 C 23.4175 0.377901 1.99248 0
M  V30 247 C 23.7505 -1.05052 1.63333 0
M  V30 248 O 23.0255 -1.72768 0.893385 0
M  V30 249 C 23.3085 0.553922 3.55814 0
M  V30 250 C 23.1615 2.0268 4.01548 0
M  V30 251 C 24.4805 -0.0244802 4.40093 0
M  V30 252 H 21.5995 0.138782 0.723815 0
M  V30 253 H 24.2415 1.00835 1.61035 0
M  V30 254 H 22.3915 0.0172398 3.88496 0
M  V30 255 H 24.0635 2.62536 3.79305 0
M  V30 256 H 22.3065 2.5256 3.52698 0
M  V30 257 H 22.9775 2.10087 5.10458 0
M  V30 258 H 25.4535 0.433775 4.13833 0
M  V30 259 H 24.3295 0.128637 5.48749 0
M  V30 260 H 24.5905 -1.11758 4.27741 0
M  V30 261 N 23.6496 -1.47581 0.552962 0
M  V30 262 C 24.6126 -2.28439 -0.186605 0
M  V30 263 C 25.6126 -1.36706 -0.84665 0
M  V30 264 O 26.8026 -1.59378 -0.703164 0
M  V30 265 C 23.9346 -3.16264 -1.2724 0
M  V30 266 H 25.1276 -2.95294 0.523609 0
M  V30 267 H 22.6806 -1.532 0.309745 0
M  V30 268 H 23.4156 -2.54091 -2.01514 0
M  V30 269 H 23.2006 -3.83769 -0.803968 0
M  V30 270 H 24.6906 -3.77198 -1.79196 0
M  V30 271 N 25.1277 -0.289203 -1.54924 0
M  V30 272 C 26.3757 0.322879 -1.99504 0
M  V30 273 C 26.6967 1.55313 -1.1791 0
M  V30 274 O 25.9667 1.94001 -0.272097 0
M  V30 275 H 24.5467 0.122291 -0.736922 0
M  V30 276 H 27.2087 -0.397802 -1.90797 0
M  V30 277 H 26.3047 0.603061 -3.06218 0
M  V30 278 N 26.6058 1.57591 -0.0167156 0
M  V30 279 C 27.8538 1.90906 0.663285 0
M  V30 280 C 28.1748 0.892509 1.73376 0
M  V30 281 O 27.4448 -0.0677623 1.95783 0
M  V30 282 H 26.0248 0.704637 0.247983 0
M  V30 283 H 28.6868 1.94803 -0.0615909 0
M  V30 284 H 27.7828 2.9116 1.12393 0
M  V30 285 N 28.0839 -0.256276 1.55502 0
M  V30 286 C 29.4949 -0.826068 1.67431 0
M  V30 287 C 29.8459 -1.86396 0.612446 0
M  V30 288 O 28.9709 -2.15031 -0.243025 0
M  V30 289 C 29.5659 -1.50512 3.03532 0
M  V30 290 C 28.1249 -2.02273 3.17431 0
M  V30 291 C 27.2719 -0.870548 2.63281 0
M  V30 292 H 30.2229 -0.0322728 1.58667 0
M  V30 293 H 30.2439 -2.37279 2.97454 0
M  V30 294 H 29.7559 -0.749484 3.80794 0
M  V30 295 H 27.8569 -2.80746 2.44974 0
M  V30 296 H 27.9699 -2.22655 4.24219 0
M  V30 297 H 26.3339 -1.26851 2.20864 0
M  V30 298 H 27.1169 -0.128149 3.43061 0
M  V30 299 N 29.562 -1.4872 -0.521534 0
M  V30 300 C 30.808 -1.574 -1.27879 0
M  V30 301 C 31.141 -0.250817 -1.92573 0
M  V30 302 O 30.416 0.743934 -1.79711 0
M  V30 303 C 30.699 -2.71843 -2.36164 0
M  V30 304 C 30.552 -4.13893 -1.76105 0
M  V30 305 C 31.871 -2.82008 -3.37875 0
M  V30 306 H 28.99 -0.572941 -0.463581 0
M  V30 307 H 31.632 -1.80927 -0.580119 0
M  V30 308 H 29.782 -2.51914 -2.95756 0
M  V30 309 H 31.454 -4.45284 -1.20499 0
M  V30 310 H 29.697 -4.20498 -1.06601 0
M  V30 311 H 30.368 -4.89804 -2.5455 0
M  V30 312 H 32.844 -3.00086 -2.88249 0
M  V30 313 H 31.72 -3.63796 -4.11028 0
M  V30 314 H 31.981 -1.90511 -3.98946 0
M  V30 315 N 31.0401 0.771051 -1.3745 0
M  V30 316 C 32.2681 1.56015 -1.35893 0
M  V30 317 C 32.6831 1.88718 0.0555523 0
M  V30 318 O 32.0401 1.51502 1.01752 0
M  V30 319 C 32.0911 2.87001 -2.19801 0
M  V30 320 O 31.8121 2.557 -3.55738 0
M  V30 321 C 33.3131 3.81228 -2.26231 0
M  V30 322 H 30.5331 0.483317 -0.465453 0
M  V30 323 H 33.0771 0.955611 -1.80799 0
M  V30 324 H 31.2321 3.43877 -1.78402 0
M  V30 325 H 31.6461 3.39584 -3.99729 0
M  V30 326 H 33.1201 4.70139 -2.89263 0
M  V30 327 H 33.5971 4.20409 -1.27093 0
M  V30 328 H 34.2031 3.30281 -2.67945 0
M  V30 329 N 32.5182 1.22032 0.997298 0
M  V30 330 C 33.9292 1.0397 1.55071 0
M  V30 331 C 34.2802 -0.398192 1.92117 0
M  V30 332 O 33.4052 -1.28254 1.74298 0
M  V30 333 C 34.0002 1.88109 2.81781 0
M  V30 334 C 32.5592 1.74357 3.33581 0
M  V30 335 C 31.7062 1.84846 2.06706 0
M  V30 336 H 34.6572 1.35941 0.818883 0
M  V30 337 H 34.6782 1.39589 3.53971 0
M  V30 338 H 34.1902 2.92754 2.54787 0
M  V30 339 H 32.2912 0.72427 3.65493 0
M  V30 340 H 32.4042 2.56772 4.04481 0
M  V30 341 H 30.7682 1.28238 2.20062 0
M  V30 342 H 31.5512 2.91014 1.82114 0
M  V30 343 N 33.9963 -1.19345 1.0293 0
M  V30 344 C 35.4123 -1.41069 0.746446 0
M  V30 345 C 35.6123 -1.90078 -0.668776 0
M  V30 346 O 34.6683 -2.0778 -1.4347 0
M  V30 347 C 35.9813 -2.42141 1.78292 0
M  V30 348 C 37.5293 -2.55887 1.80252 0
M  V30 349 C 38.0043 -3.60214 2.8286 0
M  V30 350 N 39.4953 -3.67711 2.81679 0
M  V30 351 C 40.2303 -4.48128 3.57727 0
M  V30 352 N 39.7263 -5.32248 4.43491 0
M  V30 353 N 41.5193 -4.42782 3.46267 0
M  V30 354 H 33.6703 -0.858536 1.94275 0
M  V30 355 H 35.9333 -0.439541 0.839945 0
M  V30 356 H 35.6393 -2.13155 2.79746 0
M  V30 357 H 35.5133 -3.41323 1.60557 0
M  V30 358 H 37.9003 -2.84196 0.794757 0
M  V30 359 H 37.9813 -1.56858 2.02062 0
M  V30 360 H 37.6253 -3.32647 3.83807 0
M  V30 361 H 37.5553 -4.58895 2.58307 0
M  V30 362 H 40.0463 -3.07634 2.19476 0
M  V30 363 H 40.3593 -5.90729 4.98256 0
M  V30 364 H 38.7043 -5.31707 4.47564 0
M  V30 365 H 41.8953 -3.76107 2.78677 0
M  V30 366 H 42.0683 -5.05215 4.05785 0
M  V30 367 N 35.4744 -0.807222 -1.35358 0
M  V30 368 C 36.4214 -0.216037 -2.29787 0
M  V30 369 C 37.3914 0.650278 -1.52842 0
M  V30 370 O 38.5764 0.595227 -1.81278 0
M  V30 371 C 35.7164 0.628893 -3.39321 0
M  V30 372 C 34.8294 -0.257927 -4.31229 0
M  V30 373 C 33.9644 0.595069 -5.27856 0
M  V30 374 C 33.0034 -0.292111 -6.11403 0
M  V30 375 N 32.1404 0.520895 -7.00165 0
M  V30 376 H 36.9804 -1.02671 -2.79755 0
M  V30 377 H 34.5174 -0.517839 -1.37684 0
M  V30 378 H 36.4754 1.13393 -4.01494 0
M  V30 379 H 35.1054 1.40482 -2.90628 0
M  V30 380 H 34.1574 -0.881076 -3.70056 0
M  V30 381 H 35.4694 -0.940759 -4.89848 0
M  V30 382 H 34.6234 1.16522 -5.95405 0
M  V30 383 H 33.3624 1.31146 -4.69736 0
M  V30 384 H 32.3674 -0.874525 -5.428 0
M  V30 385 H 33.5924 -1.00638 -6.71602 0
M  V30 386 H 31.5384 1.22125 -6.44532 0
M  V30 387 H 31.4554 -0.103877 -7.55929 0
M  V30 388 H 32.7234 1.0743 -7.72062 0
M  V30 389 N 36.9525 1.47285 -0.560781 0
M  V30 390 C 38.2005 2.02064 -0.0379868 0
M  V30 391 C 38.5215 1.43711 1.31803 0
M  V30 392 O 37.7915 0.61362 1.86042 0
M  V30 393 H 36.3715 0.746918 -0.0110531 0
M  V30 394 H 39.0335 1.80648 -0.731598 0
M  V30 395 H 38.1295 3.12064 0.0474463 0
M  V30 396 N 38.4306 0.297415 1.54768 0
M  V30 397 C 39.8416 -0.195947 1.85669 0
M  V30 398 C 40.1926 -1.53707 1.21937 0
M  V30 399 O 39.3176 -2.10164 0.515754 0
M  V30 400 C 39.9126 -0.362318 3.36857 0
M  V30 401 C 38.4716 -0.799901 3.67802 0
M  V30 402 C 37.6186 0.0938578 2.77141 0
M  V30 403 H 40.5696 0.518538 1.4999 0
M  V30 404 H 40.5906 -1.19745 3.61167 0
M  V30 405 H 40.1026 0.613921 3.83214 0
M  V30 406 H 38.2036 -1.78682 3.26961 0
M  V30 407 H 38.3166 -0.621773 4.75048 0
M  V30 408 H 36.6806 -0.426254 2.51108 0
M  V30 409 H 37.4636 1.06639 3.26318 0
M  V30 410 N 39.9087 -1.5758 0.0250728 0
M  V30 411 C 41.3197 -1.79476 -0.514323 0
M  V30 412 C 41.6707 -0.934956 -1.72491 0
M  V30 413 O 40.7957 -0.144245 -2.15919 0
M  V30 414 C 41.3907 -3.25503 -0.939842 0
M  V30 415 C 39.9497 -3.48408 -1.42438 0
M  V30 416 C 39.0967 -2.74583 -0.387201 0
M  V30 417 H 42.0477 -1.567 0.25113 0
M  V30 418 H 42.0687 -3.34992 -1.80445 0
M  V30 419 H 41.5807 -3.88056 -0.0585628 0
M  V30 420 H 39.6817 -2.91103 -2.32572 0
M  V30 421 H 39.7947 -4.57119 -1.43455 0
M  V30 422 H 38.1587 -2.39942 -0.854409 0
M  V30 423 H 38.9417 -3.39849 0.485543 0
M  V30 424 N 41.3868 0.248026 -1.55636 0
M  V30 425 C 42.3338 1.30707 -1.90222 0
M  V30 426 C 43.3038 1.47881 -0.756332 0
M  V30 427 O 44.4888 1.61883 -1.00988 0
M  V30 428 C 41.6288 2.65769 -2.20138 0
M  V30 429 C 40.7418 2.56612 -3.47526 0
M  V30 430 C 39.8768 3.8402 -3.67017 0
M  V30 431 C 38.9158 3.69476 -4.8801 0
M  V30 432 N 38.0528 4.88774 -5.04029 0
M  V30 433 H 42.8928 1.00512 -2.80538 0
M  V30 434 H 40.4298 0.485055 -1.38873 0
M  V30 435 H 42.3878 3.44386 -2.35487 0
M  V30 436 H 41.0178 2.94115 -1.33027 0
M  V30 437 H 40.0698 1.69571 -3.40514 0
M  V30 438 H 41.3818 2.41774 -4.36287 0
M  V30 439 H 40.5358 4.7108 -3.8232 0
M  V30 440 H 39.2748 4.01754 -2.76487 0
M  V30 441 H 38.2798 2.80799 -4.72686 0
M  V30 442 H 39.5048 3.53238 -5.8 0
M  V30 443 H 37.4508 5.0687 -4.16435 0
M  V30 444 H 37.3678 4.76562 -5.86877 0
M  V30 445 H 38.6358 5.77335 -5.23741 0
M  V30 446 N 42.8649 1.48995 0.513639 0
M  V30 447 C 44.1119 1.57843 1.26854 0
M  V30 448 C 44.4399 0.259501 1.92761 0
M  V30 449 O 43.6949 -0.75159 1.80692 0
M  V30 450 C 43.9939 2.67756 2.36731 0
M  V30 451 C 43.6599 4.09669 1.88368 0
M  V30 452 C 42.3219 4.48291 1.74896 0
M  V30 453 C 44.6739 4.98537 1.52021 0
M  V30 454 C 42.0019 5.73568 1.23438 0
M  V30 455 C 44.3539 6.24319 1.0202 0
M  V30 456 C 43.0179 6.61783 0.871778 0
M  V30 457 H 42.2879 0.577587 0.464192 0
M  V30 458 H 44.9349 1.82778 0.571366 0
M  V30 459 H 43.2399 2.36743 3.12185 0
M  V30 460 H 44.9369 2.71813 2.9482 0
M  V30 461 H 41.5269 3.79176 1.99808 0
M  V30 462 H 45.7109 4.69363 1.61281 0
M  V30 463 H 40.9669 6.01304 1.10648 0
M  V30 464 H 45.1409 6.92566 0.729722 0
M  V30 465 H 42.7679 7.5874 0.470852 0
M  V30 466 N 44.343 -0.763751 1.37857 0
M  V30 467 C 45.29 -1.87726 1.34267 0
M  V30 468 C 46.26 -1.64807 0.206879 0
M  V30 469 O 47.445 -1.86613 0.397508 0
M  V30 470 C 44.585 -3.24896 1.16346 0
M  V30 471 C 43.698 -3.59716 2.39225 0
M  V30 472 C 42.833 -4.86137 2.14114 0
M  V30 473 C 41.872 -5.13711 3.32817 0
M  V30 474 N 41.009 -6.31323 3.07206 0
M  V30 475 H 45.849 -1.90129 2.29466 0
M  V30 476 H 43.386 -0.929433 1.14017 0
M  V30 477 H 45.344 -4.04036 1.03975 0
M  V30 478 H 43.974 -3.21847 0.247909 0
M  V30 479 H 43.026 -2.75498 2.62307 0
M  V30 480 H 44.338 -3.76027 3.27728 0
M  V30 481 H 43.492 -5.73198 1.9882 0
M  V30 482 H 42.231 -4.71945 1.22961 0
M  V30 483 H 41.236 -4.25123 3.48641 0
M  V30 484 H 42.461 -5.29807 4.24832 0
M  V30 485 H 40.407 -6.18474 2.1869 0
M  V30 486 H 40.324 -6.48087 3.89254 0
M  V30 487 H 41.592 -7.213 2.95546 0
M  V30 488 N 45.8211 -1.22559 -0.990812 0
M  V30 489 C 46.7531 -0.955325 -2.08342 0
M  V30 490 C 47.7661 0.0668408 -1.62663 0
M  V30 491 O 48.9551 -0.167421 -1.77713 0
M  V30 492 C 46.0551 -0.415566 -3.36342 0
M  V30 493 C 45.2281 -1.49544 -4.11042 0
M  V30 494 C 44.2871 -0.962399 -5.17324 0
M  V30 495 O 43.3131 -1.64907 -5.44788 0
M  V30 496 N 44.5151 0.215134 -5.80101 0
M  V30 497 H 47.2801 -1.89596 -2.32106 0
M  V30 498 H 44.8411 -1.13276 -1.15673 0
M  V30 499 H 46.8331 -0.0442386 -4.04676 0
M  V30 500 H 45.4031 0.430232 -3.09625 0
M  V30 501 H 44.6231 -2.04 -3.37309 0
M  V30 502 H 45.9111 -2.22195 -4.57719 0
M  V30 503 H 45.3091 0.789779 -5.6016 0
M  V30 504 H 43.8661 0.527826 -6.49659 0
M  V30 505 N 47.2992 1.18797 -1.03562 0
M  V30 506 C 48.7152 1.40671 -0.753917 0
M  V30 507 C 48.9152 1.9043 0.658686 0
M  V30 508 O 47.9712 2.08538 1.42366 0
M  V30 509 C 49.2842 2.41192 -1.79574 0
M  V30 510 C 50.8322 2.54928 -1.81606 0
M  V30 511 C 51.3072 3.58709 -2.84766 0
M  V30 512 N 52.7982 3.66212 -2.83625 0
M  V30 513 C 53.5332 4.46225 -3.60098 0
M  V30 514 N 53.0292 5.29888 -4.46308 0
M  V30 515 N 54.8222 4.40939 -3.4861 0
M  V30 516 H 46.9732 0.848221 -1.94728 0
M  V30 517 H 49.2362 0.435081 -0.842264 0
M  V30 518 H 48.9422 2.11669 -2.80872 0
M  V30 519 H 48.8162 3.40467 -1.62365 0
M  V30 520 H 51.2032 2.83771 -0.809817 0
M  V30 521 H 51.2842 1.55784 -2.02891 0
M  V30 522 H 50.9282 3.30607 -3.85566 0
M  V30 523 H 50.8582 4.57519 -2.60737 0
M  V30 524 H 53.3492 3.06466 -2.21105 0
M  V30 525 H 53.6622 5.88078 -5.01382 0
M  V30 526 H 52.0072 5.29326 -4.50377 0
M  V30 527 H 55.1982 3.74624 -2.80668 0
M  V30 528 H 55.3712 5.03056 -4.08459 0
M  V30 529 N 48.7773 0.814389 1.34928 0
M  V30 530 C 49.7093 0.187834 2.28429 0
M  V30 531 C 50.7223 -0.617374 1.5064 0
M  V30 532 O 51.9113 -0.448454 1.72775 0
M  V30 533 C 49.0113 -0.755962 3.30361 0
M  V30 534 C 48.1843 0.00456686 4.374 0
M  V30 535 C 47.2433 -0.858876 5.19143 0
M  V30 536 O 46.2693 -0.306968 5.68372 0
M  V30 537 N 47.4713 -2.17988 5.38016 0
M  V30 538 H 50.2363 0.991105 2.82838 0
M  V30 539 H 47.7973 0.670561 1.4736 0
M  V30 540 H 49.7893 -1.338 3.81942 0
M  V30 541 H 48.3593 -1.46001 2.7641 0
M  V30 542 H 47.5793 0.767865 3.86649 0
M  V30 543 H 48.8673 0.528422 5.06049 0
M  V30 544 H 48.2653 -2.65212 4.99679 0
M  V30 545 H 46.8223 -2.71098 5.92747 0
M  V30 546 N 50.2554 -1.46986 0.568584 0
M  V30 547 C 51.4834 -2.0683 0.0539956 0
M  V30 548 C 51.8984 -1.41953 -1.24478 0
M  V30 549 O 51.2554 -0.519933 -1.74937 0
M  V30 550 C 51.3064 -3.61254 -0.133362 0
M  V30 551 O 51.0274 -4.237 1.11399 0
M  V30 552 C 52.5284 -4.37992 -0.683927 0
M  V30 553 H 49.7484 -0.669058 0.0510141 0
M  V30 554 H 52.2924 -1.88824 0.785234 0
M  V30 555 H 50.4474 -3.78735 -0.81477 0
M  V30 556 H 50.8614 -5.16388 0.91888 0
M  V30 557 H 52.3354 -5.46684 -0.764263 0
M  V30 558 H 52.8124 -4.05058 -1.69778 0
M  V30 559 H 53.4184 -4.25283 -0.0378494 0
M  V30 560 N 51.7335 -0.305618 -1.54608 0
M  V30 561 C 53.1495 0.0476228 -1.59529 0
M  V30 562 C 53.3495 1.52025 -1.32252 0
M  V30 563 O 52.4055 2.27368 -1.09818 0
M  V30 564 C 53.7185 -0.354471 -2.98603 0
M  V30 565 C 55.2665 -0.303622 -3.11524 0
M  V30 566 C 55.7415 -0.680608 -4.52915 0
M  V30 567 N 57.2325 -0.63332 -4.5885 0
M  V30 568 C 57.9675 -0.897432 -5.66334 0
M  V30 569 N 57.4635 -1.22775 -6.81834 0
M  V30 570 N 59.2565 -0.824186 -5.56025 0
M  V30 571 H 51.4075 -1.2653 -1.70599 0
M  V30 572 H 53.6705 -0.513291 -0.797017 0
M  V30 573 H 53.3765 -1.3798 -3.23503 0
M  V30 574 H 53.2505 0.289568 -3.76087 0
M  V30 575 H 55.6375 0.712472 -2.8637 0
M  V30 576 H 55.7185 -0.982348 -2.36185 0
M  V30 577 H 55.3625 -1.69453 -4.78799 0
M  V30 578 H 55.2925 0.0202385 -5.26596 0
M  V30 579 H 57.7835 -0.389138 -3.75891 0
M  V30 580 H 58.0965 -1.41513 -7.59733 0
M  V30 581 H 56.4415 -1.26583 -6.83375 0
M  V30 582 H 59.6325 -0.565748 -4.64669 0
M  V30 583 H 59.8055 -1.03338 -6.39707 0
M  V30 584 N 53.2116 1.57565 -0.0334293 0
M  V30 585 C 54.1436 2.0739 0.975811 0
M  V30 586 C 55.1566 0.998166 1.2861 0
M  V30 587 O 56.3456 1.27426 1.25 0
M  V30 588 C 53.4456 2.4871 2.30209 0
M  V30 589 C 52.6186 3.79413 2.17634 0
M  V30 590 C 51.6776 4.07237 3.33233 0
M  V30 591 O 50.7036 4.77425 3.09927 0
M  V30 592 N 51.9056 3.5775 4.5716 0
M  V30 593 H 54.6706 2.94598 0.55066 0
M  V30 594 H 52.2316 1.61173 0.15323 0
M  V30 595 H 54.2236 2.64413 3.06378 0
M  V30 596 H 52.7936 1.66845 2.64351 0
M  V30 597 H 52.0136 3.73465 1.26165 0
M  V30 598 H 53.3016 4.65038 2.0644 0
M  V30 599 H 52.6996 3.00976 4.78989 0
M  V30 600 H 51.2566 3.78724 5.30482 0
M  V30 601 N 54.6897 -0.239769 1.55765 0
M  V30 602 C 55.9367 -0.966801 1.7793 0
M  V30 603 C 56.2647 -1.85046 0.599015 0
M  V30 604 O 55.5197 -1.91197 -0.417395 0
M  V30 605 C 55.8187 -1.852 3.05672 0
M  V30 606 C 55.4847 -1.1231 4.36689 0
M  V30 607 C 54.1467 -0.921689 4.72291 0
M  V30 608 C 56.4987 -0.607019 5.17653 0
M  V30 609 C 53.8267 -0.191996 5.86386 0
M  V30 610 C 56.1787 0.109241 6.32506 0
M  V30 611 C 54.8427 0.322073 6.66723 0
M  V30 612 H 54.1127 -0.353778 0.651093 0
M  V30 613 H 56.7597 -0.23634 1.90036 0
M  V30 614 H 55.0647 -2.64975 2.8861 0
M  V30 615 H 56.7617 -2.41635 3.20021 0
M  V30 616 H 53.3517 -1.29004 4.08725 0
M  V30 617 H 57.5357 -0.750153 4.90598 0
M  V30 618 H 52.7917 -0.0166949 6.11398 0
M  V30 619 H 56.9657 0.516737 6.9448 0
M  V30 620 H 54.5927 0.88944 7.54979 0
M  V30 621 N 56.1678 -1.49265 -0.50573 0
M  V30 622 C 57.1148 -1.65585 -1.6078 0
M  V30 623 C 58.0848 -0.497396 -1.58478 0
M  V30 624 O 59.2698 -0.72385 -1.76536 0
M  V30 625 C 56.4098 -1.72408 -2.98948 0
M  V30 626 C 55.5228 -2.99525 -3.11301 0
M  V30 627 C 54.6578 -2.97356 -4.40174 0
M  V30 628 C 53.6968 -4.19074 -4.46143 0
M  V30 629 N 52.8338 -4.14841 -5.66437 0
M  V30 630 H 57.6738 -2.59688 -1.46172 0
M  V30 631 H 55.2108 -1.28761 -0.711261 0
M  V30 632 H 57.1688 -1.74344 -3.79025 0
M  V30 633 H 55.7988 -0.817753 -3.1227 0
M  V30 634 H 54.8508 -3.07222 -2.24318 0
M  V30 635 H 56.1628 -3.89518 -3.11572 0
M  V30 636 H 55.3168 -2.97829 -5.28567 0
M  V30 637 H 54.0558 -2.05133 -4.42461 0
M  V30 638 H 53.0608 -4.1885 -3.56153 0
M  V30 639 H 54.2858 -5.12483 -4.45575 0
M  V30 640 H 52.2318 -3.25453 -5.69575 0
M  V30 641 H 52.1488 -4.98564 -5.68304 0
M  V30 642 H 53.4168 -4.1941 -6.57051 0
M  V30 643 N 57.6459 0.756429 -1.3826 0
M  V30 644 C 58.8709 1.55077 -1.37717 0
M  V30 645 C 59.2959 1.88073 0.03164 0
M  V30 646 O 58.6539 1.50364 1.01293 0
M  V30 647 C 58.7019 2.8283 -2.23695 0
M  V30 648 O 57.8059 3.77862 -1.6521 0
M  V30 649 H 57.1469 0.469152 -0.469885 0
M  V30 650 H 59.6769 0.935019 -1.81985 0
M  V30 651 H 59.6869 3.31783 -2.37453 0
M  V30 652 H 58.3619 2.58144 -3.2609 0
M  V30 653 H 56.9389 3.36555 -1.60578 0
M  V30 654 N 59.124 1.23083 0.984299 0
M  V30 655 C 60.071 1.00854 2.07598 0
M  V30 656 C 61.041 -0.0726709 1.65941 0
M  V30 657 O 62.226 0.0786535 1.90638 0
M  V30 658 C 59.366 0.601645 3.39815 0
M  V30 659 C 58.479 1.75456 3.94765 0
M  V30 660 C 57.614 1.29482 5.15177 0
M  V30 661 C 56.653 2.41873 5.62284 0
M  V30 662 N 55.79 1.96885 6.73929 0
M  V30 663 H 60.63 1.943 2.25946 0
M  V30 664 H 58.167 0.968001 1.10762 0
M  V30 665 H 60.125 0.346854 4.15756 0
M  V30 666 H 58.755 -0.295803 3.21442 0
M  V30 667 H 57.807 2.12346 3.15616 0
M  V30 668 H 59.119 2.59965 4.25699 0
M  V30 669 H 58.273 0.997923 5.98437 0
M  V30 670 H 57.012 0.420046 4.85888 0
M  V30 671 H 56.017 2.72342 4.77608 0
M  V30 672 H 57.242 3.29881 5.93595 0
M  V30 673 H 55.188 1.11782 6.46406 0
M  V30 674 H 55.105 2.74956 7.04227 0
M  V30 675 H 56.373 1.70289 7.60672 0
M  V30 676 N 60.6021 -1.18246 1.0419 0
M  V30 677 C 62.0131 -1.69914 0.773698 0
M  V30 678 C 62.3641 -1.83085 -0.705297 0
M  V30 679 O 61.4891 -1.51123 -1.5489 0
M  V30 680 C 62.0841 -3.08619 1.39784 0
M  V30 681 C 60.6431 -3.57494 1.17792 0
M  V30 682 C 59.7901 -2.34013 1.48773 0
M  V30 683 H 62.7411 -1.02904 1.20816 0
M  V30 684 H 62.7621 -3.71958 0.801714 0
M  V30 685 H 62.2741 -2.99001 2.47426 0
M  V30 686 H 60.3751 -3.72406 0.120295 0
M  V30 687 H 60.4881 -4.40852 1.87581 0
M  V30 688 H 58.8521 -2.37986 0.907463 0
M  V30 689 H 59.6351 -2.27013 2.57527 0
M  V30 690 N 62.0802 -0.821533 -1.34494 0
M  V30 691 C 63.4912 -0.467956 -1.8074 0
M  V30 692 C 63.8422 1.01151 -1.68116 0
M  V30 693 O 62.9672 1.78707 -1.22036 0
M  V30 694 C 63.5622 -0.842627 -3.28154 0
M  V30 695 C 62.1212 -0.541439 -3.72485 0
M  V30 696 C 61.2682 -1.06028 -2.56229 0
M  V30 697 H 64.2192 -1.01183 -1.22261 0
M  V30 698 H 64.2402 -0.145876 -3.8022 0
M  V30 699 H 63.7522 -1.91945 -3.37311 0
M  V30 700 H 61.8532 0.526034 -3.68868 0
M  V30 701 H 61.9662 -1.08453 -4.66663 0
M  V30 702 H 60.3302 -0.481892 -2.501 0
M  V30 703 H 61.1132 -2.14352 -2.68157 0
M  V30 704 N 63.5583 1.46682 -0.576371 0
M  V30 705 C 64.5053 2.30241 0.160499 0
M  V30 706 C 65.4753 1.40233 0.890162 0
M  V30 707 O 66.6603 1.69186 0.882084 0
M  V30 708 C 63.8003 3.24578 1.1723 0
M  V30 709 C 62.9133 4.29684 0.446736 0
M  V30 710 C 62.0483 5.11154 1.44551 0
M  V30 711 C 61.0873 6.08015 0.70599 0
M  V30 712 N 60.2243 6.82376 1.65251 0
M  V30 713 H 65.0643 2.92727 -0.558127 0
M  V30 714 H 62.6013 1.44272 -0.287056 0
M  V30 715 H 64.5593 3.77711 1.77172 0
M  V30 716 H 63.1893 2.63916 1.85872 0
M  V30 717 H 62.2413 3.79458 -0.267594 0
M  V30 718 H 63.5533 4.98626 -0.131686 0
M  V30 719 H 62.7073 5.68533 2.11791 0
M  V30 720 H 61.4463 4.42158 2.05786 0
M  V30 721 H 60.4513 5.49796 0.0197725 0
M  V30 722 H 61.6763 6.79028 0.09912 0
M  V30 723 H 59.6223 6.16094 2.25308 0
M  V30 724 H 59.5393 7.47556 1.12673 0
M  V30 725 H 60.8073 7.44316 2.31546 0
M  V30 726 N 65.0364 0.313813 1.54444 0
M  V30 727 C 65.9834 -0.55655 2.23989 0
M  V30 728 C 66.9534 -1.11943 1.22711 0
M  V30 729 O 68.1384 -1.16158 1.51367 0
M  V30 730 C 65.2784 -1.71635 2.99392 0
M  V30 731 C 64.3914 -1.18364 4.15468 0
M  V30 732 C 63.5264 -2.30834 4.78424 0
M  V30 733 C 62.5654 -1.74762 5.86622 0
M  V30 734 N 61.7024 -2.80855 6.43479 0
M  V30 735 H 66.5424 0.0430893 2.97969 0
M  V30 736 H 64.0794 0.0330359 1.47063 0
M  V30 737 H 66.0374 -2.39868 3.41349 0
M  V30 738 H 64.6674 -2.28742 2.27765 0
M  V30 739 H 63.7194 -0.393163 3.78363 0
M  V30 740 H 65.0314 -0.733262 4.93381 0
M  V30 741 H 64.1854 -3.0699 5.23299 0
M  V30 742 H 62.9244 -2.79204 3.99871 0
M  V30 743 H 61.9294 -0.970995 5.41158 0
M  V30 744 H 63.1544 -1.2728 6.67066 0
M  V30 745 H 61.1004 -3.28535 5.67804 0
M  V30 746 H 61.0174 -2.40351 7.16776 0
M  V30 747 H 62.2854 -3.5687 6.93011 0
M  V30 748 N 66.5145 -1.57545 0.0417849 0
M  V30 749 C 67.7625 -1.91937 -0.632829 0
M  V30 750 C 68.0835 -0.919978 -1.71934 0
M  V30 751 O 67.3535 0.0366064 -1.95866 0
M  V30 752 H 65.9335 -0.708493 -0.236742 0
M  V30 753 H 68.5955 -1.9468 0.0925745 0
M  V30 754 H 67.6915 -2.92912 -1.07746 0
M  V30 755 N 67.9926 0.231505 -1.5589 0
M  V30 756 C 69.2386 0.95877 -1.78705 0
M  V30 757 C 69.5716 1.8438 -0.609725 0
M  V30 758 O 68.8466 1.90521 0.391426 0
M  V30 759 C 69.1296 1.8062 -3.11526 0
M  V30 760 C 68.9826 0.948328 -4.39689 0
M  V30 761 C 70.3016 2.78585 -3.40703 0
M  V30 762 H 67.4206 0.347129 -0.650131 0
M  V30 763 H 70.0626 0.228259 -1.88624 0
M  V30 764 H 68.2126 2.42902 -3.03201 0
M  V30 765 H 69.8846 0.343016 -4.60023 0
M  V30 766 H 68.1276 0.253314 -4.3306 0
M  V30 767 H 68.7986 1.57543 -5.29041 0
M  V30 768 H 71.2746 2.26439 -3.49091 0
M  V30 769 H 70.1506 3.34988 -4.34826 0
M  V30 770 H 70.4116 3.55825 -2.62375 0
M  V30 771 N 69.4707 1.49531 0.497807 0
M  V30 772 C 70.4027 1.62559 1.61578 0
M  V30 773 C 71.4157 0.508134 1.54667 0
M  V30 774 O 72.6047 0.780309 1.60541 0
M  V30 775 C 69.7047 1.56925 3.00379 0
M  V30 776 C 68.8777 2.84257 3.3244 0
M  V30 777 C 67.9367 2.71632 4.50669 0
M  V30 778 O 66.9627 3.4557 4.52294 0
M  V30 779 N 68.1647 1.83391 5.5077 0
M  V30 780 H 70.9297 2.58981 1.50828 0
M  V30 781 H 68.4907 1.4666 0.685743 0
M  V30 782 H 70.4827 1.46129 3.77397 0
M  V30 783 H 69.0527 0.683483 3.05037 0
M  V30 784 H 68.2727 3.09381 2.44289 0
M  V30 785 H 69.5607 3.68666 3.5066 0
M  V30 786 H 68.9587 1.22583 5.52259 0
M  V30 787 H 67.5157 1.78515 6.26878 0
M  V30 788 N 70.9488 -0.749086 1.3866 0
M  V30 789 C 72.1968 -1.50535 1.34847 0
M  V30 790 C 72.5178 -1.94909 -0.0595016 0
M  V30 791 O 71.7878 -1.67973 -1.00806 0
M  V30 792 H 70.3678 -0.558395 0.49619 0
M  V30 793 H 73.0298 -0.890165 1.73384 0
M  V30 794 H 72.1258 -2.39413 2.00219 0
M  V30 795 N 72.4269 -1.23603 -0.977757 0
M  V30 796 C 73.6739 -1.06971 -1.71941 0
M  V30 797 C 74.0019 0.393009 -1.90488 0
M  V30 798 O 73.2569 1.30719 -1.4564 0
M  V30 799 C 73.5559 -1.7433 -3.11999 0
M  V30 800 C 73.2219 -3.24252 -3.13323 0
M  V30 801 C 71.8839 -3.65156 -3.13392 0
M  V30 802 C 74.2359 -4.20141 -3.08433 0
M  V30 803 C 71.5639 -5.00403 -3.0629 0
M  V30 804 C 73.9159 -5.55384 -3.02873 0
M  V30 805 C 72.5799 -5.95647 -3.01265 0
M  V30 806 H 71.8499 -0.391433 -0.629175 0
M  V30 807 H 74.4969 -1.53572 -1.14403 0
M  V30 808 H 72.8019 -1.20096 -3.7294 0
M  V30 809 H 74.4989 -1.58936 -3.68158 0
M  V30 810 H 71.0889 -2.91692 -3.14029 0
M  V30 811 H 75.2729 -3.89547 -3.07517 0
M  V30 812 H 70.5289 -5.3081 -3.03399 0
M  V30 813 H 74.7029 -6.29398 -2.98046 0
M  V30 814 H 72.3299 -7.0041 -2.95516 0
M  V30 815 N 73.905 1.17692 -1.04816 0
M  V30 816 C 75.153 1.87488 -0.754497 0
M  V30 817 C 75.474 1.81205 0.720407 0
M  V30 818 O 74.744 1.23544 1.52032 0
M  V30 819 H 73.324 0.694101 -0.276102 0
M  V30 820 H 75.986 1.42793 -1.32651 0
M  V30 821 H 75.082 2.93328 -1.06606 0
M  V30 822 N 75.3831 0.828654 1.34056 0
M  V30 823 C 76.6601 0.341809 1.9259 0
M  V30 824 C 77.0401 -1.17158 1.75605 0
M  V30 825 O 76.3881 -1.98132 1.13824 0
M  V30 826 C 76.5981 0.777453 3.4023 0
M  V30 827 C 77.9461 0.779579 4.17382 0
M  V30 828 O 78.9701 0.7204 3.48839 0
M  V30 829 O 77.8291 0.857996 5.39723 0
M  V30 830 H 74.9231 0.0946085 0.821571 0
M  V30 831 H 77.4691 0.913827 1.42994 0
M  V30 832 H 76.2411 1.8196 3.46419 0
M  V30 833 H 75.8641 0.181444 3.97186 0
M  V30 834 N 76.8612 -1.46375 0.584142 0
M  V30 835 C 78.1382 -1.956 0.0033388 0
M  V30 836 C 78.5182 -1.52679 -1.45782 0
M  V30 837 O 77.8662 -0.77816 -2.14842 0
M  V30 838 C 78.0762 -3.48551 0.176891 0
M  V30 839 C 79.4242 -4.24576 0.0454609 0
M  V30 840 O 80.4482 -3.56043 0.105801 0
M  V30 841 O 79.3072 -5.46427 -0.0890376 0
M  V30 842 H 76.4012 -0.825547 -0.0490066 0
M  V30 843 H 78.9472 -1.56652 0.65256 0
M  V30 844 H 77.7192 -3.72683 1.1926 0
M  V30 845 H 77.3422 -3.94332 -0.508695 0
M  V30 846 N 78.3393 -0.321999 -1.54275 0
M  V30 847 C 79.5883 0.281931 -1.9972 0
M  V30 848 C 79.9013 1.53369 -1.21397 0
M  V30 849 O 81.1073 2.21352 -1.57211 0
M  V30 850 C 79.5633 0.5529 -3.55628 0
M  V30 851 C 79.1713 -0.681721 -4.42783 0
M  V30 852 C 80.9153 1.11687 -4.09544 0
M  V30 853 C 78.8223 -0.382742 -5.9016 0
M  V30 854 H 77.7523 0.109124 -0.746062 0
M  V30 855 H 80.4033 -0.43398 -1.78294 0
M  V30 856 H 78.7853 1.32896 -3.73035 0
M  V30 857 H 79.9593 -1.45723 -4.37151 0
M  V30 858 H 78.2743 -1.1658 -3.99748 0
M  V30 859 H 80.8713 1.35515 -5.17242 0
M  V30 860 H 81.2143 2.06575 -3.61431 0
M  V30 861 H 81.7473 0.402032 -3.95763 0
M  V30 862 H 78.4863 -1.30076 -6.42464 0
M  V30 863 H 78.0063 0.355094 -5.98748 0
M  V30 864 H 79.6853 0.00800157 -6.47 0
M  V30 865 N 79.8174 1.5752 -0.0501392 0
M  V30 866 C 81.2284 1.80271 0.485705 0
M  V30 867 C 81.5794 0.96228 1.70981 0
M  V30 868 O 80.7044 0.178578 2.15662 0
M  V30 869 C 81.2994 3.26957 0.887938 0
M  V30 870 C 79.8584 3.5063 1.36877 0
M  V30 871 C 79.0054 2.75165 0.343468 0
M  V30 872 H 81.9564 1.56281 -0.276028 0
M  V30 873 H 81.9774 3.37821 1.75093 0
M  V30 874 H 81.4894 3.881 -0.0031809 0
M  V30 875 H 79.5904 2.94766 2.27911 0
M  V30 876 H 79.7034 4.59343 1.36164 0
M  V30 877 H 78.0674 2.4127 0.816128 0
M  V30 878 H 78.8504 3.39034 -0.539548 0
M  V30 879 N 81.2955 -0.223234 1.56011 0
M  V30 880 C 82.5435 -0.946003 1.78592 0
M  V30 881 C 82.8645 -1.84936 0.618349 0
M  V30 882 O 82.1345 -1.92473 -0.364833 0
M  V30 883 H 80.7145 -0.352298 0.658707 0
M  V30 884 H 83.3765 -0.235494 1.93472 0
M  V30 885 H 82.4725 -1.55381 2.70672 0
M  V30 886 N 82.7736 -1.49793 -0.48987 0
M  V30 887 C 83.7066 -1.61898 -1.60823 0
M  V30 888 C 84.6846 -0.467651 -1.5573 0
M  V30 889 O 85.8686 -0.684682 -1.75626 0
M  V30 890 C 82.9956 -1.58422 -2.99366 0
M  V30 891 C 82.0416 -2.78889 -3.22682 0
M  V30 892 S 82.8746 -4.40429 -3.04602 0
M  V30 893 C 84.0306 -4.39617 -4.4552 0
M  V30 894 H 84.2636 -2.56502 -1.50312 0
M  V30 895 H 81.7966 -1.38822 -0.675849 0
M  V30 896 H 83.7546 -1.57103 -3.79248 0
M  V30 897 H 82.4156 -0.650866 -3.07283 0
M  V30 898 H 81.6086 -2.72708 -4.23847 0
M  V30 899 H 81.2106 -2.77678 -2.50541 0
M  V30 900 H 83.5026 -4.12022 -5.37814 0
M  V30 901 H 84.4456 -5.41097 -4.56749 0
M  V30 902 H 84.8536 -3.69554 -4.2672 0
M  V30 903 N 84.2517 0.741722 -1.39055 0
M  V30 904 C 85.1617 1.88621 -1.39496 0
M  V30 905 C 86.1777 1.71557 -0.290578 0
M  V30 906 O 87.3537 1.94275 -0.530954 0
M  V30 907 C 84.4187 3.24134 -1.23037 0
M  V30 908 C 83.4797 3.5364 -2.43387 0
M  V30 909 C 82.7127 4.82687 -2.27703 0
M  V30 910 O 82.9357 5.55922 -1.27696 0
M  V30 911 O 81.8697 5.1194 -3.16545 0
M  V30 912 H 85.6957 1.91203 -2.35956 0
M  V30 913 H 83.2807 0.888625 -1.20099 0
M  V30 914 H 85.1627 4.0513 -1.15964 0
M  V30 915 H 83.8377 3.22337 -0.296691 0
M  V30 916 H 82.7447 2.72758 -2.56035 0
M  V30 917 H 84.0777 3.60209 -3.35425 0
M  V30 918 N 85.7298 1.2412 0.971189 0
M  V30 919 C 86.9778 1.07668 1.71032 0
M  V30 920 C 87.2988 -0.385797 1.91146 0
M  V30 921 O 86.5688 -1.27569 1.4867 0
M  V30 922 H 85.1488 0.395429 0.633755 0
M  V30 923 H 87.8108 1.55984 1.16855 0
M  V30 924 H 86.9068 1.57195 2.69622 0
M  V30 925 N 87.2079 -1.17134 1.05439 0
M  V30 926 C 88.1379 -2.2342 0.678649 0
M  V30 927 C 89.1189 -1.66971 -0.32476 0
M  V30 928 O 90.3039 -1.93149 -0.201802 0
M  V30 929 C 87.4339 -3.47256 0.0552099 0
M  V30 930 C 86.3879 -4.16543 0.98365 0
M  V30 931 C 85.7139 -5.34231 0.223961 0
M  V30 932 C 87.0139 -4.68495 2.3089 0
M  V30 933 H 88.7079 -2.55105 1.56722 0
M  V30 934 H 86.2539 -1.2262 0.754998 0
M  V30 935 H 88.2069 -4.20828 -0.21946 0
M  V30 936 H 86.9309 -3.14846 -0.868319 0
M  V30 937 H 85.5899 -3.44887 1.24293 0
M  V30 938 H 85.2379 -4.98071 -0.702412 0
M  V30 939 H 84.9379 -5.81527 0.842627 0
M  V30 940 H 86.4619 -6.10585 -0.0433671 0
M  V30 941 H 87.8759 -5.33691 2.09396 0
M  V30 942 H 86.2729 -5.26379 2.88176 0
M  V30 943 H 87.3429 -3.85169 2.94572 0
M  V30 944 N 88.686 -0.835752 -1.33615 0
M  V30 945 C 89.934 -0.429109 -1.97492 0
M  V30 946 C 90.255 1.01433 -1.66543 0
M  V30 947 O 89.525 1.70611 -0.962744 0
M  V30 948 H 88.105 -0.155686 -0.730596 0
M  V30 949 H 90.767 -1.06802 -1.63031 0
M  V30 950 H 89.863 -0.55861 -3.0706 0
M  V30 951 N 90.1641 1.46063 -0.591896 0
M  V30 952 C 91.3921 2.06717 -0.0868936 0
M  V30 953 C 91.8071 1.43916 1.22203 0
M  V30 954 O 91.1641 0.547698 1.74088 0
M  V30 955 C 91.2151 3.6142 0.0758725 0
M  V30 956 O 90.9361 4.21874 -1.18126 0
M  V30 957 C 92.4371 4.39025 0.61416 0
M  V30 958 H 89.6571 0.668162 -0.0616518 0
M  V30 959 H 92.2011 1.8755 -0.815175 0
M  V30 960 H 90.3561 3.79983 0.754413 0
M  V30 961 H 90.7701 5.14861 -1.00092 0
M  V30 962 H 92.2441 5.4783 0.677193 0
M  V30 963 H 92.7211 4.07708 1.63312 0
M  V30 964 H 93.3271 4.2529 -0.0298142 0
M  V30 965 N 91.6422 0.330177 1.54103 0
M  V30 966 C 92.9192 -0.325007 1.92881 0
M  V30 967 C 93.2992 -1.6934 1.26045 0
M  V30 968 O 92.6472 -2.24855 0.406526 0
M  V30 969 C 92.8572 -0.410634 3.46576 0
M  V30 970 C 94.2052 -0.667801 4.19316 0
M  V30 971 O 95.2292 -0.49329 3.52768 0
M  V30 972 O 94.0882 -1.00491 5.37181 0
M  V30 973 H 91.1822 -0.186873 0.80561 0
M  V30 974 H 93.7282 0.380376 1.65382 0
M  V30 975 H 92.5002 0.550164 3.87413 0
M  V30 976 H 92.1232 -1.16333 3.802 0
M  V30 977 N 93.1203 -1.57491 0.0584922 0
M  V30 978 C 94.3693 -1.92155 -0.613146 0
M  V30 979 C 94.6823 -0.939334 -1.71569 0
M  V30 980 O 95.8883 -1.17829 -2.44599 0
M  V30 981 C 94.3443 -3.41303 -1.14195 0
M  V30 982 C 93.9523 -4.47944 -0.0711265 0
M  V30 983 C 95.6963 -3.84988 -1.78841 0
M  V30 984 C 93.6033 -5.88212 -0.613225 0
M  V30 985 H 92.5333 -0.717162 -0.232796 0
M  V30 986 H 95.1843 -1.83049 0.12857 0
M  V30 987 H 93.5663 -3.45437 -1.93621 0
M  V30 988 H 94.7403 -4.55408 0.702836 0
M  V30 989 H 93.0553 -4.13644 0.478313 0
M  V30 990 H 95.6523 -4.87159 -2.20408 0
M  V30 991 H 95.9953 -3.21632 -2.64308 0
M  V30 992 H 96.5283 -3.83401 -1.06059 0
M  V30 993 H 93.2673 -6.55183 0.203978 0
M  V30 994 H 92.7873 -5.84294 -1.35501 0
M  V30 995 H 94.4663 -6.37687 -1.09383 0
M  V30 996 N 94.5984 0.214957 -1.56127 0
M  V30 997 C 95.8264 0.955092 -1.83536 0
M  V30 998 C 96.2414 1.77677 -0.638472 0
M  V30 999 O 95.5984 1.78219 0.392968 0
M  V30 1000 C 95.6494 1.86734 -3.09536 0
M  V30 1001 O 95.3704 1.07887 -4.24608 0
M  V30 1002 C 96.8714 2.72082 -3.4998 0
M  V30 1003 H 94.0914 0.279611 -0.609966 0
M  V30 1004 H 96.6354 0.228197 -2.03223 0
M  V30 1005 H 94.7904 2.5481 -2.91806 0
M  V30 1006 H 95.2044 1.69872 -4.9623 0
M  V30 1007 H 96.6784 3.31782 -4.41163 0
M  V30 1008 H 97.1554 3.44806 -2.7204 0
M  V30 1009 H 97.7614 2.09409 -3.70173 0
M  V30 1010 N 96.0765 1.50051 0.48192 0
M  V30 1011 C 97.3225 1.60736 1.2366 0
M  V30 1012 C 97.6555 0.301786 1.91841 0
M  V30 1013 O 96.9305 -0.696025 1.8162 0
M  V30 1014 C 97.2135 2.78009 2.28874 0
M  V30 1015 C 97.0665 4.18416 1.65069 0
M  V30 1016 C 98.3855 2.90867 3.30279 0
M  V30 1017 H 95.5045 0.585031 0.448228 0
M  V30 1018 H 98.1465 1.82402 0.531946 0
M  V30 1019 H 96.2965 2.59667 2.88973 0
M  V30 1020 H 97.9685 4.48322 1.0865 0
M  V30 1021 H 96.2115 4.23177 0.954148 0
M  V30 1022 H 96.8825 4.96381 2.41474 0
M  V30 1023 H 99.3585 3.07623 2.80191 0
M  V30 1024 H 98.2345 3.74566 4.01238 0
M  V30 1025 H 98.4955 2.01021 3.93755 0
M  V30 1026 N 97.5546 -0.734337 1.39446 0
M  V30 1027 C 98.8036 -1.48937 1.36017 0
M  V30 1028 C 99.1166 -1.95557 -0.0409005 0
M  V30 1029 O 100.323 -2.70779 -0.19778 0
M  V30 1030 C 98.7786 -2.69125 2.38955 0
M  V30 1031 C 98.3866 -2.29452 3.8478 0
M  V30 1032 C 100.131 -3.46944 2.44603 0
M  V30 1033 C 98.0376 -3.46366 4.79358 0
M  V30 1034 H 96.9676 -0.559296 0.505672 0
M  V30 1035 H 99.6186 -0.800983 1.65095 0
M  V30 1036 H 98.0006 -3.40041 2.02948 0
M  V30 1037 H 99.1746 -1.66077 4.29831 0
M  V30 1038 H 97.4896 -1.64723 3.82433 0
M  V30 1039 H 100.087 -4.33907 3.12456 0
M  V30 1040 H 100.43 -3.89454 1.47076 0
M  V30 1041 H 100.963 -2.83056 2.79507 0
M  V30 1042 H 97.7016 -3.08905 5.78151 0
M  V30 1043 H 97.2216 -4.08719 4.38986 0
M  V30 1044 H 98.9006 -4.12691 4.98292 0
M  V30 1045 N 99.0327 -1.24633 -0.964593 0
M  V30 1046 C 100.273 -1.09981 -1.72289 0
M  V30 1047 C 100.637 0.354792 -1.88693 0
M  V30 1048 O 101.838 0.62289 -2.61483 0
M  V30 1049 C 100.109 -1.82262 -3.07434 0
M  V30 1050 S 101.668 -1.83379 -3.98645 0
M  V30 1051 H 98.4857 -0.393292 -0.59232 0
M  V30 1052 H 101.088 -1.58009 -1.15123 0
M  V30 1053 H 99.7917 -2.87206 -2.93157 0
M  V30 1054 H 99.3227 -1.3458 -3.69664 0
M  V30 1055 H 101.338 -0.903691 -4.87901 0
M  V30 1056 N 100.511 1.16574 -1.06058 0
M  V30 1057 C 101.922 1.68662 -0.800632 0
M  V30 1058 C 102.273 1.84184 0.67608 0
M  V30 1059 O 101.398 1.53568 1.52466 0
M  V30 1060 C 101.993 3.06356 -1.44676 0
M  V30 1061 C 100.552 3.55575 -1.23465 0
M  V30 1062 C 99.6988 2.31616 -1.52477 0
M  V30 1063 H 102.65 1.00969 -1.22438 0
M  V30 1064 H 102.671 3.70636 -0.860788 0
M  V30 1065 H 102.183 2.95027 -2.52152 0
M  V30 1066 H 100.284 3.72167 -0.179527 0
M  V30 1067 H 100.397 4.37812 -1.94571 0
M  V30 1068 H 98.7608 2.36512 -0.945209 0
M  V30 1069 H 99.5438 2.22887 -2.61106 0
M  V30 1070 N 101.989 0.842826 1.3317 0
M  V30 1071 C 103.235 0.450342 1.98352 0
M  V30 1072 C 103.59 -0.980508 1.65541 0
M  V30 1073 O 102.883 -1.67678 0.927065 0
M  V30 1074 C 103.077 0.612607 3.52111 0
M  V30 1075 C 102.906 2.05768 3.99862 0
M  V30 1076 C 101.676 2.69374 4.27511 0
M  V30 1077 C 103.874 3.02688 4.15794 0
M  V30 1078 N 101.856 4.04915 4.61429 0
M  V30 1079 C 103.227 4.23186 4.53115 0
M  V30 1080 C 105.282 2.99041 3.98094 0
M  V30 1081 C 103.985 5.40518 4.74587 0
M  V30 1082 C 106.011 4.15607 4.20743 0
M  V30 1083 C 105.373 5.3486 4.58371 0
M  V30 1084 H 101.472 0.213296 0.752349 0
M  V30 1085 H 104.056 1.09173 1.61212 0
M  V30 1086 H 102.227 0.000998822 3.884 0
M  V30 1087 H 103.959 0.191179 4.04248 0
M  V30 1088 H 100.714 2.20485 4.19146 0
M  V30 1089 H 101.138 4.74798 4.82593 0
M  V30 1090 H 105.78 2.0797 3.68114 0
M  V30 1091 H 103.498 6.3213 5.03425 0
M  V30 1092 H 107.084 4.14207 4.08563 0
M  V30 1093 H 105.964 6.23558 4.75547 0
M  V30 1094 N 103.467 -1.45747 0.599634 0
M  V30 1095 C 104.377 -2.34262 -0.125888 0
M  V30 1096 C 105.393 -1.50768 -0.868625 0
M  V30 1097 O 106.569 -1.83592 -0.828003 0
M  V30 1098 C 103.634 -3.28252 -1.11587 0
M  V30 1099 C 102.695 -4.27651 -0.375956 0
M  V30 1100 C 101.928 -5.1715 -1.31877 0
M  V30 1101 O 102.151 -5.09916 -2.55621 0
M  V30 1102 O 101.085 -5.96286 -0.820157 0
M  V30 1103 H 104.911 -2.97688 0.601315 0
M  V30 1104 H 102.496 -1.44999 0.359934 0
M  V30 1105 H 104.378 -3.86191 -1.68626 0
M  V30 1106 H 103.053 -2.67401 -1.82424 0
M  V30 1107 H 101.96 -3.7335 0.236698 0
M  V30 1108 H 103.293 -4.91334 0.29177 0
M  V30 1109 N 104.945 -0.338344 -1.53925 0
M  V30 1110 C 105.908 0.508299 -2.23493 0
M  V30 1111 C 106.908 1.03175 -1.23335 0
M  V30 1112 O 108.098 0.921826 -1.47811 0
M  V30 1113 C 105.23 1.70754 -2.95052 0
M  V30 1114 H 106.423 -0.100058 -2.99733 0
M  V30 1115 H 103.976 -0.0896198 -1.56043 0
M  V30 1116 H 104.711 2.35474 -2.22986 0
M  V30 1117 H 104.496 1.33946 -3.68512 0
M  V30 1118 H 105.986 2.30818 -3.48013 0
M  V30 1119 N 106.423 1.57458 -0.0668435 0
M  V30 1120 C 107.67 1.93301 0.603406 0
M  V30 1121 C 107.998 0.946486 1.69917 0
M  V30 1122 O 107.253 -0.0387021 1.95662 0
M  V30 1123 C 107.552 3.35784 1.22409 0
M  V30 1124 C 107.218 4.50179 0.254955 0
M  V30 1125 C 105.88 4.81199 -0.0116746 0
M  V30 1126 C 108.232 5.19598 -0.408338 0
M  V30 1127 C 105.56 5.78978 -0.94877 0
M  V30 1128 C 107.912 6.18381 -1.33372 0
M  V30 1129 C 106.576 6.47821 -1.60887 0
M  V30 1130 H 105.846 0.707338 0.220802 0
M  V30 1131 H 108.493 1.91012 -0.136665 0
M  V30 1132 H 106.798 3.34515 2.03978 0
M  V30 1133 H 108.495 3.60804 1.74989 0
M  V30 1134 H 105.085 4.25983 0.472954 0
M  V30 1135 H 109.269 4.95832 -0.215456 0
M  V30 1136 H 104.525 6.00115 -1.16925 0
M  V30 1137 H 108.699 6.71277 -1.85367 0
M  V30 1138 H 106.326 7.23399 -2.33661 0
M  V30 1139 N 107.901 -0.206675 1.56239 0
M  V30 1140 C 108.849 -1.27571 1.94495 0
M  V30 1141 C 109.843 -1.47737 0.828862 0
M  V30 1142 O 111.049 -1.48735 1.0138 0
M  V30 1143 H 107.424 -0.428029 0.6183 0
M  V30 1144 H 109.395 -0.925961 2.8367 0
M  V30 1145 C 108.144 -2.61568 2.29079 0
M  V30 1146 H 107.467 -2.46863 3.14482 0
M  V30 1147 H 108.907 -3.35144 2.5972 0
M  V30 1148 C 107.366 -3.17695 1.12123 0
M  V30 1149 O 107.896 -3.99801 0.390153 0
M  V30 1150 N 106.102 -2.76276 0.901097 0
M  V30 1151 H 105.649 -2.09613 1.49733 0
M  V30 1152 H 105.607 -3.1417 0.120319 0
M  V30 1153 N 109.379 -1.50304 -0.473955 0
M  V30 1154 C 110.329 -1.65347 -1.56985 0
M  V30 1155 C 111.313 -0.508176 -1.52664 0
M  V30 1156 O 112.505 -0.762446 -1.59737 0
M  V30 1157 C 109.634 -1.74832 -2.95447 0
M  V30 1158 C 108.72 -2.95028 -3.04662 0
M  V30 1159 N 109.111 -4.18747 -2.83698 0
M  V30 1160 C 107.409 -2.93527 -3.35795 0
M  V30 1161 C 108.11 -4.99687 -2.97805 0
M  V30 1162 N 107.086 -4.33585 -3.2788 0
M  V30 1163 H 110.888 -2.58698 -1.39472 0
M  V30 1164 H 108.402 -1.47449 -0.680629 0
M  V30 1165 H 110.399 -1.83712 -3.7424 0
M  V30 1166 H 109.059 -0.826376 -3.14008 0
M  V30 1167 H 110.07 -4.48291 -2.59337 0
M  V30 1168 H 106.747 -2.10821 -3.60362 0
M  V30 1169 H 108.137 -6.08057 -2.85861 0
M  V30 1170 N 110.857 0.726932 -1.39834 0
M  V30 1171 C 111.787 1.85405 -1.41941 0
M  V30 1172 C 112.768 1.67751 -0.281728 0
M  V30 1173 O 113.953 1.8795 -0.488717 0
M  V30 1174 C 111.083 3.23243 -1.2701 0
M  V30 1175 C 110.037 3.55549 -2.38262 0
M  V30 1176 C 109.363 4.9241 -2.08415 0
M  V30 1177 C 110.663 3.577 -3.80589 0
M  V30 1178 H 112.357 1.83899 -2.36266 0
M  V30 1179 H 109.903 0.883349 -1.13723 0
M  V30 1180 H 111.856 4.01775 -1.27103 0
M  V30 1181 H 110.58 3.25296 -0.291564 0
M  V30 1182 H 109.239 2.79351 -2.37399 0
M  V30 1183 H 108.887 4.91052 -1.0898 0
M  V30 1184 H 108.587 5.14992 -2.82943 0
M  V30 1185 H 110.111 5.73289 -2.10171 0
M  V30 1186 H 111.525 4.26293 -3.83337 0
M  V30 1187 H 109.922 3.91804 -4.54543 0
M  V30 1188 H 110.992 2.57328 -4.10987 0
M  V30 1189 N 112.336 1.25143 0.95797 0
M  V30 1190 C 113.246 1.06968 2.08794 0
M  V30 1191 C 114.262 0.00773911 1.73998 0
M  V30 1192 O 115.438 0.207972 2.00323 0
M  V30 1193 C 112.503 0.68691 3.39827 0
M  V30 1194 C 111.564 1.82641 3.88511 0
M  V30 1195 C 110.797 1.46181 5.1329 0
M  V30 1196 O 111.02 0.355971 5.69288 0
M  V30 1197 O 109.954 2.29085 5.566 0
M  V30 1198 H 113.78 2.01723 2.27027 0
M  V30 1199 H 111.365 1.04051 1.07209 0
M  V30 1200 H 113.247 0.485417 4.18595 0
M  V30 1201 H 111.922 -0.231417 3.22872 0
M  V30 1202 H 110.829 2.08274 3.10762 0
M  V30 1203 H 112.162 2.72386 4.09959 0
M  V30 1204 N 113.814 -1.1601 1.06675 0
M  V30 1205 C 114.744 -2.22688 0.702307 0
M  V30 1206 C 115.725 -1.67306 -0.307032 0
M  V30 1207 O 116.91 -1.93352 -0.181305 0
M  V30 1208 C 114.04 -3.47178 0.092038 0
M  V30 1209 C 112.994 -4.15477 1.02777 0
M  V30 1210 C 112.32 -5.33963 0.28061 0
M  V30 1211 C 113.62 -4.66019 2.35846 0
M  V30 1212 H 115.314 -2.53429 1.59419 0
M  V30 1213 H 112.86 -1.21813 0.767961 0
M  V30 1214 H 114.813 -4.21037 -0.174814 0
M  V30 1215 H 113.537 -3.15749 -0.834877 0
M  V30 1216 H 112.196 -3.43549 1.27944 0
M  V30 1217 H 111.844 -4.98788 -0.649545 0
M  V30 1218 H 111.544 -5.806 0.904258 0
M  V30 1219 H 113.068 -6.10596 0.021396 0
M  V30 1220 H 114.482 -5.3144 2.15045 0
M  V30 1221 H 112.879 -5.23293 2.93743 0
M  V30 1222 H 113.949 -3.82023 2.98641 0
M  V30 1223 N 115.292 -0.849877 -1.32721 0
M  V30 1224 C 116.242 -0.262892 -2.26479 0
M  V30 1225 C 117.226 0.588493 -1.49752 0
M  V30 1226 O 118.418 0.438659 -1.71478 0
M  V30 1227 C 115.547 0.551818 -3.38836 0
M  V30 1228 C 114.633 -0.311689 -4.22953 0
M  V30 1229 N 115.024 -1.39567 -4.86163 0
M  V30 1230 C 113.322 -0.100611 -4.45887 0
M  V30 1231 C 114.023 -1.92651 -5.48872 0
M  V30 1232 N 112.999 -1.22637 -5.29586 0
M  V30 1233 H 116.801 -1.09166 -2.72873 0
M  V30 1234 H 114.315 -0.695486 -1.46754 0
M  V30 1235 H 116.312 0.988713 -4.05006 0
M  V30 1236 H 114.972 1.37844 -2.93988 0
M  V30 1237 H 115.983 -1.77859 -4.86402 0
M  V30 1238 H 112.66 0.691681 -4.11731 0
M  V30 1239 H 114.05 -2.83487 -6.09167 0
M  V30 1240 N 116.77 1.45427 -0.607355 0
M  V30 1241 C 117.68 2.34325 0.113463 0
M  V30 1242 C 118.696 1.51226 0.860617 0
M  V30 1243 O 119.872 1.84029 0.818255 0
M  V30 1244 C 116.937 3.28839 1.09844 0
M  V30 1245 C 115.998 4.27844 0.353271 0
M  V30 1246 C 115.231 5.17842 1.29133 0
M  V30 1247 O 115.454 5.11264 2.52913 0
M  V30 1248 O 114.388 5.96713 0.788523 0
M  V30 1249 H 118.214 2.97364 -0.617094 0
M  V30 1250 H 115.799 1.44807 -0.367619 0
M  V30 1251 H 117.681 3.8708 1.66575 0
M  V30 1252 H 116.356 2.68365 1.81003 0
M  V30 1253 H 115.263 3.7322 -0.256494 0
M  V30 1254 H 116.596 4.91173 -0.317822 0
M  V30 1255 N 118.248 0.346503 1.53744 0
M  V30 1256 C 119.178 -0.501193 2.28058 0
M  V30 1257 C 120.159 -1.10014 1.29734 0
M  V30 1258 O 121.344 -1.12097 1.58581 0
M  V30 1259 C 118.474 -1.65078 3.05559 0
M  V30 1260 C 117.428 -1.18003 4.11411 0
M  V30 1261 C 116.754 -2.41837 4.76884 0
M  V30 1262 C 118.054 -0.278394 5.21558 0
M  V30 1263 H 119.748 0.11875 2.99164 0
M  V30 1264 H 117.294 0.0585531 1.43881 0
M  V30 1265 H 119.247 -2.25028 3.56287 0
M  V30 1266 H 117.971 -2.29767 2.32109 0
M  V30 1267 H 116.63 -0.603331 3.61601 0
M  V30 1268 H 116.278 -3.0494 4.00026 0
M  V30 1269 H 115.978 -2.1102 5.48402 0
M  V30 1270 H 117.502 -3.02508 5.30397 0
M  V30 1271 H 118.916 -0.784823 5.67903 0
M  V30 1272 H 117.313 -0.0619707 6.00068 0
M  V30 1273 H 118.383 0.684677 4.80042 0
M  V30 1274 N 119.726 -1.57421 0.075193 0
M  V30 1275 C 120.689 -2.11791 -0.876203 0
M  V30 1276 C 121.689 -1.04268 -1.22412 0
M  V30 1277 O 122.879 -1.30242 -1.15684 0
M  V30 1278 C 120.011 -2.62207 -2.17854 0
M  V30 1279 H 121.204 -2.9716 -0.40444 0
M  V30 1280 H 118.757 -1.55333 -0.173557 0
M  V30 1281 H 119.492 -1.803 -2.6956 0
M  V30 1282 H 119.277 -3.40802 -1.93897 0
M  V30 1283 H 120.767 -3.04335 -2.85955 0
M  V30 1284 N 121.204 0.198386 -1.56346 0
M  V30 1285 C 122.136 1.26987 -1.90806 0
M  V30 1286 C 123.149 1.41877 -0.798419 0
M  V30 1287 O 124.338 1.42362 -1.07682 0
M  V30 1288 C 121.438 2.64246 -2.12196 0
M  V30 1289 C 120.611 2.71007 -3.43328 0
M  V30 1290 C 119.67 3.89439 -3.5387 0
M  V30 1291 O 118.696 3.76695 -4.26719 0
M  V30 1292 N 119.898 5.04752 -2.86715 0
M  V30 1293 H 122.663 0.977433 -2.83313 0
M  V30 1294 H 120.224 0.388322 -1.57174 0
M  V30 1295 H 122.216 3.41896 -2.1654 0
M  V30 1296 H 120.786 2.85992 -1.26204 0
M  V30 1297 H 120.006 1.79657 -3.50881 0
M  V30 1298 H 121.294 2.72512 -4.29668 0
M  V30 1299 H 120.692 5.18004 -2.2735 0
M  V30 1300 H 119.249 5.8036 -2.96691 0
M  V30 1301 N 122.682 1.50554 0.465978 0
M  V30 1302 C 123.912 1.65323 1.23903 0
M  V30 1303 C 124.32 0.338051 1.86155 0
M  V30 1304 O 123.663 -0.690518 1.70228 0
M  V30 1305 C 123.725 2.69048 2.3844 0
M  V30 1306 C 123.389 4.12462 1.96784 0
M  V30 1307 C 124.386 4.98168 1.48745 0
M  V30 1308 C 122.071 4.58407 2.05349 0
M  V30 1309 C 124.065 6.27868 1.0982 0
M  V30 1310 C 121.752 5.88112 1.66035 0
M  V30 1311 C 122.75 6.72668 1.18349 0
M  V30 1312 O 122.438 7.99951 0.795825 0
M  V30 1313 H 122.17 0.558629 0.38067 0
M  V30 1314 H 124.724 1.97561 0.562022 0
M  V30 1315 H 122.954 2.32062 3.09328 0
M  V30 1316 H 124.643 2.72985 3.0039 0
M  V30 1317 H 125.409 4.63885 1.41546 0
M  V30 1318 H 121.288 3.92735 2.41414 0
M  V30 1319 H 124.832 6.93819 0.725293 0
M  V30 1320 H 120.729 6.21914 1.72895 0
M  V30 1321 H 121.497 8.13265 0.924222 0
M  V30 1322 N 124.16 -0.719506 1.40217 0
M  V30 1323 C 125.408 -1.47641 1.3801 0
M  V30 1324 C 125.729 -1.94992 -0.018145 0
M  V30 1325 O 124.999 -1.70073 -0.972207 0
M  V30 1326 H 123.579 -0.547744 0.507923 0
M  V30 1327 H 126.241 -0.853187 1.75233 0
M  V30 1328 H 125.337 -2.35112 2.05253 0
M  V30 1329 N 125.638 -1.25649 -0.95132 0
M  V30 1330 C 126.887 -1.09988 -1.69073 0
M  V30 1331 C 127.2 0.358355 -1.92289 0
M  V30 1332 O 128.406 0.635466 -2.63958 0
M  V30 1333 C 126.862 -1.92012 -3.044 0
M  V30 1334 C 126.47 -3.42347 -2.88968 0
M  V30 1335 C 128.214 -1.8493 -3.82101 0
M  V30 1336 C 126.121 -4.16655 -4.19705 0
M  V30 1337 H 125.051 -0.407993 -0.63408 0
M  V30 1338 H 127.702 -1.49873 -1.05879 0
M  V30 1339 H 126.084 -1.44952 -3.68517 0
M  V30 1340 H 127.258 -3.97104 -2.33762 0
M  V30 1341 H 125.573 -3.50557 -2.24719 0
M  V30 1342 H 128.17 -2.37739 -4.78941 0
M  V30 1343 H 128.513 -0.817883 -4.08187 0
M  V30 1344 H 129.046 -2.29758 -3.2474 0
M  V30 1345 H 125.785 -5.20224 -3.98807 0
M  V30 1346 H 125.305 -3.66681 -4.74663 0
M  V30 1347 H 126.984 -4.24551 -4.88227 0
M  V30 1348 N 127.117 1.15442 -1.07289 0
M  V30 1349 C 128.366 1.85557 -0.790669 0
M  V30 1350 C 128.679 1.83186 0.685739 0
M  V30 1351 O 129.885 2.48977 1.0827 0
M  V30 1352 C 128.341 3.33038 -1.36433 0
M  V30 1353 C 127.949 3.43856 -2.8717 0
M  V30 1354 C 129.693 4.0834 -1.1601 0
M  V30 1355 C 127.6 4.85482 -3.3773 0
M  V30 1356 H 126.53 0.695122 -0.292098 0
M  V30 1357 H 129.181 1.30219 -1.29287 0
M  V30 1358 H 127.563 3.88043 -0.789864 0
M  V30 1359 H 128.737 2.98961 -3.50655 0
M  V30 1360 H 127.052 2.81998 -3.06376 0
M  V30 1361 H 129.649 5.12859 -1.51262 0
M  V30 1362 H 129.992 4.16182 -0.0991007 0
M  V30 1363 H 130.525 3.59603 -1.70089 0
M  V30 1364 H 127.264 4.82823 -4.43353 0
M  V30 1365 H 126.784 5.30961 -2.78999 0
M  V30 1366 H 128.463 5.54335 -3.33648 0
M  V30 1367 O 128.634 0.990954 1.27524 0
M  V30 1368 H 129.325 0.639759 1.8283 0
M  V30 END ATOM
M  V30 BEGIN BOND
M  V30 END BOND
M  V30 END CTAB
M  END
$$$$
