drugbank_target|P48735 Isocitrate dehydrogenase [NADP], mitochondrial (DB01727; DB13874)
 OpenBabel12092120543D

  0  0  0     0  0            999 V3000
M  V30 BEGIN CTAB
M  V30 COUNTS 7148 7231 0 0 0
M  V30 BEGIN ATOM
M  V30 1 H -0.908 1.98254 -0.117106 0
M  V30 2 N 0 1.576 0 0
M  V30 3 C 0.933 2.03868 1.02534 0
M  V30 4 C 1.911 0.928543 1.3348 0
M  V30 5 O 3.095 1.19667 1.45644 0
M  V30 6 C 0.222 2.43627 2.35294 0
M  V30 7 C -0.732 3.65373 2.2001 0
M  V30 8 S 0.101 5.13292 1.52614 0
M  V30 9 C 1.257 5.56322 2.86805 0
M  V30 10 H 1.49 2.90518 0.631377 0
M  V30 11 H -0.977 1.52953 0.210867 0
M  V30 12 H 0.981 2.67203 3.11629 0
M  V30 13 H -0.358 1.57376 2.7183 0
M  V30 14 H -1.165 3.90944 3.18086 0
M  V30 15 H -1.563 3.418 1.51819 0
M  V30 16 H 0.729 5.58782 3.83104 0
M  V30 17 H 1.672 6.56266 2.65933 0
M  V30 18 H 2.08 4.83886 2.90714 0
M  V30 19 N 1.4781 -0.272755 1.55222 0
M  V30 20 C 2.4411 -1.32041 1.87344 0
M  V30 21 C 3.4411 -1.42342 0.74803 0
M  V30 22 O 4.6311 -1.41488 1.0162 0
M  V30 23 C 1.7631 -2.70173 2.07893 0
M  V30 24 H 2.9561 -1.04789 2.80997 0
M  V30 25 H 0.5091 -0.51083 1.47717 0
M  V30 26 H 1.2441 -3.02605 1.16622 0
M  V30 27 H 1.0291 -2.64082 2.89833 0
M  V30 28 H 2.5191 -3.45869 2.34017 0
M  V30 29 N 2.9562 -1.48159 -0.537278 0
M  V30 30 C 4.2042 -1.55497 -1.29094 0
M  V30 31 C 4.5252 -0.227454 -1.93669 0
M  V30 32 O 3.7952 0.750386 -1.80959 0
M  V30 33 H 2.3752 -0.572832 -0.47945 0
M  V30 34 H 5.0372 -1.84579 -0.625818 0
M  V30 35 H 4.1332 -2.33216 -2.07405 0
M  V30 36 N 4.4343 0.785586 -1.36625 0
M  V30 37 C 5.6643 1.5722 -1.34036 0
M  V30 38 C 6.0723 1.89033 0.0795062 0
M  V30 39 O 5.4153 1.50881 1.04789 0
M  V30 40 C 5.4773 2.91759 -2.10041 0
M  V30 41 C 5.1413 2.82654 -3.59104 0
M  V30 42 C 6.1383 2.54634 -4.53274 0
M  V30 43 C 3.8233 3.01111 -4.02042 0
M  V30 44 C 5.8173 2.45177 -5.88359 0
M  V30 45 C 3.5043 2.91276 -5.37216 0
M  V30 46 C 4.5023 2.63348 -6.30188 0
M  V30 47 O 4.1903 2.53514 -7.6288 0
M  V30 48 H 3.9223 0.494177 -0.461265 0
M  V30 49 H 6.4763 0.982632 -1.8037 0
M  V30 50 H 4.7063 3.52781 -1.58375 0
M  V30 51 H 6.3953 3.53059 -2.00261 0
M  V30 52 H 7.1613 2.40073 -4.21414 0
M  V30 53 H 3.0403 3.21854 -3.30047 0
M  V30 54 H 6.5843 2.23299 -6.60896 0
M  V30 55 H 2.4813 3.054 -5.68684 0
M  V30 56 H 3.2493 2.68967 -7.73045 0
M  V30 57 N 5.9124 1.20967 1.01018 0
M  V30 58 C 6.8424 0.988272 2.11555 0
M  V30 59 C 7.8234 -0.0849778 1.69888 0
M  V30 60 O 9.0084 0.0738202 1.9406 0
M  V30 61 C 6.1384 0.546528 3.42973 0
M  V30 62 C 5.0924 1.56375 3.9841 0
M  V30 63 C 4.4184 0.97842 5.25672 0
M  V30 64 C 5.7184 2.94922 4.31066 0
M  V30 65 H 7.4124 1.91276 2.30334 0
M  V30 66 H 4.9584 0.921073 1.1069 0
M  V30 67 H 6.9114 0.378839 4.19694 0
M  V30 68 H 5.6354 -0.413598 3.23971 0
M  V30 69 H 4.2944 1.71891 3.23804 0
M  V30 70 H 3.9424 0.0101688 5.02999 0
M  V30 71 H 3.6424 1.65784 5.63728 0
M  V30 72 H 5.1664 0.821939 6.05043 0
M  V30 73 H 6.5804 2.8288 4.9865 0
M  V30 74 H 4.9774 3.5983 4.80253 0
M  V30 75 H 6.0474 3.4616 3.39561 0
M  V30 76 N 7.3905 -1.2043 1.01659 0
M  V30 77 C 8.8065 -1.41852 0.731442 0
M  V30 78 C 9.0065 -1.89358 -0.688898 0
M  V30 79 O 8.0625 -2.06247 -1.45666 0
M  V30 80 C 9.3755 -2.44019 1.75714 0
M  V30 81 C 10.9235 -2.57785 1.77527 0
M  V30 82 C 11.3985 -3.63194 2.79023 0
M  V30 83 N 12.8895 -3.70678 2.77763 0
M  V30 84 C 13.6245 -4.51897 3.52954 0
M  V30 85 N 13.1205 -5.36921 4.37821 0
M  V30 86 N 14.9135 -4.4643 3.41551 0
M  V30 87 H 7.0645 -0.879093 1.93354 0
M  V30 88 H 9.3275 -0.448425 0.835236 0
M  V30 89 H 9.0335 -2.1611 2.77469 0
M  V30 90 H 8.9075 -3.43007 1.56927 0
M  V30 91 H 11.2945 -2.85023 0.764569 0
M  V30 92 H 11.3755 -1.58992 2.00387 0
M  V30 93 H 11.0195 -3.36699 3.80258 0
M  V30 94 H 10.9495 -4.61609 2.53425 0
M  V30 95 H 13.4405 -3.09944 2.16201 0
M  V30 96 H 13.7535 -5.95981 4.91962 0
M  V30 97 H 12.0985 -5.36424 4.41899 0
M  V30 98 H 15.2895 -3.79042 2.74672 0
M  V30 99 H 15.4625 -5.09491 4.00404 0
M  V30 100 N 8.8686 -0.792821 -1.36206 0
M  V30 101 C 10.1146 -0.36733 -1.99446 0
M  V30 102 C 10.4476 1.05917 -1.62774 0
M  V30 103 O 9.7226 1.7324 -0.88421 0
M  V30 104 C 10.0056 -0.535044 -3.56103 0
M  V30 105 C 9.8586 -2.00548 -4.02617 0
M  V30 106 C 11.1776 0.0478191 -4.40074 0
M  V30 107 H 8.2966 -0.134941 -0.724541 0
M  V30 108 H 10.9386 -0.999794 -1.61568 0
M  V30 109 H 9.0886 0.00336329 -3.885 0
M  V30 110 H 10.7606 -2.60521 -3.80692 0
M  V30 111 H 9.0036 -2.50686 -3.54032 0
M  V30 112 H 9.6746 -2.07377 -5.11565 0
M  V30 113 H 12.1506 -0.411822 -4.14057 0
M  V30 114 H 11.0266 -0.0995336 -5.4881 0
M  V30 115 H 11.2876 1.14025 -4.27142 0
M  V30 116 N 10.3467 1.47872 -0.545128 0
M  V30 117 C 11.5927 2.02793 -0.0166104 0
M  V30 118 C 11.9257 1.41987 1.32489 0
M  V30 119 O 11.2007 0.571045 1.85928 0
M  V30 120 C 11.4837 3.59989 0.0893294 0
M  V30 121 C 11.3367 4.3125 -1.27841 0
M  V30 122 C 12.6557 4.32606 0.808724 0
M  V30 123 H 9.7747 0.736962 -0.00751035 0
M  V30 124 H 12.4167 1.76433 -0.705085 0
M  V30 125 H 10.5667 3.82579 0.675681 0
M  V30 126 H 12.2387 4.20035 -1.90704 0
M  V30 127 H 10.4817 3.92076 -1.85632 0
M  V30 128 H 11.1527 5.39736 -1.15713 0
M  V30 129 H 13.6287 4.14936 0.310992 0
M  V30 130 H 12.5047 5.42251 0.851782 0
M  V30 131 H 12.7657 4.00963 1.86229 0
M  V30 132 N 11.8248 0.280983 1.55075 0
M  V30 133 C 13.2408 -0.0729964 1.59433 0
M  V30 134 C 13.4408 -1.5411 1.29817 0
M  V30 135 O 12.4968 -2.29086 1.06187 0
M  V30 136 C 13.8098 0.306921 2.9913 0
M  V30 137 C 15.3578 0.254023 3.11968 0
M  V30 138 C 15.8328 0.608467 4.5394 0
M  V30 139 N 17.3238 0.560241 4.59799 0
M  V30 140 C 18.0588 0.80722 5.6769 0
M  V30 141 N 17.5548 1.11912 6.83701 0
M  V30 142 N 19.3478 0.735623 5.57266 0
M  V30 143 H 11.4988 1.238 1.7259 0
M  V30 144 H 13.7618 0.500547 0.805082 0
M  V30 145 H 13.4678 1.32816 3.25657 0
M  V30 146 H 13.3418 -0.349363 3.75579 0
M  V30 147 H 15.7288 -0.75794 2.852 0
M  V30 148 H 15.8098 0.944649 2.37718 0
M  V30 149 H 15.4538 1.61814 4.81434 0
M  V30 150 H 15.3838 -0.104013 5.26497 0
M  V30 151 H 17.8748 0.329288 3.76463 0
M  V30 152 H 18.1878 1.29409 7.61888 0
M  V30 153 H 16.5328 1.15695 6.85303 0
M  V30 154 H 19.7238 0.491752 4.6551 0
M  V30 155 H 19.8968 0.931482 6.4127 0
M  V30 156 N 13.3029 -1.57598 0.00835791 0
M  V30 157 C 14.5279 -1.95617 -0.689103 0
M  V30 158 C 14.9529 -0.883753 -1.66046 0
M  V30 159 O 14.3109 0.157352 -1.80616 0
M  V30 160 C 14.3589 -3.32736 -1.38994 0
M  V30 161 O 13.4629 -3.27631 -2.50463 0
M  V30 162 H 12.8039 -0.638379 -0.182668 0
M  V30 163 H 15.3339 -2.045 0.064036 0
M  V30 164 H 15.3439 -3.68494 -1.75147 0
M  V30 165 H 14.0189 -4.1034 -0.677778 0
M  V30 166 H 12.5959 -3.03561 -2.16576 0
M  V30 167 N 14.781 0.264519 -1.55364 0
M  V30 168 C 15.711 1.33121 -1.91836 0
M  V30 169 C 16.692 1.51101 -0.781192 0
M  V30 170 O 17.877 1.64003 -1.04003 0
M  V30 171 C 15.007 2.68921 -2.19769 0
M  V30 172 C 13.961 2.65661 -3.35571 0
M  V30 173 C 13.287 4.05093 -3.49004 0
M  V30 174 C 14.587 2.24187 -4.71739 0
M  V30 175 H 16.281 1.02844 -2.81182 0
M  V30 176 H 13.827 0.493286 -1.35287 0
M  V30 177 H 15.78 3.43663 -2.43872 0
M  V30 178 H 14.504 3.00799 -1.27231 0
M  V30 179 H 13.163 1.93377 -3.1145 0
M  V30 180 H 12.811 4.34206 -2.53917 0
M  V30 181 H 12.511 4.03804 -4.26868 0
M  V30 182 H 14.035 4.81561 -3.75408 0
M  V30 183 H 15.449 2.88654 -4.9533 0
M  V30 184 H 13.846 2.34044 -5.52579 0
M  V30 185 H 14.916 1.19327 -4.69988 0
M  V30 186 N 16.2591 1.48442 0.529413 0
M  V30 187 C 17.4991 1.58086 1.29569 0
M  V30 188 C 17.8631 0.249302 1.90375 0
M  V30 189 O 19.0641 0.220738 2.67892 0
M  V30 190 C 17.3351 2.68793 2.35552 0
M  V30 191 S 18.8941 2.98207 3.21898 0
M  V30 192 H 15.7121 0.557922 0.440732 0
M  V30 193 H 18.3141 1.85966 0.603059 0
M  V30 194 H 17.0181 3.64102 1.89363 0
M  V30 195 H 16.5491 2.42817 3.09522 0
M  V30 196 H 18.5641 2.37548 4.35644 0
M  V30 197 N 17.7372 -0.778329 1.37039 0
M  V30 198 C 19.1532 -1.07796 1.17695 0
M  V30 199 C 19.3532 -2.01498 0.00860115 0
M  V30 200 O 18.4092 -2.43901 -0.653352 0
M  V30 201 C 19.7222 -1.68178 2.49272 0
M  V30 202 C 21.2702 -1.80467 2.55735 0
M  V30 203 C 21.7452 -2.44263 3.87427 0
M  V30 204 N 23.2362 -2.51721 3.88833 0
M  V30 205 C 23.9712 -3.01919 4.87476 0
M  V30 206 N 23.4672 -3.5234 5.96513 0
M  V30 207 N 25.2602 -3.00733 4.74885 0
M  V30 208 H 17.4112 -0.156032 2.11826 0
M  V30 209 H 19.6742 -0.131844 0.938787 0
M  V30 210 H 19.3802 -1.06796 3.35093 0
M  V30 211 H 19.2542 -2.67554 2.65885 0
M  V30 212 H 21.6412 -2.40984 1.70325 0
M  V30 213 H 21.7222 -0.798656 2.43013 0
M  V30 214 H 21.3662 -1.84388 4.73248 0
M  V30 215 H 21.2962 -3.45458 3.9745 0
M  V30 216 H 23.7872 -2.1603 3.10063 0
M  V30 217 H 24.1002 -3.89027 6.67741 0
M  V30 218 H 22.4452 -3.50462 6.00168 0
M  V30 219 H 25.6362 -2.60638 3.88826 0
M  V30 220 H 25.8092 -3.39545 5.51918 0
M  V30 221 N 19.2153 -1.21501 -1.00376 0
M  V30 222 C 20.1783 -0.976927 -2.07337 0
M  V30 223 C 21.1783 0.0525322 -1.60714 0
M  V30 224 O 22.3683 -0.184869 -1.73216 0
M  V30 225 C 19.5003 -0.473423 -3.37597 0
M  V30 226 H 20.6933 -1.92587 -2.29892 0
M  V30 227 H 18.2463 -1.03217 -1.17371 0
M  V30 228 H 18.9813 0.480379 -3.20722 0
M  V30 229 H 18.7663 -1.216 -3.72768 0
M  V30 230 H 20.2563 -0.32675 -4.1632 0
M  V30 231 N 20.6934 1.19889 -1.02296 0
M  V30 232 C 21.9184 1.9393 -0.735237 0
M  V30 233 C 22.3434 1.74639 0.698782 0
M  V30 234 O 21.7014 1.04481 1.48167 0
M  V30 235 C 21.7494 3.43916 -1.08417 0
M  V30 236 O 20.8534 4.11917 -0.199446 0
M  V30 237 H 20.1944 0.605645 -0.272196 0
M  V30 238 H 22.7244 1.52137 -1.36804 0
M  V30 239 H 22.7344 3.9456 -1.03856 0
M  V30 240 H 21.4094 3.5728 -2.12894 0
M  V30 241 H 19.9864 3.71666 -0.303136 0
M  V30 242 N 22.1715 0.800033 1.35784 0
M  V30 243 C 23.4195 0.376597 1.9856 0
M  V30 244 C 23.7405 -1.05812 1.63795 0
M  V30 245 O 23.0105 -1.73103 0.917171 0
M  V30 246 H 21.5905 0.136261 0.734467 0
M  V30 247 H 24.2525 1.02442 1.65806 0
M  V30 248 H 23.3485 0.477002 3.08433 0
M  V30 249 N 23.6496 -1.47581 0.552962 0
M  V30 250 C 24.8746 -2.07378 0.0300593 0
M  V30 251 C 25.2996 -1.40355 -1.25229 0
M  V30 252 O 24.6576 -0.477099 -1.7491 0
M  V30 253 C 24.7056 -3.60274 -0.153231 0
M  V30 254 O 23.8096 -3.94041 -1.21678 0
M  V30 255 H 23.1506 -0.662158 0.0494182 0
M  V30 256 H 25.6806 -1.89662 0.767434 0
M  V30 257 H 25.6906 -4.0633 -0.368761 0
M  V30 258 H 24.3656 -4.08455 0.783397 0
M  V30 259 H 22.9426 -3.59735 -0.982079 0
M  V30 260 N 25.1277 -0.289203 -1.54924 0
M  V30 261 C 26.5437 0.0645403 -1.59469 0
M  V30 262 C 26.7437 1.53419 -1.30632 0
M  V30 263 O 25.7997 2.2852 -1.074 0
M  V30 264 C 27.1127 -0.32278 -2.98963 0
M  V30 265 C 28.6607 -0.270564 -3.11828 0
M  V30 266 C 29.1357 -0.632532 -4.53611 0
M  V30 267 N 30.6267 -0.584617 -4.59496 0
M  V30 268 C 31.3617 -0.837314 -5.67254 0
M  V30 269 N 30.8577 -1.15536 -6.83098 0
M  V30 270 N 32.6507 -0.765166 -5.56868 0
M  V30 271 H 24.8017 -1.24714 -1.71931 0
M  V30 272 H 27.0647 -0.504809 -0.802416 0
M  V30 273 H 26.7707 -1.34541 -3.24948 0
M  V30 274 H 26.6447 0.32944 -3.75759 0
M  V30 275 H 29.0317 0.742805 -2.85598 0
M  V30 276 H 29.1127 -0.957242 -2.37214 0
M  V30 277 H 28.7567 -1.64365 -4.80569 0
M  V30 278 H 28.6867 0.07609 -5.26545 0
M  V30 279 H 31.1777 -0.349248 -3.76283 0
M  V30 280 H 31.4907 -1.33447 -7.61191 0
M  V30 281 H 29.8357 -1.19328 -6.84679 0
M  V30 282 H 33.0267 -0.516432 -4.65243 0
M  V30 283 H 33.1997 -0.965477 -6.40767 0
M  V30 284 N 26.6058 1.57591 -0.0167156 0
M  V30 285 C 28.0168 1.79201 0.523834 0
M  V30 286 C 28.3678 0.925796 1.72984 0
M  V30 287 O 27.4928 0.132792 2.15992 0
M  V30 288 C 28.0878 3.25 0.957091 0
M  V30 289 C 26.6468 3.47648 1.44283 0
M  V30 290 C 25.7938 2.74374 0.401757 0
M  V30 291 H 28.7448 1.56831 -0.242816 0
M  V30 292 H 28.7658 3.34031 1.82219 0
M  V30 293 H 28.2778 3.88019 0.0791415 0
M  V30 294 H 26.3788 2.89866 2.34113 0
M  V30 295 H 26.4918 4.56352 1.45877 0
M  V30 296 H 24.8558 2.39485 0.867121 0
M  V30 297 H 25.6388 3.40102 -0.467513 0
M  V30 298 N 28.0839 -0.256276 1.55502 0
M  V30 299 C 29.0469 -1.30047 1.88734 0
M  V30 300 C 30.0469 -1.4154 0.763086 0
M  V30 301 O 31.2369 -1.40403 1.03115 0
M  V30 302 C 28.3689 -2.67953 2.10747 0
M  V30 303 H 29.5619 -1.01802 2.82093 0
M  V30 304 H 27.1149 -0.495134 1.4825 0
M  V30 305 H 27.8499 -3.01351 1.19825 0
M  V30 306 H 27.6349 -2.60993 2.92617 0
M  V30 307 H 29.1249 -3.43368 2.37673 0
M  V30 308 N 29.562 -1.4872 -0.521534 0
M  V30 309 C 30.808 -1.58378 -1.27624 0
M  V30 310 C 31.163 -0.258028 -1.90662 0
M  V30 311 O 30.456 0.739917 -1.76736 0
M  V30 312 C 30.65 -2.66497 -2.38148 0
M  V30 313 C 30.479 -4.09456 -1.85945 0
M  V30 314 C 29.249 -4.76495 -1.68168 0
M  V30 315 C 31.447 -4.95353 -1.3831 0
M  V30 316 N 29.429 -6.0384 -1.1068 0
M  V30 317 C 30.8 -6.13012 -0.928238 0
M  V30 318 C 32.855 -4.81512 -1.26692 0
M  V30 319 C 31.558 -7.18354 -0.368701 0
M  V30 320 C 33.584 -5.86984 -0.721368 0
M  V30 321 C 32.946 -7.03857 -0.276623 0
M  V30 322 H 29.045 -0.634045 -0.457724 0
M  V30 323 H 31.629 -1.85639 -0.587049 0
M  V30 324 H 29.8 -2.41043 -3.04553 0
M  V30 325 H 31.532 -2.65791 -3.05184 0
M  V30 326 H 28.287 -4.32962 -1.91939 0
M  V30 327 H 28.711 -6.71778 -0.839217 0
M  V30 328 H 33.353 -3.91487 -1.5968 0
M  V30 329 H 31.071 -8.08096 -0.0265122 0
M  V30 330 H 34.657 -5.78329 -0.634531 0
M  V30 331 H 33.537 -7.84077 0.138947 0
M  V30 332 N 31.0401 0.771051 -1.3745 0
M  V30 333 C 32.0031 1.86598 -1.33093 0
M  V30 334 C 33.0031 1.59076 -0.234845 0
M  V30 335 O 34.1931 1.67145 -0.490732 0
M  V30 336 C 31.3251 3.23747 -1.06773 0
M  V30 337 H 32.5181 1.91873 -2.30488 0
M  V30 338 H 30.0711 0.970876 -1.2249 0
M  V30 339 H 30.8061 3.24148 -0.099129 0
M  V30 340 H 30.5911 3.45115 -1.86112 0
M  V30 341 H 32.0811 4.03824 -1.06377 0
M  V30 342 N 32.5182 1.22032 0.997298 0
M  V30 343 C 33.9292 1.0397 1.55071 0
M  V30 344 C 34.2802 -0.398192 1.92117 0
M  V30 345 O 33.4052 -1.28254 1.74298 0
M  V30 346 C 34.0002 1.88109 2.81781 0
M  V30 347 C 32.5592 1.74357 3.33581 0
M  V30 348 C 31.7062 1.84846 2.06706 0
M  V30 349 H 34.6572 1.35941 0.818883 0
M  V30 350 H 34.6782 1.39589 3.53971 0
M  V30 351 H 34.1902 2.92754 2.54787 0
M  V30 352 H 32.2912 0.72427 3.65493 0
M  V30 353 H 32.4042 2.56772 4.04481 0
M  V30 354 H 30.7682 1.28238 2.20062 0
M  V30 355 H 31.5512 2.91014 1.82114 0
M  V30 356 N 33.9963 -1.19345 1.0293 0
M  V30 357 C 34.9593 -2.20793 0.615069 0
M  V30 358 C 35.9593 -1.57553 -0.321533 0
M  V30 359 O 37.1493 -1.73862 -0.108483 0
M  V30 360 C 34.2813 -3.40754 -0.0999222 0
M  V30 361 H 35.4743 -2.58955 1.51269 0
M  V30 362 H 33.0273 -1.3303 0.820534 0
M  V30 363 H 33.7623 -3.0811 -1.01187 0
M  V30 364 H 33.5473 -3.87889 0.57309 0
M  V30 365 H 35.0373 -4.15898 -0.376645 0
M  V30 366 N 35.4744 -0.807222 -1.35358 0
M  V30 367 C 36.4374 -0.223665 -2.28106 0
M  V30 368 C 37.4374 0.589354 -1.4961 0
M  V30 369 O 38.6274 0.407745 -1.69361 0
M  V30 370 C 35.7594 0.688149 -3.33882 0
M  V30 371 H 36.9524 -1.04169 -2.81227 0
M  V30 372 H 34.5054 -0.577921 -1.45223 0
M  V30 373 H 35.2404 1.52984 -2.85948 0
M  V30 374 H 35.0254 0.10687 -3.91954 0
M  V30 375 H 36.5154 1.09075 -4.03104 0
M  V30 376 N 36.9525 1.47285 -0.560781 0
M  V30 377 C 37.8825 2.32857 0.173105 0
M  V30 378 C 38.8635 1.44009 0.905281 0
M  V30 379 O 40.0485 1.7286 0.885046 0
M  V30 380 C 37.1785 3.25861 1.20133 0
M  V30 381 C 36.1325 4.23978 0.585388 0
M  V30 382 C 35.4585 5.06332 1.7185 0
M  V30 383 C 36.7585 5.20242 -0.463178 0
M  V30 384 H 38.4525 2.94466 -0.541307 0
M  V30 385 H 35.9985 1.41601 -0.261764 0
M  V30 386 H 37.9515 3.84569 1.72293 0
M  V30 387 H 36.6755 2.62315 1.94573 0
M  V30 388 H 35.3345 3.66501 0.085054 0
M  V30 389 H 34.9825 4.39186 2.45203 0
M  V30 390 H 34.6825 5.72762 1.31213 0
M  V30 391 H 36.2065 5.67899 2.24329 0
M  V30 392 H 37.6205 5.73293 -0.027502 0
M  V30 393 H 36.0175 5.94896 -0.788627 0
M  V30 394 H 37.0875 4.65504 -1.35773 0
M  V30 395 N 38.4306 0.297415 1.54768 0
M  V30 396 C 39.6586 -0.315623 2.04478 0
M  V30 397 C 40.0736 -1.47792 1.17486 0
M  V30 398 O 39.4306 -1.81404 0.19971 0
M  V30 399 C 39.4816 -0.7753 3.53088 0
M  V30 400 O 39.2026 0.340732 4.36773 0
M  V30 401 C 40.7036 -1.45386 4.18781 0
M  V30 402 H 37.9236 -0.0690887 0.667434 0
M  V30 403 H 40.4676 0.436003 1.99798 0
M  V30 404 H 38.6226 -1.47696 3.58141 0
M  V30 405 H 39.0366 -0.0165035 5.24497 0
M  V30 406 H 40.5106 -1.72669 5.24299 0
M  V30 407 H 40.9876 -2.39275 3.68299 0
M  V30 408 H 41.5936 -0.795475 4.17795 0
M  V30 409 N 39.9087 -1.5758 0.0250728 0
M  V30 410 C 40.8717 -2.08896 -0.943139 0
M  V30 411 C 41.8717 -1.00321 -1.25668 0
M  V30 412 O 43.0617 -1.26495 -1.19769 0
M  V30 413 C 40.1937 -2.55143 -2.26086 0
M  V30 414 H 41.3867 -2.95723 -0.498775 0
M  V30 415 H 38.9397 -1.54703 -0.222888 0
M  V30 416 H 39.6747 -1.71633 -2.75159 0
M  V30 417 H 39.4597 -3.34461 -2.04641 0
M  V30 418 H 40.9497 -2.95083 -2.95492 0
M  V30 419 N 41.3868 0.248026 -1.55636 0
M  V30 420 C 42.7978 0.817177 -1.67866 0
M  V30 421 C 43.1488 1.86069 -0.622322 0
M  V30 422 O 42.2738 2.15157 0.231618 0
M  V30 423 C 42.8688 1.489 -3.04326 0
M  V30 424 C 41.4278 2.00587 -3.185 0
M  V30 425 C 40.5748 0.856573 -2.63739 0
M  V30 426 H 43.5258 0.0238579 -1.58682 0
M  V30 427 H 43.5468 2.35698 -2.98708 0
M  V30 428 H 43.0588 0.729279 -3.81186 0
M  V30 429 H 41.1598 2.79443 -2.4646 0
M  V30 430 H 41.2728 2.20402 -4.25393 0
M  V30 431 H 39.6368 1.25678 -2.21534 0
M  V30 432 H 40.4198 0.109953 -3.43124 0
M  V30 433 N 42.8649 1.48995 0.513639 0
M  V30 434 C 44.0929 1.61531 1.29288 0
M  V30 435 C 44.5079 0.281801 1.86685 0
M  V30 436 O 43.8649 -0.731111 1.67215 0
M  V30 437 C 43.9159 2.67449 2.43215 0
M  V30 438 O 43.6369 3.95626 1.88179 0
M  V30 439 C 45.1379 2.90575 3.34785 0
M  V30 440 H 42.3579 0.544165 0.392588 0
M  V30 441 H 44.9019 1.9494 0.617956 0
M  V30 442 H 43.0569 2.36853 3.0656 0
M  V30 443 H 43.4709 4.53868 2.62876 0
M  V30 444 H 44.9449 3.68449 4.11035 0
M  V30 445 H 45.4219 2.00011 3.91015 0
M  V30 446 H 46.0279 3.22538 2.77218 0
M  V30 447 N 44.343 -0.763751 1.37857 0
M  V30 448 C 45.568 -1.55805 1.36893 0
M  V30 449 C 45.993 -1.88054 -0.0416135 0
M  V30 450 O 45.351 -1.49825 -1.02089 0
M  V30 451 C 45.399 -2.84012 2.22192 0
M  V30 452 O 44.503 -3.78732 1.63204 0
M  V30 453 H 43.844 -0.471638 0.46739 0
M  V30 454 H 46.374 -0.944657 1.81487 0
M  V30 455 H 46.384 -3.33037 2.35691 0
M  V30 456 H 45.059 -2.59869 3.24716 0
M  V30 457 H 43.636 -3.37402 1.58791 0
M  V30 458 N 45.8211 -1.22559 -0.990812 0
M  V30 459 C 46.7531 -0.955325 -2.08342 0
M  V30 460 C 47.7661 0.0668408 -1.62663 0
M  V30 461 O 48.9551 -0.167421 -1.77713 0
M  V30 462 C 46.0551 -0.415566 -3.36342 0
M  V30 463 C 45.2281 -1.49544 -4.11042 0
M  V30 464 C 44.2871 -0.962399 -5.17324 0
M  V30 465 O 43.3131 -1.64907 -5.44788 0
M  V30 466 N 44.5151 0.215134 -5.80101 0
M  V30 467 H 47.2801 -1.89596 -2.32106 0
M  V30 468 H 44.8411 -1.13276 -1.15673 0
M  V30 469 H 46.8331 -0.0442386 -4.04676 0
M  V30 470 H 45.4031 0.430232 -3.09625 0
M  V30 471 H 44.6231 -2.04 -3.37309 0
M  V30 472 H 45.9111 -2.22195 -4.57719 0
M  V30 473 H 45.3091 0.789779 -5.6016 0
M  V30 474 H 43.8661 0.527826 -6.49659 0
M  V30 475 N 47.2992 1.18797 -1.03562 0
M  V30 476 C 48.2092 2.25913 -0.632505 0
M  V30 477 C 49.2252 1.70668 0.338882 0
M  V30 478 O 50.4012 2.00453 0.195076 0
M  V30 479 C 47.4662 3.467 0.00350942 0
M  V30 480 C 46.5272 4.17098 -1.01624 0
M  V30 481 C 45.7602 5.32119 -0.410478 0
M  V30 482 O 45.9832 5.64976 0.784725 0
M  V30 483 O 44.9172 5.9107 -1.13667 0
M  V30 484 H 48.7432 2.62648 -1.52478 0
M  V30 485 H 46.3282 1.25781 -0.806195 0
M  V30 486 H 48.2102 4.19878 0.35781 0
M  V30 487 H 46.8852 3.11798 0.869686 0
M  V30 488 H 45.7922 3.4601 -1.42224 0
M  V30 489 H 47.1252 4.55987 -1.85301 0
M  V30 490 N 48.7773 0.814389 1.34928 0
M  V30 491 C 49.7093 0.187834 2.28429 0
M  V30 492 C 50.7223 -0.617374 1.5064 0
M  V30 493 O 51.9113 -0.448454 1.72775 0
M  V30 494 C 49.0113 -0.755962 3.30361 0
M  V30 495 C 48.1843 0.00456686 4.374 0
M  V30 496 C 47.2433 -0.858876 5.19143 0
M  V30 497 O 46.2693 -0.306968 5.68372 0
M  V30 498 N 47.4713 -2.17988 5.38016 0
M  V30 499 H 50.2363 0.991105 2.82838 0
M  V30 500 H 47.7973 0.670561 1.4736 0
M  V30 501 H 49.7893 -1.338 3.81942 0
M  V30 502 H 48.3593 -1.46001 2.7641 0
M  V30 503 H 47.5793 0.767865 3.86649 0
M  V30 504 H 48.8673 0.528422 5.06049 0
M  V30 505 H 48.2653 -2.65212 4.99679 0
M  V30 506 H 46.8223 -2.71098 5.92747 0
M  V30 507 N 50.2554 -1.46986 0.568584 0
M  V30 508 C 51.6664 -1.86188 0.138219 0
M  V30 509 C 52.0174 -1.47388 -1.29504 0
M  V30 510 O 51.1424 -0.88219 -1.97602 0
M  V30 511 C 51.7374 -3.3792 0.244065 0
M  V30 512 C 50.2964 -3.76171 -0.131335 0
M  V30 513 C 49.4434 -2.71027 0.586465 0
M  V30 514 H 52.3944 -1.38342 0.777645 0
M  V30 515 H 52.4154 -3.76729 -0.534351 0
M  V30 516 H 51.9274 -3.66128 1.28731 0
M  V30 517 H 50.0284 -3.5358 -1.17526 0
M  V30 518 H 50.1414 -4.78523 0.235146 0
M  V30 519 H 48.5054 -2.54684 0.0282722 0
M  V30 520 H 49.2884 -3.02077 1.63109 0
M  V30 521 N 51.7335 -0.305618 -1.54608 0
M  V30 522 C 53.1495 0.0476228 -1.59529 0
M  V30 523 C 53.3495 1.52025 -1.32252 0
M  V30 524 O 52.4055 2.27368 -1.09818 0
M  V30 525 C 53.7185 -0.354471 -2.98603 0
M  V30 526 C 55.2665 -0.303622 -3.11524 0
M  V30 527 C 55.7415 -0.680608 -4.52915 0
M  V30 528 N 57.2325 -0.63332 -4.5885 0
M  V30 529 C 57.9675 -0.897432 -5.66334 0
M  V30 530 N 57.4635 -1.22775 -6.81834 0
M  V30 531 N 59.2565 -0.824186 -5.56025 0
M  V30 532 H 51.4075 -1.2653 -1.70599 0
M  V30 533 H 53.6705 -0.513291 -0.797017 0
M  V30 534 H 53.3765 -1.3798 -3.23503 0
M  V30 535 H 53.2505 0.289568 -3.76087 0
M  V30 536 H 55.6375 0.712472 -2.8637 0
M  V30 537 H 55.7185 -0.982348 -2.36185 0
M  V30 538 H 55.3625 -1.69453 -4.78799 0
M  V30 539 H 55.2925 0.0202385 -5.26596 0
M  V30 540 H 57.7835 -0.389138 -3.75891 0
M  V30 541 H 58.0965 -1.41513 -7.59733 0
M  V30 542 H 56.4415 -1.26583 -6.83375 0
M  V30 543 H 59.6325 -0.565748 -4.64669 0
M  V30 544 H 59.8055 -1.03338 -6.39707 0
M  V30 545 N 53.2116 1.57565 -0.0334293 0
M  V30 546 C 54.6276 1.56297 0.322997 0
M  V30 547 C 54.8276 1.03945 1.7262 0
M  V30 548 O 53.8836 0.688109 2.42943 0
M  V30 549 C 55.1966 3.00232 0.167664 0
M  V30 550 C 56.7446 3.12078 0.240107 0
M  V30 551 C 57.2196 4.57859 0.113513 0
M  V30 552 N 58.7106 4.62887 0.170359 0
M  V30 553 C 59.4456 5.73319 0.0962517 0
M  V30 554 N 58.9416 6.92794 -0.0291881 0
M  V30 555 N 60.7346 5.61898 0.150551 0
M  V30 556 H 52.8856 1.89923 -0.950956 0
M  V30 557 H 55.1486 0.873824 -0.367608 0
M  V30 558 H 54.8546 3.42501 -0.799102 0
M  V30 559 H 54.7286 3.654 0.936083 0
M  V30 560 H 57.1156 2.69718 1.19733 0
M  V30 561 H 57.1966 2.49623 -0.558763 0
M  V30 562 H 56.8406 5.009 -0.840314 0
M  V30 563 H 56.7706 5.18299 0.931302 0
M  V30 564 H 59.2616 3.76954 0.26728 0
M  V30 565 H 59.5746 7.7276 -0.0789252 0
M  V30 566 H 57.9196 6.94971 -0.0640299 0
M  V30 567 H 61.1106 4.67448 0.246981 0
M  V30 568 H 61.2836 6.47938 0.0893365 0
M  V30 569 N 54.6897 -0.239769 1.55765 0
M  V30 570 C 55.6397 -1.30002 1.87306 0
M  V30 571 C 56.6237 -1.43156 0.73452 0
M  V30 572 O 57.8157 -1.46277 0.99659 0
M  V30 573 C 54.9447 -2.65409 2.17745 0
M  V30 574 C 54.0307 -2.56231 3.37945 0
M  V30 575 N 54.4217 -2.16689 4.57033 0
M  V30 576 C 52.7197 -2.87229 3.41197 0
M  V30 577 C 53.4207 -2.18318 5.39177 0
M  V30 578 N 52.3967 -2.58098 4.78421 0
M  V30 579 H 56.1987 -0.984912 2.76906 0
M  V30 580 H 53.7127 -0.448381 1.56087 0
M  V30 581 H 55.7097 -3.41934 2.38509 0
M  V30 582 H 54.3697 -2.97781 1.29448 0
M  V30 583 H 55.3807 -1.88116 4.82528 0
M  V30 584 H 52.0577 -3.24094 2.63191 0
M  V30 585 H 53.4477 -1.90025 6.44469 0
M  V30 586 N 56.1678 -1.49265 -0.50573 0
M  V30 587 C 57.3978 -1.61979 -1.28243 0
M  V30 588 C 57.8058 -0.288576 -1.86986 0
M  V30 589 O 57.1488 0.735408 -1.68337 0
M  V30 590 C 57.2108 -2.62632 -2.45489 0
M  V30 591 C 56.8748 -4.071 -2.07651 0
M  V30 592 C 57.8718 -4.94049 -1.61901 0
M  V30 593 C 55.5568 -4.52801 -2.17431 0
M  V30 594 C 57.5508 -6.24736 -1.26428 0
M  V30 595 C 55.2378 -5.83503 -1.8157 0
M  V30 596 C 56.2358 -6.69294 -1.36142 0
M  V30 597 O 55.9238 -7.9756 -1.00764 0
M  V30 598 H 55.6558 -0.54834 -0.395347 0
M  V30 599 H 58.2098 -1.96002 -0.614204 0
M  V30 600 H 56.4398 -2.2378 -3.15372 0
M  V30 601 H 58.1288 -2.64925 -3.07522 0
M  V30 602 H 58.8948 -4.5997 -1.53795 0
M  V30 603 H 54.7738 -3.86196 -2.51742 0
M  V30 604 H 58.3178 -6.91652 -0.908992 0
M  V30 605 H 54.2148 -6.17112 -1.89324 0
M  V30 606 H 54.9828 -8.10529 -1.13952 0
M  V30 607 N 57.6459 0.756429 -1.3826 0
M  V30 608 C 58.6089 1.85176 -1.35065 0
M  V30 609 C 59.6089 1.58818 -0.251703 0
M  V30 610 O 60.7989 1.66615 -0.508433 0
M  V30 611 C 57.9309 3.22596 -1.10201 0
M  V30 612 H 59.1239 1.89417 -2.3251 0
M  V30 613 H 56.6769 0.95783 -1.23512 0
M  V30 614 H 57.4119 3.24025 -0.133504 0
M  V30 615 H 57.1969 3.43122 -1.89762 0
M  V30 616 H 58.6869 4.02673 -1.10654 0
M  V30 617 N 59.124 1.23083 0.984299 0
M  V30 618 C 60.401 0.9689 1.69917 0
M  V30 619 C 60.781 -0.513604 2.04757 0
M  V30 620 O 60.129 -1.48383 1.73767 0
M  V30 621 C 60.339 1.87518 2.94343 0
M  V30 622 C 61.687 2.13636 3.6694 0
M  V30 623 O 62.711 1.85036 3.04368 0
M  V30 624 O 61.57 2.62119 4.79537 0
M  V30 625 H 58.664 0.365095 0.742048 0
M  V30 626 H 61.21 1.34107 1.03987 0
M  V30 627 H 59.982 2.87756 2.65164 0
M  V30 628 H 59.605 1.50514 3.6801 0
M  V30 629 N 60.6021 -1.18246 1.0419 0
M  V30 630 C 61.5491 -2.2192 0.634037 0
M  V30 631 C 62.5191 -1.62179 -0.358765 0
M  V30 632 O 63.7041 -1.89122 -0.252466 0
M  V30 633 C 60.8441 -3.451 0.00445535 0
M  V30 634 C 59.9571 -4.19174 1.04487 0
M  V30 635 C 59.0921 -5.29813 0.383676 0
M  V30 636 C 58.1311 -5.9566 1.4091 0
M  V30 637 N 57.2681 -6.97834 0.772784 0
M  V30 638 H 62.1081 -2.56164 1.52263 0
M  V30 639 H 59.6451 -1.25843 0.761701 0
M  V30 640 H 61.6031 -4.15485 -0.377919 0
M  V30 641 H 60.2331 -3.11472 -0.847652 0
M  V30 642 H 59.2851 -3.47604 1.54518 0
M  V30 643 H 60.5971 -4.64267 1.82368 0
M  V30 644 H 59.7511 -6.06677 -0.0528366 0
M  V30 645 H 58.4901 -4.85825 -0.427208 0
M  V30 646 H 57.4951 -5.17535 1.85574 0
M  V30 647 H 58.7201 -6.4173 2.22171 0
M  V30 648 H 56.6661 -6.55998 -0.0177708 0
M  V30 649 H 56.5831 -7.41186 1.48928 0
M  V30 650 H 57.8511 -7.78665 0.36071 0
M  V30 651 N 62.0802 -0.821533 -1.34494 0
M  V30 652 C 63.4962 -0.507117 -1.51329 0
M  V30 653 C 63.6962 0.968964 -1.76673 0
M  V30 654 O 62.7522 1.75348 -1.81685 0
M  V30 655 C 64.0652 -1.36544 -2.67911 0
M  V30 656 C 65.6132 -1.36242 -2.81793 0
M  V30 657 C 66.0882 -2.2052 -4.01416 0
M  V30 658 N 67.5792 -2.18136 -4.08621 0
M  V30 659 C 68.3142 -2.80095 -5.00334 0
M  V30 660 N 67.8102 -3.51039 -5.9728 0
M  V30 661 N 69.6032 -2.69656 -4.93196 0
M  V30 662 H 61.7542 -1.77729 -1.16302 0
M  V30 663 H 64.0172 -0.757291 -0.570276 0
M  V30 664 H 63.7232 -2.41361 -2.55808 0
M  V30 665 H 63.5972 -1.02917 -3.62888 0
M  V30 666 H 65.9842 -0.322041 -2.93338 0
M  V30 667 H 66.0652 -1.73866 -1.87628 0
M  V30 668 H 65.7092 -3.24607 -3.90631 0
M  V30 669 H 65.6392 -1.80247 -4.94791 0
M  V30 670 H 68.1302 -1.6653 -3.39229 0
M  V30 671 H 68.4432 -3.95565 -6.63889 0
M  V30 672 H 66.7882 -3.55145 -5.97409 0
M  V30 673 H 69.9792 -2.13808 -4.16418 0
M  V30 674 H 70.1522 -3.1823 -5.64476 0
M  V30 675 N 63.5583 1.46682 -0.576371 0
M  V30 676 C 64.8073 2.01619 -0.0572825 0
M  V30 677 C 65.1203 1.45417 1.30818 0
M  V30 678 O 66.3263 1.92133 1.91825 0
M  V30 679 C 64.7823 3.59863 -0.0518371 0
M  V30 680 C 64.3903 4.25059 -1.41523 0
M  V30 681 C 66.1343 4.2248 0.413639 0
M  V30 682 C 64.0413 5.75364 -1.36785 0
M  V30 683 H 62.9713 0.753794 -0.0176448 0
M  V30 684 H 65.6223 1.68481 -0.727076 0
M  V30 685 H 64.0043 3.90048 0.683994 0
M  V30 686 H 65.1783 4.06491 -2.17029 0
M  V30 687 H 63.4933 3.7451 -1.8202 0
M  V30 688 H 66.0903 5.3265 0.467779 0
M  V30 689 H 66.4333 3.90976 1.42982 0
M  V30 690 H 66.9663 3.96897 -0.267929 0
M  V30 691 H 63.7053 6.11518 -2.36063 0
M  V30 692 H 63.2253 5.96214 -0.654895 0
M  V30 693 H 64.9043 6.37955 -1.07805 0
M  V30 694 N 65.0364 0.313813 1.54444 0
M  V30 695 C 65.9834 -0.55655 2.23989 0
M  V30 696 C 66.9534 -1.11943 1.22711 0
M  V30 697 O 68.1384 -1.16158 1.51367 0
M  V30 698 C 65.2784 -1.71635 2.99392 0
M  V30 699 C 64.3914 -1.18364 4.15468 0
M  V30 700 C 63.5264 -2.30834 4.78424 0
M  V30 701 C 62.5654 -1.74762 5.86622 0
M  V30 702 N 61.7024 -2.80855 6.43479 0
M  V30 703 H 66.5424 0.0430893 2.97969 0
M  V30 704 H 64.0794 0.0330359 1.47063 0
M  V30 705 H 66.0374 -2.39868 3.41349 0
M  V30 706 H 64.6674 -2.28742 2.27765 0
M  V30 707 H 63.7194 -0.393163 3.78363 0
M  V30 708 H 65.0314 -0.733262 4.93381 0
M  V30 709 H 64.1854 -3.0699 5.23299 0
M  V30 710 H 62.9244 -2.79204 3.99871 0
M  V30 711 H 61.9294 -0.970995 5.41158 0
M  V30 712 H 63.1544 -1.2728 6.67066 0
M  V30 713 H 61.1004 -3.28535 5.67804 0
M  V30 714 H 61.0174 -2.40351 7.16776 0
M  V30 715 H 62.2854 -3.5687 6.93011 0
M  V30 716 N 66.5145 -1.57545 0.0417849 0
M  V30 717 C 67.7605 -1.92601 -0.635021 0
M  V30 718 C 68.0935 -0.919627 -1.71045 0
M  V30 719 O 67.3685 0.0557892 -1.9442 0
M  V30 720 C 67.6515 -3.38085 -1.23979 0
M  V30 721 C 67.5045 -4.49467 -0.173057 0
M  V30 722 C 68.8235 -3.83776 -2.15416 0
M  V30 723 H 65.9425 -0.700397 -0.229374 0
M  V30 724 H 68.5845 -1.89728 0.101633 0
M  V30 725 H 66.7345 -3.40664 -1.86762 0
M  V30 726 H 68.4065 -4.59018 0.458312 0
M  V30 727 H 66.6495 -4.30909 0.499996 0
M  V30 728 H 67.3205 -5.48323 -0.636054 0
M  V30 729 H 69.7965 -3.83013 -1.62605 0
M  V30 730 H 68.6725 -4.8624 -2.54679 0
M  V30 731 H 68.9335 -3.19998 -3.05047 0
M  V30 732 N 67.9926 0.231505 -1.5589 0
M  V30 733 C 68.9556 1.27028 -1.90779 0
M  V30 734 C 69.9556 1.40308 -0.785507 0
M  V30 735 O 71.1456 1.38744 -1.05336 0
M  V30 736 C 68.2776 2.64566 -2.14983 0
M  V30 737 H 69.4706 0.973017 -2.83677 0
M  V30 738 H 67.0236 0.471486 -1.49019 0
M  V30 739 H 67.7586 2.99406 -1.24604 0
M  V30 740 H 67.5436 2.56305 -2.96732 0
M  V30 741 H 69.0336 3.39543 -2.43105 0
M  V30 742 N 69.4707 1.49531 0.497807 0
M  V30 743 C 70.4177 1.66436 1.59899 0
M  V30 744 C 71.3877 0.505793 1.58212 0
M  V30 745 O 72.5727 0.733202 1.7615 0
M  V30 746 C 69.7127 1.7399 2.98029 0
M  V30 747 C 68.8257 3.01172 3.09708 0
M  V30 748 C 67.9607 2.99686 4.38591 0
M  V30 749 C 66.9997 4.21434 4.43914 0
M  V30 750 N 66.1367 4.1784 5.64229 0
M  V30 751 H 70.9767 2.60459 1.44793 0
M  V30 752 H 68.5137 1.29137 0.704423 0
M  V30 753 H 70.4717 1.76352 3.78095 0
M  V30 754 H 69.1017 0.834301 3.11832 0
M  V30 755 H 68.1537 3.08408 2.22685 0
M  V30 756 H 69.4657 3.91165 3.09502 0
M  V30 757 H 68.6197 3.00628 5.2698 0
M  V30 758 H 67.3587 2.07477 4.41367 0
M  V30 759 H 66.3637 4.20733 3.53926 0
M  V30 760 H 67.5887 5.14839 4.42851 0
M  V30 761 H 65.5347 3.28469 5.67841 0
M  V30 762 H 65.4517 5.01571 5.65652 0
M  V30 763 H 66.7197 4.22889 6.54817 0
M  V30 764 N 70.9488 -0.749086 1.3866 0
M  V30 765 C 72.3598 -1.32664 1.31366 0
M  V30 766 C 72.7108 -1.96179 -0.028484 0
M  V30 767 O 71.8358 -1.9537 -0.93057 0
M  V30 768 C 72.4308 -2.41219 2.37905 0
M  V30 769 C 70.9898 -2.94684 2.34176 0
M  V30 770 C 70.1368 -1.68108 2.20533 0
M  V30 771 H 73.0878 -0.547628 1.48952 0
M  V30 772 H 73.1088 -3.21268 2.0388 0
M  V30 773 H 72.6208 -1.94962 3.35576 0
M  V30 774 H 70.7218 -3.45258 1.401 0
M  V30 775 H 70.8348 -3.48757 3.2849 0
M  V30 776 H 69.1988 -1.91907 1.67463 0
M  V30 777 H 69.9818 -1.23923 3.20153 0
M  V30 778 N 72.4269 -1.23603 -0.977757 0
M  V30 779 C 73.6729 -1.07129 -1.72195 0
M  V30 780 C 74.0059 0.390501 -1.90233 0
M  V30 781 O 73.2809 1.28902 -1.45653 0
M  V30 782 C 73.5639 -1.80031 -3.11867 0
M  V30 783 C 73.4169 -3.33899 -3.01383 0
M  V30 784 C 74.7359 -1.56492 -4.11337 0
M  V30 785 H 71.8549 -0.390571 -0.624999 0
M  V30 786 H 74.4969 -1.52142 -1.13811 0
M  V30 787 H 72.6469 -1.41768 -3.6171 0
M  V30 788 H 74.3189 -3.81699 -2.59043 0
M  V30 789 H 72.5619 -3.62796 -2.37827 0
M  V30 790 H 73.2329 -3.801 -4.00285 0
M  V30 791 H 75.7089 -1.89757 -3.70313 0
M  V30 792 H 74.5849 -2.09973 -5.07151 0
M  V30 793 H 74.8459 -0.500874 -4.39254 0
M  V30 794 N 73.905 1.17692 -1.04816 0
M  V30 795 C 75.151 1.88137 -0.75711 0
M  V30 796 C 75.484 1.80604 0.713841 0
M  V30 797 O 74.759 1.21146 1.52164 0
M  V30 798 C 75.042 3.38318 -1.2334 0
M  V30 799 C 74.895 3.54622 -2.76701 0
M  V30 800 C 76.214 4.32214 -0.829415 0
M  V30 801 H 73.333 0.683163 -0.27651 0
M  V30 802 H 75.975 1.38424 -1.30149 0
M  V30 803 H 74.125 3.80787 -0.770286 0
M  V30 804 H 75.797 3.21194 -3.31107 0
M  V30 805 H 74.04 2.97026 -3.16161 0
M  V30 806 H 74.711 4.60028 -3.05088 0
M  V30 807 H 77.187 3.97565 -1.22805 0
M  V30 808 H 76.063 5.35838 -1.19033 0
M  V30 809 H 76.324 4.41294 0.266891 0
M  V30 810 N 75.3831 0.828654 1.34056 0
M  V30 811 C 76.2931 0.256725 2.33191 0
M  V30 812 C 77.3091 -0.611898 1.62886 0
M  V30 813 O 78.4851 -0.51844 1.94613 0
M  V30 814 C 75.5501 -0.567238 3.42028 0
M  V30 815 C 74.6111 0.324458 4.28072 0
M  V30 816 C 73.8441 -0.460274 5.31712 0
M  V30 817 O 74.0671 -1.693 5.44696 0
M  V30 818 O 73.0011 0.160391 6.01686 0
M  V30 819 H 76.8271 1.07739 2.83947 0
M  V30 820 H 74.4121 0.59093 1.37217 0
M  V30 821 H 76.2941 -1.03582 4.08471 0
M  V30 822 H 74.9691 -1.36513 2.93506 0
M  V30 823 H 73.8761 0.840659 3.64532 0
M  V30 824 H 75.2091 1.08685 4.8005 0
M  V30 825 N 76.8612 -1.46375 0.584142 0
M  V30 826 C 77.7942 -2.27351 -0.196676 0
M  V30 827 C 78.7722 -1.35715 -0.895561 0
M  V30 828 O 79.9562 -1.65126 -0.90916 0
M  V30 829 C 77.0832 -3.13486 -1.28235 0
M  V30 830 C 76.1292 -4.20896 -0.689145 0
M  V30 831 S 76.9622 -5.33299 0.48507 0
M  V30 832 C 78.1182 -6.23 -0.601767 0
M  V30 833 H 78.3512 -2.93228 0.490395 0
M  V30 834 H 75.8842 -1.49875 0.371071 0
M  V30 835 H 77.8422 -3.63676 -1.90395 0
M  V30 836 H 76.5032 -2.4692 -1.94138 0
M  V30 837 H 75.6962 -4.80997 -1.50527 0
M  V30 838 H 75.2982 -3.73726 -0.143181 0
M  V30 839 H 77.5902 -6.60979 -1.48705 0
M  V30 840 H 78.5332 -7.0809 -0.0374799 0
M  V30 841 H 78.9412 -5.57173 -0.906557 0
M  V30 842 N 78.3393 -0.321999 -1.54275 0
M  V30 843 C 79.6163 0.335232 -1.92706 0
M  V30 844 C 79.9963 1.70006 -1.25145 0
M  V30 845 O 79.3443 2.25067 -0.394596 0
M  V30 846 C 79.5543 0.429008 -3.46353 0
M  V30 847 C 80.9023 0.690029 -4.18956 0
M  V30 848 O 81.9263 0.511992 -3.52501 0
M  V30 849 O 80.7853 1.03338 -5.36641 0
M  V30 850 H 77.8793 0.191143 -0.804608 0
M  V30 851 H 80.4253 -0.3716 -1.65581 0
M  V30 852 H 79.1973 -0.529611 -3.87699 0
M  V30 853 H 78.8203 1.18348 -3.79578 0
M  V30 854 N 79.8174 1.5752 -0.0501392 0
M  V30 855 C 81.0654 1.9227 0.622642 0
M  V30 856 C 81.3864 0.929083 1.71444 0
M  V30 857 O 80.6564 -0.0262186 1.95882 0
M  V30 858 H 79.2364 0.709739 0.232981 0
M  V30 859 H 81.8984 1.94628 -0.102898 0
M  V30 860 H 80.9944 2.93479 1.06191 0
M  V30 861 N 81.2955 -0.223234 1.56011 0
M  V30 862 C 82.5725 -0.972108 1.69733 0
M  V30 863 C 82.9525 -2.02485 0.59691 0
M  V30 864 O 82.3005 -2.25037 -0.396324 0
M  V30 865 C 82.5105 -1.58407 3.10979 0
M  V30 866 C 83.8585 -2.07696 3.70334 0
M  V30 867 O 84.8825 -1.68304 3.1393 0
M  V30 868 O 83.7415 -2.80096 4.69264 0
M  V30 869 H 80.8355 -0.453993 0.691245 0
M  V30 870 H 83.3815 -0.215149 1.68331 0
M  V30 871 H 82.1535 -0.823831 3.82529 0
M  V30 872 H 81.7765 -2.40661 3.16493 0
M  V30 873 N 82.7736 -1.49793 -0.48987 0
M  V30 874 C 83.6836 -1.70036 -1.61632 0
M  V30 875 C 84.6996 -0.583102 -1.63939 0
M  V30 876 O 85.8756 -0.859169 -1.82154 0
M  V30 877 C 82.9406 -1.77277 -2.97949 0
M  V30 878 C 82.0016 -3.00918 -3.06181 0
M  V30 879 C 81.2346 -3.07804 -4.35996 0
M  V30 880 O 81.4576 -2.21982 -5.25433 0
M  V30 881 O 80.3916 -4.00369 -4.49431 0
M  V30 882 H 84.2176 -2.65486 -1.47482 0
M  V30 883 H 81.8026 -1.33666 -0.667362 0
M  V30 884 H 83.6846 -1.84329 -3.78947 0
M  V30 885 H 82.3596 -0.850076 -3.12339 0
M  V30 886 H 81.2666 -2.99377 -2.2433 0
M  V30 887 H 82.5996 -3.92704 -2.96723 0
M  V30 888 N 84.2517 0.741722 -1.39055 0
M  V30 889 C 85.1847 1.86416 -1.31622 0
M  V30 890 C 86.1627 1.61473 -0.191076 0
M  V30 891 O 87.3467 1.84825 -0.370399 0
M  V30 892 C 84.4737 3.22266 -1.04221 0
M  V30 893 C 83.5197 3.66079 -2.18834 0
M  V30 894 S 84.3527 3.7623 -3.81066 0
M  V30 895 C 85.5087 5.14881 -3.55877 0
M  V30 896 H 85.7417 1.92437 -2.26617 0
M  V30 897 H 83.2747 0.905907 -1.25031 0
M  V30 898 H 85.2327 4.00714 -0.890964 0
M  V30 899 H 83.8937 3.1391 -0.109237 0
M  V30 900 H 83.0867 4.64648 -1.95238 0
M  V30 901 H 82.6887 2.94817 -2.30128 0
M  V30 902 H 84.9807 6.01006 -3.12726 0
M  V30 903 H 85.9237 5.43503 -4.53884 0
M  V30 904 H 86.3317 4.84239 -2.90126 0
M  V30 905 N 85.7298 1.2412 0.971189 0
M  V30 906 C 86.9578 1.10575 1.74874 0
M  V30 907 C 87.3728 -0.342017 1.85676 0
M  V30 908 O 86.7298 -1.23617 1.34258 0
M  V30 909 C 86.7808 1.73579 3.171 0
M  V30 910 O 86.5018 3.12695 3.06844 0
M  V30 911 C 88.0028 1.65598 4.11208 0
M  V30 912 H 85.2228 0.386504 0.548503 0
M  V30 913 H 87.7668 1.64156 1.21955 0
M  V30 914 H 85.9218 1.24009 3.67016 0
M  V30 915 H 86.3358 3.43412 3.96445 0
M  V30 916 H 87.8098 2.1437 5.08674 0
M  V30 917 H 88.2868 0.616532 4.34851 0
M  V30 918 H 88.8928 2.14578 3.67201 0
M  V30 919 N 87.2079 -1.17134 1.05439 0
M  V30 920 C 88.6239 -1.39454 0.776201 0
M  V30 921 C 88.8239 -1.91454 -0.628307 0
M  V30 922 O 87.8799 -2.10777 -1.39031 0
M  V30 923 C 89.1929 -2.38305 1.83388 0
M  V30 924 C 90.7409 -2.52006 1.85639 0
M  V30 925 C 91.2159 -3.54133 2.90437 0
M  V30 926 N 92.7069 -3.61653 2.89415 0
M  V30 927 C 93.4419 -4.4044 3.67152 0
M  V30 928 N 92.9379 -5.22721 4.54681 0
M  V30 929 N 94.7309 -4.35337 3.55581 0
M  V30 930 H 86.8819 -0.817134 1.96053 0
M  V30 931 H 89.1449 -0.421626 0.849079 0
M  V30 932 H 88.8509 -2.07173 2.84204 0
M  V30 933 H 88.7249 -3.37841 1.67761 0
M  V30 934 H 91.1119 -2.82447 0.85486 0
M  V30 935 H 91.1929 -1.52537 2.05344 0
M  V30 936 H 90.8369 -3.24431 3.90777 0
M  V30 937 H 90.7669 -4.53313 2.67983 0
M  V30 938 H 93.2579 -3.02909 2.25952 0
M  V30 939 H 93.5709 -5.80027 5.10674 0
M  V30 940 H 91.9159 -5.22093 4.58741 0
M  V30 941 H 95.1069 -3.70112 2.86592 0
M  V30 942 H 95.2799 -4.96494 4.1641 0
M  V30 943 N 88.686 -0.835752 -1.33615 0
M  V30 944 C 89.935 -0.426289 -1.97144 0
M  V30 945 C 90.248 1.01912 -1.66953 0
M  V30 946 O 91.454 1.53311 -2.24072 0
M  V30 947 C 89.91 -0.711321 -3.52801 0
M  V30 948 C 89.518 -2.1712 -3.91871 0
M  V30 949 C 91.262 -0.368654 -4.22896 0
M  V30 950 C 89.169 -2.40044 -5.40493 0
M  V30 951 H 88.099 -0.15567 -0.737755 0
M  V30 952 H 90.75 -1.0239 -1.52278 0
M  V30 953 H 89.132 -0.0433766 -3.95976 0
M  V30 954 H 90.306 -2.87936 -3.59763 0
M  V30 955 H 88.621 -2.47654 -3.34749 0
M  V30 956 H 91.218 -0.517601 -5.32189 0
M  V30 957 H 91.561 0.688078 -4.10574 0
M  V30 958 H 92.094 -0.991702 -3.8524 0
M  V30 959 H 88.833 -3.44271 -5.57815 0
M  V30 960 H 88.353 -1.73785 -5.74072 0
M  V30 961 H 90.032 -2.23042 -6.0734 0
M  V30 962 N 90.1641 1.46063 -0.591896 0
M  V30 963 C 91.4131 2.01547 -0.0786637 0
M  V30 964 C 91.7261 1.46796 1.29268 0
M  V30 965 O 92.9321 1.94157 1.89777 0
M  V30 966 C 91.3881 3.59787 -0.0900024 0
M  V30 967 C 90.9961 4.23534 -1.46023 0
M  V30 968 C 92.7401 4.22895 0.368806 0
M  V30 969 C 90.6471 5.73881 -1.4288 0
M  V30 970 H 89.5771 0.753564 -0.0256388 0
M  V30 971 H 92.2281 1.677 -0.744905 0
M  V30 972 H 90.6101 3.90752 0.642586 0
M  V30 973 H 91.7841 4.04167 -2.21328 0
M  V30 974 H 90.0991 3.72558 -1.85982 0
M  V30 975 H 92.6961 5.33116 0.411258 0
M  V30 976 H 93.0391 3.9247 1.38827 0
M  V30 977 H 93.5721 3.9659 -0.31001 0
M  V30 978 H 90.3111 6.0898 -2.42536 0
M  V30 979 H 89.8311 5.95486 -0.718095 0
M  V30 980 H 91.5101 6.36776 -1.14565 0
M  V30 981 N 91.6422 0.330177 1.54103 0
M  V30 982 C 92.8882 -0.263542 2.01685 0
M  V30 983 C 93.2432 -1.49258 1.21408 0
M  V30 984 O 92.5362 -1.89395 0.289852 0
M  V30 985 C 92.7302 -0.643134 3.51566 0
M  V30 986 C 92.5592 0.547571 4.46354 0
M  V30 987 C 91.3292 1.04873 4.94297 0
M  V30 988 C 93.5272 1.40184 4.94826 0
M  V30 989 N 91.5092 2.20316 5.73005 0
M  V30 990 C 92.8802 2.40335 5.71524 0
M  V30 991 C 94.9352 1.42884 4.76958 0
M  V30 992 C 93.6382 3.42998 6.32254 0
M  V30 993 C 95.6642 2.44421 5.38528 0
M  V30 994 C 95.0262 3.43298 6.15082 0
M  V30 995 H 91.1252 -0.0601026 0.779687 0
M  V30 996 H 93.7092 0.466714 1.89023 0
M  V30 997 H 91.8802 -1.34251 3.6446 0
M  V30 998 H 93.6122 -1.21889 3.85908 0
M  V30 999 H 90.3672 0.618956 4.69538 0
M  V30 1000 H 90.7912 2.78565 6.17034 0
M  V30 1001 H 95.4332 0.678049 4.17328 0
M  V30 1002 H 93.1512 4.1898 6.91 0
M  V30 1003 H 96.7372 2.4732 5.26616 0
M  V30 1004 H 95.6172 4.20579 6.61878 0
M  V30 1005 N 93.1203 -1.57491 0.0584922 0
M  V30 1006 C 94.0523 -2.08916 -0.942694 0
M  V30 1007 C 95.0653 -1.0185 -1.27006 0
M  V30 1008 O 96.2543 -1.29398 -1.22957 0
M  V30 1009 C 93.3543 -2.52341 -2.26224 0
M  V30 1010 C 92.5273 -3.82827 -2.1157 0
M  V30 1011 C 91.5863 -4.12487 -3.26712 0
M  V30 1012 O 90.6123 -4.82295 -3.02292 0
M  V30 1013 N 91.8143 -3.64978 -4.5141 0
M  V30 1014 H 94.5793 -2.95437 -0.503722 0
M  V30 1015 H 92.1403 -1.61397 -0.12757 0
M  V30 1016 H 94.1323 -2.69254 -3.02133 0
M  V30 1017 H 92.7023 -1.7103 -2.61663 0
M  V30 1018 H 91.9223 -3.75425 -1.20208 0
M  V30 1019 H 93.2103 -4.68263 -1.99015 0
M  V30 1020 H 92.6083 -3.08558 -4.7414 0
M  V30 1021 H 91.1653 -3.87115 -5.2439 0
M  V30 1022 N 94.5984 0.214957 -1.56127 0
M  V30 1023 C 95.8454 0.938372 -1.79446 0
M  V30 1024 C 96.1734 1.8407 -0.628378 0
M  V30 1025 O 95.4284 1.91837 0.386925 0
M  V30 1026 C 95.7274 1.80314 -3.0858 0
M  V30 1027 C 95.3934 1.05349 -4.3842 0
M  V30 1028 C 94.0554 0.846435 -4.73697 0
M  V30 1029 C 96.4074 0.524588 -5.18553 0
M  V30 1030 C 93.7354 0.098683 -5.86617 0
M  V30 1031 C 96.0874 -0.209853 -6.32252 0
M  V30 1032 C 94.7514 -0.428102 -6.66126 0
M  V30 1033 H 94.0214 0.343375 -0.656639 0
M  V30 1034 H 96.6684 0.206077 -1.90388 0
M  V30 1035 H 94.9734 2.6035 -2.92789 0
M  V30 1036 H 96.6704 2.36513 -3.23825 0
M  V30 1037 H 93.2604 1.22486 -4.10725 0
M  V30 1038 H 97.4444 0.672008 -4.91729 0
M  V30 1039 H 92.7004 -0.0805753 -6.11347 0
M  V30 1040 H 96.8744 -0.627157 -6.9357 0
M  V30 1041 H 94.5014 -1.00944 -7.53468 0
M  V30 1042 N 96.0765 1.50051 0.48192 0
M  V30 1043 C 97.3255 1.59741 1.23149 0
M  V30 1044 C 97.6385 0.298163 1.93314 0
M  V30 1045 O 98.8445 0.273835 2.70116 0
M  V30 1046 C 97.3005 2.81926 2.23708 0
M  V30 1047 C 96.9085 4.18685 1.59396 0
M  V30 1048 C 98.6525 3.00956 2.99375 0
M  V30 1049 C 96.5595 5.3207 2.58178 0
M  V30 1050 H 95.4895 0.594838 0.46334 0
M  V30 1051 H 98.1405 1.76467 0.503169 0
M  V30 1052 H 96.5225 2.58736 2.99786 0
M  V30 1053 H 97.6965 4.52088 0.891811 0
M  V30 1054 H 96.0115 4.05171 0.960503 0
M  V30 1055 H 98.6085 3.82836 3.73283 0
M  V30 1056 H 98.9515 2.12258 3.58123 0
M  V30 1057 H 99.4845 3.24277 2.30411 0
M  V30 1058 H 96.2235 6.22888 2.04184 0
M  V30 1059 H 95.7435 5.03098 3.26577 0
M  V30 1060 H 97.4225 5.62196 3.20225 0
M  V30 1061 N 97.5546 -0.734337 1.39446 0
M  V30 1062 C 98.5016 -1.84835 1.38219 0
M  V30 1063 C 99.4716 -1.64331 0.24179 0
M  V30 1064 O 100.657 -1.85728 0.437002 0
M  V30 1065 C 97.7966 -3.22355 1.23212 0
M  V30 1066 C 96.9096 -3.5456 2.46801 0
M  V30 1067 C 96.0446 -4.81485 2.24377 0
M  V30 1068 C 95.0836 -5.06536 3.43639 0
M  V30 1069 N 94.2206 -6.24665 3.20528 0
M  V30 1070 H 99.0606 -1.85219 2.33448 0
M  V30 1071 H 96.5976 -0.905039 1.15963 0
M  V30 1072 H 98.5556 -4.0174 1.12522 0
M  V30 1073 H 97.1856 -3.21248 0.316121 0
M  V30 1074 H 96.2376 -2.69872 2.68092 0
M  V30 1075 H 97.5496 -3.6899 3.3563 0
M  V30 1076 H 96.7036 -5.68852 2.10933 0
M  V30 1077 H 95.4426 -4.6923 1.32944 0
M  V30 1078 H 94.4476 -4.17632 3.5758 0
M  V30 1079 H 95.6726 -5.20676 4.35974 0
M  V30 1080 H 93.6186 -6.13696 2.3176 0
M  V30 1081 H 93.5356 -6.39685 4.02913 0
M  V30 1082 H 94.8036 -7.14868 3.10779 0
M  V30 1083 N 99.0327 -1.24633 -0.964593 0
M  V30 1084 C 99.9427 -1.05859 -2.09359 0
M  V30 1085 C 100.959 0.00148855 -1.74 0
M  V30 1086 O 102.135 -0.197346 -2.00431 0
M  V30 1087 C 99.1997 -0.668879 -3.40187 0
M  V30 1088 C 98.2607 -1.80578 -3.89474 0
M  V30 1089 C 97.4937 -1.43457 -5.14058 0
M  V30 1090 O 97.7167 -0.325775 -5.69469 0
M  V30 1091 O 96.6507 -2.2613 -5.57807 0
M  V30 1092 H 100.477 -2.00516 -2.28094 0
M  V30 1093 H 98.0617 -1.03481 -1.0776 0
M  V30 1094 H 99.9437 -0.463211 -4.18846 0
M  V30 1095 H 98.6187 0.248536 -3.22744 0
M  V30 1096 H 97.5257 -2.06623 -3.11862 0
M  V30 1097 H 98.8587 -2.70208 -4.11398 0
M  V30 1098 N 100.511 1.16574 -1.06058 0
M  V30 1099 C 101.458 2.20883 -0.669263 0
M  V30 1100 C 102.428 1.62729 0.332918 0
M  V30 1101 O 103.613 1.895 0.222346 0
M  V30 1102 C 100.753 3.45049 -0.0593572 0
M  V30 1103 C 99.8658 4.17458 -1.11143 0
M  V30 1104 C 99.0008 5.29135 -0.467916 0
M  V30 1105 C 98.0398 5.93343 -1.50369 0
M  V30 1106 N 97.1768 6.96516 -0.883706 0
M  V30 1107 H 102.017 2.53709 -1.5632 0
M  V30 1108 H 99.5538 1.24616 -0.781625 0
M  V30 1109 H 101.512 4.16033 0.311771 0
M  V30 1110 H 100.142 3.12781 0.797992 0
M  V30 1111 H 99.1938 3.45101 -1.60029 0
M  V30 1112 H 100.506 4.61307 -1.89731 0
M  V30 1113 H 99.6598 6.06684 -0.0436871 0
M  V30 1114 H 98.3988 4.86443 0.349864 0
M  V30 1115 H 97.4038 5.14517 -1.93784 0
M  V30 1116 H 98.6288 6.38114 -2.32352 0
M  V30 1117 H 96.5748 6.55943 -0.086595 0
M  V30 1118 H 96.4918 7.38723 -1.607 0
M  V30 1119 H 97.7598 7.77993 -0.484543 0
M  V30 1120 N 101.989 0.842826 1.3317 0
M  V30 1121 C 102.919 0.294028 2.31641 0
M  V30 1122 C 103.9 -0.600401 1.59151 0
M  V30 1123 O 105.085 -0.523124 1.87022 0
M  V30 1124 C 102.215 -0.528416 3.43257 0
M  V30 1125 C 101.169 0.27056 4.27144 0
M  V30 1126 C 100.495 -0.675881 5.30411 0
M  V30 1127 C 101.795 1.48981 5.00602 0
M  V30 1128 H 103.489 1.11681 2.77791 0
M  V30 1129 H 101.035 0.538478 1.33553 0
M  V30 1130 H 102.988 -0.922674 4.11175 0
M  V30 1131 H 101.712 -1.38445 2.95805 0
M  V30 1132 H 100.371 0.646427 3.60856 0
M  V30 1133 H 100.019 -1.52842 4.79216 0
M  V30 1134 H 99.7189 -0.145374 5.8742 0
M  V30 1135 H 101.243 -1.06757 6.01195 0
M  V30 1136 H 102.657 1.16849 5.61266 0
M  V30 1137 H 101.054 1.95739 5.6728 0
M  V30 1138 H 102.124 2.25746 4.29147 0
M  V30 1139 N 103.467 -1.45747 0.599634 0
M  V30 1140 C 104.716 -2.01502 0.0893511 0
M  V30 1141 C 105.029 -1.4748 -1.28488 0
M  V30 1142 O 106.235 -1.95161 -1.88745 0
M  V30 1143 C 104.691 -3.59735 0.109082 0
M  V30 1144 C 104.299 -4.22754 1.48267 0
M  V30 1145 C 106.043 -4.23085 -0.346374 0
M  V30 1146 C 103.95 -5.73115 1.45921 0
M  V30 1147 H 102.88 -0.753417 0.0296347 0
M  V30 1148 H 105.531 -1.67303 0.753788 0
M  V30 1149 H 103.913 -3.91087 -0.621854 0
M  V30 1150 H 105.087 -4.02987 2.23468 0
M  V30 1151 H 103.402 -3.71567 1.87955 0
M  V30 1152 H 105.999 -5.33327 -0.38298 0
M  V30 1153 H 106.342 -3.93201 -1.36743 0
M  V30 1154 H 106.875 -3.9642 0.331038 0
M  V30 1155 H 103.614 -6.07685 2.45762 0
M  V30 1156 H 103.134 -5.95097 0.749665 0
M  V30 1157 H 104.813 -6.3616 1.17941 0
M  V30 1158 N 104.945 -0.338344 -1.53925 0
M  V30 1159 C 105.875 0.51328 -2.27789 0
M  V30 1160 C 106.856 1.107 -1.29149 0
M  V30 1161 O 108.041 1.12937 -1.57984 0
M  V30 1162 C 105.171 1.66697 -3.04679 0
M  V30 1163 C 104.125 1.20183 -4.1078 0
M  V30 1164 C 103.451 2.44363 -4.75595 0
M  V30 1165 C 104.751 0.30605 -5.21403 0
M  V30 1166 H 106.445 -0.102883 -2.99223 0
M  V30 1167 H 103.991 -0.0509219 -1.4391 0
M  V30 1168 H 105.944 2.26915 -3.55088 0
M  V30 1169 H 104.668 2.30995 -2.30887 0
M  V30 1170 H 103.327 0.622499 -3.61276 0
M  V30 1171 H 102.975 3.07057 -3.98403 0
M  V30 1172 H 102.675 2.13925 -5.47275 0
M  V30 1173 H 104.199 3.05317 -5.28786 0
M  V30 1174 H 105.613 0.814929 -5.67478 0
M  V30 1175 H 104.01 0.0937929 -6.00027 0
M  V30 1176 H 105.08 -0.65921 -4.80398 0
M  V30 1177 N 106.423 1.57458 -0.0668435 0
M  V30 1178 C 107.834 1.80776 0.466558 0
M  V30 1179 C 108.185 0.980361 1.69951 0
M  V30 1180 O 107.31 0.201441 2.1546 0
M  V30 1181 C 107.905 3.27881 0.85321 0
M  V30 1182 C 106.464 3.52062 1.3315 0
M  V30 1183 C 105.611 2.75513 0.314264 0
M  V30 1184 H 108.562 1.5598 -0.292588 0
M  V30 1185 H 108.583 3.39659 1.715 0
M  V30 1186 H 108.095 3.88075 -0.0443439 0
M  V30 1187 H 106.196 2.97167 2.24772 0
M  V30 1188 H 106.309 4.60762 1.31285 0
M  V30 1189 H 104.673 2.42123 0.790492 0
M  V30 1190 H 105.456 3.38442 -0.575477 0
M  V30 1191 N 107.901 -0.206675 1.56239 0
M  V30 1192 C 108.851 -1.26 1.90021 0
M  V30 1193 C 109.835 -1.41566 0.764721 0
M  V30 1194 O 111.027 -1.44131 1.02739 0
M  V30 1195 C 108.156 -2.6073 2.23326 0
M  V30 1196 C 107.242 -2.49005 3.43304 0
M  V30 1197 N 107.633 -2.06946 4.61527 0
M  V30 1198 C 105.931 -2.79927 3.47213 0
M  V30 1199 C 106.632 -2.06832 5.43687 0
M  V30 1200 N 105.608 -2.47892 4.83788 0
M  V30 1201 H 109.41 -0.925955 2.78932 0
M  V30 1202 H 106.924 -0.415172 1.57003 0
M  V30 1203 H 108.921 -3.36798 2.45708 0
M  V30 1204 H 107.581 -2.94968 1.35735 0
M  V30 1205 H 108.592 -1.77839 4.86409 0
M  V30 1206 H 105.269 -3.18438 2.70006 0
M  V30 1207 H 106.659 -1.76312 6.48354 0
M  V30 1208 N 109.379 -1.50304 -0.473955 0
M  V30 1209 C 110.625 -1.61389 -1.22806 0
M  V30 1210 C 110.958 -0.311955 -1.91678 0
M  V30 1211 O 110.233 0.686384 -1.81986 0
M  V30 1212 C 110.516 -2.79219 -2.27396 0
M  V30 1213 C 110.369 -4.19286 -1.62848 0
M  V30 1214 C 111.688 -2.92614 -3.28732 0
M  V30 1215 H 108.807 -0.587399 -0.445119 0
M  V30 1216 H 111.449 -1.82681 -0.522265 0
M  V30 1217 H 109.599 -2.61195 -2.87592 0
M  V30 1218 H 111.271 -4.48892 -1.06271 0
M  V30 1219 H 109.514 -4.23677 -0.931693 0
M  V30 1220 H 110.185 -4.97655 -2.38838 0
M  V30 1221 H 112.661 -3.09105 -2.78556 0
M  V30 1222 H 111.537 -3.76688 -3.99246 0
M  V30 1223 H 111.798 -2.03107 -3.92683 0
M  V30 1224 N 110.857 0.726932 -1.39834 0
M  V30 1225 C 112.134 1.47902 -1.28001 0
M  V30 1226 C 112.514 2.1083 0.106789 0
M  V30 1227 O 111.862 1.99242 1.11869 0
M  V30 1228 C 112.072 2.52392 -2.41038 0
M  V30 1229 C 113.42 3.18546 -2.80737 0
M  V30 1230 O 114.444 2.62708 -2.40547 0
M  V30 1231 O 113.303 4.19604 -3.50135 0
M  V30 1232 H 110.397 0.657163 -0.502062 0
M  V30 1233 H 112.943 0.760071 -1.51727 0
M  V30 1234 H 111.715 2.04329 -3.33715 0
M  V30 1235 H 111.338 3.31837 -2.19021 0
M  V30 1236 N 112.336 1.25143 0.95797 0
M  V30 1237 C 113.585 1.0909 1.69654 0
M  V30 1238 C 113.898 -0.368548 1.92097 0
M  V30 1239 O 115.104 -0.649455 2.63618 0
M  V30 1240 C 113.56 1.90395 3.05414 0
M  V30 1241 C 113.168 3.4081 2.90779 0
M  V30 1242 C 114.912 1.82901 3.83076 0
M  V30 1243 C 112.819 4.14423 4.21909 0
M  V30 1244 H 111.749 0.404625 0.636235 0
M  V30 1245 H 114.4 1.4931 1.06672 0
M  V30 1246 H 112.782 1.42996 3.69281 0
M  V30 1247 H 113.956 3.95859 2.35865 0
M  V30 1248 H 112.271 3.49361 2.26575 0
M  V30 1249 H 114.868 2.35196 4.80195 0
M  V30 1250 H 115.211 0.796224 4.08615 0
M  V30 1251 H 115.744 2.28033 3.25954 0
M  V30 1252 H 112.483 5.18102 4.01561 0
M  V30 1253 H 112.003 3.64159 4.76601 0
M  V30 1254 H 113.682 4.21956 4.90471 0
M  V30 1255 N 113.814 -1.1601 1.06675 0
M  V30 1256 C 114.746 -2.20115 0.638921 0
M  V30 1257 C 115.759 -1.59916 -0.305057 0
M  V30 1258 O 116.948 -1.78245 -0.0954446 0
M  V30 1259 C 114.048 -3.38798 -0.0830083 0
M  V30 1260 C 113.221 -4.2855 0.875426 0
M  V30 1261 C 112.28 -5.25849 0.192042 0
M  V30 1262 O 111.306 -5.63102 0.830921 0
M  V30 1263 N 112.508 -5.70648 -1.06493 0
M  V30 1264 H 115.273 -2.57439 1.53444 0
M  V30 1265 H 112.834 -1.31057 0.950557 0
M  V30 1266 H 114.826 -4.00936 -0.550685 0
M  V30 1267 H 113.396 -2.99947 -0.880386 0
M  V30 1268 H 112.616 -3.63617 1.52238 0
M  V30 1269 H 113.904 -4.85393 1.52548 0
M  V30 1270 H 113.302 -5.42482 -1.60405 0
M  V30 1271 H 111.859 -6.34859 -1.47641 0
M  V30 1272 N 115.292 -0.849877 -1.32721 0
M  V30 1273 C 116.222 -0.306308 -2.31482 0
M  V30 1274 C 117.203 0.591952 -1.59468 0
M  V30 1275 O 118.388 0.513199 -1.87296 0
M  V30 1276 C 115.518 0.510204 -3.43532 0
M  V30 1277 C 114.472 -0.293209 -4.26994 0
M  V30 1278 C 113.798 0.647743 -5.30762 0
M  V30 1279 C 115.098 -1.51634 -4.99804 0
M  V30 1280 H 116.792 -1.13153 -2.77195 0
M  V30 1281 H 114.338 -0.545553 -1.33266 0
M  V30 1282 H 116.291 0.900856 -4.11658 0
M  V30 1283 H 115.015 1.36874 -2.96535 0
M  V30 1284 H 113.674 -0.665555 -3.60508 0
M  V30 1285 H 113.322 1.50299 -4.8002 0
M  V30 1286 H 113.022 0.11422 -5.87489 0
M  V30 1287 H 114.546 1.03567 -6.01753 0
M  V30 1288 H 115.96 -1.19824 -5.60638 0
M  V30 1289 H 114.357 -1.98745 -5.66234 0
M  V30 1290 H 115.427 -2.28018 -4.27943 0
M  V30 1291 N 116.77 1.45427 -0.607355 0
M  V30 1292 C 117.717 2.3053 0.111625 0
M  V30 1293 C 118.687 1.4209 0.860216 0
M  V30 1294 O 119.872 1.71019 0.845998 0
M  V30 1295 C 117.012 3.26992 1.10319 0
M  V30 1296 C 116.125 4.30535 0.355493 0
M  V30 1297 C 115.26 5.14105 1.33676 0
M  V30 1298 C 114.299 6.09376 0.576862 0
M  V30 1299 N 113.436 6.85727 1.5074 0
M  V30 1300 H 118.276 2.91477 -0.620093 0
M  V30 1301 H 115.813 1.43631 -0.317594 0
M  V30 1302 H 117.771 3.81385 1.6912 0
M  V30 1303 H 116.401 2.67799 1.80232 0
M  V30 1304 H 115.453 3.78805 -0.348023 0
M  V30 1305 H 116.765 4.98235 -0.237423 0
M  V30 1306 H 115.919 5.72897 1.99684 0
M  V30 1307 H 114.658 4.46423 1.9636 0
M  V30 1308 H 113.663 5.49715 -0.0968519 0
M  V30 1309 H 114.888 6.79085 -0.0449341 0
M  V30 1310 H 112.834 6.20735 2.12189 0
M  V30 1311 H 112.751 7.49778 0.967913 0
M  V30 1312 H 114.019 7.4906 2.15706 0
M  V30 1313 N 118.248 0.346503 1.53744 0
M  V30 1314 C 119.478 -0.250047 2.05081 0
M  V30 1315 C 119.886 -1.44529 1.22098 0
M  V30 1316 O 119.229 -1.81992 0.249917 0
M  V30 1317 C 119.291 -0.725934 3.52094 0
M  V30 1318 C 118.955 0.350053 4.55657 0
M  V30 1319 C 119.952 1.19372 5.0601 0
M  V30 1320 C 117.637 0.504827 4.99757 0
M  V30 1321 C 119.631 2.17768 5.99046 0
M  V30 1322 C 117.318 1.49218 5.92602 0
M  V30 1323 C 118.316 2.32706 6.42135 0
M  V30 1324 O 118.004 3.2976 7.33153 0
M  V30 1325 H 117.736 -0.0515469 0.674032 0
M  V30 1326 H 120.29 0.497559 1.99282 0
M  V30 1327 H 118.52 -1.52483 3.55367 0
M  V30 1328 H 120.209 -1.24336 3.86388 0
M  V30 1329 H 120.975 1.08525 4.72702 0
M  V30 1330 H 116.854 -0.135178 4.60802 0
M  V30 1331 H 120.398 2.82971 6.37631 0
M  V30 1332 H 116.295 1.6012 6.25325 0
M  V30 1333 H 117.063 3.25265 7.51096 0
M  V30 1334 N 119.726 -1.57421 0.075193 0
M  V30 1335 C 120.973 -1.93618 -0.593146 0
M  V30 1336 C 121.301 -0.955484 -1.69413 0
M  V30 1337 O 120.556 0.0283251 -1.9568 0
M  V30 1338 C 120.855 -3.36428 -1.20626 0
M  V30 1339 C 120.521 -4.50307 -0.231078 0
M  V30 1340 C 119.183 -4.81186 0.0371936 0
M  V30 1341 C 121.535 -5.19374 0.435888 0
M  V30 1342 C 118.863 -5.78466 0.979461 0
M  V30 1343 C 121.215 -6.17665 1.3665 0
M  V30 1344 C 119.879 -6.46958 1.6432 0
M  V30 1345 H 119.149 -0.708499 -0.217047 0
M  V30 1346 H 121.796 -1.90937 0.146793 0
M  V30 1347 H 120.101 -3.35592 -2.02201 0
M  V30 1348 H 121.798 -3.61727 -1.73073 0
M  V30 1349 H 118.388 -4.26227 -0.450357 0
M  V30 1350 H 122.572 -4.95711 0.241748 0
M  V30 1351 H 117.828 -5.99487 1.20106 0
M  V30 1352 H 122.002 -6.70284 1.88924 0
M  V30 1353 H 119.629 -7.2215 2.37494 0
M  V30 1354 N 121.204 0.198386 -1.56346 0
M  V30 1355 C 122.481 0.944982 -1.71258 0
M  V30 1356 C 122.861 2.0151 -0.629048 0
M  V30 1357 O 122.209 2.25639 0.360473 0
M  V30 1358 C 122.419 1.5344 -3.1346 0
M  V30 1359 C 123.767 2.01778 -3.73591 0
M  V30 1360 O 124.791 1.63288 -3.16568 0
M  V30 1361 O 123.65 2.72594 -4.73661 0
M  V30 1362 H 120.744 0.442939 -0.69838 0
M  V30 1363 H 123.29 0.188342 -1.68652 0
M  V30 1364 H 122.062 0.762869 -3.83792 0
M  V30 1365 H 121.685 2.35596 -3.20282 0
M  V30 1366 N 122.682 1.50554 0.465978 0
M  V30 1367 C 123.612 1.72722 1.57128 0
M  V30 1368 C 124.593 0.576294 1.6004 0
M  V30 1369 O 125.778 0.81598 1.76225 0
M  V30 1370 C 122.908 1.82605 2.95419 0
M  V30 1371 C 121.862 2.97835 3.07373 0
M  V30 1372 C 121.188 2.92867 4.47363 0
M  V30 1373 C 122.488 4.38265 2.84114 0
M  V30 1374 H 124.182 2.65267 1.38829 0
M  V30 1375 H 121.728 1.2765 0.666441 0
M  V30 1376 H 123.681 1.96698 3.72677 0
M  V30 1377 H 122.405 0.866858 3.14886 0
M  V30 1378 H 121.064 2.83401 2.3255 0
M  V30 1379 H 120.712 1.94783 4.63755 0
M  V30 1380 H 120.412 3.70227 4.56296 0
M  V30 1381 H 121.936 3.09015 5.26633 0
M  V30 1382 H 123.35 4.53198 3.51118 0
M  V30 1383 H 121.747 5.17115 3.04487 0
M  V30 1384 H 122.817 4.50281 1.7993 0
M  V30 1385 N 124.16 -0.719506 1.40217 0
M  V30 1386 C 125.408 -1.47641 1.3801 0
M  V30 1387 C 125.729 -1.94992 -0.018145 0
M  V30 1388 O 124.999 -1.70073 -0.972207 0
M  V30 1389 H 123.579 -0.547744 0.507923 0
M  V30 1390 H 126.241 -0.853187 1.75233 0
M  V30 1391 H 125.337 -2.35112 2.05253 0
M  V30 1392 N 125.638 -1.25649 -0.95132 0
M  V30 1393 C 126.568 -1.08808 -2.06599 0
M  V30 1394 C 127.549 0.00382547 -1.701 0
M  V30 1395 O 128.734 -0.166325 -1.93486 0
M  V30 1396 C 125.864 -0.709542 -3.39975 0
M  V30 1397 C 124.818 -1.75206 -3.90496 0
M  V30 1398 C 124.144 -1.22811 -5.20405 0
M  V30 1399 C 125.444 -3.15153 -4.16504 0
M  V30 1400 H 127.138 -2.02048 -2.20946 0
M  V30 1401 H 124.684 -0.972835 -1.06169 0
M  V30 1402 H 126.637 -0.578649 -4.17408 0
M  V30 1403 H 125.361 0.258556 -3.25575 0
M  V30 1404 H 124.02 -1.87145 -3.15234 0
M  V30 1405 H 123.668 -0.250145 -5.02378 0
M  V30 1406 H 123.368 -1.92492 -5.55176 0
M  V30 1407 H 124.892 -1.10968 -6.00432 0
M  V30 1408 H 126.306 -3.06349 -4.84586 0
M  V30 1409 H 124.703 -3.82333 -4.62538 0
M  V30 1410 H 125.773 -3.61966 -3.22658 0
M  V30 1411 N 127.117 1.15442 -1.07289 0
M  V30 1412 C 128.528 1.67803 -0.818475 0
M  V30 1413 C 128.879 1.8489 0.656507 0
M  V30 1414 O 128.004 1.55176 1.50829 0
M  V30 1415 C 128.599 3.04805 -1.47917 0
M  V30 1416 C 127.158 3.54245 -1.27229 0
M  V30 1417 C 126.305 2.29986 -1.54925 0
M  V30 1418 H 129.256 0.996646 -1.23502 0
M  V30 1419 H 129.277 3.69702 -0.90005 0
M  V30 1420 H 128.789 2.92336 -2.55267 0
M  V30 1421 H 126.89 3.71956 -0.21899 0
M  V30 1422 H 127.003 4.35723 -1.99203 0
M  V30 1423 H 125.367 2.35496 -0.970242 0
M  V30 1424 H 126.15 2.20105 -2.63455 0
M  V30 1425 N 128.595 0.856903 1.32268 0
M  V30 1426 C 129.543 0.291987 2.3076 0
M  V30 1427 C 130.537 -0.585857 1.58947 0
M  V30 1428 O 131.743 -0.47341 1.73663 0
M  V30 1429 H 128.118 0.075721 0.748178 0
M  V30 1430 H 130.089 1.13687 2.75895 0
M  V30 1431 C 128.838 -0.502869 3.44044 0
M  V30 1432 H 128.161 0.163328 3.99466 0
M  V30 1433 H 129.601 -0.863691 4.1511 0
M  V30 1434 C 128.06 -1.68898 2.91505 0
M  V30 1435 O 128.59 -2.78811 2.89184 0
M  V30 1436 N 126.796 -1.51679 2.47875 0
M  V30 1437 H 126.343 -0.622666 2.49961 0
M  V30 1438 H 126.301 -2.31184 2.13076 0
M  V30 1439 N 130.073 -1.45103 0.615059 0
M  V30 1440 C 131.489 -1.57137 0.279322 0
M  V30 1441 C 131.689 -1.60523 -1.21797 0
M  V30 1442 O 130.745 -1.53956 -2.00134 0
M  V30 1443 C 132.058 -2.85062 0.957083 0
M  V30 1444 C 133.606 -2.98749 0.933706 0
M  V30 1445 C 134.081 -4.29455 1.59162 0
M  V30 1446 N 135.572 -4.36231 1.55746 0
M  V30 1447 C 136.307 -5.36051 2.0356 0
M  V30 1448 N 135.803 -6.42367 2.59494 0
M  V30 1449 N 137.596 -5.27456 1.94284 0
M  V30 1450 H 129.747 -1.41148 1.58717 0
M  V30 1451 H 132.01 -0.675331 0.665306 0
M  V30 1452 H 131.716 -2.88488 2.01166 0
M  V30 1453 H 131.59 -3.7407 0.48494 0
M  V30 1454 H 133.977 -2.94886 -0.112347 0
M  V30 1455 H 134.058 -2.11132 1.44419 0
M  V30 1456 H 133.702 -4.34077 2.63704 0
M  V30 1457 H 133.632 -5.15901 1.0561 0
M  V30 1458 H 136.123 -3.60011 1.14893 0
M  V30 1459 H 136.436 -7.14793 2.93752 0
M  V30 1460 H 134.781 -6.43097 2.63537 0
M  V30 1461 H 137.972 -4.43308 1.5032 0
M  V30 1462 H 138.145 -6.05099 2.3186 0
M  V30 1463 N 131.551 -0.354651 -1.53558 0
M  V30 1464 C 132.828 0.294281 -1.93374 0
M  V30 1465 C 133.208 1.67313 -1.28723 0
M  V30 1466 O 132.556 2.24179 -0.442247 0
M  V30 1467 C 132.766 0.355445 -3.47185 0
M  V30 1468 C 134.114 0.601007 -4.20325 0
M  V30 1469 O 135.138 0.437106 -3.53508 0
M  V30 1470 O 133.997 0.919322 -5.38712 0
M  V30 1471 H 131.091 0.174033 -0.808481 0
M  V30 1472 H 133.637 -0.406638 -1.64756 0
M  V30 1473 H 132.409 -0.611729 -3.86489 0
M  V30 1474 H 132.032 1.1027 -3.82003 0
M  V30 1475 N 133.029 1.57378 -0.0835403 0
M  V30 1476 C 133.961 2.10389 0.909338 0
M  V30 1477 C 134.974 1.03858 1.25369 0
M  V30 1478 O 136.163 1.31338 1.20882 0
M  V30 1479 C 133.263 2.55908 2.2218 0
M  V30 1480 C 132.436 3.86145 2.05453 0
M  V30 1481 C 131.495 4.17633 3.20108 0
M  V30 1482 O 130.521 4.87043 2.94581 0
M  V30 1483 N 131.723 3.72113 4.45547 0
M  V30 1484 H 134.488 2.962 0.456657 0
M  V30 1485 H 132.049 1.61579 0.101877 0
M  V30 1486 H 134.041 2.74027 2.97811 0
M  V30 1487 H 132.611 1.75171 2.58909 0
M  V30 1488 H 131.831 3.7729 1.1422 0
M  V30 1489 H 133.119 4.7137 1.91541 0
M  V30 1490 H 132.517 3.16062 4.69171 0
M  V30 1491 H 131.074 3.95409 5.18165 0
M  V30 1492 N 134.507 -0.190092 1.56449 0
M  V30 1493 C 135.735 -0.925772 1.85033 0
M  V30 1494 C 136.15 -1.76638 0.666658 0
M  V30 1495 O 135.507 -1.78822 -0.364565 0
M  V30 1496 C 135.558 -1.81786 3.12468 0
M  V30 1497 O 135.279 -1.01118 4.26271 0
M  V30 1498 C 136.78 -2.6648 3.54265 0
M  V30 1499 H 134 -0.269872 0.614337 0
M  V30 1500 H 136.544 -0.195837 2.0356 0
M  V30 1501 H 134.699 -2.50136 2.95822 0
M  V30 1502 H 135.113 -1.61956 4.98869 0
M  V30 1503 H 136.587 -3.24722 4.46385 0
M  V30 1504 H 137.064 -3.40434 2.77491 0
M  V30 1505 H 137.67 -2.03493 3.73458 0
M  V30 1506 N 135.985 -1.50799 -0.457987 0
M  V30 1507 C 137.262 -1.52968 -1.21902 0
M  V30 1508 C 137.642 -0.281906 -2.09209 0
M  V30 1509 O 136.99 0.734076 -2.16388 0
M  V30 1510 C 137.2 -2.8326 -2.03875 0
M  V30 1511 C 138.548 -3.34425 -2.6162 0
M  V30 1512 O 139.572 -2.8467 -2.14106 0
M  V30 1513 O 138.431 -4.21188 -3.48228 0
M  V30 1514 H 135.525 -0.614129 -0.553873 0
M  V30 1515 H 138.071 -1.63098 -0.468739 0
M  V30 1516 H 136.843 -3.65543 -1.39621 0
M  V30 1517 H 136.466 -2.76195 -2.8601 0
M  V30 1518 N 137.463 0.71206 -1.40597 0
M  V30 1519 C 138.74 1.46536 -1.29563 0
M  V30 1520 C 139.12 2.10931 0.0844217 0
M  V30 1521 O 138.468 2.00418 1.0975 0
M  V30 1522 C 138.678 2.49821 -2.43701 0
M  V30 1523 C 140.026 3.15551 -2.841 0
M  V30 1524 O 141.05 2.60142 -2.4332 0
M  V30 1525 O 139.909 4.15867 -3.54566 0
M  V30 1526 H 137.003 0.651801 -0.509004 0
M  V30 1527 H 139.549 0.743935 -1.52524 0
M  V30 1528 H 138.321 2.00778 -3.35863 0
M  V30 1529 H 137.944 3.29495 -2.22528 0
M  V30 1530 N 138.941 1.26152 0.944643 0
M  V30 1531 C 139.873 1.03199 2.04652 0
M  V30 1532 C 140.886 -0.00642356 1.62799 0
M  V30 1533 O 142.075 0.233263 1.76969 0
M  V30 1534 C 139.175 0.540111 3.34568 0
M  V30 1535 C 138.348 1.64697 4.05208 0
M  V30 1536 C 137.407 1.15374 5.13396 0
M  V30 1537 O 136.433 1.85013 5.38293 0
M  V30 1538 N 137.635 0.00031529 5.805 0
M  V30 1539 H 140.4 1.9808 2.2491 0
M  V30 1540 H 137.961 1.17491 1.11389 0
M  V30 1541 H 139.953 0.194401 4.04233 0
M  V30 1542 H 138.523 -0.315021 3.11009 0
M  V30 1543 H 137.743 2.16379 3.29506 0
M  V30 1544 H 139.031 2.3903 4.49157 0
M  V30 1545 H 138.429 -0.581336 5.62705 0
M  V30 1546 H 136.986 -0.286346 6.51171 0
M  V30 1547 N 140.419 -1.14872 1.07899 0
M  V30 1548 C 141.665 -1.86064 0.806725 0
M  V30 1549 C 141.998 -1.82434 -0.665706 0
M  V30 1550 O 141.273 -1.25138 -1.48899 0
M  V30 1551 C 141.556 -3.34929 1.32267 0
M  V30 1552 C 141.409 -3.47161 2.86006 0
M  V30 1553 C 142.728 -4.29863 0.943717 0
M  V30 1554 H 139.847 -0.675591 0.294526 0
M  V30 1555 H 142.489 -1.34925 1.33773 0
M  V30 1556 H 140.639 -3.78611 0.870974 0
M  V30 1557 H 142.311 -3.12302 3.39507 0
M  V30 1558 H 140.554 -2.88539 3.23925 0
M  V30 1559 H 141.225 -4.51777 3.17177 0
M  V30 1560 H 143.701 -3.9417 1.33302 0
M  V30 1561 H 142.577 -5.32494 1.33198 0
M  V30 1562 H 142.838 -4.41846 -0.149796 0
M  V30 1563 N 141.898 -0.863906 -1.31812 0
M  V30 1564 C 143.126 -0.486111 -2.01108 0
M  V30 1565 C 143.541 0.919755 -1.64882 0
M  V30 1566 O 142.898 1.60162 -0.874893 0
M  V30 1567 C 142.949 -0.626435 -3.56031 0
M  V30 1568 O 142.67 -1.97693 -3.90959 0
M  V30 1569 C 144.171 -0.248857 -4.42601 0
M  V30 1570 H 141.391 -0.190052 -0.643523 0
M  V30 1571 H 143.935 -1.1634 -1.68182 0
M  V30 1572 H 142.09 0.00322717 -3.874 0
M  V30 1573 H 142.504 -1.98034 -4.85678 0
M  V30 1574 H 143.978 -0.398016 -5.50563 0
M  V30 1575 H 144.455 0.811489 -4.31638 0
M  V30 1576 H 145.061 -0.853971 -4.16638 0
M  V30 1577 N 143.376 1.44774 -0.622745 0
M  V30 1578 C 144.625 2.01334 -0.121397 0
M  V30 1579 C 144.938 1.49505 1.26125 0
M  V30 1580 O 146.144 1.98139 1.85616 0
M  V30 1581 C 144.6 3.59516 -0.166298 0
M  V30 1582 C 144.208 4.20342 -1.54974 0
M  V30 1583 C 145.952 4.23582 0.279021 0
M  V30 1584 C 143.859 5.70721 -1.55021 0
M  V30 1585 H 142.789 0.752851 -0.0416172 0
M  V30 1586 H 145.44 1.66083 -0.780309 0
M  V30 1587 H 143.822 3.92027 0.559557 0
M  V30 1588 H 144.996 3.99381 -2.29851 0
M  V30 1589 H 143.311 3.68529 -1.93843 0
M  V30 1590 H 145.908 5.33868 0.298083 0
M  V30 1591 H 146.251 3.95327 1.30471 0
M  V30 1592 H 146.784 3.95843 -0.394063 0
M  V30 1593 H 143.523 6.03698 -2.55399 0
M  V30 1594 H 143.043 5.93829 -0.844245 0
M  V30 1595 H 144.722 6.34203 -1.28047 0
M  V30 1596 N 144.854 0.36279 1.53368 0
M  V30 1597 C 146.131 -0.284021 1.93527 0
M  V30 1598 C 146.511 -1.66628 1.29608 0
M  V30 1599 O 145.859 -2.23942 0.45413 0
M  V30 1600 C 146.069 -0.337028 3.47369 0
M  V30 1601 C 147.417 -0.578708 4.20638 0
M  V30 1602 O 148.441 -0.418352 3.53735 0
M  V30 1603 O 147.3 -0.89074 5.39192 0
M  V30 1604 H 144.394 -0.169743 0.809393 0
M  V30 1605 H 146.94 0.41537 1.64538 0
M  V30 1606 H 145.712 0.632217 3.86159 0
M  V30 1607 H 145.335 -1.08243 3.82582 0
M  V30 1608 N 146.332 -1.57332 0.0918853 0
M  V30 1609 C 147.557 -1.98995 -0.584442 0
M  V30 1610 C 147.982 -0.970528 -1.61128 0
M  V30 1611 O 147.34 0.0613904 -1.81196 0
M  V30 1612 C 147.388 -3.39636 -1.21161 0
M  V30 1613 O 146.492 -3.40447 -2.32744 0
M  V30 1614 H 145.833 -0.647165 -0.148572 0
M  V30 1615 H 148.363 -2.03873 0.172347 0
M  V30 1616 H 148.373 -3.7726 -1.55367 0
M  V30 1617 H 147.048 -4.13356 -0.459313 0
M  V30 1618 H 145.625 -3.14614 -2.0018 0
M  V30 1619 N 147.81 0.181792 -1.56548 0
M  V30 1620 C 148.773 1.20894 -1.94724 0
M  V30 1621 C 149.773 1.37738 -0.829747 0
M  V30 1622 O 150.963 1.35323 -1.09697 0
M  V30 1623 C 148.095 2.57593 -2.23291 0
M  V30 1624 H 149.288 0.882275 -2.86629 0
M  V30 1625 H 146.841 0.423838 -1.50444 0
M  V30 1626 H 147.576 2.95291 -1.34067 0
M  V30 1627 H 147.361 2.46735 -3.04736 0
M  V30 1628 H 148.851 3.31637 -2.53785 0
M  V30 1629 N 149.288 1.51039 0.449983 0
M  V30 1630 C 150.218 1.74379 1.55288 0
M  V30 1631 C 151.199 0.593236 1.5942 0
M  V30 1632 O 152.384 0.834625 1.7535 0
M  V30 1633 C 149.514 1.85728 2.93466 0
M  V30 1634 C 148.468 3.01078 3.04197 0
M  V30 1635 C 147.794 2.97595 4.44231 0
M  V30 1636 C 149.094 4.41254 2.7945 0
M  V30 1637 H 150.788 2.66725 1.36008 0
M  V30 1638 H 148.334 1.2835 0.652864 0
M  V30 1639 H 150.287 2.0064 3.70569 0
M  V30 1640 H 149.011 0.900207 3.13949 0
M  V30 1641 H 147.67 2.85851 2.29531 0
M  V30 1642 H 147.318 1.99691 4.61663 0
M  V30 1643 H 147.018 3.75046 4.52343 0
M  V30 1644 H 148.542 3.14583 5.23326 0
M  V30 1645 H 149.956 4.56897 3.46292 0
M  V30 1646 H 148.353 5.20315 2.98985 0
M  V30 1647 H 149.423 4.52164 1.75144 0
M  V30 1648 N 150.766 -0.704594 1.40972 0
M  V30 1649 C 151.729 -1.80035 1.41845 0
M  V30 1650 C 152.729 -1.57774 0.310474 0
M  V30 1651 O 153.919 -1.64613 0.56992 0
M  V30 1652 C 151.051 -3.18284 1.22098 0
M  V30 1653 H 152.244 -1.80658 2.3938 0
M  V30 1654 H 149.797 -0.911329 1.26982 0
M  V30 1655 H 150.532 -3.23306 0.253672 0
M  V30 1656 H 150.317 -3.35843 2.02366 0
M  V30 1657 H 151.807 -3.98289 1.25522 0
M  V30 1658 N 152.244 -1.26651 -0.937939 0
M  V30 1659 C 153.472 -1.15173 -1.7188 0
M  V30 1660 C 153.887 0.292668 -1.86518 0
M  V30 1661 O 153.244 1.20014 -1.37488 0
M  V30 1662 C 153.295 -1.81925 -3.12387 0
M  V30 1663 O 153.016 -3.2072 -2.98446 0
M  V30 1664 C 154.517 -1.76442 -4.06673 0
M  V30 1665 H 151.737 -0.400911 -0.538063 0
M  V30 1666 H 154.281 -1.67332 -1.1756 0
M  V30 1667 H 152.436 -1.33696 -3.63599 0
M  V30 1668 H 152.85 -3.53802 -3.872 0
M  V30 1669 H 154.324 -2.27781 -5.02812 0
M  V30 1670 H 154.801 -0.731608 -4.33064 0
M  V30 1671 H 155.407 -2.24238 -3.61382 0
M  V30 1672 N 153.722 1.14298 -1.08507 0
M  V30 1673 C 154.654 2.1907 -0.673859 0
M  V30 1674 C 155.667 1.60381 0.279577 0
M  V30 1675 O 156.856 1.78374 0.0670754 0
M  V30 1676 C 153.956 3.38888 0.0290979 0
M  V30 1677 C 153.129 4.27103 -0.943494 0
M  V30 1678 C 152.188 5.25477 -0.275676 0
M  V30 1679 O 151.214 5.61709 -0.920401 0
M  V30 1680 N 152.416 5.7227 0.974013 0
M  V30 1681 H 155.181 2.54965 -1.57521 0
M  V30 1682 H 152.742 1.29528 -0.971287 0
M  V30 1683 H 154.734 4.01761 0.48683 0
M  V30 1684 H 153.304 3.01309 0.832555 0
M  V30 1685 H 152.524 3.61149 -1.58004 0
M  V30 1686 H 153.812 4.82905 -1.60251 0
M  V30 1687 H 153.21 5.44965 1.51755 0
M  V30 1688 H 151.767 6.37127 1.37522 0
M  V30 1689 N 155.201 0.870884 1.31352 0
M  V30 1690 C 156.148 0.325425 2.28494 0
M  V30 1691 C 157.118 -0.576615 1.5577 0
M  V30 1692 O 158.303 -0.508059 1.83911 0
M  V30 1693 C 155.443 -0.466283 3.41935 0
M  V30 1694 C 154.556 0.463378 4.29508 0
M  V30 1695 C 153.691 -0.342544 5.30094 0
M  V30 1696 C 152.73 0.583486 6.09313 0
M  V30 1697 N 151.867 -0.186244 7.01853 0
M  V30 1698 H 156.707 1.15901 2.74538 0
M  V30 1699 H 154.244 0.58294 1.35056 0
M  V30 1700 H 156.202 -0.941085 4.06447 0
M  V30 1701 H 154.832 -1.26456 2.97 0
M  V30 1702 H 153.884 1.05663 3.65431 0
M  V30 1703 H 155.196 1.1734 4.84802 0
M  V30 1704 H 154.35 -0.879816 6.00287 0
M  V30 1705 H 153.089 -1.08585 4.75458 0
M  V30 1706 H 152.094 1.13251 5.3801 0
M  V30 1707 H 153.319 1.32566 6.66035 0
M  V30 1708 H 151.265 -0.912348 6.49625 0
M  V30 1709 H 151.182 0.464422 7.54572 0
M  V30 1710 H 152.45 -0.704716 7.76308 0
M  V30 1711 N 156.679 -1.44442 0.630414 0
M  V30 1712 C 157.909 -2.06115 0.141465 0
M  V30 1713 C 158.317 -1.47179 -1.1889 0
M  V30 1714 O 157.66 -0.588873 -1.74006 0
M  V30 1715 C 157.722 -3.59467 -0.0484355 0
M  V30 1716 C 157.386 -4.40864 1.20366 0
M  V30 1717 C 158.383 -4.74391 2.12719 0
M  V30 1718 C 156.068 -4.8125 1.43887 0
M  V30 1719 C 158.062 -5.47186 3.26904 0
M  V30 1720 C 155.749 -5.53795 2.5837 0
M  V30 1721 C 156.747 -5.86682 3.49705 0
M  V30 1722 O 156.435 -6.57749 4.62191 0
M  V30 1723 H 156.167 -0.671648 0.0765792 0
M  V30 1724 H 158.721 -1.86312 0.864695 0
M  V30 1725 H 156.951 -3.77758 -0.826803 0
M  V30 1726 H 158.64 -4.02909 -0.491849 0
M  V30 1727 H 159.406 -4.43728 1.95781 0
M  V30 1728 H 155.285 -4.55073 0.736853 0
M  V30 1729 H 158.829 -5.72773 3.98217 0
M  V30 1730 H 154.726 -5.83872 2.75251 0
M  V30 1731 H 155.494 -6.76217 4.61164 0
M  V30 1732 N 158.157 -0.370918 -1.53173 0
M  V30 1733 C 159.382 0.220293 -2.06227 0
M  V30 1734 C 159.807 1.41243 -1.24225 0
M  V30 1735 O 159.165 1.79387 -0.262645 0
M  V30 1736 C 159.213 0.586663 -3.55796 0
M  V30 1737 O 158.317 1.68317 -3.76488 0
M  V30 1738 H 157.658 0.0308099 -0.663285 0
M  V30 1739 H 160.188 -0.533068 -1.97534 0
M  V30 1740 H 160.198 0.85617 -3.98916 0
M  V30 1741 H 158.873 -0.285013 -4.14922 0
M  V30 1742 H 157.45 1.40881 -3.45264 0
M  V30 1743 N 159.635 1.57281 -0.100228 0
M  V30 1744 C 160.881 1.94826 0.563101 0
M  V30 1745 C 161.214 0.982475 1.67514 0
M  V30 1746 O 160.489 0.0164069 1.94493 0
M  V30 1747 C 160.772 3.42453 1.11346 0
M  V30 1748 C 160.625 4.498 0.00612081 0
M  V30 1749 C 161.944 3.91506 2.01024 0
M  V30 1750 H 159.063 0.708428 0.203221 0
M  V30 1751 H 161.705 1.8922 -0.171979 0
M  V30 1752 H 159.855 3.47361 1.7399 0
M  V30 1753 H 161.527 4.57 -0.628357 0
M  V30 1754 H 159.77 4.28756 -0.659581 0
M  V30 1755 H 160.441 5.50306 0.432109 0
M  V30 1756 H 162.917 3.88784 1.48278 0
M  V30 1757 H 161.793 4.95358 2.36457 0
M  V30 1758 H 162.054 3.31099 2.92961 0
M  V30 1759 N 161.113 -0.173488 1.56642 0
M  V30 1760 C 162.076 -1.19859 1.95362 0
M  V30 1761 C 163.076 -1.37296 0.83704 0
M  V30 1762 O 164.266 -1.34739 1.10413 0
M  V30 1763 C 161.398 -2.56405 2.24654 0
M  V30 1764 H 162.591 -0.867062 2.87092 0
M  V30 1765 H 160.144 -0.415853 1.50666 0
M  V30 1766 H 160.879 -2.94576 1.35631 0
M  V30 1767 H 160.664 -2.45115 3.06041 0
M  V30 1768 H 162.154 -3.30287 2.5554 0
M  V30 1769 N 162.591 -1.51276 -0.441967 0
M  V30 1770 C 163.837 -1.63958 -1.19355 0
M  V30 1771 C 164.17 -0.352543 -1.90973 0
M  V30 1772 O 163.445 0.647627 -1.83401 0
M  V30 1773 C 163.728 -2.83979 -2.21422 0
M  V30 1774 C 163.581 -4.22646 -1.53918 0
M  V30 1775 C 164.9 -2.99521 -3.22451 0
M  V30 1776 H 162.019 -0.596709 -0.432559 0
M  V30 1777 H 164.661 -1.83748 -0.483398 0
M  V30 1778 H 162.811 -2.67237 -2.81987 0
M  V30 1779 H 164.483 -4.51045 -0.967256 0
M  V30 1780 H 162.726 -4.25558 -0.841615 0
M  V30 1781 H 163.397 -5.02609 -2.28229 0
M  V30 1782 H 165.873 -3.14944 -2.71937 0
M  V30 1783 H 164.749 -3.85072 -3.91166 0
M  V30 1784 H 165.01 -2.11391 -3.88287 0
M  V30 1785 N 164.069 0.697108 -1.41344 0
M  V30 1786 C 165.016 1.81106 -1.43071 0
M  V30 1787 C 165.986 1.63632 -0.285275 0
M  V30 1788 O 167.171 1.84504 -0.486091 0
M  V30 1789 C 164.311 3.18975 -1.31715 0
M  V30 1790 C 163.424 3.47892 -2.56115 0
M  V30 1791 C 162.559 4.75367 -2.37064 0
M  V30 1792 C 161.598 4.97247 -3.56948 0
M  V30 1793 N 160.735 6.15947 -3.36977 0
M  V30 1794 H 165.575 1.78965 -2.38276 0
M  V30 1795 H 163.112 0.873975 -1.18322 0
M  V30 1796 H 165.07 3.98615 -1.23133 0
M  V30 1797 H 163.7 3.20297 -0.401183 0
M  V30 1798 H 162.752 2.62669 -2.75153 0
M  V30 1799 H 164.064 3.59962 -3.45295 0
M  V30 1800 H 163.218 5.63059 -2.25941 0
M  V30 1801 H 161.957 4.65541 -1.45338 0
M  V30 1802 H 160.962 4.08004 -3.68527 0
M  V30 1803 H 162.187 5.08934 -4.49626 0
M  V30 1804 H 160.133 6.07336 -2.47949 0
M  V30 1805 H 160.05 6.28777 -4.19732 0
M  V30 1806 H 161.318 7.06377 -3.29623 0
M  V30 1807 N 165.547 1.27147 0.931209 0
M  V30 1808 C 166.787 1.14511 1.69312 0
M  V30 1809 C 167.151 -0.304638 1.89568 0
M  V30 1810 O 168.352 -0.553343 2.63043 0
M  V30 1811 C 166.623 1.90349 3.02493 0
M  V30 1812 S 168.182 1.93884 3.93642 0
M  V30 1813 H 165 0.408858 0.581684 0
M  V30 1814 H 167.602 1.61006 1.10893 0
M  V30 1815 H 166.306 2.94877 2.85439 0
M  V30 1816 H 165.837 1.44333 3.65966 0
M  V30 1817 H 167.852 1.03273 4.85334 0
M  V30 1818 N 167.025 -1.13721 1.09112 0
M  V30 1819 C 167.988 -2.17222 0.731241 0
M  V30 1820 C 168.988 -1.59035 -0.237566 0
M  V30 1821 O 170.178 -1.74192 -0.0161704 0
M  V30 1822 C 167.31 -3.40804 0.0808443 0
M  V30 1823 H 168.503 -2.50573 1.64783 0
M  V30 1824 H 166.056 -1.28493 0.889897 0
M  V30 1825 H 166.791 -3.1304 -0.847127 0
M  V30 1826 H 166.576 -3.84306 0.777896 0
M  V30 1827 H 168.066 -4.1731 -0.155657 0
M  V30 1828 N 168.503 -0.877838 -1.30888 0
M  V30 1829 C 169.731 -0.507414 -2.00581 0
M  V30 1830 C 170.146 0.902216 -1.65848 0
M  V30 1831 O 169.503 1.59225 -0.891831 0
M  V30 1832 C 169.554 -0.664162 -3.55347 0
M  V30 1833 O 169.275 -2.01829 -3.8884 0
M  V30 1834 C 170.776 -0.295787 -4.42312 0
M  V30 1835 H 167.996 -0.196866 -0.641471 0
M  V30 1836 H 170.54 -1.18117 -1.66939 0
M  V30 1837 H 168.695 -0.0378619 -3.87381 0
M  V30 1838 H 169.109 -2.03174 -4.8355 0
M  V30 1839 H 170.583 -0.456388 -5.5011 0
M  V30 1840 H 171.06 0.765663 -4.32475 0
M  V30 1841 H 171.666 -0.898113 -4.15709 0
M  V30 1842 N 169.982 1.44106 -0.638065 0
M  V30 1843 C 171.231 2.01194 -0.142744 0
M  V30 1844 C 171.544 1.50835 1.24532 0
M  V30 1845 O 172.75 2.00096 1.83504 0
M  V30 1846 C 171.206 3.59319 -0.20442 0
M  V30 1847 C 170.814 4.18674 -1.59423 0
M  V30 1848 C 172.558 4.23854 0.234079 0
M  V30 1849 C 170.465 5.69045 -1.61065 0
M  V30 1850 H 169.395 0.752367 -0.0495998 0
M  V30 1851 H 172.046 1.65246 -0.797881 0
M  V30 1852 H 170.428 3.92598 0.517946 0
M  V30 1853 H 171.602 3.96921 -2.34074 0
M  V30 1854 H 169.917 3.66453 -1.97741 0
M  V30 1855 H 172.514 5.34155 0.241443 0
M  V30 1856 H 172.857 3.96688 1.2627 0
M  V30 1857 H 173.39 3.95403 -0.436025 0
M  V30 1858 H 170.129 6.00956 -2.61787 0
M  V30 1859 H 169.649 5.929 -0.90718 0
M  V30 1860 H 171.328 6.32809 -1.34766 0
M  V30 1861 N 171.46 0.379036 1.52974 0
M  V30 1862 C 172.688 -0.20679 2.05864 0
M  V30 1863 C 173.103 -1.41356 1.25155 0
M  V30 1864 O 172.46 -1.8009 0.295588 0
M  V30 1865 C 172.511 -0.587045 3.56702 0
M  V30 1866 O 172.232 0.571776 4.34353 0
M  V30 1867 C 173.733 -1.22983 4.25899 0
M  V30 1868 H 170.953 -0.0336123 0.670158 0
M  V30 1869 H 173.497 0.541298 1.97206 0
M  V30 1870 H 171.652 -1.28504 3.65466 0
M  V30 1871 H 172.066 0.261544 5.23847 0
M  V30 1872 H 173.54 -1.44635 5.32715 0
M  V30 1873 H 174.017 -2.19416 3.80465 0
M  V30 1874 H 174.623 -0.572892 4.21424 0
M  V30 1875 N 172.938 -1.57226 0.108567 0
M  V30 1876 C 174.349 -1.8195 -0.418464 0
M  V30 1877 C 174.7 -1.02508 -1.67292 0
M  V30 1878 O 173.825 -0.258496 -2.14851 0
M  V30 1879 C 174.42 -3.30028 -0.765979 0
M  V30 1880 C 172.979 -3.55469 -1.23769 0
M  V30 1881 C 172.126 -2.7625 -0.241106 0
M  V30 1882 H 175.077 -1.55149 0.33384 0
M  V30 1883 H 175.098 -3.44086 -1.62434 0
M  V30 1884 H 174.61 -3.87821 0.147219 0
M  V30 1885 H 172.711 -3.03022 -2.16814 0
M  V30 1886 H 172.824 -4.6408 -1.19022 0
M  V30 1887 H 171.188 -2.44133 -0.72602 0
M  V30 1888 H 171.971 -3.36797 0.665007 0
M  V30 1889 N 174.416 0.165178 -1.56732 0
M  V30 1890 C 175.693 0.908443 -1.73224 0
M  V30 1891 C 176.073 2.0013 -0.67165 0
M  V30 1892 O 175.421 2.26353 0.31253 0
M  V30 1893 C 175.631 1.46756 -3.16644 0
M  V30 1894 C 176.979 1.93809 -3.77787 0
M  V30 1895 O 178.003 1.56537 -3.1996 0
M  V30 1896 O 176.862 2.62486 -4.79336 0
M  V30 1897 H 173.956 0.428025 -0.707618 0
M  V30 1898 H 176.502 0.152526 -1.69013 0
M  V30 1899 H 175.274 0.68129 -3.85323 0
M  V30 1900 H 174.897 2.28749 -3.25207 0
M  V30 1901 N 175.894 1.51508 0.433938 0
M  V30 1902 C 176.804 1.75917 1.5521 0
M  V30 1903 C 177.82 0.643545 1.61662 0
M  V30 1904 O 178.996 0.926183 1.7884 0
M  V30 1905 C 176.061 1.88213 2.91164 0
M  V30 1906 C 175.122 3.12074 2.94802 0
M  V30 1907 C 174.355 3.23774 4.24271 0
M  V30 1908 O 174.578 2.4133 5.16833 0
M  V30 1909 O 173.512 4.16774 4.34262 0
M  V30 1910 H 177.338 2.70777 1.37527 0
M  V30 1911 H 174.923 1.36051 0.617293 0
M  V30 1912 H 176.805 1.98267 3.71845 0
M  V30 1913 H 175.48 0.965413 3.08968 0
M  V30 1914 H 174.387 3.07497 2.13065 0
M  V30 1915 H 175.72 4.03446 2.81943 0
M  V30 1916 N 177.372 -0.689602 1.41712 0
M  V30 1917 C 178.335 -1.78521 1.43746 0
M  V30 1918 C 179.335 -1.57436 0.327191 0
M  V30 1919 O 180.525 -1.64 0.587348 0
M  V30 1920 C 177.657 -3.16971 1.25467 0
M  V30 1921 H 178.85 -1.78108 2.41283 0
M  V30 1922 H 176.403 -0.89781 1.27942 0
M  V30 1923 H 177.138 -3.23019 0.287948 0
M  V30 1924 H 176.923 -3.33678 2.05917 0
M  V30 1925 H 178.413 -3.96935 1.2974 0
M  V30 1926 N 178.85 -1.27639 -0.924453 0
M  V30 1927 C 180.266 -1.05113 -1.20097 0
M  V30 1928 C 180.466 0.213262 -2.00368 0
M  V30 1929 O 179.522 0.91787 -2.35226 0
M  V30 1930 C 180.835 -2.29244 -1.94596 0
M  V30 1931 C 182.383 -2.34315 -2.07522 0
M  V30 1932 C 182.858 -3.58183 -2.85427 0
M  V30 1933 N 184.349 -3.5876 -2.92994 0
M  V30 1934 C 185.084 -4.51277 -3.53746 0
M  V30 1935 N 184.58 -5.54102 -4.15863 0
M  V30 1936 N 186.373 -4.38894 -3.51181 0
M  V30 1937 H 178.524 -2.08821 -0.388264 0
M  V30 1938 H 180.787 -0.918568 -0.234385 0
M  V30 1939 H 180.493 -3.21301 -1.43034 0
M  V30 1940 H 180.367 -2.34816 -2.95197 0
M  V30 1941 H 182.754 -1.42762 -2.58269 0
M  V30 1942 H 182.835 -2.32744 -1.06131 0
M  V30 1943 H 182.479 -4.50074 -2.35363 0
M  V30 1944 H 182.409 -3.57006 -3.8711 0
M  V30 1945 H 184.9 -2.84398 -2.4885 0
M  V30 1946 H 185.213 -6.20859 -4.60168 0
M  V30 1947 H 183.558 -5.57941 -4.144 0
M  V30 1948 H 186.749 -3.57772 -3.01856 0
M  V30 1949 H 186.922 -5.11186 -3.98237 0
M  V30 1950 N 180.328 1.1314 -1.09713 0
M  V30 1951 C 181.574 1.84757 -0.836224 0
M  V30 1952 C 181.907 1.8347 0.636598 0
M  V30 1953 O 181.182 1.27491 1.46889 0
M  V30 1954 C 181.465 3.32782 -1.37578 0
M  V30 1955 C 181.318 3.42567 -2.91493 0
M  V30 1956 C 182.637 4.28307 -1.01198 0
M  V30 1957 H 179.756 0.67082 -0.305236 0
M  V30 1958 H 182.398 1.3278 -1.35903 0
M  V30 1959 H 180.548 3.77177 -0.931097 0
M  V30 1960 H 182.22 3.06862 -3.44432 0
M  V30 1961 H 180.463 2.83349 -3.28475 0
M  V30 1962 H 181.134 4.46674 -3.24324 0
M  V30 1963 H 183.61 3.91999 -1.39556 0
M  V30 1964 H 182.486 5.30307 -1.41653 0
M  V30 1965 H 182.747 4.42029 0.0794833 0
M  V30 1966 N 181.806 0.884767 1.30421 0
M  V30 1967 C 182.716 0.355398 2.31892 0
M  V30 1968 C 183.732 -0.542261 1.65335 0
M  V30 1969 O 184.908 -0.435432 1.96637 0
M  V30 1970 C 181.973 -0.421661 3.44126 0
M  V30 1971 C 181.034 0.505727 4.26311 0
M  V30 1972 C 180.267 -0.234343 5.33185 0
M  V30 1973 O 180.49 -1.46045 5.51386 0
M  V30 1974 O 179.424 0.415443 6.00465 0
M  V30 1975 H 183.25 1.19685 2.79122 0
M  V30 1976 H 180.835 0.648596 1.34587 0
M  V30 1977 H 182.717 -0.861641 4.12497 0
M  V30 1978 H 181.392 -1.23942 2.99032 0
M  V30 1979 H 180.299 0.994513 3.60639 0
M  V30 1980 H 181.632 1.28948 4.75009 0
M  V30 1981 N 183.284 -1.43765 0.645699 0
M  V30 1982 C 184.194 -2.34544 -0.0512957 0
M  V30 1983 C 185.21 -1.53455 -0.82022 0
M  V30 1984 O 186.386 -1.86133 -0.769176 0
M  V30 1985 C 183.451 -3.31636 -1.01087 0
M  V30 1986 C 182.512 -4.2863 -0.239712 0
M  V30 1987 C 181.745 -5.21084 -1.15358 0
M  V30 1988 O 181.968 -5.1779 -2.39269 0
M  V30 1989 O 180.902 -5.98593 -0.630038 0
M  V30 1990 H 184.728 -2.95624 0.695718 0
M  V30 1991 H 182.313 -1.43781 0.405882 0
M  V30 1992 H 184.195 -3.9136 -1.56254 0
M  V30 1993 H 182.87 -2.73069 -1.73824 0
M  V30 1994 H 181.777 -3.72408 0.355356 0
M  V30 1995 H 183.11 -4.90157 0.447936 0
M  V30 1996 N 184.763 -0.387143 -1.52771 0
M  V30 1997 C 186.01 0.195735 -2.01552 0
M  V30 1998 C 186.338 1.46995 -1.27369 0
M  V30 1999 O 185.593 1.92325 -0.361879 0
M  V30 2000 C 185.892 0.512209 -3.53711 0
M  V30 2001 C 185.558 -0.670202 -4.45891 0
M  V30 2002 C 184.22 -0.994586 -4.70809 0
M  V30 2003 C 186.572 -1.46134 -5.00294 0
M  V30 2004 C 183.9 -2.11169 -5.4738 0
M  V30 2005 C 186.252 -2.56903 -5.78086 0
M  V30 2006 C 184.916 -2.89852 -6.01284 0
M  V30 2007 H 184.186 0.0716246 -0.73753 0
M  V30 2008 H 186.833 -0.524046 -1.8419 0
M  V30 2009 H 185.138 1.31329 -3.69134 0
M  V30 2010 H 186.835 0.975804 -3.88946 0
M  V30 2011 H 183.425 -0.407366 -4.2666 0
M  V30 2012 H 187.609 -1.22397 -4.80971 0
M  V30 2013 H 182.865 -2.3707 -5.63567 0
M  V30 2014 H 187.039 -3.18608 -6.19243 0
M  V30 2015 H 184.666 -3.76533 -6.60399 0
M  V30 2016 N 186.241 1.57166 -0.116904 0
M  V30 2017 C 187.188 2.15202 0.83408 0
M  V30 2018 C 188.158 1.07644 1.26499 0
M  V30 2019 O 189.343 1.35541 1.34288 0
M  V30 2020 C 186.483 2.75405 2.07957 0
M  V30 2021 C 185.596 3.97264 1.69721 0
M  V30 2022 C 184.731 4.45561 2.89221 0
M  V30 2023 C 183.77 5.59956 2.47215 0
M  V30 2024 N 182.907 6.03006 3.59622 0
M  V30 2025 H 187.747 2.96141 0.332335 0
M  V30 2026 H 185.284 1.46309 0.152349 0
M  V30 2027 H 187.242 3.08439 2.80929 0
M  V30 2028 H 185.872 1.97159 2.55594 0
M  V30 2029 H 184.924 3.70404 0.866316 0
M  V30 2030 H 186.236 4.80226 1.34849 0
M  V30 2031 H 185.39 4.80493 3.7042 0
M  V30 2032 H 184.129 3.61544 3.27318 0
M  V30 2033 H 183.134 5.2463 1.64448 0
M  V30 2034 H 184.359 6.45738 2.10238 0
M  V30 2035 H 182.305 5.21931 3.97396 0
M  V30 2036 H 182.222 6.80819 3.28667 0
M  V30 2037 H 183.49 6.42576 4.41267 0
M  V30 2038 N 187.719 -0.156864 1.56817 0
M  V30 2039 C 188.649 -1.19589 2.00551 0
M  V30 2040 C 189.63 -1.4536 0.883426 0
M  V30 2041 O 190.815 -1.56449 1.15054 0
M  V30 2042 C 187.945 -2.53143 2.37773 0
M  V30 2043 C 186.899 -2.41913 3.53075 0
M  V30 2044 C 186.225 -3.80088 3.76081 0
M  V30 2045 C 187.525 -1.91157 4.86062 0
M  V30 2046 H 189.219 -0.832293 2.87599 0
M  V30 2047 H 186.765 -0.398918 1.38364 0
M  V30 2048 H 188.718 -3.26047 2.66967 0
M  V30 2049 H 187.442 -2.91319 1.4765 0
M  V30 2050 H 186.101 -1.71462 3.24031 0
M  V30 2051 H 185.749 -4.15683 2.83225 0
M  V30 2052 H 185.449 -3.73439 4.53671 0
M  V30 2053 H 186.973 -4.54556 4.0769 0
M  V30 2054 H 188.387 -2.53846 5.14038 0
M  V30 2055 H 186.784 -1.95422 5.67389 0
M  V30 2056 H 187.854 -0.866673 4.77092 0
M  V30 2057 N 189.197 -1.51736 -0.425897 0
M  V30 2058 C 190.144 -1.73875 -1.51776 0
M  V30 2059 C 191.114 -0.580702 -1.55618 0
M  V30 2060 O 192.299 -0.81641 -1.72451 0
M  V30 2061 C 189.439 -1.88012 -2.89388 0
M  V30 2062 C 188.552 -3.15606 -2.94986 0
M  V30 2063 C 187.687 -3.20271 -4.23793 0
M  V30 2064 C 186.726 -4.42134 -4.23302 0
M  V30 2065 N 185.863 -4.44284 -5.43651 0
M  V30 2066 H 190.703 -2.67071 -1.32201 0
M  V30 2067 H 188.24 -1.32351 -0.642008 0
M  V30 2068 H 190.198 -1.9419 -3.69251 0
M  V30 2069 H 188.828 -0.98213 -3.07496 0
M  V30 2070 H 187.88 -3.18681 -2.07717 0
M  V30 2071 H 189.192 -4.05486 -2.90486 0
M  V30 2072 H 188.346 -3.25428 -5.12036 0
M  V30 2073 H 187.085 -2.28299 -4.30965 0
M  V30 2074 H 186.09 -4.3714 -3.3345 0
M  V30 2075 H 187.315 -5.35382 -4.17783 0
M  V30 2076 H 185.261 -3.55188 -5.51523 0
M  V30 2077 H 185.178 -5.27988 -5.41078 0
M  V30 2078 H 186.446 -4.53649 -6.33895 0
M  V30 2079 N 190.675 0.682077 -1.42076 0
M  V30 2080 C 191.622 1.79578 -1.44984 0
M  V30 2081 C 192.592 1.6332 -0.302614 0
M  V30 2082 O 193.777 1.83978 -0.505633 0
M  V30 2083 C 190.917 3.1756 -1.35091 0
M  V30 2084 C 190.03 3.45156 -2.59791 0
M  V30 2085 C 189.165 4.72826 -2.42093 0
M  V30 2086 C 188.204 4.93433 -3.62202 0
M  V30 2087 N 187.341 6.12338 -3.43491 0
M  V30 2088 H 192.181 1.76427 -2.40161 0
M  V30 2089 H 189.718 0.861376 -1.19242 0
M  V30 2090 H 191.676 3.97287 -1.27354 0
M  V30 2091 H 190.306 3.19854 -0.435133 0
M  V30 2092 H 189.358 2.59736 -2.77923 0
M  V30 2093 H 190.67 3.5628 -3.49094 0
M  V30 2094 H 189.824 5.60631 -2.319 0
M  V30 2095 H 188.563 4.63973 -1.50268 0
M  V30 2096 H 187.568 4.04073 -3.72834 0
M  V30 2097 H 188.793 5.04136 -4.54998 0
M  V30 2098 H 186.739 6.04672 -2.54377 0
M  V30 2099 H 186.656 6.2429 -4.26377 0
M  V30 2100 H 187.924 7.02841 -3.37097 0
M  V30 2101 N 192.153 1.28127 0.917671 0
M  V30 2102 C 193.086 1.06039 2.02067 0
M  V30 2103 C 194.064 -0.0223285 1.62585 0
M  V30 2104 O 195.248 0.124823 1.88086 0
M  V30 2105 C 192.375 0.610596 3.33151 0
M  V30 2106 C 191.421 1.68937 3.91615 0
M  V30 2107 S 192.254 3.28437 4.22953 0
M  V30 2108 C 193.41 2.85283 5.57103 0
M  V30 2109 H 193.643 1.99425 2.20493 0
M  V30 2110 H 191.176 1.12071 1.06205 0
M  V30 2111 H 193.134 0.357778 4.08938 0
M  V30 2112 H 191.795 -0.303364 3.12632 0
M  V30 2113 H 190.988 1.32619 4.86239 0
M  V30 2114 H 190.59 1.89478 3.2245 0
M  V30 2115 H 192.882 2.3121 6.36827 0
M  V30 2116 H 193.825 3.7869 5.98331 0
M  V30 2117 H 194.233 2.24118 5.18104 0
M  V30 2118 N 193.631 -1.12557 1.10312 0
M  V30 2119 C 194.877 -1.84515 0.855901 0
M  V30 2120 C 195.232 -1.82409 -0.611936 0
M  V30 2121 O 194.525 -1.25778 -1.44535 0
M  V30 2122 C 194.719 -3.31462 1.33669 0
M  V30 2123 C 194.548 -3.47879 2.84974 0
M  V30 2124 C 193.318 -3.61589 3.52961 0
M  V30 2125 C 195.516 -3.43152 3.83081 0
M  V30 2126 N 193.498 -3.66359 4.926 0
M  V30 2127 C 194.869 -3.54401 5.08724 0
M  V30 2128 C 196.924 -3.2661 3.75807 0
M  V30 2129 C 195.627 -3.50815 6.2795 0
M  V30 2130 C 197.653 -3.24335 4.94531 0
M  V30 2131 C 197.015 -3.36144 6.19021 0
M  V30 2132 H 193.114 -0.690967 0.366182 0
M  V30 2133 H 195.698 -1.34763 1.40524 0
M  V30 2134 H 193.869 -3.7976 0.814686 0
M  V30 2135 H 195.601 -3.91272 1.03385 0
M  V30 2136 H 192.356 -3.63652 3.03404 0
M  V30 2137 H 192.78 -3.72411 5.65366 0
M  V30 2138 H 197.422 -3.16375 2.80476 0
M  V30 2139 H 195.14 -3.5982 7.23571 0
M  V30 2140 H 198.726 -3.12719 4.9061 0
M  V30 2141 H 197.606 -3.34357 7.09348 0
M  V30 2142 N 195.109 -0.891671 -1.2995 0
M  V30 2143 C 196.056 -0.361736 -2.27948 0
M  V30 2144 C 197.026 0.551761 -1.56668 0
M  V30 2145 O 198.211 0.478736 -1.84696 0
M  V30 2146 C 195.351 0.411825 -3.42634 0
M  V30 2147 C 194.464 -0.531651 -4.28716 0
M  V30 2148 C 193.599 0.258167 -5.30572 0
M  V30 2149 C 192.638 -0.680349 -6.08307 0
M  V30 2150 N 191.775 0.0745613 -7.0206 0
M  V30 2151 H 196.615 -1.20254 -2.72659 0
M  V30 2152 H 194.152 -0.604352 -1.34112 0
M  V30 2153 H 196.11 0.876304 -4.07893 0
M  V30 2154 H 194.74 1.21715 -2.98974 0
M  V30 2155 H 193.792 -1.11463 -3.63703 0
M  V30 2156 H 195.104 -1.25038 -4.82874 0
M  V30 2157 H 194.258 0.784204 -6.0161 0
M  V30 2158 H 192.997 1.01008 -4.77126 0
M  V30 2159 H 192.002 -1.21796 -5.3614 0
M  V30 2160 H 193.227 -1.43145 -6.63842 0
M  V30 2161 H 191.173 0.808883 -6.50994 0
M  V30 2162 H 191.09 -0.584409 -7.53738 0
M  V30 2163 H 192.358 0.581123 -7.77331 0
M  V30 2164 N 196.587 1.43421 -0.653314 0
M  V30 2165 C 197.812 2.06678 -0.172846 0
M  V30 2166 C 198.237 1.48648 1.15262 0
M  V30 2167 O 197.595 0.596457 1.71208 0
M  V30 2168 C 197.643 3.60474 -0.0953184 0
M  V30 2169 O 196.747 4.01487 0.942442 0
M  V30 2170 H 196.088 0.657181 -0.0949155 0
M  V30 2171 H 198.618 1.83925 -0.896265 0
M  V30 2172 H 198.628 4.07905 0.0879728 0
M  V30 2173 H 197.303 4.02088 -1.06291 0
M  V30 2174 H 195.88 3.65646 0.731932 0
M  V30 2175 N 198.065 0.39524 1.52563 0
M  V30 2176 C 199.476 -0.0774719 1.86539 0
M  V30 2177 C 199.827 -1.45641 1.31466 0
M  V30 2178 O 198.952 -2.06459 0.648367 0
M  V30 2179 C 199.547 -0.147356 3.38479 0
M  V30 2180 C 198.106 -0.564373 3.72145 0
M  V30 2181 C 197.253 0.269919 2.75983 0
M  V30 2182 H 200.204 0.612876 1.46388 0
M  V30 2183 H 200.225 -0.965343 3.68051 0
M  V30 2184 H 199.737 0.856387 3.78534 0
M  V30 2185 H 197.838 -1.57527 3.37663 0
M  V30 2186 H 197.951 -0.318402 4.78041 0
M  V30 2187 H 196.315 -0.265696 2.5331 0
M  V30 2188 H 197.098 1.27175 3.18875 0
M  V30 2189 N 199.544 -1.57102 0.125237 0
M  V30 2190 C 200.492 -2.16905 -0.839927 0
M  V30 2191 C 201.486 -1.11998 -1.27094 0
M  V30 2192 O 202.692 -1.3029 -1.24195 0
M  V30 2193 H 199.067 -0.694252 -0.288995 0
M  V30 2194 H 201.038 -2.96774 -0.311115 0
M  V30 2195 C 199.787 -2.78795 -2.07771 0
M  V30 2196 H 199.11 -3.59221 -1.755 0
M  V30 2197 H 200.55 -3.2417 -2.73295 0
M  V30 2198 C 199.009 -1.76193 -2.87155 0
M  V30 2199 O 199.539 -1.21909 -3.82755 0
M  V30 2200 N 197.745 -1.45991 -2.51267 0
M  V30 2201 H 197.292 -1.90325 -1.73592 0
M  V30 2202 H 197.25 -0.775844 -3.04677 0
M  V30 2203 N 201.022 0.148545 -1.56898 0
M  V30 2204 C 202.27 0.859717 -1.82902 0
M  V30 2205 C 202.591 1.81775 -0.70588 0
M  V30 2206 O 201.861 1.93994 0.272586 0
M  V30 2207 H 200.441 0.320469 -0.674766 0
M  V30 2208 H 203.103 0.142918 -1.94375 0
M  V30 2209 H 202.199 1.4229 -2.77777 0
M  V30 2210 N 202.5 1.5196 0.417844 0
M  V30 2211 C 203.728 1.69426 1.18753 0
M  V30 2212 C 204.143 0.399955 1.84515 0
M  V30 2213 O 203.5 -0.623288 1.71527 0
M  V30 2214 C 203.551 2.82375 2.25714 0
M  V30 2215 O 203.272 4.06793 1.62638 0
M  V30 2216 C 204.773 3.11277 3.15628 0
M  V30 2217 H 201.993 0.568031 0.357186 0
M  V30 2218 H 204.537 1.98475 0.49273 0
M  V30 2219 H 202.692 2.5587 2.90877 0
M  V30 2220 H 203.106 4.69667 2.3348 0
M  V30 2221 H 204.58 3.93843 3.86771 0
M  V30 2222 H 205.057 2.24473 3.77503 0
M  V30 2223 H 205.663 3.39515 2.56144 0
M  V30 2224 N 203.978 -0.674533 1.42435 0
M  V30 2225 C 205.227 -1.43034 1.42212 0
M  V30 2226 C 205.54 -1.95555 0.0420788 0
M  V30 2227 O 206.746 -2.71374 -0.0827558 0
M  V30 2228 C 205.202 -2.58748 2.50155 0
M  V30 2229 C 204.81 -2.12925 3.94166 0
M  V30 2230 C 206.554 -3.36257 2.59098 0
M  V30 2231 C 204.461 -3.25723 4.93618 0
M  V30 2232 H 203.391 -0.537345 0.528939 0
M  V30 2233 H 206.042 -0.73024 1.68344 0
M  V30 2234 H 204.424 -3.31128 2.17188 0
M  V30 2235 H 205.598 -1.47697 4.36488 0
M  V30 2236 H 203.913 -1.48354 3.89076 0
M  V30 2237 H 206.51 -4.20264 3.30578 0
M  V30 2238 H 206.853 -3.82866 1.63461 0
M  V30 2239 H 207.386 -2.70947 2.9126 0
M  V30 2240 H 204.125 -2.84105 5.90732 0
M  V30 2241 H 203.645 -3.89732 4.55926 0
M  V30 2242 H 205.324 -3.91186 5.15347 0
M  V30 2243 N 205.456 -1.28612 -0.910864 0
M  V30 2244 C 206.872 -1.06381 -1.18976 0
M  V30 2245 C 207.072 0.191998 -2.00583 0
M  V30 2246 O 206.128 0.892869 -2.36187 0
M  V30 2247 C 207.441 -2.31295 -1.92154 0
M  V30 2248 C 208.989 -2.36503 -2.05025 0
M  V30 2249 C 209.464 -3.61191 -2.81612 0
M  V30 2250 N 210.955 -3.61847 -2.89172 0
M  V30 2251 C 211.69 -4.55004 -3.4894 0
M  V30 2252 N 211.186 -5.58482 -4.09963 0
M  V30 2253 N 212.979 -4.42594 -3.46506 0
M  V30 2254 H 205.13 -2.09221 -0.366094 0
M  V30 2255 H 207.393 -0.921003 -0.224629 0
M  V30 2256 H 207.099 -3.228 -1.39618 0
M  V30 2257 H 206.973 -2.37934 -2.9269 0
M  V30 2258 H 209.36 -1.45494 -2.5674 0
M  V30 2259 H 209.441 -2.33857 -1.03657 0
M  V30 2260 H 209.085 -4.52545 -2.30576 0
M  V30 2261 H 209.015 -3.61092 -3.83302 0
M  V30 2262 H 211.506 -2.87022 -2.45819 0
M  V30 2263 H 211.819 -6.25704 -4.53557 0
M  V30 2264 H 210.164 -5.62305 -4.08459 0
M  V30 2265 H 213.355 -3.60953 -2.98045 0
M  V30 2266 H 213.528 -5.15381 -3.92793 0
M  V30 2267 N 206.934 1.1197 -1.10907 0
M  V30 2268 C 207.882 2.19927 -0.757303 0
M  V30 2269 C 208.876 1.67564 0.248747 0
M  V30 2270 O 210.082 1.79672 0.108605 0
M  V30 2271 H 206.457 0.716925 -0.226987 0
M  V30 2272 H 208.428 2.46847 -1.67658 0
M  V30 2273 C 207.177 3.47061 -0.210671 0
M  V30 2274 H 206.5 3.87703 -0.976049 0
M  V30 2275 H 207.94 4.24 -0.0026584 0
M  V30 2276 C 206.399 3.19864 1.05777 0
M  V30 2277 O 206.929 3.40049 2.13845 0
M  V30 2278 N 205.135 2.73636 0.978349 0
M  V30 2279 H 204.682 2.5741 0.0988246 0
M  V30 2280 H 204.64 2.55815 1.82773 0
M  V30 2281 N 208.412 0.89855 1.29475 0
M  V30 2282 C 209.661 0.519863 1.94885 0
M  V30 2283 C 209.974 -0.9383 1.71625 0
M  V30 2284 O 211.18 -1.42445 2.31131 0
M  V30 2285 C 209.636 0.878836 3.49005 0
M  V30 2286 C 209.244 2.35569 3.81066 0
M  V30 2287 C 210.988 0.570004 4.20656 0
M  V30 2288 C 208.895 2.65558 5.28425 0
M  V30 2289 H 207.825 0.190692 0.729488 0
M  V30 2290 H 210.476 1.09539 1.47219 0
M  V30 2291 H 208.858 0.232253 3.95318 0
M  V30 2292 H 210.032 3.04773 3.45616 0
M  V30 2293 H 208.347 2.63343 3.22552 0
M  V30 2294 H 210.944 0.770925 5.29113 0
M  V30 2295 H 211.287 -0.491404 4.1339 0
M  V30 2296 H 211.82 1.17438 3.8007 0
M  V30 2297 H 208.559 3.70493 5.40754 0
M  V30 2298 H 208.079 2.00977 5.65127 0
M  V30 2299 H 209.758 2.51765 5.96006 0
M  V30 2300 N 209.89 -1.43072 0.660911 0
M  V30 2301 C 210.82 -2.33497 -0.0122829 0
M  V30 2302 C 211.801 -1.49903 -0.803925 0
M  V30 2303 O 212.986 -1.78546 -0.763864 0
M  V30 2304 C 210.116 -3.33363 -0.973994 0
M  V30 2305 C 209.07 -4.27003 -0.291928 0
M  V30 2306 C 208.396 -5.16967 -1.36562 0
M  V30 2307 C 209.696 -5.15816 0.820462 0
M  V30 2308 H 211.39 -2.90038 0.742873 0
M  V30 2309 H 208.936 -1.39461 0.358688 0
M  V30 2310 H 210.889 -3.95524 -1.45392 0
M  V30 2311 H 209.613 -2.75095 -1.7604 0
M  V30 2312 H 208.272 -3.66217 0.167623 0
M  V30 2313 H 207.92 -4.55034 -2.14366 0
M  V30 2314 H 207.62 -5.80441 -0.914454 0
M  V30 2315 H 209.144 -5.82003 -1.84675 0
M  V30 2316 H 210.558 -5.71742 0.422366 0
M  V30 2317 H 208.955 -5.8805 1.19656 0
M  V30 2318 H 210.025 -4.55045 1.67518 0
M  V30 2319 N 211.368 -0.403325 -1.52352 0
M  V30 2320 C 212.616 0.174003 -2.0135 0
M  V30 2321 C 212.937 1.46139 -1.29106 0
M  V30 2322 O 212.207 1.91448 -0.415253 0
M  V30 2323 H 210.787 0.0672911 -0.743963 0
M  V30 2324 H 213.449 -0.538235 -1.87321 0
M  V30 2325 H 212.545 0.374254 -3.09848 0
M  V30 2326 N 212.846 1.57033 -0.133567 0
M  V30 2327 C 214.094 1.953 0.519848 0
M  V30 2328 C 214.415 1.01866 1.66278 0
M  V30 2329 O 213.685 0.0776513 1.95746 0
M  V30 2330 H 212.265 0.721091 0.195032 0
M  V30 2331 H 214.927 1.93809 -0.205921 0
M  V30 2332 H 214.023 2.98695 0.904854 0
M  V30 2333 N 214.325 -0.140222 1.56975 0
M  V30 2334 C 215.553 -0.866437 1.87884 0
M  V30 2335 C 215.968 -1.74428 0.722517 0
M  V30 2336 O 215.325 -1.79891 -0.30749 0
M  V30 2337 C 215.376 -1.71753 3.18093 0
M  V30 2338 O 215.097 -0.875056 4.29272 0
M  V30 2339 C 216.598 -2.55074 3.62563 0
M  V30 2340 H 213.818 -0.25019 0.622612 0
M  V30 2341 H 216.362 -0.130977 2.0408 0
M  V30 2342 H 214.517 -2.40598 3.03631 0
M  V30 2343 H 214.931 -1.46002 5.03769 0
M  V30 2344 H 216.405 -3.10356 4.5649 0
M  V30 2345 H 216.882 -3.31434 2.88181 0
M  V30 2346 H 217.488 -1.91509 3.79743 0
M  V30 2347 N 215.803 -1.52179 -0.40978 0
M  V30 2348 C 217.049 -1.66453 -1.15851 0
M  V30 2349 C 217.382 -0.392972 -1.90182 0
M  V30 2350 O 216.657 0.608579 -1.84734 0
M  V30 2351 C 216.94 -2.88612 -2.15349 0
M  V30 2352 C 216.793 -4.25815 -1.44918 0
M  V30 2353 C 218.112 -3.06294 -3.16026 0
M  V30 2354 H 215.231 -0.60575 -0.419805 0
M  V30 2355 H 217.873 -1.84732 -0.444314 0
M  V30 2356 H 216.023 -2.73158 -2.76255 0
M  V30 2357 H 217.695 -4.52995 -0.871365 0
M  V30 2358 H 215.938 -4.27247 -0.751159 0
M  V30 2359 H 216.609 -5.07337 -2.17516 0
M  V30 2360 H 219.085 -3.20641 -2.65195 0
M  V30 2361 H 217.961 -3.93283 -3.8291 0
M  V30 2362 H 218.222 -2.19579 -3.83715 0
M  V30 2363 N 217.281 0.66697 -1.42791 0
M  V30 2364 C 218.528 1.42699 -1.43678 0
M  V30 2365 C 218.856 1.94419 -0.0560425 0
M  V30 2366 O 218.111 1.7182 0.936831 0
M  V30 2367 C 218.41 2.6349 -2.4147 0
M  V30 2368 C 218.076 2.30267 -3.8767 0
M  V30 2369 C 216.738 2.20918 -4.27491 0
M  V30 2370 C 219.09 2.03435 -4.79858 0
M  V30 2371 C 216.418 1.82873 -5.57471 0
M  V30 2372 C 218.77 1.66892 -6.10188 0
M  V30 2373 C 217.434 1.56058 -6.49001 0
M  V30 2374 H 216.704 0.522171 -0.525755 0
M  V30 2375 H 219.351 0.759785 -1.75783 0
M  V30 2376 H 217.656 3.35279 -2.0272 0
M  V30 2377 H 219.353 3.21684 -2.39417 0
M  V30 2378 H 215.943 2.38449 -3.56146 0
M  V30 2379 H 220.127 2.09586 -4.49875 0
M  V30 2380 H 215.383 1.7306 -5.86396 0
M  V30 2381 H 219.557 1.45157 -6.81104 0
M  V30 2382 H 217.184 1.26348 -7.49627 0
M  V30 2383 N 218.759 1.29093 0.90403 0
M  V30 2384 C 220.175 1.07011 1.1841 0
M  V30 2385 C 220.375 -0.181358 2.00682 0
M  V30 2386 O 219.431 -0.880331 2.36657 0
M  V30 2387 C 220.744 2.32311 1.90924 0
M  V30 2388 C 222.292 2.37587 2.03768 0
M  V30 2389 C 222.767 3.62679 2.79693 0
M  V30 2390 N 224.258 3.63376 2.87249 0
M  V30 2391 C 224.993 4.56848 3.46522 0
M  V30 2392 N 224.489 5.60648 4.06996 0
M  V30 2393 N 226.282 4.44426 3.44154 0
M  V30 2394 H 218.433 2.09412 0.354993 0
M  V30 2395 H 220.696 0.922181 0.219742 0
M  V30 2396 H 220.402 3.23536 1.37905 0
M  V30 2397 H 220.276 2.39483 2.91424 0
M  V30 2398 H 222.663 1.46853 2.55965 0
M  V30 2399 H 222.744 2.34403 1.02415 0
M  V30 2400 H 222.388 4.53762 2.28173 0
M  V30 2401 H 222.318 3.63119 3.81381 0
M  V30 2402 H 224.809 2.88321 2.44293 0
M  V30 2403 H 225.122 6.28101 4.50232 0
M  V30 2404 H 223.467 5.64463 4.05471 0
M  V30 2405 H 226.658 3.62529 2.96126 0
M  V30 2406 H 226.831 5.17457 3.90054 0
M  V30 2407 N 220.237 -1.11381 1.11499 0
M  V30 2408 C 221.147 -2.21019 0.786628 0
M  V30 2409 C 222.163 -1.72597 -0.220507 0
M  V30 2410 O 223.339 -2.01321 -0.0565251 0
M  V30 2411 C 220.404 -3.459 0.235333 0
M  V30 2412 C 219.465 -4.09107 1.30115 0
M  V30 2413 C 218.698 -5.28027 0.776068 0
M  V30 2414 O 218.921 -5.6904 -0.393661 0
M  V30 2415 O 217.855 -5.81835 1.54114 0
M  V30 2416 H 221.681 -2.51521 1.70209 0
M  V30 2417 H 219.266 -1.19928 0.890928 0
M  V30 2418 H 221.148 -4.21346 -0.067715 0
M  V30 2419 H 219.823 -3.17049 -0.652828 0
M  V30 2420 H 218.73 -3.35391 1.65722 0
M  V30 2421 H 220.063 -4.42139 2.16273 0
M  V30 2422 N 221.715 -0.905404 -1.28997 0
M  V30 2423 C 223.126 -0.581953 -1.77398 0
M  V30 2424 C 223.477 0.902552 -1.74208 0
M  V30 2425 O 222.602 1.70584 -1.33154 0
M  V30 2426 C 223.197 -1.04961 -3.22131 0
M  V30 2427 C 221.756 -0.777229 -3.68288 0
M  V30 2428 C 220.903 -1.22109 -2.48967 0
M  V30 2429 H 223.854 -1.08754 -1.15578 0
M  V30 2430 H 223.875 -0.387387 -3.78523 0
M  V30 2431 H 223.387 -2.13008 -3.24421 0
M  V30 2432 H 221.488 0.290383 -3.71467 0
M  V30 2433 H 221.601 -1.37911 -4.58822 0
M  V30 2434 H 219.965 -0.639971 -2.46529 0
M  V30 2435 H 220.748 -2.30972 -2.53982 0
M  V30 2436 N 223.193 1.4272 -0.668489 0
M  V30 2437 C 224.442 2.00846 -0.185389 0
M  V30 2438 C 224.755 1.53442 1.21305 0
M  V30 2439 O 225.961 2.03944 1.79218 0
M  V30 2440 C 224.417 3.58805 -0.280591 0
M  V30 2441 C 224.025 4.15198 -1.68268 0
M  V30 2442 C 225.769 4.24255 0.14412 0
M  V30 2443 C 223.676 5.655 -1.73099 0
M  V30 2444 H 222.606 0.751145 -0.0655475 0
M  V30 2445 H 225.257 1.63516 -0.832752 0
M  V30 2446 H 223.639 3.93608 0.434553 0
M  V30 2447 H 224.813 3.91866 -2.42441 0
M  V30 2448 H 223.128 3.62176 -2.05469 0
M  V30 2449 H 225.725 5.34547 0.128086 0
M  V30 2450 H 226.068 3.99277 1.17827 0
M  V30 2451 H 226.601 3.94389 -0.519798 0
M  V30 2452 H 223.34 5.95268 -2.74475 0
M  V30 2453 H 222.86 5.90842 -1.03274 0
M  V30 2454 H 224.539 6.29808 -1.48158 0
M  V30 2455 N 224.671 0.411399 1.52136 0
M  V30 2456 C 225.92 -0.165009 2.01024 0
M  V30 2457 C 226.233 -1.4603 1.30133 0
M  V30 2458 O 227.439 -2.1181 1.69849 0
M  V30 2459 C 225.895 -0.344618 3.58246 0
M  V30 2460 C 225.503 0.938716 4.38055 0
M  V30 2461 C 227.247 -0.876195 4.15359 0
M  V30 2462 C 225.154 0.726172 5.86925 0
M  V30 2463 H 224.084 -0.0654407 0.751155 0
M  V30 2464 H 226.735 0.537192 1.75461 0
M  V30 2465 H 225.117 -1.10921 3.80148 0
M  V30 2466 H 226.291 1.70963 4.27912 0
M  V30 2467 H 224.606 1.39688 3.92271 0
M  V30 2468 H 227.203 -1.05128 5.24263 0
M  V30 2469 H 227.546 -1.85152 3.7286 0
M  V30 2470 H 228.079 -0.170607 3.97434 0
M  V30 2471 H 224.818 1.67312 6.33788 0
M  V30 2472 H 224.338 -0.00540283 5.998 0
M  V30 2473 H 226.017 0.369231 6.45946 0
M  V30 2474 N 226.149 -1.5696 0.141893 0
M  V30 2475 C 227.389 -1.9785 -0.513304 0
M  V30 2476 C 227.753 -1.02467 -1.62371 0
M  V30 2477 O 228.954 -1.32382 -2.33941 0
M  V30 2478 C 227.225 -3.42797 -1.01118 0
M  V30 2479 S 228.784 -4.05709 -1.67169 0
M  V30 2480 H 225.602 -0.691318 -0.166135 0
M  V30 2481 H 228.204 -1.94114 0.232398 0
M  V30 2482 H 226.908 -4.0995 -0.192179 0
M  V30 2483 H 226.439 -3.50235 -1.79162 0
M  V30 2484 H 228.454 -3.98342 -2.95868 0
M  V30 2485 N 227.627 0.131896 -1.57047 0
M  V30 2486 C 228.574 1.16236 -1.99393 0
M  V30 2487 C 229.544 1.41863 -0.863943 0
M  V30 2488 O 230.729 1.53946 -1.12718 0
M  V30 2489 C 227.869 2.48708 -2.39245 0
M  V30 2490 C 226.982 2.30127 -3.65603 0
M  V30 2491 C 226.117 3.55738 -3.94492 0
M  V30 2492 C 225.156 3.32259 -5.14073 0
M  V30 2493 N 224.293 4.50039 -5.38896 0
M  V30 2494 H 229.133 0.794251 -2.87221 0
M  V30 2495 H 226.67 0.380707 -1.42088 0
M  V30 2496 H 228.628 3.25969 -2.60384 0
M  V30 2497 H 227.258 2.83437 -1.54478 0
M  V30 2498 H 226.31 1.43845 -3.52154 0
M  V30 2499 H 227.622 2.08746 -4.5302 0
M  V30 2500 H 226.776 4.41423 -4.1621 0
M  V30 2501 H 225.515 3.80138 -3.05526 0
M  V30 2502 H 224.52 2.44963 -4.92212 0
M  V30 2503 H 225.745 3.09242 -6.04604 0
M  V30 2504 H 223.691 4.74584 -4.52886 0
M  V30 2505 H 223.608 4.31716 -6.2061 0
M  V30 2506 H 224.876 5.36895 -5.65123 0
M  V30 2507 N 229.106 1.52395 0.401703 0
M  V30 2508 C 230.054 1.7689 1.51039 0
M  V30 2509 C 231.048 0.636298 1.56996 0
M  V30 2510 O 232.254 0.818507 1.60314 0
M  V30 2511 H 228.629 0.559502 0.502456 0
M  V30 2512 H 230.6 2.69757 1.27568 0
M  V30 2513 C 229.349 1.94331 2.88324 0
M  V30 2514 H 228.672 2.80905 2.84486 0
M  V30 2515 H 230.112 2.15466 3.65172 0
M  V30 2516 C 228.571 0.712396 3.29282 0
M  V30 2517 O 229.101 -0.116218 4.01532 0
M  V30 2518 N 227.307 0.546154 2.85422 0
M  V30 2519 H 226.854 1.22156 2.26794 0
M  V30 2520 H 226.812 -0.276113 3.13185 0
M  V30 2521 N 230.584 -0.659388 1.43143 0
M  V30 2522 C 231.833 -1.41518 1.43721 0
M  V30 2523 C 232.146 -1.95499 0.0628176 0
M  V30 2524 O 233.352 -2.71446 -0.0539683 0
M  V30 2525 C 231.808 -2.5608 2.52885 0
M  V30 2526 C 231.416 -2.08733 3.96402 0
M  V30 2527 C 233.16 -3.3349 2.62649 0
M  V30 2528 C 231.067 -3.20469 4.97045 0
M  V30 2529 H 229.997 -0.531705 0.534608 0
M  V30 2530 H 232.648 -0.712343 1.69109 0
M  V30 2531 H 231.03 -3.28805 2.20688 0
M  V30 2532 H 232.204 -1.43059 4.3803 0
M  V30 2533 H 230.519 -1.44219 3.90627 0
M  V30 2534 H 233.116 -4.16734 3.35017 0
M  V30 2535 H 233.459 -3.8111 1.67513 0
M  V30 2536 H 233.992 -2.67842 2.94118 0
M  V30 2537 H 230.731 -2.77824 5.93712 0
M  V30 2538 H 230.251 -3.84874 4.60034 0
M  V30 2539 H 231.93 -3.85698 5.19467 0
M  V30 2540 N 232.062 -1.29571 -0.897171 0
M  V30 2541 C 233.473 -1.15964 -1.46319 0
M  V30 2542 C 233.824 0.244267 -1.94674 0
M  V30 2543 O 232.949 1.13998 -1.83939 0
M  V30 2544 C 233.544 -2.09906 -2.65942 0
M  V30 2545 C 232.103 -2.00314 -3.18671 0
M  V30 2546 C 231.25 -2.00687 -1.91363 0
M  V30 2547 H 234.201 -1.42019 -0.708268 0
M  V30 2548 H 234.222 -1.67276 -3.41759 0
M  V30 2549 H 233.734 -3.12075 -2.30718 0
M  V30 2550 H 231.835 -1.01242 -3.58582 0
M  V30 2551 H 231.948 -2.88102 -3.82798 0
M  V30 2552 H 230.312 -1.45319 -2.09175 0
M  V30 2553 H 231.095 -3.04566 -1.58413 0
M  V30 2554 N 233.54 1.10788 -1.12088 0
M  V30 2555 C 234.956 1.34691 -0.856186 0
M  V30 2556 C 235.156 1.94791 0.515615 0
M  V30 2557 O 234.212 2.18524 1.26505 0
M  V30 2558 C 235.525 2.27208 -1.9697 0
M  V30 2559 C 237.073 2.40755 -2.00016 0
M  V30 2560 C 237.548 3.36598 -3.1059 0
M  V30 2561 N 239.039 3.44164 -3.10008 0
M  V30 2562 C 239.774 4.18284 -3.92206 0
M  V30 2563 N 239.27 4.95322 -4.84384 0
M  V30 2564 N 241.063 4.13865 -3.80357 0
M  V30 2565 H 233.214 0.70144 -2.00483 0
M  V30 2566 H 235.477 0.371405 -0.872217 0
M  V30 2567 H 235.183 1.90251 -2.958 0
M  V30 2568 H 235.057 3.27485 -1.87172 0
M  V30 2569 H 237.444 2.76982 -1.01808 0
M  V30 2570 H 237.525 1.40305 -2.13888 0
M  V30 2571 H 237.169 3.01096 -4.09028 0
M  V30 2572 H 237.099 4.36918 -2.93956 0
M  V30 2573 H 239.59 2.8922 -2.43228 0
M  V30 2574 H 239.903 5.49267 -5.43623 0
M  V30 2575 H 238.248 4.94459 -4.884 0
M  V30 2576 H 241.439 3.52773 -3.07683 0
M  V30 2577 H 241.612 4.71372 -4.44649 0
M  V30 2578 N 235.018 0.912232 1.28515 0
M  V30 2579 C 235.948 0.416403 2.29757 0
M  V30 2580 C 236.929 -0.515194 1.6211 0
M  V30 2581 O 238.114 -0.423253 1.89532 0
M  V30 2582 C 235.244 -0.34572 3.45575 0
M  V30 2583 C 234.198 0.496599 4.25109 0
M  V30 2584 C 233.524 -0.393771 5.33248 0
M  V30 2585 C 234.824 1.75307 4.92001 0
M  V30 2586 H 236.518 1.26249 2.7148 0
M  V30 2587 H 234.064 0.608515 1.30511 0
M  V30 2588 H 236.017 -0.703422 4.15488 0
M  V30 2589 H 234.741 -1.2257 3.02728 0
M  V30 2590 H 233.4 0.8368 3.56922 0
M  V30 2591 H 233.048 -1.27225 4.86644 0
M  V30 2592 H 232.748 0.166209 5.87365 0
M  V30 2593 H 234.272 -0.747389 6.06009 0
M  V30 2594 H 235.686 1.46437 5.54283 0
M  V30 2595 H 234.083 2.25534 5.56106 0
M  V30 2596 H 235.153 2.48176 4.16577 0
M  V30 2597 N 236.496 -1.42363 0.676048 0
M  V30 2598 C 237.742 -2.0182 0.199125 0
M  V30 2599 C 238.075 -1.53339 -1.19168 0
M  V30 2600 O 237.35 -0.736124 -1.80032 0
M  V30 2601 C 237.633 -3.59331 0.235144 0
M  V30 2602 C 237.486 -4.17989 1.66149 0
M  V30 2603 C 238.805 -4.3813 -0.41595 0
M  V30 2604 H 235.924 -0.733293 0.0738311 0
M  V30 2605 H 238.566 -1.69368 0.86107 0
M  V30 2606 H 236.716 -3.87109 -0.328487 0
M  V30 2607 H 238.388 -4.0116 2.27747 0
M  V30 2608 H 236.631 -3.7377 2.20178 0
M  V30 2609 H 237.302 -5.27126 1.63837 0
M  V30 2610 H 239.778 -4.16051 0.0638529 0
M  V30 2611 H 238.654 -5.47717 -0.360115 0
M  V30 2612 H 238.915 -4.16101 -1.49373 0
M  V30 2613 N 237.974 -0.419461 -1.51915 0
M  V30 2614 C 239.385 0.0477853 -1.86639 0
M  V30 2615 C 239.736 1.43531 -1.33766 0
M  V30 2616 O 238.861 2.05401 -0.68113 0
M  V30 2617 C 239.456 0.0934885 -3.38671 0
M  V30 2618 C 238.015 0.505097 -3.72996 0
M  V30 2619 C 237.162 -0.313792 -2.75519 0
M  V30 2620 H 240.113 -0.636088 -1.45395 0
M  V30 2621 H 240.134 0.906667 -3.6954 0
M  V30 2622 H 239.646 -0.916501 -3.77123 0
M  V30 2623 H 237.747 1.52135 -3.40126 0
M  V30 2624 H 237.86 0.242309 -4.78487 0
M  V30 2625 H 236.224 0.225363 -2.53701 0
M  V30 2626 H 237.007 -1.32232 -3.16812 0
M  V30 2627 N 239.452 1.56882 -0.150215 0
M  V30 2628 C 240.7 1.9584 0.499105 0
M  V30 2629 C 241.021 1.03623 1.65188 0
M  V30 2630 O 240.291 0.0984084 1.95653 0
M  V30 2631 H 238.871 0.723119 0.187373 0
M  V30 2632 H 241.533 1.9358 -0.226466 0
M  V30 2633 H 240.629 2.99638 0.873122 0
M  V30 2634 N 240.93 -0.123565 1.57115 0
M  V30 2635 C 242.176 -0.828428 1.85765 0
M  V30 2636 C 242.531 -1.77709 0.737371 0
M  V30 2637 O 241.824 -1.89787 -0.262978 0
M  V30 2638 C 242.018 -1.62016 3.18568 0
M  V30 2639 C 241.847 -0.749663 4.43407 0
M  V30 2640 C 240.617 -0.406251 5.03664 0
M  V30 2641 C 242.815 -0.0693505 5.14253 0
M  V30 2642 N 240.797 0.475389 6.12057 0
M  V30 2643 C 242.168 0.671474 6.16353 0
M  V30 2644 C 244.223 0.00754393 4.97899 0
M  V30 2645 C 242.926 1.48197 7.03868 0
M  V30 2646 C 244.952 0.804845 5.85898 0
M  V30 2647 C 244.314 1.53388 6.87497 0
M  V30 2648 H 240.413 -0.280219 0.73007 0
M  V30 2649 H 242.997 -0.0924183 1.94481 0
M  V30 2650 H 241.168 -2.32724 3.10957 0
M  V30 2651 H 242.9 -2.27 3.35042 0
M  V30 2652 H 239.655 -0.747446 4.67665 0
M  V30 2653 H 240.079 0.907924 6.70884 0
M  V30 2654 H 244.721 -0.541741 4.19315 0
M  V30 2655 H 242.439 2.04242 7.81864 0
M  V30 2656 H 246.025 0.866642 5.75309 0
M  V30 2657 H 244.905 2.1409 7.5441 0
M  V30 2658 N 242.408 -1.52605 -0.393616 0
M  V30 2659 C 243.636 -1.71294 -1.16043 0
M  V30 2660 C 244.051 -0.429259 -1.83855 0
M  V30 2661 O 243.408 0.595921 -1.72496 0
M  V30 2662 C 243.459 -2.8593 -2.21193 0
M  V30 2663 O 243.18 -4.09329 -1.56146 0
M  V30 2664 C 244.681 -3.16259 -3.10636 0
M  V30 2665 H 241.901 -0.573641 -0.348104 0
M  V30 2666 H 244.445 -1.99234 -0.461092 0
M  V30 2667 H 242.6 -2.60465 -2.86769 0
M  V30 2668 H 243.014 -4.73323 -2.25978 0
M  V30 2669 H 244.488 -3.99946 -3.80456 0
M  V30 2670 H 244.965 -2.3045 -3.73884 0
M  V30 2671 H 245.571 -3.43547 -2.50711 0
M  V30 2672 N 243.887 0.651787 -1.4349 0
M  V30 2673 C 244.834 1.76462 -1.4876 0
M  V30 2674 C 245.804 1.62641 -0.337189 0
M  V30 2675 O 246.989 1.82864 -0.544544 0
M  V30 2676 C 244.129 3.14623 -1.41796 0
M  V30 2677 C 243.242 3.39568 -2.67053 0
M  V30 2678 C 242.377 4.67585 -2.52068 0
M  V30 2679 C 241.416 4.85639 -3.72587 0
M  V30 2680 N 240.553 6.04915 -3.56402 0
M  V30 2681 H 245.393 1.71293 -2.43849 0
M  V30 2682 H 242.93 0.835889 -1.21043 0
M  V30 2683 H 244.888 3.94496 -1.35753 0
M  V30 2684 H 243.518 3.18859 -0.50288 0
M  V30 2685 H 242.57 2.53783 -2.8337 0
M  V30 2686 H 243.882 3.48795 -3.56572 0
M  V30 2687 H 243.036 5.55586 -2.4374 0
M  V30 2688 H 241.775 4.60681 -1.60075 0
M  V30 2689 H 240.78 3.96073 -3.81321 0
M  V30 2690 H 242.005 4.94372 -4.65589 0
M  V30 2691 H 239.951 5.9914 -2.67146 0
M  V30 2692 H 239.868 6.15106 -4.39524 0
M  V30 2693 H 241.136 6.95533 -3.51929 0
M  V30 2694 N 245.365 1.30045 0.890287 0
M  V30 2695 C 246.776 1.16738 1.45702 0
M  V30 2696 C 247.127 -0.233939 1.948 0
M  V30 2697 O 246.252 -1.13021 1.84541 0
M  V30 2698 C 246.847 2.11313 2.64825 0
M  V30 2699 C 245.406 2.02001 3.17604 0
M  V30 2700 C 244.553 2.01699 1.90296 0
M  V30 2701 H 247.504 1.42392 0.700726 0
M  V30 2702 H 247.525 1.69086 3.40867 0
M  V30 2703 H 247.037 3.13294 2.2906 0
M  V30 2704 H 245.138 1.03142 3.5804 0
M  V30 2705 H 245.251 2.90128 3.81264 0
M  V30 2706 H 243.615 1.46427 2.08402 0
M  V30 2707 H 244.398 3.05402 1.56795 0
M  V30 2708 N 246.843 -1.10192 1.12674 0
M  V30 2709 C 248.092 -1.81573 0.8783 0
M  V30 2710 C 248.405 -1.86249 -0.597557 0
M  V30 2711 O 249.611 -2.5386 -0.962681 0
M  V30 2712 C 248.067 -3.26149 1.52167 0
M  V30 2713 C 247.675 -3.29763 3.03249 0
M  V30 2714 C 249.419 -4.0234 1.3536 0
M  V30 2715 C 247.326 -4.68815 3.60508 0
M  V30 2716 H 246.256 -0.680394 0.324931 0
M  V30 2717 H 248.907 -1.23902 1.35353 0
M  V30 2718 H 247.289 -3.83832 0.974104 0
M  V30 2719 H 248.463 -2.8189 3.6452 0
M  V30 2720 H 246.778 -2.67059 3.19481 0
M  V30 2721 H 249.375 -5.05058 1.75559 0
M  V30 2722 H 249.718 -4.15235 0.297554 0
M  V30 2723 H 250.251 -3.51079 1.87052 0
M  V30 2724 H 246.99 -4.61121 4.65884 0
M  V30 2725 H 246.51 -5.17045 3.04014 0
M  V30 2726 H 248.189 -5.37785 3.59717 0
M  V30 2727 N 248.321 -0.919034 -1.28029 0
M  V30 2728 C 249.549 -0.570971 -1.98866 0
M  V30 2729 C 249.964 0.848996 -1.68634 0
M  V30 2730 O 249.321 1.56307 -0.942036 0
M  V30 2731 C 249.372 -0.776876 -3.53054 0
M  V30 2732 O 249.093 -2.14097 -3.82222 0
M  V30 2733 C 250.594 -0.436356 -4.41147 0
M  V30 2734 H 247.814 -0.217175 -0.634883 0
M  V30 2735 H 250.358 -1.23368 -1.63097 0
M  V30 2736 H 248.513 -0.161085 -3.87065 0
M  V30 2737 H 248.927 -2.18455 -4.76841 0
M  V30 2738 H 250.401 -0.63117 -5.4838 0
M  V30 2739 H 250.878 0.627686 -4.34692 0
M  V30 2740 H 251.484 -1.02991 -4.12641 0
M  V30 2741 N 249.799 1.42003 -0.683588 0
M  V30 2742 C 251.048 2.00638 -0.206681 0
M  V30 2743 C 251.361 1.5472 1.19671 0
M  V30 2744 O 252.567 2.05833 1.77045 0
M  V30 2745 C 251.023 3.58487 -0.318632 0
M  V30 2746 C 250.631 4.1339 -1.72663 0
M  V30 2747 C 252.375 4.24384 0.0991141 0
M  V30 2748 C 250.282 5.63633 -1.79087 0
M  V30 2749 H 249.212 0.750408 -0.0735107 0
M  V30 2750 H 251.863 1.62624 -0.850048 0
M  V30 2751 H 250.245 3.94047 0.392781 0
M  V30 2752 H 251.419 3.89273 -2.46583 0
M  V30 2753 H 249.734 3.59976 -2.09299 0
M  V30 2754 H 252.331 5.34652 0.0713833 0
M  V30 2755 H 252.674 4.00505 1.13586 0
M  V30 2756 H 253.207 3.93816 -0.561599 0
M  V30 2757 H 249.946 5.92323 -2.80774 0
M  V30 2758 H 249.466 5.89714 -1.09535 0
M  V30 2759 H 251.145 6.28201 -1.5483 0
M  V30 2760 N 251.277 0.427512 1.51691 0
M  V30 2761 C 252.525 -0.141948 2.01601 0
M  V30 2762 C 252.846 -1.44067 1.31414 0
M  V30 2763 O 252.116 -1.90763 0.445658 0
M  V30 2764 H 250.696 -0.0554468 0.744939 0
M  V30 2765 H 253.358 0.567968 1.86441 0
M  V30 2766 H 252.454 -0.324913 3.10404 0
M  V30 2767 N 252.755 -1.56801 0.158532 0
M  V30 2768 C 254.171 -1.5837 -0.197774 0
M  V30 2769 C 254.371 -1.17334 -1.63814 0
M  V30 2770 O 253.427 -0.878988 -2.36707 0
M  V30 2771 C 254.74 -3.00615 0.0714459 0
M  V30 2772 C 256.288 -3.12999 0.00864533 0
M  V30 2773 C 256.763 -4.57313 0.250685 0
M  V30 2774 N 258.254 -4.62777 0.198014 0
M  V30 2775 C 258.989 -5.72271 0.359642 0
M  V30 2776 N 258.485 -6.90371 0.579625 0
M  V30 2777 N 260.278 -5.61318 0.296438 0
M  V30 2778 H 252.429 -1.81765 1.09887 0
M  V30 2779 H 254.692 -0.841849 0.435884 0
M  V30 2780 H 254.398 -3.35068 1.06874 0
M  V30 2781 H 254.272 -3.71683 -0.642757 0
M  V30 2782 H 256.659 -2.7838 -0.979217 0
M  V30 2783 H 256.74 -2.44393 0.755359 0
M  V30 2784 H 256.384 -4.92639 1.2357 0
M  V30 2785 H 256.314 -5.24061 -0.516489 0
M  V30 2786 H 258.805 -3.77885 0.0331115 0
M  V30 2787 H 259.118 -7.69689 0.69275 0
M  V30 2788 H 257.463 -6.92264 0.616087 0
M  V30 2789 H 260.654 -4.67932 0.125258 0
M  V30 2790 H 260.827 -6.46599 0.425831 0
M  V30 2791 N 254.233 0.115231 -1.57178 0
M  V30 2792 C 255.183 1.14707 -1.97044 0
M  V30 2793 C 256.167 1.36866 -0.845957 0
M  V30 2794 O 257.359 1.37895 -1.10968 0
M  V30 2795 C 254.488 2.47266 -2.38148 0
M  V30 2796 C 253.574 2.28566 -3.57237 0
M  V30 2797 N 253.965 1.79685 -4.72807 0
M  V30 2798 C 252.263 2.59208 -3.62943 0
M  V30 2799 C 252.964 1.74781 -5.54821 0
M  V30 2800 N 251.94 2.19264 -4.97417 0
M  V30 2801 H 255.742 0.761754 -2.83857 0
M  V30 2802 H 253.256 0.322928 -1.59157 0
M  V30 2803 H 255.253 3.219 -2.64927 0
M  V30 2804 H 253.913 2.86552 -1.52702 0
M  V30 2805 H 254.924 1.49177 -4.9595 0
M  V30 2806 H 251.601 3.02154 -2.88113 0
M  V30 2807 H 252.991 1.38212 -6.57531 0
M  V30 2808 N 255.711 1.52812 0.385517 0
M  V30 2809 C 256.674 1.77188 1.45386 0
M  V30 2810 C 257.674 0.641953 1.4743 0
M  V30 2811 O 258.864 0.910033 1.4854 0
M  V30 2812 C 255.996 1.87582 2.8465 0
M  V30 2813 H 257.189 2.72583 1.25054 0
M  V30 2814 H 254.742 1.43586 0.617467 0
M  V30 2815 H 255.477 0.941849 3.10322 0
M  V30 2816 H 255.262 2.69748 2.84567 0
M  V30 2817 H 256.752 2.08102 3.62054 0
M  V30 2818 N 257.189 -0.644168 1.43834 0
M  V30 2819 C 258.139 -1.7501 1.46135 0
M  V30 2820 C 259.123 -1.57507 0.328685 0
M  V30 2821 O 260.315 -1.67465 0.5731 0
M  V30 2822 C 257.444 -3.13641 1.39585 0
M  V30 2823 C 256.53 -3.3666 2.57916 0
M  V30 2824 N 256.921 -3.30107 3.83227 0
M  V30 2825 C 255.219 -3.67411 2.52834 0
M  V30 2826 C 255.92 -3.53456 4.61999 0
M  V30 2827 N 254.896 -3.75705 3.9287 0
M  V30 2828 H 258.698 -1.68382 2.40883 0
M  V30 2829 H 256.212 -0.846169 1.38614 0
M  V30 2830 H 258.209 -3.92933 1.39317 0
M  V30 2831 H 256.869 -3.21444 0.45865 0
M  V30 2832 H 257.88 -3.09316 4.15384 0
M  V30 2833 H 254.557 -3.82275 1.67845 0
M  V30 2834 H 255.947 -3.54093 5.71024 0
M  V30 2835 N 258.668 -1.30515 -0.883378 0
M  V30 2836 C 259.916 -1.19194 -1.63209 0
M  V30 2837 C 260.237 0.253205 -1.93349 0
M  V30 2838 O 259.507 1.17025 -1.57105 0
M  V30 2839 H 258.087 -0.438148 -0.605009 0
M  V30 2840 H 260.749 -1.63663 -1.05832 0
M  V30 2841 H 259.845 -1.75396 -2.58153 0
M  V30 2842 N 260.146 1.09593 -1.13257 0
M  V30 2843 C 261.423 1.78293 -0.804432 0
M  V30 2844 C 261.803 1.99004 0.70431 0
M  V30 2845 O 261.151 1.59007 1.641 0
M  V30 2846 C 261.361 3.10707 -1.5894 0
M  V30 2847 C 262.709 3.85443 -1.78099 0
M  V30 2848 O 263.733 3.20454 -1.55525 0
M  V30 2849 O 262.592 5.02108 -2.15753 0
M  V30 2850 H 259.686 0.773156 -0.293528 0
M  V30 2851 H 262.232 1.16164 -1.23709 0
M  V30 2852 H 261.004 2.91106 -2.61482 0
M  V30 2853 H 260.627 3.80558 -1.15157 0
M  V30 2854 N 261.624 0.925811 1.2754 0
M  V30 2855 C 262.556 0.380753 2.26015 0
M  V30 2856 C 263.569 -0.487485 1.5533 0
M  V30 2857 O 264.758 -0.300413 1.75954 0
M  V30 2858 C 261.858 -0.473259 3.35579 0
M  V30 2859 C 261.031 0.375249 4.35787 0
M  V30 2860 C 260.09 -0.415809 5.24555 0
M  V30 2861 O 259.116 0.175834 5.68928 0
M  V30 2862 N 260.318 -1.71607 5.54555 0
M  V30 2863 H 263.083 1.22725 2.73421 0
M  V30 2864 H 260.644 0.793037 1.41147 0
M  V30 2865 H 262.636 -1.00949 3.91907 0
M  V30 2866 H 261.206 -1.2205 2.87789 0
M  V30 2867 H 260.426 1.09279 3.7875 0
M  V30 2868 H 261.714 0.955399 4.99749 0
M  V30 2869 H 261.112 -2.2191 5.20358 0
M  V30 2870 H 259.669 -2.19887 6.1359 0
M  V30 2871 N 263.102 -1.41638 0.69111 0
M  V30 2872 C 264.332 -2.0533 0.228758 0
M  V30 2873 C 264.74 -1.52089 -1.12541 0
M  V30 2874 O 264.083 -0.662145 -1.71351 0
M  V30 2875 C 264.145 -3.59349 0.10407 0
M  V30 2876 C 263.809 -4.35362 1.38956 0
M  V30 2877 C 264.806 -4.64942 2.32648 0
M  V30 2878 C 262.491 -4.74714 1.64169 0
M  V30 2879 C 264.485 -5.32828 3.49818 0
M  V30 2880 C 262.172 -5.42338 2.81625 0
M  V30 2881 C 263.17 -5.71322 3.74273 0
M  V30 2882 O 262.858 -6.37554 4.89673 0
M  V30 2883 H 262.59 -0.667796 0.104997 0
M  V30 2884 H 265.144 -1.82477 0.942938 0
M  V30 2885 H 263.374 -3.80924 -0.665839 0
M  V30 2886 H 265.063 -4.04633 -0.320519 0
M  V30 2887 H 265.829 -4.35025 2.14425 0
M  V30 2888 H 261.708 -4.51538 0.929202 0
M  V30 2889 H 265.252 -5.55368 4.22152 0
M  V30 2890 H 261.149 -5.71673 2.99768 0
M  V30 2891 H 261.917 -6.56049 4.8943 0
M  V30 2892 N 264.58 -0.43555 -1.51462 0
M  V30 2893 C 265.527 0.376797 -2.27703 0
M  V30 2894 C 266.497 1.01838 -1.31219 0
M  V30 2895 O 267.682 1.03762 -1.60119 0
M  V30 2896 C 264.822 1.47301 -3.12084 0
M  V30 2897 C 263.935 0.849744 -4.2356 0
M  V30 2898 C 263.07 1.92086 -4.95254 0
M  V30 2899 C 262.109 1.27593 -5.98654 0
M  V30 2900 N 261.246 2.28833 -6.63762 0
M  V30 2901 H 266.086 -0.279734 -2.96684 0
M  V30 2902 H 263.623 -0.149795 -1.46335 0
M  V30 2903 H 265.581 2.11984 -3.59331 0
M  V30 2904 H 264.211 2.0992 -2.45221 0
M  V30 2905 H 263.263 0.0912529 -3.80291 0
M  V30 2906 H 264.575 0.338878 -4.97648 0
M  V30 2907 H 263.729 2.64435 -5.46039 0
M  V30 2908 H 262.468 2.46545 -4.20793 0
M  V30 2909 H 261.473 0.537893 -5.47162 0
M  V30 2910 H 262.698 0.738693 -6.7507 0
M  V30 2911 H 260.644 2.82375 -5.92115 0
M  V30 2912 H 260.561 1.82632 -7.33608 0
M  V30 2913 H 261.829 3.00671 -7.19178 0
M  V30 2914 N 266.058 1.56714 -0.166846 0
M  V30 2915 C 267.021 2.16539 0.751232 0
M  V30 2916 C 268.021 1.11228 1.16125 0
M  V30 2917 O 269.211 1.36765 1.07894 0
M  V30 2918 C 266.343 2.74462 2.02196 0
M  V30 2919 H 267.536 2.99013 0.230499 0
M  V30 2920 H 265.089 1.56081 0.0826982 0
M  V30 2921 H 265.824 1.95709 2.58589 0
M  V30 2922 H 265.609 3.51527 1.73698 0
M  V30 2923 H 267.099 3.20489 2.67725 0
M  V30 2924 N 267.536 -0.106894 1.57237 0
M  V30 2925 C 268.764 -0.826389 1.8968 0
M  V30 2926 C 269.179 -1.72856 0.759353 0
M  V30 2927 O 268.536 -1.80503 -0.269263 0
M  V30 2928 C 268.587 -1.64967 3.21665 0
M  V30 2929 O 268.308 -0.783804 4.31031 0
M  V30 2930 C 269.809 -2.47326 3.67892 0
M  V30 2931 H 267.029 -0.236927 0.627779 0
M  V30 2932 H 269.573 -0.0876593 2.04312 0
M  V30 2933 H 267.728 -2.34103 3.08666 0
M  V30 2934 H 268.142 -1.35284 5.06753 0
M  V30 2935 H 269.616 -3.00604 4.6297 0
M  V30 2936 H 270.093 -3.25247 2.95146 0
M  V30 2937 H 270.699 -1.83411 3.83719 0
M  V30 2938 N 269.014 -1.53014 -0.377408 0
M  V30 2939 C 270.291 -1.59215 -1.13622 0
M  V30 2940 C 270.671 -0.392407 -2.07421 0
M  V30 2941 O 270.019 0.618342 -2.19975 0
M  V30 2942 C 270.229 -2.93669 -1.88573 0
M  V30 2943 C 271.577 -3.47822 -2.43526 0
M  V30 2944 O 272.601 -2.9562 -1.98715 0
M  V30 2945 O 271.46 -4.39055 -3.25412 0
M  V30 2946 H 268.554 -0.642625 -0.52054 0
M  V30 2947 H 271.1 -1.65353 -0.381625 0
M  V30 2948 H 269.872 -3.7243 -1.20048 0
M  V30 2949 H 269.495 -2.90968 -2.70968 0
M  V30 2950 N 270.492 0.636531 -1.44174 0
M  V30 2951 C 271.739 1.39619 -1.46672 0
M  V30 2952 C 272.067 1.94257 -0.0972691 0
M  V30 2953 O 271.322 1.73768 0.900175 0
M  V30 2954 C 271.621 2.58309 -2.47005 0
M  V30 2955 C 271.287 2.21992 -3.92467 0
M  V30 2956 C 269.949 2.118 -4.32081 0
M  V30 2957 C 272.301 1.9321 -4.84065 0
M  V30 2958 C 269.629 1.71007 -5.61225 0
M  V30 2959 C 271.981 1.53911 -6.13591 0
M  V30 2960 C 270.645 1.42257 -6.52165 0
M  V30 2961 H 269.915 0.510902 -0.536712 0
M  V30 2962 H 272.562 0.722328 -1.77355 0
M  V30 2963 H 270.867 3.30903 -2.09786 0
M  V30 2964 H 272.564 3.16533 -2.46186 0
M  V30 2965 H 269.154 2.30841 -3.61124 0
M  V30 2966 H 273.338 1.99997 -4.54219 0
M  V30 2967 H 268.594 1.60583 -5.89935 0
M  V30 2968 H 272.768 1.30677 -6.8403 0
M  V30 2969 H 270.395 1.10419 -7.52138 0
M  V30 2970 N 271.97 1.30982 0.876444 0
M  V30 2971 C 273.216 1.20474 1.63138 0
M  V30 2972 C 273.549 -0.238096 1.92735 0
M  V30 2973 O 272.824 -1.1692 1.55435 0
M  V30 2974 C 273.107 2.04244 2.96574 0
M  V30 2975 C 272.96 3.56793 2.73896 0
M  V30 2976 C 274.279 1.88684 3.97601 0
M  V30 2977 H 271.398 0.439001 0.591985 0
M  V30 2978 H 274.04 1.60704 1.01361 0
M  V30 2979 H 272.19 1.70063 3.493 0
M  V30 2980 H 273.862 4.01077 2.27892 0
M  V30 2981 H 272.105 3.80548 2.08245 0
M  V30 2982 H 272.776 4.10706 3.68815 0
M  V30 2983 H 275.252 2.18584 3.54062 0
M  V30 2984 H 274.128 2.4961 4.88862 0
M  V30 2985 H 274.389 0.848343 4.33884 0
M  V30 2986 N 273.449 -1.08991 1.13837 0
M  V30 2987 C 274.412 -2.13925 0.822715 0
M  V30 2988 C 275.412 -1.599 -0.1699 0
M  V30 2989 O 276.602 -1.74104 0.0577251 0
M  V30 2990 C 273.734 -3.40155 0.225318 0
M  V30 2991 H 274.927 -2.43358 1.75262 0
M  V30 2992 H 272.48 -1.24603 0.943594 0
M  V30 2993 H 273.215 -3.16352 -0.713594 0
M  V30 2994 H 273 -3.80661 0.940193 0
M  V30 2995 H 274.49 -4.17594 0.0214784 0
M  V30 2996 N 274.927 -0.932562 -1.27047 0
M  V30 2997 C 276.204 -0.49377 -1.89265 0
M  V30 2998 C 276.584 1.02833 -1.8436 0
M  V30 2999 O 275.932 1.88461 -1.29209 0
M  V30 3000 C 276.142 -1.04536 -3.32976 0
M  V30 3001 C 277.49 -1.10879 -4.09867 0
M  V30 3002 O 278.514 -0.995327 -3.42011 0
M  V30 3003 O 277.373 -1.28417 -5.31198 0
M  V30 3004 H 274.467 -0.159596 -0.811454 0
M  V30 3005 H 277.013 -1.02457 -1.3528 0
M  V30 3006 H 275.785 -2.08913 -3.30864 0
M  V30 3007 H 275.408 -0.496494 -3.94488 0
M  V30 3008 N 276.405 1.4127 -0.698611 0
M  V30 3009 C 277.821 1.55241 -0.370462 0
M  V30 3010 C 278.021 1.67351 1.12231 0
M  V30 3011 O 277.077 1.65363 1.90818 0
M  V30 3012 C 278.39 2.78997 -1.12165 0
M  V30 3013 C 279.938 2.92797 -1.1063 0
M  V30 3014 C 280.413 4.19445 -1.8393 0
M  V30 3015 N 281.904 4.26409 -1.80914 0
M  V30 3016 C 282.639 5.23271 -2.34467 0
M  V30 3017 N 282.135 6.26145 -2.96504 0
M  V30 3018 N 283.928 5.15232 -2.24706 0
M  V30 3019 H 276.079 1.31654 -1.66676 0
M  V30 3020 H 278.342 0.635393 -0.703548 0
M  V30 3021 H 278.048 2.76268 -2.17644 0
M  V30 3022 H 277.922 3.70606 -0.702209 0
M  V30 3023 H 280.309 2.95039 -0.0597713 0
M  V30 3024 H 280.39 2.02353 -1.56483 0
M  V30 3025 H 280.034 4.17964 -2.88563 0
M  V30 3026 H 279.964 5.08866 -1.35509 0
M  V30 3027 H 282.455 3.527 -1.35687 0
M  V30 3028 H 282.768 6.96451 -3.34927 0
M  V30 3029 H 281.113 6.26638 -3.00583 0
M  V30 3030 H 284.304 4.33789 -1.7591 0
M  V30 3031 H 284.477 5.90552 -2.66745 0
M  V30 3032 N 277.883 0.443576 1.51229 0
M  V30 3033 C 278.846 -0.353132 2.26463 0
M  V30 3034 C 279.846 -0.944338 1.3015 0
M  V30 3035 O 281.036 -0.817813 1.5381 0
M  V30 3036 C 278.168 -1.50023 3.06114 0
M  V30 3037 H 279.361 0.3063 2.98332 0
M  V30 3038 H 276.914 0.196902 1.55055 0
M  V30 3039 H 277.649 -2.19553 2.38677 0
M  V30 3040 H 277.434 -1.08241 3.76864 0
M  V30 3041 H 278.924 -2.06296 3.63087 0
M  V30 3042 N 279.361 -1.56624 0.175154 0
M  V30 3043 C 280.609 -1.96609 -0.467885 0
M  V30 3044 C 280.93 -1.06238 -1.63519 0
M  V30 3045 O 280.2 -0.129523 -1.95471 0
M  V30 3046 H 278.78 -0.726008 -0.175845 0
M  V30 3047 H 281.442 -1.93195 0.257234 0
M  V30 3048 H 280.538 -3.00989 -0.825342 0
M  V30 3049 N 280.839 0.0985539 -1.57292 0
M  V30 3050 C 282.067 0.816318 -1.90115 0
M  V30 3051 C 282.482 1.72451 -0.768509 0
M  V30 3052 O 281.839 1.80643 0.259687 0
M  V30 3053 C 281.89 1.63259 -3.22535 0
M  V30 3054 O 281.611 0.760934 -4.31441 0
M  V30 3055 C 283.112 2.45372 -3.69199 0
M  V30 3056 H 280.332 0.233595 -0.629027 0
M  V30 3057 H 282.876 0.0768229 -2.04356 0
M  V30 3058 H 281.031 2.32463 -3.09903 0
M  V30 3059 H 281.445 1.32595 -5.07463 0
M  V30 3060 H 282.919 2.98144 -4.64558 0
M  V30 3061 H 283.396 3.23677 -2.96867 0
M  V30 3062 H 284.002 1.81373 -3.84687 0
M  V30 3063 N 282.317 1.53212 0.369288 0
M  V30 3064 C 283.564 1.69215 1.11232 0
M  V30 3065 C 283.892 0.442048 1.8941 0
M  V30 3066 O 283.147 -0.575944 1.87033 0
M  V30 3067 C 283.446 2.89101 2.10132 0
M  V30 3068 C 283.112 4.25758 1.48463 0
M  V30 3069 C 281.774 4.6292 1.31372 0
M  V30 3070 C 284.126 5.10757 1.03811 0
M  V30 3071 C 281.454 5.82722 0.68207 0
M  V30 3072 C 283.806 6.31201 0.420487 0
M  V30 3073 C 282.47 6.67079 0.237038 0
M  V30 3074 H 281.74 0.619201 0.407027 0
M  V30 3075 H 284.387 1.87391 0.394552 0
M  V30 3076 H 282.692 2.65421 2.88199 0
M  V30 3077 H 284.389 2.98676 2.6757 0
M  V30 3078 H 280.979 3.96494 1.62758 0
M  V30 3079 H 285.163 4.82599 1.1581 0
M  V30 3080 H 280.419 6.09113 0.528316 0
M  V30 3081 H 284.593 6.96368 0.0662874 0
M  V30 3082 H 282.22 7.59774 -0.254477 0
M  V30 3083 N 283.795 -0.628877 1.44509 0
M  V30 3084 C 284.742 -1.74074 1.51549 0
M  V30 3085 C 285.712 -1.62084 0.363021 0
M  V30 3086 O 286.897 -1.81975 0.573567 0
M  V30 3087 C 284.037 -3.12328 1.46784 0
M  V30 3088 C 283.15 -3.35277 2.72422 0
M  V30 3089 C 282.285 -4.63515 2.59475 0
M  V30 3090 C 281.324 -4.7965 3.80266 0
M  V30 3091 N 280.461 -5.99168 3.65981 0
M  V30 3092 H 285.301 -1.67392 2.46544 0
M  V30 3093 H 282.838 -0.816527 1.22357 0
M  V30 3094 H 284.796 -3.92286 1.42012 0
M  V30 3095 H 283.426 -3.18018 0.553544 0
M  V30 3096 H 282.478 -2.49242 2.87372 0
M  V30 3097 H 283.79 -3.43078 3.62076 0
M  V30 3098 H 282.944 -5.51638 2.52548 0
M  V30 3099 H 281.683 -4.58076 1.67384 0
M  V30 3100 H 280.688 -3.89957 3.87574 0
M  V30 3101 H 281.913 -4.86902 4.73395 0
M  V30 3102 H 279.859 -5.94814 2.76644 0
M  V30 3103 H 279.776 -6.08035 4.49254 0
M  V30 3104 H 281.044 -6.89846 3.6295 0
M  V30 3105 N 285.273 -1.31445 -0.869486 0
M  V30 3106 C 286.206 -1.13465 -1.97992 0
M  V30 3107 C 287.184 -0.0380291 -1.62556 0
M  V30 3108 O 288.368 -0.194544 -1.87493 0
M  V30 3109 C 285.495 -0.733822 -3.30655 0
M  V30 3110 C 284.541 -1.83356 -3.85075 0
M  V30 3111 S 285.374 -3.43909 -4.10472 0
M  V30 3112 C 286.53 -3.05763 -5.46132 0
M  V30 3113 H 286.763 -2.07471 -2.1294 0
M  V30 3114 H 284.296 -1.15936 -1.01972 0
M  V30 3115 H 286.254 -0.509306 -4.07328 0
M  V30 3116 H 284.915 0.187123 -3.13542 0
M  V30 3117 H 284.108 -1.50574 -4.80982 0
M  V30 3118 H 283.71 -2.01315 -3.15195 0
M  V30 3119 H 286.002 -2.54686 -6.27807 0
M  V30 3120 H 286.945 -4.00635 -5.83864 0
M  V30 3121 H 287.353 -2.43192 -5.09429 0
M  V30 3122 N 286.751 1.08385 -1.14413 0
M  V30 3123 C 287.997 1.81044 -0.913834 0
M  V30 3124 C 288.33 1.86004 0.558209 0
M  V30 3125 O 287.605 1.33606 1.4135 0
M  V30 3126 C 287.888 3.26648 -1.51569 0
M  V30 3127 C 287.741 3.29895 -3.0576 0
M  V30 3128 C 289.06 4.23629 -1.19273 0
M  V30 3129 H 286.179 0.65727 -0.333414 0
M  V30 3130 H 288.821 1.26896 -1.41412 0
M  V30 3131 H 286.971 3.72889 -1.09023 0
M  V30 3132 H 288.643 2.91977 -3.57137 0
M  V30 3133 H 286.886 2.69163 -3.40197 0
M  V30 3134 H 287.557 4.32516 -3.42977 0
M  V30 3135 H 290.033 3.85727 -1.56057 0
M  V30 3136 H 288.909 5.23822 -1.64017 0
M  V30 3137 H 289.17 4.41968 -0.108068 0
M  V30 3138 N 288.23 0.939286 1.26551 0
M  V30 3139 C 289.477 0.585847 1.9384 0
M  V30 3140 C 289.805 -0.874784 1.73718 0
M  V30 3141 O 289.06 -1.64092 1.06642 0
M  V30 3142 C 289.359 0.872106 3.46596 0
M  V30 3143 C 289.025 2.31632 3.86856 0
M  V30 3144 C 287.687 2.71111 3.97558 0
M  V30 3145 C 290.039 3.25494 4.07066 0
M  V30 3146 C 287.367 4.03553 4.25866 0
M  V30 3147 C 289.719 4.57531 4.36862 0
M  V30 3148 C 288.383 4.96828 4.45778 0
M  V30 3149 H 287.653 0.214377 0.709312 0
M  V30 3150 H 290.3 1.18544 1.50398 0
M  V30 3151 H 288.605 0.18996 3.91339 0
M  V30 3152 H 290.302 0.577442 3.96821 0
M  V30 3153 H 286.892 2.00008 3.79071 0
M  V30 3154 H 291.076 2.9619 3.98227 0
M  V30 3155 H 286.332 4.33665 4.30981 0
M  V30 3156 H 290.506 5.30254 4.51446 0
M  V30 3157 H 288.133 5.99482 4.67468 0
M  V30 3158 N 289.708 -1.40897 0.706093 0
M  V30 3159 C 290.936 -2.05373 0.250887 0
M  V30 3160 C 291.351 -1.53172 -1.10381 0
M  V30 3161 O 290.708 -0.684305 -1.69185 0
M  V30 3162 C 290.759 -3.6088 0.211571 0
M  V30 3163 O 290.48 -4.11153 1.51276 0
M  V30 3164 C 291.981 -4.42517 -0.263346 0
M  V30 3165 H 289.201 -0.66115 0.114552 0
M  V30 3166 H 291.745 -1.80479 0.961635 0
M  V30 3167 H 289.9 -3.84777 -0.450073 0
M  V30 3168 H 290.314 -5.05279 1.40689 0
M  V30 3169 H 291.788 -5.51479 -0.239718 0
M  V30 3170 H 292.265 -4.19396 -1.30397 0
M  V30 3171 H 292.871 -4.23708 0.367677 0
M  V30 3172 N 291.186 -0.45159 -1.50991 0
M  V30 3173 C 292.597 0.00818571 -1.86698 0
M  V30 3174 C 292.948 1.40661 -1.3678 0
M  V30 3175 O 292.073 2.0391 -0.724546 0
M  V30 3176 C 292.668 0.0216303 -3.38793 0
M  V30 3177 C 291.227 0.425865 -3.73983 0
M  V30 3178 C 290.374 -0.372163 -2.74791 0
M  V30 3179 H 293.325 -0.666785 -1.44013 0
M  V30 3180 H 293.346 0.828078 -3.7138 0
M  V30 3181 H 292.858 -0.996288 -3.75094 0
M  V30 3182 H 290.959 1.44886 -3.43277 0
M  V30 3183 H 291.072 0.140761 -4.78893 0
M  V30 3184 H 289.436 0.171498 -2.54122 0
M  V30 3185 H 290.219 -1.38922 -3.13935 0
M  V30 3186 N 292.664 1.56529 -0.183458 0
M  V30 3187 C 293.611 2.18546 0.742055 0
M  V30 3188 C 294.581 1.12912 1.2182 0
M  V30 3189 O 295.766 1.41115 1.28418 0
M  V30 3190 C 292.906 2.83977 1.96089 0
M  V30 3191 C 292.019 4.04105 1.52719 0
M  V30 3192 C 291.154 4.57427 2.70063 0
M  V30 3193 C 290.193 5.69938 2.23243 0
M  V30 3194 N 289.33 6.17717 3.33722 0
M  V30 3195 H 294.17 2.97284 0.206432 0
M  V30 3196 H 291.707 1.46823 0.0901571 0
M  V30 3197 H 293.665 3.20077 2.67594 0
M  V30 3198 H 292.295 2.07822 2.47002 0
M  V30 3199 H 291.347 3.73745 0.708436 0
M  V30 3200 H 292.659 4.85513 1.1436 0
M  V30 3201 H 291.813 4.95772 3.49708 0
M  V30 3202 H 290.552 3.75101 3.11689 0
M  V30 3203 H 289.557 5.31133 1.42048 0
M  V30 3204 H 290.782 6.54073 1.82661 0
M  V30 3205 H 288.728 5.38317 3.74902 0
M  V30 3206 H 288.645 6.94146 2.99495 0
M  V30 3207 H 289.913 6.60713 4.13616 0
M  V30 3208 N 294.142 -0.090211 1.57342 0
M  V30 3209 C 295.419 -0.824761 1.77361 0
M  V30 3210 C 295.799 -1.96698 0.76637 0
M  V30 3211 O 295.147 -2.27586 -0.204179 0
M  V30 3212 C 295.357 -1.31481 3.23286 0
M  V30 3213 C 296.705 -1.75563 3.86604 0
M  V30 3214 O 297.729 -1.41093 3.27065 0
M  V30 3215 O 296.588 -2.39317 4.91314 0
M  V30 3216 H 293.682 -0.393776 0.727234 0
M  V30 3217 H 296.228 -0.0717138 1.69548 0
M  V30 3218 H 295 -0.496671 3.88135 0
M  V30 3219 H 294.623 -2.12973 3.35751 0
M  V30 3220 N 295.62 -1.53406 -0.361157 0
M  V30 3221 C 296.868 -1.69467 -1.10115 0
M  V30 3222 C 297.189 -0.451352 -1.89705 0
M  V30 3223 O 296.459 0.534636 -1.88463 0
M  V30 3224 H 295.039 -0.624749 -0.409508 0
M  V30 3225 H 297.701 -1.90609 -0.406699 0
M  V30 3226 H 296.797 -2.55774 -1.78847 0
M  V30 3227 N 297.098 0.621204 -1.44841 0
M  V30 3228 C 298.323 1.41244 -1.51871 0
M  V30 3229 C 298.748 1.87519 -0.147764 0
M  V30 3230 O 298.106 1.59334 0.865 0
M  V30 3231 C 298.154 2.60221 -2.49634 0
M  V30 3232 O 297.258 3.60395 -2.00473 0
M  V30 3233 H 296.599 0.42223 -0.512463 0
M  V30 3234 H 299.129 0.757305 -1.90069 0
M  V30 3235 H 299.139 3.0764 -2.67996 0
M  V30 3236 H 297.814 2.25887 -3.4921 0
M  V30 3237 H 296.391 3.19717 -1.91925 0
M  V30 3238 N 298.576 1.31904 0.862503 0
M  V30 3239 C 299.824 1.21776 1.61292 0
M  V30 3240 C 300.145 -0.222413 1.93727 0
M  V30 3241 O 299.415 -1.1451 1.58947 0
M  V30 3242 H 297.995 0.447717 0.597962 0
M  V30 3243 H 300.657 1.65326 1.03215 0
M  V30 3244 H 299.753 1.7948 2.5533 0
M  V30 3245 N 300.054 -1.07777 1.14986 0
M  V30 3246 C 301.3 -1.80557 0.923422 0
M  V30 3247 C 301.633 -1.86298 -0.548337 0
M  V30 3248 O 300.908 -1.34354 -1.40639 0
M  V30 3249 C 301.191 -3.25839 1.53299 0
M  V30 3250 C 301.044 -3.28269 3.07505 0
M  V30 3251 C 302.363 -4.22991 1.21518 0
M  V30 3252 H 299.482 -0.655493 0.336894 0
M  V30 3253 H 302.124 -1.26144 1.42083 0
M  V30 3254 H 300.274 -3.72306 1.10999 0
M  V30 3255 H 301.946 -2.90079 3.58681 0
M  V30 3256 H 300.189 -2.67355 3.4162 0
M  V30 3257 H 300.86 -4.30691 3.45266 0
M  V30 3258 H 303.336 -3.84894 1.581 0
M  V30 3259 H 302.212 -5.22945 1.66793 0
M  V30 3260 H 302.473 -4.41904 0.131505 0
M  V30 3261 N 301.532 -0.945985 -1.26051 0
M  V30 3262 C 302.479 -0.45809 -2.26208 0
M  V30 3263 C 303.449 0.484816 -1.58867 0
M  V30 3264 O 304.634 0.399969 -1.86561 0
M  V30 3265 C 301.774 0.266131 -3.44072 0
M  V30 3266 C 300.887 -0.713005 -4.26075 0
M  V30 3267 C 300.022 0.0329013 -5.3119 0
M  V30 3268 C 299.061 -0.93774 -6.04874 0
M  V30 3269 N 298.198 -0.223274 -7.01745 0
M  V30 3270 H 303.038 -1.3171 -2.67313 0
M  V30 3271 H 300.575 -0.66069 -1.31428 0
M  V30 3272 H 302.533 0.702514 -4.11243 0
M  V30 3273 H 301.163 1.08925 -3.03867 0
M  V30 3274 H 300.215 -1.26789 -3.58648 0
M  V30 3275 H 301.527 -1.45406 -4.77136 0
M  V30 3276 H 300.681 0.528335 -6.04395 0
M  V30 3277 H 299.42 0.806801 -4.8098 0
M  V30 3278 H 298.425 -1.44425 -5.30492 0
M  V30 3279 H 299.65 -1.71172 -6.57173 0
M  V30 3280 H 297.596 0.532046 -6.53839 0
M  V30 3281 H 297.513 -0.90357 -7.50581 0
M  V30 3282 H 298.781 0.250907 -7.79096 0
M  V30 3283 N 303.011 1.40521 -0.713556 0
M  V30 3284 C 303.921 2.34522 -0.0606667 0
M  V30 3285 C 304.937 1.57193 0.74607 0
M  V30 3286 O 306.113 1.89591 0.679493 0
M  V30 3287 C 303.178 3.36081 0.851491 0
M  V30 3288 C 302.239 4.29286 0.0349339 0
M  V30 3289 C 301.472 5.25994 0.903649 0
M  V30 3290 O 301.695 5.28616 2.14292 0
M  V30 3291 O 300.629 6.00918 0.343723 0
M  V30 3292 H 304.455 2.91968 -0.835972 0
M  V30 3293 H 302.04 1.41681 -0.47402 0
M  V30 3294 H 303.922 3.98369 1.37404 0
M  V30 3295 H 302.597 2.81052 1.60598 0
M  V30 3296 H 301.504 3.70289 -0.532633 0
M  V30 3297 H 302.837 4.87462 -0.681287 0
M  V30 3298 N 304.489 0.459591 1.5075 0
M  V30 3299 C 305.735 -0.091664 2.03193 0
M  V30 3300 C 306.09 -1.38432 1.3362 0
M  V30 3301 O 305.383 -1.86257 0.449322 0
M  V30 3302 C 305.577 -0.342866 3.55752 0
M  V30 3303 C 305.406 0.923888 4.40107 0
M  V30 3304 C 304.176 1.46388 4.83631 0
M  V30 3305 C 306.374 1.81617 4.81165 0
M  V30 3306 N 304.356 2.68086 5.52271 0
M  V30 3307 C 305.727 2.87907 5.49099 0
M  V30 3308 C 307.782 1.82793 4.63132 0
M  V30 3309 C 306.485 3.95347 6.0091 0
M  V30 3310 C 308.511 2.89182 5.15876 0
M  V30 3311 C 307.873 3.94191 5.83774 0
M  V30 3312 H 303.972 0.00619247 0.781975 0
M  V30 3313 H 306.556 0.625233 1.84388 0
M  V30 3314 H 304.727 -1.0288 3.74527 0
M  V30 3315 H 306.459 -0.887445 3.9485 0
M  V30 3316 H 303.214 1.01466 4.62603 0
M  V30 3317 H 303.638 3.29857 5.91205 0
M  V30 3318 H 308.28 1.0293 4.1008 0
M  V30 3319 H 305.998 4.76035 6.53006 0
M  V30 3320 H 309.584 2.91061 5.0376 0
M  V30 3321 H 308.464 4.75161 6.23853 0
M  V30 3322 N 305.967 -1.56429 0.191757 0
M  V30 3323 C 306.877 -2.22541 -0.742481 0
M  V30 3324 C 307.893 -1.22342 -1.23727 0
M  V30 3325 O 309.069 -1.55069 -1.28513 0
M  V30 3326 C 306.134 -2.8692 -1.94623 0
M  V30 3327 C 305.195 -4.02378 -1.49633 0
M  V30 3328 C 304.428 -4.63678 -2.6427 0
M  V30 3329 O 304.651 -4.23895 -3.81666 0
M  V30 3330 O 303.585 -5.53202 -2.37174 0
M  V30 3331 H 307.411 -3.02977 -0.209462 0
M  V30 3332 H 304.996 -1.49353 -0.0373832 0
M  V30 3333 H 306.878 -3.27663 -2.64982 0
M  V30 3334 H 305.553 -2.09466 -2.46791 0
M  V30 3335 H 304.46 -3.66265 -0.761636 0
M  V30 3336 H 305.793 -4.81487 -1.02134 0
M  V30 3337 N 307.445 0.0818655 -1.57387 0
M  V30 3338 C 308.691 0.784074 -1.8703 0
M  V30 3339 C 309.024 1.77729 -0.782689 0
M  V30 3340 O 308.299 1.93384 0.208051 0
M  V30 3341 C 308.582 1.50105 -3.27323 0
M  V30 3342 C 308.435 0.524925 -4.46727 0
M  V30 3343 C 309.754 2.44843 -3.65705 0
M  V30 3344 H 306.873 0.283582 -0.680257 0
M  V30 3345 H 309.515 0.0474352 -1.89941 0
M  V30 3346 H 307.665 2.12897 -3.24972 0
M  V30 3347 H 309.337 -0.0970111 -4.61198 0
M  V30 3348 H 307.58 -0.160606 -4.33503 0
M  V30 3349 H 308.251 1.064 -5.41648 0
M  V30 3350 H 310.727 1.92135 -3.69085 0
M  V30 3351 H 309.603 2.92018 -4.64776 0
M  V30 3352 H 309.864 3.29197 -2.95096 0
M  V30 3353 N 308.923 1.53595 0.353017 0
M  V30 3354 C 310.153 1.74058 1.11299 0
M  V30 3355 C 310.561 0.475205 1.83135 0
M  V30 3356 O 309.904 -0.562344 1.74881 0
M  V30 3357 C 309.966 2.85994 2.17825 0
M  V30 3358 C 309.63 4.25923 1.65647 0
M  V30 3359 C 310.627 5.07829 1.11383 0
M  V30 3360 C 308.312 4.72377 1.7078 0
M  V30 3361 C 310.306 6.34285 0.629439 0
M  V30 3362 C 307.993 5.98808 1.21953 0
M  V30 3363 C 308.991 6.79594 0.681265 0
M  V30 3364 O 308.679 8.03651 0.200248 0
M  V30 3365 H 308.411 0.585327 0.338183 0
M  V30 3366 H 310.965 2.01186 0.413927 0
M  V30 3367 H 309.195 2.54368 2.91262 0
M  V30 3368 H 310.884 2.94515 2.79313 0
M  V30 3369 H 311.65 4.73107 1.06746 0
M  V30 3370 H 307.529 4.0956 2.11617 0
M  V30 3371 H 311.073 6.97288 0.208636 0
M  V30 3372 H 306.97 6.33026 1.26287 0
M  V30 3373 H 307.738 8.1788 0.318416 0
M  V30 3374 N 310.401 -0.613514 1.45168 0
M  V30 3375 C 311.349 -1.74572 1.53712 0
M  V30 3376 C 312.343 -1.64426 0.407505 0
M  V30 3377 O 313.549 -1.70291 0.583176 0
M  V30 3378 H 309.924 -0.576641 0.48269 0
M  V30 3379 H 311.895 -1.64492 2.48968 0
M  V30 3380 C 310.644 -3.12943 1.51532 0
M  V30 3381 H 309.967 -3.21407 2.37776 0
M  V30 3382 H 311.407 -3.9201 1.61569 0
M  V30 3383 C 309.866 -3.36053 0.238798 0
M  V30 3384 O 310.396 -3.95837 -0.6838 0
M  V30 3385 N 308.602 -2.9028 0.136359 0
M  V30 3386 H 308.149 -2.41811 0.887999 0
M  V30 3387 H 308.107 -3.06116 -0.716944 0
M  V30 3388 N 311.879 -1.3236 -0.855495 0
M  V30 3389 C 313.126 -1.22872 -1.60962 0
M  V30 3390 C 313.454 0.209658 -1.93367 0
M  V30 3391 O 312.709 1.16243 -1.57436 0
M  V30 3392 C 313.008 -2.03275 -2.93963 0
M  V30 3393 C 312.674 -3.5264 -2.80991 0
M  V30 3394 C 311.336 -3.93364 -2.7716 0
M  V30 3395 C 313.688 -4.47626 -2.66983 0
M  V30 3396 C 311.016 -5.27319 -2.572 0
M  V30 3397 C 313.368 -5.81723 -2.48558 0
M  V30 3398 C 312.032 -6.2165 -2.4312 0
M  V30 3399 H 311.302 -0.44962 -0.589001 0
M  V30 3400 H 313.949 -1.63777 -0.992442 0
M  V30 3401 H 312.254 -1.55095 -3.59795 0
M  V30 3402 H 313.951 -1.93303 -3.51333 0
M  V30 3403 H 310.541 -3.20295 -2.84797 0
M  V30 3404 H 314.725 -4.17084 -2.68988 0
M  V30 3405 H 309.981 -5.57311 -2.51424 0
M  V30 3406 H 314.155 -6.5494 -2.36699 0
M  V30 3407 H 311.782 -7.25388 -2.27412 0
M  V30 3408 N 313.357 1.07166 -1.15556 0
M  V30 3409 C 314.768 1.6127 -0.940693 0
M  V30 3410 C 315.119 1.89251 0.517551 0
M  V30 3411 O 314.244 1.65937 1.38903 0
M  V30 3412 C 314.839 2.92993 -1.7012 0
M  V30 3413 C 313.398 3.43832 -1.53156 0
M  V30 3414 C 312.545 2.1786 -1.71558 0
M  V30 3415 H 315.496 0.90229 -1.30554 0
M  V30 3416 H 315.517 3.62007 -1.17181 0
M  V30 3417 H 315.029 2.72596 -2.76248 0
M  V30 3418 H 313.13 3.69307 -0.494294 0
M  V30 3419 H 313.243 4.19747 -2.30975 0
M  V30 3420 H 311.607 2.2765 -1.14225 0
M  V30 3421 H 312.39 1.99956 -2.79056 0
M  V30 3422 N 314.835 0.952656 1.25548 0
M  V30 3423 C 315.798 0.475794 2.24207 0
M  V30 3424 C 316.798 -0.419428 1.55234 0
M  V30 3425 O 317.988 -0.216994 1.72843 0
M  V30 3426 C 315.12 -0.312814 3.39462 0
M  V30 3427 H 316.313 1.34779 2.67908 0
M  V30 3428 H 313.866 0.735739 1.37901 0
M  V30 3429 H 314.601 -1.20257 3.01179 0
M  V30 3430 H 314.386 0.329404 3.90714 0
M  V30 3431 H 315.876 -0.635986 4.12729 0
M  V30 3432 N 316.313 -1.40141 0.720998 0
M  V30 3433 C 317.561 -2.0039 0.262323 0
M  V30 3434 C 317.882 -1.57469 -1.15015 0
M  V30 3435 O 317.152 -0.816582 -1.78069 0
M  V30 3436 H 315.732 -0.741063 0.093996 0
M  V30 3437 H 318.394 -1.71398 0.927835 0
M  V30 3438 H 317.49 -3.10658 0.299671 0
M  V30 3439 N 317.792 -0.46758 -1.50504 0
M  V30 3440 C 319.04 0.0884469 -2.01906 0
M  V30 3441 C 319.361 1.40532 -1.35188 0
M  V30 3442 O 318.631 1.89515 -0.496079 0
M  V30 3443 H 317.211 0.0356765 -0.746148 0
M  V30 3444 H 319.873 -0.6172 -1.84869 0
M  V30 3445 H 318.969 0.2425 -3.11156 0
M  V30 3446 N 319.27 1.56325 -0.20005 0
M  V30 3447 C 320.516 1.98012 0.438059 0
M  V30 3448 C 320.849 1.08702 1.60927 0
M  V30 3449 O 320.124 0.140064 1.93995 0
M  V30 3450 C 320.407 3.48841 0.893419 0
M  V30 3451 C 320.26 4.48928 -0.279947 0
M  V30 3452 C 321.579 4.03498 1.75719 0
M  V30 3453 H 318.698 0.719918 0.157757 0
M  V30 3454 H 321.34 1.87743 -0.291968 0
M  V30 3455 H 319.49 3.57723 1.51547 0
M  V30 3456 H 321.162 4.52079 -0.91772 0
M  V30 3457 H 319.405 4.23694 -0.930919 0
M  V30 3458 H 320.076 5.5194 0.0812601 0
M  V30 3459 H 322.552 3.97427 1.23253 0
M  V30 3460 H 321.428 5.09393 2.04476 0
M  V30 3461 H 321.689 3.4906 2.71311 0
M  V30 3462 N 320.748 -0.0735177 1.57428 0
M  V30 3463 C 321.996 -0.771472 1.86796 0
M  V30 3464 C 322.317 -1.78201 0.791804 0
M  V30 3465 O 321.587 -1.95074 -0.179718 0
M  V30 3466 H 320.167 -0.28791 0.689287 0
M  V30 3467 H 322.829 -0.0500161 1.94836 0
M  V30 3468 H 321.925 -1.28874 2.8425 0
M  V30 3469 N 322.226 -1.5378 -0.344866 0
M  V30 3470 C 323.159 -1.7649 -1.4466 0
M  V30 3471 C 324.137 -0.613954 -1.50563 0
M  V30 3472 O 325.321 -0.84896 -1.683 0
M  V30 3473 C 322.448 -1.86235 -2.82903 0
M  V30 3474 C 321.494 -3.08375 -2.94631 0
M  V30 3475 S 322.327 -4.67457 -2.61236 0
M  V30 3476 C 323.483 -4.80079 -4.0159 0
M  V30 3477 H 323.716 -2.69661 -1.2518 0
M  V30 3478 H 321.249 -1.44632 -0.540455 0
M  V30 3479 H 323.207 -1.92535 -3.62547 0
M  V30 3480 H 321.868 -0.940786 -2.9968 0
M  V30 3481 H 321.061 -3.11865 -3.95925 0
M  V30 3482 H 320.663 -3.00294 -2.22934 0
M  V30 3483 H 322.955 -4.61407 -4.96094 0
M  V30 3484 H 323.898 -5.82168 -4.03095 0
M  V30 3485 H 324.306 -4.08544 -3.89554 0
M  V30 3486 N 323.704 0.605807 -1.45491 0
M  V30 3487 C 324.952 1.36207 -1.49305 0
M  V30 3488 C 325.273 1.94519 -0.136863 0
M  V30 3489 O 324.543 1.77261 0.833983 0
M  V30 3490 H 323.123 0.50565 -0.549843 0
M  V30 3491 H 325.785 0.711239 -1.81459 0
M  V30 3492 H 324.881 2.18058 -2.23287 0
M  V30 3493 N 325.182 1.32811 0.848464 0
M  V30 3494 C 326.115 1.16601 1.96162 0
M  V30 3495 C 327.093 0.0638855 1.62474 0
M  V30 3496 O 328.277 0.224348 1.8716 0
M  V30 3497 C 325.404 0.786333 3.29446 0
M  V30 3498 C 324.45 1.89459 3.8211 0
M  V30 3499 S 325.283 3.50395 4.04949 0
M  V30 3500 C 326.439 3.14413 5.41198 0
M  V30 3501 H 326.672 2.10832 2.09612 0
M  V30 3502 H 324.205 1.17543 1.00115 0
M  V30 3503 H 326.163 0.574044 4.06466 0
M  V30 3504 H 324.824 -0.137218 3.138 0
M  V30 3505 H 324.017 1.58207 4.78526 0
M  V30 3506 H 323.619 2.06304 3.11953 0
M  V30 3507 H 325.911 2.64642 6.23675 0
M  V30 3508 H 326.854 4.09874 5.77416 0
M  V30 3509 H 327.262 2.51266 5.05495 0
M  V30 3510 N 326.66 -1.06551 1.16123 0
M  V30 3511 C 327.89 -1.8274 0.963838 0
M  V30 3512 C 328.298 -1.82712 -0.491228 0
M  V30 3513 O 327.641 -1.24294 -1.35265 0
M  V30 3514 C 327.703 -3.3065 1.41106 0
M  V30 3515 C 327.367 -3.54384 2.88549 0
M  V30 3516 C 328.364 -3.4765 3.86569 0
M  V30 3517 C 326.049 -3.81789 3.26408 0
M  V30 3518 C 328.043 -3.67982 5.2045 0
M  V30 3519 C 325.73 -4.01772 4.60459 0
M  V30 3520 C 326.728 -3.94866 5.57288 0
M  V30 3521 O 326.416 -4.14306 6.88916 0
M  V30 3522 H 326.148 -0.583136 0.341948 0
M  V30 3523 H 328.702 -1.35351 1.54497 0
M  V30 3524 H 326.932 -3.78887 0.773394 0
M  V30 3525 H 328.621 -3.88324 1.1815 0
M  V30 3526 H 329.387 -3.2647 3.58667 0
M  V30 3527 H 325.266 -3.86276 2.51619 0
M  V30 3528 H 328.81 -3.62507 5.96015 0
M  V30 3529 H 324.707 -4.2244 4.88072 0
M  V30 3530 H 325.475 -4.31609 6.95454 0
M  V30 3531 N 328.138 -0.959301 -1.25041 0
M  V30 3532 C 329.086 -0.474437 -2.2771 0
M  V30 3533 C 330.08 0.457697 -1.631 0
M  V30 3534 O 331.286 0.333912 -1.76876 0
M  V30 3535 H 327.661 -0.134936 -0.739795 0
M  V30 3536 H 329.632 -1.35251 -2.65988 0
M  V30 3537 C 328.381 0.227884 -3.46952 0
M  V30 3538 H 327.704 -0.480248 -3.96905 0
M  V30 3539 H 329.144 0.531091 -4.20661 0
M  V30 3540 C 327.603 1.452 -3.04004 0
M  V30 3541 O 328.133 2.54949 -3.10426 0
M  V30 3542 N 326.339 1.31502 -2.59144 0
M  V30 3543 H 325.886 0.422065 -2.54119 0
M  V30 3544 H 325.844 2.13521 -2.30773 0
M  V30 3545 N 329.616 1.39756 -0.72842 0
M  V30 3546 C 330.844 2.04948 -0.283528 0
M  V30 3547 C 331.259 1.54908 1.0793 0
M  V30 3548 O 330.616 0.711135 1.68075 0
M  V30 3549 C 330.667 3.60498 -0.268957 0
M  V30 3550 O 330.388 4.08695 -1.57798 0
M  V30 3551 C 331.889 4.4288 0.192912 0
M  V30 3552 H 329.109 0.659243 -0.125056 0
M  V30 3553 H 331.653 1.78927 -0.990226 0
M  V30 3554 H 329.808 3.85444 0.388801 0
M  V30 3555 H 330.222 5.02977 -1.48709 0
M  V30 3556 H 331.696 5.51791 0.151952 0
M  V30 3557 H 332.173 4.21418 1.23708 0
M  V30 3558 H 332.779 4.23069 -0.435039 0
M  V30 3559 N 331.094 0.475555 1.50254 0
M  V30 3560 C 332.371 -0.139685 1.95101 0
M  V30 3561 C 332.751 -1.56555 1.41611 0
M  V30 3562 O 332.099 -2.19956 0.618993 0
M  V30 3563 C 332.309 -0.0784298 3.48912 0
M  V30 3564 C 333.657 -0.265095 4.23772 0
M  V30 3565 O 334.681 -0.154808 3.55863 0
M  V30 3566 O 333.54 -0.488327 5.44314 0
M  V30 3567 H 330.634 -0.109236 0.819754 0
M  V30 3568 H 333.18 0.536276 1.61004 0
M  V30 3569 H 331.952 0.916918 3.80405 0
M  V30 3570 H 331.575 -0.795655 3.89558 0
M  V30 3571 N 332.573 -1.56217 0.208337 0
M  V30 3572 C 333.483 -2.23316 -0.718836 0
M  V30 3573 C 334.499 -1.23648 -1.22422 0
M  V30 3574 O 335.675 -1.56423 -1.26861 0
M  V30 3575 C 332.74 -2.88968 -1.91568 0
M  V30 3576 C 331.801 -4.03943 -1.45357 0
M  V30 3577 C 331.034 -4.66455 -2.59337 0
M  V30 3578 O 331.257 -4.27919 -3.77149 0
M  V30 3579 O 330.191 -5.55686 -2.31293 0
M  V30 3580 H 334.017 -3.03182 -0.177315 0
M  V30 3581 H 331.602 -1.49384 -0.0215402 0
M  V30 3582 H 333.484 -3.30455 -2.61491 0
M  V30 3583 H 332.159 -2.12071 -2.44556 0
M  V30 3584 H 331.066 -3.67052 -0.722746 0
M  V30 3585 H 332.399 -4.82543 -0.970219 0
M  V30 3586 N 334.051 0.0651679 -1.57465 0
M  V30 3587 C 335.276 0.779605 -1.9219 0
M  V30 3588 C 335.701 1.69988 -0.805333 0
M  V30 3589 O 335.059 1.79685 0.241435 0
M  V30 3590 C 335.107 1.54364 -3.2589 0
M  V30 3591 O 334.211 2.65474 -3.1559 0
M  V30 3592 H 333.552 0.212249 -0.629163 0
M  V30 3593 H 336.082 0.0314294 -2.04576 0
M  V30 3594 H 336.092 1.92146 -3.59922 0
M  V30 3595 H 334.767 0.868457 -4.06732 0
M  V30 3596 H 333.344 2.30501 -2.93128 0
M  V30 3597 N 335.529 1.53961 0.336706 0
M  V30 3598 C 336.778 1.70751 1.07363 0
M  V30 3599 C 337.091 0.481061 1.89592 0
M  V30 3600 O 338.297 0.530046 2.66276 0
M  V30 3601 C 336.753 3.01965 1.95818 0
M  V30 3602 C 336.361 4.31971 1.18764 0
M  V30 3603 C 338.105 3.28121 2.69327 0
M  V30 3604 C 336.012 5.54255 2.06289 0
M  V30 3605 H 334.942 0.636292 0.404535 0
M  V30 3606 H 337.593 1.80459 0.332681 0
M  V30 3607 H 335.975 2.86132 2.7376 0
M  V30 3608 H 337.149 4.5853 0.456849 0
M  V30 3609 H 335.464 4.12481 0.569946 0
M  V30 3610 H 338.061 4.16673 3.35094 0
M  V30 3611 H 338.404 2.45426 3.36261 0
M  V30 3612 H 338.937 3.44762 1.98454 0
M  V30 3613 H 335.676 6.39513 1.43885 0
M  V30 3614 H 335.196 5.31935 2.77138 0
M  V30 3615 H 336.875 5.90159 2.65182 0
M  V30 3616 N 337.007 -0.598083 1.45811 0
M  V30 3617 C 338.232 -1.3881 1.54099 0
M  V30 3618 C 338.657 -1.8726 0.177578 0
M  V30 3619 O 338.015 -1.6069 -0.839541 0
M  V30 3620 C 338.063 -2.56217 2.53743 0
M  V30 3621 O 337.167 -3.5716 2.06182 0
M  V30 3622 H 336.508 -0.414024 0.519115 0
M  V30 3623 H 339.038 -0.726971 1.91249 0
M  V30 3624 H 339.048 -3.03337 2.72856 0
M  V30 3625 H 337.723 -2.20303 3.5276 0
M  V30 3626 H 336.3 -3.16624 1.96987 0
M  V30 3627 N 338.485 -1.33259 -0.841409 0
M  V30 3628 C 339.733 -1.24326 -1.59334 0
M  V30 3629 C 340.054 0.191564 -1.94057 0
M  V30 3630 O 339.324 1.11967 -1.60749 0
M  V30 3631 H 337.904 -0.457174 -0.590763 0
M  V30 3632 H 340.566 -1.66947 -1.00571 0
M  V30 3633 H 339.662 -1.8352 -2.52442 0
M  V30 3634 N 339.963 1.05934 -1.16686 0
M  V30 3635 C 341.21 1.788 -0.950622 0
M  V30 3636 C 341.538 1.87384 0.521305 0
M  V30 3637 O 340.793 1.36438 1.40297 0
M  V30 3638 C 341.092 3.23105 -1.52767 0
M  V30 3639 C 340.758 3.34594 -3.02254 0
M  V30 3640 C 339.42 3.37437 -3.43059 0
M  V30 3641 C 341.772 3.36219 -3.98254 0
M  V30 3642 C 339.1 3.39525 -4.78477 0
M  V30 3643 C 341.452 3.39845 -5.33562 0
M  V30 3644 C 340.116 3.40971 -5.73842 0
M  V30 3645 H 339.386 0.654275 -0.347857 0
M  V30 3646 H 342.033 1.24555 -1.45459 0
M  V30 3647 H 340.338 3.80227 -0.94524 0
M  V30 3648 H 342.035 3.7809 -1.336 0
M  V30 3649 H 338.625 3.3309 -2.6972 0
M  V30 3650 H 342.809 3.33231 -3.67792 0
M  V30 3651 H 338.065 3.38703 -5.09009 0
M  V30 3652 H 342.239 3.4005 -6.07733 0
M  V30 3653 H 339.866 3.42342 -6.78753 0
M  V30 3654 N 341.441 0.965919 1.2453 0
M  V30 3655 C 342.404 0.499547 2.2369 0
M  V30 3656 C 343.404 -0.40294 1.5567 0
M  V30 3657 O 344.594 -0.19865 1.73064 0
M  V30 3658 C 341.726 -0.276792 3.39774 0
M  V30 3659 H 342.919 1.37613 2.66463 0
M  V30 3660 H 340.472 0.750324 1.37112 0
M  V30 3661 H 341.207 -1.17055 3.02438 0
M  V30 3662 H 340.992 0.370826 3.90343 0
M  V30 3663 H 342.482 -0.592175 4.1338 0
M  V30 3664 N 342.919 -1.39368 0.735821 0
M  V30 3665 C 343.869 -2.27885 0.0724287 0
M  V30 3666 C 344.853 -1.44301 -0.711756 0
M  V30 3667 O 346.045 -1.67206 -0.58063 0
M  V30 3668 C 343.174 -3.33029 -0.833454 0
M  V30 3669 C 342.26 -4.24078 -0.0433749 0
M  V30 3670 N 342.651 -4.96138 0.983903 0
M  V30 3671 C 340.949 -4.45164 -0.272905 0
M  V30 3672 C 341.65 -5.63069 1.4604 0
M  V30 3673 N 340.626 -5.37991 0.778857 0
M  V30 3674 H 344.428 -2.81052 0.859467 0
M  V30 3675 H 341.942 -1.5206 0.570227 0
M  V30 3676 H 343.939 -3.95311 -1.32419 0
M  V30 3677 H 342.599 -2.81421 -1.61964 0
M  V30 3678 H 343.61 -4.9958 1.36528 0
M  V30 3679 H 340.287 -4.04497 -1.03383 0
M  V30 3680 H 341.677 -6.30755 2.31511 0
M  V30 3681 N 344.397 -0.483516 -1.5 0
M  V30 3682 C 345.622 0.0667119 -2.07293 0
M  V30 3683 C 346.047 1.3164 -1.3436 0
M  V30 3684 O 345.405 1.76945 -0.394987 0
M  V30 3685 C 345.453 0.321126 -3.59167 0
M  V30 3686 O 344.557 1.39927 -3.87936 0
M  V30 3687 H 343.898 -0.0184758 -0.663743 0
M  V30 3688 H 346.428 -0.678125 -1.93035 0
M  V30 3689 H 346.438 0.557906 -4.04168 0
M  V30 3690 H 345.113 -0.592007 -4.11665 0
M  V30 3691 H 343.69 1.14882 -3.54763 0
M  V30 3692 N 345.875 1.56104 -0.216619 0
M  V30 3693 C 347.115 2.00074 0.418322 0
M  V30 3694 C 347.479 1.10098 1.57297 0
M  V30 3695 O 348.68 1.43393 2.27359 0
M  V30 3696 C 346.951 3.47231 0.846477 0
M  V30 3697 S 348.51 4.13223 1.47622 0
M  V30 3698 H 345.328 0.698457 0.132962 0
M  V30 3699 H 347.93 1.92784 -0.324748 0
M  V30 3700 H 346.634 4.104 -0.0036319 0
M  V30 3701 H 346.165 3.58384 1.62248 0
M  V30 3702 H 348.18 4.12005 2.76526 0
M  V30 3703 N 347.353 -0.0568162 1.57498 0
M  V30 3704 C 348.6 -0.753104 1.87975 0
M  V30 3705 C 348.928 -1.76815 0.81035 0
M  V30 3706 O 348.183 -1.94756 -0.19199 0
M  V30 3707 C 348.482 -1.48359 3.25153 0
M  V30 3708 C 348.148 -0.60713 4.46794 0
M  V30 3709 C 346.81 -0.365642 4.79809 0
M  V30 3710 C 349.162 -0.000305978 5.212 0
M  V30 3711 C 346.49 0.491905 5.84634 0
M  V30 3712 C 348.842 0.844781 6.26934 0
M  V30 3713 C 347.506 1.096 6.58441 0
M  V30 3714 H 346.776 -0.27558 0.687849 0
M  V30 3715 H 349.423 -0.0135173 1.91495 0
M  V30 3716 H 347.728 -2.29577 3.17492 0
M  V30 3717 H 349.425 -2.02739 3.45974 0
M  V30 3718 H 346.015 -0.805487 4.20963 0
M  V30 3719 H 350.199 -0.173961 4.95995 0
M  V30 3720 H 345.455 0.695131 6.07436 0
M  V30 3721 H 349.629 1.32165 6.83744 0
M  V30 3722 H 347.256 1.76224 7.39492 0
M  V30 3723 N 348.832 -1.54138 -0.328536 0
M  V30 3724 C 349.764 -1.79509 -1.4251 0
M  V30 3725 C 350.777 -0.67688 -1.48061 0
M  V30 3726 O 351.966 -0.953898 -1.50874 0
M  V30 3727 C 349.066 -1.89337 -2.81078 0
M  V30 3728 C 348.239 -3.19443 -2.98789 0
M  V30 3729 C 347.298 -3.20036 -4.17688 0
M  V30 3730 O 346.324 -3.93697 -4.11086 0
M  V30 3731 N 347.526 -2.43467 -5.26976 0
M  V30 3732 H 350.291 -2.74139 -1.21111 0
M  V30 3733 H 347.852 -1.53373 -0.518499 0
M  V30 3734 H 349.844 -1.87167 -3.58818 0
M  V30 3735 H 348.414 -1.01826 -2.95551 0
M  V30 3736 H 347.634 -3.34614 -2.08391 0
M  V30 3737 H 348.922 -4.05354 -3.07515 0
M  V30 3738 H 348.32 -1.83201 -5.35214 0
M  V30 3739 H 346.877 -2.4708 -6.03154 0
M  V30 3740 N 350.31 0.590341 -1.46126 0
M  V30 3741 C 351.54 1.37304 -1.54373 0
M  V30 3742 C 351.948 1.88332 -0.181071 0
M  V30 3743 O 351.291 1.63852 0.830559 0
M  V30 3744 C 351.353 2.6012 -2.48149 0
M  V30 3745 C 351.017 2.30613 -3.94546 0
M  V30 3746 C 352.014 1.89915 -4.83971 0
M  V30 3747 C 349.699 2.42993 -4.39613 0
M  V30 3748 C 351.693 1.61981 -6.16475 0
M  V30 3749 C 349.38 2.14672 -5.72153 0
M  V30 3750 C 350.378 1.7423 -6.60404 0
M  V30 3751 O 350.066 1.46251 -7.90485 0
M  V30 3752 H 349.798 0.426086 -0.524811 0
M  V30 3753 H 352.352 0.72539 -1.92165 0
M  V30 3754 H 350.582 3.27664 -2.05361 0
M  V30 3755 H 352.271 3.22182 -2.46887 0
M  V30 3756 H 353.037 1.79872 -4.50412 0
M  V30 3757 H 348.916 2.73435 -3.71153 0
M  V30 3758 H 352.46 1.30341 -6.85315 0
M  V30 3759 H 348.357 2.24337 -6.05263 0
M  V30 3760 H 349.125 1.6016 -8.02677 0
M  V30 3761 N 351.788 1.33704 0.83433 0
M  V30 3762 C 352.751 1.24244 1.92603 0
M  V30 3763 C 353.751 0.160383 1.59998 0
M  V30 3764 O 354.941 0.412228 1.69252 0
M  V30 3765 C 352.073 0.91555 3.28376 0
M  V30 3766 H 353.266 2.21287 2.02416 0
M  V30 3767 H 350.819 1.17827 1.02696 0
M  V30 3768 H 351.554 -0.0521886 3.24258 0
M  V30 3769 H 351.339 1.69811 3.53422 0
M  V30 3770 H 352.829 0.874231 4.08347 0
M  V30 3771 N 353.266 -1.05314 1.17247 0
M  V30 3772 C 354.515 -1.77685 0.954521 0
M  V30 3773 C 354.828 -1.88616 -0.518025 0
M  V30 3774 O 356.034 -2.57714 -0.854144 0
M  V30 3775 C 354.49 -3.19402 1.65863 0
M  V30 3776 C 354.098 -3.16605 3.16963 0
M  V30 3777 C 355.842 -3.96237 1.52303 0
M  V30 3778 C 353.749 -4.53103 3.80068 0
M  V30 3779 H 352.679 -0.666 0.353496 0
M  V30 3780 H 355.33 -1.1805 1.40486 0
M  V30 3781 H 353.712 -3.79355 1.13602 0
M  V30 3782 H 354.886 -2.66176 3.76148 0
M  V30 3783 H 353.201 -2.53268 3.30521 0
M  V30 3784 H 355.798 -4.97157 1.96822 0
M  V30 3785 H 356.141 -4.136 0.473401 0
M  V30 3786 H 356.674 -3.42829 2.01775 0
M  V30 3787 H 353.413 -4.40946 4.85023 0
M  V30 3788 H 352.933 -5.03686 3.2567 0
M  V30 3789 H 354.612 -5.22045 3.82202 0
M  V30 3790 N 354.744 -0.972509 -1.24016 0
M  V30 3791 C 355.676 -0.464375 -2.24446 0
M  V30 3792 C 356.689 0.4295 -1.57032 0
M  V30 3793 O 357.878 0.234902 -1.76948 0
M  V30 3794 C 354.978 0.348385 -3.37105 0
M  V30 3795 C 354.151 -0.53673 -4.34094 0
M  V30 3796 C 353.21 0.220838 -5.25736 0
M  V30 3797 O 352.236 -0.386867 -5.67884 0
M  V30 3798 N 353.438 1.50907 -5.60542 0
M  V30 3799 H 356.203 -1.32788 -2.68677 0
M  V30 3800 H 353.764 -0.844877 -1.38107 0
M  V30 3801 H 355.756 0.863341 -3.95384 0
M  V30 3802 H 354.326 1.11285 -2.92121 0
M  V30 3803 H 353.546 -1.23261 -3.74433 0
M  V30 3804 H 354.834 -1.14022 -4.95859 0
M  V30 3805 H 354.232 2.02444 -5.28236 0
M  V30 3806 H 352.789 1.96962 -6.21329 0
M  V30 3807 N 356.222 1.38976 -0.743202 0
M  V30 3808 C 357.169 2.30544 -0.10861 0
M  V30 3809 C 358.139 1.49642 0.720869 0
M  V30 3810 O 359.324 1.78304 0.679142 0
M  V30 3811 C 356.464 3.36018 0.786496 0
M  V30 3812 C 355.577 4.31963 -0.0564849 0
M  V30 3813 C 354.712 5.24506 0.840657 0
M  V30 3814 C 353.751 6.121 -0.00658363 0
M  V30 3815 N 352.888 6.96973 0.846943 0
M  V30 3816 H 357.728 2.8424 -0.895088 0
M  V30 3817 H 355.265 1.3995 -0.453048 0
M  V30 3818 H 357.223 3.95768 1.31999 0
M  V30 3819 H 355.853 2.83758 1.53887 0
M  V30 3820 H 354.905 3.73763 -0.707492 0
M  V30 3821 H 356.217 4.93703 -0.711229 0
M  V30 3822 H 355.371 5.89322 1.4417 0
M  V30 3823 H 354.11 4.63107 1.52916 0
M  V30 3824 H 353.115 5.46289 -0.620366 0
M  V30 3825 H 354.34 6.75565 -0.691992 0
M  V30 3826 H 352.286 6.38133 1.52059 0
M  V30 3827 H 352.203 7.5559 0.248864 0
M  V30 3828 H 353.471 7.6621 1.43328 0
M  V30 3829 N 357.7 0.491464 1.49741 0
M  V30 3830 C 358.647 -0.292027 2.28945 0
M  V30 3831 C 359.617 -0.968973 1.34908 0
M  V30 3832 O 360.802 -0.97748 1.6386 0
M  V30 3833 C 357.942 -1.35617 3.17336 0
M  V30 3834 C 357.055 -0.691957 4.26422 0
M  V30 3835 C 356.19 -1.73572 5.02042 0
M  V30 3836 C 355.229 -1.05286 6.02977 0
M  V30 3837 N 354.366 -2.0404 6.71798 0
M  V30 3838 H 359.206 0.389654 2.95442 0
M  V30 3839 H 356.743 0.204003 1.45679 0
M  V30 3840 H 358.701 -1.98502 3.66951 0
M  V30 3841 H 357.331 -2.00674 2.52844 0
M  V30 3842 H 356.383 0.0499523 3.80367 0
M  V30 3843 H 357.695 -0.153946 4.98562 0
M  V30 3844 H 356.849 -2.43987 5.55478 0
M  V30 3845 H 355.588 -2.30757 4.29654 0
M  V30 3846 H 354.593 -0.334446 5.48782 0
M  V30 3847 H 355.818 -0.487636 6.77347 0
M  V30 3848 H 353.764 -2.60205 6.02187 0
M  V30 3849 H 353.681 -1.55279 7.39881 0
M  V30 3850 H 354.949 -2.73772 7.29842 0
M  V30 3851 N 359.178 -1.55987 0.224894 0
M  V30 3852 C 360.424 -1.99433 -0.39973 0
M  V30 3853 C 360.779 -1.11004 -1.57149 0
M  V30 3854 O 360.072 -0.160725 -1.90925 0
M  V30 3855 C 360.266 -3.46394 -0.880106 0
M  V30 3856 C 360.095 -4.4904 0.243565 0
M  V30 3857 C 358.865 -5.00272 0.711056 0
M  V30 3858 C 361.063 -5.03195 1.06299 0
M  V30 3859 N 359.045 -5.86628 1.80944 0
M  V30 3860 C 360.416 -5.86508 2.01017 0
M  V30 3861 C 362.471 -4.8555 1.10205 0
M  V30 3862 C 361.174 -6.54062 2.99324 0
M  V30 3863 C 363.2 -5.53866 2.07332 0
M  V30 3864 C 362.562 -6.3695 3.00789 0
M  V30 3865 H 358.661 -0.773815 -0.112847 0
M  V30 3866 H 361.245 -1.91754 0.337432 0
M  V30 3867 H 359.416 -3.54515 -1.58662 0
M  V30 3868 H 361.148 -3.76752 -1.47783 0
M  V30 3869 H 357.903 -4.72655 0.29906 0
M  V30 3870 H 358.327 -6.34507 2.36073 0
M  V30 3871 H 362.969 -4.20966 0.39343 0
M  V30 3872 H 360.687 -7.17827 3.71147 0
M  V30 3873 H 364.273 -5.42178 2.11032 0
M  V30 3874 H 363.153 -6.8888 3.74718 0
M  V30 3875 N 360.656 0.0484629 -1.57525 0
M  V30 3876 C 362.067 0.597486 -1.76881 0
M  V30 3877 C 362.418 1.76664 -0.853475 0
M  V30 3878 O 361.543 2.16357 -0.0433656 0
M  V30 3879 C 362.138 1.09066 -3.20765 0
M  V30 3880 C 360.697 1.58535 -3.41385 0
M  V30 3881 C 359.844 0.514868 -2.72478 0
M  V30 3882 H 362.795 -0.177758 -1.57701 0
M  V30 3883 H 362.816 1.95875 -3.2621 0
M  V30 3884 H 362.328 0.239521 -3.8736 0
M  V30 3885 H 360.429 2.45898 -2.79937 0
M  V30 3886 H 360.542 1.64622 -4.49929 0
M  V30 3887 H 358.906 0.965407 -2.35695 0
M  V30 3888 H 359.689 -0.32648 -3.41744 0
M  V30 3889 N 362.134 1.5431 0.320358 0
M  V30 3890 C 363.064 1.86912 1.3995 0
M  V30 3891 C 364.045 0.726211 1.53819 0
M  V30 3892 O 365.23 0.980233 1.67646 0
M  V30 3893 C 362.36 2.09932 2.7667 0
M  V30 3894 C 361.314 3.25776 2.77586 0
M  V30 3895 C 360.64 3.34173 4.17412 0
M  V30 3896 C 361.94 4.6335 2.41048 0
M  V30 3897 H 363.634 2.77292 1.12914 0
M  V30 3898 H 361.18 1.33421 0.541738 0
M  V30 3899 H 363.133 2.31324 3.52232 0
M  V30 3900 H 361.857 1.16304 3.0519 0
M  V30 3901 H 360.516 3.04276 2.04479 0
M  V30 3902 H 360.164 2.38098 4.43078 0
M  V30 3903 H 359.864 4.12033 4.18931 0
M  V30 3904 H 361.388 3.57803 4.94782 0
M  V30 3905 H 362.802 4.84602 3.06324 0
M  V30 3906 H 361.199 5.43782 2.53813 0
M  V30 3907 H 362.269 4.65381 1.36193 0
M  V30 3908 N 363.613 -0.582584 1.46437 0
M  V30 3909 C 364.843 -1.36484 1.55099 0
M  V30 3910 C 365.251 -1.88233 0.191056 0
M  V30 3911 O 364.594 -1.6429 -0.821858 0
M  V30 3912 C 364.656 -2.588 2.49525 0
M  V30 3913 C 364.32 -2.28517 3.95764 0
M  V30 3914 C 365.317 -1.87346 4.84972 0
M  V30 3915 C 363.002 -2.40658 4.40896 0
M  V30 3916 C 364.996 -1.5871 6.17325 0
M  V30 3917 C 362.683 -2.11635 5.73284 0
M  V30 3918 C 363.681 -1.70725 6.61318 0
M  V30 3919 O 363.369 -1.42057 7.91249 0
M  V30 3920 H 363.101 -0.423297 0.527063 0
M  V30 3921 H 365.655 -0.715188 1.92547 0
M  V30 3922 H 363.885 -3.26571 2.07095 0
M  V30 3923 H 365.574 -3.20868 2.48593 0
M  V30 3924 H 366.34 -1.77481 4.5136 0
M  V30 3925 H 362.219 -2.71463 3.72598 0
M  V30 3926 H 365.763 -1.26704 6.85997 0
M  V30 3927 H 361.66 -2.21124 6.06444 0
M  V30 3928 H 362.428 -1.55901 8.03515 0
M  V30 3929 N 365.091 -1.34144 -0.827227 0
M  V30 3930 C 366.024 -1.19707 -1.94282 0
M  V30 3931 C 367.002 -0.0897256 -1.62352 0
M  V30 3932 O 368.186 -0.254095 -1.8678 0
M  V30 3933 C 365.313 -0.838646 -3.28153 0
M  V30 3934 C 364.359 -1.95514 -3.79047 0
M  V30 3935 S 365.192 -3.56793 -3.99323 0
M  V30 3936 C 366.348 -3.22983 -5.36127 0
M  V30 3937 H 366.581 -2.1414 -2.06231 0
M  V30 3938 H 364.114 -1.19121 -0.982321 0
M  V30 3939 H 366.072 -0.638637 -4.05502 0
M  V30 3940 H 364.733 0.0872776 -3.13979 0
M  V30 3941 H 363.926 -1.658 -4.75948 0
M  V30 3942 H 363.528 -2.11241 -3.08631 0
M  V30 3943 H 365.82 -2.74531 -6.19386 0
M  V30 3944 H 366.763 -4.19008 -5.70822 0
M  V30 3945 H 367.171 -2.59276 -5.01434 0
M  V30 3946 N 366.569 1.04691 -1.17803 0
M  V30 3947 C 367.794 1.81984 -0.994813 0
M  V30 3948 C 368.219 1.82586 0.452112 0
M  V30 3949 O 367.577 1.23854 1.324 0
M  V30 3950 C 367.625 3.2575 -1.54659 0
M  V30 3951 O 366.729 4.05267 -0.763728 0
M  V30 3952 H 366.07 0.562483 -0.352857 0
M  V30 3953 H 368.6 1.3189 -1.56417 0
M  V30 3954 H 368.61 3.76541 -1.57102 0
M  V30 3955 H 367.285 3.24627 -2.59981 0
M  V30 3956 H 365.862 3.63972 -0.811108 0
M  V30 3957 N 368.047 0.979072 1.23499 0
M  V30 3958 C 369.275 0.665202 1.95915 0
M  V30 3959 C 369.69 -0.767571 1.72493 0
M  V30 3960 O 369.047 -1.51635 1.01554 0
M  V30 3961 C 369.098 0.944438 3.48945 0
M  V30 3962 O 368.819 2.3209 3.71572 0
M  V30 3963 C 370.32 0.646336 4.38563 0
M  V30 3964 H 367.54 0.247218 0.623798 0
M  V30 3965 H 370.084 1.31009 1.57025 0
M  V30 3966 H 368.239 0.345575 3.85856 0
M  V30 3967 H 368.653 2.40957 4.65876 0
M  V30 3968 H 370.127 0.892091 5.44744 0
M  V30 3969 H 370.604 -0.419575 4.37191 0
M  V30 3970 H 371.21 1.22562 4.07258 0
M  V30 3971 N 369.525 -1.3858 0.750561 0
M  V30 3972 C 370.472 -2.30483 0.120835 0
M  V30 3973 C 371.442 -1.50022 -0.712923 0
M  V30 3974 O 372.627 -1.78662 -0.669676 0
M  V30 3975 C 369.767 -3.36431 -0.768666 0
M  V30 3976 C 368.88 -4.31927 0.0793922 0
M  V30 3977 C 368.015 -5.24944 -0.81283 0
M  V30 3978 C 367.054 -6.12088 0.0390447 0
M  V30 3979 N 366.191 -6.97412 -0.809969 0
M  V30 3980 H 371.031 -2.83761 0.91015 0
M  V30 3981 H 368.568 -1.39707 0.460463 0
M  V30 3982 H 370.526 -3.96462 -1.29898 0
M  V30 3983 H 369.156 -2.8457 -1.5238 0
M  V30 3984 H 368.208 -3.73382 0.727303 0
M  V30 3985 H 369.52 -4.93319 0.737401 0
M  V30 3986 H 368.674 -5.90078 -1.41042 0
M  V30 3987 H 367.413 -4.63911 -1.50458 0
M  V30 3988 H 366.418 -5.45952 0.649328 0
M  V30 3989 H 367.643 -6.75189 0.727809 0
M  V30 3990 H 365.589 -6.38931 -1.48672 0
M  V30 3991 H 365.506 -7.55712 -0.208789 0
M  V30 3992 H 366.774 -7.66959 -1.39263 0
M  V30 3993 N 371.003 -0.499398 -1.49478 0
M  V30 3994 C 371.951 0.293604 -2.3074 0
M  V30 3995 C 372.945 0.96427 -1.39277 0
M  V30 3996 O 374.151 0.892141 -1.56336 0
M  V30 3997 H 370.526 0.113541 -0.743379 0
M  V30 3998 H 372.497 -0.411772 -2.95545 0
M  V30 3999 C 371.246 1.3462 -3.20582 0
M  V30 4000 H 370.569 0.83954 -3.90886 0
M  V30 4001 H 372.009 1.87308 -3.80384 0
M  V30 4002 C 370.468 2.36351 -2.40083 0
M  V30 4003 O 370.998 3.422 -2.10385 0
M  V30 4004 N 369.204 2.0878 -2.02137 0
M  V30 4005 H 368.751 1.22723 -2.26488 0
M  V30 4006 H 368.709 2.77075 -1.48583 0
M  V30 4007 N 372.481 1.55866 -0.233164 0
M  V30 4008 C 373.709 2.02998 0.399905 0
M  V30 4009 C 374.124 1.11274 1.52524 0
M  V30 4010 O 373.481 0.124528 1.82075 0
M  V30 4011 C 373.532 3.4958 0.920639 0
M  V30 4012 O 373.253 4.37808 -0.159834 0
M  V30 4013 C 374.754 4.12411 1.62578 0
M  V30 4014 H 371.974 0.664006 0.0966281 0
M  V30 4015 H 374.518 2.0143 -0.353013 0
M  V30 4016 H 372.673 3.51727 1.62379 0
M  V30 4017 H 373.087 5.23981 0.23337 0
M  V30 4018 H 374.561 5.16711 1.94201 0
M  V30 4019 H 375.038 3.5809 2.54299 0
M  V30 4020 H 375.644 4.14148 0.967553 0
M  V30 4021 N 373.959 -0.0401083 1.57549 0
M  V30 4022 C 375.208 -0.732108 1.87944 0
M  V30 4023 C 375.521 -1.77107 0.830206 0
M  V30 4024 O 376.727 -2.51488 1.02302 0
M  V30 4025 C 375.183 -1.35315 3.33494 0
M  V30 4026 C 374.791 -0.351105 4.46622 0
M  V30 4027 C 376.535 -2.02566 3.73051 0
M  V30 4028 C 374.442 -0.979859 5.83226 0
M  V30 4029 H 373.372 -0.277188 0.701201 0
M  V30 4030 H 376.023 0.0138501 1.83495 0
M  V30 4031 H 374.405 -2.14844 3.32653 0
M  V30 4032 H 375.579 0.416674 4.58912 0
M  V30 4033 H 373.894 0.218708 4.15825 0
M  V30 4034 H 376.491 -2.50441 4.72423 0
M  V30 4035 H 376.834 -2.83904 3.04474 0
M  V30 4036 H 377.367 -1.29827 3.76018 0
M  V30 4037 H 374.106 -0.206135 6.55176 0
M  V30 4038 H 373.626 -1.71774 5.74677 0
M  V30 4039 H 375.305 -1.49046 6.29599 0
M  V30 4040 N 375.437 -1.54477 -0.31217 0
M  V30 4041 C 376.367 -1.87652 -1.38957 0
M  V30 4042 C 377.348 -0.734358 -1.53431 0
M  V30 4043 O 378.533 -0.98911 -1.67123 0
M  V30 4044 C 375.663 -2.11396 -2.75552 0
M  V30 4045 C 374.617 -3.27243 -2.75855 0
M  V30 4046 C 373.943 -3.36382 -4.15633 0
M  V30 4047 C 375.243 -4.64622 -2.38587 0
M  V30 4048 H 376.937 -2.77887 -1.11442 0
M  V30 4049 H 374.483 -1.33707 -0.534655 0
M  V30 4050 H 376.436 -2.33189 -3.51 0
M  V30 4051 H 375.16 -1.17921 -3.04569 0
M  V30 4052 H 373.819 -3.05356 -2.02863 0
M  V30 4053 H 373.467 -2.40445 -4.41809 0
M  V30 4054 H 373.167 -4.14249 -4.1674 0
M  V30 4055 H 374.691 -3.60422 -4.92877 0
M  V30 4056 H 376.105 -4.86219 -3.03749 0
M  V30 4057 H 374.502 -5.45121 -2.50925 0
M  V30 4058 H 375.572 -4.66097 -1.33723 0
M  V30 4059 N 376.915 0.57481 -1.46744 0
M  V30 4060 C 377.862 1.68329 -1.57905 0
M  V30 4061 C 378.832 1.60625 -0.422927 0
M  V30 4062 O 380.017 1.79721 -0.640711 0
M  V30 4063 C 377.157 3.06665 -1.58274 0
M  V30 4064 C 376.27 3.24935 -2.84678 0
M  V30 4065 C 375.405 4.53566 -2.76499 0
M  V30 4066 C 374.444 4.65207 -3.97806 0
M  V30 4067 N 373.581 5.85172 -3.87967 0
M  V30 4068 H 378.421 1.58127 -2.52587 0
M  V30 4069 H 375.958 0.770552 -1.25303 0
M  V30 4070 H 377.916 3.86745 -1.56473 0
M  V30 4071 H 376.546 3.15745 -0.671194 0
M  V30 4072 H 375.598 2.38405 -2.96424 0
M  V30 4073 H 376.91 3.29403 -3.7456 0
M  V30 4074 H 376.064 5.41885 -2.72848 0
M  V30 4075 H 374.803 4.51548 -1.8427 0
M  V30 4076 H 373.808 3.75304 -4.0178 0
M  V30 4077 H 375.033 4.68997 -4.9114 0
M  V30 4078 H 372.979 5.84137 -2.98529 0
M  V30 4079 H 372.896 5.90943 -4.71511 0
M  V30 4080 H 374.164 6.759 -3.88303 0
M  V30 4081 N 378.394 1.34581 0.820102 0
M  V30 4082 C 379.357 1.2628 1.91275 0
M  V30 4083 C 380.357 0.177344 1.59819 0
M  V30 4084 O 381.547 0.430156 1.68806 0
M  V30 4085 C 378.679 0.950327 3.27386 0
M  V30 4086 H 379.872 2.23421 2.00057 0
M  V30 4087 H 377.425 1.1891 1.0144 0
M  V30 4088 H 378.16 -0.0177938 3.24295 0
M  V30 4089 H 377.945 1.73549 3.51601 0
M  V30 4090 H 379.435 0.917492 4.07396 0
M  V30 4091 N 379.872 -1.04064 1.18357 0
M  V30 4092 C 381.102 -1.80654 1.00238 0
M  V30 4093 C 381.51 -1.83713 -0.452362 0
M  V30 4094 O 380.853 -1.27135 -1.32599 0
M  V30 4095 C 380.915 -3.27582 1.48088 0
M  V30 4096 C 380.579 -3.48184 2.96002 0
M  V30 4097 C 381.576 -3.39372 3.93856 0
M  V30 4098 C 379.261 -3.7478 3.34433 0
M  V30 4099 C 381.255 -3.5686 5.28138 0
M  V30 4100 C 378.942 -3.91915 4.68877 0
M  V30 4101 C 379.94 -3.82956 5.65539 0
M  V30 4102 O 379.628 -3.996 6.97549 0
M  V30 4103 H 379.36 -0.575751 0.354241 0
M  V30 4104 H 381.914 -1.32044 1.57333 0
M  V30 4105 H 380.144 -3.77161 0.853588 0
M  V30 4106 H 381.833 -3.8573 1.2636 0
M  V30 4107 H 382.599 -3.18789 3.65511 0
M  V30 4108 H 378.478 -3.80852 2.59756 0
M  V30 4109 H 382.022 -3.49783 6.03571 0
M  V30 4110 H 377.919 -4.11992 4.96923 0
M  V30 4111 H 378.687 -4.1676 7.04452 0
M  V30 4112 N 381.35 -0.985608 -1.22978 0
M  V30 4113 C 382.627 -0.573599 -1.87001 0
M  V30 4114 C 383.007 0.949213 -1.88555 0
M  V30 4115 O 382.355 1.82811 -1.37086 0
M  V30 4116 C 382.565 -1.18564 -3.28243 0
M  V30 4117 C 383.913 -1.28163 -4.04796 0
M  V30 4118 O 384.937 -1.13949 -3.37482 0
M  V30 4119 O 383.796 -1.50832 -5.25273 0
M  V30 4120 H 380.89 -0.193868 -0.803955 0
M  V30 4121 H 383.436 -1.08102 -1.30813 0
M  V30 4122 H 382.208 -2.22758 -3.21706 0
M  V30 4123 H 381.831 -0.663363 -3.92027 0
M  V30 4124 N 382.828 1.3818 -0.7579 0
M  V30 4125 C 384.076 1.99624 -0.315361 0
M  V30 4126 C 384.397 1.60464 1.10799 0
M  V30 4127 O 383.667 0.863507 1.75842 0
M  V30 4128 H 382.247 0.73831 -0.113611 0
M  V30 4129 H 384.909 1.68878 -0.972952 0
M  V30 4130 H 384.005 3.09754 -0.381931 0
M  V30 4131 N 384.306 0.507319 1.49211 0
M  V30 4132 C 385.722 0.163682 1.58758 0
M  V30 4133 C 385.922 -1.33208 1.51188 0
M  V30 4134 O 384.978 -2.10855 1.38911 0
M  V30 4135 C 386.291 0.746095 2.91297 0
M  V30 4136 C 387.839 0.712773 3.04776 0
M  V30 4137 C 388.314 1.27336 4.39943 0
M  V30 4138 N 389.805 1.23433 4.46451 0
M  V30 4139 C 390.54 1.63821 5.495 0
M  V30 4140 N 390.036 2.11832 6.5962 0
M  V30 4141 N 391.829 1.55198 5.4025 0
M  V30 4142 H 383.98 1.47972 1.52375 0
M  V30 4143 H 386.243 0.614147 0.722168 0
M  V30 4144 H 385.949 1.79534 3.02424 0
M  V30 4145 H 385.823 0.210137 3.76614 0
M  V30 4146 H 388.21 -0.327656 2.93275 0
M  V30 4147 H 388.291 1.28595 2.21127 0
M  V30 4148 H 387.935 2.3126 4.52196 0
M  V30 4149 H 387.865 0.676066 5.22242 0
M  V30 4150 H 390.356 0.882627 3.67448 0
M  V30 4151 H 390.669 2.40703 7.34358 0
M  V30 4152 H 389.014 2.1581 6.60644 0
M  V30 4153 H 392.205 1.17505 4.53112 0
M  V30 4154 H 392.378 1.86997 6.20432 0
M  V30 4155 N 385.784 -1.5574 0.241426 0
M  V30 4156 C 387.031 -1.9881 -0.384836 0
M  V30 4157 C 387.359 -1.12947 -1.58346 0
M  V30 4158 O 386.614 -0.178993 -1.9488 0
M  V30 4159 C 386.913 -3.47308 -0.843317 0
M  V30 4160 C 386.579 -4.50223 0.246946 0
M  V30 4161 C 385.241 -4.78088 0.546399 0
M  V30 4162 C 387.593 -5.11841 0.983282 0
M  V30 4163 C 384.921 -5.64846 1.58636 0
M  V30 4164 C 387.273 -5.99727 2.01272 0
M  V30 4165 C 385.937 -6.25927 2.31888 0
M  V30 4166 H 385.207 -0.727496 -0.140821 0
M  V30 4167 H 387.854 -1.8831 0.348106 0
M  V30 4168 H 386.159 -3.55112 -1.65537 0
M  V30 4169 H 387.856 -3.78017 -1.33806 0
M  V30 4170 H 384.446 -4.286 0.00340639 0
M  V30 4171 H 388.63 -4.90366 0.765182 0
M  V30 4172 H 383.886 -5.83403 1.82896 0
M  V30 4173 H 388.06 -6.46517 2.58823 0
M  V30 4174 H 385.687 -6.92949 3.12611 0
M  V30 4175 N 387.262 0.0317525 -1.57568 0
M  V30 4176 C 388.209 1.0332 -2.06382 0
M  V30 4177 C 389.179 1.36082 -0.952414 0
M  V30 4178 O 390.364 1.46466 -1.2228 0
M  V30 4179 C 387.504 2.32989 -2.54578 0
M  V30 4180 C 386.617 2.0641 -3.79498 0
M  V30 4181 C 385.752 3.2993 -4.16317 0
M  V30 4182 C 384.791 2.98893 -5.34162 0
M  V30 4183 N 383.928 4.14857 -5.66426 0
M  V30 4184 H 388.768 0.609982 -2.9169 0
M  V30 4185 H 386.305 0.289573 -1.44222 0
M  V30 4186 H 388.263 3.0875 -2.80587 0
M  V30 4187 H 386.893 2.73039 -1.7219 0
M  V30 4188 H 385.945 1.21158 -3.6059 0
M  V30 4189 H 387.257 1.79513 -4.65378 0
M  V30 4190 H 386.411 4.1406 -4.4344 0
M  V30 4191 H 385.15 3.59938 -3.29083 0
M  V30 4192 H 384.155 2.13164 -5.06795 0
M  V30 4193 H 385.38 2.70165 -6.23047 0
M  V30 4194 H 383.326 4.44821 -4.82151 0
M  V30 4195 H 383.243 3.91374 -6.4681 0
M  V30 4196 H 384.511 4.99868 -5.98124 0
M  V30 4197 N 388.74 1.54641 0.303973 0
M  V30 4198 C 390.017 1.64455 1.05896 0
M  V30 4199 C 390.397 0.490923 2.05312 0
M  V30 4200 O 389.745 -0.512685 2.22674 0
M  V30 4201 C 389.955 3.02331 1.74347 0
M  V30 4202 C 391.303 3.59045 2.26653 0
M  V30 4203 O 392.327 3.04764 1.84384 0
M  V30 4204 O 391.186 4.54081 3.04093 0
M  V30 4205 H 388.28 0.666729 0.489287 0
M  V30 4206 H 390.826 1.66986 0.302298 0
M  V30 4207 H 389.598 3.77734 1.02142 0
M  V30 4208 H 389.221 3.03565 2.56777 0
M  V30 4209 N 390.218 -0.567019 1.47046 0
M  V30 4210 C 391.467 -1.32091 1.5243 0
M  V30 4211 C 391.78 -1.94704 0.187021 0
M  V30 4212 O 392.986 -2.7124 0.118771 0
M  V30 4213 C 391.442 -2.39479 2.68659 0
M  V30 4214 C 391.05 -1.831 4.08874 0
M  V30 4215 C 392.794 -3.16111 2.83327 0
M  V30 4216 C 390.701 -2.8821 5.16419 0
M  V30 4217 H 389.631 -0.496629 0.56734 0
M  V30 4218 H 392.282 -0.603354 1.73297 0
M  V30 4219 H 390.664 -3.14105 2.41152 0
M  V30 4220 H 391.838 -1.14913 4.46242 0
M  V30 4221 H 390.153 -1.19085 3.99008 0
M  V30 4222 H 392.75 -3.94585 3.60842 0
M  V30 4223 H 393.093 -3.69686 1.91411 0
M  V30 4224 H 393.626 -2.48595 3.10556 0
M  V30 4225 H 390.365 -2.39504 6.10179 0
M  V30 4226 H 389.885 -3.54839 4.8358 0
M  V30 4227 H 391.564 -3.51881 5.42945 0
M  V30 4228 N 391.696 -1.35014 -0.812953 0
M  V30 4229 C 392.943 -1.27931 -1.56971 0
M  V30 4230 C 393.271 0.148034 -1.93936 0
M  V30 4231 O 392.526 1.11175 -1.61054 0
M  V30 4232 C 392.825 -2.12524 -2.87347 0
M  V30 4233 C 392.491 -3.61401 -2.6963 0
M  V30 4234 C 391.153 -4.01983 -2.64506 0
M  V30 4235 C 393.505 -4.55894 -2.52607 0
M  V30 4236 C 390.833 -5.35235 -2.40293 0
M  V30 4237 C 393.185 -5.89336 -2.29925 0
M  V30 4238 C 391.849 -6.2907 -2.23219 0
M  V30 4239 H 391.119 -0.468131 -0.574399 0
M  V30 4240 H 393.766 -1.66851 -0.939836 0
M  V30 4241 H 392.071 -1.66463 -3.54679 0
M  V30 4242 H 393.768 -2.04383 -3.45005 0
M  V30 4243 H 390.358 -3.29193 -2.74463 0
M  V30 4244 H 394.542 -4.25431 -2.55583 0
M  V30 4245 H 389.798 -5.65028 -2.33566 0
M  V30 4246 H 393.972 -6.62139 -2.15743 0
M  V30 4247 H 391.599 -7.32256 -2.04219 0
M  V30 4248 N 393.175 1.03435 -1.18907 0
M  V30 4249 C 394.107 2.1165 -0.879595 0
M  V30 4250 C 395.12 1.62316 0.125439 0
M  V30 4251 O 396.309 1.78201 -0.103245 0
M  V30 4252 C 393.409 3.37622 -0.294042 0
M  V30 4253 C 392.582 4.16166 -1.34629 0
M  V30 4254 C 391.641 5.20457 -0.775274 0
M  V30 4255 O 390.667 5.50379 -1.4516 0
M  V30 4256 N 391.869 5.78949 0.424126 0
M  V30 4257 H 394.634 2.38791 -1.81105 0
M  V30 4258 H 392.195 1.19681 -1.09032 0
M  V30 4259 H 394.187 4.04572 0.101679 0
M  V30 4260 H 392.757 3.07873 0.541575 0
M  V30 4261 H 391.977 3.44444 -1.91707 0
M  V30 4262 H 393.265 4.65432 -2.05549 0
M  V30 4263 H 392.663 5.56948 0.991209 0
M  V30 4264 H 391.22 6.47334 0.761691 0
M  V30 4265 N 394.653 0.992116 1.22453 0
M  V30 4266 C 395.563 0.55065 2.28046 0
M  V30 4267 C 396.579 -0.400189 1.69335 0
M  V30 4268 O 397.755 -0.267215 1.99619 0
M  V30 4269 C 394.82 -0.128496 3.46462 0
M  V30 4270 C 393.881 0.865208 4.20491 0
M  V30 4271 C 393.114 0.218377 5.33253 0
M  V30 4272 O 393.337 -0.987894 5.6178 0
M  V30 4273 O 392.271 0.922845 5.94783 0
M  V30 4274 H 396.097 1.4291 2.67975 0
M  V30 4275 H 393.682 0.760326 1.28606 0
M  V30 4276 H 395.564 -0.508947 4.18315 0
M  V30 4277 H 394.239 -0.981526 3.0846 0
M  V30 4278 H 393.146 1.29658 3.50913 0
M  V30 4279 H 394.479 1.68741 4.62371 0
M  V30 4280 N 396.131 -1.37776 0.765217 0
M  V30 4281 C 397.38 -1.99092 0.323307 0
M  V30 4282 C 397.693 -1.61434 -1.10446 0
M  V30 4283 O 398.899 -2.15805 -1.64743 0
M  V30 4284 C 397.355 -3.56019 0.527098 0
M  V30 4285 C 396.963 -4.0262 1.96471 0
M  V30 4286 C 398.707 -4.2424 0.148483 0
M  V30 4287 C 396.614 -5.52233 2.11644 0
M  V30 4288 H 395.544 -0.744846 0.117137 0
M  V30 4289 H 398.195 -1.57391 0.943417 0
M  V30 4290 H 396.577 -3.95667 -0.162372 0
M  V30 4291 H 397.751 -3.74234 2.68859 0
M  V30 4292 H 396.066 -3.47161 2.29931 0
M  V30 4293 H 398.663 -5.34159 0.240456 0
M  V30 4294 H 399.006 -4.06446 -0.900422 0
M  V30 4295 H 399.539 -3.89872 0.79025 0
M  V30 4296 H 396.278 -5.74945 3.1483 0
M  V30 4297 H 395.798 -5.82324 1.4373 0
M  V30 4298 H 397.477 -6.18106 1.91193 0
M  V30 4299 N 397.609 -0.515225 -1.4894 0
M  V30 4300 C 398.856 0.024215 -2.02486 0
M  V30 4301 C 399.184 1.35671 -1.39368 0
M  V30 4302 O 398.439 1.88566 -0.523574 0
M  V30 4303 C 398.738 0.210595 -3.56779 0
M  V30 4304 C 398.404 -1.04569 -4.38607 0
M  V30 4305 C 397.066 -1.39002 -4.60686 0
M  V30 4306 C 399.418 -1.88008 -4.86109 0
M  V30 4307 C 396.746 -2.568 -5.27514 0
M  V30 4308 C 399.098 -3.04972 -5.54234 0
M  V30 4309 C 397.762 -3.39768 -5.74555 0
M  V30 4310 H 397.032 0.00886088 -0.740947 0
M  V30 4311 H 399.679 -0.678263 -1.79086 0
M  V30 4312 H 397.984 0.99572 -3.78936 0
M  V30 4313 H 399.681 0.642659 -3.95817 0
M  V30 4314 H 396.271 -0.767497 -4.21672 0
M  V30 4315 H 400.455 -1.62719 -4.68867 0
M  V30 4316 H 395.711 -2.8398 -5.41447 0
M  V30 4317 H 399.885 -3.69943 -5.90013 0
M  V30 4318 H 397.512 -4.31148 -6.26112 0
M  V30 4319 N 399.087 1.5561 -0.249682 0
M  V30 4320 C 400.364 1.90932 0.424761 0
M  V30 4321 C 400.744 1.17078 1.75658 0
M  V30 4322 O 400.092 0.289176 2.26663 0
M  V30 4323 C 400.302 3.43975 0.590109 0
M  V30 4324 C 401.65 4.15281 0.884714 0
M  V30 4325 O 402.674 3.49729 0.67587 0
M  V30 4326 O 401.533 5.31236 1.28259 0
M  V30 4327 H 398.627 0.794815 0.228468 0
M  V30 4328 H 401.173 1.67135 -0.293954 0
M  V30 4329 H 399.945 3.89748 -0.34818 0
M  V30 4330 H 399.568 3.73644 1.35926 0
M  V30 4331 N 400.565 -0.0233959 1.57583 0
M  V30 4332 C 401.512 -1.02224 2.06927 0
M  V30 4333 C 402.482 -1.35575 0.959617 0
M  V30 4334 O 403.667 -1.45815 1.23055 0
M  V30 4335 C 400.807 -2.31636 2.5581 0
M  V30 4336 C 399.92 -2.04394 3.80588 0
M  V30 4337 C 399.055 -3.27717 4.18061 0
M  V30 4338 C 398.094 -2.96056 5.3574 0
M  V30 4339 N 397.231 -4.11847 5.68618 0
M  V30 4340 H 402.071 -0.594504 2.9201 0
M  V30 4341 H 399.608 -0.281921 1.44373 0
M  V30 4342 H 401.566 -3.07258 2.82221 0
M  V30 4343 H 400.196 -2.72122 1.73636 0
M  V30 4344 H 399.248 -1.19244 3.61227 0
M  V30 4345 H 400.56 -1.77042 4.66323 0
M  V30 4346 H 399.714 -4.11702 4.4563 0
M  V30 4347 H 398.453 -3.58188 3.30988 0
M  V30 4348 H 397.458 -2.10474 5.07918 0
M  V30 4349 H 398.683 -2.66857 6.24471 0
M  V30 4350 H 396.629 -4.42258 4.84504 0
M  V30 4351 H 396.546 -3.87938 6.48876 0
M  V30 4352 H 397.814 -4.96689 6.00766 0
M  V30 4353 N 402.043 -1.548 -0.295768 0
M  V30 4354 C 402.993 -1.82497 -1.3667 0
M  V30 4355 C 403.977 -0.682434 -1.45711 0
M  V30 4356 O 405.169 -0.943207 -1.49775 0
M  V30 4357 C 402.298 -2.08036 -2.73086 0
M  V30 4358 C 401.384 -3.28488 -2.68247 0
M  V30 4359 N 401.775 -4.48924 -2.33025 0
M  V30 4360 C 400.073 -3.3062 -2.99343 0
M  V30 4361 C 400.774 -5.30956 -2.37613 0
M  V30 4362 N 399.75 -4.68805 -2.75178 0
M  V30 4363 H 403.552 -2.73175 -1.0841 0
M  V30 4364 H 401.066 -1.5437 -0.504361 0
M  V30 4365 H 403.063 -2.26027 -3.5031 0
M  V30 4366 H 401.723 -1.18629 -3.02254 0
M  V30 4367 H 402.734 -4.75432 -2.05389 0
M  V30 4368 H 399.411 -2.51336 -3.33371 0
M  V30 4369 H 400.801 -6.37199 -2.13135 0
M  V30 4370 N 403.521 0.559213 -1.47345 0
M  V30 4371 C 404.751 1.33999 -1.57251 0
M  V30 4372 C 405.159 1.87905 -0.220978 0
M  V30 4373 O 404.502 1.65577 0.795617 0
M  V30 4374 C 404.564 2.54798 -2.53611 0
M  V30 4375 C 404.228 2.22192 -3.99349 0
M  V30 4376 C 405.225 1.79607 -4.87891 0
M  V30 4377 C 402.91 2.33613 -4.44669 0
M  V30 4378 C 404.904 1.48868 -6.19772 0
M  V30 4379 C 402.591 2.02487 -5.76578 0
M  V30 4380 C 403.589 1.60183 -6.63951 0
M  V30 4381 O 403.277 1.29451 -7.93409 0
M  V30 4382 H 403.009 0.414858 -0.533731 0
M  V30 4383 H 405.563 0.684465 -1.9366 0
M  V30 4384 H 403.793 3.23235 -2.12265 0
M  V30 4385 H 405.482 3.16873 -2.53666 0
M  V30 4386 H 406.248 1.70278 -4.54126 0
M  V30 4387 H 402.127 2.65501 -3.76869 0
M  V30 4388 H 405.671 1.15775 -6.87926 0
M  V30 4389 H 401.568 2.11448 -6.09885 0
M  V30 4390 H 402.336 1.43098 -8.05894 0
M  V30 4391 N 404.999 1.35443 0.805782 0
M  V30 4392 C 405.946 1.28431 1.91766 0
M  V30 4393 C 406.916 0.156102 1.65365 0
M  V30 4394 O 408.101 0.339936 1.87747 0
M  V30 4395 C 405.241 1.06301 3.2832 0
M  V30 4396 C 404.354 2.2805 3.66902 0
M  V30 4397 C 403.489 1.99064 4.92491 0
M  V30 4398 C 402.528 3.16863 5.23703 0
M  V30 4399 N 401.665 2.87647 6.40471 0
M  V30 4400 H 406.505 2.23511 1.97096 0
M  V30 4401 H 404.042 1.11105 0.964054 0
M  V30 4402 H 406 0.915012 4.07042 0
M  V30 4403 H 404.63 0.148822 3.22457 0
M  V30 4404 H 403.682 2.53711 2.83434 0
M  V30 4405 H 404.994 3.1601 3.85927 0
M  V30 4406 H 404.148 1.81099 5.7904 0
M  V30 4407 H 402.887 1.0839 4.75503 0
M  V30 4408 H 401.892 3.35404 4.35642 0
M  V30 4409 H 403.117 4.08339 5.4262 0
M  V30 4410 H 401.063 1.99568 6.24907 0
M  V30 4411 H 400.98 3.69141 6.59751 0
M  V30 4412 H 402.248 2.73226 7.30047 0
M  V30 4413 N 406.477 -1.02803 1.19454 0
M  V30 4414 C 407.705 -1.79841 1.02297 0
M  V30 4415 C 408.12 -1.83879 -0.428259 0
M  V30 4416 O 407.477 -1.28345 -1.29745 0
M  V30 4417 C 407.528 -3.24852 1.58598 0
M  V30 4418 O 407.249 -3.21097 2.98041 0
M  V30 4419 C 408.75 -4.18485 1.46236 0
M  V30 4420 H 405.97 -0.565936 0.360496 0
M  V30 4421 H 408.514 -1.2948 1.58288 0
M  V30 4422 H 406.669 -3.72401 1.06753 0
M  V30 4423 H 407.083 -4.12033 3.24545 0
M  V30 4424 H 408.557 -5.18121 1.90407 0
M  V30 4425 H 409.034 -4.37254 0.41301 0
M  V30 4426 H 409.64 -3.76811 1.97215 0
M  V30 4427 N 407.956 -0.998596 -1.21925 0
M  V30 4428 C 409.233 -0.593401 -1.86382 0
M  V30 4429 C 409.613 0.92916 -1.89552 0
M  V30 4430 O 408.961 1.81347 -1.39017 0
M  V30 4431 C 409.171 -1.22039 -3.26967 0
M  V30 4432 C 410.519 -1.32449 -4.03413 0
M  V30 4433 O 411.543 -1.17522 -3.36254 0
M  V30 4434 O 410.402 -1.56395 -5.23644 0
M  V30 4435 H 407.496 -0.202385 -0.801854 0
M  V30 4436 H 410.042 -1.09484 -1.29659 0
M  V30 4437 H 408.814 -2.26158 -3.19325 0
M  V30 4438 H 408.437 -0.704906 -3.91301 0
M  V30 4439 N 409.434 1.37368 -0.772513 0
M  V30 4440 C 410.681 1.99673 -0.337182 0
M  V30 4441 C 411.009 1.61324 1.0865 0
M  V30 4442 O 410.264 0.851377 1.7621 0
M  V30 4443 C 410.563 3.54817 -0.428876 0
M  V30 4444 C 410.229 4.12936 -1.81092 0
M  V30 4445 C 408.891 4.28523 -2.1891 0
M  V30 4446 C 411.243 4.44801 -2.71664 0
M  V30 4447 C 408.571 4.73277 -3.46735 0
M  V30 4448 C 410.923 4.90981 -3.98899 0
M  V30 4449 C 409.587 5.04773 -4.36761 0
M  V30 4450 H 408.857 0.730656 -0.123384 0
M  V30 4451 H 411.504 1.64124 -0.986686 0
M  V30 4452 H 409.809 3.90618 0.304167 0
M  V30 4453 H 411.506 4.00933 -0.0733334 0
M  V30 4454 H 408.096 4.01233 -1.50699 0
M  V30 4455 H 412.28 4.32344 -2.43706 0
M  V30 4456 H 407.536 4.82142 -3.75964 0
M  V30 4457 H 411.71 5.14603 -4.69208 0
M  V30 4458 H 409.337 5.39211 -5.35868 0
M  V30 4459 N 410.912 0.523116 1.48665 0
M  V30 4460 C 412.189 -0.0775449 1.95446 0
M  V30 4461 C 412.569 -1.5197 1.4652 0
M  V30 4462 O 411.917 -2.17876 0.688657 0
M  V30 4463 C 412.127 0.0326135 3.48985 0
M  V30 4464 C 413.475 -0.130141 4.24401 0
M  V30 4465 O 414.499 -0.0415142 3.56176 0
M  V30 4466 O 413.358 -0.31491 5.45592 0
M  V30 4467 H 410.452 -0.0831012 0.822814 0
M  V30 4468 H 412.998 0.587227 1.59216 0
M  V30 4469 H 411.77 1.03748 3.77296 0
M  V30 4470 H 411.393 -0.671317 3.91892 0
M  V30 4471 N 412.39 -1.55475 0.257931 0
M  V30 4472 C 413.337 -2.21837 -0.636939 0
M  V30 4473 C 414.307 -1.18596 -1.16294 0
M  V30 4474 O 415.492 -1.47081 -1.21539 0
M  V30 4475 C 412.632 -2.9301 -1.82317 0
M  V30 4476 C 411.745 -4.10931 -1.33265 0
M  V30 4477 C 410.88 -4.69791 -2.47931 0
M  V30 4478 C 409.919 -5.7994 -1.95796 0
M  V30 4479 N 409.056 -6.32935 -3.0387 0
M  V30 4480 H 413.896 -2.9793 -0.0643591 0
M  V30 4481 H 411.433 -1.47086 -0.0200031 0
M  V30 4482 H 413.391 -3.3248 -2.52018 0
M  V30 4483 H 412.021 -2.1937 -2.36805 0
M  V30 4484 H 411.073 -3.76699 -0.52931 0
M  V30 4485 H 412.385 -4.90417 -0.910654 0
M  V30 4486 H 411.539 -5.11892 -3.25656 0
M  V30 4487 H 410.278 -3.89545 -2.93438 0
M  V30 4488 H 409.283 -5.37305 -1.16546 0
M  V30 4489 H 410.508 -6.62043 -1.51246 0
M  V30 4490 H 408.454 -5.55591 -3.48791 0
M  V30 4491 H 408.371 -7.07645 -2.66035 0
M  V30 4492 H 409.639 -6.79695 -3.81621 0
M  V30 4493 N 413.868 0.0150385 -1.57593 0
M  V30 4494 C 414.816 1.02958 -2.08572 0
M  V30 4495 C 415.81 1.36554 -1.00246 0
M  V30 4496 O 417.016 1.35295 -1.18724 0
M  V30 4497 H 413.391 0.349619 -0.665786 0
M  V30 4498 H 415.362 0.573932 -2.92829 0
M  V30 4499 C 414.111 2.31752 -2.59203 0
M  V30 4500 H 413.434 2.06765 -3.42182 0
M  V30 4501 H 414.874 3.01053 -2.98568 0
M  V30 4502 C 413.333 3.01692 -1.49945 0
M  V30 4503 O 413.863 3.92083 -0.873704 0
M  V30 4504 N 412.069 2.6326 -1.23056 0
M  V30 4505 H 411.616 1.89838 -1.74125 0
M  V30 4506 H 411.574 3.10372 -0.501685 0
M  V30 4507 N 415.346 1.54954 0.287554 0
M  V30 4508 C 416.293 1.86834 1.35505 0
M  V30 4509 C 417.263 0.718452 1.49758 0
M  V30 4510 O 418.448 0.968358 1.644 0
M  V30 4511 C 415.588 2.13303 2.71286 0
M  V30 4512 C 414.701 3.40883 2.65373 0
M  V30 4513 C 413.836 3.57125 3.93236 0
M  V30 4514 C 412.875 4.78449 3.81776 0
M  V30 4515 N 412.012 4.91426 5.01443 0
M  V30 4516 H 416.852 2.77889 1.07619 0
M  V30 4517 H 414.389 1.37593 0.520241 0
M  V30 4518 H 416.347 2.26646 3.50267 0
M  V30 4519 H 414.977 1.25499 2.97405 0
M  V30 4520 H 414.029 3.36088 1.78182 0
M  V30 4521 H 415.341 4.29993 2.52799 0
M  V30 4522 H 414.495 3.70207 4.80658 0
M  V30 4523 H 413.234 2.66173 4.0866 0
M  V30 4524 H 412.239 4.65386 2.92738 0
M  V30 4525 H 413.464 5.70822 3.67884 0
M  V30 4526 H 411.41 4.03401 5.17304 0
M  V30 4527 H 411.327 5.74559 4.91343 0
M  V30 4528 H 412.595 5.08879 5.90477 0
M  V30 4529 N 416.824 -0.551391 1.4764 0
M  V30 4530 C 418.073 -1.30467 1.53822 0
M  V30 4531 C 418.386 -1.94495 0.207661 0
M  V30 4532 O 419.592 -2.71099 0.147533 0
M  V30 4533 C 418.048 -2.36616 2.71184 0
M  V30 4534 C 417.656 -1.78754 4.10793 0
M  V30 4535 C 419.4 -3.13088 2.86663 0
M  V30 4536 C 417.307 -2.82717 5.19447 0
M  V30 4537 H 416.237 -0.490584 0.572576 0
M  V30 4538 H 418.888 -0.58494 1.73927 0
M  V30 4539 H 417.27 -3.11529 2.4447 0
M  V30 4540 H 418.444 -1.10173 4.47435 0
M  V30 4541 H 416.759 -1.14846 4.00249 0
M  V30 4542 H 419.356 -3.90736 3.65007 0
M  V30 4543 H 419.699 -3.67635 1.95321 0
M  V30 4544 H 420.232 -2.45288 3.13175 0
M  V30 4545 H 416.971 -2.33018 6.12685 0
M  V30 4546 H 416.491 -3.4969 4.87316 0
M  V30 4547 H 418.17 -3.46102 5.46646 0
M  V30 4548 N 418.302 -1.35869 -0.798587 0
M  V30 4549 C 419.548 -1.30788 -1.55775 0
M  V30 4550 C 419.903 0.114558 -1.92059 0
M  V30 4551 O 419.196 1.06691 -1.59147 0
M  V30 4552 C 419.39 -2.1556 -2.85077 0
M  V30 4553 C 419.219 -3.65904 -2.61428 0
M  V30 4554 C 417.989 -4.35112 -2.56915 0
M  V30 4555 C 420.187 -4.59375 -2.31255 0
M  V30 4556 N 418.169 -5.71155 -2.25068 0
M  V30 4557 C 419.54 -5.83598 -2.09316 0
M  V30 4558 C 421.595 -4.48035 -2.17185 0
M  V30 4559 C 420.298 -6.97755 -1.74731 0
M  V30 4560 C 422.324 -5.62049 -1.83998 0
M  V30 4561 C 421.686 -6.85305 -1.629 0
M  V30 4562 H 417.785 -0.533855 -0.571422 0
M  V30 4563 H 420.369 -1.7083 -0.934079 0
M  V30 4564 H 418.54 -1.77776 -3.45326 0
M  V30 4565 H 420.272 -2.01938 -3.50718 0
M  V30 4566 H 417.027 -3.87812 -2.71843 0
M  V30 4567 H 417.451 -6.42978 -2.11916 0
M  V30 4568 H 422.093 -3.53338 -2.3219 0
M  V30 4569 H 419.811 -7.92411 -1.58464 0
M  V30 4570 H 423.397 -5.55232 -1.73808 0
M  V30 4571 H 422.277 -7.72034 -1.37596 0
M  V30 4572 N 419.78 1.02168 -1.19998 0
M  V30 4573 C 421.01 1.79036 -1.031 0
M  V30 4574 C 421.418 1.84409 0.423078 0
M  V30 4575 O 420.761 1.29228 1.30559 0
M  V30 4576 C 420.823 3.25185 -1.53281 0
M  V30 4577 C 420.487 3.43431 -3.01503 0
M  V30 4578 C 421.484 3.33063 -3.99206 0
M  V30 4579 C 419.169 3.69412 -3.40353 0
M  V30 4580 C 421.163 3.48413 -5.33748 0
M  V30 4581 C 418.85 3.84406 -4.75053 0
M  V30 4582 C 419.848 3.7391 -5.71559 0
M  V30 4583 O 419.536 3.88452 -7.03818 0
M  V30 4584 H 419.268 0.570043 -0.363355 0
M  V30 4585 H 421.822 1.29524 -1.59414 0
M  V30 4586 H 420.052 3.75756 -0.913483 0
M  V30 4587 H 421.741 3.83671 -1.32481 0
M  V30 4588 H 422.507 3.12934 -3.70537 0
M  V30 4589 H 418.386 3.76671 -2.65782 0
M  V30 4590 H 421.93 3.40137 -6.09059 0
M  V30 4591 H 417.827 4.04035 -5.03415 0
M  V30 4592 H 418.595 4.055 -7.10993 0
M  V30 4593 N 421.258 1.00505 1.21394 0
M  V30 4594 C 422.168 0.574806 2.27449 0
M  V30 4595 C 423.184 -0.382206 1.6975 0
M  V30 4596 O 424.36 -0.246027 1.99892 0
M  V30 4597 C 421.425 -0.0917414 3.46579 0
M  V30 4598 C 420.486 0.909758 4.1955 0
M  V30 4599 C 419.719 0.274924 5.32991 0
M  V30 4600 O 419.942 -0.928254 5.62796 0
M  V30 4601 O 418.876 0.985877 5.93771 0
M  V30 4602 H 422.702 1.45744 2.66444 0
M  V30 4603 H 420.287 0.773923 1.27792 0
M  V30 4604 H 422.169 -0.464551 4.18832 0
M  V30 4605 H 420.844 -0.948755 3.09484 0
M  V30 4606 H 419.751 1.33372 3.49518 0
M  V30 4607 H 421.084 1.73636 4.60555 0
M  V30 4608 N 422.737 -1.36956 0.779787 0
M  V30 4609 C 423.687 -2.27539 0.144892 0
M  V30 4610 C 424.671 -1.46493 -0.665488 0
M  V30 4611 O 425.863 -1.68968 -0.527141 0
M  V30 4612 C 422.992 -3.35512 -0.727082 0
M  V30 4613 C 422.078 -4.24001 0.0915642 0
M  V30 4614 N 422.469 -4.92757 1.14125 0
M  V30 4615 C 420.767 -4.45807 -0.131141 0
M  V30 4616 C 421.468 -5.58138 1.6388 0
M  V30 4617 N 420.444 -5.35241 0.94962 0
M  V30 4618 H 424.246 -2.78176 0.948446 0
M  V30 4619 H 421.76 -1.50169 0.618315 0
M  V30 4620 H 423.757 -3.99324 -1.19776 0
M  V30 4621 H 422.417 -2.86431 -1.52929 0
M  V30 4622 H 423.428 -4.94984 1.52353 0
M  V30 4623 H 420.105 -4.07582 -0.904621 0
M  V30 4624 H 421.495 -6.23071 2.51461 0
M  V30 4625 N 424.215 -0.530993 -1.48385 0
M  V30 4626 C 425.631 -0.188919 -1.58478 0
M  V30 4627 C 425.831 1.30786 -1.53288 0
M  V30 4628 O 424.887 2.08619 -1.42248 0
M  V30 4629 C 426.2 -0.792343 -2.90073 0
M  V30 4630 C 427.748 -0.76117 -3.03604 0
M  V30 4631 C 428.223 -1.34319 -4.37861 0
M  V30 4632 N 429.714 -1.3052 -4.44431 0
M  V30 4633 C 430.449 -1.72543 -5.46824 0
M  V30 4634 N 429.945 -2.22299 -6.56167 0
M  V30 4635 N 431.738 -1.63773 -5.37712 0
M  V30 4636 H 423.889 -1.50377 -1.50002 0
M  V30 4637 H 426.152 -0.625559 -0.712306 0
M  V30 4638 H 425.858 -1.84323 -2.99529 0
M  V30 4639 H 425.732 -0.270026 -3.76232 0
M  V30 4640 H 428.119 0.280957 -2.93759 0
M  V30 4641 H 428.2 -1.32097 -2.19053 0
M  V30 4642 H 427.844 -2.38425 -4.4846 0
M  V30 4643 H 427.774 -0.759064 -5.21101 0
M  V30 4644 H 430.265 -0.940973 -3.65997 0
M  V30 4645 H 430.578 -2.52356 -7.30436 0
M  V30 4646 H 428.923 -2.26293 -6.57127 0
M  V30 4647 H 432.114 -1.24698 -4.51185 0
M  V30 4648 H 432.287 -1.96844 -6.17379 0
M  V30 4649 N 425.693 1.55336 -0.266172 0
M  V30 4650 C 426.623 2.25146 0.618981 0
M  V30 4651 C 427.604 1.23845 1.16604 0
M  V30 4652 O 428.789 1.52544 1.20183 0
M  V30 4653 C 425.919 2.96572 1.80728 0
M  V30 4654 C 424.873 4.04726 1.39215 0
M  V30 4655 C 424.199 4.63678 2.66283 0
M  V30 4656 C 425.499 5.19407 0.548942 0
M  V30 4657 H 427.193 2.99377 0.0368116 0
M  V30 4658 H 424.739 1.43991 0.0162651 0
M  V30 4659 H 426.692 3.44116 2.43232 0
M  V30 4660 H 425.416 2.19861 2.41514 0
M  V30 4661 H 424.075 3.57979 0.790351 0
M  V30 4662 H 423.723 3.83646 3.25308 0
M  V30 4663 H 423.423 5.367 2.39222 0
M  V30 4664 H 424.947 5.13967 3.29651 0
M  V30 4665 H 426.361 5.63059 1.07876 0
M  V30 4666 H 424.758 5.98936 0.373593 0
M  V30 4667 H 425.828 4.8295 -0.434394 0
M  V30 4668 N 427.171 -0.0066808 1.57599 0
M  V30 4669 C 428.42 -0.692078 1.89455 0
M  V30 4670 C 428.733 -1.75306 0.867586 0
M  V30 4671 O 429.939 -2.49262 1.07614 0
M  V30 4672 C 428.395 -1.2821 3.36289 0
M  V30 4673 C 428.003 -0.256291 4.47266 0
M  V30 4674 C 429.747 -1.94608 3.77264 0
M  V30 4675 C 427.654 -0.855927 5.85173 0
M  V30 4676 H 426.584 -0.262252 0.706923 0
M  V30 4677 H 429.235 0.052769 1.83424 0
M  V30 4678 H 427.617 -2.0774 3.37135 0
M  V30 4679 H 428.791 0.513923 4.57925 0
M  V30 4680 H 427.106 0.306862 4.15268 0
M  V30 4681 H 429.703 -2.40364 4.77629 0
M  V30 4682 H 430.046 -2.77382 3.10427 0
M  V30 4683 H 430.579 -1.21822 3.78688 0
M  V30 4684 H 427.318 -0.0671161 6.55466 0
M  V30 4685 H 426.838 -1.59546 5.78191 0
M  V30 4686 H 428.517 -1.35658 6.32618 0
M  V30 4687 N 428.649 -1.55105 -0.279332 0
M  V30 4688 C 429.926 -1.66119 -1.03267 0
M  V30 4689 C 430.306 -0.523525 -2.04505 0
M  V30 4690 O 429.654 0.477194 -2.23462 0
M  V30 4691 C 429.864 -3.05067 -1.69515 0
M  V30 4692 C 431.212 -3.62606 -2.20912 0
M  V30 4693 O 432.236 -3.07659 -1.79512 0
M  V30 4694 O 431.095 -4.58861 -2.96831 0
M  V30 4695 H 428.189 -0.674429 -0.478618 0
M  V30 4696 H 430.735 -1.67446 -0.275694 0
M  V30 4697 H 429.507 -3.79311 -0.9612 0
M  V30 4698 H 429.13 -3.07611 -2.51915 0
M  V30 4699 N 430.127 0.543554 -1.4793 0
M  V30 4700 C 431.404 1.30458 -1.4574 0
M  V30 4701 C 431.784 2.1048 -0.161692 0
M  V30 4702 O 431.132 2.11831 0.856734 0
M  V30 4703 C 431.342 2.19754 -2.71126 0
M  V30 4704 C 432.69 2.80334 -3.18901 0
M  V30 4705 O 433.714 2.30049 -2.71948 0
M  V30 4706 O 432.573 3.71766 -4.00565 0
M  V30 4707 H 429.667 0.588117 -0.581418 0
M  V30 4708 H 432.213 0.561328 -1.60147 0
M  V30 4709 H 430.985 1.60316 -3.56952 0
M  V30 4710 H 430.608 3.01351 -2.59371 0
M  V30 4711 N 431.605 1.3629 0.791371 0
M  V30 4712 C 432.538 1.24816 1.9104 0
M  V30 4713 C 433.516 0.132739 1.62057 0
M  V30 4714 O 434.7 0.303527 1.8604 0
M  V30 4715 C 431.827 0.925355 3.25814 0
M  V30 4716 C 430.873 2.05495 3.7373 0
M  V30 4717 S 431.706 3.67255 3.89723 0
M  V30 4718 C 432.862 3.37084 5.27376 0
M  V30 4719 H 433.095 2.19533 2.00481 0
M  V30 4720 H 430.628 1.21684 0.950393 0
M  V30 4721 H 432.586 0.745924 4.03666 0
M  V30 4722 H 431.247 -0.00400098 3.141 0
M  V30 4723 H 430.44 1.7836 4.71385 0
M  V30 4724 H 430.042 2.1935 3.02922 0
M  V30 4725 H 432.334 2.90856 6.1189 0
M  V30 4726 H 433.277 4.33995 5.59512 0
M  V30 4727 H 433.685 2.7248 4.94383 0
M  V30 4728 N 433.083 -1.0153 1.20538 0
M  V30 4729 C 434.329 -1.75408 1.01783 0
M  V30 4730 C 434.662 -1.88943 -0.448814 0
M  V30 4731 O 433.937 -1.4162 -1.33319 0
M  V30 4732 C 434.22 -3.17255 1.70356 0
M  V30 4733 C 434.073 -3.11508 3.24473 0
M  V30 4734 C 435.392 -4.15955 1.43769 0
M  V30 4735 H 432.511 -0.636713 0.371167 0
M  V30 4736 H 435.153 -1.18436 1.4857 0
M  V30 4737 H 433.303 -3.65898 1.30578 0
M  V30 4738 H 434.975 -2.70658 3.73553 0
M  V30 4739 H 433.218 -2.4887 3.55311 0
M  V30 4740 H 433.889 -4.11784 3.67611 0
M  V30 4741 H 436.365 -3.75973 1.7828 0
M  V30 4742 H 435.241 -5.13368 1.94279 0
M  V30 4743 H 435.502 -4.40586 0.365564 0
M  V30 4744 N 434.561 -1.01147 -1.20859 0
M  V30 4745 C 435.524 -0.582224 -2.21682 0
M  V30 4746 C 436.524 0.344887 -1.57058 0
M  V30 4747 O 437.714 0.134281 -1.73682 0
M  V30 4748 C 434.846 0.150496 -3.40568 0
M  V30 4749 H 436.039 -1.47408 -2.61172 0
M  V30 4750 H 433.592 -0.800695 -1.34233 0
M  V30 4751 H 434.327 1.0575 -3.06574 0
M  V30 4752 H 434.112 -0.515444 -3.88697 0
M  V30 4753 H 435.602 0.438344 -4.15293 0
M  V30 4754 N 436.039 1.36541 -0.78704 0
M  V30 4755 C 436.971 2.28761 -0.141773 0
M  V30 4756 C 437.984 1.49365 0.647599 0
M  V30 4757 O 439.173 1.71836 0.483173 0
M  V30 4758 C 436.273 3.28771 0.822368 0
M  V30 4759 C 435.446 4.3732 0.0835594 0
M  V30 4760 C 434.505 5.17307 0.963296 0
M  V30 4761 O 433.531 5.67638 0.421419 0
M  V30 4762 N 434.733 5.33515 2.28784 0
M  V30 4763 H 437.498 2.84777 -0.933919 0
M  V30 4764 H 435.059 1.48682 -0.640735 0
M  V30 4765 H 437.051 3.79169 1.41468 0
M  V30 4766 H 435.621 2.73412 1.5154 0
M  V30 4767 H 434.841 3.88118 -0.689809 0
M  V30 4768 H 436.129 5.0701 -0.426358 0
M  V30 4769 H 435.527 4.94234 2.75226 0
M  V30 4770 H 434.084 5.87165 2.82985 0
M  V30 4771 N 437.518 0.538854 1.48102 0
M  V30 4772 C 438.764 0.00801365 2.02798 0
M  V30 4773 C 439.097 -1.3309 1.41424 0
M  V30 4774 O 438.372 -1.86169 0.563158 0
M  V30 4775 C 438.655 -0.104589 3.59948 0
M  V30 4776 C 438.508 1.26012 4.31788 0
M  V30 4777 C 439.827 -0.827055 4.32259 0
M  V30 4778 H 436.946 0.00438624 0.736987 0
M  V30 4779 H 439.588 0.6976 1.7673 0
M  V30 4780 H 437.738 -0.691893 3.82289 0
M  V30 4781 H 439.41 1.88922 4.2084 0
M  V30 4782 H 437.653 1.83968 3.92859 0
M  V30 4783 H 438.324 1.13424 5.40221 0
M  V30 4784 H 440.8 -0.328578 4.14801 0
M  V30 4785 H 439.676 -0.87476 5.41885 0
M  V30 4786 H 439.937 -1.87927 4.0017 0
M  V30 4787 N 438.996 -1.55193 0.274407 0
M  V30 4788 C 439.926 -2.25471 -0.607032 0
M  V30 4789 C 440.907 -1.24461 -1.15946 0
M  V30 4790 O 442.092 -1.53179 -1.19373 0
M  V30 4791 C 439.222 -2.97526 -1.79153 0
M  V30 4792 C 438.176 -4.05459 -1.37067 0
M  V30 4793 C 437.502 -4.65084 -2.6382 0
M  V30 4794 C 438.802 -5.19691 -0.521389 0
M  V30 4795 H 440.496 -2.99393 -0.0209343 0
M  V30 4796 H 438.042 -1.43997 -0.00862866 0
M  V30 4797 H 439.995 -3.45402 -2.41404 0
M  V30 4798 H 438.719 -2.21138 -2.40344 0
M  V30 4799 H 437.378 -3.58393 -0.771355 0
M  V30 4800 H 437.026 -3.85365 -3.23268 0
M  V30 4801 H 436.726 -5.37961 -2.36372 0
M  V30 4802 H 438.25 -5.15708 -3.26921 0
M  V30 4803 H 439.664 -5.63623 -1.04889 0
M  V30 4804 H 438.061 -5.99126 -0.341825 0
M  V30 4805 H 439.131 -4.82713 0.46 0
M  V30 4806 N 440.474 -0.00167713 -1.576 0
M  V30 4807 C 441.421 0.989195 -2.08527 0
M  V30 4808 C 442.391 1.34031 -0.981065 0
M  V30 4809 O 443.576 1.43839 -1.2536 0
M  V30 4810 C 440.716 2.27537 -2.59463 0
M  V30 4811 C 439.829 1.98314 -3.83791 0
M  V30 4812 C 438.964 3.21025 -4.23222 0
M  V30 4813 C 438.003 2.87495 -5.40382 0
M  V30 4814 N 437.14 4.02749 -5.75098 0
M  V30 4815 H 441.98 0.547973 -2.92919 0
M  V30 4816 H 439.517 0.258917 -1.44803 0
M  V30 4817 H 441.475 3.02729 -2.87073 0
M  V30 4818 H 440.105 2.69325 -1.77943 0
M  V30 4819 H 439.157 1.13482 -3.63078 0
M  V30 4820 H 440.469 1.69601 -4.69081 0
M  V30 4821 H 439.623 4.04561 -4.52123 0
M  V30 4822 H 438.362 3.52877 -3.36644 0
M  V30 4823 H 437.367 2.02367 -5.11202 0
M  V30 4824 H 438.592 2.56889 -6.28637 0
M  V30 4825 H 436.538 4.34494 -4.91478 0
M  V30 4826 H 436.455 3.77566 -6.54966 0
M  V30 4827 H 437.723 4.87068 -6.08592 0
M  V30 4828 N 441.952 1.55251 0.271103 0
M  V30 4829 C 443.177 1.80306 1.02491 0
M  V30 4830 C 443.602 0.575457 1.79081 0
M  V30 4831 O 442.96 -0.474987 1.74967 0
M  V30 4832 C 443.008 3.02832 1.95768 0
M  V30 4833 O 442.112 2.78051 3.04568 0
M  V30 4834 H 441.453 0.595896 0.292923 0
M  V30 4835 H 443.983 2.02397 0.299436 0
M  V30 4836 H 443.993 3.31616 2.37686 0
M  V30 4837 H 442.668 3.9183 1.39434 0
M  V30 4838 H 441.245 2.60369 2.66951 0
M  V30 4839 N 443.43 -0.535701 1.48216 0
M  V30 4840 C 444.655 -1.32149 1.59848 0
M  V30 4841 C 445.08 -1.86338 0.256842 0
M  V30 4842 O 444.438 -1.64107 -0.770632 0
M  V30 4843 C 444.486 -2.45224 2.64381 0
M  V30 4844 O 443.59 -3.48093 2.21144 0
M  V30 4845 H 442.931 -0.391634 0.536208 0
M  V30 4846 H 445.461 -0.645202 1.94161 0
M  V30 4847 H 445.471 -2.91491 2.85476 0
M  V30 4848 H 444.146 -2.05143 3.61786 0
M  V30 4849 H 442.723 -3.07984 2.10239 0
M  V30 4850 N 444.908 -1.36708 -0.784132 0
M  V30 4851 C 446.156 -1.30972 -1.53918 0
M  V30 4852 C 446.477 0.109086 -1.94695 0
M  V30 4853 O 445.747 1.05048 -1.65353 0
M  V30 4854 H 444.327 -0.481819 -0.570841 0
M  V30 4855 H 446.989 -1.71063 -0.934002 0
M  V30 4856 H 446.085 -1.94061 -2.44431 0
M  V30 4857 N 446.386 1.0089 -1.21074 0
M  V30 4858 C 447.634 1.74262 -1.02358 0
M  V30 4859 C 447.955 1.89869 0.444393 0
M  V30 4860 O 447.225 1.44677 1.32081 0
M  V30 4861 H 445.805 0.645615 -0.375754 0
M  V30 4862 H 448.467 1.21596 -1.52317 0
M  V30 4863 H 447.563 2.74328 -1.4883 0
M  V30 4864 N 447.864 1.01787 1.20321 0
M  V30 4865 C 449.111 0.707936 1.89722 0
M  V30 4866 C 449.439 -0.762535 1.78929 0
M  V30 4867 O 448.694 -1.56977 1.16861 0
M  V30 4868 C 448.993 1.09076 3.40349 0
M  V30 4869 C 448.659 2.55765 3.71342 0
M  V30 4870 C 447.321 2.95845 3.79511 0
M  V30 4871 C 449.673 3.50723 3.85542 0
M  V30 4872 C 447.001 4.2982 3.99339 0
M  V30 4873 C 449.353 4.84387 4.06881 0
M  V30 4874 C 448.017 5.24172 4.1328 0
M  V30 4875 H 447.287 0.259052 0.694243 0
M  V30 4876 H 449.934 1.27868 1.42555 0
M  V30 4877 H 448.239 0.438453 3.89339 0
M  V30 4878 H 449.936 0.828636 3.92345 0
M  V30 4879 H 446.526 2.2371 3.65584 0
M  V30 4880 H 450.71 3.20916 3.78585 0
M  V30 4881 H 445.966 4.60196 4.02529 0
M  V30 4882 H 450.14 5.57891 4.1681 0
M  V30 4883 H 447.767 6.27997 4.28396 0
M  V30 4884 N 449.342 -1.36122 0.79427 0
M  V30 4885 C 450.588 -1.99406 0.369452 0
M  V30 4886 C 450.921 -1.62886 -1.05743 0
M  V30 4887 O 450.196 -0.886053 -1.73145 0
M  V30 4888 C 450.479 -3.56046 0.538833 0
M  V30 4889 C 450.332 -4.02404 2.00976 0
M  V30 4890 C 451.651 -4.40079 -0.0431359 0
M  V30 4891 H 448.77 -0.724397 0.135712 0
M  V30 4892 H 451.412 -1.61461 1.00151 0
M  V30 4893 H 449.562 -3.885 0.000771004 0
M  V30 4894 H 451.234 -3.80415 2.60926 0
M  V30 4895 H 449.477 -3.53765 2.51063 0
M  V30 4896 H 450.148 -5.11344 2.07922 0
M  V30 4897 H 452.624 -4.14013 0.416228 0
M  V30 4898 H 451.5 -5.48799 0.105374 0
M  V30 4899 H 451.761 -4.27264 -1.13571 0
M  V30 4900 N 450.82 -0.546701 -1.47814 0
M  V30 4901 C 452.066 -0.0269594 -2.03382 0
M  V30 4902 C 452.421 1.30406 -1.41464 0
M  V30 4903 O 451.714 1.8332 -0.557151 0
M  V30 4904 C 451.908 0.134869 -3.57145 0
M  V30 4905 C 451.737 -1.17891 -4.33972 0
M  V30 4906 C 450.507 -1.74336 -4.74273 0
M  V30 4907 C 452.705 -2.09361 -4.69758 0
M  V30 4908 N 450.687 -2.99829 -5.35701 0
M  V30 4909 C 452.058 -3.19431 -5.31379 0
M  V30 4910 C 454.113 -2.09484 -4.51687 0
M  V30 4911 C 452.816 -4.2971 -5.76838 0
M  V30 4912 C 454.842 -3.18767 -4.98138 0
M  V30 4913 C 454.204 -4.27557 -5.59799 0
M  V30 4914 H 450.303 -0.0517733 -0.780284 0
M  V30 4915 H 452.887 -0.731673 -1.80429 0
M  V30 4916 H 451.058 0.80869 -3.79888 0
M  V30 4917 H 452.79 0.655726 -3.99352 0
M  V30 4918 H 449.545 -1.28265 -4.559 0
M  V30 4919 H 449.969 -3.63765 -5.70968 0
M  V30 4920 H 454.611 -1.26663 -4.03381 0
M  V30 4921 H 452.329 -5.13297 -6.24141 0
M  V30 4922 H 455.915 -3.19937 -4.85934 0
M  V30 4923 H 454.795 -5.10725 -5.95088 0
M  V30 4924 N 452.299 1.55045 -0.282633 0
M  V30 4925 C 453.262 2.21515 0.588539 0
M  V30 4926 C 454.262 1.19535 1.07554 0
M  V30 4927 O 455.452 1.44391 0.974514 0
M  V30 4928 C 452.584 2.88704 1.8128 0
M  V30 4929 H 453.777 2.99899 0.00806397 0
M  V30 4930 H 451.33 1.56265 -0.0333067 0
M  V30 4931 H 452.065 2.14352 2.43359 0
M  V30 4932 H 451.85 3.63443 1.47144 0
M  V30 4933 H 453.34 3.39465 2.43214 0
M  V30 4934 N 453.777 0.010035 1.57597 0
M  V30 4935 C 455.017 -0.677084 1.9286 0
M  V30 4936 C 455.381 -1.70377 0.885192 0
M  V30 4937 O 456.582 -2.44199 1.12339 0
M  V30 4938 C 454.853 -1.29452 3.33132 0
M  V30 4939 S 456.412 -2.00537 3.90295 0
M  V30 4940 H 453.23 -0.223409 0.674989 0
M  V30 4941 H 455.832 0.0691289 1.95378 0
M  V30 4942 H 454.536 -0.534593 4.06903 0
M  V30 4943 H 454.067 -2.07845 3.34012 0
M  V30 4944 H 456.082 -3.28168 3.72183 0
M  V30 4945 N 455.255 -1.55392 -0.262866 0
M  V30 4946 C 456.202 -1.88966 -1.32516 0
M  V30 4947 C 457.172 -0.742187 -1.48596 0
M  V30 4948 O 458.357 -0.99439 -1.62839 0
M  V30 4949 C 455.497 -2.17592 -2.67858 0
M  V30 4950 C 454.61 -3.45061 -2.59917 0
M  V30 4951 C 453.745 -3.63336 -3.87505 0
M  V30 4952 C 452.784 -4.84462 -3.74116 0
M  V30 4953 N 451.921 -4.99342 -4.93561 0
M  V30 4954 H 456.761 -2.79566 -1.03184 0
M  V30 4955 H 454.298 -1.38404 -0.498285 0
M  V30 4956 H 456.256 -2.3219 -3.46617 0
M  V30 4957 H 454.886 -1.30215 -2.95371 0
M  V30 4958 H 453.938 -3.38881 -1.72812 0
M  V30 4959 H 455.25 -4.3396 -2.45926 0
M  V30 4960 H 454.404 -3.77807 -4.74707 0
M  V30 4961 H 453.143 -2.72641 -4.04374 0
M  V30 4962 H 452.148 -4.69985 -2.85297 0
M  V30 4963 H 453.373 -5.76603 -3.58757 0
M  V30 4964 H 451.319 -4.1158 -5.10821 0
M  V30 4965 H 451.236 -5.82303 -4.82141 0
M  V30 4966 H 452.504 -5.18208 -5.82306 0
M  V30 4967 N 456.733 0.527833 -1.48498 0
M  V30 4968 C 457.681 1.65313 -1.63628 0
M  V30 4969 C 458.675 1.6177 -0.502676 0
M  V30 4970 O 459.881 1.66601 -0.681469 0
M  V30 4971 H 456.256 0.547518 -0.515488 0
M  V30 4972 H 458.227 1.49696 -2.58135 0
M  V30 4973 C 456.976 3.03576 -1.6952 0
M  V30 4974 H 456.299 3.06997 -2.56111 0
M  V30 4975 H 457.739 3.81923 -1.84149 0
M  V30 4976 C 456.198 3.34089 -0.43432 0
M  V30 4977 O 456.728 3.99151 0.451852 0
M  V30 4978 N 454.934 2.88991 -0.305368 0
M  V30 4979 H 454.481 2.36222 -1.02747 0
M  V30 4980 H 454.439 3.09776 0.537249 0
M  V30 4981 N 458.211 1.37122 0.776871 0
M  V30 4982 C 459.441 1.35034 1.56363 0
M  V30 4983 C 459.849 -0.0674681 1.8908 0
M  V30 4984 O 459.192 -1.03826 1.51545 0
M  V30 4985 C 459.254 2.11894 2.90415 0
M  V30 4986 C 458.918 3.60897 2.80362 0
M  V30 4987 C 459.915 4.54887 2.51742 0
M  V30 4988 C 457.6 4.03951 2.98545 0
M  V30 4989 C 459.594 5.89909 2.41426 0
M  V30 4990 C 457.281 5.3906 2.87849 0
M  V30 4991 C 458.279 6.31852 2.5933 0
M  V30 4992 O 457.967 7.64479 2.48651 0
M  V30 4993 H 457.699 0.464402 0.49123 0
M  V30 4994 H 460.253 1.80992 0.971127 0
M  V30 4995 H 458.483 1.60618 3.51765 0
M  V30 4996 H 460.172 2.02505 3.51776 0
M  V30 4997 H 460.938 4.22934 2.37385 0
M  V30 4998 H 456.817 3.3209 3.19746 0
M  V30 4999 H 460.361 6.62304 2.19086 0
M  V30 5000 H 456.258 5.70617 3.01773 0
M  V30 5001 H 457.026 7.74742 2.64039 0
M  V30 5002 N 459.689 -1.00246 1.21608 0
M  V30 5003 C 460.966 -1.71336 0.943568 0
M  V30 5004 C 461.346 -2.03972 -0.543943 0
M  V30 5005 O 460.694 -1.71545 -1.50946 0
M  V30 5006 C 460.904 -2.97094 1.83128 0
M  V30 5007 C 462.252 -3.70071 2.08165 0
M  V30 5008 O 463.276 -3.07081 1.80498 0
M  V30 5009 O 462.135 -4.83376 2.54971 0
M  V30 5010 H 459.229 -0.747386 0.354039 0
M  V30 5011 H 461.775 -1.05967 1.32549 0
M  V30 5012 H 460.547 -2.69407 2.83788 0
M  V30 5013 H 460.17 -3.70204 1.45034 0
M  V30 5014 N 461.167 -1.02423 -1.1978 0
M  V30 5015 C 462.415 -0.716569 -1.8897 0
M  V30 5016 C 462.736 0.756769 -1.79716 0
M  V30 5017 O 462.006 1.5449 -1.20456 0
M  V30 5018 H 460.586 -0.262062 -0.699523 0
M  V30 5019 H 463.248 -1.29747 -1.45436 0
M  V30 5020 H 462.344 -1.00675 -2.95417 0
M  V30 5021 N 462.645 1.35699 -0.801477 0
M  V30 5022 C 463.922 1.9324 -0.302937 0
M  V30 5023 C 464.302 1.73209 1.20672 0
M  V30 5024 O 463.65 1.09809 2.00385 0
M  V30 5025 C 463.86 3.41728 -0.708747 0
M  V30 5026 C 465.208 4.18868 -0.695328 0
M  V30 5027 O 466.232 3.5022 -0.649971 0
M  V30 5028 O 465.091 5.41342 -0.749081 0
M  V30 5029 H 462.185 0.82331 -0.0780367 0
M  V30 5030 H 464.731 1.44806 -0.884832 0
M  V30 5031 H 463.503 3.50015 -1.74944 0
M  V30 5032 H 463.126 3.97471 -0.101384 0
M  V30 5033 N 464.123 0.554532 1.47522 0
M  V30 5034 C 465.369 0.0295227 2.02779 0
M  V30 5035 C 465.702 -1.31582 1.42828 0
M  V30 5036 O 464.977 -1.85561 0.582872 0
M  V30 5037 C 465.26 -0.0664057 3.60039 0
M  V30 5038 C 465.113 1.30585 4.30427 0
M  V30 5039 C 466.432 -0.781162 4.33112 0
M  V30 5040 H 463.551 0.0122027 0.736899 0
M  V30 5041 H 466.193 0.716305 1.7598 0
M  V30 5042 H 464.343 -0.651307 3.83002 0
M  V30 5043 H 466.015 1.93374 4.18813 0
M  V30 5044 H 464.258 1.88125 3.90886 0
M  V30 5045 H 464.929 1.19147 5.38988 0
M  V30 5046 H 467.405 -0.284565 4.15126 0
M  V30 5047 H 466.281 -0.817237 5.42782 0
M  V30 5048 H 466.542 -1.83672 4.0214 0
M  V30 5049 N 465.601 -1.54893 0.290851 0
M  V30 5050 C 466.533 -2.20564 -0.623236 0
M  V30 5051 C 467.546 -1.19519 -1.1054 0
M  V30 5052 O 468.735 -1.46165 -1.02459 0
M  V30 5053 C 465.835 -2.83033 -1.86401 0
M  V30 5054 C 465.008 -4.09916 -1.52604 0
M  V30 5055 C 464.067 -4.56284 -2.62091 0
M  V30 5056 O 463.093 -5.2171 -2.27612 0
M  V30 5057 N 464.295 -4.27746 -3.92446 0
M  V30 5058 H 467.06 -2.99638 -0.0610915 0
M  V30 5059 H 464.621 -1.61508 0.112615 0
M  V30 5060 H 466.613 -3.1099 -2.58973 0
M  V30 5061 H 465.183 -2.0786 -2.33481 0
M  V30 5062 H 464.403 -3.89078 -0.633424 0
M  V30 5063 H 465.691 -4.92554 -1.27547 0
M  V30 5064 H 465.089 -3.7531 -4.23272 0
M  V30 5065 H 463.646 -4.60437 -4.61347 0
M  V30 5066 N 467.08 -0.0183926 -1.57589 0
M  V30 5067 C 468.305 0.676634 -1.96052 0
M  V30 5068 C 468.73 1.6548 -0.894307 0
M  V30 5069 O 468.088 1.80712 0.145849 0
M  V30 5070 C 468.136 1.36872 -3.33614 0
M  V30 5071 O 467.24 2.48372 -3.29219 0
M  V30 5072 H 466.581 0.1786 -0.63953 0
M  V30 5073 H 469.111 -0.077056 -2.04455 0
M  V30 5074 H 469.121 1.72797 -3.69601 0
M  V30 5075 H 467.796 0.651636 -4.10763 0
M  V30 5076 H 466.373 2.14639 -3.04934 0
M  V30 5077 N 468.558 1.5553 0.254621 0
M  V30 5078 C 469.835 1.6774 1.00611 0
M  V30 5079 C 470.215 0.555993 2.03647 0
M  V30 5080 O 469.563 -0.441583 2.24193 0
M  V30 5081 C 469.773 3.07725 1.6464 0
M  V30 5082 C 471.121 3.66074 2.15116 0
M  V30 5083 O 472.145 3.10476 1.74595 0
M  V30 5084 O 471.004 4.63526 2.89493 0
M  V30 5085 H 468.098 0.681958 0.467828 0
M  V30 5086 H 470.644 1.67863 0.24902 0
M  V30 5087 H 469.416 3.80792 0.900734 0
M  V30 5088 H 469.039 3.1158 2.46989 0
M  V30 5089 N 470.036 -0.519951 1.48776 0
M  V30 5090 C 471.285 -1.27175 1.56555 0
M  V30 5091 C 471.598 -1.9401 0.248869 0
M  V30 5092 O 472.804 -2.70725 0.205004 0
M  V30 5093 C 471.26 -2.30811 2.76142 0
M  V30 5094 C 470.868 -1.7 4.14493 0
M  V30 5095 C 472.612 -3.06937 2.9324 0
M  V30 5096 C 470.519 -2.71635 5.25327 0
M  V30 5097 H 469.449 -0.478329 0.582853 0
M  V30 5098 H 472.1 -0.547916 1.75129 0
M  V30 5099 H 470.482 -3.06274 2.51023 0
M  V30 5100 H 471.656 -1.00658 4.49672 0
M  V30 5101 H 469.971 -1.06331 4.02595 0
M  V30 5102 H 472.568 -3.82905 3.73213 0
M  V30 5103 H 472.911 -3.63409 2.03075 0
M  V30 5104 H 473.444 -2.38589 3.18308 0
M  V30 5105 H 470.183 -2.1997 6.1749 0
M  V30 5106 H 469.703 -3.39275 4.94624 0
M  V30 5107 H 471.382 -3.34429 5.53865 0
M  V30 5108 N 471.514 -1.37532 -0.769588 0
M  V30 5109 C 472.444 -1.36172 -1.89682 0
M  V30 5110 C 473.425 -0.23001 -1.68538 0
M  V30 5111 O 474.61 -0.43069 -1.89364 0
M  V30 5112 C 471.74 -1.1701 -3.26995 0
M  V30 5113 C 470.694 -2.27216 -3.62708 0
M  V30 5114 C 470.02 -1.93174 -4.98586 0
M  V30 5115 C 471.32 -3.6941 -3.69234 0
M  V30 5116 H 473.014 -2.30499 -1.91078 0
M  V30 5117 H 470.56 -1.10953 -0.917902 0
M  V30 5118 H 472.513 -1.14688 -4.05493 0
M  V30 5119 H 471.237 -0.191395 -3.26039 0
M  V30 5120 H 469.896 -2.28697 -2.86519 0
M  V30 5121 H 469.544 -0.938281 -4.94171 0
M  V30 5122 H 469.244 -2.66973 -5.23449 0
M  V30 5123 H 470.768 -1.92443 -5.79481 0
M  V30 5124 H 472.182 -3.70047 -4.37879 0
M  V30 5125 H 470.579 -4.4228 -4.05597 0
M  V30 5126 H 471.649 -4.0288 -2.69844 0
M  V30 5127 N 472.992 0.995999 -1.22138 0
M  V30 5128 C 473.955 2.06711 -0.990109 0
M  V30 5129 C 474.955 1.60744 0.0422978 0
M  V30 5130 O 476.145 1.73095 -0.195895 0
M  V30 5131 C 473.277 3.37288 -0.49491 0
M  V30 5132 H 474.47 2.28661 -1.94047 0
M  V30 5133 H 472.023 1.16711 -1.03963 0
M  V30 5134 H 472.758 3.21022 0.459948 0
M  V30 5135 H 472.543 3.71986 -1.23971 0
M  V30 5136 H 474.033 4.16103 -0.353253 0
M  V30 5137 N 474.47 1.03057 1.19235 0
M  V30 5138 C 475.402 0.570932 2.21975 0
M  V30 5139 C 476.415 -0.354088 1.58903 0
M  V30 5140 O 477.604 -0.150211 1.77867 0
M  V30 5141 C 474.704 -0.187152 3.38383 0
M  V30 5142 C 473.877 0.743231 4.31039 0
M  V30 5143 C 472.936 0.0302493 5.26191 0
M  V30 5144 O 471.962 0.657371 5.65391 0
M  V30 5145 N 473.164 -1.23991 5.67104 0
M  V30 5146 H 475.929 1.45456 2.62036 0
M  V30 5147 H 473.49 0.909807 1.33918 0
M  V30 5148 H 475.482 -0.673715 3.99053 0
M  V30 5149 H 474.052 -0.972205 2.97098 0
M  V30 5150 H 473.272 1.40985 3.68126 0
M  V30 5151 H 474.56 1.3755 4.89854 0
M  V30 5152 H 473.958 -1.77011 5.37293 0
M  V30 5153 H 472.515 -1.67093 6.30018 0
M  V30 5154 N 475.948 -1.35272 0.808662 0
M  V30 5155 C 477.196 -1.98316 0.389233 0
M  V30 5156 C 477.517 -1.64465 -1.04767 0
M  V30 5157 O 476.787 -0.928175 -1.72516 0
M  V30 5158 H 475.367 -0.733585 0.140935 0
M  V30 5159 H 478.029 -1.6515 1.03496 0
M  V30 5160 H 477.125 -3.08123 0.496631 0
M  V30 5161 N 477.426 -0.562348 -1.47226 0
M  V30 5162 C 478.673 -0.0402165 -2.0246 0
M  V30 5163 C 479.001 1.31169 -1.43614 0
M  V30 5164 O 478.256 1.86805 -0.5833 0
M  V30 5165 C 478.555 0.0969817 -3.57268 0
M  V30 5166 C 478.221 -1.1847 -4.35058 0
M  V30 5167 C 476.883 -1.53588 -4.56031 0
M  V30 5168 C 479.235 -2.03378 -4.79882 0
M  V30 5169 C 476.563 -2.73452 -5.19077 0
M  V30 5170 C 478.915 -3.2245 -5.44251 0
M  V30 5171 C 477.579 -3.57876 -5.63455 0
M  V30 5172 H 476.849 -0.0147163 -0.740854 0
M  V30 5173 H 479.496 -0.734895 -1.76838 0
M  V30 5174 H 477.801 0.87466 -3.81912 0
M  V30 5175 H 479.498 0.516408 -3.97661 0
M  V30 5176 H 476.088 -0.90126 -4.19017 0
M  V30 5177 H 480.272 -1.77553 -4.63453 0
M  V30 5178 H 475.528 -3.01062 -5.32139 0
M  V30 5179 H 479.702 -3.88526 -5.77945 0
M  V30 5180 H 477.329 -4.50849 -6.12078 0
M  V30 5181 N 478.904 1.54736 -0.299062 0
M  V30 5182 C 480.152 1.99706 0.31017 0
M  V30 5183 C 480.473 1.18896 1.54559 0
M  V30 5184 O 479.743 0.284445 1.93824 0
M  V30 5185 H 478.323 0.737686 0.117596 0
M  V30 5186 H 480.985 1.9054 -0.409943 0
M  V30 5187 H 480.081 3.06596 0.58355 0
M  V30 5188 N 480.382 0.0267497 1.57577 0
M  V30 5189 C 481.607 -0.666227 1.96408 0
M  V30 5190 C 482.032 -1.65004 0.903071 0
M  V30 5191 O 481.39 -1.80787 -0.136263 0
M  V30 5192 C 481.438 -1.35101 3.34335 0
M  V30 5193 O 480.542 -2.46623 3.30531 0
M  V30 5194 H 479.883 -0.175206 0.640468 0
M  V30 5195 H 482.413 0.0878977 2.04411 0
M  V30 5196 H 482.423 -1.70834 3.70513 0
M  V30 5197 H 481.098 -0.629844 4.11103 0
M  V30 5198 H 479.675 -2.13019 3.06068 0
M  V30 5199 N 481.861 -1.55662 -0.24637 0
M  V30 5200 C 482.791 -1.93377 -1.30873 0
M  V30 5201 C 483.772 -0.798773 -1.50179 0
M  V30 5202 O 484.957 -1.0591 -1.62778 0
M  V30 5203 C 482.087 -2.22893 -2.66338 0
M  V30 5204 C 481.041 -3.38649 -2.61727 0
M  V30 5205 C 480.367 -3.53708 -4.00992 0
M  V30 5206 C 481.667 -4.74323 -2.18666 0
M  V30 5207 H 483.361 -2.82363 -0.995552 0
M  V30 5208 H 480.907 -1.35854 -0.477464 0
M  V30 5209 H 482.86 -2.47866 -3.40794 0
M  V30 5210 H 481.584 -1.30733 -2.99293 0
M  V30 5211 H 480.243 -3.13685 -1.89729 0
M  V30 5212 H 479.891 -2.58967 -4.31214 0
M  V30 5213 H 479.591 -4.31551 -3.98795 0
M  V30 5214 H 481.115 -3.81003 -4.77147 0
M  V30 5215 H 482.529 -4.98665 -2.82854 0
M  V30 5216 H 480.926 -5.55273 -2.27579 0
M  V30 5217 H 481.996 -4.71349 -1.13834 0
M  V30 5218 N 483.339 0.512053 -1.4905 0
M  V30 5219 C 484.587 1.26436 -1.57665 0
M  V30 5220 C 484.908 1.93255 -0.260293 0
M  V30 5221 O 484.178 1.82206 0.719564 0
M  V30 5222 H 482.758 0.469658 -0.580888 0
M  V30 5223 H 485.42 0.594398 -1.85615 0
M  V30 5224 H 484.516 2.03417 -2.36702 0
M  V30 5225 N 484.817 1.37938 0.762283 0
M  V30 5226 C 485.747 1.37176 1.88958 0
M  V30 5227 C 486.728 0.238945 1.68413 0
M  V30 5228 O 487.913 0.440726 1.89133 0
M  V30 5229 C 485.043 1.18742 3.2637 0
M  V30 5230 C 483.997 2.29136 3.61498 0
M  V30 5231 C 483.323 1.95816 4.97554 0
M  V30 5232 C 484.623 3.71363 3.6727 0
M  V30 5233 H 486.317 2.31509 1.89853 0
M  V30 5234 H 483.863 1.11438 0.912005 0
M  V30 5235 H 485.816 1.16837 4.04879 0
M  V30 5236 H 484.54 0.208683 3.25933 0
M  V30 5237 H 483.199 2.30213 2.85303 0
M  V30 5238 H 482.847 0.964475 4.93667 0
M  V30 5239 H 482.547 2.69745 5.22026 0
M  V30 5240 H 484.071 1.95513 5.78452 0
M  V30 5241 H 485.485 3.72364 4.35911 0
M  V30 5242 H 483.882 4.44425 4.03245 0
M  V30 5243 H 484.952 4.04305 2.67704 0
M  V30 5244 N 486.295 -0.989507 1.22664 0
M  V30 5245 C 487.228 -2.07805 0.942985 0
M  V30 5246 C 488.206 -1.6219 -0.115356 0
M  V30 5247 O 489.39 -1.88492 0.0169565 0
M  V30 5248 C 486.517 -3.361 0.418898 0
M  V30 5249 C 485.563 -4.00643 1.46244 0
M  V30 5250 S 486.396 -4.41059 3.03689 0
M  V30 5251 C 487.552 -5.7252 2.52927 0
M  V30 5252 H 487.785 -2.31547 1.86476 0
M  V30 5253 H 485.318 -1.12446 1.05808 0
M  V30 5254 H 487.276 -4.10315 0.123114 0
M  V30 5255 H 485.937 -3.10383 -0.481818 0
M  V30 5256 H 485.13 -4.93033 1.04569 0
M  V30 5257 H 484.732 -3.32767 1.7071 0
M  V30 5258 H 487.024 -6.49017 1.94379 0
M  V30 5259 H 487.967 -6.19026 3.4382 0
M  V30 5260 H 488.375 -5.30083 1.94094 0
M  V30 5261 N 487.773 -1.03688 -1.18687 0
M  V30 5262 C 489.001 -0.757918 -1.92518 0
M  V30 5263 C 489.416 0.684398 -1.75959 0
M  V30 5264 O 488.773 1.46617 -1.08673 0
M  V30 5265 C 488.824 -1.10985 -3.44042 0
M  V30 5266 O 488.545 -2.49554 -3.60076 0
M  V30 5267 C 490.046 -0.854844 -4.3498 0
M  V30 5268 H 487.266 -0.276699 -0.611293 0
M  V30 5269 H 489.81 -1.38352 -1.50595 0
M  V30 5270 H 487.965 -0.529279 -3.83767 0
M  V30 5271 H 488.379 -2.6291 -4.53849 0
M  V30 5272 H 489.853 -1.15098 -5.39867 0
M  V30 5273 H 490.33 0.210507 -4.38695 0
M  V30 5274 H 490.936 -1.41853 -4.00946 0
M  V30 5275 N 489.251 1.34841 -0.815825 0
M  V30 5276 C 490.476 2.03261 -0.41226 0
M  V30 5277 C 490.901 1.61055 0.971751 0
M  V30 5278 O 490.259 0.7917 1.63101 0
M  V30 5279 C 490.307 3.56914 -0.514289 0
M  V30 5280 O 489.411 4.09728 0.468675 0
M  V30 5281 H 488.752 0.641664 -0.170771 0
M  V30 5282 H 491.282 1.72241 -1.10427 0
M  V30 5283 H 491.292 4.06156 -0.387457 0
M  V30 5284 H 489.967 3.86982 -1.52375 0
M  V30 5285 H 488.544 3.71681 0.301316 0
M  V30 5286 N 490.729 0.570148 1.46925 0
M  V30 5287 C 491.975 0.0510284 2.02736 0
M  V30 5288 C 492.308 -1.3006 1.44215 0
M  V30 5289 O 491.583 -1.84932 0.602521 0
M  V30 5290 C 491.866 -0.028215 3.60089 0
M  V30 5291 C 491.719 1.35142 4.29018 0
M  V30 5292 C 493.038 -0.735181 4.33916 0
M  V30 5293 H 490.157 0.0200178 0.736728 0
M  V30 5294 H 492.799 0.73493 1.75211 0
M  V30 5295 H 490.949 -0.610648 3.83671 0
M  V30 5296 H 492.621 1.97806 4.16738 0
M  V30 5297 H 490.864 1.9226 3.88868 0
M  V30 5298 H 491.535 1.24857 5.37694 0
M  V30 5299 H 494.011 -0.240519 4.15404 0
M  V30 5300 H 492.887 -0.759622 5.43618 0
M  V30 5301 H 493.148 -1.79397 4.04066 0
M  V30 5302 N 492.207 -1.54576 0.307264 0
M  V30 5303 C 493.137 -2.26708 -0.55907 0
M  V30 5304 C 494.118 -1.26893 -1.1328 0
M  V30 5305 O 495.303 -1.55677 -1.16097 0
M  V30 5306 C 492.433 -3.01259 -1.72801 0
M  V30 5307 C 491.387 -4.08275 -1.28435 0
M  V30 5308 C 490.713 -4.70575 -2.53895 0
M  V30 5309 C 492.013 -5.2068 -0.411038 0
M  V30 5310 H 493.707 -2.9937 0.042576 0
M  V30 5311 H 491.253 -1.43983 0.0219173 0
M  V30 5312 H 493.206 -3.50444 -2.34023 0
M  V30 5313 H 491.93 -2.26187 -2.356 0
M  V30 5314 H 490.589 -3.59949 -0.695161 0
M  V30 5315 H 490.237 -3.92136 -3.15021 0
M  V30 5316 H 489.937 -5.42854 -2.24908 0
M  V30 5317 H 491.461 -5.22527 -3.15908 0
M  V30 5318 H 492.875 -5.65721 -0.929097 0
M  V30 5319 H 491.272 -5.99716 -0.214664 0
M  V30 5320 H 492.342 -4.81629 0.562287 0
M  V30 5321 N 493.685 -0.035106 -1.57561 0
M  V30 5322 C 494.931 0.64318 -1.92331 0
M  V30 5323 C 495.264 1.71434 -0.912368 0
M  V30 5324 O 494.539 1.94395 0.0640303 0
M  V30 5325 C 494.822 1.25411 -3.37556 0
M  V30 5326 C 494.675 0.192109 -4.4939 0
M  V30 5327 C 495.994 2.17041 -3.82859 0
M  V30 5328 H 493.113 0.232341 -0.699419 0
M  V30 5329 H 495.755 -0.0935889 -1.89769 0
M  V30 5330 H 493.905 1.88205 -3.39869 0
M  V30 5331 H 495.577 -0.438849 -4.59208 0
M  V30 5332 H 493.82 -0.481725 -4.31117 0
M  V30 5333 H 494.491 0.659292 -5.48049 0
M  V30 5334 H 496.967 1.64228 -3.8232 0
M  V30 5335 H 495.843 2.56738 -4.85157 0
M  V30 5336 H 496.104 3.06401 -3.18702 0
M  V30 5337 N 495.163 1.55791 0.238111 0
M  V30 5338 C 496.403 1.79801 0.972163 0
M  V30 5339 C 496.767 0.606027 1.82185 0
M  V30 5340 O 497.968 0.725079 2.58836 0
M  V30 5341 C 496.239 3.08608 1.80266 0
M  V30 5342 S 497.798 3.53872 2.59461 0
M  V30 5343 H 494.616 0.631418 0.326852 0
M  V30 5344 H 497.218 1.94031 0.239212 0
M  V30 5345 H 495.922 3.93419 1.1683 0
M  V30 5346 H 495.453 2.9714 2.57821 0
M  V30 5347 H 497.468 3.15899 3.82651 0
M  V30 5348 N 496.642 -0.504142 1.49319 0
M  V30 5349 C 498.053 -1.08572 1.51885 0
M  V30 5350 C 498.404 -1.93842 0.303255 0
M  V30 5351 O 497.529 -2.0828 -0.58724 0
M  V30 5352 C 498.124 -1.97574 2.75227 0
M  V30 5353 C 496.683 -2.509 2.80581 0
M  V30 5354 C 495.83 -1.28447 2.45757 0
M  V30 5355 H 498.781 -0.288194 1.56061 0
M  V30 5356 H 498.802 -2.82219 2.55211 0
M  V30 5357 H 498.314 -1.35486 3.63683 0
M  V30 5358 H 496.415 -3.16636 1.96398 0
M  V30 5359 H 496.528 -2.88268 3.82673 0
M  V30 5360 H 494.892 -1.60868 1.97468 0
M  V30 5361 H 495.675 -0.68072 3.36483 0
M  V30 5362 N 498.12 -1.38341 -0.754957 0
M  V30 5363 C 499.397 -1.24995 -1.50451 0
M  V30 5364 C 499.777 0.149244 -2.10572 0
M  V30 5365 O 499.125 1.15861 -1.96948 0
M  V30 5366 C 499.335 -2.35904 -2.57197 0
M  V30 5367 C 500.683 -2.74262 -3.24138 0
M  V30 5368 O 501.707 -2.35205 -2.67501 0
M  V30 5369 O 500.566 -3.4161 -4.26574 0
M  V30 5370 H 497.66 -0.48872 -0.667144 0
M  V30 5371 H 500.206 -1.50165 -0.790486 0
M  V30 5372 H 498.978 -3.2953 -2.11011 0
M  V30 5373 H 498.601 -2.12291 -3.36182 0
M  V30 5374 N 499.598 0.982988 -1.23187 0
M  V30 5375 C 500.846 1.72052 -1.06031 0
M  V30 5376 C 501.167 1.90769 0.404019 0
M  V30 5377 O 500.437 1.47446 1.28982 0
M  V30 5378 H 499.017 0.637499 -0.389363 0
M  V30 5379 H 501.679 1.18338 -1.54862 0
M  V30 5380 H 500.775 2.7111 -1.54615 0
M  V30 5381 N 501.076 1.04316 1.18135 0
M  V30 5382 C 502.023 0.636398 2.21853 0
M  V30 5383 C 502.993 -0.357039 1.62217 0
M  V30 5384 O 504.178 -0.250453 1.89149 0
M  V30 5385 C 501.318 0.00812779 3.45099 0
M  V30 5386 C 500.431 1.04933 4.19062 0
M  V30 5387 C 499.566 0.389313 5.29771 0
M  V30 5388 C 498.605 1.41544 5.9551 0
M  V30 5389 N 497.742 0.78021 6.97751 0
M  V30 5390 H 502.582 1.52536 2.56002 0
M  V30 5391 H 500.119 0.76304 1.25762 0
M  V30 5392 H 502.077 -0.373497 4.15525 0
M  V30 5393 H 500.707 -0.844336 3.11562 0
M  V30 5394 H 499.759 1.54888 3.47439 0
M  V30 5395 H 501.071 1.82862 4.64072 0
M  V30 5396 H 500.225 -0.0463805 6.06682 0
M  V30 5397 H 498.964 -0.422038 4.8587 0
M  V30 5398 H 497.969 1.86124 5.17337 0
M  V30 5399 H 499.194 2.22854 6.41493 0
M  V30 5400 H 497.14 -0.0107899 6.55999 0
M  V30 5401 H 497.057 1.49716 7.41027 0
M  V30 5402 H 498.325 0.368996 7.78626 0
M  V30 5403 N 502.554 -1.34406 0.822964 0
M  V30 5404 C 503.782 -2.02508 0.424039 0
M  V30 5405 C 504.197 -1.61975 -0.970022 0
M  V30 5406 O 503.554 -0.825228 -1.62777 0
M  V30 5407 C 503.605 -3.57789 0.516657 0
M  V30 5408 O 503.326 -3.96853 1.85577 0
M  V30 5409 C 504.827 -4.43157 0.112637 0
M  V30 5410 H 502.047 -0.649063 0.170173 0
M  V30 5411 H 504.591 -1.7168 1.11113 0
M  V30 5412 H 502.746 -3.87207 -0.122353 0
M  V30 5413 H 503.16 -4.91538 1.83005 0
M  V30 5414 H 504.634 -5.51527 0.228526 0
M  V30 5415 H 505.111 -4.28939 -0.943837 0
M  V30 5416 H 505.717 -4.19067 0.725449 0
M  V30 5417 N 504.032 -0.577932 -1.46621 0
M  V30 5418 C 505.281 -0.0594281 -2.01612 0
M  V30 5419 C 505.594 1.30663 -1.45556 0
M  V30 5420 O 506.8 1.91621 -1.92337 0
M  V30 5421 C 505.256 -0.0556666 -3.59857 0
M  V30 5422 C 504.864 -1.41975 -4.24908 0
M  V30 5423 C 506.608 0.409143 -4.22524 0
M  V30 5424 C 504.515 -1.37397 -5.75218 0
M  V30 5425 H 503.445 -0.0184469 -0.753774 0
M  V30 5426 H 506.096 -0.728869 -1.68404 0
M  V30 5427 H 504.478 0.679843 -3.90121 0
M  V30 5428 H 505.652 -2.17461 -4.0626 0
M  V30 5429 H 503.967 -1.82419 -3.74316 0
M  V30 5430 H 506.564 0.46211 -5.32699 0
M  V30 5431 H 506.907 1.42565 -3.91128 0
M  V30 5432 H 507.44 -0.272152 -3.96868 0
M  V30 5433 H 504.179 -2.36714 -6.11267 0
M  V30 5434 H 503.699 -0.661239 -5.96144 0
M  V30 5435 H 505.378 -1.08484 -6.3784 0
M  V30 5436 N 505.51 1.54411 -0.315457 0
M  V30 5437 C 506.42 2.27737 0.56329 0
M  V30 5438 C 507.436 1.31787 1.13614 0
M  V30 5439 O 508.612 1.64791 1.15784 0
M  V30 5440 C 505.677 3.01478 1.71207 0
M  V30 5441 C 504.738 4.12997 1.17185 0
M  V30 5442 C 503.971 4.83212 2.26588 0
M  V30 5443 O 504.194 4.52884 3.46775 0
M  V30 5444 O 503.128 5.70299 1.92463 0
M  V30 5445 H 506.954 3.03683 -0.0319614 0
M  V30 5446 H 504.539 1.49178 -0.0814188 0
M  V30 5447 H 506.421 3.47683 2.38106 0
M  V30 5448 H 505.096 2.28414 2.29366 0
M  V30 5449 H 504.003 3.71159 0.468174 0
M  V30 5450 H 505.336 4.8808 0.635501 0
M  V30 5451 N 506.988 0.0434614 1.5754 0
M  V30 5452 C 507.951 -0.918696 2.09982 0
M  V30 5453 C 508.951 -1.24488 1.01781 0
M  V30 5454 O 510.141 -1.18284 1.27885 0
M  V30 5455 C 507.273 -2.23093 2.57764 0
M  V30 5456 H 508.466 -0.464229 2.96285 0
M  V30 5457 H 506.019 -0.204818 1.54952 0
M  V30 5458 H 506.754 -2.73137 1.74832 0
M  V30 5459 H 506.539 -2.00724 3.36827 0
M  V30 5460 H 508.029 -2.92028 2.98512 0
M  V30 5461 N 508.466 -1.55915 -0.229846 0
M  V30 5462 C 509.376 -1.94891 -1.30593 0
M  V30 5463 C 510.392 -0.851604 -1.51736 0
M  V30 5464 O 511.568 -1.15447 -1.65027 0
M  V30 5465 C 508.633 -2.25052 -2.63728 0
M  V30 5466 C 507.694 -3.48306 -2.5096 0
M  V30 5467 C 506.927 -3.77019 -3.77747 0
M  V30 5468 O 507.15 -3.07534 -4.80395 0
M  V30 5469 O 506.084 -4.70523 -3.75356 0
M  V30 5470 H 509.91 -2.86581 -1.00525 0
M  V30 5471 H 507.495 -1.43017 -0.432025 0
M  V30 5472 H 509.377 -2.45682 -3.42372 0
M  V30 5473 H 508.052 -1.36538 -2.93495 0
M  V30 5474 H 506.959 -3.32964 -1.70546 0
M  V30 5475 H 508.292 -4.37177 -2.26136 0
M  V30 5476 N 509.944 0.496216 -1.49584 0
M  V30 5477 C 510.907 1.57952 -1.66084 0
M  V30 5478 C 511.907 1.51729 -0.53244 0
M  V30 5479 O 513.097 1.54796 -0.79899 0
M  V30 5480 C 510.229 2.97604 -1.66268 0
M  V30 5481 H 511.422 1.44649 -2.6271 0
M  V30 5482 H 508.975 0.7208 -1.38687 0
M  V30 5483 H 509.71 3.16378 -0.712432 0
M  V30 5484 H 509.495 3.03528 -2.4822 0
M  V30 5485 H 510.985 3.76301 -1.81073 0
M  V30 5486 N 511.423 1.38739 0.74761 0
M  V30 5487 C 512.386 1.36241 1.84312 0
M  V30 5488 C 513.386 0.261811 1.58654 0
M  V30 5489 O 514.576 0.519031 1.66288 0
M  V30 5490 C 511.708 1.12253 3.21888 0
M  V30 5491 H 512.901 2.33712 1.87933 0
M  V30 5492 H 510.454 1.2412 0.949946 0
M  V30 5493 H 511.189 0.154133 3.23934 0
M  V30 5494 H 510.974 1.91943 3.41907 0
M  V30 5495 H 512.464 1.13215 4.0196 0
M  V30 5496 N 512.901 -0.976442 1.23707 0
M  V30 5497 C 513.851 -2.0544 0.988851 0
M  V30 5498 C 514.835 -1.60762 -0.0665901 0
M  V30 5499 O 516.027 -1.76396 0.14604 0
M  V30 5500 C 513.156 -3.38258 0.586223 0
M  V30 5501 C 512.242 -3.89523 1.67728 0
M  V30 5502 N 512.633 -4.13823 2.90834 0
M  V30 5503 C 510.931 -4.18097 1.55277 0
M  V30 5504 C 511.632 -4.55731 3.61502 0
M  V30 5505 N 510.608 -4.60394 2.8903 0
M  V30 5506 H 514.41 -2.22191 1.92376 0
M  V30 5507 H 511.924 -1.15954 1.13704 0
M  V30 5508 H 513.921 -4.15075 0.389658 0
M  V30 5509 H 512.581 -3.22898 -0.341594 0
M  V30 5510 H 513.592 -4.01529 3.271 0
M  V30 5511 H 510.269 -4.11719 0.692351 0
M  V30 5512 H 511.659 -4.83018 4.67059 0
M  V30 5513 N 514.379 -1.04941 -1.1758 0
M  V30 5514 C 515.627 -0.756492 -1.87408 0
M  V30 5515 C 515.948 0.718478 -1.81281 0
M  V30 5516 O 515.218 1.519 -1.23706 0
M  V30 5517 H 513.798 -0.276841 -0.693807 0
M  V30 5518 H 516.46 -1.32803 -1.42652 0
M  V30 5519 H 515.556 -1.06918 -2.93215 0
M  V30 5520 N 515.857 1.33968 -0.830081 0
M  V30 5521 C 517.085 2.0228 -0.434773 0
M  V30 5522 C 517.5 1.62487 0.961419 0
M  V30 5523 O 516.857 0.833849 1.62337 0
M  V30 5524 C 516.908 3.5751 -0.535625 0
M  V30 5525 O 516.629 3.95864 -1.87679 0
M  V30 5526 C 518.13 4.43091 -0.136137 0
M  V30 5527 H 515.35 0.648151 -0.173613 0
M  V30 5528 H 517.894 1.71089 -1.12022 0
M  V30 5529 H 516.049 3.87266 0.101817 0
M  V30 5530 H 516.463 4.9056 -1.85609 0
M  V30 5531 H 517.937 5.51398 -0.257772 0
M  V30 5532 H 518.414 4.29433 0.921076 0
M  V30 5533 H 519.02 4.18677 -0.747662 0
M  V30 5534 N 517.335 0.585699 1.46312 0
M  V30 5535 C 518.581 0.0725284 2.0267 0
M  V30 5536 C 518.914 -1.28523 1.45586 0
M  V30 5537 O 518.189 -1.84283 0.622101 0
M  V30 5538 C 518.472 0.0099788 3.60099 0
M  V30 5539 C 518.325 1.39685 4.27561 0
M  V30 5540 C 519.644 -0.689117 4.34671 0
M  V30 5541 H 516.763 0.0278307 0.736474 0
M  V30 5542 H 519.405 0.753472 1.74421 0
M  V30 5543 H 517.555 -0.56992 3.84297 0
M  V30 5544 H 519.227 2.02215 4.14617 0
M  V30 5545 H 517.47 1.96374 3.86807 0
M  V30 5546 H 518.141 1.30553 5.36339 0
M  V30 5547 H 520.617 -0.196446 4.15636 0
M  V30 5548 H 519.493 -0.701921 5.44393 0
M  V30 5549 H 519.754 -1.75101 4.05946 0
M  V30 5550 N 518.813 -1.54241 0.323641 0
M  V30 5551 C 520.041 -2.04985 -0.280871 0
M  V30 5552 C 520.456 -1.19978 -1.45777 0
M  V30 5553 O 519.813 -0.230471 -1.81039 0
M  V30 5554 C 519.864 -3.54353 -0.715258 0
M  V30 5555 O 519.585 -4.36132 0.414817 0
M  V30 5556 C 521.086 -4.21189 -1.38257 0
M  V30 5557 H 518.306 -0.66851 -0.0577502 0
M  V30 5558 H 520.85 -1.99029 0.469852 0
M  V30 5559 H 519.005 -3.60596 -1.41596 0
M  V30 5560 H 519.419 -5.2445 0.0725227 0
M  V30 5561 H 520.893 -5.27154 -1.63745 0
M  V30 5562 H 521.37 -3.72307 -2.32989 0
M  V30 5563 H 521.976 -4.19085 -0.724447 0
M  V30 5564 N 520.291 -0.0518155 -1.57515 0
M  V30 5565 C 521.707 0.304735 -1.56664 0
M  V30 5566 C 521.907 1.71395 -1.05953 0
M  V30 5567 O 520.963 2.42123 -0.716414 0
M  V30 5568 C 522.276 0.132614 -3.00407 0
M  V30 5569 C 523.824 0.20367 -3.12337 0
M  V30 5570 C 524.299 0.0600706 -4.57961 0
M  V30 5571 N 525.79 0.116326 -4.63054 0
M  V30 5572 C 526.525 0.0293363 -5.73392 0
M  V30 5573 N 526.021 -0.110038 -6.92713 0
M  V30 5574 N 527.814 0.0849651 -5.62036 0
M  V30 5575 H 519.965 -0.973056 -1.888 0
M  V30 5576 H 522.228 -0.377781 -0.869474 0
M  V30 5577 H 521.934 -0.839019 -3.41546 0
M  V30 5578 H 521.808 0.893376 -3.66468 0
M  V30 5579 H 524.195 1.16578 -2.71097 0
M  V30 5580 H 524.276 -0.587857 -2.48954 0
M  V30 5581 H 523.92 -0.898715 -4.99886 0
M  V30 5582 H 523.85 0.87075 -5.19351 0
M  V30 5583 H 526.341 0.22327 -3.7724 0
M  V30 5584 H 526.654 -0.169104 -7.72615 0
M  V30 5585 H 524.999 -0.145132 -6.94848 0
M  V30 5586 H 528.19 0.192411 -4.67704 0
M  V30 5587 H 528.363 0.0137131 -6.47999 0
M  V30 5588 N 521.769 1.56035 0.221574 0
M  V30 5589 C 522.719 1.8881 1.27807 0
M  V30 5590 C 523.703 0.751177 1.42289 0
M  V30 5591 O 524.895 1.01359 1.45104 0
M  V30 5592 C 522.024 2.20828 2.6285 0
M  V30 5593 C 521.11 3.40912 2.52269 0
M  V30 5594 N 521.501 4.59531 2.1134 0
M  V30 5595 C 519.799 3.44526 2.83228 0
M  V30 5596 C 520.5 5.41689 2.1201 0
M  V30 5597 N 519.476 4.814 2.52497 0
M  V30 5598 H 523.278 2.78036 0.952529 0
M  V30 5599 H 520.792 1.566 0.430134 0
M  V30 5600 H 522.789 2.42483 3.39127 0
M  V30 5601 H 521.449 1.32914 2.9625 0
M  V30 5602 H 522.46 4.8469 1.82472 0
M  V30 5603 H 519.137 2.66956 3.21 0
M  V30 5604 H 520.527 6.46643 1.82491 0
M  V30 5605 N 523.247 -0.488276 1.49845 0
M  V30 5606 C 524.477 -1.26344 1.63465 0
M  V30 5607 C 524.885 -1.86637 0.310379 0
M  V30 5608 O 524.228 -1.69184 -0.715712 0
M  V30 5609 C 524.29 -2.42407 2.65479 0
M  V30 5610 C 523.954 -2.02886 4.09495 0
M  V30 5611 C 524.951 -1.56124 4.95904 0
M  V30 5612 C 522.636 -2.12131 4.55308 0
M  V30 5613 C 524.63 -1.19129 6.26169 0
M  V30 5614 C 522.317 -1.74747 5.85582 0
M  V30 5615 C 523.315 -1.28322 6.70837 0
M  V30 5616 O 523.003 -0.914491 7.98682 0
M  V30 5617 H 522.735 -0.388921 0.552916 0
M  V30 5618 H 525.289 -0.591288 1.96705 0
M  V30 5619 H 523.519 -3.12739 2.27445 0
M  V30 5620 H 525.208 -3.04409 2.68495 0
M  V30 5621 H 525.974 -1.48417 4.61733 0
M  V30 5622 H 521.853 -2.47217 3.89107 0
M  V30 5623 H 525.397 -0.828211 6.92666 0
M  V30 5624 H 521.294 -1.82109 6.19279 0
M  V30 5625 H 522.062 -1.04485 8.11804 0
M  V30 5626 N 524.725 -1.39134 -0.740242 0
M  V30 5627 C 526.141 -1.20623 -1.0451 0
M  V30 5628 C 526.341 -0.0641651 -2.01398 0
M  V30 5629 O 525.397 0.585843 -2.4561 0
M  V30 5630 C 526.71 -2.53815 -1.6124 0
M  V30 5631 C 528.258 -2.60615 -1.73346 0
M  V30 5632 C 528.733 -3.94015 -2.33486 0
M  V30 5633 N 530.224 -3.95627 -2.40902 0
M  V30 5634 C 530.959 -4.95616 -2.88361 0
M  V30 5635 N 530.455 -6.06003 -3.35756 0
M  V30 5636 N 532.248 -4.82998 -2.87523 0
M  V30 5637 H 524.399 -2.12176 -0.0975576 0
M  V30 5638 H 526.662 -0.942066 -0.105904 0
M  V30 5639 H 526.368 -3.37911 -0.975144 0
M  V30 5640 H 526.242 -2.73162 -2.6012 0
M  V30 5641 H 528.629 -1.76906 -2.36195 0
M  V30 5642 H 528.71 -2.45123 -0.731336 0
M  V30 5643 H 528.354 -4.78153 -1.71267 0
M  V30 5644 H 528.284 -4.06825 -3.34366 0
M  V30 5645 H 530.775 -3.15903 -2.07398 0
M  V30 5646 H 531.088 -6.78215 -3.70464 0
M  V30 5647 H 529.433 -6.09604 -3.33778 0
M  V30 5648 H 532.624 -3.95866 -2.49816 0
M  V30 5649 H 532.797 -5.61072 -3.24196 0
M  V30 5650 N 526.204 0.969867 -1.24223 0
M  V30 5651 C 527.114 2.09806 -1.0497 0
M  V30 5652 C 528.13 1.73998 0.00886455 0
M  V30 5653 O 529.306 2.00513 -0.188848 0
M  V30 5654 C 526.371 3.40467 -0.654452 0
M  V30 5655 C 525.432 3.90236 -1.78926 0
M  V30 5656 C 524.665 5.14662 -1.41277 0
M  V30 5657 O 524.888 5.69602 -0.301632 0
M  V30 5658 O 523.822 5.58761 -2.23763 0
M  V30 5659 H 527.648 2.28942 -1.99548 0
M  V30 5660 H 525.233 1.08197 -1.03023 0
M  V30 5661 H 527.115 4.19039 -0.445452 0
M  V30 5662 H 525.79 3.22636 0.262216 0
M  V30 5663 H 524.697 3.12735 -2.05299 0
M  V30 5664 H 526.03 4.1254 -2.68462 0
M  V30 5665 N 527.682 1.05563 1.17022 0
M  V30 5666 C 528.632 0.630007 2.19123 0
M  V30 5667 C 529.616 -0.335472 1.57364 0
M  V30 5668 O 530.808 -0.1521 1.76345 0
M  V30 5669 C 527.937 0.0101676 3.43298 0
M  V30 5670 C 527.023 0.999698 4.12149 0
M  V30 5671 N 527.414 2.17251 4.56766 0
M  V30 5672 C 525.712 0.829 4.38228 0
M  V30 5673 C 526.413 2.79883 5.09942 0
M  V30 5674 N 525.389 2.07656 5.02374 0
M  V30 5675 H 529.191 1.52353 2.51328 0
M  V30 5676 H 526.705 0.926288 1.33393 0
M  V30 5677 H 528.702 -0.312541 4.15727 0
M  V30 5678 H 527.362 -0.878707 3.12584 0
M  V30 5679 H 528.373 2.55067 4.50734 0
M  V30 5680 H 525.05 -0.00850974 4.17499 0
M  V30 5681 H 526.44 3.79362 5.54558 0
M  V30 5682 N 529.16 -1.33526 0.837174 0
M  V30 5683 C 530.092 -2.28077 0.226579 0
M  V30 5684 C 531.105 -1.51666 -0.591717 0
M  V30 5685 O 532.294 -1.73511 -0.419064 0
M  V30 5686 C 529.394 -3.31597 -0.69978 0
M  V30 5687 C 528.567 -4.37329 0.0788067 0
M  V30 5688 C 527.626 -5.20526 -0.770637 0
M  V30 5689 O 526.652 -5.68811 -0.210453 0
M  V30 5690 N 527.854 -5.41639 -2.08825 0
M  V30 5691 H 530.619 -2.81115 1.03897 0
M  V30 5692 H 528.18 -1.46201 0.695476 0
M  V30 5693 H 530.172 -3.84158 -1.27298 0
M  V30 5694 H 528.742 -2.78848 -1.41288 0
M  V30 5695 H 527.962 -3.8529 0.833381 0
M  V30 5696 H 529.25 -5.05079 0.614238 0
M  V30 5697 H 528.648 -5.04108 -2.56693 0
M  V30 5698 H 527.205 -5.97263 -2.60998 0
M  V30 5699 N 530.638 -0.59345 -1.46 0
M  V30 5700 C 531.585 0.133618 -2.30413 0
M  V30 5701 C 532.555 0.873736 -1.41262 0
M  V30 5702 O 533.74 0.862279 -1.70204 0
M  V30 5703 C 530.88 1.13434 -3.25924 0
M  V30 5704 C 529.993 0.39656 -4.30176 0
M  V30 5705 C 529.128 1.38575 -5.12806 0
M  V30 5706 C 528.167 0.634984 -6.08797 0
M  V30 5707 N 527.304 1.57276 -6.84258 0
M  V30 5708 H 532.144 -0.592252 -2.92055 0
M  V30 5709 H 529.681 -0.303874 -1.43927 0
M  V30 5710 H 531.639 1.72752 -3.79753 0
M  V30 5711 H 530.269 1.82779 -2.66067 0
M  V30 5712 H 529.321 -0.311861 -3.79119 0
M  V30 5713 H 530.633 -0.189869 -4.98438 0
M  V30 5714 H 529.787 2.05141 -5.70966 0
M  V30 5715 H 528.526 2.00611 -4.44529 0
M  V30 5716 H 527.531 -0.0443925 -5.49782 0
M  V30 5717 H 528.756 0.0198678 -6.79097 0
M  V30 5718 H 526.702 2.18103 -6.18682 0
M  V30 5719 H 526.619 1.03941 -7.48821 0
M  V30 5720 H 527.887 2.22844 -7.46968 0
M  V30 5721 N 532.116 1.54067 -0.331816 0
M  V30 5722 C 533.364 2.00319 0.267739 0
M  V30 5723 C 533.685 1.22148 1.52003 0
M  V30 5724 O 532.955 0.325494 1.93177 0
M  V30 5725 H 531.535 0.740014 0.101922 0
M  V30 5726 H 534.197 1.89628 -0.450267 0
M  V30 5727 H 533.293 3.07765 0.518385 0
M  V30 5728 N 533.594 0.0601682 1.57485 0
M  V30 5729 C 535.01 -0.296422 1.56823 0
M  V30 5730 C 535.21 -1.70831 1.0686 0
M  V30 5731 O 534.266 -2.4174 0.729245 0
M  V30 5732 C 535.579 -0.116681 3.00474 0
M  V30 5733 C 537.127 -0.187103 3.1244 0
M  V30 5734 C 537.602 -0.035783 4.57986 0
M  V30 5735 N 539.093 -0.0917676 4.63109 0
M  V30 5736 C 539.828 0.00107251 5.734 0
M  V30 5737 N 539.324 0.146773 6.92645 0
M  V30 5738 N 541.117 -0.0551577 5.62073 0
M  V30 5739 H 533.268 0.983055 1.88281 0
M  V30 5740 H 535.531 0.382386 0.867459 0
M  V30 5741 H 535.237 0.85712 3.41096 0
M  V30 5742 H 535.111 -0.873929 3.66936 0
M  V30 5743 H 537.498 -1.15138 2.71712 0
M  V30 5744 H 537.579 0.601052 2.48638 0
M  V30 5745 H 537.223 0.925212 4.99402 0
M  V30 5746 H 537.153 -0.843196 5.19806 0
M  V30 5747 H 539.644 -0.203261 3.77353 0
M  V30 5748 H 539.957 0.210076 7.72514 0
M  V30 5749 H 538.302 0.181979 6.94762 0
M  V30 5750 H 541.493 -0.167605 4.678 0
M  V30 5751 H 541.666 0.020652 6.47997 0
M  V30 5752 N 535.072 -1.5615 -0.213296 0
M  V30 5753 C 536.483 -1.69645 -0.779582 0
M  V30 5754 C 536.834 -0.663615 -1.84636 0
M  V30 5755 O 535.959 0.183633 -2.15619 0
M  V30 5756 C 536.554 -3.07567 -1.42084 0
M  V30 5757 C 535.113 -3.22889 -1.93442 0
M  V30 5758 C 534.26 -2.65581 -0.797612 0
M  V30 5759 H 537.211 -1.58696 0.0114951 0
M  V30 5760 H 537.232 -3.03884 -2.28986 0
M  V30 5761 H 536.744 -3.82716 -0.644187 0
M  V30 5762 H 534.845 -2.52623 -2.73884 0
M  V30 5763 H 534.958 -4.30197 -2.10872 0
M  V30 5764 H 533.322 -2.24278 -1.20712 0
M  V30 5765 H 534.105 -3.43284 -0.033494 0
M  V30 5766 N 536.55 0.480323 -1.50102 0
M  V30 5767 C 537.778 1.25657 -1.64371 0
M  V30 5768 C 538.193 1.86011 -0.323316 0
M  V30 5769 O 537.55 1.68803 0.693682 0
M  V30 5770 C 537.601 2.37197 -2.728 0
M  V30 5771 O 537.322 1.7932 -3.9972 0
M  V30 5772 C 538.823 3.2823 -2.9796 0
M  V30 5773 H 536.043 0.380369 -0.552775 0
M  V30 5774 H 538.587 0.574379 -1.96268 0
M  V30 5775 H 536.742 3.01208 -2.43623 0
M  V30 5776 H 537.156 2.52701 -4.59611 0
M  V30 5777 H 538.63 4.02725 -3.77513 0
M  V30 5778 H 539.107 3.86462 -2.08671 0
M  V30 5779 H 539.713 2.69964 -3.28633 0
M  V30 5780 N 538.028 1.39524 0.732853 0
M  V30 5781 C 539.253 1.40329 1.52717 0
M  V30 5782 C 539.678 0.000286574 1.881 0
M  V30 5783 O 539.036 -0.987262 1.52062 0
M  V30 5784 C 539.084 2.28464 2.78992 0
M  V30 5785 O 538.188 1.716 3.75003 0
M  V30 5786 H 537.529 0.47778 0.461109 0
M  V30 5787 H 540.059 1.83546 0.903996 0
M  V30 5788 H 540.069 2.43051 3.27705 0
M  V30 5789 H 538.744 3.30425 2.52572 0
M  V30 5790 H 537.321 1.66267 3.33781 0
M  V30 5791 N 539.506 -0.963266 1.24736 0
M  V30 5792 C 540.734 -1.74166 1.11686 0
M  V30 5793 C 541.149 -1.8589 -0.330187 0
M  V30 5794 O 540.506 -1.35042 -1.2276 0
M  V30 5795 C 540.557 -3.15989 1.75595 0
M  V30 5796 O 540.278 -3.04847 3.14642 0
M  V30 5797 C 541.779 -4.10145 1.68213 0
M  V30 5798 H 538.999 -0.546031 0.389989 0
M  V30 5799 H 541.543 -1.20907 1.64929 0
M  V30 5800 H 539.698 -3.66219 1.26343 0
M  V30 5801 H 540.112 -3.9425 3.4593 0
M  V30 5802 H 541.586 -5.07299 2.17604 0
M  V30 5803 H 542.063 -4.3445 0.644208 0
M  V30 5804 H 542.669 -3.65827 2.16912 0
M  V30 5805 N 540.985 -1.06182 -1.16461 0
M  V30 5806 C 541.933 -0.665716 -2.2287 0
M  V30 5807 C 542.927 0.317822 -1.66392 0
M  V30 5808 O 544.133 0.182807 -1.79069 0
M  V30 5809 H 540.508 -0.197148 -0.725697 0
M  V30 5810 H 542.479 -1.57307 -2.53569 0
M  V30 5811 C 541.228 -0.0669803 -3.47635 0
M  V30 5812 H 540.551 -0.814899 -3.91407 0
M  V30 5813 H 541.991 0.172669 -4.23648 0
M  V30 5814 C 540.45 1.18913 -3.15216 0
M  V30 5815 O 540.98 2.27723 -3.30916 0
M  V30 5816 N 539.186 1.09066 -2.69357 0
M  V30 5817 H 538.733 0.20518 -2.56782 0
M  V30 5818 H 538.691 1.93195 -2.48039 0
M  V30 5819 N 542.463 1.3308 -0.844243 0
M  V30 5820 C 543.874 1.7992 -0.498566 0
M  V30 5821 C 544.225 1.69808 0.982834 0
M  V30 5822 O 543.35 1.25051 1.7661 0
M  V30 5823 C 543.945 3.26677 -0.898204 0
M  V30 5824 C 542.504 3.71513 -0.604583 0
M  V30 5825 C 541.651 2.54393 -1.10362 0
M  V30 5826 H 544.602 1.20526 -1.03244 0
M  V30 5827 H 544.623 3.79918 -0.21039 0
M  V30 5828 H 544.135 3.34004 -1.97643 0
M  V30 5829 H 542.236 3.69708 0.46335 0
M  V30 5830 H 542.349 4.64755 -1.16358 0
M  V30 5831 H 540.713 2.49246 -0.524273 0
M  V30 5832 H 541.496 2.6448 -2.18873 0
M  V30 5833 N 543.941 0.601185 1.45683 0
M  V30 5834 C 545.19 0.0914953 2.01492 0
M  V30 5835 C 545.503 -1.28331 1.47616 0
M  V30 5836 O 546.709 -1.88537 1.95362 0
M  V30 5837 C 545.165 0.11291 3.59723 0
M  V30 5838 C 544.773 1.48717 4.22596 0
M  V30 5839 C 546.517 -0.341871 4.23121 0
M  V30 5840 C 544.424 1.46531 5.7296 0
M  V30 5841 H 543.354 0.0304365 0.753385 0
M  V30 5842 H 546.005 0.755568 1.67223 0
M  V30 5843 H 544.387 -0.617692 3.91153 0
M  V30 5844 H 545.561 2.23897 4.02749 0
M  V30 5845 H 543.876 1.88351 3.71366 0
M  V30 5846 H 546.473 -0.377304 5.33367 0
M  V30 5847 H 546.816 -1.36325 3.93346 0
M  V30 5848 H 547.349 0.335256 3.96385 0
M  V30 5849 H 544.088 2.46408 6.07423 0
M  V30 5850 H 543.608 0.755997 5.95017 0
M  V30 5851 H 545.287 1.18618 6.36034 0
M  V30 5852 N 545.419 -1.53889 0.339982 0
M  V30 5853 C 546.382 -2.23547 -0.50592 0
M  V30 5854 C 547.382 -1.23445 -1.03044 0
M  V30 5855 O 548.572 -1.47909 -0.920253 0
M  V30 5856 C 545.704 -2.95234 -1.7044 0
M  V30 5857 H 546.897 -2.99722 0.103247 0
M  V30 5858 H 544.45 -1.56033 0.0912804 0
M  V30 5859 H 545.185 -2.23236 -2.35236 0
M  V30 5860 H 544.97 -3.68654 -1.33553 0
M  V30 5861 H 546.46 -3.48258 -2.30447 0
M  V30 5862 N 546.897 -0.0685191 -1.57451 0
M  V30 5863 C 548.122 0.613919 -1.98106 0
M  V30 5864 C 548.547 1.62551 -0.946501 0
M  V30 5865 O 547.905 1.81085 0.0882824 0
M  V30 5866 C 547.953 1.26189 -3.378 0
M  V30 5867 O 547.057 2.37773 -3.36954 0
M  V30 5868 H 546.398 0.158163 -0.644888 0
M  V30 5869 H 548.928 -0.142063 -2.04106 0
M  V30 5870 H 548.938 1.60951 -3.74912 0
M  V30 5871 H 547.613 0.520625 -4.12629 0
M  V30 5872 H 546.19 2.04829 -3.11608 0
M  V30 5873 N 548.375 1.56261 0.205012 0
M  V30 5874 C 549.624 1.79236 0.925058 0
M  V30 5875 C 549.937 0.640011 1.84833 0
M  V30 5876 O 551.143 0.753809 2.60826 0
M  V30 5877 C 549.599 3.17475 1.69522 0
M  V30 5878 C 549.207 4.40482 0.817269 0
M  V30 5879 C 550.951 3.49766 2.4055 0
M  V30 5880 C 548.858 5.69744 1.58573 0
M  V30 5881 H 547.788 0.668287 0.349153 0
M  V30 5882 H 550.439 1.82629 0.178544 0
M  V30 5883 H 548.821 3.08304 2.48526 0
M  V30 5884 H 549.995 4.60752 0.0665988 0
M  V30 5885 H 548.31 4.15827 0.218316 0
M  V30 5886 H 550.907 4.43573 2.98575 0
M  V30 5887 H 551.25 2.73041 3.14252 0
M  V30 5888 H 551.783 3.60341 1.68522 0
M  V30 5889 H 548.522 6.49407 0.891679 0
M  V30 5890 H 548.042 5.53509 2.31059 0
M  V30 5891 H 549.721 6.1051 2.14212 0
M  V30 5892 N 549.853 -0.472356 1.50355 0
M  V30 5893 C 551.1 -1.22453 1.61281 0
M  V30 5894 C 551.428 -1.91972 0.31256 0
M  V30 5895 O 550.683 -1.82696 -0.701475 0
M  V30 5896 C 550.982 -2.29257 2.74182 0
M  V30 5897 C 550.648 -1.76999 4.14708 0
M  V30 5898 C 549.31 -1.62467 4.52944 0
M  V30 5899 C 551.662 -1.38215 5.0254 0
M  V30 5900 C 548.99 -1.07574 5.76754 0
M  V30 5901 C 551.342 -0.847638 6.26895 0
M  V30 5902 C 550.006 -0.688946 6.63935 0
M  V30 5903 H 549.276 -0.448087 0.590168 0
M  V30 5904 H 551.923 -0.520744 1.84284 0
M  V30 5905 H 550.228 -3.05538 2.45263 0
M  V30 5906 H 551.925 -2.87212 2.7984 0
M  V30 5907 H 548.515 -1.89276 3.84542 0
M  V30 5908 H 552.699 -1.48276 4.73633 0
M  V30 5909 H 547.955 -0.940237 6.04127 0
M  V30 5910 H 552.129 -0.538455 6.94315 0
M  V30 5911 H 549.756 -0.261435 7.5975 0
M  V30 5912 N 551.331 -1.39911 -0.725443 0
M  V30 5913 C 552.294 -1.39156 -1.82121 0
M  V30 5914 C 553.294 -0.287018 -1.58218 0
M  V30 5915 O 554.484 -0.545421 -1.65441 0
M  V30 5916 C 551.616 -1.1736 -3.20062 0
M  V30 5917 H 552.809 -2.36672 -1.84191 0
M  V30 5918 H 550.362 -1.25615 -0.930079 0
M  V30 5919 H 551.097 -0.205648 -3.23647 0
M  V30 5920 H 550.882 -1.97358 -3.3881 0
M  V30 5921 H 552.372 -1.19596 -4.00108 0
M  V30 5922 N 552.809 0.956637 -1.25245 0
M  V30 5923 C 554.055 1.70413 -1.11044 0
M  V30 5924 C 554.41 1.89275 0.345377 0
M  V30 5925 O 553.703 1.45116 1.25107 0
M  V30 5926 C 553.897 3.08996 -1.79601 0
M  V30 5927 C 553.726 3.03654 -3.317 0
M  V30 5928 C 552.496 3.07521 -4.00947 0
M  V30 5929 C 554.694 2.84975 -4.28128 0
M  V30 5930 N 552.676 2.92316 -5.39838 0
M  V30 5931 C 554.047 2.7818 -5.5409 0
M  V30 5932 C 556.102 2.6964 -4.18568 0
M  V30 5933 C 554.805 2.57616 -6.71585 0
M  V30 5934 C 556.831 2.50447 -5.35752 0
M  V30 5935 C 556.193 2.4437 -6.60653 0
M  V30 5936 H 552.292 0.631642 -0.461035 0
M  V30 5937 H 554.876 1.13331 -1.58317 0
M  V30 5938 H 553.047 3.64248 -1.34826 0
M  V30 5939 H 554.779 3.72515 -1.58161 0
M  V30 5940 H 551.534 3.16635 -3.52192 0
M  V30 5941 H 551.958 2.87923 -6.12723 0
M  V30 5942 H 556.6 2.73113 -3.22752 0
M  V30 5943 H 554.318 2.52885 -7.67512 0
M  V30 5944 H 557.904 2.39509 -5.30214 0
M  V30 5945 H 556.784 2.29712 -7.49801 0
M  V30 5946 N 554.287 1.06798 1.15896 0
M  V30 5947 C 555.515 0.808694 1.90441 0
M  V30 5948 C 555.93 -0.637506 1.77711 0
M  V30 5949 O 555.287 -1.43684 1.12522 0
M  V30 5950 C 555.338 1.20068 3.40978 0
M  V30 5951 O 555.059 2.59013 3.53333 0
M  V30 5952 C 556.56 0.96987 4.3256 0
M  V30 5953 H 553.78 0.292809 0.603742 0
M  V30 5954 H 556.324 1.42296 1.46874 0
M  V30 5955 H 554.479 0.630842 3.82229 0
M  V30 5956 H 554.893 2.7485 4.46719 0
M  V30 5957 H 556.367 1.29371 5.36626 0
M  V30 5958 H 556.844 -0.0941209 4.39099 0
M  V30 5959 H 557.45 1.52433 3.97044 0
M  V30 5960 N 555.766 -1.3263 0.851289 0
M  V30 5961 C 557.182 -1.50162 0.5407 0
M  V30 5962 C 557.382 -1.78788 -0.929369 0
M  V30 5963 O 556.438 -1.85545 -1.71258 0
M  V30 5964 C 557.751 -2.64803 1.42478 0
M  V30 5965 C 559.299 -2.78688 1.42485 0
M  V30 5966 C 559.774 -3.96405 2.29407 0
M  V30 5967 N 561.265 -4.0366 2.27184 0
M  V30 5968 C 562 -4.93971 2.9117 0
M  V30 5969 N 561.496 -5.89313 3.64256 0
M  V30 5970 N 563.289 -4.87066 2.80576 0
M  V30 5971 H 555.44 -1.12315 1.80275 0
M  V30 5972 H 557.703 -0.553266 0.769806 0
M  V30 5973 H 557.409 -2.50368 2.46999 0
M  V30 5974 H 557.283 -3.60506 1.10974 0
M  V30 5975 H 559.67 -2.92547 0.387304 0
M  V30 5976 H 559.751 -1.83708 1.78002 0
M  V30 5977 H 559.395 -3.83304 3.33228 0
M  V30 5978 H 559.325 -4.90654 1.91224 0
M  V30 5979 H 561.816 -3.35435 1.74045 0
M  V30 5980 H 562.129 -6.54913 4.10255 0
M  V30 5981 H 560.474 -5.8935 3.68364 0
M  V30 5982 H 563.665 -4.11552 2.23031 0
M  V30 5983 H 563.838 -5.57248 3.30725 0
M  V30 5984 N 557.244 -0.608902 -1.45362 0
M  V30 5985 C 558.492 -0.104401 -2.0183 0
M  V30 5986 C 558.813 1.27007 -1.47967 0
M  V30 5987 O 558.083 1.83924 -0.674455 0
M  V30 5988 H 556.663 -0.0356042 -0.746151 0
M  V30 5989 H 559.325 -0.790596 -1.78145 0
M  V30 5990 H 558.421 -0.0551793 -3.12051 0
M  V30 5991 N 558.722 1.53707 -0.348139 0
M  V30 5992 C 559.652 2.28111 0.498766 0
M  V30 5993 C 560.633 1.29851 1.09876 0
M  V30 5994 O 561.818 1.587 1.11928 0
M  V30 5995 C 558.948 3.05735 1.64753 0
M  V30 5996 C 557.902 4.11537 1.17565 0
M  V30 5997 C 557.228 4.77142 2.4133 0
M  V30 5998 C 558.528 5.21587 0.272844 0
M  V30 5999 H 560.222 2.99152 -0.121934 0
M  V30 6000 H 557.768 1.43875 -0.0600842 0
M  V30 6001 H 559.721 3.56526 2.24649 0
M  V30 6002 H 558.445 2.32354 2.2952 0
M  V30 6003 H 557.104 3.61665 0.599483 0
M  V30 6004 H 556.752 4.0035 3.04514 0
M  V30 6005 H 556.452 5.48626 2.10436 0
M  V30 6006 H 557.976 5.30719 3.01943 0
M  V30 6007 H 559.39 5.67986 0.778779 0
M  V30 6008 H 557.787 6.00074 0.0555849 0
M  V30 6009 H 558.857 4.79969 -0.689785 0
M  V30 6010 N 560.2 0.0768682 1.57412 0
M  V30 6011 C 561.11 -0.903207 2.16516 0
M  V30 6012 C 562.126 -1.32341 1.12968 0
M  V30 6013 O 563.302 -1.39507 1.45258 0
M  V30 6014 C 560.367 -2.1508 2.71922 0
M  V30 6015 C 559.428 -1.78653 3.90361 0
M  V30 6016 C 558.661 -2.97465 4.43114 0
M  V30 6017 O 558.884 -4.11638 3.94854 0
M  V30 6018 O 557.818 -2.76987 5.3438 0
M  V30 6019 H 561.644 -0.430427 3.00634 0
M  V30 6020 H 559.229 -0.146485 1.4868 0
M  V30 6021 H 561.111 -2.8823 3.07411 0
M  V30 6022 H 559.786 -2.61446 1.9086 0
M  V30 6023 H 558.693 -1.0274 3.59716 0
M  V30 6024 H 560.026 -1.37066 4.7273 0
M  V30 6025 N 561.678 -1.56367 -0.196722 0
M  V30 6026 C 562.628 -1.9082 -1.24787 0
M  V30 6027 C 563.612 -0.773719 -1.41076 0
M  V30 6028 O 564.804 -1.03655 -1.43474 0
M  V30 6029 C 561.933 -2.24982 -2.59303 0
M  V30 6030 C 561.019 -3.44882 -2.46814 0
M  V30 6031 N 561.41 -4.62835 -2.04003 0
M  V30 6032 C 559.708 -3.48988 -2.77711 0
M  V30 6033 C 560.409 -5.44993 -2.03366 0
M  V30 6034 N 559.385 -4.85356 -2.44807 0
M  V30 6035 H 563.187 -2.79516 -0.908175 0
M  V30 6036 H 560.701 -1.57265 -0.405166 0
M  V30 6037 H 562.698 -2.47848 -3.35227 0
M  V30 6038 H 561.358 -1.37611 -2.94098 0
M  V30 6039 H 562.369 -4.87532 -1.74738 0
M  V30 6040 H 559.046 -2.72029 -3.16712 0
M  V30 6041 H 560.436 -6.49464 -1.72181 0
M  V30 6042 N 563.156 0.464375 -1.50603 0
M  V30 6043 C 564.572 0.798684 -1.38178 0
M  V30 6044 C 564.772 1.96568 -0.44308 0
M  V30 6045 O 563.828 2.52252 0.111814 0
M  V30 6046 C 565.141 1.10444 -2.79683 0
M  V30 6047 C 566.689 1.2105 -2.88645 0
M  V30 6048 C 567.164 1.54934 -4.30998 0
M  V30 6049 N 568.655 1.61913 -4.3398 0
M  V30 6050 C 569.39 1.8965 -5.41129 0
M  V30 6051 N 568.886 2.15361 -6.58477 0
M  V30 6052 N 570.679 1.91207 -5.28579 0
M  V30 6053 H 562.83 -0.304603 -2.10204 0
M  V30 6054 H 565.093 -0.0737804 -0.945125 0
M  V30 6055 H 564.799 0.319934 -3.50242 0
M  V30 6056 H 564.673 2.03896 -3.17342 0
M  V30 6057 H 567.06 1.98567 -2.18301 0
M  V30 6058 H 567.141 0.255613 -2.5452 0
M  V30 6059 H 566.785 0.779549 -5.01882 0
M  V30 6060 H 566.715 2.51584 -4.62615 0
M  V30 6061 H 569.206 1.44055 -3.49366 0
M  V30 6062 H 569.519 2.35818 -7.35941 0
M  V30 6063 H 567.864 2.1274 -6.6164 0
M  V30 6064 H 571.055 1.70622 -4.35897 0
M  V30 6065 H 571.228 2.12488 -6.12171 0
M  V30 6066 N 564.634 1.40294 0.718013 0
M  V30 6067 C 565.882 1.38167 1.47494 0
M  V30 6068 C 566.203 -0.01607 1.94993 0
M  V30 6069 O 565.473 -0.970396 1.70177 0
M  V30 6070 H 564.053 0.508505 0.547203 0
M  V30 6071 H 566.715 1.75324 0.851322 0
M  V30 6072 H 565.811 2.05503 2.34894 0
M  V30 6073 N 566.112 -0.949982 1.2575 0
M  V30 6074 C 567.059 -2.04738 1.06541 0
M  V30 6075 C 568.029 -1.66078 -0.0268818 0
M  V30 6076 O 569.214 -1.90348 0.131196 0
M  V30 6077 C 566.354 -3.38027 0.695127 0
M  V30 6078 C 565.467 -3.89776 1.86276 0
M  V30 6079 C 564.602 -5.11411 1.4364 0
M  V30 6080 C 563.641 -5.554 2.57287 0
M  V30 6081 N 562.778 -6.68244 2.15395 0
M  V30 6082 H 567.618 -2.20502 2.00457 0
M  V30 6083 H 565.155 -1.0805 0.998178 0
M  V30 6084 H 567.113 -4.14641 0.461375 0
M  V30 6085 H 565.743 -3.22135 -0.207046 0
M  V30 6086 H 564.795 -3.0964 2.20969 0
M  V30 6087 H 566.107 -4.18368 2.71606 0
M  V30 6088 H 565.261 -5.95457 1.16257 0
M  V30 6089 H 564 -4.84545 0.553879 0
M  V30 6090 H 563.005 -4.69916 2.85409 0
M  V30 6091 H 564.23 -5.84272 3.46125 0
M  V30 6092 H 562.176 -6.43078 1.29565 0
M  V30 6093 H 562.093 -6.96377 2.94272 0
M  V30 6094 H 563.361 -7.55687 1.91201 0
M  V30 6095 N 567.59 -1.07411 -1.15328 0
M  V30 6096 C 568.52 -0.716472 -2.22236 0
M  V30 6097 C 569.501 0.296373 -1.67498 0
M  V30 6098 O 570.686 0.168989 -1.93463 0
M  V30 6099 C 567.816 -0.114142 -3.47112 0
M  V30 6100 C 566.77 -1.05421 -4.14814 0
M  V30 6101 C 566.096 -0.314604 -5.33774 0
M  V30 6102 C 567.396 -2.38808 -4.64508 0
M  V30 6103 H 569.09 -1.61029 -2.52408 0
M  V30 6104 H 566.636 -0.775702 -1.21321 0
M  V30 6105 H 568.589 0.148001 -4.2114 0
M  V30 6106 H 567.313 0.814755 -3.16274 0
M  V30 6107 H 565.972 -1.30128 -3.42728 0
M  V30 6108 H 565.62 0.617772 -4.99192 0
M  V30 6109 H 565.32 -0.941209 -5.80013 0
M  V30 6110 H 566.844 -0.0602747 -6.1057 0
M  V30 6111 H 568.258 -2.18424 -5.3006 0
M  V30 6112 H 566.655 -2.97069 -5.21412 0
M  V30 6113 H 567.725 -3.01067 -3.80114 0
M  V30 6114 N 569.068 1.32177 -0.85831 0
M  V30 6115 C 570.345 1.91781 -0.384624 0
M  V30 6116 C 570.725 1.78171 1.13217 0
M  V30 6117 O 570.073 1.18209 1.95548 0
M  V30 6118 C 570.283 3.38414 -0.853047 0
M  V30 6119 C 571.631 4.15542 -0.872359 0
M  V30 6120 O 572.655 3.47148 -0.797926 0
M  V30 6121 O 571.514 5.37678 -0.978009 0
M  V30 6122 H 568.608 0.819259 -0.112886 0
M  V30 6123 H 571.154 1.40923 -0.945453 0
M  V30 6124 H 569.926 3.4228 -1.89632 0
M  V30 6125 H 569.549 3.96683 -0.269874 0
M  V30 6126 N 570.547 0.616602 1.45037 0
M  V30 6127 C 571.795 0.115103 2.01772 0
M  V30 6128 C 572.116 -1.2622 1.48639 0
M  V30 6129 O 571.386 -1.83563 0.684199 0
M  V30 6130 H 569.966 0.0395607 0.745952 0
M  V30 6131 H 572.628 0.800032 1.77723 0
M  V30 6132 H 571.724 0.0717274 3.12018 0
M  V30 6133 N 572.025 -1.5352 0.356285 0
M  V30 6134 C 572.973 -2.26945 -0.50978 0
M  V30 6135 C 573.967 -1.29569 -1.09125 0
M  V30 6136 O 575.173 -1.47231 -1.03552 0
M  V30 6137 H 571.548 -0.729368 -0.183102 0
M  V30 6138 H 573.519 -2.98111 0.131374 0
M  V30 6139 C 572.268 -3.06466 -1.64237 0
M  V30 6140 H 571.591 -3.81233 -1.20423 0
M  V30 6141 H 573.031 -3.61035 -2.22327 0
M  V30 6142 C 571.49 -2.16737 -2.57928 0
M  V30 6143 O 572.02 -1.77195 -3.60507 0
M  V30 6144 N 570.226 -1.81558 -2.26903 0
M  V30 6145 H 569.773 -2.13913 -1.43524 0
M  V30 6146 H 569.731 -1.21806 -2.89846 0
M  V30 6147 N 573.503 -0.0852151 -1.57369 0
M  V30 6148 C 574.435 0.907099 -2.10486 0
M  V30 6149 C 575.448 1.25259 -1.03991 0
M  V30 6150 O 576.637 1.20743 -1.31467 0
M  V30 6151 C 573.737 2.21908 -2.56145 0
M  V30 6152 C 572.91 2.05042 -3.86363 0
M  V30 6153 C 571.969 3.19664 -4.17973 0
M  V30 6154 O 570.995 2.94062 -4.87356 0
M  V30 6155 N 572.197 4.45151 -3.72587 0
M  V30 6156 H 574.962 0.453505 -2.96249 0
M  V30 6157 H 572.523 0.100157 -1.6159 0
M  V30 6158 H 574.515 2.97519 -2.74343 0
M  V30 6159 H 573.085 2.58723 -1.75446 0
M  V30 6160 H 572.305 1.13819 -3.77411 0
M  V30 6161 H 573.593 1.91039 -4.71574 0
M  V30 6162 H 572.991 4.68834 -3.16561 0
M  V30 6163 H 571.548 5.17744 -3.9596 0
M  V30 6164 N 574.981 1.5647 0.188427 0
M  V30 6165 C 576.258 1.71857 0.934058 0
M  V30 6166 C 576.638 0.641867 2.01105 0
M  V30 6167 O 575.986 -0.346098 2.25864 0
M  V30 6168 C 576.196 3.14431 1.5144 0
M  V30 6169 C 577.544 3.74869 1.99396 0
M  V30 6170 O 578.568 3.17601 1.61269 0
M  V30 6171 O 577.427 4.75387 2.69573 0
M  V30 6172 H 574.521 0.701186 0.438483 0
M  V30 6173 H 577.067 1.68768 0.177599 0
M  V30 6174 H 575.839 3.8427 0.738416 0
M  V30 6175 H 575.462 3.21775 2.33552 0
M  V30 6176 N 576.459 -0.456382 1.50847 0
M  V30 6177 C 577.389 -1.56025 1.73719 0
M  V30 6178 C 578.37 -1.5967 0.586473 0
M  V30 6179 O 579.555 -1.75702 0.827185 0
M  V30 6180 C 576.685 -2.94251 1.84483 0
M  V30 6181 C 575.639 -3.05471 2.99786 0
M  V30 6182 C 574.965 -4.45489 2.95709 0
M  V30 6183 C 576.265 -2.81318 4.40065 0
M  V30 6184 H 577.959 -1.37138 2.66146 0
M  V30 6185 H 575.505 -0.658299 1.28072 0
M  V30 6186 H 577.458 -3.71417 1.99067 0
M  V30 6187 H 576.182 -3.14328 0.886891 0
M  V30 6188 H 574.841 -2.30741 2.84876 0
M  V30 6189 H 574.489 -4.62505 1.97732 0
M  V30 6190 H 574.189 -4.53929 3.73125 0
M  V30 6191 H 575.713 -5.24655 3.12362 0
M  V30 6192 H 577.127 -3.48226 4.55425 0
M  V30 6193 H 575.524 -3.01188 5.19043 0
M  V30 6194 H 576.594 -1.7706 4.51418 0
M  V30 6195 N 577.937 -1.40673 -0.710563 0
M  V30 6196 C 579.186 -1.38525 -1.46607 0
M  V30 6197 C 579.499 0.0077024 -1.95598 0
M  V30 6198 O 580.705 0.151792 -2.71075 0
M  V30 6199 C 579.161 -2.43489 -2.6503 0
M  V30 6200 C 578.769 -3.88619 -2.22888 0
M  V30 6201 C 580.513 -2.50456 -3.42742 0
M  V30 6202 C 578.42 -4.85168 -3.3818 0
M  V30 6203 H 577.35 -0.515092 -0.550632 0
M  V30 6204 H 580.001 -1.66431 -0.772846 0
M  V30 6205 H 578.383 -2.0869 -3.36548 0
M  V30 6206 H 579.557 -4.32588 -1.58758 0
M  V30 6207 H 577.872 -3.85174 -1.58208 0
M  V30 6208 H 580.469 -3.19776 -4.28541 0
M  V30 6209 H 580.812 -1.53665 -3.86902 0
M  V30 6210 H 581.345 -2.84271 -2.78271 0
M  V30 6211 H 578.084 -5.8331 -2.99047 0
M  V30 6212 H 577.604 -4.4586 -4.01209 0
M  V30 6213 H 579.283 -5.05225 -4.04174 0
M  V30 6214 N 579.415 0.9433 -1.26252 0
M  V30 6215 C 580.831 1.21644 -1.03319 0
M  V30 6216 C 581.031 2.0003 0.242983 0
M  V30 6217 O 580.087 2.33838 0.952688 0
M  V30 6218 C 581.4 1.97978 -2.2633 0
M  V30 6219 C 582.948 2.10978 -2.31209 0
M  V30 6220 C 583.423 2.90713 -3.53907 0
M  V30 6221 N 584.914 2.98287 -3.54371 0
M  V30 6222 C 585.649 3.60406 -4.45976 0
M  V30 6223 N 585.145 4.24043 -5.47868 0
M  V30 6224 N 586.938 3.57658 -4.33633 0
M  V30 6225 H 579.089 0.419221 -2.08222 0
M  V30 6226 H 581.352 0.247995 -0.914988 0
M  V30 6227 H 581.058 1.47788 -3.19142 0
M  V30 6228 H 580.932 2.9865 -2.30408 0
M  V30 6229 H 583.319 2.6036 -1.38913 0
M  V30 6230 H 583.4 1.09575 -2.31143 0
M  V30 6231 H 583.044 2.42018 -4.46531 0
M  V30 6232 H 582.974 3.92367 -3.5122 0
M  V30 6233 H 585.465 2.53044 -2.80673 0
M  V30 6234 H 585.778 4.69334 -6.13959 0
M  V30 6235 H 584.123 4.22637 -5.51728 0
M  V30 6236 H 587.314 3.07134 -3.53251 0
M  V30 6237 H 587.487 4.05782 -5.05218 0
M  V30 6238 N 580.893 1.08022 1.14757 0
M  V30 6239 C 582.14 0.807509 1.85703 0
M  V30 6240 C 582.468 -0.666617 1.8272 0
M  V30 6241 O 581.723 -1.50562 1.25018 0
M  V30 6242 C 582.022 1.26964 3.34088 0
M  V30 6243 C 581.688 2.7509 3.57262 0
M  V30 6244 C 580.35 3.15547 3.63296 0
M  V30 6245 C 582.702 3.70667 3.66409 0
M  V30 6246 C 580.03 4.50384 3.75994 0
M  V30 6247 C 582.382 5.05274 3.80632 0
M  V30 6248 C 581.046 5.45342 3.84913 0
M  V30 6249 H 580.316 0.295488 0.679535 0
M  V30 6250 H 582.963 1.35245 1.35577 0
M  V30 6251 H 581.268 0.644216 3.86467 0
M  V30 6252 H 582.965 1.03544 3.87401 0
M  V30 6253 H 579.555 2.42775 3.53212 0
M  V30 6254 H 583.739 3.40533 3.61041 0
M  V30 6255 H 578.995 4.80886 3.77569 0
M  V30 6256 H 583.169 5.79201 3.86652 0
M  V30 6257 H 580.796 6.49823 3.94505 0
M  V30 6258 N 582.371 -1.3172 0.865308 0
M  V30 6259 C 583.334 -2.26918 0.322627 0
M  V30 6260 C 584.334 -1.52031 -0.523751 0
M  V30 6261 O 585.524 -1.70973 -0.333727 0
M  V30 6262 C 582.656 -3.36558 -0.542338 0
M  V30 6263 H 583.849 -2.76432 1.16298 0
M  V30 6264 H 581.402 -1.42573 0.640512 0
M  V30 6265 H 582.137 -2.92329 -1.40407 0
M  V30 6266 H 581.922 -3.92048 0.0636395 0
M  V30 6267 H 583.412 -4.07465 -0.91446 0
M  V30 6268 N 583.85 -0.624285 -1.44708 0
M  V30 6269 C 584.782 0.12305 -2.28869 0
M  V30 6270 C 585.795 0.81557 -1.40898 0
M  V30 6271 O 586.984 0.678162 -1.65116 0
M  V30 6272 C 584.084 1.19612 -3.1709 0
M  V30 6273 C 583.257 0.587452 -4.33437 0
M  V30 6274 C 582.316 1.55358 -5.02743 0
M  V30 6275 O 581.341 1.07338 -5.58988 0
M  V30 6276 N 582.543 2.88798 -5.03563 0
M  V30 6277 H 585.308 -0.599193 -2.93649 0
M  V30 6278 H 582.87 -0.464954 -1.5508 0
M  V30 6279 H 584.861 1.84261 -3.60319 0
M  V30 6280 H 583.432 1.82067 -2.54107 0
M  V30 6281 H 582.652 -0.237509 -3.93484 0
M  V30 6282 H 583.94 0.161326 -5.08544 0
M  V30 6283 H 583.338 3.30399 -4.59188 0
M  V30 6284 H 581.894 3.48826 -5.50603 0
M  V30 6285 N 585.328 1.53329 -0.364422 0
M  V30 6286 C 586.261 2.22052 0.526145 0
M  V30 6287 C 587.239 1.21203 1.08391 0
M  V30 6288 O 588.423 1.50101 1.14026 0
M  V30 6289 C 585.55 2.91432 1.72583 0
M  V30 6290 C 584.596 4.06345 1.29562 0
M  V30 6291 S 585.429 5.34671 0.297885 0
M  V30 6292 C 586.585 6.07563 1.50392 0
M  V30 6293 H 586.818 2.97244 -0.0575055 0
M  V30 6294 H 584.351 1.53684 -0.148525 0
M  V30 6295 H 586.309 3.3202 2.41398 0
M  V30 6296 H 584.97 2.15966 2.28073 0
M  V30 6297 H 584.163 4.53901 2.19067 0
M  V30 6298 H 583.765 3.67642 0.686696 0
M  V30 6299 H 586.057 6.32224 2.43513 0
M  V30 6300 H 587 6.99973 1.06977 0
M  V30 6301 H 587.408 5.37994 1.70945 0
M  V30 6302 N 586.806 0.0935595 1.57322 0
M  V30 6303 C 587.736 -0.863062 2.16964 0
M  V30 6304 C 588.717 -1.29528 1.10256 0
M  V30 6305 O 589.902 -1.36245 1.38387 0
M  V30 6306 C 587.032 -2.12276 2.74875 0
M  V30 6307 C 585.986 -1.82921 3.86942 0
M  V30 6308 C 585.312 -3.15707 4.31548 0
M  V30 6309 C 586.612 -1.11737 5.10208 0
M  V30 6310 H 588.306 -0.366145 2.97153 0
M  V30 6311 H 585.852 -0.174673 1.42937 0
M  V30 6312 H 587.805 -2.79634 3.1525 0
M  V30 6313 H 586.529 -2.64248 1.91938 0
M  V30 6314 H 585.188 -1.17961 3.47103 0
M  V30 6315 H 584.836 -3.65563 3.45504 0
M  V30 6316 H 584.536 -2.96849 5.07104 0
M  V30 6317 H 586.06 -3.84226 4.74555 0
M  V30 6318 H 587.474 -1.69203 5.47762 0
M  V30 6319 H 585.871 -1.03064 5.91183 0
M  V30 6320 H 586.941 -0.0998818 4.84797 0
M  V30 6321 N 588.284 -1.56567 -0.180126 0
M  V30 6322 C 589.194 -1.98947 -1.24327 0
M  V30 6323 C 590.21 -0.899446 -1.4895 0
M  V30 6324 O 591.386 -1.20639 -1.61271 0
M  V30 6325 C 588.451 -2.33328 -2.56435 0
M  V30 6326 C 587.512 -3.56114 -2.39752 0
M  V30 6327 C 586.745 -3.88845 -3.65561 0
M  V30 6328 O 586.968 -3.22662 -4.70368 0
M  V30 6329 O 585.902 -4.82226 -3.60197 0
M  V30 6330 H 589.728 -2.89634 -0.913565 0
M  V30 6331 H 587.313 -1.44319 -0.386306 0
M  V30 6332 H 589.195 -2.5645 -3.34382 0
M  V30 6333 H 587.87 -1.45806 -2.89002 0
M  V30 6334 H 586.777 -3.38221 -1.59866 0
M  V30 6335 H 588.11 -4.4415 -2.12113 0
M  V30 6336 N 589.762 0.448376 -1.51087 0
M  V30 6337 C 590.709 1.54341 -1.71603 0
M  V30 6338 C 591.679 1.56463 -0.557536 0
M  V30 6339 O 592.864 1.73644 -0.79072 0
M  V30 6340 C 590.004 2.92148 -1.83695 0
M  V30 6341 C 589.117 2.99639 -3.11192 0
M  V30 6342 C 588.252 4.285 -3.13944 0
M  V30 6343 C 587.291 4.29819 -4.35801 0
M  V30 6344 N 586.428 5.50186 -4.36164 0
M  V30 6345 H 591.268 1.36151 -2.65079 0
M  V30 6346 H 588.805 0.661585 -1.31383 0
M  V30 6347 H 590.763 3.72093 -1.88687 0
M  V30 6348 H 589.393 3.0892 -0.936374 0
M  V30 6349 H 588.445 2.12425 -3.15562 0
M  V30 6350 H 589.757 2.96474 -4.01129 0
M  V30 6351 H 588.911 5.16811 -3.17791 0
M  V30 6352 H 587.65 4.34307 -2.21876 0
M  V30 6353 H 586.655 3.39902 -4.32142 0
M  V30 6354 H 587.88 4.25685 -5.29121 0
M  V30 6355 H 585.826 5.56735 -3.46961 0
M  V30 6356 H 585.743 5.48856 -5.19897 0
M  V30 6357 H 587.011 6.40559 -4.44189 0
M  V30 6358 N 591.24 1.41047 0.703093 0
M  V30 6359 C 592.486 1.40207 1.46526 0
M  V30 6360 C 592.819 0.00847763 1.94198 0
M  V30 6361 O 592.094 -0.962437 1.69019 0
M  V30 6362 C 592.377 2.40238 2.6825 0
M  V30 6363 C 592.23 3.88674 2.26391 0
M  V30 6364 C 593.549 2.37627 3.70434 0
M  V30 6365 H 590.668 0.510594 0.531472 0
M  V30 6366 H 593.31 1.72271 0.801422 0
M  V30 6367 H 591.46 2.13026 3.24888 0
M  V30 6368 H 593.132 4.2676 1.75138 0
M  V30 6369 H 591.375 4.03903 1.58255 0
M  V30 6370 H 592.046 4.542 3.13698 0
M  V30 6371 H 594.522 2.61759 3.23452 0
M  V30 6372 H 593.398 3.09645 4.53223 0
M  V30 6373 H 593.659 1.39223 4.19606 0
M  V30 6374 N 592.718 -0.936591 1.26751 0
M  V30 6375 C 593.958 -1.69796 1.13792 0
M  V30 6376 C 594.322 -1.89437 -0.312671 0
M  V30 6377 O 595.523 -2.62806 -0.564489 0
M  V30 6378 C 593.794 -3.03297 1.89065 0
M  V30 6379 S 595.353 -3.94461 1.92214 0
M  V30 6380 H 592.171 -0.583412 0.406389 0
M  V30 6381 H 594.773 -1.11575 1.60535 0
M  V30 6382 H 593.477 -2.86687 2.93665 0
M  V30 6383 H 593.008 -3.66575 1.42781 0
M  V30 6384 H 595.023 -4.85767 1.01215 0
M  V30 6385 N 594.196 -1.08629 -1.14182 0
M  V30 6386 C 595.442 -0.818556 -1.85546 0
M  V30 6387 C 595.775 0.654076 -1.82854 0
M  V30 6388 O 595.05 1.48099 -1.26083 0
M  V30 6389 C 595.333 -1.34397 -3.3408 0
M  V30 6390 C 595.186 -2.8821 -3.45333 0
M  V30 6391 C 596.505 -0.971069 -4.29253 0
M  V30 6392 H 593.624 -0.298821 -0.673702 0
M  V30 6393 H 596.266 -1.34629 -1.34071 0
M  V30 6394 H 594.416 -0.895064 -3.78049 0
M  V30 6395 H 596.088 -3.41488 -3.10134 0
M  V30 6396 H 594.331 -3.25756 -2.86471 0
M  V30 6397 H 595.002 -3.20047 -4.49749 0
M  V30 6398 H 597.478 -1.35809 -3.93313 0
M  V30 6399 H 596.354 -1.36586 -5.31635 0
M  V30 6400 H 596.615 0.121659 -4.41933 0
M  V30 6401 N 595.674 1.31259 -0.872281 0
M  V30 6402 C 596.584 2.32221 -0.333255 0
M  V30 6403 C 597.6 1.6481 0.558013 0
M  V30 6404 O 598.776 1.96212 0.454175 0
M  V30 6405 C 595.841 3.43708 0.454479 0
M  V30 6406 C 594.902 4.26774 -0.465024 0
M  V30 6407 C 594.135 5.32937 0.28521 0
M  V30 6408 O 594.358 5.49968 1.513 0
M  V30 6409 O 593.292 6.00834 -0.358126 0
M  V30 6410 H 597.118 2.80252 -1.17016 0
M  V30 6411 H 594.703 1.352 -0.635724 0
M  V30 6412 H 596.585 4.11656 0.900963 0
M  V30 6413 H 595.26 2.97836 1.26789 0
M  V30 6414 H 594.167 3.61571 -0.960055 0
M  V30 6415 H 595.5 4.76217 -1.2441 0
M  V30 6416 N 597.152 0.631951 1.44375 0
M  V30 6417 C 598.38 0.143867 2.06399 0
M  V30 6418 C 598.795 -1.18188 1.47231 0
M  V30 6419 O 598.152 -1.72511 0.595498 0
M  V30 6420 C 598.203 0.0238253 3.61492 0
M  V30 6421 O 597.924 1.29715 4.18456 0
M  V30 6422 C 599.425 -0.492856 4.40552 0
M  V30 6423 H 596.645 0.0800542 0.666207 0
M  V30 6424 H 599.189 0.866586 1.85231 0
M  V30 6425 H 597.344 -0.649338 3.81919 0
M  V30 6426 H 597.758 1.14252 5.11905 0
M  V30 6427 H 599.232 -0.525861 5.49489 0
M  V30 6428 H 599.709 -1.52006 4.12057 0
M  V30 6429 H 600.315 0.147085 4.25046 0
M  V30 6430 N 598.631 -1.53133 0.372548 0
M  V30 6431 C 599.877 -2.01654 -0.215277 0
M  V30 6432 C 600.21 -1.25914 -1.47849 0
M  V30 6433 O 599.485 -0.3548 -1.91237 0
M  V30 6434 C 599.768 -3.56609 -0.500187 0
M  V30 6435 C 599.621 -4.43036 0.777145 0
M  V30 6436 C 600.94 -4.20528 -1.29786 0
M  V30 6437 H 598.059 -0.732991 -0.0767686 0
M  V30 6438 H 600.701 -1.83335 0.498814 0
M  V30 6439 H 598.851 -3.7235 -1.10852 0
M  V30 6440 H 600.523 -4.39079 1.41447 0
M  V30 6441 H 598.766 -4.10723 1.39604 0
M  V30 6442 H 599.437 -5.49424 0.532662 0
M  V30 6443 H 601.913 -4.08663 -0.783198 0
M  V30 6444 H 600.789 -5.28962 -1.46596 0
M  V30 6445 H 601.05 -3.77051 -2.30836 0
M  V30 6446 N 600.109 -0.101901 -1.5727 0
M  V30 6447 C 601.019 0.868647 -2.17926 0
M  V30 6448 C 602.035 1.30527 -1.1506 0
M  V30 6449 O 603.211 1.37178 -1.47459 0
M  V30 6450 C 600.276 2.10727 -2.75309 0
M  V30 6451 C 599.337 1.7242 -3.93154 0
M  V30 6452 C 598.57 2.90377 -4.47791 0
M  V30 6453 O 598.793 4.05305 -4.01353 0
M  V30 6454 O 597.727 2.6845 -5.38719 0
M  V30 6455 H 601.553 0.382544 -3.01281 0
M  V30 6456 H 599.138 0.122812 -1.48894 0
M  V30 6457 H 601.02 2.83303 -3.11958 0
M  V30 6458 H 599.695 2.58376 -1.94996 0
M  V30 6459 H 598.602 0.970039 -3.61305 0
M  V30 6460 H 599.935 1.29528 -4.74851 0
M  V30 6461 N 601.587 1.56661 0.17182 0
M  V30 6462 C 602.812 1.86459 0.908165 0
M  V30 6463 C 603.237 0.688181 1.75059 0
M  V30 6464 O 602.595 -0.362753 1.77634 0
M  V30 6465 C 602.643 3.14669 1.76112 0
M  V30 6466 O 601.747 2.96858 2.86268 0
M  V30 6467 H 601.088 0.613318 0.254434 0
M  V30 6468 H 603.618 2.03892 0.170113 0
M  V30 6469 H 603.628 3.46061 2.16115 0
M  V30 6470 H 602.303 3.99905 1.14233 0
M  V30 6471 H 600.88 2.76819 2.49852 0
M  V30 6472 N 603.065 -0.440357 1.51323 0
M  V30 6473 C 604.313 -1.18769 1.63518 0
M  V30 6474 C 604.634 -1.91793 0.352201 0
M  V30 6475 O 603.904 -1.85432 -0.631811 0
M  V30 6476 H 602.484 -0.441408 0.602634 0
M  V30 6477 H 605.146 -0.505162 1.8824 0
M  V30 6478 H 604.242 -1.91892 2.46138 0
M  V30 6479 N 604.543 -1.41418 -0.695603 0
M  V30 6480 C 605.506 -1.42988 -1.79129 0
M  V30 6481 C 606.506 -0.320514 -1.57573 0
M  V30 6482 O 607.696 -0.58039 -1.64247 0
M  V30 6483 C 604.828 -1.24122 -3.175 0
M  V30 6484 H 606.021 -2.40526 -1.7913 0
M  V30 6485 H 603.574 -1.2756 -0.903225 0
M  V30 6486 H 604.309 -0.274253 -3.23138 0
M  V30 6487 H 604.094 -2.045 -3.34547 0
M  V30 6488 H 605.584 -1.28056 -3.97481 0
M  V30 6489 N 606.021 0.929856 -1.27246 0
M  V30 6490 C 606.954 2.03069 -1.04106 0
M  V30 6491 C 607.932 1.62556 0.0378417 0
M  V30 6492 O 609.116 1.88197 -0.106869 0
M  V30 6493 C 606.243 3.33718 -0.578778 0
M  V30 6494 C 605.289 3.93209 -1.65193 0
M  V30 6495 S 606.122 4.26068 -3.24386 0
M  V30 6496 C 607.278 5.598 -2.79954 0
M  V30 6497 H 607.511 2.22386 -1.97311 0
M  V30 6498 H 605.044 1.07269 -1.11053 0
M  V30 6499 H 607.002 4.09261 -0.31874 0
M  V30 6500 H 605.663 3.12328 0.333182 0
M  V30 6501 H 604.856 4.87482 -1.27973 0
M  V30 6502 H 604.458 3.24243 -1.86393 0
M  V30 6503 H 606.75 6.39004 -2.25123 0
M  V30 6504 H 607.693 6.01917 -3.72963 0
M  V30 6505 H 608.101 5.20219 -2.19164 0
M  V30 6506 N 607.499 1.09233 1.13605 0
M  V30 6507 C 608.727 0.848908 1.88683 0
M  V30 6508 C 609.142 -0.599667 1.79024 0
M  V30 6509 O 608.499 -1.41265 1.15544 0
M  V30 6510 C 608.55 1.27273 3.38355 0
M  V30 6511 O 608.271 2.66449 3.47759 0
M  V30 6512 C 609.772 1.0614 4.30406 0
M  V30 6513 H 606.992 0.305549 0.597395 0
M  V30 6514 H 609.536 1.4538 1.43823 0
M  V30 6515 H 607.691 0.711776 3.80805 0
M  V30 6516 H 608.105 2.84264 4.40788 0
M  V30 6517 H 609.579 1.40725 5.33761 0
M  V30 6518 H 610.056 -0.000960332 4.392 0
M  V30 6519 H 610.662 1.60821 3.93722 0
M  V30 6520 N 608.977 -1.30795 0.87923 0
M  V30 6521 C 609.924 -2.28282 0.339968 0
M  V30 6522 C 610.894 -1.56134 -0.566685 0
M  V30 6523 O 612.079 -1.84231 -0.496338 0
M  V30 6524 C 609.219 -3.42225 -0.444501 0
M  V30 6525 C 608.332 -4.29204 0.490717 0
M  V30 6526 C 607.467 -5.30302 -0.308784 0
M  V30 6527 C 606.506 -6.08929 0.622272 0
M  V30 6528 N 605.643 -7.01957 -0.14155 0
M  V30 6529 H 610.483 -2.73794 1.17647 0
M  V30 6530 H 608.02 -1.34682 0.591527 0
M  V30 6531 H 609.978 -4.07038 -0.915186 0
M  V30 6532 H 608.608 -2.97799 -1.24562 0
M  V30 6533 H 607.66 -3.6475 1.07988 0
M  V30 6534 H 608.972 -4.84045 1.20425 0
M  V30 6535 H 608.126 -6.00835 -0.841575 0
M  V30 6536 H 606.865 -4.7614 -1.05556 0
M  V30 6537 H 605.87 -5.37278 1.16674 0
M  V30 6538 H 607.095 -6.65178 1.36804 0
M  V30 6539 H 605.041 -6.50192 -0.870966 0
M  V30 6540 H 604.958 -7.54261 0.51246 0
M  V30 6541 H 606.226 -7.76741 -0.655271 0
M  V30 6542 N 610.455 -0.639598 -1.44038 0
M  V30 6543 C 611.732 -0.078012 -1.95444 0
M  V30 6544 C 612.112 1.39847 -1.58133 0
M  V30 6545 O 611.46 2.11714 -0.859614 0
M  V30 6546 C 611.67 -0.309832 -3.47622 0
M  V30 6547 C 613.018 -0.207521 -4.24093 0
M  V30 6548 O 614.042 -0.241653 -3.55379 0
M  V30 6549 O 612.901 -0.119641 -5.46369 0
M  V30 6550 H 609.995 0.0174534 -0.826816 0
M  V30 6551 H 612.541 -0.711891 -1.54046 0
M  V30 6552 H 611.313 -1.33401 -3.67858 0
M  V30 6553 H 610.936 0.357777 -3.95987 0
M  V30 6554 N 611.933 1.52934 -0.380664 0
M  V30 6555 C 612.863 2.29118 0.450268 0
M  V30 6556 C 613.844 1.32153 1.07096 0
M  V30 6557 O 615.029 1.61038 1.08537 0
M  V30 6558 C 612.159 3.09161 1.58231 0
M  V30 6559 C 611.113 4.13938 1.0881 0
M  V30 6560 C 610.439 4.82153 2.31155 0
M  V30 6561 C 611.739 5.22048 0.162146 0
M  V30 6562 H 613.433 2.98826 -0.185361 0
M  V30 6563 H 610.979 1.43715 -0.0905886 0
M  V30 6564 H 612.932 3.61211 2.17036 0
M  V30 6565 H 611.656 2.3717 2.2454 0
M  V30 6566 H 610.315 3.62855 0.522633 0
M  V30 6567 H 609.963 4.06719 2.95953 0
M  V30 6568 H 609.663 5.52966 1.98752 0
M  V30 6569 H 611.187 5.37004 2.90618 0
M  V30 6570 H 612.601 5.6951 0.658126 0
M  V30 6571 H 610.998 6.00057 -0.0717122 0
M  V30 6572 H 612.068 4.78398 -0.791438 0
M  V30 6573 N 613.412 0.11024 1.57214 0
M  V30 6574 C 614.375 -0.828808 2.1369 0
M  V30 6575 C 615.375 -1.20059 1.06969 0
M  V30 6576 O 616.565 -1.12754 1.32786 0
M  V30 6577 C 613.697 -2.11959 2.66994 0
M  V30 6578 H 614.89 -0.338146 2.97988 0
M  V30 6579 H 612.443 -0.138913 1.55681 0
M  V30 6580 H 613.178 -2.65476 1.8626 0
M  V30 6581 H 612.963 -1.86258 3.45037 0
M  V30 6582 H 614.453 -2.79105 3.10629 0
M  V30 6583 N 614.89 -1.56749 -0.16351 0
M  V30 6584 C 616.138 -1.82074 -0.87713 0
M  V30 6585 C 616.459 -0.688503 -1.82441 0
M  V30 6586 O 615.729 0.291085 -1.93725 0
M  V30 6587 H 614.309 -0.671677 -0.326893 0
M  V30 6588 H 616.971 -1.9423 -0.161459 0
M  V30 6589 H 616.067 -2.76407 -1.44934 0
M  V30 6590 N 616.368 0.432326 -1.51554 0
M  V30 6591 C 617.608 1.19076 -1.66133 0
M  V30 6592 C 617.972 1.88364 -0.371873 0
M  V30 6593 O 619.173 2.65904 -0.39349 0
M  V30 6594 C 617.444 2.1768 -2.83461 0
M  V30 6595 S 619.003 3.01943 -3.18396 0
M  V30 6596 H 615.821 0.403735 -0.585251 0
M  V30 6597 H 618.423 0.481554 -1.89476 0
M  V30 6598 H 617.127 1.65424 -3.75583 0
M  V30 6599 H 616.658 2.93174 -2.62322 0
M  V30 6600 H 618.673 4.19373 -2.65219 0
M  V30 6601 N 617.846 1.41785 0.688094 0
M  V30 6602 C 619.095 1.4084 1.44385 0
M  V30 6603 C 619.408 0.0234166 1.95586 0
M  V30 6604 O 620.614 -0.108647 2.71283 0
M  V30 6605 C 619.07 2.47675 2.61123 0
M  V30 6606 C 618.678 3.92116 2.16677 0
M  V30 6607 C 620.422 2.55877 3.38714 0
M  V30 6608 C 618.329 4.90487 3.30419 0
M  V30 6609 H 617.259 0.523787 0.542368 0
M  V30 6610 H 619.91 1.6764 0.74627 0
M  V30 6611 H 618.292 2.14018 3.33185 0
M  V30 6612 H 619.466 4.35059 1.51856 0
M  V30 6613 H 617.781 3.87642 1.5206 0
M  V30 6614 H 620.378 3.26553 4.234 0
M  V30 6615 H 620.721 1.59801 3.84408 0
M  V30 6616 H 621.254 2.88662 2.73714 0
M  V30 6617 H 617.993 5.87994 2.89729 0
M  V30 6618 H 617.513 4.52187 3.94065 0
M  V30 6619 H 619.192 5.11591 3.96085 0
M  V30 6620 N 619.324 -0.923095 1.27737 0
M  V30 6621 C 620.274 -2.01061 1.0751 0
M  V30 6622 C 621.258 -1.609 0.00165451 0
M  V30 6623 O 622.45 -1.75618 0.220724 0
M  V30 6624 C 619.579 -3.35467 0.729162 0
M  V30 6625 C 618.665 -3.82059 1.84098 0
M  V30 6626 N 619.056 -4.01115 3.08124 0
M  V30 6627 C 617.354 -4.11135 1.7287 0
M  V30 6628 C 618.055 -4.39989 3.80506 0
M  V30 6629 N 617.031 -4.47721 3.08297 0
M  V30 6630 H 620.833 -2.13832 2.01626 0
M  V30 6631 H 618.347 -1.11027 1.18519 0
M  V30 6632 H 620.344 -4.13049 0.565355 0
M  V30 6633 H 619.004 -3.24056 -0.204334 0
M  V30 6634 H 620.015 -3.87294 3.43836 0
M  V30 6635 H 616.692 -4.08412 0.866352 0
M  V30 6636 H 618.082 -4.62773 4.87125 0
M  V30 6637 N 620.802 -1.09834 -1.13024 0
M  V30 6638 C 622.05 -0.835297 -1.8403 0
M  V30 6639 C 622.371 0.640944 -1.84165 0
M  V30 6640 O 621.641 1.46517 -1.30037 0
M  V30 6641 H 620.221 -0.306018 -0.681441 0
M  V30 6642 H 622.883 -1.38734 -1.36891 0
M  V30 6643 H 621.979 -1.19258 -2.88416 0
M  V30 6644 N 622.28 1.30327 -0.886154 0
M  V30 6645 C 623.21 2.30549 -0.370028 0
M  V30 6646 C 624.191 1.61039 0.547751 0
M  V30 6647 O 625.376 1.8864 0.461353 0
M  V30 6648 C 622.506 3.44808 0.415275 0
M  V30 6649 C 621.46 4.26024 -0.41085 0
M  V30 6650 C 620.786 5.32347 0.501128 0
M  V30 6651 C 622.086 4.95433 -1.65359 0
M  V30 6652 H 623.78 2.73969 -1.20754 0
M  V30 6653 H 621.326 1.3171 -0.582097 0
M  V30 6654 H 623.279 4.13986 0.78699 0
M  V30 6655 H 622.003 3.00197 1.28644 0
M  V30 6656 H 620.662 3.58535 -0.764719 0
M  V30 6657 H 620.31 4.83982 1.37004 0
M  V30 6658 H 620.01 5.87581 -0.0478356 0
M  V30 6659 H 621.534 6.0438 0.869333 0
M  V30 6660 H 622.948 5.5712 -1.35239 0
M  V30 6661 H 621.345 5.60537 -2.14284 0
M  V30 6662 H 622.415 4.21493 -2.39733 0
M  V30 6663 N 623.758 0.647228 1.43697 0
M  V30 6664 C 624.983 0.164083 2.0675 0
M  V30 6665 C 625.408 -1.15892 1.48158 0
M  V30 6666 O 624.766 -1.71459 0.589194 0
M  V30 6667 C 624.814 0.0800368 3.60511 0
M  V30 6668 O 623.918 -0.959453 4.01084 0
M  V30 6669 H 623.259 0.0921288 0.657578 0
M  V30 6670 H 625.789 0.88846 1.84303 0
M  V30 6671 H 625.799 -0.105263 4.07864 0
M  V30 6672 H 624.474 1.04586 4.02535 0
M  V30 6673 H 623.051 -0.747425 3.65333 0
M  V30 6674 N 625.236 -1.5273 0.388769 0
M  V30 6675 C 626.184 -2.27975 -0.461527 0
M  V30 6676 C 627.178 -1.31854 -1.06352 0
M  V30 6677 O 628.384 -1.49394 -1.00406 0
M  V30 6678 H 624.759 -0.733088 -0.16759 0
M  V30 6679 H 626.73 -2.97765 0.194579 0
M  V30 6680 C 625.479 -3.09881 -1.577 0
M  V30 6681 H 624.802 -3.83701 -1.12309 0
M  V30 6682 H 626.242 -3.6567 -2.14619 0
M  V30 6683 C 624.701 -2.22159 -2.53272 0
M  V30 6684 O 625.231 -1.84802 -3.56667 0
M  V30 6685 N 623.437 -1.8633 -2.23001 0
M  V30 6686 H 622.984 -2.16909 -1.38954 0
M  V30 6687 H 622.942 -1.27927 -2.87197 0
M  V30 6688 N 626.714 -0.118576 -1.57153 0
M  V30 6689 C 627.96 0.540326 -1.95469 0
M  V30 6690 C 628.293 1.66356 -1.00196 0
M  V30 6691 O 627.568 1.94461 -0.039104 0
M  V30 6692 C 627.851 1.07342 -3.43729 0
M  V30 6693 C 627.704 -0.0463732 -4.49776 0
M  V30 6694 C 629.023 1.96442 -3.93826 0
M  V30 6695 H 626.142 0.19494 -0.710751 0
M  V30 6696 H 628.784 -0.19405 -1.89006 0
M  V30 6697 H 626.934 1.69925 -3.49368 0
M  V30 6698 H 628.606 -0.681648 -4.56236 0
M  V30 6699 H 626.849 -0.709574 -4.27957 0
M  V30 6700 H 627.52 0.367856 -5.50773 0
M  V30 6701 H 629.996 1.43731 -3.90488 0
M  V30 6702 H 628.872 2.3066 -4.98084 0
M  V30 6703 H 629.133 2.89077 -3.34495 0
M  V30 6704 N 628.193 1.56834 0.155195 0
M  V30 6705 C 629.14 1.97646 1.19184 0
M  V30 6706 C 630.11 0.842788 1.4313 0
M  V30 6707 O 631.295 1.1042 1.55602 0
M  V30 6708 C 628.435 2.35527 2.52232 0
M  V30 6709 C 627.548 3.62147 2.35529 0
M  V30 6710 C 626.683 3.89167 3.61555 0
M  V30 6711 C 625.722 5.09084 3.39853 0
M  V30 6712 N 624.859 5.32156 4.5799 0
M  V30 6713 H 629.699 2.8601 0.836802 0
M  V30 6714 H 627.236 1.41507 0.401758 0
M  V30 6715 H 629.194 2.55516 3.29799 0
M  V30 6716 H 627.824 1.50253 2.85699 0
M  V30 6717 H 626.876 3.4998 1.49057 0
M  V30 6718 H 628.188 4.49871 2.15448 0
M  V30 6719 H 627.342 4.09611 4.47553 0
M  V30 6720 H 626.081 2.9985 3.84632 0
M  V30 6721 H 625.086 4.88522 2.52243 0
M  V30 6722 H 626.311 5.99947 3.18183 0
M  V30 6723 H 624.257 4.45791 4.81255 0
M  V30 6724 H 624.174 6.14133 4.40882 0
M  V30 6725 H 625.442 5.57091 5.45225 0
M  V30 6726 N 629.671 -0.424282 1.51781 0
M  V30 6727 C 630.601 -1.52305 1.7699 0
M  V30 6728 C 631.582 -1.5839 0.620209 0
M  V30 6729 O 632.767 -1.73908 0.864268 0
M  V30 6730 C 629.897 -2.90271 1.90683 0
M  V30 6731 C 628.851 -2.99043 3.06198 0
M  V30 6732 C 628.177 -4.39116 3.05092 0
M  V30 6733 C 629.477 -2.7192 4.45934 0
M  V30 6734 H 631.171 -1.31461 2.68995 0
M  V30 6735 H 628.717 -0.630985 1.29439 0
M  V30 6736 H 630.67 -3.6711 2.06901 0
M  V30 6737 H 629.394 -3.12376 0.953365 0
M  V30 6738 H 628.053 -2.24646 2.89706 0
M  V30 6739 H 627.701 -4.58207 2.07498 0
M  V30 6740 H 627.401 -4.45912 3.82669 0
M  V30 6741 H 628.925 -5.17911 3.2342 0
M  V30 6742 H 630.339 -3.38487 4.62709 0
M  V30 6743 H 628.736 -2.90111 5.25315 0
M  V30 6744 H 629.806 -1.67445 4.55072 0
M  V30 6745 N 631.149 -1.42148 -0.680565 0
M  V30 6746 C 632.097 -1.45401 -1.81552 0
M  V30 6747 C 633.091 -0.33036 -1.66147 0
M  V30 6748 O 634.297 -0.503103 -1.72826 0
M  V30 6749 H 630.672 -0.455265 -0.59853 0
M  V30 6750 H 632.643 -2.41024 -1.75926 0
M  V30 6751 C 631.392 -1.36769 -3.19671 0
M  V30 6752 H 630.715 -2.22525 -3.32149 0
M  V30 6753 H 632.155 -1.43106 -3.9912 0
M  V30 6754 C 630.614 -0.0817752 -3.36801 0
M  V30 6755 O 631.144 0.867707 -3.92216 0
M  V30 6756 N 629.35 -0.000799811 -2.906 0
M  V30 6757 H 628.897 -0.774231 -2.4569 0
M  V30 6758 H 628.855 0.858961 -3.02439 0
M  V30 6759 N 632.627 0.916307 -1.28225 0
M  V30 6760 C 633.537 2.05165 -1.13775 0
M  V30 6761 C 634.553 1.73879 -0.0649418 0
M  V30 6762 O 635.729 1.99531 -0.273722 0
M  V30 6763 C 632.794 3.37385 -0.798267 0
M  V30 6764 C 631.855 3.82296 -1.95316 0
M  V30 6765 C 631.088 5.08206 -1.62978 0
M  V30 6766 O 631.311 5.6781 -0.542948 0
M  V30 6767 O 630.245 5.48768 -2.47261 0
M  V30 6768 H 634.071 2.20273 -2.09078 0
M  V30 6769 H 631.656 1.0373 -1.07519 0
M  V30 6770 H 633.538 4.16773 -0.62278 0
M  V30 6771 H 632.213 3.23458 0.125139 0
M  V30 6772 H 631.12 3.03746 -2.18378 0
M  V30 6773 H 632.453 4.00782 -2.85718 0
M  V30 6774 N 634.105 1.10431 1.1244 0
M  V30 6775 C 635.055 0.722378 2.16254 0
M  V30 6776 C 636.039 -0.268427 1.58645 0
M  V30 6777 O 637.231 -0.077169 1.76832 0
M  V30 6778 C 634.36 0.155763 3.42946 0
M  V30 6779 C 633.446 1.17361 4.07538 0
M  V30 6780 N 633.837 2.36429 4.47141 0
M  V30 6781 C 632.135 1.01412 4.34317 0
M  V30 6782 C 632.836 3.01259 4.97612 0
M  V30 6783 N 631.812 2.28777 4.93115 0
M  V30 6784 H 635.614 1.62876 2.4464 0
M  V30 6785 H 633.128 0.982031 1.29344 0
M  V30 6786 H 635.125 -0.135936 4.16678 0
M  V30 6787 H 633.785 -0.745339 3.1603 0
M  V30 6788 H 634.796 2.73954 4.39511 0
M  V30 6789 H 631.473 0.168574 4.1716 0
M  V30 6790 H 632.863 4.02541 5.37968 0
M  V30 6791 N 635.583 -1.29855 0.893053 0
M  V30 6792 C 636.83 -1.95826 0.515585 0
M  V30 6793 C 637.158 -1.70451 -0.936842 0
M  V30 6794 O 636.413 -1.00657 -1.67829 0
M  V30 6795 C 636.712 -3.49515 0.746588 0
M  V30 6796 C 636.378 -3.94955 2.17535 0
M  V30 6797 C 635.04 -4.07073 2.56603 0
M  V30 6798 C 637.392 -4.18536 3.10607 0
M  V30 6799 C 634.72 -4.40138 3.87938 0
M  V30 6800 C 637.072 -4.53073 4.41484 0
M  V30 6801 C 635.736 -4.634 4.80434 0
M  V30 6802 H 635.006 -0.71658 0.188666 0
M  V30 6803 H 637.653 -1.54574 1.13045 0
M  V30 6804 H 635.958 -3.9177 0.0487551 0
M  V30 6805 H 637.655 -3.98644 0.434009 0
M  V30 6806 H 634.245 -3.86035 1.86212 0
M  V30 6807 H 638.429 -4.08646 2.81641 0
M  V30 6808 H 633.685 -4.46335 4.17846 0
M  V30 6809 H 637.859 -4.70269 5.13634 0
M  V30 6810 H 635.486 -4.88775 5.82239 0
M  V30 6811 N 637.061 -0.65484 -1.43351 0
M  V30 6812 C 637.991 0.0221809 -2.33489 0
M  V30 6813 C 638.972 0.810272 -1.49561 0
M  V30 6814 O 640.157 0.771426 -1.78221 0
M  V30 6815 C 637.287 0.988117 -3.32947 0
M  V30 6816 C 636.241 0.310026 -4.26876 0
M  V30 6817 C 635.567 1.38752 -5.16384 0
M  V30 6818 C 636.867 -0.798589 -5.16159 0
M  V30 6819 H 638.561 -0.730571 -2.9035 0
M  V30 6820 H 636.107 -0.352773 -1.39612 0
M  V30 6821 H 638.06 1.47067 -3.94904 0
M  V30 6822 H 636.784 1.77205 -2.74346 0
M  V30 6823 H 635.443 -0.152097 -3.66284 0
M  V30 6824 H 635.091 2.16293 -4.54121 0
M  V30 6825 H 634.791 0.939051 -5.80048 0
M  V30 6826 H 636.315 1.87141 -5.81215 0
M  V30 6827 H 637.729 -0.398126 -5.71916 0
M  V30 6828 H 636.126 -1.17163 -5.88552 0
M  V30 6829 H 637.196 -1.65588 -4.55751 0
M  V30 6830 N 638.539 1.52521 -0.396863 0
M  V30 6831 C 639.487 2.28217 0.44943 0
M  V30 6832 C 640.481 1.32416 1.05652 0
M  V30 6833 O 641.687 1.49925 0.996124 0
M  V30 6834 H 638.062 0.733966 0.1637 0
M  V30 6835 H 640.033 2.97658 -0.210367 0
M  V30 6836 C 638.782 3.10713 1.56054 0
M  V30 6837 H 638.105 3.84291 1.10273 0
M  V30 6838 H 639.545 3.66803 2.12677 0
M  V30 6839 C 638.004 2.23499 2.52091 0
M  V30 6840 O 638.534 1.8669 3.55682 0
M  V30 6841 N 636.74 1.8751 2.2201 0
M  V30 6842 H 636.287 2.17643 1.37802 0
M  V30 6843 H 636.245 1.29448 2.86514 0
M  V30 6844 N 640.017 0.126909 1.57088 0
M  V30 6845 C 641.245 -0.53667 1.99819 0
M  V30 6846 C 641.66 -1.5972 1.00673 0
M  V30 6847 O 641.017 -1.825 0.000747365 0
M  V30 6848 C 641.068 -1.15563 3.42531 0
M  V30 6849 O 640.789 -0.137483 4.37884 0
M  V30 6850 C 642.29 -1.90176 4.00435 0
M  V30 6851 H 639.51 -0.141443 0.655923 0
M  V30 6852 H 642.054 0.215578 2.03361 0
M  V30 6853 H 640.209 -1.85861 3.39904 0
M  V30 6854 H 640.623 -0.588229 5.21191 0
M  V30 6855 H 642.097 -2.28801 5.02349 0
M  V30 6856 H 642.574 -2.78002 3.40017 0
M  V30 6857 H 643.18 -1.24623 4.06632 0
M  V30 6858 N 641.495 -1.56914 -0.146875 0
M  V30 6859 C 642.723 -1.87515 -0.874394 0
M  V30 6860 C 643.138 -0.715116 -1.74733 0
M  V30 6861 O 642.495 0.315113 -1.79759 0
M  V30 6862 C 642.546 -3.17362 -1.731 0
M  V30 6863 O 642.267 -4.28897 -0.893245 0
M  V30 6864 C 643.768 -3.61479 -2.56609 0
M  V30 6865 H 640.988 -0.621546 -0.252827 0
M  V30 6866 H 643.532 -2.04023 -0.139627 0
M  V30 6867 H 641.687 -3.02608 -2.41883 0
M  V30 6868 H 642.101 -5.03146 -1.48137 0
M  V30 6869 H 643.575 -4.5517 -3.12289 0
M  V30 6870 H 644.052 -2.86773 -3.32653 0
M  V30 6871 H 644.658 -3.78927 -1.93117 0
M  V30 6872 N 642.974 0.416227 -1.52004 0
M  V30 6873 C 644.251 1.17637 -1.56272 0
M  V30 6874 C 644.631 2.08352 -0.339493 0
M  V30 6875 O 643.979 2.1833 0.674124 0
M  V30 6876 C 644.189 1.95986 -2.88774 0
M  V30 6877 C 645.537 2.52299 -3.41512 0
M  V30 6878 O 646.561 2.06174 -2.90467 0
M  V30 6879 O 645.42 3.3648 -4.30631 0
M  V30 6880 H 642.514 0.536726 -0.629169 0
M  V30 6881 H 645.06 0.423583 -1.64329 0
M  V30 6882 H 643.832 1.29487 -3.69254 0
M  V30 6883 H 643.455 2.78285 -2.83978 0
M  V30 6884 N 644.452 1.42507 0.673017 0
M  V30 6885 C 645.699 1.43072 1.43306 0
M  V30 6886 C 646.027 0.0478004 1.94441 0
M  V30 6887 O 645.282 -0.944106 1.71421 0
M  V30 6888 C 645.581 2.40351 2.64511 0
M  V30 6889 C 645.247 3.8669 2.31908 0
M  V30 6890 C 643.909 4.26551 2.22728 0
M  V30 6891 C 646.261 4.78991 2.05467 0
M  V30 6892 C 643.589 5.56691 1.85234 0
M  V30 6893 C 645.941 6.09476 1.69477 0
M  V30 6894 C 644.605 6.48334 1.58808 0
M  V30 6895 H 643.875 0.523536 0.524395 0
M  V30 6896 H 646.522 1.75459 0.76723 0
M  V30 6897 H 644.827 2.01297 3.36135 0
M  V30 6898 H 646.524 2.38051 3.22696 0
M  V30 6899 H 643.114 3.55132 2.39956 0
M  V30 6900 H 647.298 4.48982 2.11492 0
M  V30 6901 H 642.554 5.85657 1.75545 0
M  V30 6902 H 646.728 6.80482 1.48043 0
M  V30 6903 H 644.355 7.49084 1.29525 0
M  V30 6904 N 645.93 -0.909495 1.28709 0
M  V30 6905 C 646.86 -2.0291 1.15542 0
M  V30 6906 C 647.841 -1.7002 0.0521017 0
M  V30 6907 O 649.026 -1.92835 0.229849 0
M  V30 6908 C 646.156 -3.37458 0.820935 0
M  V30 6909 C 645.11 -3.84524 1.87949 0
M  V30 6910 C 644.436 -5.16086 1.39854 0
M  V30 6911 C 645.736 -4.05918 3.28676 0
M  V30 6912 H 647.43 -2.14183 2.09203 0
M  V30 6913 H 644.976 -1.02913 1.00722 0
M  V30 6914 H 646.929 -4.1528 0.715571 0
M  V30 6915 H 645.653 -3.26249 -0.151374 0
M  V30 6916 H 644.312 -3.08911 1.97408 0
M  V30 6917 H 643.96 -5.01284 0.41518 0
M  V30 6918 H 643.66 -5.48547 2.1064 0
M  V30 6919 H 645.184 -5.96459 1.30649 0
M  V30 6920 H 646.598 -4.74252 3.22115 0
M  V30 6921 H 644.995 -4.49717 3.97334 0
M  V30 6922 H 646.065 -3.10583 3.72379 0
M  V30 6923 N 647.408 -1.11026 -1.11852 0
M  V30 6924 C 648.685 -0.768347 -1.79877 0
M  V30 6925 C 649.065 0.744261 -1.97545 0
M  V30 6926 O 648.413 1.67271 -1.55669 0
M  V30 6927 C 648.623 -1.52648 -3.13846 0
M  V30 6928 C 649.971 -1.70297 -3.88953 0
M  V30 6929 O 650.995 -1.49037 -3.23522 0
M  V30 6930 O 649.854 -2.05593 -5.06353 0
M  V30 6931 H 646.948 -0.277891 -0.778913 0
M  V30 6932 H 649.494 -1.21343 -1.18633 0
M  V30 6933 H 648.266 -2.55564 -2.96315 0
M  V30 6934 H 647.889 -1.07466 -3.82801 0
M  V30 6935 N 648.886 1.2938 -0.899927 0
M  V30 6936 C 650.114 1.99691 -0.541386 0
M  V30 6937 C 650.529 1.67355 0.873936 0
M  V30 6938 O 649.886 0.918728 1.57688 0
M  V30 6939 C 649.937 3.54168 -0.72438 0
M  V30 6940 O 649.658 3.85359 -2.08399 0
M  V30 6941 C 651.159 4.41746 -0.370819 0
M  V30 6942 H 648.379 0.638037 -0.207726 0
M  V30 6943 H 650.923 1.6491 -1.20934 0
M  V30 6944 H 649.078 3.87261 -0.103607 0
M  V30 6945 H 649.492 4.80032 -2.11352 0
M  V30 6946 H 650.966 5.49256 -0.549693 0
M  V30 6947 H 651.443 4.33712 0.692148 0
M  V30 6948 H 652.049 4.14125 -0.968543 0
M  V30 6949 N 650.364 0.662433 1.43002 0
M  V30 6950 C 651.613 0.176873 2.00923 0
M  V30 6951 C 651.926 -1.21954 1.52927 0
M  V30 6952 O 653.132 -1.80081 2.03182 0
M  V30 6953 C 651.588 0.265379 3.5892 0
M  V30 6954 C 651.196 1.66507 4.15908 0
M  V30 6955 C 652.94 -0.162103 4.2419 0
M  V30 6956 C 650.847 1.707 5.66229 0
M  V30 6957 H 649.777 0.0623627 0.751417 0
M  V30 6958 H 652.428 0.825813 1.63868 0
M  V30 6959 H 650.81 -0.451235 3.93421 0
M  V30 6960 H 651.984 2.40777 3.92891 0
M  V30 6961 H 650.299 2.03932 3.63044 0
M  V30 6962 H 652.896 -0.150745 5.34487 0
M  V30 6963 H 653.239 -1.19519 3.98774 0
M  V30 6964 H 653.772 0.503075 3.94606 0
M  V30 6965 H 650.511 2.7195 5.96426 0
M  V30 6966 H 650.031 1.00768 5.91275 0
M  V30 6967 H 651.71 1.45487 6.3043 0
M  V30 6968 N 651.842 -1.52309 0.404946 0
M  V30 6969 C 652.789 -2.26898 -0.422597 0
M  V30 6970 C 653.759 -1.2914 -1.04461 0
M  V30 6971 O 654.944 -1.57996 -1.06967 0
M  V30 6972 C 652.084 -3.09053 -1.53559 0
M  V30 6973 C 651.197 -4.21762 -0.934908 0
M  V30 6974 C 650.332 -4.91283 -2.02025 0
M  V30 6975 C 649.371 -5.95962 -1.39628 0
M  V30 6976 N 648.508 -6.59017 -2.42159 0
M  V30 6977 H 653.348 -2.97188 0.219903 0
M  V30 6978 H 650.885 -1.46607 0.120282 0
M  V30 6979 H 652.843 -3.54987 -2.19181 0
M  V30 6980 H 651.473 -2.40942 -2.14818 0
M  V30 6981 H 650.525 -3.80029 -0.167854 0
M  V30 6982 H 651.837 -4.96864 -0.439073 0
M  V30 6983 H 650.991 -5.40601 -2.75383 0
M  V30 6984 H 649.73 -4.15741 -2.54973 0
M  V30 6985 H 648.735 -5.45968 -0.648023 0
M  V30 6986 H 649.96 -6.73445 -0.874553 0
M  V30 6987 H 647.906 -5.86306 -2.94247 0
M  V30 6988 H 647.823 -7.2978 -1.97376 0
M  V30 6989 H 649.091 -7.12974 -3.15099 0
M  V30 6990 N 653.32 -0.135238 -1.57019 0
M  V30 6991 C 654.545 0.529343 -2.00531 0
M  V30 6992 C 654.97 1.58391 -1.01459 0
M  V30 6993 O 654.328 1.81296 0.0113986 0
M  V30 6994 C 654.376 1.11748 -3.42848 0
M  V30 6995 O 653.48 2.23267 -3.46736 0
M  V30 6996 H 652.821 0.130669 -0.651016 0
M  V30 6997 H 655.351 -0.228503 -2.0332 0
M  V30 6998 H 655.361 1.44905 -3.81401 0
M  V30 6999 H 654.036 0.345147 -4.14465 0
M  V30 7000 H 652.613 1.91428 -3.20015 0
M  V30 7001 N 654.798 1.5699 0.138552 0
M  V30 7002 C 655.746 1.99858 1.18994 0
M  V30 7003 C 656.74 0.89231 1.43994 0
M  V30 7004 O 657.946 1.0775 1.44187 0
M  V30 7005 H 654.321 0.636325 0.400743 0
M  V30 7006 H 656.292 2.87427 0.801755 0
M  V30 7007 C 655.041 2.40235 2.51361 0
M  V30 7008 H 654.364 3.24917 2.32957 0
M  V30 7009 H 655.804 2.74045 3.23535 0
M  V30 7010 C 654.263 1.25829 3.1252 0
M  V30 7011 O 654.793 0.563604 3.97727 0
M  V30 7012 N 652.999 1.02036 2.72097 0
M  V30 7013 H 652.546 1.58705 2.02905 0
M  V30 7014 H 652.504 0.256796 3.1335 0
M  V30 7015 N 656.276 -0.40816 1.52223 0
M  V30 7016 C 657.206 -1.5042 1.78595 0
M  V30 7017 C 658.187 -1.57723 0.636974 0
M  V30 7018 O 659.372 -1.72982 0.882664 0
M  V30 7019 C 656.502 -2.88232 1.93751 0
M  V30 7020 C 655.456 -2.95779 3.09352 0
M  V30 7021 C 654.782 -4.35855 3.09732 0
M  V30 7022 C 656.082 -2.67175 4.48793 0
M  V30 7023 H 657.776 -1.28601 2.70374 0
M  V30 7024 H 655.322 -0.617221 1.30101 0
M  V30 7025 H 657.275 -3.64895 2.10783 0
M  V30 7026 H 655.999 -3.11347 0.986443 0
M  V30 7027 H 654.658 -2.21561 2.92072 0
M  V30 7028 H 654.306 -4.55981 2.12346 0
M  V30 7029 H 654.006 -4.41829 3.87377 0
M  V30 7030 H 655.53 -5.14451 3.28895 0
M  V30 7031 H 656.944 -3.3356 4.66273 0
M  V30 7032 H 655.341 -2.84523 5.28362 0
M  V30 7033 H 656.411 -1.62609 4.56822 0
M  V30 7034 N 657.755 -1.42862 -0.66545 0
M  V30 7035 C 659.032 -1.3431 -1.42197 0
M  V30 7036 C 659.412 0.0150265 -2.11095 0
M  V30 7037 O 658.76 1.03101 -2.03918 0
M  V30 7038 C 658.97 -2.51783 -2.41674 0
M  V30 7039 C 660.318 -2.94321 -3.0604 0
M  V30 7040 O 661.342 -2.51741 -2.52001 0
M  V30 7041 O 660.201 -3.68047 -4.03985 0
M  V30 7042 H 657.295 -0.530159 -0.634713 0
M  V30 7043 H 659.841 -1.54888 -0.693386 0
M  V30 7044 H 658.613 -3.42282 -1.89627 0
M  V30 7045 H 658.236 -2.33241 -3.22001 0
M  V30 7046 N 659.233 0.902656 -1.29189 0
M  V30 7047 C 660.649 1.18296 -1.07137 0
M  V30 7048 C 660.849 2.00701 0.179223 0
M  V30 7049 O 659.905 2.3675 0.877812 0
M  V30 7050 C 661.218 1.90677 -2.32514 0
M  V30 7051 C 662.766 2.03515 -2.37804 0
M  V30 7052 C 663.241 2.79307 -3.62976 0
M  V30 7053 N 664.732 2.86862 -3.63681 0
M  V30 7054 C 665.467 3.46035 -4.57217 0
M  V30 7055 N 664.963 4.06399 -5.61081 0
M  V30 7056 N 666.756 3.43681 -4.44792 0
M  V30 7057 H 658.907 0.352765 -2.0945 0
M  V30 7058 H 661.17 0.21876 -0.922414 0
M  V30 7059 H 660.876 1.3756 -3.23682 0
M  V30 7060 H 660.75 2.91169 -2.39793 0
M  V30 7061 H 663.137 2.55809 -1.47125 0
M  V30 7062 H 663.218 1.02166 -2.34512 0
M  V30 7063 H 662.862 2.2769 -4.54004 0
M  V30 7064 H 662.792 3.80995 -3.63525 0
M  V30 7065 H 665.283 2.43987 -2.88581 0
M  V30 7066 H 665.596 4.49564 -6.2858 0
M  V30 7067 H 663.941 4.0487 -5.64894 0
M  V30 7068 H 667.132 2.9574 -3.62843 0
M  V30 7069 H 667.305 3.89503 -5.17872 0
M  V30 7070 N 660.711 1.11618 1.11262 0
M  V30 7071 C 661.674 0.779447 2.15539 0
M  V30 7072 C 662.674 -0.202081 1.59525 0
M  V30 7073 O 663.864 0.0226356 1.74185 0
M  V30 7074 C 660.996 0.15674 3.40539 0
M  V30 7075 H 662.189 1.70324 2.4684 0
M  V30 7076 H 659.742 0.918298 1.26479 0
M  V30 7077 H 660.477 -0.777186 3.1485 0
M  V30 7078 H 660.262 0.863308 3.82478 0
M  V30 7079 H 661.752 -0.062661 4.17553 0
M  V30 7080 N 662.189 -1.289 0.906776 0
M  V30 7081 C 663.119 -2.29932 0.406659 0
M  V30 7082 C 664.1 -1.6189 -0.522061 0
M  V30 7083 O 665.285 -1.8935 -0.431283 0
M  V30 7084 C 662.415 -3.45425 -0.360366 0
M  V30 7085 C 661.369 -4.25316 0.478574 0
M  V30 7086 C 660.695 -5.33076 -0.416373 0
M  V30 7087 C 661.995 -4.92739 1.7322 0
M  V30 7088 H 663.689 -2.72013 1.25097 0
M  V30 7089 H 661.235 -1.30768 0.602977 0
M  V30 7090 H 663.188 -4.15186 -0.721029 0
M  V30 7091 H 661.912 -3.02206 -1.23852 0
M  V30 7092 H 660.571 -3.57273 0.821662 0
M  V30 7093 H 660.219 -4.86101 -1.29287 0
M  V30 7094 H 659.919 -5.8743 0.141309 0
M  V30 7095 H 661.443 -6.05686 -0.773072 0
M  V30 7096 H 662.857 -5.54898 1.44086 0
M  V30 7097 H 661.254 -5.57057 2.23175 0
M  V30 7098 H 662.324 -4.17625 2.46408 0
M  V30 7099 N 663.667 -0.670007 -1.42649 0
M  V30 7100 C 664.915 -0.18991 -2.01206 0
M  V30 7101 C 665.236 1.20617 -1.53221 0
M  V30 7102 O 664.506 1.80898 -0.751856 0
M  V30 7103 H 663.086 -0.0672189 -0.743969 0
M  V30 7104 H 665.748 -0.865442 -1.74631 0
M  V30 7105 H 664.844 -0.187481 -3.11536 0
M  V30 7106 N 665.145 1.52092 -0.413018 0
M  V30 7107 C 666.561 1.59471 -0.0640836 0
M  V30 7108 C 666.761 1.42562 1.42402 0
M  V30 7109 O 665.817 1.25453 2.19129 0
M  V30 7110 C 667.13 2.95392 -0.562474 0
M  V30 7111 C 668.678 3.08637 -0.520788 0
M  V30 7112 C 669.153 4.47044 -0.995752 0
M  V30 7113 N 670.644 4.53296 -0.952732 0
M  V30 7114 C 671.379 5.58669 -1.29138 0
M  V30 7115 N 670.875 6.71576 -1.70168 0
M  V30 7116 N 672.668 5.48898 -1.2111 0
M  V30 7117 H 664.819 1.6133 -1.38153 0
M  V30 7118 H 667.082 0.75916 -0.567785 0
M  V30 7119 H 666.788 3.13059 -1.60271 0
M  V30 7120 H 666.662 3.77191 0.0257875 0
M  V30 7121 H 669.049 2.90652 0.510412 0
M  V30 7122 H 669.13 2.28735 -1.14515 0
M  V30 7123 H 668.774 4.65773 -2.0253 0
M  V30 7124 H 668.704 5.25448 -0.348162 0
M  V30 7125 H 671.195 3.72248 -0.651119 0
M  V30 7126 H 671.508 7.47973 -1.9431 0
M  V30 7127 H 669.853 6.72847 -1.74075 0
M  V30 7128 H 673.044 4.59573 -0.889396 0
M  V30 7129 H 673.217 6.30912 -1.47833 0
M  V30 7130 N 666.623 0.143563 1.56945 0
M  V30 7131 C 667.555 -0.828353 2.13708 0
M  V30 7132 C 668.568 -1.21313 1.08568 0
M  V30 7133 O 669.757 -1.1578 1.35857 0
M  V30 7134 C 666.857 -2.12248 2.64204 0
M  V30 7135 C 666.03 -1.90561 3.93707 0
M  V30 7136 C 665.089 -3.03931 4.29549 0
M  V30 7137 O 664.115 -2.75772 4.97934 0
M  V30 7138 N 665.317 -4.31016 3.88852 0
M  V30 7139 H 668.082 -0.343242 2.97728 0
M  V30 7140 H 665.643 -0.0401152 1.6185 0
M  V30 7141 H 667.635 -2.87132 2.85197 0
M  V30 7142 H 666.205 -2.52033 1.84928 0
M  V30 7143 H 665.425 -0.997327 3.81375 0
M  V30 7144 H 666.713 -1.73405 4.78339 0
M  V30 7145 H 666.111 -4.56762 3.33743 0
M  V30 7146 H 664.668 -5.02691 4.14903 0
M  V30 7147 O 668.14 -1.61499 0.00487092 0
M  V30 7148 H 668.831 -1.83807 -0.611124 0
M  V30 END ATOM
M  V30 BEGIN BOND
M  V30 END BOND
M  V30 END CTAB
M  END
$$$$
