drugbank_target|P0A112 Naphthalene 1,2-dioxygenase subunit beta (DB08264)
 OpenBabel12092120503D

  0  0  0     0  0            999 V3000
M  V30 BEGIN CTAB
M  V30 COUNTS 3211 3241 0 0 0
M  V30 BEGIN ATOM
M  V30 1 H -0.908 1.98254 -0.117106 0
M  V30 2 N 0 1.576 0 0
M  V30 3 C 0.933 2.03868 1.02534 0
M  V30 4 C 1.911 0.928543 1.3348 0
M  V30 5 O 3.095 1.19667 1.45644 0
M  V30 6 C 0.222 2.43627 2.35294 0
M  V30 7 C -0.732 3.65373 2.2001 0
M  V30 8 S 0.101 5.13292 1.52614 0
M  V30 9 C 1.257 5.56322 2.86805 0
M  V30 10 H 1.49 2.90518 0.631377 0
M  V30 11 H -0.977 1.52953 0.210867 0
M  V30 12 H 0.981 2.67203 3.11629 0
M  V30 13 H -0.358 1.57376 2.7183 0
M  V30 14 H -1.165 3.90944 3.18086 0
M  V30 15 H -1.563 3.418 1.51819 0
M  V30 16 H 0.729 5.58782 3.83104 0
M  V30 17 H 1.672 6.56266 2.65933 0
M  V30 18 H 2.08 4.83886 2.90714 0
M  V30 19 N 1.4781 -0.272755 1.55222 0
M  V30 20 C 2.4111 -1.3627 1.83046 0
M  V30 21 C 3.3891 -1.47536 0.683521 0
M  V30 22 O 4.5731 -1.64157 0.926545 0
M  V30 23 C 1.7001 -2.73908 1.99229 0
M  V30 24 C 0.7461 -2.79925 3.21783 0
M  V30 25 S 1.5791 -2.39146 4.79134 0
M  V30 26 C 2.7351 -3.78758 4.9829 0
M  V30 27 H 2.9681 -1.12464 2.75207 0
M  V30 28 H 0.5011 -0.472398 1.46996 0
M  V30 29 H 2.4591 -3.53171 2.09238 0
M  V30 30 H 1.1201 -2.94965 1.07956 0
M  V30 31 H 0.3131 -3.80946 3.29994 0
M  V30 32 H -0.0849 -2.08683 3.10367 0
M  V30 33 H 2.2071 -4.7403 4.84047 0
M  V30 34 H 3.1501 -3.75499 6.00338 0
M  V30 35 H 3.5581 -3.70072 4.26271 0
M  V30 36 N 2.9562 -1.48159 -0.537278 0
M  V30 37 C 4.2052 -1.5506 -1.28993 0
M  V30 38 C 4.5182 -0.226211 -1.94288 0
M  V30 39 O 5.7242 -0.173395 -2.70946 0
M  V30 40 C 4.1802 -2.73429 -2.34018 0
M  V30 41 C 3.7882 -4.1248 -1.74825 0
M  V30 42 C 5.5322 -2.89638 -3.10339 0
M  V30 43 C 3.4392 -5.22121 -2.77747 0
M  V30 44 H 2.3692 -0.577231 -0.485098 0
M  V30 45 H 5.0202 -1.74478 -0.568317 0
M  V30 46 H 3.4022 -2.47431 -3.09182 0
M  V30 47 H 4.5762 -4.48466 -1.05899 0
M  V30 48 H 2.8912 -4.01327 -1.11022 0
M  V30 49 H 5.4882 -3.68718 -3.87235 0
M  V30 50 H 5.8312 -1.9882 -3.65754 0
M  V30 51 H 6.3642 -3.15502 -2.42288 0
M  V30 52 H 3.1032 -6.1488 -2.27161 0
M  V30 53 H 2.6232 -4.90631 -3.45024 0
M  V30 54 H 4.3022 -5.49924 -3.4087 0
M  V30 55 N 4.4343 0.785586 -1.36625 0
M  V30 56 C 5.3823 1.91978 -1.31329 0
M  V30 57 C 6.3763 1.68162 -0.204416 0
M  V30 58 O 7.5823 1.76122 -0.371645 0
M  V30 59 H 3.9573 0.631087 -0.408942 0
M  V30 60 H 5.9283 1.93562 -2.27104 0
M  V30 61 C 4.6773 3.29055 -1.12329 0
M  V30 62 H 4.0003 3.4795 -1.96903 0
M  V30 63 H 5.4403 4.08756 -1.12671 0
M  V30 64 C 3.8993 3.36461 0.171861 0
M  V30 65 O 4.4293 3.84576 1.16035 0
M  V30 66 N 2.6353 2.89782 0.217846 0
M  V30 67 H 2.1823 2.50819 -0.587183 0
M  V30 68 H 2.1403 2.95119 1.08408 0
M  V30 69 N 5.9124 1.20967 1.01018 0
M  V30 70 C 7.1614 1.01796 1.74128 0
M  V30 71 C 7.4744 -0.449691 1.90361 0
M  V30 72 O 8.6804 -0.76068 2.60626 0
M  V30 73 C 7.1364 1.7727 3.13215 0
M  V30 74 C 6.7444 3.28171 3.04972 0
M  V30 75 C 8.4884 1.66489 3.90489 0
M  V30 76 C 6.3954 3.96156 4.39107 0
M  V30 77 H 5.3254 0.377276 0.652824 0
M  V30 78 H 7.9764 1.44651 1.12909 0
M  V30 79 H 6.3584 1.27205 3.75013 0
M  V30 80 H 7.5324 3.85499 2.52443 0
M  V30 81 H 5.8474 3.39437 2.41188 0
M  V30 82 H 8.4444 2.14617 4.89738 0
M  V30 83 H 8.7874 0.6222 4.11624 0
M  V30 84 H 9.3204 2.14003 3.35332 0
M  V30 85 H 6.0594 5.00604 4.23174 0
M  V30 86 H 5.5794 3.43617 4.91617 0
M  V30 87 H 7.2584 4.00774 5.07926 0
M  V30 88 N 7.3905 -1.2043 1.01659 0
M  V30 89 C 8.3225 -2.22626 0.544988 0
M  V30 90 C 9.3355 -1.58479 -0.372609 0
M  V30 91 O 10.5245 -1.77679 -0.170958 0
M  V30 92 C 7.6245 -3.38141 -0.22663 0
M  V30 93 C 6.7975 -4.31877 0.692876 0
M  V30 94 C 5.8565 -5.26191 -0.0311616 0
M  V30 95 O 4.8825 -5.6612 0.591343 0
M  V30 96 N 6.0845 -5.65618 -1.30601 0
M  V30 97 H 8.8495 -2.63716 1.42388 0
M  V30 98 H 6.4105 -1.34971 0.894116 0
M  V30 99 H 8.4025 -3.98239 -0.72024 0
M  V30 100 H 6.9725 -2.95943 -1.00681 0
M  V30 101 H 6.1925 -3.69746 1.36679 0
M  V30 102 H 7.4805 -4.91426 1.31824 0
M  V30 103 H 6.8785 -5.3519 -1.83269 0
M  V30 104 H 5.4355 -6.28025 -1.74435 0
M  V30 105 N 8.8686 -0.792821 -1.36206 0
M  V30 106 C 9.7786 -0.194808 -2.3379 0
M  V30 107 C 10.7946 0.654869 -1.61206 0
M  V30 108 O 11.9706 0.569856 -1.9317 0
M  V30 109 C 9.0356 0.657721 -3.40404 0
M  V30 110 C 8.0966 -0.210849 -4.28782 0
M  V30 111 C 7.3296 0.601086 -5.30304 0
M  V30 112 O 7.5526 1.83682 -5.40016 0
M  V30 113 O 6.4866 -0.000808277 -6.019 0
M  V30 114 H 10.3126 -1.00172 -2.86704 0
M  V30 115 H 7.8976 -0.554341 -1.38735 0
M  V30 116 H 9.7796 1.14375 -4.05581 0
M  V30 117 H 8.4546 1.44247 -2.89784 0
M  V30 118 H 7.3616 -0.743714 -3.66633 0
M  V30 119 H 8.6946 -0.959195 -4.82763 0
M  V30 120 N 10.3467 1.47872 -0.545128 0
M  V30 121 C 11.6237 1.9554 0.0485222 0
M  V30 122 C 12.0037 1.4876 1.49779 0
M  V30 123 O 11.3517 0.720925 2.16829 0
M  V30 124 C 11.5617 3.48898 -0.084417 0
M  V30 125 C 12.9097 4.24547 0.0671239 0
M  V30 126 O 13.9337 3.56198 -0.0113649 0
M  V30 127 O 12.7927 5.45999 0.233882 0
M  V30 128 H 9.8867 0.823957 0.0708773 0
M  V30 129 H 12.4327 1.58327 -0.610798 0
M  V30 130 H 11.2047 3.75714 -1.09337 0
M  V30 131 H 10.8277 3.92845 0.613066 0
M  V30 132 N 11.8248 0.280983 1.55075 0
M  V30 133 C 12.7718 -0.603937 2.22758 0
M  V30 134 C 13.7418 -1.1452 1.20309 0
M  V30 135 O 14.9268 -1.19343 1.48869 0
M  V30 136 C 12.0668 -1.77947 2.95684 0
M  V30 137 C 11.1798 -1.2715 4.12864 0
M  V30 138 C 10.3148 -2.4093 4.7342 0
M  V30 139 C 9.3538 -1.87165 5.82783 0
M  V30 140 N 8.4908 -2.94441 6.37377 0
M  V30 141 H 13.3308 -0.020124 2.97993 0
M  V30 142 H 10.8678 0.00183425 1.471 0
M  V30 143 H 12.8258 -2.47055 3.36184 0
M  V30 144 H 11.4558 -2.33522 2.22861 0
M  V30 145 H 10.5078 -0.473331 3.77444 0
M  V30 146 H 11.8198 -0.837751 4.91715 0
M  V30 147 H 10.9738 -3.18021 5.1667 0
M  V30 148 H 9.7128 -2.87623 3.93859 0
M  V30 149 H 8.7178 -1.08556 5.38976 0
M  V30 150 H 9.9428 -1.41401 6.64216 0
M  V30 151 H 7.8888 -3.40505 5.60707 0
M  V30 152 H 7.8058 -2.55501 7.11516 0
M  V30 153 H 9.0738 -3.71489 6.85285 0
M  V30 154 N 13.3029 -1.57598 0.00835791 0
M  V30 155 C 14.2329 -2.1198 -0.979113 0
M  V30 156 C 15.2139 -1.03091 -1.35301 0
M  V30 157 O 16.3989 -1.30818 -1.43528 0
M  V30 158 C 13.5289 -2.62995 -2.26828 0
M  V30 159 C 12.4829 -3.76485 -2.03576 0
M  V30 160 C 11.8089 -4.13846 -3.38579 0
M  V30 161 C 13.1089 -5.0342 -1.39161 0
M  V30 162 H 14.8029 -2.94738 -0.526281 0
M  V30 163 H 12.3489 -1.41783 -0.251704 0
M  V30 164 H 14.3019 -2.99669 -2.96271 0
M  V30 165 H 13.0259 -1.7737 -2.7424 0
M  V30 166 H 11.6849 -3.40217 -1.36557 0
M  V30 167 H 11.3329 -3.25232 -3.83709 0
M  V30 168 H 11.0329 -4.90312 -3.23834 0
M  V30 169 H 12.5569 -4.53086 -4.09323 0
M  V30 170 H 13.9709 -5.37812 -1.98573 0
M  V30 171 H 12.3679 -5.84746 -1.34878 0
M  V30 172 H 13.4379 -4.83548 -0.361868 0
M  V30 173 N 14.781 0.264519 -1.55364 0
M  V30 174 C 16.027 0.99646 -1.76631 0
M  V30 175 C 16.36 1.85632 -0.570478 0
M  V30 176 O 15.635 1.89647 0.43175 0
M  V30 177 C 15.918 1.87187 -3.07625 0
M  V30 178 C 15.771 1.04138 -4.37579 0
M  V30 179 C 17.09 2.85749 -3.34717 0
M  V30 180 H 14.209 0.360841 -0.642622 0
M  V30 181 H 16.851 0.268218 -1.88097 0
M  V30 182 H 15.001 2.49279 -2.9798 0
M  V30 183 H 16.673 0.440517 -4.59192 0
M  V30 184 H 14.916 0.345115 -4.32425 0
M  V30 185 H 15.587 1.68729 -5.2558 0
M  V30 186 H 18.063 2.33793 -3.4421 0
M  V30 187 H 16.939 3.44136 -4.27623 0
M  V30 188 H 17.2 3.61311 -2.54768 0
M  V30 189 N 16.2591 1.48442 0.529413 0
M  V30 190 C 17.4841 1.60406 1.31471 0
M  V30 191 C 17.9091 0.264738 1.86228 0
M  V30 192 O 17.2671 -0.763668 1.64432 0
M  V30 193 C 17.3151 2.65419 2.44101 0
M  V30 194 O 16.4191 2.22618 3.47153 0
M  V30 195 H 15.7601 0.537863 0.389357 0
M  V30 196 H 18.2901 1.94432 0.636965 0
M  V30 197 H 18.3001 2.86709 2.90279 0
M  V30 198 H 16.9751 3.62652 2.03608 0
M  V30 199 H 15.5521 2.11543 3.0709 0
M  V30 200 N 17.7372 -0.778329 1.37039 0
M  V30 201 C 18.7002 -1.87301 1.32102 0
M  V30 202 C 19.7002 -1.59198 0.226405 0
M  V30 203 O 20.8902 -1.67403 0.481861 0
M  V30 204 C 18.0222 -3.24309 1.05055 0
M  V30 205 H 19.2152 -1.93093 2.29467 0
M  V30 206 H 16.7682 -0.977358 1.21973 0
M  V30 207 H 17.5032 -3.24196 0.0819373 0
M  V30 208 H 17.2882 -3.46098 1.84279 0
M  V30 209 H 18.7782 -4.04382 1.04234 0
M  V30 210 N 19.2153 -1.21501 -1.00376 0
M  V30 211 C 20.1653 -0.942843 -2.07592 0
M  V30 212 C 21.1493 0.102384 -1.60574 0
M  V30 213 O 22.3413 -0.10671 -1.76678 0
M  V30 214 C 19.4703 -0.510729 -3.3948 0
M  V30 215 C 18.5563 -1.59009 -3.93163 0
M  V30 216 N 18.9473 -2.81544 -4.20198 0
M  V30 217 C 17.2453 -1.45925 -4.21452 0
M  V30 218 C 17.9463 -3.51261 -4.63671 0
M  V30 219 N 16.9223 -2.78703 -4.66718 0
M  V30 220 H 20.7243 -1.87378 -2.26421 0
M  V30 221 H 18.2383 -1.11093 -1.18458 0
M  V30 222 H 20.2353 -0.297101 -4.1584 0
M  V30 223 H 18.8953 0.413436 -3.22057 0
M  V30 224 H 19.9063 -3.18075 -4.08716 0
M  V30 225 H 16.5833 -0.600467 -4.13159 0
M  V30 226 H 17.9733 -4.56183 -4.93302 0
M  V30 227 N 20.6934 1.19889 -1.02296 0
M  V30 228 C 21.9704 1.85148 -0.630832 0
M  V30 229 C 22.3504 1.91385 0.890782 0
M  V30 230 O 21.6984 1.42642 1.78509 0
M  V30 231 C 21.9084 3.24442 -1.28602 0
M  V30 232 C 23.2564 4.00663 -1.4055 0
M  V30 233 O 24.2804 3.33818 -1.24273 0
M  V30 234 O 23.1394 5.20387 -1.66913 0
M  V30 235 H 20.2334 0.797613 -0.218499 0
M  V30 236 H 22.7794 1.27427 -1.12074 0
M  V30 237 H 21.5514 3.14704 -2.32545 0
M  V30 238 H 21.1744 3.89802 -0.7836 0
M  V30 239 N 22.1715 0.800033 1.35784 0
M  V30 240 C 23.1345 0.211565 2.28221 0
M  V30 241 C 24.1345 -0.59728 1.49296 0
M  V30 242 O 25.3245 -0.416721 1.69142 0
M  V30 243 C 22.4565 -0.705846 3.33513 0
M  V30 244 H 23.6495 1.02677 2.81776 0
M  V30 245 H 21.2025 0.570211 1.45528 0
M  V30 246 H 21.9375 -1.54498 2.85133 0
M  V30 247 H 21.7225 -0.127655 3.91892 0
M  V30 248 H 23.2125 -1.11211 4.02519 0
M  V30 249 N 23.6496 -1.47581 0.552962 0
M  V30 250 C 24.5596 -2.33743 -0.200353 0
M  V30 251 C 25.5756 -1.47928 -0.916151 0
M  V30 252 O 26.7516 -1.80865 -0.885993 0
M  V30 253 C 23.8166 -3.24536 -1.21973 0
M  V30 254 C 22.8776 -4.26238 -0.511819 0
M  V30 255 C 22.1106 -5.12693 -1.48263 0
M  V30 256 O 22.3336 -5.01525 -2.71714 0
M  V30 257 O 21.2676 -5.93375 -1.00945 0
M  V30 258 H 25.0936 -2.9945 0.506304 0
M  V30 259 H 22.6786 -1.46071 0.313622 0
M  V30 260 H 24.5606 -3.80631 -1.80827 0
M  V30 261 H 23.2356 -2.61462 -1.90839 0
M  V30 262 H 22.1426 -3.73914 0.117799 0
M  V30 263 H 23.4756 -4.92014 0.135308 0
M  V30 264 N 25.1277 -0.289203 -1.54924 0
M  V30 265 C 26.0377 0.601863 -2.26748 0
M  V30 266 C 27.0537 1.15834 -1.2984 0
M  V30 267 O 28.2297 1.18564 -1.62802 0
M  V30 268 C 25.2947 1.76299 -2.98529 0
M  V30 269 C 24.3557 1.24178 -4.10948 0
M  V30 270 C 23.5887 2.34757 -4.79296 0
M  V30 271 O 23.8117 3.54411 -4.46933 0
M  V30 272 O 22.7457 2.02115 -5.66951 0
M  V30 273 H 26.5717 0.0195879 -3.03694 0
M  V30 274 H 24.1567 -0.0560868 -1.49295 0
M  V30 275 H 26.0387 2.43973 -3.43592 0
M  V30 276 H 24.7137 2.33209 -2.24488 0
M  V30 277 H 23.6207 0.531104 -3.70311 0
M  V30 278 H 24.9537 0.718252 -4.86931 0
M  V30 279 N 26.6058 1.57591 -0.0167156 0
M  V30 280 C 27.8548 1.90461 0.663877 0
M  V30 281 C 28.1678 0.893515 1.73999 0
M  V30 282 O 29.3738 1.11302 2.47637 0
M  V30 283 C 27.8298 3.38155 1.23204 0
M  V30 284 C 27.4378 4.47597 0.189866 0
M  V30 285 C 29.1818 3.80111 1.88986 0
M  V30 286 C 27.0888 5.86379 0.768964 0
M  V30 287 H 26.0188 0.710738 0.251729 0
M  V30 288 H 28.6698 1.83326 -0.0799926 0
M  V30 289 H 27.0518 3.40182 2.02712 0
M  V30 290 H 28.2258 4.57112 -0.581846 0
M  V30 291 H 26.5408 4.14766 -0.368475 0
M  V30 292 H 29.1378 4.81145 2.33247 0
M  V30 293 H 29.4808 3.14511 2.72743 0
M  V30 294 H 30.0138 3.80454 1.16187 0
M  V30 295 H 26.7528 6.55493 -0.0301957 0
M  V30 296 H 26.2728 5.80496 1.50945 0
M  V30 297 H 27.9518 6.34563 1.26251 0
M  V30 298 N 28.0839 -0.256276 1.55502 0
M  V30 299 C 29.0139 -1.32102 1.92539 0
M  V30 300 C 29.9949 -1.50684 0.789194 0
M  V30 301 O 31.1799 -1.63449 1.04872 0
M  V30 302 C 28.3099 -2.67752 2.21192 0
M  V30 303 C 27.2639 -2.63878 3.36975 0
M  V30 304 C 26.5899 -4.03236 3.51147 0
M  V30 305 C 27.8899 -2.21682 4.72921 0
M  V30 306 H 29.5839 -1.01351 2.81724 0
M  V30 307 H 27.1299 -0.486105 1.35547 0
M  V30 308 H 29.0829 -3.42365 2.45691 0
M  V30 309 H 27.8069 -3.0012 1.28824 0
M  V30 310 H 26.4659 -1.91722 3.12471 0
M  V30 311 H 26.1139 -4.32854 2.56216 0
M  V30 312 H 25.8139 -4.01535 4.29003 0
M  V30 313 H 27.3379 -4.79563 3.77957 0
M  V30 314 H 28.7519 -2.86023 4.96854 0
M  V30 315 H 27.1489 -2.3111 5.53812 0
M  V30 316 H 28.2189 -1.16833 4.70615 0
M  V30 317 N 29.562 -1.4872 -0.521534 0
M  V30 318 C 30.978 -1.35028 -0.850855 0
M  V30 319 C 31.178 -0.367712 -1.98116 0
M  V30 320 O 30.234 0.208037 -2.51642 0
M  V30 321 C 31.547 -2.75263 -1.21041 0
M  V30 322 C 33.095 -2.83813 -1.31981 0
M  V30 323 C 33.57 -4.24769 -1.71276 0
M  V30 324 N 35.061 -4.27482 -1.78363 0
M  V30 325 C 35.796 -5.33494 -2.1017 0
M  V30 326 N 35.292 -6.49775 -2.40343 0
M  V30 327 N 37.085 -5.20894 -2.11248 0
M  V30 328 H 29.236 -2.11214 0.22413 0
M  V30 329 H 31.499 -0.947252 0.0376439 0
M  V30 330 H 31.205 -3.48765 -0.453415 0
M  V30 331 H 31.079 -3.09327 -2.15863 0
M  V30 332 H 33.466 -2.10561 -2.06756 0
M  V30 333 H 33.547 -2.53358 -0.352596 0
M  V30 334 H 33.191 -4.9854 -0.970588 0
M  V30 335 H 33.121 -4.52673 -2.69062 0
M  V30 336 H 35.612 -3.43611 -1.57288 0
M  V30 337 H 35.925 -7.26402 -2.63743 0
M  V30 338 H 34.27 -6.53035 -2.37844 0
M  V30 339 H 37.461 -4.29065 -1.87139 0
M  V30 340 H 37.634 -6.03612 -2.35704 0
M  V30 341 N 31.0401 0.771051 -1.3745 0
M  V30 342 C 32.2871 1.52963 -1.32697 0
M  V30 343 C 32.6151 1.94299 0.0883274 0
M  V30 344 O 31.8701 1.64397 1.0617 0
M  V30 345 C 32.1691 2.80676 -2.2126 0
M  V30 346 C 31.8351 2.58389 -3.69521 0
M  V30 347 C 30.4971 2.52019 -4.09927 0
M  V30 348 C 32.8491 2.38469 -4.63446 0
M  V30 349 C 30.1771 2.23721 -5.42371 0
M  V30 350 C 32.5291 2.11694 -5.96128 0
M  V30 351 C 31.1931 2.03769 -6.35637 0
M  V30 352 H 30.4631 0.559732 -0.485573 0
M  V30 353 H 33.1101 0.888083 -1.69662 0
M  V30 354 H 31.4151 3.49392 -1.77291 0
M  V30 355 H 33.1121 3.38557 -2.14895 0
M  V30 356 H 29.7021 2.6421 -3.37478 0
M  V30 357 H 33.8861 2.4238 -4.33089 0
M  V30 358 H 29.1421 2.16081 -5.71943 0
M  V30 359 H 33.3161 1.9528 -6.6846 0
M  V30 360 H 30.9431 1.81606 -7.38189 0
M  V30 361 N 32.5182 1.22032 0.997298 0
M  V30 362 C 33.7652 1.04222 1.73621 0
M  V30 363 C 34.0932 -0.423264 1.89839 0
M  V30 364 O 33.3482 -1.3302 1.43542 0
M  V30 365 C 33.6472 1.69345 3.14733 0
M  V30 366 C 33.3132 3.19226 3.18442 0
M  V30 367 C 31.9752 3.60124 3.19161 0
M  V30 368 C 34.3272 4.15181 3.15078 0
M  V30 369 C 31.6552 4.95467 3.14212 0
M  V30 370 C 34.0072 5.50495 3.1167 0
M  V30 371 C 32.6712 5.90779 3.10703 0
M  V30 372 H 31.9412 0.381374 0.635323 0
M  V30 373 H 34.5882 1.51732 1.16831 0
M  V30 374 H 32.8932 1.14147 3.74803 0
M  V30 375 H 34.5902 1.53059 3.7064 0
M  V30 376 H 31.1802 2.86659 3.18629 0
M  V30 377 H 35.3642 3.84605 3.13676 0
M  V30 378 H 30.6202 5.25916 3.11805 0
M  V30 379 H 34.7942 6.24576 3.08022 0
M  V30 380 H 32.4212 6.9562 3.06622 0
M  V30 381 N 33.9963 -1.19345 1.0293 0
M  V30 382 C 34.9443 -2.24621 0.604001 0
M  V30 383 C 35.9383 -1.65452 -0.363587 0
M  V30 384 O 37.1443 -1.78497 -0.23212 0
M  V30 385 H 33.5193 -0.730858 0.177061 0
M  V30 386 H 35.4903 -2.5781 1.50255 0
M  V30 387 C 34.2393 -3.47688 -0.0289127 0
M  V30 388 H 33.5623 -3.93505 0.706651 0
M  V30 389 H 35.0023 -4.23011 -0.289432 0
M  V30 390 C 33.4613 -3.11817 -1.2756 0
M  V30 391 O 33.9913 -3.2451 -2.36762 0
M  V30 392 N 32.1973 -2.66246 -1.16453 0
M  V30 393 H 31.7443 -2.56118 -0.275914 0
M  V30 394 H 31.7023 -2.42617 -1.99961 0
M  V30 395 N 35.4744 -0.807222 -1.35358 0
M  V30 396 C 36.7144 -0.393534 -2.00576 0
M  V30 397 C 37.0784 1.0203 -1.62647 0
M  V30 398 O 38.2794 1.53603 -2.20589 0
M  V30 399 C 36.5504 -0.572017 -3.52793 0
M  V30 400 S 38.1094 -0.248845 -4.38094 0
M  V30 401 H 34.9274 -0.149425 -0.695121 0
M  V30 402 H 37.5294 -1.04961 -1.64935 0
M  V30 403 H 36.2334 -1.60097 -3.77885 0
M  V30 404 H 35.7644 0.099359 -3.93275 0
M  V30 405 H 37.7794 0.943253 -4.87152 0
M  V30 406 N 36.9525 1.47285 -0.560781 0
M  V30 407 C 37.9025 2.27073 0.205384 0
M  V30 408 C 38.8865 1.34569 0.882044 0
M  V30 409 O 40.0785 1.58899 0.77976 0
M  V30 410 C 37.2075 3.20414 1.23247 0
M  V30 411 C 36.2935 4.20399 0.559041 0
M  V30 412 N 36.6845 5.04423 -0.372927 0
M  V30 413 C 34.9825 4.38536 0.812522 0
M  V30 414 C 35.6835 5.76655 -0.764446 0
M  V30 415 N 34.6595 5.43471 -0.11848 0
M  V30 416 H 38.4615 2.89422 -0.511117 0
M  V30 417 H 35.9755 1.57868 -0.380975 0
M  V30 418 H 37.9725 3.76262 1.79534 0
M  V30 419 H 36.6325 2.59623 1.95002 0
M  V30 420 H 37.6435 5.1248 -0.747287 0
M  V30 421 H 34.3205 3.88913 1.51832 0
M  V30 422 H 35.7105 6.54238 -1.53045 0
M  V30 423 N 38.4306 0.297415 1.54768 0
M  V30 424 C 39.7076 -0.365847 1.92148 0
M  V30 425 C 40.0876 -1.71975 1.22424 0
M  V30 426 O 39.4356 -2.25666 0.358739 0
M  V30 427 C 39.6456 -0.484056 3.45627 0
M  V30 428 C 40.9936 -0.756594 4.17805 0
M  V30 429 O 42.0176 -0.568007 3.51642 0
M  V30 430 O 40.8766 -1.11863 5.34929 0
M  V30 431 H 37.9706 -0.203919 0.801465 0
M  V30 432 H 40.5166 0.34521 1.66152 0
M  V30 433 H 39.2886 0.467865 3.88493 0
M  V30 434 H 38.9116 -1.24372 3.77647 0
M  V30 435 N 39.9087 -1.5758 0.0250728 0
M  V30 436 C 41.1337 -1.96337 -0.668317 0
M  V30 437 C 41.5587 -0.901314 -1.651 0
M  V30 438 O 40.9167 0.138187 -1.80773 0
M  V30 439 C 40.9647 -3.34191 -1.35457 0
M  V30 440 O 40.0687 -3.30269 -2.46974 0
M  V30 441 H 39.4097 -0.640281 -0.175887 0
M  V30 442 H 41.9397 -2.0442 0.0857224 0
M  V30 443 H 41.9497 -3.70331 -1.71228 0
M  V30 444 H 40.6247 -4.11036 -0.634218 0
M  V30 445 H 39.2017 -3.05841 -2.13344 0
M  V30 446 N 41.3868 0.248026 -1.55636 0
M  V30 447 C 42.3498 1.29044 -1.89421 0
M  V30 448 C 43.3498 1.41134 -0.770581 0
M  V30 449 O 44.5398 1.39854 -1.03858 0
M  V30 450 C 41.6718 2.66831 -2.12165 0
M  V30 451 H 42.8648 1.00305 -2.82629 0
M  V30 452 H 40.4178 0.487265 -1.48511 0
M  V30 453 H 41.1528 3.00711 -1.21422 0
M  V30 454 H 40.9378 2.59438 -2.93997 0
M  V30 455 H 42.4278 3.42103 -2.3949 0
M  V30 456 N 42.8649 1.48995 0.513639 0
M  V30 457 C 43.7949 1.67636 1.62544 0
M  V30 458 C 44.7759 0.525087 1.61793 0
M  V30 459 O 45.9609 0.759502 1.78732 0
M  V30 460 C 43.0909 1.73114 3.01079 0
M  V30 461 C 42.0449 2.87905 3.16693 0
M  V30 462 C 41.3709 2.78486 4.56453 0
M  V30 463 C 42.6709 4.29005 2.97913 0
M  V30 464 H 44.3649 2.60716 1.47198 0
M  V30 465 H 41.9109 1.25465 0.706714 0
M  V30 466 H 43.8639 1.84742 3.78746 0
M  V30 467 H 42.5879 0.766241 3.17484 0
M  V30 468 H 41.2469 2.75859 2.41448 0
M  V30 469 H 40.8949 1.7993 4.69717 0
M  V30 470 H 40.5949 3.55523 4.67843 0
M  V30 471 H 42.1189 2.92104 5.36197 0
M  V30 472 H 43.5329 4.41798 3.65359 0
M  V30 473 H 41.9299 5.07166 3.20785 0
M  V30 474 H 42.9999 4.44329 1.94165 0
M  V30 475 N 44.343 -0.763751 1.37857 0
M  V30 476 C 45.275 -1.88664 1.30148 0
M  V30 477 C 46.288 -1.61365 0.215685 0
M  V30 478 O 47.477 -1.72134 0.472459 0
M  V30 479 C 44.577 -3.24075 0.991396 0
M  V30 480 C 43.75 -3.78958 2.18426 0
M  V30 481 C 42.809 -4.92862 1.8432 0
M  V30 482 O 41.835 -5.08027 2.56704 0
M  V30 483 N 43.037 -5.75071 0.792081 0
M  V30 484 H 45.802 -1.95791 2.26905 0
M  V30 485 H 43.363 -0.943226 1.31586 0
M  V30 486 H 45.355 -3.97804 0.743935 0
M  V30 487 H 43.925 -3.12399 0.112122 0
M  V30 488 H 43.145 -2.96913 2.59299 0
M  V30 489 H 44.433 -4.12357 2.98058 0
M  V30 490 H 43.831 -5.65375 0.191595 0
M  V30 491 H 42.388 -6.48991 0.60449 0
M  V30 492 N 45.8211 -1.22559 -0.990812 0
M  V30 493 C 46.7531 -0.955325 -2.08342 0
M  V30 494 C 47.7661 0.0668408 -1.62663 0
M  V30 495 O 48.9551 -0.167421 -1.77713 0
M  V30 496 C 46.0551 -0.415566 -3.36342 0
M  V30 497 C 45.2281 -1.49544 -4.11042 0
M  V30 498 C 44.2871 -0.962399 -5.17324 0
M  V30 499 O 43.3131 -1.64907 -5.44788 0
M  V30 500 N 44.5151 0.215134 -5.80101 0
M  V30 501 H 47.2801 -1.89596 -2.32106 0
M  V30 502 H 44.8411 -1.13276 -1.15673 0
M  V30 503 H 46.8331 -0.0442386 -4.04676 0
M  V30 504 H 45.4031 0.430232 -3.09625 0
M  V30 505 H 44.6231 -2.04 -3.37309 0
M  V30 506 H 45.9111 -2.22195 -4.57719 0
M  V30 507 H 45.3091 0.789779 -5.6016 0
M  V30 508 H 43.8661 0.527826 -6.49659 0
M  V30 509 N 47.2992 1.18797 -1.03562 0
M  V30 510 C 48.2092 2.25913 -0.632505 0
M  V30 511 C 49.2252 1.70668 0.338882 0
M  V30 512 O 50.4012 2.00453 0.195076 0
M  V30 513 C 47.4662 3.467 0.00350942 0
M  V30 514 C 46.5272 4.17098 -1.01624 0
M  V30 515 C 45.7602 5.32119 -0.410478 0
M  V30 516 O 45.9832 5.64976 0.784725 0
M  V30 517 O 44.9172 5.9107 -1.13667 0
M  V30 518 H 48.7432 2.62648 -1.52478 0
M  V30 519 H 46.3282 1.25781 -0.806195 0
M  V30 520 H 48.2102 4.19878 0.35781 0
M  V30 521 H 46.8852 3.11798 0.869686 0
M  V30 522 H 45.7922 3.4601 -1.42224 0
M  V30 523 H 47.1252 4.55987 -1.85301 0
M  V30 524 N 48.7773 0.814389 1.34928 0
M  V30 525 C 49.7403 0.235759 2.27984 0
M  V30 526 C 50.7403 -0.581412 1.49921 0
M  V30 527 O 51.9303 -0.398758 1.69575 0
M  V30 528 C 49.0623 -0.670433 3.34242 0
M  V30 529 H 50.2553 1.05659 2.80671 0
M  V30 530 H 47.8083 0.585614 1.44915 0
M  V30 531 H 48.5433 -1.51466 2.86755 0
M  V30 532 H 48.3283 -0.0860822 3.92005 0
M  V30 533 H 49.8183 -1.06935 4.03676 0
M  V30 534 N 50.2554 -1.46986 0.568584 0
M  V30 535 C 51.4834 -2.0683 0.0539956 0
M  V30 536 C 51.8984 -1.41953 -1.24478 0
M  V30 537 O 51.2554 -0.519933 -1.74937 0
M  V30 538 C 51.3064 -3.61254 -0.133362 0
M  V30 539 O 51.0274 -4.237 1.11399 0
M  V30 540 C 52.5284 -4.37992 -0.683927 0
M  V30 541 H 49.7484 -0.669058 0.0510141 0
M  V30 542 H 52.2924 -1.88824 0.785234 0
M  V30 543 H 50.4474 -3.78735 -0.81477 0
M  V30 544 H 50.8614 -5.16388 0.91888 0
M  V30 545 H 52.3354 -5.46684 -0.764263 0
M  V30 546 H 52.8124 -4.05058 -1.69778 0
M  V30 547 H 53.4184 -4.25283 -0.0378494 0
M  V30 548 N 51.7335 -0.305618 -1.54608 0
M  V30 549 C 52.9615 0.304775 -2.04643 0
M  V30 550 C 53.3765 1.47167 -1.18268 0
M  V30 551 O 52.7335 1.81296 -0.209328 0
M  V30 552 C 52.7845 0.756564 -3.53495 0
M  V30 553 O 52.5055 -0.36389 -4.36586 0
M  V30 554 C 54.0065 1.43163 -4.19546 0
M  V30 555 H 51.2265 0.0655481 -0.667791 0
M  V30 556 H 53.7705 -0.446592 -1.99564 0
M  V30 557 H 51.9255 1.45794 -3.58919 0
M  V30 558 H 52.3395 -0.0113121 -5.24499 0
M  V30 559 H 53.8135 1.69886 -5.25207 0
M  V30 560 H 54.2905 2.37318 -3.69563 0
M  V30 561 H 54.8965 0.773307 -4.18211 0
M  V30 562 N 53.2116 1.57565 -0.0334293 0
M  V30 563 C 54.1416 2.13511 0.945265 0
M  V30 564 C 55.1226 1.05231 1.33643 0
M  V30 565 O 56.3076 1.33084 1.41429 0
M  V30 566 C 53.4376 2.6657 2.22616 0
M  V30 567 C 52.3916 3.79676 1.97561 0
M  V30 568 C 51.7176 4.1918 3.31952 0
M  V30 569 C 53.0176 5.0557 1.31135 0
M  V30 570 H 54.7116 2.95538 0.479325 0
M  V30 571 H 52.2576 1.42166 0.229115 0
M  V30 572 H 54.2106 3.04344 2.91466 0
M  V30 573 H 52.9346 1.8171 2.71384 0
M  V30 574 H 51.5936 3.42347 1.31127 0
M  V30 575 H 51.2416 3.31296 3.78487 0
M  V30 576 H 50.9416 4.95402 3.15992 0
M  V30 577 H 52.4656 4.59541 4.02063 0
M  V30 578 H 53.8796 5.40903 1.89992 0
M  V30 579 H 52.2766 5.86818 1.25559 0
M  V30 580 H 53.3466 4.84062 0.284894 0
M  V30 581 N 54.6897 -0.239769 1.55765 0
M  V30 582 C 55.6197 -1.30052 1.9393 0
M  V30 583 C 56.6007 -1.49839 0.805132 0
M  V30 584 O 57.7857 -1.62328 1.06599 0
M  V30 585 C 54.9157 -2.65391 2.2402 0
M  V30 586 C 53.8697 -2.60289 3.39755 0
M  V30 587 C 53.1957 -3.99489 3.55405 0
M  V30 588 C 54.4957 -2.16654 4.75246 0
M  V30 589 H 56.1897 -0.983573 2.82783 0
M  V30 590 H 53.7357 -0.471701 1.36055 0
M  V30 591 H 55.6887 -3.3974 2.49308 0
M  V30 592 H 54.4127 -2.98736 1.32 0
M  V30 593 H 53.0717 -1.88398 3.14487 0
M  V30 594 H 52.7197 -4.30112 2.60793 0
M  V30 595 H 52.4197 -3.96962 4.33238 0
M  V30 596 H 53.9437 -4.75528 3.83022 0
M  V30 597 H 55.3577 -2.80737 4.99859 0
M  V30 598 H 53.7547 -2.25223 5.56232 0
M  V30 599 H 54.8247 -1.11835 4.71827 0
M  V30 600 N 56.1678 -1.49265 -0.50573 0
M  V30 601 C 57.3958 -1.62215 -1.28429 0
M  V30 602 C 57.8108 -0.291697 -1.86533 0
M  V30 603 O 57.1678 0.722233 -1.67601 0
M  V30 604 C 57.2188 -2.68735 -2.41793 0
M  V30 605 O 56.9398 -3.96619 -1.86078 0
M  V30 606 C 58.4408 -2.92346 -3.3324 0
M  V30 607 H 55.6608 -0.546239 -0.389697 0
M  V30 608 H 58.2048 -1.95265 -0.607609 0
M  V30 609 H 56.3598 -2.38476 -3.053 0
M  V30 610 H 56.7738 -4.55256 -2.60465 0
M  V30 611 H 58.2478 -3.70623 -4.09075 0
M  V30 612 H 58.7248 -2.02081 -3.89948 0
M  V30 613 H 59.3308 -3.24003 -2.75503 0
M  V30 614 N 57.6459 0.756429 -1.3826 0
M  V30 615 C 58.5779 1.87971 -1.31147 0
M  V30 616 C 59.5909 1.61248 -0.224239 0
M  V30 617 O 60.7799 1.71881 -0.481581 0
M  V30 618 C 57.8799 3.23545 -1.00857 0
M  V30 619 C 57.0529 3.77794 -2.20432 0
M  V30 620 C 56.1119 4.91877 -1.86931 0
M  V30 621 O 55.1379 5.06659 -2.59395 0
M  V30 622 N 56.3399 5.74643 -0.822568 0
M  V30 623 H 59.1049 1.94585 -2.2794 0
M  V30 624 H 56.6659 0.936234 -1.32084 0
M  V30 625 H 58.6579 3.97403 -0.765021 0
M  V30 626 H 57.2279 3.12335 -0.128687 0
M  V30 627 H 56.4479 2.95534 -2.6087 0
M  V30 628 H 57.7359 4.10771 -3.00241 0
M  V30 629 H 57.1339 5.65266 -0.221575 0
M  V30 630 H 55.6909 6.48661 -0.638899 0
M  V30 631 N 59.124 1.23083 0.984299 0
M  V30 632 C 60.034 1.02515 2.11016 0
M  V30 633 C 61.05 -0.0291702 1.73976 0
M  V30 634 O 62.226 0.165434 2.00719 0
M  V30 635 C 59.291 0.614673 3.41208 0
M  V30 636 C 58.352 1.74359 3.92297 0
M  V30 637 C 57.585 1.35261 5.16275 0
M  V30 638 O 57.808 0.235136 5.69915 0
M  V30 639 O 56.742 2.17227 5.61334 0
M  V30 640 H 60.568 1.96862 2.31255 0
M  V30 641 H 58.153 1.01753 1.09392 0
M  V30 642 H 60.035 0.396518 4.1953 0
M  V30 643 H 58.71 -0.299851 3.22308 0
M  V30 644 H 57.617 2.01635 3.1511 0
M  V30 645 H 58.95 2.63629 4.15645 0
M  V30 646 N 60.6021 -1.18246 1.0419 0
M  V30 647 C 61.5651 -2.20128 0.638452 0
M  V30 648 C 62.5651 -1.57885 -0.304805 0
M  V30 649 O 63.7551 -1.73967 -0.0900369 0
M  V30 650 C 60.8871 -3.4084 -0.0637751 0
M  V30 651 H 62.0801 -2.57336 1.54007 0
M  V30 652 H 59.6331 -1.32152 0.834598 0
M  V30 653 H 60.3681 -3.09166 -0.979136 0
M  V30 654 H 60.1531 -3.8726 0.614198 0
M  V30 655 H 61.6431 -4.16274 -0.332512 0
M  V30 656 N 62.0802 -0.821533 -1.34494 0
M  V30 657 C 63.0302 -0.214793 -2.26986 0
M  V30 658 C 64.0142 0.620125 -1.4847 0
M  V30 659 O 65.2062 0.474933 -1.70509 0
M  V30 660 C 62.3352 0.623566 -3.37589 0
M  V30 661 C 61.4212 -0.221904 -4.23519 0
M  V30 662 N 61.8122 -1.29223 -4.89014 0
M  V30 663 C 60.1102 -0.00600922 -4.46 0
M  V30 664 C 60.8112 -1.80965 -5.52835 0
M  V30 665 N 59.7872 -1.11376 -5.32068 0
M  V30 666 H 63.5892 -1.03354 -2.75128 0
M  V30 667 H 61.1032 -0.6642 -1.48196 0
M  V30 668 H 63.1002 1.0744 -4.02818 0
M  V30 669 H 61.7602 1.44049 -2.90998 0
M  V30 670 H 62.7712 -1.67502 -4.90065 0
M  V30 671 H 59.4482 0.77886 -4.10171 0
M  V30 672 H 60.8382 -2.70502 -6.15043 0
M  V30 673 N 63.5583 1.46682 -0.576371 0
M  V30 674 C 64.4883 2.33028 0.148397 0
M  V30 675 C 65.4693 1.44961 0.889956 0
M  V30 676 O 66.6543 1.73789 0.866662 0
M  V30 677 C 63.7843 3.27117 1.1667 0
M  V30 678 C 62.7383 4.24575 0.540386 0
M  V30 679 C 62.0643 5.08126 1.6647 0
M  V30 680 C 63.3643 5.19722 -0.518331 0
M  V30 681 H 65.0583 2.93875 -0.572509 0
M  V30 682 H 62.6043 1.41315 -0.276768 0
M  V30 683 H 64.5573 3.86374 1.68204 0
M  V30 684 H 63.2813 2.64364 1.9178 0
M  V30 685 H 61.9403 3.66571 0.0461769 0
M  V30 686 H 61.5883 4.41762 2.40531 0
M  V30 687 H 61.2883 5.74122 1.25131 0
M  V30 688 H 62.8123 5.70246 2.18293 0
M  V30 689 H 64.2263 5.73232 -0.0883058 0
M  V30 690 H 62.6233 5.94026 -0.851679 0
M  V30 691 H 63.6933 4.64037 -1.40703 0
M  V30 692 N 65.0364 0.313813 1.54444 0
M  V30 693 C 65.9664 -0.549454 2.26943 0
M  V30 694 C 66.9474 -1.12741 1.27372 0
M  V30 695 O 68.1324 -1.15436 1.56167 0
M  V30 696 C 65.2624 -1.71523 3.01989 0
M  V30 697 C 64.2164 -1.26703 4.08816 0
M  V30 698 C 63.5424 -2.51898 4.71647 0
M  V30 699 C 64.8424 -0.388962 5.2085 0
M  V30 700 H 66.5364 0.0552661 2.99349 0
M  V30 701 H 64.0824 0.0280207 1.43973 0
M  V30 702 H 66.0354 -2.32535 3.51433 0
M  V30 703 H 64.7594 -2.34639 2.27183 0
M  V30 704 H 63.4184 -0.679896 3.6024 0
M  V30 705 H 63.0664 -3.13356 3.93468 0
M  V30 706 H 62.7664 -2.22605 5.43802 0
M  V30 707 H 64.2904 -3.1369 5.23861 0
M  V30 708 H 65.7044 -0.905107 5.6611 0
M  V30 709 H 64.1014 -0.18924 5.99802 0
M  V30 710 H 65.1714 0.582699 4.81386 0
M  V30 711 N 66.5145 -1.57545 0.0417849 0
M  V30 712 C 67.7915 -1.83642 -0.673433 0
M  V30 713 C 68.1715 -0.928298 -1.89594 0
M  V30 714 O 67.5195 0.0129955 -2.28496 0
M  V30 715 C 67.7295 -3.33155 -1.03964 0
M  V30 716 C 69.0775 -3.99941 -1.42592 0
M  V30 717 O 70.1015 -3.37725 -1.13226 0
M  V30 718 O 68.9605 -5.09619 -1.9736 0
M  V30 719 H 66.0545 -0.757638 -0.331533 0
M  V30 720 H 68.6005 -1.69554 0.070433 0
M  V30 721 H 67.3725 -3.9093 -0.170098 0
M  V30 722 H 66.9955 -3.52396 -1.84126 0
M  V30 723 N 67.9926 0.231505 -1.5589 0
M  V30 724 C 69.2416 0.955346 -1.7764 0
M  V30 725 C 69.5546 1.85893 -0.608546 0
M  V30 726 O 70.7606 2.62067 -0.70943 0
M  V30 727 C 69.2166 1.74886 -3.14552 0
M  V30 728 C 68.8246 0.891915 -4.39032 0
M  V30 729 C 70.5686 2.46452 -3.45633 0
M  V30 730 C 68.4756 1.68221 -5.66971 0
M  V30 731 H 67.4056 0.360446 -0.662265 0
M  V30 732 H 70.0566 0.209516 -1.823 0
M  V30 733 H 68.4386 2.53723 -3.04041 0
M  V30 734 H 69.6126 0.144793 -4.60572 0
M  V30 735 H 67.9276 0.288863 -4.15397 0
M  V30 736 H 70.5246 3.06061 -4.38441 0
M  V30 737 H 70.8676 3.18841 -2.67668 0
M  V30 738 H 71.4006 1.74613 -3.57428 0
M  V30 739 H 68.1396 1.00178 -6.478 0
M  V30 740 H 67.6596 2.4042 -5.49507 0
M  V30 741 H 69.3386 2.24544 -6.06786 0
M  V30 742 N 69.4707 1.49531 0.497807 0
M  V30 743 C 70.4027 1.62559 1.61578 0
M  V30 744 C 71.4157 0.508134 1.54667 0
M  V30 745 O 72.6047 0.780309 1.60541 0
M  V30 746 C 69.7047 1.56925 3.00379 0
M  V30 747 C 68.8777 2.84257 3.3244 0
M  V30 748 C 67.9367 2.71632 4.50669 0
M  V30 749 O 66.9627 3.4557 4.52294 0
M  V30 750 N 68.1647 1.83391 5.5077 0
M  V30 751 H 70.9297 2.58981 1.50828 0
M  V30 752 H 68.4907 1.4666 0.685743 0
M  V30 753 H 70.4827 1.46129 3.77397 0
M  V30 754 H 69.0527 0.683483 3.05037 0
M  V30 755 H 68.2727 3.09381 2.44289 0
M  V30 756 H 69.5607 3.68666 3.5066 0
M  V30 757 H 68.9587 1.22583 5.52259 0
M  V30 758 H 67.5157 1.78515 6.26878 0
M  V30 759 N 70.9488 -0.749086 1.3866 0
M  V30 760 C 71.9118 -1.84457 1.36045 0
M  V30 761 C 72.9118 -1.58682 0.260122 0
M  V30 762 O 74.1018 -1.66343 0.517261 0
M  V30 763 C 71.2338 -3.22008 1.11911 0
M  V30 764 H 72.4268 -1.88182 2.33512 0
M  V30 765 H 69.9798 -0.951266 1.24019 0
M  V30 766 H 70.7148 -3.2395 0.150686 0
M  V30 767 H 70.4998 -3.42111 1.91579 0
M  V30 768 H 71.9898 -4.0208 1.12788 0
M  V30 769 N 72.4269 -1.23603 -0.977757 0
M  V30 770 C 73.6569 -1.09487 -1.75203 0
M  V30 771 C 74.0649 0.356321 -1.85814 0
M  V30 772 O 73.4079 1.25816 -1.33851 0
M  V30 773 C 73.4699 -1.64905 -3.19447 0
M  V30 774 C 73.1339 -3.13688 -3.32338 0
M  V30 775 C 74.1309 -4.10953 -3.18455 0
M  V30 776 C 71.8159 -3.53449 -3.56902 0
M  V30 777 C 73.8099 -5.45962 -3.28944 0
M  V30 778 C 71.4969 -4.88602 -3.6703 0
M  V30 779 C 72.4949 -5.84668 -3.53062 0
M  V30 780 O 72.1829 -7.17365 -3.62826 0
M  V30 781 H 71.9149 -0.38367 -0.556573 0
M  V30 782 H 74.4689 -1.6398 -1.23693 0
M  V30 783 H 72.6989 -1.04835 -3.72218 0
M  V30 784 H 74.3879 -1.46226 -3.78646 0
M  V30 785 H 75.1539 -3.81577 -2.99372 0
M  V30 786 H 71.0329 -2.79188 -3.66844 0
M  V30 787 H 74.5769 -6.20925 -3.17958 0
M  V30 788 H 70.4739 -5.17653 -3.85623 0
M  V30 789 H 71.2419 -7.2515 -3.79605 0
M  V30 790 N 73.905 1.17692 -1.04816 0
M  V30 791 C 75.321 1.39863 -0.768794 0
M  V30 792 C 75.521 1.91118 0.638451 0
M  V30 793 O 74.577 2.10036 1.40146 0
M  V30 794 C 75.89 2.39274 -1.82122 0
M  V30 795 C 77.438 2.52987 -1.843 0
M  V30 796 C 77.913 3.55669 -2.88555 0
M  V30 797 N 79.404 3.63183 -2.87493 0
M  V30 798 C 80.139 4.42381 -3.64811 0
M  V30 799 N 79.635 5.25125 -4.51903 0
M  V30 800 N 81.428 4.37217 -3.53267 0
M  V30 801 H 73.579 0.82752 -1.95617 0
M  V30 802 H 75.842 0.426123 -0.846831 0
M  V30 803 H 75.548 2.08678 -2.83102 0
M  V30 804 H 75.422 3.38725 -1.65967 0
M  V30 805 H 77.809 2.82896 -0.839869 0
M  V30 806 H 77.89 1.53623 -2.04532 0
M  V30 807 H 77.534 3.26499 -3.89051 0
M  V30 808 H 77.464 4.54728 -2.65575 0
M  V30 809 H 79.955 3.04103 -2.24343 0
M  V30 810 H 80.268 5.82728 -5.07591 0
M  V30 811 H 78.613 5.24519 -4.55966 0
M  V30 812 H 81.804 3.71626 -2.84625 0
M  V30 813 H 81.977 4.98696 -4.13771 0
M  V30 814 N 75.3831 0.828654 1.34056 0
M  V30 815 C 76.3461 0.259927 2.27721 0
M  V30 816 C 77.3461 -0.565478 1.50529 0
M  V30 817 O 78.5361 -0.38075 1.69988 0
M  V30 818 C 75.6681 -0.634944 3.34935 0
M  V30 819 H 76.8611 1.0863 2.79534 0
M  V30 820 H 74.4141 0.600951 1.44285 0
M  V30 821 H 75.1491 -1.48416 2.88346 0
M  V30 822 H 74.9341 -0.0444999 3.92075 0
M  V30 823 H 76.4241 -1.02648 4.04788 0
M  V30 824 N 76.8612 -1.46375 0.584142 0
M  V30 825 C 78.1072 -2.03248 0.0787103 0
M  V30 826 C 78.4622 -1.44737 -1.26763 0
M  V30 827 O 77.7552 -0.603625 -1.81843 0
M  V30 828 C 77.9492 -3.57373 -0.0439342 0
M  V30 829 C 77.7782 -4.30831 1.28897 0
M  V30 830 C 76.5482 -4.69683 1.8635 0
M  V30 831 C 78.7462 -4.64278 2.21248 0
M  V30 832 N 76.7282 -5.27898 3.13365 0
M  V30 833 C 78.0992 -5.23078 3.32851 0
M  V30 834 C 80.1542 -4.46209 2.20911 0
M  V30 835 C 78.8572 -5.65715 4.44251 0
M  V30 836 C 80.8832 -4.89864 3.31341 0
M  V30 837 C 80.2452 -5.48736 4.41665 0
M  V30 838 H 76.3442 -0.778714 0.0716144 0
M  V30 839 H 78.9282 -1.78509 0.777355 0
M  V30 840 H 77.0992 -3.81823 -0.711749 0
M  V30 841 H 78.8312 -4.00892 -0.553881 0
M  V30 842 H 75.5862 -4.52488 1.39826 0
M  V30 843 H 76.0102 -5.61525 3.78178 0
M  V30 844 H 80.6522 -4.00027 1.36888 0
M  V30 845 H 78.3702 -6.10875 5.29015 0
M  V30 846 H 81.9562 -4.77634 3.322 0
M  V30 847 H 80.8362 -5.81898 5.25704 0
M  V30 848 N 78.3393 -0.321999 -1.54275 0
M  V30 849 C 79.2693 0.537411 -2.27231 0
M  V30 850 C 80.2503 1.12064 -1.27968 0
M  V30 851 O 81.4353 1.14606 -1.56777 0
M  V30 852 C 78.5653 1.69919 -3.02894 0
M  V30 853 C 77.5193 1.24534 -4.09482 0
M  V30 854 C 76.8453 2.49394 -4.72977 0
M  V30 855 C 78.1453 0.361335 -5.21049 0
M  V30 856 H 79.8393 -0.0711406 -2.99315 0
M  V30 857 H 77.3853 -0.0356555 -1.43956 0
M  V30 858 H 79.3383 2.30668 -3.52662 0
M  V30 859 H 78.0623 2.33431 -2.28424 0
M  V30 860 H 76.7213 0.660782 -3.60596 0
M  V30 861 H 76.3693 3.11265 -3.95124 0
M  V30 862 H 76.0693 2.19718 -5.44975 0
M  V30 863 H 77.5933 3.10908 -5.25517 0
M  V30 864 H 79.0073 0.875072 -5.66582 0
M  V30 865 H 77.4043 0.157428 -5.99893 0
M  V30 866 H 78.4743 -0.60822 -4.8107 0
M  V30 867 N 79.8174 1.5752 -0.0501392 0
M  V30 868 C 80.7274 2.14952 0.939827 0
M  V30 869 C 81.7434 1.10706 1.34239 0
M  V30 870 O 82.9194 1.42869 1.41952 0
M  V30 871 C 79.9844 2.68232 2.19665 0
M  V30 872 C 79.0454 3.87272 1.85253 0
M  V30 873 C 78.2784 4.38002 3.04943 0
M  V30 874 O 78.5014 3.87811 4.18281 0
M  V30 875 O 77.4354 5.29602 2.86017 0
M  V30 876 H 81.2614 2.9986 0.481392 0
M  V30 877 H 78.8464 1.4841 0.171699 0
M  V30 878 H 80.7284 3.02475 2.93406 0
M  V30 879 H 79.4034 1.86395 2.64648 0
M  V30 880 H 78.3104 3.5792 1.0883 0
M  V30 881 H 79.6434 4.70336 1.4507 0
M  V30 882 N 81.2955 -0.223234 1.56011 0
M  V30 883 C 82.2455 -1.28008 1.88674 0
M  V30 884 C 83.2295 -1.42369 0.749663 0
M  V30 885 O 84.4215 -1.45212 1.01205 0
M  V30 886 C 81.5505 -2.63084 2.20548 0
M  V30 887 C 80.6365 -2.52632 3.40643 0
M  V30 888 N 81.0275 -2.11829 4.59306 0
M  V30 889 C 79.3255 -2.83594 3.44224 0
M  V30 890 C 80.0265 -2.12587 5.41463 0
M  V30 891 N 79.0025 -2.5301 4.81131 0
M  V30 892 H 82.8045 -0.955487 2.77935 0
M  V30 893 H 80.3185 -0.431801 1.56554 0
M  V30 894 H 82.3155 -3.39385 2.42122 0
M  V30 895 H 80.9755 -2.96391 1.32599 0
M  V30 896 H 81.9865 -1.82988 4.84496 0
M  V30 897 H 78.6635 -3.21284 2.66614 0
M  V30 898 H 80.0535 -1.83179 6.46448 0
M  V30 899 N 82.7736 -1.49793 -0.48987 0
M  V30 900 C 84.0136 -1.61466 -1.25332 0
M  V30 901 C 84.3776 -0.299688 -1.89647 0
M  V30 902 O 85.5786 -0.291687 -2.67213 0
M  V30 903 C 83.8496 -2.74944 -2.28343 0
M  V30 904 S 85.4086 -3.06637 -3.13878 0
M  V30 905 H 82.2266 -0.569411 -0.425784 0
M  V30 906 H 84.8286 -1.875 -0.553541 0
M  V30 907 H 83.5326 -3.68994 -1.79643 0
M  V30 908 H 83.0636 -2.50938 -3.02975 0
M  V30 909 H 85.0786 -2.49015 -4.29192 0
M  V30 910 N 84.2517 0.741722 -1.39055 0
M  V30 911 C 85.4977 1.50336 -1.36113 0
M  V30 912 C 85.8307 1.94148 0.0450796 0
M  V30 913 O 85.1057 1.66301 1.00868 0
M  V30 914 C 85.3887 2.74773 -2.32749 0
M  V30 915 C 85.2417 2.37023 -3.82283 0
M  V30 916 C 86.5607 3.76846 -2.27322 0
M  V30 917 H 83.6797 0.545351 -0.495743 0
M  V30 918 H 86.3217 0.848624 -1.69995 0
M  V30 919 H 84.4717 3.30639 -2.03986 0
M  V30 920 H 86.1437 1.8684 -4.21768 0
M  V30 921 H 84.3867 1.69334 -3.99385 0
M  V30 922 H 85.0577 3.26104 -4.45376 0
M  V30 923 H 87.5337 3.30548 -2.5274 0
M  V30 924 H 86.4097 4.6159 -2.97028 0
M  V30 925 H 86.6707 4.23286 -1.27599 0
M  V30 926 N 85.7298 1.2412 0.971189 0
M  V30 927 C 86.9778 1.07668 1.71032 0
M  V30 928 C 87.2988 -0.385797 1.91146 0
M  V30 929 O 86.5688 -1.27569 1.4867 0
M  V30 930 H 85.1488 0.395429 0.633755 0
M  V30 931 H 87.8108 1.55984 1.16855 0
M  V30 932 H 86.9068 1.57195 2.69622 0
M  V30 933 N 87.2079 -1.17134 1.05439 0
M  V30 934 C 88.4329 -1.91913 0.786396 0
M  V30 935 C 88.8579 -1.7643 -0.652234 0
M  V30 936 O 88.2159 -1.08372 -1.45345 0
M  V30 937 C 88.2639 -3.40921 1.17497 0
M  V30 938 O 87.3679 -4.11244 0.308589 0
M  V30 939 H 86.7089 -0.598215 0.288158 0
M  V30 940 H 89.2389 -1.48457 1.4079 0
M  V30 941 H 89.2489 -3.91668 1.14281 0
M  V30 942 H 87.9239 -3.5151 2.22292 0
M  V30 943 H 86.5009 -3.70731 0.40157 0
M  V30 944 N 88.686 -0.835752 -1.33615 0
M  V30 945 C 89.596 -0.269088 -2.33052 0
M  V30 946 C 90.612 0.603251 -1.63208 0
M  V30 947 O 91.788 0.508112 -1.94885 0
M  V30 948 C 88.853 0.549091 -3.42324 0
M  V30 949 C 87.914 -0.347156 -4.27894 0
M  V30 950 C 87.147 0.43207 -5.31948 0
M  V30 951 O 87.37 1.66409 -5.45586 0
M  V30 952 O 86.304 -0.192298 -6.01593 0
M  V30 953 H 90.13 -1.09243 -2.83372 0
M  V30 954 H 87.715 -0.598198 -1.36901 0
M  V30 955 H 89.597 1.01414 -4.09015 0
M  V30 956 H 88.272 1.34955 -2.94226 0
M  V30 957 H 87.179 -0.859979 -3.64081 0
M  V30 958 H 88.512 -1.1123 -4.79467 0
M  V30 959 N 90.1641 1.46063 -0.591896 0
M  V30 960 C 91.4101 2.02638 -0.0811191 0
M  V30 961 C 91.7431 1.4613 1.27905 0
M  V30 962 O 91.0181 0.629908 1.84017 0
M  V30 963 C 91.3011 3.60091 -0.0252436 0
M  V30 964 C 91.1541 4.26965 -1.41496 0
M  V30 965 C 92.4731 4.3496 0.670685 0
M  V30 966 H 89.5921 0.73635 -0.0309524 0
M  V30 967 H 92.2341 1.741 -0.760859 0
M  V30 968 H 90.3841 3.84535 0.553624 0
M  V30 969 H 92.0561 4.13756 -2.0397 0
M  V30 970 H 90.2991 3.85971 -1.98011 0
M  V30 971 H 90.9701 5.35781 -1.32825 0
M  V30 972 H 93.4461 4.15716 0.178825 0
M  V30 973 H 92.3221 5.44686 0.678837 0
M  V30 974 H 92.5831 4.06685 1.73379 0
M  V30 975 N 91.6422 0.330177 1.54103 0
M  V30 976 C 92.5742 -0.566902 2.22079 0
M  V30 977 C 93.5872 -1.07462 1.22294 0
M  V30 978 O 94.7762 -0.987065 1.48726 0
M  V30 979 C 91.8762 -1.79138 2.87685 0
M  V30 980 C 91.0492 -1.42123 4.13666 0
M  V30 981 C 90.1082 -2.50394 4.62806 0
M  V30 982 O 89.1342 -2.14261 5.27334 0
M  V30 983 N 90.3362 -3.81433 4.37595 0
M  V30 984 H 93.1012 0.0151844 2.99696 0
M  V30 985 H 90.6622 0.153681 1.61169 0
M  V30 986 H 92.6542 -2.50975 3.1748 0
M  V30 987 H 91.2242 -2.28115 2.13734 0
M  V30 988 H 90.4442 -0.534201 3.90564 0
M  V30 989 H 91.7322 -1.14971 4.9564 0
M  V30 990 H 91.1302 -4.13584 3.8596 0
M  V30 991 H 89.6872 -4.4948 4.72029 0
M  V30 992 N 93.1203 -1.57491 0.0584922 0
M  V30 993 C 94.3503 -1.9701 -0.622134 0
M  V30 994 C 94.7583 -0.935034 -1.6448 0
M  V30 995 O 94.1013 0.0882904 -1.83488 0
M  V30 996 C 94.1633 -3.32794 -1.35972 0
M  V30 997 C 93.8273 -4.54343 -0.492043 0
M  V30 998 C 94.8243 -5.19323 0.244901 0
M  V30 999 C 92.5093 -5.00534 -0.420821 0
M  V30 1000 C 94.5033 -6.28835 1.04143 0
M  V30 1001 C 92.1903 -6.09921 0.379389 0
M  V30 1002 C 93.1883 -6.73933 1.10919 0
M  V30 1003 O 92.8763 -7.81216 1.89623 0
M  V30 1004 H 92.6083 -0.653127 -0.174359 0
M  V30 1005 H 95.1623 -2.05029 0.123418 0
M  V30 1006 H 93.3923 -3.21351 -2.15105 0
M  V30 1007 H 95.0813 -3.5701 -1.93129 0
M  V30 1008 H 95.8473 -4.8459 0.19939 0
M  V30 1009 H 91.7263 -4.50496 -0.978474 0
M  V30 1010 H 95.2703 -6.7873 1.61157 0
M  V30 1011 H 91.1673 -6.44089 0.426512 0
M  V30 1012 H 91.9353 -7.98029 1.81913 0
M  V30 1013 N 94.5984 0.214957 -1.56127 0
M  V30 1014 C 95.5304 1.29004 -1.89448 0
M  V30 1015 C 96.5434 1.42716 -0.783326 0
M  V30 1016 O 97.7324 1.43496 -1.06166 0
M  V30 1017 C 94.8324 2.66482 -2.09381 0
M  V30 1018 C 94.0054 2.74633 -3.40434 0
M  V30 1019 C 93.0644 3.9317 -3.49719 0
M  V30 1020 O 92.0904 3.812 -4.227 0
M  V30 1021 N 93.2924 5.07765 -2.81346 0
M  V30 1022 H 96.0574 1.00743 -2.82261 0
M  V30 1023 H 93.6184 0.40497 -1.56753 0
M  V30 1024 H 95.6104 3.44173 -2.12901 0
M  V30 1025 H 94.1804 2.87314 -1.23163 0
M  V30 1026 H 93.4004 1.83368 -3.48955 0
M  V30 1027 H 94.6884 2.77054 -4.26754 0
M  V30 1028 H 94.0864 5.20386 -2.21843 0
M  V30 1029 H 92.6434 5.83474 -2.90519 0
M  V30 1030 N 96.0765 1.50051 0.48192 0
M  V30 1031 C 97.3225 1.60736 1.2366 0
M  V30 1032 C 97.6555 0.301786 1.91841 0
M  V30 1033 O 96.9305 -0.696025 1.8162 0
M  V30 1034 C 97.2135 2.78009 2.28874 0
M  V30 1035 C 97.0665 4.18416 1.65069 0
M  V30 1036 C 98.3855 2.90867 3.30279 0
M  V30 1037 H 95.5045 0.585031 0.448228 0
M  V30 1038 H 98.1465 1.82402 0.531946 0
M  V30 1039 H 96.2965 2.59667 2.88973 0
M  V30 1040 H 97.9685 4.48322 1.0865 0
M  V30 1041 H 96.2115 4.23177 0.954148 0
M  V30 1042 H 96.8825 4.96381 2.41474 0
M  V30 1043 H 99.3585 3.07623 2.80191 0
M  V30 1044 H 98.2345 3.74566 4.01238 0
M  V30 1045 H 98.4955 2.01021 3.93755 0
M  V30 1046 N 97.5546 -0.734337 1.39446 0
M  V30 1047 C 98.8036 -1.48937 1.36017 0
M  V30 1048 C 99.1166 -1.95557 -0.0409005 0
M  V30 1049 O 100.323 -2.70779 -0.19778 0
M  V30 1050 C 98.7786 -2.69125 2.38955 0
M  V30 1051 C 98.3866 -2.29452 3.8478 0
M  V30 1052 C 100.131 -3.46944 2.44603 0
M  V30 1053 C 98.0376 -3.46366 4.79358 0
M  V30 1054 H 96.9676 -0.559296 0.505672 0
M  V30 1055 H 99.6186 -0.800983 1.65095 0
M  V30 1056 H 98.0006 -3.40041 2.02948 0
M  V30 1057 H 99.1746 -1.66077 4.29831 0
M  V30 1058 H 97.4896 -1.64723 3.82433 0
M  V30 1059 H 100.087 -4.33907 3.12456 0
M  V30 1060 H 100.43 -3.89454 1.47076 0
M  V30 1061 H 100.963 -2.83056 2.79507 0
M  V30 1062 H 97.7016 -3.08905 5.78151 0
M  V30 1063 H 97.2216 -4.08719 4.38986 0
M  V30 1064 H 98.9006 -4.12691 4.98292 0
M  V30 1065 N 99.0327 -1.24633 -0.964593 0
M  V30 1066 C 100.258 -1.11596 -1.74818 0
M  V30 1067 C 100.683 0.32723 -1.85232 0
M  V30 1068 O 100.041 1.23695 -1.32549 0
M  V30 1069 C 100.089 -1.76397 -3.1451 0
M  V30 1070 O 99.1927 -1.03685 -3.99153 0
M  V30 1071 H 98.5337 -0.390196 -0.537255 0
M  V30 1072 H 101.064 -1.65002 -1.20977 0
M  V30 1073 H 101.074 -1.8228 -3.65018 0
M  V30 1074 H 99.7487 -2.81401 -3.06246 0
M  V30 1075 H 98.3257 -1.05611 -3.57632 0
M  V30 1076 N 100.511 1.16574 -1.06058 0
M  V30 1077 C 101.927 1.3904 -0.783585 0
M  V30 1078 C 102.127 1.91784 0.618145 0
M  V30 1079 O 101.183 2.11511 1.37911 0
M  V30 1080 C 102.496 2.37329 -1.84649 0
M  V30 1081 C 104.044 2.51018 -1.86973 0
M  V30 1082 C 104.519 3.52588 -2.92311 0
M  V30 1083 N 106.01 3.60113 -2.91329 0
M  V30 1084 C 106.745 4.38486 -3.69482 0
M  V30 1085 N 106.241 5.20302 -4.57447 0
M  V30 1086 N 108.034 4.33446 -3.57885 0
M  V30 1087 H 100.185 0.806725 -1.96483 0
M  V30 1088 H 102.448 0.417117 -0.851303 0
M  V30 1089 H 102.154 2.05663 -2.85299 0
M  V30 1090 H 102.028 3.36946 -1.6955 0
M  V30 1091 H 104.415 2.81989 -0.869827 0
M  V30 1092 H 104.496 1.51445 -2.0615 0
M  V30 1093 H 104.14 3.22354 -3.92492 0
M  V30 1094 H 104.07 4.51886 -2.70383 0
M  V30 1095 H 106.561 3.01707 -2.27555 0
M  V30 1096 H 106.874 5.77311 -5.13743 0
M  V30 1097 H 105.219 5.19653 -4.61503 0
M  V30 1098 H 108.41 3.68586 -2.88551 0
M  V30 1099 H 108.583 4.94279 -4.19037 0
M  V30 1100 N 101.989 0.842826 1.3317 0
M  V30 1101 C 102.899 0.281444 2.32906 0
M  V30 1102 C 103.915 -0.594587 1.63526 0
M  V30 1103 O 105.091 -0.49777 1.95152 0
M  V30 1104 C 102.156 -0.530929 3.42611 0
M  V30 1105 C 101.217 0.369843 4.27704 0
M  V30 1106 C 100.45 -0.403853 5.3217 0
M  V30 1107 O 100.673 -1.63513 5.46461 0
M  V30 1108 O 99.6069 0.224199 6.01482 0
M  V30 1109 H 103.433 1.10744 2.82789 0
M  V30 1110 H 101.018 0.60545 1.36582 0
M  V30 1111 H 102.9 -0.992437 4.09547 0
M  V30 1112 H 101.575 -1.33392 2.94938 0
M  V30 1113 H 100.482 0.879275 3.6362 0
M  V30 1114 H 101.815 1.13771 4.78871 0
M  V30 1115 N 103.467 -1.45747 0.599634 0
M  V30 1116 C 104.397 -2.33235 -0.111306 0
M  V30 1117 C 105.378 -1.46359 -0.866781 0
M  V30 1118 O 106.563 -1.75146 -0.838904 0
M  V30 1119 C 103.693 -3.28932 -1.11451 0
M  V30 1120 C 102.647 -4.25381 -0.472772 0
M  V30 1121 C 101.973 -5.1071 -1.58365 0
M  V30 1122 C 103.273 -5.18831 0.600948 0
M  V30 1123 H 104.967 -2.92927 0.61919 0
M  V30 1124 H 102.513 -1.40857 0.299215 0
M  V30 1125 H 104.466 -3.89002 -1.62036 0
M  V30 1126 H 103.19 -2.67381 -1.8755 0
M  V30 1127 H 101.849 -3.66598 0.0121472 0
M  V30 1128 H 101.497 -4.45533 -2.33473 0
M  V30 1129 H 101.197 -5.7604 -1.15982 0
M  V30 1130 H 102.721 -5.73647 -2.09194 0
M  V30 1131 H 104.135 -5.73019 0.179491 0
M  V30 1132 H 102.532 -5.92595 0.946076 0
M  V30 1133 H 103.602 -4.6174 1.48068 0
M  V30 1134 N 104.945 -0.338344 -1.53925 0
M  V30 1135 C 106.361 0.0137736 -1.59594 0
M  V30 1136 C 106.561 1.49186 -1.35447 0
M  V30 1137 O 105.617 2.24987 -1.14616 0
M  V30 1138 C 106.93 -0.41773 -2.97784 0
M  V30 1139 C 108.478 -0.369633 -3.1081 0
M  V30 1140 C 108.953 -0.776524 -4.51369 0
M  V30 1141 N 110.444 -0.730506 -4.57403 0
M  V30 1142 C 111.179 -1.01736 -5.64303 0
M  V30 1143 N 110.675 -1.3721 -6.79077 0
M  V30 1144 N 112.468 -0.941942 -5.54151 0
M  V30 1145 H 104.619 -1.3012 -1.67876 0
M  V30 1146 H 106.882 -0.530082 -0.78595 0
M  V30 1147 H 106.588 -1.44811 -3.20504 0
M  V30 1148 H 106.462 0.209729 -3.76616 0
M  V30 1149 H 108.849 0.651568 -2.87817 0
M  V30 1150 H 108.93 -1.03223 -2.34049 0
M  V30 1151 H 108.574 -1.79571 -4.75096 0
M  V30 1152 H 108.504 -0.0914649 -5.26521 0
M  V30 1153 H 110.995 -0.468783 -3.74981 0
M  V30 1154 H 111.308 -1.57597 -7.5656 0
M  V30 1155 H 109.653 -1.4105 -6.80536 0
M  V30 1156 H 112.844 -0.664184 -4.63364 0
M  V30 1157 H 113.017 -1.16884 -6.37371 0
M  V30 1158 N 106.423 1.57458 -0.0668435 0
M  V30 1159 C 107.386 2.11323 0.887422 0
M  V30 1160 C 108.386 1.03618 1.22964 0
M  V30 1161 O 109.576 1.29626 1.16373 0
M  V30 1162 C 106.708 2.61048 2.19242 0
M  V30 1163 H 107.901 2.96942 0.420194 0
M  V30 1164 H 105.454 1.55239 0.181793 0
M  V30 1165 H 106.189 1.78868 2.70512 0
M  V30 1166 H 105.974 3.39769 1.95702 0
M  V30 1167 H 107.464 3.02814 2.87565 0
M  V30 1168 N 107.901 -0.206675 1.56239 0
M  V30 1169 C 108.864 -1.23976 1.92776 0
M  V30 1170 C 109.864 -1.39041 0.807729 0
M  V30 1171 O 111.054 -1.37051 1.0753 0
M  V30 1172 C 108.186 -2.61112 2.19165 0
M  V30 1173 H 109.379 -0.927764 2.85189 0
M  V30 1174 H 106.932 -0.447718 1.4975 0
M  V30 1175 H 107.667 -2.97386 1.29352 0
M  V30 1176 H 107.452 -2.51552 3.00772 0
M  V30 1177 H 108.942 -3.35633 2.48476 0
M  V30 1178 N 109.379 -1.50304 -0.473955 0
M  V30 1179 C 110.604 -1.65175 -1.25427 0
M  V30 1180 C 111.029 -0.333673 -1.85117 0
M  V30 1181 O 110.387 0.702114 -1.67153 0
M  V30 1182 C 110.435 -2.74295 -2.34082 0
M  V30 1183 O 109.539 -2.35349 -3.38651 0
M  V30 1184 H 108.88 -0.551944 -0.369126 0
M  V30 1185 H 111.41 -1.96662 -0.564364 0
M  V30 1186 H 111.42 -2.97285 -2.79438 0
M  V30 1187 H 110.095 -3.69959 -1.90008 0
M  V30 1188 H 108.672 -2.22794 -2.99027 0
M  V30 1189 N 110.857 0.726932 -1.39834 0
M  V30 1190 C 111.767 1.87131 -1.41489 0
M  V30 1191 C 112.783 1.71239 -0.308757 0
M  V30 1192 O 113.959 1.93701 -0.551529 0
M  V30 1193 C 111.024 3.22811 -1.26468 0
M  V30 1194 C 110.085 3.51039 -2.47124 0
M  V30 1195 C 109.318 4.80245 -2.3281 0
M  V30 1196 O 109.541 5.54537 -1.33585 0
M  V30 1197 O 108.475 5.08554 -3.21957 0
M  V30 1198 H 112.301 1.8869 -2.3797 0
M  V30 1199 H 109.886 0.875837 -1.21035 0
M  V30 1200 H 111.768 4.03877 -1.20255 0
M  V30 1201 H 110.443 3.22005 -0.330862 0
M  V30 1202 H 109.35 2.70027 -2.58914 0
M  V30 1203 H 110.683 3.56632 -3.39227 0
M  V30 1204 N 112.336 1.25143 0.95797 0
M  V30 1205 C 113.752 1.01892 1.22842 0
M  V30 1206 C 113.952 -0.266311 1.99732 0
M  V30 1207 O 113.008 -0.979913 2.3271 0
M  V30 1208 C 114.321 2.24004 2.00606 0
M  V30 1209 C 115.869 2.28731 2.13662 0
M  V30 1210 C 116.344 3.5049 2.94823 0
M  V30 1211 N 117.835 3.50866 3.02403 0
M  V30 1212 C 118.57 4.4174 3.65586 0
M  V30 1213 N 118.066 5.42882 4.30408 0
M  V30 1214 N 119.859 4.29429 3.62694 0
M  V30 1215 H 112.01 2.07718 0.443493 0
M  V30 1216 H 114.273 0.912031 0.258657 0
M  V30 1217 H 113.979 3.17395 1.51503 0
M  V30 1218 H 113.853 2.26907 3.01319 0
M  V30 1219 H 116.24 1.35865 2.61963 0
M  V30 1220 H 116.321 2.29848 1.12265 0
M  V30 1221 H 115.965 4.43676 2.47213 0
M  V30 1222 H 115.895 3.46617 3.96439 0
M  V30 1223 H 118.386 2.777 2.56302 0
M  V30 1224 H 118.699 6.0844 4.76467 0
M  V30 1225 H 117.044 5.46758 4.29047 0
M  V30 1226 H 120.235 3.49643 3.11236 0
M  V30 1227 H 120.408 5.00448 4.1165 0
M  V30 1228 N 113.814 -1.1601 1.06675 0
M  V30 1229 C 115.23 -1.38622 0.790948 0
M  V30 1230 C 115.43 -1.92109 -0.607965 0
M  V30 1231 O 114.486 -2.12239 -1.36787 0
M  V30 1232 C 115.799 -2.36347 1.85905 0
M  V30 1233 C 117.347 -2.50023 1.88301 0
M  V30 1234 C 117.822 -3.51033 2.94176 0
M  V30 1235 N 119.313 -3.58563 2.93235 0
M  V30 1236 C 120.048 -4.36521 3.71803 0
M  V30 1237 N 119.544 -5.17869 4.602 0
M  V30 1238 N 121.337 -4.31541 3.60178 0
M  V30 1239 H 113.488 -0.796294 1.96908 0
M  V30 1240 H 115.751 -0.412597 0.853503 0
M  V30 1241 H 115.457 -2.04147 2.86386 0
M  V30 1242 H 115.331 -3.36042 1.71334 0
M  V30 1243 H 117.718 -2.81524 0.884769 0
M  V30 1244 H 117.799 -1.5035 2.06951 0
M  V30 1245 H 117.443 -3.20268 3.94196 0
M  V30 1246 H 117.373 -4.50445 2.72776 0
M  V30 1247 H 119.864 -3.00496 2.29152 0
M  V30 1248 H 120.177 -5.74578 5.16797 0
M  V30 1249 H 118.522 -5.17199 4.64253 0
M  V30 1250 H 121.713 -3.67051 2.90502 0
M  V30 1251 H 121.886 -4.9205 4.21653 0
M  V30 1252 N 115.292 -0.849877 -1.32721 0
M  V30 1253 C 116.522 -0.46408 -2.0132 0
M  V30 1254 C 116.93 0.94246 -1.64056 0
M  V30 1255 O 116.273 1.6257 -0.855379 0
M  V30 1256 C 116.335 -0.517887 -3.5575 0
M  V30 1257 C 115.999 -1.88248 -4.16427 0
M  V30 1258 C 116.996 -2.84726 -4.35002 0
M  V30 1259 C 114.681 -2.17832 -4.52609 0
M  V30 1260 C 116.675 -4.08945 -4.8892 0
M  V30 1261 C 114.362 -3.42304 -5.06232 0
M  V30 1262 C 115.36 -4.37677 -5.24335 0
M  V30 1263 O 115.048 -5.59946 -5.76815 0
M  V30 1264 H 114.78 -0.181327 -0.651227 0
M  V30 1265 H 117.334 -1.14713 -1.70382 0
M  V30 1266 H 115.564 0.221997 -3.86062 0
M  V30 1267 H 117.253 -0.148366 -4.05629 0
M  V30 1268 H 118.019 -2.63174 -4.07388 0
M  V30 1269 H 113.898 -1.44385 -4.37806 0
M  V30 1270 H 117.442 -4.83396 -5.02966 0
M  V30 1271 H 113.339 -3.63709 -5.33278 0
M  V30 1272 H 114.107 -5.61838 -5.95214 0
M  V30 1273 N 116.77 1.45427 -0.607355 0
M  V30 1274 C 117.717 2.3053 0.111625 0
M  V30 1275 C 118.687 1.4209 0.860216 0
M  V30 1276 O 119.872 1.71019 0.845998 0
M  V30 1277 C 117.012 3.26992 1.10319 0
M  V30 1278 C 116.125 4.30535 0.355493 0
M  V30 1279 C 115.26 5.14105 1.33676 0
M  V30 1280 C 114.299 6.09376 0.576862 0
M  V30 1281 N 113.436 6.85727 1.5074 0
M  V30 1282 H 118.276 2.91477 -0.620093 0
M  V30 1283 H 115.813 1.43631 -0.317594 0
M  V30 1284 H 117.771 3.81385 1.6912 0
M  V30 1285 H 116.401 2.67799 1.80232 0
M  V30 1286 H 115.453 3.78805 -0.348023 0
M  V30 1287 H 116.765 4.98235 -0.237423 0
M  V30 1288 H 115.919 5.72897 1.99684 0
M  V30 1289 H 114.658 4.46423 1.9636 0
M  V30 1290 H 113.663 5.49715 -0.0968519 0
M  V30 1291 H 114.888 6.79085 -0.0449341 0
M  V30 1292 H 112.834 6.20735 2.12189 0
M  V30 1293 H 112.751 7.49778 0.967913 0
M  V30 1294 H 114.019 7.4906 2.15706 0
M  V30 1295 N 118.248 0.346503 1.53744 0
M  V30 1296 C 119.178 -0.501193 2.28058 0
M  V30 1297 C 120.159 -1.10014 1.29734 0
M  V30 1298 O 121.344 -1.12097 1.58581 0
M  V30 1299 C 118.474 -1.65078 3.05559 0
M  V30 1300 C 117.428 -1.18003 4.11411 0
M  V30 1301 C 116.754 -2.41837 4.76884 0
M  V30 1302 C 118.054 -0.278394 5.21558 0
M  V30 1303 H 119.748 0.11875 2.99164 0
M  V30 1304 H 117.294 0.0585531 1.43881 0
M  V30 1305 H 119.247 -2.25028 3.56287 0
M  V30 1306 H 117.971 -2.29767 2.32109 0
M  V30 1307 H 116.63 -0.603331 3.61601 0
M  V30 1308 H 116.278 -3.0494 4.00026 0
M  V30 1309 H 115.978 -2.1102 5.48402 0
M  V30 1310 H 117.502 -3.02508 5.30397 0
M  V30 1311 H 118.916 -0.784823 5.67903 0
M  V30 1312 H 117.313 -0.0619707 6.00068 0
M  V30 1313 H 118.383 0.684677 4.80042 0
M  V30 1314 N 119.726 -1.57421 0.075193 0
M  V30 1315 C 120.674 -2.14124 -0.908508 0
M  V30 1316 C 121.668 -1.07898 -1.30592 0
M  V30 1317 O 122.874 -1.26273 -1.28277 0
M  V30 1318 H 119.249 -0.684707 -0.310935 0
M  V30 1319 H 121.22 -2.95634 -0.405374 0
M  V30 1320 C 119.969 -2.72044 -2.16535 0
M  V30 1321 H 119.292 -3.53456 -1.86839 0
M  V30 1322 H 120.732 -3.15311 -2.83469 0
M  V30 1323 C 119.191 -1.66968 -2.92615 0
M  V30 1324 O 119.721 -1.0967 -3.86439 0
M  V30 1325 N 117.927 -1.37923 -2.55784 0
M  V30 1326 H 117.474 -1.84706 -1.79559 0
M  V30 1327 H 117.432 -0.67852 -3.06991 0
M  V30 1328 N 121.204 0.198386 -1.56346 0
M  V30 1329 C 122.114 1.2664 -1.97483 0
M  V30 1330 C 123.13 1.49989 -0.882002 0
M  V30 1331 O 124.306 1.62668 -1.18748 0
M  V30 1332 C 121.371 2.59141 -2.30319 0
M  V30 1333 C 120.432 2.43892 -3.53292 0
M  V30 1334 C 119.665 3.70074 -3.84553 0
M  V30 1335 O 119.888 4.74101 -3.1715 0
M  V30 1336 O 118.822 3.658 -4.7799 0
M  V30 1337 H 122.648 0.947304 -2.88548 0
M  V30 1338 H 120.233 0.403123 -1.43859 0
M  V30 1339 H 122.115 3.37352 -2.5253 0
M  V30 1340 H 120.79 2.90684 -1.42423 0
M  V30 1341 H 119.697 1.63803 -3.36332 0
M  V30 1342 H 121.03 2.17282 -4.41644 0
M  V30 1343 N 122.682 1.50554 0.465978 0
M  V30 1344 C 123.645 1.69233 1.54574 0
M  V30 1345 C 124.645 0.562901 1.50626 0
M  V30 1346 O 125.835 0.830016 1.53155 0
M  V30 1347 C 122.967 1.7223 2.94193 0
M  V30 1348 H 124.16 2.65571 1.39327 0
M  V30 1349 H 121.713 1.40111 0.692711 0
M  V30 1350 H 122.448 0.77603 3.14878 0
M  V30 1351 H 122.233 2.54285 2.98466 0
M  V30 1352 H 123.723 1.88618 3.72576 0
M  V30 1353 N 124.16 -0.719506 1.40217 0
M  V30 1354 C 125.093 -1.84298 1.34571 0
M  V30 1355 C 126.071 -1.61149 0.216741 0
M  V30 1356 O 127.255 -1.84212 0.399756 0
M  V30 1357 C 124.382 -3.20568 1.09335 0
M  V30 1358 C 123.428 -3.62551 2.24631 0
M  V30 1359 S 124.261 -3.7012 3.87004 0
M  V30 1360 C 125.417 -5.09154 3.64024 0
M  V30 1361 H 125.65 -1.88807 2.2965 0
M  V30 1362 H 123.183 -0.885901 1.26456 0
M  V30 1363 H 125.141 -3.99246 0.954602 0
M  V30 1364 H 123.802 -3.13696 0.159164 0
M  V30 1365 H 122.995 -4.61483 2.02606 0
M  V30 1366 H 122.597 -2.91119 2.34789 0
M  V30 1367 H 124.889 -5.95955 3.22248 0
M  V30 1368 H 125.832 -5.36213 4.62473 0
M  V30 1369 H 126.24 -4.79562 2.97793 0
M  V30 1370 N 125.638 -1.25649 -0.95132 0
M  V30 1371 C 126.586 -1.06118 -2.06982 0
M  V30 1372 C 127.58 0.00889169 -1.69398 0
M  V30 1373 O 128.786 -0.146988 -1.79399 0
M  V30 1374 H 125.161 -0.326248 -0.677544 0
M  V30 1375 H 127.132 -2.00932 -2.2061 0
M  V30 1376 C 125.881 -0.700145 -3.40578 0
M  V30 1377 H 125.204 -1.51537 -3.69968 0
M  V30 1378 H 126.644 -0.603211 -4.19687 0
M  V30 1379 C 125.103 0.59403 -3.31622 0
M  V30 1380 O 125.633 1.63522 -3.66911 0
M  V30 1381 N 123.839 0.58089 -2.84735 0
M  V30 1382 H 123.386 -0.266783 -2.56215 0
M  V30 1383 H 123.344 1.44695 -2.79125 0
M  V30 1384 N 127.117 1.15442 -1.07289 0
M  V30 1385 C 128.363 1.86489 -0.796846 0
M  V30 1386 C 128.696 1.82078 0.675371 0
M  V30 1387 O 127.971 1.24346 1.4956 0
M  V30 1388 C 128.254 3.35626 -1.30489 0
M  V30 1389 C 128.107 3.48673 -2.84161 0
M  V30 1390 C 129.426 4.30357 -0.920907 0
M  V30 1391 H 126.545 0.677144 -0.290939 0
M  V30 1392 H 129.187 1.35633 -1.33056 0
M  V30 1393 H 127.337 3.79068 -0.850883 0
M  V30 1394 H 129.009 3.14099 -3.37846 0
M  V30 1395 H 127.252 2.90253 -3.22391 0
M  V30 1396 H 127.923 4.53453 -3.14777 0
M  V30 1397 H 130.399 3.94871 -1.3121 0
M  V30 1398 H 129.275 5.33193 -1.30372 0
M  V30 1399 H 129.536 4.4176 0.173226 0
M  V30 1400 N 128.595 0.856903 1.32268 0
M  V30 1401 C 129.825 0.47475 2.01071 0
M  V30 1402 C 130.233 -0.933746 1.64553 0
M  V30 1403 O 129.576 -1.62114 0.863989 0
M  V30 1404 C 129.638 0.536746 3.55471 0
M  V30 1405 C 129.302 1.90453 4.15423 0
M  V30 1406 C 130.299 2.87029 4.33486 0
M  V30 1407 C 127.984 2.20229 4.51447 0
M  V30 1408 C 129.978 4.11532 4.86744 0
M  V30 1409 C 127.665 3.44984 5.0441 0
M  V30 1410 C 128.663 4.40452 5.22007 0
M  V30 1411 O 128.351 5.62998 5.73837 0
M  V30 1412 H 128.083 0.184778 0.650256 0
M  V30 1413 H 130.637 1.15615 1.69771 0
M  V30 1414 H 128.867 -0.20152 3.86175 0
M  V30 1415 H 130.556 0.169875 4.05544 0
M  V30 1416 H 131.322 2.6533 4.05986 0
M  V30 1417 H 127.201 1.46705 4.37034 0
M  V30 1418 H 130.745 4.86056 5.00395 0
M  V30 1419 H 126.642 3.66532 5.31342 0
M  V30 1420 H 127.41 5.64987 5.92226 0
M  V30 1421 N 130.073 -1.45103 0.615059 0
M  V30 1422 C 131.021 -2.32331 -0.111791 0
M  V30 1423 C 132.015 -1.46409 -0.852102 0
M  V30 1424 O 133.221 -1.62849 -0.766821 0
M  V30 1425 H 129.596 -0.749993 -0.0549072 0
M  V30 1426 H 131.567 -2.91407 0.642225 0
M  V30 1427 C 130.316 -3.3015 -1.09071 0
M  V30 1428 H 129.639 -3.96265 -0.530485 0
M  V30 1429 H 131.079 -3.93898 -1.56908 0
M  V30 1430 C 129.538 -2.57875 -2.168 0
M  V30 1431 O 130.068 -2.36567 -3.24652 0
M  V30 1432 N 128.274 -2.17884 -1.92289 0
M  V30 1433 H 127.821 -2.35413 -1.04587 0
M  V30 1434 H 127.779 -1.6985 -2.64572 0
M  V30 1435 N 131.551 -0.354651 -1.53558 0
M  V30 1436 C 132.461 0.50515 -2.29097 0
M  V30 1437 C 133.477 1.10223 -1.34636 0
M  V30 1438 O 134.653 1.11553 -1.67684 0
M  V30 1439 C 131.718 1.63479 -3.05738 0
M  V30 1440 C 130.779 1.06636 -4.15845 0
M  V30 1441 C 130.012 2.14217 -4.88822 0
M  V30 1442 O 130.235 3.35137 -4.61562 0
M  V30 1443 O 129.169 1.77887 -5.75013 0
M  V30 1444 H 132.995 -0.109237 -3.03503 0
M  V30 1445 H 130.58 -0.119357 -1.48922 0
M  V30 1446 H 132.462 2.2918 -3.5363 0
M  V30 1447 H 131.137 2.23478 -2.34178 0
M  V30 1448 H 130.044 0.373565 -3.7223 0
M  V30 1449 H 131.377 0.511081 -4.89539 0
M  V30 1450 N 133.029 1.57378 -0.0835403 0
M  V30 1451 C 133.977 2.14602 0.89714 0
M  V30 1452 C 134.971 1.08589 1.30018 0
M  V30 1453 O 136.177 1.26952 1.27606 0
M  V30 1454 H 132.552 0.686346 0.3073 0
M  V30 1455 H 134.523 2.95845 0.38969 0
M  V30 1456 C 133.272 2.73188 2.15089 0
M  V30 1457 H 132.595 3.54442 1.84962 0
M  V30 1458 H 134.035 3.1681 2.81793 0
M  V30 1459 C 132.494 1.68517 2.91725 0
M  V30 1460 O 133.024 1.11718 3.85852 0
M  V30 1461 N 131.23 1.39277 2.55049 0
M  V30 1462 H 130.777 1.85655 1.78577 0
M  V30 1463 H 130.735 0.694791 3.06627 0
M  V30 1464 N 134.507 -0.190092 1.56449 0
M  V30 1465 C 135.754 -0.909705 1.80916 0
M  V30 1466 C 136.082 -1.83047 0.657583 0
M  V30 1467 O 135.337 -1.92428 -0.356356 0
M  V30 1468 C 135.636 -1.75382 3.1141 0
M  V30 1469 C 135.302 -0.983606 4.40041 0
M  V30 1470 C 133.964 -0.770967 4.74984 0
M  V30 1471 C 136.316 -0.442024 5.19322 0
M  V30 1472 C 133.644 -0.0053448 5.867 0
M  V30 1473 C 135.996 0.310412 6.31838 0
M  V30 1474 C 134.66 0.534023 6.6536 0
M  V30 1475 H 133.93 -0.332885 0.662019 0
M  V30 1476 H 136.577 -0.175762 1.90692 0
M  V30 1477 H 134.882 -2.55659 2.96893 0
M  V30 1478 H 136.579 -2.31331 3.27547 0
M  V30 1479 H 133.169 -1.15936 4.12622 0
M  V30 1480 H 137.353 -0.593693 4.92736 0
M  V30 1481 H 132.609 0.177825 6.11141 0
M  V30 1482 H 136.783 0.737419 6.92485 0
M  V30 1483 H 134.41 1.12918 7.51767 0
M  V30 1484 N 135.985 -1.50799 -0.457987 0
M  V30 1485 C 136.917 -1.66786 -1.57211 0
M  V30 1486 C 137.93 -0.548962 -1.53265 0
M  V30 1487 O 139.119 -0.8226 -1.58416 0
M  V30 1488 C 136.219 -1.64834 -2.96113 0
M  V30 1489 C 135.392 -2.92971 -3.24787 0
M  V30 1490 C 134.451 -2.83485 -4.43309 0
M  V30 1491 O 133.477 -3.5744 -4.42973 0
M  V30 1492 N 134.679 -1.97929 -5.45714 0
M  V30 1493 H 137.444 -2.62889 -1.43909 0
M  V30 1494 H 135.005 -1.48427 -0.646617 0
M  V30 1495 H 136.997 -1.56084 -3.7339 0
M  V30 1496 H 135.567 -0.764118 -3.03117 0
M  V30 1497 H 134.787 -3.15749 -2.36 0
M  V30 1498 H 136.075 -3.77834 -3.40762 0
M  V30 1499 H 135.473 -1.37182 -5.48815 0
M  V30 1500 H 134.03 -1.95073 -6.21924 0
M  V30 1501 N 137.463 0.71206 -1.40597 0
M  V30 1502 C 138.395 1.83704 -1.37061 0
M  V30 1503 C 139.408 1.60453 -0.275426 0
M  V30 1504 O 140.597 1.70262 -0.53602 0
M  V30 1505 C 137.697 3.20172 -1.11099 0
M  V30 1506 C 136.87 3.7059 -2.3234 0
M  V30 1507 C 135.929 4.85681 -2.02485 0
M  V30 1508 O 134.955 4.9815 -2.75382 0
M  V30 1509 N 136.157 5.71735 -1.00497 0
M  V30 1510 H 138.922 1.87235 -2.34016 0
M  V30 1511 H 136.483 0.893739 -1.34996 0
M  V30 1512 H 138.475 3.94768 -0.891064 0
M  V30 1513 H 137.045 3.11767 -0.227989 0
M  V30 1514 H 136.265 2.87085 -2.7014 0
M  V30 1515 H 137.553 4.01011 -3.13157 0
M  V30 1516 H 136.951 5.64275 -0.401298 0
M  V30 1517 H 135.508 6.463 -0.844942 0
M  V30 1518 N 138.941 1.26152 0.944643 0
M  V30 1519 C 139.871 1.09902 2.06019 0
M  V30 1520 C 140.852 0.00519538 1.70099 0
M  V30 1521 O 142.037 0.176583 1.93396 0
M  V30 1522 C 139.167 0.727562 3.39594 0
M  V30 1523 C 138.121 1.77274 3.89561 0
M  V30 1524 C 137.447 1.25569 5.19747 0
M  V30 1525 C 138.747 3.17357 4.14827 0
M  V30 1526 H 140.441 2.03217 2.19871 0
M  V30 1527 H 137.987 0.978452 1.05652 0
M  V30 1528 H 139.94 0.600777 4.17095 0
M  V30 1529 H 138.664 -0.241287 3.25707 0
M  V30 1530 H 137.323 1.88814 3.14237 0
M  V30 1531 H 136.971 0.276783 5.02238 0
M  V30 1532 H 136.671 1.95433 5.54148 0
M  V30 1533 H 138.195 1.1415 5.99835 0
M  V30 1534 H 139.609 3.08914 4.82954 0
M  V30 1535 H 138.006 3.84781 4.60504 0
M  V30 1536 H 139.076 3.63673 3.20734 0
M  V30 1537 N 140.419 -1.14872 1.07899 0
M  V30 1538 C 141.366 -2.19791 0.704319 0
M  V30 1539 C 142.336 -1.63238 -0.306987 0
M  V30 1540 O 143.521 -1.8983 -0.192171 0
M  V30 1541 C 140.661 -3.44911 0.114244 0
M  V30 1542 C 139.774 -4.15637 1.1777 0
M  V30 1543 C 138.909 -5.28324 0.552037 0
M  V30 1544 C 137.948 -5.90875 1.59789 0
M  V30 1545 N 137.085 -6.95022 0.994404 0
M  V30 1546 H 141.925 -2.5119 1.60336 0
M  V30 1547 H 139.462 -1.23356 0.801352 0
M  V30 1548 H 141.42 -4.16477 -0.245544 0
M  V30 1549 H 140.05 -3.14011 -0.74813 0
M  V30 1550 H 139.102 -3.42512 1.65499 0
M  V30 1551 H 140.414 -4.5823 1.97046 0
M  V30 1552 H 139.568 -6.06538 0.1402 0
M  V30 1553 H 138.307 -4.86939 -0.272431 0
M  V30 1554 H 137.312 -5.11369 2.01945 0
M  V30 1555 H 138.537 -6.34337 2.42474 0
M  V30 1556 H 136.483 -6.55722 0.190939 0
M  V30 1557 H 136.4 -7.36073 1.72432 0
M  V30 1558 H 137.668 -7.77123 0.608253 0
M  V30 1559 N 141.898 -0.863906 -1.31812 0
M  V30 1560 C 143.144 -0.472535 -1.97218 0
M  V30 1561 C 143.477 0.971394 -1.68159 0
M  V30 1562 O 142.752 1.68309 -0.974798 0
M  V30 1563 C 143.035 -0.723054 -3.52766 0
M  V30 1564 C 142.888 -2.21608 -3.91421 0
M  V30 1565 C 144.207 -0.185522 -4.39709 0
M  V30 1566 H 141.326 -0.173158 -0.71637 0
M  V30 1567 H 143.968 -1.08403 -1.56041 0
M  V30 1568 H 142.118 -0.202577 -3.87971 0
M  V30 1569 H 143.79 -2.80334 -3.66347 0
M  V30 1570 H 142.033 -2.691 -3.40246 0
M  V30 1571 H 142.704 -2.34203 -4.99853 0
M  V30 1572 H 145.18 -0.630726 -4.11292 0
M  V30 1573 H 144.056 -0.390306 -5.47511 0
M  V30 1574 H 144.317 0.912229 -4.32586 0
M  V30 1575 N 143.376 1.44774 -0.622745 0
M  V30 1576 C 144.792 1.56986 -0.287652 0
M  V30 1577 C 144.992 1.61167 1.20944 0
M  V30 1578 O 144.048 1.55015 1.99315 0
M  V30 1579 C 145.361 2.84551 -0.972188 0
M  V30 1580 C 146.909 2.9825 -0.949536 0
M  V30 1581 C 147.384 4.28605 -1.61437 0
M  V30 1582 N 148.875 4.35399 -1.58057 0
M  V30 1583 C 149.61 5.34964 -2.064 0
M  V30 1584 N 149.106 6.40981 -2.62897 0
M  V30 1585 N 150.899 5.26419 -1.97078 0
M  V30 1586 H 143.05 1.40304 -1.59463 0
M  V30 1587 H 145.313 0.671794 -0.668878 0
M  V30 1588 H 145.019 2.87417 -2.02693 0
M  V30 1589 H 144.893 3.73807 -0.504771 0
M  V30 1590 H 147.28 2.94941 0.0967067 0
M  V30 1591 H 147.361 2.10364 -1.45536 0
M  V30 1592 H 147.005 4.32672 -2.66002 0
M  V30 1593 H 146.935 5.15334 -1.08344 0
M  V30 1594 H 149.426 3.59397 -1.16801 0
M  V30 1595 H 149.739 7.13225 -2.97539 0
M  V30 1596 H 148.084 6.4169 -2.66943 0
M  V30 1597 H 151.275 4.42504 -1.52669 0
M  V30 1598 H 151.448 6.03861 -2.35066 0
M  V30 1599 N 144.854 0.36279 1.53368 0
M  V30 1600 C 146.1 -0.228113 2.01513 0
M  V30 1601 C 146.433 -1.48648 1.2497 0
M  V30 1602 O 145.708 -1.91459 0.342616 0
M  V30 1603 C 145.991 -0.522884 3.56284 0
M  V30 1604 C 145.844 0.74892 4.43521 0
M  V30 1605 C 147.163 -1.32461 4.19693 0
M  V30 1606 H 144.282 -0.0814343 0.732487 0
M  V30 1607 H 146.924 0.48713 1.83649 0
M  V30 1608 H 145.074 -1.1322 3.71636 0
M  V30 1609 H 146.746 1.38648 4.39971 0
M  V30 1610 H 144.989 1.36986 4.11603 0
M  V30 1611 H 145.66 0.497667 5.49752 0
M  V30 1612 H 148.136 -0.809203 4.08156 0
M  V30 1613 H 147.012 -1.49961 5.28018 0
M  V30 1614 H 147.273 -2.33232 3.75573 0
M  V30 1615 N 146.332 -1.57332 0.0918853 0
M  V30 1616 C 147.242 -2.17368 -0.882505 0
M  V30 1617 C 148.258 -1.14226 -1.31257 0
M  V30 1618 O 149.434 -1.46582 -1.38115 0
M  V30 1619 C 146.499 -2.73962 -2.12476 0
M  V30 1620 C 145.56 -3.92048 -1.7492 0
M  V30 1621 C 144.793 -4.45933 -2.93223 0
M  V30 1622 O 145.016 -3.98764 -4.07852 0
M  V30 1623 O 143.95 -5.36999 -2.71875 0
M  V30 1624 H 147.776 -3.01031 -0.40172 0
M  V30 1625 H 145.361 -1.48813 -0.132291 0
M  V30 1626 H 147.243 -3.10147 -2.85283 0
M  V30 1627 H 145.918 -1.93347 -2.59613 0
M  V30 1628 H 144.825 -3.6068 -0.993025 0
M  V30 1629 H 146.158 -4.74017 -1.32548 0
M  V30 1630 N 147.81 0.181792 -1.56548 0
M  V30 1631 C 148.76 1.22961 -1.92002 0
M  V30 1632 C 149.744 1.40331 -0.787146 0
M  V30 1633 O 150.936 1.42478 -1.05019 0
M  V30 1634 C 148.065 2.57144 -2.27446 0
M  V30 1635 C 147.151 2.43512 -3.47222 0
M  V30 1636 N 147.542 1.99577 -4.64761 0
M  V30 1637 C 145.84 2.74368 -3.51622 0
M  V30 1638 C 146.541 1.98156 -5.46909 0
M  V30 1639 N 145.517 2.40164 -4.8767 0
M  V30 1640 H 149.319 0.881462 -2.8037 0
M  V30 1641 H 146.833 0.390141 -1.57644 0
M  V30 1642 H 148.83 3.32847 -2.51035 0
M  V30 1643 H 147.49 2.92771 -1.40411 0
M  V30 1644 H 148.501 1.70078 -4.89177 0
M  V30 1645 H 145.178 3.14102 -2.75038 0
M  V30 1646 H 146.568 1.65975 -6.51077 0
M  V30 1647 N 149.288 1.51039 0.449983 0
M  V30 1648 C 150.22 1.67617 1.56324 0
M  V30 1649 C 151.233 0.557083 1.52972 0
M  V30 1650 O 152.422 0.830989 1.57977 0
M  V30 1651 C 149.522 1.66402 2.95235 0
M  V30 1652 C 148.695 2.9469 3.23229 0
M  V30 1653 C 147.754 2.85832 4.41799 0
M  V30 1654 O 146.78 3.59785 4.41071 0
M  V30 1655 N 147.982 2.00821 5.44657 0
M  V30 1656 H 150.747 2.63648 1.42512 0
M  V30 1657 H 148.308 1.48767 0.638737 0
M  V30 1658 H 150.3 1.58062 3.72557 0
M  V30 1659 H 148.87 0.780182 3.02708 0
M  V30 1660 H 148.09 3.16996 2.34323 0
M  V30 1661 H 149.378 3.79636 3.38754 0
M  V30 1662 H 148.776 1.40091 5.48079 0
M  V30 1663 H 147.333 1.98368 6.20881 0
M  V30 1664 N 150.766 -0.704594 1.40972 0
M  V30 1665 C 151.696 -1.83124 1.44872 0
M  V30 1666 C 152.677 -1.67281 0.30838 0
M  V30 1667 O 153.862 -1.87149 0.518556 0
M  V30 1668 C 150.992 -3.21181 1.32136 0
M  V30 1669 C 149.946 -3.51714 2.43888 0
M  V30 1670 C 149.272 -4.89032 2.16222 0
M  V30 1671 C 150.572 -3.516 3.86232 0
M  V30 1672 H 152.266 -1.80117 2.39161 0
M  V30 1673 H 149.812 -0.865145 1.15114 0
M  V30 1674 H 151.765 -3.99702 1.33479 0
M  V30 1675 H 150.489 -3.24791 0.343279 0
M  V30 1676 H 149.148 -2.75539 2.41813 0
M  V30 1677 H 148.796 -4.89256 1.16778 0
M  V30 1678 H 148.496 -5.10426 2.911 0
M  V30 1679 H 150.02 -5.69873 2.19265 0
M  V30 1680 H 151.434 -4.2014 3.9007 0
M  V30 1681 H 149.831 -3.84523 4.60719 0
M  V30 1682 H 150.901 -2.50757 4.15029 0
M  V30 1683 N 152.244 -1.26651 -0.937939 0
M  V30 1684 C 153.521 -1.0313 -1.66204 0
M  V30 1685 C 153.901 0.437256 -2.06522 0
M  V30 1686 O 153.249 1.41831 -1.79154 0
M  V30 1687 C 153.459 -1.98314 -2.87181 0
M  V30 1688 C 154.807 -2.27107 -3.58758 0
M  V30 1689 O 155.831 -1.96205 -2.97291 0
M  V30 1690 O 154.69 -2.79736 -4.69479 0
M  V30 1691 H 151.784 -0.392384 -0.727986 0
M  V30 1692 H 154.33 -1.37874 -0.989382 0
M  V30 1693 H 153.102 -2.97399 -2.54302 0
M  V30 1694 H 152.725 -1.64068 -3.6217 0
M  V30 1695 N 153.722 1.14298 -1.08507 0
M  V30 1696 C 155.133 1.66926 -0.836227 0
M  V30 1697 C 155.484 1.85576 0.63686 0
M  V30 1698 O 154.609 1.56767 1.49175 0
M  V30 1699 C 155.204 3.03219 -1.51142 0
M  V30 1700 C 153.763 3.52876 -1.30979 0
M  V30 1701 C 152.91 2.2833 -1.57356 0
M  V30 1702 H 155.861 0.983491 -1.24552 0
M  V30 1703 H 155.882 3.68726 -0.939211 0
M  V30 1704 H 155.394 2.89612 -2.58353 0
M  V30 1705 H 153.495 3.71703 -0.258429 0
M  V30 1706 H 153.608 4.33586 -2.03814 0
M  V30 1707 H 151.972 2.34454 -0.995164 0
M  V30 1708 H 152.755 2.17298 -2.65775 0
M  V30 1709 N 155.201 0.870884 1.31352 0
M  V30 1710 C 156.133 0.28455 2.27427 0
M  V30 1711 C 157.146 -0.552927 1.53123 0
M  V30 1712 O 158.335 -0.374771 1.74521 0
M  V30 1713 C 155.435 -0.615164 3.3327 0
M  V30 1714 C 154.608 0.190079 4.36987 0
M  V30 1715 C 153.667 -0.637917 5.22319 0
M  V30 1716 O 152.693 -0.065626 5.69162 0
M  V30 1717 N 153.895 -1.94973 5.46778 0
M  V30 1718 H 156.66 1.11017 2.7838 0
M  V30 1719 H 154.221 0.732458 1.44384 0
M  V30 1720 H 156.213 -1.1748 3.87273 0
M  V30 1721 H 154.783 -1.34146 2.82354 0
M  V30 1722 H 154.003 0.931165 3.83044 0
M  V30 1723 H 155.291 0.742579 5.03352 0
M  V30 1724 H 154.689 -2.4378 5.10478 0
M  V30 1725 H 153.246 -2.45713 6.03712 0
M  V30 1726 N 156.679 -1.44442 0.630414 0
M  V30 1727 C 157.627 -2.32437 -0.0871428 0
M  V30 1728 C 158.621 -1.47304 -0.836525 0
M  V30 1729 O 159.827 -1.63653 -0.749506 0
M  V30 1730 H 156.202 -0.750533 -0.0469495 0
M  V30 1731 H 158.173 -2.90709 0.673096 0
M  V30 1732 C 156.922 -3.31288 -1.05563 0
M  V30 1733 H 156.245 -3.96805 -0.488426 0
M  V30 1734 H 157.685 -3.9554 -1.52721 0
M  V30 1735 C 156.144 -2.6016 -2.14052 0
M  V30 1736 O 156.674 -2.39997 -3.22124 0
M  V30 1737 N 154.88 -2.19911 -1.89967 0
M  V30 1738 H 154.427 -2.36509 -1.02085 0
M  V30 1739 H 154.385 -1.72646 -2.62756 0
M  V30 1740 N 158.157 -0.370918 -1.53173 0
M  V30 1741 C 159.403 0.209976 -2.02313 0
M  V30 1742 C 159.758 1.45987 -1.25322 0
M  V30 1743 O 159.051 1.8856 -0.339965 0
M  V30 1744 C 159.245 0.549696 -3.53147 0
M  V30 1745 C 159.074 -0.665721 -4.44745 0
M  V30 1746 C 157.844 -1.17942 -4.91343 0
M  V30 1747 C 160.042 -1.53255 -4.90935 0
M  V30 1748 N 158.024 -2.35431 -5.66962 0
M  V30 1749 C 159.395 -2.55403 -5.64951 0
M  V30 1750 C 161.45 -1.5548 -4.73002 0
M  V30 1751 C 160.153 -3.5964 -6.22938 0
M  V30 1752 C 162.179 -2.58613 -5.31858 0
M  V30 1753 C 161.541 -3.59485 -6.05764 0
M  V30 1754 H 157.64 0.0394095 -0.781006 0
M  V30 1755 H 160.224 -0.516666 -1.8772 0
M  V30 1756 H 158.395 1.24541 -3.67891 0
M  V30 1757 H 160.127 1.11614 -3.89004 0
M  V30 1758 H 156.882 -0.743228 -4.67732 0
M  V30 1759 H 157.306 -2.94827 -6.09431 0
M  V30 1760 H 161.948 -0.788457 -4.15383 0
M  V30 1761 H 159.666 -4.37153 -6.79649 0
M  V30 1762 H 163.252 -2.61195 -5.19873 0
M  V30 1763 H 162.132 -4.3798 -6.50495 0
M  V30 1764 N 159.635 1.57281 -0.100228 0
M  V30 1765 C 160.883 1.94153 0.561157 0
M  V30 1766 C 161.204 0.983157 1.68401 0
M  V30 1767 O 160.474 0.0361132 1.95867 0
M  V30 1768 H 159.054 0.716791 0.210283 0
M  V30 1769 H 161.716 1.94202 -0.164765 0
M  V30 1770 H 160.812 2.96709 0.968008 0
M  V30 1771 N 161.113 -0.173488 1.56642 0
M  V30 1772 C 162.061 -1.23417 1.97157 0
M  V30 1773 C 163.055 -1.45946 0.860013 0
M  V30 1774 O 164.261 -1.46551 1.04512 0
M  V30 1775 H 160.636 -0.414818 0.62724 0
M  V30 1776 H 162.607 -0.865582 2.8557 0
M  V30 1777 C 161.356 -2.5665 2.34576 0
M  V30 1778 H 160.679 -2.40137 3.19647 0
M  V30 1779 H 162.119 -3.2956 2.6677 0
M  V30 1780 C 160.578 -3.15245 1.18836 0
M  V30 1781 O 161.108 -3.98883 0.474869 0
M  V30 1782 N 159.314 -2.74303 0.959497 0
M  V30 1783 H 158.861 -2.0639 1.54146 0
M  V30 1784 H 158.819 -3.13844 0.186932 0
M  V30 1785 N 162.591 -1.51276 -0.441967 0
M  V30 1786 C 163.816 -1.67799 -1.21895 0
M  V30 1787 C 164.241 -0.372864 -1.84367 0
M  V30 1788 O 163.599 0.666501 -1.68604 0
M  V30 1789 C 163.647 -2.79199 -2.28211 0
M  V30 1790 O 162.751 -2.42479 -3.33583 0
M  V30 1791 H 162.092 -0.559649 -0.357336 0
M  V30 1792 H 164.622 -1.97815 -0.522522 0
M  V30 1793 H 164.632 -3.03146 -2.73069 0
M  V30 1794 H 163.307 -3.73906 -1.82118 0
M  V30 1795 H 161.884 -2.29087 -2.94234 0
M  V30 1796 N 164.069 0.697108 -1.41344 0
M  V30 1797 C 165.48 1.27697 -1.36199 0
M  V30 1798 C 165.831 1.9615 -0.0443463 0
M  V30 1799 O 164.956 1.98689 0.857419 0
M  V30 1800 C 165.551 2.32223 -2.46694 0
M  V30 1801 C 164.11 2.8579 -2.44952 0
M  V30 1802 C 163.257 1.59807 -2.26621 0
M  V30 1803 H 166.208 0.491968 -1.50882 0
M  V30 1804 H 166.229 3.1348 -2.15664 0
M  V30 1805 H 165.741 1.82373 -3.42581 0
M  V30 1806 H 163.842 3.3982 -1.52817 0
M  V30 1807 H 163.955 3.36325 -3.41207 0
M  V30 1808 H 162.319 1.8556 -1.7447 0
M  V30 1809 H 163.102 1.11956 -3.24532 0
M  V30 1810 N 165.547 1.27147 0.931209 0
M  V30 1811 C 166.494 1.09568 2.03134 0
M  V30 1812 C 167.464 -0.00222433 1.661 0
M  V30 1813 O 168.649 0.159439 1.90133 0
M  V30 1814 C 165.789 0.745231 3.36957 0
M  V30 1815 C 164.902 1.92041 3.86968 0
M  V30 1816 C 164.037 1.51216 5.09222 0
M  V30 1817 C 163.076 2.65504 5.5152 0
M  V30 1818 N 162.213 2.25291 6.64972 0
M  V30 1819 H 167.053 2.03708 2.17502 0
M  V30 1820 H 164.59 1.01411 1.06556 0
M  V30 1821 H 166.548 0.522878 4.1391 0
M  V30 1822 H 165.178 -0.159202 3.22407 0
M  V30 1823 H 164.23 2.25541 3.06326 0
M  V30 1824 H 165.542 2.77787 4.1429 0
M  V30 1825 H 164.696 1.25084 5.93666 0
M  V30 1826 H 163.435 0.625749 4.83669 0
M  V30 1827 H 162.44 2.92354 4.65628 0
M  V30 1828 H 163.665 3.54761 5.7907 0
M  V30 1829 H 161.611 1.39098 6.41083 0
M  V30 1830 H 161.528 3.04577 6.91931 0
M  V30 1831 H 162.796 2.02398 7.52765 0
M  V30 1832 N 167.025 -1.13721 1.09112 0
M  V30 1833 C 167.955 -2.21148 0.749385 0
M  V30 1834 C 168.936 -1.6792 -0.271475 0
M  V30 1835 O 170.121 -1.93693 -0.140251 0
M  V30 1836 C 167.251 -3.46905 0.165659 0
M  V30 1837 C 166.205 -4.13203 1.11567 0
M  V30 1838 C 165.531 -5.33248 0.393809 0
M  V30 1839 C 166.831 -4.60912 2.45678 0
M  V30 1840 H 168.525 -2.4999 1.64758 0
M  V30 1841 H 166.071 -1.20156 0.793626 0
M  V30 1842 H 168.024 -4.21313 -0.085466 0
M  V30 1843 H 166.748 -3.17449 -0.767714 0
M  V30 1844 H 165.407 -3.40758 1.35202 0
M  V30 1845 H 165.055 -5.00054 -0.543599 0
M  V30 1846 H 164.755 -5.78552 1.02721 0
M  V30 1847 H 166.279 -6.10413 0.150908 0
M  V30 1848 H 167.693 -5.26759 2.26269 0
M  V30 1849 H 166.09 -5.16944 3.04776 0
M  V30 1850 H 167.16 -3.75603 3.06677 0
M  V30 1851 N 168.503 -0.877838 -1.30888 0
M  V30 1852 C 169.919 -0.570844 -1.49042 0
M  V30 1853 C 170.119 0.893159 -1.80624 0
M  V30 1854 O 169.175 1.67485 -1.88958 0
M  V30 1855 C 170.488 -1.47784 -2.61878 0
M  V30 1856 C 172.036 -1.48071 -2.75761 0
M  V30 1857 C 172.511 -2.37347 -3.91702 0
M  V30 1858 N 174.002 -2.35271 -3.99001 0
M  V30 1859 C 174.737 -3.01063 -4.88004 0
M  V30 1860 N 174.233 -3.76055 -5.81854 0
M  V30 1861 N 176.026 -2.90332 -4.81315 0
M  V30 1862 H 168.177 -1.82502 -1.0866 0
M  V30 1863 H 170.44 -0.780797 -0.537644 0
M  V30 1864 H 170.146 -2.51993 -2.45341 0
M  V30 1865 H 170.02 -1.18215 -3.58197 0
M  V30 1866 H 172.407 -0.446166 -2.91708 0
M  V30 1867 H 172.488 -1.81668 -1.80085 0
M  V30 1868 H 172.132 -3.40883 -3.76512 0
M  V30 1869 H 172.062 -2.01071 -4.86701 0
M  V30 1870 H 174.553 -1.80768 -3.3186 0
M  V30 1871 H 174.866 -4.23366 -6.46514 0
M  V30 1872 H 173.211 -3.80163 -5.81808 0
M  V30 1873 H 176.402 -2.31278 -4.06974 0
M  V30 1874 H 176.575 -3.41885 -5.50471 0
M  V30 1875 N 169.982 1.44106 -0.638065 0
M  V30 1876 C 171.229 2.01978 -0.14533 0
M  V30 1877 C 171.557 1.50234 1.23532 0
M  V30 1878 O 170.812 0.679548 1.83523 0
M  V30 1879 C 171.111 3.5729 -0.0887327 0
M  V30 1880 C 170.777 4.28317 -1.40909 0
M  V30 1881 C 169.439 4.47437 -1.77069 0
M  V30 1882 C 171.791 4.6867 -2.28031 0
M  V30 1883 C 169.119 5.04171 -3.00047 0
M  V30 1884 C 171.471 5.26766 -3.50286 0
M  V30 1885 C 170.135 5.44104 -3.86661 0
M  V30 1886 H 169.405 0.739089 -0.0531801 0
M  V30 1887 H 172.052 1.72781 -0.825761 0
M  V30 1888 H 170.357 3.8594 0.675095 0
M  V30 1889 H 172.054 3.99807 0.309145 0
M  V30 1890 H 168.644 4.1377 -1.1177 0
M  V30 1891 H 172.828 4.53604 -2.01388 0
M  V30 1892 H 168.084 5.15782 -3.28298 0
M  V30 1893 H 172.258 5.56983 -4.18023 0
M  V30 1894 H 169.885 5.87832 -4.82034 0
M  V30 1895 N 171.46 0.379036 1.52974 0
M  V30 1896 C 172.688 -0.20679 2.05864 0
M  V30 1897 C 173.103 -1.41356 1.25155 0
M  V30 1898 O 172.46 -1.8009 0.295588 0
M  V30 1899 C 172.511 -0.587045 3.56702 0
M  V30 1900 O 172.232 0.571776 4.34353 0
M  V30 1901 C 173.733 -1.22983 4.25899 0
M  V30 1902 H 170.953 -0.0336123 0.670158 0
M  V30 1903 H 173.497 0.541298 1.97206 0
M  V30 1904 H 171.652 -1.28504 3.65466 0
M  V30 1905 H 172.066 0.261544 5.23847 0
M  V30 1906 H 173.54 -1.44635 5.32715 0
M  V30 1907 H 174.017 -2.19416 3.80465 0
M  V30 1908 H 174.623 -0.572892 4.21424 0
M  V30 1909 N 172.938 -1.57226 0.108567 0
M  V30 1910 C 174.354 -1.5766 -0.248058 0
M  V30 1911 C 174.554 -1.12063 -1.67464 0
M  V30 1912 O 173.61 -0.803236 -2.39383 0
M  V30 1913 C 174.923 -3.0069 -0.0242287 0
M  V30 1914 C 176.471 -3.12868 -0.0909372 0
M  V30 1915 C 176.946 -4.57879 0.105067 0
M  V30 1916 N 178.437 -4.63172 0.0506846 0
M  V30 1917 C 179.172 -5.73126 0.177396 0
M  V30 1918 N 178.668 -6.91866 0.359696 0
M  V30 1919 N 180.461 -5.61977 0.117709 0
M  V30 1920 H 172.612 -1.85169 1.04049 0
M  V30 1921 H 174.875 -0.85529 0.40888 0
M  V30 1922 H 174.581 -3.38299 0.961604 0
M  V30 1923 H 174.455 -3.6945 -0.76068 0
M  V30 1924 H 176.842 -2.75124 -1.06729 0
M  V30 1925 H 176.923 -2.46672 0.677225 0
M  V30 1926 H 176.567 -4.96321 1.07834 0
M  V30 1927 H 176.497 -5.22153 -0.682954 0
M  V30 1928 H 178.988 -3.778 -0.0871266 0
M  V30 1929 H 179.301 -7.71503 0.447529 0
M  V30 1930 H 177.646 -6.93874 0.395536 0
M  V30 1931 H 180.837 -4.68094 -0.0236741 0
M  V30 1932 H 181.01 -6.47627 0.219905 0
M  V30 1933 N 174.416 0.165178 -1.56732 0
M  V30 1934 C 175.663 0.880807 -1.8234 0
M  V30 1935 C 175.991 1.81977 -0.686621 0
M  V30 1936 O 175.246 1.92971 0.325697 0
M  V30 1937 C 175.545 1.70405 -3.1416 0
M  V30 1938 C 175.211 0.913475 -4.4155 0
M  V30 1939 C 173.873 0.695303 -4.7615 0
M  V30 1940 C 176.225 0.359349 -5.1996 0
M  V30 1941 C 173.553 -0.0879947 -5.86634 0
M  V30 1942 C 175.905 -0.410893 -6.31264 0
M  V30 1943 C 174.569 -0.639808 -6.64427 0
M  V30 1944 H 173.839 0.32231 -0.667231 0
M  V30 1945 H 176.486 0.145402 -1.90947 0
M  V30 1946 H 174.791 2.50903 -3.00923 0
M  V30 1947 H 176.488 2.26091 -3.31186 0
M  V30 1948 H 173.078 1.09357 -4.14414 0
M  V30 1949 H 177.262 0.515228 -4.93618 0
M  V30 1950 H 172.518 -0.27503 -6.10781 0
M  V30 1951 H 176.692 -0.847494 -6.91224 0
M  V30 1952 H 174.319 -1.24864 -7.49875 0
M  V30 1953 N 175.894 1.51508 0.433938 0
M  V30 1954 C 177.143 1.63578 1.18005 0
M  V30 1955 C 177.456 0.359514 1.92268 0
M  V30 1956 O 178.662 0.359632 2.69108 0
M  V30 1957 C 177.118 2.88901 2.14626 0
M  V30 1958 C 176.726 4.23544 1.45995 0
M  V30 1959 C 178.47 3.10328 2.89649 0
M  V30 1960 C 176.377 5.40014 2.4112 0
M  V30 1961 H 175.307 0.609277 0.444182 0
M  V30 1962 H 177.958 1.77978 0.446773 0
M  V30 1963 H 176.34 2.68142 2.91403 0
M  V30 1964 H 177.514 4.54696 0.747532 0
M  V30 1965 H 175.829 4.08021 0.831115 0
M  V30 1966 H 178.426 3.94518 3.60915 0
M  V30 1967 H 178.769 2.23544 3.51189 0
M  V30 1968 H 179.302 3.31443 2.19978 0
M  V30 1969 H 176.041 6.29068 1.84264 0
M  V30 1970 H 175.561 5.13233 3.10406 0
M  V30 1971 H 177.24 5.72099 3.02177 0
M  V30 1972 N 177.372 -0.689602 1.41712 0
M  V30 1973 C 178.6 -1.47827 1.44758 0
M  V30 1974 C 179.015 -1.88721 0.0545703 0
M  V30 1975 O 178.372 -1.57176 -0.927463 0
M  V30 1976 C 178.423 -2.73698 2.3616 0
M  V30 1977 O 178.144 -2.34524 3.7004 0
M  V30 1978 C 179.645 -3.67389 2.48072 0
M  V30 1979 H 176.865 -0.455357 0.49284 0
M  V30 1980 H 179.409 -0.848574 1.86063 0
M  V30 1981 H 177.564 -3.32891 1.98148 0
M  V30 1982 H 177.978 -3.15701 4.18847 0
M  V30 1983 H 179.452 -4.52475 3.16181 0
M  V30 1984 H 179.929 -4.12284 1.51388 0
M  V30 1985 H 180.535 -3.14097 2.86746 0
M  V30 1986 N 178.85 -1.27639 -0.924453 0
M  V30 1987 C 179.798 -1.10485 -2.04685 0
M  V30 1988 C 180.792 -0.0270421 -1.69378 0
M  V30 1989 O 181.998 -0.185008 -1.79047 0
M  V30 1990 H 178.373 -0.340546 -0.670472 0
M  V30 1991 H 180.344 -2.05566 -2.16298 0
M  V30 1992 C 179.093 -0.772229 -3.39016 0
M  V30 1993 H 178.416 -1.59351 -3.66671 0
M  V30 1994 H 179.856 -0.692097 -4.18313 0
M  V30 1995 C 178.315 0.523554 -3.32807 0
M  V30 1996 O 178.845 1.55702 -3.70297 0
M  V30 1997 N 177.051 0.520363 -2.85903 0
M  V30 1998 H 176.598 -0.32107 -2.55591 0
M  V30 1999 H 176.556 1.38742 -2.82131 0
M  V30 2000 N 180.328 1.1314 -1.09713 0
M  V30 2001 C 181.574 1.84757 -0.836224 0
M  V30 2002 C 181.907 1.8347 0.636598 0
M  V30 2003 O 181.182 1.27491 1.46889 0
M  V30 2004 C 181.465 3.32782 -1.37578 0
M  V30 2005 C 181.318 3.42567 -2.91493 0
M  V30 2006 C 182.637 4.28307 -1.01198 0
M  V30 2007 H 179.756 0.67082 -0.305236 0
M  V30 2008 H 182.398 1.3278 -1.35903 0
M  V30 2009 H 180.548 3.77177 -0.931097 0
M  V30 2010 H 182.22 3.06862 -3.44432 0
M  V30 2011 H 180.463 2.83349 -3.28475 0
M  V30 2012 H 181.134 4.46674 -3.24324 0
M  V30 2013 H 183.61 3.91999 -1.39556 0
M  V30 2014 H 182.486 5.30307 -1.41653 0
M  V30 2015 H 182.747 4.42029 0.0794833 0
M  V30 2016 N 181.806 0.884767 1.30421 0
M  V30 2017 C 182.738 0.308655 2.27112 0
M  V30 2018 C 183.751 -0.536655 1.53701 0
M  V30 2019 O 184.94 -0.35624 1.74909 0
M  V30 2020 C 182.04 -0.579782 3.33904 0
M  V30 2021 C 181.213 0.236417 4.36761 0
M  V30 2022 C 180.272 -0.582482 5.22966 0
M  V30 2023 O 179.298 -0.00525502 5.692 0
M  V30 2024 N 180.5 -1.89163 5.48815 0
M  V30 2025 H 183.265 1.13964 2.77186 0
M  V30 2026 H 180.826 0.747731 1.43599 0
M  V30 2027 H 182.818 -1.13366 3.88497 0
M  V30 2028 H 181.388 -1.31144 2.83761 0
M  V30 2029 H 180.608 0.97174 3.82035 0
M  V30 2030 H 181.896 0.795924 5.02536 0
M  V30 2031 H 181.294 -2.38352 5.13035 0
M  V30 2032 H 179.851 -2.39296 6.06284 0
M  V30 2033 N 183.284 -1.43765 0.645699 0
M  V30 2034 C 184.247 -2.29163 -0.0409488 0
M  V30 2035 C 185.247 -1.41813 -0.757996 0
M  V30 2036 O 186.437 -1.63527 -0.600382 0
M  V30 2037 C 183.569 -3.23716 -1.06869 0
M  V30 2038 H 184.762 -2.91366 0.710345 0
M  V30 2039 H 182.315 -1.5092 0.406547 0
M  V30 2040 H 183.05 -2.66393 -1.84947 0
M  V30 2041 H 182.835 -3.88105 -0.558277 0
M  V30 2042 H 184.325 -3.87831 -1.54845 0
M  V30 2043 N 184.763 -0.387143 -1.52771 0
M  V30 2044 C 185.726 0.436939 -2.24997 0
M  V30 2045 C 186.726 0.991991 -1.26555 0
M  V30 2046 O 187.916 0.874335 -1.50669 0
M  V30 2047 C 185.048 1.61281 -3.00335 0
M  V30 2048 H 186.241 -0.195365 -2.99263 0
M  V30 2049 H 183.794 -0.139218 -1.55679 0
M  V30 2050 H 184.529 2.2826 -2.30364 0
M  V30 2051 H 184.314 1.22154 -3.72587 0
M  V30 2052 H 185.804 2.19629 -3.5518 0
M  V30 2053 N 186.241 1.57166 -0.116904 0
M  V30 2054 C 187.174 2.10912 0.871291 0
M  V30 2055 C 188.152 1.025 1.26224 0
M  V30 2056 O 189.336 1.3014 1.36366 0
M  V30 2057 C 186.463 2.6041 2.16574 0
M  V30 2058 C 185.509 3.80687 1.92302 0
M  V30 2059 S 186.342 5.23199 1.14119 0
M  V30 2060 C 187.498 5.76064 2.44748 0
M  V30 2061 H 187.731 2.94401 0.414138 0
M  V30 2062 H 185.264 1.54096 0.096829 0
M  V30 2063 H 187.222 2.89583 2.9095 0
M  V30 2064 H 185.883 1.77106 2.59408 0
M  V30 2065 H 185.076 4.13462 2.8821 0
M  V30 2066 H 184.678 3.5212 1.26047 0
M  V30 2067 H 186.97 5.8566 3.406 0
M  V30 2068 H 187.913 6.74184 2.16521 0
M  V30 2069 H 188.321 5.04117 2.54019 0
M  V30 2070 N 187.719 -0.156864 1.56817 0
M  V30 2071 C 188.996 -0.899244 1.73704 0
M  V30 2072 C 189.376 -1.99771 0.682254 0
M  V30 2073 O 188.724 -2.26515 -0.300522 0
M  V30 2074 C 188.934 -1.45075 3.17418 0
M  V30 2075 C 190.282 -1.91802 3.7881 0
M  V30 2076 O 191.306 -1.54838 3.20786 0
M  V30 2077 O 190.165 -2.5994 4.80722 0
M  V30 2078 H 187.259 -0.424267 0.709878 0
M  V30 2079 H 189.805 -0.143561 1.69092 0
M  V30 2080 H 188.577 -0.660846 3.85679 0
M  V30 2081 H 188.2 -2.27021 3.26416 0
M  V30 2082 N 189.197 -1.51736 -0.425897 0
M  V30 2083 C 190.443 -1.65214 -1.1761 0
M  V30 2084 C 190.776 -0.372778 -1.90589 0
M  V30 2085 O 190.051 0.628139 -1.84078 0
M  V30 2086 C 190.334 -2.86312 -2.18398 0
M  V30 2087 C 190.187 -4.24254 -1.49426 0
M  V30 2088 C 191.506 -3.02925 -3.19256 0
M  V30 2089 H 188.625 -0.601263 -0.426206 0
M  V30 2090 H 191.267 -1.8425 -0.463882 0
M  V30 2091 H 189.417 -2.70213 -2.79137 0
M  V30 2092 H 191.089 -4.52046 -0.919362 0
M  V30 2093 H 189.332 -4.26426 -0.796432 0
M  V30 2094 H 190.003 -5.05001 -2.22885 0
M  V30 2095 H 192.479 -3.1781 -2.68581 0
M  V30 2096 H 191.355 -3.89199 -3.8706 0
M  V30 2097 H 191.616 -2.15497 -3.86023 0
M  V30 2098 N 190.675 0.682077 -1.42076 0
M  V30 2099 C 191.623 1.81707 -1.45208 0
M  V30 2100 C 192.617 1.66183 -0.328591 0
M  V30 2101 O 193.823 1.7288 -0.501264 0
M  V30 2102 H 190.198 0.599014 -0.454628 0
M  V30 2103 H 192.169 1.76183 -2.40836 0
M  V30 2104 C 190.918 3.19816 -1.36428 0
M  V30 2105 H 190.241 3.32385 -2.22171 0
M  V30 2106 H 191.681 3.99272 -1.42681 0
M  V30 2107 C 190.14 3.36809 -0.078191 0
M  V30 2108 O 190.67 3.92124 0.87188 0
M  V30 2109 N 188.876 2.906 0.00229266 0
M  V30 2110 H 188.423 2.45772 -0.771616 0
M  V30 2111 H 188.381 3.02347 0.862179 0
M  V30 2112 N 192.153 1.28127 0.917671 0
M  V30 2113 C 193.43 1.05761 1.64542 0
M  V30 2114 C 193.81 -0.404344 2.07191 0
M  V30 2115 O 193.158 -1.38963 1.81388 0
M  V30 2116 C 193.368 2.02857 2.83989 0
M  V30 2117 C 194.716 2.32786 3.551 0
M  V30 2118 O 195.74 2.0091 2.94132 0
M  V30 2119 O 194.599 2.87169 4.64969 0
M  V30 2120 H 191.693 0.403916 0.721652 0
M  V30 2121 H 194.239 1.39431 0.967322 0
M  V30 2122 H 193.011 3.01407 2.49538 0
M  V30 2123 H 192.634 1.69809 3.59514 0
M  V30 2124 N 193.631 -1.12557 1.10312 0
M  V30 2125 C 194.578 -2.18247 0.750781 0
M  V30 2126 C 195.548 -1.63853 -0.272293 0
M  V30 2127 O 196.733 -1.90195 -0.151862 0
M  V30 2128 C 193.873 -3.44591 0.187379 0
M  V30 2129 C 192.986 -4.13046 1.2656 0
M  V30 2130 C 192.121 -5.27034 0.663978 0
M  V30 2131 C 191.16 -5.87353 1.72287 0
M  V30 2132 N 190.297 -6.92757 1.1416 0
M  V30 2133 H 195.137 -2.47732 1.65628 0
M  V30 2134 H 192.674 -1.21629 0.827337 0
M  V30 2135 H 194.632 -4.16904 -0.157148 0
M  V30 2136 H 193.262 -3.15527 -0.681355 0
M  V30 2137 H 192.314 -3.38924 1.72727 0
M  V30 2138 H 193.626 -4.53947 2.06721 0
M  V30 2139 H 192.78 -6.06104 0.268824 0
M  V30 2140 H 191.519 -4.87407 -0.169082 0
M  V30 2141 H 190.524 -5.06971 2.12746 0
M  V30 2142 H 191.749 -6.29051 2.55875 0
M  V30 2143 H 189.695 -6.5517 0.329984 0
M  V30 2144 H 189.612 -7.3225 1.88007 0
M  V30 2145 H 190.88 -7.75658 0.772956 0
M  V30 2146 N 195.109 -0.891671 -1.2995 0
M  V30 2147 C 196.019 -0.367691 -2.31701 0
M  V30 2148 C 197.035 0.533486 -1.6562 0
M  V30 2149 O 198.211 0.424997 -1.96865 0
M  V30 2150 C 195.276 0.403406 -3.44345 0
M  V30 2151 C 194.337 -0.528328 -4.26037 0
M  V30 2152 C 193.57 0.206063 -5.33302 0
M  V30 2153 O 193.793 1.43119 -5.52153 0
M  V30 2154 O 192.727 -0.447281 -6.00236 0
M  V30 2155 H 196.553 -1.21163 -2.78484 0
M  V30 2156 H 194.138 -0.655725 -1.34241 0
M  V30 2157 H 196.02 0.839753 -4.12948 0
M  V30 2158 H 194.695 1.22354 -2.99685 0
M  V30 2159 H 193.602 -1.01362 -3.60106 0
M  V30 2160 H 194.935 -1.31465 -4.74318 0
M  V30 2161 N 196.587 1.43421 -0.653314 0
M  V30 2162 C 197.517 2.33487 0.0246656 0
M  V30 2163 C 198.498 1.49475 0.811863 0
M  V30 2164 O 199.683 1.78139 0.773322 0
M  V30 2165 C 196.813 3.32841 0.99166 0
M  V30 2166 C 195.767 4.26842 0.314568 0
M  V30 2167 C 195.093 5.16236 1.39302 0
M  V30 2168 C 196.393 5.16243 -0.793095 0
M  V30 2169 H 198.087 2.90427 -0.727481 0
M  V30 2170 H 195.633 1.39649 -0.351287 0
M  V30 2171 H 197.586 3.94747 1.47487 0
M  V30 2172 H 196.31 2.74158 1.77497 0
M  V30 2173 H 194.969 3.663 -0.148199 0
M  V30 2174 H 194.617 4.53891 2.16776 0
M  V30 2175 H 194.317 5.79948 0.945223 0
M  V30 2176 H 195.841 5.81015 1.87759 0
M  V30 2177 H 197.255 5.71958 -0.392039 0
M  V30 2178 H 195.652 5.88676 -1.16536 0
M  V30 2179 H 196.722 4.55927 -1.65103 0
M  V30 2180 N 198.065 0.39524 1.52563 0
M  V30 2181 C 198.995 -0.428384 2.29537 0
M  V30 2182 C 199.976 -1.05831 1.33169 0
M  V30 2183 O 201.161 -1.06995 1.62067 0
M  V30 2184 C 198.291 -1.55274 3.10656 0
M  V30 2185 C 197.245 -1.04855 4.14957 0
M  V30 2186 C 196.571 -2.26543 4.84337 0
M  V30 2187 C 197.871 -0.112324 5.22179 0
M  V30 2188 H 199.565 0.213867 2.98635 0
M  V30 2189 H 197.111 0.104298 1.43622 0
M  V30 2190 H 199.064 -2.1358 3.63265 0
M  V30 2191 H 197.788 -2.22266 2.39302 0
M  V30 2192 H 196.447 -0.487985 3.63338 0
M  V30 2193 H 196.095 -2.92059 4.09525 0
M  V30 2194 H 195.795 -1.93466 5.54837 0
M  V30 2195 H 197.319 -2.85481 5.39753 0
M  V30 2196 H 198.733 -0.603752 5.70112 0
M  V30 2197 H 197.13 0.128968 5.99961 0
M  V30 2198 H 198.2 0.837052 4.77621 0
M  V30 2199 N 199.544 -1.57102 0.125237 0
M  V30 2200 C 200.494 -2.12202 -0.833936 0
M  V30 2201 C 201.478 -1.04433 -1.22403 0
M  V30 2202 O 202.67 -1.30655 -1.19408 0
M  V30 2203 C 199.799 -2.72994 -2.08157 0
M  V30 2204 C 198.885 -3.87852 -1.71556 0
M  V30 2205 N 199.276 -4.9464 -1.05662 0
M  V30 2206 C 197.574 -3.98153 -2.00973 0
M  V30 2207 C 198.275 -5.74953 -0.883376 0
M  V30 2208 N 197.251 -5.24985 -1.41036 0
M  V30 2209 H 201.053 -2.92141 -0.321035 0
M  V30 2210 H 198.567 -1.62217 -0.0770315 0
M  V30 2211 H 200.564 -3.10816 -2.77847 0
M  V30 2212 H 199.224 -1.9452 -2.59985 0
M  V30 2213 H 200.235 -5.12872 -0.719878 0
M  V30 2214 H 196.912 -3.30728 -2.54804 0
M  V30 2215 H 198.302 -6.70904 -0.365675 0
M  V30 2216 N 201.022 0.148545 -1.56898 0
M  V30 2217 C 202.271 0.85984 -1.82454 0
M  V30 2218 C 202.584 1.82406 -0.706229 0
M  V30 2219 O 203.79 2.57938 -0.847349 0
M  V30 2220 C 202.246 1.57967 -3.2338 0
M  V30 2221 C 201.854 0.65794 -4.43142 0
M  V30 2222 C 203.598 2.27784 -3.58211 0
M  V30 2223 C 201.505 1.3793 -5.75091 0
M  V30 2224 H 200.435 0.324834 -0.68044 0
M  V30 2225 H 203.086 0.112588 -1.83154 0
M  V30 2226 H 201.468 2.37249 -3.17063 0
M  V30 2227 H 202.642 -0.0995497 -4.60692 0
M  V30 2228 H 200.957 0.0682643 -4.16344 0
M  V30 2229 H 203.554 2.8239 -4.54048 0
M  V30 2230 H 203.897 3.04204 -2.84193 0
M  V30 2231 H 204.43 1.55421 -3.66182 0
M  V30 2232 H 201.169 0.656982 -6.52199 0
M  V30 2233 H 200.689 2.10954 -5.61479 0
M  V30 2234 H 202.368 1.92063 -6.17835 0
M  V30 2235 N 202.5 1.5196 0.417844 0
M  V30 2236 C 203.916 1.40569 0.755816 0
M  V30 2237 C 204.116 0.503316 1.95113 0
M  V30 2238 O 203.172 -0.0341925 2.52477 0
M  V30 2239 C 204.485 2.82947 1.01791 0
M  V30 2240 C 206.033 2.92231 1.12116 0
M  V30 2241 C 206.508 4.35559 1.41608 0
M  V30 2242 N 207.999 4.38753 1.48491 0
M  V30 2243 C 208.734 5.46705 1.7292 0
M  V30 2244 N 208.23 6.64788 1.95011 0
M  V30 2245 N 210.023 5.34209 1.74863 0
M  V30 2246 H 202.174 2.09168 -0.369098 0
M  V30 2247 H 204.437 0.942409 -0.102809 0
M  V30 2248 H 204.143 3.5106 0.212081 0
M  V30 2249 H 204.017 3.23462 1.94042 0
M  V30 2250 H 206.404 2.24304 1.9176 0
M  V30 2251 H 206.485 2.55185 0.177225 0
M  V30 2252 H 206.129 5.04042 0.624848 0
M  V30 2253 H 206.059 4.70133 2.37239 0
M  V30 2254 H 208.55 3.5363 1.33244 0
M  V30 2255 H 208.863 7.42845 2.13076 0
M  V30 2256 H 207.208 6.67869 1.92293 0
M  V30 2257 H 210.399 4.40937 1.57137 0
M  V30 2258 H 210.572 6.18415 1.93563 0
M  V30 2259 N 203.978 -0.674533 1.42435 0
M  V30 2260 C 205.203 -1.46784 1.46524 0
M  V30 2261 C 205.628 -1.87938 0.078066 0
M  V30 2262 O 204.986 -1.56014 -0.92354 0
M  V30 2263 C 205.034 -2.69307 2.39805 0
M  V30 2264 O 204.138 -3.67587 1.86959 0
M  V30 2265 H 203.479 -0.440959 0.496439 0
M  V30 2266 H 206.009 -0.827326 1.87127 0
M  V30 2267 H 206.019 -3.17374 2.56393 0
M  V30 2268 H 204.694 -2.38692 3.40586 0
M  V30 2269 H 203.271 -3.2662 1.79927 0
M  V30 2270 N 205.456 -1.28612 -0.910864 0
M  V30 2271 C 206.404 -1.1265 -2.03501 0
M  V30 2272 C 207.398 -0.0450054 -1.6934 0
M  V30 2273 O 208.604 -0.203988 -1.7884 0
M  V30 2274 H 204.979 -0.347639 -0.666822 0
M  V30 2275 H 206.95 -2.07849 -2.14106 0
M  V30 2276 C 205.699 -0.808143 -3.38178 0
M  V30 2277 H 205.022 -1.63231 -3.6496 0
M  V30 2278 H 206.462 -0.736426 -4.17556 0
M  V30 2279 C 204.921 0.488226 -3.33344 0
M  V30 2280 O 205.451 1.51766 -3.71927 0
M  V30 2281 N 203.657 0.490009 -2.86439 0
M  V30 2282 H 203.204 -0.348161 -2.55236 0
M  V30 2283 H 203.162 1.35741 -2.83587 0
M  V30 2284 N 206.934 1.1197 -1.10907 0
M  V30 2285 C 208.18 1.8386 -0.855773 0
M  V30 2286 C 208.513 1.84134 0.617103 0
M  V30 2287 O 207.788 1.29041 1.45529 0
M  V30 2288 C 208.071 3.31305 -1.411 0
M  V30 2289 C 207.924 3.39456 -2.9511 0
M  V30 2290 C 209.243 4.2721 -1.05736 0
M  V30 2291 H 206.362 0.667545 -0.312334 0
M  V30 2292 H 209.004 1.31331 -1.37303 0
M  V30 2293 H 207.154 3.76169 -0.97105 0
M  V30 2294 H 208.826 3.03191 -3.47668 0
M  V30 2295 H 207.069 2.79849 -3.31462 0
M  V30 2296 H 207.74 4.43209 -3.29044 0
M  V30 2297 H 210.216 3.90497 -1.43706 0
M  V30 2298 H 209.092 5.28775 -1.47269 0
M  V30 2299 H 209.353 4.42088 0.0325958 0
M  V30 2300 N 208.412 0.89855 1.29475 0
M  V30 2301 C 209.661 0.519863 1.94885 0
M  V30 2302 C 209.974 -0.9383 1.71625 0
M  V30 2303 O 211.18 -1.42445 2.31131 0
M  V30 2304 C 209.636 0.878836 3.49005 0
M  V30 2305 C 209.244 2.35569 3.81066 0
M  V30 2306 C 210.988 0.570004 4.20656 0
M  V30 2307 C 208.895 2.65558 5.28425 0
M  V30 2308 H 207.825 0.190692 0.729488 0
M  V30 2309 H 210.476 1.09539 1.47219 0
M  V30 2310 H 208.858 0.232253 3.95318 0
M  V30 2311 H 210.032 3.04773 3.45616 0
M  V30 2312 H 208.347 2.63343 3.22552 0
M  V30 2313 H 210.944 0.770925 5.29113 0
M  V30 2314 H 211.287 -0.491404 4.1339 0
M  V30 2315 H 211.82 1.17438 3.8007 0
M  V30 2316 H 208.559 3.70493 5.40754 0
M  V30 2317 H 208.079 2.00977 5.65127 0
M  V30 2318 H 209.758 2.51765 5.96006 0
M  V30 2319 N 209.89 -1.43072 0.660911 0
M  V30 2320 C 210.82 -2.33497 -0.0122829 0
M  V30 2321 C 211.801 -1.49903 -0.803925 0
M  V30 2322 O 212.986 -1.78546 -0.763864 0
M  V30 2323 C 210.116 -3.33363 -0.973994 0
M  V30 2324 C 209.07 -4.27003 -0.291928 0
M  V30 2325 C 208.396 -5.16967 -1.36562 0
M  V30 2326 C 209.696 -5.15816 0.820462 0
M  V30 2327 H 211.39 -2.90038 0.742873 0
M  V30 2328 H 208.936 -1.39461 0.358688 0
M  V30 2329 H 210.889 -3.95524 -1.45392 0
M  V30 2330 H 209.613 -2.75095 -1.7604 0
M  V30 2331 H 208.272 -3.66217 0.167623 0
M  V30 2332 H 207.92 -4.55034 -2.14366 0
M  V30 2333 H 207.62 -5.80441 -0.914454 0
M  V30 2334 H 209.144 -5.82003 -1.84675 0
M  V30 2335 H 210.558 -5.71742 0.422366 0
M  V30 2336 H 208.955 -5.8805 1.19656 0
M  V30 2337 H 210.025 -4.55045 1.67518 0
M  V30 2338 N 211.368 -0.403325 -1.52352 0
M  V30 2339 C 212.318 0.442244 -2.2367 0
M  V30 2340 C 213.302 1.01823 -1.24583 0
M  V30 2341 O 214.494 0.942005 -1.49851 0
M  V30 2342 C 211.623 1.5615 -3.05732 0
M  V30 2343 C 210.709 0.996575 -4.12225 0
M  V30 2344 N 211.1 0.157804 -5.05554 0
M  V30 2345 C 209.398 1.26767 -4.27605 0
M  V30 2346 C 210.099 -0.155853 -5.81491 0
M  V30 2347 N 209.075 0.451775 -5.41719 0
M  V30 2348 H 212.877 -0.204964 -2.93184 0
M  V30 2349 H 210.391 -0.213418 -1.60992 0
M  V30 2350 H 212.388 2.17981 -3.55373 0
M  V30 2351 H 211.048 2.21139 -2.37755 0
M  V30 2352 H 212.059 -0.206049 -5.1749 0
M  V30 2353 H 208.736 1.91757 -3.70858 0
M  V30 2354 H 210.126 -0.836329 -6.66675 0
M  V30 2355 N 212.846 1.57033 -0.133567 0
M  V30 2356 C 214.262 1.58035 0.222944 0
M  V30 2357 C 214.462 1.14713 1.6566 0
M  V30 2358 O 213.518 0.841218 2.38075 0
M  V30 2359 C 214.831 3.00691 -0.0236116 0
M  V30 2360 C 216.379 3.12973 0.0411512 0
M  V30 2361 C 216.854 4.57654 -0.177899 0
M  V30 2362 N 218.345 4.63033 -0.124365 0
M  V30 2363 C 219.08 5.72771 -0.268553 0
M  V30 2364 N 218.576 6.91206 -0.46972 0
M  V30 2365 N 220.369 5.61718 -0.2071 0
M  V30 2366 H 212.52 1.8349 -1.06981 0
M  V30 2367 H 214.783 0.848677 -0.422436 0
M  V30 2368 H 214.489 3.36726 -1.0153 0
M  V30 2369 H 214.363 3.70614 0.701808 0
M  V30 2370 H 216.75 2.76787 1.02338 0
M  V30 2371 H 216.831 2.45564 -0.716383 0
M  V30 2372 H 216.475 4.94542 -1.15717 0
M  V30 2373 H 216.405 5.23173 0.599797 0
M  V30 2374 H 218.896 3.7789 0.027011 0
M  V30 2375 H 219.209 7.70693 -0.570212 0
M  V30 2376 H 217.554 6.93156 -0.505876 0
M  V30 2377 H 220.745 4.68072 -0.0507986 0
M  V30 2378 H 220.918 6.47195 -0.322909 0
M  V30 2379 N 214.325 -0.140222 1.56975 0
M  V30 2380 C 215.288 -1.15689 1.97861 0
M  V30 2381 C 216.288 -1.3549 0.865974 0
M  V30 2382 O 217.478 -1.32367 1.13246 0
M  V30 2383 C 214.61 -2.51582 2.30042 0
M  V30 2384 H 215.803 -0.805971 2.88867 0
M  V30 2385 H 213.356 -0.383801 1.51515 0
M  V30 2386 H 214.091 -2.91632 1.41849 0
M  V30 2387 H 213.876 -2.38569 3.11171 0
M  V30 2388 H 215.366 -3.24792 2.62488 0
M  V30 2389 N 215.803 -1.52179 -0.40978 0
M  V30 2390 C 217.219 -1.40968 -0.74835 0
M  V30 2391 C 217.419 -0.513657 -1.94843 0
M  V30 2392 O 216.475 0.0208026 -2.52491 0
M  V30 2393 C 217.788 -2.83483 -1.0029 0
M  V30 2394 C 219.336 -2.92821 -1.10565 0
M  V30 2395 C 219.811 -4.36303 -1.39296 0
M  V30 2396 N 221.302 -4.39535 -1.46162 0
M  V30 2397 C 222.037 -5.47614 -1.70018 0
M  V30 2398 N 221.533 -6.65812 -1.91483 0
M  V30 2399 N 223.326 -5.35129 -1.72027 0
M  V30 2400 H 215.477 -2.0897 0.380186 0
M  V30 2401 H 217.74 -0.94185 0.107805 0
M  V30 2402 H 217.446 -3.51168 -0.193461 0
M  V30 2403 H 217.32 -3.24487 -1.92323 0
M  V30 2404 H 219.707 -2.25318 -1.90568 0
M  V30 2405 H 219.788 -2.55276 -0.16369 0
M  V30 2406 H 219.432 -5.04366 -0.598109 0
M  V30 2407 H 219.362 -4.71385 -2.34743 0
M  V30 2408 H 221.853 -3.54332 -1.31367 0
M  V30 2409 H 222.166 -7.43964 -2.09134 0
M  V30 2410 H 220.511 -6.68879 -1.88749 0
M  V30 2411 H 223.702 -4.41764 -1.54796 0
M  V30 2412 H 223.875 -6.19433 -1.9028 0
M  V30 2413 N 217.281 0.66697 -1.42791 0
M  V30 2414 C 218.697 0.981027 -1.25889 0
M  V30 2415 C 218.897 2.00793 -0.168695 0
M  V30 2416 O 217.953 2.48321 0.45747 0
M  V30 2417 C 219.266 1.47838 -2.61848 0
M  V30 2418 C 220.814 1.59575 -2.69267 0
M  V30 2419 C 221.289 2.12704 -4.05612 0
M  V30 2420 N 222.78 2.20026 -4.07606 0
M  V30 2421 C 223.515 2.62227 -5.09926 0
M  V30 2422 N 223.011 3.03824 -6.22626 0
M  V30 2423 N 224.804 2.62045 -4.97281 0
M  V30 2424 H 216.955 -0.0127891 -2.12396 0
M  V30 2425 H 219.218 0.0568258 -0.946295 0
M  V30 2426 H 218.924 0.798299 -3.4252 0
M  V30 2427 H 218.798 2.45579 -2.86305 0
M  V30 2428 H 221.185 2.26687 -1.88936 0
M  V30 2429 H 221.266 0.60302 -2.48591 0
M  V30 2430 H 220.91 1.46198 -4.86404 0
M  V30 2431 H 220.84 3.12782 -4.23645 0
M  V30 2432 H 223.331 1.90708 -3.2625 0
M  V30 2433 H 223.644 3.34734 -6.96544 0
M  V30 2434 H 221.989 3.01662 -6.26119 0
M  V30 2435 H 225.18 2.28916 -4.08308 0
M  V30 2436 H 225.353 2.94613 -5.77154 0
M  V30 2437 N 218.759 1.29093 0.90403 0
M  V30 2438 C 220.007 1.16583 1.65085 0
M  V30 2439 C 220.328 -0.283933 1.92922 0
M  V30 2440 O 219.598 -1.19509 1.55224 0
M  V30 2441 H 218.178 0.428467 0.611903 0
M  V30 2442 H 220.84 1.61959 1.08422 0
M  V30 2443 H 219.936 1.71266 2.6091 0
M  V30 2444 N 220.237 -1.11381 1.11499 0
M  V30 2445 C 221.185 -2.19522 0.768956 0
M  V30 2446 C 222.179 -1.67693 -0.239857 0
M  V30 2447 O 223.385 -1.79727 -0.0990755 0
M  V30 2448 H 219.76 -0.715711 0.230786 0
M  V30 2449 H 221.731 -2.45954 1.68964 0
M  V30 2450 C 220.48 -3.46945 0.229073 0
M  V30 2451 H 219.803 -3.8718 0.996596 0
M  V30 2452 H 221.243 -4.23993 0.0251441 0
M  V30 2453 C 219.702 -3.2042 -1.04079 0
M  V30 2454 O 220.232 -3.41178 -2.12038 0
M  V30 2455 N 218.438 -2.74151 -0.963823 0
M  V30 2456 H 217.985 -2.57459 -0.0851722 0
M  V30 2457 H 217.943 -2.56781 -1.81414 0
M  V30 2458 N 221.715 -0.905404 -1.28997 0
M  V30 2459 C 222.647 -0.344748 -2.26592 0
M  V30 2460 C 223.66 0.512135 -1.54535 0
M  V30 2461 O 224.849 0.328368 -1.75454 0
M  V30 2462 C 221.949 0.526587 -3.34784 0
M  V30 2463 C 221.122 -0.305871 -4.36329 0
M  V30 2464 C 220.181 0.499209 -5.23827 0
M  V30 2465 O 219.207 -0.0853004 -5.69136 0
M  V30 2466 N 220.409 1.80408 -5.51755 0
M  V30 2467 H 223.174 -1.18359 -2.75338 0
M  V30 2468 H 220.735 -0.770481 -1.42391 0
M  V30 2469 H 222.727 1.07171 -3.90252 0
M  V30 2470 H 221.297 1.26613 -2.85811 0
M  V30 2471 H 220.517 -1.0324 -3.80441 0
M  V30 2472 H 221.805 -0.875773 -5.01206 0
M  V30 2473 H 221.203 2.3016 -5.16762 0
M  V30 2474 H 219.76 2.29621 -6.10014 0
M  V30 2475 N 223.193 1.4272 -0.668489 0
M  V30 2476 C 224.439 2.01923 -0.188419 0
M  V30 2477 C 224.772 1.52704 1.19979 0
M  V30 2478 O 224.047 0.726566 1.8042 0
M  V30 2479 C 224.33 3.59451 -0.216085 0
M  V30 2480 C 224.183 4.18864 -1.6393 0
M  V30 2481 C 225.502 4.37903 0.439179 0
M  V30 2482 H 222.621 0.733674 -0.0699412 0
M  V30 2483 H 225.263 1.69822 -0.852076 0
M  V30 2484 H 223.413 3.86929 0.349012 0
M  V30 2485 H 225.085 4.02362 -2.25616 0
M  V30 2486 H 223.328 3.74933 -2.18193 0
M  V30 2487 H 223.999 5.27987 -1.61039 0
M  V30 2488 H 226.475 4.16079 -0.0417878 0
M  V30 2489 H 225.351 5.47519 0.389157 0
M  V30 2490 H 225.612 4.15303 1.51577 0
M  V30 2491 N 224.671 0.411399 1.52136 0
M  V30 2492 C 225.948 -0.222308 1.94333 0
M  V30 2493 C 226.328 -1.6242 1.34844 0
M  V30 2494 O 225.676 -2.22384 0.525145 0
M  V30 2495 C 225.886 -0.226345 3.48265 0
M  V30 2496 C 227.234 -0.444592 4.22266 0
M  V30 2497 O 228.258 -0.305602 3.54887 0
M  V30 2498 O 227.117 -0.718749 5.41753 0
M  V30 2499 H 224.211 -0.143907 0.814383 0
M  V30 2500 H 226.757 0.467506 1.63133 0
M  V30 2501 H 225.529 0.75475 3.83952 0
M  V30 2502 H 225.152 -0.960163 3.85832 0
M  V30 2503 N 226.149 -1.5696 0.141893 0
M  V30 2504 C 227.395 -1.9625 -0.511248 0
M  V30 2505 C 227.728 -1.02654 -1.64851 0
M  V30 2506 O 227.003 -0.0679676 -1.94381 0
M  V30 2507 C 227.286 -3.45285 -1.02227 0
M  V30 2508 C 227.139 -4.49658 0.113138 0
M  V30 2509 C 228.458 -3.96698 -1.90574 0
M  V30 2510 H 225.577 -0.713567 -0.184367 0
M  V30 2511 H 228.219 -1.88698 0.222087 0
M  V30 2512 H 226.369 -3.51852 -1.64719 0
M  V30 2513 H 228.041 -4.55174 0.749302 0
M  V30 2514 H 226.284 -4.26857 0.773026 0
M  V30 2515 H 226.955 -5.51258 -0.286053 0
M  V30 2516 H 229.431 -3.92578 -1.37918 0
M  V30 2517 H 228.307 -5.01453 -2.2324 0
M  V30 2518 H 228.568 -3.3875 -2.84079 0
M  V30 2519 N 227.627 0.131896 -1.57047 0
M  V30 2520 C 228.874 0.841932 -1.84168 0
M  V30 2521 C 229.202 1.8048 -0.725066 0
M  V30 2522 O 228.457 1.93618 0.284692 0
M  V30 2523 C 228.756 1.63703 -3.17704 0
M  V30 2524 C 228.422 0.81961 -4.43388 0
M  V30 2525 C 227.084 0.594148 -4.77518 0
M  V30 2526 C 229.436 0.248977 -5.20605 0
M  V30 2527 C 226.764 -0.212409 -5.86315 0
M  V30 2528 C 229.116 -0.544701 -6.30251 0
M  V30 2529 C 227.78 -0.780599 -6.6292 0
M  V30 2530 H 227.05 0.308085 -0.673917 0
M  V30 2531 H 229.697 0.104867 -1.91213 0
M  V30 2532 H 228.002 2.44464 -3.06177 0
M  V30 2533 H 229.699 2.19015 -3.35907 0
M  V30 2534 H 226.289 1.00542 -4.16641 0
M  V30 2535 H 230.473 0.410408 -4.946 0
M  V30 2536 H 225.729 -0.404524 -6.1006 0
M  V30 2537 H 229.903 -0.993922 -6.89271 0
M  V30 2538 H 227.53 -1.40742 -7.47058 0
M  V30 2539 N 229.106 1.52395 0.401703 0
M  V30 2540 C 230.336 1.70429 1.1678 0
M  V30 2541 C 230.744 0.416702 1.84554 0
M  V30 2542 O 230.087 -0.617697 1.73003 0
M  V30 2543 C 230.149 2.78919 2.26814 0
M  V30 2544 C 229.813 4.20437 1.79113 0
M  V30 2545 C 230.81 5.04028 1.27482 0
M  V30 2546 C 228.495 4.66704 1.85722 0
M  V30 2547 C 230.489 6.31961 0.830913 0
M  V30 2548 C 228.176 5.94625 1.40942 0
M  V30 2549 C 229.174 6.77082 0.897128 0
M  V30 2550 O 228.862 8.02607 0.455822 0
M  V30 2551 H 228.594 0.574272 0.356634 0
M  V30 2552 H 231.148 1.99767 0.477724 0
M  V30 2553 H 229.378 2.44973 2.99207 0
M  V30 2554 H 231.067 2.8548 2.88541 0
M  V30 2555 H 231.833 4.69471 1.21744 0
M  V30 2556 H 227.712 4.0262 2.24539 0
M  V30 2557 H 231.256 6.96271 0.430368 0
M  V30 2558 H 227.153 6.28688 1.46362 0
M  V30 2559 H 227.921 8.16453 0.578457 0
M  V30 2560 N 230.584 -0.659388 1.43143 0
M  V30 2561 C 231.547 -1.75432 1.47501 0
M  V30 2562 C 232.547 -1.56707 0.360512 0
M  V30 2563 O 233.737 -1.62717 0.622002 0
M  V30 2564 C 230.869 -3.14239 1.32162 0
M  V30 2565 H 232.062 -1.7295 2.45006 0
M  V30 2566 H 229.615 -0.870469 1.29817 0
M  V30 2567 H 230.35 -3.22336 0.356401 0
M  V30 2568 H 230.135 -3.29235 2.12948 0
M  V30 2569 H 231.625 -3.94094 1.3813 0
M  V30 2570 N 232.062 -1.29571 -0.897171 0
M  V30 2571 C 233.025 -1.14913 -1.98312 0
M  V30 2572 C 234.025 -0.0838629 -1.60581 0
M  V30 2573 O 235.215 -0.331006 -1.71026 0
M  V30 2574 C 232.347 -0.757835 -3.3237 0
M  V30 2575 H 233.54 -2.11377 -2.12743 0
M  V30 2576 H 231.093 -1.12793 -1.08201 0
M  V30 2577 H 231.828 0.206837 -3.2364 0
M  V30 2578 H 231.613 -1.52755 -3.61121 0
M  V30 2579 H 233.103 -0.678408 -4.12053 0
M  V30 2580 N 233.54 1.10788 -1.12088 0
M  V30 2581 C 234.956 1.34691 -0.856186 0
M  V30 2582 C 235.156 1.94791 0.515615 0
M  V30 2583 O 234.212 2.18524 1.26505 0
M  V30 2584 C 235.525 2.27208 -1.9697 0
M  V30 2585 C 237.073 2.40755 -2.00016 0
M  V30 2586 C 237.548 3.36598 -3.1059 0
M  V30 2587 N 239.039 3.44164 -3.10008 0
M  V30 2588 C 239.774 4.18284 -3.92206 0
M  V30 2589 N 239.27 4.95322 -4.84384 0
M  V30 2590 N 241.063 4.13865 -3.80357 0
M  V30 2591 H 233.214 0.70144 -2.00483 0
M  V30 2592 H 235.477 0.371405 -0.872217 0
M  V30 2593 H 235.183 1.90251 -2.958 0
M  V30 2594 H 235.057 3.27485 -1.87172 0
M  V30 2595 H 237.444 2.76982 -1.01808 0
M  V30 2596 H 237.525 1.40305 -2.13888 0
M  V30 2597 H 237.169 3.01096 -4.09028 0
M  V30 2598 H 237.099 4.36918 -2.93956 0
M  V30 2599 H 239.59 2.8922 -2.43228 0
M  V30 2600 H 239.903 5.49267 -5.43623 0
M  V30 2601 H 238.248 4.94459 -4.884 0
M  V30 2602 H 241.439 3.52773 -3.07683 0
M  V30 2603 H 241.612 4.71372 -4.44649 0
M  V30 2604 N 235.018 0.912232 1.28515 0
M  V30 2605 C 235.928 0.404506 2.31086 0
M  V30 2606 C 236.944 -0.50707 1.66448 0
M  V30 2607 O 238.12 -0.393624 1.97516 0
M  V30 2608 C 235.185 -0.348572 3.44943 0
M  V30 2609 C 234.246 0.59604 4.25142 0
M  V30 2610 C 233.479 -0.121194 5.33562 0
M  V30 2611 O 233.702 -1.34317 5.5436 0
M  V30 2612 O 232.636 0.542716 5.99448 0
M  V30 2613 H 236.462 1.25579 2.76521 0
M  V30 2614 H 234.047 0.676998 1.33181 0
M  V30 2615 H 235.929 -0.77395 4.14232 0
M  V30 2616 H 234.604 -1.17571 3.01594 0
M  V30 2617 H 233.511 1.07079 3.58448 0
M  V30 2618 H 234.844 1.38995 4.72167 0
M  V30 2619 N 236.496 -1.42363 0.676048 0
M  V30 2620 C 237.773 -1.95183 0.127726 0
M  V30 2621 C 238.153 -1.61641 -1.35777 0
M  V30 2622 O 237.501 -0.913216 -2.09458 0
M  V30 2623 C 237.711 -3.46721 0.398199 0
M  V30 2624 C 239.059 -4.23427 0.315383 0
M  V30 2625 O 240.083 -3.54649 0.332016 0
M  V30 2626 O 238.942 -5.45888 0.25865 0
M  V30 2627 H 236.036 -0.826992 0.00359427 0
M  V30 2628 H 238.582 -1.52184 0.750864 0
M  V30 2629 H 237.354 -3.64344 1.4272 0
M  V30 2630 H 236.977 -3.96769 -0.256885 0
M  V30 2631 N 237.974 -0.419461 -1.51915 0
M  V30 2632 C 238.921 0.400927 -2.27291 0
M  V30 2633 C 239.891 1.03224 -1.30131 0
M  V30 2634 O 241.076 1.05455 -1.59009 0
M  V30 2635 C 238.216 1.50603 -3.10504 0
M  V30 2636 C 237.329 0.89462 -4.22635 0
M  V30 2637 C 236.464 1.97328 -4.93189 0
M  V30 2638 C 235.503 1.33935 -5.97267 0
M  V30 2639 N 234.64 2.3586 -6.61298 0
M  V30 2640 H 239.48 -0.248251 -2.96964 0
M  V30 2641 H 237.017 -0.134266 -1.46486 0
M  V30 2642 H 238.975 2.15783 -3.57062 0
M  V30 2643 H 237.605 2.12509 -2.42981 0
M  V30 2644 H 236.657 0.131583 -3.80172 0
M  V30 2645 H 237.969 0.391641 -4.9726 0
M  V30 2646 H 237.123 2.70211 -5.43204 0
M  V30 2647 H 235.862 2.50994 -4.18155 0
M  V30 2648 H 234.867 0.595896 -5.46561 0
M  V30 2649 H 236.092 0.810252 -6.74249 0
M  V30 2650 H 234.038 2.88639 -5.89087 0
M  V30 2651 H 233.955 1.90403 -7.3163 0
M  V30 2652 H 235.223 3.08282 -7.15949 0
M  V30 2653 N 239.452 1.56882 -0.150215 0
M  V30 2654 C 240.698 1.97299 0.494427 0
M  V30 2655 C 241.053 1.0338 1.62266 0
M  V30 2656 O 240.346 0.0694497 1.91474 0
M  V30 2657 C 240.54 3.41801 1.04437 0
M  V30 2658 C 240.369 4.49691 -0.0290451 0
M  V30 2659 C 239.139 5.03095 -0.47156 0
M  V30 2660 C 241.337 5.07693 -0.821703 0
M  V30 2661 N 239.319 5.94593 -1.52749 0
M  V30 2662 C 240.69 5.95431 -1.72805 0
M  V30 2663 C 242.745 4.90256 -0.869134 0
M  V30 2664 C 241.448 6.67599 -2.67777 0
M  V30 2665 C 243.474 5.63127 -1.8067 0
M  V30 2666 C 242.836 6.50576 -2.70057 0
M  V30 2667 H 238.935 0.76755 0.149639 0
M  V30 2668 H 241.519 1.93145 -0.24556 0
M  V30 2669 H 239.69 3.46541 1.75396 0
M  V30 2670 H 241.422 3.69272 1.6559 0
M  V30 2671 H 238.177 4.73543 -0.0732101 0
M  V30 2672 H 238.601 6.45047 -2.05531 0
M  V30 2673 H 243.243 4.22363 -0.192134 0
M  V30 2674 H 240.961 7.34717 -3.36476 0
M  V30 2675 H 244.547 5.51629 -1.84924 0
M  V30 2676 H 243.427 7.05974 -3.41424 0
M  V30 2677 N 240.93 -0.123565 1.57115 0
M  V30 2678 C 241.877 -1.15177 2.00007 0
M  V30 2679 C 242.847 -1.41403 0.871454 0
M  V30 2680 O 244.032 -1.53346 1.13533 0
M  V30 2681 C 241.172 -2.47436 2.40561 0
M  V30 2682 C 240.285 -2.28184 3.66819 0
M  V30 2683 C 239.42 -3.53641 3.96373 0
M  V30 2684 C 238.459 -3.29528 5.15827 0
M  V30 2685 N 237.596 -4.47175 5.41275 0
M  V30 2686 H 242.436 -0.779008 2.87638 0
M  V30 2687 H 239.973 -0.373166 1.42288 0
M  V30 2688 H 241.931 -3.24584 2.62109 0
M  V30 2689 H 240.561 -2.82614 1.55978 0
M  V30 2690 H 239.613 -1.41976 3.52912 0
M  V30 2691 H 240.925 -2.0634 4.5412 0
M  V30 2692 H 240.079 -4.39209 4.18545 0
M  V30 2693 H 238.818 -3.78512 3.07538 0
M  V30 2694 H 237.823 -2.42349 4.93505 0
M  V30 2695 H 239.048 -3.06031 6.06236 0
M  V30 2696 H 236.994 -4.72175 4.55397 0
M  V30 2697 H 236.911 -4.28419 6.22891 0
M  V30 2698 H 238.179 -5.3389 5.67963 0
M  V30 2699 N 242.408 -1.52605 -0.393616 0
M  V30 2700 C 243.824 -1.41753 -0.733357 0
M  V30 2701 C 244.024 -0.534293 -1.94287 0
M  V30 2702 O 243.08 -0.0059787 -2.52499 0
M  V30 2703 C 244.393 -2.84531 -0.972772 0
M  V30 2704 C 245.941 -2.93978 -1.07453 0
M  V30 2705 C 246.416 -4.37756 -1.3466 0
M  V30 2706 N 247.907 -4.4106 -1.41492 0
M  V30 2707 C 248.642 -5.49387 -1.642 0
M  V30 2708 N 248.138 -6.67806 -1.8441 0
M  V30 2709 N 249.931 -5.36923 -1.66342 0
M  V30 2710 H 242.082 -2.08555 0.402328 0
M  V30 2711 H 244.345 -0.940654 0.117789 0
M  V30 2712 H 244.051 -3.51353 -0.156204 0
M  V30 2713 H 243.925 -3.26508 -1.88871 0
M  V30 2714 H 246.312 -2.27326 -1.88167 0
M  V30 2715 H 246.393 -2.55435 -0.136605 0
M  V30 2716 H 246.037 -5.04972 -0.544581 0
M  V30 2717 H 245.967 -4.73848 -2.2973 0
M  V30 2718 H 248.458 -3.55705 -1.27601 0
M  V30 2719 H 248.771 -7.46141 -2.01231 0
M  V30 2720 H 247.116 -6.70843 -1.81644 0
M  V30 2721 H 250.307 -4.43381 -1.50102 0
M  V30 2722 H 250.48 -6.21416 -1.837 0
M  V30 2723 N 243.887 0.651787 -1.4349 0
M  V30 2724 C 245.135 1.40888 -1.44897 0
M  V30 2725 C 245.456 1.94856 -0.0749086 0
M  V30 2726 O 244.726 1.74518 0.889956 0
M  V30 2727 H 243.306 0.522887 -0.533478 0
M  V30 2728 H 245.968 0.768609 -1.79104 0
M  V30 2729 H 245.064 2.25052 -2.16236 0
M  V30 2730 N 245.365 1.30045 0.890287 0
M  V30 2731 C 246.275 1.17885 2.02831 0
M  V30 2732 C 247.291 0.0999609 1.73713 0
M  V30 2733 O 248.467 0.313867 1.98939 0
M  V30 2734 C 245.532 0.866079 3.35708 0
M  V30 2735 C 244.593 2.02979 3.78283 0
M  V30 2736 C 243.826 1.73184 5.0482 0
M  V30 2737 O 244.049 0.657237 5.66601 0
M  V30 2738 O 242.983 2.58267 5.43674 0
M  V30 2739 H 246.809 2.13474 2.16015 0
M  V30 2740 H 244.394 1.09587 1.01543 0
M  V30 2741 H 246.276 0.706623 4.15433 0
M  V30 2742 H 244.951 -0.0599443 3.23644 0
M  V30 2743 H 243.858 2.24454 2.99285 0
M  V30 2744 H 245.191 2.93734 3.94944 0
M  V30 2745 N 246.843 -1.10192 1.12674 0
M  V30 2746 C 248.091 -1.81845 0.881861 0
M  V30 2747 C 248.412 -1.85737 -0.593867 0
M  V30 2748 O 247.682 -1.33724 -1.4316 0
M  V30 2749 H 246.262 -0.673432 0.323261 0
M  V30 2750 H 248.924 -1.33316 1.42172 0
M  V30 2751 H 248.02 -2.85288 1.2656 0
M  V30 2752 N 248.321 -0.919034 -1.28029 0
M  V30 2753 C 249.569 -0.553838 -1.94363 0
M  V30 2754 C 249.89 0.906357 -1.72656 0
M  V30 2755 O 249.16 1.64143 -1.0693 0
M  V30 2756 H 247.74 -0.201834 -0.719216 0
M  V30 2757 H 250.402 -1.16954 -1.55909 0
M  V30 2758 H 249.498 -0.752758 -3.02886 0
M  V30 2759 N 249.799 1.42003 -0.683588 0
M  V30 2760 C 251.045 2.01712 -0.209825 0
M  V30 2761 C 251.378 1.53968 1.18353 0
M  V30 2762 O 250.653 0.745661 1.79639 0
M  V30 2763 C 250.936 3.59202 -0.254197 0
M  V30 2764 C 250.789 4.17102 -1.68363 0
M  V30 2765 C 252.108 4.38344 0.392709 0
M  V30 2766 H 249.227 0.732891 -0.0777189 0
M  V30 2767 H 251.869 1.68909 -0.87004 0
M  V30 2768 H 250.019 3.87278 0.307954 0
M  V30 2769 H 251.691 3.99946 -2.29871 0
M  V30 2770 H 249.934 3.72597 -2.22157 0
M  V30 2771 H 250.605 5.26249 -1.6663 0
M  V30 2772 H 253.081 4.16011 -0.0859162 0
M  V30 2773 H 251.957 5.47901 0.331063 0
M  V30 2774 H 252.218 4.16887 1.47164 0
M  V30 2775 N 251.277 0.427512 1.51691 0
M  V30 2776 C 252.693 0.0792977 1.59403 0
M  V30 2777 C 252.893 -1.41035 1.43914 0
M  V30 2778 O 251.949 -2.17922 1.27539 0
M  V30 2779 C 253.262 0.590636 2.94842 0
M  V30 2780 C 254.81 0.550215 3.08126 0
M  V30 2781 C 255.285 1.03836 4.46074 0
M  V30 2782 N 256.776 0.995943 4.52366 0
M  V30 2783 C 257.511 1.34463 5.57411 0
M  V30 2784 N 257.007 1.76569 6.69922 0
M  V30 2785 N 258.8 1.26343 5.47717 0
M  V30 2786 H 250.951 1.39687 1.60004 0
M  V30 2787 H 253.214 0.575003 0.753708 0
M  V30 2788 H 252.92 1.63251 3.11516 0
M  V30 2789 H 252.794 0.0102061 3.77199 0
M  V30 2790 H 255.181 -0.482654 2.91126 0
M  V30 2791 H 255.262 1.16693 2.27632 0
M  V30 2792 H 254.906 2.06965 4.63819 0
M  V30 2793 H 254.836 0.398286 5.25092 0
M  V30 2794 H 257.327 0.68661 3.7161 0
M  V30 2795 H 257.64 2.01438 7.46085 0
M  V30 2796 H 255.985 1.80488 6.71155 0
M  V30 2797 H 259.176 0.933209 4.58703 0
M  V30 2798 H 259.349 1.53846 6.29472 0
M  V30 2799 N 252.755 -1.56801 0.158532 0
M  V30 2800 C 253.702 -2.17337 -0.776729 0
M  V30 2801 C 254.672 -1.1096 -1.23601 0
M  V30 2802 O 255.857 -1.39054 -1.30647 0
M  V30 2803 C 252.997 -2.80822 -2.00582 0
M  V30 2804 C 252.11 -4.01624 -1.59129 0
M  V30 2805 C 251.245 -4.53072 -2.77306 0
M  V30 2806 C 250.284 -5.66314 -2.32282 0
M  V30 2807 N 249.421 -6.12329 -3.43508 0
M  V30 2808 H 254.261 -2.96918 -0.253701 0
M  V30 2809 H 251.798 -1.46661 -0.113504 0
M  V30 2810 H 253.756 -3.15779 -2.72652 0
M  V30 2811 H 252.386 -2.03866 -2.50277 0
M  V30 2812 H 251.438 -3.72571 -0.767806 0
M  V30 2813 H 252.75 -4.83633 -1.2207 0
M  V30 2814 H 251.904 -4.90145 -3.57551 0
M  V30 2815 H 250.643 -3.70095 -3.17617 0
M  V30 2816 H 249.648 -5.28806 -1.5048 0
M  V30 2817 H 250.873 -6.51085 -1.93043 0
M  V30 2818 H 248.819 -5.32284 -3.83418 0
M  V30 2819 H 248.736 -6.89293 -3.105 0
M  V30 2820 H 250.004 -6.5405 -4.24075 0
M  V30 2821 N 254.233 0.115231 -1.57178 0
M  V30 2822 C 255.163 1.1423 -2.03651 0
M  V30 2823 C 256.144 1.42967 -0.921655 0
M  V30 2824 O 257.329 1.53343 -1.19162 0
M  V30 2825 C 254.459 2.4675 -2.44401 0
M  V30 2826 C 253.413 2.32467 -3.59365 0
M  V30 2827 C 252.739 3.69984 -3.86026 0
M  V30 2828 C 254.039 1.78203 -4.90959 0
M  V30 2829 H 255.733 0.755749 -2.89705 0
M  V30 2830 H 253.279 0.362093 -1.39373 0
M  V30 2831 H 255.232 3.18854 -2.75517 0
M  V30 2832 H 253.956 2.87302 -1.55322 0
M  V30 2833 H 252.615 1.62811 -3.28463 0
M  V30 2834 H 252.263 4.08028 -2.94147 0
M  V30 2835 H 251.963 3.61279 -4.63412 0
M  V30 2836 H 253.487 4.43587 -4.19599 0
M  V30 2837 H 254.901 2.40128 -5.20587 0
M  V30 2838 H 253.298 1.8031 -5.72371 0
M  V30 2839 H 254.368 0.739876 -4.79222 0
M  V30 2840 N 255.711 1.52812 0.385517 0
M  V30 2841 C 256.957 1.68275 1.13188 0
M  V30 2842 C 257.29 0.423179 1.89533 0
M  V30 2843 O 256.565 -0.579113 1.85679 0
M  V30 2844 C 256.848 2.92001 2.1073 0
M  V30 2845 C 256.701 4.28067 1.38125 0
M  V30 2846 C 258.02 3.11283 3.11113 0
M  V30 2847 H 255.139 0.612352 0.410115 0
M  V30 2848 H 257.781 1.85415 0.414869 0
M  V30 2849 H 255.931 2.77519 2.71874 0
M  V30 2850 H 257.603 4.54324 0.799187 0
M  V30 2851 H 255.846 4.28388 0.683092 0
M  V30 2852 H 256.517 5.10733 2.09417 0
M  V30 2853 H 258.993 3.2482 2.6006 0
M  V30 2854 H 257.869 3.99325 3.76605 0
M  V30 2855 H 258.13 2.25656 3.80173 0
M  V30 2856 N 257.189 -0.644168 1.43834 0
M  V30 2857 C 258.121 -1.76955 1.45669 0
M  V30 2858 C 259.134 -1.58956 0.351666 0
M  V30 2859 O 260.323 -1.6751 0.616644 0
M  V30 2860 C 257.423 -3.14507 1.26248 0
M  V30 2861 C 256.596 -3.59083 2.49757 0
M  V30 2862 C 255.655 -4.75467 2.25427 0
M  V30 2863 O 254.681 -4.84444 2.98836 0
M  V30 2864 N 255.883 -5.66289 1.27661 0
M  V30 2865 H 258.648 -1.75856 2.42682 0
M  V30 2866 H 256.209 -0.828312 1.39106 0
M  V30 2867 H 258.201 -3.90067 1.0784 0
M  V30 2868 H 256.771 -3.10325 0.376478 0
M  V30 2869 H 255.991 -2.7387 2.8353 0
M  V30 2870 H 257.279 -3.85613 3.31934 0
M  V30 2871 H 256.677 -5.61718 0.670064 0
M  V30 2872 H 255.234 -6.41533 1.15234 0
M  V30 2873 N 258.668 -1.30515 -0.883378 0
M  V30 2874 C 260.084 -1.08881 -1.16692 0
M  V30 2875 C 260.284 0.149409 -2.00945 0
M  V30 2876 O 259.34 0.84257 -2.38027 0
M  V30 2877 C 260.653 -2.35319 -1.87204 0
M  V30 2878 C 262.201 -2.40799 -1.99962 0
M  V30 2879 C 262.676 -3.67083 -2.73887 0
M  V30 2880 N 264.167 -3.679 -2.81432 0
M  V30 2881 C 264.902 -4.62303 -3.3921 0
M  V30 2882 N 264.398 -5.67052 -3.98025 0
M  V30 2883 N 266.191 -4.49845 -3.3704 0
M  V30 2884 H 258.342 -2.09951 -0.321633 0
M  V30 2885 H 260.605 -0.92556 -0.205043 0
M  V30 2886 H 260.311 -3.25689 -1.3274 0
M  V30 2887 H 260.185 -2.44089 -2.87577 0
M  V30 2888 H 262.572 -1.50907 -2.53597 0
M  V30 2889 H 262.653 -2.36003 -0.98673 0
M  V30 2890 H 262.297 -4.57334 -2.20925 0
M  V30 2891 H 262.227 -3.69141 -3.75556 0
M  V30 2892 H 264.718 -2.92171 -2.39676 0
M  V30 2893 H 265.031 -6.35184 -4.40183 0
M  V30 2894 H 263.376 -5.70842 -3.96439 0
M  V30 2895 H 266.567 -3.67194 -2.90321 0
M  V30 2896 H 266.74 -5.23597 -3.81772 0
M  V30 2897 N 260.146 1.09593 -1.13257 0
M  V30 2898 C 261.393 1.81734 -0.893257 0
M  V30 2899 C 261.721 1.8563 0.580656 0
M  V30 2900 O 260.976 1.31906 1.44566 0
M  V30 2901 C 261.275 3.27802 -1.42411 0
M  V30 2902 C 260.941 3.44041 -2.91456 0
M  V30 2903 C 259.603 3.48181 -3.3215 0
M  V30 2904 C 261.955 3.48719 -3.87356 0
M  V30 2905 C 259.283 3.54575 -4.67433 0
M  V30 2906 C 261.635 3.56648 -5.2248 0
M  V30 2907 C 260.299 3.59055 -5.62704 0
M  V30 2908 H 259.569 0.665011 -0.326866 0
M  V30 2909 H 262.216 1.2912 -1.41422 0
M  V30 2910 H 260.521 3.83042 -0.823795 0
M  V30 2911 H 262.218 3.82149 -1.21503 0
M  V30 2912 H 258.808 3.41502 -2.58987 0
M  V30 2913 H 262.992 3.44763 -3.57004 0
M  V30 2914 H 258.248 3.54725 -4.97976 0
M  V30 2915 H 262.422 3.59212 -5.96607 0
M  V30 2916 H 260.049 3.63763 -6.67518 0
M  V30 2917 N 261.624 0.925811 1.2754 0
M  V30 2918 C 262.87 0.566092 1.94739 0
M  V30 2919 C 263.203 -0.890057 1.72603 0
M  V30 2920 O 262.478 -1.63467 1.05399 0
M  V30 2921 C 262.761 0.89054 3.48915 0
M  V30 2922 C 262.614 2.4003 3.80402 0
M  V30 2923 C 263.933 0.395101 4.38323 0
M  V30 2924 H 261.052 0.20714 0.707292 0
M  V30 2925 H 263.694 1.15725 1.50691 0
M  V30 2926 H 261.844 0.387452 3.86563 0
M  V30 2927 H 263.516 2.97494 3.52555 0
M  V30 2928 H 261.759 2.85028 3.2702 0
M  V30 2929 H 262.43 2.57785 4.8811 0
M  V30 2930 H 264.906 0.826241 4.07814 0
M  V30 2931 H 263.782 0.651086 5.45025 0
M  V30 2932 H 264.043 -0.704798 4.36446 0
M  V30 2933 N 263.102 -1.41638 0.69111 0
M  V30 2934 C 264.379 -1.95036 0.148421 0
M  V30 2935 C 264.759 -1.63072 -1.34055 0
M  V30 2936 O 264.107 -0.93538 -2.08478 0
M  V30 2937 C 264.317 -3.46279 0.434951 0
M  V30 2938 C 265.665 -4.23069 0.360275 0
M  V30 2939 O 266.689 -3.54277 0.369613 0
M  V30 2940 O 265.548 -5.45583 0.316534 0
M  V30 2941 H 262.642 -0.826908 0.0123654 0
M  V30 2942 H 265.188 -1.5138 0.766963 0
M  V30 2943 H 263.96 -3.6281 1.46576 0
M  V30 2944 H 263.583 -3.97019 -0.214787 0
M  V30 2945 N 264.58 -0.43555 -1.51462 0
M  V30 2946 C 265.81 0.130053 -2.0619 0
M  V30 2947 C 266.218 1.37164 -1.30317 0
M  V30 2948 O 265.561 1.80225 -0.355598 0
M  V30 2949 C 265.623 0.519418 -3.55728 0
M  V30 2950 C 265.287 -0.615119 -4.52841 0
M  V30 2951 C 266.284 -1.48671 -4.9819 0
M  V30 2952 C 263.969 -0.795341 -4.95963 0
M  V30 2953 C 265.963 -2.52324 -5.8533 0
M  V30 2954 C 263.65 -1.83514 -5.82894 0
M  V30 2955 C 264.648 -2.69748 -6.27475 0
M  V30 2956 O 264.336 -3.71944 -7.1268 0
M  V30 2957 H 264.068 0.0121612 -0.675891 0
M  V30 2958 H 266.622 -0.6129 -1.96043 0
M  V30 2959 H 264.852 1.31505 -3.63653 0
M  V30 2960 H 266.541 1.01597 -3.92979 0
M  V30 2961 H 267.307 -1.359 -4.65571 0
M  V30 2962 H 263.186 -0.133713 -4.60806 0
M  V30 2963 H 266.73 -3.19665 -6.20048 0
M  V30 2964 H 262.627 -1.96306 -6.14926 0
M  V30 2965 H 263.395 -3.68503 -7.30854 0
M  V30 2966 N 266.058 1.56714 -0.166846 0
M  V30 2967 C 267.469 1.83378 0.350646 0
M  V30 2968 C 267.82 1.08646 1.63372 0
M  V30 2969 O 266.945 0.338058 2.13743 0
M  V30 2970 C 267.54 3.32643 0.642963 0
M  V30 2971 C 266.099 3.59818 1.10491 0
M  V30 2972 C 265.246 2.76954 0.138411 0
M  V30 2973 H 268.197 1.53803 -0.391193 0
M  V30 2974 H 268.218 3.49878 1.49551 0
M  V30 2975 H 267.73 3.87007 -0.291055 0
M  V30 2976 H 265.831 3.1086 2.05418 0
M  V30 2977 H 265.944 4.68178 1.01716 0
M  V30 2978 H 264.308 2.4666 0.634911 0
M  V30 2979 H 265.091 3.34097 -0.789549 0
M  V30 2980 N 267.536 -0.106894 1.57237 0
M  V30 2981 C 268.446 -1.14911 2.0453 0
M  V30 2982 C 269.462 -1.44592 0.96795 0
M  V30 2983 O 270.638 -1.55468 1.2803 0
M  V30 2984 C 267.703 -2.45272 2.45036 0
M  V30 2985 C 266.764 -2.22879 3.66911 0
M  V30 2986 C 265.997 -3.47024 4.05475 0
M  V30 2987 O 266.22 -4.54804 3.44252 0
M  V30 2988 O 265.154 -3.3731 4.98504 0
M  V30 2989 H 268.98 -0.777461 2.9358 0
M  V30 2990 H 266.565 -0.318563 1.45964 0
M  V30 2991 H 268.447 -3.22055 2.71769 0
M  V30 2992 H 267.122 -2.81886 1.59129 0
M  V30 2993 H 266.029 -1.43915 3.45311 0
M  V30 2994 H 267.362 -1.91163 4.53561 0
M  V30 2995 N 269.014 -1.53014 -0.377408 0
M  V30 2996 C 270.43 -1.42523 -0.718281 0
M  V30 2997 C 270.63 -0.55487 -1.9371 0
M  V30 2998 O 269.686 -0.0327593 -2.52479 0
M  V30 2999 C 270.999 -2.85546 -0.942539 0
M  V30 3000 C 272.547 -2.95101 -1.04329 0
M  V30 3001 C 273.022 -4.3916 -1.3001 0
M  V30 3002 N 274.513 -4.42536 -1.36806 0
M  V30 3003 C 275.248 -5.51097 -1.58364 0
M  V30 3004 N 274.744 -6.69724 -1.77317 0
M  V30 3005 N 276.537 -5.38657 -1.60638 0
M  V30 3006 H 268.688 -2.08116 0.424426 0
M  V30 3007 H 270.951 -0.939352 0.127759 0
M  V30 3008 H 270.657 -3.51499 -0.118929 0
M  V30 3009 H 270.531 -3.28493 -1.85397 0
M  V30 3010 H 272.918 -2.29309 -1.85745 0
M  V30 3011 H 272.999 -2.55566 -0.109505 0
M  V30 3012 H 272.643 -5.05521 -0.490991 0
M  V30 3013 H 272.573 -4.76258 -2.24691 0
M  V30 3014 H 275.064 -3.57039 -1.23821 0
M  V30 3015 H 275.377 -7.48233 -1.93306 0
M  V30 3016 H 273.722 -6.72732 -1.74518 0
M  V30 3017 H 276.913 -4.44948 -1.45391 0
M  V30 3018 H 277.086 -6.2333 -1.77098 0
M  V30 3019 N 270.492 0.636531 -1.44174 0
M  V30 3020 C 271.741 1.39213 -1.45954 0
M  V30 3021 C 272.054 1.95374 -0.0939119 0
M  V30 3022 O 273.26 2.71498 0.0107767 0
M  V30 3023 C 271.716 2.52025 -2.56927 0
M  V30 3024 C 271.324 2.024 -3.99673 0
M  V30 3025 C 273.068 3.29269 -2.67922 0
M  V30 3026 C 270.975 3.12521 -5.0208 0
M  V30 3027 H 269.905 0.523132 -0.542999 0
M  V30 3028 H 272.556 0.685349 -1.70221 0
M  V30 3029 H 270.938 3.25253 -2.25891 0
M  V30 3030 H 272.112 1.36073 -4.40251 0
M  V30 3031 H 270.427 1.37987 -3.92872 0
M  V30 3032 H 273.024 4.11352 -3.41605 0
M  V30 3033 H 273.367 3.78397 -1.73555 0
M  V30 3034 H 273.9 2.63129 -2.98342 0
M  V30 3035 H 270.639 2.68343 -5.98057 0
M  V30 3036 H 270.159 3.77507 -4.66099 0
M  V30 3037 H 271.838 3.77385 -5.25538 0
M  V30 3038 N 271.97 1.30982 0.876444 0
M  V30 3039 C 272.9 1.20668 1.99903 0
M  V30 3040 C 273.881 0.095354 1.69833 0
M  V30 3041 O 275.066 0.27885 1.92188 0
M  V30 3042 C 272.196 0.90655 3.3526 0
M  V30 3043 C 271.15 1.97675 3.79617 0
M  V30 3044 C 270.476 1.52943 5.1236 0
M  V30 3045 C 271.776 3.389 3.97422 0
M  V30 3046 H 273.47 2.14586 2.0879 0
M  V30 3047 H 271.016 1.03308 1.00317 0
M  V30 3048 H 272.969 0.821025 4.13324 0
M  V30 3049 H 271.693 -0.0682969 3.26529 0
M  V30 3050 H 270.352 2.05205 3.03787 0
M  V30 3051 H 270 0.54262 5.00065 0
M  V30 3052 H 269.7 2.24532 5.43009 0
M  V30 3053 H 271.224 1.45786 5.92941 0
M  V30 3054 H 272.638 3.34081 4.659 0
M  V30 3055 H 271.035 4.0865 4.3946 0
M  V30 3056 H 272.105 3.80163 3.01006 0
M  V30 3057 N 273.449 -1.08991 1.13837 0
M  V30 3058 C 274.381 -2.15606 0.777612 0
M  V30 3059 C 275.394 -1.61533 -0.202739 0
M  V30 3060 O 276.583 -1.78491 0.0181055 0
M  V30 3061 C 273.683 -3.3864 0.132623 0
M  V30 3062 C 272.856 -4.22115 1.1462 0
M  V30 3063 C 271.915 -5.23564 0.526074 0
M  V30 3064 O 270.941 -5.56678 1.18735 0
M  V30 3065 N 272.143 -5.76266 -0.699866 0
M  V30 3066 H 274.908 -2.47159 1.69506 0
M  V30 3067 H 272.469 -1.24747 1.03198 0
M  V30 3068 H 274.461 -4.03626 -0.29459 0
M  V30 3069 H 273.031 -3.04938 -0.687849 0
M  V30 3070 H 272.251 -3.53199 1.75055 0
M  V30 3071 H 273.539 -4.74709 1.83109 0
M  V30 3072 H 272.937 -5.51585 -1.25581 0
M  V30 3073 H 271.494 -6.42963 -1.06968 0
M  V30 3074 N 274.927 -0.932562 -1.27047 0
M  V30 3075 C 276.155 -0.592031 -1.98249 0
M  V30 3076 C 276.57 0.831062 -1.69525 0
M  V30 3077 O 275.927 1.55299 -0.958561 0
M  V30 3078 C 275.978 -0.814279 -3.5221 0
M  V30 3079 O 275.699 -2.18139 -3.7993 0
M  V30 3080 C 277.2 -0.483121 -4.4066 0
M  V30 3081 H 274.42 -0.223896 -0.632544 0
M  V30 3082 H 276.964 -1.25091 -1.61779 0
M  V30 3083 H 275.119 -0.20213 -3.86872 0
M  V30 3084 H 275.533 -2.235 -4.74498 0
M  V30 3085 H 277.007 -0.689298 -5.47679 0
M  V30 3086 H 277.484 0.581546 -4.35333 0
M  V30 3087 H 278.09 -1.07362 -4.11526 0
M  V30 3088 N 276.405 1.4127 -0.698611 0
M  V30 3089 C 277.355 2.27997 -0.0119836 0
M  V30 3090 C 278.339 1.42363 0.749765 0
M  V30 3091 O 279.531 1.65607 0.624758 0
M  V30 3092 C 276.66 3.30702 0.921458 0
M  V30 3093 C 275.746 4.23814 0.155796 0
M  V30 3094 N 276.137 4.98572 -0.852015 0
M  V30 3095 C 274.435 4.44284 0.390836 0
M  V30 3096 C 275.136 5.66744 -1.3106 0
M  V30 3097 N 274.112 5.39867 -0.635944 0
M  V30 3098 H 277.914 2.83232 -0.784649 0
M  V30 3099 H 275.428 1.53518 -0.529711 0
M  V30 3100 H 277.425 3.91661 1.42854 0
M  V30 3101 H 276.085 2.77028 1.69369 0
M  V30 3102 H 277.096 5.03024 -1.23235 0
M  V30 3103 H 273.773 4.01614 1.14071 0
M  V30 3104 H 275.163 6.36672 -2.14707 0
M  V30 3105 N 277.883 0.443576 1.51229 0
M  V30 3106 C 278.831 -0.37904 2.29491 0
M  V30 3107 C 279.825 -1.0153 1.35603 0
M  V30 3108 O 281.031 -0.94955 1.52917 0
M  V30 3109 H 277.406 -0.141053 0.738653 0
M  V30 3110 H 279.377 0.301799 2.9687 0
M  V30 3111 C 278.126 -1.46426 3.15364 0
M  V30 3112 H 277.449 -0.984037 3.87501 0
M  V30 3113 H 278.889 -2.01297 3.7317 0
M  V30 3114 C 277.348 -2.45099 2.31146 0
M  V30 3115 O 277.878 -3.49773 1.9754 0
M  V30 3116 N 276.084 -2.16139 1.94249 0
M  V30 3117 H 275.631 -1.31044 2.21777 0
M  V30 3118 H 275.589 -2.82398 1.38198 0
M  V30 3119 N 279.361 -1.56624 0.175154 0
M  V30 3120 C 280.291 -2.21155 -0.749195 0
M  V30 3121 C 281.272 -1.16836 -1.23626 0
M  V30 3122 O 282.457 -1.45277 -1.28873 0
M  V30 3123 C 279.587 -2.8553 -1.97711 0
M  V30 3124 C 278.541 -3.95921 -1.62575 0
M  V30 3125 C 277.867 -4.47365 -2.92864 0
M  V30 3126 C 279.167 -5.15323 -0.850838 0
M  V30 3127 H 280.861 -2.98653 -0.211295 0
M  V30 3128 H 278.407 -1.43651 -0.100188 0
M  V30 3129 H 280.36 -3.2935 -2.62881 0
M  V30 3130 H 279.084 -2.05406 -2.53921 0
M  V30 3131 H 277.743 -3.52762 -0.997719 0
M  V30 3132 H 277.391 -3.64027 -3.47122 0
M  V30 3133 H 277.091 -5.21839 -2.70106 0
M  V30 3134 H 278.615 -4.93873 -3.59056 0
M  V30 3135 H 280.029 -5.55812 -1.40521 0
M  V30 3136 H 278.426 -5.95739 -0.722154 0
M  V30 3137 H 279.496 -4.84661 0.152082 0
M  V30 3138 N 280.839 0.0985539 -1.57292 0
M  V30 3139 C 281.772 1.15082 -1.97057 0
M  V30 3140 C 282.75 1.39025 -0.843255 0
M  V30 3141 O 283.934 1.52842 -1.10325 0
M  V30 3142 C 281.061 2.50069 -2.28437 0
M  V30 3143 C 280.107 2.42428 -3.509 0
M  V30 3144 S 280.94 1.84414 -5.02744 0
M  V30 3145 C 282.096 3.21032 -5.37298 0
M  V30 3146 H 282.329 0.811815 -2.86002 0
M  V30 3147 H 279.862 0.306102 -1.51335 0
M  V30 3148 H 281.82 3.27729 -2.47192 0
M  V30 3149 H 280.481 2.8114 -1.40069 0
M  V30 3150 H 279.674 3.41911 -3.70288 0
M  V30 3151 H 279.276 1.72896 -3.31637 0
M  V30 3152 H 281.568 4.17297 -5.33731 0
M  V30 3153 H 282.511 3.06452 -6.38352 0
M  V30 3154 H 282.919 3.20404 -4.64759 0
M  V30 3155 N 282.317 1.53212 0.369288 0
M  V30 3156 C 283.563 1.69466 1.11397 0
M  V30 3157 C 283.896 0.443257 1.89074 0
M  V30 3158 O 283.171 -0.559386 1.86282 0
M  V30 3159 C 283.454 2.9422 2.07621 0
M  V30 3160 C 283.307 4.29508 1.33577 0
M  V30 3161 C 284.626 3.14565 3.07794 0
M  V30 3162 H 281.745 0.616667 0.403597 0
M  V30 3163 H 284.387 1.85845 0.395179 0
M  V30 3164 H 282.537 2.80387 2.68916 0
M  V30 3165 H 284.209 4.55147 0.750955 0
M  V30 3166 H 282.452 4.29088 0.637618 0
M  V30 3167 H 283.123 5.12926 2.03989 0
M  V30 3168 H 285.599 3.2756 2.56601 0
M  V30 3169 H 284.475 4.03297 3.72348 0
M  V30 3170 H 284.736 2.29675 3.77759 0
M  V30 3171 N 283.795 -0.628877 1.44509 0
M  V30 3172 C 285.042 -1.38839 1.47411 0
M  V30 3173 C 285.37 -1.94202 0.10757 0
M  V30 3174 O 284.625 -1.74243 -0.890947 0
M  V30 3175 C 284.924 -2.56995 2.48371 0
M  V30 3176 C 284.59 -2.19908 3.93639 0
M  V30 3177 C 283.252 -2.09506 4.33198 0
M  V30 3178 C 285.604 -1.9064 4.85083 0
M  V30 3179 C 282.932 -1.68028 5.62124 0
M  V30 3180 C 285.284 -1.50655 6.14399 0
M  V30 3181 C 283.948 -1.38796 6.5291 0
M  V30 3182 H 283.218 -0.508048 0.539414 0
M  V30 3183 H 285.865 -0.712913 1.77735 0
M  V30 3184 H 284.17 -3.29786 2.11538 0
M  V30 3185 H 285.867 -3.15223 2.47861 0
M  V30 3186 H 282.457 -2.28922 3.62343 0
M  V30 3187 H 286.641 -1.97585 4.55273 0
M  V30 3188 H 281.897 -1.57452 5.90778 0
M  V30 3189 H 286.071 -1.27048 6.84713 0
M  V30 3190 H 283.698 -1.06429 7.52713 0
M  V30 3191 N 285.273 -1.31445 -0.869486 0
M  V30 3192 C 286.203 -1.21727 -1.99261 0
M  V30 3193 C 287.184 -0.104359 -1.6978 0
M  V30 3194 O 288.369 -0.289038 -1.92037 0
M  V30 3195 C 285.499 -0.924317 -3.34774 0
M  V30 3196 C 284.453 -1.99685 -3.78563 0
M  V30 3197 C 283.779 -1.55658 -5.11541 0
M  V30 3198 C 285.079 -3.41003 -3.95619 0
M  V30 3199 H 286.773 -2.1569 -2.07649 0
M  V30 3200 H 284.319 -1.03839 -0.997675 0
M  V30 3201 H 286.272 -0.842934 -4.12883 0
M  V30 3202 H 284.996 0.0509793 -3.2656 0
M  V30 3203 H 283.655 -2.06813 -3.02694 0
M  V30 3204 H 283.303 -0.569132 -4.9977 0
M  V30 3205 H 283.003 -2.27409 -5.41811 0
M  V30 3206 H 284.527 -1.48928 -5.92159 0
M  V30 3207 H 285.941 -3.36547 -4.64122 0
M  V30 3208 H 284.338 -4.10975 -4.37286 0
M  V30 3209 H 285.408 -3.81754 -2.98985 0
M  V30 3210 O 286.79 1.00619 -1.26325 0
M  V30 3211 H 287.481 1.62637 -1.05209 0
M  V30 END ATOM
M  V30 BEGIN BOND
M  V30 END BOND
M  V30 END CTAB
M  END
$$$$
