drugbank_target|P16442 Histo-blood group ABO system transferase (DB02196; DB03435; DB03501; DB03772; DB04141; DB04678; DB04679; DB04680; DB04681; DB07341; DB07357; DB07378; DB07633)
 OpenBabel12092119273D

  0  0  0     0  0            999 V3000
M  V30 BEGIN CTAB
M  V30 COUNTS 5795 5874 0 0 0
M  V30 BEGIN ATOM
M  V30 1 H -0.908 1.98254 -0.117106 0
M  V30 2 N 0 1.576 0 0
M  V30 3 C 0.933 2.03868 1.02534 0
M  V30 4 C 1.911 0.928543 1.3348 0
M  V30 5 O 3.095 1.19667 1.45644 0
M  V30 6 C 0.222 2.43627 2.35294 0
M  V30 7 C -0.732 3.65373 2.2001 0
M  V30 8 S 0.101 5.13292 1.52614 0
M  V30 9 C 1.257 5.56322 2.86805 0
M  V30 10 H 1.49 2.90518 0.631377 0
M  V30 11 H -0.977 1.52953 0.210867 0
M  V30 12 H 0.981 2.67203 3.11629 0
M  V30 13 H -0.358 1.57376 2.7183 0
M  V30 14 H -1.165 3.90944 3.18086 0
M  V30 15 H -1.563 3.418 1.51819 0
M  V30 16 H 0.729 5.58782 3.83104 0
M  V30 17 H 1.672 6.56266 2.65933 0
M  V30 18 H 2.08 4.83886 2.90714 0
M  V30 19 N 1.4781 -0.272755 1.55222 0
M  V30 20 C 2.4411 -1.32041 1.87344 0
M  V30 21 C 3.4411 -1.42342 0.74803 0
M  V30 22 O 4.6311 -1.41488 1.0162 0
M  V30 23 C 1.7631 -2.70173 2.07893 0
M  V30 24 H 2.9561 -1.04789 2.80997 0
M  V30 25 H 0.5091 -0.51083 1.47717 0
M  V30 26 H 1.2441 -3.02605 1.16622 0
M  V30 27 H 1.0291 -2.64082 2.89833 0
M  V30 28 H 2.5191 -3.45869 2.34017 0
M  V30 29 N 2.9562 -1.48159 -0.537278 0
M  V30 30 C 3.8662 -1.64807 -1.6696 0
M  V30 31 C 4.8822 -0.530651 -1.65711 0
M  V30 32 O 6.0582 -0.800784 -1.84796 0
M  V30 33 C 3.1232 -1.67708 -3.03438 0
M  V30 34 C 2.1842 -2.91025 -3.156 0
M  V30 35 C 1.4172 -2.93778 -4.45567 0
M  V30 36 O 1.6402 -2.05153 -5.3223 0
M  V30 37 O 0.5742 -3.85868 -4.61941 0
M  V30 38 H 4.4002 -2.6066 -1.55853 0
M  V30 39 H 1.9852 -1.31475 -0.709549 0
M  V30 40 H 3.8672 -1.7218 -3.84619 0
M  V30 41 H 2.5422 -0.750278 -3.14885 0
M  V30 42 H 1.4492 -2.92089 -2.33741 0
M  V30 43 H 2.7822 -3.83065 -3.09066 0
M  V30 44 N 4.4343 0.785586 -1.36625 0
M  V30 45 C 5.6803 1.54591 -1.31261 0
M  V30 46 C 6.0133 1.93906 0.106823 0
M  V30 47 O 5.2883 1.63007 1.06108 0
M  V30 48 C 5.5713 2.82038 -2.23889 0
M  V30 49 C 5.4243 2.49066 -3.74548 0
M  V30 50 C 6.7433 3.83887 -2.15217 0
M  V30 51 H 3.8623 0.560846 -0.478143 0
M  V30 52 H 6.5043 0.902278 -1.67209 0
M  V30 53 H 4.6543 3.36961 -1.93363 0
M  V30 54 H 6.3263 2.00164 -4.15611 0
M  V30 55 H 4.5693 1.81954 -3.93796 0
M  V30 56 H 5.2403 3.40109 -4.34776 0
M  V30 57 H 7.7163 3.38421 -2.42096 0
M  V30 58 H 6.5923 4.70806 -2.82193 0
M  V30 59 H 6.8533 4.27131 -1.14068 0
M  V30 60 N 5.9124 1.20967 1.01018 0
M  V30 61 C 6.8424 0.988272 2.11555 0
M  V30 62 C 7.8234 -0.0849778 1.69888 0
M  V30 63 O 9.0084 0.0738202 1.9406 0
M  V30 64 C 6.1384 0.546528 3.42973 0
M  V30 65 C 5.0924 1.56375 3.9841 0
M  V30 66 C 4.4184 0.97842 5.25672 0
M  V30 67 C 5.7184 2.94922 4.31066 0
M  V30 68 H 7.4124 1.91276 2.30334 0
M  V30 69 H 4.9584 0.921073 1.1069 0
M  V30 70 H 6.9114 0.378839 4.19694 0
M  V30 71 H 5.6354 -0.413598 3.23971 0
M  V30 72 H 4.2944 1.71891 3.23804 0
M  V30 73 H 3.9424 0.0101688 5.02999 0
M  V30 74 H 3.6424 1.65784 5.63728 0
M  V30 75 H 5.1664 0.821939 6.05043 0
M  V30 76 H 6.5804 2.8288 4.9865 0
M  V30 77 H 4.9774 3.5983 4.80253 0
M  V30 78 H 6.0474 3.4616 3.39561 0
M  V30 79 N 7.3905 -1.2043 1.01659 0
M  V30 80 C 8.8065 -1.41852 0.731442 0
M  V30 81 C 9.0065 -1.89358 -0.688898 0
M  V30 82 O 8.0625 -2.06247 -1.45666 0
M  V30 83 C 9.3755 -2.44019 1.75714 0
M  V30 84 C 10.9235 -2.57785 1.77527 0
M  V30 85 C 11.3985 -3.63194 2.79023 0
M  V30 86 N 12.8895 -3.70678 2.77763 0
M  V30 87 C 13.6245 -4.51897 3.52954 0
M  V30 88 N 13.1205 -5.36921 4.37821 0
M  V30 89 N 14.9135 -4.4643 3.41551 0
M  V30 90 H 7.0645 -0.879093 1.93354 0
M  V30 91 H 9.3275 -0.448425 0.835236 0
M  V30 92 H 9.0335 -2.1611 2.77469 0
M  V30 93 H 8.9075 -3.43007 1.56927 0
M  V30 94 H 11.2945 -2.85023 0.764569 0
M  V30 95 H 11.3755 -1.58992 2.00387 0
M  V30 96 H 11.0195 -3.36699 3.80258 0
M  V30 97 H 10.9495 -4.61609 2.53425 0
M  V30 98 H 13.4405 -3.09944 2.16201 0
M  V30 99 H 13.7535 -5.95981 4.91962 0
M  V30 100 H 12.0985 -5.36424 4.41899 0
M  V30 101 H 15.2895 -3.79042 2.74672 0
M  V30 102 H 15.4625 -5.09491 4.00404 0
M  V30 103 N 8.8686 -0.792821 -1.36206 0
M  V30 104 C 10.0966 -0.378825 -2.03402 0
M  V30 105 C 10.5116 1.00586 -1.59774 0
M  V30 106 O 9.8686 1.64574 -0.788764 0
M  V30 107 C 9.9196 -0.43683 -3.58851 0
M  V30 108 O 9.6406 -1.76691 -4.00889 0
M  V30 109 C 11.1416 -0.0138943 -4.43298 0
M  V30 110 H 8.3616 -0.155673 -0.652692 0
M  V30 111 H 10.9056 -1.07261 -1.74113 0
M  V30 112 H 9.0606 0.208575 -3.86838 0
M  V30 113 H 9.4746 -1.72011 -4.95492 0
M  V30 114 H 10.9486 -0.105615 -5.51899 0
M  V30 115 H 11.4256 1.03915 -4.2673 0
M  V30 116 H 12.0316 -0.63192 -4.20579 0
M  V30 117 N 10.3467 1.47872 -0.545128 0
M  V30 118 C 11.2767 2.32661 0.197793 0
M  V30 119 C 12.2577 1.43041 0.920504 0
M  V30 120 O 13.4427 1.71912 0.90333 0
M  V30 121 C 10.5727 3.24569 1.23582 0
M  V30 122 C 9.5267 4.23333 0.630323 0
M  V30 123 C 8.8527 5.0448 1.77211 0
M  V30 124 C 10.1527 5.20704 -0.407974 0
M  V30 125 H 11.8467 2.95024 -0.510045 0
M  V30 126 H 9.3927 1.4187 -0.246731 0
M  V30 127 H 11.3457 3.8272 1.76362 0
M  V30 128 H 10.0697 2.60236 1.97344 0
M  V30 129 H 8.7287 3.6639 0.123922 0
M  V30 130 H 8.3767 4.36561 2.49847 0
M  V30 131 H 8.0767 5.71339 1.37281 0
M  V30 132 H 9.6007 5.65487 2.3034 0
M  V30 133 H 11.0147 5.7329 0.033305 0
M  V30 134 H 9.4117 5.95699 -0.725486 0
M  V30 135 H 10.4817 4.66917 -1.30828 0
M  V30 136 N 11.8248 0.280983 1.55075 0
M  V30 137 C 12.7878 -0.590896 2.21452 0
M  V30 138 C 13.7878 -1.07682 1.19421 0
M  V30 139 O 14.9778 -0.97605 1.44288 0
M  V30 140 C 12.1098 -1.81587 2.88511 0
M  V30 141 H 13.3028 -0.0112554 2.99898 0
M  V30 142 H 10.8558 0.0316438 1.56268 0
M  V30 143 H 11.5908 -2.43587 2.14093 0
M  V30 144 H 11.3758 -1.4753 3.63287 0
M  V30 145 H 12.8658 -2.43575 3.39206 0
M  V30 146 N 13.3029 -1.57598 0.00835791 0
M  V30 147 C 14.5509 -1.90551 -0.6734 0
M  V30 148 C 14.8719 -0.883301 -1.73847 0
M  V30 149 O 14.1419 0.0781442 -1.95744 0
M  V30 150 H 12.7219 -0.703312 -0.251717 0
M  V30 151 H 15.3839 -1.94833 0.0512592 0
M  V30 152 H 14.4799 -2.9056 -1.13935 0
M  V30 153 N 14.781 0.264519 -1.55364 0
M  V30 154 C 15.728 1.32717 -1.88825 0
M  V30 155 C 16.698 1.48675 -0.740605 0
M  V30 156 O 17.883 1.62945 -0.992657 0
M  V30 157 C 15.023 2.68089 -2.17307 0
M  V30 158 C 14.136 2.60284 -3.44785 0
M  V30 159 C 13.271 3.87892 -3.62924 0
M  V30 160 C 12.31 3.74631 -4.84064 0
M  V30 161 N 11.447 4.94092 -4.98816 0
M  V30 162 H 16.287 1.03481 -2.79456 0
M  V30 163 H 13.824 0.499757 -1.3835 0
M  V30 164 H 15.782 3.46864 -2.31821 0
M  V30 165 H 14.412 2.95509 -1.299 0
M  V30 166 H 13.464 1.73173 -3.38697 0
M  V30 167 H 14.776 2.46388 -4.33698 0
M  V30 168 H 13.93 4.75109 -3.77302 0
M  V30 169 H 12.669 4.04664 -2.7221 0
M  V30 170 H 11.674 2.85797 -4.69681 0
M  V30 171 H 12.899 3.5937 -5.76221 0
M  V30 172 H 10.845 5.11259 -4.11036 0
M  V30 173 H 10.762 4.8276 -5.81789 0
M  V30 174 H 12.03 5.82857 -5.17588 0
M  V30 175 N 16.2591 1.48442 0.529413 0
M  V30 176 C 17.6701 1.5002 1.11134 0
M  V30 177 C 18.0211 0.27031 1.94329 0
M  V30 178 O 17.1461 -0.622507 2.07253 0
M  V30 179 C 17.7411 2.71834 2.02217 0
M  V30 180 C 16.3001 2.76283 2.55627 0
M  V30 181 C 15.4471 2.43542 1.326 0
M  V30 182 H 18.3981 1.5555 0.314641 0
M  V30 183 H 18.4191 2.50384 2.8651 0
M  V30 184 H 17.9311 3.61331 1.41639 0
M  V30 185 H 16.0321 1.90995 3.19924 0
M  V30 186 H 16.1451 3.77725 2.94721 0
M  V30 187 H 14.5091 1.94709 1.64196 0
M  V30 188 H 15.2921 3.3528 0.737734 0
M  V30 189 N 17.7372 -0.778329 1.37039 0
M  V30 190 C 18.6842 -1.89139 1.32269 0
M  V30 191 C 19.6542 -1.65017 0.189387 0
M  V30 192 O 20.8392 -1.87024 0.377693 0
M  V30 193 C 17.9792 -3.26112 1.12894 0
M  V30 194 C 17.0922 -3.62233 2.35396 0
M  V30 195 C 16.2272 -4.8838 2.08946 0
M  V30 196 C 15.2662 -5.17212 3.2735 0
M  V30 197 N 14.4032 -6.34546 3.00492 0
M  V30 198 H 19.2432 -1.92552 2.27437 0
M  V30 199 H 16.7802 -0.941473 1.13025 0
M  V30 200 H 18.7382 -4.05116 0.996835 0
M  V30 201 H 17.3682 -3.22091 0.213758 0
M  V30 202 H 16.4202 -2.78265 2.5937 0
M  V30 203 H 17.7322 -3.79481 3.23721 0
M  V30 204 H 16.8862 -5.75274 1.92729 0
M  V30 205 H 15.6252 -4.73222 1.17949 0
M  V30 206 H 14.6302 -4.28796 3.44113 0
M  V30 207 H 15.8552 -5.34283 4.19188 0
M  V30 208 H 13.8012 -6.20759 2.12118 0
M  V30 209 H 13.7182 -6.52179 3.82358 0
M  V30 210 H 14.9862 -7.24394 2.87879 0
M  V30 211 N 19.2153 -1.21501 -1.00376 0
M  V30 212 C 20.4553 -1.04444 -1.75701 0
M  V30 213 C 20.8193 0.414644 -1.87469 0
M  V30 214 O 22.0203 0.705763 -2.59369 0
M  V30 215 C 20.2913 -1.72389 -3.13077 0
M  V30 216 S 21.8503 -1.70604 -4.04277 0
M  V30 217 H 18.6683 -0.374249 -0.604532 0
M  V30 218 H 21.2703 -1.54267 -1.20091 0
M  V30 219 H 19.9743 -2.77734 -3.02146 0
M  V30 220 H 19.5053 -1.22751 -3.73759 0
M  V30 221 H 21.5203 -0.748012 -4.9053 0
M  V30 222 N 20.6934 1.19889 -1.02296 0
M  V30 223 C 21.6434 2.20777 -0.56934 0
M  V30 224 C 22.6274 1.56379 0.378741 0
M  V30 225 O 23.8194 1.75859 0.200673 0
M  V30 226 C 20.9484 3.43196 0.0845077 0
M  V30 227 C 20.0344 4.14749 -0.88566 0
M  V30 228 N 20.4254 4.62584 -2.04573 0
M  V30 229 C 18.7234 4.40347 -0.707835 0
M  V30 230 C 19.4244 5.17466 -2.65714 0
M  V30 231 N 18.4004 5.0791 -1.93723 0
M  V30 232 H 22.2024 2.55434 -1.45365 0
M  V30 233 H 19.7164 1.35897 -0.88915 0
M  V30 234 H 21.7134 4.14707 0.427067 0
M  V30 235 H 20.3734 3.10042 0.964574 0
M  V30 236 H 21.3844 4.57597 -2.4254 0
M  V30 237 H 18.0614 4.17317 0.12364 0
M  V30 238 H 19.4514 5.64808 -3.63925 0
M  V30 239 N 22.1715 0.800033 1.35784 0
M  V30 240 C 23.1345 0.211565 2.28221 0
M  V30 241 C 24.1345 -0.59728 1.49296 0
M  V30 242 O 25.3245 -0.416721 1.69142 0
M  V30 243 C 22.4565 -0.705846 3.33513 0
M  V30 244 H 23.6495 1.02677 2.81776 0
M  V30 245 H 21.2025 0.570211 1.45528 0
M  V30 246 H 21.9375 -1.54498 2.85133 0
M  V30 247 H 21.7225 -0.127655 3.91892 0
M  V30 248 H 23.2125 -1.11211 4.02519 0
M  V30 249 N 23.6496 -1.47581 0.552962 0
M  V30 250 C 24.5796 -2.32762 -0.185451 0
M  V30 251 C 25.5606 -1.43527 -0.912905 0
M  V30 252 O 26.7456 -1.72388 -0.894201 0
M  V30 253 C 23.8756 -3.25219 -1.21859 0
M  V30 254 C 22.8296 -4.23661 -0.607864 0
M  V30 255 C 22.1556 -5.05413 -1.74533 0
M  V30 256 C 23.4556 -5.20481 0.435582 0
M  V30 257 H 25.1496 -2.94749 0.525684 0
M  V30 258 H 22.6956 -1.41738 0.254251 0
M  V30 259 H 24.6486 -3.8365 -1.7433 0
M  V30 260 H 23.3726 -2.61279 -1.95961 0
M  V30 261 H 22.0316 -3.66451 -0.104489 0
M  V30 262 H 21.6796 -4.3788 -2.47529 0
M  V30 263 H 21.3796 -5.72059 -1.34249 0
M  V30 264 H 22.9036 -5.66701 -2.27338 0
M  V30 265 H 24.3176 -5.733 -0.00290157 0
M  V30 266 H 22.7146 -5.95305 0.757067 0
M  V30 267 H 23.7846 -4.66217 1.33303 0
M  V30 268 N 25.1277 -0.289203 -1.54924 0
M  V30 269 C 26.5437 0.0645403 -1.59469 0
M  V30 270 C 26.7437 1.53419 -1.30632 0
M  V30 271 O 25.7997 2.2852 -1.074 0
M  V30 272 C 27.1127 -0.32278 -2.98963 0
M  V30 273 C 28.6607 -0.270564 -3.11828 0
M  V30 274 C 29.1357 -0.632532 -4.53611 0
M  V30 275 N 30.6267 -0.584617 -4.59496 0
M  V30 276 C 31.3617 -0.837314 -5.67254 0
M  V30 277 N 30.8577 -1.15536 -6.83098 0
M  V30 278 N 32.6507 -0.765166 -5.56868 0
M  V30 279 H 24.8017 -1.24714 -1.71931 0
M  V30 280 H 27.0647 -0.504809 -0.802416 0
M  V30 281 H 26.7707 -1.34541 -3.24948 0
M  V30 282 H 26.6447 0.32944 -3.75759 0
M  V30 283 H 29.0317 0.742805 -2.85598 0
M  V30 284 H 29.1127 -0.957242 -2.37214 0
M  V30 285 H 28.7567 -1.64365 -4.80569 0
M  V30 286 H 28.6867 0.07609 -5.26545 0
M  V30 287 H 31.1777 -0.349248 -3.76283 0
M  V30 288 H 31.4907 -1.33447 -7.61191 0
M  V30 289 H 29.8357 -1.19328 -6.84679 0
M  V30 290 H 33.0267 -0.516432 -4.65243 0
M  V30 291 H 33.1997 -0.965477 -6.40767 0
M  V30 292 N 26.6058 1.57591 -0.0167156 0
M  V30 293 C 28.0168 1.79201 0.523834 0
M  V30 294 C 28.3678 0.925796 1.72984 0
M  V30 295 O 27.4928 0.132792 2.15992 0
M  V30 296 C 28.0878 3.25 0.957091 0
M  V30 297 C 26.6468 3.47648 1.44283 0
M  V30 298 C 25.7938 2.74374 0.401757 0
M  V30 299 H 28.7448 1.56831 -0.242816 0
M  V30 300 H 28.7658 3.34031 1.82219 0
M  V30 301 H 28.2778 3.88019 0.0791415 0
M  V30 302 H 26.3788 2.89866 2.34113 0
M  V30 303 H 26.4918 4.56352 1.45877 0
M  V30 304 H 24.8558 2.39485 0.867121 0
M  V30 305 H 25.6388 3.40102 -0.467513 0
M  V30 306 N 28.0839 -0.256276 1.55502 0
M  V30 307 C 29.0169 -1.34321 1.84481 0
M  V30 308 C 29.9949 -1.46802 0.699131 0
M  V30 309 O 31.1789 -1.63165 0.943904 0
M  V30 310 C 28.3059 -2.71779 2.02123 0
M  V30 311 C 27.3519 -2.76496 3.24734 0
M  V30 312 S 28.1849 -2.3405 4.81644 0
M  V30 313 C 29.3409 -3.73452 5.02279 0
M  V30 314 H 29.5739 -1.09539 2.76385 0
M  V30 315 H 27.1069 -0.45678 1.47489 0
M  V30 316 H 29.0649 -3.50932 2.12972 0
M  V30 317 H 27.7259 -2.93803 1.11078 0
M  V30 318 H 26.9189 -3.77424 3.34016 0
M  V30 319 H 26.5209 -2.05379 3.12563 0
M  V30 320 H 28.8129 -4.6887 4.89047 0
M  V30 321 H 29.7559 -3.6911 6.04287 0
M  V30 322 H 30.1639 -3.6553 4.30172 0
M  V30 323 N 29.562 -1.4872 -0.521534 0
M  V30 324 C 30.811 -1.56419 -1.27341 0
M  V30 325 C 31.124 -0.246805 -1.94037 0
M  V30 326 O 32.33 -0.202122 -2.70747 0
M  V30 327 C 30.786 -2.75896 -2.31105 0
M  V30 328 C 30.394 -4.14311 -1.70441 0
M  V30 329 C 32.138 -2.92913 -3.07249 0
M  V30 330 C 30.045 -5.25038 -2.72194 0
M  V30 331 H 28.975 -0.582344 -0.478949 0
M  V30 332 H 31.626 -1.75071 -0.549779 0
M  V30 333 H 30.008 -2.50697 -3.06541 0
M  V30 334 H 31.182 -4.49564 -1.01136 0
M  V30 335 H 29.497 -4.02482 -1.06759 0
M  V30 336 H 32.094 -3.72805 -3.83302 0
M  V30 337 H 32.437 -2.02689 -3.63625 0
M  V30 338 H 32.97 -3.18054 -2.38928 0
M  V30 339 H 29.709 -6.17255 -2.20627 0
M  V30 340 H 29.229 -4.94263 -3.39801 0
M  V30 341 H 30.908 -5.53508 -3.35019 0
M  V30 342 N 31.0401 0.771051 -1.3745 0
M  V30 343 C 31.9701 1.89827 -1.3597 0
M  V30 344 C 32.9511 1.68562 -0.228216 0
M  V30 345 O 34.1361 1.8941 -0.428675 0
M  V30 346 C 31.2661 3.2712 -1.16662 0
M  V30 347 C 30.2201 3.6295 -2.2683 0
M  V30 348 C 29.5461 4.98791 -1.92644 0
M  V30 349 C 30.8461 3.69627 -3.69017 0
M  V30 350 H 32.5401 1.91323 -2.30295 0
M  V30 351 H 30.0861 0.919082 -1.10855 0
M  V30 352 H 32.0391 4.05615 -1.14256 0
M  V30 353 H 30.7631 3.26059 -0.187926 0
M  V30 354 H 29.4221 2.86763 -2.28392 0
M  V30 355 H 29.0701 4.94271 -0.933021 0
M  V30 356 H 28.7701 5.23733 -2.66416 0
M  V30 357 H 30.2941 5.79685 -1.91826 0
M  V30 358 H 31.7081 4.38273 -3.69581 0
M  V30 359 H 30.1051 4.06067 -4.41848 0
M  V30 360 H 31.1751 2.70273 -4.02592 0
M  V30 361 N 32.5182 1.22032 0.997298 0
M  V30 362 C 33.7652 1.04222 1.73621 0
M  V30 363 C 34.0932 -0.423264 1.89839 0
M  V30 364 O 33.3482 -1.3302 1.43542 0
M  V30 365 C 33.6472 1.69345 3.14733 0
M  V30 366 C 33.3132 3.19226 3.18442 0
M  V30 367 C 31.9752 3.60124 3.19161 0
M  V30 368 C 34.3272 4.15181 3.15078 0
M  V30 369 C 31.6552 4.95467 3.14212 0
M  V30 370 C 34.0072 5.50495 3.1167 0
M  V30 371 C 32.6712 5.90779 3.10703 0
M  V30 372 H 31.9412 0.381374 0.635323 0
M  V30 373 H 34.5882 1.51732 1.16831 0
M  V30 374 H 32.8932 1.14147 3.74803 0
M  V30 375 H 34.5902 1.53059 3.7064 0
M  V30 376 H 31.1802 2.86659 3.18629 0
M  V30 377 H 35.3642 3.84605 3.13676 0
M  V30 378 H 30.6202 5.25916 3.11805 0
M  V30 379 H 34.7942 6.24576 3.08022 0
M  V30 380 H 32.4212 6.9562 3.06622 0
M  V30 381 N 33.9963 -1.19345 1.0293 0
M  V30 382 C 34.9263 -2.2481 0.631105 0
M  V30 383 C 35.9073 -1.66245 -0.360104 0
M  V30 384 O 37.0923 -1.92677 -0.242726 0
M  V30 385 C 34.2223 -3.47295 -0.0184607 0
M  V30 386 C 33.1763 -4.18536 0.895073 0
M  V30 387 C 32.5023 -5.34586 0.110592 0
M  V30 388 C 33.8023 -4.73287 2.209 0
M  V30 389 H 35.4963 -2.58372 1.51275 0
M  V30 390 H 33.0423 -1.24194 0.728818 0
M  V30 391 H 34.9953 -4.20268 -0.308675 0
M  V30 392 H 33.7193 -3.12933 -0.934907 0
M  V30 393 H 32.3783 -3.47446 1.16949 0
M  V30 394 H 32.0263 -4.96469 -0.807902 0
M  V30 395 H 31.7263 -5.83183 0.719087 0
M  V30 396 H 33.2503 -6.10355 -0.172871 0
M  V30 397 H 34.6643 -5.38013 1.98028 0
M  V30 398 H 33.0613 -5.32373 2.76946 0
M  V30 399 H 34.1313 -3.91331 2.86336 0
M  V30 400 N 35.4744 -0.807222 -1.35358 0
M  V30 401 C 36.7234 -0.384376 -1.98004 0
M  V30 402 C 37.0364 1.0543 -1.64754 0
M  V30 403 O 38.2424 1.58029 -2.20769 0
M  V30 404 C 36.6984 -0.636326 -3.5423 0
M  V30 405 C 36.3064 -2.08759 -3.96388 0
M  V30 406 C 38.0504 -0.278869 -4.23583 0
M  V30 407 C 35.9574 -2.28525 -5.45463 0
M  V30 408 H 34.8874 -0.139986 -0.740891 0
M  V30 409 H 37.5384 -0.991369 -1.54415 0
M  V30 410 H 35.9204 0.0406256 -3.95979 0
M  V30 411 H 37.0944 -2.8024 -3.6579 0
M  V30 412 H 35.4094 -2.40497 -3.39926 0
M  V30 413 H 38.0064 -0.404599 -5.33167 0
M  V30 414 H 38.3494 0.775012 -4.09022 0
M  V30 415 H 38.8824 -0.909764 -3.87257 0
M  V30 416 H 35.6214 -3.32361 -5.64992 0
M  V30 417 H 35.1414 -1.61569 -5.77629 0
M  V30 418 H 36.8204 -2.10109 -6.11934 0
M  V30 419 N 36.9525 1.47285 -0.560781 0
M  V30 420 C 37.8855 2.27009 0.232821 0
M  V30 421 C 38.8635 1.34273 0.917039 0
M  V30 422 O 40.0475 1.63659 0.935315 0
M  V30 423 C 37.1745 3.11406 1.33206 0
M  V30 424 C 36.2205 4.19746 0.756019 0
M  V30 425 S 37.0535 5.34003 -0.400165 0
M  V30 426 C 38.2095 6.21964 0.700805 0
M  V30 427 H 38.4425 2.93971 -0.443683 0
M  V30 428 H 35.9755 1.50446 -0.347181 0
M  V30 429 H 37.9335 3.60601 1.96156 0
M  V30 430 H 36.5945 2.438 1.98041 0
M  V30 431 H 35.7875 4.78541 1.5816 0
M  V30 432 H 35.3895 3.73451 0.202619 0
M  V30 433 H 37.6815 6.58529 1.59202 0
M  V30 434 H 38.6245 7.07941 0.150126 0
M  V30 435 H 39.0325 5.5566 0.995083 0
M  V30 436 N 38.4306 0.297415 1.54768 0
M  V30 437 C 39.3606 -0.573494 2.26348 0
M  V30 438 C 40.3416 -1.14085 1.26169 0
M  V30 439 O 41.5266 -1.17086 1.54934 0
M  V30 440 C 38.6566 -1.74716 3.00153 0
M  V30 441 C 37.6106 -1.31032 4.07449 0
M  V30 442 C 36.9366 -2.56887 4.68949 0
M  V30 443 C 38.2366 -0.444183 5.20408 0
M  V30 444 H 39.9306 0.0235131 2.99391 0
M  V30 445 H 37.4766 0.0127488 1.43994 0
M  V30 446 H 39.4296 -2.3625 3.48947 0
M  V30 447 H 38.1536 -2.37035 2.24682 0
M  V30 448 H 36.8126 -0.718066 3.59499 0
M  V30 449 H 36.4606 -3.17512 3.90122 0
M  V30 450 H 36.1606 -2.2836 5.41411 0
M  V30 451 H 37.6846 -3.19229 5.20505 0
M  V30 452 H 39.0986 -0.9651 5.65118 0
M  V30 453 H 37.4956 -0.252846 5.99567 0
M  V30 454 H 38.5656 0.531609 4.81977 0
M  V30 455 N 39.9087 -1.5758 0.0250728 0
M  V30 456 C 41.1547 -1.91917 -0.655413 0
M  V30 457 C 41.4877 -0.901433 -1.72011 0
M  V30 458 O 40.7627 0.0764069 -1.9435 0
M  V30 459 C 41.0457 -3.36751 -1.27558 0
M  V30 460 C 40.8987 -4.49258 -0.220719 0
M  V30 461 C 42.2177 -3.81469 -2.19475 0
M  V30 462 H 39.3367 -0.697925 -0.23679 0
M  V30 463 H 41.9787 -1.89825 0.0815036 0
M  V30 464 H 40.1287 -3.38664 -1.90365 0
M  V30 465 H 41.8007 -4.59478 0.409601 0
M  V30 466 H 40.0437 -4.31415 0.454264 0
M  V30 467 H 40.7147 -5.47618 -0.694175 0
M  V30 468 H 43.1907 -3.81266 -1.66659 0
M  V30 469 H 42.0667 -4.83512 -2.59822 0
M  V30 470 H 42.3277 -3.16744 -3.08424 0
M  V30 471 N 41.3868 0.248026 -1.55636 0
M  V30 472 C 42.3168 1.31079 -1.93237 0
M  V30 473 C 43.2978 1.50264 -0.797174 0
M  V30 474 O 44.4828 1.62891 -1.05737 0
M  V30 475 C 41.6128 2.66575 -2.22609 0
M  V30 476 C 40.5668 2.62087 -3.3837 0
M  V30 477 C 39.8928 4.01369 -3.53281 0
M  V30 478 C 41.1928 2.19171 -4.7409 0
M  V30 479 H 42.8868 0.998556 -2.82257 0
M  V30 480 H 40.4328 0.47891 -1.35803 0
M  V30 481 H 42.3858 3.41057 -2.47503 0
M  V30 482 H 41.1098 2.99432 -1.30414 0
M  V30 483 H 39.7688 1.90063 -3.13483 0
M  V30 484 H 39.4168 4.31489 -2.58508 0
M  V30 485 H 39.1168 3.99254 -4.31127 0
M  V30 486 H 40.6408 4.77552 -3.80495 0
M  V30 487 H 42.0548 2.83384 -4.98363 0
M  V30 488 H 40.4518 2.2817 -5.5503 0
M  V30 489 H 41.5218 1.14336 -4.71227 0
M  V30 490 N 42.8649 1.48995 0.513639 0
M  V30 491 C 44.1109 1.58076 1.27042 0
M  V30 492 C 44.4439 0.261026 1.92438 0
M  V30 493 O 43.7189 -0.734393 1.80103 0
M  V30 494 C 44.0019 2.73091 2.34719 0
M  V30 495 C 43.8549 4.14821 1.73907 0
M  V30 496 C 45.1739 2.83796 3.36375 0
M  V30 497 H 42.2929 0.575391 0.460536 0
M  V30 498 H 44.9349 1.81232 0.570516 0
M  V30 499 H 43.0849 2.53479 2.94416 0
M  V30 500 H 44.7569 4.45917 1.18135 0
M  V30 501 H 42.9999 4.21058 1.0437 0
M  V30 502 H 43.6709 4.91147 2.51949 0
M  V30 503 H 46.1469 3.01611 2.86653 0
M  V30 504 H 45.0229 3.65971 4.09093 0
M  V30 505 H 45.2839 1.92624 3.9793 0
M  V30 506 N 44.343 -0.763751 1.37857 0
M  V30 507 C 45.273 -1.89103 1.36975 0
M  V30 508 C 46.254 -1.68439 0.237152 0
M  V30 509 O 47.439 -1.8918 0.438713 0
M  V30 510 C 44.569 -3.26496 1.18395 0
M  V30 511 C 43.523 -3.61741 2.28751 0
M  V30 512 C 42.849 -4.97762 1.95286 0
M  V30 513 C 44.149 -3.67665 3.70972 0
M  V30 514 H 45.843 -1.90099 2.31307 0
M  V30 515 H 43.389 -0.91319 1.11341 0
M  V30 516 H 45.342 -4.05003 1.16406 0
M  V30 517 H 44.066 -3.25955 0.205215 0
M  V30 518 H 42.725 -2.85547 2.29909 0
M  V30 519 H 42.373 -4.93769 0.959221 0
M  V30 520 H 42.073 -5.22313 2.69189 0
M  V30 521 H 43.597 -5.7866 1.94898 0
M  V30 522 H 45.011 -4.36307 3.719 0
M  V30 523 H 43.408 -4.03718 4.43995 0
M  V30 524 H 44.478 -2.68134 4.0402 0
M  V30 525 N 45.8211 -1.22559 -0.990812 0
M  V30 526 C 47.0681 -1.05141 -1.73065 0
M  V30 527 C 47.3961 0.413191 -1.9006 0
M  V30 528 O 46.6511 1.32257 -1.44245 0
M  V30 529 C 46.9501 -1.71011 -3.13831 0
M  V30 530 C 46.6161 -3.20911 -3.16745 0
M  V30 531 C 45.2781 -3.61812 -3.17247 0
M  V30 532 C 47.6301 -4.16846 -3.12872 0
M  V30 533 C 44.9581 -4.97127 -3.1158 0
M  V30 534 C 47.3101 -5.5214 -3.08746 0
M  V30 535 C 45.9741 -5.92419 -3.07565 0
M  V30 536 H 45.2441 -0.384738 -0.633291 0
M  V30 537 H 47.8911 -1.5235 -1.16025 0
M  V30 538 H 46.1961 -1.16133 -3.74193 0
M  V30 539 H 47.8931 -1.55023 -3.69823 0
M  V30 540 H 44.4831 -2.88344 -3.17105 0
M  V30 541 H 48.6671 -3.86263 -3.11632 0
M  V30 542 H 43.9231 -5.27562 -3.09012 0
M  V30 543 H 48.0971 -6.26201 -3.04705 0
M  V30 544 H 45.7241 -6.97236 -3.02929 0
M  V30 545 N 47.2992 1.18797 -1.03562 0
M  V30 546 C 48.5472 1.88278 -0.734569 0
M  V30 547 C 48.8682 1.8043 0.739586 0
M  V30 548 O 48.1382 1.21925 1.53333 0
M  V30 549 H 46.7182 0.696991 -0.268725 0
M  V30 550 H 49.3802 1.44192 -1.31129 0
M  V30 551 H 48.4762 2.94443 -1.03489 0
M  V30 552 N 48.7773 0.814389 1.34928 0
M  V30 553 C 50.0073 0.41054 2.0248 0
M  V30 554 C 50.4153 -0.985625 1.61499 0
M  V30 555 O 49.7583 -1.64781 0.811976 0
M  V30 556 C 49.8203 0.423384 3.56998 0
M  V30 557 C 49.4843 1.77141 4.21272 0
M  V30 558 C 50.4813 2.73093 4.42398 0
M  V30 559 C 48.1663 2.05755 4.58225 0
M  V30 560 C 50.1603 3.95838 4.9959 0
M  V30 561 C 47.8473 3.28762 5.1513 0
M  V30 562 C 48.8453 4.23621 5.35755 0
M  V30 563 O 48.5333 5.44456 5.91458 0
M  V30 564 H 48.2653 0.163997 0.655806 0
M  V30 565 H 50.8193 1.10155 1.73364 0
M  V30 566 H 49.0493 -0.324276 3.85338 0
M  V30 567 H 50.7383 0.0407683 4.0588 0
M  V30 568 H 51.5043 2.5228 4.14222 0
M  V30 569 H 47.3833 1.32727 4.4148 0
M  V30 570 H 50.9273 4.69891 5.15605 0
M  V30 571 H 46.8243 3.49443 5.42734 0
M  V30 572 H 47.5923 5.4586 6.09901 0
M  V30 573 N 50.2554 -1.46986 0.568584 0
M  V30 574 C 51.5034 -2.02041 0.0487022 0
M  V30 575 C 51.8244 -1.44408 -1.31039 0
M  V30 576 O 51.0944 -0.623477 -1.85714 0
M  V30 577 H 49.6744 -0.746849 0.015014 0
M  V30 578 H 52.3364 -1.80257 0.741168 0
M  V30 579 H 51.4324 -3.12085 -0.0308961 0
M  V30 580 N 51.7335 -0.305618 -1.54608 0
M  V30 581 C 52.9795 0.302746 -2.00528 0
M  V30 582 C 53.3125 1.53184 -1.19367 0
M  V30 583 O 52.5875 1.92598 -0.271321 0
M  V30 584 C 52.8705 0.654756 -3.54097 0
M  V30 585 C 52.7235 -0.583793 -4.45995 0
M  V30 586 C 54.0425 1.47947 -4.14487 0
M  V30 587 H 51.1615 0.108564 -0.72896 0
M  V30 588 H 53.8035 -0.418634 -1.85331 0
M  V30 589 H 51.9535 1.26935 -3.67178 0
M  V30 590 H 53.6255 -1.22224 -4.44814 0
M  V30 591 H 51.8685 -1.21615 -4.16404 0
M  V30 592 H 52.5395 -0.293287 -5.5122 0
M  V30 593 H 55.0155 0.96013 -4.04871 0
M  V30 594 H 53.8915 1.69454 -5.22088 0
M  V30 595 H 54.1525 2.47011 -3.66658 0
M  V30 596 N 53.2116 1.57565 -0.0334293 0
M  V30 597 C 54.1416 2.13511 0.945265 0
M  V30 598 C 55.1226 1.05231 1.33643 0
M  V30 599 O 56.3076 1.33084 1.41429 0
M  V30 600 C 53.4376 2.6657 2.22616 0
M  V30 601 C 52.3916 3.79676 1.97561 0
M  V30 602 C 51.7176 4.1918 3.31952 0
M  V30 603 C 53.0176 5.0557 1.31135 0
M  V30 604 H 54.7116 2.95538 0.479325 0
M  V30 605 H 52.2576 1.42166 0.229115 0
M  V30 606 H 54.2106 3.04344 2.91466 0
M  V30 607 H 52.9346 1.8171 2.71384 0
M  V30 608 H 51.5936 3.42347 1.31127 0
M  V30 609 H 51.2416 3.31296 3.78487 0
M  V30 610 H 50.9416 4.95402 3.15992 0
M  V30 611 H 52.4656 4.59541 4.02063 0
M  V30 612 H 53.8796 5.40903 1.89992 0
M  V30 613 H 52.2766 5.86818 1.25559 0
M  V30 614 H 53.3466 4.84062 0.284894 0
M  V30 615 N 54.6897 -0.239769 1.55765 0
M  V30 616 C 55.9147 -0.988373 1.82335 0
M  V30 617 C 56.3397 -1.77886 0.611421 0
M  V30 618 O 55.6977 -1.75889 -0.439639 0
M  V30 619 C 55.7457 -1.89627 3.06715 0
M  V30 620 O 54.8497 -2.98904 2.84131 0
M  V30 621 H 54.1907 -0.280858 0.601677 0
M  V30 622 H 56.7207 -0.258597 2.02959 0
M  V30 623 H 56.7307 -2.30957 3.36338 0
M  V30 624 H 55.4057 -1.31511 3.9456 0
M  V30 625 H 53.9827 -2.61651 2.65694 0
M  V30 626 N 56.1678 -1.49265 -0.50573 0
M  V30 627 C 57.5788 -1.51769 -1.08734 0
M  V30 628 C 57.9298 -0.301192 -1.93874 0
M  V30 629 O 57.0548 0.589456 -2.08217 0
M  V30 630 C 57.6498 -2.75017 -1.97867 0
M  V30 631 C 56.2088 -2.80314 -2.51199 0
M  V30 632 C 55.3558 -2.4562 -1.28709 0
M  V30 633 H 58.3068 -1.56031 -0.289855 0
M  V30 634 H 58.3278 -2.5491 -2.82491 0
M  V30 635 H 57.8398 -3.63539 -1.35873 0
M  V30 636 H 55.9408 -1.96061 -3.16845 0
M  V30 637 H 56.0538 -3.82366 -2.88675 0
M  V30 638 H 54.4178 -1.97297 -1.61078 0
M  V30 639 H 55.2008 -3.36411 -0.6843 0
M  V30 640 N 57.6459 0.756429 -1.3826 0
M  V30 641 C 59.0619 1.0591 -1.19395 0
M  V30 642 C 59.2619 2.01459 -0.0406567 0
M  V30 643 O 58.3179 2.44909 0.614467 0
M  V30 644 C 59.6309 1.64191 -2.51916 0
M  V30 645 C 61.1789 1.76376 -2.58574 0
M  V30 646 C 61.6539 2.38069 -3.91264 0
M  V30 647 N 63.1449 2.45503 -3.92788 0
M  V30 648 C 63.8799 2.94126 -4.92217 0
M  V30 649 N 63.3759 3.42805 -6.02043 0
M  V30 650 N 65.1689 2.9314 -4.7961 0
M  V30 651 H 57.3199 0.122313 -2.12048 0
M  V30 652 H 59.5829 0.116892 -0.940766 0
M  V30 653 H 59.2889 1.01451 -3.3675 0
M  V30 654 H 59.1629 2.6329 -2.70108 0
M  V30 655 H 61.5499 2.38244 -1.74137 0
M  V30 656 H 61.6309 0.759894 -2.44252 0
M  V30 657 H 61.2749 1.76835 -4.76121 0
M  V30 658 H 61.2049 3.39091 -4.02895 0
M  V30 659 H 63.6959 2.1107 -3.13461 0
M  V30 660 H 64.0089 3.78354 -6.73846 0
M  V30 661 H 62.3539 3.4087 -6.05667 0
M  V30 662 H 65.5449 2.54419 -3.92923 0
M  V30 663 H 65.7179 3.30721 -5.5725 0
M  V30 664 N 59.124 1.23083 0.984299 0
M  V30 665 C 60.349 1.088 1.76571 0
M  V30 666 C 60.774 -0.356657 1.84688 0
M  V30 667 O 60.132 -1.25788 1.30565 0
M  V30 668 C 60.18 1.71371 3.17277 0
M  V30 669 O 59.284 0.973213 4.00752 0
M  V30 670 H 58.625 0.381599 0.543395 0
M  V30 671 H 61.155 1.63057 1.23587 0
M  V30 672 H 61.165 1.76449 3.67872 0
M  V30 673 H 59.84 2.76493 3.10684 0
M  V30 674 H 58.417 0.999078 3.59267 0
M  V30 675 N 60.6021 -1.18246 1.0419 0
M  V30 676 C 61.5321 -2.24127 0.654914 0
M  V30 677 C 62.5131 -1.66617 -0.342451 0
M  V30 678 O 63.6981 -1.92924 -0.222277 0
M  V30 679 C 60.8281 -3.47295 0.0183757 0
M  V30 680 C 59.7821 -4.17563 0.939414 0
M  V30 681 C 59.1081 -5.34438 0.167286 0
M  V30 682 C 60.4081 -4.70917 2.25908 0
M  V30 683 H 62.1021 -2.56753 1.54007 0
M  V30 684 H 59.6481 -1.23414 0.74195 0
M  V30 685 H 61.6011 -4.20572 -0.264082 0
M  V30 686 H 60.3251 -3.13907 -0.901664 0
M  V30 687 H 58.9841 -3.46186 1.20628 0
M  V30 688 H 58.6321 -4.97298 -0.7552 0
M  V30 689 H 58.3321 -5.82388 0.780901 0
M  V30 690 H 59.8561 -6.10504 -0.108125 0
M  V30 691 H 61.2701 -5.35882 2.03724 0
M  V30 692 H 59.6671 -5.29406 2.82577 0
M  V30 693 H 60.7371 -3.88272 2.9047 0
M  V30 694 N 62.0802 -0.821533 -1.34494 0
M  V30 695 C 63.0132 -0.187704 -2.27427 0
M  V30 696 C 63.9912 0.65507 -1.48821 0
M  V30 697 O 65.1752 0.619111 -1.78043 0
M  V30 698 C 62.3022 0.737996 -3.30562 0
M  V30 699 C 61.3482 -0.0270713 -4.26491 0
M  V30 700 S 62.1812 -1.37329 -5.17592 0
M  V30 701 C 63.3372 -0.452427 -6.24263 0
M  V30 702 H 63.5702 -0.975598 -2.80837 0
M  V30 703 H 61.1032 -0.61736 -1.4152 0
M  V30 704 H 63.0612 1.26654 -3.90473 0
M  V30 705 H 61.7222 1.4994 -2.76001 0
M  V30 706 H 60.9152 0.6766 -4.99438 0
M  V30 707 H 60.5172 -0.48612 -3.70827 0
M  V30 708 H 62.8092 0.356557 -6.76561 0
M  V30 709 H 63.7522 -1.15153 -6.98674 0
M  V30 710 H 64.1602 -0.0414755 -5.64485 0
M  V30 711 N 63.5583 1.46682 -0.576371 0
M  V30 712 C 64.9693 1.86112 -0.148091 0
M  V30 713 C 65.3203 1.48073 1.2872 0
M  V30 714 O 64.4453 0.892656 1.97131 0
M  V30 715 C 65.0403 3.37786 -0.261982 0
M  V30 716 C 63.5993 3.76235 0.111384 0
M  V30 717 C 62.7463 2.70713 -0.60083 0
M  V30 718 H 65.6973 1.37927 -0.78497 0
M  V30 719 H 65.7183 3.77007 0.514364 0
M  V30 720 H 65.2303 3.6544 -1.30671 0
M  V30 721 H 63.3313 3.54198 1.15649 0
M  V30 722 H 63.4443 4.78391 -0.26052 0
M  V30 723 H 61.8083 2.54666 -0.0417783 0
M  V30 724 H 62.5913 3.01208 -1.64708 0
M  V30 725 N 65.0364 0.313813 1.54444 0
M  V30 726 C 66.2844 -0.291099 1.99993 0
M  V30 727 C 66.6054 -1.53418 1.20366 0
M  V30 728 O 65.8754 -1.93544 0.302927 0
M  V30 729 H 64.4554 -0.110552 0.738774 0
M  V30 730 H 67.1174 0.428106 1.9014 0
M  V30 731 H 66.2134 -0.554268 3.07139 0
M  V30 732 N 66.5145 -1.57545 0.0417849 0
M  V30 733 C 67.7395 -1.97035 -0.647455 0
M  V30 734 C 68.1645 -0.918775 -1.64135 0
M  V30 735 O 67.5225 0.119006 -1.80909 0
M  V30 736 C 67.5705 -3.35609 -1.31905 0
M  V30 737 O 66.6745 -3.3287 -2.43457 0
M  V30 738 H 66.0155 -0.64211 -0.169086 0
M  V30 739 H 68.5455 -2.04318 0.107399 0
M  V30 740 H 68.5555 -3.72126 -1.67291 0
M  V30 741 H 67.2305 -4.11685 -0.590586 0
M  V30 742 H 65.8075 -3.08087 -2.10088 0
M  V30 743 N 67.9926 0.231505 -1.5589 0
M  V30 744 C 68.9226 1.29022 -1.94617 0
M  V30 745 C 69.9036 1.4941 -0.813067 0
M  V30 746 O 71.0886 1.6176 -1.07459 0
M  V30 747 C 68.2186 2.64199 -2.25424 0
M  V30 748 C 67.1726 2.58484 -3.41131 0
M  V30 749 C 66.4986 3.97599 -3.57518 0
M  V30 750 C 67.7986 2.1413 -4.76388 0
M  V30 751 H 69.4926 0.968563 -2.83301 0
M  V30 752 H 67.0386 0.464479 -1.36303 0
M  V30 753 H 68.9916 3.38413 -2.51107 0
M  V30 754 H 67.7156 2.98032 -1.33583 0
M  V30 755 H 66.3746 1.86727 -3.15481 0
M  V30 756 H 66.0226 4.28723 -2.6307 0
M  V30 757 H 65.7226 3.94659 -4.35337 0
M  V30 758 H 67.2466 4.7349 -3.85538 0
M  V30 759 H 68.6606 2.78083 -5.01341 0
M  V30 760 H 67.0576 2.2227 -5.57419 0
M  V30 761 H 68.1276 1.09331 -4.72414 0
M  V30 762 N 69.4707 1.49531 0.497807 0
M  V30 763 C 70.3807 1.69176 1.62532 0
M  V30 764 C 71.3967 0.5744 1.64246 0
M  V30 765 O 72.5727 0.849497 1.82608 0
M  V30 766 C 69.6377 1.75695 2.98885 0
M  V30 767 C 68.6987 2.9929 3.07773 0
M  V30 768 C 67.9317 3.05488 4.37622 0
M  V30 769 O 68.1547 2.19192 5.26603 0
M  V30 770 O 67.0887 3.9798 4.51548 0
M  V30 771 H 70.9147 2.647 1.48887 0
M  V30 772 H 68.4997 1.3331 0.674441 0
M  V30 773 H 70.3817 1.82317 3.79919 0
M  V30 774 H 69.0567 0.8335 3.12785 0
M  V30 775 H 67.9637 2.98183 2.25915 0
M  V30 776 H 69.2967 3.91125 2.98801 0
M  V30 777 N 70.9488 -0.749086 1.3866 0
M  V30 778 C 72.3648 -1.05276 1.19955 0
M  V30 779 C 72.5648 -2.01435 0.05134 0
M  V30 780 O 71.6208 -2.45232 -0.60147 0
M  V30 781 C 72.9338 -1.62853 2.52783 0
M  V30 782 C 74.4818 -1.75002 2.59506 0
M  V30 783 C 74.9568 -2.35991 3.92521 0
M  V30 784 N 76.4478 -2.43416 3.94085 0
M  V30 785 C 77.1828 -2.91511 4.9377 0
M  V30 786 N 76.6788 -3.39608 6.03853 0
M  V30 787 N 78.4718 -2.90592 4.81157 0
M  V30 788 H 70.6228 -0.111066 2.12109 0
M  V30 789 H 72.8858 -0.111901 0.941373 0
M  V30 790 H 72.5918 -0.99664 3.37283 0
M  V30 791 H 72.4658 -2.61854 2.715 0
M  V30 792 H 74.8528 -2.37317 1.75398 0
M  V30 793 H 74.9338 -0.74693 2.44652 0
M  V30 794 H 74.5778 -1.74308 4.77053 0
M  V30 795 H 74.5078 -3.3695 4.04688 0
M  V30 796 H 76.9988 -2.09405 3.14576 0
M  V30 797 H 77.3118 -3.74775 6.75843 0
M  V30 798 H 75.6568 -3.37653 6.07466 0
M  V30 799 H 78.8478 -2.52332 3.94267 0
M  V30 800 H 79.0208 -3.27762 5.58996 0
M  V30 801 N 72.4269 -1.23603 -0.977757 0
M  V30 802 C 73.6749 -1.06759 -1.71601 0
M  V30 803 C 73.9959 0.395929 -1.90938 0
M  V30 804 O 73.2659 1.28356 -1.47992 0
M  V30 805 H 71.8459 -0.392062 -0.635843 0
M  V30 806 H 74.5079 -1.55362 -1.1768 0
M  V30 807 H 73.6039 -1.55763 -2.70452 0
M  V30 808 N 73.905 1.17692 -1.04816 0
M  V30 809 C 75.152 1.87859 -0.75599 0
M  V30 810 C 75.48 1.80812 0.716752 0
M  V30 811 O 74.735 1.20819 1.53952 0
M  V30 812 C 75.034 3.37462 -1.17703 0
M  V30 813 C 74.7 3.64713 -2.65133 0
M  V30 814 C 73.362 3.71859 -3.05408 0
M  V30 815 C 75.714 3.76492 -3.60421 0
M  V30 816 C 73.042 3.88271 -4.39843 0
M  V30 817 C 75.394 3.94421 -4.94585 0
M  V30 818 C 74.058 3.99806 -5.3452 0
M  V30 819 H 73.328 0.687425 -0.276636 0
M  V30 820 H 75.975 1.39255 -1.31455 0
M  V30 821 H 74.28 3.88097 -0.537395 0
M  V30 822 H 75.977 3.90109 -0.928218 0
M  V30 823 H 72.567 3.59772 -2.32942 0
M  V30 824 H 76.751 3.70295 -3.30447 0
M  V30 825 H 72.007 3.90687 -4.70291 0
M  V30 826 H 76.181 4.02477 -5.68318 0
M  V30 827 H 73.808 4.12276 -6.38696 0
M  V30 828 N 75.3831 0.828654 1.34056 0
M  V30 829 C 76.6231 0.425394 1.99924 0
M  V30 830 C 76.9871 -0.994294 1.64249 0
M  V30 831 O 78.1881 -1.50074 2.23005 0
M  V30 832 C 76.4591 0.628071 3.51838 0
M  V30 833 S 78.0181 0.318511 4.37642 0
M  V30 834 H 74.8361 0.160465 0.692656 0
M  V30 835 H 77.4381 1.07572 1.63244 0
M  V30 836 H 76.1421 1.66089 3.7529 0
M  V30 837 H 75.6731 -0.0367799 3.93383 0
M  V30 838 H 77.6881 -0.865632 4.88591 0
M  V30 839 N 76.8612 -1.46375 0.584142 0
M  V30 840 C 77.7942 -2.27351 -0.196676 0
M  V30 841 C 78.7722 -1.35715 -0.895561 0
M  V30 842 O 79.9562 -1.65126 -0.90916 0
M  V30 843 C 77.0832 -3.13486 -1.28235 0
M  V30 844 C 76.1292 -4.20896 -0.689145 0
M  V30 845 S 76.9622 -5.33299 0.48507 0
M  V30 846 C 78.1182 -6.23 -0.601767 0
M  V30 847 H 78.3512 -2.93228 0.490395 0
M  V30 848 H 75.8842 -1.49875 0.371071 0
M  V30 849 H 77.8422 -3.63676 -1.90395 0
M  V30 850 H 76.5032 -2.4692 -1.94138 0
M  V30 851 H 75.6962 -4.80997 -1.50527 0
M  V30 852 H 75.2982 -3.73726 -0.143181 0
M  V30 853 H 77.5902 -6.60979 -1.48705 0
M  V30 854 H 78.5332 -7.0809 -0.0374799 0
M  V30 855 H 78.9412 -5.57173 -0.906557 0
M  V30 856 N 78.3393 -0.321999 -1.54275 0
M  V30 857 C 79.3023 0.531975 -2.22941 0
M  V30 858 C 80.3023 1.04478 -1.22234 0
M  V30 859 O 81.4923 0.937452 -1.46825 0
M  V30 860 C 78.6243 1.73874 -2.93224 0
M  V30 861 H 79.8173 -0.0682612 -2.99822 0
M  V30 862 H 77.3703 -0.0730644 -1.56129 0
M  V30 863 H 78.1053 2.37825 -2.20476 0
M  V30 864 H 77.8903 1.37847 -3.6707 0
M  V30 865 H 79.3803 2.34496 -3.45545 0
M  V30 866 N 79.8174 1.5752 -0.0501392 0
M  V30 867 C 81.0634 1.92936 0.624798 0
M  V30 868 C 81.3964 0.928685 1.70555 0
M  V30 869 O 80.6714 -0.0454779 1.94447 0
M  V30 870 C 80.9544 3.38737 1.22185 0
M  V30 871 C 80.8074 4.49552 0.149218 0
M  V30 872 C 82.1264 3.84913 2.13378 0
M  V30 873 H 79.2454 0.701604 0.225657 0
M  V30 874 H 81.8874 1.89671 -0.111693 0
M  V30 875 H 80.0374 3.4165 1.84953 0
M  V30 876 H 81.7094 4.58768 -0.482648 0
M  V30 877 H 79.9524 4.30638 -0.522841 0
M  V30 878 H 80.6234 5.48653 0.606966 0
M  V30 879 H 83.0994 3.8387 1.60572 0
M  V30 880 H 81.9754 4.87584 2.52097 0
M  V30 881 H 82.2364 3.21611 3.03346 0
M  V30 882 N 81.2955 -0.223234 1.56011 0
M  V30 883 C 82.7115 -0.572856 1.48965 0
M  V30 884 C 82.9115 -1.87225 0.74492 0
M  V30 885 O 81.9675 -2.50899 0.283896 0
M  V30 886 C 83.2805 -0.653646 2.9351 0
M  V30 887 C 84.8285 -0.744386 3.0402 0
M  V30 888 C 85.3035 -0.856535 4.49919 0
M  V30 889 N 86.7945 -0.9208 4.53955 0
M  V30 890 C 87.5295 -1.02726 5.64123 0
M  V30 891 N 87.0255 -1.09777 6.84047 0
M  V30 892 N 88.8185 -1.06226 5.51971 0
M  V30 893 H 80.9695 0.629462 2.02858 0
M  V30 894 H 83.2325 0.220621 0.921971 0
M  V30 895 H 82.9385 0.231518 3.50937 0
M  V30 896 H 82.8125 -1.51781 3.45315 0
M  V30 897 H 85.1995 -1.61999 2.46658 0
M  V30 898 H 85.2805 0.14541 2.55386 0
M  V30 899 H 84.9245 0.0146069 5.07898 0
M  V30 900 H 84.8545 -1.76172 4.96257 0
M  V30 901 H 87.3455 -0.876694 3.6759 0
M  V30 902 H 87.6585 -1.17872 7.63758 0
M  V30 903 H 86.0035 -1.06693 6.86762 0
M  V30 904 H 89.1945 -1.00382 4.5721 0
M  V30 905 H 89.3675 -1.14177 6.37862 0
M  V30 906 N 82.7736 -1.49793 -0.48987 0
M  V30 907 C 83.6836 -1.70036 -1.61632 0
M  V30 908 C 84.6996 -0.583102 -1.63939 0
M  V30 909 O 85.8756 -0.859169 -1.82154 0
M  V30 910 C 82.9406 -1.77277 -2.97949 0
M  V30 911 C 82.0016 -3.00918 -3.06181 0
M  V30 912 C 81.2346 -3.07804 -4.35996 0
M  V30 913 O 81.4576 -2.21982 -5.25433 0
M  V30 914 O 80.3916 -4.00369 -4.49431 0
M  V30 915 H 84.2176 -2.65486 -1.47482 0
M  V30 916 H 81.8026 -1.33666 -0.667362 0
M  V30 917 H 83.6846 -1.84329 -3.78947 0
M  V30 918 H 82.3596 -0.850076 -3.12339 0
M  V30 919 H 81.2666 -2.99377 -2.2433 0
M  V30 920 H 82.5996 -3.92704 -2.96723 0
M  V30 921 N 84.2517 0.741722 -1.39055 0
M  V30 922 C 85.6627 1.31966 -1.32068 0
M  V30 923 C 86.0137 1.96192 0.0180797 0
M  V30 924 O 85.1387 1.95861 0.920196 0
M  V30 925 C 85.7337 2.39954 -2.39181 0
M  V30 926 C 84.2927 2.93438 -2.35735 0
M  V30 927 C 83.4397 1.66936 -2.21422 0
M  V30 928 H 86.3907 0.539721 -1.4924 0
M  V30 929 H 86.4117 3.20182 -2.05581 0
M  V30 930 H 85.9237 1.9318 -3.36605 0
M  V30 931 H 84.0247 3.4451 -1.41929 0
M  V30 932 H 84.1377 3.4701 -3.30335 0
M  V30 933 H 82.5017 1.91016 -1.68478 0
M  V30 934 H 83.2847 1.22224 -3.20806 0
M  V30 935 N 85.7298 1.2412 0.971189 0
M  V30 936 C 87.0068 0.986867 1.6888 0
M  V30 937 C 87.3868 -0.491857 2.0529 0
M  V30 938 O 86.7348 -1.46531 1.75331 0
M  V30 939 C 86.9448 1.9063 2.92338 0
M  V30 940 C 88.2928 2.17515 3.64654 0
M  V30 941 O 89.3168 1.88254 3.02388 0
M  V30 942 O 88.1758 2.6719 4.7673 0
M  V30 943 H 85.2698 0.372944 0.738134 0
M  V30 944 H 87.8158 1.35203 1.02559 0
M  V30 945 H 86.5878 2.90552 2.62097 0
M  V30 946 H 86.2108 1.54408 3.66393 0
M  V30 947 N 87.2079 -1.17134 1.05439 0
M  V30 948 C 88.1579 -2.1919 0.627675 0
M  V30 949 C 89.1419 -1.57328 -0.337147 0
M  V30 950 O 90.3339 -1.76329 -0.153976 0
M  V30 951 C 87.4629 -3.43299 0.00651435 0
M  V30 952 C 86.5489 -4.12255 0.995312 0
M  V30 953 N 86.9399 -4.56997 2.16765 0
M  V30 954 C 85.2379 -4.38316 0.824336 0
M  V30 955 C 85.9389 -5.10239 2.7934 0
M  V30 956 N 84.9149 -5.02595 2.07122 0
M  V30 957 H 88.7169 -2.5149 1.52086 0
M  V30 958 H 86.2309 -1.33491 0.924868 0
M  V30 959 H 88.2279 -4.15693 -0.316965 0
M  V30 960 H 86.8879 -3.1249 -0.882033 0
M  V30 961 H 87.8989 -4.51006 2.54587 0
M  V30 962 H 84.5759 -4.17498 -0.0129526 0
M  V30 963 H 85.9659 -5.54961 3.78772 0
M  V30 964 N 88.686 -0.835752 -1.33615 0
M  V30 965 C 89.616 -0.281739 -2.31794 0
M  V30 966 C 90.597 0.608833 -1.58831 0
M  V30 967 O 91.782 0.533035 -1.86741 0
M  V30 968 C 88.912 0.546612 -3.42971 0
M  V30 969 C 87.866 -0.247904 -4.27281 0
M  V30 970 C 87.192 0.704001 -5.30045 0
M  V30 971 C 88.492 -1.46324 -5.01385 0
M  V30 972 H 90.186 -1.10206 -2.78379 0
M  V30 973 H 87.732 -0.531388 -1.33837 0
M  V30 974 H 89.685 0.944467 -4.1068 0
M  V30 975 H 88.409 1.40011 -2.95067 0
M  V30 976 H 87.068 -0.627281 -3.61194 0
M  V30 977 H 86.716 1.55381 -4.78399 0
M  V30 978 H 86.416 0.176524 -5.87335 0
M  V30 979 H 87.94 1.09944 -6.0062 0
M  V30 980 H 89.354 -1.13871 -5.61877 0
M  V30 981 H 87.751 -1.92728 -5.6831 0
M  V30 982 H 88.821 -2.23467 -4.30338 0
M  V30 983 N 90.1641 1.46063 -0.591896 0
M  V30 984 C 91.0961 2.28539 0.174001 0
M  V30 985 C 92.1091 1.39047 0.846753 0
M  V30 986 O 93.2981 1.63564 0.714774 0
M  V30 987 C 90.3981 3.14347 1.26645 0
M  V30 988 C 89.5711 4.32021 0.683856 0
M  V30 989 C 88.6301 4.99157 1.66518 0
M  V30 990 O 87.6561 5.56458 1.19763 0
M  V30 991 N 88.8581 4.97005 2.99943 0
M  V30 992 H 91.6231 2.94911 -0.533633 0
M  V30 993 H 89.1841 1.56077 -0.430294 0
M  V30 994 H 91.1761 3.56125 1.92242 0
M  V30 995 H 89.7461 2.49988 1.87682 0
M  V30 996 H 88.9661 3.93915 -0.1498 0
M  V30 997 H 90.2541 5.08059 0.274567 0
M  V30 998 H 89.6521 4.51714 3.40545 0
M  V30 999 H 88.2091 5.42696 3.61004 0
M  V30 1000 N 91.6422 0.330177 1.54103 0
M  V30 1001 C 93.0582 -0.0222371 1.59585 0
M  V30 1002 C 93.2582 -1.49902 1.34654 0
M  V30 1003 O 92.3142 -2.25592 1.13421 0
M  V30 1004 C 93.6272 0.401932 2.98002 0
M  V30 1005 C 95.1752 0.353145 3.11001 0
M  V30 1006 C 95.6502 0.752576 4.51775 0
M  V30 1007 N 97.1412 0.706239 4.57784 0
M  V30 1008 C 97.8762 0.987417 5.64834 0
M  V30 1009 N 97.3722 1.33607 6.79795 0
M  V30 1010 N 99.1652 0.91254 5.54643 0
M  V30 1011 H 91.3162 1.29228 1.68564 0
M  V30 1012 H 93.5792 0.525906 0.78875 0
M  V30 1013 H 93.2852 1.4311 3.21267 0
M  V30 1014 H 93.1592 -0.229699 3.765 0
M  V30 1015 H 95.5462 -0.666822 2.87467 0
M  V30 1016 H 95.6272 1.0198 2.34593 0
M  V30 1017 H 95.2712 1.77049 4.76042 0
M  V30 1018 H 95.2012 0.0635409 5.26562 0
M  V30 1019 H 97.6922 0.44889 3.75224 0
M  V30 1020 H 98.0052 1.53582 7.57385 0
M  V30 1021 H 96.3502 1.37439 6.81275 0
M  V30 1022 H 99.5412 0.639601 4.6371 0
M  V30 1023 H 99.7142 1.13503 6.37982 0
M  V30 1024 N 93.1203 -1.57491 0.0584922 0
M  V30 1025 C 94.3663 -1.93264 -0.614558 0
M  V30 1026 C 94.6993 -0.937717 -1.7006 0
M  V30 1027 O 93.9743 0.0351652 -1.94468 0
M  V30 1028 C 94.2573 -3.3938 -1.20386 0
M  V30 1029 C 94.1103 -4.49625 -0.125375 0
M  V30 1030 C 95.4293 -3.86039 -2.11334 0
M  V30 1031 H 92.5483 -0.702791 -0.221933 0
M  V30 1032 H 95.1903 -1.8961 0.12175 0
M  V30 1033 H 93.3403 -3.42626 -1.83139 0
M  V30 1034 H 95.0123 -4.58506 0.506971 0
M  V30 1035 H 93.2553 -4.30354 0.545672 0
M  V30 1036 H 93.9263 -5.48967 -0.577861 0
M  V30 1037 H 96.4023 -3.84716 -1.58534 0
M  V30 1038 H 95.2783 -4.88914 -2.49507 0
M  V30 1039 H 95.5393 -3.23215 -3.01636 0
M  V30 1040 N 94.5984 0.214957 -1.56127 0
M  V30 1041 C 95.8234 0.95924 -1.83884 0
M  V30 1042 C 96.2484 1.7689 -0.639644 0
M  V30 1043 O 95.6064 1.76566 0.411601 0
M  V30 1044 C 95.6544 1.84723 -3.09693 0
M  V30 1045 O 94.7584 2.94346 -2.8885 0
M  V30 1046 H 94.0994 0.27125 -0.606069 0
M  V30 1047 H 96.6294 0.226276 -2.03345 0
M  V30 1048 H 96.6394 2.25576 -3.39969 0
M  V30 1049 H 95.3144 1.25218 -3.96602 0
M  V30 1050 H 93.8914 2.57391 -2.69823 0
M  V30 1051 N 96.0765 1.50051 0.48192 0
M  V30 1052 C 97.0065 1.71046 1.58951 0
M  V30 1053 C 97.9875 0.559288 1.60642 0
M  V30 1054 O 99.1725 0.797243 1.77081 0
M  V30 1055 C 96.3025 1.79462 2.97339 0
M  V30 1056 C 95.2565 2.94558 3.10515 0
M  V30 1057 C 94.5825 2.88105 4.50444 0
M  V30 1058 C 95.8825 4.35227 2.88747 0
M  V30 1059 H 97.5765 2.6378 1.41635 0
M  V30 1060 H 95.1225 1.26936 0.679942 0
M  V30 1061 H 97.0755 1.92734 3.74742 0
M  V30 1062 H 95.7995 0.833412 3.15788 0
M  V30 1063 H 94.4585 2.80918 2.35543 0
M  V30 1064 H 94.1065 1.89853 4.65795 0
M  V30 1065 H 93.8065 3.65366 4.60197 0
M  V30 1066 H 95.3305 3.03412 5.29881 0
M  V30 1067 H 96.7445 4.49449 3.55905 0
M  V30 1068 H 95.1415 5.13856 3.09955 0
M  V30 1069 H 96.2115 4.48347 1.84696 0
M  V30 1070 N 97.5546 -0.734337 1.39446 0
M  V30 1071 C 98.9656 -1.31264 1.32766 0
M  V30 1072 C 99.3166 -1.96198 -0.00767497 0
M  V30 1073 O 98.4416 -1.96346 -0.909796 0
M  V30 1074 C 99.0366 -2.38682 2.4045 0
M  V30 1075 C 97.5956 -2.92184 2.37288 0
M  V30 1076 C 96.7426 -1.6576 2.22304 0
M  V30 1077 H 99.6936 -0.531799 1.49525 0
M  V30 1078 H 99.7146 -3.19087 2.07276 0
M  V30 1079 H 99.2266 -1.91392 3.37625 0
M  V30 1080 H 97.3276 -3.43752 1.43754 0
M  V30 1081 H 97.4406 -3.45253 3.3217 0
M  V30 1082 H 95.8046 -1.9012 1.69489 0
M  V30 1083 H 96.5876 -1.20521 3.21449 0
M  V30 1084 N 99.0327 -1.24633 -0.964593 0
M  V30 1085 C 100.449 -1.01239 -1.2338 0
M  V30 1086 C 100.649 0.2769 -1.99588 0
M  V30 1087 O 99.7047 0.992241 -2.32187 0
M  V30 1088 C 101.018 -2.22937 -2.01791 0
M  V30 1089 C 102.566 -2.27594 -2.14872 0
M  V30 1090 C 103.041 -3.48921 -2.96678 0
M  V30 1091 N 104.532 -3.49257 -3.04259 0
M  V30 1092 C 105.267 -4.39795 -3.67924 0
M  V30 1093 N 104.763 -5.40591 -4.33281 0
M  V30 1094 N 106.556 -4.275 -3.64966 0
M  V30 1095 H 98.7067 -2.0748 -0.454502 0
M  V30 1096 H 100.97 -0.910647 -0.26349 0
M  V30 1097 H 100.676 -3.16587 -1.53184 0
M  V30 1098 H 100.55 -2.25306 -3.02518 0
M  V30 1099 H 102.937 -1.34473 -2.6268 0
M  V30 1100 H 103.018 -2.2925 -1.13482 0
M  V30 1101 H 102.662 -4.42359 -2.49562 0
M  V30 1102 H 102.592 -3.4451 -3.98272 0
M  V30 1103 H 105.083 -2.76337 -2.57771 0
M  V30 1104 H 105.396 -6.05904 -4.79687 0
M  V30 1105 H 103.741 -5.44475 -4.3194 0
M  V30 1106 H 106.932 -3.47987 -3.13086 0
M  V30 1107 H 107.105 -4.98258 -4.14298 0
M  V30 1108 N 100.511 1.16574 -1.06058 0
M  V30 1109 C 101.444 2.19798 -0.61352 0
M  V30 1110 C 102.422 1.58509 0.362453 0
M  V30 1111 O 103.606 1.86527 0.271994 0
M  V30 1112 C 100.733 3.3855 0.100915 0
M  V30 1113 C 99.7788 4.18317 -0.831438 0
M  V30 1114 S 100.612 4.82375 -2.32539 0
M  V30 1115 C 101.768 6.04508 -1.62238 0
M  V30 1116 H 102.001 2.5738 -1.48805 0
M  V30 1117 H 99.5338 1.27327 -0.873338 0
M  V30 1118 H 101.492 4.07358 0.506898 0
M  V30 1119 H 100.153 2.99338 0.951604 0
M  V30 1120 H 99.3458 5.03232 -0.278071 0
M  V30 1121 H 98.9478 3.5499 -1.17719 0
M  V30 1122 H 101.24 6.71133 -0.926622 0
M  V30 1123 H 102.183 6.64389 -2.44934 0
M  V30 1124 H 102.591 5.53559 -1.106 0
M  V30 1125 N 101.989 0.842826 1.3317 0
M  V30 1126 C 103.235 0.441099 1.97945 0
M  V30 1127 C 103.568 -0.998024 1.66593 0
M  V30 1128 O 102.843 -1.69839 0.947898 0
M  V30 1129 C 103.126 0.666841 3.53872 0
M  V30 1130 C 102.979 2.15352 3.94897 0
M  V30 1131 C 104.298 0.115544 4.39948 0
M  V30 1132 H 101.417 0.161739 0.719034 0
M  V30 1133 H 104.059 1.05907 1.57746 0
M  V30 1134 H 102.209 0.140828 3.88245 0
M  V30 1135 H 103.881 2.7447 3.70761 0
M  V30 1136 H 102.124 2.63653 3.44484 0
M  V30 1137 H 102.795 2.26221 5.03516 0
M  V30 1138 H 105.271 0.565213 4.12243 0
M  V30 1139 H 104.147 0.303152 5.48062 0
M  V30 1140 H 104.408 -0.980935 4.3108 0
M  V30 1141 N 103.467 -1.45747 0.599634 0
M  V30 1142 C 104.697 -2.06369 0.0977132 0
M  V30 1143 C 105.105 -1.44624 -1.21985 0
M  V30 1144 O 104.448 -0.551831 -1.75216 0
M  V30 1145 C 104.51 -3.59284 -0.124673 0
M  V30 1146 C 104.174 -4.43318 1.10987 0
M  V30 1147 C 105.171 -4.78796 2.02609 0
M  V30 1148 C 102.856 -4.84194 1.33647 0
M  V30 1149 C 104.85 -5.53997 3.15224 0
M  V30 1150 C 102.537 -5.5915 2.46565 0
M  V30 1151 C 103.535 -5.93968 3.37182 0
M  V30 1152 O 103.223 -6.67405 4.48136 0
M  V30 1153 H 102.955 -0.673122 0.0623153 0
M  V30 1154 H 105.509 -1.88104 0.824981 0
M  V30 1155 H 103.739 -3.75919 -0.906745 0
M  V30 1156 H 105.428 -4.01775 -0.577201 0
M  V30 1157 H 106.194 -4.47781 1.86325 0
M  V30 1158 H 102.073 -4.56534 0.64016 0
M  V30 1159 H 105.617 -5.81091 3.85978 0
M  V30 1160 H 101.514 -5.89579 2.62805 0
M  V30 1161 H 102.282 -6.85847 4.46717 0
M  V30 1162 N 104.945 -0.338344 -1.53925 0
M  V30 1163 C 106.356 0.146651 -1.86123 0
M  V30 1164 C 106.707 1.5042 -1.2597 0
M  V30 1165 O 105.832 2.08723 -0.571294 0
M  V30 1166 C 106.427 0.272879 -3.37699 0
M  V30 1167 C 104.986 0.702103 -3.69794 0
M  V30 1168 C 104.133 -0.167304 -2.76795 0
M  V30 1169 H 107.084 -0.558123 -1.48562 0
M  V30 1170 H 107.105 1.10128 -3.64214 0
M  V30 1171 H 106.617 -0.715307 -3.81451 0
M  V30 1172 H 104.718 1.6995 -3.31584 0
M  V30 1173 H 104.831 0.495604 -4.7653 0
M  V30 1174 H 103.195 0.359527 -2.5215 0
M  V30 1175 H 103.978 -1.15253 -3.23375 0
M  V30 1176 N 106.423 1.57458 -0.0668435 0
M  V30 1177 C 107.355 2.09413 0.931601 0
M  V30 1178 C 108.368 1.02522 1.26464 0
M  V30 1179 O 109.557 1.30049 1.22269 0
M  V30 1180 C 106.657 2.53537 2.24882 0
M  V30 1181 C 105.83 3.83944 2.09537 0
M  V30 1182 C 104.889 4.14214 3.2452 0
M  V30 1183 O 103.915 4.83891 2.9973 0
M  V30 1184 N 105.117 3.67367 4.49469 0
M  V30 1185 H 107.882 2.95699 0.488048 0
M  V30 1186 H 105.443 1.61462 0.119009 0
M  V30 1187 H 107.435 2.70853 3.00701 0
M  V30 1188 H 106.005 1.72415 2.60753 0
M  V30 1189 H 105.225 3.76057 1.18215 0
M  V30 1190 H 106.513 4.69312 1.96529 0
M  V30 1191 H 105.911 3.11068 4.72497 0
M  V30 1192 H 104.468 3.89891 5.2233 0
M  V30 1193 N 107.901 -0.206675 1.56239 0
M  V30 1194 C 109.312 -0.772383 1.69974 0
M  V30 1195 C 109.663 -1.84353 0.671436 0
M  V30 1196 O 108.788 -2.15695 -0.174491 0
M  V30 1197 C 109.383 -1.40779 3.08167 0
M  V30 1198 C 107.942 -1.92072 3.23706 0
M  V30 1199 C 107.089 -0.786347 2.65917 0
M  V30 1200 H 110.04 0.0182223 1.5869 0
M  V30 1201 H 110.061 -2.27696 3.04852 0
M  V30 1202 H 109.573 -0.627958 3.82986 0
M  V30 1203 H 107.674 -2.7281 2.53782 0
M  V30 1204 H 107.787 -2.09046 4.31087 0
M  V30 1205 H 106.151 -1.1976 2.24788 0
M  V30 1206 H 106.934 -0.0189416 3.43295 0
M  V30 1207 N 109.379 -1.50304 -0.473955 0
M  V30 1208 C 110.326 -1.68959 -1.57231 0
M  V30 1209 C 111.296 -0.530899 -1.57387 0
M  V30 1210 O 112.481 -0.761133 -1.74961 0
M  V30 1211 C 109.621 -1.7871 -2.95223 0
M  V30 1212 C 108.734 -3.06061 -3.04878 0
M  V30 1213 C 107.869 -3.06626 -4.33767 0
M  V30 1214 C 106.908 -4.28443 -4.37154 0
M  V30 1215 N 106.045 -4.26763 -5.5751 0
M  V30 1216 H 110.885 -2.6273 -1.40631 0
M  V30 1217 H 108.422 -1.30241 -0.683789 0
M  V30 1218 H 110.38 -1.82344 -3.75242 0
M  V30 1219 H 109.01 -0.883806 -3.10465 0
M  V30 1220 H 108.062 -3.11911 -2.17751 0
M  V30 1221 H 109.374 -3.96039 -3.0324 0
M  V30 1222 H 108.528 -3.08973 -5.22131 0
M  V30 1223 H 107.267 -2.14473 -4.3801 0
M  V30 1224 H 106.272 -4.2631 -3.47188 0
M  V30 1225 H 107.497 -5.2182 -4.34605 0
M  V30 1226 H 105.443 -3.37462 -5.62544 0
M  V30 1227 H 105.36 -5.10507 -5.57601 0
M  V30 1228 H 106.628 -4.33253 -6.48006 0
M  V30 1229 N 110.857 0.726932 -1.39834 0
M  V30 1230 C 112.103 1.48884 -1.377 0
M  V30 1231 C 112.436 1.94185 0.0244852 0
M  V30 1232 O 111.711 1.67361 0.990986 0
M  V30 1233 C 111.994 2.72288 -2.3565 0
M  V30 1234 C 111.847 2.32956 -3.84775 0
M  V30 1235 C 113.166 3.74414 -2.31306 0
M  V30 1236 H 110.285 0.540062 -0.5015 0
M  V30 1237 H 112.927 0.830547 -1.70886 0
M  V30 1238 H 111.077 3.28457 -2.07481 0
M  V30 1239 H 112.749 1.82356 -4.23726 0
M  V30 1240 H 110.992 1.65088 -4.01159 0
M  V30 1241 H 111.663 3.21362 -4.4881 0
M  V30 1242 H 114.139 3.27849 -2.56231 0
M  V30 1243 H 113.015 4.58414 -3.01907 0
M  V30 1244 H 113.276 4.21909 -1.32081 0
M  V30 1245 N 112.336 1.25143 0.95797 0
M  V30 1246 C 113.266 1.07711 2.07173 0
M  V30 1247 C 114.247 -0.0128462 1.70095 0
M  V30 1248 O 115.432 0.156061 1.93572 0
M  V30 1249 C 112.562 0.691503 3.40346 0
M  V30 1250 C 111.516 1.73132 3.9142 0
M  V30 1251 C 110.842 1.20049 5.21049 0
M  V30 1252 C 112.142 3.1294 4.1817 0
M  V30 1253 H 113.836 2.00873 2.22014 0
M  V30 1254 H 111.382 0.967191 1.06684 0
M  V30 1255 H 113.335 0.556505 4.17709 0
M  V30 1256 H 112.059 -0.275819 3.25433 0
M  V30 1257 H 110.718 1.8547 3.16222 0
M  V30 1258 H 110.366 0.223499 5.02503 0
M  V30 1259 H 110.066 1.89545 5.56189 0
M  V30 1260 H 111.59 1.07782 6.01012 0
M  V30 1261 H 113.004 3.03775 4.86203 0
M  V30 1262 H 111.401 3.79875 4.64559 0
M  V30 1263 H 112.471 3.6025 3.24573 0
M  V30 1264 N 113.814 -1.1601 1.06675 0
M  V30 1265 C 115.042 -1.90527 0.806667 0
M  V30 1266 C 115.457 -1.77643 -0.639396 0
M  V30 1267 O 114.814 -1.12369 -1.43803 0
M  V30 1268 C 114.865 -3.41106 1.19705 0
M  V30 1269 O 114.586 -3.53608 2.58636 0
M  V30 1270 C 116.087 -4.32663 0.965266 0
M  V30 1271 H 113.307 -0.604053 0.292166 0
M  V30 1272 H 115.851 -1.47026 1.4214 0
M  V30 1273 H 114.006 -3.82296 0.626774 0
M  V30 1274 H 114.42 -4.47011 2.74375 0
M  V30 1275 H 115.894 -5.36763 1.288 0
M  V30 1276 H 116.371 -4.39089 -0.0987936 0
M  V30 1277 H 116.977 -3.97206 1.52011 0
M  V30 1278 N 115.292 -0.849877 -1.32721 0
M  V30 1279 C 116.703 -0.506188 -1.79707 0
M  V30 1280 C 117.054 0.975627 -1.70223 0
M  V30 1281 O 116.179 1.76078 -1.25799 0
M  V30 1282 C 116.774 -0.912044 -3.26293 0
M  V30 1283 C 115.333 -0.620326 -3.71253 0
M  V30 1284 C 114.48 -1.11439 -2.53922 0
M  V30 1285 H 117.431 -1.03754 -1.20087 0
M  V30 1286 H 117.452 -0.226493 -3.79825 0
M  V30 1287 H 116.964 -1.99057 -3.33164 0
M  V30 1288 H 115.065 0.447674 -3.69901 0
M  V30 1289 H 115.178 -1.18327 -4.64258 0
M  V30 1290 H 113.542 -0.534834 -2.49021 0
M  V30 1291 H 114.325 -2.19992 -2.6355 0
M  V30 1292 N 116.77 1.45427 -0.607355 0
M  V30 1293 C 118.01 2.04128 -0.105458 0
M  V30 1294 C 118.374 1.46555 1.24039 0
M  V30 1295 O 119.575 1.96608 1.833 0
M  V30 1296 C 117.846 3.57338 -0.0665324 0
M  V30 1297 S 119.405 4.37201 0.374207 0
M  V30 1298 H 116.223 0.709278 -0.0494575 0
M  V30 1299 H 118.825 1.78139 -0.805404 0
M  V30 1300 H 117.529 3.96752 -1.04957 0
M  V30 1301 H 117.06 3.87902 0.655415 0
M  V30 1302 H 119.075 4.6888 1.62377 0
M  V30 1303 N 118.248 0.346503 1.53744 0
M  V30 1304 C 119.664 -0.00530975 1.59599 0
M  V30 1305 C 119.864 -1.48465 1.36236 0
M  V30 1306 O 118.92 -2.24376 1.15808 0
M  V30 1307 C 120.233 0.433516 2.97559 0
M  V30 1308 C 121.781 0.386111 3.10609 0
M  V30 1309 C 122.256 0.800451 4.50951 0
M  V30 1310 N 123.747 0.754753 4.5701 0
M  V30 1311 C 124.482 1.04727 5.63755 0
M  V30 1312 N 123.978 1.4081 6.7834 0
M  V30 1313 N 125.771 0.971316 5.53644 0
M  V30 1314 H 117.922 1.31009 1.67184 0
M  V30 1315 H 120.185 0.534242 0.783128 0
M  V30 1316 H 119.891 1.46509 3.19731 0
M  V30 1317 H 119.765 -0.189753 3.76722 0
M  V30 1318 H 122.152 -0.636295 2.88158 0
M  V30 1319 H 122.233 1.04462 2.33498 0
M  V30 1320 H 121.877 1.82088 4.74137 0
M  V30 1321 H 121.807 0.119386 5.26465 0
M  V30 1322 H 124.298 0.488662 3.74727 0
M  V30 1323 H 124.611 1.61607 7.55714 0
M  V30 1324 H 122.956 1.44657 6.79779 0
M  V30 1325 H 126.147 0.688748 4.63005 0
M  V30 1326 H 126.32 1.20263 6.36742 0
M  V30 1327 N 119.726 -1.57421 0.075193 0
M  V30 1328 C 120.673 -2.12915 -0.890843 0
M  V30 1329 C 121.643 -1.04252 -1.29309 0
M  V30 1330 O 122.828 -1.31933 -1.37834 0
M  V30 1331 C 119.968 -2.69795 -2.15186 0
M  V30 1332 C 119.081 -3.92624 -1.80194 0
M  V30 1333 C 118.216 -4.37736 -3.00933 0
M  V30 1334 C 117.255 -5.53205 -2.61974 0
M  V30 1335 N 116.392 -5.9326 -3.75483 0
M  V30 1336 H 121.232 -2.95156 -0.410735 0
M  V30 1337 H 118.769 -1.45854 -0.191086 0
M  V30 1338 H 120.727 -3.00883 -2.89008 0
M  V30 1339 H 119.357 -1.90313 -2.60731 0
M  V30 1340 H 118.409 -3.67977 -0.964218 0
M  V30 1341 H 119.721 -4.76482 -1.47534 0
M  V30 1342 H 118.875 -4.70503 -3.8303 0
M  V30 1343 H 117.614 -3.52739 -3.36789 0
M  V30 1344 H 116.619 -5.20086 -1.783 0
M  V30 1345 H 117.844 -6.39936 -2.27284 0
M  V30 1346 H 115.79 -5.11212 -4.11094 0
M  V30 1347 H 115.707 -6.71865 -3.46602 0
M  V30 1348 H 116.975 -6.30651 -4.58148 0
M  V30 1349 N 121.204 0.198386 -1.56346 0
M  V30 1350 C 122.481 0.944982 -1.71258 0
M  V30 1351 C 122.861 2.0151 -0.629048 0
M  V30 1352 O 122.209 2.25639 0.360473 0
M  V30 1353 C 122.419 1.5344 -3.1346 0
M  V30 1354 C 123.767 2.01778 -3.73591 0
M  V30 1355 O 124.791 1.63288 -3.16568 0
M  V30 1356 O 123.65 2.72594 -4.73661 0
M  V30 1357 H 120.744 0.442939 -0.69838 0
M  V30 1358 H 123.29 0.188342 -1.68652 0
M  V30 1359 H 122.062 0.762869 -3.83792 0
M  V30 1360 H 121.685 2.35596 -3.20282 0
M  V30 1361 N 122.682 1.50554 0.465978 0
M  V30 1362 C 123.928 1.62038 1.21949 0
M  V30 1363 C 124.261 0.322116 1.9151 0
M  V30 1364 O 123.536 -0.676723 1.82348 0
M  V30 1365 C 123.819 2.80421 2.25912 0
M  V30 1366 C 123.672 4.20144 1.60622 0
M  V30 1367 C 124.991 2.94354 3.27176 0
M  V30 1368 H 122.11 0.589752 0.441998 0
M  V30 1369 H 124.752 1.82956 0.51257 0
M  V30 1370 H 122.902 2.62717 2.86203 0
M  V30 1371 H 124.574 4.49449 1.03889 0
M  V30 1372 H 122.817 4.24165 0.909211 0
M  V30 1373 H 123.488 4.98914 2.36196 0
M  V30 1374 H 125.964 3.10578 2.76913 0
M  V30 1375 H 124.84 3.788 3.97242 0
M  V30 1376 H 125.101 2.05186 3.916 0
M  V30 1377 N 124.16 -0.719506 1.40217 0
M  V30 1378 C 125.09 -1.8465 1.42922 0
M  V30 1379 C 126.071 -1.67599 0.29062 0
M  V30 1380 O 127.256 -1.87688 0.498677 0
M  V30 1381 C 124.386 -3.22565 1.28722 0
M  V30 1382 C 123.34 -3.54281 2.40144 0
M  V30 1383 C 122.666 -4.91298 2.11023 0
M  V30 1384 C 123.966 -3.55676 3.82481 0
M  V30 1385 H 125.66 -1.82644 2.37237 0
M  V30 1386 H 123.206 -0.877305 1.1419 0
M  V30 1387 H 125.159 -4.01095 1.29232 0
M  V30 1388 H 123.883 -3.25137 0.308811 0
M  V30 1389 H 122.542 -2.78088 2.38877 0
M  V30 1390 H 122.19 -4.90468 1.11582 0
M  V30 1391 H 121.89 -5.13485 2.8567 0
M  V30 1392 H 123.414 -5.72166 2.13209 0
M  V30 1393 H 124.828 -4.24254 3.85592 0
M  V30 1394 H 123.225 -3.89388 4.56614 0
M  V30 1395 H 124.295 -2.55144 4.12346 0
M  V30 1396 N 125.638 -1.25649 -0.95132 0
M  V30 1397 C 126.884 -1.10757 -1.69884 0
M  V30 1398 C 127.217 0.350061 -1.91019 0
M  V30 1399 O 126.492 1.25783 -1.48354 0
M  V30 1400 C 126.775 -1.86606 -3.07978 0
M  V30 1401 C 126.628 -3.40217 -2.94232 0
M  V30 1402 C 127.947 -1.65182 -4.07925 0
M  V30 1403 H 125.066 -0.40374 -0.616574 0
M  V30 1404 H 127.708 -1.54521 -1.10558 0
M  V30 1405 H 125.858 -1.49409 -3.58621 0
M  V30 1406 H 127.53 -3.87108 -2.50889 0
M  V30 1407 H 125.773 -3.67759 -2.30078 0
M  V30 1408 H 126.444 -3.88505 -3.92133 0
M  V30 1409 H 128.92 -1.9757 -3.66204 0
M  V30 1410 H 127.796 -2.20683 -5.02583 0
M  V30 1411 H 128.057 -0.593933 -4.38092 0
M  V30 1412 N 127.117 1.15442 -1.07289 0
M  V30 1413 C 128.363 1.86489 -0.796846 0
M  V30 1414 C 128.696 1.82078 0.675371 0
M  V30 1415 O 127.971 1.24346 1.4956 0
M  V30 1416 C 128.254 3.35626 -1.30489 0
M  V30 1417 C 128.107 3.48673 -2.84161 0
M  V30 1418 C 129.426 4.30357 -0.920907 0
M  V30 1419 H 126.545 0.677144 -0.290939 0
M  V30 1420 H 129.187 1.35633 -1.33056 0
M  V30 1421 H 127.337 3.79068 -0.850883 0
M  V30 1422 H 129.009 3.14099 -3.37846 0
M  V30 1423 H 127.252 2.90253 -3.22391 0
M  V30 1424 H 127.923 4.53453 -3.14777 0
M  V30 1425 H 130.399 3.94871 -1.3121 0
M  V30 1426 H 129.275 5.33193 -1.30372 0
M  V30 1427 H 129.536 4.4176 0.173226 0
M  V30 1428 N 128.595 0.856903 1.32268 0
M  V30 1429 C 129.823 0.475439 2.01363 0
M  V30 1430 C 130.238 -0.928486 1.64392 0
M  V30 1431 O 129.595 -1.60624 0.866387 0
M  V30 1432 C 129.646 0.607545 3.56358 0
M  V30 1433 O 129.367 1.95617 3.92002 0
M  V30 1434 C 130.868 0.225382 4.42727 0
M  V30 1435 H 128.088 0.186636 0.644521 0
M  V30 1436 H 130.632 1.15446 1.68797 0
M  V30 1437 H 128.787 -0.0237719 3.87393 0
M  V30 1438 H 129.201 1.95455 4.86721 0
M  V30 1439 H 130.675 0.368813 5.50767 0
M  V30 1440 H 131.152 -0.834369 4.31202 0
M  V30 1441 H 131.758 0.831864 4.17085 0
M  V30 1442 N 130.073 -1.45103 0.615059 0
M  V30 1443 C 131.484 -1.85654 0.197383 0
M  V30 1444 C 131.835 -1.51433 -1.24749 0
M  V30 1445 O 130.96 -0.944608 -1.94695 0
M  V30 1446 C 131.555 -3.36972 0.351448 0
M  V30 1447 C 130.114 -3.76398 -0.011593 0
M  V30 1448 C 129.261 -2.69024 0.672394 0
M  V30 1449 H 132.212 -1.35797 0.821263 0
M  V30 1450 H 132.233 -3.78239 -0.414227 0
M  V30 1451 H 131.745 -3.61847 1.40314 0
M  V30 1452 H 129.846 -3.5714 -1.06217 0
M  V30 1453 H 129.959 -4.77532 0.387265 0
M  V30 1454 H 128.323 -2.54465 0.109284 0
M  V30 1455 H 129.106 -2.96735 1.72636 0
M  V30 1456 N 131.551 -0.354651 -1.53558 0
M  V30 1457 C 132.797 0.231422 -2.02079 0
M  V30 1458 C 133.152 1.47308 -1.23767 0
M  V30 1459 O 132.445 1.8891 -0.319947 0
M  V30 1460 C 132.639 0.587121 -3.52545 0
M  V30 1461 C 132.468 -0.618513 -4.45426 0
M  V30 1462 C 131.238 -1.12724 -4.92566 0
M  V30 1463 C 133.436 -1.48039 -4.92533 0
M  V30 1464 N 131.418 -2.29404 -5.69427 0
M  V30 1465 C 132.789 -2.49397 -5.67628 0
M  V30 1466 C 134.844 -1.50454 -4.74624 0
M  V30 1467 C 133.547 -3.53013 -6.26717 0
M  V30 1468 C 135.573 -2.52958 -5.34571 0
M  V30 1469 C 134.935 -3.5304 -6.09543 0
M  V30 1470 H 131.034 0.0476909 -0.780544 0
M  V30 1471 H 133.618 -0.496727 -1.88257 0
M  V30 1472 H 131.789 1.28436 -3.6655 0
M  V30 1473 H 133.521 1.15734 -3.87799 0
M  V30 1474 H 130.276 -0.693577 -4.68494 0
M  V30 1475 H 130.7 -2.88347 -6.12524 0
M  V30 1476 H 135.342 -0.744356 -4.16196 0
M  V30 1477 H 133.06 -4.2992 -6.84247 0
M  V30 1478 H 136.646 -2.55667 -5.22614 0
M  V30 1479 H 135.526 -4.31056 -6.55103 0
M  V30 1480 N 133.029 1.57378 -0.0835403 0
M  V30 1481 C 133.959 2.1641 0.87686 0
M  V30 1482 C 134.94 1.09429 1.30228 0
M  V30 1483 O 136.125 1.37516 1.37124 0
M  V30 1484 C 133.255 2.73517 2.14022 0
M  V30 1485 C 132.209 3.85769 1.85381 0
M  V30 1486 C 131.535 4.29529 3.18448 0
M  V30 1487 C 132.835 5.09486 1.14984 0
M  V30 1488 H 134.529 2.96914 0.385059 0
M  V30 1489 H 132.075 1.42823 0.18377 0
M  V30 1490 H 134.028 3.13463 2.81636 0
M  V30 1491 H 132.752 1.90252 2.65465 0
M  V30 1492 H 131.411 3.46345 1.20169 0
M  V30 1493 H 131.059 3.43169 3.67755 0
M  V30 1494 H 130.759 5.05204 3.00071 0
M  V30 1495 H 132.283 4.72099 3.8724 0
M  V30 1496 H 133.697 5.46674 1.72687 0
M  V30 1497 H 132.094 5.90515 1.06826 0
M  V30 1498 H 133.164 4.84724 0.130749 0
M  V30 1499 N 134.507 -0.190092 1.56449 0
M  V30 1500 C 135.47 -1.21925 1.9408 0
M  V30 1501 C 136.47 -1.38176 0.822431 0
M  V30 1502 O 137.66 -1.35903 1.08977 0
M  V30 1503 C 134.792 -2.58773 2.21922 0
M  V30 1504 H 135.985 -0.897464 2.86157 0
M  V30 1505 H 133.538 -0.43181 1.50217 0
M  V30 1506 H 134.273 -2.95998 1.32499 0
M  V30 1507 H 134.058 -2.48348 3.03424 0
M  V30 1508 H 135.548 -3.32978 2.52022 0
M  V30 1509 N 135.985 -1.50799 -0.457987 0
M  V30 1510 C 137.396 -1.55152 -1.0385 0
M  V30 1511 C 137.747 -0.362719 -1.92818 0
M  V30 1512 O 136.872 0.522915 -2.09987 0
M  V30 1513 C 137.467 -2.81173 -1.89017 0
M  V30 1514 C 136.026 -2.88164 -2.42154 0
M  V30 1515 C 135.173 -2.49591 -1.20829 0
M  V30 1516 H 138.124 -1.56874 -0.240068 0
M  V30 1517 H 138.145 -2.63769 -2.74238 0
M  V30 1518 H 137.657 -3.67677 -1.24238 0
M  V30 1519 H 135.758 -2.06042 -3.10447 0
M  V30 1520 H 135.871 -3.91356 -2.76364 0
M  V30 1521 H 134.235 -2.02322 -1.54719 0
M  V30 1522 H 135.018 -3.38418 -0.576927 0
M  V30 1523 N 137.463 0.71206 -1.40597 0
M  V30 1524 C 138.712 1.46754 -1.38369 0
M  V30 1525 C 139.025 1.95598 0.0097839 0
M  V30 1526 O 140.231 2.71059 0.154677 0
M  V30 1527 C 138.687 2.65289 -2.43207 0
M  V30 1528 C 138.295 2.23301 -3.88382 0
M  V30 1529 C 140.039 3.43008 -2.50091 0
M  V30 1530 C 137.946 3.38696 -4.84808 0
M  V30 1531 H 136.876 0.55118 -0.514506 0
M  V30 1532 H 139.527 0.774616 -1.66349 0
M  V30 1533 H 137.909 3.36769 -2.08332 0
M  V30 1534 H 139.083 1.59218 -4.32419 0
M  V30 1535 H 137.398 1.58618 -3.85006 0
M  V30 1536 H 139.995 4.28881 -3.1932 0
M  V30 1537 H 140.338 3.87065 -1.53253 0
M  V30 1538 H 140.871 2.78574 -2.83974 0
M  V30 1539 H 137.61 2.99668 -5.82992 0
M  V30 1540 H 137.13 4.01683 -4.45433 0
M  V30 1541 H 138.809 4.04712 -5.04794 0
M  V30 1542 N 138.941 1.26152 0.944643 0
M  V30 1543 C 140.187 1.11657 1.69294 0
M  V30 1544 C 140.52 -0.339926 1.91202 0
M  V30 1545 O 139.795 -1.24994 1.49019 0
M  V30 1546 C 140.078 1.88236 3.06984 0
M  V30 1547 C 139.931 3.41772 2.92424 0
M  V30 1548 C 141.25 1.67343 4.07043 0
M  V30 1549 H 138.369 0.407004 0.614424 0
M  V30 1550 H 141.011 1.55106 1.09737 0
M  V30 1551 H 139.161 1.51308 3.57824 0
M  V30 1552 H 140.833 3.88433 2.48832 0
M  V30 1553 H 139.076 3.68974 2.28124 0
M  V30 1554 H 139.747 3.90579 3.90067 0
M  V30 1555 H 142.223 1.99509 3.65151 0
M  V30 1556 H 141.099 2.23346 5.01406 0
M  V30 1557 H 141.36 0.617158 4.37771 0
M  V30 1558 N 140.419 -1.14872 1.07899 0
M  V30 1559 C 141.665 -1.86289 0.81657 0
M  V30 1560 C 142.02 -1.8107 -0.65049 0
M  V30 1561 O 141.313 -1.22684 -1.47171 0
M  V30 1562 C 141.507 -3.34223 1.26609 0
M  V30 1563 C 141.336 -3.53846 2.77531 0
M  V30 1564 C 140.106 -3.68995 3.45212 0
M  V30 1565 C 142.304 -3.51201 3.75716 0
M  V30 1566 N 140.286 -3.76725 4.84718 0
M  V30 1567 C 141.657 -3.65112 5.01092 0
M  V30 1568 C 143.712 -3.34507 3.68794 0
M  V30 1569 C 142.415 -3.64056 6.20368 0
M  V30 1570 C 144.441 -3.34752 4.8754 0
M  V30 1571 C 143.803 -3.49199 6.11751 0
M  V30 1572 H 139.902 -0.698579 0.351443 0
M  V30 1573 H 142.486 -1.37713 1.37634 0
M  V30 1574 H 140.657 -3.81402 0.73395 0
M  V30 1575 H 142.389 -3.93377 0.95062 0
M  V30 1576 H 139.144 -3.70006 2.95622 0
M  V30 1577 H 139.568 -3.8432 5.5734 0
M  V30 1578 H 144.21 -3.22253 2.73702 0
M  V30 1579 H 141.928 -3.75087 7.15776 0
M  V30 1580 H 145.514 -3.23055 4.83866 0
M  V30 1581 H 144.394 -3.49328 7.02097 0
M  V30 1582 N 141.898 -0.863906 -1.31812 0
M  V30 1583 C 142.808 -0.318461 -2.32428 0
M  V30 1584 C 143.824 0.568496 -1.64451 0
M  V30 1585 O 145 0.46666 -1.95919 0
M  V30 1586 C 142.065 0.476355 -3.43412 0
M  V30 1587 C 141.126 -0.43784 -4.27061 0
M  V30 1588 C 140.359 0.319138 -5.32745 0
M  V30 1589 O 140.582 1.54799 -5.48993 0
M  V30 1590 O 139.516 -0.319861 -6.01049 0
M  V30 1591 H 143.342 -1.15229 -2.80991 0
M  V30 1592 H 140.927 -0.627103 -1.35602 0
M  V30 1593 H 142.809 0.927156 -4.11074 0
M  V30 1594 H 141.484 1.28683 -2.97022 0
M  V30 1595 H 140.391 -0.937013 -3.62175 0
M  V30 1596 H 141.724 -1.21375 -4.77 0
M  V30 1597 N 143.376 1.44774 -0.622745 0
M  V30 1598 C 144.624 2.01721 -0.123655 0
M  V30 1599 C 144.945 1.49172 1.25589 0
M  V30 1600 O 144.215 0.691974 1.83272 0
M  V30 1601 H 142.795 0.745777 -0.0427225 0
M  V30 1602 H 145.457 1.77382 -0.807559 0
M  V30 1603 H 144.553 3.11984 -0.0849534 0
M  V30 1604 N 144.854 0.36279 1.53368 0
M  V30 1605 C 146.082 -0.228613 2.05633 0
M  V30 1606 C 146.497 -1.42676 1.23649 0
M  V30 1607 O 145.854 -1.80394 0.27647 0
M  V30 1608 C 145.905 -0.624845 3.56059 0
M  V30 1609 O 145.626 0.525675 4.34935 0
M  V30 1610 C 147.127 -1.27493 4.24571 0
M  V30 1611 H 144.347 -0.0407183 0.669763 0
M  V30 1612 H 146.891 0.520352 1.97769 0
M  V30 1613 H 145.046 -1.32373 3.64083 0
M  V30 1614 H 145.46 0.205969 5.24095 0
M  V30 1615 H 146.934 -1.50277 5.31151 0
M  V30 1616 H 147.411 -2.23439 3.78116 0
M  V30 1617 H 148.017 -0.617558 4.20792 0
M  V30 1618 N 146.332 -1.57332 0.0918853 0
M  V30 1619 C 147.579 -1.94236 -0.572577 0
M  V30 1620 C 147.907 -0.973398 -1.6839 0
M  V30 1621 O 147.162 0.00756912 -1.95699 0
M  V30 1622 C 147.461 -3.37689 -1.17051 0
M  V30 1623 C 147.127 -4.50527 -0.183304 0
M  V30 1624 C 145.789 -4.81119 0.0882276 0
M  V30 1625 C 148.141 -5.18883 0.49095 0
M  V30 1626 C 145.469 -5.77395 1.04076 0
M  V30 1627 C 147.821 -6.1618 1.43193 0
M  V30 1628 C 146.485 -6.45179 1.71173 0
M  V30 1629 H 145.755 -0.710762 -0.209521 0
M  V30 1630 H 148.402 -1.9077 0.167036 0
M  V30 1631 H 146.707 -3.37718 -1.9863 0
M  V30 1632 H 148.404 -3.63543 -1.69227 0
M  V30 1633 H 144.994 -4.26681 -0.405124 0
M  V30 1634 H 149.178 -4.95427 0.294312 0
M  V30 1635 H 144.434 -5.98179 1.26457 0
M  V30 1636 H 148.608 -6.68243 1.96023 0
M  V30 1637 H 146.235 -7.1959 2.4514 0
M  V30 1638 N 147.81 0.181792 -1.56548 0
M  V30 1639 C 148.758 1.24461 -1.965 0
M  V30 1640 C 149.752 1.464 -0.852261 0
M  V30 1641 O 150.958 1.47103 -1.03733 0
M  V30 1642 H 147.333 0.418138 -0.625031 0
M  V30 1643 H 149.304 0.880714 -2.85107 0
M  V30 1644 C 148.053 2.57891 -2.33212 0
M  V30 1645 H 147.376 2.41829 -3.18369 0
M  V30 1646 H 148.816 3.3097 -2.65019 0
M  V30 1647 C 147.275 3.15871 -1.17163 0
M  V30 1648 O 147.805 3.9913 -0.453708 0
M  V30 1649 N 146.011 2.74808 -0.944936 0
M  V30 1650 H 145.558 2.07205 -1.53049 0
M  V30 1651 H 145.516 3.13939 -0.170286 0
M  V30 1652 N 149.288 1.51039 0.449983 0
M  V30 1653 C 150.537 1.62317 1.19733 0
M  V30 1654 C 150.85 0.339101 1.92638 0
M  V30 1655 O 152.056 0.331069 2.69474 0
M  V30 1656 C 150.512 2.86608 2.17678 0
M  V30 1657 C 150.12 4.21972 1.50479 0
M  V30 1658 C 151.864 3.07239 2.92924 0
M  V30 1659 C 149.771 5.37426 2.46834 0
M  V30 1660 H 148.701 0.604532 0.450619 0
M  V30 1661 H 151.352 1.77494 0.465625 0
M  V30 1662 H 149.734 2.65037 2.94231 0
M  V30 1663 H 150.908 4.53878 0.795716 0
M  V30 1664 H 149.223 4.07117 0.874344 0
M  V30 1665 H 151.82 3.90668 3.65079 0
M  V30 1666 H 152.163 2.19807 3.5354 0
M  V30 1667 H 152.696 3.29091 2.23481 0
M  V30 1668 H 149.435 6.27079 1.90926 0
M  V30 1669 H 148.955 5.09912 3.15832 0
M  V30 1670 H 150.634 5.68862 3.08228 0
M  V30 1671 N 150.766 -0.704594 1.40972 0
M  V30 1672 C 152.043 -1.45847 1.30338 0
M  V30 1673 C 152.423 -2.10973 -0.0732344 0
M  V30 1674 O 151.771 -2.00997 -1.08685 0
M  V30 1675 C 151.981 -2.48525 2.45023 0
M  V30 1676 C 153.329 -3.1404 2.8577 0
M  V30 1677 O 154.353 -2.58848 2.44696 0
M  V30 1678 O 153.212 -4.13981 3.56766 0
M  V30 1679 H 150.306 -0.649092 0.512454 0
M  V30 1680 H 152.852 -0.735836 1.52917 0
M  V30 1681 H 151.624 -1.98994 3.36923 0
M  V30 1682 H 151.247 -3.2831 2.24272 0
M  V30 1683 N 152.244 -1.26651 -0.937939 0
M  V30 1684 C 153.493 -1.11775 -1.67897 0
M  V30 1685 C 153.806 0.33794 -1.92659 0
M  V30 1686 O 155.012 0.607434 -2.64618 0
M  V30 1687 C 153.468 -1.9523 -3.02346 0
M  V30 1688 C 153.076 -3.45393 -2.8532 0
M  V30 1689 C 154.82 -1.88972 -3.80118 0
M  V30 1690 C 152.727 -4.21083 -4.15263 0
M  V30 1691 H 151.657 -0.414696 -0.629717 0
M  V30 1692 H 154.308 -1.50988 -1.04283 0
M  V30 1693 H 152.69 -1.48853 -3.66959 0
M  V30 1694 H 153.864 -3.99561 -2.29537 0
M  V30 1695 H 152.179 -3.52921 -2.20988 0
M  V30 1696 H 154.776 -2.42805 -4.76392 0
M  V30 1697 H 155.119 -0.86113 -4.07296 0
M  V30 1698 H 155.652 -2.33189 -3.22285 0
M  V30 1699 H 152.391 -5.24425 -3.93267 0
M  V30 1700 H 151.911 -3.71695 -4.70747 0
M  V30 1701 H 153.59 -4.29706 -4.83696 0
M  V30 1702 N 153.722 1.14298 -1.08507 0
M  V30 1703 C 154.652 2.21542 -0.737646 0
M  V30 1704 C 155.633 1.67773 0.280377 0
M  V30 1705 O 156.818 1.93616 0.150521 0
M  V30 1706 C 153.948 3.46988 -0.147259 0
M  V30 1707 C 152.902 4.13789 -1.09374 0
M  V30 1708 C 152.228 5.33449 -0.365524 0
M  V30 1709 C 153.528 4.62208 -2.4323 0
M  V30 1710 H 155.222 2.5086 -1.6343 0
M  V30 1711 H 152.768 1.20576 -0.787243 0
M  V30 1712 H 154.721 4.21262 0.107808 0
M  V30 1713 H 153.445 3.17037 0.784538 0
M  V30 1714 H 152.104 3.4147 -1.33393 0
M  V30 1715 H 151.752 4.99759 0.57011 0
M  V30 1716 H 151.452 5.79088 -0.996512 0
M  V30 1717 H 152.976 6.10485 -0.118534 0
M  V30 1718 H 154.39 5.27952 -2.23472 0
M  V30 1719 H 152.787 5.18553 -3.02031 0
M  V30 1720 H 153.857 3.77224 -3.04681 0
M  V30 1721 N 155.201 0.870884 1.31352 0
M  V30 1722 C 156.149 0.316445 2.30437 0
M  V30 1723 C 157.143 -0.568965 1.59559 0
M  V30 1724 O 158.349 -0.454964 1.74155 0
M  V30 1725 H 154.724 0.0836521 0.747333 0
M  V30 1726 H 156.695 1.16606 2.74673 0
M  V30 1727 C 155.444 -0.46635 3.44558 0
M  V30 1728 H 154.767 0.205687 3.99271 0
M  V30 1729 H 156.207 -0.819614 4.16003 0
M  V30 1730 C 154.666 -1.65797 2.9328 0
M  V30 1731 O 155.196 -2.75728 2.92125 0
M  V30 1732 N 153.402 -1.49041 2.4947 0
M  V30 1733 H 152.949 -0.59612 2.50608 0
M  V30 1734 H 152.907 -2.28911 2.15516 0
M  V30 1735 N 156.679 -1.44442 0.630414 0
M  V30 1736 C 157.589 -2.34476 -0.0761693 0
M  V30 1737 C 158.605 -1.52576 -0.836449 0
M  V30 1738 O 159.781 -1.85307 -0.788874 0
M  V30 1739 C 156.846 -3.30545 -1.04599 0
M  V30 1740 C 155.907 -4.28352 -0.28516 0
M  V30 1741 C 155.14 -5.19831 -1.20878 0
M  V30 1742 O 155.363 -5.15223 -2.44747 0
M  V30 1743 O 154.297 -5.97892 -0.693491 0
M  V30 1744 H 158.123 -2.96345 0.664324 0
M  V30 1745 H 155.708 -1.44203 0.39061 0
M  V30 1746 H 157.59 -3.89681 -1.60396 0
M  V30 1747 H 156.265 -2.7121 -1.76711 0
M  V30 1748 H 155.172 -3.72764 0.315837 0
M  V30 1749 H 156.505 -4.90605 0.395924 0
M  V30 1750 N 158.157 -0.370918 -1.53173 0
M  V30 1751 C 159.089 0.507823 -2.23503 0
M  V30 1752 C 160.102 1.04182 -1.251 0
M  V30 1753 O 161.291 0.947286 -1.5129 0
M  V30 1754 C 158.391 1.71447 -2.92334 0
M  V30 1755 C 157.564 1.31105 -4.17289 0
M  V30 1756 C 156.623 2.38035 -4.69282 0
M  V30 1757 O 155.649 2.00204 -5.32829 0
M  V30 1758 N 156.851 3.69697 -4.47554 0
M  V30 1759 H 159.616 -0.0946382 -2.99551 0
M  V30 1760 H 157.177 -0.196358 -1.60705 0
M  V30 1761 H 159.169 2.42469 -3.24023 0
M  V30 1762 H 157.739 2.22368 -2.19707 0
M  V30 1763 H 156.959 0.430462 -3.91843 0
M  V30 1764 H 158.247 1.0179 -4.98514 0
M  V30 1765 H 157.645 4.03205 -3.9679 0
M  V30 1766 H 156.202 4.36807 -4.8378 0
M  V30 1767 N 159.635 1.57281 -0.100228 0
M  V30 1768 C 160.882 1.94537 0.562268 0
M  V30 1769 C 161.21 0.982315 1.67871 0
M  V30 1770 O 160.465 0.00280936 1.957 0
M  V30 1771 C 160.764 3.38305 1.15259 0
M  V30 1772 C 160.43 4.50618 0.159409 0
M  V30 1773 C 159.092 4.81066 -0.113741 0
M  V30 1774 C 161.444 5.18615 -0.518461 0
M  V30 1775 C 158.772 5.76835 -1.07137 0
M  V30 1776 C 161.124 6.15412 -1.46459 0
M  V30 1777 C 159.788 6.44262 -1.74592 0
M  V30 1778 H 159.058 0.711863 0.205748 0
M  V30 1779 H 161.705 1.90679 -0.17715 0
M  V30 1780 H 160.01 3.38766 1.96836 0
M  V30 1781 H 161.707 3.64435 1.67297 0
M  V30 1782 H 158.297 4.2689 0.382491 0
M  V30 1783 H 162.481 4.95264 -0.320581 0
M  V30 1784 H 157.737 5.975 -1.29628 0
M  V30 1785 H 161.911 6.67194 -1.99564 0
M  V30 1786 H 159.538 7.1828 -2.48953 0
M  V30 1787 N 161.113 -0.173488 1.56642 0
M  V30 1788 C 162.529 -0.525174 1.50712 0
M  V30 1789 C 162.729 -1.8476 0.804107 0
M  V30 1790 O 161.785 -2.49869 0.363574 0
M  V30 1791 C 163.098 -0.559937 2.95441 0
M  V30 1792 C 164.646 -0.647288 3.06234 0
M  V30 1793 C 165.121 -0.712963 4.52417 0
M  V30 1794 N 166.612 -0.775911 4.56655 0
M  V30 1795 C 167.347 -0.847264 5.67106 0
M  V30 1796 N 166.843 -0.879585 6.87194 0
M  V30 1797 N 168.636 -0.886117 5.55071 0
M  V30 1798 H 160.787 0.693681 2.00753 0
M  V30 1799 H 163.05 0.249841 0.914485 0
M  V30 1800 H 162.756 0.343049 3.50023 0
M  V30 1801 H 162.63 -1.40718 3.49969 0
M  V30 1802 H 165.017 -1.5407 2.51687 0
M  V30 1803 H 165.098 0.226586 2.54794 0
M  V30 1804 H 164.742 0.176183 5.07594 0
M  V30 1805 H 164.672 -1.60295 5.0161 0
M  V30 1806 H 167.163 -0.759304 3.70193 0
M  V30 1807 H 167.476 -0.935144 7.67121 0
M  V30 1808 H 165.821 -0.847898 6.89808 0
M  V30 1809 H 169.012 -0.857853 4.60172 0
M  V30 1810 H 169.185 -0.938263 6.41171 0
M  V30 1811 N 162.591 -1.51276 -0.441967 0
M  V30 1812 C 163.521 -1.752 -1.54361 0
M  V30 1813 C 164.502 -0.601682 -1.59103 0
M  V30 1814 O 165.687 -0.843913 -1.74905 0
M  V30 1815 C 162.817 -1.87282 -2.92477 0
M  V30 1816 C 161.771 -3.02687 -3.02596 0
M  V30 1817 C 161.097 -2.99947 -4.42647 0
M  V30 1818 C 162.397 -4.4273 -2.77106 0
M  V30 1819 H 164.091 -2.67442 -1.34592 0
M  V30 1820 H 161.637 -1.28694 -0.646048 0
M  V30 1821 H 163.59 -2.02602 -3.695 0
M  V30 1822 H 162.314 -0.916844 -3.13467 0
M  V30 1823 H 160.973 -2.87065 -2.28012 0
M  V30 1824 H 160.621 -2.02136 -4.60597 0
M  V30 1825 H 160.321 -3.77439 -4.50348 0
M  V30 1826 H 161.845 -3.17354 -5.2165 0
M  V30 1827 H 163.259 -4.58727 -3.43864 0
M  V30 1828 H 161.656 -5.21893 -2.96222 0
M  V30 1829 H 162.726 -4.53087 -1.72744 0
M  V30 1830 N 164.069 0.697108 -1.41344 0
M  V30 1831 C 165.001 1.8224 -1.39001 0
M  V30 1832 C 166.014 1.60152 -0.292428 0
M  V30 1833 O 167.203 1.69684 -0.554048 0
M  V30 1834 C 164.303 3.18976 -1.14489 0
M  V30 1835 C 163.476 3.68105 -2.36258 0
M  V30 1836 C 162.535 4.83506 -2.07625 0
M  V30 1837 O 161.561 4.95201 -2.8065 0
M  V30 1838 N 162.763 5.70637 -1.06555 0
M  V30 1839 H 165.528 1.84742 -2.35988 0
M  V30 1840 H 163.089 0.87937 -1.35936 0
M  V30 1841 H 165.081 3.93801 -0.932885 0
M  V30 1842 H 163.651 3.11508 -0.261043 0
M  V30 1843 H 162.871 2.84204 -2.7317 0
M  V30 1844 H 164.159 3.97667 -3.17393 0
M  V30 1845 H 163.557 5.63817 -0.461125 0
M  V30 1846 H 162.114 6.45368 -0.913444 0
M  V30 1847 N 165.547 1.27147 0.931209 0
M  V30 1848 C 166.495 1.09398 2.05268 0
M  V30 1849 C 167.489 0.0180591 1.6939 0
M  V30 1850 O 168.695 0.17551 1.79142 0
M  V30 1851 H 165.07 0.336986 0.672268 0
M  V30 1852 H 167.041 2.04416 2.17386 0
M  V30 1853 C 165.79 0.75424 3.39421 0
M  V30 1854 H 165.113 1.57404 3.67511 0
M  V30 1855 H 166.553 0.669903 4.18674 0
M  V30 1856 C 165.012 -0.541197 3.32525 0
M  V30 1857 O 165.542 -1.57664 3.69466 0
M  V30 1858 N 163.748 -0.535517 2.85623 0
M  V30 1859 H 163.295 0.307511 2.55758 0
M  V30 1860 H 163.253 -1.40236 2.81392 0
M  V30 1861 N 167.025 -1.13721 1.09112 0
M  V30 1862 C 168.253 -1.88773 0.846899 0
M  V30 1863 C 168.668 -1.7896 -0.601572 0
M  V30 1864 O 168.025 -1.15394 -1.41388 0
M  V30 1865 C 168.076 -3.3849 1.26913 0
M  V30 1866 O 167.797 -3.48043 2.66079 0
M  V30 1867 C 169.298 -4.30518 1.05682 0
M  V30 1868 H 166.518 -0.59772 0.304914 0
M  V30 1869 H 169.062 -1.43977 1.45227 0
M  V30 1870 H 167.217 -3.80881 0.707723 0
M  V30 1871 H 167.631 -4.4109 2.83795 0
M  V30 1872 H 169.105 -5.3391 1.40156 0
M  V30 1873 H 169.582 -4.392 -0.00563416 0
M  V30 1874 H 170.188 -3.93893 1.60402 0
M  V30 1875 N 168.503 -0.877838 -1.30888 0
M  V30 1876 C 169.731 -0.507414 -2.00581 0
M  V30 1877 C 170.146 0.902216 -1.65848 0
M  V30 1878 O 169.503 1.59225 -0.891831 0
M  V30 1879 C 169.554 -0.664162 -3.55347 0
M  V30 1880 O 169.275 -2.01829 -3.8884 0
M  V30 1881 C 170.776 -0.295787 -4.42312 0
M  V30 1882 H 167.996 -0.196866 -0.641471 0
M  V30 1883 H 170.54 -1.18117 -1.66939 0
M  V30 1884 H 168.695 -0.0378619 -3.87381 0
M  V30 1885 H 169.109 -2.03174 -4.8355 0
M  V30 1886 H 170.583 -0.456388 -5.5011 0
M  V30 1887 H 171.06 0.765663 -4.32475 0
M  V30 1888 H 171.666 -0.898113 -4.15709 0
M  V30 1889 N 169.982 1.44106 -0.638065 0
M  V30 1890 C 171.231 2.01194 -0.142744 0
M  V30 1891 C 171.544 1.50835 1.24532 0
M  V30 1892 O 172.75 2.00096 1.83504 0
M  V30 1893 C 171.206 3.59319 -0.20442 0
M  V30 1894 C 170.814 4.18674 -1.59423 0
M  V30 1895 C 172.558 4.23854 0.234079 0
M  V30 1896 C 170.465 5.69045 -1.61065 0
M  V30 1897 H 169.395 0.752367 -0.0495998 0
M  V30 1898 H 172.046 1.65246 -0.797881 0
M  V30 1899 H 170.428 3.92598 0.517946 0
M  V30 1900 H 171.602 3.96921 -2.34074 0
M  V30 1901 H 169.917 3.66453 -1.97741 0
M  V30 1902 H 172.514 5.34155 0.241443 0
M  V30 1903 H 172.857 3.96688 1.2627 0
M  V30 1904 H 173.39 3.95403 -0.436025 0
M  V30 1905 H 170.129 6.00956 -2.61787 0
M  V30 1906 H 169.649 5.929 -0.90718 0
M  V30 1907 H 171.328 6.32809 -1.34766 0
M  V30 1908 N 171.46 0.379036 1.52974 0
M  V30 1909 C 172.708 -0.206014 2.01047 0
M  V30 1910 C 173.029 -1.48175 1.26765 0
M  V30 1911 O 172.299 -1.92085 0.384743 0
M  V30 1912 H 170.879 -0.0791184 0.742798 0
M  V30 1913 H 173.541 0.508366 1.88153 0
M  V30 1914 H 172.637 -0.423501 3.09213 0
M  V30 1915 N 172.938 -1.57226 0.108567 0
M  V30 1916 C 173.868 -2.17778 -0.84232 0
M  V30 1917 C 174.849 -1.11487 -1.2847 0
M  V30 1918 O 176.034 -1.39681 -1.34918 0
M  V30 1919 C 173.164 -2.76888 -2.09644 0
M  V30 1920 C 172.118 -3.88669 -1.79221 0
M  V30 1921 C 171.444 -4.34541 -3.11574 0
M  V30 1922 C 172.744 -5.11251 -1.06864 0
M  V30 1923 H 174.438 -2.97489 -0.337774 0
M  V30 1924 H 171.984 -1.43097 -0.161025 0
M  V30 1925 H 173.937 -3.17904 -2.76614 0
M  V30 1926 H 172.661 -1.94451 -2.62405 0
M  V30 1927 H 171.32 -3.48213 -1.14644 0
M  V30 1928 H 170.968 -3.48977 -3.62249 0
M  V30 1929 H 170.668 -5.09914 -2.91996 0
M  V30 1930 H 172.192 -4.782 -3.7968 0
M  V30 1931 H 173.606 -5.49352 -1.63968 0
M  V30 1932 H 172.003 -5.9214 -0.974178 0
M  V30 1933 H 173.073 -4.8487 -0.0536168 0
M  V30 1934 N 174.416 0.165178 -1.56732 0
M  V30 1935 C 175.644 0.896218 -1.86482 0
M  V30 1936 C 176.059 1.75555 -0.694675 0
M  V30 1937 O 175.416 1.79379 0.33607 0
M  V30 1938 C 175.467 1.76792 -3.1532 0
M  V30 1939 O 175.188 0.943239 -4.27825 0
M  V30 1940 C 176.689 2.6081 -3.58459 0
M  V30 1941 H 173.909 0.260064 -0.618553 0
M  V30 1942 H 176.453 0.163428 -2.03846 0
M  V30 1943 H 174.608 2.45398 -2.99764 0
M  V30 1944 H 175.022 1.53998 -5.01383 0
M  V30 1945 H 176.496 3.17579 -4.51495 0
M  V30 1946 H 176.973 3.35977 -2.82872 0
M  V30 1947 H 177.579 1.97526 -3.76648 0
M  V30 1948 N 175.894 1.51508 0.433938 0
M  V30 1949 C 177.14 1.64588 1.18484 0
M  V30 1950 C 177.473 0.362666 1.90784 0
M  V30 1951 O 176.748 -0.637892 1.83742 0
M  V30 1952 C 177.031 2.85149 2.19913 0
M  V30 1953 C 176.884 4.23456 1.51674 0
M  V30 1954 C 178.203 3.01227 3.20858 0
M  V30 1955 H 175.322 0.598994 0.429389 0
M  V30 1956 H 177.964 1.84002 0.473647 0
M  V30 1957 H 176.114 2.68729 2.80566 0
M  V30 1958 H 177.786 4.51552 0.943322 0
M  V30 1959 H 176.029 4.25998 0.819035 0
M  V30 1960 H 176.7 5.03812 2.2556 0
M  V30 1961 H 179.176 3.16382 2.70263 0
M  V30 1962 H 178.052 3.87141 3.89118 0
M  V30 1963 H 178.313 2.13447 3.8716 0
M  V30 1964 N 177.372 -0.689602 1.41712 0
M  V30 1965 C 178.619 -1.44966 1.4139 0
M  V30 1966 C 178.947 -1.94484 0.025105 0
M  V30 1967 O 178.202 -1.70307 -0.964048 0
M  V30 1968 C 178.501 -2.67298 2.37247 0
M  V30 1969 C 178.167 -2.36405 3.83958 0
M  V30 1970 C 176.829 -2.27691 4.23923 0
M  V30 1971 C 179.181 -2.11043 4.76561 0
M  V30 1972 C 176.509 -1.91719 5.54492 0
M  V30 1973 C 178.861 -1.76578 6.07456 0
M  V30 1974 C 177.525 -1.66363 6.46436 0
M  V30 1975 H 176.795 -0.53047 0.517381 0
M  V30 1976 H 179.442 -0.787655 1.74552 0
M  V30 1977 H 177.747 -3.38461 1.9736 0
M  V30 1978 H 179.444 -3.25452 2.34269 0
M  V30 1979 H 176.034 -2.44085 3.52308 0
M  V30 1980 H 180.218 -2.16717 4.46483 0
M  V30 1981 H 175.474 -1.82367 5.83568 0
M  V30 1982 H 179.648 -1.55974 6.78708 0
M  V30 1983 H 177.275 -1.38258 7.47522 0
M  V30 1984 N 178.85 -1.27639 -0.924453 0
M  V30 1985 C 179.813 -1.10681 -2.00705 0
M  V30 1986 C 180.813 -0.0497823 -1.60723 0
M  V30 1987 O 182.003 -0.294654 -1.7169 0
M  V30 1988 C 179.135 -0.687164 -3.33902 0
M  V30 1989 H 180.328 -2.06817 -2.17179 0
M  V30 1990 H 177.881 -1.10473 -1.10569 0
M  V30 1991 H 178.616 0.275439 -3.23128 0
M  V30 1992 H 178.401 -1.45061 -3.6428 0
M  V30 1993 H 179.891 -0.590853 -4.13399 0
M  V30 1994 N 180.328 1.1314 -1.09713 0
M  V30 1995 C 181.577 1.83838 -0.829851 0
M  V30 1996 C 181.89 1.84599 0.646728 0
M  V30 1997 O 183.096 2.51218 1.02965 0
M  V30 1998 C 181.552 3.30069 -1.43466 0
M  V30 1999 C 181.16 3.37688 -2.94399 0
M  V30 2000 C 182.904 4.05788 -1.24645 0
M  V30 2001 C 180.811 4.78209 -3.47952 0
M  V30 2002 H 179.741 0.68877 -0.306777 0
M  V30 2003 H 182.392 1.27448 -1.3202 0
M  V30 2004 H 180.774 3.8628 -0.871996 0
M  V30 2005 H 181.948 2.91456 -3.56918 0
M  V30 2006 H 180.263 2.75436 -3.12289 0
M  V30 2007 H 182.86 5.09535 -1.62107 0
M  V30 2008 H 183.203 4.15878 -0.187357 0
M  V30 2009 H 183.736 3.55915 -1.77678 0
M  V30 2010 H 180.475 4.73311 -4.53495 0
M  V30 2011 H 179.995 5.24924 -2.90198 0
M  V30 2012 H 181.674 5.47133 -3.45332 0
M  V30 2013 N 181.806 0.884767 1.30421 0
M  V30 2014 C 182.753 0.349642 2.28136 0
M  V30 2015 C 183.723 -0.560061 1.56373 0
M  V30 2016 O 184.908 -0.488524 1.8444 0
M  V30 2017 C 182.048 -0.42999 3.42411 0
M  V30 2018 C 181.161 0.508907 4.28992 0
M  V30 2019 C 180.296 -0.286301 5.30428 0
M  V30 2020 C 179.335 0.648079 6.08659 0
M  V30 2021 N 178.472 -0.111792 7.02011 0
M  V30 2022 H 183.312 1.18807 2.73293 0
M  V30 2023 H 180.849 0.597231 1.3443 0
M  V30 2024 H 182.807 -0.897923 4.07423 0
M  V30 2025 H 181.437 -1.23299 2.98324 0
M  V30 2026 H 180.489 1.09533 3.64289 0
M  V30 2027 H 181.801 1.22475 4.8353 0
M  V30 2028 H 180.955 -0.816098 6.01186 0
M  V30 2029 H 179.694 -1.03536 4.76583 0
M  V30 2030 H 178.699 1.18951 5.36778 0
M  V30 2031 H 179.924 1.39623 6.64592 0
M  V30 2032 H 177.87 -0.843395 6.50556 0
M  V30 2033 H 177.787 0.544429 7.54037 0
M  V30 2034 H 179.055 -0.622339 7.77012 0
M  V30 2035 N 183.284 -1.43765 0.645699 0
M  V30 2036 C 184.231 -2.30745 -0.0504648 0
M  V30 2037 C 185.201 -1.4432 -0.822241 0
M  V30 2038 O 186.386 -1.73202 -0.800358 0
M  V30 2039 C 183.526 -3.29802 -1.0161 0
M  V30 2040 C 182.639 -4.31326 -0.241219 0
M  V30 2041 C 181.774 -5.17469 -1.19998 0
M  V30 2042 C 180.813 -6.10691 -0.415094 0
M  V30 2043 N 179.95 -6.89483 -1.32506 0
M  V30 2044 H 184.79 -2.8973 0.697155 0
M  V30 2045 H 182.327 -1.42738 0.355563 0
M  V30 2046 H 184.285 -3.85734 -1.58949 0
M  V30 2047 H 182.915 -2.72483 -1.73069 0
M  V30 2048 H 181.967 -3.77749 0.448334 0
M  V30 2049 H 183.279 -4.9743 0.369437 0
M  V30 2050 H 182.433 -5.7799 -1.84424 0
M  V30 2051 H 181.172 -4.51473 -1.84455 0
M  V30 2052 H 180.177 -5.49265 0.242565 0
M  V30 2053 H 181.402 -6.78727 0.224966 0
M  V30 2054 H 179.348 -6.26142 -1.95657 0
M  V30 2055 H 179.265 -7.52081 -0.768783 0
M  V30 2056 H 180.533 -7.54516 -1.9577 0
M  V30 2057 N 184.763 -0.387143 -1.52771 0
M  V30 2058 C 185.993 0.195585 -2.05672 0
M  V30 2059 C 186.401 1.41241 -1.25887 0
M  V30 2060 O 185.744 1.81265 -0.298081 0
M  V30 2061 C 185.806 0.632327 -3.53895 0
M  V30 2062 C 185.47 -0.470739 -4.54569 0
M  V30 2063 C 186.467 -1.32746 -5.02667 0
M  V30 2064 C 184.152 -0.637151 -4.98243 0
M  V30 2065 C 186.146 -2.33574 -5.93061 0
M  V30 2066 C 183.833 -1.64877 -5.88438 0
M  V30 2067 C 184.831 -2.49649 -6.35739 0
M  V30 2068 O 184.519 -3.49082 -7.24153 0
M  V30 2069 H 184.251 0.033658 -0.675162 0
M  V30 2070 H 186.805 -0.550221 -1.97893 0
M  V30 2071 H 185.035 1.43008 -3.59285 0
M  V30 2072 H 186.724 1.14048 -3.89548 0
M  V30 2073 H 187.49 -1.21019 -4.69659 0
M  V30 2074 H 183.369 0.0129567 -4.60998 0
M  V30 2075 H 186.913 -2.99777 -6.29904 0
M  V30 2076 H 182.81 -1.76643 -6.2086 0
M  V30 2077 H 183.578 -3.45065 -7.42208 0
M  V30 2078 N 186.241 1.57166 -0.116904 0
M  V30 2079 C 187.487 1.95412 0.542405 0
M  V30 2080 C 187.82 1.00019 1.66463 0
M  V30 2081 O 187.095 0.0370346 1.94465 0
M  V30 2082 C 187.378 3.43615 1.07708 0
M  V30 2083 C 187.231 4.49781 -0.0415868 0
M  V30 2084 C 188.55 3.93616 1.96861 0
M  V30 2085 H 185.669 0.710543 0.195696 0
M  V30 2086 H 188.311 1.89027 -0.192038 0
M  V30 2087 H 186.461 3.49187 1.70296 0
M  V30 2088 H 188.133 4.56308 -0.676793 0
M  V30 2089 H 186.376 4.28033 -0.705019 0
M  V30 2090 H 187.047 5.50733 0.373717 0
M  V30 2091 H 189.523 3.90335 1.44146 0
M  V30 2092 H 188.399 4.97838 2.3119 0
M  V30 2093 H 188.66 3.34188 2.89432 0
M  V30 2094 N 187.719 -0.156864 1.56817 0
M  V30 2095 C 188.682 -1.17781 1.96622 0
M  V30 2096 C 189.682 -1.36401 0.851555 0
M  V30 2097 O 190.872 -1.33561 1.11836 0
M  V30 2098 C 188.004 -2.54008 2.27361 0
M  V30 2099 H 189.197 -0.836564 2.87996 0
M  V30 2100 H 186.75 -0.39985 1.51099 0
M  V30 2101 H 187.485 -2.9312 1.38748 0
M  V30 2102 H 187.27 -2.41856 3.08623 0
M  V30 2103 H 188.76 -3.27558 2.59029 0
M  V30 2104 N 189.197 -1.51736 -0.425897 0
M  V30 2105 C 190.444 -1.6497 -1.17436 0
M  V30 2106 C 190.772 -0.371445 -1.9092 0
M  V30 2107 O 190.027 0.644963 -1.84767 0
M  V30 2108 C 190.326 -2.81103 -2.20717 0
M  V30 2109 C 189.992 -4.19954 -1.64162 0
M  V30 2110 C 188.654 -4.57725 -1.48462 0
M  V30 2111 C 191.006 -5.06552 -1.22696 0
M  V30 2112 C 188.334 -5.79789 -0.897873 0
M  V30 2113 C 190.686 -6.29205 -0.654464 0
M  V30 2114 C 189.35 -6.6574 -0.484456 0
M  V30 2115 H 188.62 -0.603668 -0.429727 0
M  V30 2116 H 191.267 -1.85798 -0.463829 0
M  V30 2117 H 189.572 -2.54542 -2.97852 0
M  V30 2118 H 191.269 -2.8854 -2.78471 0
M  V30 2119 H 187.859 -3.90181 -1.77361 0
M  V30 2120 H 192.043 -4.77968 -1.33642 0
M  V30 2121 H 187.299 -6.06733 -0.75402 0
M  V30 2122 H 191.473 -6.95643 -0.324694 0
M  V30 2123 H 189.1 -7.60195 -0.0276833 0
M  V30 2124 N 190.675 0.682077 -1.42076 0
M  V30 2125 C 191.605 1.80796 -1.47767 0
M  V30 2126 C 192.586 1.6677 -0.334954 0
M  V30 2127 O 193.771 1.863 -0.548264 0
M  V30 2128 C 190.901 3.19038 -1.37229 0
M  V30 2129 C 189.855 3.47789 -2.49453 0
M  V30 2130 C 189.181 4.8553 -2.23975 0
M  V30 2131 C 190.481 3.45411 -3.91776 0
M  V30 2132 H 192.175 1.7629 -2.41997 0
M  V30 2133 H 189.721 0.846721 -1.16476 0
M  V30 2134 H 191.674 3.97528 -1.39821 0
M  V30 2135 H 190.398 3.24204 -0.394907 0
M  V30 2136 H 189.057 2.71657 -2.46166 0
M  V30 2137 H 188.705 4.87337 -1.24547 0
M  V30 2138 H 188.405 5.0573 -2.99184 0
M  V30 2139 H 189.929 5.66312 -2.28304 0
M  V30 2140 H 191.343 4.13882 -3.96705 0
M  V30 2141 H 189.74 3.77145 -4.66778 0
M  V30 2142 H 190.81 2.44122 -4.18966 0
M  V30 2143 N 192.153 1.28127 0.917671 0
M  V30 2144 C 193.1 1.11717 2.0196 0
M  V30 2145 C 194.07 0.0153929 1.66093 0
M  V30 2146 O 195.255 0.179596 1.89953 0
M  V30 2147 C 192.395 0.780927 3.36148 0
M  V30 2148 C 191.508 1.96135 3.84909 0
M  V30 2149 C 190.643 1.56609 5.0759 0
M  V30 2150 C 189.682 2.71339 5.48673 0
M  V30 2151 N 188.819 2.32332 6.62545 0
M  V30 2152 H 193.659 2.06003 2.15329 0
M  V30 2153 H 191.196 1.02535 1.05475 0
M  V30 2154 H 193.154 0.56675 4.13333 0
M  V30 2155 H 191.784 -0.124998 3.22558 0
M  V30 2156 H 190.836 2.28777 3.03916 0
M  V30 2157 H 192.148 2.82165 4.1132 0
M  V30 2158 H 191.302 1.31374 5.92305 0
M  V30 2159 H 190.041 0.677014 4.82978 0
M  V30 2160 H 189.046 2.97276 4.62501 0
M  V30 2161 H 190.271 3.60882 5.75274 0
M  V30 2162 H 188.217 1.45889 6.39572 0
M  V30 2163 H 188.134 3.11899 6.88662 0
M  V30 2164 H 189.402 2.10371 7.50576 0
M  V30 2165 N 193.631 -1.12557 1.10312 0
M  V30 2166 C 194.561 -2.20341 0.772798 0
M  V30 2167 C 195.542 -1.68198 -0.25365 0
M  V30 2168 O 196.727 -1.93831 -0.119699 0
M  V30 2169 C 193.857 -3.46709 0.202443 0
M  V30 2170 C 192.811 -4.11996 1.15943 0
M  V30 2171 C 192.137 -5.328 0.450345 0
M  V30 2172 C 193.437 -4.5828 2.50552 0
M  V30 2173 H 195.131 -2.48229 1.674 0
M  V30 2174 H 192.677 -1.19308 0.806326 0
M  V30 2175 H 194.63 -4.2138 -0.0407752 0
M  V30 2176 H 193.354 -3.18245 -0.734001 0
M  V30 2177 H 192.013 -3.39305 1.38808 0
M  V30 2178 H 191.661 -5.00602 -0.490531 0
M  V30 2179 H 191.361 -5.7743 1.08851 0
M  V30 2180 H 192.885 -6.10219 0.215642 0
M  V30 2181 H 194.299 -5.2433 2.31843 0
M  V30 2182 H 192.696 -5.13683 3.10242 0
M  V30 2183 H 193.766 -3.72329 3.10643 0
M  V30 2184 N 195.109 -0.891671 -1.2995 0
M  V30 2185 C 196.356 -0.513501 -1.95881 0
M  V30 2186 C 196.684 0.938655 -1.70351 0
M  V30 2187 O 195.939 1.67936 -1.00478 0
M  V30 2188 C 196.238 -0.742868 -3.49594 0
M  V30 2189 C 195.904 -2.17114 -3.95186 0
M  V30 2190 C 194.566 -2.56169 -4.07346 0
M  V30 2191 C 196.918 -3.10162 -4.18866 0
M  V30 2192 C 194.246 -3.87469 -4.4055 0
M  V30 2193 C 196.598 -4.41001 -4.53542 0
M  V30 2194 C 195.262 -4.79941 -4.63911 0
M  V30 2195 H 194.532 -0.187903 -0.71678 0
M  V30 2196 H 197.179 -1.1288 -1.54694 0
M  V30 2197 H 195.484 -0.044586 -3.91775 0
M  V30 2198 H 197.181 -0.429767 -3.9869 0
M  V30 2199 H 193.771 -1.85801 -3.86233 0
M  V30 2200 H 197.955 -2.81206 -4.08946 0
M  V30 2201 H 193.211 -4.17371 -4.46779 0
M  V30 2202 H 197.385 -5.13133 -4.70815 0
M  V30 2203 H 195.012 -5.81719 -4.89395 0
M  V30 2204 N 196.587 1.43421 -0.653314 0
M  V30 2205 C 197.517 2.33487 0.0246656 0
M  V30 2206 C 198.498 1.49475 0.811863 0
M  V30 2207 O 199.683 1.78139 0.773322 0
M  V30 2208 C 196.813 3.32841 0.99166 0
M  V30 2209 C 195.767 4.26842 0.314568 0
M  V30 2210 C 195.093 5.16236 1.39302 0
M  V30 2211 C 196.393 5.16243 -0.793095 0
M  V30 2212 H 198.087 2.90427 -0.727481 0
M  V30 2213 H 195.633 1.39649 -0.351287 0
M  V30 2214 H 197.586 3.94747 1.47487 0
M  V30 2215 H 196.31 2.74158 1.77497 0
M  V30 2216 H 194.969 3.663 -0.148199 0
M  V30 2217 H 194.617 4.53891 2.16776 0
M  V30 2218 H 194.317 5.79948 0.945223 0
M  V30 2219 H 195.841 5.81015 1.87759 0
M  V30 2220 H 197.255 5.71958 -0.392039 0
M  V30 2221 H 195.652 5.88676 -1.16536 0
M  V30 2222 H 196.722 4.55927 -1.65103 0
M  V30 2223 N 198.065 0.39524 1.52563 0
M  V30 2224 C 198.975 -0.444232 2.30356 0
M  V30 2225 C 199.991 -1.06615 1.37511 0
M  V30 2226 O 201.167 -1.07067 1.70583 0
M  V30 2227 C 198.232 -1.55315 3.09964 0
M  V30 2228 C 197.293 -0.955734 4.18526 0
M  V30 2229 C 196.526 -2.01181 4.9433 0
M  V30 2230 O 196.749 -3.22781 4.70285 0
M  V30 2231 O 195.683 -1.62579 5.79527 0
M  V30 2232 H 199.509 0.189667 3.03107 0
M  V30 2233 H 197.094 0.1588 1.48554 0
M  V30 2234 H 198.976 -2.19724 3.59582 0
M  V30 2235 H 197.651 -2.17191 2.4002 0
M  V30 2236 H 196.558 -0.274743 3.7309 0
M  V30 2237 H 197.891 -0.381109 4.90722 0
M  V30 2238 N 199.544 -1.57102 0.125237 0
M  V30 2239 C 200.772 -1.99761 -0.538797 0
M  V30 2240 C 201.187 -1.00503 -1.59827 0
M  V30 2241 O 200.544 0.00119474 -1.825 0
M  V30 2242 C 200.595 -3.42408 -1.15927 0
M  V30 2243 O 200.316 -4.37869 -0.142143 0
M  V30 2244 C 201.817 -4.00232 -1.90602 0
M  V30 2245 H 199.037 -0.655772 -0.14214 0
M  V30 2246 H 201.581 -2.03383 0.213413 0
M  V30 2247 H 199.736 -3.39706 -1.86223 0
M  V30 2248 H 200.15 -5.21128 -0.593775 0
M  V30 2249 H 201.624 -5.02105 -2.29335 0
M  V30 2250 H 202.101 -3.39721 -2.78363 0
M  V30 2251 H 202.707 -4.06499 -1.25055 0
M  V30 2252 N 201.022 0.148545 -1.56898 0
M  V30 2253 C 201.985 1.16736 -1.97244 0
M  V30 2254 C 202.985 1.35947 -0.858777 0
M  V30 2255 O 204.175 1.32966 -1.12542 0
M  V30 2256 C 201.307 2.52798 -2.28705 0
M  V30 2257 H 202.5 0.821279 -2.88435 0
M  V30 2258 H 200.053 0.391831 -1.51309 0
M  V30 2259 H 200.788 2.92381 -1.403 0
M  V30 2260 H 200.573 2.40216 -3.09901 0
M  V30 2261 H 202.063 3.26179 -2.60762 0
M  V30 2262 N 202.5 1.5196 0.417844 0
M  V30 2263 C 203.41 1.77554 1.53336 0
M  V30 2264 C 204.426 0.660655 1.6097 0
M  V30 2265 O 205.602 0.945099 1.77848 0
M  V30 2266 C 202.667 1.91291 2.89152 0
M  V30 2267 C 201.728 3.15183 2.91475 0
M  V30 2268 C 200.961 3.28256 4.20813 0
M  V30 2269 O 201.184 2.46798 5.14244 0
M  V30 2270 O 200.118 4.21356 4.29817 0
M  V30 2271 H 203.944 2.7222 1.34647 0
M  V30 2272 H 201.529 1.36698 0.602828 0
M  V30 2273 H 203.411 2.02199 3.69721 0
M  V30 2274 H 202.086 0.998129 3.07927 0
M  V30 2275 H 200.993 3.09739 2.09791 0
M  V30 2276 H 202.326 4.06414 2.77648 0
M  V30 2277 N 203.978 -0.674533 1.42435 0
M  V30 2278 C 204.925 -1.78807 1.45934 0
M  V30 2279 C 205.895 -1.63157 0.311271 0
M  V30 2280 O 207.08 -1.83707 0.515383 0
M  V30 2281 C 204.22 -3.16839 1.36773 0
M  V30 2282 C 203.333 -3.43774 2.61617 0
M  V30 2283 C 202.468 -4.71536 2.44597 0
M  V30 2284 C 201.507 -4.91505 3.64814 0
M  V30 2285 N 200.644 -6.10508 3.46734 0
M  V30 2286 H 205.484 -1.75151 2.41093 0
M  V30 2287 H 203.021 -0.85504 1.19697 0
M  V30 2288 H 204.979 -3.96606 1.29459 0
M  V30 2289 H 203.609 -3.19619 0.452089 0
M  V30 2290 H 202.661 -2.58259 2.79297 0
M  V30 2291 H 203.973 -3.54423 3.50978 0
M  V30 2292 H 203.127 -5.59393 2.3487 0
M  V30 2293 H 201.866 -4.6317 1.52726 0
M  V30 2294 H 200.871 -4.0209 3.74972 0
M  V30 2295 H 202.096 -5.01716 4.57665 0
M  V30 2296 H 200.042 -6.03315 2.5758 0
M  V30 2297 H 199.959 -6.2202 4.29682 0
M  V30 2298 H 201.227 -7.01044 3.40819 0
M  V30 2299 N 205.456 -1.28612 -0.910864 0
M  V30 2300 C 206.406 -1.09423 -2.00026 0
M  V30 2301 C 207.39 -0.0170079 -1.60891 0
M  V30 2302 O 208.582 -0.237472 -1.754 0
M  V30 2303 C 205.711 -0.76114 -3.34756 0
M  V30 2304 C 204.797 -1.87735 -3.80285 0
M  V30 2305 N 205.188 -3.11938 -3.98156 0
M  V30 2306 C 203.486 -1.76786 -4.09467 0
M  V30 2307 C 204.187 -3.84687 -4.36338 0
M  V30 2308 N 203.163 -3.12555 -4.44759 0
M  V30 2309 H 206.965 -2.03658 -2.11898 0
M  V30 2310 H 204.479 -1.19573 -1.09891 0
M  V30 2311 H 206.476 -0.604743 -4.12491 0
M  V30 2312 H 205.136 0.173403 -3.24237 0
M  V30 2313 H 206.147 -3.47516 -3.83996 0
M  V30 2314 H 202.824 -0.905284 -4.07567 0
M  V30 2315 H 204.214 -4.91518 -4.58104 0
M  V30 2316 N 206.934 1.1197 -1.10907 0
M  V30 2317 C 208.181 1.83588 -0.854507 0
M  V30 2318 C 208.509 1.84357 0.6199 0
M  V30 2319 O 207.764 1.28809 1.47332 0
M  V30 2320 C 208.063 3.30749 -1.35425 0
M  V30 2321 C 207.729 3.50146 -2.84093 0
M  V30 2322 C 206.391 3.55148 -3.2469 0
M  V30 2323 C 208.743 3.56857 -3.79872 0
M  V30 2324 C 206.071 3.6441 -4.59806 0
M  V30 2325 C 208.423 3.6765 -5.14797 0
M  V30 2326 C 207.087 3.7091 -5.54961 0
M  V30 2327 H 206.357 0.671795 -0.312686 0
M  V30 2328 H 209.004 1.32091 -1.38652 0
M  V30 2329 H 207.309 3.84703 -0.742361 0
M  V30 2330 H 209.006 3.8464 -1.1337 0
M  V30 2331 H 205.596 3.46919 -2.51685 0
M  V30 2332 H 209.78 3.52258 -3.49611 0
M  V30 2333 H 205.036 3.65208 -4.9034 0
M  V30 2334 H 209.21 3.71786 -5.88853 0
M  V30 2335 H 206.837 3.7784 -6.59652 0
M  V30 2336 N 208.412 0.89855 1.29475 0
M  V30 2337 C 209.345 0.319981 2.25945 0
M  V30 2338 C 210.323 -0.567189 1.52387 0
M  V30 2339 O 211.507 -0.514254 1.8135 0
M  V30 2340 C 208.634 -0.544013 3.34303 0
M  V30 2341 C 207.68 0.275682 4.25608 0
M  V30 2342 S 208.513 1.67272 5.08704 0
M  V30 2343 C 209.669 0.815621 6.20563 0
M  V30 2344 H 209.902 1.13767 2.74671 0
M  V30 2345 H 207.435 0.69882 1.3768 0
M  V30 2346 H 209.393 -1.03673 3.97193 0
M  V30 2347 H 208.054 -1.33593 2.84274 0
M  V30 2348 H 207.247 -0.384263 5.02533 0
M  V30 2349 H 206.849 0.701496 3.67362 0
M  V30 2350 H 209.141 0.0385042 6.77489 0
M  V30 2351 H 210.084 1.55691 6.90772 0
M  V30 2352 H 210.492 0.370516 5.63283 0
M  V30 2353 N 209.89 -1.43072 0.660911 0
M  V30 2354 C 211.136 -2.0202 0.177708 0
M  V30 2355 C 211.469 -1.52066 -1.20787 0
M  V30 2356 O 210.744 -0.716987 -1.80802 0
M  V30 2357 C 211.027 -3.59561 0.197019 0
M  V30 2358 C 210.88 -4.19727 1.61706 0
M  V30 2359 C 212.199 -4.37664 -0.462396 0
M  V30 2360 H 209.318 -0.734034 0.0660494 0
M  V30 2361 H 211.96 -1.70272 0.843058 0
M  V30 2362 H 210.11 -3.86739 -0.369527 0
M  V30 2363 H 211.782 -4.03553 2.23479 0
M  V30 2364 H 210.025 -3.76084 2.16201 0
M  V30 2365 H 210.696 -5.28834 1.58237 0
M  V30 2366 H 213.172 -4.16095 0.0197215 0
M  V30 2367 H 212.048 -5.47305 -0.418188 0
M  V30 2368 H 212.309 -4.14493 -1.53778 0
M  V30 2369 N 211.368 -0.403325 -1.52352 0
M  V30 2370 C 212.616 0.174003 -2.0135 0
M  V30 2371 C 212.937 1.46139 -1.29106 0
M  V30 2372 O 212.207 1.91448 -0.415253 0
M  V30 2373 H 210.787 0.0672911 -0.743963 0
M  V30 2374 H 213.449 -0.538235 -1.87321 0
M  V30 2375 H 212.545 0.374254 -3.09848 0
M  V30 2376 N 212.846 1.57033 -0.133567 0
M  V30 2377 C 213.796 2.12641 0.822671 0
M  V30 2378 C 214.78 1.05081 1.21847 0
M  V30 2379 O 215.972 1.31287 1.18713 0
M  V30 2380 C 213.101 2.74094 2.06706 0
M  V30 2381 C 212.187 3.88757 1.69497 0
M  V30 2382 N 212.578 4.95194 1.03037 0
M  V30 2383 C 210.876 3.99213 1.98859 0
M  V30 2384 C 211.577 5.75414 0.852873 0
M  V30 2385 N 210.553 5.25726 1.3825 0
M  V30 2386 H 214.355 2.92308 0.305537 0
M  V30 2387 H 211.869 1.62256 0.0684276 0
M  V30 2388 H 213.866 3.12285 2.76195 0
M  V30 2389 H 212.526 1.95896 2.5895 0
M  V30 2390 H 213.537 5.13247 0.692669 0
M  V30 2391 H 210.214 3.32075 2.53047 0
M  V30 2392 H 211.604 6.71089 0.330091 0
M  V30 2393 N 214.325 -0.140222 1.56975 0
M  V30 2394 C 215.741 -0.493088 1.51792 0
M  V30 2395 C 215.941 -1.83013 0.843116 0
M  V30 2396 O 214.997 -2.49041 0.416493 0
M  V30 2397 C 216.31 -0.497144 2.96562 0
M  V30 2398 C 217.858 -0.582186 3.07538 0
M  V30 2399 C 218.333 -0.616838 4.53827 0
M  V30 2400 N 219.824 -0.678873 4.58198 0
M  V30 2401 C 220.559 -0.726782 5.68775 0
M  V30 2402 N 220.055 -0.733623 6.88905 0
M  V30 2403 N 221.848 -0.768179 5.56826 0
M  V30 2404 H 213.999 0.736108 1.99237 0
M  V30 2405 H 216.262 0.269182 0.90898 0
M  V30 2406 H 215.968 0.417217 3.49217 0
M  V30 2407 H 215.842 -1.33263 3.52875 0
M  V30 2408 H 218.229 -1.48697 2.54899 0
M  V30 2409 H 218.31 0.280581 2.54257 0
M  V30 2410 H 217.954 0.283812 5.07106 0
M  V30 2411 H 217.884 -1.49619 5.04898 0
M  V30 2412 H 220.375 -0.68061 3.7172 0
M  V30 2413 H 220.688 -0.772215 7.68932 0
M  V30 2414 H 219.033 -0.701389 6.91452 0
M  V30 2415 H 222.224 -0.760051 4.61888 0
M  V30 2416 H 222.397 -0.80205 6.43017 0
M  V30 2417 N 215.803 -1.52179 -0.40978 0
M  V30 2418 C 217.049 -1.66453 -1.15851 0
M  V30 2419 C 217.382 -0.392972 -1.90182 0
M  V30 2420 O 216.657 0.608579 -1.84734 0
M  V30 2421 C 216.94 -2.88612 -2.15349 0
M  V30 2422 C 216.793 -4.25815 -1.44918 0
M  V30 2423 C 218.112 -3.06294 -3.16026 0
M  V30 2424 H 215.231 -0.60575 -0.419805 0
M  V30 2425 H 217.873 -1.84732 -0.444314 0
M  V30 2426 H 216.023 -2.73158 -2.76255 0
M  V30 2427 H 217.695 -4.52995 -0.871365 0
M  V30 2428 H 215.938 -4.27247 -0.751159 0
M  V30 2429 H 216.609 -5.07337 -2.17516 0
M  V30 2430 H 219.085 -3.20641 -2.65195 0
M  V30 2431 H 217.961 -3.93283 -3.8291 0
M  V30 2432 H 218.222 -2.19579 -3.83715 0
M  V30 2433 N 217.281 0.66697 -1.42791 0
M  V30 2434 C 218.231 1.77313 -1.43332 0
M  V30 2435 C 219.215 1.5801 -0.303586 0
M  V30 2436 O 220.407 1.68356 -0.546385 0
M  V30 2437 C 217.536 3.15822 -1.34578 0
M  V30 2438 C 216.622 3.40721 -2.52528 0
M  V30 2439 N 217.013 3.36162 -3.77927 0
M  V30 2440 C 215.311 3.71387 -2.46956 0
M  V30 2441 C 216.012 3.60762 -4.56318 0
M  V30 2442 N 214.988 3.81908 -3.86843 0
M  V30 2443 H 218.79 1.72193 -2.38174 0
M  V30 2444 H 216.304 0.868114 -1.3725 0
M  V30 2445 H 218.301 3.951 -1.33048 0
M  V30 2446 H 216.961 3.22133 -0.407453 0
M  V30 2447 H 217.972 3.15885 -4.10411 0
M  V30 2448 H 214.649 3.84897 -1.61743 0
M  V30 2449 H 216.039 3.63132 -5.65318 0
M  V30 2450 N 218.759 1.29093 0.90403 0
M  V30 2451 C 219.989 1.19516 1.68522 0
M  V30 2452 C 220.397 -0.24738 1.87576 0
M  V30 2453 O 219.74 -1.17798 1.40959 0
M  V30 2454 C 219.802 1.83249 3.0929 0
M  V30 2455 C 219.466 3.32531 3.13484 0
M  V30 2456 C 220.463 4.28821 2.93953 0
M  V30 2457 C 218.148 3.73656 3.35688 0
M  V30 2458 C 220.142 5.64212 2.96553 0
M  V30 2459 C 217.829 5.0917 3.37919 0
M  V30 2460 C 218.827 6.04258 3.18373 0
M  V30 2461 O 218.515 7.37298 3.20385 0
M  V30 2462 H 218.247 0.415467 0.533257 0
M  V30 2463 H 220.801 1.70912 1.13922 0
M  V30 2464 H 219.031 1.26358 3.65473 0
M  V30 2465 H 220.72 1.68054 3.69476 0
M  V30 2466 H 221.486 3.98382 2.76616 0
M  V30 2467 H 217.365 3.00101 3.49943 0
M  V30 2468 H 220.909 6.38407 2.81216 0
M  V30 2469 H 216.806 5.39256 3.54787 0
M  V30 2470 H 217.574 7.46048 3.36681 0
M  V30 2471 N 220.237 -1.11381 1.11499 0
M  V30 2472 C 221.467 -1.86663 0.885464 0
M  V30 2473 C 221.875 -1.80464 -0.568281 0
M  V30 2474 O 221.218 -1.18445 -1.40415 0
M  V30 2475 C 221.28 -3.36337 1.26956 0
M  V30 2476 C 220.944 -3.66304 2.73259 0
M  V30 2477 C 221.941 -3.63733 3.71476 0
M  V30 2478 C 219.626 -3.9529 3.09921 0
M  V30 2479 C 221.62 -3.89725 5.04374 0
M  V30 2480 C 219.307 -4.20941 4.43004 0
M  V30 2481 C 220.305 -4.18147 5.40039 0
M  V30 2482 O 219.993 -4.43153 6.70724 0
M  V30 2483 H 219.725 -0.597114 0.316908 0
M  V30 2484 H 222.279 -1.41782 1.48617 0
M  V30 2485 H 220.509 -3.81826 0.611999 0
M  V30 2486 H 222.198 -3.92986 1.01573 0
M  V30 2487 H 222.964 -3.41389 3.44498 0
M  V30 2488 H 218.843 -3.966 2.35009 0
M  V30 2489 H 222.387 -3.8746 5.80104 0
M  V30 2490 H 218.284 -4.42761 4.69716 0
M  V30 2491 H 219.052 -4.60717 6.76522 0
M  V30 2492 N 221.715 -0.905404 -1.28997 0
M  V30 2493 C 222.961 -0.535039 -1.95615 0
M  V30 2494 C 223.294 0.917404 -1.71165 0
M  V30 2495 O 222.569 1.65123 -1.02785 0
M  V30 2496 C 222.852 -0.834918 -3.50287 0
M  V30 2497 C 222.705 -2.33948 -3.84172 0
M  V30 2498 C 224.024 -0.325318 -4.38896 0
M  V30 2499 H 221.143 -0.195861 -0.710498 0
M  V30 2500 H 223.785 -1.13313 -1.52513 0
M  V30 2501 H 221.935 -0.325904 -3.87131 0
M  V30 2502 H 223.607 -2.91847 -3.57243 0
M  V30 2503 H 221.85 -2.79789 -3.31513 0
M  V30 2504 H 222.521 -2.49987 -4.92149 0
M  V30 2505 H 224.997 -0.761256 -4.09077 0
M  V30 2506 H 223.873 -0.564295 -5.45992 0
M  V30 2507 H 224.134 0.774144 -4.35269 0
M  V30 2508 N 223.193 1.4272 -0.668489 0
M  V30 2509 C 224.44 2.01624 -0.18814 0
M  V30 2510 C 224.768 1.5282 1.20317 0
M  V30 2511 O 224.023 0.718323 1.8204 0
M  V30 2512 C 224.322 3.57021 -0.164499 0
M  V30 2513 C 223.988 4.25232 -1.49962 0
M  V30 2514 C 222.65 4.4358 -1.8652 0
M  V30 2515 C 225.002 4.63727 -2.37921 0
M  V30 2516 C 222.33 4.97694 -3.10674 0
M  V30 2517 C 224.682 5.19218 -3.6138 0
M  V30 2518 C 223.346 5.3578 -3.98115 0
M  V30 2519 H 222.616 0.737795 -0.0688454 0
M  V30 2520 H 225.263 1.70991 -0.862225 0
M  V30 2521 H 223.568 3.87285 0.593079 0
M  V30 2522 H 225.265 4.00372 0.224271 0
M  V30 2523 H 221.855 4.11306 -1.20522 0
M  V30 2524 H 226.039 4.4923 -2.10964 0
M  V30 2525 H 221.295 5.08702 -3.39164 0
M  V30 2526 H 225.469 5.4799 -4.29743 0
M  V30 2527 H 223.096 5.77475 -4.94395 0
M  V30 2528 N 224.671 0.411399 1.52136 0
M  V30 2529 C 225.899 -0.163076 2.06256 0
M  V30 2530 C 226.314 -1.3867 1.28125 0
M  V30 2531 O 225.671 -1.79423 0.333721 0
M  V30 2532 C 225.722 -0.511252 3.57867 0
M  V30 2533 O 225.443 0.66378 4.33042 0
M  V30 2534 C 226.944 -1.13921 4.28412 0
M  V30 2535 H 224.164 -0.0193897 0.67072 0
M  V30 2536 H 226.708 0.583007 1.96013 0
M  V30 2537 H 224.863 -1.20723 3.6811 0
M  V30 2538 H 225.277 0.372601 5.23175 0
M  V30 2539 H 226.751 -1.33302 5.35663 0
M  V30 2540 H 227.228 -2.11296 3.85033 0
M  V30 2541 H 227.834 -0.483373 4.22544 0
M  V30 2542 N 226.149 -1.5696 0.141893 0
M  V30 2543 C 227.426 -1.87553 -0.555281 0
M  V30 2544 C 227.806 -1.04699 -1.83306 0
M  V30 2545 O 227.154 -0.132346 -2.28116 0
M  V30 2546 C 227.364 -3.39093 -0.825664 0
M  V30 2547 C 228.712 -4.08199 -1.16869 0
M  V30 2548 O 229.736 -3.44242 -0.915185 0
M  V30 2549 O 228.595 -5.21139 -1.6455 0
M  V30 2550 H 225.689 -0.777188 -0.282679 0
M  V30 2551 H 228.235 -1.68763 0.17812 0
M  V30 2552 H 227.007 -3.91221 0.0788633 0
M  V30 2553 H 226.63 -3.63393 -1.61343 0
M  V30 2554 N 227.627 0.131896 -1.57047 0
M  V30 2555 C 228.559 1.1878 -1.9602 0
M  V30 2556 C 229.572 1.38363 -0.857875 0
M  V30 2557 O 230.761 1.37666 -1.13623 0
M  V30 2558 C 227.861 2.55008 -2.23213 0
M  V30 2559 C 227.034 2.56201 -3.54513 0
M  V30 2560 C 226.093 3.7408 -3.70069 0
M  V30 2561 O 225.119 3.58258 -4.42312 0
M  V30 2562 N 226.321 4.92137 -3.07866 0
M  V30 2563 H 229.086 0.85639 -2.87204 0
M  V30 2564 H 226.647 0.321309 -1.5868 0
M  V30 2565 H 228.639 3.32404 -2.30846 0
M  V30 2566 H 227.209 2.80382 -1.3822 0
M  V30 2567 H 226.429 1.64613 -3.58185 0
M  V30 2568 H 227.717 2.54043 -4.4084 0
M  V30 2569 H 227.115 5.07895 -2.49116 0
M  V30 2570 H 225.672 5.67254 -3.21039 0
M  V30 2571 N 229.106 1.52395 0.401703 0
M  V30 2572 C 230.517 1.58899 0.980202 0
M  V30 2573 C 230.868 0.434032 1.91339 0
M  V30 2574 O 229.993 -0.444619 2.11783 0
M  V30 2575 C 230.588 2.87994 1.78451 0
M  V30 2576 C 229.147 2.96953 2.31292 0
M  V30 2577 C 228.294 2.53903 1.11483 0
M  V30 2578 H 231.245 1.57657 0.18168 0
M  V30 2579 H 231.266 2.73765 2.64259 0
M  V30 2580 H 230.778 3.72035 1.10506 0
M  V30 2581 H 228.879 2.17422 3.02586 0
M  V30 2582 H 228.992 4.01344 2.61649 0
M  V30 2583 H 227.356 2.07925 1.47104 0
M  V30 2584 H 228.139 3.40326 0.450928 0
M  V30 2585 N 230.584 -0.659388 1.43143 0
M  V30 2586 C 231.547 -1.75432 1.47501 0
M  V30 2587 C 232.547 -1.56707 0.360512 0
M  V30 2588 O 233.737 -1.62717 0.622002 0
M  V30 2589 C 230.869 -3.14239 1.32162 0
M  V30 2590 H 232.062 -1.7295 2.45006 0
M  V30 2591 H 229.615 -0.870469 1.29817 0
M  V30 2592 H 230.35 -3.22336 0.356401 0
M  V30 2593 H 230.135 -3.29235 2.12948 0
M  V30 2594 H 231.625 -3.94094 1.3813 0
M  V30 2595 N 232.062 -1.29571 -0.897171 0
M  V30 2596 C 233.025 -1.14913 -1.98312 0
M  V30 2597 C 234.025 -0.0838629 -1.60581 0
M  V30 2598 O 235.215 -0.331006 -1.71026 0
M  V30 2599 C 232.347 -0.757835 -3.3237 0
M  V30 2600 H 233.54 -2.11377 -2.12743 0
M  V30 2601 H 231.093 -1.12793 -1.08201 0
M  V30 2602 H 231.828 0.206837 -3.2364 0
M  V30 2603 H 231.613 -1.52755 -3.61121 0
M  V30 2604 H 233.103 -0.678408 -4.12053 0
M  V30 2605 N 233.54 1.10788 -1.12088 0
M  V30 2606 C 234.786 1.82942 -0.875226 0
M  V30 2607 C 235.119 1.84779 0.597538 0
M  V30 2608 O 234.394 1.30578 1.44152 0
M  V30 2609 C 234.677 3.29789 -1.44606 0
M  V30 2610 C 234.53 3.36307 -2.98693 0
M  V30 2611 C 235.849 4.26064 -1.10261 0
M  V30 2612 H 232.968 0.664195 -0.319397 0
M  V30 2613 H 235.61 1.29867 -1.38689 0
M  V30 2614 H 233.76 3.75118 -1.01089 0
M  V30 2615 H 235.432 2.99487 -3.50864 0
M  V30 2616 H 233.675 2.76318 -3.34411 0
M  V30 2617 H 234.346 4.39694 -3.33726 0
M  V30 2618 H 236.822 3.88951 -1.4784 0
M  V30 2619 H 235.698 5.27183 -1.52869 0
M  V30 2620 H 235.959 4.42098 -0.0142953 0
M  V30 2621 N 235.018 0.912232 1.28515 0
M  V30 2622 C 236.429 0.591352 1.77087 0
M  V30 2623 C 236.78 -0.8933 1.74684 0
M  V30 2624 O 235.905 -1.69876 1.34056 0
M  V30 2625 C 236.5 1.06668 3.2157 0
M  V30 2626 C 235.059 0.79675 3.67871 0
M  V30 2627 C 234.206 1.23427 2.48316 0
M  V30 2628 H 237.157 1.09365 1.15 0
M  V30 2629 H 237.178 0.407455 3.78312 0
M  V30 2630 H 236.69 2.14726 3.23287 0
M  V30 2631 H 234.791 -0.270679 3.71616 0
M  V30 2632 H 234.904 1.40343 4.58084 0
M  V30 2633 H 233.268 0.653036 2.46186 0
M  V30 2634 H 234.051 2.32316 2.52753 0
M  V30 2635 N 236.496 -1.42363 0.676048 0
M  V30 2636 C 237.912 -1.55811 0.345718 0
M  V30 2637 C 238.112 -1.65544 -1.14879 0
M  V30 2638 O 237.168 -1.62306 -1.93424 0
M  V30 2639 C 238.481 -2.80746 1.07713 0
M  V30 2640 C 240.029 -2.9452 1.05958 0
M  V30 2641 C 240.504 -4.22318 1.77233 0
M  V30 2642 N 241.995 -4.29233 1.74108 0
M  V30 2643 C 242.73 -5.26935 2.26113 0
M  V30 2644 N 242.226 -6.30783 2.86505 0
M  V30 2645 N 244.019 -5.18741 2.1648 0
M  V30 2646 H 236.17 -1.34289 1.6456 0
M  V30 2647 H 238.433 -0.646506 0.69335 0
M  V30 2648 H 238.139 -2.79696 2.13221 0
M  V30 2649 H 238.013 -3.71676 0.64316 0
M  V30 2650 H 240.4 -2.95097 0.0128255 0
M  V30 2651 H 240.481 -2.04817 1.53244 0
M  V30 2652 H 240.125 -4.22502 2.81877 0
M  V30 2653 H 240.055 -5.10958 1.27396 0
M  V30 2654 H 242.546 -3.54814 1.30059 0
M  V30 2655 H 242.859 -7.01691 3.23805 0
M  V30 2656 H 241.204 -6.31341 2.90575 0
M  V30 2657 H 244.395 -4.36533 1.68987 0
M  V30 2658 H 244.568 -5.94721 2.57316 0
M  V30 2659 N 237.974 -0.419461 -1.51915 0
M  V30 2660 C 239.22 0.153166 -2.02221 0
M  V30 2661 C 239.553 1.43907 -1.30401 0
M  V30 2662 O 238.828 1.90055 -0.413438 0
M  V30 2663 C 239.111 0.390291 -3.57979 0
M  V30 2664 C 238.964 -0.913014 -4.40436 0
M  V30 2665 C 240.283 1.16794 -4.2432 0
M  V30 2666 H 237.402 0.0541924 -0.735005 0
M  V30 2667 H 240.044 -0.554955 -1.81715 0
M  V30 2668 H 238.194 0.993491 -3.75582 0
M  V30 2669 H 239.866 -1.54882 -4.34522 0
M  V30 2670 H 238.109 -1.52168 -4.06236 0
M  V30 2671 H 238.78 -0.701361 -5.47526 0
M  V30 2672 H 241.256 0.657161 -4.10878 0
M  V30 2673 H 240.132 1.3026 -5.3322 0
M  V30 2674 H 240.393 2.19132 -3.83971 0
M  V30 2675 N 239.452 1.56882 -0.150215 0
M  V30 2676 C 240.68 2.00593 0.506948 0
M  V30 2677 C 241.095 1.03033 1.58208 0
M  V30 2678 O 240.452 0.0278396 1.82479 0
M  V30 2679 C 240.503 3.44209 1.10465 0
M  V30 2680 O 240.224 4.3804 0.0724636 0
M  V30 2681 C 241.725 4.03214 1.84211 0
M  V30 2682 H 238.945 0.65795 0.13169 0
M  V30 2683 H 241.489 2.03018 -0.245743 0
M  V30 2684 H 239.644 3.42625 1.80795 0
M  V30 2685 H 240.058 5.22007 0.510793 0
M  V30 2686 H 241.532 5.0569 2.21318 0
M  V30 2687 H 242.009 3.44107 2.72923 0
M  V30 2688 H 242.615 4.08437 1.18572 0
M  V30 2689 N 240.93 -0.123565 1.57115 0
M  V30 2690 C 241.86 -1.15309 2.03042 0
M  V30 2691 C 242.841 -1.43454 0.914061 0
M  V30 2692 O 244.026 -1.53973 1.18347 0
M  V30 2693 C 241.156 -2.48043 2.43089 0
M  V30 2694 C 240.11 -2.3437 3.58127 0
M  V30 2695 C 239.436 -3.72026 3.84059 0
M  V30 2696 C 240.736 -1.80804 4.90007 0
M  V30 2697 H 242.43 -0.771102 2.893 0
M  V30 2698 H 239.976 -0.369479 1.39179 0
M  V30 2699 H 241.929 -3.20311 2.73823 0
M  V30 2700 H 240.653 -2.88122 1.53796 0
M  V30 2701 H 239.312 -1.64551 3.27595 0
M  V30 2702 H 238.96 -4.09582 2.91979 0
M  V30 2703 H 238.66 -3.63732 4.6149 0
M  V30 2704 H 240.184 -4.45806 4.1724 0
M  V30 2705 H 241.598 -2.42886 5.19307 0
M  V30 2706 H 239.995 -1.83343 5.71407 0
M  V30 2707 H 241.065 -0.76528 4.78823 0
M  V30 2708 N 242.408 -1.52605 -0.393616 0
M  V30 2709 C 243.656 -1.67093 -1.13685 0
M  V30 2710 C 243.977 -0.411011 -1.90619 0
M  V30 2711 O 243.247 0.574491 -1.87287 0
M  V30 2712 H 241.827 -0.615923 -0.422668 0
M  V30 2713 H 244.489 -1.89704 -0.447039 0
M  V30 2714 H 243.585 -2.51922 -1.84232 0
M  V30 2715 N 243.887 0.651787 -1.4349 0
M  V30 2716 C 245.115 1.43937 -1.48626 0
M  V30 2717 C 245.53 1.8851 -0.104587 0
M  V30 2718 O 244.887 1.5958 0.885464 0
M  V30 2719 C 244.938 2.6734 -2.43334 0
M  V30 2720 O 244.659 2.24631 -3.76128 0
M  V30 2721 C 246.16 3.60683 -2.57726 0
M  V30 2722 H 243.38 0.44213 -0.504739 0
M  V30 2723 H 245.924 0.798944 -1.88248 0
M  V30 2724 H 244.079 3.2752 -2.06904 0
M  V30 2725 H 244.493 3.04485 -4.2707 0
M  V30 2726 H 245.967 4.43933 -3.28067 0
M  V30 2727 H 246.444 4.08126 -1.62265 0
M  V30 2728 H 247.05 3.06384 -2.94973 0
M  V30 2729 N 245.365 1.30045 0.890287 0
M  V30 2730 C 246.613 1.18327 1.63839 0
M  V30 2731 C 246.934 -0.263455 1.93212 0
M  V30 2732 O 246.204 -1.17856 1.56482 0
M  V30 2733 H 244.784 0.434933 0.607324 0
M  V30 2734 H 247.446 1.631 1.06698 0
M  V30 2735 H 246.542 1.74024 2.59079 0
M  V30 2736 N 246.843 -1.10192 1.12674 0
M  V30 2737 C 248.259 -1.34235 0.863317 0
M  V30 2738 C 248.459 -1.95062 -0.505277 0
M  V30 2739 O 247.515 -2.19192 -1.25345 0
M  V30 2740 C 248.828 -2.2616 1.98172 0
M  V30 2741 C 250.376 -2.3969 2.0129 0
M  V30 2742 C 250.851 -3.34946 3.1237 0
M  V30 2743 N 252.342 -3.42515 3.11829 0
M  V30 2744 C 253.077 -4.16199 3.94419 0
M  V30 2745 N 252.573 -4.92747 4.87004 0
M  V30 2746 N 254.366 -4.11843 3.82547 0
M  V30 2747 H 246.517 -0.690798 2.00853 0
M  V30 2748 H 248.78 -0.366774 0.874174 0
M  V30 2749 H 248.486 -1.8868 2.96804 0
M  V30 2750 H 248.36 -3.26488 1.88906 0
M  V30 2751 H 250.747 -2.76438 1.03276 0
M  V30 2752 H 250.828 -1.39169 2.14629 0
M  V30 2753 H 250.472 -2.98923 4.10619 0
M  V30 2754 H 250.402 -4.35353 2.96269 0
M  V30 2755 H 252.893 -2.87926 2.44759 0
M  V30 2756 H 253.206 -5.46376 5.46528 0
M  V30 2757 H 251.551 -4.91862 4.91016 0
M  V30 2758 H 254.742 -3.51136 3.0955 0
M  V30 2759 H 254.915 -4.69007 4.47142 0
M  V30 2760 N 248.321 -0.919034 -1.28029 0
M  V30 2761 C 249.253 -0.368762 -2.26214 0
M  V30 2762 C 250.266 0.495716 -1.55069 0
M  V30 2763 O 251.455 0.30974 -1.75792 0
M  V30 2764 C 248.555 0.491049 -3.35324 0
M  V30 2765 C 247.728 -0.352133 -4.3598 0
M  V30 2766 C 246.787 0.443622 -5.24327 0
M  V30 2767 O 245.813 -0.14566 -5.69014 0
M  V30 2768 N 247.015 1.74545 -5.53637 0
M  V30 2769 H 249.78 -1.21273 -2.74068 0
M  V30 2770 H 247.341 -0.785541 -1.41566 0
M  V30 2771 H 249.333 1.03026 -3.91366 0
M  V30 2772 H 247.903 1.23574 -2.87138 0
M  V30 2773 H 247.123 -1.07269 -3.79324 0
M  V30 2774 H 248.411 -0.928883 -5.00249 0
M  V30 2775 H 247.809 2.24666 -5.19174 0
M  V30 2776 H 246.366 2.23138 -6.12416 0
M  V30 2777 N 249.799 1.42003 -0.683588 0
M  V30 2778 C 250.729 2.33487 -0.024866 0
M  V30 2779 C 251.71 1.51163 0.779975 0
M  V30 2780 O 252.895 1.79739 0.735362 0
M  V30 2781 C 250.025 3.3487 0.920836 0
M  V30 2782 C 248.979 4.27414 0.223958 0
M  V30 2783 C 248.305 5.19074 1.2832 0
M  V30 2784 C 249.605 5.14445 -0.90242 0
M  V30 2785 H 251.299 2.88819 -0.788921 0
M  V30 2786 H 248.845 1.38873 -0.38083 0
M  V30 2787 H 250.798 3.97787 1.39081 0
M  V30 2788 H 249.522 2.77861 1.71642 0
M  V30 2789 H 248.181 3.65904 -0.225864 0
M  V30 2790 H 247.829 4.58387 2.071 0
M  V30 2791 H 247.529 5.81822 0.821995 0
M  V30 2792 H 249.053 5.84867 1.75392 0
M  V30 2793 H 250.467 5.70998 -0.513272 0
M  V30 2794 H 248.864 5.86072 -1.28997 0
M  V30 2795 H 249.934 4.52322 -1.74737 0
M  V30 2796 N 251.277 0.427512 1.51691 0
M  V30 2797 C 252.502 -0.143601 2.06902 0
M  V30 2798 C 252.927 -1.36536 1.29382 0
M  V30 2799 O 252.285 -1.78289 0.329043 0
M  V30 2800 C 252.333 -0.454207 3.57728 0
M  V30 2801 O 251.437 -1.54228 3.82475 0
M  V30 2802 H 250.778 -0.00617128 0.663971 0
M  V30 2803 H 253.308 0.606014 1.95419 0
M  V30 2804 H 253.318 -0.707525 4.01818 0
M  V30 2805 H 251.993 0.438812 4.13579 0
M  V30 2806 H 250.57 -1.2797 3.50254 0
M  V30 2807 N 252.755 -1.56801 0.158532 0
M  V30 2808 C 254.001 -1.96781 -0.490405 0
M  V30 2809 C 254.334 -1.04397 -1.63753 0
M  V30 2810 O 253.609 -0.0885805 -1.94298 0
M  V30 2811 C 253.892 -3.4635 -0.985594 0
M  V30 2812 C 253.745 -4.49512 0.160824 0
M  V30 2813 C 255.064 -3.98697 -1.86355 0
M  V30 2814 H 252.183 -0.715482 -0.176788 0
M  V30 2815 H 254.825 -1.88451 0.242088 0
M  V30 2816 H 252.975 -3.53579 -1.60978 0
M  V30 2817 H 254.647 -4.54353 0.797537 0
M  V30 2818 H 252.89 -4.26013 0.818256 0
M  V30 2819 H 253.561 -5.51531 -0.227569 0
M  V30 2820 H 256.037 -3.94019 -1.33746 0
M  V30 2821 H 254.913 -5.03792 -2.17909 0
M  V30 2822 H 255.174 -3.41744 -2.8047 0
M  V30 2823 N 254.233 0.115231 -1.57178 0
M  V30 2824 C 255.163 1.1423 -2.03651 0
M  V30 2825 C 256.144 1.42967 -0.921655 0
M  V30 2826 O 257.329 1.53343 -1.19162 0
M  V30 2827 C 254.459 2.4675 -2.44401 0
M  V30 2828 C 253.413 2.32467 -3.59365 0
M  V30 2829 C 252.739 3.69984 -3.86026 0
M  V30 2830 C 254.039 1.78203 -4.90959 0
M  V30 2831 H 255.733 0.755749 -2.89705 0
M  V30 2832 H 253.279 0.362093 -1.39373 0
M  V30 2833 H 255.232 3.18854 -2.75517 0
M  V30 2834 H 253.956 2.87302 -1.55322 0
M  V30 2835 H 252.615 1.62811 -3.28463 0
M  V30 2836 H 252.263 4.08028 -2.94147 0
M  V30 2837 H 251.963 3.61279 -4.63412 0
M  V30 2838 H 253.487 4.43587 -4.19599 0
M  V30 2839 H 254.901 2.40128 -5.20587 0
M  V30 2840 H 253.298 1.8031 -5.72371 0
M  V30 2841 H 254.368 0.739876 -4.79222 0
M  V30 2842 N 255.711 1.52812 0.385517 0
M  V30 2843 C 256.621 1.80766 1.49535 0
M  V30 2844 C 257.637 0.694651 1.59532 0
M  V30 2845 O 258.813 0.982611 1.75803 0
M  V30 2846 C 255.878 1.97381 2.85029 0
M  V30 2847 C 254.939 3.21295 2.84724 0
M  V30 2848 C 254.172 3.37108 4.13756 0
M  V30 2849 O 254.395 2.5765 5.08893 0
M  V30 2850 O 253.329 4.30378 4.20783 0
M  V30 2851 H 257.155 2.75015 1.28842 0
M  V30 2852 H 254.74 1.37946 0.573697 0
M  V30 2853 H 256.622 2.09996 3.65349 0
M  V30 2854 H 255.297 1.06322 3.05741 0
M  V30 2855 H 254.204 3.1412 2.03174 0
M  V30 2856 H 255.537 4.12212 2.68965 0
M  V30 2857 N 257.189 -0.644168 1.43834 0
M  V30 2858 C 258.435 -1.40603 1.46146 0
M  V30 2859 C 258.768 -1.93997 0.0887717 0
M  V30 2860 O 258.043 -1.72854 -0.891724 0
M  V30 2861 C 258.326 -2.58086 2.51124 0
M  V30 2862 C 258.179 -2.10126 3.97702 0
M  V30 2863 C 259.498 -3.60291 2.52742 0
M  V30 2864 H 256.617 -0.509905 0.532134 0
M  V30 2865 H 259.259 -0.729502 1.75437 0
M  V30 2866 H 257.409 -3.15801 2.26278 0
M  V30 2867 H 259.081 -1.57342 4.33637 0
M  V30 2868 H 257.324 -1.41419 4.10101 0
M  V30 2869 H 257.995 -2.94649 4.66783 0
M  V30 2870 H 260.471 -3.12352 2.7491 0
M  V30 2871 H 259.347 -4.40032 3.28121 0
M  V30 2872 H 259.608 -4.1349 1.56455 0
M  V30 2873 N 258.668 -1.30515 -0.883378 0
M  V30 2874 C 260.084 -1.08881 -1.16692 0
M  V30 2875 C 260.284 0.149409 -2.00945 0
M  V30 2876 O 259.34 0.84257 -2.38027 0
M  V30 2877 C 260.653 -2.35319 -1.87204 0
M  V30 2878 C 262.201 -2.40799 -1.99962 0
M  V30 2879 C 262.676 -3.67083 -2.73887 0
M  V30 2880 N 264.167 -3.679 -2.81432 0
M  V30 2881 C 264.902 -4.62303 -3.3921 0
M  V30 2882 N 264.398 -5.67052 -3.98025 0
M  V30 2883 N 266.191 -4.49845 -3.3704 0
M  V30 2884 H 258.342 -2.09951 -0.321633 0
M  V30 2885 H 260.605 -0.92556 -0.205043 0
M  V30 2886 H 260.311 -3.25689 -1.3274 0
M  V30 2887 H 260.185 -2.44089 -2.87577 0
M  V30 2888 H 262.572 -1.50907 -2.53597 0
M  V30 2889 H 262.653 -2.36003 -0.98673 0
M  V30 2890 H 262.297 -4.57334 -2.20925 0
M  V30 2891 H 262.227 -3.69141 -3.75556 0
M  V30 2892 H 264.718 -2.92171 -2.39676 0
M  V30 2893 H 265.031 -6.35184 -4.40183 0
M  V30 2894 H 263.376 -5.70842 -3.96439 0
M  V30 2895 H 266.567 -3.67194 -2.90321 0
M  V30 2896 H 266.74 -5.23597 -3.81772 0
M  V30 2897 N 260.146 1.09593 -1.13257 0
M  V30 2898 C 261.109 2.14359 -0.811358 0
M  V30 2899 C 262.109 1.59808 0.178377 0
M  V30 2900 O 263.299 1.74132 -0.0484911 0
M  V30 2901 C 260.431 3.40269 -0.207276 0
M  V30 2902 H 261.624 2.44284 -1.73969 0
M  V30 2903 H 259.177 1.25102 -0.936973 0
M  V30 2904 H 259.912 3.15969 0.73036 0
M  V30 2905 H 259.697 3.81154 -0.919992 0
M  V30 2906 H 261.187 4.176 0.000667944 0
M  V30 2907 N 261.624 0.925811 1.2754 0
M  V30 2908 C 262.854 0.580666 1.98272 0
M  V30 2909 C 263.262 -0.845207 1.69272 0
M  V30 2910 O 262.605 -1.57306 0.948707 0
M  V30 2911 C 262.667 0.724418 3.52126 0
M  V30 2912 C 262.331 2.12206 4.04744 0
M  V30 2913 C 263.328 3.09604 4.17662 0
M  V30 2914 C 261.013 2.4385 4.39138 0
M  V30 2915 C 263.007 4.36755 4.64246 0
M  V30 2916 C 260.694 3.71237 4.85414 0
M  V30 2917 C 261.692 4.67503 4.97926 0
M  V30 2918 O 261.38 5.92624 5.43187 0
M  V30 2919 H 261.112 0.218987 0.639547 0
M  V30 2920 H 263.666 1.24452 1.63404 0
M  V30 2921 H 261.896 0.0034663 3.867 0
M  V30 2922 H 263.585 0.384607 4.04074 0
M  V30 2923 H 264.351 2.86478 3.91351 0
M  V30 2924 H 260.23 1.69665 4.28643 0
M  V30 2925 H 263.774 5.11898 4.73927 0
M  V30 2926 H 259.671 3.94182 5.11166 0
M  V30 2927 H 260.439 5.95585 5.61445 0
M  V30 2928 N 263.102 -1.41638 0.69111 0
M  V30 2929 C 264.049 -2.30789 0.0229705 0
M  V30 2930 C 265.019 -1.46863 -0.775911 0
M  V30 2931 O 266.204 -1.75661 -0.74485 0
M  V30 2932 C 263.344 -3.32868 -0.910666 0
M  V30 2933 C 262.457 -4.31875 -0.103874 0
M  V30 2934 C 261.592 -5.21024 -1.03475 0
M  V30 2935 C 260.631 -6.11702 -0.220598 0
M  V30 2936 N 259.768 -6.93349 -1.10504 0
M  V30 2937 H 264.608 -2.87366 0.788978 0
M  V30 2938 H 262.145 -1.41535 0.400794 0
M  V30 2939 H 264.103 -3.90596 -1.46597 0
M  V30 2940 H 262.733 -2.77851 -1.64312 0
M  V30 2941 H 261.785 -3.76131 0.568285 0
M  V30 2942 H 263.097 -4.96003 0.527504 0
M  V30 2943 H 262.251 -5.83565 -1.65943 0
M  V30 2944 H 260.99 -4.57112 -1.69999 0
M  V30 2945 H 259.995 -5.48215 0.417187 0
M  V30 2946 H 261.22 -6.77668 0.440784 0
M  V30 2947 H 259.166 -6.3205 -1.75638 0
M  V30 2948 H 259.083 -7.54146 -0.529125 0
M  V30 2949 H 260.351 -7.60362 -1.71667 0
M  V30 2950 N 264.58 -0.43555 -1.51462 0
M  V30 2951 C 265.996 -0.0877501 -1.59359 0
M  V30 2952 C 266.196 1.4027 -1.4466 0
M  V30 2953 O 265.252 2.17243 -1.28693 0
M  V30 2954 C 266.565 -0.606264 -2.94525 0
M  V30 2955 C 268.113 -0.566548 -3.0783 0
M  V30 2956 C 268.588 -1.06201 -4.45517 0
M  V30 2957 N 270.079 -1.01992 -4.51832 0
M  V30 2958 C 270.814 -1.37417 -5.5669 0
M  V30 2959 N 270.31 -1.80119 -6.68976 0
M  V30 2960 N 272.103 -1.29245 -5.47039 0
M  V30 2961 H 264.254 -1.40533 -1.59261 0
M  V30 2962 H 266.517 -0.578992 -0.750648 0
M  V30 2963 H 266.223 -1.64901 -3.10645 0
M  V30 2964 H 266.097 -0.0302097 -3.77188 0
M  V30 2965 H 268.484 0.467208 -2.91378 0
M  V30 2966 H 268.565 -1.17898 -2.2701 0
M  V30 2967 H 268.209 -2.09422 -4.62715 0
M  V30 2968 H 268.139 -0.426127 -5.24873 0
M  V30 2969 H 270.63 -0.706308 -3.71241 0
M  V30 2970 H 270.943 -2.05392 -7.45006 0
M  V30 2971 H 269.288 -1.84044 -6.70189 0
M  V30 2972 H 272.479 -0.957522 -4.58202 0
M  V30 2973 H 272.652 -1.57182 -6.28648 0
M  V30 2974 N 266.058 1.56714 -0.166846 0
M  V30 2975 C 267.304 1.97813 0.473473 0
M  V30 2976 C 267.659 1.05095 1.61161 0
M  V30 2977 O 266.952 0.0897541 1.9139 0
M  V30 2978 C 267.146 3.42889 1.00806 0
M  V30 2979 C 266.975 4.49635 -0.0767392 0
M  V30 2980 C 265.745 5.02566 -0.524894 0
M  V30 2981 C 267.943 5.06793 -0.875504 0
M  V30 2982 N 265.925 5.9294 -1.59047 0
M  V30 2983 C 267.296 5.93565 -1.79111 0
M  V30 2984 C 269.351 4.89306 -0.921083 0
M  V30 2985 C 268.054 6.64721 -2.74843 0
M  V30 2986 C 270.08 5.61179 -1.86633 0
M  V30 2987 C 269.442 6.47675 -2.76942 0
M  V30 2988 H 265.541 0.769093 0.141489 0
M  V30 2989 H 268.125 1.92874 -0.266031 0
M  V30 2990 H 266.296 3.48382 1.7171 0
M  V30 2991 H 268.028 3.71008 1.61664 0
M  V30 2992 H 264.783 4.73439 -0.123432 0
M  V30 2993 H 265.207 6.42831 -2.12361 0
M  V30 2994 H 269.849 4.22136 -0.23692 0
M  V30 2995 H 267.567 7.31107 -3.44249 0
M  V30 2996 H 271.153 5.49636 -1.90764 0
M  V30 2997 H 270.033 7.02313 -3.48893 0
M  V30 2998 N 267.536 -0.106894 1.57237 0
M  V30 2999 C 268.468 -1.15646 1.97885 0
M  V30 3000 C 269.481 -1.36981 0.879779 0
M  V30 3001 O 270.67 -1.35841 1.15799 0
M  V30 3002 C 267.77 -2.51425 2.27241 0
M  V30 3003 C 266.943 -2.50529 3.58545 0
M  V30 3004 C 266.002 -3.68145 3.75973 0
M  V30 3005 O 265.028 -3.51176 4.47956 0
M  V30 3006 N 266.23 -4.87177 3.15656 0
M  V30 3007 H 268.995 -0.81059 2.8853 0
M  V30 3008 H 266.556 -0.296024 1.59171 0
M  V30 3009 H 268.548 -3.28689 2.36105 0
M  V30 3010 H 267.118 -2.78147 1.42663 0
M  V30 3011 H 266.338 -1.58894 3.60758 0
M  V30 3012 H 267.626 -2.46997 4.44826 0
M  V30 3013 H 267.024 -5.03868 2.57165 0
M  V30 3014 H 265.581 -5.62075 3.30023 0
M  V30 3015 N 269.014 -1.53014 -0.377408 0
M  V30 3016 C 270.291 -1.59215 -1.13622 0
M  V30 3017 C 270.671 -0.392407 -2.07421 0
M  V30 3018 O 270.019 0.618342 -2.19975 0
M  V30 3019 C 270.229 -2.93669 -1.88573 0
M  V30 3020 C 271.577 -3.47822 -2.43526 0
M  V30 3021 O 272.601 -2.9562 -1.98715 0
M  V30 3022 O 271.46 -4.39055 -3.25412 0
M  V30 3023 H 268.554 -0.642625 -0.52054 0
M  V30 3024 H 271.1 -1.65353 -0.381625 0
M  V30 3025 H 269.872 -3.7243 -1.20048 0
M  V30 3026 H 269.495 -2.90968 -2.70968 0
M  V30 3027 N 270.492 0.636531 -1.44174 0
M  V30 3028 C 271.738 1.39826 -1.4689 0
M  V30 3029 C 272.071 1.93947 -0.0990585 0
M  V30 3030 O 271.346 1.73325 0.882544 0
M  V30 3031 C 271.629 2.56751 -2.5249 0
M  V30 3032 C 271.482 2.08014 -3.98811 0
M  V30 3033 C 272.801 3.58946 -2.54649 0
M  V30 3034 H 269.92 0.507075 -0.53483 0
M  V30 3035 H 272.562 0.720188 -1.75822 0
M  V30 3036 H 270.712 3.14597 -2.2795 0
M  V30 3037 H 272.384 1.5504 -4.34466 0
M  V30 3038 H 270.627 1.39242 -4.10846 0
M  V30 3039 H 271.298 2.92169 -4.68339 0
M  V30 3040 H 273.774 3.1089 -2.76563 0
M  V30 3041 H 272.65 4.38286 -3.3045 0
M  V30 3042 H 272.911 4.12655 -1.58646 0
M  V30 3043 N 271.97 1.30982 0.876444 0
M  V30 3044 C 273.195 1.23373 1.66715 0
M  V30 3045 C 273.62 -0.19885 1.87046 0
M  V30 3046 O 272.978 -1.1427 1.40756 0
M  V30 3047 C 273.026 1.97644 3.01611 0
M  V30 3048 O 272.13 1.30935 3.91062 0
M  V30 3049 H 271.471 0.426279 0.509099 0
M  V30 3050 H 274.001 1.72944 1.09323 0
M  V30 3051 H 274.011 2.06992 3.51594 0
M  V30 3052 H 272.686 3.01829 2.86133 0
M  V30 3053 H 271.263 1.29996 3.49507 0
M  V30 3054 N 273.449 -1.08991 1.13837 0
M  V30 3055 C 274.382 -2.15049 0.763477 0
M  V30 3056 C 275.36 -1.60629 -0.252398 0
M  V30 3057 O 276.544 -1.87958 -0.142853 0
M  V30 3058 C 273.671 -3.38441 0.132545 0
M  V30 3059 C 272.717 -4.11596 1.11763 0
M  V30 3060 S 273.55 -4.6521 2.65216 0
M  V30 3061 C 274.706 -5.91896 2.03495 0
M  V30 3062 H 274.939 -2.46518 1.66182 0
M  V30 3063 H 272.472 -1.21008 0.958976 0
M  V30 3064 H 274.43 -4.09883 -0.225074 0
M  V30 3065 H 273.091 -3.05182 -0.743135 0
M  V30 3066 H 272.284 -5.00121 0.624076 0
M  V30 3067 H 271.886 -3.46038 1.41894 0
M  V30 3068 H 274.178 -6.63156 1.38675 0
M  V30 3069 H 275.121 -6.45938 2.9012 0
M  V30 3070 H 275.529 -5.44625 1.48471 0
M  V30 3071 N 274.927 -0.932562 -1.27047 0
M  V30 3072 C 276.343 -0.633544 -1.46487 0
M  V30 3073 C 276.543 0.815746 -1.84249 0
M  V30 3074 O 275.599 1.59319 -1.95892 0
M  V30 3075 C 276.912 -1.58758 -2.55375 0
M  V30 3076 C 278.46 -1.59634 -2.69232 0
M  V30 3077 C 278.935 -2.53747 -3.81283 0
M  V30 3078 N 280.426 -2.51982 -3.88664 0
M  V30 3079 C 281.161 -3.21491 -4.74796 0
M  V30 3080 N 280.657 -4.00395 -5.65381 0
M  V30 3081 N 282.45 -3.10485 -4.68568 0
M  V30 3082 H 274.601 -1.86946 -1.00821 0
M  V30 3083 H 276.864 -0.802897 -0.504044 0
M  V30 3084 H 276.57 -2.62172 -2.34432 0
M  V30 3085 H 276.444 -1.33301 -3.52861 0
M  V30 3086 H 278.831 -0.569488 -2.89553 0
M  V30 3087 H 278.912 -1.89142 -1.72218 0
M  V30 3088 H 278.556 -3.56545 -3.61715 0
M  V30 3089 H 278.486 -2.21532 -4.77735 0
M  V30 3090 H 280.977 -1.94681 -3.23895 0
M  V30 3091 H 281.29 -4.50406 -6.27976 0
M  V30 3092 H 279.635 -4.04498 -5.65161 0
M  V30 3093 H 282.826 -2.48331 -3.96799 0
M  V30 3094 H 282.999 -3.64925 -5.35475 0
M  V30 3095 N 276.405 1.4127 -0.698611 0
M  V30 3096 C 277.821 1.55241 -0.370462 0
M  V30 3097 C 278.021 1.67351 1.12231 0
M  V30 3098 O 277.077 1.65363 1.90818 0
M  V30 3099 C 278.39 2.78997 -1.12165 0
M  V30 3100 C 279.938 2.92797 -1.1063 0
M  V30 3101 C 280.413 4.19445 -1.8393 0
M  V30 3102 N 281.904 4.26409 -1.80914 0
M  V30 3103 C 282.639 5.23271 -2.34467 0
M  V30 3104 N 282.135 6.26145 -2.96504 0
M  V30 3105 N 283.928 5.15232 -2.24706 0
M  V30 3106 H 276.079 1.31654 -1.66676 0
M  V30 3107 H 278.342 0.635393 -0.703548 0
M  V30 3108 H 278.048 2.76268 -2.17644 0
M  V30 3109 H 277.922 3.70606 -0.702209 0
M  V30 3110 H 280.309 2.95039 -0.0597713 0
M  V30 3111 H 280.39 2.02353 -1.56483 0
M  V30 3112 H 280.034 4.17964 -2.88563 0
M  V30 3113 H 279.964 5.08866 -1.35509 0
M  V30 3114 H 282.455 3.527 -1.35687 0
M  V30 3115 H 282.768 6.96451 -3.34927 0
M  V30 3116 H 281.113 6.26638 -3.00583 0
M  V30 3117 H 284.304 4.33789 -1.7591 0
M  V30 3118 H 284.477 5.90552 -2.66745 0
M  V30 3119 N 277.883 0.443576 1.51229 0
M  V30 3120 C 278.816 -0.410089 2.24485 0
M  V30 3121 C 279.794 -1.01949 1.26669 0
M  V30 3122 O 280.978 -1.06075 1.55821 0
M  V30 3123 C 278.105 -1.57211 3.00004 0
M  V30 3124 C 277.151 -1.08279 4.12526 0
M  V30 3125 S 277.984 -0.0197476 5.35496 0
M  V30 3126 C 279.14 -1.18629 6.14555 0
M  V30 3127 H 279.373 0.211832 2.96544 0
M  V30 3128 H 276.906 0.228156 1.52705 0
M  V30 3129 H 278.864 -2.23825 3.44111 0
M  V30 3130 H 277.525 -2.16547 2.27522 0
M  V30 3131 H 276.718 -1.95193 4.64667 0
M  V30 3132 H 276.32 -0.494797 3.70713 0
M  V30 3133 H 278.612 -2.10344 6.4402 0
M  V30 3134 H 279.555 -0.70472 7.04584 0
M  V30 3135 H 279.963 -1.42768 5.46148 0
M  V30 3136 N 279.361 -1.56624 0.175154 0
M  V30 3137 C 280.271 -2.21741 -0.766042 0
M  V30 3138 C 281.287 -1.21023 -1.25018 0
M  V30 3139 O 282.463 -1.53697 -1.3015 0
M  V30 3140 C 279.528 -2.84839 -1.97655 0
M  V30 3141 C 278.589 -4.00769 -1.53892 0
M  V30 3142 C 277.822 -4.60849 -2.69173 0
M  V30 3143 O 278.045 -4.19823 -3.86141 0
M  V30 3144 O 276.979 -5.50655 -2.43028 0
M  V30 3145 H 280.805 -3.02738 -0.241585 0
M  V30 3146 H 278.39 -1.49305 -0.053222 0
M  V30 3147 H 280.272 -3.24834 -2.68442 0
M  V30 3148 H 278.947 -2.06836 -2.48999 0
M  V30 3149 H 277.854 -3.65436 -0.80044 0
M  V30 3150 H 279.187 -4.80376 -1.07236 0
M  V30 3151 N 280.839 0.0985539 -1.57292 0
M  V30 3152 C 281.772 1.15082 -1.97057 0
M  V30 3153 C 282.75 1.39025 -0.843255 0
M  V30 3154 O 283.934 1.52842 -1.10325 0
M  V30 3155 C 281.061 2.50069 -2.28437 0
M  V30 3156 C 280.107 2.42428 -3.509 0
M  V30 3157 S 280.94 1.84414 -5.02744 0
M  V30 3158 C 282.096 3.21032 -5.37298 0
M  V30 3159 H 282.329 0.811815 -2.86002 0
M  V30 3160 H 279.862 0.306102 -1.51335 0
M  V30 3161 H 281.82 3.27729 -2.47192 0
M  V30 3162 H 280.481 2.8114 -1.40069 0
M  V30 3163 H 279.674 3.41911 -3.70288 0
M  V30 3164 H 279.276 1.72896 -3.31637 0
M  V30 3165 H 281.568 4.17297 -5.33731 0
M  V30 3166 H 282.511 3.06452 -6.38352 0
M  V30 3167 H 282.919 3.20404 -4.64759 0
M  V30 3168 N 282.317 1.53212 0.369288 0
M  V30 3169 C 283.566 1.68436 1.10961 0
M  V30 3170 C 283.879 0.440738 1.9057 0
M  V30 3171 O 285.085 0.473446 2.6734 0
M  V30 3172 C 283.541 2.97744 2.0218 0
M  V30 3173 C 283.149 4.29355 1.279 0
M  V30 3174 C 284.893 3.22334 2.76226 0
M  V30 3175 C 282.8 5.49755 2.17999 0
M  V30 3176 H 281.73 0.627568 0.41794 0
M  V30 3177 H 284.381 1.79713 0.370884 0
M  V30 3178 H 282.763 2.8026 2.79768 0
M  V30 3179 H 283.937 4.57458 0.554007 0
M  V30 3180 H 282.252 4.11179 0.657311 0
M  V30 3181 H 284.849 4.09471 3.43857 0
M  V30 3182 H 285.192 2.38238 3.41392 0
M  V30 3183 H 285.725 3.40475 2.05723 0
M  V30 3184 H 282.464 6.36318 1.57417 0
M  V30 3185 H 281.984 5.25937 2.88359 0
M  V30 3186 H 283.663 5.84401 2.77641 0
M  V30 3187 N 283.795 -0.628877 1.44509 0
M  V30 3188 C 285.02 -1.42048 1.5112 0
M  V30 3189 C 285.445 -1.87594 0.137818 0
M  V30 3190 O 284.803 -1.58873 -0.873437 0
M  V30 3191 C 284.851 -2.61541 2.48251 0
M  V30 3192 O 283.955 -3.61453 1.98559 0
M  V30 3193 H 283.296 -0.424942 0.510216 0
M  V30 3194 H 285.826 -0.767374 1.89664 0
M  V30 3195 H 285.836 -3.09057 2.66361 0
M  V30 3196 H 284.511 -2.27736 3.48007 0
M  V30 3197 H 283.088 -3.20731 1.90227 0
M  V30 3198 N 285.273 -1.31445 -0.869486 0
M  V30 3199 C 286.55 -1.11795 -1.60503 0
M  V30 3200 C 286.93 0.327168 -2.08549 0
M  V30 3201 O 286.278 1.32135 -1.8642 0
M  V30 3202 C 286.488 -2.13258 -2.76265 0
M  V30 3203 C 287.836 -2.45805 -3.46215 0
M  V30 3204 O 288.86 -2.11688 -2.86473 0
M  V30 3205 O 287.719 -3.04228 -4.5399 0
M  V30 3206 H 284.813 -0.430421 -0.706163 0
M  V30 3207 H 287.359 -1.42925 -0.914907 0
M  V30 3208 H 286.131 -3.10461 -2.3818 0
M  V30 3209 H 285.754 -1.83035 -3.52964 0
M  V30 3210 N 286.751 1.08385 -1.14413 0
M  V30 3211 C 287.998 1.80776 -0.912482 0
M  V30 3212 C 288.326 1.86236 0.560934 0
M  V30 3213 O 287.581 1.33431 1.43159 0
M  V30 3214 C 287.88 3.26273 -1.45879 0
M  V30 3215 C 287.546 3.4093 -2.95089 0
M  V30 3216 C 286.208 3.44638 -3.35824 0
M  V30 3217 C 288.56 3.44591 -3.91033 0
M  V30 3218 C 285.888 3.49597 -4.71167 0
M  V30 3219 C 288.24 3.51086 -5.26233 0
M  V30 3220 C 286.904 3.53067 -5.6648 0
M  V30 3221 H 286.174 0.661507 -0.333901 0
M  V30 3222 H 288.821 1.27613 -1.42784 0
M  V30 3223 H 287.126 3.82146 -0.864376 0
M  V30 3224 H 288.823 3.80839 -1.2555 0
M  V30 3225 H 285.413 3.38736 -2.62594 0
M  V30 3226 H 289.597 3.40957 -3.60641 0
M  V30 3227 H 284.853 3.49424 -5.0171 0
M  V30 3228 H 289.027 3.52864 -6.00383 0
M  V30 3229 H 286.654 3.56662 -6.71339 0
M  V30 3230 N 288.23 0.939286 1.26551 0
M  V30 3231 C 289.47 0.5933 1.956 0
M  V30 3232 C 289.834 -0.851515 1.72085 0
M  V30 3233 O 291.035 -1.30634 2.34921 0
M  V30 3234 C 289.306 0.923996 3.45249 0
M  V30 3235 S 290.865 0.688269 4.33369 0
M  V30 3236 H 287.683 0.218591 0.676564 0
M  V30 3237 H 290.285 1.2102 1.5354 0
M  V30 3238 H 288.989 1.97297 3.59864 0
M  V30 3239 H 288.52 0.296746 3.92279 0
M  V30 3240 H 290.535 -0.448434 4.9417 0
M  V30 3241 N 289.708 -1.40897 0.706093 0
M  V30 3242 C 290.618 -2.3455 0.0482286 0
M  V30 3243 C 291.634 -1.56796 -0.754396 0
M  V30 3244 O 292.81 -1.89228 -0.689538 0
M  V30 3245 C 289.875 -3.35625 -0.869303 0
M  V30 3246 C 288.936 -4.29261 -0.0576994 0
M  V30 3247 C 288.169 -5.25508 -0.931531 0
M  V30 3248 O 288.392 -5.27472 -2.17092 0
M  V30 3249 O 287.326 -6.00727 -0.375587 0
M  V30 3250 H 291.152 -2.92407 0.820476 0
M  V30 3251 H 288.737 -1.4193 0.4665 0
M  V30 3252 H 290.619 -3.97635 -1.39514 0
M  V30 3253 H 289.294 -2.80196 -1.62086 0
M  V30 3254 H 288.201 -3.70566 0.512988 0
M  V30 3255 H 289.534 -4.87817 0.655426 0
M  V30 3256 N 291.186 -0.45159 -1.50991 0
M  V30 3257 C 292.602 -0.104647 -1.59257 0
M  V30 3258 C 292.802 1.38728 -1.4614 0
M  V30 3259 O 291.858 2.15866 -1.30989 0
M  V30 3260 C 293.171 -0.637468 -2.93865 0
M  V30 3261 C 294.719 -0.599166 -3.07212 0
M  V30 3262 C 295.194 -1.1092 -4.44366 0
M  V30 3263 N 296.685 -1.06778 -4.50725 0
M  V30 3264 C 297.42 -1.43314 -5.55201 0
M  V30 3265 N 296.916 -1.87204 -6.67028 0
M  V30 3266 N 298.709 -1.3504 -5.45638 0
M  V30 3267 H 290.86 -1.42214 -1.57762 0
M  V30 3268 H 293.123 -0.586921 -0.744465 0
M  V30 3269 H 292.829 -1.68187 -3.08879 0
M  V30 3270 H 292.703 -0.0702139 -3.77135 0
M  V30 3271 H 295.09 0.436277 -2.91857 0
M  V30 3272 H 295.171 -1.20299 -2.25747 0
M  V30 3273 H 294.815 -2.14318 -4.60467 0
M  V30 3274 H 294.745 -0.481773 -5.24392 0
M  V30 3275 H 297.236 -0.745643 -3.70471 0
M  V30 3276 H 297.549 -2.13282 -7.42786 0
M  V30 3277 H 295.894 -1.91142 -6.68199 0
M  V30 3278 H 299.085 -1.00607 -4.57161 0
M  V30 3279 H 299.258 -1.63841 -6.26945 0
M  V30 3280 N 292.664 1.56529 -0.183458 0
M  V30 3281 C 294.08 1.58664 0.172554 0
M  V30 3282 C 294.28 1.19925 1.61926 0
M  V30 3283 O 293.336 0.916534 2.35278 0
M  V30 3284 C 294.649 3.00463 -0.119262 0
M  V30 3285 C 296.197 3.12945 -0.0584396 0
M  V30 3286 C 296.672 4.56857 -0.323408 0
M  V30 3287 N 298.163 4.62403 -0.271612 0
M  V30 3288 C 298.898 5.71626 -0.450639 0
M  V30 3289 N 298.394 6.89362 -0.689384 0
M  V30 3290 N 300.187 5.60775 -0.385701 0
M  V30 3291 H 292.338 1.79994 -1.12765 0
M  V30 3292 H 294.601 0.834808 -0.449222 0
M  V30 3293 H 294.307 3.33326 -1.12192 0
M  V30 3294 H 294.181 3.72659 0.583544 0
M  V30 3295 H 296.568 2.79902 0.934805 0
M  V30 3296 H 296.649 2.4316 -0.794144 0
M  V30 3297 H 296.293 4.9061 -1.31392 0
M  V30 3298 H 296.223 5.24816 0.43305 0
M  V30 3299 H 298.714 3.77785 -0.0932256 0
M  V30 3300 H 299.027 7.68489 -0.815113 0
M  V30 3301 H 297.372 6.91196 -0.726142 0
M  V30 3302 H 300.563 4.67674 -0.199687 0
M  V30 3303 H 300.736 6.4584 -0.528646 0
M  V30 3304 N 294.142 -0.090211 1.57342 0
M  V30 3305 C 295.389 -0.792807 1.86335 0
M  V30 3306 C 295.717 -1.78494 0.772662 0
M  V30 3307 O 294.972 -1.94305 -0.233258 0
M  V30 3308 C 295.271 -1.55222 3.21933 0
M  V30 3309 C 294.937 -0.701765 4.45406 0
M  V30 3310 C 293.599 -0.467334 4.78925 0
M  V30 3311 C 295.951 -0.11086 5.21082 0
M  V30 3312 C 293.279 0.367785 5.85546 0
M  V30 3313 C 295.631 0.711609 6.28585 0
M  V30 3314 C 294.295 0.956086 6.60617 0
M  V30 3315 H 293.565 -0.290109 0.681849 0
M  V30 3316 H 296.212 -0.0541332 1.91423 0
M  V30 3317 H 294.517 -2.3626 3.12551 0
M  V30 3318 H 296.214 -2.10032 3.41595 0
M  V30 3319 H 292.804 -0.894598 4.1916 0
M  V30 3320 H 296.988 -0.279129 4.95514 0
M  V30 3321 H 292.244 0.566128 6.08773 0
M  V30 3322 H 296.418 1.17632 6.86393 0
M  V30 3323 H 294.045 1.60499 7.43064 0
M  V30 3324 N 295.62 -1.53406 -0.361157 0
M  V30 3325 C 296.55 -1.83136 -1.44857 0
M  V30 3326 C 297.531 -0.685174 -1.5569 0
M  V30 3327 O 298.716 -0.93544 -1.70186 0
M  V30 3328 C 295.846 -2.02522 -2.82138 0
M  V30 3329 C 294.8 -3.18302 -2.86126 0
M  V30 3330 C 294.126 -3.22989 -4.26125 0
M  V30 3331 C 295.426 -4.56796 -2.53248 0
M  V30 3332 H 297.12 -2.74201 -1.20226 0
M  V30 3333 H 294.666 -1.31938 -0.576922 0
M  V30 3334 H 296.619 -2.21904 -3.58241 0
M  V30 3335 H 295.343 -1.08172 -3.08166 0
M  V30 3336 H 294.002 -2.98747 -2.12475 0
M  V30 3337 H 293.65 -2.26267 -4.49235 0
M  V30 3338 H 293.35 -4.00781 -4.29708 0
M  V30 3339 H 294.874 -3.44559 -5.04094 0
M  V30 3340 H 296.288 -4.7631 -3.19064 0
M  V30 3341 H 294.685 -5.36862 -2.68141 0
M  V30 3342 H 295.755 -4.61606 -1.48484 0
M  V30 3343 N 297.098 0.621204 -1.44841 0
M  V30 3344 C 298.323 1.41244 -1.51871 0
M  V30 3345 C 298.748 1.87519 -0.147764 0
M  V30 3346 O 298.106 1.59334 0.865 0
M  V30 3347 C 298.154 2.60221 -2.49634 0
M  V30 3348 O 297.258 3.60395 -2.00473 0
M  V30 3349 H 296.599 0.42223 -0.512463 0
M  V30 3350 H 299.129 0.757305 -1.90069 0
M  V30 3351 H 299.139 3.0764 -2.67996 0
M  V30 3352 H 297.814 2.25887 -3.4921 0
M  V30 3353 H 296.391 3.19717 -1.91925 0
M  V30 3354 N 298.576 1.31904 0.862503 0
M  V30 3355 C 299.486 1.22161 2.00285 0
M  V30 3356 C 300.502 0.136785 1.73462 0
M  V30 3357 O 301.678 0.355994 1.98229 0
M  V30 3358 C 298.743 0.937093 3.33796 0
M  V30 3359 C 297.804 2.10957 3.73893 0
M  V30 3360 C 297.037 1.83853 5.01033 0
M  V30 3361 O 297.26 0.777274 5.65079 0
M  V30 3362 O 296.194 2.69741 5.38074 0
M  V30 3363 H 300.02 2.18008 2.11439 0
M  V30 3364 H 297.605 1.11716 0.991957 0
M  V30 3365 H 299.487 0.794583 4.13841 0
M  V30 3366 H 298.162 0.00871894 3.23699 0
M  V30 3367 H 297.069 2.30752 2.94456 0
M  V30 3368 H 298.402 3.02046 3.88625 0
M  V30 3369 N 300.054 -1.07777 1.14986 0
M  V30 3370 C 301.3 -1.80557 0.923422 0
M  V30 3371 C 301.633 -1.86298 -0.548337 0
M  V30 3372 O 300.908 -1.34354 -1.40639 0
M  V30 3373 C 301.191 -3.25839 1.53299 0
M  V30 3374 C 301.044 -3.28269 3.07505 0
M  V30 3375 C 302.363 -4.22991 1.21518 0
M  V30 3376 H 299.482 -0.655493 0.336894 0
M  V30 3377 H 302.124 -1.26144 1.42083 0
M  V30 3378 H 300.274 -3.72306 1.10999 0
M  V30 3379 H 301.946 -2.90079 3.58681 0
M  V30 3380 H 300.189 -2.67355 3.4162 0
M  V30 3381 H 300.86 -4.30691 3.45266 0
M  V30 3382 H 303.336 -3.84894 1.581 0
M  V30 3383 H 302.212 -5.22945 1.66793 0
M  V30 3384 H 302.473 -4.41904 0.131505 0
M  V30 3385 N 301.532 -0.945985 -1.26051 0
M  V30 3386 C 302.809 -0.513816 -1.88731 0
M  V30 3387 C 303.189 1.00872 -1.8544 0
M  V30 3388 O 302.537 1.8708 -1.312 0
M  V30 3389 C 302.747 -1.08062 -3.31849 0
M  V30 3390 C 304.095 -1.1522 -4.08668 0
M  V30 3391 O 305.119 -1.03155 -3.40936 0
M  V30 3392 O 303.978 -1.34044 -5.29806 0
M  V30 3393 H 301.072 -0.168193 -0.809716 0
M  V30 3394 H 303.618 -1.03886 -1.34186 0
M  V30 3395 H 302.39 -2.1241 -3.2863 0
M  V30 3396 H 302.013 -0.538307 -3.93939 0
M  V30 3397 N 303.011 1.40521 -0.713556 0
M  V30 3398 C 304.241 2.0494 -0.261395 0
M  V30 3399 C 304.649 1.53861 1.10107 0
M  V30 3400 O 303.992 0.689321 1.70276 0
M  V30 3401 C 304.054 3.59138 -0.161227 0
M  V30 3402 C 303.718 4.33096 -1.45865 0
M  V30 3403 C 304.715 4.61182 -2.40016 0
M  V30 3404 C 302.4 4.72043 -1.71701 0
M  V30 3405 C 304.394 5.27196 -3.58251 0
M  V30 3406 C 302.081 5.37789 -2.90218 0
M  V30 3407 C 303.079 5.65295 -3.83315 0
M  V30 3408 O 302.767 6.29683 -4.99754 0
M  V30 3409 H 302.499 0.666041 -0.115608 0
M  V30 3410 H 305.053 1.80954 -0.971849 0
M  V30 3411 H 303.283 3.81936 0.605153 0
M  V30 3412 H 304.972 4.05091 0.256105 0
M  V30 3413 H 305.738 4.31559 -2.21318 0
M  V30 3414 H 301.617 4.50003 -1.00092 0
M  V30 3415 H 305.161 5.48582 -4.30934 0
M  V30 3416 H 301.058 5.66831 -3.08825 0
M  V30 3417 H 301.826 6.4818 -4.99805 0
M  V30 3418 N 304.489 0.459591 1.5075 0
M  V30 3419 C 305.419 -0.330644 2.31147 0
M  V30 3420 C 306.4 -1.00087 1.37538 0
M  V30 3421 O 307.585 -1.00025 1.66459 0
M  V30 3422 C 304.715 -1.41958 3.16962 0
M  V30 3423 C 303.669 -0.871608 4.19031 0
M  V30 3424 C 302.995 -2.05797 4.9351 0
M  V30 3425 C 304.295 0.109251 5.22186 0
M  V30 3426 H 305.989 0.340336 2.97459 0
M  V30 3427 H 303.535 0.165119 1.4305 0
M  V30 3428 H 305.488 -1.9798 3.71997 0
M  V30 3429 H 304.212 -2.11917 2.48513 0
M  V30 3430 H 302.871 -0.333442 3.6508 0
M  V30 3431 H 302.519 -2.74427 4.21544 0
M  V30 3432 H 302.219 -1.6976 5.62544 0
M  V30 3433 H 303.743 -2.62331 5.51375 0
M  V30 3434 H 305.157 -0.361405 5.7216 0
M  V30 3435 H 303.554 0.383316 5.98875 0
M  V30 3436 H 304.624 1.03887 4.73641 0
M  V30 3437 N 305.967 -1.56429 0.191757 0
M  V30 3438 C 307.213 -1.97777 -0.448554 0
M  V30 3439 C 307.546 -1.07847 -1.61501 0
M  V30 3440 O 306.821 -0.129774 -1.94067 0
M  V30 3441 C 307.104 -3.48362 -0.911906 0
M  V30 3442 C 306.957 -4.4907 0.256136 0
M  V30 3443 C 308.276 -4.02561 -1.77857 0
M  V30 3444 H 305.395 -0.719071 -0.161572 0
M  V30 3445 H 308.037 -1.87896 0.282007 0
M  V30 3446 H 306.187 -3.56914 -1.53442 0
M  V30 3447 H 307.859 -4.5256 0.893733 0
M  V30 3448 H 306.102 -4.24181 0.908436 0
M  V30 3449 H 306.773 -5.51889 -0.11053 0
M  V30 3450 H 309.249 -3.96767 -1.25359 0
M  V30 3451 H 308.125 -5.08301 -2.07174 0
M  V30 3452 H 308.386 -3.47616 -2.73158 0
M  V30 3453 N 307.445 0.0818655 -1.57387 0
M  V30 3454 C 308.685 0.788375 -1.88584 0
M  V30 3455 C 309.049 1.75248 -0.784351 0
M  V30 3456 O 310.25 2.50334 -0.979105 0
M  V30 3457 C 308.521 1.48654 -3.25018 0
M  V30 3458 S 310.08 2.22951 -3.7794 0
M  V30 3459 H 306.898 0.262383 -0.660815 0
M  V30 3460 H 309.5 0.0448995 -1.95448 0
M  V30 3461 H 308.204 0.770919 -4.03094 0
M  V30 3462 H 307.735 2.26965 -3.21326 0
M  V30 3463 H 309.75 3.49309 -3.52417 0
M  V30 3464 N 308.923 1.53595 0.353017 0
M  V30 3465 C 310.169 1.70638 1.09593 0
M  V30 3466 C 310.502 0.463286 1.88593 0
M  V30 3467 O 309.777 -0.539597 1.86865 0
M  V30 3468 C 310.06 2.96406 2.04489 0
M  V30 3469 C 309.913 4.30901 1.29014 0
M  V30 3470 C 311.232 3.17812 3.0444 0
M  V30 3471 H 308.351 0.620913 0.397034 0
M  V30 3472 H 310.993 1.86254 0.375446 0
M  V30 3473 H 309.143 2.83223 2.65927 0
M  V30 3474 H 310.815 4.55917 0.702638 0
M  V30 3475 H 309.058 4.29741 0.592071 0
M  V30 3476 H 309.729 5.1506 1.98537 0
M  V30 3477 H 312.205 3.30263 2.53112 0
M  V30 3478 H 311.081 4.07223 3.6805 0
M  V30 3479 H 311.342 2.33669 3.75301 0
M  V30 3480 N 310.401 -0.613514 1.45168 0
M  V30 3481 C 311.678 -1.37263 1.39349 0
M  V30 3482 C 312.058 -2.11012 0.0610848 0
M  V30 3483 O 311.406 -2.07502 -0.956825 0
M  V30 3484 C 311.616 -2.3244 2.60332 0
M  V30 3485 C 312.964 -2.9523 3.05163 0
M  V30 3486 O 313.988 -2.42762 2.60663 0
M  V30 3487 O 312.847 -3.90454 3.82372 0
M  V30 3488 H 309.941 -0.615188 0.552696 0
M  V30 3489 H 312.487 -0.637097 1.57287 0
M  V30 3490 H 311.259 -1.77164 3.48896 0
M  V30 3491 H 310.882 -3.13383 2.44698 0
M  V30 3492 N 311.879 -1.3236 -0.855495 0
M  V30 3493 C 313.125 -1.23054 -1.612 0
M  V30 3494 C 313.458 0.207404 -1.93089 0
M  V30 3495 O 312.733 1.14432 -1.57275 0
M  V30 3496 C 313.016 -2.08937 -2.93287 0
M  V30 3497 C 312.869 -3.61105 -2.68185 0
M  V30 3498 C 314.188 -1.94986 -3.94549 0
M  V30 3499 H 311.307 -0.448364 -0.584926 0
M  V30 3500 H 313.949 -1.62297 -0.987917 0
M  V30 3501 H 312.099 -1.75599 -3.46551 0
M  V30 3502 H 313.771 -4.04652 -2.21483 0
M  V30 3503 H 312.014 -3.83813 -2.02164 0
M  V30 3504 H 312.685 -4.16522 -3.62234 0
M  V30 3505 H 315.161 -2.24189 -3.5054 0
M  V30 3506 H 314.037 -2.57356 -4.84829 0
M  V30 3507 H 314.298 -0.917263 -4.3248 0
M  V30 3508 N 313.357 1.07166 -1.15556 0
M  V30 3509 C 314.634 1.76546 -0.842069 0
M  V30 3510 C 315.014 2.00453 0.661939 0
M  V30 3511 O 314.362 1.62452 1.60691 0
M  V30 3512 C 314.572 3.07266 -1.65495 0
M  V30 3513 C 315.92 3.81578 -1.86234 0
M  V30 3514 O 316.944 3.17083 -1.62287 0
M  V30 3515 O 315.803 4.97419 -2.26355 0
M  V30 3516 H 312.897 0.766756 -0.309862 0
M  V30 3517 H 315.443 1.13514 -1.26145 0
M  V30 3518 H 314.215 2.85494 -2.67598 0
M  V30 3519 H 313.838 3.7803 -1.23203 0
M  V30 3520 N 314.835 0.952656 1.25548 0
M  V30 3521 C 315.768 0.415525 2.24385 0
M  V30 3522 C 316.746 -0.502046 1.54655 0
M  V30 3523 O 317.93 -0.436875 1.83368 0
M  V30 3524 C 315.057 -0.401734 3.36309 0
M  V30 3525 C 314.103 0.455949 4.24056 0
M  V30 3526 S 314.936 1.88698 5.01152 0
M  V30 3527 C 316.092 1.07809 6.16545 0
M  V30 3528 H 316.325 1.25315 2.69599 0
M  V30 3529 H 313.858 0.756587 1.34592 0
M  V30 3530 H 315.816 -0.867329 4.01233 0
M  V30 3531 H 314.477 -1.21416 2.89684 0
M  V30 3532 H 313.67 -0.170776 5.03711 0
M  V30 3533 H 313.272 0.856675 3.64056 0
M  V30 3534 H 315.564 0.325816 6.76716 0
M  V30 3535 H 316.507 1.84849 6.83547 0
M  V30 3536 H 316.915 0.60909 5.61204 0
M  V30 3537 N 316.313 -1.40141 0.720998 0
M  V30 3538 C 317.223 -2.34486 0.0731031 0
M  V30 3539 C 318.239 -1.57587 -0.737723 0
M  V30 3540 O 319.415 -1.89949 -0.669429 0
M  V30 3541 C 316.48 -3.36528 -0.833656 0
M  V30 3542 C 315.541 -4.29298 -0.0121673 0
M  V30 3543 C 314.774 -5.26466 -0.875742 0
M  V30 3544 O 314.997 -5.29745 -2.11485 0
M  V30 3545 O 313.931 -6.01092 -0.31185 0
M  V30 3546 H 317.757 -2.9152 0.851444 0
M  V30 3547 H 315.342 -1.41427 0.481527 0
M  V30 3548 H 317.224 -3.99093 -1.35289 0
M  V30 3549 H 315.899 -2.81899 -1.59105 0
M  V30 3550 H 314.806 -3.70001 0.552262 0
M  V30 3551 H 316.139 -4.87094 0.707129 0
M  V30 3552 N 317.792 -0.46758 -1.50504 0
M  V30 3553 C 319.039 0.0886219 -2.02306 0
M  V30 3554 C 319.367 1.40037 -1.34981 0
M  V30 3555 O 318.622 1.90136 -0.463318 0
M  V30 3556 C 318.921 0.323995 -3.55928 0
M  V30 3557 C 318.587 -0.905618 -4.41712 0
M  V30 3558 C 317.249 -1.24275 -4.64875 0
M  V30 3559 C 319.601 -1.72448 -4.91845 0
M  V30 3560 C 316.929 -2.39888 -5.35417 0
M  V30 3561 C 319.281 -2.87185 -5.63656 0
M  V30 3562 C 317.945 -3.21317 -5.85074 0
M  V30 3563 H 317.215 0.0324291 -0.74029 0
M  V30 3564 H 319.862 -0.620945 -1.81153 0
M  V30 3565 H 318.167 1.11577 -3.75577 0
M  V30 3566 H 319.864 0.76826 -3.93572 0
M  V30 3567 H 316.454 -0.632956 -4.239 0
M  V30 3568 H 320.638 -1.4772 -4.73806 0
M  V30 3569 H 315.894 -2.66611 -5.50208 0
M  V30 3570 H 320.068 -3.50985 -6.01484 0
M  V30 3571 H 317.695 -4.1101 -6.39511 0
M  V30 3572 N 319.27 1.56325 -0.20005 0
M  V30 3573 C 320.686 1.58839 0.155716 0
M  V30 3574 C 320.886 1.21636 1.60645 0
M  V30 3575 O 319.942 0.941437 2.34293 0
M  V30 3576 C 321.255 3.0032 -0.151124 0
M  V30 3577 C 322.803 3.12866 -0.0916284 0
M  V30 3578 C 323.278 4.56488 -0.371845 0
M  V30 3579 N 324.769 4.62089 -0.320641 0
M  V30 3580 C 325.504 5.71116 -0.511243 0
M  V30 3581 N 325 6.88592 -0.762461 0
M  V30 3582 N 326.793 5.60335 -0.445157 0
M  V30 3583 H 318.944 1.78788 -1.14668 0
M  V30 3584 H 321.207 0.829996 -0.458051 0
M  V30 3585 H 320.913 3.32117 -1.15721 0
M  V30 3586 H 320.787 3.73257 0.543986 0
M  V30 3587 H 323.174 2.80878 0.905065 0
M  V30 3588 H 323.255 2.42304 -0.81989 0
M  V30 3589 H 322.899 4.89189 -1.36588 0
M  V30 3590 H 322.829 5.25246 0.377362 0
M  V30 3591 H 325.32 3.77665 -0.13329 0
M  V30 3592 H 325.633 7.67581 -0.896576 0
M  V30 3593 H 323.978 6.90387 -0.799412 0
M  V30 3594 H 327.169 4.67436 -0.249278 0
M  V30 3595 H 327.342 6.45243 -0.597116 0
M  V30 3596 N 320.748 -0.0735177 1.57428 0
M  V30 3597 C 322.025 -0.805903 1.78226 0
M  V30 3598 C 322.405 -1.95874 0.787189 0
M  V30 3599 O 321.753 -2.2779 -0.180029 0
M  V30 3600 C 321.963 -1.28045 3.24662 0
M  V30 3601 C 323.311 -1.71453 3.88444 0
M  V30 3602 O 324.335 -1.37616 3.28543 0
M  V30 3603 O 323.194 -2.34093 4.93825 0
M  V30 3604 H 320.288 -0.386041 0.73137 0
M  V30 3605 H 322.834 -0.0537269 1.69615 0
M  V30 3606 H 321.606 -0.455476 3.8864 0
M  V30 3607 H 321.229 -2.094 3.37991 0
M  V30 3608 N 322.226 -1.5378 -0.344866 0
M  V30 3609 C 323.176 -1.78057 -1.42407 0
M  V30 3610 C 324.16 -0.635732 -1.47808 0
M  V30 3611 O 325.352 -0.89508 -1.527 0
M  V30 3612 C 322.481 -1.99242 -2.79566 0
M  V30 3613 C 321.567 -3.19787 -2.78562 0
M  V30 3614 N 321.958 -4.41284 -2.47189 0
M  V30 3615 C 320.256 -3.2093 -3.0971 0
M  V30 3616 C 320.957 -5.23128 -2.54385 0
M  V30 3617 N 319.933 -4.59813 -2.89953 0
M  V30 3618 H 323.735 -2.69588 -1.17046 0
M  V30 3619 H 321.249 -1.52687 -0.553217 0
M  V30 3620 H 323.246 -2.14768 -3.57324 0
M  V30 3621 H 321.906 -1.08953 -3.05875 0
M  V30 3622 H 322.917 -4.68657 -2.20411 0
M  V30 3623 H 319.594 -2.40603 -3.41199 0
M  V30 3624 H 320.984 -6.30096 -2.333 0
M  V30 3625 N 323.704 0.605807 -1.45491 0
M  V30 3626 C 324.95 1.36679 -1.49823 0
M  V30 3627 C 325.283 1.93693 -0.140175 0
M  V30 3628 O 324.558 1.75158 0.845581 0
M  V30 3629 C 324.841 2.51337 -2.57879 0
M  V30 3630 C 324.694 1.99508 -4.03134 0
M  V30 3631 C 326.013 3.53463 -2.62205 0
M  V30 3632 H 323.132 0.495617 -0.545466 0
M  V30 3633 H 325.774 0.682732 -1.7731 0
M  V30 3634 H 323.924 3.09691 -2.34571 0
M  V30 3635 H 325.596 1.45789 -4.37656 0
M  V30 3636 H 323.839 1.30496 -4.13707 0
M  V30 3637 H 324.51 2.82169 -4.74431 0
M  V30 3638 H 326.986 3.04953 -2.83095 0
M  V30 3639 H 325.862 4.31178 -3.39672 0
M  V30 3640 H 326.123 4.09197 -1.67363 0
M  V30 3641 N 325.182 1.32811 0.848464 0
M  V30 3642 C 326.43 1.23479 1.59991 0
M  V30 3643 C 326.751 -0.201853 1.93952 0
M  V30 3644 O 326.021 -1.12818 1.60153 0
M  V30 3645 H 324.601 0.454034 0.593179 0
M  V30 3646 H 327.263 1.66412 1.01455 0
M  V30 3647 H 326.359 1.82178 2.53412 0
M  V30 3648 N 326.66 -1.06551 1.16123 0
M  V30 3649 C 327.906 -1.79567 0.94252 0
M  V30 3650 C 328.239 -1.86869 -0.528547 0
M  V30 3651 O 327.514 -1.35838 -1.39206 0
M  V30 3652 C 327.797 -3.24195 1.56747 0
M  V30 3653 C 327.65 -3.24989 3.10969 0
M  V30 3654 C 328.969 -4.21678 1.25998 0
M  V30 3655 H 326.088 -0.651883 0.343828 0
M  V30 3656 H 328.73 -1.2463 1.43413 0
M  V30 3657 H 326.88 -3.71107 1.14942 0
M  V30 3658 H 328.552 -2.86258 3.61737 0
M  V30 3659 H 326.795 -2.63716 3.44436 0
M  V30 3660 H 327.466 -4.27005 3.49815 0
M  V30 3661 H 329.942 -3.83196 1.62174 0
M  V30 3662 H 328.818 -5.21146 1.7233 0
M  V30 3663 H 329.079 -4.4174 0.178367 0
M  V30 3664 N 328.138 -0.959301 -1.25041 0
M  V30 3665 C 329.048 -0.489994 -2.29426 0
M  V30 3666 C 330.064 0.444944 -1.68215 0
M  V30 3667 O 331.24 0.320046 -1.98841 0
M  V30 3668 C 328.305 0.220309 -3.45999 0
M  V30 3669 C 327.366 -0.753418 -4.22637 0
M  V30 3670 C 326.599 -0.076918 -5.33645 0
M  V30 3671 O 326.822 1.13649 -5.58963 0
M  V30 3672 O 325.756 -0.764824 -5.97021 0
M  V30 3673 H 329.582 -1.35755 -2.71669 0
M  V30 3674 H 327.167 -0.725961 -1.30576 0
M  V30 3675 H 329.049 0.619677 -4.16819 0
M  V30 3676 H 327.724 1.06296 -3.0575 0
M  V30 3677 H 326.631 -1.20308 -3.54227 0
M  V30 3678 H 327.964 -1.56423 -4.66683 0
M  V30 3679 N 329.616 1.39756 -0.72842 0
M  V30 3680 C 330.865 1.99879 -0.270407 0
M  V30 3681 C 331.178 1.58449 1.14688 0
M  V30 3682 O 332.384 2.11362 1.70407 0
M  V30 3683 C 330.84 3.57292 -0.43252 0
M  V30 3684 C 330.448 4.07688 -1.85727 0
M  V30 3685 C 332.192 4.24485 -0.0359507 0
M  V30 3686 C 330.099 5.5765 -1.96928 0
M  V30 3687 H 329.029 0.747689 -0.0973472 0
M  V30 3688 H 331.68 1.59837 -0.901355 0
M  V30 3689 H 330.062 3.95097 0.267219 0
M  V30 3690 H 331.236 3.81231 -2.58843 0
M  V30 3691 H 329.551 3.53135 -2.20646 0
M  V30 3692 H 332.148 5.34609 -0.0987484 0
M  V30 3693 H 332.491 4.03915 1.00787 0
M  V30 3694 H 333.024 3.9183 -0.686604 0
M  V30 3695 H 329.763 5.8309 -2.99476 0
M  V30 3696 H 329.283 5.8593 -1.28241 0
M  V30 3697 H 330.962 6.22957 -1.74737 0
M  V30 3698 N 331.094 0.475555 1.50254 0
M  V30 3699 C 332.024 -0.30611 2.31485 0
M  V30 3700 C 333.005 -0.986228 1.38591 0
M  V30 3701 O 334.19 -0.982541 1.67511 0
M  V30 3702 C 331.32 -1.38588 3.1845 0
M  V30 3703 C 330.274 -0.827115 4.19932 0
M  V30 3704 C 329.6 -2.00551 4.95665 0
M  V30 3705 C 330.9 0.16463 5.2204 0
M  V30 3706 H 332.594 0.371866 2.97082 0
M  V30 3707 H 330.14 0.180282 1.42867 0
M  V30 3708 H 332.093 -1.94023 3.74076 0
M  V30 3709 H 330.817 -2.09269 2.50747 0
M  V30 3710 H 329.476 -0.294702 3.65414 0
M  V30 3711 H 329.124 -2.6994 4.2443 0
M  V30 3712 H 328.824 -1.63784 5.64313 0
M  V30 3713 H 330.348 -2.56468 5.54127 0
M  V30 3714 H 331.762 -0.300699 5.72511 0
M  V30 3715 H 330.159 0.446813 5.98434 0
M  V30 3716 H 331.229 1.08905 4.72512 0
M  V30 3717 N 332.573 -1.56217 0.208337 0
M  V30 3718 C 333.801 -2.02337 -0.43215 0
M  V30 3719 C 334.216 -1.08834 -1.54275 0
M  V30 3720 O 333.573 -0.0955462 -1.8225 0
M  V30 3721 C 333.624 -3.48072 -0.976138 0
M  V30 3722 O 333.345 -4.38007 0.0901621 0
M  V30 3723 C 334.846 -4.09773 -1.69119 0
M  V30 3724 H 332.066 -0.662385 -0.10718 0
M  V30 3725 H 334.61 -2.01966 0.320923 0
M  V30 3726 H 332.765 -3.49099 -1.67954 0
M  V30 3727 H 333.179 -5.23543 -0.316701 0
M  V30 3728 H 334.653 -5.13556 -2.02397 0
M  V30 3729 H 335.13 -3.53999 -2.59964 0
M  V30 3730 H 335.736 -4.12556 -1.03332 0
M  V30 3731 N 334.051 0.0651679 -1.57465 0
M  V30 3732 C 335.462 0.616213 -1.76238 0
M  V30 3733 C 335.813 1.7756 -0.834689 0
M  V30 3734 O 334.938 2.1639 -0.0204156 0
M  V30 3735 C 335.533 1.12462 -3.1959 0
M  V30 3736 C 334.092 1.62147 -3.39684 0
M  V30 3737 C 333.239 0.543739 -2.71917 0
M  V30 3738 H 336.19 -0.161022 -1.57881 0
M  V30 3739 H 336.211 1.99324 -3.24114 0
M  V30 3740 H 335.723 0.280592 -3.87084 0
M  V30 3741 H 333.824 2.48854 -2.77313 0
M  V30 3742 H 333.937 1.69385 -4.48158 0
M  V30 3743 H 332.301 0.990352 -2.34657 0
M  V30 3744 H 333.084 -0.290216 -3.42071 0
M  V30 3745 N 335.529 1.53961 0.336706 0
M  V30 3746 C 336.459 1.85417 1.41925 0
M  V30 3747 C 337.44 0.709856 1.5458 0
M  V30 3748 O 338.625 0.962396 1.68676 0
M  V30 3749 C 335.755 2.06985 2.78881 0
M  V30 3750 C 334.709 3.22813 2.81026 0
M  V30 3751 C 334.035 3.29727 4.20932 0
M  V30 3752 C 335.335 4.60767 2.45949 0
M  V30 3753 H 337.029 2.76079 1.15848 0
M  V30 3754 H 334.575 1.32839 0.555859 0
M  V30 3755 H 336.528 2.27575 3.54665 0
M  V30 3756 H 335.252 1.13061 3.06406 0
M  V30 3757 H 333.911 3.0209 2.07695 0
M  V30 3758 H 333.559 2.33385 4.45579 0
M  V30 3759 H 333.259 4.07566 4.23277 0
M  V30 3760 H 334.783 3.52536 4.98549 0
M  V30 3761 H 336.197 4.81325 3.11446 0
M  V30 3762 H 334.594 5.4106 2.59566 0
M  V30 3763 H 335.664 4.6391 1.41122 0
M  V30 3764 N 337.007 -0.598083 1.45811 0
M  V30 3765 C 338.254 -1.35681 1.50323 0
M  V30 3766 C 338.582 -1.9393 0.148739 0
M  V30 3767 O 337.837 -1.76094 -0.853787 0
M  V30 3768 C 338.136 -2.51669 2.53766 0
M  V30 3769 C 337.802 -2.11508 3.98215 0
M  V30 3770 C 336.464 -2.0027 4.37545 0
M  V30 3771 C 338.816 -1.80308 4.89018 0
M  V30 3772 C 336.144 -1.56067 5.65562 0
M  V30 3773 C 338.496 -1.37589 6.17456 0
M  V30 3774 C 337.16 -1.24916 6.55708 0
M  V30 3775 H 336.43 -0.496492 0.550069 0
M  V30 3776 H 339.077 -0.675052 1.79207 0
M  V30 3777 H 337.382 -3.25225 2.18486 0
M  V30 3778 H 339.079 -3.09895 2.54492 0
M  V30 3779 H 335.669 -2.21185 3.67117 0
M  V30 3780 H 339.853 -1.87884 4.59362 0
M  V30 3781 H 335.109 -1.44886 5.93985 0
M  V30 3782 H 339.283 -1.12495 6.87254 0
M  V30 3783 H 336.91 -0.904386 7.54801 0
M  V30 3784 N 338.485 -1.33259 -0.841409 0
M  V30 3785 C 339.733 -1.24326 -1.59334 0
M  V30 3786 C 340.054 0.191564 -1.94057 0
M  V30 3787 O 339.324 1.11967 -1.60749 0
M  V30 3788 H 337.904 -0.457174 -0.590763 0
M  V30 3789 H 340.566 -1.66947 -1.00571 0
M  V30 3790 H 339.662 -1.8352 -2.52442 0
M  V30 3791 N 339.963 1.05934 -1.16686 0
M  V30 3792 C 341.191 1.8249 -0.974929 0
M  V30 3793 C 341.606 1.82679 0.476861 0
M  V30 3794 O 340.963 1.2486 1.33103 0
M  V30 3795 C 341.014 3.28943 -1.49929 0
M  V30 3796 O 340.735 3.28886 -2.89423 0
M  V30 3797 C 342.236 4.22215 -1.35089 0
M  V30 3798 H 339.456 0.575295 -0.345365 0
M  V30 3799 H 342 1.33631 -1.548 0
M  V30 3800 H 340.155 3.751 -0.968423 0
M  V30 3801 H 340.569 4.20493 -3.13506 0
M  V30 3802 H 342.043 5.22987 -1.76603 0
M  V30 3803 H 342.52 4.38195 -0.296935 0
M  V30 3804 H 343.126 3.81907 -1.87155 0
M  V30 3805 N 341.441 0.965919 1.2453 0
M  V30 3806 C 342.371 0.513476 2.27784 0
M  V30 3807 C 343.352 -0.445974 1.6415 0
M  V30 3808 O 344.537 -0.342485 1.91156 0
M  V30 3809 C 341.667 -0.198839 3.4673 0
M  V30 3810 C 340.621 0.676456 4.2262 0
M  V30 3811 C 339.947 -0.167248 5.34438 0
M  V30 3812 C 341.247 1.96017 4.84123 0
M  V30 3813 H 342.941 1.3765 2.65881 0
M  V30 3814 H 340.487 0.663321 1.27813 0
M  V30 3815 H 342.44 -0.526567 4.18097 0
M  V30 3816 H 341.164 -1.0962 3.07654 0
M  V30 3817 H 339.823 0.98743 3.53052 0
M  V30 3818 H 339.471 -1.0647 4.91603 0
M  V30 3819 H 339.171 0.415181 5.86131 0
M  V30 3820 H 340.695 -0.489688 6.08633 0
M  V30 3821 H 342.109 1.69814 5.47573 0
M  V30 3822 H 340.506 2.48918 5.4604 0
M  V30 3823 H 341.576 2.65622 4.05676 0
M  V30 3824 N 342.919 -1.39368 0.735821 0
M  V30 3825 C 343.869 -2.27885 0.0724287 0
M  V30 3826 C 344.853 -1.44301 -0.711756 0
M  V30 3827 O 346.045 -1.67206 -0.58063 0
M  V30 3828 C 343.174 -3.33029 -0.833454 0
M  V30 3829 C 342.26 -4.24078 -0.0433749 0
M  V30 3830 N 342.651 -4.96138 0.983903 0
M  V30 3831 C 340.949 -4.45164 -0.272905 0
M  V30 3832 C 341.65 -5.63069 1.4604 0
M  V30 3833 N 340.626 -5.37991 0.778857 0
M  V30 3834 H 344.428 -2.81052 0.859467 0
M  V30 3835 H 341.942 -1.5206 0.570227 0
M  V30 3836 H 343.939 -3.95311 -1.32419 0
M  V30 3837 H 342.599 -2.81421 -1.61964 0
M  V30 3838 H 343.61 -4.9958 1.36528 0
M  V30 3839 H 340.287 -4.04497 -1.03383 0
M  V30 3840 H 341.677 -6.30755 2.31511 0
M  V30 3841 N 344.397 -0.483516 -1.5 0
M  V30 3842 C 345.808 -0.0314176 -1.86674 0
M  V30 3843 C 346.159 1.37728 -1.39733 0
M  V30 3844 O 345.284 2.02327 -0.767635 0
M  V30 3845 C 345.879 -0.0502376 -3.38763 0
M  V30 3846 C 344.438 0.346442 -3.74802 0
M  V30 3847 C 343.585 -0.430366 -2.7394 0
M  V30 3848 H 346.536 -0.697182 -1.42566 0
M  V30 3849 H 346.557 0.749116 -3.73053 0
M  V30 3850 H 346.069 -1.07563 -3.72897 0
M  V30 3851 H 344.17 1.37572 -3.46273 0
M  V30 3852 H 344.283 0.0391486 -4.79084 0
M  V30 3853 H 342.647 0.117557 -2.54429 0
M  V30 3854 H 343.43 -1.4555 -3.10918 0
M  V30 3855 N 345.875 1.56104 -0.216619 0
M  V30 3856 C 347.123 1.97781 0.415593 0
M  V30 3857 C 347.444 1.10536 1.60645 0
M  V30 3858 O 346.714 0.181303 1.95059 0
M  V30 3859 H 345.294 0.730415 0.156534 0
M  V30 3860 H 347.956 1.92445 -0.308366 0
M  V30 3861 H 347.052 3.03072 0.74525 0
M  V30 3862 N 347.353 -0.0568162 1.57498 0
M  V30 3863 C 348.6 -0.753104 1.87975 0
M  V30 3864 C 348.928 -1.76815 0.81035 0
M  V30 3865 O 348.183 -1.94756 -0.19199 0
M  V30 3866 C 348.482 -1.48359 3.25153 0
M  V30 3867 C 348.148 -0.60713 4.46794 0
M  V30 3868 C 346.81 -0.365642 4.79809 0
M  V30 3869 C 349.162 -0.000305978 5.212 0
M  V30 3870 C 346.49 0.491905 5.84634 0
M  V30 3871 C 348.842 0.844781 6.26934 0
M  V30 3872 C 347.506 1.096 6.58441 0
M  V30 3873 H 346.776 -0.27558 0.687849 0
M  V30 3874 H 349.423 -0.0135173 1.91495 0
M  V30 3875 H 347.728 -2.29577 3.17492 0
M  V30 3876 H 349.425 -2.02739 3.45974 0
M  V30 3877 H 346.015 -0.805487 4.20963 0
M  V30 3878 H 350.199 -0.173961 4.95995 0
M  V30 3879 H 345.455 0.695131 6.07436 0
M  V30 3880 H 349.629 1.32165 6.83744 0
M  V30 3881 H 347.256 1.76224 7.39492 0
M  V30 3882 N 348.832 -1.54138 -0.328536 0
M  V30 3883 C 350.062 -1.75807 -1.08516 0
M  V30 3884 C 350.47 -0.50428 -1.82356 0
M  V30 3885 O 349.813 0.534451 -1.75754 0
M  V30 3886 C 349.875 -2.89423 -2.13248 0
M  V30 3887 C 349.539 -4.28504 -1.5885 0
M  V30 3888 C 350.536 -5.09536 -1.03289 0
M  V30 3889 C 348.221 -4.75034 -1.63243 0
M  V30 3890 C 350.215 -6.35206 -0.52845 0
M  V30 3891 C 347.902 -6.00672 -1.12411 0
M  V30 3892 C 348.9 -6.80592 -0.573062 0
M  V30 3893 O 348.588 -8.03867 -0.0723692 0
M  V30 3894 H 348.32 -0.590633 -0.328829 0
M  V30 3895 H 350.874 -2.01819 -0.381868 0
M  V30 3896 H 349.104 -2.5897 -2.87178 0
M  V30 3897 H 350.793 -2.98921 -2.74592 0
M  V30 3898 H 351.559 -4.74745 -0.99206 0
M  V30 3899 H 347.438 -4.12875 -2.05074 0
M  V30 3900 H 350.982 -6.97532 -0.0976774 0
M  V30 3901 H 346.879 -6.34955 -1.162 0
M  V30 3902 H 347.647 -8.18283 -0.188258 0
M  V30 3903 N 350.31 0.590341 -1.46126 0
M  V30 3904 C 351.558 1.34616 -1.50742 0
M  V30 3905 C 351.879 1.94363 -0.157486 0
M  V30 3906 O 351.149 1.78136 0.815136 0
M  V30 3907 H 349.729 0.499789 -0.555175 0
M  V30 3908 H 352.391 0.691953 -1.82203 0
M  V30 3909 H 351.487 2.15678 -2.25587 0
M  V30 3910 N 351.788 1.33704 0.83433 0
M  V30 3911 C 353.013 1.28615 1.62705 0
M  V30 3912 C 353.438 -0.139242 1.87584 0
M  V30 3913 O 352.796 -1.09734 1.4432 0
M  V30 3914 C 352.844 2.07139 2.95171 0
M  V30 3915 O 351.948 1.4331 3.86699 0
M  V30 3916 H 351.289 0.44226 0.49528 0
M  V30 3917 H 353.819 1.76335 1.03766 0
M  V30 3918 H 353.829 2.18073 3.44831 0
M  V30 3919 H 352.504 3.10779 2.76386 0
M  V30 3920 H 351.081 1.4105 3.45195 0
M  V30 3921 N 353.266 -1.05314 1.17247 0
M  V30 3922 C 354.491 -1.82509 0.985148 0
M  V30 3923 C 354.916 -1.82343 -0.461788 0
M  V30 3924 O 354.274 -1.23151 -1.33055 0
M  V30 3925 C 354.322 -3.26566 1.52929 0
M  V30 3926 O 353.426 -4.05666 0.742225 0
M  V30 3927 H 352.767 -0.564347 0.349869 0
M  V30 3928 H 355.297 -1.32718 1.55715 0
M  V30 3929 H 355.307 -3.77369 1.55103 0
M  V30 3930 H 353.982 -3.26001 2.58256 0
M  V30 3931 H 352.559 -3.64397 0.791794 0
M  V30 3932 N 354.744 -0.972509 -1.24016 0
M  V30 3933 C 356.16 -0.679827 -1.44397 0
M  V30 3934 C 356.36 0.756716 -1.86751 0
M  V30 3935 O 355.416 1.53007 -2.00861 0
M  V30 3936 C 356.729 -1.66803 -2.50195 0
M  V30 3937 C 358.277 -1.68119 -2.64017 0
M  V30 3938 C 358.752 -2.65748 -3.73017 0
M  V30 3939 N 360.243 -2.64219 -3.8045 0
M  V30 3940 C 360.978 -3.36433 -4.64328 0
M  V30 3941 N 360.474 -4.1818 -5.52356 0
M  V30 3942 N 362.267 -3.25235 -4.58453 0
M  V30 3943 H 354.418 -1.90059 -0.948228 0
M  V30 3944 H 356.681 -0.818527 -0.478245 0
M  V30 3945 H 356.387 -2.69498 -2.25973 0
M  V30 3946 H 356.261 -1.4446 -3.48441 0
M  V30 3947 H 358.648 -0.661319 -2.87594 0
M  V30 3948 H 358.729 -1.94525 -1.66113 0
M  V30 3949 H 358.373 -3.67872 -3.50189 0
M  V30 3950 H 358.303 -2.36619 -4.70446 0
M  V30 3951 H 360.794 -2.04887 -3.17537 0
M  V30 3952 H 361.107 -4.70157 -6.13329 0
M  V30 3953 H 359.452 -4.22273 -5.52006 0
M  V30 3954 H 362.643 -2.60829 -3.88698 0
M  V30 3955 H 362.816 -3.81776 -5.23594 0
M  V30 3956 N 356.222 1.38976 -0.743202 0
M  V30 3957 C 357.132 2.3434 -0.110399 0
M  V30 3958 C 358.148 1.58741 0.712559 0
M  V30 3959 O 359.324 1.9099 0.639125 0
M  V30 3960 C 356.389 3.37812 0.780012 0
M  V30 3961 C 355.45 4.29263 -0.0561319 0
M  V30 3962 C 354.683 5.27793 0.791875 0
M  V30 3963 O 354.906 5.33043 2.03031 0
M  V30 3964 O 353.84 6.01512 0.216183 0
M  V30 3965 H 357.666 2.90129 -0.897714 0
M  V30 3966 H 355.251 1.40643 -0.503966 0
M  V30 3967 H 357.133 4.01194 1.28923 0
M  V30 3968 H 355.808 2.84395 1.546 0
M  V30 3969 H 354.715 3.69076 -0.611056 0
M  V30 3970 H 356.048 4.85907 -0.784531 0
M  V30 3971 N 357.7 0.491464 1.49741 0
M  V30 3972 C 358.663 -0.280906 2.27472 0
M  V30 3973 C 359.663 -0.902454 1.33088 0
M  V30 3974 O 360.853 -0.768465 1.56334 0
M  V30 3975 C 357.985 -1.40209 3.10732 0
M  V30 3976 H 359.178 0.401056 2.97206 0
M  V30 3977 H 356.731 0.246131 1.5435 0
M  V30 3978 H 357.466 -2.11849 2.45541 0
M  V30 3979 H 357.251 -0.961969 3.80117 0
M  V30 3980 H 358.741 -1.9464 3.69466 0
M  V30 3981 N 359.178 -1.55987 0.224894 0
M  V30 3982 C 360.425 -1.9839 -0.4059 0
M  V30 3983 C 360.753 -1.11261 -1.59535 0
M  V30 3984 O 360.008 -0.158314 -1.95059 0
M  V30 3985 C 360.307 -3.46394 -0.880106 0
M  V30 3986 C 359.973 -4.5046 0.19918 0
M  V30 3987 C 358.635 -4.7864 0.495661 0
M  V30 3988 C 360.987 -5.12855 0.928939 0
M  V30 3989 C 358.315 -5.66497 1.52636 0
M  V30 3990 C 360.667 -6.01828 1.949 0
M  V30 3991 C 359.331 -6.28351 2.25236 0
M  V30 3992 H 358.601 -0.725961 -0.148529 0
M  V30 3993 H 361.248 -1.88668 0.328113 0
M  V30 3994 H 359.553 -3.53337 -1.69294 0
M  V30 3995 H 361.25 -3.76577 -1.37808 0
M  V30 3996 H 357.84 -4.28579 -0.0420526 0
M  V30 3997 H 362.024 -4.9115 0.713129 0
M  V30 3998 H 357.28 -5.8531 1.76698 0
M  V30 3999 H 361.454 -6.49225 2.51951 0
M  V30 4000 H 359.081 -6.96226 3.05244 0
M  V30 4001 N 360.656 0.0484629 -1.57525 0
M  V30 4002 C 361.884 0.755421 -1.92616 0
M  V30 4003 C 362.299 1.69919 -0.822984 0
M  V30 4004 O 361.656 1.81378 0.202085 0
M  V30 4005 C 361.707 1.52915 -3.27566 0
M  V30 4006 O 361.428 0.62329 -4.33644 0
M  V30 4007 C 362.929 2.33502 -3.76818 0
M  V30 4008 H 360.149 0.213465 -0.63614 0
M  V30 4009 H 362.693 0.0117698 -2.04497 0
M  V30 4010 H 360.848 2.22486 -3.17142 0
M  V30 4011 H 361.262 1.16383 -5.11425 0
M  V30 4012 H 362.736 2.83214 -4.73808 0
M  V30 4013 H 363.213 3.14068 -3.07014 0
M  V30 4014 H 363.819 1.69043 -3.90262 0
M  V30 4015 N 362.134 1.5431 0.320358 0
M  V30 4016 C 363.364 1.7638 1.07582 0
M  V30 4017 C 363.772 0.513944 1.82086 0
M  V30 4018 O 363.115 -0.525123 1.76035 0
M  V30 4019 C 363.177 2.9055 2.1171 0
M  V30 4020 C 362.841 4.2934 1.56575 0
M  V30 4021 C 363.838 5.10077 1.00586 0
M  V30 4022 C 361.523 4.75893 1.60722 0
M  V30 4023 C 363.517 6.35477 0.494756 0
M  V30 4024 C 361.204 6.0126 1.09224 0
M  V30 4025 C 362.202 6.80886 0.53696 0
M  V30 4026 O 361.89 8.03894 0.0297371 0
M  V30 4027 H 361.622 0.592369 0.325692 0
M  V30 4028 H 364.176 2.02019 0.37116 0
M  V30 4029 H 362.406 2.60489 2.85801 0
M  V30 4030 H 364.095 3.00373 2.73003 0
M  V30 4031 H 364.861 4.75265 0.966869 0
M  V30 4032 H 360.74 4.13957 2.02882 0
M  V30 4033 H 364.284 6.97574 0.0606842 0
M  V30 4034 H 360.181 6.35562 1.12831 0
M  V30 4035 H 360.949 8.18372 0.14486 0
M  V30 4036 N 363.613 -0.582584 1.46437 0
M  V30 4037 C 364.523 -1.71949 1.59595 0
M  V30 4038 C 365.539 -1.67264 0.479443 0
M  V30 4039 O 366.715 -1.87171 0.743579 0
M  V30 4040 C 363.78 -3.08452 1.58298 0
M  V30 4041 C 362.841 -3.244 2.81182 0
M  V30 4042 C 362.074 -4.54391 2.79937 0
M  V30 4043 O 362.297 -5.38287 1.8869 0
M  V30 4044 O 361.231 -4.73588 3.71481 0
M  V30 4045 H 365.057 -1.63795 2.55744 0
M  V30 4046 H 362.642 -0.749643 1.29231 0
M  V30 4047 H 364.524 -3.89732 1.60271 0
M  V30 4048 H 363.199 -3.17043 0.653094 0
M  V30 4049 H 362.106 -2.42613 2.84763 0
M  V30 4050 H 363.439 -3.20699 3.7338 0
M  V30 4051 N 365.091 -1.34144 -0.827227 0
M  V30 4052 C 366.507 -1.13732 -1.11969 0
M  V30 4053 C 366.707 0.0640463 -2.01398 0
M  V30 4054 O 365.763 0.740856 -2.41387 0
M  V30 4055 C 367.076 -2.43047 -1.77055 0
M  V30 4056 C 368.624 -2.49063 -1.89569 0
M  V30 4057 C 369.099 -3.78369 -2.58072 0
M  V30 4058 N 370.59 -3.79505 -2.65575 0
M  V30 4059 C 371.325 -4.76274 -3.19297 0
M  V30 4060 N 370.821 -5.83424 -3.73616 0
M  V30 4061 N 372.614 -4.63735 -3.17658 0
M  V30 4062 H 364.765 -2.11126 -0.232296 0
M  V30 4063 H 367.028 -0.933424 -0.165602 0
M  V30 4064 H 366.734 -3.31025 -1.18807 0
M  V30 4065 H 366.608 -2.56066 -2.76966 0
M  V30 4066 H 368.995 -1.61527 -2.46968 0
M  V30 4067 H 369.076 -2.39975 -0.885745 0
M  V30 4068 H 368.72 -4.66293 -2.01329 0
M  V30 4069 H 368.65 -3.84737 -3.59562 0
M  V30 4070 H 371.141 -3.02074 -2.27068 0
M  V30 4071 H 371.454 -6.53282 -4.12846 0
M  V30 4072 H 369.799 -5.87143 -3.71871 0
M  V30 4073 H 372.99 -3.79177 -2.74486 0
M  V30 4074 H 373.163 -5.39318 -3.59221 0
M  V30 4075 N 366.569 1.04691 -1.17803 0
M  V30 4076 C 367.985 1.29963 -0.926379 0
M  V30 4077 C 368.185 1.97251 0.411635 0
M  V30 4078 O 367.241 2.24922 1.14744 0
M  V30 4079 C 368.554 2.16447 -2.08737 0
M  V30 4080 C 370.102 2.29814 -2.12496 0
M  V30 4081 C 370.577 3.19661 -3.27995 0
M  V30 4082 N 372.068 3.27247 -3.27816 0
M  V30 4083 C 372.803 3.96906 -4.13827 0
M  V30 4084 N 372.299 4.6895 -5.09959 0
M  V30 4085 N 374.092 3.93122 -4.01761 0
M  V30 4086 H 366.243 0.594182 -2.0392 0
M  V30 4087 H 368.506 0.324649 -0.890678 0
M  V30 4088 H 368.212 1.74304 -3.05469 0
M  V30 4089 H 368.086 3.17103 -2.04268 0
M  V30 4090 H 370.473 2.71196 -1.16347 0
M  V30 4091 H 370.554 1.2877 -2.21025 0
M  V30 4092 H 370.198 2.78991 -4.24413 0
M  V30 4093 H 370.128 4.20722 -3.16703 0
M  V30 4094 H 372.619 2.75921 -2.58217 0
M  V30 4095 H 372.932 5.19679 -5.71974 0
M  V30 4096 H 371.277 4.67875 -5.13924 0
M  V30 4097 H 374.468 3.35967 -3.2595 0
M  V30 4098 H 374.641 4.47139 -4.6901 0
M  V30 4099 N 368.047 0.979072 1.23499 0
M  V30 4100 C 369.458 0.684391 1.73704 0
M  V30 4101 C 369.809 -0.799448 1.79174 0
M  V30 4102 O 368.934 -1.62531 1.42873 0
M  V30 4103 C 369.529 1.23564 3.15464 0
M  V30 4104 C 368.088 0.99063 3.6313 0
M  V30 4105 C 367.235 1.36416 2.41425 0
M  V30 4106 H 370.186 1.15307 1.09041 0
M  V30 4107 H 370.207 0.607417 3.7562 0
M  V30 4108 H 369.719 2.31561 3.1145 0
M  V30 4109 H 367.82 -0.0733136 3.72528 0
M  V30 4110 H 367.933 1.64427 4.5 0
M  V30 4111 H 366.297 0.782616 2.42378 0
M  V30 4112 H 367.08 2.45387 2.40083 0
M  V30 4113 N 369.525 -1.3858 0.750561 0
M  V30 4114 C 370.457 -2.29057 0.0810714 0
M  V30 4115 C 371.47 -1.47596 -0.686973 0
M  V30 4116 O 372.659 -1.70495 -0.528563 0
M  V30 4117 C 369.759 -3.26475 -0.909247 0
M  V30 4118 C 368.932 -4.36945 -0.199478 0
M  V30 4119 C 367.991 -5.14572 -1.10011 0
M  V30 4120 O 367.017 -5.66321 -0.57177 0
M  V30 4121 N 368.219 -5.27262 -2.42849 0
M  V30 4122 H 370.984 -2.87153 0.858087 0
M  V30 4123 H 368.545 -1.50328 0.60109 0
M  V30 4124 H 370.537 -3.75285 -1.51471 0
M  V30 4125 H 369.107 -2.69298 -1.58736 0
M  V30 4126 H 368.327 -3.8981 0.586664 0
M  V30 4127 H 369.615 -5.07963 0.291783 0
M  V30 4128 H 369.013 -4.86763 -2.88233 0
M  V30 4129 H 367.57 -5.79456 -2.98453 0
M  V30 4130 N 371.003 -0.499398 -1.49478 0
M  V30 4131 C 372.228 0.044722 -2.07352 0
M  V30 4132 C 372.653 1.30207 -1.35749 0
M  V30 4133 O 372.011 1.76516 -0.413732 0
M  V30 4134 C 372.059 0.283013 -3.59488 0
M  V30 4135 O 371.163 1.35804 -3.89398 0
M  V30 4136 H 370.504 -0.0255147 -0.66351 0
M  V30 4137 H 373.034 -0.698561 -1.92305 0
M  V30 4138 H 373.044 0.515007 -4.04737 0
M  V30 4139 H 371.719 -0.635636 -4.11014 0
M  V30 4140 H 370.296 1.11113 -3.55961 0
M  V30 4141 N 372.481 1.55866 -0.233164 0
M  V30 4142 C 373.413 2.18099 0.704668 0
M  V30 4143 C 374.426 1.15334 1.14899 0
M  V30 4144 O 375.615 1.42262 1.07814 0
M  V30 4145 C 372.715 2.7592 1.96777 0
M  V30 4146 C 371.888 4.03969 1.67713 0
M  V30 4147 C 370.947 4.46242 2.78845 0
M  V30 4148 O 369.973 5.12903 2.46818 0
M  V30 4149 N 371.175 4.12886 4.08051 0
M  V30 4150 H 373.94 2.99205 0.172258 0
M  V30 4151 H 371.501 1.61815 -0.0525945 0
M  V30 4152 H 373.493 3.01165 2.70337 0
M  V30 4153 H 372.063 1.99051 2.41034 0
M  V30 4154 H 371.283 3.86459 0.777391 0
M  V30 4155 H 372.571 4.8748 1.4574 0
M  V30 4156 H 371.969 3.59342 4.3691 0
M  V30 4157 H 370.526 4.42997 4.78118 0
M  V30 4158 N 373.959 -0.0401083 1.57549 0
M  V30 4159 C 374.922 -1.02871 2.04817 0
M  V30 4160 C 375.922 -1.29708 0.950388 0
M  V30 4161 O 377.112 -1.24897 1.21435 0
M  V30 4162 C 374.244 -2.36443 2.45576 0
M  V30 4163 H 375.437 -0.620631 2.93408 0
M  V30 4164 H 372.99 -0.286667 1.53649 0
M  V30 4165 H 373.725 -2.82021 1.60108 0
M  V30 4166 H 373.51 -2.18296 3.25713 0
M  V30 4167 H 375 -3.07441 2.82612 0
M  V30 4168 N 375.437 -1.54477 -0.31217 0
M  V30 4169 C 376.667 -1.76948 -1.06645 0
M  V30 4170 C 377.075 -0.523593 -1.81811 0
M  V30 4171 O 376.418 0.51578 -1.76311 0
M  V30 4172 C 376.48 -2.91668 -2.10166 0
M  V30 4173 C 376.144 -4.30165 -1.54296 0
M  V30 4174 C 377.141 -5.10603 -0.978793 0
M  V30 4175 C 374.826 -4.76738 -1.58196 0
M  V30 4176 C 376.82 -6.3573 -0.461048 0
M  V30 4177 C 374.507 -6.01831 -1.06034 0
M  V30 4178 C 375.505 -6.81161 -0.500844 0
M  V30 4179 O 375.193 -8.03899 0.0128958 0
M  V30 4180 H 374.925 -0.594088 -0.322546 0
M  V30 4181 H 377.479 -2.02213 -0.360441 0
M  V30 4182 H 375.709 -2.62001 -2.84416 0
M  V30 4183 H 377.398 -3.01817 -2.71406 0
M  V30 4184 H 378.164 -4.75771 -0.941651 0
M  V30 4185 H 374.043 -4.15027 -2.00683 0
M  V30 4186 H 377.587 -6.97596 -0.0236894 0
M  V30 4187 H 373.484 -6.36152 -1.09459 0
M  V30 4188 H 374.252 -8.18437 -0.101457 0
M  V30 4189 N 376.915 0.57481 -1.46744 0
M  V30 4190 C 378.164 1.32898 -1.51727 0
M  V30 4191 C 378.477 1.948 -0.176692 0
M  V30 4192 O 379.683 2.71299 -0.104385 0
M  V30 4193 C 378.139 2.40901 -2.67385 0
M  V30 4194 C 377.747 1.85266 -4.07898 0
M  V30 4195 C 379.491 3.17609 -2.81646 0
M  V30 4196 C 377.398 2.90945 -5.14883 0
M  V30 4197 H 376.328 0.499631 -0.564699 0
M  V30 4198 H 378.979 0.612536 -1.72975 0
M  V30 4199 H 377.361 3.15379 -2.39483 0
M  V30 4200 H 378.535 1.17278 -4.45626 0
M  V30 4201 H 376.85 1.21199 -3.98371 0
M  V30 4202 H 379.447 3.96493 -3.58744 0
M  V30 4203 H 379.79 3.70696 -1.89448 0
M  V30 4204 H 380.323 2.50239 -3.09233 0
M  V30 4205 H 377.062 2.42736 -6.089 0
M  V30 4206 H 376.582 3.57398 -4.81691 0
M  V30 4207 H 378.261 3.54755 -5.41071 0
M  V30 4208 N 378.394 1.34581 0.820102 0
M  V30 4209 C 379.805 1.24298 1.39309 0
M  V30 4210 C 380.156 -0.130351 1.95767 0
M  V30 4211 O 379.281 -1.0308 1.90272 0
M  V30 4212 C 379.876 2.25054 2.53251 0
M  V30 4213 C 378.435 2.18552 3.0645 0
M  V30 4214 C 377.582 2.11503 1.79337 0
M  V30 4215 H 380.533 1.45906 0.624262 0
M  V30 4216 H 380.554 1.86917 3.31425 0
M  V30 4217 H 380.066 3.24996 2.1213 0
M  V30 4218 H 378.167 1.21976 3.52069 0
M  V30 4219 H 378.28 3.0993 3.65349 0
M  V30 4220 H 376.644 1.57268 2.00347 0
M  V30 4221 H 377.427 3.13284 1.40386 0
M  V30 4222 N 379.872 -1.04064 1.18357 0
M  V30 4223 C 380.819 -2.12077 0.910603 0
M  V30 4224 C 381.789 -1.65421 -0.15 0
M  V30 4225 O 382.974 -1.90797 -0.0103614 0
M  V30 4226 C 380.114 -3.42252 0.442472 0
M  V30 4227 C 379.227 -4.0252 1.5685 0
M  V30 4228 C 378.362 -5.20657 1.05309 0
M  V30 4229 C 377.401 -5.72955 2.1538 0
M  V30 4230 N 376.538 -6.8238 1.65233 0
M  V30 4231 H 381.378 -2.34764 1.83548 0
M  V30 4232 H 378.915 -1.15157 0.915279 0
M  V30 4233 H 380.873 -4.16921 0.152534 0
M  V30 4234 H 379.503 -3.19712 -0.445428 0
M  V30 4235 H 378.555 -3.25178 1.97391 0
M  V30 4236 H 379.867 -4.37362 2.39824 0
M  V30 4237 H 379.021 -6.0244 0.717677 0
M  V30 4238 H 377.76 -4.87318 0.19293 0
M  V30 4239 H 376.765 -4.89793 2.49766 0
M  V30 4240 H 377.99 -6.08337 3.01832 0
M  V30 4241 H 375.936 -6.50917 0.815064 0
M  V30 4242 H 375.853 -7.16286 2.41805 0
M  V30 4243 H 377.121 -7.67788 1.34619 0
M  V30 4244 N 381.35 -0.985608 -1.22978 0
M  V30 4245 C 382.627 -0.573599 -1.87001 0
M  V30 4246 C 383.007 0.949213 -1.88555 0
M  V30 4247 O 382.355 1.82811 -1.37086 0
M  V30 4248 C 382.565 -1.18564 -3.28243 0
M  V30 4249 C 383.913 -1.28163 -4.04796 0
M  V30 4250 O 384.937 -1.13949 -3.37482 0
M  V30 4251 O 383.796 -1.50832 -5.25273 0
M  V30 4252 H 380.89 -0.193868 -0.803955 0
M  V30 4253 H 383.436 -1.08102 -1.30813 0
M  V30 4254 H 382.208 -2.22758 -3.21706 0
M  V30 4255 H 381.831 -0.663363 -3.92027 0
M  V30 4256 N 382.828 1.3818 -0.7579 0
M  V30 4257 C 383.738 2.3421 -0.135247 0
M  V30 4258 C 384.754 1.59487 0.695683 0
M  V30 4259 O 385.93 1.91657 0.618832 0
M  V30 4260 C 382.995 3.3862 0.744139 0
M  V30 4261 C 382.056 4.2918 -0.101658 0
M  V30 4262 C 381.289 5.28603 0.735851 0
M  V30 4263 O 381.512 5.35166 1.97366 0
M  V30 4264 O 380.446 6.01707 0.152372 0
M  V30 4265 H 384.272 2.8916 -0.928436 0
M  V30 4266 H 381.857 1.40101 -0.518855 0
M  V30 4267 H 383.739 4.02539 1.2466 0
M  V30 4268 H 382.414 2.86019 1.51575 0
M  V30 4269 H 381.321 3.68407 -0.650167 0
M  V30 4270 H 382.654 4.85048 -0.836024 0
M  V30 4271 N 384.306 0.507319 1.49211 0
M  V30 4272 C 385.554 -0.0348839 2.0207 0
M  V30 4273 C 385.875 -1.36898 1.38866 0
M  V30 4274 O 385.145 -1.88133 0.546151 0
M  V30 4275 H 383.725 -0.0158812 0.746831 0
M  V30 4276 H 386.387 0.665998 1.83168 0
M  V30 4277 H 385.483 -0.159917 3.1169 0
M  V30 4278 N 385.784 -1.5574 0.241426 0
M  V30 4279 C 387.061 -1.90704 -0.434881 0
M  V30 4280 C 387.441 -1.16145 -1.76277 0
M  V30 4281 O 386.789 -0.277152 -2.26813 0
M  V30 4282 C 386.999 -3.43657 -0.608343 0
M  V30 4283 C 388.347 -4.14806 -0.906725 0
M  V30 4284 O 389.371 -3.49366 -0.694408 0
M  V30 4285 O 388.23 -5.30548 -1.31075 0
M  V30 4286 H 385.324 -0.793592 -0.23268 0
M  V30 4287 H 387.87 -1.67288 0.285086 0
M  V30 4288 H 386.642 -3.89927 0.327505 0
M  V30 4289 H 386.265 -3.72918 -1.37906 0
M  V30 4290 N 387.262 0.0317525 -1.57568 0
M  V30 4291 C 388.509 0.723104 -1.89149 0
M  V30 4292 C 388.837 1.75504 -0.838377 0
M  V30 4293 O 388.092 1.95037 0.160982 0
M  V30 4294 C 388.391 1.43167 -3.27472 0
M  V30 4295 C 388.057 0.535972 -4.47703 0
M  V30 4296 C 386.719 0.289262 -4.8033 0
M  V30 4297 C 389.071 -0.0826125 -5.21135 0
M  V30 4298 C 386.399 -0.584853 -5.83778 0
M  V30 4299 C 388.751 -0.944414 -6.25511 0
M  V30 4300 C 387.415 -1.20061 -6.56614 0
M  V30 4301 H 386.685 0.264602 -0.692146 0
M  V30 4302 H 389.332 -0.0169496 -1.91492 0
M  V30 4303 H 387.637 2.24497 -3.21105 0
M  V30 4304 H 389.334 1.97209 -3.49155 0
M  V30 4305 H 385.924 0.738414 -4.22191 0
M  V30 4306 H 390.108 0.0950302 -4.96209 0
M  V30 4307 H 385.364 -0.79168 -6.06253 0
M  V30 4308 H 389.538 -1.43026 -6.81554 0
M  V30 4309 H 387.165 -1.87967 -7.36595 0
M  V30 4310 N 388.74 1.54641 0.303973 0
M  V30 4311 C 389.97 1.77511 1.05705 0
M  V30 4312 C 390.378 0.533228 1.81531 0
M  V30 4313 O 389.721 -0.506423 1.76582 0
M  V30 4314 C 389.783 2.92779 2.08617 0
M  V30 4315 C 389.447 4.30977 1.52013 0
M  V30 4316 C 390.444 5.11115 0.9517 0
M  V30 4317 C 388.129 4.77571 1.55665 0
M  V30 4318 C 390.123 6.35966 0.427327 0
M  V30 4319 C 387.81 6.02384 1.02841 0
M  V30 4320 C 388.808 6.81417 0.464713 0
M  V30 4321 O 388.496 8.03881 -0.0555283 0
M  V30 4322 H 388.228 0.59579 0.319391 0
M  V30 4323 H 390.782 2.02401 0.349712 0
M  V30 4324 H 389.012 2.63506 2.83022 0
M  V30 4325 H 390.701 3.03252 2.69802 0
M  V30 4326 H 391.467 4.76264 0.916407 0
M  V30 4327 H 387.346 4.16085 1.9848 0
M  V30 4328 H 390.89 6.97599 -0.0133062 0
M  V30 4329 H 386.787 6.36723 1.06084 0
M  V30 4330 H 387.555 8.18479 0.0580522 0
M  V30 4331 N 390.218 -0.567019 1.47046 0
M  V30 4332 C 391.448 -1.34831 1.56538 0
M  V30 4333 C 391.856 -1.8802 0.21101 0
M  V30 4334 O 391.199 -1.65152 -0.804387 0
M  V30 4335 C 391.261 -2.56139 2.52256 0
M  V30 4336 C 390.925 -2.24307 3.98165 0
M  V30 4337 C 391.922 -1.82192 4.86931 0
M  V30 4338 C 389.607 -2.35968 4.43423 0
M  V30 4339 C 391.601 -1.52153 6.18973 0
M  V30 4340 C 389.288 -2.05542 5.75496 0
M  V30 4341 C 390.286 -1.63701 6.63092 0
M  V30 4342 O 389.974 -1.33657 7.92711 0
M  V30 4343 H 389.706 -0.417683 0.531523 0
M  V30 4344 H 392.26 -0.694726 1.93294 0
M  V30 4345 H 390.49 -3.24356 2.10548 0
M  V30 4346 H 392.179 -3.18214 2.51982 0
M  V30 4347 H 392.945 -1.72684 4.53217 0
M  V30 4348 H 388.824 -2.67495 3.75456 0
M  V30 4349 H 392.368 -1.19421 6.87302 0
M  V30 4350 H 388.265 -2.14679 6.08755 0
M  V30 4351 H 389.033 -1.4737 8.05124 0
M  V30 4352 N 391.696 -1.35014 -0.812953 0
M  V30 4353 C 392.626 -1.30069 -1.93919 0
M  V30 4354 C 393.607 -0.176275 -1.69184 0
M  V30 4355 O 394.792 -0.370227 -1.90638 0
M  V30 4356 C 391.922 -1.06547 -3.30552 0
M  V30 4357 C 390.876 -2.15561 -3.69753 0
M  V30 4358 C 390.202 -1.77214 -5.04479 0
M  V30 4359 C 391.502 -3.57476 -3.808 0
M  V30 4360 H 393.196 -2.24303 -1.98314 0
M  V30 4361 H 390.742 -1.07977 -0.952736 0
M  V30 4362 H 392.695 -1.01729 -4.08937 0
M  V30 4363 H 391.419 -0.0875719 -3.26483 0
M  V30 4364 H 390.078 -2.19466 -2.9365 0
M  V30 4365 H 389.726 -0.780589 -4.96906 0
M  V30 4366 H 389.426 -2.50184 -5.31678 0
M  V30 4367 H 390.95 -1.7391 -5.8531 0
M  V30 4368 H 392.364 -3.55929 -4.4943 0
M  V30 4369 H 390.761 -4.29152 -4.19462 0
M  V30 4370 H 391.831 -3.94091 -2.82525 0
M  V30 4371 N 393.175 1.03435 -1.18907 0
M  V30 4372 C 394.423 1.76394 -0.986382 0
M  V30 4373 C 394.744 1.88883 0.484567 0
M  V30 4374 O 394.014 1.41843 1.3512 0
M  V30 4375 H 392.594 0.65344 -0.361975 0
M  V30 4376 H 395.256 1.248 -1.49703 0
M  V30 4377 H 394.352 2.77424 -1.42978 0
M  V30 4378 N 394.653 0.992116 1.22453 0
M  V30 4379 C 395.901 0.666215 1.90804 0
M  V30 4380 C 396.222 -0.804152 1.77647 0
M  V30 4381 O 395.492 -1.57629 1.16318 0
M  V30 4382 H 394.072 0.243423 0.706225 0
M  V30 4383 H 396.734 1.25845 1.48825 0
M  V30 4384 H 395.83 0.928069 2.97982 0
M  V30 4385 N 396.131 -1.37776 0.765217 0
M  V30 4386 C 397.378 -1.99849 0.326588 0
M  V30 4387 C 397.706 -1.60746 -1.09504 0
M  V30 4388 O 396.961 -0.84202 -1.76659 0
M  V30 4389 C 397.26 -3.5504 0.410053 0
M  V30 4390 C 396.926 -4.13891 1.78899 0
M  V30 4391 C 395.588 -4.29678 2.16635 0
M  V30 4392 C 397.94 -4.46236 2.69301 0
M  V30 4393 C 395.268 -4.7511 3.44221 0
M  V30 4394 C 397.62 -4.93089 3.9629 0
M  V30 4395 C 396.284 -5.07082 4.34078 0
M  V30 4396 H 395.554 -0.7313 0.119507 0
M  V30 4397 H 398.201 -1.64645 0.977968 0
M  V30 4398 H 396.506 -3.90451 -0.324878 0
M  V30 4399 H 398.203 -4.00966 0.0520699 0
M  V30 4400 H 394.793 -4.02026 1.48569 0
M  V30 4401 H 398.977 -4.3363 2.41409 0
M  V30 4402 H 394.233 -4.84129 3.73402 0
M  V30 4403 H 398.407 -5.17084 4.66472 0
M  V30 4404 H 396.034 -5.42046 5.33001 0
M  V30 4405 N 397.609 -0.515225 -1.4894 0
M  V30 4406 C 398.856 0.024215 -2.02486 0
M  V30 4407 C 399.184 1.35671 -1.39368 0
M  V30 4408 O 398.439 1.88566 -0.523574 0
M  V30 4409 C 398.738 0.210595 -3.56779 0
M  V30 4410 C 398.404 -1.04569 -4.38607 0
M  V30 4411 C 397.066 -1.39002 -4.60686 0
M  V30 4412 C 399.418 -1.88008 -4.86109 0
M  V30 4413 C 396.746 -2.568 -5.27514 0
M  V30 4414 C 399.098 -3.04972 -5.54234 0
M  V30 4415 C 397.762 -3.39768 -5.74555 0
M  V30 4416 H 397.032 0.00886088 -0.740947 0
M  V30 4417 H 399.679 -0.678263 -1.79086 0
M  V30 4418 H 397.984 0.99572 -3.78936 0
M  V30 4419 H 399.681 0.642659 -3.95817 0
M  V30 4420 H 396.271 -0.767497 -4.21672 0
M  V30 4421 H 400.455 -1.62719 -4.68867 0
M  V30 4422 H 395.711 -2.8398 -5.41447 0
M  V30 4423 H 399.885 -3.69943 -5.90013 0
M  V30 4424 H 397.512 -4.31148 -6.26112 0
M  V30 4425 N 399.087 1.5561 -0.249682 0
M  V30 4426 C 400.335 1.98618 0.373548 0
M  V30 4427 C 400.656 1.13919 1.58264 0
M  V30 4428 O 399.926 0.222637 1.94631 0
M  V30 4429 H 398.506 0.733571 0.141006 0
M  V30 4430 H 401.168 1.91748 -0.349117 0
M  V30 4431 H 400.264 3.04584 0.680796 0
M  V30 4432 N 400.565 -0.0233959 1.57583 0
M  V30 4433 C 401.813 -0.711654 1.89156 0
M  V30 4434 C 402.134 -1.75591 0.848096 0
M  V30 4435 O 401.404 -1.95547 -0.117566 0
M  V30 4436 H 399.984 -0.265835 0.698098 0
M  V30 4437 H 402.646 0.0119948 1.94896 0
M  V30 4438 H 401.742 -1.19766 2.88206 0
M  V30 4439 N 402.043 -1.548 -0.295768 0
M  V30 4440 C 403.268 -1.78653 -1.05346 0
M  V30 4441 C 403.693 -0.546894 -1.79974 0
M  V30 4442 O 403.051 0.502763 -1.7419 0
M  V30 4443 C 403.099 -2.99679 -2.00561 0
M  V30 4444 O 402.203 -2.7317 -3.08953 0
M  V30 4445 H 401.544 -0.59116 -0.302367 0
M  V30 4446 H 404.074 -2.01895 -0.331598 0
M  V30 4447 H 404.084 -3.27793 -2.42932 0
M  V30 4448 H 402.759 -3.89562 -1.4565 0
M  V30 4449 H 401.336 -2.56089 -2.71059 0
M  V30 4450 N 403.521 0.559213 -1.47345 0
M  V30 4451 C 404.767 1.31843 -1.54095 0
M  V30 4452 C 405.1 1.93149 -0.201726 0
M  V30 4453 O 404.375 1.77759 0.789428 0
M  V30 4454 C 404.658 2.43006 -2.65744 0
M  V30 4455 C 404.511 1.86581 -4.09277 0
M  V30 4456 C 405.83 3.44943 -2.73318 0
M  V30 4457 H 402.949 0.478012 -0.560957 0
M  V30 4458 H 405.591 0.625977 -1.79392 0
M  V30 4459 H 403.741 3.02072 -2.44305 0
M  V30 4460 H 405.413 1.31792 -4.42073 0
M  V30 4461 H 403.656 1.17268 -4.17649 0
M  V30 4462 H 404.327 2.66933 -4.83168 0
M  V30 4463 H 406.803 2.95793 -2.92653 0
M  V30 4464 H 405.679 4.20153 -3.53218 0
M  V30 4465 H 405.94 4.03665 -1.80296 0
M  V30 4466 N 404.999 1.35443 0.805782 0
M  V30 4467 C 405.931 1.24285 1.92577 0
M  V30 4468 C 406.944 0.165962 1.61952 0
M  V30 4469 O 408.133 0.419303 1.73505 0
M  V30 4470 C 405.233 0.891272 3.2697 0
M  V30 4471 C 404.406 2.06669 3.85495 0
M  V30 4472 C 403.465 1.69077 4.98297 0
M  V30 4473 O 402.491 2.4096 5.15681 0
M  V30 4474 N 403.693 0.614869 5.77234 0
M  V30 4475 H 406.458 2.20777 2.02676 0
M  V30 4476 H 404.019 1.28623 0.983243 0
M  V30 4477 H 406.011 0.621256 3.99903 0
M  V30 4478 H 404.581 0.016004 3.12596 0
M  V30 4479 H 403.801 2.50046 3.04747 0
M  V30 4480 H 405.089 2.85237 4.21328 0
M  V30 4481 H 404.487 0.017648 5.65697 0
M  V30 4482 H 403.044 0.404636 6.50543 0
M  V30 4483 N 406.477 -1.02803 1.19454 0
M  V30 4484 C 407.387 -2.14575 0.948408 0
M  V30 4485 C 408.403 -1.73757 -0.091871 0
M  V30 4486 O 409.579 -2.01185 0.0929654 0
M  V30 4487 C 406.644 -3.43202 0.491265 0
M  V30 4488 C 405.705 -3.98328 1.60103 0
M  V30 4489 C 404.938 -5.20816 1.16561 0
M  V30 4490 O 405.161 -5.70392 0.0295238 0
M  V30 4491 O 404.095 -5.68801 1.96849 0
M  V30 4492 H 407.921 -2.38202 1.88397 0
M  V30 4493 H 405.506 -1.12989 0.977433 0
M  V30 4494 H 407.388 -4.20687 0.245015 0
M  V30 4495 H 406.063 -3.21018 -0.415851 0
M  V30 4496 H 404.97 -3.22174 1.90144 0
M  V30 4497 H 406.303 -4.24879 2.48473 0
M  V30 4498 N 407.956 -0.998596 -1.21925 0
M  V30 4499 C 409.202 -0.678667 -1.91107 0
M  V30 4500 C 409.535 0.78791 -1.77498 0
M  V30 4501 O 408.81 1.57043 -1.1475 0
M  V30 4502 C 409.093 -1.09245 -3.43129 0
M  V30 4503 C 408.946 -2.61801 -3.6576 0
M  V30 4504 C 410.265 -0.649984 -4.35274 0
M  V30 4505 H 407.384 -0.248025 -0.694012 0
M  V30 4506 H 410.026 -1.24314 -1.43688 0
M  V30 4507 H 408.176 -0.612171 -3.83647 0
M  V30 4508 H 409.848 -3.17543 -3.34611 0
M  V30 4509 H 408.091 -3.03609 -3.09845 0
M  V30 4510 H 408.762 -2.85804 -4.7225 0
M  V30 4511 H 411.238 -1.0626 -4.02303 0
M  V30 4512 H 410.114 -0.967743 -5.40302 0
M  V30 4513 H 410.375 0.449139 -4.39813 0
M  V30 4514 N 409.434 1.37368 -0.772513 0
M  V30 4515 C 410.366 2.28899 -0.117502 0
M  V30 4516 C 411.379 1.4867 0.663405 0
M  V30 4517 O 412.568 1.71314 0.501372 0
M  V30 4518 C 409.668 3.2788 0.857192 0
M  V30 4519 C 408.841 4.37207 0.129938 0
M  V30 4520 C 407.9 5.16257 1.01811 0
M  V30 4521 O 406.926 5.67159 0.481601 0
M  V30 4522 N 408.128 5.31058 2.3443 0
M  V30 4523 H 410.893 2.85752 -0.903662 0
M  V30 4524 H 408.454 1.49353 -0.62493 0
M  V30 4525 H 410.446 3.77647 1.45482 0
M  V30 4526 H 409.016 2.7179 1.54432 0
M  V30 4527 H 408.236 3.88827 -0.648605 0
M  V30 4528 H 409.524 5.07434 -0.372559 0
M  V30 4529 H 408.922 4.91287 2.80452 0
M  V30 4530 H 407.479 5.84131 2.89197 0
M  V30 4531 N 410.912 0.523116 1.48665 0
M  V30 4532 C 412.328 0.180511 1.58576 0
M  V30 4533 C 412.528 -1.31597 1.52592 0
M  V30 4534 O 411.584 -2.0937 1.4114 0
M  V30 4535 C 412.897 0.776949 2.90489 0
M  V30 4536 C 414.445 0.745058 3.04003 0
M  V30 4537 C 414.92 1.31995 4.38567 0
M  V30 4538 N 416.411 1.28162 4.45117 0
M  V30 4539 C 417.146 1.6964 5.47731 0
M  V30 4540 N 416.642 2.18816 6.57337 0
M  V30 4541 N 418.435 1.6092 5.38573 0
M  V30 4542 H 410.586 1.4958 1.50797 0
M  V30 4543 H 412.849 0.621772 0.715614 0
M  V30 4544 H 412.555 1.82732 3.00503 0
M  V30 4545 H 412.429 0.25007 3.7637 0
M  V30 4546 H 414.816 -0.296532 2.93606 0
M  V30 4547 H 414.897 1.30933 2.1975 0
M  V30 4548 H 414.541 2.36043 4.49718 0
M  V30 4549 H 414.471 0.731418 5.21496 0
M  V30 4550 H 416.962 0.92155 3.66491 0
M  V30 4551 H 417.275 2.48478 7.31764 0
M  V30 4552 H 415.62 2.22805 6.58318 0
M  V30 4553 H 418.811 1.22304 4.5184 0
M  V30 4554 H 418.984 1.93567 6.18414 0
M  V30 4555 N 412.39 -1.55475 0.257931 0
M  V30 4556 C 413.32 -2.24815 -0.630912 0
M  V30 4557 C 414.301 -1.23224 -1.17259 0
M  V30 4558 O 415.486 -1.51904 -1.20991 0
M  V30 4559 C 412.616 -2.95609 -1.82298 0
M  V30 4560 C 411.57 -4.03982 -1.41359 0
M  V30 4561 C 410.896 -4.6226 -2.68738 0
M  V30 4562 C 412.196 -5.19109 -0.57648 0
M  V30 4563 H 413.89 -2.99354 -0.0526878 0
M  V30 4564 H 411.436 -1.4398 -0.023901 0
M  V30 4565 H 413.389 -3.42822 -2.45054 0
M  V30 4566 H 412.113 -2.18577 -2.42676 0
M  V30 4567 H 410.772 -3.57555 -0.809324 0
M  V30 4568 H 410.42 -3.81915 -3.27338 0
M  V30 4569 H 410.12 -5.35424 -2.42065 0
M  V30 4570 H 411.644 -5.12212 -3.32372 0
M  V30 4571 H 413.058 -5.62479 -1.10861 0
M  V30 4572 H 411.455 -5.98729 -0.405351 0
M  V30 4573 H 412.525 -4.83174 0.408776 0
M  V30 4574 N 413.868 0.0150385 -1.57593 0
M  V30 4575 C 415.096 0.714395 -1.94175 0
M  V30 4576 C 415.511 1.68135 -0.858841 0
M  V30 4577 O 414.868 1.81766 0.163567 0
M  V30 4578 C 414.919 1.45933 -3.30735 0
M  V30 4579 O 414.64 0.531167 -4.34868 0
M  V30 4580 C 416.141 2.25456 -3.81686 0
M  V30 4581 H 413.361 0.199923 -0.640525 0
M  V30 4582 H 415.905 -0.0316096 -2.04476 0
M  V30 4583 H 414.06 2.15709 -3.21789 0
M  V30 4584 H 414.474 1.05509 -5.13778 0
M  V30 4585 H 415.948 2.731 -4.79709 0
M  V30 4586 H 416.425 3.07485 -3.13607 0
M  V30 4587 H 417.031 1.60727 -3.9376 0
M  V30 4588 N 415.346 1.54954 0.287554 0
M  V30 4589 C 416.762 1.46469 0.633964 0
M  V30 4590 C 416.962 0.666865 1.90145 0
M  V30 4591 O 416.018 0.179906 2.51858 0
M  V30 4592 C 417.331 2.90556 0.774454 0
M  V30 4593 C 418.879 3.00681 0.869462 0
M  V30 4594 C 419.354 4.45993 1.04184 0
M  V30 4595 N 420.845 4.4976 1.10772 0
M  V30 4596 C 421.58 5.59393 1.25964 0
M  V30 4597 N 421.076 6.78923 1.37968 0
M  V30 4598 N 422.869 5.47107 1.28959 0
M  V30 4599 H 415.02 2.05288 -0.545041 0
M  V30 4600 H 417.283 0.930305 -0.182308 0
M  V30 4601 H 416.989 3.51594 -0.086207 0
M  V30 4602 H 416.863 3.38743 1.6593 0
M  V30 4603 H 419.25 2.39749 1.7206 0
M  V30 4604 H 419.331 2.55769 -0.0396831 0
M  V30 4605 H 418.975 5.07524 0.195422 0
M  V30 4606 H 418.905 4.88548 1.96542 0
M  V30 4607 H 421.396 3.63651 1.02794 0
M  V30 4608 H 421.709 7.58231 1.49353 0
M  V30 4609 H 420.054 6.81763 1.34999 0
M  V30 4610 H 423.245 4.52668 1.19202 0
M  V30 4611 H 423.418 6.32595 1.40455 0
M  V30 4612 N 416.824 -0.551391 1.4764 0
M  V30 4613 C 417.787 -1.64007 1.60107 0
M  V30 4614 C 418.787 -1.53601 0.47576 0
M  V30 4615 O 419.977 -1.57655 0.740988 0
M  V30 4616 C 417.109 -3.03569 1.55108 0
M  V30 4617 H 418.302 -1.543 2.57161 0
M  V30 4618 H 415.855 -0.771776 1.35917 0
M  V30 4619 H 416.59 -3.18804 0.594519 0
M  V30 4620 H 416.375 -3.12532 2.36783 0
M  V30 4621 H 417.865 -3.82762 1.66982 0
M  V30 4622 N 418.302 -1.35869 -0.798587 0
M  V30 4623 C 419.542 -1.30961 -1.56935 0
M  V30 4624 C 419.906 0.112404 -1.91671 0
M  V30 4625 O 421.107 0.285937 -2.67275 0
M  V30 4626 C 419.378 -2.19811 -2.81811 0
M  V30 4627 S 420.937 -2.32498 -3.72143 0
M  V30 4628 H 417.755 -0.465297 -0.537606 0
M  V30 4629 H 420.357 -1.71344 -0.941346 0
M  V30 4630 H 419.061 -3.22095 -2.54329 0
M  V30 4631 H 418.592 -1.80415 -3.49591 0
M  V30 4632 H 420.607 -1.5157 -4.72484 0
M  V30 4633 N 419.78 1.02168 -1.19998 0
M  V30 4634 C 420.73 2.08969 -0.911921 0
M  V30 4635 C 421.714 1.60404 0.12621 0
M  V30 4636 O 422.906 1.76817 -0.0804706 0
M  V30 4637 C 420.035 3.402 -0.460277 0
M  V30 4638 C 419.121 3.9548 -1.53155 0
M  V30 4639 N 419.512 4.24332 -2.75275 0
M  V30 4640 C 417.81 4.23572 -1.39653 0
M  V30 4641 C 418.511 4.68834 -3.44339 0
M  V30 4642 N 417.487 4.70804 -2.71744 0
M  V30 4643 H 421.289 2.29178 -1.83997 0
M  V30 4644 H 418.803 1.20094 -1.09322 0
M  V30 4645 H 420.8 4.16235 -0.235337 0
M  V30 4646 H 419.46 3.21408 0.4612 0
M  V30 4647 H 420.471 4.13393 -3.11973 0
M  V30 4648 H 417.148 4.14005 -0.539067 0
M  V30 4649 H 418.538 5.00019 -4.4881 0
M  V30 4650 N 421.258 1.00505 1.21394 0
M  V30 4651 C 422.19 0.52372 2.23136 0
M  V30 4652 C 423.203 -0.387714 1.58116 0
M  V30 4653 O 424.392 -0.187905 1.77508 0
M  V30 4654 C 421.492 -0.258885 3.3791 0
M  V30 4655 C 420.665 0.651634 4.32519 0
M  V30 4656 C 419.724 -0.0813705 5.26137 0
M  V30 4657 O 418.75 0.537295 5.66658 0
M  V30 4658 N 419.952 -1.35992 5.64346 0
M  V30 4659 H 422.717 1.39865 2.65062 0
M  V30 4660 H 420.278 0.881196 1.35818 0
M  V30 4661 H 422.27 -0.758208 3.97534 0
M  V30 4662 H 420.84 -1.035 2.94968 0
M  V30 4663 H 420.06 1.33145 3.71034 0
M  V30 4664 H 421.348 1.27129 4.92662 0
M  V30 4665 H 420.746 -1.88368 5.33417 0
M  V30 4666 H 419.303 -1.8042 6.26332 0
M  V30 4667 N 422.737 -1.36956 0.779787 0
M  V30 4668 C 423.7 -2.2851 0.177662 0
M  V30 4669 C 424.7 -1.48393 -0.619377 0
M  V30 4670 O 425.89 -1.68505 -0.441785 0
M  V30 4671 C 423.022 -3.32428 -0.755279 0
M  V30 4672 H 424.215 -2.83269 0.984823 0
M  V30 4673 H 421.768 -1.46358 0.548544 0
M  V30 4674 H 422.503 -2.82808 -1.58714 0
M  V30 4675 H 422.288 -3.91659 -0.185817 0
M  V30 4676 H 423.778 -4.00824 -1.17174 0
M  V30 4677 N 424.215 -0.530993 -1.48385 0
M  V30 4678 C 425.148 0.278511 -2.26494 0
M  V30 4679 C 426.126 0.943905 -1.32398 0
M  V30 4680 O 427.31 0.968098 -1.61741 0
M  V30 4681 C 424.437 1.39453 -3.08659 0
M  V30 4682 C 423.483 0.840434 -4.18137 0
M  V30 4683 S 424.316 -0.292496 -5.34701 0
M  V30 4684 C 425.472 0.825973 -6.20426 0
M  V30 4685 H 425.705 -0.384365 -2.94805 0
M  V30 4686 H 423.238 -0.316799 -1.51115 0
M  V30 4687 H 425.196 2.03382 -3.56575 0
M  V30 4688 H 423.857 2.02913 -2.3976 0
M  V30 4689 H 423.05 1.67769 -4.75257 0
M  V30 4690 H 422.652 0.277819 -3.72967 0
M  V30 4691 H 424.944 1.72438 -6.55188 0
M  V30 4692 H 425.887 0.292728 -7.07495 0
M  V30 4693 H 426.295 1.10683 -5.53543 0
M  V30 4694 N 425.693 1.55336 -0.266172 0
M  V30 4695 C 426.626 2.18256 0.666296 0
M  V30 4696 C 427.604 1.14064 1.1588 0
M  V30 4697 O 428.788 1.42546 1.23341 0
M  V30 4698 C 425.915 2.79867 1.90768 0
M  V30 4699 C 424.961 3.97283 1.55141 0
M  V30 4700 S 425.794 5.31694 0.637313 0
M  V30 4701 C 426.95 5.96769 1.88727 0
M  V30 4702 H 427.183 2.97008 0.131647 0
M  V30 4703 H 424.716 1.54317 -0.0504869 0
M  V30 4704 H 426.674 3.15996 2.62025 0
M  V30 4705 H 425.335 2.01025 2.41346 0
M  V30 4706 H 424.528 4.3905 2.4749 0
M  V30 4707 H 424.13 3.6253 0.919113 0
M  V30 4708 H 426.422 6.15458 2.83227 0
M  V30 4709 H 427.365 6.91752 1.51276 0
M  V30 4710 H 427.773 5.26034 2.04814 0
M  V30 4711 N 427.171 -0.0066808 1.57599 0
M  V30 4712 C 428.417 -0.693947 1.90558 0
M  V30 4713 C 428.75 -1.73792 0.866594 0
M  V30 4714 O 428.025 -1.94156 -0.115548 0
M  V30 4715 C 428.308 -1.34317 3.34112 0
M  V30 4716 C 428.161 -0.311189 4.48722 0
M  V30 4717 C 429.48 -2.27116 3.7697 0
M  V30 4718 H 426.599 -0.250803 0.693013 0
M  V30 4719 H 429.241 0.043242 1.89951 0
M  V30 4720 H 427.391 -1.9715 3.3476 0
M  V30 4721 H 429.063 0.316944 4.6021 0
M  V30 4722 H 427.306 0.367253 4.32243 0
M  V30 4723 H 427.977 -0.804366 5.46108 0
M  V30 4724 H 430.453 -1.74306 3.77831 0
M  V30 4725 H 429.329 -2.69511 4.78179 0
M  V30 4726 H 429.59 -3.14743 3.10466 0
M  V30 4727 N 428.649 -1.55105 -0.279332 0
M  V30 4728 C 429.926 -1.66119 -1.03267 0
M  V30 4729 C 430.306 -0.523525 -2.04505 0
M  V30 4730 O 429.654 0.477194 -2.23462 0
M  V30 4731 C 429.864 -3.05067 -1.69515 0
M  V30 4732 C 431.212 -3.62606 -2.20912 0
M  V30 4733 O 432.236 -3.07659 -1.79512 0
M  V30 4734 O 431.095 -4.58861 -2.96831 0
M  V30 4735 H 428.189 -0.674429 -0.478618 0
M  V30 4736 H 430.735 -1.67446 -0.275694 0
M  V30 4737 H 429.507 -3.79311 -0.9612 0
M  V30 4738 H 429.13 -3.07611 -2.51915 0
M  V30 4739 N 430.127 0.543554 -1.4793 0
M  V30 4740 C 431.059 1.665 -1.57513 0
M  V30 4741 C 432.072 1.56156 -0.460333 0
M  V30 4742 O 433.261 1.62865 -0.730573 0
M  V30 4743 C 430.361 3.05063 -1.47614 0
M  V30 4744 C 429.534 3.41024 -2.739 0
M  V30 4745 C 428.593 4.58809 -2.57645 0
M  V30 4746 O 427.619 4.62707 -3.31498 0
M  V30 4747 N 428.821 5.56149 -1.66368 0
M  V30 4748 H 431.586 1.5872 -2.5422 0
M  V30 4749 H 429.147 0.730517 -1.44482 0
M  V30 4750 H 431.139 3.81712 -1.34455 0
M  V30 4751 H 429.709 3.06994 -0.589359 0
M  V30 4752 H 428.929 2.53687 -3.01723 0
M  V30 4753 H 430.217 3.61831 -3.57709 0
M  V30 4754 H 429.615 5.55767 -1.05543 0
M  V30 4755 H 428.172 6.32071 -1.59154 0
M  V30 4756 N 431.605 1.3629 0.791371 0
M  V30 4757 C 432.568 1.30309 1.88553 0
M  V30 4758 C 433.568 0.211204 1.59407 0
M  V30 4759 O 434.758 0.465865 1.67855 0
M  V30 4760 C 431.89 1.01956 3.25297 0
M  V30 4761 H 433.083 2.27614 1.95273 0
M  V30 4762 H 430.636 1.21035 0.988953 0
M  V30 4763 H 431.371 0.050998 3.2426 0
M  V30 4764 H 431.156 1.80968 3.4784 0
M  V30 4765 H 432.646 1.0037 4.05359 0
M  V30 4766 N 433.083 -1.0153 1.20538 0
M  V30 4767 C 434.031 -2.12215 0.952235 0
M  V30 4768 C 435.025 -1.69123 -0.0968735 0
M  V30 4769 O 436.231 -1.7992 0.0536006 0
M  V30 4770 H 432.606 -0.693576 0.290613 0
M  V30 4771 H 434.577 -2.3075 1.89201 0
M  V30 4772 C 433.326 -3.43755 0.522287 0
M  V30 4773 H 432.649 -3.7734 1.32115 0
M  V30 4774 H 434.089 -4.22254 0.384389 0
M  V30 4775 C 432.548 -3.28088 -0.765489 0
M  V30 4776 O 433.078 -3.57921 -1.8236 0
M  V30 4777 N 431.284 -2.81333 -0.728011 0
M  V30 4778 H 430.831 -2.57255 0.133332 0
M  V30 4779 H 430.789 -2.71232 -1.58999 0
M  V30 4780 N 434.561 -1.01147 -1.20859 0
M  V30 4781 C 435.809 -0.696486 -1.89719 0
M  V30 4782 C 436.13 0.775788 -1.78904 0
M  V30 4783 O 435.4 1.55759 -1.18811 0
M  V30 4784 H 433.98 -0.254628 -0.702263 0
M  V30 4785 H 436.642 -1.28197 -1.46804 0
M  V30 4786 H 435.738 -0.975357 -2.96468 0
M  V30 4787 N 436.039 1.36541 -0.78704 0
M  V30 4788 C 437.288 1.98552 -0.35494 0
M  V30 4789 C 437.601 1.63171 1.07864 0
M  V30 4790 O 438.807 2.18399 1.61289 0
M  V30 4791 C 437.263 3.55136 -0.583671 0
M  V30 4792 C 436.871 3.99444 -2.02851 0
M  V30 4793 C 438.615 4.2395 -0.215957 0
M  V30 4794 C 436.522 5.48796 -2.20403 0
M  V30 4795 H 435.452 0.742888 -0.128972 0
M  V30 4796 H 438.103 1.5587 -0.968337 0
M  V30 4797 H 436.485 3.95875 0.0994046 0
M  V30 4798 H 437.659 3.6991 -2.74779 0
M  V30 4799 H 435.974 3.43459 -2.35425 0
M  V30 4800 H 438.571 5.33709 -0.325405 0
M  V30 4801 H 438.914 4.07827 0.835646 0
M  V30 4802 H 439.447 3.88565 -0.852175 0
M  V30 4803 H 436.186 5.69864 -3.23937 0
M  V30 4804 H 435.706 5.79964 -1.52977 0
M  V30 4805 H 437.385 6.14986 -2.01002 0
M  V30 4806 N 437.518 0.538854 1.48102 0
M  V30 4807 C 438.428 -0.222648 2.33541 0
M  V30 4808 C 439.444 -0.930225 1.47047 0
M  V30 4809 O 440.62 -0.903211 1.80011 0
M  V30 4810 C 437.685 -1.25064 3.23357 0
M  V30 4811 C 436.746 -0.552469 4.2573 0
M  V30 4812 C 435.979 -1.53149 5.11254 0
M  V30 4813 O 436.202 -2.76487 4.9891 0
M  V30 4814 O 435.136 -1.06602 5.92385 0
M  V30 4815 H 438.962 0.477707 2.99919 0
M  V30 4816 H 436.547 0.299669 1.46364 0
M  V30 4817 H 438.429 -1.8445 3.78888 0
M  V30 4818 H 437.104 -1.93325 2.59629 0
M  V30 4819 H 436.011 0.082114 3.7401 0
M  V30 4820 H 437.344 0.0883526 4.92121 0
M  V30 4821 N 438.996 -1.55193 0.274407 0
M  V30 4822 C 439.959 -2.212 -0.600279 0
M  V30 4823 C 440.959 -1.18963 -1.08187 0
M  V30 4824 O 442.149 -1.43873 -0.982158 0
M  V30 4825 C 439.281 -2.87739 -1.82809 0
M  V30 4826 H 440.474 -2.9989 -0.0239682 0
M  V30 4827 H 438.027 -1.5628 0.0250192 0
M  V30 4828 H 438.762 -2.13058 -2.44493 0
M  V30 4829 H 438.547 -3.62658 -1.49069 0
M  V30 4830 H 440.037 -3.38171 -2.45011 0
M  V30 4831 N 440.474 -0.00167713 -1.576 0
M  V30 4832 C 441.72 0.683832 -1.90923 0
M  V30 4833 C 442.053 1.7333 -0.875799 0
M  V30 4834 O 441.328 1.94215 0.10525 0
M  V30 4835 C 441.611 1.32543 -3.3482 0
M  V30 4836 C 441.464 0.287387 -4.48881 0
M  V30 4837 C 442.783 2.25114 -3.78169 0
M  V30 4838 H 439.902 0.247125 -0.694333 0
M  V30 4839 H 442.544 -0.0533149 -1.89925 0
M  V30 4840 H 440.694 1.95372 -3.35801 0
M  V30 4841 H 442.366 -0.341346 -4.60035 0
M  V30 4842 H 440.609 -0.39017 -4.32042 0
M  V30 4843 H 441.28 0.775393 -5.46527 0
M  V30 4844 H 443.756 1.723 -3.7875 0
M  V30 4845 H 442.632 2.66971 -4.79602 0
M  V30 4846 H 442.893 3.13092 -3.12131 0
M  V30 4847 N 441.952 1.55251 0.271103 0
M  V30 4848 C 443.198 1.7713 0.999832 0
M  V30 4849 C 443.553 0.56659 1.83868 0
M  V30 4850 O 442.846 -0.44069 1.86463 0
M  V30 4851 C 443.04 3.01879 1.91321 0
M  V30 4852 C 442.869 4.34368 1.16426 0
M  V30 4853 C 441.639 4.97593 0.879169 0
M  V30 4854 C 443.837 5.1131 0.553749 0
M  V30 4855 N 441.819 6.13813 0.103618 0
M  V30 4856 C 443.19 6.19938 -0.0875442 0
M  V30 4857 C 445.245 4.95754 0.461782 0
M  V30 4858 C 443.948 7.14703 -0.811942 0
M  V30 4859 C 445.974 5.90875 -0.249027 0
M  V30 4860 C 445.336 6.98893 -0.879051 0
M  V30 4861 H 441.435 0.700407 0.347784 0
M  V30 4862 H 444.019 1.92744 0.275314 0
M  V30 4863 H 442.19 2.87637 2.60997 0
M  V30 4864 H 443.922 3.12154 2.57569 0
M  V30 4865 H 440.677 4.58538 1.18491 0
M  V30 4866 H 441.101 6.76455 -0.271543 0
M  V30 4867 H 445.743 4.12342 0.934552 0
M  V30 4868 H 443.461 7.97634 -1.29639 0
M  V30 4869 H 447.047 5.80916 -0.320529 0
M  V30 4870 H 445.927 7.71231 -1.42031 0
M  V30 4871 N 443.43 -0.535701 1.48216 0
M  V30 4872 C 444.38 -1.63688 1.58714 0
M  V30 4873 C 445.364 -1.54635 0.444615 0
M  V30 4874 O 446.556 -1.62753 0.695742 0
M  V30 4875 C 443.685 -3.02423 1.62466 0
M  V30 4876 C 442.771 -3.16601 2.82178 0
M  V30 4877 N 443.162 -3.00771 4.06658 0
M  V30 4878 C 441.46 -3.47645 2.79391 0
M  V30 4879 C 442.161 -3.18213 4.86945 0
M  V30 4880 N 441.137 -3.45528 4.19656 0
M  V30 4881 H 444.939 -1.5005 2.5271 0
M  V30 4882 H 442.453 -0.741018 1.44508 0
M  V30 4883 H 444.45 -3.81517 1.6808 0
M  V30 4884 H 443.11 -3.17157 0.695826 0
M  V30 4885 H 444.121 -2.77652 4.37184 0
M  V30 4886 H 440.798 -3.68771 1.95739 0
M  V30 4887 H 442.188 -3.1076 5.95716 0
M  V30 4888 N 444.908 -1.36708 -0.784132 0
M  V30 4889 C 446.185 -1.21776 -1.53069 0
M  V30 4890 C 446.565 0.193876 -2.10208 0
M  V30 4891 O 445.913 1.20012 -1.94446 0
M  V30 4892 C 446.123 -2.30395 -2.62143 0
M  V30 4893 C 447.471 -2.67325 -3.29882 0
M  V30 4894 O 448.495 -2.29478 -2.7243 0
M  V30 4895 O 447.354 -3.32485 -4.33724 0
M  V30 4896 H 444.448 -0.474459 -0.677361 0
M  V30 4897 H 446.994 -1.48454 -0.82216 0
M  V30 4898 H 445.766 -3.2498 -2.17953 0
M  V30 4899 H 445.389 -2.05112 -3.40609 0
M  V30 4900 N 446.386 1.0089 -1.21074 0
M  V30 4901 C 447.296 2.13039 -0.982425 0
M  V30 4902 C 448.312 1.73881 0.0642161 0
M  V30 4903 O 449.488 2.01012 -0.12496 0
M  V30 4904 C 446.553 3.42377 -0.545803 0
M  V30 4905 C 445.614 3.95731 -1.6642 0
M  V30 4906 C 444.847 5.18896 -1.24832 0
M  V30 4907 O 445.07 5.70273 -0.120265 0
M  V30 4908 O 444.004 5.65597 -2.05873 0
M  V30 4909 H 447.83 2.35175 -1.92163 0
M  V30 4910 H 445.415 1.1142 -0.995285 0
M  V30 4911 H 447.297 4.20244 -0.311912 0
M  V30 4912 H 445.972 3.21639 0.364727 0
M  V30 4913 H 444.879 3.19108 -1.95246 0
M  V30 4914 H 446.212 4.20872 -2.55201 0
M  V30 4915 N 447.864 1.01787 1.20321 0
M  V30 4916 C 449.089 0.727009 1.9424 0
M  V30 4917 C 449.514 -0.706179 1.74341 0
M  V30 4918 O 448.872 -1.48609 1.03852 0
M  V30 4919 C 448.92 1.06958 3.44372 0
M  V30 4920 O 448.024 0.181983 4.11998 0
M  V30 4921 H 447.365 0.269626 0.606793 0
M  V30 4922 H 449.895 1.36158 1.52716 0
M  V30 4923 H 449.905 1.02182 3.94997 0
M  V30 4924 H 448.58 2.11378 3.58179 0
M  V30 4925 H 447.157 0.287378 3.71791 0
M  V30 4926 N 449.342 -1.36122 0.79427 0
M  V30 4927 C 450.292 -2.27373 0.169017 0
M  V30 4928 C 451.276 -1.4719 -0.649913 0
M  V30 4929 O 452.468 -1.69518 -0.50919 0
M  V30 4930 C 449.597 -3.36264 -0.691455 0
M  V30 4931 C 448.683 -4.2388 0.13653 0
M  V30 4932 N 449.074 -4.91519 1.19345 0
M  V30 4933 C 447.372 -4.45921 -0.0838499 0
M  V30 4934 C 448.073 -5.56369 1.6979 0
M  V30 4935 N 447.049 -5.34204 1.00634 0
M  V30 4936 H 450.851 -2.77154 0.977897 0
M  V30 4937 H 448.365 -1.49504 0.634208 0
M  V30 4938 H 450.362 -4.00572 -1.15534 0
M  V30 4939 H 449.022 -2.88037 -1.49883 0
M  V30 4940 H 450.033 -4.9334 1.57594 0
M  V30 4941 H 446.71 -4.08518 -0.861341 0
M  V30 4942 H 448.1 -6.20368 2.58055 0
M  V30 4943 N 450.82 -0.546701 -1.47814 0
M  V30 4944 C 451.75 0.195317 -2.32682 0
M  V30 4945 C 452.731 0.918981 -1.43139 0
M  V30 4946 O 453.916 0.901501 -1.72008 0
M  V30 4947 C 451.046 1.23237 -3.247 0
M  V30 4948 C 450 0.625818 -4.234 0
M  V30 4949 C 449.326 1.76674 -5.04669 0
M  V30 4950 C 450.626 -0.413515 -5.2066 0
M  V30 4951 H 452.32 -0.513184 -2.94969 0
M  V30 4952 H 449.866 -0.248241 -1.41844 0
M  V30 4953 H 451.819 1.75955 -3.82907 0
M  V30 4954 H 450.543 1.97067 -2.60446 0
M  V30 4955 H 449.202 0.120023 -3.66403 0
M  V30 4956 H 448.85 2.49383 -4.36826 0
M  V30 4957 H 448.55 1.36673 -5.71484 0
M  V30 4958 H 450.074 2.29738 -5.65732 0
M  V30 4959 H 451.488 0.0272042 -5.73294 0
M  V30 4960 H 449.885 -0.731825 -5.95621 0
M  V30 4961 H 450.955 -1.31325 -4.66778 0
M  V30 4962 N 452.299 1.55045 -0.282633 0
M  V30 4963 C 453.247 2.24254 0.617478 0
M  V30 4964 C 454.241 1.24215 1.15183 0
M  V30 4965 O 455.447 1.42123 1.10459 0
M  V30 4966 H 451.822 0.719801 0.217693 0
M  V30 4967 H 453.793 2.98398 0.0110076 0
M  V30 4968 C 452.542 2.98281 1.78672 0
M  V30 4969 H 451.865 3.75053 1.38475 0
M  V30 4970 H 453.305 3.50017 2.393 0
M  V30 4971 C 451.764 2.04184 2.67975 0
M  V30 4972 O 452.294 1.59792 3.6855 0
M  V30 4973 N 450.5 1.70526 2.35307 0
M  V30 4974 H 450.047 2.06821 1.53567 0
M  V30 4975 H 450.005 1.07839 2.95327 0
M  V30 4976 N 453.777 0.010035 1.57597 0
M  V30 4977 C 454.724 -0.978122 2.09049 0
M  V30 4978 C 455.694 -1.33509 0.988159 0
M  V30 4979 O 456.879 -1.43172 1.26121 0
M  V30 4980 C 454.019 -2.26158 2.60666 0
M  V30 4981 C 453.132 -1.96275 3.84838 0
M  V30 4982 C 452.267 -3.18776 4.24918 0
M  V30 4983 C 451.306 -2.84625 5.41899 0
M  V30 4984 N 450.443 -3.99693 5.77226 0
M  V30 4985 H 455.283 -0.532431 2.93205 0
M  V30 4986 H 452.82 -0.251234 1.44939 0
M  V30 4987 H 454.778 -3.01202 2.88675 0
M  V30 4988 H 453.408 -2.68378 1.79369 0
M  V30 4989 H 452.46 -1.11555 3.63675 0
M  V30 4990 H 453.772 -1.67111 4.69974 0
M  V30 4991 H 452.926 -4.02157 4.54262 0
M  V30 4992 H 451.665 -3.51087 3.38511 0
M  V30 4993 H 450.67 -1.99653 5.12268 0
M  V30 4994 H 451.895 -2.53551 6.29991 0
M  V30 4995 H 449.841 -4.31882 4.93776 0
M  V30 4996 H 449.758 -3.74087 6.56959 0
M  V30 4997 H 451.026 -4.83834 6.11167 0
M  V30 4998 N 455.255 -1.55392 -0.262866 0
M  V30 4999 C 456.485 -1.80251 -1.00961 0
M  V30 5000 C 456.893 -0.58117 -1.80053 0
M  V30 5001 O 456.236 0.459427 -1.77862 0
M  V30 5002 C 456.298 -2.98207 -2.00781 0
M  V30 5003 C 455.962 -4.34856 -1.40533 0
M  V30 5004 C 456.959 -5.13459 -0.815853 0
M  V30 5005 C 454.644 -4.8153 -1.42948 0
M  V30 5006 C 456.638 -6.36875 -0.258562 0
M  V30 5007 C 454.325 -6.04899 -0.868334 0
M  V30 5008 C 455.323 -6.8241 -0.283884 0
M  V30 5009 O 455.011 -8.03451 0.268644 0
M  V30 5010 H 454.743 -0.604049 -0.303482 0
M  V30 5011 H 457.297 -2.03257 -0.295926 0
M  V30 5012 H 455.527 -2.70917 -2.75936 0
M  V30 5013 H 457.216 -3.10299 -2.61667 0
M  V30 5014 H 457.982 -4.78526 -0.789812 0
M  V30 5015 H 453.861 -4.21201 -1.87378 0
M  V30 5016 H 457.405 -6.97318 0.198257 0
M  V30 5017 H 453.302 -6.39312 -0.891649 0
M  V30 5018 H 454.07 -8.18346 0.158974 0
M  V30 5019 N 456.733 0.527833 -1.48498 0
M  V30 5020 C 457.663 1.64136 -1.66077 0
M  V30 5021 C 458.644 1.62286 -0.509625 0
M  V30 5022 O 459.829 1.79449 -0.742413 0
M  V30 5023 C 456.959 3.02717 -1.70234 0
M  V30 5024 C 455.913 3.19426 -2.8487 0
M  V30 5025 C 455.239 4.5909 -2.74118 0
M  V30 5026 C 456.539 3.01993 -4.26142 0
M  V30 5027 H 458.233 1.4968 -2.593 0
M  V30 5028 H 455.779 0.718654 -1.24785 0
M  V30 5029 H 457.732 3.80491 -1.8112 0
M  V30 5030 H 456.456 3.18201 -0.735911 0
M  V30 5031 H 455.115 2.4407 -2.73542 0
M  V30 5032 H 454.763 4.71413 -1.7544 0
M  V30 5033 H 454.463 4.71214 -3.51042 0
M  V30 5034 H 455.987 5.3896 -2.86974 0
M  V30 5035 H 457.401 3.69558 -4.38292 0
M  V30 5036 H 455.798 3.2561 -5.04082 0
M  V30 5037 H 456.868 1.98396 -4.42456 0
M  V30 5038 N 458.211 1.37122 0.776871 0
M  V30 5039 C 459.141 1.35164 1.90402 0
M  V30 5040 C 460.122 0.221069 1.68657 0
M  V30 5041 O 461.307 0.420642 1.8959 0
M  V30 5042 C 458.437 1.15274 3.27611 0
M  V30 5043 C 457.391 2.25289 3.63908 0
M  V30 5044 C 456.717 1.90527 4.99603 0
M  V30 5045 C 458.017 3.67446 3.71188 0
M  V30 5046 H 459.711 2.29482 1.92297 0
M  V30 5047 H 457.257 1.10465 0.923773 0
M  V30 5048 H 459.21 1.12536 4.06096 0
M  V30 5049 H 457.934 0.174102 3.26136 0
M  V30 5050 H 456.593 2.27174 2.87728 0
M  V30 5051 H 456.241 0.91206 4.94662 0
M  V30 5052 H 455.941 2.64193 5.24858 0
M  V30 5053 H 457.465 1.89367 5.80493 0
M  V30 5054 H 458.879 3.67719 4.39836 0
M  V30 5055 H 457.276 4.40123 4.07936 0
M  V30 5056 H 458.346 4.01443 2.71977 0
M  V30 5057 N 459.689 -1.00246 1.21608 0
M  V30 5058 C 461.105 -1.26435 0.973975 0
M  V30 5059 C 461.305 -1.98642 -0.338143 0
M  V30 5060 O 460.361 -2.29026 -1.06317 0
M  V30 5061 C 461.674 -2.08551 2.16626 0
M  V30 5062 C 463.222 -2.21769 2.20879 0
M  V30 5063 C 463.697 -3.07267 3.39633 0
M  V30 5064 N 465.188 -3.14855 3.39736 0
M  V30 5065 C 465.923 -3.81274 4.28273 0
M  V30 5066 N 465.419 -4.497 5.27012 0
M  V30 5067 N 467.212 -3.7794 4.16074 0
M  V30 5068 H 459.363 -0.518089 2.05984 0
M  V30 5069 H 461.626 -0.291368 0.902113 0
M  V30 5070 H 461.332 -1.62847 3.11727 0
M  V30 5071 H 461.206 -3.09303 2.15897 0
M  V30 5072 H 463.593 -2.66691 1.26332 0
M  V30 5073 H 463.674 -1.20478 2.25652 0
M  V30 5074 H 463.318 -2.63047 4.34475 0
M  V30 5075 H 463.248 -4.08678 3.321 0
M  V30 5076 H 465.739 -2.66147 2.6828 0
M  V30 5077 H 466.052 -4.98092 5.90867 0
M  V30 5078 H 464.397 -4.48479 5.30935 0
M  V30 5079 H 467.588 -3.23638 3.38195 0
M  V30 5080 H 467.761 -4.29424 4.85282 0
M  V30 5081 N 461.167 -1.02423 -1.1978 0
M  V30 5082 C 462.117 -0.571689 -2.20716 0
M  V30 5083 C 463.101 0.377077 -1.56419 0
M  V30 5084 O 464.293 0.198801 -1.7588 0
M  V30 5085 C 461.422 0.0808555 -3.43205 0
M  V30 5086 C 460.508 -0.890073 -4.14655 0
M  V30 5087 N 460.899 -2.05065 -4.62366 0
M  V30 5088 C 459.197 -0.71252 -4.40272 0
M  V30 5089 C 459.898 -2.66264 -5.17183 0
M  V30 5090 N 458.874 -1.94264 -5.07703 0
M  V30 5091 H 462.676 -1.45636 -2.55279 0
M  V30 5092 H 460.19 -0.890596 -1.35802 0
M  V30 5093 H 462.187 0.422654 -4.14752 0
M  V30 5094 H 460.847 0.961274 -3.10144 0
M  V30 5095 H 461.858 -2.43026 -4.57339 0
M  V30 5096 H 458.535 0.119199 -4.1733 0
M  V30 5097 H 459.925 -3.64526 -5.64421 0
M  V30 5098 N 462.645 1.35699 -0.801477 0
M  V30 5099 C 463.592 2.29876 -0.206294 0
M  V30 5100 C 464.562 1.52565 0.656752 0
M  V30 5101 O 465.747 1.81024 0.602906 0
M  V30 5102 C 462.887 3.39052 0.643272 0
M  V30 5103 C 462 4.31335 -0.239644 0
M  V30 5104 C 461.135 5.27599 0.61744 0
M  V30 5105 C 460.174 6.11521 -0.26619 0
M  V30 5106 N 459.311 6.99938 0.550571 0
M  V30 5107 H 464.151 2.80187 -1.01484 0
M  V30 5108 H 461.688 1.37902 -0.511997 0
M  V30 5109 H 463.646 4.0101 1.15094 0
M  V30 5110 H 462.276 2.9003 1.41713 0
M  V30 5111 H 461.328 3.70426 -0.865381 0
M  V30 5112 H 462.64 4.90243 -0.919985 0
M  V30 5113 H 461.794 5.94906 1.19045 0
M  V30 5114 H 460.533 4.69176 1.33137 0
M  V30 5115 H 459.538 5.43166 -0.851507 0
M  V30 5116 H 460.763 6.72022 -0.9779 0
M  V30 5117 H 458.709 6.44008 1.24856 0
M  V30 5118 H 458.626 7.55966 -0.071832 0
M  V30 5119 H 459.894 7.71599 1.10702 0
M  V30 5120 N 464.123 0.554532 1.47522 0
M  V30 5121 C 465.534 0.120446 1.86311 0
M  V30 5122 C 465.885 -1.30904 1.46145 0
M  V30 5123 O 465.01 -1.98434 0.863294 0
M  V30 5124 C 465.605 0.211808 3.38137 0
M  V30 5125 C 464.164 -0.167224 3.76028 0
M  V30 5126 C 463.311 0.560576 2.71575 0
M  V30 5127 H 466.262 0.764408 1.39077 0
M  V30 5128 H 466.283 -0.570275 3.76202 0
M  V30 5129 H 465.795 1.25232 3.6734 0
M  V30 5130 H 463.896 -1.20894 3.52442 0
M  V30 5131 H 464.009 0.189473 4.78725 0
M  V30 5132 H 462.373 0.00396836 2.547 0
M  V30 5133 H 463.156 1.60219 3.0362 0
M  V30 5134 N 465.601 -1.54893 0.290851 0
M  V30 5135 C 466.829 -2.04343 -0.324288 0
M  V30 5136 C 467.244 -1.16859 -1.48289 0
M  V30 5137 O 466.601 -0.192018 -1.81487 0
M  V30 5138 C 466.652 -3.52756 -0.79026 0
M  V30 5139 O 466.373 -4.36913 0.322213 0
M  V30 5140 C 467.874 -4.18161 -1.4716 0
M  V30 5141 H 465.094 -0.667135 -0.0719173 0
M  V30 5142 H 467.638 -1.99981 0.427529 0
M  V30 5143 H 465.793 -3.57511 -1.49213 0
M  V30 5144 H 466.207 -5.24486 -0.0387372 0
M  V30 5145 H 467.681 -5.23562 -1.7489 0
M  V30 5146 H 468.158 -3.67282 -2.40834 0
M  V30 5147 H 468.764 -4.17454 -0.813178 0
M  V30 5148 N 467.08 -0.0183926 -1.57589 0
M  V30 5149 C 468.027 0.967022 -2.09565 0
M  V30 5150 C 468.997 1.32983 -0.995225 0
M  V30 5151 O 470.182 1.42501 -1.26878 0
M  V30 5152 C 467.322 2.24772 -2.61861 0
M  V30 5153 C 466.435 1.94232 -3.85873 0
M  V30 5154 C 465.57 3.16518 -4.26603 0
M  V30 5155 C 464.609 2.81748 -5.43401 0
M  V30 5156 N 463.746 3.96626 -5.79338 0
M  V30 5157 H 468.586 0.516874 -2.93483 0
M  V30 5158 H 466.123 0.243544 -1.4507 0
M  V30 5159 H 468.081 2.99667 -2.90268 0
M  V30 5160 H 466.711 2.67423 -1.8079 0
M  V30 5161 H 465.763 1.09625 -3.64262 0
M  V30 5162 H 467.075 1.64616 -4.70853 0
M  V30 5163 H 466.229 3.99743 -4.56389 0
M  V30 5164 H 464.968 3.49286 -3.40368 0
M  V30 5165 H 463.973 1.96933 -5.1332 0
M  V30 5166 H 465.198 2.50207 -6.31327 0
M  V30 5167 H 463.144 4.29257 -4.96059 0
M  V30 5168 H 463.061 3.70598 -6.58933 0
M  V30 5169 H 464.329 4.80586 -6.13724 0
M  V30 5170 N 468.558 1.5553 0.254621 0
M  V30 5171 C 469.804 1.77262 0.985193 0
M  V30 5172 C 470.137 0.582286 1.85265 0
M  V30 5173 O 469.412 -0.419666 1.89919 0
M  V30 5174 C 469.695 3.0881 1.85225 0
M  V30 5175 C 469.548 4.38233 1.0135 0
M  V30 5176 C 470.867 3.3653 2.83612 0
M  V30 5177 H 467.986 0.644906 0.356742 0
M  V30 5178 H 470.628 1.88264 0.256236 0
M  V30 5179 H 468.778 2.99562 2.47376 0
M  V30 5180 H 470.45 4.59463 0.411269 0
M  V30 5181 H 468.693 4.32636 0.317574 0
M  V30 5182 H 469.364 5.26644 1.65379 0
M  V30 5183 H 471.84 3.45691 2.31596 0
M  V30 5184 H 470.716 4.29805 3.41407 0
M  V30 5185 H 470.977 2.57064 3.59681 0
M  V30 5186 N 470.036 -0.519951 1.48776 0
M  V30 5187 C 470.966 -1.63253 1.66945 0
M  V30 5188 C 471.947 -1.62014 0.518224 0
M  V30 5189 O 473.132 -1.79053 0.751919 0
M  V30 5190 C 470.262 -3.0181 1.71836 0
M  V30 5191 C 469.216 -3.17911 2.8656 0
M  V30 5192 C 468.542 -4.5763 2.76548 0
M  V30 5193 C 469.842 -2.99729 4.27738 0
M  V30 5194 H 471.536 -1.48302 2.6009 0
M  V30 5195 H 469.082 -0.712026 1.25165 0
M  V30 5196 H 471.035 -3.79525 1.83135 0
M  V30 5197 H 469.759 -3.17806 0.752775 0
M  V30 5198 H 468.418 -2.42616 2.74833 0
M  V30 5199 H 468.066 -4.70476 1.77937 0
M  V30 5200 H 467.766 -4.69346 3.53536 0
M  V30 5201 H 469.29 -5.37431 2.89828 0
M  V30 5202 H 470.704 -3.67228 4.40246 0
M  V30 5203 H 469.101 -3.22932 5.05801 0
M  V30 5204 H 470.171 -1.96047 4.43502 0
M  V30 5205 N 471.514 -1.37532 -0.769588 0
M  V30 5206 C 472.739 -1.36231 -1.56384 0
M  V30 5207 C 473.164 0.0495849 -1.88035 0
M  V30 5208 O 472.522 1.02723 -1.49391 0
M  V30 5209 C 472.57 -2.20986 -2.84952 0
M  V30 5210 O 471.674 -1.61597 -3.79421 0
M  V30 5211 H 471.015 -0.465387 -0.473615 0
M  V30 5212 H 473.545 -1.81085 -0.952342 0
M  V30 5213 H 473.555 -2.34277 -3.34034 0
M  V30 5214 H 472.23 -3.23612 -2.61243 0
M  V30 5215 H 470.807 -1.57359 -3.38072 0
M  V30 5216 N 472.992 0.995999 -1.22138 0
M  V30 5217 C 474.403 1.54961 -1.04135 0
M  V30 5218 C 474.754 1.92159 0.396147 0
M  V30 5219 O 473.879 1.74435 1.28069 0
M  V30 5220 C 474.474 2.81581 -1.88408 0
M  V30 5221 C 473.033 3.33396 -1.74712 0
M  V30 5222 C 472.18 2.06509 -1.85066 0
M  V30 5223 H 475.131 0.817436 -1.36028 0
M  V30 5224 H 475.152 3.53822 -1.39966 0
M  V30 5225 H 474.664 2.54476 -2.93025 0
M  V30 5226 H 472.765 3.65416 -0.728159 0
M  V30 5227 H 472.878 4.04208 -2.57202 0
M  V30 5228 H 471.242 2.19925 -1.28472 0
M  V30 5229 H 472.025 1.81804 -2.91208 0
M  V30 5230 N 474.47 1.03057 1.19235 0
M  V30 5231 C 475.38 0.622922 2.26179 0
M  V30 5232 C 476.396 -0.346113 1.70523 0
M  V30 5233 O 477.572 -0.203572 2.00369 0
M  V30 5234 C 474.637 -0.0182063 3.46695 0
M  V30 5235 C 473.698 0.998546 4.17526 0
M  V30 5236 C 472.931 0.387917 5.32288 0
M  V30 5237 O 473.154 -0.808668 5.64639 0
M  V30 5238 O 472.088 1.1116 5.91546 0
M  V30 5239 H 475.914 1.51363 2.63292 0
M  V30 5240 H 473.499 0.800856 1.26122 0
M  V30 5241 H 475.381 -0.375606 4.19723 0
M  V30 5242 H 474.056 -0.882895 3.11427 0
M  V30 5243 H 472.963 1.40756 3.4661 0
M  V30 5244 H 474.296 1.83366 4.56769 0
M  V30 5245 N 475.948 -1.35272 0.808662 0
M  V30 5246 C 477.178 -2.02652 0.401953 0
M  V30 5247 C 477.586 -1.6108 -0.992462 0
M  V30 5248 O 476.929 -0.804984 -1.65123 0
M  V30 5249 C 476.991 -3.57174 0.408246 0
M  V30 5250 C 476.655 -4.22019 1.75353 0
M  V30 5251 C 477.652 -4.43552 2.71215 0
M  V30 5252 C 475.337 -4.59093 2.03811 0
M  V30 5253 C 477.331 -5.01264 3.93717 0
M  V30 5254 C 475.018 -5.16519 3.26576 0
M  V30 5255 C 476.016 -5.37546 4.21347 0
M  V30 5256 O 475.704 -5.93761 5.41944 0
M  V30 5257 H 475.436 -0.656495 0.161216 0
M  V30 5258 H 477.99 -1.73829 1.0942 0
M  V30 5259 H 476.22 -3.85197 -0.340608 0
M  V30 5260 H 477.909 -4.05893 0.0235623 0
M  V30 5261 H 478.675 -4.15288 2.50522 0
M  V30 5262 H 474.554 -4.42039 1.30854 0
M  V30 5263 H 478.098 -5.17592 4.67701 0
M  V30 5264 H 473.995 -5.4421 3.47139 0
M  V30 5265 H 474.763 -6.1221 5.43269 0
M  V30 5266 N 477.426 -0.562348 -1.47226 0
M  V30 5267 C 478.356 0.170627 -2.32876 0
M  V30 5268 C 479.337 0.903748 -1.44106 0
M  V30 5269 O 480.522 0.883206 -1.72954 0
M  V30 5270 C 477.652 1.19786 -3.25989 0
M  V30 5271 C 476.606 0.580875 -4.2404 0
M  V30 5272 C 475.932 1.71311 -5.06514 0
M  V30 5273 C 477.232 -0.468714 -5.20193 0
M  V30 5274 H 478.926 -0.544441 -2.94408 0
M  V30 5275 H 476.472 -0.263271 -1.41573 0
M  V30 5276 H 478.425 1.71884 -3.84752 0
M  V30 5277 H 477.149 1.94294 -2.62521 0
M  V30 5278 H 475.808 0.0811538 -3.6651 0
M  V30 5279 H 475.456 2.44736 -4.39447 0
M  V30 5280 H 475.156 1.30604 -5.72902 0
M  V30 5281 H 476.68 2.23725 -5.68137 0
M  V30 5282 H 478.094 -0.0336028 -5.7329 0
M  V30 5283 H 476.491 -0.794957 -5.94811 0
M  V30 5284 H 477.561 -1.36269 -4.65359 0
M  V30 5285 N 478.904 1.54736 -0.299062 0
M  V30 5286 C 480.15 2.01114 0.304123 0
M  V30 5287 C 480.505 1.18376 1.51674 0
M  V30 5288 O 479.798 0.251635 1.8994 0
M  V30 5289 C 479.992 3.50199 0.713835 0
M  V30 5290 C 479.821 4.47366 -0.457531 0
M  V30 5291 C 478.591 4.9631 -0.948933 0
M  V30 5292 C 480.789 4.9755 -1.30186 0
M  V30 5293 N 478.771 5.77327 -2.08726 0
M  V30 5294 C 480.142 5.7625 -2.28771 0
M  V30 5295 C 482.197 4.79739 -1.33246 0
M  V30 5296 C 480.9 6.39036 -3.3019 0
M  V30 5297 C 482.926 5.43343 -2.33521 0
M  V30 5298 C 482.288 6.21874 -3.30836 0
M  V30 5299 H 478.387 0.778318 0.0757992 0
M  V30 5300 H 480.971 1.89925 -0.428536 0
M  V30 5301 H 479.142 3.61681 1.41567 0
M  V30 5302 H 480.874 3.83374 1.29639 0
M  V30 5303 H 477.629 4.7069 -0.52423 0
M  V30 5304 H 478.053 6.22521 -2.66077 0
M  V30 5305 H 482.695 4.18609 -0.59383 0
M  V30 5306 H 480.413 6.99302 -4.04973 0
M  V30 5307 H 483.999 5.31492 -2.3666 0
M  V30 5308 H 482.879 6.70217 -4.07159 0
M  V30 5309 N 480.382 0.0267497 1.57577 0
M  V30 5310 C 481.659 -0.690926 1.82991 0
M  V30 5311 C 482.039 -1.90471 0.910164 0
M  V30 5312 O 481.387 -2.28474 -0.0347985 0
M  V30 5313 C 481.597 -1.07139 3.32148 0
M  V30 5314 C 482.945 -1.46402 3.98562 0
M  V30 5315 O 483.969 -1.16443 3.36629 0
M  V30 5316 O 482.828 -2.02214 5.07712 0
M  V30 5317 H 479.922 -0.338747 0.75444 0
M  V30 5318 H 482.468 0.0542506 1.69613 0
M  V30 5319 H 481.24 -0.207394 3.9075 0
M  V30 5320 H 480.863 -1.87481 3.50623 0
M  V30 5321 N 481.861 -1.55662 -0.24637 0
M  V30 5322 C 482.793 -1.86811 -1.32794 0
M  V30 5323 C 483.806 -0.754413 -1.44265 0
M  V30 5324 O 484.995 -1.03253 -1.45606 0
M  V30 5325 C 482.095 -2.0397 -2.70646 0
M  V30 5326 C 481.268 -3.34832 -2.81436 0
M  V30 5327 C 480.327 -3.41727 -4.00136 0
M  V30 5328 O 479.353 -4.14934 -3.89639 0
M  V30 5329 N 480.555 -2.71058 -5.1333 0
M  V30 5330 H 483.32 -2.80174 -1.06409 0
M  V30 5331 H 480.881 -1.55906 -0.43647 0
M  V30 5332 H 482.873 -2.05924 -3.48393 0
M  V30 5333 H 481.443 -1.1735 -2.89738 0
M  V30 5334 H 480.663 -3.4519 -1.90361 0
M  V30 5335 H 481.951 -4.21085 -2.85595 0
M  V30 5336 H 481.349 -2.11314 -5.2475 0
M  V30 5337 H 479.906 -2.78704 -5.89209 0
M  V30 5338 N 483.339 0.512053 -1.4905 0
M  V30 5339 C 484.271 1.63121 -1.6101 0
M  V30 5340 C 485.284 1.55145 -0.493352 0
M  V30 5341 O 486.473 1.61278 -0.764955 0
M  V30 5342 C 483.573 3.01863 -1.54052 0
M  V30 5343 C 482.746 3.35138 -2.81072 0
M  V30 5344 C 481.805 4.5324 -2.67319 0
M  V30 5345 O 480.831 4.55571 -3.41238 0
M  V30 5346 N 482.033 5.52495 -1.78127 0
M  V30 5347 H 484.798 1.53292 -2.5753 0
M  V30 5348 H 482.359 0.699706 -1.45999 0
M  V30 5349 H 484.351 3.78774 -1.42521 0
M  V30 5350 H 482.921 3.05675 -0.654345 0
M  V30 5351 H 482.141 2.4723 -3.07036 0
M  V30 5352 H 483.429 3.54162 -3.65304 0
M  V30 5353 H 482.827 5.53403 -1.17308 0
M  V30 5354 H 481.384 6.28553 -1.72525 0
M  V30 5355 N 484.817 1.37938 0.762283 0
M  V30 5356 C 485.747 1.37176 1.88958 0
M  V30 5357 C 486.728 0.238945 1.68413 0
M  V30 5358 O 487.913 0.440726 1.89133 0
M  V30 5359 C 485.043 1.18742 3.2637 0
M  V30 5360 C 483.997 2.29136 3.61498 0
M  V30 5361 C 483.323 1.95816 4.97554 0
M  V30 5362 C 484.623 3.71363 3.6727 0
M  V30 5363 H 486.317 2.31509 1.89853 0
M  V30 5364 H 483.863 1.11438 0.912005 0
M  V30 5365 H 485.816 1.16837 4.04879 0
M  V30 5366 H 484.54 0.208683 3.25933 0
M  V30 5367 H 483.199 2.30213 2.85303 0
M  V30 5368 H 482.847 0.964475 4.93667 0
M  V30 5369 H 482.547 2.69745 5.22026 0
M  V30 5370 H 484.071 1.95513 5.78452 0
M  V30 5371 H 485.485 3.72364 4.35911 0
M  V30 5372 H 483.882 4.44425 4.03245 0
M  V30 5373 H 484.952 4.04305 2.67704 0
M  V30 5374 N 486.295 -0.989507 1.22664 0
M  V30 5375 C 487.225 -2.09847 1.02404 0
M  V30 5376 C 488.206 -1.70007 -0.0561303 0
M  V30 5377 O 489.391 -1.93906 0.106748 0
M  V30 5378 C 486.521 -3.41996 0.604663 0
M  V30 5379 C 485.475 -3.95699 1.63115 0
M  V30 5380 C 484.801 -5.23936 1.0675 0
M  V30 5381 C 486.101 -4.25999 3.02196 0
M  V30 5382 H 487.795 -2.27054 1.95158 0
M  V30 5383 H 485.341 -1.09111 0.939727 0
M  V30 5384 H 487.294 -4.1899 0.45002 0
M  V30 5385 H 486.018 -3.24626 -0.35855 0
M  V30 5386 H 484.677 -3.2084 1.77362 0
M  V30 5387 H 484.325 -5.02909 0.0955422 0
M  V30 5388 H 484.025 -5.60833 1.75328 0
M  V30 5389 H 485.549 -6.0356 0.924516 0
M  V30 5390 H 486.963 -4.93777 2.91303 0
M  V30 5391 H 485.36 -4.74076 3.67929 0
M  V30 5392 H 486.43 -3.33636 3.51873 0
M  V30 5393 N 487.773 -1.03688 -1.18687 0
M  V30 5394 C 489.021 -0.736572 -1.88199 0
M  V30 5395 C 489.342 0.737665 -1.80509 0
M  V30 5396 O 488.612 1.53204 -1.22088 0
M  V30 5397 H 487.192 -0.269466 -0.696704 0
M  V30 5398 H 489.854 -1.31282 -1.44052 0
M  V30 5399 H 488.95 -1.03802 -2.94332 0
M  V30 5400 N 489.251 1.34841 -0.815825 0
M  V30 5401 C 490.497 1.99219 -0.410288 0
M  V30 5402 C 490.852 1.63532 1.01366 0
M  V30 5403 O 490.145 0.893093 1.69512 0
M  V30 5404 C 490.339 3.53273 -0.541541 0
M  V30 5405 C 490.168 4.03927 -1.9767 0
M  V30 5406 C 488.938 4.32852 -2.60706 0
M  V30 5407 C 491.136 4.21808 -2.9425 0
M  V30 5408 N 489.118 4.69494 -3.95536 0
M  V30 5409 C 490.489 4.6155 -4.13971 0
M  V30 5410 C 492.544 4.04038 -2.9096 0
M  V30 5411 C 491.247 4.85381 -5.30847 0
M  V30 5412 C 493.273 4.29031 -4.07046 0
M  V30 5413 C 492.635 4.69054 -5.25517 0
M  V30 5414 H 488.734 0.756494 -0.198094 0
M  V30 5415 H 491.318 1.63379 -1.05902 0
M  V30 5416 H 489.489 3.88323 0.0772544 0
M  V30 5417 H 491.221 4.04551 -0.109694 0
M  V30 5418 H 487.976 4.23503 -2.11995 0
M  V30 5419 H 488.4 4.92061 -4.64979 0
M  V30 5420 H 493.042 3.7223 -2.00512 0
M  V30 5421 H 490.76 5.16059 -6.21859 0
M  V30 5422 H 494.346 4.16826 -4.05891 0
M  V30 5423 H 493.226 4.88014 -6.1385 0
M  V30 5424 N 490.729 0.570148 1.46925 0
M  V30 5425 C 492.14 0.1402 1.86173 0
M  V30 5426 C 492.491 -1.29347 1.47526 0
M  V30 5427 O 491.616 -1.97508 0.884292 0
M  V30 5428 C 492.211 0.247661 3.37894 0
M  V30 5429 C 490.77 -0.127332 3.76185 0
M  V30 5430 C 489.917 0.589349 2.70965 0
M  V30 5431 H 492.868 0.779117 1.38259 0
M  V30 5432 H 492.889 -0.530341 3.76786 0
M  V30 5433 H 492.401 1.29121 3.65991 0
M  V30 5434 H 490.502 -1.17149 3.53704 0
M  V30 5435 H 490.615 0.240238 4.78497 0
M  V30 5436 H 488.979 0.0309824 2.54681 0
M  V30 5437 H 489.762 1.6343 3.01903 0
M  V30 5438 N 492.207 -1.54576 0.307264 0
M  V30 5439 C 493.17 -2.22423 -0.553224 0
M  V30 5440 C 494.17 -1.21231 -1.05639 0
M  V30 5441 O 495.36 -1.45923 -0.951419 0
M  V30 5442 C 492.492 -2.91552 -1.76664 0
M  V30 5443 H 493.685 -2.99874 0.0396484 0
M  V30 5444 H 491.238 -1.56192 0.0581629 0
M  V30 5445 H 491.973 -2.18196 -2.39918 0
M  V30 5446 H 491.758 -3.65738 -1.41343 0
M  V30 5447 H 493.248 -3.43292 -2.37783 0
M  V30 5448 N 493.685 -0.035106 -1.57561 0
M  V30 5449 C 494.931 0.64318 -1.92331 0
M  V30 5450 C 495.264 1.71434 -0.912368 0
M  V30 5451 O 494.539 1.94395 0.0640303 0
M  V30 5452 C 494.822 1.25411 -3.37556 0
M  V30 5453 C 494.675 0.192109 -4.4939 0
M  V30 5454 C 495.994 2.17041 -3.82859 0
M  V30 5455 H 493.113 0.232341 -0.699419 0
M  V30 5456 H 495.755 -0.0935889 -1.89769 0
M  V30 5457 H 493.905 1.88205 -3.39869 0
M  V30 5458 H 495.577 -0.438849 -4.59208 0
M  V30 5459 H 493.82 -0.481725 -4.31117 0
M  V30 5460 H 494.491 0.659292 -5.48049 0
M  V30 5461 H 496.967 1.64228 -3.8232 0
M  V30 5462 H 495.843 2.56738 -4.85157 0
M  V30 5463 H 496.104 3.06401 -3.18702 0
M  V30 5464 N 495.163 1.55791 0.238111 0
M  V30 5465 C 496.093 1.94068 1.29846 0
M  V30 5466 C 497.074 0.806726 1.49753 0
M  V30 5467 O 498.259 1.06772 1.62214 0
M  V30 5468 C 495.389 2.24302 2.65153 0
M  V30 5469 C 494.343 3.40032 2.59927 0
M  V30 5470 C 493.669 3.55829 3.99111 0
M  V30 5471 C 494.969 4.75476 2.16148 0
M  V30 5472 H 496.663 2.82887 0.980563 0
M  V30 5473 H 494.209 1.36105 0.470253 0
M  V30 5474 H 496.162 2.4967 3.39475 0
M  V30 5475 H 494.886 1.32318 2.98596 0
M  V30 5476 H 493.545 3.14687 1.88063 0
M  V30 5477 H 493.193 2.6125 4.29834 0
M  V30 5478 H 492.893 4.3366 3.96501 0
M  V30 5479 H 494.417 3.83528 4.7512 0
M  V30 5480 H 495.831 5.00158 2.80205 0
M  V30 5481 H 494.228 5.56472 2.24631 0
M  V30 5482 H 495.298 4.71946 1.11333 0
M  V30 5483 N 496.642 -0.504142 1.49319 0
M  V30 5484 C 498.058 -0.835039 1.36012 0
M  V30 5485 C 498.258 -1.97674 0.390808 0
M  V30 5486 O 497.314 -2.51867 -0.178655 0
M  V30 5487 C 498.627 -1.17821 2.76656 0
M  V30 5488 C 500.175 -1.2866 2.85334 0
M  V30 5489 C 500.65 -1.66307 4.26739 0
M  V30 5490 N 502.141 -1.73362 4.29534 0
M  V30 5491 C 502.876 -2.0393 5.35911 0
M  V30 5492 N 502.372 -2.32744 6.52535 0
M  V30 5493 N 504.165 -2.05155 5.23324 0
M  V30 5494 H 496.316 0.248764 2.10938 0
M  V30 5495 H 498.579 0.0486962 0.946748 0
M  V30 5496 H 498.285 -0.412682 3.4927 0
M  V30 5497 H 498.159 -2.12239 3.11825 0
M  V30 5498 H 500.546 -2.04285 2.1296 0
M  V30 5499 H 500.627 -0.323004 2.53752 0
M  V30 5500 H 500.271 -0.91234 4.99639 0
M  V30 5501 H 500.201 -2.63761 4.55782 0
M  V30 5502 H 502.692 -1.53268 3.45424 0
M  V30 5503 H 503.005 -2.55248 7.2943 0
M  V30 5504 H 501.35 -2.30207 6.55767 0
M  V30 5505 H 504.541 -1.82119 4.3122 0
M  V30 5506 H 504.714 -2.28644 6.06322 0
M  V30 5507 N 498.12 -1.38341 -0.754957 0
M  V30 5508 C 499.067 -1.3546 -1.86867 0
M  V30 5509 C 500.037 -0.217369 -1.64672 0
M  V30 5510 O 501.222 -0.409383 -1.86356 0
M  V30 5511 C 498.362 -1.18413 -3.24149 0
M  V30 5512 C 497.475 -2.41511 -3.58185 0
M  V30 5513 C 496.61 -2.17205 -4.84763 0
M  V30 5514 C 495.649 -3.36081 -5.11582 0
M  V30 5515 N 494.786 -3.11219 -6.29354 0
M  V30 5516 H 499.626 -2.30672 -1.88664 0
M  V30 5517 H 497.163 -1.14607 -0.922154 0
M  V30 5518 H 499.121 -1.06545 -4.03366 0
M  V30 5519 H 497.751 -0.268397 -3.21682 0
M  V30 5520 H 496.803 -2.64056 -2.73822 0
M  V30 5521 H 498.115 -3.30115 -3.73932 0
M  V30 5522 H 497.269 -2.02465 -5.7192 0
M  V30 5523 H 496.008 -1.25964 -4.71152 0
M  V30 5524 H 495.013 -3.51341 -4.22894 0
M  V30 5525 H 496.238 -4.28196 -5.27091 0
M  V30 5526 H 494.184 -2.22624 -6.17069 0
M  V30 5527 H 494.101 -3.93373 -6.45596 0
M  V30 5528 H 495.369 -3.00132 -7.19403 0
M  V30 5529 N 499.598 0.982988 -1.23187 0
M  V30 5530 C 500.528 2.09301 -1.03515 0
M  V30 5531 C 501.509 1.70035 0.0471136 0
M  V30 5532 O 502.694 1.93847 -0.117029 0
M  V30 5533 C 499.824 3.4167 -0.622791 0
M  V30 5534 C 498.778 3.94828 -1.65211 0
M  V30 5535 C 498.104 5.23362 -1.09527 0
M  V30 5536 C 499.404 4.2439 -3.04451 0
M  V30 5537 H 501.098 2.26016 -1.96359 0
M  V30 5538 H 498.644 1.08611 -0.945501 0
M  V30 5539 H 500.597 4.18746 -0.472233 0
M  V30 5540 H 499.321 3.24811 0.341329 0
M  V30 5541 H 497.98 3.19895 -1.79061 0
M  V30 5542 H 497.628 5.02852 -0.122211 0
M  V30 5543 H 497.328 5.59895 -1.783 0
M  V30 5544 H 498.852 6.03062 -0.956511 0
M  V30 5545 H 500.266 4.92225 -2.93917 0
M  V30 5546 H 498.663 4.72118 -3.70438 0
M  V30 5547 H 499.733 3.31765 -3.53638 0
M  V30 5548 N 501.076 1.04316 1.18135 0
M  V30 5549 C 502.492 0.762858 1.40188 0
M  V30 5550 C 502.692 -0.646547 1.90846 0
M  V30 5551 O 501.748 -1.41036 2.0944 0
M  V30 5552 C 503.061 1.81106 2.40044 0
M  V30 5553 C 504.609 1.83226 2.53766 0
M  V30 5554 C 505.084 2.87044 3.56889 0
M  V30 5555 N 506.575 2.85951 3.64398 0
M  V30 5556 C 507.31 3.62932 4.43923 0
M  V30 5557 N 506.806 4.49672 5.27036 0
M  V30 5558 N 508.599 3.51411 4.38711 0
M  V30 5559 H 500.75 1.95264 0.835805 0
M  V30 5560 H 503.013 0.845017 0.429709 0
M  V30 5561 H 502.719 2.82214 2.09876 0
M  V30 5562 H 502.593 1.64529 3.39426 0
M  V30 5563 H 504.98 0.827869 2.8325 0
M  V30 5564 H 505.061 2.03879 1.54489 0
M  V30 5565 H 504.705 3.87663 3.28145 0
M  V30 5566 H 504.635 2.63645 4.5585 0
M  V30 5567 H 507.126 2.23051 3.05052 0
M  V30 5568 H 507.439 5.05116 5.84874 0
M  V30 5569 H 505.784 4.53738 5.26447 0
M  V30 5570 H 508.975 2.83047 3.72829 0
M  V30 5571 H 509.148 4.11654 5.00445 0
M  V30 5572 N 502.554 -1.34406 0.822964 0
M  V30 5573 C 503.801 -1.98284 0.411057 0
M  V30 5574 C 504.129 -1.65245 -1.02588 0
M  V30 5575 O 503.384 -0.91619 -1.72929 0
M  V30 5576 C 503.683 -3.52981 0.560268 0
M  V30 5577 C 503.349 -4.05931 1.96293 0
M  V30 5578 C 502.011 -4.20103 2.34664 0
M  V30 5579 C 504.363 -4.34412 2.87985 0
M  V30 5580 C 501.691 -4.60082 3.64062 0
M  V30 5581 C 504.043 -4.75838 4.16847 0
M  V30 5582 C 502.707 -4.88215 4.55195 0
M  V30 5583 H 501.977 -0.725573 0.150416 0
M  V30 5584 H 504.624 -1.60349 1.04692 0
M  V30 5585 H 502.929 -3.91477 -0.158982 0
M  V30 5586 H 504.626 -4.00385 0.222087 0
M  V30 5587 H 501.216 -3.95363 1.65487 0
M  V30 5588 H 505.4 -4.23001 2.59584 0
M  V30 5589 H 500.656 -4.67856 3.93599 0
M  V30 5590 H 504.83 -4.96834 4.87984 0
M  V30 5591 H 502.457 -5.18952 5.55512 0
M  V30 5592 N 504.032 -0.577932 -1.46621 0
M  V30 5593 C 505.26 -0.0671642 -2.06791 0
M  V30 5594 C 505.675 1.23571 -1.42743 0
M  V30 5595 O 505.032 1.74602 -0.531062 0
M  V30 5596 C 505.083 0.110357 -3.61332 0
M  V30 5597 O 504.804 -1.14095 -4.22982 0
M  V30 5598 C 506.305 0.656025 -4.38419 0
M  V30 5599 H 503.525 -0.0552732 -0.66872 0
M  V30 5600 H 506.069 -0.797242 -1.8832 0
M  V30 5601 H 504.224 0.790637 -3.79246 0
M  V30 5602 H 504.638 -0.951742 -5.15793 0
M  V30 5603 H 506.112 0.729438 -5.47159 0
M  V30 5604 H 506.589 1.67195 -4.06131 0
M  V30 5605 H 507.195 0.0107692 -4.25299 0
M  V30 5606 N 505.51 1.54411 -0.315457 0
M  V30 5607 C 506.473 2.22713 0.54142 0
M  V30 5608 C 507.473 1.2179 1.04995 0
M  V30 5609 O 508.663 1.46426 0.943667 0
M  V30 5610 C 505.795 2.92485 1.75116 0
M  V30 5611 H 506.988 2.99849 -0.0555508 0
M  V30 5612 H 504.541 1.56159 -0.0664453 0
M  V30 5613 H 505.276 2.19466 2.38758 0
M  V30 5614 H 505.061 3.66483 1.39401 0
M  V30 5615 H 506.551 3.44548 2.35959 0
M  V30 5616 N 506.988 0.0434614 1.5754 0
M  V30 5617 C 508.234 -0.632971 1.92669 0
M  V30 5618 C 508.567 -1.70947 0.921446 0
M  V30 5619 O 507.842 -1.94426 -0.0537202 0
M  V30 5620 C 508.125 -1.23619 3.38216 0
M  V30 5621 C 507.978 -0.168274 4.49485 0
M  V30 5622 C 509.297 -2.15008 3.84005 0
M  V30 5623 H 506.416 -0.228629 0.700641 0
M  V30 5624 H 509.058 0.103651 1.89717 0
M  V30 5625 H 507.208 -1.864 3.40863 0
M  V30 5626 H 508.88 0.463196 4.58969 0
M  V30 5627 H 507.123 0.504581 4.30855 0
M  V30 5628 H 507.794 -0.630218 5.48391 0
M  V30 5629 H 510.27 -1.62198 3.83185 0
M  V30 5630 H 509.146 -2.54161 4.86511 0
M  V30 5631 H 509.407 -3.04707 3.20322 0
M  V30 5632 N 508.466 -1.55915 -0.229846 0
M  V30 5633 C 509.877 -1.68809 -0.797531 0
M  V30 5634 C 510.228 -0.643995 -1.8533 0
M  V30 5635 O 509.353 0.206492 -2.15413 0
M  V30 5636 C 509.948 -3.06043 -1.45338 0
M  V30 5637 C 508.507 -3.20819 -1.96856 0
M  V30 5638 C 507.654 -2.6472 -0.825736 0
M  V30 5639 H 510.605 -1.58699 -0.00533733 0
M  V30 5640 H 510.626 -3.01438 -2.32196 0
M  V30 5641 H 510.138 -3.82012 -0.684743 0
M  V30 5642 H 508.239 -2.49704 -2.76548 0
M  V30 5643 H 508.352 -4.27937 -2.15423 0
M  V30 5644 H 506.716 -2.22985 -1.23084 0
M  V30 5645 H 507.499 -3.43229 -0.0699019 0
M  V30 5646 N 509.944 0.496216 -1.49584 0
M  V30 5647 C 510.891 1.59722 -1.66606 0
M  V30 5648 C 511.861 1.58158 -0.507477 0
M  V30 5649 O 513.046 1.76072 -0.735076 0
M  V30 5650 C 510.186 2.97844 -1.74308 0
M  V30 5651 C 509.299 3.09388 -3.01502 0
M  V30 5652 C 508.434 4.38271 -3.00153 0
M  V30 5653 C 507.473 4.43466 -4.21906 0
M  V30 5654 N 506.61 5.63784 -4.1844 0
M  V30 5655 H 511.45 1.44515 -2.60613 0
M  V30 5656 H 508.987 0.703048 -1.29212 0
M  V30 5657 H 510.945 3.77907 -1.76754 0
M  V30 5658 H 509.575 3.11743 -0.837619 0
M  V30 5659 H 508.627 2.22357 -3.08645 0
M  V30 5660 H 509.939 3.09085 -3.91494 0
M  V30 5661 H 509.093 5.2666 -3.01188 0
M  V30 5662 H 507.832 4.41146 -2.07947 0
M  V30 5663 H 506.837 3.53478 -4.21109 0
M  V30 5664 H 508.062 4.42303 -5.1531 0
M  V30 5665 H 506.008 5.67491 -3.29074 0
M  V30 5666 H 505.925 5.65118 -5.02173 0
M  V30 5667 H 507.193 6.54367 -4.23585 0
M  V30 5668 N 511.423 1.38739 0.74761 0
M  V30 5669 C 512.371 1.36573 1.88283 0
M  V30 5670 C 513.365 0.250712 1.67534 0
M  V30 5671 O 514.571 0.420073 1.7503 0
M  V30 5672 H 510.946 0.42619 0.619569 0
M  V30 5673 H 512.917 2.32356 1.87226 0
M  V30 5674 C 511.666 1.21361 3.25832 0
M  V30 5675 H 510.989 2.06424 3.42388 0
M  V30 5676 H 512.429 1.23901 4.05493 0
M  V30 5677 C 510.888 -0.0790099 3.36807 0
M  V30 5678 O 511.418 -1.05385 3.8763 0
M  V30 5679 N 509.624 -0.13785 2.90273 0
M  V30 5680 H 509.171 0.656128 2.49104 0
M  V30 5681 H 509.129 -1.00228 2.97996 0
M  V30 5682 N 512.901 -0.976442 1.23707 0
M  V30 5683 C 513.851 -2.0544 0.988851 0
M  V30 5684 C 514.835 -1.60762 -0.0665901 0
M  V30 5685 O 516.027 -1.76396 0.14604 0
M  V30 5686 C 513.156 -3.38258 0.586223 0
M  V30 5687 C 512.242 -3.89523 1.67728 0
M  V30 5688 N 512.633 -4.13823 2.90834 0
M  V30 5689 C 510.931 -4.18097 1.55277 0
M  V30 5690 C 511.632 -4.55731 3.61502 0
M  V30 5691 N 510.608 -4.60394 2.8903 0
M  V30 5692 H 514.41 -2.22191 1.92376 0
M  V30 5693 H 511.924 -1.15954 1.13704 0
M  V30 5694 H 513.921 -4.15075 0.389658 0
M  V30 5695 H 512.581 -3.22898 -0.341594 0
M  V30 5696 H 513.592 -4.01529 3.271 0
M  V30 5697 H 510.269 -4.11719 0.692351 0
M  V30 5698 H 511.659 -4.83018 4.67059 0
M  V30 5699 N 514.379 -1.04941 -1.1758 0
M  V30 5700 C 515.311 -0.606174 -2.21039 0
M  V30 5701 C 516.324 0.328763 -1.59446 0
M  V30 5702 O 517.513 0.121895 -1.78083 0
M  V30 5703 C 514.613 0.133294 -3.38638 0
M  V30 5704 C 513.786 -0.811711 -4.29802 0
M  V30 5705 C 512.845 -0.113958 -5.26077 0
M  V30 5706 O 511.871 -0.747237 -5.64274 0
M  V30 5707 N 513.073 1.14953 -5.69004 0
M  V30 5708 H 515.838 -1.49606 -2.59689 0
M  V30 5709 H 513.399 -0.930997 -1.32454 0
M  V30 5710 H 515.391 0.610144 -4.00074 0
M  V30 5711 H 513.961 0.924816 -2.98607 0
M  V30 5712 H 513.181 -1.46824 -3.65837 0
M  V30 5713 H 514.469 -1.45326 -4.87604 0
M  V30 5714 H 513.867 1.68441 -5.40041 0
M  V30 5715 H 512.424 1.57049 -6.32597 0
M  V30 5716 N 515.857 1.33968 -0.830081 0
M  V30 5717 C 516.82 2.27694 -0.26235 0
M  V30 5718 C 517.82 1.50589 0.563876 0
M  V30 5719 O 519.01 1.70028 0.378941 0
M  V30 5720 C 516.142 3.35002 0.63138 0
M  V30 5721 H 517.335 2.79419 -1.08928 0
M  V30 5722 H 514.888 1.44221 -0.602486 0
M  V30 5723 H 515.623 2.88504 1.48109 0
M  V30 5724 H 515.408 3.92079 0.0403276 0
M  V30 5725 H 516.898 4.04897 1.02217 0
M  V30 5726 N 517.335 0.585699 1.46312 0
M  V30 5727 C 518.581 0.0725284 2.0267 0
M  V30 5728 C 518.914 -1.28523 1.45586 0
M  V30 5729 O 518.189 -1.84283 0.622101 0
M  V30 5730 C 518.472 0.0099788 3.60099 0
M  V30 5731 C 518.325 1.39685 4.27561 0
M  V30 5732 C 519.644 -0.689117 4.34671 0
M  V30 5733 H 516.763 0.0278307 0.736474 0
M  V30 5734 H 519.405 0.753472 1.74421 0
M  V30 5735 H 517.555 -0.56992 3.84297 0
M  V30 5736 H 519.227 2.02215 4.14617 0
M  V30 5737 H 517.47 1.96374 3.86807 0
M  V30 5738 H 518.141 1.30553 5.36339 0
M  V30 5739 H 520.617 -0.196446 4.15636 0
M  V30 5740 H 519.493 -0.701921 5.44393 0
M  V30 5741 H 519.754 -1.75101 4.05946 0
M  V30 5742 N 518.813 -1.54241 0.323641 0
M  V30 5743 C 520.229 -1.59574 -0.0290018 0
M  V30 5744 C 520.429 -1.34017 -1.50472 0
M  V30 5745 O 519.485 -1.12464 -2.26071 0
M  V30 5746 C 520.798 -2.98169 0.389295 0
M  V30 5747 C 522.346 -3.11148 0.339958 0
M  V30 5748 C 522.821 -4.5209 0.733418 0
M  V30 5749 N 524.312 -4.5808 0.686827 0
M  V30 5750 C 525.047 -5.65248 0.963464 0
M  V30 5751 N 524.543 -6.80355 1.30724 0
M  V30 5752 N 526.336 -5.55025 0.88902 0
M  V30 5753 H 518.487 -1.6911 1.28512 0
M  V30 5754 H 520.75 -0.790972 0.522558 0
M  V30 5755 H 520.456 -3.21871 1.41746 0
M  V30 5756 H 520.33 -3.76399 -0.245657 0
M  V30 5757 H 522.717 -2.87182 -0.679002 0
M  V30 5758 H 522.798 -2.35023 1.00985 0
M  V30 5759 H 522.442 -4.76788 1.75029 0
M  V30 5760 H 522.372 -5.26584 0.0412189 0
M  V30 5761 H 524.863 -3.75411 0.43298 0
M  V30 5762 H 525.176 -7.58029 1.5037 0
M  V30 5763 H 523.521 -6.81851 1.3455 0
M  V30 5764 H 526.712 -4.63977 0.619939 0
M  V30 5765 H 526.885 -6.38458 1.10797 0
M  V30 5766 N 520.291 -0.0518155 -1.57515 0
M  V30 5767 C 521.239 0.940195 -2.12751 0
M  V30 5768 C 522.233 1.3218 -1.05948 0
M  V30 5769 O 523.439 1.30138 -1.24355 0
M  V30 5770 H 519.814 0.321066 -0.680015 0
M  V30 5771 H 521.785 0.449217 -2.94999 0
M  V30 5772 C 520.534 2.2055 -2.68799 0
M  V30 5773 H 519.857 1.92066 -3.50643 0
M  V30 5774 H 521.297 2.88119 -3.11068 0
M  V30 5775 C 519.756 2.95061 -1.62605 0
M  V30 5776 O 520.286 3.88025 -1.03921 0
M  V30 5777 N 518.492 2.57804 -1.34111 0
M  V30 5778 H 518.039 1.82281 -1.8202 0
M  V30 5779 H 517.997 3.07964 -0.632872 0
M  V30 5780 N 521.769 1.56035 0.221574 0
M  V30 5781 C 523.18 1.69229 0.788567 0
M  V30 5782 C 523.531 0.653814 1.84986 0
M  V30 5783 O 522.656 -0.195065 2.15519 0
M  V30 5784 C 523.251 3.06809 1.43713 0
M  V30 5785 C 521.81 3.21858 1.95152 0
M  V30 5786 C 520.957 2.65155 0.811685 0
M  V30 5787 H 523.908 1.587 -0.00307894 0
M  V30 5788 H 523.929 3.02666 2.30594 0
M  V30 5789 H 523.441 3.82369 0.664475 0
M  V30 5790 H 521.542 2.51167 2.7522 0
M  V30 5791 H 521.655 4.29073 2.1315 0
M  V30 5792 H 520.019 2.23635 1.21899 0
M  V30 5793 H 520.802 3.43261 0.0516987 0
M  V30 5794 O 523.286 -0.367026 1.57274 0
M  V30 5795 H 523.977 -1.01783 1.64803 0
M  V30 END ATOM
M  V30 BEGIN BOND
M  V30 END BOND
M  V30 END CTAB
M  END
$$$$
