drugbank_target|P42345 Serine/threonine-protein kinase mTOR (DB00337; DB00877; DB01590; DB04974; DB05210; DB05241; DB06233; DB06287; DB12010)
 OpenBabel12092120133D

  0  0  0     0  0            999 V3000
M  V30 BEGIN CTAB
M  V30 COUNTS 40756 41176 0 0 0
M  V30 BEGIN ATOM
M  V30 1 H -0.908 1.98254 -0.117106 0
M  V30 2 N 0 1.576 0 0
M  V30 3 C 0.933 2.03868 1.02534 0
M  V30 4 C 1.911 0.928543 1.3348 0
M  V30 5 O 3.095 1.19667 1.45644 0
M  V30 6 C 0.222 2.43627 2.35294 0
M  V30 7 C -0.732 3.65373 2.2001 0
M  V30 8 S 0.101 5.13292 1.52614 0
M  V30 9 C 1.257 5.56322 2.86805 0
M  V30 10 H 1.49 2.90518 0.631377 0
M  V30 11 H -0.977 1.52953 0.210867 0
M  V30 12 H 0.981 2.67203 3.11629 0
M  V30 13 H -0.358 1.57376 2.7183 0
M  V30 14 H -1.165 3.90944 3.18086 0
M  V30 15 H -1.563 3.418 1.51819 0
M  V30 16 H 0.729 5.58782 3.83104 0
M  V30 17 H 1.672 6.56266 2.65933 0
M  V30 18 H 2.08 4.83886 2.90714 0
M  V30 19 N 1.4781 -0.272755 1.55222 0
M  V30 20 C 2.4081 -1.34136 1.91127 0
M  V30 21 C 3.3891 -1.51513 0.773168 0
M  V30 22 O 4.5741 -1.64552 1.03132 0
M  V30 23 C 1.7041 -2.70083 2.1834 0
M  V30 24 C 0.6581 -2.67437 3.34158 0
M  V30 25 C -0.0159 -4.06938 3.46851 0
M  V30 26 C 1.2841 -2.26686 4.70543 0
M  V30 27 H 2.9781 -1.04333 2.80633 0
M  V30 28 H 0.5241 -0.500454 1.35024 0
M  V30 29 H 2.4771 -3.44952 2.42046 0
M  V30 30 H 1.2011 -3.01469 1.25634 0
M  V30 31 H -0.1399 -1.95026 3.1042 0
M  V30 32 H -0.4919 -4.35547 2.51611 0
M  V30 33 H -0.7919 -4.06062 4.2472 0
M  V30 34 H 0.7321 -4.83545 3.72849 0
M  V30 35 H 2.1461 -2.91277 4.93792 0
M  V30 36 H 0.5431 -2.36971 5.5133 0
M  V30 37 H 1.6131 -1.21818 4.69349 0
M  V30 38 N 2.9562 -1.48159 -0.537278 0
M  V30 39 C 4.2042 -1.55497 -1.29094 0
M  V30 40 C 4.5252 -0.227454 -1.93669 0
M  V30 41 O 3.7952 0.750386 -1.80959 0
M  V30 42 H 2.3752 -0.572832 -0.47945 0
M  V30 43 H 5.0372 -1.84579 -0.625818 0
M  V30 44 H 4.1332 -2.33216 -2.07405 0
M  V30 45 N 4.4343 0.785586 -1.36625 0
M  V30 46 C 5.6623 1.57448 -1.3423 0
M  V30 47 C 6.0773 1.88649 0.0755653 0
M  V30 48 O 5.4343 1.50414 1.03354 0
M  V30 49 C 5.4853 2.89316 -2.16745 0
M  V30 50 O 5.2063 2.59459 -3.53005 0
M  V30 51 C 6.7073 3.83606 -2.22174 0
M  V30 52 H 3.9273 0.488226 -0.4603 0
M  V30 53 H 6.4713 0.974733 -1.79775 0
M  V30 54 H 4.6263 3.4575 -1.74745 0
M  V30 55 H 5.0403 3.43804 -3.96105 0
M  V30 56 H 6.5143 4.73181 -2.8426 0
M  V30 57 H 6.9913 4.21734 -1.22627 0
M  V30 58 H 7.5973 3.33104 -2.64427 0
M  V30 59 N 5.9124 1.20967 1.01018 0
M  V30 60 C 7.1604 1.02172 1.74371 0
M  V30 61 C 7.4814 -0.446414 1.89821 0
M  V30 62 O 6.7514 -1.32234 1.44537 0
M  V30 63 H 5.3314 0.375066 0.646014 0
M  V30 64 H 7.9934 1.52187 1.21758 0
M  V30 65 H 7.0894 1.48538 2.74487 0
M  V30 66 N 7.3905 -1.2043 1.01659 0
M  V30 67 C 8.8015 -1.71517 0.737482 0
M  V30 68 C 9.1525 -1.81547 -0.743973 0
M  V30 69 O 8.2775 -1.47803 -1.58061 0
M  V30 70 C 8.8725 -3.11515 1.33206 0
M  V30 71 C 7.4315 -3.59912 1.10183 0
M  V30 72 C 6.5785 -2.37116 1.43776 0
M  V30 73 H 9.5295 -1.05444 1.18606 0
M  V30 74 H 9.5505 -3.73575 0.722636 0
M  V30 75 H 9.0625 -3.04182 2.41028 0
M  V30 76 H 7.1635 -3.72577 0.0412756 0
M  V30 77 H 7.2765 -4.44731 1.78188 0
M  V30 78 H 5.6405 -2.39857 0.856778 0
M  V30 79 H 6.4235 -2.32424 2.52654 0
M  V30 80 N 8.8686 -0.792821 -1.36206 0
M  V30 81 C 9.8316 -0.199459 -2.2833 0
M  V30 82 C 10.8316 0.605189 -1.48977 0
M  V30 83 O 12.0216 0.425685 -1.68919 0
M  V30 84 C 9.1536 0.723523 -3.33134 0
M  V30 85 H 10.3466 -1.01181 -2.82316 0
M  V30 86 H 7.8996 -0.562485 -1.45828 0
M  V30 87 H 8.6346 1.56008 -2.84309 0
M  V30 88 H 8.4196 0.148436 -3.91819 0
M  V30 89 H 9.9096 1.13344 -4.01924 0
M  V30 90 N 10.3467 1.47872 -0.545128 0
M  V30 91 C 11.3097 2.28337 0.198717 0
M  V30 92 C 12.3097 1.36255 0.853888 0
M  V30 93 O 13.4997 1.59003 0.711606 0
M  V30 94 C 10.6317 3.15585 1.28915 0
M  V30 95 H 11.8247 2.95567 -0.507941 0
M  V30 96 H 9.3777 1.53362 -0.301616 0
M  V30 97 H 10.1127 2.53019 2.02859 0
M  V30 98 H 9.8977 3.83337 0.824309 0
M  V30 99 H 11.3877 3.76243 1.81194 0
M  V30 100 N 11.8248 0.280983 1.55075 0
M  V30 101 C 12.7878 -0.590896 2.21452 0
M  V30 102 C 13.7878 -1.07682 1.19421 0
M  V30 103 O 14.9778 -0.97605 1.44288 0
M  V30 104 C 12.1098 -1.81587 2.88511 0
M  V30 105 H 13.3028 -0.0112554 2.99898 0
M  V30 106 H 10.8558 0.0316438 1.56268 0
M  V30 107 H 11.5908 -2.43587 2.14093 0
M  V30 108 H 11.3758 -1.4753 3.63287 0
M  V30 109 H 12.8658 -2.43575 3.39206 0
M  V30 110 N 13.3029 -1.57598 0.00835791 0
M  V30 111 C 14.5309 -1.95214 -0.68549 0
M  V30 112 C 14.9459 -0.883706 -1.66841 0
M  V30 113 O 14.3029 0.136565 -1.81988 0
M  V30 114 C 14.3539 -3.32865 -1.41007 0
M  V30 115 O 14.0749 -4.35609 -0.466552 0
M  V30 116 C 15.5759 -3.84991 -2.19765 0
M  V30 117 H 12.7959 -0.643422 -0.190392 0
M  V30 118 H 15.3399 -2.04406 0.0619607 0
M  V30 119 H 13.4949 -3.24956 -2.10908 0
M  V30 120 H 13.9089 -5.15288 -0.978699 0
M  V30 121 H 15.3829 -4.8371 -2.65948 0
M  V30 122 H 15.8599 -3.18137 -3.02796 0
M  V30 123 H 16.4659 -3.96103 -1.54864 0
M  V30 124 N 14.781 0.264519 -1.55364 0
M  V30 125 C 16.009 1.013 -1.80405 0
M  V30 126 C 16.424 1.79618 -0.581622 0
M  V30 127 O 15.781 1.76879 0.449468 0
M  V30 128 C 15.832 1.96487 -3.03439 0
M  V30 129 O 15.553 1.21341 -4.20961 0
M  V30 130 C 17.054 2.83079 -3.41147 0
M  V30 131 H 14.274 0.298875 -0.600762 0
M  V30 132 H 16.818 0.292736 -2.02394 0
M  V30 133 H 14.973 2.63965 -2.83551 0
M  V30 134 H 15.387 1.85573 -4.90574 0
M  V30 135 H 16.861 3.4565 -4.30384 0
M  V30 136 H 17.338 3.53286 -2.60932 0
M  V30 137 H 17.944 2.2108 -3.63323 0
M  V30 138 N 16.2591 1.48442 0.529413 0
M  V30 139 C 17.2221 1.62524 1.61612 0
M  V30 140 C 18.2221 0.498509 1.52877 0
M  V30 141 O 19.4121 0.76431 1.56537 0
M  V30 142 C 16.5441 1.59597 3.01233 0
M  V30 143 H 17.7371 2.59423 1.50465 0
M  V30 144 H 15.2901 1.37047 0.751514 0
M  V30 145 H 16.0251 0.641781 3.17886 0
M  V30 146 H 15.8101 2.41397 3.08982 0
M  V30 147 H 17.3001 1.72646 3.80241 0
M  V30 148 N 17.7372 -0.778329 1.37039 0
M  V30 149 C 18.7002 -1.87301 1.32102 0
M  V30 150 C 19.7002 -1.59198 0.226405 0
M  V30 151 O 20.8902 -1.67403 0.481861 0
M  V30 152 C 18.0222 -3.24309 1.05055 0
M  V30 153 H 19.2152 -1.93093 2.29467 0
M  V30 154 H 16.7682 -0.977358 1.21973 0
M  V30 155 H 17.5032 -3.24196 0.0819373 0
M  V30 156 H 17.2882 -3.46098 1.84279 0
M  V30 157 H 18.7782 -4.04382 1.04234 0
M  V30 158 N 19.2153 -1.21501 -1.00376 0
M  V30 159 C 20.4433 -1.059 -1.77744 0
M  V30 160 C 20.8583 0.391125 -1.84704 0
M  V30 161 O 20.2153 1.27133 -1.30933 0
M  V30 162 C 20.2663 -1.65111 -3.21591 0
M  V30 163 O 19.9873 -3.0445 -3.15027 0
M  V30 164 C 21.4883 -1.54637 -4.15454 0
M  V30 165 H 18.7083 -0.371825 -0.558558 0
M  V30 166 H 21.2523 -1.60865 -1.26264 0
M  V30 167 H 19.4073 -1.14235 -3.70175 0
M  V30 168 H 19.8213 -3.3278 -4.0541 0
M  V30 169 H 21.2953 -2.00808 -5.14179 0
M  V30 170 H 21.7723 -0.501022 -4.36333 0
M  V30 171 H 22.3783 -2.04767 -3.72761 0
M  V30 172 N 20.6934 1.19889 -1.02296 0
M  V30 173 C 21.9214 1.9339 -0.735399 0
M  V30 174 C 22.3364 1.75148 0.704887 0
M  V30 175 O 21.6934 1.06954 1.47875 0
M  V30 176 C 21.7444 3.45313 -1.06962 0
M  V30 177 O 21.4654 3.62964 -2.45334 0
M  V30 178 C 22.9664 4.35948 -0.804021 0
M  V30 179 H 20.1864 0.61448 -0.269546 0
M  V30 180 H 22.7304 1.522 -1.36585 0
M  V30 181 H 20.8854 3.84359 -0.484455 0
M  V30 182 H 21.2994 4.56886 -2.57595 0
M  V30 183 H 22.7734 5.41174 -1.0879 0
M  V30 184 H 23.2504 4.3842 0.261691 0
M  V30 185 H 23.8564 4.02574 -1.37164 0
M  V30 186 N 22.1715 0.800033 1.35784 0
M  V30 187 C 23.3965 0.388511 2.03729 0
M  V30 188 C 23.8215 -0.990481 1.5991 0
M  V30 189 O 23.1795 -1.64013 0.772612 0
M  V30 190 C 23.2275 0.4726 3.5749 0
M  V30 191 O 22.3315 -0.51646 4.09153 0
M  V30 192 H 21.6725 0.163271 0.643614 0
M  V30 193 H 24.2025 1.0841 1.73518 0
M  V30 194 H 24.2125 0.34003 4.06581 0
M  V30 195 H 22.8875 1.47848 3.88734 0
M  V30 196 H 21.4645 -0.344673 3.71304 0
M  V30 197 N 23.6496 -1.47581 0.552962 0
M  V30 198 C 24.8746 -2.07378 0.0300593 0
M  V30 199 C 25.2996 -1.40355 -1.25229 0
M  V30 200 O 24.6576 -0.477099 -1.7491 0
M  V30 201 C 24.7056 -3.60274 -0.153231 0
M  V30 202 O 23.8096 -3.94041 -1.21678 0
M  V30 203 H 23.1506 -0.662158 0.0494182 0
M  V30 204 H 25.6806 -1.89662 0.767434 0
M  V30 205 H 25.6906 -4.0633 -0.368761 0
M  V30 206 H 24.3656 -4.08455 0.783397 0
M  V30 207 H 22.9426 -3.59735 -0.982079 0
M  V30 208 N 25.1277 -0.289203 -1.54924 0
M  V30 209 C 26.0757 0.607966 -2.24514 0
M  V30 210 C 27.0697 1.14655 -1.24702 0
M  V30 211 O 28.2757 1.09856 -1.4259 0
M  V30 212 H 24.6507 0.21464 -0.720718 0
M  V30 213 H 26.6217 -0.00164182 -2.984 0
M  V30 214 C 25.3707 1.77406 -2.99036 0
M  V30 215 H 24.6937 1.36884 -3.75637 0
M  V30 216 H 26.1337 2.37814 -3.51028 0
M  V30 217 C 24.5927 2.67107 -2.05318 0
M  V30 218 O 25.1227 3.6787 -1.61353 0
M  V30 219 N 23.3287 2.34582 -1.71521 0
M  V30 220 H 22.8757 1.52688 -2.07471 0
M  V30 221 H 22.8337 2.94867 -1.0909 0
M  V30 222 N 26.6058 1.57591 -0.0167156 0
M  V30 223 C 27.8518 1.91567 0.665582 0
M  V30 224 C 28.1848 0.892298 1.72487 0
M  V30 225 O 27.4598 -0.0867127 1.94307 0
M  V30 226 C 27.7428 3.36069 1.29342 0
M  V30 227 C 27.5958 4.49135 0.244541 0
M  V30 228 C 28.9148 3.803 2.21495 0
M  V30 229 H 26.0338 0.69666 0.240488 0
M  V30 230 H 28.6758 1.89866 -0.0714356 0
M  V30 231 H 26.8258 3.3765 1.92158 0
M  V30 232 H 28.4978 4.59689 -0.385228 0
M  V30 233 H 26.7408 4.3165 -0.431379 0
M  V30 234 H 27.4118 5.47242 0.723207 0
M  V30 235 H 29.8878 3.80377 1.68678 0
M  V30 236 H 28.7638 4.82127 2.62382 0
M  V30 237 H 29.0248 3.15104 3.101 0
M  V30 238 N 28.0839 -0.256276 1.55502 0
M  V30 239 C 29.3089 -1.00766 1.81276 0
M  V30 240 C 29.7339 -1.78524 0.59252 0
M  V30 241 O 29.0919 -1.75413 -0.45827 0
M  V30 242 C 29.1399 -1.92869 3.04687 0
M  V30 243 O 28.2439 -3.019 2.80945 0
M  V30 244 H 27.5849 -0.287224 0.598664 0
M  V30 245 H 30.1149 -0.280109 2.02674 0
M  V30 246 H 30.1249 -2.34511 3.33869 0
M  V30 247 H 28.7999 -1.35689 3.93143 0
M  V30 248 H 27.3769 -2.64454 2.62904 0
M  V30 249 N 29.562 -1.4872 -0.521534 0
M  V30 250 C 30.808 -1.574 -1.27879 0
M  V30 251 C 31.141 -0.250817 -1.92573 0
M  V30 252 O 30.416 0.743934 -1.79711 0
M  V30 253 C 30.699 -2.71843 -2.36164 0
M  V30 254 C 30.552 -4.13893 -1.76105 0
M  V30 255 C 31.871 -2.82008 -3.37875 0
M  V30 256 H 28.99 -0.572941 -0.463581 0
M  V30 257 H 31.632 -1.80927 -0.580119 0
M  V30 258 H 29.782 -2.51914 -2.95756 0
M  V30 259 H 31.454 -4.45284 -1.20499 0
M  V30 260 H 29.697 -4.20498 -1.06601 0
M  V30 261 H 30.368 -4.89804 -2.5455 0
M  V30 262 H 32.844 -3.00086 -2.88249 0
M  V30 263 H 31.72 -3.63796 -4.11028 0
M  V30 264 H 31.981 -1.90511 -3.98946 0
M  V30 265 N 31.0401 0.771051 -1.3745 0
M  V30 266 C 31.9701 1.89827 -1.3597 0
M  V30 267 C 32.9511 1.68562 -0.228216 0
M  V30 268 O 34.1361 1.8941 -0.428675 0
M  V30 269 C 31.2661 3.2712 -1.16662 0
M  V30 270 C 30.2201 3.6295 -2.2683 0
M  V30 271 C 29.5461 4.98791 -1.92644 0
M  V30 272 C 30.8461 3.69627 -3.69017 0
M  V30 273 H 32.5401 1.91323 -2.30295 0
M  V30 274 H 30.0861 0.919082 -1.10855 0
M  V30 275 H 32.0391 4.05615 -1.14256 0
M  V30 276 H 30.7631 3.26059 -0.187926 0
M  V30 277 H 29.4221 2.86763 -2.28392 0
M  V30 278 H 29.0701 4.94271 -0.933021 0
M  V30 279 H 28.7701 5.23733 -2.66416 0
M  V30 280 H 30.2941 5.79685 -1.91826 0
M  V30 281 H 31.7081 4.38273 -3.69581 0
M  V30 282 H 30.1051 4.06067 -4.41848 0
M  V30 283 H 31.1751 2.70273 -4.02592 0
M  V30 284 N 32.5182 1.22032 0.997298 0
M  V30 285 C 33.4502 0.944263 2.08845 0
M  V30 286 C 34.4632 -0.0754663 1.62625 0
M  V30 287 O 35.6522 0.157994 1.77799 0
M  V30 288 C 32.7522 0.397723 3.36558 0
M  V30 289 C 31.9252 1.47362 4.11829 0
M  V30 290 C 30.9842 0.934951 5.17827 0
M  V30 291 O 30.0102 1.62016 5.45655 0
M  V30 292 N 31.2122 -0.245895 5.79979 0
M  V30 293 H 33.9772 1.88363 2.33109 0
M  V30 294 H 31.5382 1.12661 1.16272 0
M  V30 295 H 33.5302 0.0227771 4.04694 0
M  V30 296 H 32.1002 -0.446646 3.09393 0
M  V30 297 H 31.3202 2.02208 3.38386 0
M  V30 298 H 32.6082 2.19764 4.58891 0
M  V30 299 H 32.0062 -0.819475 5.59733 0
M  V30 300 H 30.5632 -0.562272 6.4937 0
M  V30 301 N 33.9963 -1.19345 1.0293 0
M  V30 302 C 34.9283 -2.22036 0.56857 0
M  V30 303 C 35.9413 -1.58865 -0.355779 0
M  V30 304 O 37.1303 -1.77851 -0.152103 0
M  V30 305 C 34.2303 -3.38363 -0.190752 0
M  V30 306 C 33.4033 -4.31118 0.738643 0
M  V30 307 C 32.4623 -5.26194 0.0246497 0
M  V30 308 O 31.4883 -5.65461 0.651354 0
M  V30 309 N 32.6903 -5.66971 -1.24594 0
M  V30 310 H 35.4553 -2.6219 1.45177 0
M  V30 311 H 33.0163 -1.34015 0.908381 0
M  V30 312 H 35.0083 -3.98981 -0.677961 0
M  V30 313 H 33.5783 -2.96994 -0.975366 0
M  V30 314 H 32.7983 -3.68276 1.40593 0
M  V30 315 H 34.0863 -4.90001 1.37029 0
M  V30 316 H 33.4843 -5.37104 -1.77583 0
M  V30 317 H 32.0413 -6.2984 -1.67764 0
M  V30 318 N 35.4744 -0.807222 -1.35358 0
M  V30 319 C 36.7214 -0.387888 -1.9875 0
M  V30 320 C 37.0494 1.04509 -1.64037 0
M  V30 321 O 36.3044 1.73986 -0.895946 0
M  V30 322 C 36.6034 -0.519036 -3.53611 0
M  V30 323 C 36.2694 -1.91542 -4.08194 0
M  V30 324 C 34.9314 -2.29745 -4.22813 0
M  V30 325 C 37.2834 -2.82896 -4.37744 0
M  V30 326 C 34.6114 -3.58668 -4.643 0
M  V30 327 C 36.9634 -4.11265 -4.8067 0
M  V30 328 C 35.6274 -4.49466 -4.93494 0
M  V30 329 H 34.8974 -0.141938 -0.727279 0
M  V30 330 H 37.5444 -1.02814 -1.6156 0
M  V30 331 H 35.8494 0.204658 -3.91265 0
M  V30 332 H 37.5464 -0.175345 -4.00616 0
M  V30 333 H 34.1364 -1.60862 -3.97268 0
M  V30 334 H 38.3204 -2.54629 -4.26002 0
M  V30 335 H 33.5764 -3.88113 -4.72418 0
M  V30 336 H 37.7504 -4.82153 -5.02496 0
M  V30 337 H 35.3774 -5.49418 -5.25399 0
M  V30 338 N 36.9525 1.47285 -0.560781 0
M  V30 339 C 37.9155 2.28535 0.174488 0
M  V30 340 C 38.9155 1.37153 0.839388 0
M  V30 341 O 40.1055 1.59748 0.694702 0
M  V30 342 C 37.2375 3.16934 1.25561 0
M  V30 343 H 38.4305 2.95012 -0.539262 0
M  V30 344 H 35.9835 1.53034 -0.317865 0
M  V30 345 H 36.7185 2.55157 2.00164 0
M  V30 346 H 36.5035 3.8419 0.783604 0
M  V30 347 H 37.9935 3.78143 1.77193 0
M  V30 348 N 38.4306 0.297415 1.54768 0
M  V30 349 C 39.6556 -0.318435 2.04941 0
M  V30 350 C 40.0806 -1.4701 1.17345 0
M  V30 351 O 39.4386 -1.80436 0.176758 0
M  V30 352 C 39.4866 -0.755749 3.52592 0
M  V30 353 O 38.5906 -1.86088 3.68028 0
M  V30 354 H 37.9316 -0.062421 0.661059 0
M  V30 355 H 40.4616 0.438215 1.99852 0
M  V30 356 H 40.4716 -1.04552 3.94376 0
M  V30 357 H 39.1466 0.0867233 4.1581 0
M  V30 358 H 37.7236 -1.57193 3.38149 0
M  V30 359 N 39.9087 -1.5758 0.0250728 0
M  V30 360 C 41.1567 -1.91255 -0.653151 0
M  V30 361 C 41.4777 -0.901691 -1.729 0
M  V30 362 O 40.7477 0.0573785 -1.95816 0
M  V30 363 H 39.3277 -0.705942 -0.244243 0
M  V30 364 H 41.9897 -1.94767 0.0719209 0
M  V30 365 H 41.0857 -2.91752 -1.10847 0
M  V30 366 N 41.3868 0.248026 -1.55636 0
M  V30 367 C 42.3168 1.31079 -1.93237 0
M  V30 368 C 43.2978 1.50264 -0.797174 0
M  V30 369 O 44.4828 1.62891 -1.05737 0
M  V30 370 C 41.6128 2.66575 -2.22609 0
M  V30 371 C 40.5668 2.62087 -3.3837 0
M  V30 372 C 39.8928 4.01369 -3.53281 0
M  V30 373 C 41.1928 2.19171 -4.7409 0
M  V30 374 H 42.8868 0.998556 -2.82257 0
M  V30 375 H 40.4328 0.47891 -1.35803 0
M  V30 376 H 42.3858 3.41057 -2.47503 0
M  V30 377 H 41.1098 2.99432 -1.30414 0
M  V30 378 H 39.7688 1.90063 -3.13483 0
M  V30 379 H 39.4168 4.31489 -2.58508 0
M  V30 380 H 39.1168 3.99254 -4.31127 0
M  V30 381 H 40.6408 4.77552 -3.80495 0
M  V30 382 H 42.0548 2.83384 -4.98363 0
M  V30 383 H 40.4518 2.2817 -5.5503 0
M  V30 384 H 41.5218 1.14336 -4.71227 0
M  V30 385 N 42.8649 1.48995 0.513639 0
M  V30 386 C 43.8119 1.6473 1.61656 0
M  V30 387 C 44.7819 0.488984 1.58739 0
M  V30 388 O 45.9669 0.714478 1.76918 0
M  V30 389 C 43.1069 1.7082 2.99858 0
M  V30 390 C 42.2199 2.9787 3.12885 0
M  V30 391 C 41.3549 2.95017 4.41744 0
M  V30 392 C 40.3939 4.16702 4.48359 0
M  V30 393 N 39.5309 4.11832 5.68629 0
M  V30 394 H 44.3709 2.58909 1.47547 0
M  V30 395 H 41.9079 1.28382 0.71808 0
M  V30 396 H 43.8659 1.72331 3.79944 0
M  V30 397 H 42.4959 0.801181 3.12699 0
M  V30 398 H 41.5479 3.06029 2.25944 0
M  V30 399 H 42.8599 3.8786 3.13633 0
M  V30 400 H 42.0139 2.95021 5.30139 0
M  V30 401 H 40.7529 2.02784 4.43542 0
M  V30 402 H 39.7579 4.16955 3.58369 0
M  V30 403 H 40.9829 5.10113 4.48287 0
M  V30 404 H 38.9289 3.22428 5.71293 0
M  V30 405 H 38.8459 4.95543 5.7094 0
M  V30 406 H 40.1139 4.1592 6.59266 0
M  V30 407 N 44.343 -0.763751 1.37857 0
M  V30 408 C 45.568 -1.55805 1.36893 0
M  V30 409 C 45.993 -1.88054 -0.0416135 0
M  V30 410 O 45.351 -1.49825 -1.02089 0
M  V30 411 C 45.399 -2.84012 2.22192 0
M  V30 412 O 44.503 -3.78732 1.63204 0
M  V30 413 H 43.844 -0.471638 0.46739 0
M  V30 414 H 46.374 -0.944657 1.81487 0
M  V30 415 H 46.384 -3.33037 2.35691 0
M  V30 416 H 45.059 -2.59869 3.24716 0
M  V30 417 H 43.636 -3.37402 1.58791 0
M  V30 418 N 45.8211 -1.22559 -0.990812 0
M  V30 419 C 47.2371 -0.985996 -1.255 0
M  V30 420 C 47.4371 0.319173 -1.98956 0
M  V30 421 O 46.4931 1.04127 -2.3003 0
M  V30 422 C 47.8061 -2.18607 -2.06474 0
M  V30 423 C 49.3541 -2.22985 -2.19651 0
M  V30 424 C 49.8291 -3.4255 -3.04012 0
M  V30 425 N 51.3201 -3.42725 -3.11599 0
M  V30 426 C 52.0551 -4.31892 -3.7717 0
M  V30 427 N 51.5511 -5.31279 -4.44651 0
M  V30 428 N 53.3441 -4.19662 -3.73952 0
M  V30 429 H 45.4951 -2.06469 -0.49841 0
M  V30 430 H 47.7581 -0.904853 -0.282747 0
M  V30 431 H 47.4641 -3.13267 -1.59865 0
M  V30 432 H 47.3381 -2.18838 -3.07229 0
M  V30 433 H 49.7251 -1.28871 -2.65474 0
M  V30 434 H 49.8061 -2.26791 -1.18319 0
M  V30 435 H 49.4501 -4.36965 -2.58889 0
M  V30 436 H 49.3801 -3.35984 -4.0549 0
M  V30 437 H 51.8711 -2.70807 -2.63575 0
M  V30 438 H 52.1841 -5.95593 -4.92431 0
M  V30 439 H 50.5291 -5.3519 -4.43392 0
M  V30 440 H 53.7201 -3.41268 -3.20396 0
M  V30 441 H 53.8931 -4.89358 -4.24774 0
M  V30 442 N 47.2992 1.18797 -1.03562 0
M  V30 443 C 48.2472 2.24297 -0.615905 0
M  V30 444 C 49.2412 1.65643 0.354808 0
M  V30 445 O 50.4472 1.78618 0.22265 0
M  V30 446 H 46.8222 0.729909 -0.180934 0
M  V30 447 H 48.7932 2.5701 -1.5162 0
M  V30 448 C 47.5422 3.47698 0.0104735 0
M  V30 449 H 46.8652 3.93125 -0.727509 0
M  V30 450 H 48.3052 4.23159 0.266995 0
M  V30 451 C 46.7642 3.12489 1.25905 0
M  V30 452 O 47.2942 3.25761 2.35038 0
M  V30 453 N 45.5002 2.6686 1.15039 0
M  V30 454 H 45.0472 2.56261 0.262328 0
M  V30 455 H 45.0052 2.43674 1.98672 0
M  V30 456 N 48.7773 0.814389 1.34928 0
M  V30 457 C 49.6873 0.231978 2.3345 0
M  V30 458 C 50.7033 -0.629139 1.62228 0
M  V30 459 O 51.8793 -0.539052 1.94052 0
M  V30 460 C 48.9443 -0.603482 3.41407 0
M  V30 461 C 48.0053 0.279037 4.28392 0
M  V30 462 C 47.2383 -0.516643 5.31193 0
M  V30 463 O 47.4613 -1.75068 5.4287 0
M  V30 464 O 46.3953 0.0965652 6.01823 0
M  V30 465 H 50.2213 1.04721 2.85074 0
M  V30 466 H 47.8063 0.576343 1.37836 0
M  V30 467 H 49.6883 -1.07908 4.0735 0
M  V30 468 H 48.3633 -1.39618 2.92042 0
M  V30 469 H 47.2703 0.801948 3.65403 0
M  V30 470 H 48.6033 1.03588 4.81176 0
M  V30 471 N 50.2554 -1.46986 0.568584 0
M  V30 472 C 51.1654 -2.33942 -0.17555 0
M  V30 473 C 52.1814 -1.48891 -0.90041 0
M  V30 474 O 53.3574 -1.81794 -0.86676 0
M  V30 475 C 50.4224 -3.25811 -1.18524 0
M  V30 476 C 49.4834 -4.26757 -0.466582 0
M  V30 477 C 48.7164 -5.14236 -1.42817 0
M  V30 478 O 48.9394 -5.04379 -2.66379 0
M  V30 479 O 47.8734 -5.94412 -0.946453 0
M  V30 480 H 51.6994 -2.98896 0.538036 0
M  V30 481 H 49.2844 -1.4573 0.329097 0
M  V30 482 H 51.1664 -3.82527 -1.76779 0
M  V30 483 H 49.8414 -2.63471 -1.88055 0
M  V30 484 H 48.7484 -3.73769 0.157451 0
M  V30 485 H 50.0814 -4.91843 0.187485 0
M  V30 486 N 51.7335 -0.305618 -1.54608 0
M  V30 487 C 52.9615 0.304775 -2.04643 0
M  V30 488 C 53.3765 1.47167 -1.18268 0
M  V30 489 O 52.7335 1.81296 -0.209328 0
M  V30 490 C 52.7845 0.756564 -3.53495 0
M  V30 491 O 52.5055 -0.36389 -4.36586 0
M  V30 492 C 54.0065 1.43163 -4.19546 0
M  V30 493 H 51.2265 0.0655481 -0.667791 0
M  V30 494 H 53.7705 -0.446592 -1.99564 0
M  V30 495 H 51.9255 1.45794 -3.58919 0
M  V30 496 H 52.3395 -0.0113121 -5.24499 0
M  V30 497 H 53.8135 1.69886 -5.25207 0
M  V30 498 H 54.2905 2.37318 -3.69563 0
M  V30 499 H 54.8965 0.773307 -4.18211 0
M  V30 500 N 53.2116 1.57565 -0.0334293 0
M  V30 501 C 54.6276 1.56297 0.322997 0
M  V30 502 C 54.8276 1.03945 1.7262 0
M  V30 503 O 53.8836 0.688109 2.42943 0
M  V30 504 C 55.1966 3.00232 0.167664 0
M  V30 505 C 56.7446 3.12078 0.240107 0
M  V30 506 C 57.2196 4.57859 0.113513 0
M  V30 507 N 58.7106 4.62887 0.170359 0
M  V30 508 C 59.4456 5.73319 0.0962517 0
M  V30 509 N 58.9416 6.92794 -0.0291881 0
M  V30 510 N 60.7346 5.61898 0.150551 0
M  V30 511 H 52.8856 1.89923 -0.950956 0
M  V30 512 H 55.1486 0.873824 -0.367608 0
M  V30 513 H 54.8546 3.42501 -0.799102 0
M  V30 514 H 54.7286 3.654 0.936083 0
M  V30 515 H 57.1156 2.69718 1.19733 0
M  V30 516 H 57.1966 2.49623 -0.558763 0
M  V30 517 H 56.8406 5.009 -0.840314 0
M  V30 518 H 56.7706 5.18299 0.931302 0
M  V30 519 H 59.2616 3.76954 0.26728 0
M  V30 520 H 59.5746 7.7276 -0.0789252 0
M  V30 521 H 57.9196 6.94971 -0.0640299 0
M  V30 522 H 61.1106 4.67448 0.246981 0
M  V30 523 H 61.2836 6.47938 0.0893365 0
M  V30 524 N 54.6897 -0.239769 1.55765 0
M  V30 525 C 55.6527 -1.28038 1.90103 0
M  V30 526 C 56.6527 -1.40723 0.778055 0
M  V30 527 O 57.8427 -1.39301 1.04599 0
M  V30 528 C 54.9747 -2.65702 2.13577 0
M  V30 529 H 56.1677 -0.988048 2.83157 0
M  V30 530 H 53.7207 -0.479382 1.48767 0
M  V30 531 H 54.4557 -3.00063 1.23015 0
M  V30 532 H 54.2407 -2.57875 2.95369 0
M  V30 533 H 55.7307 -3.40828 2.41301 0
M  V30 534 N 56.1678 -1.49265 -0.50573 0
M  V30 535 C 57.1148 -1.65585 -1.6078 0
M  V30 536 C 58.0848 -0.497396 -1.58478 0
M  V30 537 O 59.2698 -0.72385 -1.76536 0
M  V30 538 C 56.4098 -1.72408 -2.98948 0
M  V30 539 C 55.5228 -2.99525 -3.11301 0
M  V30 540 C 54.6578 -2.97356 -4.40174 0
M  V30 541 C 53.6968 -4.19074 -4.46143 0
M  V30 542 N 52.8338 -4.14841 -5.66437 0
M  V30 543 H 57.6738 -2.59688 -1.46172 0
M  V30 544 H 55.2108 -1.28761 -0.711261 0
M  V30 545 H 57.1688 -1.74344 -3.79025 0
M  V30 546 H 55.7988 -0.817753 -3.1227 0
M  V30 547 H 54.8508 -3.07222 -2.24318 0
M  V30 548 H 56.1628 -3.89518 -3.11572 0
M  V30 549 H 55.3168 -2.97829 -5.28567 0
M  V30 550 H 54.0558 -2.05133 -4.42461 0
M  V30 551 H 53.0608 -4.1885 -3.56153 0
M  V30 552 H 54.2858 -5.12483 -4.45575 0
M  V30 553 H 52.2318 -3.25453 -5.69575 0
M  V30 554 H 52.1488 -4.98564 -5.68304 0
M  V30 555 H 53.4168 -4.1941 -6.57051 0
M  V30 556 N 57.6459 0.756429 -1.3826 0
M  V30 557 C 58.6089 1.85176 -1.35065 0
M  V30 558 C 59.6089 1.58818 -0.251703 0
M  V30 559 O 60.7989 1.66615 -0.508433 0
M  V30 560 C 57.9309 3.22596 -1.10201 0
M  V30 561 H 59.1239 1.89417 -2.3251 0
M  V30 562 H 56.6769 0.95783 -1.23512 0
M  V30 563 H 57.4119 3.24025 -0.133504 0
M  V30 564 H 57.1969 3.43122 -1.89762 0
M  V30 565 H 58.6869 4.02673 -1.10654 0
M  V30 566 N 59.124 1.23083 0.984299 0
M  V30 567 C 60.087 1.00979 2.05757 0
M  V30 568 C 61.087 -0.0269573 1.60777 0
M  V30 569 O 62.277 0.212403 1.729 0
M  V30 570 C 59.409 0.527072 3.36801 0
M  V30 571 H 60.602 1.9622 2.26799 0
M  V30 572 H 58.155 1.05072 1.15714 0
M  V30 573 H 58.89 -0.429294 3.21446 0
M  V30 574 H 58.675 1.27515 3.70786 0
M  V30 575 H 60.165 0.392942 4.15747 0
M  V30 576 N 60.6021 -1.18246 1.0419 0
M  V30 577 C 61.5491 -2.2192 0.634037 0
M  V30 578 C 62.5191 -1.62179 -0.358765 0
M  V30 579 O 63.7041 -1.89122 -0.252466 0
M  V30 580 C 60.8441 -3.451 0.00445535 0
M  V30 581 C 59.9571 -4.19174 1.04487 0
M  V30 582 C 59.0921 -5.29813 0.383676 0
M  V30 583 C 58.1311 -5.9566 1.4091 0
M  V30 584 N 57.2681 -6.97834 0.772784 0
M  V30 585 H 62.1081 -2.56164 1.52263 0
M  V30 586 H 59.6451 -1.25843 0.761701 0
M  V30 587 H 61.6031 -4.15485 -0.377919 0
M  V30 588 H 60.2331 -3.11472 -0.847652 0
M  V30 589 H 59.2851 -3.47604 1.54518 0
M  V30 590 H 60.5971 -4.64267 1.82368 0
M  V30 591 H 59.7511 -6.06677 -0.0528366 0
M  V30 592 H 58.4901 -4.85825 -0.427208 0
M  V30 593 H 57.4951 -5.17535 1.85574 0
M  V30 594 H 58.7201 -6.4173 2.22171 0
M  V30 595 H 56.6661 -6.55998 -0.0177708 0
M  V30 596 H 56.5831 -7.41186 1.48928 0
M  V30 597 H 57.8511 -7.78665 0.36071 0
M  V30 598 N 62.0802 -0.821533 -1.34494 0
M  V30 599 C 62.9902 -0.244355 -2.33324 0
M  V30 600 C 64.0062 0.620527 -1.62559 0
M  V30 601 O 65.1822 0.528754 -1.94335 0
M  V30 602 C 62.2472 0.585368 -3.41723 0
M  V30 603 C 61.3082 -0.301752 -4.28238 0
M  V30 604 C 60.5412 0.488466 -5.3146 0
M  V30 605 O 60.7642 1.72186 -5.4379 0
M  V30 606 O 59.6982 -0.12848 -6.01763 0
M  V30 607 H 63.5242 -1.06231 -2.84515 0
M  V30 608 H 61.1092 -0.583645 -1.37528 0
M  V30 609 H 62.9912 1.05747 -4.07916 0
M  V30 610 H 61.6662 1.38068 -2.92778 0
M  V30 611 H 60.5732 -0.821315 -3.64973 0
M  V30 612 H 61.9062 -1.06138 -4.8062 0
M  V30 613 N 63.5583 1.46682 -0.576371 0
M  V30 614 C 64.4883 2.33028 0.148397 0
M  V30 615 C 65.4693 1.44961 0.889956 0
M  V30 616 O 66.6543 1.73789 0.866662 0
M  V30 617 C 63.7843 3.27117 1.1667 0
M  V30 618 C 62.7383 4.24575 0.540386 0
M  V30 619 C 62.0643 5.08126 1.6647 0
M  V30 620 C 63.3643 5.19722 -0.518331 0
M  V30 621 H 65.0583 2.93875 -0.572509 0
M  V30 622 H 62.6043 1.41315 -0.276768 0
M  V30 623 H 64.5573 3.86374 1.68204 0
M  V30 624 H 63.2813 2.64364 1.9178 0
M  V30 625 H 61.9403 3.66571 0.0461769 0
M  V30 626 H 61.5883 4.41762 2.40531 0
M  V30 627 H 61.2883 5.74122 1.25131 0
M  V30 628 H 62.8123 5.70246 2.18293 0
M  V30 629 H 64.2263 5.73232 -0.0883058 0
M  V30 630 H 62.6233 5.94026 -0.851679 0
M  V30 631 H 63.6933 4.64037 -1.40703 0
M  V30 632 N 65.0364 0.313813 1.54444 0
M  V30 633 C 65.9684 -0.590425 2.21465 0
M  V30 634 C 66.9814 -1.08753 1.21147 0
M  V30 635 O 68.1704 -1.00278 1.4767 0
M  V30 636 C 65.2704 -1.82179 2.85769 0
M  V30 637 C 64.4434 -1.46502 4.12136 0
M  V30 638 C 63.5024 -2.55288 4.60124 0
M  V30 639 O 62.5284 -2.19842 5.25032 0
M  V30 640 N 63.7304 -3.86053 4.33525 0
M  V30 641 H 66.4954 -0.0166033 2.99695 0
M  V30 642 H 64.0564 0.136578 1.61323 0
M  V30 643 H 66.0484 -2.54328 3.14801 0
M  V30 644 H 64.6184 -2.30369 2.11303 0
M  V30 645 H 63.8384 -0.575595 3.89975 0
M  V30 646 H 65.1264 -1.20221 4.94393 0
M  V30 647 H 64.5244 -4.17654 3.81552 0
M  V30 648 H 63.0814 -4.54461 4.67235 0
M  V30 649 N 66.5145 -1.57545 0.0417849 0
M  V30 650 C 67.4645 -2.07483 -0.945247 0
M  V30 651 C 68.4485 -0.977983 -1.27767 0
M  V30 652 O 69.6405 -1.24142 -1.26166 0
M  V30 653 C 66.7695 -2.61576 -2.22335 0
M  V30 654 C 65.8555 -3.78213 -1.91874 0
M  V30 655 N 66.2465 -4.88344 -1.31733 0
M  V30 656 C 64.5445 -3.8694 -2.21796 0
M  V30 657 C 65.2455 -5.69462 -1.1869 0
M  V30 658 N 64.2215 -5.16771 -1.68666 0
M  V30 659 H 68.0235 -2.90029 -0.475441 0
M  V30 660 H 65.5375 -1.61581 -0.162911 0
M  V30 661 H 67.5345 -2.95651 -2.93932 0
M  V30 662 H 66.1945 -1.80465 -2.69931 0
M  V30 663 H 67.2055 -5.08335 -0.990729 0
M  V30 664 H 63.8825 -3.16757 -2.71977 0
M  V30 665 H 65.2725 -6.68023 -0.720793 0
M  V30 666 N 67.9926 0.231505 -1.5589 0
M  V30 667 C 69.2226 0.973092 -1.82248 0
M  V30 668 C 69.6306 1.78845 -0.617328 0
M  V30 669 O 68.9736 1.78752 0.423499 0
M  V30 670 C 69.0356 1.94732 -3.02192 0
M  V30 671 C 68.6996 1.31743 -4.37599 0
M  V30 672 C 69.6966 0.712238 -5.14998 0
M  V30 673 C 67.3816 1.33218 -4.84312 0
M  V30 674 C 69.3756 0.130195 -6.37267 0
M  V30 675 C 67.0626 0.746286 -6.06526 0
M  V30 676 C 68.0606 0.146337 -6.82843 0
M  V30 677 O 67.7486 -0.430465 -8.02747 0
M  V30 678 H 67.4806 0.29125 -0.61004 0
M  V30 679 H 70.0346 0.254915 -2.03812 0
M  V30 680 H 68.2646 2.70422 -2.76422 0
M  V30 681 H 69.9536 2.55362 -3.15508 0
M  V30 682 H 70.7196 0.69324 -4.8002 0
M  V30 683 H 66.5986 1.78854 -4.24891 0
M  V30 684 H 70.1426 -0.33871 -6.96777 0
M  V30 685 H 66.0396 0.762663 -6.40979 0
M  V30 686 H 66.8076 -0.323818 -8.17859 0
M  V30 687 N 69.4707 1.49531 0.497807 0
M  V30 688 C 70.7167 1.59415 1.25358 0
M  V30 689 C 71.0497 0.281422 1.9215 0
M  V30 690 O 70.3247 -0.715249 1.80871 0
M  V30 691 C 70.6077 2.75566 2.3181 0
M  V30 692 C 70.4607 4.16642 1.69498 0
M  V30 693 C 71.7797 2.87347 3.33346 0
M  V30 694 H 68.8987 0.580244 0.454408 0
M  V30 695 H 71.5407 1.81827 0.551262 0
M  V30 696 H 69.6907 2.56587 2.91711 0
M  V30 697 H 71.3627 4.47145 1.13399 0
M  V30 698 H 69.6057 4.22141 0.998978 0
M  V30 699 H 70.2767 4.93792 2.46725 0
M  V30 700 H 72.7527 3.04634 2.83438 0
M  V30 701 H 71.6287 3.70289 4.05188 0
M  V30 702 H 71.8897 1.96834 3.95865 0
M  V30 703 N 70.9488 -0.749086 1.3866 0
M  V30 704 C 72.1768 -1.53834 1.38358 0
M  V30 705 C 72.5918 -1.88783 -0.0255219 0
M  V30 706 O 71.9488 -1.53101 -0.993292 0
M  V30 707 C 71.9998 -2.83468 2.2434 0
M  V30 708 O 71.7208 -2.50008 3.5976 0
M  V30 709 C 73.2218 -3.7758 2.32267 0
M  V30 710 H 70.4418 -0.47585 0.473083 0
M  V30 711 H 72.9858 -0.926726 1.82297 0
M  V30 712 H 71.1408 -3.40995 1.83851 0
M  V30 713 H 71.5548 -3.33182 4.05081 0
M  V30 714 H 73.0288 -4.65478 2.96706 0
M  V30 715 H 73.5058 -4.18334 1.33765 0
M  V30 716 H 74.1118 -3.25976 2.73166 0
M  V30 717 N 72.4269 -1.23603 -0.977757 0
M  V30 718 C 73.3599 -0.962772 -2.06896 0
M  V30 719 C 74.3379 0.0998743 -1.62293 0
M  V30 720 O 75.5219 -0.0349421 -1.88468 0
M  V30 721 C 72.6489 -0.45095 -3.35685 0
M  V30 722 C 71.6949 -1.50061 -3.99229 0
M  V30 723 S 72.5279 -3.07884 -4.38142 0
M  V30 724 C 73.6839 -2.58378 -5.7008 0
M  V30 725 H 73.9169 -1.88677 -2.29757 0
M  V30 726 H 71.4499 -1.06876 -1.11431 0
M  V30 727 H 73.4079 -0.162261 -4.10179 0
M  V30 728 H 72.0689 0.452179 -3.10828 0
M  V30 729 H 71.2619 -1.09269 -4.92013 0
M  V30 730 H 70.8639 -1.73878 -3.31123 0
M  V30 731 H 73.1559 -2.00563 -6.47133 0
M  V30 732 H 74.0989 -3.49711 -6.15717 0
M  V30 733 H 74.5069 -1.99143 -5.28207 0
M  V30 734 N 73.905 1.17692 -1.04816 0
M  V30 735 C 74.815 2.25229 -0.65643 0
M  V30 736 C 75.831 1.71018 0.320761 0
M  V30 737 O 77.007 2.00649 0.173805 0
M  V30 738 C 74.072 3.46684 -0.0332629 0
M  V30 739 C 73.133 4.15997 -1.06042 0
M  V30 740 C 72.366 5.31654 -0.466893 0
M  V30 741 O 72.589 5.65777 0.724758 0
M  V30 742 O 71.523 5.89831 -1.1993 0
M  V30 743 H 75.349 2.61016 -1.55255 0
M  V30 744 H 72.934 1.24919 -0.81949 0
M  V30 745 H 74.816 4.20234 0.313256 0
M  V30 746 H 73.491 3.12703 0.836566 0
M  V30 747 H 72.398 3.44482 -1.45886 0
M  V30 748 H 73.731 4.53996 -1.90127 0
M  V30 749 N 75.3831 0.828654 1.34056 0
M  V30 750 C 76.3131 0.269443 2.3194 0
M  V30 751 C 77.2941 -0.617247 1.58506 0
M  V30 752 O 78.4791 -0.542931 1.86456 0
M  V30 753 C 75.6091 -0.564793 3.42677 0
M  V30 754 C 74.5631 0.225241 4.27407 0
M  V30 755 C 73.8891 -0.7321 5.29664 0
M  V30 756 C 75.1891 1.43663 5.02154 0
M  V30 757 H 76.8831 1.08728 2.7896 0
M  V30 758 H 74.4291 0.524283 1.34117 0
M  V30 759 H 76.3821 -0.966233 4.10173 0
M  V30 760 H 75.1061 -1.41574 2.9432 0
M  V30 761 H 73.7651 0.608117 3.61521 0
M  V30 762 H 73.4131 -1.57916 4.77568 0
M  V30 763 H 73.1131 -0.20767 5.87233 0
M  V30 764 H 74.6371 -1.13128 6.00029 0
M  V30 765 H 76.0511 1.1089 5.62473 0
M  V30 766 H 74.4481 1.89711 5.69324 0
M  V30 767 H 75.5181 2.21181 4.31517 0
M  V30 768 N 76.8612 -1.46375 0.584142 0
M  V30 769 C 78.2772 -1.57694 0.245929 0
M  V30 770 C 78.4772 -1.57903 -1.25175 0
M  V30 771 O 77.5332 -1.49676 -2.03355 0
M  V30 772 C 78.8462 -2.87028 0.896402 0
M  V30 773 C 80.3942 -3.00662 0.870127 0
M  V30 774 C 80.8692 -4.32734 1.50017 0
M  V30 775 N 82.3602 -4.39436 1.46458 0
M  V30 776 C 83.0952 -5.40248 1.92144 0
M  V30 777 N 82.5912 -6.47726 2.4581 0
M  V30 778 N 84.3842 -5.31459 1.83052 0
M  V30 779 H 76.5352 -1.44483 1.55687 0
M  V30 780 H 78.7982 -0.689291 0.650831 0
M  V30 781 H 78.5042 -2.9269 1.95002 0
M  V30 782 H 78.3782 -3.75014 0.405486 0
M  V30 783 H 80.7652 -2.94581 -0.174871 0
M  V30 784 H 80.8462 -2.14148 1.39908 0
M  V30 785 H 80.4902 -4.39573 2.54437 0
M  V30 786 H 80.4202 -5.18025 0.946432 0
M  V30 787 H 82.9112 -3.62367 1.07231 0
M  V30 788 H 83.2242 -7.20863 2.78525 0
M  V30 789 H 81.5692 -6.48542 2.49836 0
M  V30 790 H 84.7602 -4.46396 1.40883 0
M  V30 791 H 84.9332 -6.09881 2.18973 0
M  V30 792 N 78.3393 -0.321999 -1.54275 0
M  V30 793 C 79.2493 0.553631 -2.27974 0
M  V30 794 C 80.2653 1.13054 -1.32268 0
M  V30 795 O 81.4413 1.15084 -1.6528 0
M  V30 796 C 78.5063 1.69927 -3.02201 0
M  V30 797 C 77.5673 1.15433 -4.1349 0
M  V30 798 C 76.8003 2.24537 -4.84168 0
M  V30 799 O 77.0233 3.44852 -4.5435 0
M  V30 800 O 75.9573 1.90044 -5.7111 0
M  V30 801 H 79.7833 -0.0448345 -3.03667 0
M  V30 802 H 77.3683 -0.0877418 -1.49142 0
M  V30 803 H 79.2503 2.3663 -3.48689 0
M  V30 804 H 77.9253 2.28395 -2.29385 0
M  V30 805 H 76.8323 0.452436 -3.71354 0
M  V30 806 H 78.1653 0.614805 -4.88345 0
M  V30 807 N 79.8174 1.5752 -0.0501392 0
M  V30 808 C 80.7504 2.07026 0.959962 0
M  V30 809 C 81.7284 0.970539 1.30458 0
M  V30 810 O 82.9124 1.2424 1.41763 0
M  V30 811 C 80.0394 2.5099 2.27424 0
M  V30 812 C 79.0854 3.72188 2.08275 0
M  V30 813 S 79.9184 5.17888 1.36207 0
M  V30 814 C 81.0744 5.65165 2.6896 0
M  V30 815 H 81.3074 2.9238 0.538631 0
M  V30 816 H 78.8404 1.53547 0.162099 0
M  V30 817 H 80.7984 2.76982 3.02971 0
M  V30 818 H 79.4594 1.65944 2.66686 0
M  V30 819 H 78.6524 4.00866 3.05487 0
M  V30 820 H 78.2544 3.46457 1.40868 0
M  V30 821 H 80.5464 5.70687 3.65133 0
M  V30 822 H 81.4894 6.64394 2.4492 0
M  V30 823 H 81.8974 4.9289 2.75172 0
M  V30 824 N 81.2955 -0.223234 1.56011 0
M  V30 825 C 82.5205 -0.968978 1.83373 0
M  V30 826 C 82.9455 -1.77227 0.630254 0
M  V30 827 O 82.3035 -1.76345 -0.420959 0
M  V30 828 C 82.3515 -1.86363 3.08709 0
M  V30 829 O 81.4555 -2.95873 2.87285 0
M  V30 830 H 80.7965 -0.274461 0.604622 0
M  V30 831 H 83.3265 -0.237056 2.03222 0
M  V30 832 H 83.3365 -2.27376 3.38768 0
M  V30 833 H 82.0115 -1.27319 3.95933 0
M  V30 834 H 80.5885 -2.58818 2.68454 0
M  V30 835 N 82.7736 -1.49793 -0.48987 0
M  V30 836 C 83.7056 -1.63413 -1.60713 0
M  V30 837 C 84.7186 -0.516329 -1.54395 0
M  V30 838 O 85.9076 -0.788812 -1.60125 0
M  V30 839 C 83.0076 -1.58516 -2.99543 0
M  V30 840 C 82.1806 -2.86016 -3.30928 0
M  V30 841 C 81.2396 -2.74018 -4.49222 0
M  V30 842 O 80.2656 -3.47964 -4.50455 0
M  V30 843 N 81.4676 -1.86309 -5.4979 0
M  V30 844 H 84.2326 -2.59777 -1.49452 0
M  V30 845 H 81.7936 -1.47022 -0.677955 0
M  V30 846 H 83.7856 -1.48128 -3.76617 0
M  V30 847 H 82.3556 -0.69965 -3.0467 0
M  V30 848 H 81.5756 -3.10672 -2.42645 0
M  V30 849 H 82.8636 -3.70521 -3.487 0
M  V30 850 H 82.2616 -1.2551 -5.51601 0
M  V30 851 H 80.8186 -1.81837 -6.25922 0
M  V30 852 N 84.2517 0.741722 -1.39055 0
M  V30 853 C 85.1617 1.88621 -1.39496 0
M  V30 854 C 86.1777 1.71557 -0.290578 0
M  V30 855 O 87.3537 1.94275 -0.530954 0
M  V30 856 C 84.4187 3.24134 -1.23037 0
M  V30 857 C 83.4797 3.5364 -2.43387 0
M  V30 858 C 82.7127 4.82687 -2.27703 0
M  V30 859 O 82.9357 5.55922 -1.27696 0
M  V30 860 O 81.8697 5.1194 -3.16545 0
M  V30 861 H 85.6957 1.91203 -2.35956 0
M  V30 862 H 83.2807 0.888625 -1.20099 0
M  V30 863 H 85.1627 4.0513 -1.15964 0
M  V30 864 H 83.8377 3.22337 -0.296691 0
M  V30 865 H 82.7447 2.72758 -2.56035 0
M  V30 866 H 84.0777 3.60209 -3.35425 0
M  V30 867 N 85.7298 1.2412 0.971189 0
M  V30 868 C 86.6398 1.04747 2.09917 0
M  V30 869 C 87.6558 -0.0107162 1.73997 0
M  V30 870 O 88.8318 0.186714 2.00533 0
M  V30 871 C 85.8968 0.650828 3.40537 0
M  V30 872 C 84.9578 1.7851 3.90426 0
M  V30 873 C 84.1908 1.40729 5.14812 0
M  V30 874 O 84.4138 0.29557 5.69634 0
M  V30 875 O 83.3478 2.23168 5.58999 0
M  V30 876 H 87.1738 1.99304 2.29154 0
M  V30 877 H 84.7588 1.02908 1.08307 0
M  V30 878 H 86.6408 0.440992 4.19086 0
M  V30 879 H 85.3158 -0.265649 3.22608 0
M  V30 880 H 84.2228 2.04966 3.12953 0
M  V30 881 H 85.5558 2.68023 4.12825 0
M  V30 882 N 87.2079 -1.17134 1.05439 0
M  V30 883 C 88.4329 -1.91913 0.786396 0
M  V30 884 C 88.8579 -1.7643 -0.652234 0
M  V30 885 O 88.2159 -1.08372 -1.45345 0
M  V30 886 C 88.2639 -3.40921 1.17497 0
M  V30 887 O 87.3679 -4.11244 0.308589 0
M  V30 888 H 86.7089 -0.598215 0.288158 0
M  V30 889 H 89.2389 -1.48457 1.4079 0
M  V30 890 H 89.2489 -3.91668 1.14281 0
M  V30 891 H 87.9239 -3.5151 2.22292 0
M  V30 892 H 86.5009 -3.70731 0.40157 0
M  V30 893 N 88.686 -0.835752 -1.33615 0
M  V30 894 C 89.914 -0.443344 -2.02094 0
M  V30 895 C 90.329 0.954522 -1.62894 0
M  V30 896 O 89.686 1.61982 -0.840723 0
M  V30 897 C 89.737 -0.550775 -3.5728 0
M  V30 898 O 89.458 -1.89356 -3.95065 0
M  V30 899 C 90.959 -0.154919 -4.43029 0
M  V30 900 H 88.179 -0.176359 -0.647409 0
M  V30 901 H 90.723 -1.12746 -1.70612 0
M  V30 902 H 88.878 0.0853997 -3.87306 0
M  V30 903 H 89.292 -1.87687 -4.89769 0
M  V30 904 H 90.766 -0.281144 -5.51284 0
M  V30 905 H 91.243 0.902863 -4.2982 0
M  V30 906 H 91.849 -0.765404 -4.18356 0
M  V30 907 N 90.1641 1.46063 -0.591896 0
M  V30 908 C 91.5801 1.57561 -0.254288 0
M  V30 909 C 91.7801 1.58565 1.24336 0
M  V30 910 O 90.8361 1.50753 2.02558 0
M  V30 911 C 92.1491 2.86549 -0.911611 0
M  V30 912 C 93.6971 3.00197 -0.886059 0
M  V30 913 C 94.1721 4.31933 -1.5231 0
M  V30 914 N 95.6631 4.38654 -1.48786 0
M  V30 915 C 96.3981 5.39222 -1.95006 0
M  V30 916 N 95.8941 6.46414 -2.49241 0
M  V30 917 N 97.6871 5.3048 -1.85868 0
M  V30 918 H 89.8381 1.43655 -1.56451 0
M  V30 919 H 92.1011 0.68583 -0.654478 0
M  V30 920 H 91.8071 2.91651 -1.96551 0
M  V30 921 H 91.6811 3.74794 -0.425368 0
M  V30 922 H 94.0681 2.9467 0.159246 0
M  V30 923 H 94.1491 2.13403 -1.41041 0
M  V30 924 H 93.7931 4.38217 -2.56765 0
M  V30 925 H 93.7231 5.17516 -0.973891 0
M  V30 926 H 96.2141 3.61793 -1.09151 0
M  V30 927 H 96.5271 7.19376 -2.82344 0
M  V30 928 H 94.8721 6.47208 -2.53272 0
M  V30 929 H 98.0631 4.45643 -1.43248 0
M  V30 930 H 98.2361 6.08711 -2.22204 0
M  V30 931 N 91.6422 0.330177 1.54103 0
M  V30 932 C 92.8892 -0.270405 2.00686 0
M  V30 933 C 93.2172 -1.51621 1.21825 0
M  V30 934 O 92.4722 -1.93536 0.29025 0
M  V30 935 C 92.7712 -0.643134 3.51566 0
M  V30 936 C 92.4372 0.504251 4.48072 0
M  V30 937 C 91.0992 0.819163 4.74176 0
M  V30 938 C 93.4512 1.27465 5.05373 0
M  V30 939 C 90.7792 1.90708 5.5484 0
M  V30 940 C 93.1312 2.35271 5.87223 0
M  V30 941 C 91.7952 2.67336 6.11627 0
M  V30 942 H 91.0652 -0.0989482 0.734364 0
M  V30 943 H 93.7122 0.455324 1.86008 0
M  V30 944 H 92.0172 -1.44938 3.64006 0
M  V30 945 H 93.7142 -1.11949 3.85056 0
M  V30 946 H 90.3042 0.248733 4.27878 0
M  V30 947 H 94.4882 1.04462 4.85182 0
M  V30 948 H 89.7442 2.15991 5.71977 0
M  V30 949 H 93.9182 2.95405 6.30641 0
M  V30 950 H 91.5452 3.51763 6.73919 0
M  V30 951 N 93.1203 -1.57491 0.0584922 0
M  V30 952 C 94.3503 -1.9701 -0.622134 0
M  V30 953 C 94.7583 -0.935034 -1.6448 0
M  V30 954 O 94.1013 0.0882904 -1.83488 0
M  V30 955 C 94.1633 -3.32794 -1.35972 0
M  V30 956 C 93.8273 -4.54343 -0.492043 0
M  V30 957 C 94.8243 -5.19323 0.244901 0
M  V30 958 C 92.5093 -5.00534 -0.420821 0
M  V30 959 C 94.5033 -6.28835 1.04143 0
M  V30 960 C 92.1903 -6.09921 0.379389 0
M  V30 961 C 93.1883 -6.73933 1.10919 0
M  V30 962 O 92.8763 -7.81216 1.89623 0
M  V30 963 H 92.6083 -0.653127 -0.174359 0
M  V30 964 H 95.1623 -2.05029 0.123418 0
M  V30 965 H 93.3923 -3.21351 -2.15105 0
M  V30 966 H 95.0813 -3.5701 -1.93129 0
M  V30 967 H 95.8473 -4.8459 0.19939 0
M  V30 968 H 91.7263 -4.50496 -0.978474 0
M  V30 969 H 95.2703 -6.7873 1.61157 0
M  V30 970 H 91.1673 -6.44089 0.426512 0
M  V30 971 H 91.9353 -7.98029 1.81913 0
M  V30 972 N 94.5984 0.214957 -1.56127 0
M  V30 973 C 95.8754 0.963093 -1.70247 0
M  V30 974 C 96.2554 2.02166 -0.60764 0
M  V30 975 O 95.6034 2.25244 0.384385 0
M  V30 976 C 95.8134 1.56756 -3.11815 0
M  V30 977 C 97.1614 2.0573 -3.7143 0
M  V30 978 O 98.1854 1.66637 -3.14818 0
M  V30 979 O 97.0444 2.77603 -4.70743 0
M  V30 980 H 94.1384 0.450321 -0.693643 0
M  V30 981 H 96.6844 0.206219 -1.68442 0
M  V30 982 H 95.4564 0.803533 -3.82961 0
M  V30 983 H 95.0794 2.3898 -3.17765 0
M  V30 984 N 96.0765 1.50051 0.48192 0
M  V30 985 C 97.0085 1.64263 1.59844 0
M  V30 986 C 98.0215 0.52451 1.54119 0
M  V30 987 O 99.2105 0.797293 1.59704 0
M  V30 988 C 96.3105 1.60102 2.98698 0
M  V30 989 C 95.4835 2.87767 3.29407 0
M  V30 990 C 94.5425 2.76397 4.47762 0
M  V30 991 O 93.5685 3.50348 4.48603 0
M  V30 992 N 94.7705 1.89222 5.48794 0
M  V30 993 H 97.5355 2.60566 1.48073 0
M  V30 994 H 95.0965 1.47379 0.670149 0
M  V30 995 H 97.0885 1.50123 3.75826 0
M  V30 996 H 95.6585 0.715798 3.04294 0
M  V30 997 H 94.8785 3.11954 2.40994 0
M  V30 998 H 96.1665 3.72365 3.4673 0
M  V30 999 H 95.5645 1.28434 5.50928 0
M  V30 1000 H 94.1215 1.85154 6.24949 0
M  V30 1001 N 97.5546 -0.734337 1.39446 0
M  V30 1002 C 98.4846 -1.86155 1.40955 0
M  V30 1003 C 99.4656 -1.67898 0.272827 0
M  V30 1004 O 100.651 -1.88207 0.478743 0
M  V30 1005 C 97.7806 -3.23912 1.25294 0
M  V30 1006 C 96.7346 -3.56808 2.36373 0
M  V30 1007 C 96.0606 -4.93508 2.058 0
M  V30 1008 C 97.3606 -3.59713 3.78687 0
M  V30 1009 H 99.0546 -1.8515 2.35287 0
M  V30 1010 H 96.6006 -0.889367 1.13253 0
M  V30 1011 H 98.5536 -4.02443 1.2497 0
M  V30 1012 H 97.2776 -3.25446 0.274308 0
M  V30 1013 H 95.9366 -2.80606 2.35914 0
M  V30 1014 H 95.5846 -4.91623 1.06374 0
M  V30 1015 H 95.2846 -5.16486 2.80208 0
M  V30 1016 H 96.8086 -5.74396 2.07128 0
M  V30 1017 H 98.2226 -4.2832 3.81071 0
M  V30 1018 H 96.6196 -3.94209 4.52459 0
M  V30 1019 H 97.6896 -2.59504 4.09617 0
M  V30 1020 N 99.0327 -1.24633 -0.964593 0
M  V30 1021 C 99.9807 -1.03917 -2.08096 0
M  V30 1022 C 100.975 0.0268581 -1.69379 0
M  V30 1023 O 102.181 -0.127952 -1.79545 0
M  V30 1024 H 98.5557 -0.319044 -0.680966 0
M  V30 1025 H 100.527 -1.98581 -2.22729 0
M  V30 1026 C 99.2757 -0.663983 -3.41301 0
M  V30 1027 H 98.5987 -1.47605 -3.71555 0
M  V30 1028 H 100.039 -0.558663 -4.20303 0
M  V30 1029 C 98.4977 0.629169 -3.30973 0
M  V30 1030 O 99.0277 1.67404 -3.65156 0
M  V30 1031 N 97.2337 0.611057 -2.84103 0
M  V30 1032 H 96.7807 -0.239593 -2.56483 0
M  V30 1033 H 96.7387 1.47647 -2.77575 0
M  V30 1034 N 100.511 1.16574 -1.06058 0
M  V30 1035 C 101.461 2.18854 -0.63929 0
M  V30 1036 C 102.445 1.57505 0.328798 0
M  V30 1037 O 103.637 1.76408 0.144623 0
M  V30 1038 C 100.766 3.43291 -0.0247203 0
M  V30 1039 C 99.8518 4.11722 -1.01716 0
M  V30 1040 N 100.243 4.55841 -2.19186 0
M  V30 1041 C 98.5408 4.37872 -0.847569 0
M  V30 1042 C 99.2418 5.08751 -2.82042 0
M  V30 1043 N 98.2178 5.01489 -2.09784 0
M  V30 1044 H 102.02 2.5068 -1.53417 0
M  V30 1045 H 99.5338 1.32999 -0.931935 0
M  V30 1046 H 101.531 4.15856 0.294915 0
M  V30 1047 H 100.191 3.12954 0.865448 0
M  V30 1048 H 101.202 4.49649 -2.56975 0
M  V30 1049 H 97.8788 4.17499 -0.00918848 0
M  V30 1050 H 99.2688 5.52944 -3.81709 0
M  V30 1051 N 101.989 0.842826 1.3317 0
M  V30 1052 C 102.939 0.250877 2.26616 0
M  V30 1053 C 103.923 -0.596427 1.49437 0
M  V30 1054 O 105.115 -0.447747 1.71243 0
M  V30 1055 C 102.244 -0.569779 3.38539 0
M  V30 1056 C 101.33 0.289254 4.23112 0
M  V30 1057 N 101.721 1.36987 4.86897 0
M  V30 1058 C 100.019 0.0769631 4.45934 0
M  V30 1059 C 100.72 1.89737 5.49886 0
M  V30 1060 N 99.6959 1.19827 5.30229 0
M  V30 1061 H 103.498 1.07718 2.73448 0
M  V30 1062 H 101.012 0.687693 1.47121 0
M  V30 1063 H 103.009 -1.01018 4.04476 0
M  V30 1064 H 101.669 -1.39401 2.93253 0
M  V30 1065 H 102.68 1.75277 4.87338 0
M  V30 1066 H 99.3569 -0.713507 4.11358 0
M  V30 1067 H 100.747 2.80253 6.10662 0
M  V30 1068 N 103.467 -1.45747 0.599634 0
M  V30 1069 C 104.716 -2.01502 0.0893511 0
M  V30 1070 C 105.029 -1.4748 -1.28488 0
M  V30 1071 O 106.235 -1.95161 -1.88745 0
M  V30 1072 C 104.691 -3.59735 0.109082 0
M  V30 1073 C 104.299 -4.22754 1.48267 0
M  V30 1074 C 106.043 -4.23085 -0.346374 0
M  V30 1075 C 103.95 -5.73115 1.45921 0
M  V30 1076 H 102.88 -0.753417 0.0296347 0
M  V30 1077 H 105.531 -1.67303 0.753788 0
M  V30 1078 H 103.913 -3.91087 -0.621854 0
M  V30 1079 H 105.087 -4.02987 2.23468 0
M  V30 1080 H 103.402 -3.71567 1.87955 0
M  V30 1081 H 105.999 -5.33327 -0.38298 0
M  V30 1082 H 106.342 -3.93201 -1.36743 0
M  V30 1083 H 106.875 -3.9642 0.331038 0
M  V30 1084 H 103.614 -6.07685 2.45762 0
M  V30 1085 H 103.134 -5.95097 0.749665 0
M  V30 1086 H 104.813 -6.3616 1.17941 0
M  V30 1087 N 104.945 -0.338344 -1.53925 0
M  V30 1088 C 106.192 0.259758 -2.00827 0
M  V30 1089 C 106.52 1.50973 -1.22628 0
M  V30 1090 O 105.775 1.93379 -0.300509 0
M  V30 1091 C 106.074 0.62448 -3.51902 0
M  V30 1092 C 105.74 -0.528006 -4.47798 0
M  V30 1093 C 104.402 -0.844298 -4.73735 0
M  V30 1094 C 106.754 -1.30143 -5.0469 0
M  V30 1095 C 104.082 -1.93648 -5.53821 0
M  V30 1096 C 106.434 -2.38382 -5.85967 0
M  V30 1097 C 105.098 -2.70576 -6.10201 0
M  V30 1098 H 104.368 0.0950523 -0.734878 0
M  V30 1099 H 107.015 -0.465182 -1.85764 0
M  V30 1100 H 105.32 1.43006 -3.64769 0
M  V30 1101 H 107.017 1.09905 -3.85645 0
M  V30 1102 H 103.607 -0.271421 -4.2774 0
M  V30 1103 H 107.791 -1.07033 -4.84621 0
M  V30 1104 H 103.047 -2.19021 -5.70824 0
M  V30 1105 H 107.221 -2.98746 -6.29066 0
M  V30 1106 H 104.848 -3.55333 -6.72044 0
M  V30 1107 N 106.423 1.57458 -0.0668435 0
M  V30 1108 C 107.333 2.15937 0.916975 0
M  V30 1109 C 108.349 1.12123 1.33058 0
M  V30 1110 O 109.525 1.44366 1.40429 0
M  V30 1111 C 106.59 2.70547 2.16807 0
M  V30 1112 C 105.651 3.89215 1.81135 0
M  V30 1113 C 104.884 4.41211 3.0028 0
M  V30 1114 O 105.107 3.92225 4.14144 0
M  V30 1115 O 104.041 5.32605 2.80384 0
M  V30 1116 H 107.867 3.00354 0.449561 0
M  V30 1117 H 105.452 1.48584 0.155949 0
M  V30 1118 H 107.334 3.0557 2.90181 0
M  V30 1119 H 106.009 1.89192 2.62656 0
M  V30 1120 H 104.916 3.59054 1.05028 0
M  V30 1121 H 106.249 4.71848 1.40073 0
M  V30 1122 N 107.901 -0.206675 1.56239 0
M  V30 1123 C 108.831 -1.25909 1.96645 0
M  V30 1124 C 109.812 -1.48097 0.836734 0
M  V30 1125 O 110.997 -1.6003 1.10019 0
M  V30 1126 C 108.127 -2.6058 2.29599 0
M  V30 1127 C 107.081 -2.53024 3.452 0
M  V30 1128 C 106.407 -3.91861 3.63798 0
M  V30 1129 C 107.707 -2.06524 4.79734 0
M  V30 1130 H 109.401 -0.923369 2.84806 0
M  V30 1131 H 106.947 -0.442735 1.37025 0
M  V30 1132 H 108.9 -3.34375 2.56459 0
M  V30 1133 H 107.624 -2.95869 1.38307 0
M  V30 1134 H 106.283 -1.81684 3.18412 0
M  V30 1135 H 105.931 -4.24483 2.69857 0
M  V30 1136 H 105.631 -3.87683 4.4156 0
M  V30 1137 H 107.155 -4.67296 3.93022 0
M  V30 1138 H 108.569 -2.70072 5.05702 0
M  V30 1139 H 106.966 -2.13374 5.60885 0
M  V30 1140 H 108.036 -1.01802 4.74093 0
M  V30 1141 N 109.379 -1.50304 -0.473955 0
M  V30 1142 C 110.625 -1.61389 -1.22806 0
M  V30 1143 C 110.958 -0.311955 -1.91678 0
M  V30 1144 O 110.233 0.686384 -1.81986 0
M  V30 1145 C 110.516 -2.79219 -2.27396 0
M  V30 1146 C 110.369 -4.19286 -1.62848 0
M  V30 1147 C 111.688 -2.92614 -3.28732 0
M  V30 1148 H 108.807 -0.587399 -0.445119 0
M  V30 1149 H 111.449 -1.82681 -0.522265 0
M  V30 1150 H 109.599 -2.61195 -2.87592 0
M  V30 1151 H 111.271 -4.48892 -1.06271 0
M  V30 1152 H 109.514 -4.23677 -0.931693 0
M  V30 1153 H 110.185 -4.97655 -2.38838 0
M  V30 1154 H 112.661 -3.09105 -2.78556 0
M  V30 1155 H 111.537 -3.76688 -3.99246 0
M  V30 1156 H 111.798 -2.03107 -3.92683 0
M  V30 1157 N 110.857 0.726932 -1.39834 0
M  V30 1158 C 112.082 1.52121 -1.40976 0
M  V30 1159 C 112.507 1.88098 -0.00826029 0
M  V30 1160 O 111.865 1.52479 0.980807 0
M  V30 1161 C 111.913 2.78021 -2.29644 0
M  V30 1162 O 111.017 3.74272 -1.73188 0
M  V30 1163 H 110.358 0.45908 -0.479731 0
M  V30 1164 H 112.888 0.896207 -1.83927 0
M  V30 1165 H 112.898 3.26671 -2.44438 0
M  V30 1166 H 111.573 2.51169 -3.31492 0
M  V30 1167 H 110.15 3.33073 -1.6768 0
M  V30 1168 N 112.336 1.25143 0.95797 0
M  V30 1169 C 113.561 1.12521 1.74223 0
M  V30 1170 C 113.986 -0.317402 1.85403 0
M  V30 1171 O 113.344 -1.2299 1.33204 0
M  V30 1172 C 113.392 1.78062 3.1357 0
M  V30 1173 O 112.496 1.058 3.98598 0
M  V30 1174 H 111.837 0.39304 0.535178 0
M  V30 1175 H 114.367 1.65641 1.201 0
M  V30 1176 H 114.377 1.84213 3.64046 0
M  V30 1177 H 113.052 2.83021 3.04749 0
M  V30 1178 H 111.629 1.07506 3.57067 0
M  V30 1179 N 113.814 -1.1601 1.06675 0
M  V30 1180 C 115.039 -1.91068 0.806706 0
M  V30 1181 C 115.464 -1.77112 -0.633485 0
M  V30 1182 O 114.822 -1.09908 -1.44187 0
M  V30 1183 C 114.87 -3.39655 1.21106 0
M  V30 1184 O 113.974 -4.10893 0.352189 0
M  V30 1185 H 113.315 -0.595125 0.294486 0
M  V30 1186 H 115.845 -1.46955 1.42356 0
M  V30 1187 H 115.855 -3.90434 1.18428 0
M  V30 1188 H 114.53 -3.49132 2.26008 0
M  V30 1189 H 113.107 -3.70285 0.440868 0
M  V30 1190 N 115.292 -0.849877 -1.32721 0
M  V30 1191 C 116.569 -0.372405 -1.92022 0
M  V30 1192 C 116.949 1.1435 -1.77447 0
M  V30 1193 O 116.297 1.96296 -1.16962 0
M  V30 1194 C 116.507 -0.831482 -3.3895 0
M  V30 1195 C 117.855 -0.845882 -4.16089 0
M  V30 1196 O 118.879 -0.775806 -3.47649 0
M  V30 1197 O 117.738 -0.943753 -5.38289 0
M  V30 1198 H 114.832 -0.107667 -0.819961 0
M  V30 1199 H 117.378 -0.93646 -1.41522 0
M  V30 1200 H 116.15 -1.87448 -3.4348 0
M  V30 1201 H 115.773 -0.24461 -3.96847 0
M  V30 1202 N 116.77 1.45427 -0.607355 0
M  V30 1203 C 117.733 2.28974 0.101693 0
M  V30 1204 C 118.733 1.39754 0.795329 0
M  V30 1205 O 119.923 1.61878 0.643527 0
M  V30 1206 C 117.055 3.20768 1.15414 0
M  V30 1207 H 118.248 2.93147 -0.632844 0
M  V30 1208 H 115.801 1.51945 -0.366391 0
M  V30 1209 H 116.536 2.61395 1.91945 0
M  V30 1210 H 116.321 3.86489 0.66098 0
M  V30 1211 H 117.811 3.83589 1.65073 0
M  V30 1212 N 118.248 0.346503 1.53744 0
M  V30 1213 C 119.196 -0.52422 2.26616 0
M  V30 1214 C 120.19 -1.09948 1.28871 0
M  V30 1215 O 121.396 -1.04488 1.46568 0
M  V30 1216 H 117.771 -0.187743 0.728187 0
M  V30 1217 H 119.742 0.11239 2.98188 0
M  V30 1218 C 118.491 -1.66186 3.05414 0
M  V30 1219 H 117.814 -1.22848 3.80458 0
M  V30 1220 H 119.254 -2.24622 3.59612 0
M  V30 1221 C 117.713 -2.59302 2.1509 0
M  V30 1222 O 118.243 -3.61628 1.74895 0
M  V30 1223 N 116.449 -2.28055 1.8011 0
M  V30 1224 H 115.996 -1.44883 2.12994 0
M  V30 1225 H 115.954 -2.90615 1.19958 0
M  V30 1226 N 119.726 -1.57421 0.075193 0
M  V30 1227 C 120.636 -2.1642 -0.905511 0
M  V30 1228 C 121.652 -1.12828 -1.32461 0
M  V30 1229 O 122.828 -1.45109 -1.39661 0
M  V30 1230 C 119.893 -2.71693 -2.15369 0
M  V30 1231 C 118.954 -3.90171 -1.79068 0
M  V30 1232 C 118.187 -4.42798 -2.97936 0
M  V30 1233 O 118.41 -3.94416 -4.12058 0
M  V30 1234 O 117.344 -5.34085 -2.77555 0
M  V30 1235 H 121.17 -3.00588 -0.433626 0
M  V30 1236 H 118.755 -1.48664 -0.148067 0
M  V30 1237 H 120.637 -3.07104 -2.88557 0
M  V30 1238 H 119.312 -1.90582 -2.61649 0
M  V30 1239 H 118.219 -3.59606 -1.03122 0
M  V30 1240 H 119.552 -4.72584 -1.37569 0
M  V30 1241 N 121.204 0.198386 -1.56346 0
M  V30 1242 C 122.62 0.549085 -1.49857 0
M  V30 1243 C 122.82 1.86016 -0.774611 0
M  V30 1244 O 121.876 2.50416 -0.323776 0
M  V30 1245 C 123.189 0.606868 -2.94512 0
M  V30 1246 C 124.737 0.695925 -3.05165 0
M  V30 1247 C 125.212 0.784848 -4.51225 0
M  V30 1248 N 126.703 0.848463 -4.55363 0
M  V30 1249 C 127.438 0.937378 -5.65686 0
M  V30 1250 N 126.934 0.9888 -6.85707 0
M  V30 1251 N 128.727 0.974312 -5.53592 0
M  V30 1252 H 120.878 -0.661655 -2.01831 0
M  V30 1253 H 123.141 -0.235261 -0.918344 0
M  V30 1254 H 122.847 -0.28732 -3.50524 0
M  V30 1255 H 122.721 1.46268 -3.47686 0
M  V30 1256 H 125.108 1.58055 -2.49204 0
M  V30 1257 H 125.189 -0.186022 -2.55123 0
M  V30 1258 H 124.833 -0.0954072 -5.0781 0
M  V30 1259 H 124.763 1.68255 -4.98997 0
M  V30 1260 H 127.254 0.818103 -3.68938 0
M  V30 1261 H 127.567 1.05707 -7.65536 0
M  V30 1262 H 125.912 0.957534 -6.88372 0
M  V30 1263 H 129.103 0.930954 -4.58749 0
M  V30 1264 H 129.276 1.04015 -6.39597 0
M  V30 1265 N 122.682 1.50554 0.465978 0
M  V30 1266 C 123.629 1.6979 1.56333 0
M  V30 1267 C 124.599 0.539239 1.57103 0
M  V30 1268 O 125.784 0.770401 1.74555 0
M  V30 1269 C 122.924 1.80273 2.94271 0
M  V30 1270 C 122.037 3.07674 3.0325 0
M  V30 1271 C 121.172 3.08922 4.32135 0
M  V30 1272 C 120.211 4.30755 4.34875 0
M  V30 1273 N 119.348 4.29714 5.55239 0
M  V30 1274 H 124.188 2.63472 1.39235 0
M  V30 1275 H 121.725 1.30602 0.676873 0
M  V30 1276 H 123.683 1.84332 3.74269 0
M  V30 1277 H 122.313 0.900258 3.09992 0
M  V30 1278 H 121.365 3.13062 2.16094 0
M  V30 1279 H 122.677 3.97642 3.01135 0
M  V30 1280 H 121.831 3.11738 5.20485 0
M  V30 1281 H 120.57 2.16792 4.36866 0
M  V30 1282 H 119.575 4.28146 3.44922 0
M  V30 1283 H 120.8 5.24117 4.31831 0
M  V30 1284 H 118.746 3.4044 5.60746 0
M  V30 1285 H 118.663 5.13456 5.54886 0
M  V30 1286 H 119.931 4.36683 6.457 0
M  V30 1287 N 124.16 -0.719506 1.40217 0
M  V30 1288 C 125.408 -1.47641 1.3801 0
M  V30 1289 C 125.729 -1.94992 -0.018145 0
M  V30 1290 O 124.999 -1.70073 -0.972207 0
M  V30 1291 H 123.579 -0.547744 0.507923 0
M  V30 1292 H 126.241 -0.853187 1.75233 0
M  V30 1293 H 125.337 -2.35112 2.05253 0
M  V30 1294 N 125.638 -1.25649 -0.95132 0
M  V30 1295 C 126.886 -1.10375 -1.69298 0
M  V30 1296 C 127.207 0.355339 -1.91735 0
M  V30 1297 O 126.477 1.25188 -1.50681 0
M  V30 1298 H 125.057 -0.405461 -0.627384 0
M  V30 1299 H 127.719 -1.57823 -1.14358 0
M  V30 1300 H 126.815 -1.61465 -2.67087 0
M  V30 1301 N 127.117 1.15442 -1.07289 0
M  V30 1302 C 128.366 1.85557 -0.790669 0
M  V30 1303 C 128.679 1.83186 0.685739 0
M  V30 1304 O 129.885 2.48977 1.0827 0
M  V30 1305 C 128.341 3.33038 -1.36433 0
M  V30 1306 C 127.949 3.43856 -2.8717 0
M  V30 1307 C 129.693 4.0834 -1.1601 0
M  V30 1308 C 127.6 4.85482 -3.3773 0
M  V30 1309 H 126.53 0.695122 -0.292098 0
M  V30 1310 H 129.181 1.30219 -1.29287 0
M  V30 1311 H 127.563 3.88043 -0.789864 0
M  V30 1312 H 128.737 2.98961 -3.50655 0
M  V30 1313 H 127.052 2.81998 -3.06376 0
M  V30 1314 H 129.649 5.12859 -1.51262 0
M  V30 1315 H 129.992 4.16182 -0.0991007 0
M  V30 1316 H 130.525 3.59603 -1.70089 0
M  V30 1317 H 127.264 4.82823 -4.43353 0
M  V30 1318 H 126.784 5.30961 -2.78999 0
M  V30 1319 H 128.463 5.54335 -3.33648 0
M  V30 1320 N 128.595 0.856903 1.32268 0
M  V30 1321 C 129.525 0.31858 2.31316 0
M  V30 1322 C 130.506 -0.583487 1.59779 0
M  V30 1323 O 131.691 -0.503259 1.87566 0
M  V30 1324 C 128.821 -0.491979 3.43798 0
M  V30 1325 C 127.775 0.315849 4.26833 0
M  V30 1326 C 127.101 -0.619586 5.31098 0
M  V30 1327 C 128.401 1.54282 4.98993 0
M  V30 1328 H 130.095 1.14621 2.76591 0
M  V30 1329 H 127.641 0.552613 1.32974 0
M  V30 1330 H 129.594 -0.879012 4.1213 0
M  V30 1331 H 128.318 -1.35299 2.97257 0
M  V30 1332 H 126.977 0.684664 3.6015 0
M  V30 1333 H 126.625 -1.47751 4.8081 0
M  V30 1334 H 126.325 -0.0830621 5.87541 0
M  V30 1335 H 127.849 -1.00375 6.02293 0
M  V30 1336 H 129.263 1.22796 5.59995 0
M  V30 1337 H 127.66 2.01745 5.65172 0
M  V30 1338 H 128.73 2.30285 4.26728 0
M  V30 1339 N 130.073 -1.45103 0.615059 0
M  V30 1340 C 131.036 -2.29025 -0.0895485 0
M  V30 1341 C 132.036 -1.40174 -0.787906 0
M  V30 1342 O 133.226 -1.62217 -0.634933 0
M  V30 1343 C 130.358 -3.21376 -1.13711 0
M  V30 1344 H 131.551 -2.92807 0.648382 0
M  V30 1345 H 129.104 -1.51749 0.374444 0
M  V30 1346 H 129.839 -2.6241 -1.90556 0
M  V30 1347 H 129.624 -3.86834 -0.640475 0
M  V30 1348 H 131.114 -3.84459 -1.63036 0
M  V30 1349 N 131.551 -0.354651 -1.53558 0
M  V30 1350 C 132.8 0.239504 -2.00273 0
M  V30 1351 C 133.113 1.50759 -1.24623 0
M  V30 1352 O 134.319 2.17968 -1.61871 0
M  V30 1353 C 132.775 0.477341 -3.5672 0
M  V30 1354 C 132.383 -0.775488 -4.41237 0
M  V30 1355 C 134.127 1.02975 -4.11821 0
M  V30 1356 C 132.034 -0.507838 -5.89216 0
M  V30 1357 H 130.964 0.0932743 -0.748208 0
M  V30 1358 H 133.615 -0.471701 -1.77334 0
M  V30 1359 H 131.997 1.24953 -3.7577 0
M  V30 1360 H 133.171 -1.54963 -4.33962 0
M  V30 1361 H 131.486 -1.25033 -3.97185 0
M  V30 1362 H 134.083 1.24513 -5.2 0
M  V30 1363 H 134.426 1.98862 -3.65731 0
M  V30 1364 H 134.959 0.317994 -3.96527 0
M  V30 1365 H 131.698 -1.43674 -6.39561 0
M  V30 1366 H 131.218 0.228011 -5.99366 0
M  V30 1367 H 132.897 -0.129238 -6.46871 0
M  V30 1368 N 133.029 1.57378 -0.0835403 0
M  V30 1369 C 133.992 2.12252 0.864959 0
M  V30 1370 C 134.992 1.04916 1.21858 0
M  V30 1371 O 136.182 1.30853 1.14991 0
M  V30 1372 C 133.314 2.63358 2.16461 0
M  V30 1373 H 134.507 2.97371 0.388676 0
M  V30 1374 H 132.06 1.55423 0.165317 0
M  V30 1375 H 132.795 1.81727 2.686 0
M  V30 1376 H 132.58 3.41826 1.92087 0
M  V30 1377 H 134.07 3.05847 2.84337 0
M  V30 1378 N 134.507 -0.190092 1.56449 0
M  V30 1379 C 135.732 -0.929864 1.85387 0
M  V30 1380 C 136.157 -1.7585 0.667704 0
M  V30 1381 O 135.515 -1.77198 -0.383459 0
M  V30 1382 C 135.563 -1.79773 3.12593 0
M  V30 1383 O 134.667 -2.89713 2.93496 0
M  V30 1384 H 134.008 -0.261574 0.610307 0
M  V30 1385 H 136.538 -0.193896 2.03679 0
M  V30 1386 H 136.548 -2.20139 3.43515 0
M  V30 1387 H 135.223 -1.18892 3.98544 0
M  V30 1388 H 133.8 -2.53065 2.73884 0
M  V30 1389 N 135.985 -1.50799 -0.457987 0
M  V30 1390 C 136.915 -1.73553 -1.5621 0
M  V30 1391 C 137.896 -0.584774 -1.59732 0
M  V30 1392 O 139.081 -0.825314 -1.7579 0
M  V30 1393 C 136.211 -1.84169 -2.94447 0
M  V30 1394 C 135.165 -2.99461 -3.0579 0
M  V30 1395 C 134.491 -2.95235 -4.45803 0
M  V30 1396 C 135.791 -4.39766 -2.81786 0
M  V30 1397 H 137.485 -2.66 -1.37421 0
M  V30 1398 H 135.031 -1.28002 -0.659662 0
M  V30 1399 H 136.984 -1.98672 -3.71628 0
M  V30 1400 H 135.708 -0.883545 -3.14422 0
M  V30 1401 H 134.367 -2.8463 -2.31044 0
M  V30 1402 H 134.015 -1.97239 -4.62715 0
M  V30 1403 H 133.715 -3.72642 -4.54326 0
M  V30 1404 H 135.239 -3.11803 -5.24987 0
M  V30 1405 H 136.653 -4.55054 -3.4871 0
M  V30 1406 H 135.05 -5.18722 -3.0174 0
M  V30 1407 H 136.12 -4.51229 -1.7754 0
M  V30 1408 N 137.463 0.71206 -1.40597 0
M  V30 1409 C 138.712 1.46754 -1.38369 0
M  V30 1410 C 139.025 1.95598 0.0097839 0
M  V30 1411 O 140.231 2.71059 0.154677 0
M  V30 1412 C 138.687 2.65289 -2.43207 0
M  V30 1413 C 138.295 2.23301 -3.88382 0
M  V30 1414 C 140.039 3.43008 -2.50091 0
M  V30 1415 C 137.946 3.38696 -4.84808 0
M  V30 1416 H 136.876 0.55118 -0.514506 0
M  V30 1417 H 139.527 0.774616 -1.66349 0
M  V30 1418 H 137.909 3.36769 -2.08332 0
M  V30 1419 H 139.083 1.59218 -4.32419 0
M  V30 1420 H 137.398 1.58618 -3.85006 0
M  V30 1421 H 139.995 4.28881 -3.1932 0
M  V30 1422 H 140.338 3.87065 -1.53253 0
M  V30 1423 H 140.871 2.78574 -2.83974 0
M  V30 1424 H 137.61 2.99668 -5.82992 0
M  V30 1425 H 137.13 4.01683 -4.45433 0
M  V30 1426 H 138.809 4.04712 -5.04794 0
M  V30 1427 N 138.941 1.26152 0.944643 0
M  V30 1428 C 140.189 1.11271 1.6871 0
M  V30 1429 C 140.51 -0.345166 1.91921 0
M  V30 1430 O 139.78 -1.24387 1.51343 0
M  V30 1431 H 138.36 0.408783 0.625224 0
M  V30 1432 H 141.022 1.58427 1.1352 0
M  V30 1433 H 140.118 1.62879 2.66227 0
M  V30 1434 N 140.419 -1.14872 1.07899 0
M  V30 1435 C 141.665 -1.86064 0.806725 0
M  V30 1436 C 141.998 -1.82434 -0.665706 0
M  V30 1437 O 141.273 -1.25138 -1.48899 0
M  V30 1438 C 141.556 -3.34929 1.32267 0
M  V30 1439 C 141.409 -3.47161 2.86006 0
M  V30 1440 C 142.728 -4.29863 0.943717 0
M  V30 1441 H 139.847 -0.675591 0.294526 0
M  V30 1442 H 142.489 -1.34925 1.33773 0
M  V30 1443 H 140.639 -3.78611 0.870974 0
M  V30 1444 H 142.311 -3.12302 3.39507 0
M  V30 1445 H 140.554 -2.88539 3.23925 0
M  V30 1446 H 141.225 -4.51777 3.17177 0
M  V30 1447 H 143.701 -3.9417 1.33302 0
M  V30 1448 H 142.577 -5.32494 1.33198 0
M  V30 1449 H 142.838 -4.41846 -0.149796 0
M  V30 1450 N 141.898 -0.863906 -1.31812 0
M  V30 1451 C 142.808 -0.318461 -2.32428 0
M  V30 1452 C 143.824 0.568496 -1.64451 0
M  V30 1453 O 145 0.46666 -1.95919 0
M  V30 1454 C 142.065 0.476355 -3.43412 0
M  V30 1455 C 141.126 -0.43784 -4.27061 0
M  V30 1456 C 140.359 0.319138 -5.32745 0
M  V30 1457 O 140.582 1.54799 -5.48993 0
M  V30 1458 O 139.516 -0.319861 -6.01049 0
M  V30 1459 H 143.342 -1.15229 -2.80991 0
M  V30 1460 H 140.927 -0.627103 -1.35602 0
M  V30 1461 H 142.809 0.927156 -4.11074 0
M  V30 1462 H 141.484 1.28683 -2.97022 0
M  V30 1463 H 140.391 -0.937013 -3.62175 0
M  V30 1464 H 141.724 -1.21375 -4.77 0
M  V30 1465 N 143.376 1.44774 -0.622745 0
M  V30 1466 C 144.624 2.01721 -0.123655 0
M  V30 1467 C 144.945 1.49172 1.25589 0
M  V30 1468 O 144.215 0.691974 1.83272 0
M  V30 1469 H 142.795 0.745777 -0.0427225 0
M  V30 1470 H 145.457 1.77382 -0.807559 0
M  V30 1471 H 144.553 3.11984 -0.0849534 0
M  V30 1472 N 144.854 0.36279 1.53368 0
M  V30 1473 C 146.102 -0.227326 2.00817 0
M  V30 1474 C 146.423 -1.49511 1.25186 0
M  V30 1475 O 145.693 -1.92482 0.364348 0
M  V30 1476 H 144.273 -0.0869923 0.741917 0
M  V30 1477 H 146.935 0.488381 1.88682 0
M  V30 1478 H 146.031 -0.456273 3.08747 0
M  V30 1479 N 146.332 -1.57332 0.0918853 0
M  V30 1480 C 147.28 -2.15075 -0.885747 0
M  V30 1481 C 148.274 -1.09277 -1.29441 0
M  V30 1482 O 149.48 -1.27627 -1.26931 0
M  V30 1483 H 145.855 -0.687966 -0.303656 0
M  V30 1484 H 147.826 -2.96047 -0.373995 0
M  V30 1485 C 146.575 -2.74325 -2.13638 0
M  V30 1486 H 145.898 -3.55418 -1.8308 0
M  V30 1487 H 147.338 -3.183 -2.80109 0
M  V30 1488 C 145.797 -1.70062 -2.90827 0
M  V30 1489 O 146.327 -1.13763 -3.85254 0
M  V30 1490 N 144.533 -1.40628 -2.54307 0
M  V30 1491 H 144.08 -1.866 -1.7759 0
M  V30 1492 H 144.038 -0.711043 -3.06254 0
M  V30 1493 N 147.81 0.181792 -1.56548 0
M  V30 1494 C 148.773 1.20894 -1.94724 0
M  V30 1495 C 149.773 1.37738 -0.829747 0
M  V30 1496 O 150.963 1.35323 -1.09697 0
M  V30 1497 C 148.095 2.57593 -2.23291 0
M  V30 1498 H 149.288 0.882275 -2.86629 0
M  V30 1499 H 146.841 0.423838 -1.50444 0
M  V30 1500 H 147.576 2.95291 -1.34067 0
M  V30 1501 H 147.361 2.46735 -3.04736 0
M  V30 1502 H 148.851 3.31637 -2.53785 0
M  V30 1503 N 149.288 1.51039 0.449983 0
M  V30 1504 C 150.516 1.66869 1.2232 0
M  V30 1505 C 150.931 0.360727 1.85322 0
M  V30 1506 O 150.288 -0.659531 1.70166 0
M  V30 1507 C 150.339 2.77524 2.31652 0
M  V30 1508 O 150.06 4.03252 1.7123 0
M  V30 1509 C 151.561 3.04512 3.2216 0
M  V30 1510 H 148.781 0.560326 0.369155 0
M  V30 1511 H 151.325 1.97385 0.534719 0
M  V30 1512 H 149.48 2.49642 2.96239 0
M  V30 1513 H 149.894 4.64609 2.43389 0
M  V30 1514 H 151.368 3.85551 3.95038 0
M  V30 1515 H 151.845 2.16415 3.8218 0
M  V30 1516 H 152.451 3.34005 2.63288 0
M  V30 1517 N 150.766 -0.704594 1.40972 0
M  V30 1518 C 152.182 -1.01406 1.23244 0
M  V30 1519 C 152.382 -2.01169 0.115399 0
M  V30 1520 O 151.438 -2.47021 -0.523147 0
M  V30 1521 C 152.751 -1.54728 2.57836 0
M  V30 1522 C 154.299 -1.66658 2.64942 0
M  V30 1523 C 154.774 -2.23383 3.9983 0
M  V30 1524 N 156.265 -2.30756 4.01629 0
M  V30 1525 C 157 -2.75655 5.02794 0
M  V30 1526 N 156.496 -3.20225 6.14352 0
M  V30 1527 N 158.289 -2.75138 4.90159 0
M  V30 1528 H 150.44 -0.0435285 2.12355 0
M  V30 1529 H 152.703 -0.0818951 0.944456 0
M  V30 1530 H 152.409 -0.888832 3.40283 0
M  V30 1531 H 152.283 -2.53084 2.79693 0
M  V30 1532 H 154.67 -2.31617 1.8286 0
M  V30 1533 H 154.751 -0.668717 2.46904 0
M  V30 1534 H 154.395 -1.59043 4.82357 0
M  V30 1535 H 154.325 -3.23904 4.15203 0
M  V30 1536 H 156.816 -1.99291 3.21079 0
M  V30 1537 H 157.129 -3.53084 6.87424 0
M  V30 1538 H 155.474 -3.18156 6.17901 0
M  V30 1539 H 158.665 -2.39661 4.02095 0
M  V30 1540 H 158.838 -3.09812 5.6914 0
M  V30 1541 N 152.244 -1.26651 -0.937939 0
M  V30 1542 C 153.493 -1.11775 -1.67897 0
M  V30 1543 C 153.806 0.33794 -1.92659 0
M  V30 1544 O 155.012 0.607434 -2.64618 0
M  V30 1545 C 153.468 -1.9523 -3.02346 0
M  V30 1546 C 153.076 -3.45393 -2.8532 0
M  V30 1547 C 154.82 -1.88972 -3.80118 0
M  V30 1548 C 152.727 -4.21083 -4.15263 0
M  V30 1549 H 151.657 -0.414696 -0.629717 0
M  V30 1550 H 154.308 -1.50988 -1.04283 0
M  V30 1551 H 152.69 -1.48853 -3.66959 0
M  V30 1552 H 153.864 -3.99561 -2.29537 0
M  V30 1553 H 152.179 -3.52921 -2.20988 0
M  V30 1554 H 154.776 -2.42805 -4.76392 0
M  V30 1555 H 155.119 -0.86113 -4.07296 0
M  V30 1556 H 155.652 -2.33189 -3.22285 0
M  V30 1557 H 152.391 -5.24425 -3.93267 0
M  V30 1558 H 151.911 -3.71695 -4.70747 0
M  V30 1559 H 153.59 -4.29706 -4.83696 0
M  V30 1560 N 153.722 1.14298 -1.08507 0
M  V30 1561 C 154.97 1.84993 -0.813763 0
M  V30 1562 C 155.291 1.83405 0.662393 0
M  V30 1563 O 154.561 1.28319 1.48024 0
M  V30 1564 H 153.141 0.684966 -0.298045 0
M  V30 1565 H 155.803 1.385 -1.37126 0
M  V30 1566 H 154.899 2.89788 -1.15884 0
M  V30 1567 N 155.201 0.870884 1.31352 0
M  V30 1568 C 156.617 0.562932 1.49343 0
M  V30 1569 C 156.817 -0.902725 1.80148 0
M  V30 1570 O 155.873 -1.68484 1.88067 0
M  V30 1571 C 157.186 1.46393 2.62659 0
M  V30 1572 C 158.734 1.46607 2.76542 0
M  V30 1573 C 159.209 2.35266 3.92955 0
M  V30 1574 N 160.7 2.33151 4.00243 0
M  V30 1575 C 161.435 2.98471 4.89594 0
M  V30 1576 N 160.931 3.72964 5.8384 0
M  V30 1577 N 162.724 2.87775 4.82848 0
M  V30 1578 H 154.875 1.81923 1.09626 0
M  V30 1579 H 157.138 0.777934 0.541777 0
M  V30 1580 H 156.844 2.50689 2.46674 0
M  V30 1581 H 156.718 1.16314 3.58819 0
M  V30 1582 H 159.105 0.43069 2.9194 0
M  V30 1583 H 159.186 1.8071 1.81046 0
M  V30 1584 H 158.83 3.38881 3.78315 0
M  V30 1585 H 158.76 1.98487 4.87761 0
M  V30 1586 H 161.251 1.79006 3.32814 0
M  V30 1587 H 161.564 4.19932 6.4875 0
M  V30 1588 H 159.909 3.77073 5.83816 0
M  V30 1589 H 163.1 2.29116 4.08195 0
M  V30 1590 H 163.273 3.38961 5.52277 0
M  V30 1591 N 156.679 -1.44442 0.630414 0
M  V30 1592 C 157.926 -2.02052 0.134617 0
M  V30 1593 C 158.254 -1.49576 -1.24327 0
M  V30 1594 O 157.509 -0.669806 -1.83881 0
M  V30 1595 C 157.808 -3.57332 0.0697835 0
M  V30 1596 C 157.474 -4.29058 1.38635 0
M  V30 1597 C 156.136 -4.4837 1.74694 0
M  V30 1598 C 158.488 -4.69872 2.25543 0
M  V30 1599 C 155.816 -5.05756 2.97369 0
M  V30 1600 C 158.168 -5.28616 3.47487 0
M  V30 1601 C 156.832 -5.46147 3.8377 0
M  V30 1602 H 156.102 -0.739361 0.0492598 0
M  V30 1603 H 158.749 -1.73217 0.816586 0
M  V30 1604 H 157.054 -3.85577 -0.695553 0
M  V30 1605 H 158.751 -3.99637 -0.330344 0
M  V30 1606 H 155.341 -4.14357 1.09574 0
M  V30 1607 H 159.525 -4.54666 1.98979 0
M  V30 1608 H 154.781 -5.17515 3.25558 0
M  V30 1609 H 158.955 -5.59192 4.15063 0
M  V30 1610 H 156.582 -5.9038 4.7891 0
M  V30 1611 N 158.157 -0.370918 -1.53173 0
M  V30 1612 C 159.12 0.460778 -2.24521 0
M  V30 1613 C 160.12 1.00536 -1.25496 0
M  V30 1614 O 161.31 0.890266 -1.49733 0
M  V30 1615 C 158.442 1.64457 -2.98608 0
M  V30 1616 H 159.635 -0.163613 -2.99453 0
M  V30 1617 H 157.188 -0.122699 -1.55818 0
M  V30 1618 H 157.923 2.30691 -2.2793 0
M  V30 1619 H 157.708 1.26099 -3.7127 0
M  V30 1620 H 159.198 2.23384 -3.5283 0
M  V30 1621 N 159.635 1.57281 -0.100228 0
M  V30 1622 C 160.583 2.15542 0.874328 0
M  V30 1623 C 161.577 1.09962 1.28859 0
M  V30 1624 O 162.783 1.28298 1.26252 0
M  V30 1625 H 159.158 0.689567 0.300003 0
M  V30 1626 H 161.129 2.96241 0.35829 0
M  V30 1627 C 159.878 2.75454 2.1218 0
M  V30 1628 H 159.201 3.56384 1.81193 0
M  V30 1629 H 160.641 3.19781 2.78417 0
M  V30 1630 C 159.1 1.71602 2.89921 0
M  V30 1631 O 159.63 1.15804 3.84646 0
M  V30 1632 N 157.836 1.41975 2.53558 0
M  V30 1633 H 157.383 1.87539 1.76598 0
M  V30 1634 H 157.341 0.727274 3.05873 0
M  V30 1635 N 161.113 -0.173488 1.56642 0
M  V30 1636 C 162.343 -0.904781 1.85734 0
M  V30 1637 C 162.751 -1.76431 0.68328 0
M  V30 1638 O 162.094 -1.802 -0.356865 0
M  V30 1639 C 162.156 -1.83382 3.09211 0
M  V30 1640 C 161.82 -1.15411 4.42187 0
M  V30 1641 C 162.817 -0.520609 5.17287 0
M  V30 1642 C 160.502 -1.15151 4.88923 0
M  V30 1643 C 162.496 0.106412 6.37311 0
M  V30 1644 C 160.183 -0.520664 6.08878 0
M  V30 1645 C 161.181 0.107196 6.82916 0
M  V30 1646 O 160.869 0.728102 8.00596 0
M  V30 1647 H 160.601 -0.268408 0.62043 0
M  V30 1648 H 163.155 -0.179096 2.04618 0
M  V30 1649 H 161.385 -2.59976 2.86268 0
M  V30 1650 H 163.074 -2.43476 3.24768 0
M  V30 1651 H 163.84 -0.514606 4.82262 0
M  V30 1652 H 159.719 -1.62961 4.31236 0
M  V30 1653 H 163.263 0.597081 6.9504 0
M  V30 1654 H 159.16 -0.524242 6.43368 0
M  V30 1655 H 159.928 0.627138 8.16094 0
M  V30 1656 N 162.591 -1.51276 -0.441967 0
M  V30 1657 C 163.521 -1.752 -1.54361 0
M  V30 1658 C 164.502 -0.601682 -1.59103 0
M  V30 1659 O 165.687 -0.843913 -1.74905 0
M  V30 1660 C 162.817 -1.87282 -2.92477 0
M  V30 1661 C 161.771 -3.02687 -3.02596 0
M  V30 1662 C 161.097 -2.99947 -4.42647 0
M  V30 1663 C 162.397 -4.4273 -2.77106 0
M  V30 1664 H 164.091 -2.67442 -1.34592 0
M  V30 1665 H 161.637 -1.28694 -0.646048 0
M  V30 1666 H 163.59 -2.02602 -3.695 0
M  V30 1667 H 162.314 -0.916844 -3.13467 0
M  V30 1668 H 160.973 -2.87065 -2.28012 0
M  V30 1669 H 160.621 -2.02136 -4.60597 0
M  V30 1670 H 160.321 -3.77439 -4.50348 0
M  V30 1671 H 161.845 -3.17354 -5.2165 0
M  V30 1672 H 163.259 -4.58727 -3.43864 0
M  V30 1673 H 161.656 -5.21893 -2.96222 0
M  V30 1674 H 162.726 -4.53087 -1.72744 0
M  V30 1675 N 164.069 0.697108 -1.41344 0
M  V30 1676 C 165.485 1.00751 -1.2378 0
M  V30 1677 C 165.685 2.01105 -0.126066 0
M  V30 1678 O 164.741 2.47295 0.51004 0
M  V30 1679 C 166.054 1.53359 -2.58653 0
M  V30 1680 C 167.602 1.6525 -2.65822 0
M  V30 1681 C 168.077 2.2126 -4.01009 0
M  V30 1682 N 169.568 2.28622 -4.02847 0
M  V30 1683 C 170.303 2.72984 -5.04249 0
M  V30 1684 N 169.799 3.16962 -6.16041 0
M  V30 1685 N 171.592 2.72534 -4.91611 0
M  V30 1686 H 163.743 0.0322662 -2.12375 0
M  V30 1687 H 166.006 0.0768853 -0.944877 0
M  V30 1688 H 165.712 0.870773 -3.4075 0
M  V30 1689 H 165.586 2.51597 -2.81032 0
M  V30 1690 H 167.973 2.30644 -1.84086 0
M  V30 1691 H 168.054 0.655614 -2.47256 0
M  V30 1692 H 167.698 1.56482 -4.83193 0
M  V30 1693 H 167.628 3.21698 -4.16915 0
M  V30 1694 H 170.119 1.97585 -3.22131 0
M  V30 1695 H 170.432 3.49434 -6.89287 0
M  V30 1696 H 168.777 3.14875 -6.1958 0
M  V30 1697 H 171.968 2.37525 -4.0336 0
M  V30 1698 H 172.141 3.06789 -5.70775 0
M  V30 1699 N 165.547 1.27147 0.931209 0
M  V30 1700 C 166.495 1.09398 2.05268 0
M  V30 1701 C 167.489 0.0180591 1.6939 0
M  V30 1702 O 168.695 0.17551 1.79142 0
M  V30 1703 H 165.07 0.336986 0.672268 0
M  V30 1704 H 167.041 2.04416 2.17386 0
M  V30 1705 C 165.79 0.75424 3.39421 0
M  V30 1706 H 165.113 1.57404 3.67511 0
M  V30 1707 H 166.553 0.669903 4.18674 0
M  V30 1708 C 165.012 -0.541197 3.32525 0
M  V30 1709 O 165.542 -1.57664 3.69466 0
M  V30 1710 N 163.748 -0.535517 2.85623 0
M  V30 1711 H 163.295 0.307511 2.55758 0
M  V30 1712 H 163.253 -1.40236 2.81392 0
M  V30 1713 N 167.025 -1.13721 1.09112 0
M  V30 1714 C 167.955 -2.21148 0.749385 0
M  V30 1715 C 168.936 -1.6792 -0.271475 0
M  V30 1716 O 170.121 -1.93693 -0.140251 0
M  V30 1717 C 167.251 -3.46905 0.165659 0
M  V30 1718 C 166.205 -4.13203 1.11567 0
M  V30 1719 C 165.531 -5.33248 0.393809 0
M  V30 1720 C 166.831 -4.60912 2.45678 0
M  V30 1721 H 168.525 -2.4999 1.64758 0
M  V30 1722 H 166.071 -1.20156 0.793626 0
M  V30 1723 H 168.024 -4.21313 -0.085466 0
M  V30 1724 H 166.748 -3.17449 -0.767714 0
M  V30 1725 H 165.407 -3.40758 1.35202 0
M  V30 1726 H 165.055 -5.00054 -0.543599 0
M  V30 1727 H 164.755 -5.78552 1.02721 0
M  V30 1728 H 166.279 -6.10413 0.150908 0
M  V30 1729 H 167.693 -5.26759 2.26269 0
M  V30 1730 H 166.09 -5.16944 3.04776 0
M  V30 1731 H 167.16 -3.75603 3.06677 0
M  V30 1732 N 168.503 -0.877838 -1.30888 0
M  V30 1733 C 169.433 -0.35534 -2.3078 0
M  V30 1734 C 170.414 0.557994 -1.60687 0
M  V30 1735 O 171.599 0.473355 -1.88343 0
M  V30 1736 C 168.729 0.437221 -3.44537 0
M  V30 1737 C 167.683 -0.383715 -4.26276 0
M  V30 1738 C 167.009 0.535014 -5.32017 0
M  V30 1739 C 168.309 -1.62201 -4.96476 0
M  V30 1740 H 170.003 -1.19007 -2.74732 0
M  V30 1741 H 167.549 -0.573698 -1.32078 0
M  V30 1742 H 169.502 0.813334 -4.13477 0
M  V30 1743 H 168.226 1.30553 -2.99372 0
M  V30 1744 H 166.885 -0.741874 -3.59015 0
M  V30 1745 H 166.533 1.40083 -4.831 0
M  V30 1746 H 166.233 -0.0104211 -5.87599 0
M  V30 1747 H 167.757 0.907799 -6.03814 0
M  V30 1748 H 169.171 -1.31689 -5.5797 0
M  V30 1749 H 167.568 -2.10711 -5.61891 0
M  V30 1750 H 168.638 -2.37044 -4.23011 0
M  V30 1751 N 169.982 1.44106 -0.638065 0
M  V30 1752 C 171.393 1.85316 -0.226894 0
M  V30 1753 C 171.744 1.53399 1.22324 0
M  V30 1754 O 170.869 0.975463 1.93167 0
M  V30 1755 C 171.464 3.3637 -0.405013 0
M  V30 1756 C 170.023 3.76369 -0.0482902 0
M  V30 1757 C 169.17 2.67921 -0.715108 0
M  V30 1758 H 172.121 1.34474 -0.842764 0
M  V30 1759 H 172.142 3.7885 0.354 0
M  V30 1760 H 171.654 3.59569 -1.46053 0
M  V30 1761 H 169.755 3.58784 1.00522 0
M  V30 1762 H 169.868 4.76856 -0.463187 0
M  V30 1763 H 168.232 2.54259 -0.149753 0
M  V30 1764 H 169.015 2.93951 -1.77335 0
M  V30 1765 N 171.46 0.379036 1.52974 0
M  V30 1766 C 172.685 -0.209353 2.06341 0
M  V30 1767 C 173.11 -1.40583 1.24972 0
M  V30 1768 O 172.468 -1.79246 0.272155 0
M  V30 1769 C 172.516 -0.567786 3.56102 0
M  V30 1770 O 171.62 -1.66318 3.77375 0
M  V30 1771 H 170.961 -0.0272919 0.663439 0
M  V30 1772 H 173.491 0.543536 1.97248 0
M  V30 1773 H 173.501 -0.835003 3.99364 0
M  V30 1774 H 172.176 0.307013 4.14765 0
M  V30 1775 H 170.753 -1.39048 3.46006 0
M  V30 1776 N 172.938 -1.57226 0.108567 0
M  V30 1777 C 173.886 -2.16002 -0.862885 0
M  V30 1778 C 174.88 -1.10644 -1.28274 0
M  V30 1779 O 176.086 -1.28966 -1.2557 0
M  V30 1780 H 172.461 -0.691148 -0.296342 0
M  V30 1781 H 174.432 -2.96427 -0.342575 0
M  V30 1782 C 173.181 -2.76576 -2.10716 0
M  V30 1783 H 172.504 -3.5734 -1.793 0
M  V30 1784 H 173.944 -3.21253 -2.76717 0
M  V30 1785 C 172.403 -1.73137 -2.89007 0
M  V30 1786 O 172.933 -1.17842 -3.84026 0
M  V30 1787 N 171.139 -1.43317 -2.52801 0
M  V30 1788 H 170.686 -1.88473 -1.75601 0
M  V30 1789 H 170.644 -0.743485 -3.05483 0
M  V30 1790 N 174.416 0.165178 -1.56732 0
M  V30 1791 C 175.693 0.908443 -1.73224 0
M  V30 1792 C 176.073 2.0013 -0.67165 0
M  V30 1793 O 175.421 2.26353 0.31253 0
M  V30 1794 C 175.631 1.46756 -3.16644 0
M  V30 1795 C 176.979 1.93809 -3.77787 0
M  V30 1796 O 178.003 1.56537 -3.1996 0
M  V30 1797 O 176.862 2.62486 -4.79336 0
M  V30 1798 H 173.956 0.428025 -0.707618 0
M  V30 1799 H 176.502 0.152526 -1.69013 0
M  V30 1800 H 175.274 0.68129 -3.85323 0
M  V30 1801 H 174.897 2.28749 -3.25207 0
M  V30 1802 N 175.894 1.51508 0.433938 0
M  V30 1803 C 177.305 1.56784 1.01369 0
M  V30 1804 C 177.656 0.393349 1.92217 0
M  V30 1805 O 176.781 -0.489441 2.10792 0
M  V30 1806 C 177.376 2.84144 1.8452 0
M  V30 1807 C 175.935 2.9198 2.37539 0
M  V30 1808 C 175.082 2.51482 1.16843 0
M  V30 1809 H 178.033 1.57236 0.215081 0
M  V30 1810 H 178.054 2.68098 2.70007 0
M  V30 1811 H 177.566 3.69607 1.18373 0
M  V30 1812 H 175.667 2.10955 3.0713 0
M  V30 1813 H 175.78 3.95704 2.70103 0
M  V30 1814 H 174.144 2.04758 1.51481 0
M  V30 1815 H 174.927 3.39293 0.523015 0
M  V30 1816 N 177.372 -0.689602 1.41712 0
M  V30 1817 C 178.618 -1.45181 1.41599 0
M  V30 1818 C 178.951 -1.94181 0.0270081 0
M  V30 1819 O 178.226 -1.6993 -0.946265 0
M  V30 1820 C 178.509 -2.65945 2.42787 0
M  V30 1821 C 178.362 -2.22672 3.90816 0
M  V30 1822 C 179.681 -3.68149 2.41151 0
M  V30 1823 H 176.8 -0.526576 0.515642 0
M  V30 1824 H 179.442 -0.784947 1.73028 0
M  V30 1825 H 177.592 -3.2284 2.16116 0
M  V30 1826 H 179.264 -1.71058 4.28412 0
M  V30 1827 H 177.507 -1.54394 4.05395 0
M  V30 1828 H 178.178 -3.0935 4.57172 0
M  V30 1829 H 180.654 -3.2094 2.64834 0
M  V30 1830 H 179.53 -4.50248 3.13955 0
M  V30 1831 H 179.791 -4.18259 1.43221 0
M  V30 1832 N 178.85 -1.27639 -0.924453 0
M  V30 1833 C 180.096 -1.14336 -1.67497 0
M  V30 1834 C 180.429 0.309465 -1.91718 0
M  V30 1835 O 179.704 1.22608 -1.50989 0
M  V30 1836 C 179.987 -1.93096 -3.0395 0
M  V30 1837 C 179.84 -3.46381 -2.8695 0
M  V30 1838 C 181.159 -1.73798 -4.0433 0
M  V30 1839 H 178.278 -0.416728 -0.607871 0
M  V30 1840 H 180.92 -1.56832 -1.07256 0
M  V30 1841 H 179.07 -1.56982 -3.55372 0
M  V30 1842 H 180.742 -3.92343 -2.42621 0
M  V30 1843 H 178.985 -3.72557 -2.22225 0
M  V30 1844 H 179.656 -3.96735 -3.83804 0
M  V30 1845 H 182.132 -2.05293 -3.61931 0
M  V30 1846 H 181.008 -2.31294 -4.97789 0
M  V30 1847 H 181.269 -0.686725 -4.36734 0
M  V30 1848 N 180.328 1.1314 -1.09713 0
M  V30 1849 C 181.261 2.17735 -0.683137 0
M  V30 1850 C 182.239 1.59582 0.311841 0
M  V30 1851 O 183.423 1.87298 0.212514 0
M  V30 1852 C 180.55 3.38699 -0.00684324 0
M  V30 1853 C 179.596 4.1546 -0.964102 0
M  V30 1854 S 180.429 4.74733 -2.47767 0
M  V30 1855 C 181.585 5.9904 -1.81387 0
M  V30 1856 H 181.818 2.52515 -1.56918 0
M  V30 1857 H 179.351 1.24484 -0.913404 0
M  V30 1858 H 181.309 4.08765 0.377044 0
M  V30 1859 H 179.97 3.02214 0.85589 0
M  V30 1860 H 179.163 5.02093 -0.43803 0
M  V30 1861 H 178.765 3.51066 -1.28953 0
M  V30 1862 H 181.057 6.67846 -1.13967 0
M  V30 1863 H 182 6.56261 -2.65947 0
M  V30 1864 H 182.408 5.4976 -1.28155 0
M  V30 1865 N 181.806 0.884767 1.30421 0
M  V30 1866 C 182.716 0.355398 2.31892 0
M  V30 1867 C 183.732 -0.542261 1.65335 0
M  V30 1868 O 184.908 -0.435432 1.96637 0
M  V30 1869 C 181.973 -0.421661 3.44126 0
M  V30 1870 C 181.034 0.505727 4.26311 0
M  V30 1871 C 180.267 -0.234343 5.33185 0
M  V30 1872 O 180.49 -1.46045 5.51386 0
M  V30 1873 O 179.424 0.415443 6.00465 0
M  V30 1874 H 183.25 1.19685 2.79122 0
M  V30 1875 H 180.835 0.648596 1.34587 0
M  V30 1876 H 182.717 -0.861641 4.12497 0
M  V30 1877 H 181.392 -1.23942 2.99032 0
M  V30 1878 H 180.299 0.994513 3.60639 0
M  V30 1879 H 181.632 1.28948 4.75009 0
M  V30 1880 N 183.284 -1.43765 0.645699 0
M  V30 1881 C 184.217 -2.2798 -0.100072 0
M  V30 1882 C 185.195 -1.39391 -0.837194 0
M  V30 1883 O 186.379 -1.68833 -0.838306 0
M  V30 1884 C 183.506 -3.18643 -1.14823 0
M  V30 1885 C 182.552 -4.2344 -0.510009 0
M  V30 1886 S 183.385 -5.30761 0.710824 0
M  V30 1887 C 184.541 -6.24992 -0.33699 0
M  V30 1888 H 184.774 -2.90884 0.614322 0
M  V30 1889 H 182.307 -1.48166 0.434304 0
M  V30 1890 H 184.265 -3.71424 -1.74799 0
M  V30 1891 H 182.926 -2.54932 -1.8349 0
M  V30 1892 H 182.119 -4.86948 -1.29991 0
M  V30 1893 H 181.721 -3.73997 0.0154577 0
M  V30 1894 H 184.013 -6.66691 -1.20537 0
M  V30 1895 H 184.956 -7.07612 0.262879 0
M  V30 1896 H 185.364 -5.60517 -0.669425 0
M  V30 1897 N 184.763 -0.387143 -1.52771 0
M  V30 1898 C 185.726 0.436939 -2.24997 0
M  V30 1899 C 186.726 0.991991 -1.26555 0
M  V30 1900 O 187.916 0.874335 -1.50669 0
M  V30 1901 C 185.048 1.61281 -3.00335 0
M  V30 1902 H 186.241 -0.195365 -2.99263 0
M  V30 1903 H 183.794 -0.139218 -1.55679 0
M  V30 1904 H 184.529 2.2826 -2.30364 0
M  V30 1905 H 184.314 1.22154 -3.72587 0
M  V30 1906 H 185.804 2.19629 -3.5518 0
M  V30 1907 N 186.241 1.57166 -0.116904 0
M  V30 1908 C 187.466 1.999 0.55271 0
M  V30 1909 C 187.891 0.996039 1.59564 0
M  V30 1910 O 187.249 -0.032556 1.81271 0
M  V30 1911 C 187.297 3.4152 1.15742 0
M  V30 1912 O 186.401 3.44106 2.27299 0
M  V30 1913 H 185.742 0.649447 0.138258 0
M  V30 1914 H 188.272 2.03573 -0.204759 0
M  V30 1915 H 188.282 3.79684 1.49346 0
M  V30 1916 H 186.957 4.14034 0.393493 0
M  V30 1917 H 185.534 3.17759 1.9515 0
M  V30 1918 N 187.719 -0.156864 1.56817 0
M  V30 1919 C 188.666 -1.19394 1.97519 0
M  V30 1920 C 189.636 -1.4322 0.841265 0
M  V30 1921 O 190.821 -1.55719 1.10255 0
M  V30 1922 C 187.961 -2.52483 2.35258 0
M  V30 1923 C 187.074 -2.35914 3.61896 0
M  V30 1924 C 186.209 -3.61969 3.88782 0
M  V30 1925 C 185.248 -3.40395 5.08722 0
M  V30 1926 N 184.385 -4.58556 5.31668 0
M  V30 1927 H 189.225 -0.839845 2.85921 0
M  V30 1928 H 186.762 -0.403264 1.41464 0
M  V30 1929 H 188.72 -3.30071 2.55165 0
M  V30 1930 H 187.35 -2.85859 1.49949 0
M  V30 1931 H 186.402 -1.49429 3.49821 0
M  V30 1932 H 187.714 -2.15926 4.49641 0
M  V30 1933 H 186.868 -4.47989 4.09135 0
M  V30 1934 H 185.607 -3.84951 2.9944 0
M  V30 1935 H 184.612 -2.52763 4.88253 0
M  V30 1936 H 185.837 -3.18822 5.99608 0
M  V30 1937 H 183.783 -4.81729 4.45279 0
M  V30 1938 H 183.7 -4.41535 6.13664 0
M  V30 1939 H 184.968 -5.45817 5.5651 0
M  V30 1940 N 189.197 -1.51736 -0.425897 0
M  V30 1941 C 190.16 -1.73271 -1.50032 0
M  V30 1942 C 191.16 -0.602639 -1.4908 0
M  V30 1943 O 192.35 -0.87033 -1.509 0
M  V30 1944 C 189.482 -1.79969 -2.89523 0
M  V30 1945 H 190.675 -2.69172 -1.32237 0
M  V30 1946 H 188.228 -1.41899 -0.65532 0
M  V30 1947 H 188.963 -0.859241 -3.1271 0
M  V30 1948 H 188.748 -2.62109 -2.91619 0
M  V30 1949 H 190.238 -1.9843 -3.67444 0
M  V30 1950 N 190.675 0.682077 -1.42076 0
M  V30 1951 C 191.924 1.43786 -1.41451 0
M  V30 1952 C 192.237 1.95574 -0.0317074 0
M  V30 1953 O 193.443 2.71326 0.0971462 0
M  V30 1954 C 191.899 2.60071 -2.48779 0
M  V30 1955 C 191.507 2.15013 -3.93031 0
M  V30 1956 C 193.251 3.37626 -2.57311 0
M  V30 1957 C 191.158 3.28336 -4.91883 0
M  V30 1958 H 190.088 0.540143 -0.526082 0
M  V30 1959 H 192.739 0.739157 -1.67955 0
M  V30 1960 H 191.121 3.32275 -2.15429 0
M  V30 1961 H 192.295 1.5001 -4.35699 0
M  V30 1962 H 190.61 1.50416 -3.88284 0
M  V30 1963 H 193.207 4.22012 -3.28345 0
M  V30 1964 H 193.55 3.83727 -1.61429 0
M  V30 1965 H 194.083 2.72488 -2.89819 0
M  V30 1966 H 190.822 2.87234 -5.89217 0
M  V30 1967 H 190.342 3.92145 -4.53853 0
M  V30 1968 H 192.021 3.93913 -5.13265 0
M  V30 1969 N 192.153 1.28127 0.917671 0
M  V30 1970 C 193.401 1.14825 1.66312 0
M  V30 1971 C 193.722 -0.304379 1.9261 0
M  V30 1972 O 192.992 -1.21149 1.53947 0
M  V30 1973 H 191.572 0.421953 0.616413 0
M  V30 1974 H 194.234 1.608 1.10134 0
M  V30 1975 H 193.33 1.68489 2.62712 0
M  V30 1976 N 193.631 -1.12557 1.10312 0
M  V30 1977 C 195.047 -1.36036 0.834649 0
M  V30 1978 C 195.247 -1.93946 -0.546539 0
M  V30 1979 O 194.303 -2.16484 -1.29966 0
M  V30 1980 C 195.616 -2.30312 1.9333 0
M  V30 1981 C 197.164 -2.43906 1.9616 0
M  V30 1982 C 197.639 -3.41496 3.05195 0
M  V30 1983 N 199.13 -3.49053 3.04494 0
M  V30 1984 C 199.865 -4.24471 3.85502 0
M  V30 1985 N 199.361 -5.02966 4.76442 0
M  V30 1986 N 201.154 -4.19864 3.73725 0
M  V30 1987 H 193.305 -0.733246 1.99342 0
M  V30 1988 H 195.568 -0.385234 0.866198 0
M  V30 1989 H 195.274 -1.94933 2.92735 0
M  V30 1990 H 195.148 -3.30421 1.81939 0
M  V30 1991 H 197.535 -2.78567 0.973886 0
M  V30 1992 H 197.616 -1.4369 2.11629 0
M  V30 1993 H 197.26 -3.07565 4.04186 0
M  V30 1994 H 197.19 -4.41539 2.86968 0
M  V30 1995 H 199.681 -2.93053 2.38596 0
M  V30 1996 H 199.994 -5.57846 5.34815 0
M  V30 1997 H 198.339 -5.02167 4.80472 0
M  V30 1998 H 201.53 -3.57623 3.02032 0
M  V30 1999 H 201.703 -4.78386 4.37093 0
M  V30 2000 N 195.109 -0.891671 -1.2995 0
M  V30 2001 C 196.039 -0.379797 -2.30391 0
M  V30 2002 C 197.02 0.540919 -1.6127 0
M  V30 2003 O 198.205 0.453352 -1.88834 0
M  V30 2004 C 195.335 0.400654 -3.44981 0
M  V30 2005 C 194.289 -0.428905 -4.25846 0
M  V30 2006 C 193.615 0.478557 -5.32554 0
M  V30 2007 C 194.915 -1.67458 -4.94727 0
M  V30 2008 H 196.609 -1.21914 -2.73454 0
M  V30 2009 H 194.155 -0.587675 -1.31462 0
M  V30 2010 H 196.108 0.769434 -4.14316 0
M  V30 2011 H 194.832 1.27371 -3.0074 0
M  V30 2012 H 193.491 -0.779911 -3.58208 0
M  V30 2013 H 193.139 1.34951 -4.84559 0
M  V30 2014 H 192.839 -0.0727433 -5.87555 0
M  V30 2015 H 194.363 0.843705 -6.04743 0
M  V30 2016 H 195.777 -1.376 -5.56542 0
M  V30 2017 H 194.174 -2.16659 -5.59624 0
M  V30 2018 H 195.244 -2.41518 -4.20473 0
M  V30 2019 N 196.587 1.43421 -0.653314 0
M  V30 2020 C 197.55 2.29182 0.0287951 0
M  V30 2021 C 198.55 1.42213 0.750465 0
M  V30 2022 O 199.74 1.63843 0.591701 0
M  V30 2023 C 196.872 3.24278 1.05151 0
M  V30 2024 H 198.065 2.90985 -0.725786 0
M  V30 2025 H 195.618 1.50702 -0.414545 0
M  V30 2026 H 196.353 2.6737 1.83532 0
M  V30 2027 H 196.138 3.88396 0.537687 0
M  V30 2028 H 197.628 3.88647 1.52786 0
M  V30 2029 N 198.065 0.39524 1.52563 0
M  V30 2030 C 198.998 -0.4813 2.23067 0
M  V30 2031 C 199.976 -1.05927 1.23362 0
M  V30 2032 O 201.16 -1.10979 1.52368 0
M  V30 2033 C 198.287 -1.66676 2.9485 0
M  V30 2034 C 197.333 -1.21348 4.08873 0
M  V30 2035 S 198.166 -0.190102 5.35162 0
M  V30 2036 C 199.322 -1.38121 6.1047 0
M  V30 2037 H 199.555 0.117381 2.97068 0
M  V30 2038 H 197.088 0.179458 1.53354 0
M  V30 2039 H 199.046 -2.3466 3.36816 0
M  V30 2040 H 197.707 -2.23676 2.20518 0
M  V30 2041 H 196.9 -2.09877 4.58222 0
M  V30 2042 H 196.502 -0.612486 3.68951 0
M  V30 2043 H 198.794 -2.30726 6.37002 0
M  V30 2044 H 199.737 -0.928521 7.01986 0
M  V30 2045 H 200.145 -1.60071 5.41329 0
M  V30 2046 N 199.544 -1.57102 0.125237 0
M  V30 2047 C 200.507 -2.14471 -0.80838 0
M  V30 2048 C 201.507 -1.0811 -1.19033 0
M  V30 2049 O 202.697 -1.33856 -1.11482 0
M  V30 2050 C 199.829 -2.69005 -2.09402 0
M  V30 2051 H 201.022 -2.98297 -0.309696 0
M  V30 2052 H 198.575 -1.55807 -0.124051 0
M  V30 2053 H 199.31 -1.88785 -2.63687 0
M  V30 2054 H 199.095 -3.46799 -1.82957 0
M  V30 2055 H 200.585 -3.13278 -2.76128 0
M  V30 2056 N 201.022 0.148545 -1.56898 0
M  V30 2057 C 202.27 0.859717 -1.82902 0
M  V30 2058 C 202.591 1.81775 -0.70588 0
M  V30 2059 O 201.861 1.93994 0.272586 0
M  V30 2060 H 200.441 0.320469 -0.674766 0
M  V30 2061 H 203.103 0.142918 -1.94375 0
M  V30 2062 H 202.199 1.4229 -2.77777 0
M  V30 2063 N 202.5 1.5196 0.417844 0
M  V30 2064 C 203.777 1.56146 1.17803 0
M  V30 2065 C 204.157 0.337275 2.08388 0
M  V30 2066 O 203.505 -0.676447 2.18258 0
M  V30 2067 C 203.715 2.88566 1.96293 0
M  V30 2068 C 205.063 3.41244 2.52662 0
M  V30 2069 O 206.087 2.90247 2.06483 0
M  V30 2070 O 204.946 4.30273 3.36938 0
M  V30 2071 H 202.04 0.628598 0.537395 0
M  V30 2072 H 204.586 1.64283 0.425331 0
M  V30 2073 H 203.358 3.69116 1.2988 0
M  V30 2074 H 202.981 2.83681 2.78587 0
M  V30 2075 N 203.978 -0.674533 1.42435 0
M  V30 2076 C 205.206 -1.46283 1.46317 0
M  V30 2077 C 205.621 -1.88653 0.0745836 0
M  V30 2078 O 204.978 -1.58151 -0.91074 0
M  V30 2079 C 205.029 -2.71178 2.3905 0
M  V30 2080 O 204.75 -2.30586 3.72507 0
M  V30 2081 C 206.251 -3.64738 2.51955 0
M  V30 2082 H 203.471 -0.450104 0.497642 0
M  V30 2083 H 206.015 -0.828792 1.86953 0
M  V30 2084 H 204.17 -3.3077 2.01667 0
M  V30 2085 H 204.584 -3.11241 4.22172 0
M  V30 2086 H 206.058 -4.49096 3.20962 0
M  V30 2087 H 206.535 -4.10656 1.55752 0
M  V30 2088 H 207.141 -3.11038 2.90061 0
M  V30 2089 N 205.456 -1.28612 -0.910864 0
M  V30 2090 C 206.703 -1.15934 -1.66029 0
M  V30 2091 C 207.031 0.291483 -1.92303 0
M  V30 2092 O 206.286 1.22816 -1.52364 0
M  V30 2093 C 206.585 -1.90624 -3.0232 0
M  V30 2094 C 206.251 -3.40405 -2.95695 0
M  V30 2095 C 204.913 -3.81255 -2.93595 0
M  V30 2096 C 207.265 -4.359 -2.85728 0
M  V30 2097 C 204.593 -5.15936 -2.79334 0
M  V30 2098 C 206.945 -5.70657 -2.73007 0
M  V30 2099 C 205.609 -6.10779 -2.69267 0
M  V30 2100 H 204.879 -0.424234 -0.607541 0
M  V30 2101 H 207.526 -1.5942 -1.06101 0
M  V30 2102 H 205.831 -1.39696 -3.6605 0
M  V30 2103 H 207.528 -1.78228 -3.59215 0
M  V30 2104 H 204.118 -3.07927 -2.98125 0
M  V30 2105 H 208.302 -4.053 -2.86436 0
M  V30 2106 H 203.558 -5.46146 -2.74835 0
M  V30 2107 H 207.732 -6.44311 -2.64264 0
M  V30 2108 H 205.359 -7.1509 -2.57974 0
M  V30 2109 N 206.934 1.1197 -1.10907 0
M  V30 2110 C 208.162 1.87402 -0.876824 0
M  V30 2111 C 208.577 1.79894 0.573025 0
M  V30 2112 O 207.934 1.17629 1.39534 0
M  V30 2113 C 207.985 3.36428 -1.32282 0
M  V30 2114 O 207.706 3.43765 -2.71582 0
M  V30 2115 C 209.207 4.28783 -1.12518 0
M  V30 2116 H 206.427 0.592793 -0.314384 0
M  V30 2117 H 208.971 1.41649 -1.47499 0
M  V30 2118 H 207.126 3.79706 -0.768229 0
M  V30 2119 H 207.54 4.3652 -2.90776 0
M  V30 2120 H 209.014 5.31613 -1.48633 0
M  V30 2121 H 209.491 4.39153 -0.0642394 0
M  V30 2122 H 210.097 3.91291 -1.66648 0
M  V30 2123 N 208.412 0.89855 1.29475 0
M  V30 2124 C 209.375 0.380272 2.26023 0
M  V30 2125 C 210.375 -0.484891 1.53315 0
M  V30 2126 O 211.565 -0.290108 1.71767 0
M  V30 2127 C 208.697 -0.45651 3.3783 0
M  V30 2128 H 209.89 1.23295 2.73383 0
M  V30 2129 H 207.443 0.676589 1.40897 0
M  V30 2130 H 208.178 -1.32922 2.95808 0
M  V30 2131 H 207.963 0.163393 3.91759 0
M  V30 2132 H 209.453 -0.810466 4.0966 0
M  V30 2133 N 209.89 -1.43072 0.660911 0
M  V30 2134 C 210.8 -2.34585 -0.0264163 0
M  V30 2135 C 211.816 -1.54316 -0.803898 0
M  V30 2136 O 212.992 -1.86939 -0.749391 0
M  V30 2137 C 210.057 -3.32689 -0.975639 0
M  V30 2138 C 209.118 -4.2886 -0.194236 0
M  V30 2139 C 208.351 -5.22278 -1.09825 0
M  V30 2140 O 208.574 -5.20299 -2.33763 0
M  V30 2141 O 207.508 -5.99228 -0.566513 0
M  V30 2142 H 211.334 -2.94869 0.727034 0
M  V30 2143 H 208.919 -1.43342 0.42111 0
M  V30 2144 H 210.801 -3.92995 -1.52094 0
M  V30 2145 H 209.476 -2.74898 -1.70918 0
M  V30 2146 H 208.383 -3.72011 0.394835 0
M  V30 2147 H 209.716 -4.89655 0.499899 0
M  V30 2148 N 211.368 -0.403325 -1.52352 0
M  V30 2149 C 212.598 0.17376 -2.05868 0
M  V30 2150 C 213.006 1.39898 -1.27378 0
M  V30 2151 O 212.349 1.80939 -0.31729 0
M  V30 2152 C 212.411 0.594756 -3.54546 0
M  V30 2153 C 212.075 -0.518926 -4.54044 0
M  V30 2154 C 213.072 -1.3807 -5.01231 0
M  V30 2155 C 210.757 -0.689961 -4.97539 0
M  V30 2156 C 212.751 -2.39852 -5.90551 0
M  V30 2157 C 210.438 -1.71109 -5.86656 0
M  V30 2158 C 211.436 -2.56378 -6.33056 0
M  V30 2159 O 211.124 -3.56743 -7.20409 0
M  V30 2160 H 210.856 0.0264951 -0.675481 0
M  V30 2161 H 213.41 -0.571179 -1.97299 0
M  V30 2162 H 211.64 1.39189 -3.60782 0
M  V30 2163 H 213.329 1.0991 -3.90736 0
M  V30 2164 H 214.095 -1.25994 -4.68349 0
M  V30 2165 H 209.974 -0.035939 -4.60986 0
M  V30 2166 H 213.518 -3.06441 -6.26689 0
M  V30 2167 H 209.415 -1.83218 -6.18952 0
M  V30 2168 H 210.183 -3.52918 -7.38506 0
M  V30 2169 N 212.846 1.57033 -0.133567 0
M  V30 2170 C 214.092 1.95976 0.521649 0
M  V30 2171 C 214.425 1.01779 1.65393 0
M  V30 2172 O 213.7 0.0576581 1.94415 0
M  V30 2173 C 213.983 3.44738 1.04057 0
M  V30 2174 C 213.836 4.49711 -0.0892897 0
M  V30 2175 C 215.155 3.95682 1.92675 0
M  V30 2176 H 212.274 0.712579 0.188149 0
M  V30 2177 H 214.916 1.88813 -0.212076 0
M  V30 2178 H 213.066 3.50973 1.66583 0
M  V30 2179 H 214.738 4.55565 -0.725152 0
M  V30 2180 H 212.981 4.27261 -0.750378 0
M  V30 2181 H 213.652 5.51099 0.315284 0
M  V30 2182 H 216.128 3.91841 1.39998 0
M  V30 2183 H 215.004 5.00262 2.25897 0
M  V30 2184 H 215.265 3.37239 2.85872 0
M  V30 2185 N 214.325 -0.140222 1.56975 0
M  V30 2186 C 215.235 -1.19223 2.02047 0
M  V30 2187 C 216.251 -1.46612 0.937062 0
M  V30 2188 O 217.427 -1.58148 1.24704 0
M  V30 2189 C 214.492 -2.50414 2.39778 0
M  V30 2190 C 213.553 -2.30612 3.621 0
M  V30 2191 C 212.786 -3.55547 3.98023 0
M  V30 2192 O 213.009 -4.62004 3.34528 0
M  V30 2193 O 211.943 -3.47808 4.91237 0
M  V30 2194 H 215.769 -0.839559 2.91865 0
M  V30 2195 H 213.354 -0.349453 1.45256 0
M  V30 2196 H 215.236 -3.27747 2.64877 0
M  V30 2197 H 213.911 -2.85198 1.53114 0
M  V30 2198 H 212.818 -1.51207 3.4218 0
M  V30 2199 H 214.151 -2.00741 4.49404 0
M  V30 2200 N 215.803 -1.52179 -0.40978 0
M  V30 2201 C 217.05 -1.66206 -1.15679 0
M  V30 2202 C 217.378 -0.391674 -1.90516 0
M  V30 2203 O 216.633 0.62533 -1.8544 0
M  V30 2204 C 216.932 -2.83428 -2.17723 0
M  V30 2205 C 216.598 -4.21672 -1.59699 0
M  V30 2206 C 215.26 -4.59274 -1.43599 0
M  V30 2207 C 217.612 -5.07825 -1.17317 0
M  V30 2208 C 214.94 -5.80709 -0.836328 0
M  V30 2209 C 217.292 -6.29864 -0.587691 0
M  V30 2210 C 215.956 -6.66216 -0.413818 0
M  V30 2211 H 215.226 -0.608192 -0.423301 0
M  V30 2212 H 217.873 -1.86279 -0.444097 0
M  V30 2213 H 216.178 -2.57687 -2.95135 0
M  V30 2214 H 217.875 -2.91477 -2.75394 0
M  V30 2215 H 214.465 -3.9204 -1.73213 0
M  V30 2216 H 218.649 -4.79359 -1.28565 0
M  V30 2217 H 213.905 -6.07498 -0.689626 0
M  V30 2218 H 218.079 -6.95948 -0.250894 0
M  V30 2219 H 215.706 -7.60182 0.0529471 0
M  V30 2220 N 217.281 0.66697 -1.42791 0
M  V30 2221 C 218.191 1.80962 -1.49299 0
M  V30 2222 C 219.207 1.69775 -0.381108 0
M  V30 2223 O 220.383 1.91188 -0.633188 0
M  V30 2224 C 217.448 3.17156 -1.40045 0
M  V30 2225 C 216.509 3.40242 -2.6179 0
M  V30 2226 C 215.742 4.69939 -2.52969 0
M  V30 2227 O 215.965 5.48372 -1.56985 0
M  V30 2228 O 214.899 4.94441 -3.43237 0
M  V30 2229 H 218.725 1.78427 -2.45759 0
M  V30 2230 H 216.31 0.823713 -1.24641 0
M  V30 2231 H 218.192 3.98413 -1.37276 0
M  V30 2232 H 216.867 3.20312 -0.467138 0
M  V30 2233 H 215.774 2.58802 -2.70134 0
M  V30 2234 H 217.107 3.41923 -3.54047 0
M  V30 2235 N 218.759 1.29093 0.90403 0
M  V30 2236 C 220.005 1.16986 1.65656 0
M  V30 2237 C 220.338 -0.278925 1.92186 0
M  V30 2238 O 219.613 -1.2019 1.5292 0
M  V30 2239 C 219.896 1.97908 3.0084 0
M  V30 2240 C 219.749 3.50903 2.81403 0
M  V30 2241 C 221.068 1.80208 4.01513 0
M  V30 2242 H 218.187 0.426346 0.601164 0
M  V30 2243 H 220.829 1.58518 1.04747 0
M  V30 2244 H 218.979 1.62616 3.52829 0
M  V30 2245 H 220.651 3.96153 2.36348 0
M  V30 2246 H 218.894 3.76045 2.1627 0
M  V30 2247 H 219.565 4.02791 3.77443 0
M  V30 2248 H 222.041 2.11025 3.58619 0
M  V30 2249 H 220.917 2.39184 4.94047 0
M  V30 2250 H 221.178 0.756119 4.35586 0
M  V30 2251 N 220.237 -1.11381 1.11499 0
M  V30 2252 C 221.184 -2.17439 0.773887 0
M  V30 2253 C 222.154 -1.64132 -0.254899 0
M  V30 2254 O 223.339 -1.90345 -0.13168 0
M  V30 2255 C 220.479 -3.44373 0.223917 0
M  V30 2256 C 219.592 -4.1168 1.30934 0
M  V30 2257 C 218.727 -5.263 0.71984 0
M  V30 2258 C 217.766 -5.85493 1.78507 0
M  V30 2259 N 216.903 -6.91507 1.21502 0
M  V30 2260 H 221.743 -2.45962 1.68246 0
M  V30 2261 H 219.28 -1.20744 0.840191 0
M  V30 2262 H 221.238 -4.17047 -0.112921 0
M  V30 2263 H 219.868 -3.16232 -0.647851 0
M  V30 2264 H 218.92 -3.37073 1.76312 0
M  V30 2265 H 220.232 -4.51729 2.11524 0
M  V30 2266 H 219.386 -6.05785 0.333094 0
M  V30 2267 H 218.125 -4.87559 -0.117377 0
M  V30 2268 H 217.13 -5.04686 2.18111 0
M  V30 2269 H 218.355 -6.26301 2.62533 0
M  V30 2270 H 216.301 -6.54783 0.399455 0
M  V30 2271 H 216.218 -7.30214 1.95763 0
M  V30 2272 H 217.486 -7.74795 0.855181 0
M  V30 2273 N 221.715 -0.905404 -1.28997 0
M  V30 2274 C 223.131 -0.60233 -1.47798 0
M  V30 2275 C 223.331 0.854645 -1.82478 0
M  V30 2276 O 222.387 1.63439 -1.92468 0
M  V30 2277 C 223.7 -1.53306 -2.58685 0
M  V30 2278 C 225.248 -1.53887 -2.72558 0
M  V30 2279 C 225.723 -2.45602 -3.86579 0
M  V30 2280 N 227.214 -2.43681 -3.93921 0
M  V30 2281 C 227.949 -3.11347 -4.81509 0
M  V30 2282 N 227.445 -3.88313 -5.73746 0
M  V30 2283 N 229.238 -3.00476 -4.75048 0
M  V30 2284 H 221.389 -1.84765 -1.04764 0
M  V30 2285 H 223.652 -0.792025 -0.520961 0
M  V30 2286 H 223.358 -2.57141 -2.39941 0
M  V30 2287 H 223.232 -1.25787 -3.55609 0
M  V30 2288 H 225.619 -0.507941 -2.90696 0
M  V30 2289 H 225.7 -1.85447 -1.76191 0
M  V30 2290 H 225.344 -3.48792 -3.69197 0
M  V30 2291 H 225.274 -2.11349 -4.82327 0
M  V30 2292 H 227.765 -1.87767 -3.27951 0
M  V30 2293 H 228.078 -4.36985 -6.37389 0
M  V30 2294 H 226.423 -3.92419 -5.73614 0
M  V30 2295 H 229.614 -2.39858 -4.01977 0
M  V30 2296 H 229.787 -3.53485 -5.43095 0
M  V30 2297 N 223.193 1.4272 -0.668489 0
M  V30 2298 C 224.156 2.292 0.00448567 0
M  V30 2299 C 225.156 1.43001 0.735339 0
M  V30 2300 O 226.346 1.64461 0.57429 0
M  V30 2301 C 223.478 3.25375 1.01705 0
M  V30 2302 H 224.671 2.90199 -0.756608 0
M  V30 2303 H 222.224 1.50254 -0.430506 0
M  V30 2304 H 222.959 2.69301 1.80686 0
M  V30 2305 H 222.744 3.88944 0.496463 0
M  V30 2306 H 224.234 3.90245 1.48655 0
M  V30 2307 N 224.671 0.411399 1.52136 0
M  V30 2308 C 225.601 -0.404015 2.29978 0
M  V30 2309 C 226.582 -1.04412 1.34284 0
M  V30 2310 O 227.767 -1.0527 1.63192 0
M  V30 2311 C 224.897 -1.5197 3.12286 0
M  V30 2312 C 223.851 -1.00448 4.16046 0
M  V30 2313 C 223.177 -2.21393 4.86712 0
M  V30 2314 C 224.477 -0.0569336 5.22269 0
M  V30 2315 H 226.171 0.245529 2.98392 0
M  V30 2316 H 223.717 0.119525 1.43503 0
M  V30 2317 H 225.67 -2.09715 3.6551 0
M  V30 2318 H 224.394 -2.19716 2.41646 0
M  V30 2319 H 223.053 -0.449421 3.63835 0
M  V30 2320 H 222.701 -2.87699 4.12599 0
M  V30 2321 H 222.401 -1.87571 5.56858 0
M  V30 2322 H 223.925 -2.7974 5.4275 0
M  V30 2323 H 225.339 -0.54325 5.7072 0
M  V30 2324 H 223.736 0.192594 5.99791 0
M  V30 2325 H 224.806 0.887663 4.76706 0
M  V30 2326 N 226.149 -1.5696 0.141893 0
M  V30 2327 C 227.059 -2.20066 -0.812905 0
M  V30 2328 C 228.075 -1.18344 -1.27557 0
M  V30 2329 O 229.251 -1.50902 -1.33381 0
M  V30 2330 C 226.316 -2.80583 -2.03652 0
M  V30 2331 C 225.377 -3.97414 -1.62359 0
M  V30 2332 C 224.61 -4.55036 -2.78887 0
M  V30 2333 O 224.833 -4.11538 -3.94959 0
M  V30 2334 O 223.767 -5.45376 -2.54653 0
M  V30 2335 H 227.593 -3.02157 -0.305746 0
M  V30 2336 H 225.178 -1.49159 -0.0848799 0
M  V30 2337 H 227.06 -3.19067 -2.75272 0
M  V30 2338 H 225.735 -2.01508 -2.5333 0
M  V30 2339 H 224.642 -3.63656 -0.877775 0
M  V30 2340 H 225.975 -4.77994 -1.17401 0
M  V30 2341 N 227.627 0.131896 -1.57047 0
M  V30 2342 C 228.873 0.838268 -1.85323 0
M  V30 2343 C 229.228 1.78098 -0.727937 0
M  V30 2344 O 228.521 1.89645 0.27304 0
M  V30 2345 C 228.715 1.63703 -3.17704 0
M  V30 2346 C 228.544 0.773167 -4.43004 0
M  V30 2347 C 227.314 0.432956 -5.03442 0
M  V30 2348 C 229.512 0.0966216 -5.14209 0
M  V30 2349 N 227.494 -0.442924 -6.123 0
M  V30 2350 C 228.865 -0.638778 -6.16701 0
M  V30 2351 C 230.92 0.018861 -4.97896 0
M  V30 2352 C 229.623 -1.44462 -7.04644 0
M  V30 2353 C 231.649 -0.773762 -5.86316 0
M  V30 2354 C 231.011 -1.4974 -6.883 0
M  V30 2355 H 227.11 0.284086 -0.728573 0
M  V30 2356 H 229.694 0.102731 -1.94429 0
M  V30 2357 H 227.865 2.3437 -3.09718 0
M  V30 2358 H 229.597 2.28774 -3.33833 0
M  V30 2359 H 226.352 0.772237 -4.67262 0
M  V30 2360 H 226.776 -0.872332 -6.71356 0
M  V30 2361 H 231.418 0.56397 -4.19022 0
M  V30 2362 H 229.136 -2.00093 -7.82936 0
M  V30 2363 H 232.722 -0.83612 -5.75761 0
M  V30 2364 H 231.602 -2.10087 -7.55535 0
M  V30 2365 N 229.106 1.52395 0.401703 0
M  V30 2366 C 230.036 1.79231 1.49661 0
M  V30 2367 C 231.017 0.643654 1.57452 0
M  V30 2368 O 232.202 0.889989 1.72606 0
M  V30 2369 C 229.332 1.94971 2.87409 0
M  V30 2370 C 228.286 3.10604 2.94465 0
M  V30 2371 C 227.612 3.11577 4.34538 0
M  V30 2372 C 228.912 4.49921 2.6527 0
M  V30 2373 H 230.606 2.70917 1.27454 0
M  V30 2374 H 228.152 1.30362 0.6117 0
M  V30 2375 H 230.105 2.12328 3.63999 0
M  V30 2376 H 228.829 0.999632 3.10926 0
M  V30 2377 H 227.488 2.93009 2.20321 0
M  V30 2378 H 227.136 2.14277 4.55076 0
M  V30 2379 H 226.836 3.89247 4.40183 0
M  V30 2380 H 228.36 3.31073 5.13053 0
M  V30 2381 H 229.774 4.67683 3.31581 0
M  V30 2382 H 228.171 5.29564 2.82281 0
M  V30 2383 H 229.241 4.57507 1.60671 0
M  V30 2384 N 230.584 -0.659388 1.43143 0
M  V30 2385 C 231.832 -1.41654 1.44147 0
M  V30 2386 C 232.153 -1.94893 0.0645739 0
M  V30 2387 O 231.423 -1.74044 -0.899198 0
M  V30 2388 H 230.003 -0.525708 0.530697 0
M  V30 2389 H 232.665 -0.778097 1.78694 0
M  V30 2390 H 231.761 -2.26195 2.1504 0
M  V30 2391 N 232.062 -1.29571 -0.897171 0
M  V30 2392 C 233.025 -1.14913 -1.98312 0
M  V30 2393 C 234.025 -0.0838629 -1.60581 0
M  V30 2394 O 235.215 -0.331006 -1.71026 0
M  V30 2395 C 232.347 -0.757835 -3.3237 0
M  V30 2396 H 233.54 -2.11377 -2.12743 0
M  V30 2397 H 231.093 -1.12793 -1.08201 0
M  V30 2398 H 231.828 0.206837 -3.2364 0
M  V30 2399 H 231.613 -1.52755 -3.61121 0
M  V30 2400 H 233.103 -0.678408 -4.12053 0
M  V30 2401 N 233.54 1.10788 -1.12088 0
M  V30 2402 C 234.817 1.79136 -0.785476 0
M  V30 2403 C 235.197 1.98246 0.725377 0
M  V30 2404 O 234.545 1.57258 1.65778 0
M  V30 2405 C 234.755 3.12375 -1.55636 0
M  V30 2406 C 236.103 3.8731 -1.74001 0
M  V30 2407 O 237.127 3.22085 -1.52117 0
M  V30 2408 O 235.986 5.04369 -2.10415 0
M  V30 2409 H 233.08 0.776226 -0.285311 0
M  V30 2410 H 235.626 1.1747 -1.2247 0
M  V30 2411 H 234.398 2.93863 -2.5838 0
M  V30 2412 H 234.021 3.81758 -1.11114 0
M  V30 2413 N 235.018 0.912232 1.28515 0
M  V30 2414 C 236.434 0.610159 1.47476 0
M  V30 2415 C 236.634 -0.844955 1.82928 0
M  V30 2416 O 235.69 -1.62416 1.93332 0
M  V30 2417 C 237.003 1.54675 2.57868 0
M  V30 2418 C 238.551 1.55331 2.71738 0
M  V30 2419 C 239.026 2.47649 3.85272 0
M  V30 2420 N 240.517 2.45767 3.92623 0
M  V30 2421 C 241.252 3.13896 4.79851 0
M  V30 2422 N 240.748 3.9135 5.71679 0
M  V30 2423 N 242.541 3.02991 4.73448 0
M  V30 2424 H 234.692 1.85318 1.03783 0
M  V30 2425 H 236.955 0.794777 0.516753 0
M  V30 2426 H 236.661 2.5841 2.38574 0
M  V30 2427 H 236.535 1.27671 3.54937 0
M  V30 2428 H 238.922 0.52335 2.90422 0
M  V30 2429 H 239.003 1.86378 1.75205 0
M  V30 2430 H 238.647 3.50745 3.67342 0
M  V30 2431 H 238.577 2.13904 4.81199 0
M  V30 2432 H 241.068 1.89503 3.26951 0
M  V30 2433 H 241.381 4.40359 6.35062 0
M  V30 2434 H 239.726 3.95455 5.71524 0
M  V30 2435 H 242.917 2.41987 4.007 0
M  V30 2436 H 243.09 3.5636 5.41213 0
M  V30 2437 N 236.496 -1.42363 0.676048 0
M  V30 2438 C 237.444 -2.32596 -0.0131507 0
M  V30 2439 C 238.438 -1.49891 -0.789238 0
M  V30 2440 O 239.644 -1.65955 -0.697061 0
M  V30 2441 H 236.019 -0.751647 -0.0230481 0
M  V30 2442 H 237.99 -2.88421 0.765243 0
M  V30 2443 C 236.739 -3.34479 -0.949702 0
M  V30 2444 H 236.062 -3.98158 -0.361938 0
M  V30 2445 H 237.502 -4.00199 -1.4006 0
M  V30 2446 C 235.961 -2.66838 -2.05667 0
M  V30 2447 O 236.491 -2.50124 -3.14326 0
M  V30 2448 N 234.697 -2.25843 -1.82875 0
M  V30 2449 H 234.244 -2.39637 -0.945085 0
M  V30 2450 H 234.202 -1.80918 -2.5713 0
M  V30 2451 N 237.974 -0.419461 -1.51915 0
M  V30 2452 C 238.884 0.407528 -2.31033 0
M  V30 2453 C 239.9 1.04413 -1.3919 0
M  V30 2454 O 241.076 1.0434 -1.72265 0
M  V30 2455 C 238.141 1.50365 -3.12396 0
M  V30 2456 C 237.202 0.889029 -4.19994 0
M  V30 2457 C 236.435 1.93291 -4.97468 0
M  V30 2458 O 236.658 3.15259 -4.75361 0
M  V30 2459 O 235.592 1.53339 -5.8204 0
M  V30 2460 H 239.418 -0.237865 -3.02767 0
M  V30 2461 H 237.003 -0.182413 -1.48282 0
M  V30 2462 H 238.885 2.13975 -3.63032 0
M  V30 2463 H 237.56 2.13345 -2.43445 0
M  V30 2464 H 236.467 0.215353 -3.7348 0
M  V30 2465 H 237.8 0.302991 -4.91267 0
M  V30 2466 N 239.452 1.56882 -0.150215 0
M  V30 2467 C 240.7 1.9584 0.499105 0
M  V30 2468 C 241.021 1.03623 1.65188 0
M  V30 2469 O 240.291 0.0984084 1.95653 0
M  V30 2470 H 238.871 0.723119 0.187373 0
M  V30 2471 H 241.533 1.9358 -0.226466 0
M  V30 2472 H 240.629 2.99638 0.873122 0
M  V30 2473 N 240.93 -0.123565 1.57115 0
M  V30 2474 C 242.346 -0.476961 1.52306 0
M  V30 2475 C 242.546 -1.82109 0.86248 0
M  V30 2476 O 241.602 -2.48586 0.442884 0
M  V30 2477 C 242.915 -0.465661 2.97073 0
M  V30 2478 C 244.463 -0.549534 3.08138 0
M  V30 2479 C 244.938 -0.568669 4.54456 0
M  V30 2480 N 246.429 -0.630237 4.58892 0
M  V30 2481 C 247.164 -0.666415 5.69514 0
M  V30 2482 N 246.66 -0.660514 6.89644 0
M  V30 2483 N 248.453 -0.709077 5.5761 0
M  V30 2484 H 240.604 0.757198 1.98445 0
M  V30 2485 H 242.867 0.278808 0.906074 0
M  V30 2486 H 242.573 0.454232 3.48754 0
M  V30 2487 H 242.447 -1.29513 3.54269 0
M  V30 2488 H 244.834 -1.45985 2.56461 0
M  V30 2489 H 244.915 0.307532 2.53945 0
M  V30 2490 H 244.559 0.337581 5.06777 0
M  V30 2491 H 244.489 -1.44256 5.06456 0
M  V30 2492 H 246.98 -0.641146 3.72421 0
M  V30 2493 H 247.293 -0.690616 7.69708 0
M  V30 2494 H 245.638 -0.628012 6.92157 0
M  V30 2495 H 248.829 -0.711019 4.62668 0
M  V30 2496 H 249.002 -0.733804 6.43832 0
M  V30 2497 N 242.408 -1.52605 -0.393616 0
M  V30 2498 C 243.824 -1.41753 -0.733357 0
M  V30 2499 C 244.024 -0.534293 -1.94287 0
M  V30 2500 O 243.08 -0.0059787 -2.52499 0
M  V30 2501 C 244.393 -2.84531 -0.972772 0
M  V30 2502 C 245.941 -2.93978 -1.07453 0
M  V30 2503 C 246.416 -4.37756 -1.3466 0
M  V30 2504 N 247.907 -4.4106 -1.41492 0
M  V30 2505 C 248.642 -5.49387 -1.642 0
M  V30 2506 N 248.138 -6.67806 -1.8441 0
M  V30 2507 N 249.931 -5.36923 -1.66342 0
M  V30 2508 H 242.082 -2.08555 0.402328 0
M  V30 2509 H 244.345 -0.940654 0.117789 0
M  V30 2510 H 244.051 -3.51353 -0.156204 0
M  V30 2511 H 243.925 -3.26508 -1.88871 0
M  V30 2512 H 246.312 -2.27326 -1.88167 0
M  V30 2513 H 246.393 -2.55435 -0.136605 0
M  V30 2514 H 246.037 -5.04972 -0.544581 0
M  V30 2515 H 245.967 -4.73848 -2.2973 0
M  V30 2516 H 248.458 -3.55705 -1.27601 0
M  V30 2517 H 248.771 -7.46141 -2.01231 0
M  V30 2518 H 247.116 -6.70843 -1.81644 0
M  V30 2519 H 250.307 -4.43381 -1.50102 0
M  V30 2520 H 250.48 -6.21416 -1.837 0
M  V30 2521 N 243.887 0.651787 -1.4349 0
M  V30 2522 C 244.837 1.75783 -1.45205 0
M  V30 2523 C 245.821 1.57679 -0.320328 0
M  V30 2524 O 247.013 1.67767 -0.564211 0
M  V30 2525 C 244.142 3.14377 -1.3792 0
M  V30 2526 C 243.228 3.38023 -2.56127 0
M  V30 2527 N 243.619 3.32135 -3.81471 0
M  V30 2528 C 241.917 3.68747 -2.50882 0
M  V30 2529 C 242.618 3.55902 -4.60118 0
M  V30 2530 N 241.594 3.77783 -3.90872 0
M  V30 2531 H 245.396 1.69657 -2.39987 0
M  V30 2532 H 242.91 0.853508 -1.38163 0
M  V30 2533 H 244.907 3.93666 -1.37231 0
M  V30 2534 H 243.567 3.21683 -0.441596 0
M  V30 2535 H 244.578 3.11515 -4.13738 0
M  V30 2536 H 241.255 3.8316 -1.65816 0
M  V30 2537 H 242.645 3.57116 -5.69138 0
M  V30 2538 N 245.365 1.30045 0.890287 0
M  V30 2539 C 246.328 1.15963 1.977 0
M  V30 2540 C 247.328 0.0923777 1.60534 0
M  V30 2541 O 248.518 0.340071 1.70848 0
M  V30 2542 C 245.65 0.775451 3.31963 0
M  V30 2543 H 246.843 2.12502 2.11619 0
M  V30 2544 H 244.396 1.13366 1.07601 0
M  V30 2545 H 245.131 -0.189671 3.23745 0
M  V30 2546 H 244.916 1.54668 3.60306 0
M  V30 2547 H 246.406 0.700251 4.11687 0
M  V30 2548 N 246.843 -1.10192 1.12674 0
M  V30 2549 C 247.806 -2.14786 0.799979 0
M  V30 2550 C 248.806 -1.59711 -0.18685 0
M  V30 2551 O 249.996 -1.74156 0.0392558 0
M  V30 2552 C 247.128 -3.40374 0.189228 0
M  V30 2553 H 248.321 -2.45203 1.72671 0
M  V30 2554 H 245.874 -1.25597 0.930326 0
M  V30 2555 H 246.609 -3.15577 -0.747107 0
M  V30 2556 H 246.394 -3.81637 0.899766 0
M  V30 2557 H 247.884 -4.17594 -0.0228143 0
M  V30 2558 N 248.321 -0.919034 -1.28029 0
M  V30 2559 C 249.567 -0.555757 -1.95036 0
M  V30 2560 C 249.9 0.899198 -1.72128 0
M  V30 2561 O 249.175 1.64023 -1.04531 0
M  V30 2562 C 249.458 -0.872024 -3.49382 0
M  V30 2563 C 249.311 -2.3801 -3.81669 0
M  V30 2564 C 250.63 -0.37185 -4.38526 0
M  V30 2565 H 247.749 -0.203386 -0.708381 0
M  V30 2566 H 250.391 -1.14924 -1.51303 0
M  V30 2567 H 248.541 -0.366946 -3.86763 0
M  V30 2568 H 250.213 -2.9562 -3.54128 0
M  V30 2569 H 248.456 -2.83289 -3.28526 0
M  V30 2570 H 249.127 -2.55192 -4.8947 0
M  V30 2571 H 251.603 -0.804602 -4.08247 0
M  V30 2572 H 250.479 -0.622173 -5.45362 0
M  V30 2573 H 250.74 0.727934 -4.36066 0
M  V30 2574 N 249.799 1.42003 -0.683588 0
M  V30 2575 C 250.729 2.33487 -0.024866 0
M  V30 2576 C 251.71 1.51163 0.779975 0
M  V30 2577 O 252.895 1.79739 0.735362 0
M  V30 2578 C 250.025 3.3487 0.920836 0
M  V30 2579 C 248.979 4.27414 0.223958 0
M  V30 2580 C 248.305 5.19074 1.2832 0
M  V30 2581 C 249.605 5.14445 -0.90242 0
M  V30 2582 H 251.299 2.88819 -0.788921 0
M  V30 2583 H 248.845 1.38873 -0.38083 0
M  V30 2584 H 250.798 3.97787 1.39081 0
M  V30 2585 H 249.522 2.77861 1.71642 0
M  V30 2586 H 248.181 3.65904 -0.225864 0
M  V30 2587 H 247.829 4.58387 2.071 0
M  V30 2588 H 247.529 5.81822 0.821995 0
M  V30 2589 H 249.053 5.84867 1.75392 0
M  V30 2590 H 250.467 5.70998 -0.513272 0
M  V30 2591 H 248.864 5.86072 -1.28997 0
M  V30 2592 H 249.934 4.52322 -1.74737 0
M  V30 2593 N 251.277 0.427512 1.51691 0
M  V30 2594 C 252.523 -0.142439 2.02299 0
M  V30 2595 C 252.856 -1.43214 1.31162 0
M  V30 2596 O 252.131 -1.89833 0.423511 0
M  V30 2597 C 252.414 -0.371301 3.58181 0
M  V30 2598 C 252.267 0.936358 4.39946 0
M  V30 2599 C 253.586 -1.14542 4.24933 0
M  V30 2600 H 250.705 -0.0502937 0.735282 0
M  V30 2601 H 253.347 0.564584 1.81418 0
M  V30 2602 H 251.497 -0.973559 3.76104 0
M  V30 2603 H 253.169 1.57184 4.33694 0
M  V30 2604 H 251.412 1.5432 4.05423 0
M  V30 2605 H 252.083 0.730388 5.47147 0
M  V30 2606 H 254.559 -0.635362 4.11221 0
M  V30 2607 H 253.435 -1.27431 5.33903 0
M  V30 2608 H 253.696 -2.17093 3.85127 0
M  V30 2609 N 252.755 -1.56801 0.158532 0
M  V30 2610 C 253.685 -2.20347 -0.772609 0
M  V30 2611 C 254.666 -1.15518 -1.24859 0
M  V30 2612 O 255.851 -1.43902 -1.30406 0
M  V30 2613 C 252.981 -2.83417 -2.00729 0
M  V30 2614 C 251.935 -3.94174 -1.66765 0
M  V30 2615 C 251.261 -4.44233 -2.97592 0
M  V30 2616 C 252.561 -5.14392 -0.905447 0
M  V30 2617 H 254.255 -2.98413 -0.242959 0
M  V30 2618 H 251.801 -1.43537 -0.115419 0
M  V30 2619 H 253.754 -3.26543 -2.6636 0
M  V30 2620 H 252.478 -2.02701 -2.56086 0
M  V30 2621 H 251.137 -3.51684 -1.03508 0
M  V30 2622 H 250.785 -3.60325 -3.50963 0
M  V30 2623 H 250.485 -5.18945 -2.75626 0
M  V30 2624 H 252.009 -4.90037 -3.64274 0
M  V30 2625 H 253.423 -5.5429 -1.46408 0
M  V30 2626 H 251.82 -5.9494 -0.7853 0
M  V30 2627 H 252.89 -4.84795 0.100668 0
M  V30 2628 N 254.233 0.115231 -1.57178 0
M  V30 2629 C 255.649 0.468877 -1.52557 0
M  V30 2630 C 255.849 1.81649 -0.872125 0
M  V30 2631 O 254.905 2.48347 -0.45606 0
M  V30 2632 C 256.218 0.4499 -2.97315 0
M  V30 2633 C 257.766 0.533185 -3.08425 0
M  V30 2634 C 258.241 0.54456 -4.54751 0
M  V30 2635 N 259.732 0.605892 -4.5922 0
M  V30 2636 C 260.467 0.636203 -5.6986 0
M  V30 2637 N 259.963 0.623931 -6.89985 0
M  V30 2638 N 261.756 0.679496 -5.57978 0
M  V30 2639 H 253.907 -0.767712 -1.9804 0
M  V30 2640 H 256.17 -0.283609 -0.904583 0
M  V30 2641 H 255.876 -0.472721 -3.48509 0
M  V30 2642 H 255.75 1.27632 -3.5495 0
M  V30 2643 H 258.137 1.44623 -2.57232 0
M  V30 2644 H 258.218 -0.320995 -2.53778 0
M  V30 2645 H 257.862 -0.364452 -5.06591 0
M  V30 2646 H 257.792 1.41568 -5.07214 0
M  V30 2647 H 260.283 0.621386 -3.72756 0
M  V30 2648 H 260.596 0.649787 -7.70063 0
M  V30 2649 H 258.941 0.591296 -6.9248 0
M  V30 2650 H 262.132 0.686472 -4.63039 0
M  V30 2651 H 262.305 0.69965 -6.44212 0
M  V30 2652 N 255.711 1.52812 0.385517 0
M  V30 2653 C 256.621 1.80766 1.49535 0
M  V30 2654 C 257.637 0.694651 1.59532 0
M  V30 2655 O 258.813 0.982611 1.75803 0
M  V30 2656 C 255.878 1.97381 2.85029 0
M  V30 2657 C 254.939 3.21295 2.84724 0
M  V30 2658 C 254.172 3.37108 4.13756 0
M  V30 2659 O 254.395 2.5765 5.08893 0
M  V30 2660 O 253.329 4.30378 4.20783 0
M  V30 2661 H 257.155 2.75015 1.28842 0
M  V30 2662 H 254.74 1.37946 0.573697 0
M  V30 2663 H 256.622 2.09996 3.65349 0
M  V30 2664 H 255.297 1.06322 3.05741 0
M  V30 2665 H 254.204 3.1412 2.03174 0
M  V30 2666 H 255.537 4.12212 2.68965 0
M  V30 2667 N 257.189 -0.644168 1.43834 0
M  V30 2668 C 258.119 -1.76814 1.52509 0
M  V30 2669 C 259.1 -1.65823 0.379052 0
M  V30 2670 O 260.285 -1.84781 0.597466 0
M  V30 2671 C 257.415 -3.15288 1.4564 0
M  V30 2672 C 256.369 -3.41053 2.58586 0
M  V30 2673 C 255.695 -4.79421 2.36769 0
M  V30 2674 C 256.995 -3.34902 4.00797 0
M  V30 2675 H 258.689 -1.69812 2.46586 0
M  V30 2676 H 256.235 -0.815542 1.1868 0
M  V30 2677 H 258.188 -3.93681 1.50311 0
M  V30 2678 H 256.912 -3.23043 0.480725 0
M  V30 2679 H 255.571 -2.65035 2.53282 0
M  V30 2680 H 255.219 -4.83863 1.37424 0
M  V30 2681 H 254.919 -4.9762 3.12487 0
M  V30 2682 H 256.443 -5.6006 2.43238 0
M  V30 2683 H 257.857 -4.03218 4.07539 0
M  V30 2684 H 256.254 -3.64637 4.76613 0
M  V30 2685 H 257.324 -2.32928 4.25291 0
M  V30 2686 N 258.668 -1.30515 -0.883378 0
M  V30 2687 C 259.631 -1.1701 -1.97082 0
M  V30 2688 C 260.631 -0.10089 -1.60483 0
M  V30 2689 O 261.821 -0.349127 -1.70666 0
M  V30 2690 C 258.953 -0.793045 -3.31547 0
M  V30 2691 H 260.146 -2.13622 -2.10489 0
M  V30 2692 H 257.699 -1.13935 -1.06998 0
M  V30 2693 H 258.434 0.172499 -3.23841 0
M  V30 2694 H 258.219 -1.56576 -3.5948 0
M  V30 2695 H 259.709 -0.722073 -4.1131 0
M  V30 2696 N 260.146 1.09593 -1.13257 0
M  V30 2697 C 261.395 1.81105 -0.887917 0
M  V30 2698 C 261.708 1.86563 0.587672 0
M  V30 2699 O 262.914 2.54367 0.949204 0
M  V30 2700 C 261.37 3.25338 -1.53895 0
M  V30 2701 C 260.978 3.28151 -3.04994 0
M  V30 2702 C 262.722 4.01617 -1.37492 0
M  V30 2703 C 260.629 4.66897 -3.6299 0
M  V30 2704 H 259.559 0.678661 -0.328534 0
M  V30 2705 H 262.21 1.23183 -1.36008 0
M  V30 2706 H 260.592 3.8331 -0.994446 0
M  V30 2707 H 261.766 2.79953 -3.66009 0
M  V30 2708 H 260.081 2.65361 -3.20893 0
M  V30 2709 H 262.678 5.04119 -1.78235 0
M  V30 2710 H 263.021 4.15072 -0.31957 0
M  V30 2711 H 263.554 3.50082 -1.88912 0
M  V30 2712 H 260.293 4.58643 -4.68323 0
M  V30 2713 H 259.813 5.15426 -3.06752 0
M  V30 2714 H 261.492 5.3587 -3.62563 0
M  V30 2715 N 261.624 0.925811 1.2754 0
M  V30 2716 C 262.849 0.580924 1.99098 0
M  V30 2717 C 263.274 -0.833555 1.68622 0
M  V30 2718 O 262.632 -1.55903 0.925422 0
M  V30 2719 C 262.68 0.811186 3.51358 0
M  V30 2720 O 261.784 -0.124129 4.12213 0
M  V30 2721 H 261.125 0.223873 0.625122 0
M  V30 2722 H 263.655 1.24455 1.62395 0
M  V30 2723 H 263.665 0.72601 4.01489 0
M  V30 2724 H 262.34 1.84227 3.72872 0
M  V30 2725 H 260.917 0.0108006 3.72898 0
M  V30 2726 N 263.102 -1.41638 0.69111 0
M  V30 2727 C 264.348 -2.01598 0.220519 0
M  V30 2728 C 264.681 -1.54594 -1.17535 0
M  V30 2729 O 263.956 -0.755177 -1.79241 0
M  V30 2730 C 264.239 -3.59062 0.273243 0
M  V30 2731 C 264.092 -4.16203 1.70573 0
M  V30 2732 C 265.411 -4.38546 -0.369457 0
M  V30 2733 H 262.53 -0.732468 0.0816045 0
M  V30 2734 H 265.172 -1.68445 0.878986 0
M  V30 2735 H 263.322 -3.87435 -0.287411 0
M  V30 2736 H 264.994 -3.98722 2.31989 0
M  V30 2737 H 263.237 -3.71414 2.2413 0
M  V30 2738 H 263.908 -5.25358 1.69419 0
M  V30 2739 H 266.384 -4.1596 0.107977 0
M  V30 2740 H 265.26 -5.48069 -0.302002 0
M  V30 2741 H 265.521 -4.17662 -1.44951 0
M  V30 2742 N 264.58 -0.43555 -1.51462 0
M  V30 2743 C 265.991 0.0279871 -1.86679 0
M  V30 2744 C 266.342 1.42104 -1.35281 0
M  V30 2745 O 265.467 2.04667 -0.702878 0
M  V30 2746 C 266.062 0.0575626 -3.38751 0
M  V30 2747 C 264.621 0.465507 -3.7351 0
M  V30 2748 C 263.768 -0.342996 -2.75171 0
M  V30 2749 H 266.719 -0.651473 -1.44712 0
M  V30 2750 H 266.74 0.867421 -3.70481 0
M  V30 2751 H 266.252 -0.956448 -3.7613 0
M  V30 2752 H 264.353 1.48519 -3.41721 0
M  V30 2753 H 264.466 0.191546 -4.78717 0
M  V30 2754 H 262.83 0.198442 -2.53926 0
M  V30 2755 H 263.613 -1.35585 -3.15391 0
M  V30 2756 N 266.058 1.56714 -0.166846 0
M  V30 2757 C 267.286 2.0112 0.485644 0
M  V30 2758 C 267.701 1.04705 1.57106 0
M  V30 2759 O 267.058 0.0471923 1.82439 0
M  V30 2760 C 267.109 3.45361 1.06808 0
M  V30 2761 O 266.83 4.38092 0.0259995 0
M  V30 2762 C 268.331 4.05145 1.79924 0
M  V30 2763 H 265.551 0.65931 0.124704 0
M  V30 2764 H 268.095 2.02746 -0.267262 0
M  V30 2765 H 266.25 3.44524 1.7715 0
M  V30 2766 H 266.664 5.22519 0.455398 0
M  V30 2767 H 268.138 5.08009 2.15942 0
M  V30 2768 H 268.615 3.46982 2.69258 0
M  V30 2769 H 269.221 4.09672 1.14234 0
M  V30 2770 N 267.536 -0.106894 1.57237 0
M  V30 2771 C 268.783 -0.812526 1.85484 0
M  V30 2772 C 269.111 -1.79304 0.753687 0
M  V30 2773 O 268.366 -1.94047 -0.253853 0
M  V30 2774 C 268.665 -1.58628 3.20268 0
M  V30 2775 C 268.331 -0.748967 4.44636 0
M  V30 2776 C 266.993 -0.518104 4.78403 0
M  V30 2777 C 269.345 -0.166122 5.20935 0
M  V30 2778 C 266.673 0.305659 5.85903 0
M  V30 2779 C 269.025 0.644899 6.29304 0
M  V30 2780 C 267.689 0.885965 6.61594 0
M  V30 2781 H 266.959 -0.297324 0.678734 0
M  V30 2782 H 269.606 -0.0744332 1.91355 0
M  V30 2783 H 267.911 -2.39562 3.10028 0
M  V30 2784 H 269.608 -2.13643 3.39349 0
M  V30 2785 H 266.198 -0.939006 4.18187 0
M  V30 2786 H 270.382 -0.33167 4.95191 0
M  V30 2787 H 265.638 0.501528 6.0934 0
M  V30 2788 H 269.812 1.10345 6.87602 0
M  V30 2789 H 267.439 1.52609 7.44725 0
M  V30 2790 N 269.014 -1.53014 -0.377408 0
M  V30 2791 C 270.261 -1.68623 -1.12128 0
M  V30 2792 C 270.589 -0.431997 -1.89642 0
M  V30 2793 O 269.844 0.585855 -1.86725 0
M  V30 2794 C 270.143 -2.87982 -2.11663 0
M  V30 2795 C 269.809 -4.24964 -1.50719 0
M  V30 2796 C 268.471 -4.62217 -1.33825 0
M  V30 2797 C 270.823 -5.10199 -1.06519 0
M  V30 2798 C 268.151 -5.82352 -0.712963 0
M  V30 2799 C 270.503 -6.30969 -0.453955 0
M  V30 2800 C 269.167 -6.66944 -0.272411 0
M  V30 2801 H 268.437 -0.617034 -0.410305 0
M  V30 2802 H 271.084 -1.8718 -0.404484 0
M  V30 2803 H 269.389 -2.63889 -2.89603 0
M  V30 2804 H 271.086 -2.97253 -2.6915 0
M  V30 2805 H 267.676 -3.95626 -1.64858 0
M  V30 2806 H 271.86 -4.81978 -1.18368 0
M  V30 2807 H 267.116 -6.08824 -0.560611 0
M  V30 2808 H 271.29 -6.96324 -0.103217 0
M  V30 2809 H 268.917 -7.59898 0.214181 0
M  V30 2810 N 270.492 0.636531 -1.44174 0
M  V30 2811 C 271.739 1.39619 -1.46672 0
M  V30 2812 C 272.067 1.94257 -0.0972691 0
M  V30 2813 O 271.322 1.73768 0.900175 0
M  V30 2814 C 271.621 2.58309 -2.47005 0
M  V30 2815 C 271.287 2.21992 -3.92467 0
M  V30 2816 C 269.949 2.118 -4.32081 0
M  V30 2817 C 272.301 1.9321 -4.84065 0
M  V30 2818 C 269.629 1.71007 -5.61225 0
M  V30 2819 C 271.981 1.53911 -6.13591 0
M  V30 2820 C 270.645 1.42257 -6.52165 0
M  V30 2821 H 269.915 0.510902 -0.536712 0
M  V30 2822 H 272.562 0.722328 -1.77355 0
M  V30 2823 H 270.867 3.30903 -2.09786 0
M  V30 2824 H 272.564 3.16533 -2.46186 0
M  V30 2825 H 269.154 2.30841 -3.61124 0
M  V30 2826 H 273.338 1.99997 -4.54219 0
M  V30 2827 H 268.594 1.60583 -5.89935 0
M  V30 2828 H 272.768 1.30677 -6.8403 0
M  V30 2829 H 270.395 1.10419 -7.52138 0
M  V30 2830 N 271.97 1.30982 0.876444 0
M  V30 2831 C 272.902 1.13902 1.98894 0
M  V30 2832 C 273.915 0.0798815 1.62604 0
M  V30 2833 O 275.104 0.326743 1.75484 0
M  V30 2834 C 272.204 0.716699 3.31235 0
M  V30 2835 C 271.377 1.85945 3.95908 0
M  V30 2836 C 270.436 1.42426 5.06558 0
M  V30 2837 O 269.462 2.13287 5.27729 0
M  V30 2838 N 270.664 0.308025 5.79682 0
M  V30 2839 H 273.429 2.09724 2.14094 0
M  V30 2840 H 270.99 1.2323 1.05004 0
M  V30 2841 H 272.982 0.408403 4.02634 0
M  V30 2842 H 271.552 -0.149719 3.12241 0
M  V30 2843 H 270.772 2.33541 3.17573 0
M  V30 2844 H 272.06 2.62503 4.35855 0
M  V30 2845 H 271.458 -0.282241 5.64995 0
M  V30 2846 H 270.015 0.0592282 6.51773 0
M  V30 2847 N 273.449 -1.08991 1.13837 0
M  V30 2848 C 274.381 -2.15606 0.777612 0
M  V30 2849 C 275.394 -1.61533 -0.202739 0
M  V30 2850 O 276.583 -1.78491 0.0181055 0
M  V30 2851 C 273.683 -3.3864 0.132623 0
M  V30 2852 C 272.856 -4.22115 1.1462 0
M  V30 2853 C 271.915 -5.23564 0.526074 0
M  V30 2854 O 270.941 -5.56678 1.18735 0
M  V30 2855 N 272.143 -5.76266 -0.699866 0
M  V30 2856 H 274.908 -2.47159 1.69506 0
M  V30 2857 H 272.469 -1.24747 1.03198 0
M  V30 2858 H 274.461 -4.03626 -0.29459 0
M  V30 2859 H 273.031 -3.04938 -0.687849 0
M  V30 2860 H 272.251 -3.53199 1.75055 0
M  V30 2861 H 273.539 -4.74709 1.83109 0
M  V30 2862 H 272.937 -5.51585 -1.25581 0
M  V30 2863 H 271.494 -6.42963 -1.06968 0
M  V30 2864 N 274.927 -0.932562 -1.27047 0
M  V30 2865 C 276.173 -0.576412 -1.94436 0
M  V30 2866 C 276.506 0.880891 -1.73072 0
M  V30 2867 O 275.781 1.62905 -1.06264 0
M  V30 2868 C 276.064 -0.909031 -3.48437 0
M  V30 2869 C 275.917 -2.42044 -3.79123 0
M  V30 2870 C 277.236 -0.418341 -4.38107 0
M  V30 2871 H 274.355 -0.210888 -0.706184 0
M  V30 2872 H 276.997 -1.16522 -1.50075 0
M  V30 2873 H 275.147 -0.407947 -3.86352 0
M  V30 2874 H 276.819 -2.99359 -3.50973 0
M  V30 2875 H 275.062 -2.86758 -3.25503 0
M  V30 2876 H 275.733 -2.6037 -4.86736 0
M  V30 2877 H 278.209 -0.847856 -4.0737 0
M  V30 2878 H 277.085 -0.679981 -5.44672 0
M  V30 2879 H 277.346 0.681642 -4.36814 0
M  V30 2880 N 276.405 1.4127 -0.698611 0
M  V30 2881 C 277.337 2.292 0.00399731 0
M  V30 2882 C 278.35 1.44944 0.741279 0
M  V30 2883 O 279.539 1.68416 0.591477 0
M  V30 2884 C 276.639 3.22875 1.02979 0
M  V30 2885 C 275.812 4.35904 0.36151 0
M  V30 2886 C 274.871 5.10134 1.29033 0
M  V30 2887 O 273.897 5.63809 0.781562 0
M  V30 2888 N 275.099 5.17885 2.6225 0
M  V30 2889 H 277.864 2.9014 -0.750921 0
M  V30 2890 H 275.425 1.52455 -0.544882 0
M  V30 2891 H 277.417 3.69404 1.65296 0
M  V30 2892 H 275.987 2.63221 1.68622 0
M  V30 2893 H 275.207 3.91719 -0.441584 0
M  V30 2894 H 276.495 5.08696 -0.103055 0
M  V30 2895 H 275.893 4.7573 3.061 0
M  V30 2896 H 274.45 5.6798 3.19754 0
M  V30 2897 N 277.883 0.443576 1.51229 0
M  V30 2898 C 279.294 -0.0180867 1.86691 0
M  V30 2899 C 279.645 -1.41384 1.36033 0
M  V30 2900 O 278.77 -2.04291 0.713722 0
M  V30 2901 C 279.365 -0.039597 3.38777 0
M  V30 2902 C 277.924 -0.445692 3.73752 0
M  V30 2903 C 277.071 0.357584 2.74985 0
M  V30 2904 H 280.022 0.659138 1.44364 0
M  V30 2905 H 280.043 -0.847761 3.70936 0
M  V30 2906 H 279.555 0.976382 3.75617 0
M  V30 2907 H 277.656 -1.46704 3.42503 0
M  V30 2908 H 277.769 -0.166155 4.78812 0
M  V30 2909 H 276.133 -0.184973 2.54027 0
M  V30 2910 H 276.916 1.37256 3.14668 0
M  V30 2911 N 279.361 -1.56624 0.175154 0
M  V30 2912 C 280.608 -1.96999 -0.468811 0
M  V30 2913 C 280.936 -1.06129 -1.62994 0
M  V30 2914 O 280.191 -0.0961771 -1.95464 0
M  V30 2915 C 280.49 -3.43419 -0.989864 0
M  V30 2916 C 280.156 -4.50866 0.0557687 0
M  V30 2917 C 278.818 -4.79975 0.343134 0
M  V30 2918 C 281.17 -5.15551 0.765308 0
M  V30 2919 C 278.498 -5.71066 1.34536 0
M  V30 2920 C 280.85 -6.07724 1.75654 0
M  V30 2921 C 279.514 -6.35199 2.05132 0
M  V30 2922 H 278.784 -0.720869 -0.17155 0
M  V30 2923 H 281.431 -1.89616 0.267924 0
M  V30 2924 H 279.736 -3.47772 -1.80449 0
M  V30 2925 H 281.433 -3.72002 -1.49719 0
M  V30 2926 H 278.023 -4.28229 -0.178381 0
M  V30 2927 H 282.207 -4.9317 0.556513 0
M  V30 2928 H 277.463 -5.90635 1.57988 0
M  V30 2929 H 281.637 -6.56912 2.31169 0
M  V30 2930 H 279.264 -7.05584 2.8294 0
M  V30 2931 N 280.839 0.0985539 -1.57292 0
M  V30 2932 C 282.086 0.802678 -1.85912 0
M  V30 2933 C 282.414 1.78901 -0.763186 0
M  V30 2934 O 281.669 1.94178 0.243559 0
M  V30 2935 C 281.968 1.56927 -3.21105 0
M  V30 2936 C 281.634 0.725376 -4.45027 0
M  V30 2937 C 280.296 0.492726 -4.78671 0
M  V30 2938 C 282.648 0.138493 -5.21016 0
M  V30 2939 C 279.976 -0.336727 -5.85733 0
M  V30 2940 C 282.328 -0.678264 -6.28953 0
M  V30 2941 C 280.992 -0.921039 -6.61115 0
M  V30 2942 H 280.262 0.293721 -0.680301 0
M  V30 2943 H 282.909 0.0642841 -1.91392 0
M  V30 2944 H 281.214 2.37914 -3.11294 0
M  V30 2945 H 282.911 2.11841 -3.40477 0
M  V30 2946 H 279.501 0.916815 -4.18679 0
M  V30 2947 H 283.685 0.305404 -4.95359 0
M  V30 2948 H 278.941 -0.533836 -6.09065 0
M  V30 2949 H 283.115 -1.1399 -6.87007 0
M  V30 2950 H 280.742 -1.56556 -7.43905 0
M  V30 2951 N 282.317 1.53212 0.369288 0
M  V30 2952 C 283.594 1.59815 1.12776 0
M  V30 2953 C 283.974 0.403402 2.0721 0
M  V30 2954 O 283.322 -0.606667 2.20299 0
M  V30 2955 C 283.532 2.94664 1.87013 0
M  V30 2956 C 284.88 3.49109 2.41677 0
M  V30 2957 O 285.904 2.96669 1.97144 0
M  V30 2958 O 284.763 4.40775 3.23079 0
M  V30 2959 H 281.857 0.645376 0.517125 0
M  V30 2960 H 284.403 1.65553 0.37285 0
M  V30 2961 H 283.175 3.73061 1.18071 0
M  V30 2962 H 282.798 2.92401 2.69421 0
M  V30 2963 N 283.795 -0.628877 1.44509 0
M  V30 2964 C 284.743 -1.76193 1.51852 0
M  V30 2965 C 285.737 -1.64849 0.390042 0
M  V30 2966 O 286.943 -1.709 0.565082 0
M  V30 2967 H 283.318 -0.581728 0.476547 0
M  V30 2968 H 285.289 -1.67123 2.47209 0
M  V30 2969 C 284.038 -3.14533 1.48204 0
M  V30 2970 H 283.361 -3.23911 2.34354 0
M  V30 2971 H 284.801 -3.93701 1.57402 0
M  V30 2972 C 283.26 -3.36287 0.203142 0
M  V30 2973 O 283.79 -3.9509 -0.725745 0
M  V30 2974 N 281.996 -2.90408 0.105563 0
M  V30 2975 H 281.543 -2.42739 0.862301 0
M  V30 2976 H 281.501 -3.05339 -0.749371 0
M  V30 2977 N 285.273 -1.31445 -0.869486 0
M  V30 2978 C 286.522 -1.20517 -1.61736 0
M  V30 2979 C 286.835 0.235341 -1.94179 0
M  V30 2980 O 288.041 0.466312 -2.67465 0
M  V30 2981 C 286.497 -2.10982 -2.91573 0
M  V30 2982 C 286.105 -3.60032 -2.66611 0
M  V30 2983 C 287.849 -2.08856 -3.69567 0
M  V30 2984 C 285.756 -4.42503 -3.92358 0
M  V30 2985 H 284.686 -0.447493 -0.606849 0
M  V30 2986 H 287.337 -1.56303 -0.96133 0
M  V30 2987 H 285.719 -1.68095 -3.58553 0
M  V30 2988 H 286.893 -4.11167 -2.08035 0
M  V30 2989 H 285.208 -3.64139 -2.0197 0
M  V30 2990 H 287.805 -2.67716 -4.62852 0
M  V30 2991 H 288.148 -1.07582 -4.02159 0
M  V30 2992 H 288.681 -2.49945 -3.09471 0
M  V30 2993 H 285.42 -5.44533 -3.64916 0
M  V30 2994 H 284.94 -3.96125 -4.50383 0
M  V30 2995 H 286.619 -4.54741 -4.60238 0
M  V30 2996 N 286.751 1.08385 -1.14413 0
M  V30 2997 C 287.998 1.80776 -0.912482 0
M  V30 2998 C 288.326 1.86236 0.560934 0
M  V30 2999 O 287.581 1.33431 1.43159 0
M  V30 3000 C 287.88 3.26273 -1.45879 0
M  V30 3001 C 287.546 3.4093 -2.95089 0
M  V30 3002 C 286.208 3.44638 -3.35824 0
M  V30 3003 C 288.56 3.44591 -3.91033 0
M  V30 3004 C 285.888 3.49597 -4.71167 0
M  V30 3005 C 288.24 3.51086 -5.26233 0
M  V30 3006 C 286.904 3.53067 -5.6648 0
M  V30 3007 H 286.174 0.661507 -0.333901 0
M  V30 3008 H 288.821 1.27613 -1.42784 0
M  V30 3009 H 287.126 3.82146 -0.864376 0
M  V30 3010 H 288.823 3.80839 -1.2555 0
M  V30 3011 H 285.413 3.38736 -2.62594 0
M  V30 3012 H 289.597 3.40957 -3.60641 0
M  V30 3013 H 284.853 3.49424 -5.0171 0
M  V30 3014 H 289.027 3.52864 -6.00383 0
M  V30 3015 H 286.654 3.56662 -6.71339 0
M  V30 3016 N 288.23 0.939286 1.26551 0
M  V30 3017 C 289.476 0.586715 1.94128 0
M  V30 3018 C 289.809 -0.8717 1.73537 0
M  V30 3019 O 289.084 -1.62339 1.07127 0
M  V30 3020 C 289.367 0.927497 3.4795 0
M  V30 3021 C 289.22 2.44052 3.77834 0
M  V30 3022 C 290.539 0.441569 4.37879 0
M  V30 3023 H 287.658 0.21463 0.705055 0
M  V30 3024 H 290.3 1.17316 1.49455 0
M  V30 3025 H 288.45 0.428431 3.8613 0
M  V30 3026 H 290.122 3.01216 3.4938 0
M  V30 3027 H 288.365 2.8848 3.23978 0
M  V30 3028 H 289.036 2.62947 4.85348 0
M  V30 3029 H 291.512 0.869448 4.06915 0
M  V30 3030 H 290.388 0.708856 5.44304 0
M  V30 3031 H 290.649 -0.658467 4.37169 0
M  V30 3032 N 289.708 -1.40897 0.706093 0
M  V30 3033 C 290.671 -2.29131 0.0562841 0
M  V30 3034 C 291.671 -1.44901 -0.697166 0
M  V30 3035 O 292.861 -1.65926 -0.530484 0
M  V30 3036 C 289.993 -3.27957 -0.93043 0
M  V30 3037 H 291.186 -2.88091 0.833284 0
M  V30 3038 H 288.739 -1.4906 0.470192 0
M  V30 3039 H 289.474 -2.73997 -1.73482 0
M  V30 3040 H 289.259 -3.90124 -0.393166 0
M  V30 3041 H 290.749 -3.94049 -1.38256 0
M  V30 3042 N 291.186 -0.45159 -1.50991 0
M  V30 3043 C 292.432 0.110237 -2.025 0
M  V30 3044 C 292.765 1.41109 -1.33424 0
M  V30 3045 O 292.04 1.89135 -0.453659 0
M  V30 3046 C 292.323 0.314271 -3.58726 0
M  V30 3047 C 292.176 -1.00623 -4.38401 0
M  V30 3048 C 293.495 1.07767 -4.26702 0
M  V30 3049 H 290.614 0.0385897 -0.735989 0
M  V30 3050 H 293.256 -0.593374 -1.80497 0
M  V30 3051 H 291.406 0.913601 -3.77605 0
M  V30 3052 H 293.078 -1.64064 -4.31139 0
M  V30 3053 H 291.321 -1.6075 -4.02917 0
M  V30 3054 H 291.992 -0.817341 -5.45915 0
M  V30 3055 H 294.468 0.56986 -4.12179 0
M  V30 3056 H 293.344 1.18921 -5.35863 0
M  V30 3057 H 293.605 2.10939 -3.88532 0
M  V30 3058 N 292.664 1.56529 -0.183458 0
M  V30 3059 C 293.91 1.98304 0.452466 0
M  V30 3060 C 294.265 1.06799 1.60037 0
M  V30 3061 O 293.558 0.110049 1.91284 0
M  V30 3062 C 293.752 3.43939 0.971637 0
M  V30 3063 C 293.581 4.49528 -0.124425 0
M  V30 3064 C 292.351 5.01981 -0.578168 0
M  V30 3065 C 294.549 5.05836 -0.929207 0
M  V30 3066 N 292.531 5.91219 -1.65327 0
M  V30 3067 C 293.902 5.91632 -1.85396 0
M  V30 3068 C 295.957 4.88302 -0.972929 0
M  V30 3069 C 294.66 6.61768 -2.81878 0
M  V30 3070 C 296.686 5.59168 -1.92574 0
M  V30 3071 C 296.048 6.44701 -2.83795 0
M  V30 3072 H 292.147 0.770551 0.133324 0
M  V30 3073 H 294.731 1.92581 -0.286473 0
M  V30 3074 H 292.902 3.50184 1.68006 0
M  V30 3075 H 294.634 3.72702 1.5772 0
M  V30 3076 H 291.389 4.73282 -0.173639 0
M  V30 3077 H 291.813 6.40543 -2.19167 0
M  V30 3078 H 296.455 4.21861 -0.28168 0
M  V30 3079 H 294.173 7.27415 -3.51984 0
M  V30 3080 H 297.759 5.47582 -1.96583 0
M  V30 3081 H 296.639 6.98573 -3.56322 0
M  V30 3082 N 294.142 -0.090211 1.57342 0
M  V30 3083 C 295.419 -0.824761 1.77361 0
M  V30 3084 C 295.799 -1.96698 0.76637 0
M  V30 3085 O 295.147 -2.27586 -0.204179 0
M  V30 3086 C 295.357 -1.31481 3.23286 0
M  V30 3087 C 296.705 -1.75563 3.86604 0
M  V30 3088 O 297.729 -1.41093 3.27065 0
M  V30 3089 O 296.588 -2.39317 4.91314 0
M  V30 3090 H 293.682 -0.393776 0.727234 0
M  V30 3091 H 296.228 -0.0717138 1.69548 0
M  V30 3092 H 295 -0.496671 3.88135 0
M  V30 3093 H 294.623 -2.12973 3.35751 0
M  V30 3094 N 295.62 -1.53406 -0.361157 0
M  V30 3095 C 297.031 -1.61442 -0.937728 0
M  V30 3096 C 297.382 -0.48461 -1.90121 0
M  V30 3097 O 296.507 0.388312 -2.12888 0
M  V30 3098 C 297.102 -2.92624 -1.70753 0
M  V30 3099 C 295.661 -3.02981 -2.23337 0
M  V30 3100 C 294.808 -2.5677 -1.04712 0
M  V30 3101 H 297.759 -1.58083 -0.139816 0
M  V30 3102 H 297.78 -2.80675 -2.56908 0
M  V30 3103 H 297.292 -3.74834 -1.00604 0
M  V30 3104 H 295.393 -2.25368 -2.96715 0
M  V30 3105 H 295.506 -4.0814 -2.50916 0
M  V30 3106 H 293.87 -2.11752 -1.41539 0
M  V30 3107 H 294.653 -3.41402 -0.360539 0
M  V30 3108 N 297.098 0.621204 -1.44841 0
M  V30 3109 C 298.045 1.73267 -1.5247 0
M  V30 3110 C 299.015 1.6189 -0.371611 0
M  V30 3111 O 300.2 1.81668 -0.58321 0
M  V30 3112 C 297.34 3.11545 -1.48438 0
M  V30 3113 C 296.453 3.33827 -2.74196 0
M  V30 3114 C 295.588 4.62133 -2.61929 0
M  V30 3115 C 294.627 4.77627 -3.82804 0
M  V30 3116 N 293.764 5.97219 -3.69153 0
M  V30 3117 H 298.604 1.66082 -2.47428 0
M  V30 3118 H 296.141 0.810026 -1.22788 0
M  V30 3119 H 298.099 3.91528 -1.4409 0
M  V30 3120 H 296.729 3.1772 -0.570402 0
M  V30 3121 H 295.781 2.47715 -2.88689 0
M  V30 3122 H 297.093 3.41153 -3.6389 0
M  V30 3123 H 296.247 5.50291 -2.5547 0
M  V30 3124 H 294.986 4.57182 -1.69811 0
M  V30 3125 H 293.991 3.87896 -3.89637 0
M  V30 3126 H 295.216 4.84385 -4.75971 0
M  V30 3127 H 293.162 5.93339 -2.79794 0
M  V30 3128 H 293.079 6.05644 -4.52472 0
M  V30 3129 H 294.347 6.87912 -3.66603 0
M  V30 3130 N 298.576 1.31904 0.862503 0
M  V30 3131 C 299.508 1.16005 1.97675 0
M  V30 3132 C 300.521 0.0971234 1.6251 0
M  V30 3133 O 301.71 0.345337 1.75128 0
M  V30 3134 C 298.81 0.751791 3.30456 0
M  V30 3135 C 297.983 1.90133 3.93914 0
M  V30 3136 C 297.042 1.4779 5.05019 0
M  V30 3137 O 296.068 2.18872 5.25437 0
M  V30 3138 N 297.27 0.369491 5.79323 0
M  V30 3139 H 300.035 2.11982 2.11857 0
M  V30 3140 H 297.596 1.24337 1.03691 0
M  V30 3141 H 299.588 0.451084 4.02178 0
M  V30 3142 H 298.158 -0.116593 3.12382 0
M  V30 3143 H 297.378 2.36896 3.15078 0
M  V30 3144 H 298.666 2.67111 4.33047 0
M  V30 3145 H 298.064 -0.222299 5.65263 0
M  V30 3146 H 296.621 0.128354 6.51674 0
M  V30 3147 N 300.054 -1.07777 1.14986 0
M  V30 3148 C 301.017 -2.13041 0.845358 0
M  V30 3149 C 302.017 -1.60071 -0.152931 0
M  V30 3150 O 303.207 -1.74033 0.0761879 0
M  V30 3151 C 300.339 -3.39896 0.261383 0
M  V30 3152 H 301.532 -2.41485 1.77834 0
M  V30 3153 H 299.085 -1.23595 0.956757 0
M  V30 3154 H 299.82 -3.17091 -0.68 0
M  V30 3155 H 299.605 -3.79642 0.980514 0
M  V30 3156 H 301.095 -4.17548 0.0657687 0
M  V30 3157 N 301.532 -0.945985 -1.26051 0
M  V30 3158 C 302.781 -0.591836 -1.92822 0
M  V30 3159 C 303.094 0.873956 -1.7499 0
M  V30 3160 O 304.3 1.33769 -2.36259 0
M  V30 3161 C 302.756 -1.00776 -3.45503 0
M  V30 3162 C 302.364 -2.4955 -3.7206 0
M  V30 3163 C 304.108 -0.725735 -4.1825 0
M  V30 3164 C 302.015 -2.84988 -5.18205 0
M  V30 3165 H 300.945 -0.217635 -0.721908 0
M  V30 3166 H 303.596 -1.14927 -1.43052 0
M  V30 3167 H 301.978 -0.378812 -3.94184 0
M  V30 3168 H 303.152 -3.1739 -3.34066 0
M  V30 3169 H 301.467 -2.75133 -3.12555 0
M  V30 3170 H 304.064 -0.966771 -5.25887 0
M  V30 3171 H 304.407 0.337639 -4.14929 0
M  V30 3172 H 304.94 -1.31463 -3.7545 0
M  V30 3173 H 301.679 -3.90307 -5.26631 0
M  V30 3174 H 301.199 -2.21813 -5.57278 0
M  V30 3175 H 302.878 -2.73712 -5.86252 0
M  V30 3176 N 303.011 1.40521 -0.713556 0
M  V30 3177 C 304.427 1.54839 -0.386907 0
M  V30 3178 C 304.627 1.68532 1.1045 0
M  V30 3179 O 303.683 1.67377 1.89053 0
M  V30 3180 C 304.996 2.77792 -1.15118 0
M  V30 3181 C 306.544 2.91607 -1.13729 0
M  V30 3182 C 307.019 4.1747 -1.88368 0
M  V30 3183 N 308.51 4.24466 -1.85427 0
M  V30 3184 C 309.245 5.20755 -2.40004 0
M  V30 3185 N 308.741 6.22965 -3.03129 0
M  V30 3186 N 310.534 5.1282 -2.30158 0
M  V30 3187 H 302.685 1.29879 -1.68063 0
M  V30 3188 H 304.948 0.627896 -0.710247 0
M  V30 3189 H 304.654 2.73944 -2.20561 0
M  V30 3190 H 304.528 3.6984 -0.741477 0
M  V30 3191 H 306.915 2.94959 -0.0910608 0
M  V30 3192 H 306.996 2.00682 -1.5862 0
M  V30 3193 H 306.64 4.1488 -2.9298 0
M  V30 3194 H 306.57 5.074 -1.40898 0
M  V30 3195 H 309.061 3.51241 -1.3942 0
M  V30 3196 H 309.374 6.92859 -3.42295 0
M  V30 3197 H 307.719 6.23415 -3.07212 0
M  V30 3198 H 310.91 4.31899 -1.80501 0
M  V30 3199 H 311.083 5.87689 -2.72993 0
M  V30 3200 N 304.489 0.459591 1.5075 0
M  V30 3201 C 305.399 -0.34613 2.32033 0
M  V30 3202 C 306.415 -1.00686 1.41909 0
M  V30 3203 O 307.591 -0.997361 1.7497 0
M  V30 3204 C 304.656 -1.42029 3.16273 0
M  V30 3205 C 303.717 -0.777362 4.22203 0
M  V30 3206 C 302.95 -1.80034 5.02418 0
M  V30 3207 O 303.173 -3.02544 4.83553 0
M  V30 3208 O 302.107 -1.37853 5.85901 0
M  V30 3209 H 305.933 0.318054 3.0203 0
M  V30 3210 H 303.518 0.221663 1.47746 0
M  V30 3211 H 305.4 -2.04275 3.68578 0
M  V30 3212 H 304.075 -2.06815 2.49016 0
M  V30 3213 H 302.982 -0.116256 3.73919 0
M  V30 3214 H 304.315 -0.172634 4.91897 0
M  V30 3215 N 305.967 -1.56429 0.191757 0
M  V30 3216 C 307.215 -1.97095 -0.447006 0
M  V30 3217 C 307.536 -1.07967 -1.62383 0
M  V30 3218 O 306.806 -0.150248 -1.95323 0
M  V30 3219 H 305.386 -0.727832 -0.168135 0
M  V30 3220 H 308.048 -1.92911 0.27771 0
M  V30 3221 H 307.144 -3.01848 -0.793371 0
M  V30 3222 N 307.445 0.0818655 -1.57387 0
M  V30 3223 C 308.408 1.08265 -2.02018 0
M  V30 3224 C 309.408 1.32183 -0.915664 0
M  V30 3225 O 310.598 1.28073 -1.18081 0
M  V30 3226 C 307.73 2.42871 -2.39221 0
M  V30 3227 H 308.923 0.698204 -2.91659 0
M  V30 3228 H 306.476 0.327303 -1.52835 0
M  V30 3229 H 307.211 2.86167 -1.52575 0
M  V30 3230 H 306.996 2.26855 -3.19811 0
M  V30 3231 H 308.486 3.14826 -2.74362 0
M  V30 3232 N 308.923 1.53595 0.353017 0
M  V30 3233 C 310.169 1.70638 1.09593 0
M  V30 3234 C 310.502 0.463286 1.88593 0
M  V30 3235 O 309.777 -0.539597 1.86865 0
M  V30 3236 C 310.06 2.96406 2.04489 0
M  V30 3237 C 309.913 4.30901 1.29014 0
M  V30 3238 C 311.232 3.17812 3.0444 0
M  V30 3239 H 308.351 0.620913 0.397034 0
M  V30 3240 H 310.993 1.86254 0.375446 0
M  V30 3241 H 309.143 2.83223 2.65927 0
M  V30 3242 H 310.815 4.55917 0.702638 0
M  V30 3243 H 309.058 4.29741 0.592071 0
M  V30 3244 H 309.729 5.1506 1.98537 0
M  V30 3245 H 312.205 3.30263 2.53112 0
M  V30 3246 H 311.081 4.07223 3.6805 0
M  V30 3247 H 311.342 2.33669 3.75301 0
M  V30 3248 N 310.401 -0.613514 1.45168 0
M  V30 3249 C 311.364 -1.7065 1.53007 0
M  V30 3250 C 312.364 -1.5548 0.410184 0
M  V30 3251 O 313.554 -1.60656 0.673455 0
M  V30 3252 C 310.686 -3.09875 1.42093 0
M  V30 3253 H 311.879 -1.65068 2.50385 0
M  V30 3254 H 309.432 -0.828728 1.32521 0
M  V30 3255 H 310.167 -3.21039 0.458769 0
M  V30 3256 H 309.952 -3.22293 2.23315 0
M  V30 3257 H 311.442 -3.895 1.50598 0
M  V30 3258 N 311.879 -1.3236 -0.855495 0
M  V30 3259 C 312.842 -1.21164 -1.94556 0
M  V30 3260 C 313.842 -0.134908 -1.60233 0
M  V30 3261 O 315.032 -0.385249 -1.69887 0
M  V30 3262 C 312.164 -0.863192 -3.29791 0
M  V30 3263 H 313.357 -2.18038 -2.05911 0
M  V30 3264 H 310.91 -1.16179 -1.04557 0
M  V30 3265 H 311.645 0.103769 -3.24134 0
M  V30 3266 H 311.43 -1.64166 -3.56078 0
M  V30 3267 H 312.92 -0.809156 -4.09686 0
M  V30 3268 N 313.357 1.07166 -1.15556 0
M  V30 3269 C 314.287 2.16403 -0.877046 0
M  V30 3270 C 315.268 1.69217 0.173111 0
M  V30 3271 O 316.453 1.94181 0.027084 0
M  V30 3272 C 313.583 3.45349 -0.367632 0
M  V30 3273 C 312.537 4.05995 -1.35468 0
M  V30 3274 C 311.863 5.30045 -0.704038 0
M  V30 3275 C 313.163 4.45804 -2.72132 0
M  V30 3276 H 314.857 2.39959 -1.79053 0
M  V30 3277 H 312.403 1.15325 -0.862331 0
M  V30 3278 H 314.356 4.21095 -0.160317 0
M  V30 3279 H 313.08 3.21385 0.581326 0
M  V30 3280 H 311.739 3.32296 -1.54839 0
M  V30 3281 H 311.387 5.02373 0.251128 0
M  V30 3282 H 311.087 5.71579 -1.36277 0
M  V30 3283 H 312.611 6.08495 -0.50654 0
M  V30 3284 H 314.025 5.12671 -2.56595 0
M  V30 3285 H 312.422 4.98296 -3.34397 0
M  V30 3286 H 313.492 3.57083 -3.28054 0
M  V30 3287 N 314.835 0.952656 1.25548 0
M  V30 3288 C 316.251 0.656769 1.4546 0
M  V30 3289 C 316.451 -0.78633 1.85524 0
M  V30 3290 O 315.507 -1.56183 1.98402 0
M  V30 3291 C 316.82 1.62801 2.52817 0
M  V30 3292 C 318.368 1.63897 2.66659 0
M  V30 3293 C 318.843 2.5978 3.77198 0
M  V30 3294 N 320.334 2.58133 3.84606 0
M  V30 3295 C 321.069 3.29003 4.69621 0
M  V30 3296 N 320.565 4.09339 5.58939 0
M  V30 3297 N 322.358 3.179 4.63569 0
M  V30 3298 H 314.509 1.88526 0.978344 0
M  V30 3299 H 316.772 0.810815 0.491206 0
M  V30 3300 H 316.478 2.65869 2.30232 0
M  V30 3301 H 316.352 1.38898 3.50695 0
M  V30 3302 H 318.739 0.615481 2.8861 0
M  V30 3303 H 318.82 1.91858 1.69187 0
M  V30 3304 H 318.464 3.62254 3.55997 0
M  V30 3305 H 318.394 2.29105 4.7415 0
M  V30 3306 H 320.885 1.99809 3.20757 0
M  V30 3307 H 321.198 4.6034 6.20731 0
M  V30 3308 H 319.543 4.13438 5.58654 0
M  V30 3309 H 322.734 2.54612 3.92798 0
M  V30 3310 H 322.907 3.73398 5.29602 0
M  V30 3311 N 316.313 -1.40141 0.720998 0
M  V30 3312 C 317.276 -2.29058 0.0805834 0
M  V30 3313 C 318.276 -1.45632 -0.681758 0
M  V30 3314 O 319.466 -1.6648 -0.512856 0
M  V30 3315 C 316.598 -3.28925 -0.895593 0
M  V30 3316 H 317.791 -2.87191 0.863793 0
M  V30 3317 H 315.344 -1.48553 0.485975 0
M  V30 3318 H 316.079 -2.75822 -1.70566 0
M  V30 3319 H 315.864 -3.90519 -0.351766 0
M  V30 3320 H 317.354 -3.95494 -1.34069 0
M  V30 3321 N 317.792 -0.46758 -1.50504 0
M  V30 3322 C 319.032 0.0874114 -2.04213 0
M  V30 3323 C 319.396 1.37301 -1.34211 0
M  V30 3324 O 320.597 2.01015 -1.78456 0
M  V30 3325 C 318.868 0.270571 -3.56374 0
M  V30 3326 S 320.427 0.784623 -4.31728 0
M  V30 3327 H 317.245 0.0176153 -0.710782 0
M  V30 3328 H 319.847 -0.633915 -1.84937 0
M  V30 3329 H 318.551 -0.670942 -4.04878 0
M  V30 3330 H 318.082 1.01811 -3.79997 0
M  V30 3331 H 320.097 2.05849 -4.51487 0
M  V30 3332 N 319.27 1.56325 -0.20005 0
M  V30 3333 C 320.2 2.22318 0.713916 0
M  V30 3334 C 321.181 1.18788 1.21752 0
M  V30 3335 O 322.366 1.47309 1.26545 0
M  V30 3336 C 319.496 2.88639 1.93144 0
M  V30 3337 C 318.45 3.98457 1.56255 0
M  V30 3338 C 317.776 4.51967 2.85709 0
M  V30 3339 C 319.076 5.16612 0.768747 0
M  V30 3340 H 320.77 2.98952 0.163755 0
M  V30 3341 H 318.316 1.43792 0.0773219 0
M  V30 3342 H 320.269 3.33491 2.57608 0
M  V30 3343 H 318.993 2.09419 2.50621 0
M  V30 3344 H 317.652 3.54305 0.941471 0
M  V30 3345 H 317.3 3.69503 3.41287 0
M  V30 3346 H 317 5.26071 2.6177 0
M  V30 3347 H 318.524 4.99523 3.51154 0
M  V30 3348 H 319.938 5.57977 1.3166 0
M  V30 3349 H 318.335 5.96812 0.627286 0
M  V30 3350 H 319.405 4.84358 -0.229168 0
M  V30 3351 N 320.748 -0.0735177 1.57428 0
M  V30 3352 C 321.997 -0.771809 1.86349 0
M  V30 3353 C 322.31 -1.78828 0.792452 0
M  V30 3354 O 323.516 -2.53602 0.96945 0
M  V30 3355 C 321.972 -1.42358 3.30548 0
M  V30 3356 C 321.58 -0.445761 4.45777 0
M  V30 3357 C 323.324 -2.10434 3.6867 0
M  V30 3358 C 321.231 -1.10335 5.81016 0
M  V30 3359 H 320.161 -0.291999 0.695164 0
M  V30 3360 H 322.812 -0.0250749 1.83483 0
M  V30 3361 H 321.194 -2.21852 3.28021 0
M  V30 3362 H 322.368 0.319239 4.59693 0
M  V30 3363 H 320.683 0.130457 4.16196 0
M  V30 3364 H 323.28 -2.60405 4.67004 0
M  V30 3365 H 323.623 -2.90298 2.98383 0
M  V30 3366 H 324.156 -1.37773 3.7318 0
M  V30 3367 H 320.895 -0.345061 6.54591 0
M  V30 3368 H 320.415 -1.83925 5.70904 0
M  V30 3369 H 322.094 -1.62367 6.26295 0
M  V30 3370 N 322.226 -1.5378 -0.344866 0
M  V30 3371 C 323.156 -1.84662 -1.42906 0
M  V30 3372 C 324.137 -0.701648 -1.54955 0
M  V30 3373 O 325.322 -0.953438 -1.69184 0
M  V30 3374 C 322.452 -2.05503 -2.79974 0
M  V30 3375 C 321.406 -3.21318 -2.82734 0
M  V30 3376 C 320.732 -3.2749 -4.22675 0
M  V30 3377 C 322.032 -4.59456 -2.48389 0
M  V30 3378 H 323.726 -2.75461 -1.17311 0
M  V30 3379 H 321.272 -1.32542 -0.562896 0
M  V30 3380 H 323.225 -2.25691 -3.55867 0
M  V30 3381 H 321.949 -1.11434 -3.07002 0
M  V30 3382 H 320.608 -3.00984 -2.09294 0
M  V30 3383 H 320.256 -2.31019 -4.4681 0
M  V30 3384 H 319.956 -4.05316 -4.25433 0
M  V30 3385 H 321.48 -3.49887 -5.00412 0
M  V30 3386 H 322.894 -4.79667 -3.13995 0
M  V30 3387 H 321.291 -5.39675 -2.62432 0
M  V30 3388 H 322.361 -4.63155 -1.4358 0
M  V30 3389 N 323.704 0.605807 -1.45491 0
M  V30 3390 C 324.932 1.39136 -1.5313 0
M  V30 3391 C 325.347 1.88082 -0.164507 0
M  V30 3392 O 324.704 1.62316 0.834247 0
M  V30 3393 C 324.755 2.59463 -2.51716 0
M  V30 3394 O 324.476 2.12551 -3.83084 0
M  V30 3395 C 325.977 3.52301 -2.6907 0
M  V30 3396 H 323.197 0.425849 -0.51855 0
M  V30 3397 H 325.741 0.73865 -1.90694 0
M  V30 3398 H 323.896 3.20772 -2.17219 0
M  V30 3399 H 324.31 2.90744 -4.36541 0
M  V30 3400 H 325.784 4.33271 -3.42024 0
M  V30 3401 H 326.261 4.02757 -1.75167 0
M  V30 3402 H 326.867 2.96845 -3.04571 0
M  V30 3403 N 325.182 1.32811 0.848464 0
M  V30 3404 C 326.41 1.26739 1.63538 0
M  V30 3405 C 326.825 -0.163484 1.88091 0
M  V30 3406 O 326.182 -1.10258 1.45429 0
M  V30 3407 C 326.233 2.03013 2.99112 0
M  V30 3408 O 325.954 3.40518 2.75643 0
M  V30 3409 C 327.455 2.04038 3.93552 0
M  V30 3410 H 324.675 0.437024 0.509167 0
M  V30 3411 H 327.219 1.75033 1.05753 0
M  V30 3412 H 325.374 1.58426 3.53525 0
M  V30 3413 H 325.788 3.79635 3.61908 0
M  V30 3414 H 327.262 2.61877 4.85926 0
M  V30 3415 H 327.739 1.0282 4.26995 0
M  V30 3416 H 328.345 2.486 3.45077 0
M  V30 3417 N 326.66 -1.06551 1.16123 0
M  V30 3418 C 327.592 -2.13908 0.823171 0
M  V30 3419 C 328.605 -1.61926 -0.16843 0
M  V30 3420 O 329.794 -1.78412 0.055962 0
M  V30 3421 C 326.894 -3.38283 0.204424 0
M  V30 3422 C 326.067 -4.19589 1.23548 0
M  V30 3423 C 325.126 -5.2233 0.637011 0
M  V30 3424 O 324.152 -5.54034 1.30516 0
M  V30 3425 N 325.354 -5.77621 -0.577474 0
M  V30 3426 H 328.119 -2.43508 1.74711 0
M  V30 3427 H 325.68 -1.2253 1.05821 0
M  V30 3428 H 327.672 -4.0416 -0.208909 0
M  V30 3429 H 326.242 -3.06329 -0.623012 0
M  V30 3430 H 325.462 -3.49406 1.82507 0
M  V30 3431 H 326.75 -4.70718 1.93137 0
M  V30 3432 H 326.148 -5.54125 -1.13853 0
M  V30 3433 H 324.705 -6.45087 -0.933053 0
M  V30 3434 N 328.138 -0.959301 -1.25041 0
M  V30 3435 C 329.554 -0.664474 -1.4511 0
M  V30 3436 C 329.754 0.776481 -1.85938 0
M  V30 3437 O 328.81 1.55128 -1.99227 0
M  V30 3438 C 330.123 -1.64139 -2.5195 0
M  V30 3439 C 331.671 -1.65309 -2.65786 0
M  V30 3440 C 332.146 -2.61777 -3.75815 0
M  V30 3441 N 333.637 -2.60169 -3.83231 0
M  V30 3442 C 334.372 -3.31489 -4.6787 0
M  V30 3443 N 333.868 -4.12298 -5.56761 0
M  V30 3444 N 335.661 -3.20354 -4.61876 0
M  V30 3445 H 327.812 -1.89043 -0.968332 0
M  V30 3446 H 330.075 -0.813408 -0.4869 0
M  V30 3447 H 329.781 -2.67086 -2.28819 0
M  V30 3448 H 329.655 -1.40756 -3.49954 0
M  V30 3449 H 332.042 -0.630778 -2.8828 0
M  V30 3450 H 332.123 -1.92753 -1.68167 0
M  V30 3451 H 331.767 -3.64137 -3.54071 0
M  V30 3452 H 331.697 -2.31616 -4.72929 0
M  V30 3453 H 334.188 -2.01507 -3.19692 0
M  V30 3454 H 334.501 -4.63625 -6.18281 0
M  V30 3455 H 332.846 -4.16395 -5.56454 0
M  V30 3456 H 336.037 -2.56692 -3.91442 0
M  V30 3457 H 336.21 -3.76201 -5.27614 0
M  V30 3458 N 329.616 1.39756 -0.72842 0
M  V30 3459 C 330.526 2.34444 -0.0855374 0
M  V30 3460 C 331.542 1.57976 0.729356 0
M  V30 3461 O 332.718 1.90301 0.659346 0
M  V30 3462 C 329.783 3.36965 0.815798 0
M  V30 3463 C 328.844 4.29299 -0.0105996 0
M  V30 3464 C 328.077 5.26923 0.84781 0
M  V30 3465 O 328.3 5.30859 2.08673 0
M  V30 3466 O 327.234 6.01249 0.279969 0
M  V30 3467 H 331.06 2.91065 -0.866892 0
M  V30 3468 H 328.645 1.4117 -0.48902 0
M  V30 3469 H 330.527 3.99804 1.33171 0
M  V30 3470 H 329.202 2.82739 1.57608 0
M  V30 3471 H 328.109 3.69703 -0.571877 0
M  V30 3472 H 329.442 4.86712 -0.73295 0
M  V30 3473 N 331.094 0.475555 1.50254 0
M  V30 3474 C 332.505 0.0215174 1.86688 0
M  V30 3475 C 332.856 -1.38467 1.39001 0
M  V30 3476 O 331.981 -2.02732 0.756894 0
M  V30 3477 C 332.576 0.0322715 3.38785 0
M  V30 3478 C 331.135 -0.366314 3.74613 0
M  V30 3479 C 330.282 0.415832 2.74164 0
M  V30 3480 H 333.233 0.689612 1.42934 0
M  V30 3481 H 333.254 -0.76889 3.7265 0
M  V30 3482 H 332.766 1.05584 3.73462 0
M  V30 3483 H 330.867 -1.39406 3.45538 0
M  V30 3484 H 330.98 -0.064555 4.79057 0
M  V30 3485 H 329.344 -0.131048 2.54363 0
M  V30 3486 H 330.127 1.43899 3.11686 0
M  V30 3487 N 332.573 -1.56217 0.208337 0
M  V30 3488 C 333.52 -2.19699 -0.707192 0
M  V30 3489 C 334.49 -1.14836 -1.20008 0
M  V30 3490 O 335.675 -1.4314 -1.26157 0
M  V30 3491 C 332.815 -2.87061 -1.91546 0
M  V30 3492 C 331.928 -4.06483 -1.46271 0
M  V30 3493 C 331.063 -4.61665 -2.62752 0
M  V30 3494 C 330.102 -5.73417 -2.14147 0
M  V30 3495 N 329.239 -6.22948 -3.23853 0
M  V30 3496 H 334.079 -2.97575 -0.159111 0
M  V30 3497 H 331.616 -1.46948 -0.0667874 0
M  V30 3498 H 333.574 -3.24294 -2.62468 0
M  V30 3499 H 332.204 -2.11725 -2.43664 0
M  V30 3500 H 331.256 -3.74825 -0.648886 0
M  V30 3501 H 332.568 -4.87271 -1.06622 0
M  V30 3502 H 331.722 -5.01272 -3.41776 0
M  V30 3503 H 330.461 -3.80013 -3.05682 0
M  V30 3504 H 329.466 -5.33326 -1.33581 0
M  V30 3505 H 330.691 -6.56897 -1.72232 0
M  V30 3506 H 328.637 -5.44213 -3.6629 0
M  V30 3507 H 328.554 -6.98823 -2.88414 0
M  V30 3508 H 329.822 -6.6721 -4.03052 0
M  V30 3509 N 334.051 0.0651679 -1.57465 0
M  V30 3510 C 334.961 1.09448 -2.07505 0
M  V30 3511 C 335.977 1.41974 -1.00595 0
M  V30 3512 O 337.153 1.52018 -1.32107 0
M  V30 3513 C 334.218 2.38689 -2.51453 0
M  V30 3514 C 333.279 2.13073 -3.72691 0
M  V30 3515 C 332.512 3.36152 -4.14533 0
M  V30 3516 O 332.735 4.45517 -3.56189 0
M  V30 3517 O 331.669 3.23974 -5.07272 0
M  V30 3518 H 335.495 0.69935 -2.95538 0
M  V30 3519 H 333.08 0.279752 -1.46757 0
M  V30 3520 H 334.962 3.14736 -2.80212 0
M  V30 3521 H 333.637 2.77568 -1.66546 0
M  V30 3522 H 332.544 1.34709 -3.49005 0
M  V30 3523 H 333.877 1.79071 -4.5847 0
M  V30 3524 N 335.529 1.53961 0.336706 0
M  V30 3525 C 336.462 1.77255 1.43722 0
M  V30 3526 C 337.44 0.62193 1.50236 0
M  V30 3527 O 338.624 0.857874 1.67847 0
M  V30 3528 C 335.751 1.87733 2.81912 0
M  V30 3529 C 334.797 3.09933 2.92991 0
M  V30 3530 S 335.63 4.68836 2.58753 0
M  V30 3531 C 336.786 4.82202 3.99039 0
M  V30 3532 H 337.019 2.70322 1.23748 0
M  V30 3533 H 334.552 1.44917 0.532777 0
M  V30 3534 H 336.51 1.94455 3.61521 0
M  V30 3535 H 335.171 0.956666 2.99177 0
M  V30 3536 H 334.364 3.1396 3.94265 0
M  V30 3537 H 333.966 3.01472 2.21338 0
M  V30 3538 H 336.258 4.64032 4.9364 0
M  V30 3539 H 337.201 5.84298 4.00002 0
M  V30 3540 H 337.609 4.10604 3.87382 0
M  V30 3541 N 337.007 -0.598083 1.45811 0
M  V30 3542 C 337.939 -1.72231 1.51225 0
M  V30 3543 C 338.952 -1.57757 0.402059 0
M  V30 3544 O 340.141 -1.65464 0.669624 0
M  V30 3545 C 337.241 -3.10331 1.3619 0
M  V30 3546 C 336.414 -3.50955 2.61054 0
M  V30 3547 C 335.473 -4.68055 2.40439 0
M  V30 3548 O 334.499 -4.74691 3.14097 0
M  V30 3549 N 335.701 -5.61941 1.45612 0
M  V30 3550 H 338.466 -1.68046 2.48154 0
M  V30 3551 H 336.027 -0.783637 1.41671 0
M  V30 3552 H 338.019 -3.86439 1.20195 0
M  V30 3553 H 336.589 -3.0897 0.475015 0
M  V30 3554 H 335.809 -2.64711 2.92099 0
M  V30 3555 H 337.097 -3.74858 3.44034 0
M  V30 3556 H 336.495 -5.59301 0.848431 0
M  V30 3557 H 335.052 -6.37542 1.35585 0
M  V30 3558 N 338.485 -1.33259 -0.841409 0
M  V30 3559 C 339.432 -1.23302 -1.95103 0
M  V30 3560 C 340.402 -0.112204 -1.65721 0
M  V30 3561 O 341.587 -0.290038 -1.88583 0
M  V30 3562 C 338.727 -0.975583 -3.31023 0
M  V30 3563 C 337.84 -2.18243 -3.72819 0
M  V30 3564 C 336.975 -1.85936 -4.97595 0
M  V30 3565 C 336.014 -3.02866 -5.3192 0
M  V30 3566 N 335.151 -2.70565 -6.47873 0
M  V30 3567 H 339.991 -2.18207 -2.02952 0
M  V30 3568 H 337.528 -1.0851 -0.993173 0
M  V30 3569 H 339.486 -0.80677 -4.09325 0
M  V30 3570 H 338.116 -0.0632755 -3.22738 0
M  V30 3571 H 337.168 -2.46107 -2.90061 0
M  V30 3572 H 338.48 -3.05666 -3.94169 0
M  V30 3573 H 337.634 -1.65684 -5.83638 0
M  V30 3574 H 336.373 -0.957452 -4.78209 0
M  V30 3575 H 335.378 -3.23736 -4.44382 0
M  V30 3576 H 336.603 -3.93809 -5.53255 0
M  V30 3577 H 334.549 -1.8293 -6.29978 0
M  V30 3578 H 334.466 -3.51519 -6.69306 0
M  V30 3579 H 335.734 -2.53774 -7.37034 0
M  V30 3580 N 339.963 1.05934 -1.16686 0
M  V30 3581 C 341.374 1.60263 -0.957745 0
M  V30 3582 C 341.725 1.89789 0.49745 0
M  V30 3583 O 340.85 1.67401 1.37135 0
M  V30 3584 C 341.445 2.91172 -1.73218 0
M  V30 3585 C 340.004 3.42188 -1.56794 0
M  V30 3586 C 339.151 2.16028 -1.73859 0
M  V30 3587 H 342.102 0.888392 -1.31504 0
M  V30 3588 H 342.123 3.60744 -1.21014 0
M  V30 3589 H 341.635 2.6965 -2.79124 0
M  V30 3590 H 339.736 3.68762 -0.533437 0
M  V30 3591 H 339.849 4.17273 -2.35414 0
M  V30 3592 H 338.213 2.26426 -1.16633 0
M  V30 3593 H 338.996 1.96985 -2.81161 0
M  V30 3594 N 341.441 0.965919 1.2453 0
M  V30 3595 C 342.373 0.452465 2.2469 0
M  V30 3596 C 343.386 -0.437821 1.56802 0
M  V30 3597 O 344.575 -0.244283 1.76821 0
M  V30 3598 C 341.675 -0.366258 3.36915 0
M  V30 3599 C 340.848 0.513701 4.34373 0
M  V30 3600 C 339.907 -0.248716 5.25612 0
M  V30 3601 O 338.933 0.356745 5.68081 0
M  V30 3602 N 340.135 -1.53877 5.59734 0
M  V30 3603 H 342.9 1.31361 2.69378 0
M  V30 3604 H 340.461 0.837541 1.38553 0
M  V30 3605 H 342.453 -0.884297 3.94921 0
M  V30 3606 H 341.023 -1.12832 2.91526 0
M  V30 3607 H 340.243 1.21273 3.75082 0
M  V30 3608 H 341.531 1.11391 4.96457 0
M  V30 3609 H 340.929 -2.05243 5.27154 0
M  V30 3610 H 339.486 -2.00254 6.20275 0
M  V30 3611 N 342.919 -1.39368 0.735821 0
M  V30 3612 C 344.165 -2.01272 0.293439 0
M  V30 3613 C 344.52 -1.57344 -1.10728 0
M  V30 3614 O 343.813 -0.792744 -1.74431 0
M  V30 3615 C 344.007 -3.5583 0.334651 0
M  V30 3616 C 343.836 -4.14764 1.73784 0
M  V30 3617 C 342.606 -4.47315 2.35026 0
M  V30 3618 C 344.804 -4.38246 2.69157 0
M  V30 3619 N 342.786 -4.91756 3.6749 0
M  V30 3620 C 344.157 -4.849 3.86357 0
M  V30 3621 C 346.212 -4.20315 2.66908 0
M  V30 3622 C 344.915 -5.15505 5.01645 0
M  V30 3623 C 346.941 -4.52033 3.8134 0
M  V30 3624 C 346.303 -4.98895 4.97276 0
M  V30 3625 H 342.402 -0.766756 0.153652 0
M  V30 3626 H 344.986 -1.69276 0.961967 0
M  V30 3627 H 343.157 -3.87212 -0.303527 0
M  V30 3628 H 344.889 -4.04503 -0.126358 0
M  V30 3629 H 341.644 -4.35143 1.86943 0
M  V30 3630 H 342.068 -5.18333 4.35499 0
M  V30 3631 H 346.71 -3.83287 1.78468 0
M  V30 3632 H 344.428 -5.51437 5.90713 0
M  V30 3633 H 348.014 -4.39781 3.80899 0
M  V30 3634 H 346.894 -5.22973 5.84353 0
M  V30 3635 N 344.397 -0.483516 -1.5 0
M  V30 3636 C 345.627 0.0643896 -2.065 0
M  V30 3637 C 346.035 1.32949 -1.34615 0
M  V30 3638 O 345.378 1.79003 -0.412756 0
M  V30 3639 C 345.44 0.405983 -3.572 0
M  V30 3640 C 345.104 -0.758875 -4.50655 0
M  V30 3641 C 346.101 -1.64445 -4.93208 0
M  V30 3642 C 343.786 -0.952725 -4.93182 0
M  V30 3643 C 345.78 -2.70818 -5.77006 0
M  V30 3644 C 343.467 -2.01966 -5.76761 0
M  V30 3645 C 344.465 -2.89574 -6.18576 0
M  V30 3646 O 344.153 -3.94429 -7.00486 0
M  V30 3647 H 343.885 -0.00934786 -0.675935 0
M  V30 3648 H 346.439 -0.674959 -1.93993 0
M  V30 3649 H 344.669 1.19869 -3.67652 0
M  V30 3650 H 346.358 0.890433 -3.96013 0
M  V30 3651 H 347.124 -1.50643 -4.61012 0
M  V30 3652 H 343.003 -0.280247 -4.60147 0
M  V30 3653 H 346.547 -3.3923 -6.09565 0
M  V30 3654 H 342.444 -2.1577 -6.0837 0
M  V30 3655 H 343.212 -3.91568 -7.1876 0
M  V30 3656 N 345.875 1.56104 -0.216619 0
M  V30 3657 C 347.291 1.58995 0.13886 0
M  V30 3658 C 347.491 1.23333 1.59346 0
M  V30 3659 O 346.547 0.966234 2.33281 0
M  V30 3660 C 347.86 3.00143 -0.182968 0
M  V30 3661 C 349.408 3.12751 -0.124807 0
M  V30 3662 C 349.883 4.56068 -0.420241 0
M  V30 3663 N 351.374 4.61723 -0.369634 0
M  V30 3664 C 352.109 5.70542 -0.571789 0
M  V30 3665 N 351.605 6.87744 -0.835453 0
M  V30 3666 N 353.398 5.59831 -0.504563 0
M  V30 3667 H 345.549 1.77562 -1.16557 0
M  V30 3668 H 347.812 0.825091 -0.466828 0
M  V30 3669 H 347.518 3.30871 -1.19237 0
M  V30 3670 H 347.392 3.73813 0.504367 0
M  V30 3671 H 349.779 2.81822 0.875223 0
M  V30 3672 H 349.86 2.41421 -0.845544 0
M  V30 3673 H 349.504 4.87713 -1.41769 0
M  V30 3674 H 349.434 5.25617 0.321631 0
M  V30 3675 H 351.925 3.77502 -0.173338 0
M  V30 3676 H 352.238 7.66587 -0.977938 0
M  V30 3677 H 350.583 6.895 -0.872592 0
M  V30 3678 H 353.774 4.67145 -0.298842 0
M  V30 3679 H 353.947 6.44573 -0.665519 0
M  V30 3680 N 347.353 -0.0568162 1.57498 0
M  V30 3681 C 348.303 -1.07315 2.01166 0
M  V30 3682 C 349.287 -1.33632 0.896171 0
M  V30 3683 O 350.479 -1.33682 1.16009 0
M  V30 3684 C 347.608 -2.38257 2.47161 0
M  V30 3685 C 346.694 -2.1515 3.65474 0
M  V30 3686 N 347.085 -1.62014 4.7915 0
M  V30 3687 C 345.383 -2.45559 3.72313 0
M  V30 3688 C 346.084 -1.54069 5.60926 0
M  V30 3689 N 345.06 -2.00652 5.05213 0
M  V30 3690 H 348.862 -0.655878 2.86488 0
M  V30 3691 H 346.376 -0.263635 1.60246 0
M  V30 3692 H 348.373 -3.11845 2.76691 0
M  V30 3693 H 347.033 -2.80687 1.63232 0
M  V30 3694 H 348.044 -1.30667 5.01145 0
M  V30 3695 H 344.721 -2.91253 2.99129 0
M  V30 3696 H 346.111 -1.13712 6.62208 0
M  V30 3697 N 348.832 -1.54138 -0.328536 0
M  V30 3698 C 350.06 -1.76062 -1.08673 0
M  V30 3699 C 350.475 -0.506852 -1.81869 0
M  V30 3700 O 349.832 0.522223 -1.74869 0
M  V30 3701 C 349.883 -2.95054 -2.08866 0
M  V30 3702 O 349.604 -4.15583 -1.38644 0
M  V30 3703 C 351.105 -3.2915 -2.96943 0
M  V30 3704 H 348.325 -0.587889 -0.323461 0
M  V30 3705 H 350.869 -2.0101 -0.376175 0
M  V30 3706 H 349.024 -2.72394 -2.75464 0
M  V30 3707 H 349.438 -4.82481 -2.05699 0
M  V30 3708 H 350.912 -4.15723 -3.63151 0
M  V30 3709 H 351.389 -2.461 -3.63774 0
M  V30 3710 H 351.995 -3.53871 -2.35914 0
M  V30 3711 N 350.31 0.590341 -1.46126 0
M  V30 3712 C 351.557 1.34882 -1.5104 0
M  V30 3713 C 351.885 1.93849 -0.159021 0
M  V30 3714 O 351.14 1.76544 0.844436 0
M  V30 3715 C 351.439 2.5032 -2.55097 0
M  V30 3716 C 351.105 2.09394 -3.99331 0
M  V30 3717 C 349.767 1.97947 -4.38601 0
M  V30 3718 C 352.119 1.77712 -4.89967 0
M  V30 3719 C 349.447 1.53065 -5.66381 0
M  V30 3720 C 351.799 1.34312 -6.18177 0
M  V30 3721 C 350.463 1.21436 -6.56361 0
M  V30 3722 H 349.733 0.493568 -0.552695 0
M  V30 3723 H 352.38 0.665539 -1.79563 0
M  V30 3724 H 350.685 3.24062 -2.20207 0
M  V30 3725 H 352.382 3.08541 -2.56132 0
M  V30 3726 H 348.972 2.19235 -3.68285 0
M  V30 3727 H 353.156 1.85445 -4.60352 0
M  V30 3728 H 348.412 1.41733 -5.94745 0
M  V30 3729 H 352.586 1.08849 -6.87841 0
M  V30 3730 H 350.213 0.864345 -7.5527 0
M  V30 3731 N 351.788 1.33704 0.83433 0
M  V30 3732 C 352.698 1.26382 1.97648 0
M  V30 3733 C 353.714 0.173548 1.73132 0
M  V30 3734 O 354.89 0.397962 1.97429 0
M  V30 3735 C 351.955 1.00769 3.31733 0
M  V30 3736 C 351.016 2.1884 3.69334 0
M  V30 3737 C 350.249 1.9444 4.9702 0
M  V30 3738 O 350.472 0.896961 5.63303 0
M  V30 3739 O 349.406 2.81093 5.32231 0
M  V30 3740 H 353.232 2.22444 2.06767 0
M  V30 3741 H 350.817 1.13795 0.968037 0
M  V30 3742 H 352.699 0.882186 4.12062 0
M  V30 3743 H 351.374 0.0773783 3.23608 0
M  V30 3744 H 350.281 2.36946 2.89495 0
M  V30 3745 H 351.614 3.10221 3.82131 0
M  V30 3746 N 353.266 -1.05314 1.17247 0
M  V30 3747 C 354.176 -2.16538 0.90268 0
M  V30 3748 C 355.192 -1.73523 -0.128707 0
M  V30 3749 O 356.368 -2.01337 0.0502701 0
M  V30 3750 C 353.433 -3.44167 0.418356 0
M  V30 3751 C 352.494 -4.01635 1.51618 0
M  V30 3752 C 351.727 -5.23171 1.05487 0
M  V30 3753 O 351.95 -5.70327 -0.0914715 0
M  V30 3754 O 350.884 -5.72848 1.8474 0
M  V30 3755 H 354.71 -2.42145 1.83302 0
M  V30 3756 H 352.295 -1.15037 0.953246 0
M  V30 3757 H 354.177 -4.21112 0.155726 0
M  V30 3758 H 352.852 -3.20063 -0.48385 0
M  V30 3759 H 351.759 -3.26135 1.83268 0
M  V30 3760 H 353.092 -4.30053 2.39405 0
M  V30 3761 N 354.744 -0.972509 -1.24016 0
M  V30 3762 C 355.707 -0.511403 -2.23422 0
M  V30 3763 C 356.707 0.394679 -1.55881 0
M  V30 3764 O 357.897 0.189469 -1.73167 0
M  V30 3765 C 355.029 0.258769 -3.39916 0
M  V30 3766 H 356.222 -1.39024 -2.6573 0
M  V30 3767 H 353.775 -0.757585 -1.36713 0
M  V30 3768 H 354.51 1.1545 -3.03054 0
M  V30 3769 H 354.295 -0.391522 -3.9014 0
M  V30 3770 H 355.785 0.570244 -4.13688 0
M  V30 3771 N 356.222 1.38976 -0.743202 0
M  V30 3772 C 357.132 2.3434 -0.110399 0
M  V30 3773 C 358.148 1.58741 0.712559 0
M  V30 3774 O 359.324 1.9099 0.639125 0
M  V30 3775 C 356.389 3.37812 0.780012 0
M  V30 3776 C 355.45 4.29263 -0.0561319 0
M  V30 3777 C 354.683 5.27793 0.791875 0
M  V30 3778 O 354.906 5.33043 2.03031 0
M  V30 3779 O 353.84 6.01512 0.216183 0
M  V30 3780 H 357.666 2.90129 -0.897714 0
M  V30 3781 H 355.251 1.40643 -0.503966 0
M  V30 3782 H 357.133 4.01194 1.28923 0
M  V30 3783 H 355.808 2.84395 1.546 0
M  V30 3784 H 354.715 3.69076 -0.611056 0
M  V30 3785 H 356.048 4.85907 -0.784531 0
M  V30 3786 N 357.7 0.491464 1.49741 0
M  V30 3787 C 358.647 -0.292027 2.28945 0
M  V30 3788 C 359.617 -0.968973 1.34908 0
M  V30 3789 O 360.802 -0.97748 1.6386 0
M  V30 3790 C 357.942 -1.35617 3.17336 0
M  V30 3791 C 357.055 -0.691957 4.26422 0
M  V30 3792 C 356.19 -1.73572 5.02042 0
M  V30 3793 C 355.229 -1.05286 6.02977 0
M  V30 3794 N 354.366 -2.0404 6.71798 0
M  V30 3795 H 359.206 0.389654 2.95442 0
M  V30 3796 H 356.743 0.204003 1.45679 0
M  V30 3797 H 358.701 -1.98502 3.66951 0
M  V30 3798 H 357.331 -2.00674 2.52844 0
M  V30 3799 H 356.383 0.0499523 3.80367 0
M  V30 3800 H 357.695 -0.153946 4.98562 0
M  V30 3801 H 356.849 -2.43987 5.55478 0
M  V30 3802 H 355.588 -2.30757 4.29654 0
M  V30 3803 H 354.593 -0.334446 5.48782 0
M  V30 3804 H 355.818 -0.487636 6.77347 0
M  V30 3805 H 353.764 -2.60205 6.02187 0
M  V30 3806 H 353.681 -1.55279 7.39881 0
M  V30 3807 H 354.949 -2.73772 7.29842 0
M  V30 3808 N 359.178 -1.55987 0.224894 0
M  V30 3809 C 360.426 -1.97998 -0.405099 0
M  V30 3810 C 360.747 -1.11387 -1.60056 0
M  V30 3811 O 360.017 -0.191645 -1.9496 0
M  V30 3812 H 358.597 -0.731235 -0.152658 0
M  V30 3813 H 361.259 -1.92279 0.318567 0
M  V30 3814 H 360.355 -3.03463 -0.729167 0
M  V30 3815 N 360.656 0.0484629 -1.57525 0
M  V30 3816 C 361.903 0.743125 -1.88372 0
M  V30 3817 C 362.231 1.76383 -0.819715 0
M  V30 3818 O 361.486 1.94855 0.181659 0
M  V30 3819 C 361.785 1.46632 -3.25935 0
M  V30 3820 C 361.451 0.583427 -4.4711 0
M  V30 3821 C 360.113 0.340191 -4.79996 0
M  V30 3822 C 362.465 -0.0273345 -5.21193 0
M  V30 3823 C 359.793 -0.522903 -5.84365 0
M  V30 3824 C 362.145 -0.878017 -6.26477 0
M  V30 3825 C 360.809 -1.1309 -6.5785 0
M  V30 3826 H 360.079 0.271929 -0.689301 0
M  V30 3827 H 362.726 0.00336166 -1.915 0
M  V30 3828 H 361.031 2.2789 -3.18706 0
M  V30 3829 H 362.728 2.00902 -3.47044 0
M  V30 3830 H 359.318 0.783151 -4.21384 0
M  V30 3831 H 363.502 0.147654 -4.9608 0
M  V30 3832 H 358.758 -0.727335 -6.07058 0
M  V30 3833 H 362.932 -1.35789 -6.83033 0
M  V30 3834 H 360.559 -1.80144 -7.38547 0
M  V30 3835 N 362.134 1.5431 0.320358 0
M  V30 3836 C 363.411 1.63322 1.07635 0
M  V30 3837 C 363.791 0.46912 2.05821 0
M  V30 3838 O 363.139 -0.536274 2.22118 0
M  V30 3839 C 363.349 3.00465 1.77544 0
M  V30 3840 C 364.697 3.56621 2.30449 0
M  V30 3841 O 365.721 3.02791 1.87606 0
M  V30 3842 O 364.58 4.5083 3.08892 0
M  V30 3843 H 361.674 0.661502 0.496331 0
M  V30 3844 H 364.22 1.66656 0.319992 0
M  V30 3845 H 362.992 3.76629 1.06143 0
M  V30 3846 H 362.615 3.00824 2.59982 0
M  V30 3847 N 363.613 -0.582584 1.46437 0
M  V30 3848 C 364.523 -1.71949 1.59595 0
M  V30 3849 C 365.539 -1.67264 0.479443 0
M  V30 3850 O 366.715 -1.87171 0.743579 0
M  V30 3851 C 363.78 -3.08452 1.58298 0
M  V30 3852 C 362.841 -3.244 2.81182 0
M  V30 3853 C 362.074 -4.54391 2.79937 0
M  V30 3854 O 362.297 -5.38287 1.8869 0
M  V30 3855 O 361.231 -4.73588 3.71481 0
M  V30 3856 H 365.057 -1.63795 2.55744 0
M  V30 3857 H 362.642 -0.749643 1.29231 0
M  V30 3858 H 364.524 -3.89732 1.60271 0
M  V30 3859 H 363.199 -3.17043 0.653094 0
M  V30 3860 H 362.106 -2.42613 2.84763 0
M  V30 3861 H 363.439 -3.20699 3.7338 0
M  V30 3862 N 365.091 -1.34144 -0.827227 0
M  V30 3863 C 366.319 -1.29325 -1.61501 0
M  V30 3864 C 366.734 0.13354 -1.88327 0
M  V30 3865 O 366.091 1.0793 -1.47164 0
M  V30 3866 C 366.142 -2.07746 -2.95844 0
M  V30 3867 O 365.863 -3.4486 -2.70191 0
M  V30 3868 C 367.364 -2.10273 -3.90256 0
M  V30 3869 H 364.584 -0.445069 -0.50215 0
M  V30 3870 H 367.128 -1.76693 -1.02955 0
M  V30 3871 H 365.283 -1.6403 -3.5096 0
M  V30 3872 H 365.697 -3.85345 -3.55822 0
M  V30 3873 H 367.171 -2.69575 -4.81698 0
M  V30 3874 H 367.648 -1.096 -4.25305 0
M  V30 3875 H 368.254 -2.54059 -3.41078 0
M  V30 3876 N 366.569 1.04691 -1.17803 0
M  V30 3877 C 367.499 2.14494 -0.92275 0
M  V30 3878 C 368.48 1.69546 0.137179 0
M  V30 3879 O 369.665 1.94195 -0.0141108 0
M  V30 3880 C 366.795 3.44491 -0.440803 0
M  V30 3881 C 365.749 4.03031 -1.4405 0
M  V30 3882 C 365.075 5.28432 -0.81631 0
M  V30 3883 C 366.375 4.39932 -2.81527 0
M  V30 3884 H 368.069 2.36107 -1.84103 0
M  V30 3885 H 365.615 1.1347 -0.886599 0
M  V30 3886 H 367.568 4.2066 -0.249602 0
M  V30 3887 H 366.292 3.22546 0.513025 0
M  V30 3888 H 364.951 3.28937 -1.61853 0
M  V30 3889 H 364.599 5.02792 0.144511 0
M  V30 3890 H 364.299 5.68559 -1.48371 0
M  V30 3891 H 365.823 6.07284 -0.635496 0
M  V30 3892 H 367.237 5.07113 -2.67412 0
M  V30 3893 H 365.634 4.9109 -3.44892 0
M  V30 3894 H 366.704 3.50045 -3.35554 0
M  V30 3895 N 368.047 0.979072 1.23499 0
M  V30 3896 C 369.01 0.523244 2.23147 0
M  V30 3897 C 370.01 -0.386406 1.56088 0
M  V30 3898 O 371.2 -0.180283 1.73265 0
M  V30 3899 C 368.332 -0.240739 3.40049 0
M  V30 3900 H 369.525 1.40432 2.64989 0
M  V30 3901 H 367.078 0.764824 1.36309 0
M  V30 3902 H 367.813 -1.13841 3.03662 0
M  V30 3903 H 367.598 0.412207 3.89927 0
M  V30 3904 H 369.088 -0.548297 4.13985 0
M  V30 3905 N 369.525 -1.3858 0.750561 0
M  V30 3906 C 370.472 -2.30483 0.120835 0
M  V30 3907 C 371.442 -1.50022 -0.712923 0
M  V30 3908 O 372.627 -1.78662 -0.669676 0
M  V30 3909 C 369.767 -3.36431 -0.768666 0
M  V30 3910 C 368.88 -4.31927 0.0793922 0
M  V30 3911 C 368.015 -5.24944 -0.81283 0
M  V30 3912 C 367.054 -6.12088 0.0390447 0
M  V30 3913 N 366.191 -6.97412 -0.809969 0
M  V30 3914 H 371.031 -2.83761 0.91015 0
M  V30 3915 H 368.568 -1.39707 0.460463 0
M  V30 3916 H 370.526 -3.96462 -1.29898 0
M  V30 3917 H 369.156 -2.8457 -1.5238 0
M  V30 3918 H 368.208 -3.73382 0.727303 0
M  V30 3919 H 369.52 -4.93319 0.737401 0
M  V30 3920 H 368.674 -5.90078 -1.41042 0
M  V30 3921 H 367.413 -4.63911 -1.50458 0
M  V30 3922 H 366.418 -5.45952 0.649328 0
M  V30 3923 H 367.643 -6.75189 0.727809 0
M  V30 3924 H 365.589 -6.38931 -1.48672 0
M  V30 3925 H 365.506 -7.55712 -0.208789 0
M  V30 3926 H 366.774 -7.66959 -1.39263 0
M  V30 3927 N 371.003 -0.499398 -1.49478 0
M  V30 3928 C 371.913 0.284489 -2.32869 0
M  V30 3929 C 372.929 0.968885 -1.44529 0
M  V30 3930 O 374.105 0.95062 -1.77553 0
M  V30 3931 C 371.17 1.33594 -3.19928 0
M  V30 3932 C 370.231 0.665149 -4.24116 0
M  V30 3933 C 369.464 1.6665 -5.07014 0
M  V30 3934 O 369.687 2.89618 -4.91404 0
M  V30 3935 O 368.621 1.22271 -5.8935 0
M  V30 3936 H 372.447 -0.39802 -3.01081 0
M  V30 3937 H 370.032 -0.260758 -1.47107 0
M  V30 3938 H 371.914 1.94431 -3.73864 0
M  V30 3939 H 370.589 2.0014 -2.54412 0
M  V30 3940 H 369.496 0.0170769 -3.74096 0
M  V30 3941 H 370.829 0.0421555 -4.92182 0
M  V30 3942 N 372.481 1.55866 -0.233164 0
M  V30 3943 C 373.428 2.20796 0.67215 0
M  V30 3944 C 374.398 1.16731 1.18166 0
M  V30 3945 O 375.583 1.45129 1.23864 0
M  V30 3946 C 372.723 2.90072 1.86955 0
M  V30 3947 C 371.836 4.08759 1.39786 0
M  V30 3948 C 370.971 4.65787 2.55374 0
M  V30 3949 C 370.01 5.76752 2.04998 0
M  V30 3950 N 369.147 6.28021 3.13901 0
M  V30 3951 H 373.987 2.9779 0.111749 0
M  V30 3952 H 371.524 1.47036 0.0434007 0
M  V30 3953 H 373.482 3.28428 2.57276 0
M  V30 3954 H 372.112 2.15575 2.40265 0
M  V30 3955 H 371.164 3.7581 0.589173 0
M  V30 3956 H 372.476 4.88906 0.98856 0
M  V30 3957 H 371.63 5.06646 3.33758 0
M  V30 3958 H 370.369 3.84828 2.99598 0
M  V30 3959 H 369.374 5.35383 1.25079 0
M  V30 3960 H 370.599 6.59553 1.61759 0
M  V30 3961 H 368.545 5.49971 3.57586 0
M  V30 3962 H 368.462 7.03323 2.7726 0
M  V30 3963 H 369.73 6.73538 3.92386 0
M  V30 3964 N 373.959 -0.0401083 1.57549 0
M  V30 3965 C 375.207 -0.731677 1.8839 0
M  V30 3966 C 375.528 -1.76481 0.829425 0
M  V30 3967 O 374.798 -1.95411 -0.1383 0
M  V30 3968 H 373.378 -0.273225 0.695239 0
M  V30 3969 H 376.04 -0.00867725 1.94898 0
M  V30 3970 H 375.136 -1.22816 2.86919 0
M  V30 3971 N 375.437 -1.54477 -0.31217 0
M  V30 3972 C 376.37 -1.79519 -1.40884 0
M  V30 3973 C 377.348 -0.645753 -1.49227 0
M  V30 3974 O 378.532 -0.884468 -1.66461 0
M  V30 3975 C 375.659 -1.92194 -2.78889 0
M  V30 3976 C 374.705 -3.14555 -2.88023 0
M  V30 3977 S 375.538 -4.72893 -2.51262 0
M  V30 3978 C 376.694 -4.8849 -3.91317 0
M  V30 3979 H 376.927 -2.72256 -1.19432 0
M  V30 3980 H 374.46 -1.45746 -0.509654 0
M  V30 3981 H 376.418 -2.00182 -3.58382 0
M  V30 3982 H 375.079 -1.00414 -2.97617 0
M  V30 3983 H 374.272 -3.20193 -3.89221 0
M  V30 3984 H 373.874 -3.04955 -2.16514 0
M  V30 3985 H 376.166 -4.71826 -4.86196 0
M  V30 3986 H 377.109 -5.90588 -3.90656 0
M  V30 3987 H 377.517 -4.16715 -3.80801 0
M  V30 3988 N 376.915 0.57481 -1.46744 0
M  V30 3989 C 377.863 1.70435 -1.58286 0
M  V30 3990 C 378.857 1.63287 -0.450956 0
M  V30 3991 O 380.063 1.68685 -0.628121 0
M  V30 3992 H 376.438 0.56364 -0.497809 0
M  V30 3993 H 378.409 1.57833 -2.53242 0
M  V30 3994 C 377.158 3.08815 -1.59776 0
M  V30 3995 H 376.481 3.1499 -2.46214 0
M  V30 3996 H 377.921 3.87588 -1.71905 0
M  V30 3997 C 376.38 3.35301 -0.327812 0
M  V30 3998 O 376.91 3.97511 0.57861 0
M  V30 3999 N 375.116 2.89816 -0.213274 0
M  V30 4000 H 374.663 2.39371 -0.951798 0
M  V30 4001 H 374.621 3.0791 0.63553 0
M  V30 4002 N 378.394 1.34581 0.820102 0
M  V30 4003 C 379.81 1.14325 1.11364 0
M  V30 4004 C 380.01 -0.0533648 2.01429 0
M  V30 4005 O 379.066 -0.728044 2.41776 0
M  V30 4006 C 380.379 2.43983 1.75764 0
M  V30 4007 C 381.927 2.50065 1.88246 0
M  V30 4008 C 382.402 3.79732 2.56061 0
M  V30 4009 N 383.893 3.80908 2.63558 0
M  V30 4010 C 384.628 4.77961 3.16766 0
M  V30 4011 N 384.124 5.85397 3.70517 0
M  V30 4012 N 385.917 4.65413 3.15194 0
M  V30 4013 H 378.068 2.11246 0.221096 0
M  V30 4014 H 380.331 0.934289 0.160649 0
M  V30 4015 H 380.037 3.31651 1.1705 0
M  V30 4016 H 379.911 2.57531 2.75604 0
M  V30 4017 H 382.298 1.62834 2.46108 0
M  V30 4018 H 382.379 2.40442 0.873006 0
M  V30 4019 H 382.023 4.67354 1.98853 0
M  V30 4020 H 381.953 3.86639 3.57516 0
M  V30 4021 H 384.444 3.03274 2.25463 0
M  V30 4022 H 384.757 6.55463 4.09376 0
M  V30 4023 H 383.102 5.89107 3.68752 0
M  V30 4024 H 386.293 3.80627 2.72471 0
M  V30 4025 H 386.466 5.41216 3.56356 0
M  V30 4026 N 379.872 -1.04064 1.18357 0
M  V30 4027 C 381.149 -1.74252 0.888581 0
M  V30 4028 C 381.529 -2.02138 -0.60856 0
M  V30 4029 O 380.877 -1.66656 -1.56327 0
M  V30 4030 C 381.087 -3.0277 1.73584 0
M  V30 4031 C 382.435 -3.76506 1.96286 0
M  V30 4032 O 383.459 -3.12668 1.70637 0
M  V30 4033 O 382.318 -4.91243 2.39464 0
M  V30 4034 H 379.412 -0.758271 0.330082 0
M  V30 4035 H 381.958 -1.1013 1.2911 0
M  V30 4036 H 380.73 -2.78299 2.75073 0
M  V30 4037 H 380.353 -3.74631 1.33183 0
M  V30 4038 N 381.35 -0.985608 -1.22978 0
M  V30 4039 C 382.627 -0.573599 -1.87001 0
M  V30 4040 C 383.007 0.949213 -1.88555 0
M  V30 4041 O 382.355 1.82811 -1.37086 0
M  V30 4042 C 382.565 -1.18564 -3.28243 0
M  V30 4043 C 383.913 -1.28163 -4.04796 0
M  V30 4044 O 384.937 -1.13949 -3.37482 0
M  V30 4045 O 383.796 -1.50832 -5.25273 0
M  V30 4046 H 380.89 -0.193868 -0.803955 0
M  V30 4047 H 383.436 -1.08102 -1.30813 0
M  V30 4048 H 382.208 -2.22758 -3.21706 0
M  V30 4049 H 381.831 -0.663363 -3.92027 0
M  V30 4050 N 382.828 1.3818 -0.7579 0
M  V30 4051 C 384.244 1.5353 -0.435972 0
M  V30 4052 C 384.444 1.71961 1.05032 0
M  V30 4053 O 383.5 1.73307 1.83633 0
M  V30 4054 C 384.813 2.73989 -1.23898 0
M  V30 4055 C 386.361 2.87841 -1.22949 0
M  V30 4056 C 386.836 4.11266 -2.01554 0
M  V30 4057 N 388.327 4.18352 -1.98837 0
M  V30 4058 C 389.062 5.12856 -2.5645 0
M  V30 4059 N 388.558 6.13005 -3.22794 0
M  V30 4060 N 390.351 5.05238 -2.46356 0
M  V30 4061 H 382.502 1.24467 -1.7211 0
M  V30 4062 H 384.765 0.604982 -0.729864 0
M  V30 4063 H 384.471 2.66789 -2.29165 0
M  V30 4064 H 384.345 3.67294 -0.858764 0
M  V30 4065 H 386.732 2.9452 -0.184854 0
M  V30 4066 H 386.813 1.95534 -1.64924 0
M  V30 4067 H 386.457 4.05349 -3.06031 0
M  V30 4068 H 386.387 5.02661 -1.5697 0
M  V30 4069 H 388.878 3.46628 -1.50524 0
M  V30 4070 H 389.191 6.81619 -3.64165 0
M  V30 4071 H 387.536 6.13325 -3.2689 0
M  V30 4072 H 390.727 4.25938 -1.9415 0
M  V30 4073 H 390.9 5.78707 -2.91552 0
M  V30 4074 N 384.306 0.507319 1.49211 0
M  V30 4075 C 385.555 -0.0368315 2.01666 0
M  V30 4076 C 385.868 -1.37459 1.39156 0
M  V30 4077 O 387.074 -2.00579 1.82976 0
M  V30 4078 C 385.53 -0.116089 3.59713 0
M  V30 4079 C 385.138 1.2154 4.31198 0
M  V30 4080 C 386.882 -0.610268 4.2009 0
M  V30 4081 C 384.789 1.09796 5.81119 0
M  V30 4082 H 383.719 -0.0175376 0.753796 0
M  V30 4083 H 386.37 0.647691 1.71689 0
M  V30 4084 H 384.752 -0.8652 3.86433 0
M  V30 4085 H 385.926 1.9783 4.16173 0
M  V30 4086 H 384.241 1.64352 3.82593 0
M  V30 4087 H 386.838 -0.715742 5.29888 0
M  V30 4088 H 387.181 -1.61064 3.8388 0
M  V30 4089 H 387.714 0.0824916 3.97714 0
M  V30 4090 H 384.453 2.0728 6.21864 0
M  V30 4091 H 383.973 0.376058 5.9862 0
M  V30 4092 H 385.652 0.779281 6.4229 0
M  V30 4093 N 385.784 -1.5574 0.241426 0
M  V30 4094 C 386.734 -2.17803 -0.674233 0
M  V30 4095 C 387.718 -1.13225 -1.14319 0
M  V30 4096 O 388.91 -1.39153 -1.09387 0
M  V30 4097 C 386.039 -2.87682 -1.87333 0
M  V30 4098 C 385.125 -3.99509 -1.42313 0
M  V30 4099 N 385.516 -5.01115 -0.686798 0
M  V30 4100 C 383.814 -4.11964 -1.70885 0
M  V30 4101 C 384.515 -5.79922 -0.454456 0
M  V30 4102 N 383.491 -5.34001 -1.01705 0
M  V30 4103 H 387.293 -2.93718 -0.103447 0
M  V30 4104 H 384.807 -1.62342 0.0435095 0
M  V30 4105 H 386.804 -3.3057 -2.54026 0
M  V30 4106 H 385.464 -2.13269 -2.4484 0
M  V30 4107 H 386.475 -5.16799 -0.337459 0
M  V30 4108 H 383.152 -3.48718 -2.2957 0
M  V30 4109 H 384.542 -6.71768 0.132992 0
M  V30 4110 N 387.262 0.0317525 -1.57568 0
M  V30 4111 C 388.51 0.721676 -1.88776 0
M  V30 4112 C 388.831 1.76039 -0.838772 0
M  V30 4113 O 388.101 1.95482 0.127935 0
M  V30 4114 H 386.681 0.269534 -0.696678 0
M  V30 4115 H 389.343 -0.00165879 -1.949 0
M  V30 4116 H 388.439 1.21293 -2.87566 0
M  V30 4117 N 388.74 1.54641 0.303973 0
M  V30 4118 C 389.703 1.84646 1.35789 0
M  V30 4119 C 390.703 0.7192 1.4382 0
M  V30 4120 O 391.893 0.987491 1.43507 0
M  V30 4121 C 389.025 2.02407 2.74307 0
M  V30 4122 H 390.218 2.78829 1.10429 0
M  V30 4123 H 387.771 1.46658 0.540487 0
M  V30 4124 H 388.506 1.10502 3.04893 0
M  V30 4125 H 388.291 2.84453 2.69868 0
M  V30 4126 H 389.781 2.27002 3.50514 0
M  V30 4127 N 390.218 -0.567019 1.47046 0
M  V30 4128 C 391.148 -1.68482 1.61667 0
M  V30 4129 C 392.129 -1.6358 0.466418 0
M  V30 4130 O 393.314 -1.81354 0.694574 0
M  V30 4131 C 390.444 -3.07124 1.62148 0
M  V30 4132 C 389.398 -3.26867 2.76301 0
M  V30 4133 C 388.724 -4.66196 2.61849 0
M  V30 4134 C 390.024 -3.13186 4.17986 0
M  V30 4135 H 391.718 -1.56502 2.5524 0
M  V30 4136 H 389.264 -0.751486 1.22836 0
M  V30 4137 H 391.217 -3.8516 1.70968 0
M  V30 4138 H 389.941 -3.2004 0.651287 0
M  V30 4139 H 388.6 -2.51237 2.66975 0
M  V30 4140 H 388.248 -4.75898 1.62879 0
M  V30 4141 H 387.948 -4.80356 3.38425 0
M  V30 4142 H 389.472 -5.46379 2.72584 0
M  V30 4143 H 390.886 -3.81049 4.2834 0
M  V30 4144 H 389.283 -3.3886 4.95272 0
M  V30 4145 H 390.353 -2.10057 4.3704 0
M  V30 4146 N 391.696 -1.35014 -0.812953 0
M  V30 4147 C 392.626 -1.30069 -1.93919 0
M  V30 4148 C 393.607 -0.176275 -1.69184 0
M  V30 4149 O 394.792 -0.370227 -1.90638 0
M  V30 4150 C 391.922 -1.06547 -3.30552 0
M  V30 4151 C 390.876 -2.15561 -3.69753 0
M  V30 4152 C 390.202 -1.77214 -5.04479 0
M  V30 4153 C 391.502 -3.57476 -3.808 0
M  V30 4154 H 393.196 -2.24303 -1.98314 0
M  V30 4155 H 390.742 -1.07977 -0.952736 0
M  V30 4156 H 392.695 -1.01729 -4.08937 0
M  V30 4157 H 391.419 -0.0875719 -3.26483 0
M  V30 4158 H 390.078 -2.19466 -2.9365 0
M  V30 4159 H 389.726 -0.780589 -4.96906 0
M  V30 4160 H 389.426 -2.50184 -5.31678 0
M  V30 4161 H 390.95 -1.7391 -5.8531 0
M  V30 4162 H 392.364 -3.55929 -4.4943 0
M  V30 4163 H 390.761 -4.29152 -4.19462 0
M  V30 4164 H 391.831 -3.94091 -2.82525 0
M  V30 4165 N 393.175 1.03435 -1.18907 0
M  V30 4166 C 394.424 1.76143 -0.982669 0
M  V30 4167 C 394.737 1.89416 0.487953 0
M  V30 4168 O 395.943 2.59041 0.813036 0
M  V30 4169 C 394.399 3.16722 -1.70924 0
M  V30 4170 C 394.007 3.11522 -3.21959 0
M  V30 4171 C 395.751 3.93764 -1.58588 0
M  V30 4172 C 393.658 4.46999 -3.87228 0
M  V30 4173 H 392.588 0.660292 -0.364047 0
M  V30 4174 H 395.239 1.158 -1.42347 0
M  V30 4175 H 393.621 3.775 -1.19623 0
M  V30 4176 H 394.795 2.60158 -3.80335 0
M  V30 4177 H 393.11 2.47978 -3.34508 0
M  V30 4178 H 395.707 4.93963 -2.04707 0
M  V30 4179 H 396.05 4.12794 -0.539142 0
M  V30 4180 H 396.583 3.39576 -2.07203 0
M  V30 4181 H 393.322 4.33174 -4.91976 0
M  V30 4182 H 392.842 4.98441 -3.33642 0
M  V30 4183 H 394.521 5.15898 -3.90459 0
M  V30 4184 N 394.653 0.992116 1.22453 0
M  V30 4185 C 395.583 0.561677 2.26644 0
M  V30 4186 C 396.564 -0.411055 1.65059 0
M  V30 4187 O 397.749 -0.301861 1.9184 0
M  V30 4188 C 394.879 -0.125247 3.47074 0
M  V30 4189 C 393.833 0.765948 4.21091 0
M  V30 4190 C 393.159 -0.0538484 5.34673 0
M  V30 4191 C 394.459 2.06242 4.79856 0
M  V30 4192 H 396.153 1.43259 2.62902 0
M  V30 4193 H 393.699 0.690283 1.26377 0
M  V30 4194 H 395.652 -0.437764 4.1912 0
M  V30 4195 H 394.376 -1.03069 3.0991 0
M  V30 4196 H 393.035 1.0621 3.50878 0
M  V30 4197 H 392.683 -0.960188 4.9375 0
M  V30 4198 H 392.383 0.539415 5.85119 0
M  V30 4199 H 393.907 -0.360477 6.09535 0
M  V30 4200 H 395.321 1.8139 5.43848 0
M  V30 4201 H 393.718 2.60444 5.40638 0
M  V30 4202 H 394.788 2.74167 3.99951 0
M  V30 4203 N 396.131 -1.37776 0.765217 0
M  V30 4204 C 397.079 -2.32209 0.134798 0
M  V30 4205 C 398.073 -1.54607 -0.692315 0
M  V30 4206 O 399.279 -1.70052 -0.590109 0
M  V30 4207 H 395.654 -0.751591 0.0248005 0
M  V30 4208 H 397.625 -2.8297 0.947119 0
M  V30 4209 C 396.374 -3.39841 -0.735063 0
M  V30 4210 H 395.697 -3.99654 -0.107991 0
M  V30 4211 H 397.137 -4.08296 -1.14326 0
M  V30 4212 C 395.596 -2.79378 -1.88281 0
M  V30 4213 O 396.126 -2.69608 -2.97783 0
M  V30 4214 N 394.332 -2.37016 -1.68142 0
M  V30 4215 H 393.879 -2.45162 -0.790772 0
M  V30 4216 H 393.837 -1.96905 -2.45104 0
M  V30 4217 N 397.609 -0.515225 -1.4894 0
M  V30 4218 C 398.519 0.259774 -2.33157 0
M  V30 4219 C 399.535 0.953501 -1.45548 0
M  V30 4220 O 400.711 0.931735 -1.78552 0
M  V30 4221 C 397.776 1.30193 -3.21326 0
M  V30 4222 C 396.837 0.620129 -4.24797 0
M  V30 4223 C 396.07 1.61263 -5.08753 0
M  V30 4224 O 396.293 2.84389 -4.94448 0
M  V30 4225 O 395.227 1.16013 -5.90614 0
M  V30 4226 H 399.053 -0.429932 -3.00641 0
M  V30 4227 H 396.638 -0.276346 -1.46822 0
M  V30 4228 H 398.52 1.90455 -3.75905 0
M  V30 4229 H 397.195 1.97431 -2.56521 0
M  V30 4230 H 396.102 -0.0226019 -3.74093 0
M  V30 4231 H 397.435 -0.0100493 -4.92199 0
M  V30 4232 N 399.087 1.5561 -0.249682 0
M  V30 4233 C 400.017 2.24477 0.642826 0
M  V30 4234 C 400.998 1.22601 1.17911 0
M  V30 4235 O 402.183 1.5126 1.21795 0
M  V30 4236 C 399.313 2.94638 1.83863 0
M  V30 4237 C 398.267 4.03227 1.435 0
M  V30 4238 C 397.593 4.60828 2.71186 0
M  V30 4239 C 398.893 5.18796 0.604002 0
M  V30 4240 H 400.587 2.99321 0.0685625 0
M  V30 4241 H 398.133 1.43965 0.0315363 0
M  V30 4242 H 400.086 3.41517 2.46868 0
M  V30 4243 H 398.81 2.17287 2.43832 0
M  V30 4244 H 397.469 3.57121 0.828275 0
M  V30 4245 H 397.117 3.80174 3.29358 0
M  V30 4246 H 396.817 5.34132 2.44901 0
M  V30 4247 H 398.341 5.10442 3.35084 0
M  V30 4248 H 399.755 5.61883 1.13842 0
M  V30 4249 H 398.152 5.98506 0.437097 0
M  V30 4250 H 399.222 4.83384 -0.383147 0
M  V30 4251 N 400.565 -0.0233959 1.57583 0
M  V30 4252 C 401.811 -0.714119 1.89811 0
M  V30 4253 C 402.144 -1.74702 0.848113 0
M  V30 4254 O 401.419 -1.94023 -0.136135 0
M  V30 4255 C 401.702 -1.37853 3.32669 0
M  V30 4256 C 401.555 -0.358764 4.48367 0
M  V30 4257 C 402.874 -2.31101 3.7454 0
M  V30 4258 H 399.993 -0.25814 0.690314 0
M  V30 4259 H 402.635 0.0230927 1.89986 0
M  V30 4260 H 400.785 -2.00689 3.3265 0
M  V30 4261 H 402.457 0.268115 4.6052 0
M  V30 4262 H 400.7 0.321387 4.32608 0
M  V30 4263 H 401.371 -0.862242 5.45224 0
M  V30 4264 H 403.847 -1.78304 3.75961 0
M  V30 4265 H 402.723 -2.74567 4.75294 0
M  V30 4266 H 402.984 -3.18018 3.0711 0
M  V30 4267 N 402.043 -1.548 -0.295768 0
M  V30 4268 C 403.459 -1.4613 -0.641722 0
M  V30 4269 C 403.659 -0.656771 -1.90496 0
M  V30 4270 O 402.715 -0.166547 -2.5195 0
M  V30 4271 C 404.028 -2.90141 -0.789852 0
M  V30 4272 C 405.576 -3.00216 -0.885396 0
M  V30 4273 C 406.051 -4.45434 -1.06548 0
M  V30 4274 N 407.542 -4.49166 -1.13156 0
M  V30 4275 C 408.277 -5.58717 -1.28929 0
M  V30 4276 N 407.773 -6.78182 -1.41567 0
M  V30 4277 N 409.566 -5.46415 -1.31859 0
M  V30 4278 H 401.717 -2.05574 0.534147 0
M  V30 4279 H 403.98 -0.931259 0.177372 0
M  V30 4280 H 403.686 -3.51635 0.0675598 0
M  V30 4281 H 403.56 -3.37859 -1.67724 0
M  V30 4282 H 405.947 -2.38833 -1.73329 0
M  V30 4283 H 406.028 -2.55787 0.0261185 0
M  V30 4284 H 405.672 -5.07413 -0.222335 0
M  V30 4285 H 405.602 -4.87499 -1.9913 0
M  V30 4286 H 408.093 -3.631 -1.04721 0
M  V30 4287 H 408.406 -7.57428 -1.53372 0
M  V30 4288 H 406.751 -6.81037 -1.38613 0
M  V30 4289 H 409.942 -4.5203 -1.21601 0
M  V30 4290 H 410.115 -6.31841 -1.43808 0
M  V30 4291 N 403.521 0.559213 -1.47345 0
M  V30 4292 C 404.77 1.31281 -1.53128 0
M  V30 4293 C 405.083 1.94602 -0.197344 0
M  V30 4294 O 406.289 2.71173 -0.133154 0
M  V30 4295 C 404.745 2.38051 -2.69925 0
M  V30 4296 C 404.353 1.8093 -4.0984 0
M  V30 4297 C 406.097 3.14604 -2.84999 0
M  V30 4298 C 404.004 2.85468 -5.1794 0
M  V30 4299 H 402.934 0.493614 -0.569966 0
M  V30 4300 H 405.585 0.594155 -1.73615 0
M  V30 4301 H 403.967 3.12822 -2.42814 0
M  V30 4302 H 405.141 1.12544 -4.46845 0
M  V30 4303 H 403.456 1.16967 -3.99634 0
M  V30 4304 H 406.053 3.92666 -3.62929 0
M  V30 4305 H 406.396 3.68665 -1.93369 0
M  V30 4306 H 406.929 2.46945 -3.1187 0
M  V30 4307 H 403.668 2.36264 -6.1144 0
M  V30 4308 H 403.188 3.52269 -4.85455 0
M  V30 4309 H 404.867 3.48996 -5.44803 0
M  V30 4310 N 404.999 1.35443 0.805782 0
M  V30 4311 C 406.224 1.32037 1.59941 0
M  V30 4312 C 406.649 -0.0994215 1.87837 0
M  V30 4313 O 406.007 -1.06648 1.46615 0
M  V30 4314 C 406.055 2.13354 2.90711 0
M  V30 4315 O 405.159 1.5148 3.83572 0
M  V30 4316 H 404.5 0.452666 0.485787 0
M  V30 4317 H 407.03 1.78496 1.00002 0
M  V30 4318 H 407.04 2.25338 3.40128 0
M  V30 4319 H 405.715 3.16572 2.69732 0
M  V30 4320 H 404.292 1.4834 3.42125 0
M  V30 4321 N 406.477 -1.02803 1.19454 0
M  V30 4322 C 407.702 -1.80378 1.02364 0
M  V30 4323 C 408.127 -1.83282 -0.423007 0
M  V30 4324 O 407.485 -1.25945 -1.30413 0
M  V30 4325 C 407.533 -3.23248 1.59821 0
M  V30 4326 O 406.637 -4.04 0.828105 0
M  V30 4327 H 405.978 -0.556799 0.361761 0
M  V30 4328 H 408.508 -1.29385 1.58495 0
M  V30 4329 H 408.518 -3.73994 1.63073 0
M  V30 4330 H 407.193 -3.2045 2.65113 0
M  V30 4331 H 405.77 -3.62635 0.86891 0
M  V30 4332 N 407.956 -0.998596 -1.21925 0
M  V30 4333 C 408.889 -0.498517 -2.22688 0
M  V30 4334 C 409.867 0.444301 -1.56412 0
M  V30 4335 O 411.051 0.368518 -1.84863 0
M  V30 4336 C 408.178 0.276639 -3.37568 0
M  V30 4337 C 407.224 -0.61302 -4.22071 0
M  V30 4338 S 408.057 -2.07168 -4.93803 0
M  V30 4339 C 409.213 -1.30617 -6.12119 0
M  V30 4340 H 409.446 -1.35234 -2.64762 0
M  V30 4341 H 406.979 -0.806018 -1.31692 0
M  V30 4342 H 408.937 0.717817 -4.04175 0
M  V30 4343 H 407.598 1.10581 -2.93991 0
M  V30 4344 H 406.791 -0.0162909 -5.03997 0
M  V30 4345 H 406.393 -0.991202 -3.60626 0
M  V30 4346 H 408.685 -0.57675 -6.75041 0
M  V30 4347 H 409.628 -2.10091 -6.76215 0
M  V30 4348 H 410.036 -0.816957 -5.58557 0
M  V30 4349 N 409.434 1.37368 -0.772513 0
M  V30 4350 C 410.344 2.34053 -0.160081 0
M  V30 4351 C 411.36 1.60216 0.678728 0
M  V30 4352 O 412.536 1.92303 0.59847 0
M  V30 4353 C 409.601 3.3939 0.708182 0
M  V30 4354 C 408.662 4.29048 -0.147172 0
M  V30 4355 C 407.895 5.29354 0.679744 0
M  V30 4356 O 408.118 5.3723 1.91678 0
M  V30 4357 O 407.052 6.01835 0.0885444 0
M  V30 4358 H 410.878 2.88159 -0.959053 0
M  V30 4359 H 408.463 1.39543 -0.533685 0
M  V30 4360 H 410.345 4.03839 1.20384 0
M  V30 4361 H 409.02 2.8761 1.48533 0
M  V30 4362 H 407.927 3.67697 -0.689205 0
M  V30 4363 H 409.26 4.84134 -0.887423 0
M  V30 4364 N 410.912 0.523116 1.48665 0
M  V30 4365 C 412.16 -0.0134497 2.02096 0
M  V30 4366 C 412.481 -1.35418 1.40311 0
M  V30 4367 O 411.751 -1.87543 0.566074 0
M  V30 4368 H 410.331 -0.00795915 0.746958 0
M  V30 4369 H 412.993 0.685388 1.82451 0
M  V30 4370 H 412.089 -0.126849 3.11842 0
M  V30 4371 N 412.39 -1.55475 0.257931 0
M  V30 4372 C 413.3 -2.2549 -0.647425 0
M  V30 4373 C 414.316 -1.2748 -1.18427 0
M  V30 4374 O 415.492 -1.6038 -1.2182 0
M  V30 4375 C 412.557 -2.94916 -1.82278 0
M  V30 4376 C 411.618 -4.08363 -1.32432 0
M  V30 4377 C 410.851 -4.74469 -2.44366 0
M  V30 4378 O 411.074 -4.39701 -3.63344 0
M  V30 4379 O 410.008 -5.62763 -2.13497 0
M  V30 4380 H 413.834 -3.03593 -0.0807707 0
M  V30 4381 H 411.419 -1.49377 0.0259962 0
M  V30 4382 H 413.301 -3.38606 -2.50846 0
M  V30 4383 H 411.976 -2.19744 -2.37685 0
M  V30 4384 H 410.883 -3.69166 -0.605605 0
M  V30 4385 H 412.216 -4.85385 -0.816211 0
M  V30 4386 N 413.868 0.0150385 -1.57593 0
M  V30 4387 C 415.284 0.370907 -1.5523 0
M  V30 4388 C 415.484 1.75735 -0.985882 0
M  V30 4389 O 414.54 2.44944 -0.613077 0
M  V30 4390 C 415.853 0.259908 -2.99575 0
M  V30 4391 C 417.401 0.335959 -3.11192 0
M  V30 4392 C 417.876 0.254253 -4.57294 0
M  V30 4393 N 419.367 0.312618 -4.62144 0
M  V30 4394 C 420.102 0.272505 -5.72752 0
M  V30 4395 N 419.598 0.183864 -6.92556 0
M  V30 4396 N 421.391 0.323267 -5.6117 0
M  V30 4397 H 413.542 -0.892104 -1.92757 0
M  V30 4398 H 415.805 -0.340563 -0.884715 0
M  V30 4399 H 415.511 -0.693403 -3.44797 0
M  V30 4400 H 415.385 1.048 -3.62349 0
M  V30 4401 H 417.772 1.27971 -2.65909 0
M  V30 4402 H 417.853 -0.481739 -2.51223 0
M  V30 4403 H 417.497 -0.685887 -5.03247 0
M  V30 4404 H 417.427 1.09024 -5.15191 0
M  V30 4405 H 419.918 0.38307 -3.75953 0
M  V30 4406 H 420.231 0.15874 -7.72637 0
M  V30 4407 H 418.576 0.149708 -6.94839 0
M  V30 4408 H 421.767 0.390607 -4.66467 0
M  V30 4409 H 421.94 0.288539 -6.47357 0
M  V30 4410 N 415.346 1.54954 0.287554 0
M  V30 4411 C 416.276 1.89839 1.35954 0
M  V30 4412 C 417.257 0.758675 1.52244 0
M  V30 4413 O 418.442 1.01557 1.65529 0
M  V30 4414 C 415.572 2.15753 2.72154 0
M  V30 4415 C 414.526 3.3159 2.70614 0
M  V30 4416 C 413.852 3.42952 4.10229 0
M  V30 4417 C 415.152 4.68359 2.31165 0
M  V30 4418 H 416.846 2.79625 1.07007 0
M  V30 4419 H 414.392 1.3454 0.513316 0
M  V30 4420 H 416.345 2.38743 3.47246 0
M  V30 4421 H 415.069 1.22752 3.02654 0
M  V30 4422 H 413.728 3.08545 1.97979 0
M  V30 4423 H 413.376 2.47443 4.37928 0
M  V30 4424 H 413.076 4.20826 4.10097 0
M  V30 4425 H 414.6 3.68218 4.87081 0
M  V30 4426 H 416.014 4.9099 2.95976 0
M  V30 4427 H 414.411 5.49044 2.42221 0
M  V30 4428 H 415.481 4.68165 1.26291 0
M  V30 4429 N 416.824 -0.551391 1.4764 0
M  V30 4430 C 418.24 -0.877887 1.33287 0
M  V30 4431 C 418.44 -1.98817 0.327721 0
M  V30 4432 O 417.496 -2.51171 -0.258695 0
M  V30 4433 C 418.809 -1.26563 2.72768 0
M  V30 4434 C 420.357 -1.37673 2.81097 0
M  V30 4435 C 420.832 -1.79799 4.21232 0
M  V30 4436 N 422.323 -1.8694 4.23802 0
M  V30 4437 C 423.058 -2.20876 5.29151 0
M  V30 4438 N 422.554 -2.53386 6.448 0
M  V30 4439 N 424.347 -2.217 5.16532 0
M  V30 4440 H 416.498 0.18153 2.11623 0
M  V30 4441 H 418.761 0.0185514 0.947818 0
M  V30 4442 H 418.467 -0.523591 3.47781 0
M  V30 4443 H 418.341 -2.22052 3.04915 0
M  V30 4444 H 420.728 -2.10956 2.06353 0
M  V30 4445 H 420.809 -0.40357 2.52596 0
M  V30 4446 H 420.453 -1.07083 4.96483 0
M  V30 4447 H 420.383 -2.78128 4.4716 0
M  V30 4448 H 422.874 -1.64179 3.40373 0
M  V30 4449 H 423.187 -2.78325 7.20941 0
M  V30 4450 H 421.532 -2.50953 6.48111 0
M  V30 4451 H 424.723 -1.95745 4.25207 0
M  V30 4452 H 424.896 -2.47818 5.98741 0
M  V30 4453 N 418.302 -1.35869 -0.798587 0
M  V30 4454 C 419.212 -1.31578 -1.94228 0
M  V30 4455 C 420.228 -0.21939 -1.72611 0
M  V30 4456 O 421.404 -0.450167 -1.96305 0
M  V30 4457 C 418.469 -1.09528 -3.28944 0
M  V30 4458 C 417.53 -2.28556 -3.63402 0
M  V30 4459 C 416.763 -2.07549 -4.9169 0
M  V30 4460 O 416.986 -1.046 -5.60727 0
M  V30 4461 O 415.92 -2.95106 -5.24591 0
M  V30 4462 H 419.746 -2.27847 -2.00796 0
M  V30 4463 H 417.331 -1.16322 -0.937526 0
M  V30 4464 H 419.213 -0.991127 -4.09579 0
M  V30 4465 H 417.888 -0.16315 -3.23289 0
M  V30 4466 H 416.795 -2.44538 -2.83112 0
M  V30 4467 H 418.128 -3.20244 -3.73771 0
M  V30 4468 N 419.78 1.02168 -1.19998 0
M  V30 4469 C 420.69 2.14069 -0.959774 0
M  V30 4470 C 421.706 1.73804 0.082655 0
M  V30 4471 O 422.882 2.01133 -0.103633 0
M  V30 4472 C 419.947 3.42936 -0.509459 0
M  V30 4473 C 419.008 3.97474 -1.62213 0
M  V30 4474 C 418.241 5.2019 -1.19321 0
M  V30 4475 O 418.464 5.70369 -0.0597726 0
M  V30 4476 O 417.398 5.67749 -1.99863 0
M  V30 4477 H 421.224 2.37199 -1.89658 0
M  V30 4478 H 418.809 1.12469 -0.983411 0
M  V30 4479 H 420.691 4.20551 -0.267322 0
M  V30 4480 H 419.366 3.21234 0.398821 0
M  V30 4481 H 418.273 3.21161 -1.9185 0
M  V30 4482 H 419.606 4.23555 -2.50723 0
M  V30 4483 N 421.258 1.00505 1.21394 0
M  V30 4484 C 422.191 0.51032 2.22421 0
M  V30 4485 C 423.169 -0.436 1.56645 0
M  V30 4486 O 424.353 -0.358709 1.85055 0
M  V30 4487 C 421.48 -0.258733 3.3771 0
M  V30 4488 C 420.526 0.635395 4.2174 0
M  V30 4489 S 421.359 2.09783 4.92698 0
M  V30 4490 C 422.515 1.33862 6.11418 0
M  V30 4491 H 422.748 1.36637 2.64041 0
M  V30 4492 H 420.281 0.812991 1.31262 0
M  V30 4493 H 422.239 -0.696372 4.0455 0
M  V30 4494 H 420.9 -1.0902 2.94573 0
M  V30 4495 H 420.093 0.0430189 5.03982 0
M  V30 4496 H 419.695 1.01031 3.60095 0
M  V30 4497 H 421.987 0.612541 6.74725 0
M  V30 4498 H 422.93 2.13675 6.75092 0
M  V30 4499 H 423.338 0.846568 5.58116 0
M  V30 4500 N 422.737 -1.36956 0.779787 0
M  V30 4501 C 423.647 -2.33965 0.172491 0
M  V30 4502 C 424.663 -1.60574 -0.670222 0
M  V30 4503 O 425.839 -1.92617 -0.588263 0
M  V30 4504 C 422.904 -3.39761 -0.690173 0
M  V30 4505 C 421.965 -4.28964 0.169924 0
M  V30 4506 C 421.198 -5.29707 -0.651662 0
M  V30 4507 O 421.421 -5.38238 -1.88827 0
M  V30 4508 O 420.355 -6.01873 -0.0566264 0
M  V30 4509 H 424.181 -2.87647 0.974321 0
M  V30 4510 H 421.766 -1.39258 0.541078 0
M  V30 4511 H 423.648 -4.04471 -1.1824 0
M  V30 4512 H 422.323 -2.88394 -1.47006 0
M  V30 4513 H 421.23 -3.67326 0.708696 0
M  V30 4514 H 422.563 -4.83656 0.913085 0
M  V30 4515 N 424.215 -0.530993 -1.48385 0
M  V30 4516 C 425.125 0.23503 -2.3342 0
M  V30 4517 C 426.141 0.93801 -1.46552 0
M  V30 4518 O 427.317 0.912745 -1.7953 0
M  V30 4519 C 424.382 1.26778 -3.22689 0
M  V30 4520 C 423.443 0.575038 -4.25431 0
M  V30 4521 C 422.676 1.55858 -5.10435 0
M  V30 4522 O 422.899 2.79129 -4.97437 0
M  V30 4523 O 421.833 1.09742 -5.91811 0
M  V30 4524 H 425.659 -0.461794 -3.00169 0
M  V30 4525 H 423.244 -0.291903 -1.46521 0
M  V30 4526 H 425.126 1.86457 -3.77904 0
M  V30 4527 H 423.801 1.94699 -2.586 0
M  V30 4528 H 422.708 -0.0622782 -3.74048 0
M  V30 4529 H 424.041 -0.062253 -4.92161 0
M  V30 4530 N 425.693 1.55336 -0.266172 0
M  V30 4531 C 426.942 1.98574 0.353749 0
M  V30 4532 C 427.255 1.15789 1.57646 0
M  V30 4533 O 428.461 1.49129 2.26876 0
M  V30 4534 C 426.917 3.53403 0.680747 0
M  V30 4535 C 426.525 4.44953 -0.52165 0
M  V30 4536 C 428.269 4.05251 1.26379 0
M  V30 4537 C 426.176 5.91156 -0.169736 0
M  V30 4538 H 425.106 0.741643 0.135949 0
M  V30 4539 H 427.757 1.79743 -0.369421 0
M  V30 4540 H 426.139 3.68001 1.46257 0
M  V30 4541 H 427.313 4.42121 -1.29869 0
M  V30 4542 H 425.628 4.03691 -1.02093 0
M  V30 4543 H 428.225 5.12021 1.54074 0
M  V30 4544 H 428.568 3.53749 2.19471 0
M  V30 4545 H 429.101 3.94057 0.544447 0
M  V30 4546 H 425.84 6.46736 -1.0683 0
M  V30 4547 H 425.36 5.97079 0.570717 0
M  V30 4548 H 427.039 6.4655 0.241245 0
M  V30 4549 N 427.171 -0.0066808 1.57599 0
M  V30 4550 C 428.399 -0.704087 1.94551 0
M  V30 4551 C 428.814 -1.67677 0.867746 0
M  V30 4552 O 428.171 -1.8185 -0.153925 0
M  V30 4553 C 428.222 -1.44177 3.31505 0
M  V30 4554 O 427.943 -0.508097 4.35144 0
M  V30 4555 C 429.444 -2.23429 3.82876 0
M  V30 4556 H 426.664 -0.196523 0.641576 0
M  V30 4557 H 429.208 0.042453 2.04456 0
M  V30 4558 H 427.363 -2.13999 3.22929 0
M  V30 4559 H 427.777 -1.02782 5.14331 0
M  V30 4560 H 429.251 -2.70552 4.8115 0
M  V30 4561 H 429.728 -3.05818 3.15233 0
M  V30 4562 H 430.334 -1.58636 3.94607 0
M  V30 4563 N 428.649 -1.55105 -0.279332 0
M  V30 4564 C 429.581 -1.83952 -1.36727 0
M  V30 4565 C 430.594 -0.723642 -1.45833 0
M  V30 4566 O 431.783 -1.00141 -1.47763 0
M  V30 4567 C 428.883 -1.98183 -2.74912 0
M  V30 4568 C 428.056 -3.28787 -2.88475 0
M  V30 4569 C 427.115 -3.33162 -4.07295 0
M  V30 4570 O 426.141 -4.06576 -3.98353 0
M  V30 4571 N 427.343 -2.60109 -5.18964 0
M  V30 4572 H 430.108 -2.77853 -1.12328 0
M  V30 4573 H 427.669 -1.54945 -0.469442 0
M  V30 4574 H 429.661 -1.98488 -3.52682 0
M  V30 4575 H 428.231 -1.11177 -2.92162 0
M  V30 4576 H 427.451 -3.41075 -1.97641 0
M  V30 4577 H 428.739 -4.14933 -2.94463 0
M  V30 4578 H 428.137 -2.00136 -5.29115 0
M  V30 4579 H 426.694 -2.66143 -5.94988 0
M  V30 4580 N 430.127 0.543554 -1.4793 0
M  V30 4581 C 431.059 1.665 -1.57513 0
M  V30 4582 C 432.072 1.56156 -0.460333 0
M  V30 4583 O 433.261 1.62865 -0.730573 0
M  V30 4584 C 430.361 3.05063 -1.47614 0
M  V30 4585 C 429.534 3.41024 -2.739 0
M  V30 4586 C 428.593 4.58809 -2.57645 0
M  V30 4587 O 427.619 4.62707 -3.31498 0
M  V30 4588 N 428.821 5.56149 -1.66368 0
M  V30 4589 H 431.586 1.5872 -2.5422 0
M  V30 4590 H 429.147 0.730517 -1.44482 0
M  V30 4591 H 431.139 3.81712 -1.34455 0
M  V30 4592 H 429.709 3.06994 -0.589359 0
M  V30 4593 H 428.929 2.53687 -3.01723 0
M  V30 4594 H 430.217 3.61831 -3.57709 0
M  V30 4595 H 429.615 5.55767 -1.05543 0
M  V30 4596 H 428.172 6.32071 -1.59154 0
M  V30 4597 N 431.605 1.3629 0.791371 0
M  V30 4598 C 432.537 1.26321 1.91248 0
M  V30 4599 C 433.55 0.18313 1.61767 0
M  V30 4600 O 434.739 0.437682 1.73051 0
M  V30 4601 C 431.839 0.925901 3.26007 0
M  V30 4602 C 431.012 2.10746 3.83281 0
M  V30 4603 C 430.071 1.74352 4.96475 0
M  V30 4604 O 429.097 2.46416 5.13096 0
M  V30 4605 N 430.299 0.676058 5.7655 0
M  V30 4606 H 433.064 2.22915 2.00323 0
M  V30 4607 H 430.625 1.29659 0.969546 0
M  V30 4608 H 432.617 0.663636 3.99222 0
M  V30 4609 H 431.187 0.0491581 3.12561 0
M  V30 4610 H 430.407 2.53264 3.02077 0
M  V30 4611 H 431.695 2.8969 4.18279 0
M  V30 4612 H 431.093 0.0776467 5.65647 0
M  V30 4613 H 429.65 0.473612 6.50077 0
M  V30 4614 N 433.083 -1.0153 1.20538 0
M  V30 4615 C 434.013 -2.11972 0.979295 0
M  V30 4616 C 434.994 -1.6985 -0.0921787 0
M  V30 4617 O 436.179 -1.94089 0.0655932 0
M  V30 4618 C 433.309 -3.43201 0.531984 0
M  V30 4619 C 432.263 -3.9907 1.54685 0
M  V30 4620 C 431.589 -5.26082 0.956127 0
M  V30 4621 C 432.889 -4.32313 2.93092 0
M  V30 4622 H 434.583 -2.31143 1.90298 0
M  V30 4623 H 432.129 -1.11079 0.916372 0
M  V30 4624 H 434.082 -4.1985 0.361044 0
M  V30 4625 H 432.806 -3.23792 -0.427327 0
M  V30 4626 H 431.465 -3.2453 1.70517 0
M  V30 4627 H 431.113 -5.02999 -0.0111538 0
M  V30 4628 H 430.813 -5.64426 1.63393 0
M  V30 4629 H 432.337 -6.05386 0.796284 0
M  V30 4630 H 433.751 -4.99845 2.80763 0
M  V30 4631 H 432.148 -4.81774 3.57791 0
M  V30 4632 H 433.218 -3.41025 3.44717 0
M  V30 4633 N 434.561 -1.01147 -1.20859 0
M  V30 4634 C 435.807 -0.698899 -1.90377 0
M  V30 4635 C 436.14 0.76904 -1.78324 0
M  V30 4636 O 435.415 1.55817 -1.16409 0
M  V30 4637 C 435.698 -1.12878 -3.41951 0
M  V30 4638 C 435.551 -2.65665 -3.62963 0
M  V30 4639 C 436.87 -0.696114 -4.3456 0
M  V30 4640 H 433.989 -0.255372 -0.691342 0
M  V30 4641 H 436.631 -1.25831 -1.42361 0
M  V30 4642 H 434.781 -0.652827 -3.82976 0
M  V30 4643 H 436.453 -3.21074 -3.31224 0
M  V30 4644 H 434.696 -3.06878 -3.06608 0
M  V30 4645 H 435.367 -2.90797 -4.69192 0
M  V30 4646 H 437.843 -1.10521 -4.01154 0
M  V30 4647 H 436.719 -1.025 -5.39245 0
M  V30 4648 H 436.98 0.402465 -4.40264 0
M  V30 4649 N 436.039 1.36541 -0.78704 0
M  V30 4650 C 436.989 2.27459 -0.156957 0
M  V30 4651 C 437.973 1.46843 0.657709 0
M  V30 4652 O 439.165 1.69245 0.518173 0
M  V30 4653 C 436.294 3.35893 0.709278 0
M  V30 4654 C 435.38 4.23947 -0.114049 0
M  V30 4655 N 435.771 4.92145 -1.16736 0
M  V30 4656 C 434.069 4.4587 0.107497 0
M  V30 4657 C 434.77 5.57261 -1.66837 0
M  V30 4658 N 433.746 5.3473 -0.977992 0
M  V30 4659 H 437.548 2.77669 -0.963185 0
M  V30 4660 H 435.062 1.49839 -0.62627 0
M  V30 4661 H 437.059 3.99953 1.17656 0
M  V30 4662 H 435.719 2.87238 1.51408 0
M  V30 4663 H 436.73 4.94169 -1.54976 0
M  V30 4664 H 433.407 4.08056 0.882994 0
M  V30 4665 H 434.797 6.21728 -2.54762 0
M  V30 4666 N 437.518 0.538854 1.48102 0
M  V30 4667 C 438.795 -0.0568108 1.95517 0
M  V30 4668 C 439.175 -1.50408 1.48124 0
M  V30 4669 O 438.523 -2.17133 0.711727 0
M  V30 4670 C 438.733 0.0696262 3.48931 0
M  V30 4671 C 440.081 -0.0851202 4.24515 0
M  V30 4672 O 441.105 -0.0037347 3.562 0
M  V30 4673 O 439.964 -0.257025 5.45895 0
M  V30 4674 H 437.058 -0.0743695 0.823649 0
M  V30 4675 H 439.604 0.604081 1.58584 0
M  V30 4676 H 438.376 1.07744 3.76174 0
M  V30 4677 H 437.999 -0.629714 3.92582 0
M  V30 4678 N 438.996 -1.55193 0.274407 0
M  V30 4679 C 439.943 -2.225 -0.613374 0
M  V30 4680 C 440.913 -1.19823 -1.15029 0
M  V30 4681 O 442.098 -1.48362 -1.19973 0
M  V30 4682 C 439.238 -2.94927 -1.79199 0
M  V30 4683 C 438.351 -4.12322 -1.28899 0
M  V30 4684 C 437.486 -4.72394 -2.42934 0
M  V30 4685 C 436.525 -5.81984 -1.89634 0
M  V30 4686 N 435.662 -6.36123 -2.9714 0
M  V30 4687 H 440.502 -2.97982 -0.032756 0
M  V30 4688 H 438.039 -1.47099 -0.00440146 0
M  V30 4689 H 439.997 -3.35134 -2.48478 0
M  V30 4690 H 438.627 -2.2187 -2.34465 0
M  V30 4691 H 437.679 -3.7724 -0.489327 0
M  V30 4692 H 438.991 -4.91355 -0.858587 0
M  V30 4693 H 438.145 -5.15317 -3.20208 0
M  V30 4694 H 436.884 -3.92636 -2.8929 0
M  V30 4695 H 435.889 -5.38511 -1.1084 0
M  V30 4696 H 437.114 -6.6361 -1.44215 0
M  V30 4697 H 435.06 -5.59259 -3.42878 0
M  V30 4698 H 434.977 -7.10427 -2.58515 0
M  V30 4699 H 436.245 -6.83704 -3.74391 0
M  V30 4700 N 440.474 -0.00167713 -1.576 0
M  V30 4701 C 441.704 0.692754 -1.94639 0
M  V30 4702 C 442.112 1.67744 -0.87513 0
M  V30 4703 O 441.455 1.8305 0.154382 0
M  V30 4704 C 441.517 1.47881 -3.27676 0
M  V30 4705 C 441.181 0.655518 -4.52274 0
M  V30 4706 C 442.178 -0.0575214 -5.19868 0
M  V30 4707 C 439.863 0.600994 -4.98692 0
M  V30 4708 C 441.857 -0.814052 -6.3218 0
M  V30 4709 C 439.544 -0.15926 -6.10892 0
M  V30 4710 C 440.542 -0.865515 -6.77494 0
M  V30 4711 O 440.23 -1.61336 -7.87544 0
M  V30 4712 H 439.962 0.197792 -0.646417 0
M  V30 4713 H 442.516 -0.049423 -2.05341 0
M  V30 4714 H 440.746 2.2655 -3.13388 0
M  V30 4715 H 442.435 2.05874 -3.49816 0
M  V30 4716 H 443.201 -0.0245611 -4.84994 0
M  V30 4717 H 439.08 1.14025 -4.46676 0
M  V30 4718 H 442.624 -1.36584 -6.84098 0
M  V30 4719 H 438.521 -0.194035 -6.45208 0
M  V30 4720 H 439.289 -1.53025 -8.04068 0
M  V30 4721 N 441.952 1.55251 0.271103 0
M  V30 4722 C 443.192 1.77698 1.01008 0
M  V30 4723 C 443.556 0.567246 1.83429 0
M  V30 4724 O 444.757 0.670013 2.60316 0
M  V30 4725 C 443.028 3.04715 1.86772 0
M  V30 4726 S 444.587 3.48289 2.66909 0
M  V30 4727 H 441.405 0.624343 0.340172 0
M  V30 4728 H 444.007 1.9348 0.280315 0
M  V30 4729 H 442.711 3.90853 1.25149 0
M  V30 4730 H 442.242 2.91604 2.64066 0
M  V30 4731 H 444.257 3.07712 3.89266 0
M  V30 4732 N 443.43 -0.535701 1.48216 0
M  V30 4733 C 444.377 -1.64083 1.62312 0
M  V30 4734 C 445.347 -1.59448 0.465365 0
M  V30 4735 O 446.532 -1.77959 0.688135 0
M  V30 4736 C 443.672 -3.0236 1.66349 0
M  V30 4737 C 442.785 -3.17273 2.93193 0
M  V30 4738 C 441.92 -4.46075 2.88427 0
M  V30 4739 C 440.959 -4.54496 4.1 0
M  V30 4740 N 440.096 -5.7468 4.03345 0
M  V30 4741 H 444.936 -1.51374 2.5669 0
M  V30 4742 H 442.473 -0.737059 1.27302 0
M  V30 4743 H 444.431 -3.82461 1.66672 0
M  V30 4744 H 443.061 -3.13854 0.754672 0
M  V30 4745 H 442.113 -2.30462 3.02641 0
M  V30 4746 H 443.425 -3.19357 3.83162 0
M  V30 4747 H 442.579 -5.3446 2.87119 0
M  V30 4748 H 441.318 -4.46504 1.96177 0
M  V30 4749 H 440.323 -3.64519 4.11589 0
M  V30 4750 H 441.548 -4.5581 5.03402 0
M  V30 4751 H 439.494 -5.76017 3.13912 0
M  V30 4752 H 439.411 -5.78234 4.87013 0
M  V30 4753 H 440.679 -6.65367 4.06087 0
M  V30 4754 N 444.908 -1.36708 -0.784132 0
M  V30 4755 C 446.185 -1.21776 -1.53069 0
M  V30 4756 C 446.565 0.193876 -2.10208 0
M  V30 4757 O 445.913 1.20012 -1.94446 0
M  V30 4758 C 446.123 -2.30395 -2.62143 0
M  V30 4759 C 447.471 -2.67325 -3.29882 0
M  V30 4760 O 448.495 -2.29478 -2.7243 0
M  V30 4761 O 447.354 -3.32485 -4.33724 0
M  V30 4762 H 444.448 -0.474459 -0.677361 0
M  V30 4763 H 446.994 -1.48454 -0.82216 0
M  V30 4764 H 445.766 -3.2498 -2.17953 0
M  V30 4765 H 445.389 -2.05112 -3.40609 0
M  V30 4766 N 446.386 1.0089 -1.21074 0
M  V30 4767 C 447.316 2.1145 -0.990523 0
M  V30 4768 C 448.297 1.69897 0.0831699 0
M  V30 4769 O 449.482 1.94052 -0.0758853 0
M  V30 4770 C 446.612 3.42914 -0.550177 0
M  V30 4771 C 445.566 3.98244 -1.56799 0
M  V30 4772 C 444.892 5.25568 -0.984013 0
M  V30 4773 C 446.192 4.30752 -2.95381 0
M  V30 4774 H 447.886 2.3013 -1.91521 0
M  V30 4775 H 445.432 1.10592 -0.92225 0
M  V30 4776 H 447.385 4.19653 -0.383305 0
M  V30 4777 H 446.109 3.24014 0.41015 0
M  V30 4778 H 444.768 3.23621 -1.72236 0
M  V30 4779 H 444.416 5.02998 -0.0155216 0
M  V30 4780 H 444.116 5.63551 -1.66384 0
M  V30 4781 H 445.64 6.04955 -0.828378 0
M  V30 4782 H 447.054 4.98349 -2.8341 0
M  V30 4783 H 445.451 4.79869 -3.60341 0
M  V30 4784 H 446.521 3.39192 -3.46521 0
M  V30 4785 N 447.864 1.01787 1.20321 0
M  V30 4786 C 448.797 0.533882 2.21867 0
M  V30 4787 C 449.775 -0.419361 1.57099 0
M  V30 4788 O 450.959 -0.339062 1.85426 0
M  V30 4789 C 448.086 -0.222899 3.37966 0
M  V30 4790 C 447.132 0.680091 4.21043 0
M  V30 4791 S 447.965 2.14997 4.90445 0
M  V30 4792 C 449.121 1.40339 6.09964 0
M  V30 4793 H 449.354 1.39429 2.62577 0
M  V30 4794 H 446.887 0.826867 1.30393 0
M  V30 4795 H 448.845 -0.653425 4.05266 0
M  V30 4796 H 447.506 -1.0589 2.95713 0
M  V30 4797 H 446.699 0.0964704 5.03908 0
M  V30 4798 H 446.301 1.04845 3.59004 0
M  V30 4799 H 448.593 0.68407 6.74038 0
M  V30 4800 H 449.536 2.20823 6.72787 0
M  V30 4801 H 449.944 0.905716 5.57187 0
M  V30 4802 N 449.342 -1.36122 0.79427 0
M  V30 4803 C 450.59 -1.98718 0.368177 0
M  V30 4804 C 450.911 -1.63345 -1.06506 0
M  V30 4805 O 450.181 -0.909825 -1.73491 0
M  V30 4806 H 448.761 -0.735038 0.133146 0
M  V30 4807 H 451.423 -1.66239 1.01739 0
M  V30 4808 H 450.519 -3.08633 0.463923 0
M  V30 4809 N 450.82 -0.546701 -1.47814 0
M  V30 4810 C 452.067 -0.0187407 -2.02491 0
M  V30 4811 C 452.395 1.32685 -1.42215 0
M  V30 4812 O 451.65 1.87413 -0.563454 0
M  V30 4813 C 451.949 0.134869 -3.57145 0
M  V30 4814 C 451.615 -1.13849 -4.3629 0
M  V30 4815 C 450.277 -1.48743 -4.57634 0
M  V30 4816 C 452.629 -1.98277 -4.82012 0
M  V30 4817 C 449.957 -2.67932 -5.21948 0
M  V30 4818 C 452.309 -3.16659 -5.4764 0
M  V30 4819 C 450.973 -3.51879 -5.67219 0
M  V30 4820 H 450.243 -0.0068577 -0.740968 0
M  V30 4821 H 452.89 -0.716097 -1.77607 0
M  V30 4822 H 451.195 0.915118 -3.80963 0
M  V30 4823 H 452.892 0.558556 -3.97091 0
M  V30 4824 H 449.482 -0.856767 -4.19949 0
M  V30 4825 H 453.666 -1.72628 -4.6531 0
M  V30 4826 H 448.922 -2.95401 -5.35302 0
M  V30 4827 H 453.096 -3.82374 -5.82033 0
M  V30 4828 H 450.723 -4.44331 -6.16825 0
M  V30 4829 N 452.299 1.55045 -0.282633 0
M  V30 4830 C 453.547 1.99365 0.331334 0
M  V30 4831 C 453.868 1.1725 1.55812 0
M  V30 4832 O 453.138 0.263871 1.94115 0
M  V30 4833 H 451.718 0.736397 0.125414 0
M  V30 4834 H 454.38 1.90964 -0.389711 0
M  V30 4835 H 453.476 3.0596 0.616036 0
M  V30 4836 N 453.777 0.010035 1.57597 0
M  V30 4837 C 455.005 -0.683413 1.95287 0
M  V30 4838 C 455.42 -1.66747 0.885481 0
M  V30 4839 O 454.777 -1.82003 -0.134629 0
M  V30 4840 C 454.828 -1.40652 3.33015 0
M  V30 4841 O 454.549 -0.461916 4.35658 0
M  V30 4842 C 456.05 -2.19356 3.85225 0
M  V30 4843 H 453.27 -0.189708 0.643624 0
M  V30 4844 H 455.814 0.0641359 2.04399 0
M  V30 4845 H 453.969 -2.10562 3.2518 0
M  V30 4846 H 454.383 -0.973215 5.15392 0
M  V30 4847 H 455.857 -2.65433 4.83993 0
M  V30 4848 H 456.334 -3.02457 3.18459 0
M  V30 4849 H 456.94 -1.54442 3.96267 0
M  V30 4850 N 455.255 -1.55392 -0.262866 0
M  V30 4851 C 456.202 -1.88966 -1.32516 0
M  V30 4852 C 457.172 -0.742187 -1.48596 0
M  V30 4853 O 458.357 -0.99439 -1.62839 0
M  V30 4854 C 455.497 -2.17592 -2.67858 0
M  V30 4855 C 454.61 -3.45061 -2.59917 0
M  V30 4856 C 453.745 -3.63336 -3.87505 0
M  V30 4857 C 452.784 -4.84462 -3.74116 0
M  V30 4858 N 451.921 -4.99342 -4.93561 0
M  V30 4859 H 456.761 -2.79566 -1.03184 0
M  V30 4860 H 454.298 -1.38404 -0.498285 0
M  V30 4861 H 456.256 -2.3219 -3.46617 0
M  V30 4862 H 454.886 -1.30215 -2.95371 0
M  V30 4863 H 453.938 -3.38881 -1.72812 0
M  V30 4864 H 455.25 -4.3396 -2.45926 0
M  V30 4865 H 454.404 -3.77807 -4.74707 0
M  V30 4866 H 453.143 -2.72641 -4.04374 0
M  V30 4867 H 452.148 -4.69985 -2.85297 0
M  V30 4868 H 453.373 -5.76603 -3.58757 0
M  V30 4869 H 451.319 -4.1158 -5.10821 0
M  V30 4870 H 451.236 -5.82303 -4.82141 0
M  V30 4871 H 452.504 -5.18208 -5.82306 0
M  V30 4872 N 456.733 0.527833 -1.48498 0
M  V30 4873 C 458.144 1.10975 -1.50138 0
M  V30 4874 C 458.495 1.943 -0.272378 0
M  V30 4875 O 457.62 2.07319 0.620301 0
M  V30 4876 C 458.215 2.01927 -2.72049 0
M  V30 4877 C 456.774 2.55332 -2.76554 0
M  V30 4878 C 455.921 1.32341 -2.43683 0
M  V30 4879 H 458.872 0.312986 -1.55583 0
M  V30 4880 H 458.893 2.86244 -2.50689 0
M  V30 4881 H 458.405 1.41254 -3.61481 0
M  V30 4882 H 456.506 3.19721 -1.91336 0
M  V30 4883 H 456.619 2.94319 -3.78038 0
M  V30 4884 H 454.983 1.63989 -1.94884 0
M  V30 4885 H 455.766 0.734165 -3.35358 0
M  V30 4886 N 458.211 1.37122 0.776871 0
M  V30 4887 C 459.627 1.1781 1.07671 0
M  V30 4888 C 459.827 0.0107454 2.01497 0
M  V30 4889 O 458.883 -0.650756 2.4397 0
M  V30 4890 C 460.196 2.49451 1.67913 0
M  V30 4891 C 461.744 2.55927 1.80195 0
M  V30 4892 C 462.219 3.87686 2.43851 0
M  V30 4893 N 463.71 3.891 2.51307 0
M  V30 4894 C 464.445 4.87797 3.014 0
M  V30 4895 N 463.941 5.96888 3.51705 0
M  V30 4896 N 465.734 4.75205 3.00227 0
M  V30 4897 H 457.885 2.11843 0.153778 0
M  V30 4898 H 460.148 0.938927 0.130844 0
M  V30 4899 H 459.854 3.35207 1.06439 0
M  V30 4900 H 459.728 2.66169 2.67271 0
M  V30 4901 H 462.115 1.70582 2.40803 0
M  V30 4902 H 462.196 2.43097 0.796069 0
M  V30 4903 H 461.84 4.73444 1.83884 0
M  V30 4904 H 461.77 3.97817 3.45035 0
M  V30 4905 H 464.261 3.10293 2.157 0
M  V30 4906 H 464.574 6.68155 3.88316 0
M  V30 4907 H 462.919 6.0054 3.49824 0
M  V30 4908 H 466.11 3.89103 2.60224 0
M  V30 4909 H 466.283 5.52279 3.38957 0
M  V30 4910 N 459.689 -1.00246 1.21608 0
M  V30 4911 C 460.639 -2.07492 0.945051 0
M  V30 4912 C 461.623 -1.60585 -0.100675 0
M  V30 4913 O 462.815 -1.76667 0.10859 0
M  V30 4914 C 459.944 -3.39425 0.514342 0
M  V30 4915 C 459.03 -3.92993 1.59428 0
M  V30 4916 N 459.421 -4.19898 2.81991 0
M  V30 4917 C 457.719 -4.21297 1.46374 0
M  V30 4918 C 458.42 -4.63297 3.51754 0
M  V30 4919 N 457.396 -4.66421 2.79199 0
M  V30 4920 H 461.198 -2.26222 1.87619 0
M  V30 4921 H 458.712 -1.18339 1.11219 0
M  V30 4922 H 460.709 -4.15808 0.301527 0
M  V30 4923 H 459.369 -3.22101 -0.410008 0
M  V30 4924 H 460.38 -4.08377 3.1851 0
M  V30 4925 H 457.057 -4.13095 0.604863 0
M  V30 4926 H 458.447 -4.92816 4.56708 0
M  V30 4927 N 461.167 -1.02423 -1.1978 0
M  V30 4928 C 462.416 -0.713265 -1.88667 0
M  V30 4929 C 462.729 0.7609 -1.80193 0
M  V30 4930 O 463.935 1.18473 -2.44288 0
M  V30 4931 C 462.391 -1.22545 -3.38394 0
M  V30 4932 C 461.999 -2.72706 -3.55437 0
M  V30 4933 C 463.743 -0.990257 -4.12788 0
M  V30 4934 C 461.65 -3.17367 -4.99031 0
M  V30 4935 H 460.58 -0.263105 -0.706606 0
M  V30 4936 H 463.231 -1.23792 -1.35454 0
M  V30 4937 H 461.613 -0.628732 -3.90977 0
M  V30 4938 H 462.787 -3.37993 -3.13205 0
M  V30 4939 H 461.102 -2.94453 -2.94425 0
M  V30 4940 H 463.699 -1.29926 -5.18675 0
M  V30 4941 H 464.042 0.0730761 -4.16236 0
M  V30 4942 H 464.575 -1.55074 -3.66329 0
M  V30 4943 H 461.314 -4.23009 -5.00743 0
M  V30 4944 H 460.834 -2.56805 -5.42044 0
M  V30 4945 H 462.513 -3.10441 -5.67658 0
M  V30 4946 N 462.645 1.35699 -0.801477 0
M  V30 4947 C 463.873 2.03157 -0.391768 0
M  V30 4948 C 464.288 1.60412 0.995668 0
M  V30 4949 O 463.645 0.799228 1.64069 0
M  V30 4950 C 463.696 3.58566 -0.459671 0
M  V30 4951 O 463.417 3.99756 -1.7924 0
M  V30 4952 C 464.918 4.4328 -0.0421205 0
M  V30 4953 H 462.138 0.651688 -0.159825 0
M  V30 4954 H 464.682 1.73426 -1.08368 0
M  V30 4955 H 462.837 3.86963 0.183939 0
M  V30 4956 H 463.251 4.94387 -1.75162 0
M  V30 4957 H 464.725 5.51821 -0.140754 0
M  V30 4958 H 465.202 4.27383 1.01196 0
M  V30 4959 H 465.808 4.20168 -0.658687 0
M  V30 4960 N 464.123 0.554532 1.47522 0
M  V30 4961 C 465.534 0.120446 1.86311 0
M  V30 4962 C 465.885 -1.30904 1.46145 0
M  V30 4963 O 465.01 -1.98434 0.863294 0
M  V30 4964 C 465.605 0.211808 3.38137 0
M  V30 4965 C 464.164 -0.167224 3.76028 0
M  V30 4966 C 463.311 0.560576 2.71575 0
M  V30 4967 H 466.262 0.764408 1.39077 0
M  V30 4968 H 466.283 -0.570275 3.76202 0
M  V30 4969 H 465.795 1.25232 3.6734 0
M  V30 4970 H 463.896 -1.20894 3.52442 0
M  V30 4971 H 464.009 0.189473 4.78725 0
M  V30 4972 H 462.373 0.00396836 2.547 0
M  V30 4973 H 463.156 1.60219 3.0362 0
M  V30 4974 N 465.601 -1.54893 0.290851 0
M  V30 4975 C 466.848 -1.99933 -0.321391 0
M  V30 4976 C 467.176 -1.17927 -1.54672 0
M  V30 4977 O 466.431 -0.240902 -1.94212 0
M  V30 4978 C 466.73 -3.49815 -0.732397 0
M  V30 4979 C 466.396 -4.4921 0.390056 0
M  V30 4980 C 465.058 -4.76107 0.698223 0
M  V30 4981 C 467.41 -5.08453 1.14562 0
M  V30 4982 C 464.738 -5.59514 1.76526 0
M  V30 4983 C 467.09 -5.9302 2.2025 0
M  V30 4984 C 465.754 -6.18232 2.51684 0
M  V30 4985 H 465.024 -0.731608 -0.117605 0
M  V30 4986 H 467.671 -1.87107 0.407839 0
M  V30 4987 H 465.976 -3.60199 -1.54155 0
M  V30 4988 H 467.673 -3.82083 -1.21712 0
M  V30 4989 H 464.263 -4.28372 0.13976 0
M  V30 4990 H 468.447 -4.87683 0.920801 0
M  V30 4991 H 463.703 -5.77289 2.01364 0
M  V30 4992 H 467.877 -6.37955 2.7926 0
M  V30 4993 H 465.504 -6.82653 3.34499 0
M  V30 4994 N 467.08 -0.0183926 -1.57589 0
M  V30 4995 C 468.308 0.673046 -1.95647 0
M  V30 4996 C 468.723 1.66275 -0.894312 0
M  V30 4997 O 468.08 1.82072 0.124975 0
M  V30 4998 C 468.131 1.38884 -3.33756 0
M  V30 4999 O 467.852 0.438806 -4.35897 0
M  V30 5000 C 469.353 2.1731 -3.86383 0
M  V30 5001 H 466.573 0.186292 -0.644621 0
M  V30 5002 H 469.117 -0.0749748 -2.04363 0
M  V30 5003 H 467.272 2.08835 -3.26293 0
M  V30 5004 H 467.686 0.945869 -5.15901 0
M  V30 5005 H 469.16 2.62863 -4.85394 0
M  V30 5006 H 469.637 3.00764 -3.20059 0
M  V30 5007 H 470.243 1.52339 -3.97081 0
M  V30 5008 N 468.558 1.5553 0.254621 0
M  V30 5009 C 469.783 1.81383 1.00573 0
M  V30 5010 C 470.208 0.594419 1.78461 0
M  V30 5011 O 469.566 -0.456403 1.75461 0
M  V30 5012 C 469.614 3.04892 1.92545 0
M  V30 5013 O 468.718 2.81266 3.01601 0
M  V30 5014 H 468.059 0.598969 0.286587 0
M  V30 5015 H 470.589 2.02703 0.277952 0
M  V30 5016 H 470.599 3.34119 2.34155 0
M  V30 5017 H 469.274 3.93287 1.3527 0
M  V30 5018 H 467.851 2.63185 2.64174 0
M  V30 5019 N 470.036 -0.519951 1.48776 0
M  V30 5020 C 471.283 -1.27522 1.57303 0
M  V30 5021 C 471.611 -1.92869 0.251328 0
M  V30 5022 O 470.866 -1.80372 -0.759243 0
M  V30 5023 C 471.165 -2.37864 2.6675 0
M  V30 5024 C 470.831 -1.90103 4.08867 0
M  V30 5025 C 469.493 -1.76795 4.47546 0
M  V30 5026 C 471.845 -1.54133 4.97888 0
M  V30 5027 C 469.173 -1.25868 5.73039 0
M  V30 5028 C 471.525 -1.04665 6.23881 0
M  V30 5029 C 470.189 -0.899823 6.61407 0
M  V30 5030 H 469.459 -0.466636 0.575614 0
M  V30 5031 H 472.106 -0.579109 1.82534 0
M  V30 5032 H 470.411 -3.13186 2.35418 0
M  V30 5033 H 472.108 -2.95969 2.70561 0
M  V30 5034 H 468.698 -2.01414 3.78326 0
M  V30 5035 H 472.882 -1.6327 4.68675 0
M  V30 5036 H 468.138 -1.13196 6.0083 0
M  V30 5037 H 472.312 -0.759074 6.92251 0
M  V30 5038 H 469.939 -0.503011 7.58534 0
M  V30 5039 N 471.514 -1.37532 -0.769588 0
M  V30 5040 C 472.446 -1.29347 -1.89214 0
M  V30 5041 C 473.459 -0.208842 -1.61455 0
M  V30 5042 O 474.648 -0.465158 -1.72333 0
M  V30 5043 C 471.748 -0.977649 -3.24492 0
M  V30 5044 C 470.921 -2.16817 -3.7988 0
M  V30 5045 C 469.98 -1.82229 -4.93639 0
M  V30 5046 O 469.006 -2.54548 -5.09111 0
M  V30 5047 N 470.208 -0.767696 -5.75401 0
M  V30 5048 H 472.973 -2.26073 -1.96751 0
M  V30 5049 H 470.534 -1.31185 -0.948795 0
M  V30 5050 H 472.526 -0.727065 -3.98115 0
M  V30 5051 H 471.096 -0.0988777 -3.12444 0
M  V30 5052 H 470.316 -2.58038 -2.9801 0
M  V30 5053 H 471.604 -2.96308 -4.13617 0
M  V30 5054 H 471.002 -0.167626 -5.65452 0
M  V30 5055 H 469.559 -0.576973 -6.49241 0
M  V30 5056 N 472.992 0.995999 -1.22138 0
M  V30 5057 C 473.955 2.06711 -0.990109 0
M  V30 5058 C 474.955 1.60744 0.0422978 0
M  V30 5059 O 476.145 1.73095 -0.195895 0
M  V30 5060 C 473.277 3.37288 -0.49491 0
M  V30 5061 H 474.47 2.28661 -1.94047 0
M  V30 5062 H 472.023 1.16711 -1.03963 0
M  V30 5063 H 472.758 3.21022 0.459948 0
M  V30 5064 H 472.543 3.71986 -1.23971 0
M  V30 5065 H 474.033 4.16103 -0.353253 0
M  V30 5066 N 474.47 1.03057 1.19235 0
M  V30 5067 C 475.716 0.729098 1.89241 0
M  V30 5068 C 476.049 -0.740573 1.79525 0
M  V30 5069 O 475.324 -1.53946 1.18874 0
M  V30 5070 C 475.607 1.18304 3.40112 0
M  V30 5071 C 475.46 2.71406 3.5869 0
M  V30 5072 C 476.779 0.765161 4.33397 0
M  V30 5073 H 473.898 0.266338 0.687192 0
M  V30 5074 H 476.54 1.28079 1.40341 0
M  V30 5075 H 474.69 0.713672 3.81889 0
M  V30 5076 H 476.362 3.26303 3.26074 0
M  V30 5077 H 474.605 3.11717 3.01687 0
M  V30 5078 H 475.276 2.98225 4.64506 0
M  V30 5079 H 477.752 1.16889 3.99345 0
M  V30 5080 H 476.628 1.11065 5.37546 0
M  V30 5081 H 476.889 -0.332372 4.40849 0
M  V30 5082 N 475.948 -1.35272 0.808662 0
M  V30 5083 C 476.88 -2.28507 0.178149 0
M  V30 5084 C 477.893 -1.50377 -0.623754 0
M  V30 5085 O 479.082 -1.72583 -0.455774 0
M  V30 5086 C 476.182 -3.30038 -0.769959 0
M  V30 5087 C 475.355 -4.37398 -0.0139749 0
M  V30 5088 C 474.414 -5.18775 -0.880875 0
M  V30 5089 O 473.44 -5.68236 -0.331059 0
M  V30 5090 N 474.642 -5.37087 -2.20267 0
M  V30 5091 H 477.407 -2.83255 0.979106 0
M  V30 5092 H 474.968 -1.47643 0.664308 0
M  V30 5093 H 476.96 -3.81371 -1.35418 0
M  V30 5094 H 475.53 -2.75789 -1.47171 0
M  V30 5095 H 474.75 -3.86971 0.751468 0
M  V30 5096 H 476.038 -5.06268 0.506965 0
M  V30 5097 H 475.436 -4.9855 -2.67328 0
M  V30 5098 H 473.993 -5.91593 -2.73608 0
M  V30 5099 N 477.426 -0.562348 -1.47226 0
M  V30 5100 C 478.837 -0.130325 -1.86245 0
M  V30 5101 C 479.188 1.30128 -1.46838 0
M  V30 5102 O 478.313 1.97974 -0.873805 0
M  V30 5103 C 478.908 -0.229738 -3.3802 0
M  V30 5104 C 477.467 0.14728 -3.76112 0
M  V30 5105 C 476.614 -0.574971 -2.71274 0
M  V30 5106 H 479.565 -0.771773 -1.3867 0
M  V30 5107 H 479.586 0.550316 -3.76499 0
M  V30 5108 H 479.098 -1.27178 -3.66671 0
M  V30 5109 H 477.199 1.19023 -3.53078 0
M  V30 5110 H 477.312 -0.214858 -4.78618 0
M  V30 5111 H 475.676 -0.0174756 -2.54694 0
M  V30 5112 H 476.459 -1.61827 -3.02766 0
M  V30 5113 N 478.904 1.54736 -0.299062 0
M  V30 5114 C 479.836 2.20891 0.61153 0
M  V30 5115 C 480.849 1.20104 1.09904 0
M  V30 5116 O 482.038 1.46707 1.01683 0
M  V30 5117 C 479.138 2.84018 1.84897 0
M  V30 5118 C 478.311 4.10719 1.50428 0
M  V30 5119 C 477.37 4.57667 2.59667 0
M  V30 5120 O 476.396 5.2291 2.24842 0
M  V30 5121 N 477.598 4.29821 3.90172 0
M  V30 5122 H 480.363 2.99666 0.0452001 0
M  V30 5123 H 477.924 1.61446 -0.121178 0
M  V30 5124 H 479.916 3.1236 2.5732 0
M  V30 5125 H 478.486 2.09095 2.32375 0
M  V30 5126 H 477.706 3.89408 0.612781 0
M  V30 5127 H 478.994 4.93223 1.24934 0
M  V30 5128 H 478.392 3.77549 4.21276 0
M  V30 5129 H 476.949 4.62877 4.58899 0
M  V30 5130 N 480.382 0.0267497 1.57577 0
M  V30 5131 C 481.314 -0.984594 2.06974 0
M  V30 5132 C 482.327 -1.29032 0.992705 0
M  V30 5133 O 483.516 -1.25539 1.26895 0
M  V30 5134 C 480.616 -2.31262 2.47732 0
M  V30 5135 C 479.789 -2.1924 3.78487 0
M  V30 5136 C 478.848 -3.34956 4.05821 0
M  V30 5137 O 477.874 -3.11948 4.76106 0
M  V30 5138 N 479.076 -4.58672 3.55809 0
M  V30 5139 H 481.841 -0.563143 2.94362 0
M  V30 5140 H 479.402 -0.160061 1.61107 0
M  V30 5141 H 481.394 -3.07496 2.63112 0
M  V30 5142 H 479.964 -2.65056 1.65723 0
M  V30 5143 H 479.184 -1.27747 3.72927 0
M  V30 5144 H 480.472 -2.08409 4.64158 0
M  V30 5145 H 479.87 -4.8026 2.98942 0
M  V30 5146 H 478.427 -5.32083 3.76472 0
M  V30 5147 N 481.861 -1.55662 -0.24637 0
M  V30 5148 C 483.086 -1.81914 -0.996093 0
M  V30 5149 C 483.511 -0.603875 -1.78143 0
M  V30 5150 O 482.869 0.447091 -1.75701 0
M  V30 5151 C 482.917 -3.05908 -1.90925 0
M  V30 5152 O 482.021 -2.82861 -3.00105 0
M  V30 5153 H 481.362 -0.600481 -0.283406 0
M  V30 5154 H 483.892 -2.02848 -0.267199 0
M  V30 5155 H 483.902 -3.35356 -2.3238 0
M  V30 5156 H 482.577 -3.93999 -1.33183 0
M  V30 5157 H 481.154 -2.64583 -2.62775 0
M  V30 5158 N 483.339 0.512053 -1.4905 0
M  V30 5159 C 484.287 1.63568 -1.65373 0
M  V30 5160 C 485.281 1.61228 -0.519806 0
M  V30 5161 O 486.487 1.65869 -0.699101 0
M  V30 5162 H 482.862 0.542019 -0.521267 0
M  V30 5163 H 484.833 1.4695 -2.59708 0
M  V30 5164 C 483.582 3.01761 -1.7273 0
M  V30 5165 H 482.905 3.04263 -2.59353 0
M  V30 5166 H 484.345 3.79948 -1.8819 0
M  V30 5167 C 482.804 3.33609 -0.46973 0
M  V30 5168 O 483.334 3.99607 0.409492 0
M  V30 5169 N 481.54 2.88651 -0.336003 0
M  V30 5170 H 481.087 2.35119 -1.05247 0
M  V30 5171 H 481.045 3.10328 0.504363 0
M  V30 5172 N 484.817 1.37938 0.762283 0
M  V30 5173 C 485.78 1.34279 1.85747 0
M  V30 5174 C 486.78 0.244969 1.58923 0
M  V30 5175 O 487.97 0.501365 1.66829 0
M  V30 5176 C 485.102 1.08833 3.23061 0
M  V30 5177 H 486.295 2.31705 1.90401 0
M  V30 5178 H 483.848 1.23105 0.963057 0
M  V30 5179 H 484.583 0.119767 3.24079 0
M  V30 5180 H 484.368 1.88306 3.43923 0
M  V30 5181 H 485.858 1.08946 4.03138 0
M  V30 5182 N 486.295 -0.989507 1.22664 0
M  V30 5183 C 487.225 -2.09847 1.02404 0
M  V30 5184 C 488.206 -1.70007 -0.0561303 0
M  V30 5185 O 489.391 -1.93906 0.106748 0
M  V30 5186 C 486.521 -3.41996 0.604663 0
M  V30 5187 C 485.475 -3.95699 1.63115 0
M  V30 5188 C 484.801 -5.23936 1.0675 0
M  V30 5189 C 486.101 -4.25999 3.02196 0
M  V30 5190 H 487.795 -2.27054 1.95158 0
M  V30 5191 H 485.341 -1.09111 0.939727 0
M  V30 5192 H 487.294 -4.1899 0.45002 0
M  V30 5193 H 486.018 -3.24626 -0.35855 0
M  V30 5194 H 484.677 -3.2084 1.77362 0
M  V30 5195 H 484.325 -5.02909 0.0955422 0
M  V30 5196 H 484.025 -5.60833 1.75328 0
M  V30 5197 H 485.549 -6.0356 0.924516 0
M  V30 5198 H 486.963 -4.93777 2.91303 0
M  V30 5199 H 485.36 -4.74076 3.67929 0
M  V30 5200 H 486.43 -3.33636 3.51873 0
M  V30 5201 N 487.773 -1.03688 -1.18687 0
M  V30 5202 C 489.019 -0.739123 -1.88851 0
M  V30 5203 C 489.352 0.731042 -1.79915 0
M  V30 5204 O 488.627 1.53313 -1.19688 0
M  V30 5205 C 488.91 -1.20106 -3.3948 0
M  V30 5206 C 488.763 -2.73304 -3.57246 0
M  V30 5207 C 490.082 -0.788134 -4.32986 0
M  V30 5208 H 487.201 -0.269978 -0.68577 0
M  V30 5209 H 489.843 -1.28822 -1.3966 0
M  V30 5210 H 487.993 -0.733915 -3.81505 0
M  V30 5211 H 489.665 -3.28027 -3.24339 0
M  V30 5212 H 487.908 -3.13313 -3.00029 0
M  V30 5213 H 488.579 -3.00684 -4.62918 0
M  V30 5214 H 491.055 -1.19005 -3.98719 0
M  V30 5215 H 489.931 -1.13915 -5.36949 0
M  V30 5216 H 490.192 0.308988 -4.41019 0
M  V30 5217 N 489.251 1.34841 -0.815825 0
M  V30 5218 C 490.499 1.98107 -0.399744 0
M  V30 5219 C 490.82 1.65019 1.03894 0
M  V30 5220 O 490.09 0.937311 1.72021 0
M  V30 5221 H 488.67 0.732827 -0.144823 0
M  V30 5222 H 491.332 1.64599 -1.0437 0
M  V30 5223 H 490.428 3.07856 -0.512965 0
M  V30 5224 N 490.729 0.570148 1.46925 0
M  V30 5225 C 491.659 -0.158274 2.32963 0
M  V30 5226 C 492.64 -0.896093 1.44583 0
M  V30 5227 O 493.825 -0.874022 1.7342 0
M  V30 5228 C 490.955 -1.18055 3.26619 0
M  V30 5229 C 489.909 -0.558379 4.24342 0
M  V30 5230 C 489.235 -1.68623 5.07415 0
M  V30 5231 C 490.535 0.496295 5.19937 0
M  V30 5232 H 492.229 0.560046 2.94115 0
M  V30 5233 H 489.775 0.270775 1.41431 0
M  V30 5234 H 491.728 -1.69841 3.85658 0
M  V30 5235 H 490.452 -1.92899 2.63548 0
M  V30 5236 H 489.111 -0.0617157 3.66548 0
M  V30 5237 H 488.759 -2.42402 4.40738 0
M  V30 5238 H 488.459 -1.27564 5.73586 0
M  V30 5239 H 489.983 -2.20709 5.69315 0
M  V30 5240 H 491.397 0.0640052 5.73264 0
M  V30 5241 H 489.794 0.82649 5.94381 0
M  V30 5242 H 490.864 1.38735 4.6463 0
M  V30 5243 N 492.207 -1.54576 0.307264 0
M  V30 5244 C 493.137 -2.26708 -0.55907 0
M  V30 5245 C 494.118 -1.26893 -1.1328 0
M  V30 5246 O 495.303 -1.55677 -1.16097 0
M  V30 5247 C 492.433 -3.01259 -1.72801 0
M  V30 5248 C 491.387 -4.08275 -1.28435 0
M  V30 5249 C 490.713 -4.70575 -2.53895 0
M  V30 5250 C 492.013 -5.2068 -0.411038 0
M  V30 5251 H 493.707 -2.9937 0.042576 0
M  V30 5252 H 491.253 -1.43983 0.0219173 0
M  V30 5253 H 493.206 -3.50444 -2.34023 0
M  V30 5254 H 491.93 -2.26187 -2.356 0
M  V30 5255 H 490.589 -3.59949 -0.695161 0
M  V30 5256 H 490.237 -3.92136 -3.15021 0
M  V30 5257 H 489.937 -5.42854 -2.24908 0
M  V30 5258 H 491.461 -5.22527 -3.15908 0
M  V30 5259 H 492.875 -5.65721 -0.929097 0
M  V30 5260 H 491.272 -5.99716 -0.214664 0
M  V30 5261 H 492.342 -4.81629 0.562287 0
M  V30 5262 N 493.685 -0.035106 -1.57561 0
M  V30 5263 C 494.933 0.64096 -1.91667 0
M  V30 5264 C 495.254 1.72323 -0.912681 0
M  V30 5265 O 494.524 1.95849 0.0449089 0
M  V30 5266 H 493.104 0.239743 -0.707483 0
M  V30 5267 H 495.766 -0.084321 -1.94718 0
M  V30 5268 H 494.862 1.08987 -2.92452 0
M  V30 5269 N 495.163 1.55791 0.238111 0
M  V30 5270 C 496.393 1.81834 0.980809 0
M  V30 5271 C 496.801 0.609741 1.79106 0
M  V30 5272 O 496.144 -0.431073 1.78571 0
M  V30 5273 C 496.206 3.01363 1.96011 0
M  V30 5274 C 495.87 4.37037 1.33597 0
M  V30 5275 C 496.867 5.14692 0.734063 0
M  V30 5276 C 494.552 4.83743 1.3527 0
M  V30 5277 C 496.546 6.37206 0.157208 0
M  V30 5278 C 494.233 6.06204 0.77199 0
M  V30 5279 C 495.231 6.82775 0.175282 0
M  V30 5280 O 494.919 8.02922 -0.396432 0
M  V30 5281 H 494.651 0.6088 0.293834 0
M  V30 5282 H 497.205 2.03702 0.263552 0
M  V30 5283 H 495.435 2.75273 2.71591 0
M  V30 5284 H 497.124 3.14422 2.56697 0
M  V30 5285 H 497.89 4.79722 0.713582 0
M  V30 5286 H 493.769 4.24129 1.80653 0
M  V30 5287 H 497.313 6.96915 -0.30917 0
M  V30 5288 H 493.21 6.4065 0.789828 0
M  V30 5289 H 493.978 8.17989 -0.289145 0
M  V30 5290 N 496.642 -0.504142 1.49319 0
M  V30 5291 C 497.867 -1.28729 1.62615 0
M  V30 5292 C 498.292 -1.85752 0.296309 0
M  V30 5293 O 497.65 -1.65704 -0.735649 0
M  V30 5294 C 497.698 -2.39561 2.69524 0
M  V30 5295 O 496.802 -3.43324 2.28478 0
M  V30 5296 H 496.143 -0.380172 0.544395 0
M  V30 5297 H 498.673 -0.603872 1.95485 0
M  V30 5298 H 498.683 -2.8537 2.91595 0
M  V30 5299 H 497.358 -1.97423 3.66056 0
M  V30 5300 H 495.935 -3.03455 2.16725 0
M  V30 5301 N 498.12 -1.38341 -0.754957 0
M  V30 5302 C 499.345 -1.37882 -1.5493 0
M  V30 5303 C 499.77 0.0296385 -1.88077 0
M  V30 5304 O 499.128 1.01133 -1.50472 0
M  V30 5305 C 499.176 -2.23996 -2.82592 0
M  V30 5306 O 498.28 -1.65612 -3.77686 0
M  V30 5307 H 497.621 -0.470384 -0.468652 0
M  V30 5308 H 500.151 -1.82084 -0.933082 0
M  V30 5309 H 500.161 -2.37806 -3.3153 0
M  V30 5310 H 498.836 -3.26365 -2.57796 0
M  V30 5311 H 497.413 -1.60936 -3.36384 0
M  V30 5312 N 499.598 0.982988 -1.23187 0
M  V30 5313 C 500.548 2.05962 -0.977942 0
M  V30 5314 C 501.532 1.60725 0.0751148 0
M  V30 5315 O 502.724 1.76471 -0.136683 0
M  V30 5316 C 499.853 3.38564 -0.568276 0
M  V30 5317 C 498.939 3.90407 -1.6566 0
M  V30 5318 N 499.33 4.15359 -2.88635 0
M  V30 5319 C 497.628 4.18915 -1.53058 0
M  V30 5320 C 498.329 4.57642 -3.5908 0
M  V30 5321 N 497.305 4.6192 -2.86584 0
M  V30 5322 H 501.107 2.23208 -1.91195 0
M  V30 5323 H 498.621 1.16555 -1.13087 0
M  V30 5324 H 500.618 4.15276 -0.36764 0
M  V30 5325 H 499.278 3.22712 0.358713 0
M  V30 5326 H 500.289 4.03258 -3.24966 0
M  V30 5327 H 496.966 4.12081 -0.670506 0
M  V30 5328 H 498.356 4.85488 -4.6449 0
M  V30 5329 N 501.076 1.04316 1.18135 0
M  V30 5330 C 502.008 0.594444 2.21357 0
M  V30 5331 C 503.021 -0.337215 1.59269 0
M  V30 5332 O 504.21 -0.131337 1.78016 0
M  V30 5333 C 501.31 -0.151251 3.38562 0
M  V30 5334 C 500.483 0.788907 4.30227 0
M  V30 5335 C 499.542 0.0860572 5.2613 0
M  V30 5336 O 498.568 0.717302 5.64662 0
M  V30 5337 N 499.77 -1.17969 5.68387 0
M  V30 5338 H 502.535 1.48227 2.60478 0
M  V30 5339 H 500.096 0.92396 1.32946 0
M  V30 5340 H 502.088 -0.631352 3.99745 0
M  V30 5341 H 500.658 -0.940639 2.98112 0
M  V30 5342 H 499.878 1.44882 3.6661 0
M  V30 5343 H 501.166 1.42738 4.88368 0
M  V30 5344 H 500.564 -1.71302 5.3914 0
M  V30 5345 H 499.121 -1.60402 6.31755 0
M  V30 5346 N 502.554 -1.34406 0.822964 0
M  V30 5347 C 503.802 -1.97892 0.410245 0
M  V30 5348 C 504.123 -1.65567 -1.03017 0
M  V30 5349 O 503.393 -0.94642 -1.71522 0
M  V30 5350 H 501.973 -0.732049 0.148707 0
M  V30 5351 H 504.635 -1.64043 1.05242 0
M  V30 5352 H 503.731 -3.07579 0.529284 0
M  V30 5353 N 504.032 -0.577932 -1.46621 0
M  V30 5354 C 504.962 0.145917 -2.33044 0
M  V30 5355 C 505.943 0.888412 -1.45056 0
M  V30 5356 O 507.128 0.864812 -1.73881 0
M  V30 5357 C 504.258 1.16322 -3.27241 0
M  V30 5358 C 503.212 0.535868 -4.24632 0
M  V30 5359 C 502.538 1.65929 -5.08303 0
M  V30 5360 C 503.838 -0.523861 -5.19666 0
M  V30 5361 H 505.532 -0.575636 -2.93814 0
M  V30 5362 H 503.078 -0.278272 -1.41286 0
M  V30 5363 H 505.031 1.67793 -3.86553 0
M  V30 5364 H 503.755 1.91498 -2.64567 0
M  V30 5365 H 502.414 0.0422759 -3.66576 0
M  V30 5366 H 502.062 2.40061 -4.42018 0
M  V30 5367 H 501.762 1.2452 -5.74255 0
M  V30 5368 H 503.286 2.17686 -5.70478 0
M  V30 5369 H 504.7 -0.0944059 -5.73222 0
M  V30 5370 H 503.097 -0.858 -5.93935 0
M  V30 5371 H 504.167 -1.41197 -4.63887 0
M  V30 5372 N 505.51 1.54411 -0.315457 0
M  V30 5373 C 506.443 2.20265 0.596522 0
M  V30 5374 C 507.421 1.17693 1.12192 0
M  V30 5375 O 508.605 1.46397 1.18744 0
M  V30 5376 C 505.732 2.85794 1.81767 0
M  V30 5377 C 504.778 4.02017 1.42424 0
M  V30 5378 S 505.611 5.33452 0.467836 0
M  V30 5379 C 506.767 6.02471 1.69645 0
M  V30 5380 H 507 2.97277 0.0370896 0
M  V30 5381 H 504.533 1.54079 -0.0995562 0
M  V30 5382 H 506.491 3.24172 2.51839 0
M  V30 5383 H 505.152 2.08601 2.34828 0
M  V30 5384 H 504.345 4.46701 2.33396 0
M  V30 5385 H 503.947 3.65271 0.803311 0
M  V30 5386 H 506.239 6.24157 2.63504 0
M  V30 5387 H 507.182 6.96215 1.29192 0
M  V30 5388 H 507.59 5.32284 1.87974 0
M  V30 5389 N 506.988 0.0434614 1.5754 0
M  V30 5390 C 508.236 -0.630786 1.92004 0
M  V30 5391 C 508.557 -1.71836 0.921807 0
M  V30 5392 O 507.827 -1.9587 -0.034522 0
M  V30 5393 H 506.407 -0.235988 0.708745 0
M  V30 5394 H 509.069 0.0946462 1.9467 0
M  V30 5395 H 508.165 -1.07434 2.93026 0
M  V30 5396 N 508.466 -1.55915 -0.229846 0
M  V30 5397 C 509.713 -1.78542 -0.955452 0
M  V30 5398 C 510.041 -0.610785 -1.84661 0
M  V30 5399 O 509.296 0.405213 -1.91459 0
M  V30 5400 C 509.595 -3.06845 -1.8325 0
M  V30 5401 C 509.261 -4.37395 -1.09528 0
M  V30 5402 C 507.923 -4.72868 -0.891598 0
M  V30 5403 C 510.275 -5.18029 -0.574046 0
M  V30 5404 C 507.603 -5.86496 -0.154655 0
M  V30 5405 C 509.955 -6.32423 0.149513 0
M  V30 5406 C 508.619 -6.66504 0.364519 0
M  V30 5407 H 507.889 -0.653333 -0.349625 0
M  V30 5408 H 510.536 -1.90183 -0.224235 0
M  V30 5409 H 508.841 -2.90291 -2.63132 0
M  V30 5410 H 510.538 -3.21553 -2.39592 0
M  V30 5411 H 507.128 -4.09538 -1.26399 0
M  V30 5412 H 511.312 -4.91066 -0.718899 0
M  V30 5413 H 506.568 -6.11396 0.0222356 0
M  V30 5414 H 510.742 -6.94137 0.560947 0
M  V30 5415 H 508.369 -7.54397 0.937495 0
M  V30 5416 N 509.944 0.496216 -1.49584 0
M  V30 5417 C 511.192 1.24756 -1.58998 0
M  V30 5418 C 511.513 1.92968 -0.280775 0
M  V30 5419 O 510.783 1.82959 0.700198 0
M  V30 5420 H 509.363 0.463471 -0.585836 0
M  V30 5421 H 512.025 0.574678 -1.86235 0
M  V30 5422 H 511.121 2.00895 -2.38847 0
M  V30 5423 N 511.423 1.38739 0.74761 0
M  V30 5424 C 512.651 1.38521 1.53686 0
M  V30 5425 C 513.066 -0.0235129 1.88785 0
M  V30 5426 O 512.423 -0.991662 1.53207 0
M  V30 5427 C 512.474 2.24641 2.83229 0
M  V30 5428 O 512.195 3.60026 2.49625 0
M  V30 5429 C 513.696 2.32669 3.77333 0
M  V30 5430 H 510.916 0.473589 0.475347 0
M  V30 5431 H 513.46 1.82395 0.924786 0
M  V30 5432 H 511.615 1.84213 3.40799 0
M  V30 5433 H 512.029 4.05435 3.3275 0
M  V30 5434 H 513.503 2.97201 4.65162 0
M  V30 5435 H 513.98 1.3421 4.18192 0
M  V30 5436 H 514.586 2.73512 3.25685 0
M  V30 5437 N 512.901 -0.976442 1.23707 0
M  V30 5438 C 514.126 -1.75875 1.09922 0
M  V30 5439 C 514.551 -1.84911 -0.34489 0
M  V30 5440 O 513.909 -1.31363 -1.24954 0
M  V30 5441 C 513.957 -3.16179 1.73388 0
M  V30 5442 O 513.061 -4.00124 0.99871 0
M  V30 5443 H 512.402 -0.540954 0.385052 0
M  V30 5444 H 514.932 -1.22546 1.6384 0
M  V30 5445 H 514.942 -3.66741 1.78788 0
M  V30 5446 H 513.617 -3.08917 2.78466 0
M  V30 5447 H 512.194 -3.58624 1.02193 0
M  V30 5448 N 514.379 -1.04941 -1.1758 0
M  V30 5449 C 515.79 -0.784501 -1.69418 0
M  V30 5450 C 516.141 0.693625 -1.8353 0
M  V30 5451 O 515.266 1.53925 -1.52106 0
M  V30 5452 C 515.861 -1.41746 -3.07723 0
M  V30 5453 C 514.42 -1.20066 -3.56737 0
M  V30 5454 C 513.567 -1.5026 -2.33061 0
M  V30 5455 H 516.518 -1.21469 -1.02133 0
M  V30 5456 H 516.539 -0.825381 -3.7144 0
M  V30 5457 H 516.051 -2.49325 -2.9742 0
M  V30 5458 H 514.152 -0.144006 -3.72322 0
M  V30 5459 H 514.265 -1.90384 -4.39648 0
M  V30 5460 H 512.629 -0.922598 -2.37403 0
M  V30 5461 H 513.412 -2.58967 -2.25368 0
M  V30 5462 N 515.857 1.33968 -0.830081 0
M  V30 5463 C 517.082 2.02813 -0.433796 0
M  V30 5464 C 517.507 1.62076 0.954614 0
M  V30 5465 O 516.865 0.808955 1.62252 0
M  V30 5466 C 516.913 3.56348 -0.552115 0
M  V30 5467 O 516.017 4.10202 0.425191 0
M  V30 5468 H 515.358 0.639817 -0.177567 0
M  V30 5469 H 517.888 1.7106 -1.12248 0
M  V30 5470 H 517.898 4.05722 -0.430513 0
M  V30 5471 H 516.573 3.85344 -1.56471 0
M  V30 5472 H 515.15 3.71979 0.261878 0
M  V30 5473 N 517.335 0.585699 1.46312 0
M  V30 5474 C 518.746 0.159938 1.86014 0
M  V30 5475 C 519.097 -1.27775 1.48889 0
M  V30 5476 O 518.222 -1.96559 0.90519 0
M  V30 5477 C 518.817 0.283485 3.37612 0
M  V30 5478 C 517.376 -0.0874256 3.76298 0
M  V30 5479 C 516.523 0.618055 2.70325 0
M  V30 5480 H 519.474 0.793737 1.37425 0
M  V30 5481 H 519.495 -0.490348 3.77327 0
M  V30 5482 H 519.007 1.32995 3.64601 0
M  V30 5483 H 517.108 -1.13391 3.54927 0
M  V30 5484 H 517.221 0.290975 4.78216 0
M  V30 5485 H 515.585 0.057993 2.54634 0
M  V30 5486 H 516.368 1.66623 3.00153 0
M  V30 5487 N 518.813 -1.54241 0.323641 0
M  V30 5488 C 519.776 -2.22997 -0.529602 0
M  V30 5489 C 520.776 -1.22345 -1.04347 0
M  V30 5490 O 521.966 -1.46924 -0.935889 0
M  V30 5491 C 519.098 -2.93409 -1.73562 0
M  V30 5492 H 520.291 -2.99815 0.0714518 0
M  V30 5493 H 517.844 -1.56121 0.0747258 0
M  V30 5494 H 518.579 -2.20729 -2.37591 0
M  V30 5495 H 518.364 -3.67217 -1.37456 0
M  V30 5496 H 519.854 -3.45794 -2.34128 0
M  V30 5497 N 520.291 -0.0518155 -1.57515 0
M  V30 5498 C 521.238 0.922352 -2.11569 0
M  V30 5499 C 522.208 1.30842 -1.02321 0
M  V30 5500 O 523.393 1.39778 -1.29872 0
M  V30 5501 C 520.533 2.19167 -2.6657 0
M  V30 5502 C 519.646 1.86003 -3.89906 0
M  V30 5503 C 518.781 3.07398 -4.33221 0
M  V30 5504 C 517.82 2.70158 -5.49255 0
M  V30 5505 N 516.957 3.84248 -5.8762 0
M  V30 5506 H 521.797 0.454506 -2.94514 0
M  V30 5507 H 519.334 0.212718 -1.45554 0
M  V30 5508 H 521.292 2.93443 -2.96559 0
M  V30 5509 H 519.922 2.63528 -1.86421 0
M  V30 5510 H 518.974 1.01874 -3.66505 0
M  V30 5511 H 520.286 1.54592 -4.74239 0
M  V30 5512 H 519.44 3.89972 -4.64765 0
M  V30 5513 H 518.179 3.41988 -3.477 0
M  V30 5514 H 517.184 1.86001 -5.17382 0
M  V30 5515 H 518.409 2.36759 -6.36492 0
M  V30 5516 H 516.355 4.18638 -5.05053 0
M  V30 5517 H 516.272 3.56538 -6.66646 0
M  V30 5518 H 517.54 4.6746 -6.2378 0
M  V30 5519 N 521.769 1.56035 0.221574 0
M  V30 5520 C 522.994 1.83476 0.967026 0
M  V30 5521 C 523.419 0.632139 1.7716 0
M  V30 5522 O 522.777 -0.419082 1.7639 0
M  V30 5523 C 522.825 3.08907 1.86034 0
M  V30 5524 O 521.929 2.876 2.95567 0
M  V30 5525 H 521.27 0.604913 0.273817 0
M  V30 5526 H 523.8 2.03247 0.234893 0
M  V30 5527 H 523.81 3.3901 2.27016 0
M  V30 5528 H 522.485 3.96068 1.26898 0
M  V30 5529 H 521.062 2.6873 2.58532 0
M  V30 5530 N 523.247 -0.488276 1.49845 0
M  V30 5531 C 524.475 -1.26527 1.63702 0
M  V30 5532 C 524.89 -1.8618 0.313447 0
M  V30 5533 O 524.247 -1.68432 -0.702624 0
M  V30 5534 C 524.298 -2.3864 2.71538 0
M  V30 5535 O 524.019 -1.81437 3.98763 0
M  V30 5536 C 525.52 -3.29805 2.96215 0
M  V30 5537 H 522.74 -0.383295 0.55075 0
M  V30 5538 H 525.284 -0.584779 1.95961 0
M  V30 5539 H 523.439 -3.02496 2.42023 0
M  V30 5540 H 523.853 -2.55135 4.58265 0
M  V30 5541 H 525.327 -4.04722 3.75372 0
M  V30 5542 H 525.804 -3.87563 2.06619 0
M  V30 5543 H 526.41 -2.71703 3.27196 0
M  V30 5544 N 524.725 -1.39134 -0.740242 0
M  V30 5545 C 525.655 -1.40165 -1.86751 0
M  V30 5546 C 526.636 -0.265708 -1.68012 0
M  V30 5547 O 527.821 -0.47076 -1.88408 0
M  V30 5548 C 524.951 -1.2392 -3.2444 0
M  V30 5549 C 523.905 -2.34858 -3.57807 0
M  V30 5550 C 523.231 -2.03707 -4.94376 0
M  V30 5551 C 524.531 -3.77159 -3.61315 0
M  V30 5552 H 526.225 -2.345 -1.86145 0
M  V30 5553 H 523.771 -1.12875 -0.89416 0
M  V30 5554 H 525.724 -1.23263 -4.02969 0
M  V30 5555 H 524.448 -0.26051 -3.25559 0
M  V30 5556 H 523.107 -2.34723 -2.81604 0
M  V30 5557 H 522.755 -1.04289 -4.9207 0
M  V30 5558 H 522.455 -2.78016 -5.17669 0
M  V30 5559 H 523.979 -2.04691 -5.75268 0
M  V30 5560 H 525.393 -3.79252 -4.29931 0
M  V30 5561 H 523.79 -4.50784 -3.96124 0
M  V30 5562 H 524.86 -4.08513 -2.61238 0
M  V30 5563 N 526.204 0.969867 -1.24223 0
M  V30 5564 C 527.45 1.7151 -1.08223 0
M  V30 5565 C 527.783 1.90478 0.37838 0
M  V30 5566 O 527.058 1.4647 1.27971 0
M  V30 5567 C 527.341 3.10714 -1.82013 0
M  V30 5568 C 527.194 2.9925 -3.35811 0
M  V30 5569 C 528.513 4.10332 -1.59108 0
M  V30 5570 H 525.632 0.622499 -0.394543 0
M  V30 5571 H 528.274 1.1284 -1.52863 0
M  V30 5572 H 526.424 3.608 -1.44068 0
M  V30 5573 H 528.096 2.56608 -3.83341 0
M  V30 5574 H 526.339 2.35512 -3.64303 0
M  V30 5575 H 527.01 3.97857 -3.82641 0
M  V30 5576 H 529.486 3.69097 -1.92111 0
M  V30 5577 H 528.362 5.05804 -2.13198 0
M  V30 5578 H 528.623 4.38926 -0.528832 0
M  V30 5579 N 527.682 1.05563 1.17022 0
M  V30 5580 C 528.592 0.670758 2.24807 0
M  V30 5581 C 529.608 -0.309865 1.71219 0
M  V30 5582 O 530.784 -0.161025 2.00755 0
M  V30 5583 C 527.849 0.055337 3.46656 0
M  V30 5584 C 526.91 1.08688 4.15314 0
M  V30 5585 C 526.143 0.500736 5.31346 0
M  V30 5586 O 526.366 -0.688718 5.66227 0
M  V30 5587 O 525.3 1.23683 5.89055 0
M  V30 5588 H 529.126 1.56914 2.60023 0
M  V30 5589 H 526.711 0.827428 1.24395 0
M  V30 5590 H 528.593 -0.286492 4.20425 0
M  V30 5591 H 527.268 -0.816638 3.13229 0
M  V30 5592 H 526.175 1.48077 3.43546 0
M  V30 5593 H 527.508 1.93014 4.52777 0
M  V30 5594 N 529.16 -1.33526 0.837174 0
M  V30 5595 C 530.385 -2.0258 0.444545 0
M  V30 5596 C 530.81 -1.6258 -0.946006 0
M  V30 5597 O 530.168 -0.817548 -1.6182 0
M  V30 5598 C 530.216 -3.5605 0.571006 0
M  V30 5599 O 529.32 -4.10422 -0.403431 0
M  V30 5600 H 528.661 -0.638866 0.180958 0
M  V30 5601 H 531.191 -1.70462 1.13154 0
M  V30 5602 H 531.201 -4.05488 0.452024 0
M  V30 5603 H 529.876 -3.84509 1.58512 0
M  V30 5604 H 528.453 -3.72113 -0.242147 0
M  V30 5605 N 530.638 -0.59345 -1.46 0
M  V30 5606 C 532.054 -0.255965 -1.57534 0
M  V30 5607 C 532.254 1.24167 -1.58697 0
M  V30 5608 O 531.31 2.02398 -1.50968 0
M  V30 5609 C 532.623 -0.91466 -2.86451 0
M  V30 5610 C 534.171 -0.889253 -3.00102 0
M  V30 5611 C 534.646 -1.52769 -4.3177 0
M  V30 5612 N 536.137 -1.49253 -4.38495 0
M  V30 5613 C 536.872 -1.9558 -5.39014 0
M  V30 5614 N 536.368 -2.49929 -6.46148 0
M  V30 5615 N 538.161 -1.86432 -5.30282 0
M  V30 5616 H 530.312 -1.56604 -1.43489 0
M  V30 5617 H 532.575 -0.655207 -0.685133 0
M  V30 5618 H 532.281 -1.96861 -2.91442 0
M  V30 5619 H 532.155 -0.429356 -3.74748 0
M  V30 5620 H 534.542 0.156111 -2.94687 0
M  V30 5621 H 534.623 -1.41268 -2.13253 0
M  V30 5622 H 534.267 -2.57231 -4.37944 0
M  V30 5623 H 534.197 -0.979398 -5.17412 0
M  V30 5624 H 536.688 -1.09536 -3.61677 0
M  V30 5625 H 537.001 -2.83109 -7.19075 0
M  V30 5626 H 535.346 -2.53961 -6.46938 0
M  V30 5627 H 538.537 -1.43722 -4.4549 0
M  V30 5628 H 538.71 -2.22852 -6.08474 0
M  V30 5629 N 532.116 1.54067 -0.331816 0
M  V30 5630 C 533.356 2.02625 0.26876 0
M  V30 5631 C 533.72 1.21462 1.48697 0
M  V30 5632 O 534.921 1.59863 2.16096 0
M  V30 5633 C 533.192 3.52554 0.586577 0
M  V30 5634 S 534.751 4.23035 1.16563 0
M  V30 5635 H 531.569 0.706395 0.0807862 0
M  V30 5636 H 534.171 1.89844 -0.466856 0
M  V30 5637 H 532.875 4.09242 -0.308046 0
M  V30 5638 H 532.406 3.69432 1.35217 0
M  V30 5639 H 534.421 4.31382 2.45203 0
M  V30 5640 N 533.594 0.0601682 1.57485 0
M  V30 5641 C 534.834 -0.615384 1.94916 0
M  V30 5642 C 535.198 -1.67475 0.938948 0
M  V30 5643 O 536.399 -2.40502 1.20051 0
M  V30 5644 C 534.67 -1.18788 3.37082 0
M  V30 5645 S 536.229 -1.88018 3.96478 0
M  V30 5646 H 533.047 -0.201821 0.681754 0
M  V30 5647 H 535.649 0.131252 1.95059 0
M  V30 5648 H 534.353 -0.404869 4.08398 0
M  V30 5649 H 533.884 -1.97114 3.40455 0
M  V30 5650 H 535.899 -3.16161 3.82435 0
M  V30 5651 N 535.072 -1.5615 -0.213296 0
M  V30 5652 C 536.488 -1.49327 -0.56336 0
M  V30 5653 C 536.688 -0.756826 -1.86747 0
M  V30 5654 O 535.744 -0.299866 -2.50713 0
M  V30 5655 C 537.057 -2.9392 -0.634944 0
M  V30 5656 C 538.605 -3.04487 -0.725013 0
M  V30 5657 C 539.08 -4.50456 -0.82787 0
M  V30 5658 N 540.571 -4.54533 -0.891876 0
M  V30 5659 C 541.306 -5.64766 -0.991315 0
M  V30 5660 N 540.802 -6.84733 -1.05419 0
M  V30 5661 N 542.595 -5.52637 -1.02709 0
M  V30 5662 H 534.746 -2.02453 0.642366 0
M  V30 5663 H 537.009 -0.920548 0.226487 0
M  V30 5664 H 536.715 -3.50783 0.253859 0
M  V30 5665 H 536.589 -3.46274 -1.49579 0
M  V30 5666 H 538.976 -2.47685 -1.60425 0
M  V30 5667 H 539.057 -2.55289 0.161669 0
M  V30 5668 H 538.701 -5.07878 0.0469464 0
M  V30 5669 H 538.631 -4.97369 -1.73009 0
M  V30 5670 H 541.122 -3.68141 -0.85327 0
M  V30 5671 H 541.435 -7.64493 -1.13007 0
M  V30 5672 H 539.78 -6.87427 -1.02318 0
M  V30 5673 H 542.971 -4.5784 -0.974687 0
M  V30 5674 H 543.144 -6.38576 -1.10113 0
M  V30 5675 N 536.55 0.480323 -1.50102 0
M  V30 5676 C 537.827 1.24159 -1.51142 0
M  V30 5677 C 538.207 2.09605 -0.250818 0
M  V30 5678 O 537.555 2.15274 0.766118 0
M  V30 5679 C 537.765 2.08057 -2.80202 0
M  V30 5680 C 539.113 2.66556 -3.30504 0
M  V30 5681 O 540.137 2.18308 -2.81461 0
M  V30 5682 O 538.996 3.54442 -4.15973 0
M  V30 5683 H 536.09 0.562928 -0.605839 0
M  V30 5684 H 538.636 0.492899 -1.62384 0
M  V30 5685 H 537.408 1.45032 -3.6343 0
M  V30 5686 H 537.031 2.90079 -2.71919 0
M  V30 5687 N 538.028 1.39524 0.732853 0
M  V30 5688 C 538.958 1.41153 1.86005 0
M  V30 5689 C 539.939 0.274614 1.67869 0
M  V30 5690 O 541.124 0.480745 1.88155 0
M  V30 5691 C 538.254 1.25638 3.23778 0
M  V30 5692 C 537.208 2.36752 3.56556 0
M  V30 5693 C 536.534 2.06326 4.93289 0
M  V30 5694 C 537.834 3.79069 3.5931 0
M  V30 5695 H 539.528 2.35484 1.84899 0
M  V30 5696 H 537.074 1.13348 0.888162 0
M  V30 5697 H 539.027 1.25398 4.0231 0
M  V30 5698 H 537.751 0.277772 3.25417 0
M  V30 5699 H 536.41 2.36213 2.80355 0
M  V30 5700 H 536.058 1.06897 4.9151 0
M  V30 5701 H 535.758 2.80757 5.16187 0
M  V30 5702 H 537.282 2.07739 5.74175 0
M  V30 5703 H 538.696 3.81526 4.27914 0
M  V30 5704 H 537.093 4.52878 3.93728 0
M  V30 5705 H 538.163 4.09893 2.59068 0
M  V30 5706 N 539.506 -0.963266 1.24736 0
M  V30 5707 C 540.439 -2.05758 0.986852 0
M  V30 5708 C 541.417 -1.62398 -0.0809272 0
M  V30 5709 O 542.601 -1.88414 0.0569347 0
M  V30 5710 C 539.728 -3.35135 0.490095 0
M  V30 5711 C 538.774 -3.97451 1.54709 0
M  V30 5712 S 539.607 -4.34519 3.12976 0
M  V30 5713 C 540.763 -5.67026 2.65014 0
M  V30 5714 H 540.996 -2.27539 1.91346 0
M  V30 5715 H 538.529 -1.10176 1.08169 0
M  V30 5716 H 540.487 -4.09962 0.21012 0
M  V30 5717 H 539.148 -3.11335 -0.415873 0
M  V30 5718 H 538.341 -4.90704 1.15003 0
M  V30 5719 H 537.943 -3.29071 1.77731 0
M  V30 5720 H 540.235 -6.44748 2.08102 0
M  V30 5721 H 541.178 -6.11594 3.56873 0
M  V30 5722 H 541.586 -5.25847 2.05294 0
M  V30 5723 N 540.985 -1.06182 -1.16461 0
M  V30 5724 C 541.895 -0.682671 -2.24448 0
M  V30 5725 C 542.911 0.30078 -1.71381 0
M  V30 5726 O 544.087 0.150376 -2.00838 0
M  V30 5727 C 541.152 -0.0737202 -3.46622 0
M  V30 5728 C 540.213 -1.10889 -4.14731 0
M  V30 5729 C 539.446 -0.528908 -5.31073 0
M  V30 5730 O 539.669 0.65868 -5.66584 0
M  V30 5731 O 538.603 -1.26805 -5.88391 0
M  V30 5732 H 542.429 -1.58291 -2.59187 0
M  V30 5733 H 540.014 -0.834013 -1.23954 0
M  V30 5734 H 541.896 0.264192 -4.20571 0
M  V30 5735 H 540.571 0.800015 -3.13658 0
M  V30 5736 H 539.478 -1.49896 -3.42756 0
M  V30 5737 H 540.811 -1.95412 -4.51747 0
M  V30 5738 N 542.463 1.3308 -0.844243 0
M  V30 5739 C 543.373 2.32876 -0.283922 0
M  V30 5740 C 544.389 1.63589 0.592846 0
M  V30 5741 O 545.565 1.95205 0.495693 0
M  V30 5742 C 542.63 3.42667 0.527283 0
M  V30 5743 C 541.691 4.27664 -0.374394 0
M  V30 5744 C 540.924 5.32212 0.39819 0
M  V30 5745 O 541.147 5.46635 1.62932 0
M  V30 5746 O 540.081 6.01458 -0.2306 0
M  V30 5747 H 543.907 2.82671 -1.11045 0
M  V30 5748 H 541.492 1.36518 -0.606903 0
M  V30 5749 H 543.374 4.09652 0.988078 0
M  V30 5750 H 542.049 2.95079 1.33078 0
M  V30 5751 H 540.956 3.63526 -0.883144 0
M  V30 5752 H 542.289 4.78749 -1.1428 0
M  V30 5753 N 543.941 0.601185 1.45683 0
M  V30 5754 C 544.888 -0.121396 2.30481 0
M  V30 5755 C 545.858 -0.866232 1.41724 0
M  V30 5756 O 547.043 -0.85324 1.70659 0
M  V30 5757 C 544.183 -1.11704 3.26521 0
M  V30 5758 C 543.296 -0.373741 4.3038 0
M  V30 5759 C 542.431 -1.35854 5.13534 0
M  V30 5760 C 541.47 -0.602689 6.09126 0
M  V30 5761 N 540.607 -1.53645 6.85082 0
M  V30 5762 H 545.447 0.607732 2.91737 0
M  V30 5763 H 542.984 0.311502 1.43764 0
M  V30 5764 H 544.942 -1.70735 3.80664 0
M  V30 5765 H 543.572 -1.81366 2.67032 0
M  V30 5766 H 542.624 0.331962 3.78949 0
M  V30 5767 H 543.936 0.2163 4.98331 0
M  V30 5768 H 543.09 -2.02111 5.72046 0
M  V30 5769 H 541.829 -1.98251 4.45587 0
M  V30 5770 H 540.834 0.0735482 5.49751 0
M  V30 5771 H 542.059 0.0161467 6.79098 0
M  V30 5772 H 540.005 -2.14819 6.1983 0
M  V30 5773 H 539.922 -0.999688 7.49361 0
M  V30 5774 H 541.19 -2.1888 7.48139 0
M  V30 5775 N 545.419 -1.53889 0.339982 0
M  V30 5776 C 546.666 -2.00855 -0.257621 0
M  V30 5777 C 546.994 -1.22788 -1.50842 0
M  V30 5778 O 546.249 -0.302567 -1.93347 0
M  V30 5779 C 546.548 -3.51968 -0.620735 0
M  V30 5780 C 546.214 -4.47741 0.532771 0
M  V30 5781 C 544.876 -4.73645 0.849339 0
M  V30 5782 C 547.228 -5.04551 1.3068 0
M  V30 5783 C 544.556 -5.53614 1.94237 0
M  V30 5784 C 546.908 -5.85713 2.39005 0
M  V30 5785 C 545.572 -6.09912 2.71225 0
M  V30 5786 H 544.842 -0.734979 -0.0942703 0
M  V30 5787 H 547.489 -1.85714 0.467159 0
M  V30 5788 H 545.794 -3.64921 -1.42618 0
M  V30 5789 H 547.491 -3.85762 -1.09495 0
M  V30 5790 H 544.081 -4.27711 0.275973 0
M  V30 5791 H 548.265 -4.84507 1.07549 0
M  V30 5792 H 543.521 -5.7059 2.19628 0
M  V30 5793 H 547.695 -6.28748 2.99415 0
M  V30 5794 H 545.322 -6.71665 3.56047 0
M  V30 5795 N 546.897 -0.0685191 -1.57451 0
M  V30 5796 C 548.174 0.642167 -1.84758 0
M  V30 5797 C 548.554 1.87991 -0.960344 0
M  V30 5798 O 547.902 2.28485 -0.0257894 0
M  V30 5799 C 548.112 0.982946 -3.34872 0
M  V30 5800 C 549.46 1.35784 -4.02303 0
M  V30 5801 O 550.484 1.07477 -3.39598 0
M  V30 5802 O 549.343 1.88681 -5.12895 0
M  V30 5803 H 546.437 0.318625 -0.763156 0
M  V30 5804 H 548.983 -0.0992015 -1.6941 0
M  V30 5805 H 547.755 0.10372 -3.91163 0
M  V30 5806 H 547.378 1.78119 -3.55471 0
M  V30 5807 N 548.375 1.56261 0.205012 0
M  V30 5808 C 549.307 1.90266 1.27795 0
M  V30 5809 C 550.32 0.792397 1.42214 0
M  V30 5810 O 551.509 1.07077 1.42817 0
M  V30 5811 C 548.609 2.11074 2.65143 0
M  V30 5812 C 547.782 3.42176 2.7246 0
M  V30 5813 C 546.841 3.52216 3.90936 0
M  V30 5814 O 545.867 4.25119 3.78501 0
M  V30 5815 N 547.069 2.84573 5.05963 0
M  V30 5816 H 549.834 2.82896 0.989434 0
M  V30 5817 H 547.395 1.57008 0.394981 0
M  V30 5818 H 549.387 2.15089 3.4281 0
M  V30 5819 H 547.957 1.2499 2.86524 0
M  V30 5820 H 547.177 3.50116 1.81142 0
M  V30 5821 H 548.465 4.28509 2.74331 0
M  V30 5822 H 547.863 2.25152 5.18963 0
M  V30 5823 H 546.42 2.94228 5.81613 0
M  V30 5824 N 549.853 -0.472356 1.50355 0
M  V30 5825 C 551.099 -1.22634 1.6152 0
M  V30 5826 C 551.432 -1.91645 0.313995 0
M  V30 5827 O 550.707 -1.82059 -0.684446 0
M  V30 5828 C 550.99 -2.27099 2.7946 0
M  V30 5829 C 550.843 -1.62402 4.19459 0
M  V30 5830 C 552.162 -3.28421 2.92964 0
M  V30 5831 H 549.281 -0.444494 0.587873 0
M  V30 5832 H 551.923 -0.520321 1.82737 0
M  V30 5833 H 550.073 -2.87314 2.61501 0
M  V30 5834 H 551.745 -1.05793 4.49005 0
M  V30 5835 H 549.988 -0.927184 4.23776 0
M  V30 5836 H 550.659 -2.38309 4.97909 0
M  V30 5837 H 553.135 -2.78227 3.09401 0
M  V30 5838 H 552.011 -3.98845 3.77113 0
M  V30 5839 H 552.272 -3.92467 2.03525 0
M  V30 5840 N 551.331 -1.39911 -0.725443 0
M  V30 5841 C 552.571 -1.39096 -1.49772 0
M  V30 5842 C 552.935 0.0106452 -1.91997 0
M  V30 5843 O 554.136 0.143859 -2.68415 0
M  V30 5844 C 552.407 -2.34441 -2.69764 0
M  V30 5845 S 553.966 -2.51898 -3.59295 0
M  V30 5846 H 550.784 -0.49314 -0.512186 0
M  V30 5847 H 553.386 -1.76093 -0.849197 0
M  V30 5848 H 552.09 -3.35123 -2.36898 0
M  V30 5849 H 551.621 -1.98692 -3.39537 0
M  V30 5850 H 553.636 -1.76402 -4.63785 0
M  V30 5851 N 552.809 0.956637 -1.25245 0
M  V30 5852 C 553.741 2.05628 -1.01242 0
M  V30 5853 C 554.754 1.62785 0.0219579 0
M  V30 5854 O 555.943 1.77184 -0.216365 0
M  V30 5855 C 553.043 3.35069 -0.508161 0
M  V30 5856 C 552.216 4.06761 -1.60823 0
M  V30 5857 C 551.275 5.14473 -1.1047 0
M  V30 5858 O 550.301 5.40033 -1.79868 0
M  V30 5859 N 551.503 5.80474 0.0550773 0
M  V30 5860 H 554.268 2.2679 -1.95925 0
M  V30 5861 H 551.829 1.12505 -1.16423 0
M  V30 5862 H 553.821 4.044 -0.155819 0
M  V30 5863 H 552.391 3.10694 0.344683 0
M  V30 5864 H 551.611 3.31555 -2.13224 0
M  V30 5865 H 552.899 4.51418 -2.34733 0
M  V30 5866 H 552.297 5.62125 0.635004 0
M  V30 5867 H 550.854 6.50868 0.348469 0
M  V30 5868 N 554.287 1.06798 1.15896 0
M  V30 5869 C 555.533 0.798757 1.8706 0
M  V30 5870 C 555.888 -0.667739 1.80441 0
M  V30 5871 O 555.181 -1.48334 1.21274 0
M  V30 5872 C 555.375 1.23414 3.35416 0
M  V30 5873 C 555.204 2.74142 3.56478 0
M  V30 5874 C 553.974 3.41675 3.72272 0
M  V30 5875 C 556.172 3.72348 3.5477 0
M  V30 5876 N 554.154 4.81101 3.81333 0
M  V30 5877 C 555.525 4.97585 3.69877 0
M  V30 5878 C 557.58 3.65585 3.38011 0
M  V30 5879 C 556.283 6.16866 3.69959 0
M  V30 5880 C 558.309 4.84323 3.39389 0
M  V30 5881 C 557.671 6.08391 3.5502 0
M  V30 5882 H 553.77 0.344761 0.7019 0
M  V30 5883 H 556.354 1.36314 1.3902 0
M  V30 5884 H 554.525 0.697522 3.82085 0
M  V30 5885 H 556.257 0.91304 3.94266 0
M  V30 5886 H 553.012 2.92078 3.7281 0
M  V30 5887 H 553.436 5.53647 3.8962 0
M  V30 5888 H 558.078 2.70615 3.2485 0
M  V30 5889 H 555.796 7.12164 3.819 0
M  V30 5890 H 559.382 4.80762 3.27658 0
M  V30 5891 H 558.262 6.98731 3.56012 0
M  V30 5892 N 555.766 -1.3263 0.851289 0
M  V30 5893 C 557.012 -1.9766 0.453694 0
M  V30 5894 C 557.345 -1.67225 -0.987396 0
M  V30 5895 O 556.62 -0.958693 -1.69232 0
M  V30 5896 C 556.903 -3.5344 0.68936 0
M  V30 5897 C 556.756 -3.93517 2.17862 0
M  V30 5898 C 558.075 -4.39866 0.143555 0
M  V30 5899 H 555.194 -0.717989 0.166314 0
M  V30 5900 H 557.836 -1.57068 1.06909 0
M  V30 5901 H 555.986 -3.88147 0.165546 0
M  V30 5902 H 557.658 -3.69006 2.76826 0
M  V30 5903 H 555.901 -3.42798 2.65841 0
M  V30 5904 H 556.572 -5.02065 2.29422 0
M  V30 5905 H 559.048 -4.11875 0.591451 0
M  V30 5906 H 557.924 -5.47858 0.338043 0
M  V30 5907 H 558.185 -4.31696 -0.953466 0
M  V30 5908 N 557.244 -0.608902 -1.45362 0
M  V30 5909 C 558.174 0.0964526 -2.33301 0
M  V30 5910 C 559.155 0.857444 -1.46908 0
M  V30 5911 O 560.34 0.827735 -1.75676 0
M  V30 5912 C 557.47 1.09354 -3.29635 0
M  V30 5913 C 556.424 0.445676 -4.25673 0
M  V30 5914 C 555.75 1.5511 -5.11708 0
M  V30 5915 C 557.05 -0.633972 -5.18438 0
M  V30 5916 H 558.744 -0.637829 -2.92527 0
M  V30 5917 H 556.29 -0.308178 -1.40664 0
M  V30 5918 H 558.243 1.59556 -3.90025 0
M  V30 5919 H 556.967 1.85843 -2.6857 0
M  V30 5920 H 555.626 -0.0354897 -3.66583 0
M  V30 5921 H 555.274 2.30631 -4.4701 0
M  V30 5922 H 554.974 1.12311 -5.76767 0
M  V30 5923 H 556.498 2.05537 -5.74967 0
M  V30 5924 H 557.912 -0.215974 -5.72893 0
M  V30 5925 H 556.309 -0.983789 -5.91981 0
M  V30 5926 H 557.379 -1.51005 -4.60788 0
M  V30 5927 N 558.722 1.53707 -0.348139 0
M  V30 5928 C 559.669 2.25173 0.506518 0
M  V30 5929 C 560.639 1.25174 1.09182 0
M  V30 5930 O 561.824 1.53917 1.12757 0
M  V30 5931 C 558.964 3.03141 1.64923 0
M  V30 5932 C 558.077 4.18002 1.0908 0
M  V30 5933 C 557.212 4.83447 2.20119 0
M  V30 5934 C 556.251 5.90369 1.61651 0
M  V30 5935 N 555.388 6.49575 2.66451 0
M  V30 5936 H 560.228 2.97799 -0.109452 0
M  V30 5937 H 557.765 1.46953 -0.0657866 0
M  V30 5938 H 559.723 3.46607 2.32205 0
M  V30 5939 H 558.353 2.32803 2.23612 0
M  V30 5940 H 557.405 3.79145 0.308783 0
M  V30 5941 H 558.717 4.94892 0.623178 0
M  V30 5942 H 557.871 5.30008 2.95257 0
M  V30 5943 H 556.61 4.05991 2.70227 0
M  V30 5944 H 555.615 5.43186 0.850209 0
M  V30 5945 H 556.84 6.69735 1.1239 0
M  V30 5946 H 554.786 5.74981 3.15805 0
M  V30 5947 H 554.703 7.21952 2.24325 0
M  V30 5948 H 555.971 7.00789 3.41344 0
M  V30 5949 N 560.2 0.0768682 1.57412 0
M  V30 5950 C 561.44 -0.594676 1.95558 0
M  V30 5951 C 561.804 -1.66469 0.956658 0
M  V30 5952 O 563.005 -2.39215 1.22595 0
M  V30 5953 C 561.276 -1.15206 3.38323 0
M  V30 5954 S 562.835 -1.83803 3.9845 0
M  V30 5955 H 559.653 -0.194579 0.683857 0
M  V30 5956 H 562.255 0.151933 1.94909 0
M  V30 5957 H 560.959 -0.36153 4.08805 0
M  V30 5958 H 560.49 -1.93491 3.42527 0
M  V30 5959 H 562.505 -3.12087 3.85767 0
M  V30 5960 N 561.678 -1.56367 -0.196722 0
M  V30 5961 C 563.094 -1.49916 -0.54749 0
M  V30 5962 C 563.294 -0.77659 -1.85934 0
M  V30 5963 O 562.35 -0.32644 -2.50381 0
M  V30 5964 C 563.663 -2.94577 -0.603734 0
M  V30 5965 C 565.211 -3.05239 -0.692677 0
M  V30 5966 C 565.686 -4.51308 -0.780046 0
M  V30 5967 N 567.177 -4.55453 -0.843616 0
M  V30 5968 C 567.912 -5.65786 -0.931358 0
M  V30 5969 N 567.408 -6.85812 -0.981503 0
M  V30 5970 N 569.201 -5.53695 -0.968421 0
M  V30 5971 H 561.352 -2.01761 0.663803 0
M  V30 5972 H 563.615 -0.918094 0.236238 0
M  V30 5973 H 563.321 -3.50494 0.29105 0
M  V30 5974 H 563.195 -3.47841 -1.45898 0
M  V30 5975 H 565.582 -2.49372 -1.57789 0
M  V30 5976 H 565.663 -2.55103 0.188736 0
M  V30 5977 H 565.307 -5.078 0.100811 0
M  V30 5978 H 565.237 -4.99176 -1.67724 0
M  V30 5979 H 567.728 -3.69025 -0.814176 0
M  V30 5980 H 568.041 -7.65648 -1.04892 0
M  V30 5981 H 566.386 -6.88474 -0.950208 0
M  V30 5982 H 569.577 -4.58848 -0.926072 0
M  V30 5983 H 569.75 -6.39708 -1.03334 0
M  V30 5984 N 563.156 0.464375 -1.50603 0
M  V30 5985 C 564.104 1.58224 -1.70493 0
M  V30 5986 C 565.098 1.59492 -0.570836 0
M  V30 5987 O 566.304 1.63561 -0.751517 0
M  V30 5988 H 562.679 0.525161 -0.538247 0
M  V30 5989 H 564.65 1.38613 -2.64252 0
M  V30 5990 C 563.399 2.96113 -1.82243 0
M  V30 5991 H 562.722 2.95858 -2.68901 0
M  V30 5992 H 564.162 3.73769 -2.00182 0
M  V30 5993 C 562.621 3.31946 -0.575628 0
M  V30 5994 O 563.151 4.00708 0.282152 0
M  V30 5995 N 561.357 2.87436 -0.427665 0
M  V30 5996 H 560.904 2.31652 -1.12674 0
M  V30 5997 H 560.862 3.11776 0.405379 0
M  V30 5998 N 564.634 1.40294 0.718013 0
M  V30 5999 C 565.859 1.41941 1.5122 0
M  V30 6000 C 566.284 0.0202371 1.88089 0
M  V30 6001 O 565.642 -0.971078 1.53101 0
M  V30 6002 C 565.69 2.3141 2.76554 0
M  V30 6003 O 564.794 1.75567 3.73162 0
M  V30 6004 H 564.135 0.482644 0.456016 0
M  V30 6005 H 566.665 1.84494 0.884478 0
M  V30 6006 H 566.675 2.46513 3.25108 0
M  V30 6007 H 565.35 3.33085 2.49053 0
M  V30 6008 H 563.927 1.69798 3.31999 0
M  V30 6009 N 566.112 -0.949982 1.2575 0
M  V30 6010 C 567.059 -2.04738 1.06541 0
M  V30 6011 C 568.029 -1.66078 -0.0268818 0
M  V30 6012 O 569.214 -1.90348 0.131196 0
M  V30 6013 C 566.354 -3.38027 0.695127 0
M  V30 6014 C 565.467 -3.89776 1.86276 0
M  V30 6015 C 564.602 -5.11411 1.4364 0
M  V30 6016 C 563.641 -5.554 2.57287 0
M  V30 6017 N 562.778 -6.68244 2.15395 0
M  V30 6018 H 567.618 -2.20502 2.00457 0
M  V30 6019 H 565.155 -1.0805 0.998178 0
M  V30 6020 H 567.113 -4.14641 0.461375 0
M  V30 6021 H 565.743 -3.22135 -0.207046 0
M  V30 6022 H 564.795 -3.0964 2.20969 0
M  V30 6023 H 566.107 -4.18368 2.71606 0
M  V30 6024 H 565.261 -5.95457 1.16257 0
M  V30 6025 H 564 -4.84545 0.553879 0
M  V30 6026 H 563.005 -4.69916 2.85409 0
M  V30 6027 H 564.23 -5.84272 3.46125 0
M  V30 6028 H 562.176 -6.43078 1.29565 0
M  V30 6029 H 562.093 -6.96377 2.94272 0
M  V30 6030 H 563.361 -7.55687 1.91201 0
M  V30 6031 N 567.59 -1.07411 -1.15328 0
M  V30 6032 C 568.538 -0.689316 -2.22151 0
M  V30 6033 C 569.532 0.300156 -1.6672 0
M  V30 6034 O 570.738 0.163804 -1.79253 0
M  V30 6035 H 567.113 -0.204834 -0.723566 0
M  V30 6036 H 569.084 -1.59988 -2.51886 0
M  V30 6037 C 567.833 -0.103848 -3.47545 0
M  V30 6038 H 567.156 -0.856367 -3.90521 0
M  V30 6039 H 568.596 0.127725 -4.23808 0
M  V30 6040 C 567.055 1.15563 -3.1646 0
M  V30 6041 O 567.585 2.242 -3.33312 0
M  V30 6042 N 565.791 1.06203 -2.70498 0
M  V30 6043 H 565.338 0.177933 -2.56985 0
M  V30 6044 H 565.296 1.90553 -2.50074 0
M  V30 6045 N 569.068 1.32177 -0.85831 0
M  V30 6046 C 570.293 2.01847 -0.476718 0
M  V30 6047 C 570.718 1.64065 0.920021 0
M  V30 6048 O 570.076 0.843189 1.60499 0
M  V30 6049 C 570.124 3.55097 -0.627578 0
M  V30 6050 O 569.228 4.11012 0.338086 0
M  V30 6051 H 568.569 0.635907 -0.191099 0
M  V30 6052 H 571.099 1.68641 -1.15851 0
M  V30 6053 H 571.109 4.04718 -0.516476 0
M  V30 6054 H 569.784 3.81938 -1.64609 0
M  V30 6055 H 568.361 3.72451 0.182917 0
M  V30 6056 N 570.547 0.616602 1.45037 0
M  V30 6057 C 571.477 -0.0840787 2.33349 0
M  V30 6058 C 572.458 -0.849641 1.4736 0
M  V30 6059 O 573.643 -0.818407 1.76113 0
M  V30 6060 C 570.773 -1.07604 3.3021 0
M  V30 6061 C 569.727 -0.423096 4.25904 0
M  V30 6062 C 569.053 -1.52394 5.12523 0
M  V30 6063 C 570.353 0.661457 5.18095 0
M  V30 6064 H 572.047 0.653333 2.92185 0
M  V30 6065 H 569.593 0.315634 1.40498 0
M  V30 6066 H 571.546 -1.57485 3.90866 0
M  V30 6067 H 570.27 -1.84416 2.69552 0
M  V30 6068 H 568.929 0.05493 3.66559 0
M  V30 6069 H 568.577 -2.28257 4.48227 0
M  V30 6070 H 568.277 -1.09251 5.77354 0
M  V30 6071 H 569.801 -2.02485 5.76049 0
M  V30 6072 H 571.215 0.246353 5.7277 0
M  V30 6073 H 569.612 1.01517 5.91451 0
M  V30 6074 H 570.682 1.53446 4.59981 0
M  V30 6075 N 572.025 -1.5352 0.356285 0
M  V30 6076 C 573.274 -2.00298 -0.237373 0
M  V30 6077 C 573.587 -1.24784 -1.50627 0
M  V30 6078 O 574.793 -1.62103 -2.17795 0
M  V30 6079 C 573.249 -3.56771 -0.473545 0
M  V30 6080 C 572.857 -4.41154 0.780183 0
M  V30 6081 C 574.601 -4.1193 -1.02537 0
M  V30 6082 C 572.508 -5.89161 0.514108 0
M  V30 6083 H 571.438 -0.748307 -0.092478 0
M  V30 6084 H 574.089 -1.77283 0.473588 0
M  V30 6085 H 572.471 -3.75902 -1.24553 0
M  V30 6086 H 573.645 -4.33797 1.55425 0
M  V30 6087 H 571.96 -3.97052 1.25455 0
M  V30 6088 H 574.557 -5.20133 -1.2396 0
M  V30 6089 H 574.9 -3.65943 -1.98473 0
M  V30 6090 H 575.433 -3.96561 -0.313775 0
M  V30 6091 H 572.172 -6.39408 1.44355 0
M  V30 6092 H 571.692 -5.9939 -0.221632 0
M  V30 6093 H 573.371 -6.46857 0.136122 0
M  V30 6094 N 573.503 -0.0852151 -1.57369 0
M  V30 6095 C 574.435 0.907099 -2.10486 0
M  V30 6096 C 575.448 1.25259 -1.03991 0
M  V30 6097 O 576.637 1.20743 -1.31467 0
M  V30 6098 C 573.737 2.21908 -2.56145 0
M  V30 6099 C 572.91 2.05042 -3.86363 0
M  V30 6100 C 571.969 3.19664 -4.17973 0
M  V30 6101 O 570.995 2.94062 -4.87356 0
M  V30 6102 N 572.197 4.45151 -3.72587 0
M  V30 6103 H 574.962 0.453505 -2.96249 0
M  V30 6104 H 572.523 0.100157 -1.6159 0
M  V30 6105 H 574.515 2.97519 -2.74343 0
M  V30 6106 H 573.085 2.58723 -1.75446 0
M  V30 6107 H 572.305 1.13819 -3.77411 0
M  V30 6108 H 573.593 1.91039 -4.71574 0
M  V30 6109 H 572.991 4.68834 -3.16561 0
M  V30 6110 H 571.548 5.17744 -3.9596 0
M  V30 6111 N 574.981 1.5647 0.188427 0
M  V30 6112 C 575.914 1.90146 1.26173 0
M  V30 6113 C 576.892 0.762294 1.43624 0
M  V30 6114 O 578.076 1.01395 1.58907 0
M  V30 6115 C 575.203 2.13748 2.62735 0
M  V30 6116 C 574.249 3.36448 2.62116 0
M  V30 6117 S 575.082 4.91364 2.12889 0
M  V30 6118 C 576.238 5.18041 3.51261 0
M  V30 6119 H 576.471 2.80886 0.974192 0
M  V30 6120 H 574.004 1.49335 0.392226 0
M  V30 6121 H 575.962 2.28028 3.41341 0
M  V30 6122 H 574.623 1.23747 2.88696 0
M  V30 6123 H 573.816 3.50109 3.62546 0
M  V30 6124 H 573.418 3.21196 1.91596 0
M  V30 6125 H 575.71 5.0897 4.47164 0
M  V30 6126 H 576.653 6.19764 3.42489 0
M  V30 6127 H 577.061 4.45657 3.46482 0
M  V30 6128 N 576.459 -0.456382 1.50847 0
M  V30 6129 C 577.687 -1.23026 1.66349 0
M  V30 6130 C 578.102 -1.85473 0.352868 0
M  V30 6131 O 577.459 -1.69885 -0.666739 0
M  V30 6132 C 577.51 -2.32827 2.76539 0
M  V30 6133 O 577.231 -1.72938 4.02522 0
M  V30 6134 C 578.732 -3.23448 3.03144 0
M  V30 6135 H 575.952 -0.371527 0.558756 0
M  V30 6136 H 578.496 -0.543082 1.97157 0
M  V30 6137 H 576.651 -2.97294 2.48384 0
M  V30 6138 H 577.065 -2.45357 4.63573 0
M  V30 6139 H 578.539 -3.96669 3.83872 0
M  V30 6140 H 579.016 -3.83094 2.14793 0
M  V30 6141 H 579.622 -2.64702 3.32886 0
M  V30 6142 N 577.937 -1.40673 -0.710563 0
M  V30 6143 C 579.186 -1.38525 -1.46607 0
M  V30 6144 C 579.499 0.0077024 -1.95598 0
M  V30 6145 O 580.705 0.151792 -2.71075 0
M  V30 6146 C 579.161 -2.43489 -2.6503 0
M  V30 6147 C 578.769 -3.88619 -2.22888 0
M  V30 6148 C 580.513 -2.50456 -3.42742 0
M  V30 6149 C 578.42 -4.85168 -3.3818 0
M  V30 6150 H 577.35 -0.515092 -0.550632 0
M  V30 6151 H 580.001 -1.66431 -0.772846 0
M  V30 6152 H 578.383 -2.0869 -3.36548 0
M  V30 6153 H 579.557 -4.32588 -1.58758 0
M  V30 6154 H 577.872 -3.85174 -1.58208 0
M  V30 6155 H 580.469 -3.19776 -4.28541 0
M  V30 6156 H 580.812 -1.53665 -3.86902 0
M  V30 6157 H 581.345 -2.84271 -2.78271 0
M  V30 6158 H 578.084 -5.8331 -2.99047 0
M  V30 6159 H 577.604 -4.4586 -4.01209 0
M  V30 6160 H 579.283 -5.05225 -4.04174 0
M  V30 6161 N 579.415 0.9433 -1.26252 0
M  V30 6162 C 580.345 2.05902 -1.10122 0
M  V30 6163 C 581.326 1.70099 -0.00700552 0
M  V30 6164 O 582.511 1.93377 -0.178641 0
M  V30 6165 C 579.641 3.39516 -0.731175 0
M  V30 6166 C 578.595 3.89372 -1.77688 0
M  V30 6167 C 577.921 5.19613 -1.26122 0
M  V30 6168 C 579.221 4.14489 -3.17799 0
M  V30 6169 H 580.915 2.19655 -2.03451 0
M  V30 6170 H 578.461 1.05548 -0.979576 0
M  V30 6171 H 580.414 4.17031 -0.605215 0
M  V30 6172 H 579.138 3.25733 0.23782 0
M  V30 6173 H 577.797 3.14036 -1.89148 0
M  V30 6174 H 577.445 5.02208 -0.282128 0
M  V30 6175 H 577.145 5.53939 -1.96023 0
M  V30 6176 H 578.669 5.99713 -1.14789 0
M  V30 6177 H 580.083 4.82625 -3.09428 0
M  V30 6178 H 578.48 4.60094 -3.85271 0
M  V30 6179 H 579.55 3.20347 -3.64014 0
M  V30 6180 N 580.893 1.08022 1.14757 0
M  V30 6181 C 581.841 0.701088 2.21783 0
M  V30 6182 C 582.835 -0.291311 1.66876 0
M  V30 6183 O 584.041 -0.154296 1.79337 0
M  V30 6184 H 580.416 0.208668 0.722469 0
M  V30 6185 H 582.387 1.61321 2.51034 0
M  V30 6186 C 581.136 0.122278 3.47485 0
M  V30 6187 H 580.459 0.877065 3.90061 0
M  V30 6188 H 581.899 -0.105248 4.23869 0
M  V30 6189 C 580.358 -1.13883 3.17068 0
M  V30 6190 O 580.888 -2.22429 3.34497 0
M  V30 6191 N 579.094 -1.04767 2.71058 0
M  V30 6192 H 578.641 -0.164302 2.57075 0
M  V30 6193 H 578.599 -1.89224 2.51081 0
M  V30 6194 N 582.371 -1.3172 0.865308 0
M  V30 6195 C 583.301 -2.31109 0.333302 0
M  V30 6196 C 584.282 -1.60148 -0.573301 0
M  V30 6197 O 585.467 -1.87882 -0.491305 0
M  V30 6198 C 582.597 -3.44104 -0.470078 0
M  V30 6199 C 581.551 -4.26623 0.343021 0
M  V30 6200 C 580.877 -5.31482 -0.585756 0
M  V30 6201 C 582.177 -4.98001 1.57456 0
M  V30 6202 H 583.871 -2.75855 1.1638 0
M  V30 6203 H 581.417 -1.3262 0.561069 0
M  V30 6204 H 583.37 -4.12682 -0.852752 0
M  V30 6205 H 582.094 -2.98112 -1.33404 0
M  V30 6206 H 580.753 -3.59707 0.707583 0
M  V30 6207 H 580.401 -4.81741 -1.44686 0
M  V30 6208 H 580.101 -5.87582 -0.0456494 0
M  V30 6209 H 581.625 -6.0292 -0.965375 0
M  V30 6210 H 583.039 -5.59201 1.26359 0
M  V30 6211 H 581.436 -5.63876 2.05339 0
M  V30 6212 H 582.506 -4.25253 2.32997 0
M  V30 6213 N 583.85 -0.624285 -1.44708 0
M  V30 6214 C 584.779 0.0717025 -2.3339 0
M  V30 6215 C 585.76 0.841814 -1.47809 0
M  V30 6216 O 586.946 0.809056 -1.76544 0
M  V30 6217 C 584.076 1.05852 -3.30776 0
M  V30 6218 C 583.029 0.400503 -4.26122 0
M  V30 6219 C 582.356 1.49674 -5.13324 0
M  V30 6220 C 583.656 -0.688924 -5.17737 0
M  V30 6221 H 585.35 -0.668819 -2.91834 0
M  V30 6222 H 582.896 -0.32308 -1.40329 0
M  V30 6223 H 584.849 1.5541 -3.91696 0
M  V30 6224 H 583.572 1.82984 -2.70526 0
M  V30 6225 H 582.231 -0.0743687 -3.66525 0
M  V30 6226 H 581.88 2.25877 -4.49431 0
M  V30 6227 H 581.58 1.06188 -5.77926 0
M  V30 6228 H 583.104 1.99427 -5.77115 0
M  V30 6229 H 584.518 -0.276724 -5.72632 0
M  V30 6230 H 582.915 -1.04652 -5.90904 0
M  V30 6231 H 583.985 -1.55884 -4.5916 0
M  V30 6232 N 585.328 1.53329 -0.364422 0
M  V30 6233 C 586.739 1.86345 0.115039 0
M  V30 6234 C 587.09 1.28505 1.4826 0
M  V30 6235 O 586.215 0.606639 2.07723 0
M  V30 6236 C 586.81 3.38114 0.215522 0
M  V30 6237 C 585.369 3.70932 0.639237 0
M  V30 6238 C 584.516 2.76471 -0.214261 0
M  V30 6239 H 587.467 1.47593 -0.583258 0
M  V30 6240 H 587.488 3.66031 1.0393 0
M  V30 6241 H 587 3.80182 -0.779948 0
M  V30 6242 H 585.101 3.3442 1.64298 0
M  V30 6243 H 585.214 4.77302 0.41465 0
M  V30 6244 H 583.578 2.52724 0.316678 0
M  V30 6245 H 584.361 3.21373 -1.20725 0
M  V30 6246 N 586.806 0.0935595 1.57322 0
M  V30 6247 C 588.222 -0.263091 1.57417 0
M  V30 6248 C 588.422 -1.68526 1.1046 0
M  V30 6249 O 587.478 -2.40139 0.780357 0
M  V30 6250 C 588.791 -0.0529201 3.00653 0
M  V30 6251 C 590.339 -0.120788 3.12767 0
M  V30 6252 C 590.814 0.0613707 4.57959 0
M  V30 6253 N 592.305 0.00648534 4.632 0
M  V30 6254 C 593.04 0.122699 5.73269 0
M  V30 6255 N 592.536 0.29366 6.92177 0
M  V30 6256 N 594.329 0.0640787 5.62063 0
M  V30 6257 H 586.48 1.02277 1.86154 0
M  V30 6258 H 588.743 0.4007 0.859153 0
M  V30 6259 H 588.449 0.929279 3.39201 0
M  V30 6260 H 588.323 -0.795899 3.68708 0
M  V30 6261 H 590.71 -1.09349 2.74093 0
M  V30 6262 H 590.791 0.653656 2.47307 0
M  V30 6263 H 590.435 1.03093 4.97327 0
M  V30 6264 H 590.365 -0.732748 5.21477 0
M  V30 6265 H 592.856 -0.123173 3.77699 0
M  V30 6266 H 593.169 0.37389 7.71895 0
M  V30 6267 H 591.514 0.329307 6.94219 0
M  V30 6268 H 594.705 -0.0683396 4.6805 0
M  V30 6269 H 594.878 0.158097 6.47807 0
M  V30 6270 N 588.284 -1.56567 -0.180126 0
M  V30 6271 C 589.214 -1.98753 -1.22553 0
M  V30 6272 C 590.195 -0.86175 -1.46656 0
M  V30 6273 O 591.38 -1.12719 -1.58139 0
M  V30 6274 C 588.51 -2.33988 -2.56645 0
M  V30 6275 C 587.464 -3.49445 -2.47128 0
M  V30 6276 C 586.79 -3.70397 -3.8563 0
M  V30 6277 C 588.09 -4.83171 -1.98352 0
M  V30 6278 H 589.784 -2.86332 -0.874896 0
M  V30 6279 H 587.33 -1.37757 -0.419414 0
M  V30 6280 H 589.283 -2.62097 -3.29974 0
M  V30 6281 H 588.007 -1.43309 -2.93479 0
M  V30 6282 H 586.666 -3.2145 -1.76254 0
M  V30 6283 H 586.314 -2.77023 -4.19842 0
M  V30 6284 H 586.014 -4.48077 -3.80132 0
M  V30 6285 H 587.538 -4.00897 -4.60558 0
M  V30 6286 H 588.952 -5.10213 -2.61449 0
M  V30 6287 H 587.349 -5.64425 -2.03823 0
M  V30 6288 H 588.419 -4.75753 -0.937402 0
M  V30 6289 N 589.762 0.448376 -1.51087 0
M  V30 6290 C 590.725 1.52588 -1.71025 0
M  V30 6291 C 591.725 1.49958 -0.580442 0
M  V30 6292 O 592.915 1.52176 -0.847833 0
M  V30 6293 C 590.047 2.92163 -1.75652 0
M  V30 6294 H 591.24 1.36218 -2.67179 0
M  V30 6295 H 588.793 0.676313 -1.4091 0
M  V30 6296 H 589.528 3.13951 -0.812724 0
M  V30 6297 H 589.313 2.95478 -2.57751 0
M  V30 6298 H 590.803 3.70349 -1.92953 0
M  V30 6299 N 591.24 1.41047 0.703093 0
M  V30 6300 C 592.203 1.42036 1.79884 0
M  V30 6301 C 593.203 0.312153 1.57741 0
M  V30 6302 O 594.393 0.571672 1.64553 0
M  V30 6303 C 591.525 1.22437 3.18154 0
M  V30 6304 H 592.718 2.39572 1.80403 0
M  V30 6305 H 590.271 1.27079 0.909977 0
M  V30 6306 H 591.006 0.257112 3.23279 0
M  V30 6307 H 590.791 2.02723 3.35627 0
M  V30 6308 H 592.281 1.25946 3.98155 0
M  V30 6309 N 592.718 -0.936591 1.26751 0
M  V30 6310 C 593.965 -1.68331 1.12566 0
M  V30 6311 C 594.293 -1.91677 -0.330168 0
M  V30 6312 O 593.548 -1.49859 -1.2586 0
M  V30 6313 C 593.847 -3.06099 1.84494 0
M  V30 6314 C 593.513 -3.02493 3.34378 0
M  V30 6315 C 592.175 -3.01217 3.75262 0
M  V30 6316 C 594.527 -2.94453 4.30055 0
M  V30 6317 C 591.855 -2.89672 5.10203 0
M  V30 6318 C 594.207 -2.84449 5.65041 0
M  V30 6319 C 592.871 -2.81518 6.0523 0
M  V30 6320 H 592.141 -0.615965 0.411907 0
M  V30 6321 H 594.788 -1.09292 1.5725 0
M  V30 6322 H 593.093 -3.6879 1.32292 0
M  V30 6323 H 594.79 -3.62733 1.70955 0
M  V30 6324 H 591.38 -3.04269 3.01858 0
M  V30 6325 H 595.564 -2.94544 3.99447 0
M  V30 6326 H 590.82 -2.85783 5.40498 0
M  V30 6327 H 594.994 -2.77192 6.38856 0
M  V30 6328 H 592.621 -2.72329 7.09747 0
M  V30 6329 N 594.196 -1.08629 -1.14182 0
M  V30 6330 C 595.612 -0.814363 -1.3726 0
M  V30 6331 C 595.812 0.575271 -1.93114 0
M  V30 6332 O 594.868 1.33165 -2.1453 0
M  V30 6333 C 596.181 -1.8989 -2.33157 0
M  V30 6334 C 597.729 -1.92518 -2.46791 0
M  V30 6335 C 598.204 -3.00092 -3.45989 0
M  V30 6336 N 599.695 -2.99279 -3.53534 0
M  V30 6337 C 600.43 -3.79158 -4.30147 0
M  V30 6338 N 599.926 -4.68923 -5.09983 0
M  V30 6339 N 601.719 -3.67451 -4.25366 0
M  V30 6340 H 593.87 -1.98232 -0.762758 0
M  V30 6341 H 596.133 -0.860383 -0.398051 0
M  V30 6342 H 595.839 -2.89809 -1.99257 0
M  V30 6343 H 595.713 -1.77013 -3.33086 0
M  V30 6344 H 598.1 -0.932425 -2.79982 0
M  V30 6345 H 598.181 -2.09473 -1.46816 0
M  V30 6346 H 597.825 -3.99575 -3.13532 0
M  V30 6347 H 597.755 -2.80382 -4.45751 0
M  V30 6348 H 600.246 -2.3422 -2.96563 0
M  V30 6349 H 600.559 -5.26475 -5.65724 0
M  V30 6350 H 598.904 -4.72964 -5.09244 0
M  V30 6351 H 602.095 -2.9669 -3.62067 0
M  V30 6352 H 602.268 -4.29944 -4.84822 0
M  V30 6353 N 595.674 1.31259 -0.872281 0
M  V30 6354 C 597.085 1.78822 -0.536617 0
M  V30 6355 C 597.436 1.71855 0.946594 0
M  V30 6356 O 596.561 1.28769 1.73918 0
M  V30 6357 C 597.156 3.24698 -0.967294 0
M  V30 6358 C 595.715 3.70147 -0.683251 0
M  V30 6359 C 594.862 2.51994 -1.15733 0
M  V30 6360 H 597.813 1.18308 -1.05777 0
M  V30 6361 H 597.834 3.79386 -0.290929 0
M  V30 6362 H 597.346 3.29737 -2.04683 0
M  V30 6363 H 595.447 3.70607 0.384825 0
M  V30 6364 H 595.56 4.62183 -1.2619 0
M  V30 6365 H 593.924 2.48078 -0.577024 0
M  V30 6366 H 594.707 2.59778 -2.24434 0
M  V30 6367 N 597.152 0.631951 1.44375 0
M  V30 6368 C 598.377 0.142146 2.06912 0
M  V30 6369 C 598.802 -1.17456 1.4692 0
M  V30 6370 O 598.16 -1.72074 0.570975 0
M  V30 6371 C 598.208 0.0417952 3.60576 0
M  V30 6372 O 597.312 -1.00194 4.00044 0
M  V30 6373 H 596.653 0.0851491 0.658518 0
M  V30 6374 H 599.183 0.868863 1.85235 0
M  V30 6375 H 599.193 -0.148517 4.0773 0
M  V30 6376 H 597.868 1.0031 4.03622 0
M  V30 6377 H 596.445 -0.786131 3.64519 0
M  V30 6378 N 598.631 -1.53133 0.372548 0
M  V30 6379 C 599.594 -2.24569 -0.458389 0
M  V30 6380 C 600.594 -1.25603 -1.00402 0
M  V30 6381 O 601.784 -1.49827 -0.888672 0
M  V30 6382 C 598.916 -2.98783 -1.6414 0
M  V30 6383 H 600.109 -2.99436 0.166799 0
M  V30 6384 H 597.662 -1.55805 0.124357 0
M  V30 6385 H 598.397 -2.28176 -2.30448 0
M  V30 6386 H 598.182 -3.71404 -1.25704 0
M  V30 6387 H 599.672 -3.53068 -2.23008 0
M  V30 6388 N 600.109 -0.101901 -1.5727 0
M  V30 6389 C 601.356 0.560197 -1.94597 0
M  V30 6390 C 601.684 1.67767 -0.984101 0
M  V30 6391 O 600.939 1.95699 -0.00489193 0
M  V30 6392 C 601.238 1.14898 -3.38427 0
M  V30 6393 C 600.904 0.154613 -4.50635 0
M  V30 6394 C 599.566 -0.118861 -4.81053 0
M  V30 6395 C 601.918 -0.523979 -5.18559 0
M  V30 6396 C 599.246 -1.0775 -5.76721 0
M  V30 6397 C 601.598 -1.47114 -6.15256 0
M  V30 6398 C 600.262 -1.75278 -6.44076 0
M  V30 6399 H 599.532 0.204991 -0.712081 0
M  V30 6400 H 602.179 -0.17918 -1.9066 0
M  V30 6401 H 600.484 1.96476 -3.38976 0
M  V30 6402 H 602.181 1.66909 -3.64613 0
M  V30 6403 H 598.771 0.377948 -4.2693 0
M  V30 6404 H 602.955 -0.325851 -4.95229 0
M  V30 6405 H 598.211 -1.30263 -5.97362 0
M  V30 6406 H 602.385 -2.00274 -6.66981 0
M  V30 6407 H 600.012 -2.49717 -7.18015 0
M  V30 6408 N 601.587 1.56661 0.17182 0
M  V30 6409 C 602.815 1.861 0.904115 0
M  V30 6410 C 603.23 0.687227 1.75848 0
M  V30 6411 O 602.587 -0.343671 1.79235 0
M  V30 6412 C 602.638 3.14568 1.78127 0
M  V30 6413 O 602.359 4.27422 0.961366 0
M  V30 6414 C 603.86 3.5735 2.62327 0
M  V30 6415 H 601.08 0.617445 0.262684 0
M  V30 6416 H 603.624 2.03775 0.172068 0
M  V30 6417 H 601.779 2.98721 2.46666 0
M  V30 6418 H 602.193 5.00725 1.56123 0
M  V30 6419 H 603.667 4.50144 3.1949 0
M  V30 6420 H 604.144 2.81445 3.37173 0
M  V30 6421 H 604.75 3.75807 1.99121 0
M  V30 6422 N 603.065 -0.440357 1.51323 0
M  V30 6423 C 604.342 -1.20109 1.5438 0
M  V30 6424 C 604.722 -2.08866 0.306303 0
M  V30 6425 O 604.07 -2.1723 -0.708773 0
M  V30 6426 C 604.28 -2.00555 2.8562 0
M  V30 6427 C 605.628 -2.577 3.37455 0
M  V30 6428 O 606.652 -2.10769 2.8715 0
M  V30 6429 O 605.511 -3.43289 4.25224 0
M  V30 6430 H 602.605 -0.546668 0.620551 0
M  V30 6431 H 605.151 -0.449672 1.63634 0
M  V30 6432 H 603.923 -1.35346 3.67147 0
M  V30 6433 H 603.546 -2.82768 2.79514 0
M  V30 6434 N 604.543 -1.41418 -0.695603 0
M  V30 6435 C 605.771 -1.4413 -1.48439 0
M  V30 6436 C 606.186 -0.0465698 -1.88743 0
M  V30 6437 O 605.543 0.934117 -1.56782 0
M  V30 6438 C 605.594 -2.34998 -2.74696 0
M  V30 6439 O 605.315 -3.69043 -2.36091 0
M  V30 6440 C 606.816 -2.46513 -3.68438 0
M  V30 6441 H 604.036 -0.490905 -0.457442 0
M  V30 6442 H 606.58 -1.85702 -0.856454 0
M  V30 6443 H 604.735 -1.96735 -3.33728 0
M  V30 6444 H 605.149 -4.17505 -3.17474 0
M  V30 6445 H 606.623 -3.1426 -4.53811 0
M  V30 6446 H 607.1 -1.49638 -4.12922 0
M  V30 6447 H 607.706 -2.85412 -3.1531 0
M  V30 6448 N 606.021 0.929856 -1.27246 0
M  V30 6449 C 606.953 2.03434 -1.0558 0
M  V30 6450 C 607.966 1.62795 -0.0125762 0
M  V30 6451 O 609.155 1.76685 -0.2539 0
M  V30 6452 C 606.255 3.33915 -0.57912 0
M  V30 6453 C 605.428 4.03259 -1.69415 0
M  V30 6454 C 604.487 5.12014 -1.21357 0
M  V30 6455 O 603.513 5.36097 -1.91282 0
M  V30 6456 N 604.715 5.8046 -0.0680622 0
M  V30 6457 H 607.48 2.22583 -2.00691 0
M  V30 6458 H 605.041 1.1001 -1.18783 0
M  V30 6459 H 607.033 4.03978 -0.241563 0
M  V30 6460 H 605.603 3.11355 0.278703 0
M  V30 6461 H 604.823 3.26958 -2.20209 0
M  V30 6462 H 606.111 4.46337 -2.44255 0
M  V30 6463 H 605.509 5.63345 0.515626 0
M  V30 6464 H 604.066 6.51461 0.210332 0
M  V30 6465 N 607.499 1.09233 1.13605 0
M  V30 6466 C 608.729 0.847677 1.88409 0
M  V30 6467 C 609.137 -0.604524 1.79282 0
M  V30 6468 O 608.48 -1.42773 1.15592 0
M  V30 6469 C 608.542 1.20153 3.38827 0
M  V30 6470 C 608.206 2.65824 3.71735 0
M  V30 6471 C 609.203 3.64072 3.71143 0
M  V30 6472 C 606.888 3.01894 4.01454 0
M  V30 6473 C 608.882 4.96419 3.99808 0
M  V30 6474 C 606.569 4.34433 4.29781 0
M  V30 6475 C 607.567 5.31505 4.28942 0
M  V30 6476 O 607.255 6.61659 4.56576 0
M  V30 6477 H 606.987 0.304813 0.603378 0
M  V30 6478 H 609.541 1.4573 1.44748 0
M  V30 6479 H 607.771 0.534946 3.82982 0
M  V30 6480 H 609.46 0.936349 3.94952 0
M  V30 6481 H 610.226 3.37549 3.4826 0
M  V30 6482 H 606.105 2.26971 4.01255 0
M  V30 6483 H 609.649 5.7218 3.99069 0
M  V30 6484 H 605.546 4.607 4.52135 0
M  V30 6485 H 606.314 6.67102 4.74254 0
M  V30 6486 N 608.977 -1.30795 0.87923 0
M  V30 6487 C 609.907 -2.30742 0.357796 0
M  V30 6488 C 610.888 -1.60747 -0.556283 0
M  V30 6489 O 612.073 -1.88393 -0.47135 0
M  V30 6490 C 609.203 -3.44583 -0.433555 0
M  V30 6491 C 608.157 -4.26235 0.388251 0
M  V30 6492 C 607.483 -5.32073 -0.529352 0
M  V30 6493 C 608.783 -4.96303 1.62729 0
M  V30 6494 H 610.477 -2.74605 1.19299 0
M  V30 6495 H 608.023 -1.32017 0.575104 0
M  V30 6496 H 609.976 -4.13563 -0.808934 0
M  V30 6497 H 608.7 -2.99511 -1.30234 0
M  V30 6498 H 607.359 -3.58936 0.745695 0
M  V30 6499 H 607.007 -4.83249 -1.39569 0
M  V30 6500 H 606.707 -5.87598 0.0166741 0
M  V30 6501 H 608.231 -6.0391 -0.901373 0
M  V30 6502 H 609.645 -5.5783 1.32283 0
M  V30 6503 H 608.042 -5.61666 2.11309 0
M  V30 6504 H 609.112 -4.22758 2.37494 0
M  V30 6505 N 610.455 -0.639598 -1.44038 0
M  V30 6506 C 611.387 0.0987684 -2.28987 0
M  V30 6507 C 612.4 0.80058 -1.41755 0
M  V30 6508 O 613.589 0.660611 -1.65826 0
M  V30 6509 C 610.689 1.16242 -3.18341 0
M  V30 6510 C 609.862 0.541447 -4.34036 0
M  V30 6511 C 608.921 1.50017 -5.04362 0
M  V30 6512 O 607.947 1.01403 -5.60095 0
M  V30 6513 N 609.149 2.83441 -5.06598 0
M  V30 6514 H 611.914 -0.630305 -2.92997 0
M  V30 6515 H 609.475 -0.481376 -1.54578 0
M  V30 6516 H 611.467 1.80429 -3.62253 0
M  V30 6517 H 610.037 1.79362 -2.56024 0
M  V30 6518 H 609.257 -0.27923 -3.9321 0
M  V30 6519 H 610.545 0.107379 -5.08687 0
M  V30 6520 H 609.943 3.2551 -4.62666 0
M  V30 6521 H 608.5 3.42966 -5.54272 0
M  V30 6522 N 611.933 1.52934 -0.380664 0
M  V30 6523 C 613.21 1.93845 0.261417 0
M  V30 6524 C 613.59 1.31544 1.65104 0
M  V30 6525 O 612.938 0.480234 2.23397 0
M  V30 6526 C 613.148 3.47739 0.296466 0
M  V30 6527 C 614.496 4.21284 0.529578 0
M  V30 6528 O 615.52 3.54199 0.377041 0
M  V30 6529 O 614.379 5.40195 0.827753 0
M  V30 6530 H 611.473 0.811318 0.160285 0
M  V30 6531 H 614.019 1.64042 -0.434544 0
M  V30 6532 H 612.791 3.85395 -0.67724 0
M  V30 6533 H 612.414 3.8382 1.0377 0
M  V30 6534 N 613.412 0.11024 1.57214 0
M  V30 6535 C 614.64 -0.557834 1.99238 0
M  V30 6536 C 615.055 -1.60778 0.989734 0
M  V30 6537 O 614.412 -1.82491 -0.0186092 0
M  V30 6538 C 614.463 -1.19189 3.41286 0
M  V30 6539 O 614.184 -0.183919 4.37714 0
M  V30 6540 C 615.685 -1.94413 3.98395 0
M  V30 6541 H 612.905 -0.148392 0.654386 0
M  V30 6542 H 615.449 0.193996 2.03578 0
M  V30 6543 H 613.604 -1.89456 3.37913 0
M  V30 6544 H 614.018 -0.643475 5.20538 0
M  V30 6545 H 615.492 -2.34116 4.99894 0
M  V30 6546 H 615.969 -2.81592 3.3705 0
M  V30 6547 H 616.575 -1.28928 4.05287 0
M  V30 6548 N 614.89 -1.56749 -0.16351 0
M  V30 6549 C 615.823 -1.9213 -1.23132 0
M  V30 6550 C 616.801 -0.785047 -1.42393 0
M  V30 6551 O 617.985 -1.0391 -1.57273 0
M  V30 6552 C 615.112 -2.17901 -2.59301 0
M  V30 6553 C 614.158 -3.40576 -2.5673 0
M  V30 6554 S 614.991 -4.94689 -2.05045 0
M  V30 6555 C 616.147 -5.23564 -3.42975 0
M  V30 6556 H 616.38 -2.824 -0.929383 0
M  V30 6557 H 613.913 -1.4994 -0.368418 0
M  V30 6558 H 615.871 -2.33429 -3.3767 0
M  V30 6559 H 614.532 -1.28324 -2.86691 0
M  V30 6560 H 613.725 -3.55833 -3.5693 0
M  V30 6561 H 613.327 -3.24204 -1.86462 0
M  V30 6562 H 615.619 -5.16019 -4.3901 0
M  V30 6563 H 616.562 -6.25134 -3.32586 0
M  V30 6564 H 616.97 -4.51113 -3.39348 0
M  V30 6565 N 616.368 0.432326 -1.51554 0
M  V30 6566 C 617.316 1.54572 -1.73811 0
M  V30 6567 C 618.31 1.58246 -0.604539 0
M  V30 6568 O 619.516 1.6193 -0.786041 0
M  V30 6569 H 615.891 0.513626 -0.549265 0
M  V30 6570 H 617.862 1.32977 -2.67132 0
M  V30 6571 C 616.611 2.92181 -1.88483 0
M  V30 6572 H 615.934 2.90088 -2.75116 0
M  V30 6573 H 617.374 3.69439 -2.08065 0
M  V30 6574 C 615.833 3.3065 -0.645909 0
M  V30 6575 O 616.363 4.01216 0.197093 0
M  V30 6576 N 614.569 2.86464 -0.488538 0
M  V30 6577 H 614.116 2.29209 -1.17562 0
M  V30 6578 H 614.074 3.12565 0.339156 0
M  V30 6579 N 617.846 1.41785 0.688094 0
M  V30 6580 C 618.796 1.40684 1.79421 0
M  V30 6581 C 619.78 0.280096 1.58443 0
M  V30 6582 O 620.972 0.521332 1.69148 0
M  V30 6583 C 618.101 1.29874 3.17785 0
M  V30 6584 C 617.187 2.47442 3.44432 0
M  V30 6585 N 617.578 3.72895 3.41736 0
M  V30 6586 C 615.876 2.41416 3.75013 0
M  V30 6587 C 616.577 4.50912 3.67496 0
M  V30 6588 N 615.553 3.81131 3.87608 0
M  V30 6589 H 619.355 2.35591 1.7571 0
M  V30 6590 H 616.869 1.35946 0.888393 0
M  V30 6591 H 618.866 1.27168 3.97031 0
M  V30 6592 H 617.526 0.359587 3.22703 0
M  V30 6593 H 618.537 4.05676 3.21943 0
M  V30 6594 H 615.214 1.56011 3.87256 0
M  V30 6595 H 616.604 5.59865 3.71484 0
M  V30 6596 N 619.324 -0.923095 1.27737 0
M  V30 6597 C 620.57 -1.67375 1.14514 0
M  V30 6598 C 620.903 -1.91751 -0.307424 0
M  V30 6599 O 620.178 -1.51119 -1.22447 0
M  V30 6600 C 620.461 -3.03745 1.9342 0
M  V30 6601 C 620.314 -2.86581 3.46686 0
M  V30 6602 C 621.633 -4.04144 1.74228 0
M  V30 6603 H 618.752 -0.607427 0.417374 0
M  V30 6604 H 621.394 -1.07089 1.56946 0
M  V30 6605 H 619.544 -3.55204 1.5736 0
M  V30 6606 H 621.216 -2.42203 3.92601 0
M  V30 6607 H 619.459 -2.21829 3.72793 0
M  V30 6608 H 620.13 -3.83381 3.97143 0
M  V30 6609 H 622.606 -3.61712 2.05678 0
M  V30 6610 H 621.482 -4.97543 2.31824 0
M  V30 6611 H 621.743 -4.36661 0.691373 0
M  V30 6612 N 620.802 -1.09834 -1.13024 0
M  V30 6613 C 621.732 -0.763451 -2.20666 0
M  V30 6614 C 622.713 0.260778 -1.68089 0
M  V30 6615 O 623.898 0.127915 -1.93778 0
M  V30 6616 C 621.028 -0.187744 -3.46792 0
M  V30 6617 C 619.982 -1.14196 -4.12484 0
M  V30 6618 C 619.308 -0.427755 -5.32986 0
M  V30 6619 C 620.608 -2.48607 -4.59338 0
M  V30 6620 H 622.302 -1.66347 -2.48936 0
M  V30 6621 H 619.848 -0.801261 -1.19649 0
M  V30 6622 H 621.801 0.0586375 -4.21359 0
M  V30 6623 H 620.525 0.747485 -3.17931 0
M  V30 6624 H 619.184 -1.37369 -3.3989 0
M  V30 6625 H 618.832 0.511747 -5.0039 0
M  V30 6626 H 618.532 -1.06403 -5.77886 0
M  V30 6627 H 620.056 -0.189772 -6.10305 0
M  V30 6628 H 621.47 -2.29618 -5.25308 0
M  V30 6629 H 619.867 -3.08062 -5.14993 0
M  V30 6630 H 620.937 -3.09062 -3.73642 0
M  V30 6631 N 622.28 1.30327 -0.886154 0
M  V30 6632 C 623.505 2.0079 -0.519425 0
M  V30 6633 C 623.93 1.65979 0.885013 0
M  V30 6634 O 623.288 0.877043 1.58675 0
M  V30 6635 C 623.336 3.53686 -0.702758 0
M  V30 6636 O 622.44 4.11637 0.250828 0
M  V30 6637 H 621.781 0.63171 -0.204544 0
M  V30 6638 H 624.311 1.66145 -1.19402 0
M  V30 6639 H 624.321 4.03531 -0.602207 0
M  V30 6640 H 622.996 3.78361 -1.72673 0
M  V30 6641 H 621.573 3.72755 0.103873 0
M  V30 6642 N 623.758 0.647228 1.43697 0
M  V30 6643 C 624.998 0.16171 2.03759 0
M  V30 6644 C 625.362 -1.19951 1.49919 0
M  V30 6645 O 626.563 -1.77808 2.01588 0
M  V30 6646 C 624.834 0.16505 3.57019 0
M  V30 6647 S 626.393 -0.253497 4.38067 0
M  V30 6648 H 623.211 0.0689985 0.707644 0
M  V30 6649 H 625.813 0.854224 1.7585 0
M  V30 6650 H 624.517 1.15858 3.93707 0
M  V30 6651 H 624.048 -0.548194 3.89562 0
M  V30 6652 H 626.063 -1.49385 4.73179 0
M  V30 6653 N 625.236 -1.5273 0.388769 0
M  V30 6654 C 626.482 -2.01871 -0.193877 0
M  V30 6655 C 626.815 -1.27475 -1.46505 0
M  V30 6656 O 626.09 -0.375063 -1.90849 0
M  V30 6657 C 626.373 -3.5712 -0.462336 0
M  V30 6658 C 626.226 -4.42186 0.824091 0
M  V30 6659 C 627.545 -4.21881 -1.25319 0
M  V30 6660 H 624.664 -0.733764 -0.0689899 0
M  V30 6661 H 627.306 -1.82796 0.518231 0
M  V30 6662 H 625.456 -3.73504 -1.06896 0
M  V30 6663 H 627.128 -4.37554 1.46096 0
M  V30 6664 H 625.371 -4.09219 1.43952 0
M  V30 6665 H 626.042 -5.48828 0.590905 0
M  V30 6666 H 628.518 -4.0947 -0.73981 0
M  V30 6667 H 627.394 -5.30487 -1.40977 0
M  V30 6668 H 627.655 -3.79478 -2.26824 0
M  V30 6669 N 626.714 -0.118576 -1.57153 0
M  V30 6670 C 627.661 0.831789 -2.1529 0
M  V30 6671 C 628.631 1.26385 -1.07778 0
M  V30 6672 O 629.816 1.34144 -1.35684 0
M  V30 6673 C 626.956 2.07664 -2.75626 0
M  V30 6674 C 626.069 1.69298 -3.97444 0
M  V30 6675 C 625.204 2.88747 -4.45868 0
M  V30 6676 C 624.243 2.46619 -5.60219 0
M  V30 6677 N 623.38 3.5898 -6.03389 0
M  V30 6678 H 628.22 0.329183 -2.96176 0
M  V30 6679 H 625.757 0.150792 -1.46325 0
M  V30 6680 H 627.715 2.80601 -3.08738 0
M  V30 6681 H 626.345 2.55384 -1.97431 0
M  V30 6682 H 625.397 0.862374 -3.70496 0
M  V30 6683 H 626.709 1.34338 -4.80369 0
M  V30 6684 H 625.863 3.69909 -4.80887 0
M  V30 6685 H 624.602 3.26933 -3.61892 0
M  V30 6686 H 623.607 1.63889 -5.24805 0
M  V30 6687 H 624.832 2.0955 -6.45961 0
M  V30 6688 H 622.778 3.9684 -5.22354 0
M  V30 6689 H 622.695 3.27942 -6.81168 0
M  V30 6690 H 623.963 4.40583 -6.43045 0
M  V30 6691 N 628.193 1.56834 0.155195 0
M  V30 6692 C 629.14 1.97646 1.19184 0
M  V30 6693 C 630.11 0.842788 1.4313 0
M  V30 6694 O 631.295 1.1042 1.55602 0
M  V30 6695 C 628.435 2.35527 2.52232 0
M  V30 6696 C 627.548 3.62147 2.35529 0
M  V30 6697 C 626.683 3.89167 3.61555 0
M  V30 6698 C 625.722 5.09084 3.39853 0
M  V30 6699 N 624.859 5.32156 4.5799 0
M  V30 6700 H 629.699 2.8601 0.836802 0
M  V30 6701 H 627.236 1.41507 0.401758 0
M  V30 6702 H 629.194 2.55516 3.29799 0
M  V30 6703 H 627.824 1.50253 2.85699 0
M  V30 6704 H 626.876 3.4998 1.49057 0
M  V30 6705 H 628.188 4.49871 2.15448 0
M  V30 6706 H 627.342 4.09611 4.47553 0
M  V30 6707 H 626.081 2.9985 3.84632 0
M  V30 6708 H 625.086 4.88522 2.52243 0
M  V30 6709 H 626.311 5.99947 3.18183 0
M  V30 6710 H 624.257 4.45791 4.81255 0
M  V30 6711 H 624.174 6.14133 4.40882 0
M  V30 6712 H 625.442 5.57091 5.45225 0
M  V30 6713 N 629.671 -0.424282 1.51781 0
M  V30 6714 C 630.581 -1.54087 1.76902 0
M  V30 6715 C 631.597 -1.61249 0.653826 0
M  V30 6716 O 632.773 -1.78247 0.937552 0
M  V30 6717 C 629.838 -2.8996 1.90063 0
M  V30 6718 C 628.899 -2.92809 3.13945 0
M  V30 6719 C 628.132 -4.22201 3.26469 0
M  V30 6720 O 628.355 -5.15286 2.44616 0
M  V30 6721 O 627.289 -4.31599 4.1953 0
M  V30 6722 H 631.115 -1.358 2.71647 0
M  V30 6723 H 628.7 -0.608618 1.36441 0
M  V30 6724 H 630.582 -3.70575 2.0063 0
M  V30 6725 H 629.257 -3.08347 0.985067 0
M  V30 6726 H 628.164 -2.11102 3.08847 0
M  V30 6727 H 629.497 -2.79369 4.05233 0
M  V30 6728 N 631.149 -1.42148 -0.680565 0
M  V30 6729 C 632.096 -1.45175 -1.79424 0
M  V30 6730 C 633.066 -0.304352 -1.63288 0
M  V30 6731 O 634.251 -0.507591 -1.83924 0
M  V30 6732 C 631.391 -1.35429 -3.17416 0
M  V30 6733 C 630.504 -2.60158 -3.4488 0
M  V30 6734 C 629.639 -2.42596 -4.72568 0
M  V30 6735 C 628.678 -3.62727 -4.93047 0
M  V30 6736 N 627.815 -3.44143 -6.11973 0
M  V30 6737 H 632.655 -2.40349 -1.76172 0
M  V30 6738 H 630.192 -1.19334 -0.860107 0
M  V30 6739 H 632.15 -1.27777 -3.97151 0
M  V30 6740 H 630.78 -0.438536 -3.19807 0
M  V30 6741 H 629.832 -2.78199 -2.5944 0
M  V30 6742 H 631.144 -3.49473 -3.55908 0
M  V30 6743 H 630.298 -2.32497 -5.60384 0
M  V30 6744 H 629.037 -1.50761 -4.63813 0
M  V30 6745 H 628.042 -3.73264 -4.03676 0
M  V30 6746 H 629.267 -4.55534 -5.03652 0
M  V30 6747 H 627.213 -2.5502 -6.04401 0
M  V30 6748 H 627.13 -4.27041 -6.23836 0
M  V30 6749 H 628.398 -3.37845 -7.02482 0
M  V30 6750 N 632.627 0.916307 -1.28225 0
M  V30 6751 C 633.537 2.05165 -1.13775 0
M  V30 6752 C 634.553 1.73879 -0.0649418 0
M  V30 6753 O 635.729 1.99531 -0.273722 0
M  V30 6754 C 632.794 3.37385 -0.798267 0
M  V30 6755 C 631.855 3.82296 -1.95316 0
M  V30 6756 C 631.088 5.08206 -1.62978 0
M  V30 6757 O 631.311 5.6781 -0.542948 0
M  V30 6758 O 630.245 5.48768 -2.47261 0
M  V30 6759 H 634.071 2.20273 -2.09078 0
M  V30 6760 H 631.656 1.0373 -1.07519 0
M  V30 6761 H 633.538 4.16773 -0.62278 0
M  V30 6762 H 632.213 3.23458 0.125139 0
M  V30 6763 H 631.12 3.03746 -2.18378 0
M  V30 6764 H 632.453 4.00782 -2.85718 0
M  V30 6765 N 634.105 1.10431 1.1244 0
M  V30 6766 C 635.521 0.836096 1.35947 0
M  V30 6767 C 635.721 -0.544475 1.94004 0
M  V30 6768 O 634.777 -1.29735 2.16622 0
M  V30 6769 C 636.09 1.93575 2.30107 0
M  V30 6770 C 637.638 1.9642 2.43697 0
M  V30 6771 C 638.113 3.05559 3.41171 0
M  V30 6772 N 639.604 3.04865 3.48728 0
M  V30 6773 C 640.339 3.85954 4.24061 0
M  V30 6774 N 639.835 4.76977 5.02458 0
M  V30 6775 N 641.628 3.74172 4.19466 0
M  V30 6776 H 633.779 1.9942 0.731124 0
M  V30 6777 H 636.042 0.866607 0.384312 0
M  V30 6778 H 635.748 2.92943 1.94621 0
M  V30 6779 H 635.622 1.8229 3.30227 0
M  V30 6780 H 638.009 0.97685 2.78463 0
M  V30 6781 H 638.09 2.11782 1.43465 0
M  V30 6782 H 637.734 4.04513 3.07135 0
M  V30 6783 H 637.664 2.87438 4.41234 0
M  V30 6784 H 640.155 2.38908 2.92799 0
M  V30 6785 H 640.468 5.35409 5.57277 0
M  V30 6786 H 638.813 4.81006 5.01655 0
M  V30 6787 H 642.004 3.02412 3.57302 0
M  V30 6788 H 642.177 4.37602 4.77921 0
M  V30 6789 N 635.583 -1.29855 0.893053 0
M  V30 6790 C 636.811 -1.99976 0.530788 0
M  V30 6791 C 637.226 -1.66889 -0.882799 0
M  V30 6792 O 636.583 -0.910352 -1.58173 0
M  V30 6793 C 636.634 -3.54547 0.705587 0
M  V30 6794 O 636.355 -3.86458 2.06353 0
M  V30 6795 C 637.856 -4.41937 0.347387 0
M  V30 6796 H 635.076 -0.639129 0.204339 0
M  V30 6797 H 637.62 -1.65549 1.20057 0
M  V30 6798 H 635.775 -3.87311 0.0830685 0
M  V30 6799 H 636.189 -4.81146 2.08803 0
M  V30 6800 H 637.663 -5.4954 0.520557 0
M  V30 6801 H 638.14 -4.33339 -0.715139 0
M  V30 6802 H 638.746 -4.14633 0.946567 0
M  V30 6803 N 637.061 -0.65484 -1.43351 0
M  V30 6804 C 638.024 0.0263562 -2.29185 0
M  V30 6805 C 639.024 0.748951 -1.42293 0
M  V30 6806 O 640.214 0.589957 -1.63906 0
M  V30 6807 C 637.346 1.04806 -3.2439 0
M  V30 6808 H 638.539 -0.728883 -2.90908 0
M  V30 6809 H 636.092 -0.416149 -1.50658 0
M  V30 6810 H 636.827 1.83247 -2.67565 0
M  V30 6811 H 636.612 0.533554 -3.88453 0
M  V30 6812 H 638.102 1.52372 -3.88809 0
M  V30 6813 N 638.539 1.52521 -0.396863 0
M  V30 6814 C 639.502 2.2527 0.422604 0
M  V30 6815 C 640.502 1.27184 0.983913 0
M  V30 6816 O 641.692 1.51222 0.864723 0
M  V30 6817 C 638.824 3.01356 1.59365 0
M  V30 6818 H 640.017 2.99133 -0.214416 0
M  V30 6819 H 637.57 1.55587 -0.149128 0
M  V30 6820 H 638.305 2.31813 2.26789 0
M  V30 6821 H 638.09 3.73357 1.19779 0
M  V30 6822 H 639.58 3.56571 2.17363 0
M  V30 6823 N 640.017 0.126909 1.57088 0
M  V30 6824 C 641.264 -0.529168 1.95464 0
M  V30 6825 C 641.592 -1.6618 1.01067 0
M  V30 6826 O 640.847 -1.95667 0.0360254 0
M  V30 6827 C 641.146 -1.095 3.40212 0
M  V30 6828 C 640.812 -0.0829015 4.50824 0
M  V30 6829 C 639.474 0.195377 4.80803 0
M  V30 6830 C 641.826 0.606411 5.1766 0
M  V30 6831 C 639.154 1.16912 5.74933 0
M  V30 6832 C 641.506 1.56884 6.12838 0
M  V30 6833 C 640.17 1.85502 6.41206 0
M  V30 6834 H 639.44 -0.193636 0.715252 0
M  V30 6835 H 642.087 0.209489 1.90351 0
M  V30 6836 H 640.392 -1.91058 3.42059 0
M  V30 6837 H 642.089 -1.61087 3.67222 0
M  V30 6838 H 638.679 -0.309979 4.27478 0
M  V30 6839 H 642.863 0.404597 4.94648 0
M  V30 6840 H 638.119 1.3975 5.95214 0
M  V30 6841 H 642.293 2.10859 6.6371 0
M  V30 6842 H 639.92 2.61109 7.13951 0
M  V30 6843 N 641.495 -1.56914 -0.146875 0
M  V30 6844 C 642.427 -1.94878 -1.20645 0
M  V30 6845 C 643.44 -0.844633 -1.39175 0
M  V30 6846 O 644.629 -1.12304 -1.38744 0
M  V30 6847 C 641.729 -2.20769 -2.57127 0
M  V30 6848 C 640.902 -3.52053 -2.59572 0
M  V30 6849 C 639.961 -3.66482 -3.77594 0
M  V30 6850 O 638.987 -4.38873 -3.62462 0
M  V30 6851 N 640.189 -3.03156 -4.95052 0
M  V30 6852 H 642.954 -2.86374 -0.883757 0
M  V30 6853 H 640.515 -1.58366 -0.336436 0
M  V30 6854 H 642.507 -2.27664 -3.34591 0
M  V30 6855 H 641.077 -1.35538 -2.81688 0
M  V30 6856 H 640.297 -3.56598 -1.68023 0
M  V30 6857 H 641.585 -4.38396 -2.58238 0
M  V30 6858 H 640.983 -2.44258 -5.10249 0
M  V30 6859 H 639.54 -3.15611 -5.70292 0
M  V30 6860 N 642.974 0.416227 -1.52004 0
M  V30 6861 C 643.937 1.48926 -1.74223 0
M  V30 6862 C 644.937 1.48693 -0.612119 0
M  V30 6863 O 646.127 1.50343 -0.879921 0
M  V30 6864 C 643.259 2.88372 -1.81809 0
M  V30 6865 H 644.452 1.3052 -2.70008 0
M  V30 6866 H 642.005 0.646271 -1.42313 0
M  V30 6867 H 642.74 3.12157 -0.879135 0
M  V30 6868 H 642.525 2.89944 -2.6396 0
M  V30 6869 H 644.015 3.66173 -2.00766 0
M  V30 6870 N 644.452 1.42507 0.673017 0
M  V30 6871 C 645.382 1.48916 1.79851 0
M  V30 6872 C 646.363 0.345566 1.66553 0
M  V30 6873 O 647.548 0.560116 1.85947 0
M  V30 6874 C 644.678 1.39258 3.18158 0
M  V30 6875 C 643.632 2.51662 3.46194 0
M  V30 6876 C 642.958 2.27062 4.84094 0
M  V30 6877 C 644.258 3.93968 3.42909 0
M  V30 6878 H 645.952 2.43114 1.74745 0
M  V30 6879 H 643.498 1.17013 0.839288 0
M  V30 6880 H 645.451 1.42349 3.96629 0
M  V30 6881 H 644.175 0.415542 3.23946 0
M  V30 6882 H 642.834 2.47891 2.70084 0
M  V30 6883 H 642.482 1.27648 4.86534 0
M  V30 6884 H 642.182 3.02398 5.03815 0
M  V30 6885 H 643.706 2.31905 5.64847 0
M  V30 6886 H 645.12 3.99332 4.11347 0
M  V30 6887 H 643.517 4.6917 3.74165 0
M  V30 6888 H 644.587 4.20512 2.41449 0
M  V30 6889 N 645.93 -0.909495 1.28709 0
M  V30 6890 C 647.178 -1.65577 1.15882 0
M  V30 6891 C 647.499 -1.928 -0.292108 0
M  V30 6892 O 646.769 -1.54716 -1.20166 0
M  V30 6893 H 645.349 -0.613714 0.425869 0
M  V30 6894 H 648.011 -1.09108 1.61498 0
M  V30 6895 H 647.107 -2.61634 1.70159 0
M  V30 6896 N 647.408 -1.11026 -1.11852 0
M  V30 6897 C 648.338 -0.786812 -2.19844 0
M  V30 6898 C 649.319 0.242935 -1.68356 0
M  V30 6899 O 650.504 0.107355 -1.93903 0
M  V30 6900 C 647.634 -0.224516 -3.46574 0
M  V30 6901 C 646.588 -1.18564 -4.1125 0
M  V30 6902 C 645.914 -0.484261 -5.32503 0
M  V30 6903 C 647.214 -2.53465 -4.56676 0
M  V30 6904 H 648.908 -1.68978 -2.47158 0
M  V30 6905 H 646.454 -0.813906 -1.18792 0
M  V30 6906 H 648.407 0.0139435 -4.21398 0
M  V30 6907 H 647.131 0.713722 -3.18706 0
M  V30 6908 H 645.79 -1.40966 -3.38414 0
M  V30 6909 H 645.438 0.458646 -5.00905 0
M  V30 6910 H 645.138 -1.12526 -5.76725 0
M  V30 6911 H 646.662 -0.254492 -6.10069 0
M  V30 6912 H 648.076 -2.35177 -5.22843 0
M  V30 6913 H 646.473 -3.13507 -5.11697 0
M  V30 6914 H 647.543 -3.13008 -3.70343 0
M  V30 6915 N 648.886 1.2938 -0.899927 0
M  V30 6916 C 649.816 2.30144 -0.39446 0
M  V30 6917 C 650.797 1.61611 0.530639 0
M  V30 6918 O 651.982 1.89119 0.441319 0
M  V30 6919 C 649.112 3.45229 0.37868 0
M  V30 6920 C 648.066 4.25564 -0.456012 0
M  V30 6921 C 647.392 5.32848 0.444637 0
M  V30 6922 C 648.692 4.93651 -1.70605 0
M  V30 6923 H 650.386 2.72673 -1.23653 0
M  V30 6924 H 647.932 1.31086 -0.596034 0
M  V30 6925 H 649.885 4.14797 0.743037 0
M  V30 6926 H 648.609 3.01545 1.25453 0
M  V30 6927 H 647.268 3.57704 -0.802704 0
M  V30 6928 H 646.916 4.85408 1.31863 0
M  V30 6929 H 646.616 5.87497 -0.110154 0
M  V30 6930 H 648.14 6.05268 0.805182 0
M  V30 6931 H 649.554 5.55655 -1.41141 0
M  V30 6932 H 647.951 5.58233 -2.20217 0
M  V30 6933 H 649.021 4.18926 -2.4419 0
M  V30 6934 N 650.364 0.662433 1.43002 0
M  V30 6935 C 651.589 0.186003 2.06564 0
M  V30 6936 C 652.014 -1.14314 1.49379 0
M  V30 6937 O 651.372 -1.70824 0.607346 0
M  V30 6938 C 651.42 0.118269 3.60406 0
M  V30 6939 O 650.524 -0.916859 4.02079 0
M  V30 6940 H 649.865 0.0990981 0.656563 0
M  V30 6941 H 652.395 0.907958 1.8335 0
M  V30 6942 H 652.405 -0.0619981 4.07953 0
M  V30 6943 H 651.08 1.08849 4.01403 0
M  V30 6944 H 649.657 -0.708635 3.66105 0
M  V30 6945 N 651.842 -1.52309 0.404946 0
M  V30 6946 C 653.088 -2.02065 -0.172455 0
M  V30 6947 C 653.421 -1.29022 -1.45145 0
M  V30 6948 O 652.696 -0.395284 -1.90441 0
M  V30 6949 C 652.979 -3.5759 -0.424433 0
M  V30 6950 C 652.832 -4.41287 0.870945 0
M  V30 6951 C 654.151 -4.23186 -1.20837 0
M  V30 6952 H 651.27 -0.734454 -0.0612035 0
M  V30 6953 H 653.912 -1.82236 0.53759 0
M  V30 6954 H 652.062 -3.74617 -1.02929 0
M  V30 6955 H 653.734 -4.3598 1.50729 0
M  V30 6956 H 651.977 -4.07669 1.48284 0
M  V30 6957 H 652.648 -5.48171 0.649083 0
M  V30 6958 H 655.124 -4.10232 -0.696338 0
M  V30 6959 H 654 -5.31953 -1.35343 0
M  V30 6960 H 654.261 -3.81862 -2.22786 0
M  V30 6961 N 653.32 -0.135238 -1.57019 0
M  V30 6962 C 654.283 0.794707 -2.14981 0
M  V30 6963 C 655.283 1.18342 -1.08866 0
M  V30 6964 O 656.473 1.10627 -1.34563 0
M  V30 6965 C 653.605 2.07685 -2.70333 0
M  V30 6966 H 654.798 0.290696 -2.98488 0
M  V30 6967 H 652.351 0.114128 -1.55883 0
M  V30 6968 H 653.086 2.6248 -1.9046 0
M  V30 6969 H 652.871 1.80745 -3.47957 0
M  V30 6970 H 654.361 2.74127 -3.1503 0
M  V30 6971 N 654.798 1.5699 0.138552 0
M  V30 6972 C 656.044 1.84081 0.85099 0
M  V30 6973 C 656.377 0.718107 1.80435 0
M  V30 6974 O 655.652 -0.277633 1.92508 0
M  V30 6975 C 655.935 3.21699 1.61808 0
M  V30 6976 C 655.788 4.44544 0.685633 0
M  V30 6977 C 657.107 3.5664 2.57868 0
M  V30 6978 H 654.226 0.669592 0.307922 0
M  V30 6979 H 656.868 1.89646 0.11588 0
M  V30 6980 H 655.018 3.17086 2.24474 0
M  V30 6981 H 656.69 4.61248 0.0693179 0
M  V30 6982 H 654.933 4.338 -0.00421993 0
M  V30 6983 H 655.604 5.3746 1.25858 0
M  V30 6984 H 658.08 3.61918 2.05316 0
M  V30 6985 H 656.956 4.53946 3.08584 0
M  V30 6986 H 657.217 2.83036 3.39622 0
M  V30 6987 N 656.276 -0.40816 1.52223 0
M  V30 6988 C 657.692 -0.74685 1.41047 0
M  V30 6989 C 657.892 -1.94788 0.51573 0
M  V30 6990 O 656.948 -2.52494 -0.0181156 0
M  V30 6991 C 658.261 -0.999878 2.83589 0
M  V30 6992 C 659.809 -1.10253 2.92939 0
M  V30 6993 C 660.284 -1.38832 4.36451 0
M  V30 6994 N 661.775 -1.45694 4.3969 0
M  V30 6995 C 662.51 -1.69435 5.47795 0
M  V30 6996 N 662.006 -1.90774 6.66016 0
M  V30 6997 N 663.799 -1.71458 5.35312 0
M  V30 6998 H 655.95 0.382409 2.08929 0
M  V30 6999 H 658.213 0.108807 0.941735 0
M  V30 7000 H 657.919 -0.189723 3.51188 0
M  V30 7001 H 657.793 -1.91978 3.24691 0
M  V30 7002 H 660.18 -1.90328 2.2552 0
M  V30 7003 H 660.261 -0.160973 2.55293 0
M  V30 7004 H 659.905 -0.592741 5.04429 0
M  V30 7005 H 659.835 -2.34241 4.71634 0
M  V30 7006 H 662.326 -1.3099 3.54472 0
M  V30 7007 H 662.639 -2.08342 7.44186 0
M  V30 7008 H 660.984 -1.88037 6.69079 0
M  V30 7009 H 664.175 -1.54326 4.41929 0
M  V30 7010 H 664.348 -1.89621 6.19635 0
M  V30 7011 N 657.755 -1.42862 -0.66545 0
M  V30 7012 C 658.98 -1.47456 -1.45848 0
M  V30 7013 C 659.405 -0.0900312 -1.87884 0
M  V30 7014 O 658.763 0.913587 -1.56599 0
M  V30 7015 C 658.811 -2.41514 -2.67774 0
M  V30 7016 O 657.915 -1.89296 -3.66389 0
M  V30 7017 H 657.256 -0.499236 -0.437789 0
M  V30 7018 H 659.786 -1.8765 -0.815394 0
M  V30 7019 H 659.796 -2.58409 -3.15735 0
M  V30 7020 H 658.471 -3.42099 -2.36519 0
M  V30 7021 H 657.048 -1.82003 -3.25468 0
M  V30 7022 N 659.233 0.902656 -1.29189 0
M  V30 7023 C 660.143 2.03946 -1.15944 0
M  V30 7024 C 661.159 1.738 -0.0833803 0
M  V30 7025 O 662.335 1.9923 -0.29487 0
M  V30 7026 C 659.4 3.36519 -0.834006 0
M  V30 7027 C 658.461 3.80203 -1.9936 0
M  V30 7028 C 657.694 5.06449 -1.68359 0
M  V30 7029 O 657.917 5.67202 -0.603141 0
M  V30 7030 O 656.851 5.46114 -2.53067 0
M  V30 7031 H 660.677 2.18043 -2.11403 0
M  V30 7032 H 658.262 1.02584 -1.08613 0
M  V30 7033 H 660.144 4.16089 -0.666949 0
M  V30 7034 H 658.819 3.23573 0.0908245 0
M  V30 7035 H 657.726 3.01413 -2.21588 0
M  V30 7036 H 659.059 3.97729 -2.89952 0
M  V30 7037 N 660.711 1.11618 1.11262 0
M  V30 7038 C 661.958 0.86618 1.8304 0
M  V30 7039 C 662.286 -0.608149 1.84748 0
M  V30 7040 O 661.541 -1.46508 1.29745 0
M  V30 7041 C 661.84 1.37529 3.2988 0
M  V30 7042 C 661.506 2.86317 3.4833 0
M  V30 7043 C 660.168 3.26945 3.53073 0
M  V30 7044 C 662.52 3.82136 3.54431 0
M  V30 7045 C 659.848 4.62117 3.61475 0
M  V30 7046 C 662.2 5.17128 3.64365 0
M  V30 7047 C 660.864 5.57312 3.67369 0
M  V30 7048 H 660.134 0.316958 0.66979 0
M  V30 7049 H 662.781 1.3949 1.31205 0
M  V30 7050 H 661.086 0.766842 3.84222 0
M  V30 7051 H 662.783 1.15817 3.83911 0
M  V30 7052 H 659.373 2.53889 3.45309 0
M  V30 7053 H 663.557 3.51847 3.50025 0
M  V30 7054 H 658.813 4.92655 3.62079 0
M  V30 7055 H 662.987 5.91208 3.68029 0
M  V30 7056 H 660.614 6.62045 3.73632 0
M  V30 7057 N 662.189 -1.289 0.906776 0
M  V30 7058 C 663.136 -2.2751 0.388313 0
M  V30 7059 C 664.106 -1.57301 -0.533439 0
M  V30 7060 O 665.291 -1.85243 -0.457148 0
M  V30 7061 C 662.431 -3.43091 -0.37181 0
M  V30 7062 C 661.544 -4.28066 0.581647 0
M  V30 7063 C 660.679 -5.30837 -0.19623 0
M  V30 7064 C 659.718 -6.07472 0.751294 0
M  V30 7065 N 658.855 -7.021 0.00737727 0
M  V30 7066 H 663.695 -2.71237 1.23428 0
M  V30 7067 H 661.232 -1.33397 0.619962 0
M  V30 7068 H 663.19 -4.08888 -0.828641 0
M  V30 7069 H 661.82 -3.00374 -1.18218 0
M  V30 7070 H 660.872 -3.62378 1.157 0
M  V30 7071 H 662.184 -4.81382 1.30665 0
M  V30 7072 H 661.338 -6.02485 -0.71394 0
M  V30 7073 H 660.077 -4.78272 -0.954324 0
M  V30 7074 H 659.082 -5.34682 1.28044 0
M  V30 7075 H 660.307 -6.62126 1.50883 0
M  V30 7076 H 658.253 -6.51894 -0.732854 0
M  V30 7077 H 658.17 -7.53004 0.672334 0
M  V30 7078 H 659.438 -7.77956 -0.490365 0
M  V30 7079 N 663.667 -0.670007 -1.42649 0
M  V30 7080 C 664.913 -0.190568 -2.01903 0
M  V30 7081 C 665.246 1.19817 -1.52832 0
M  V30 7082 O 664.521 1.80342 -0.728485 0
M  V30 7083 C 664.804 -0.21991 -3.59428 0
M  V30 7084 C 664.657 -1.64376 -4.18689 0
M  V30 7085 C 665.976 0.434519 -4.3795 0
M  V30 7086 H 663.095 -0.0707219 -0.733599 0
M  V30 7087 H 665.737 -0.853883 -1.69732 0
M  V30 7088 H 663.887 0.344894 -3.86966 0
M  V30 7089 H 665.559 -2.26044 -4.02122 0
M  V30 7090 H 663.802 -2.18591 -3.747 0
M  V30 7091 H 664.473 -1.61601 -5.27815 0
M  V30 7092 H 666.949 -0.0462156 -4.16074 0
M  V30 7093 H 665.825 0.38333 -5.4756 0
M  V30 7094 H 666.086 1.51135 -4.15464 0
M  V30 7095 N 665.145 1.52092 -0.413018 0
M  V30 7096 C 666.375 2.05974 0.160648 0
M  V30 7097 C 666.783 1.28267 1.39084 0
M  V30 7098 O 666.126 0.328805 1.80733 0
M  V30 7099 C 666.188 3.54918 0.572169 0
M  V30 7100 C 665.852 4.53705 -0.547826 0
M  V30 7101 C 666.849 5.00342 -1.41259 0
M  V30 7102 C 664.534 4.97089 -0.721627 0
M  V30 7103 C 666.528 5.89011 -2.43607 0
M  V30 7104 C 664.215 5.85554 -1.74841 0
M  V30 7105 C 665.213 6.3141 -2.60403 0
M  V30 7106 O 664.901 7.18123 -3.61323 0
M  V30 7107 H 664.633 0.675636 0.0221936 0
M  V30 7108 H 667.187 1.96931 -0.58373 0
M  V30 7109 H 665.417 3.61661 1.36889 0
M  V30 7110 H 667.106 3.91428 1.0742 0
M  V30 7111 H 667.872 4.67537 -1.28974 0
M  V30 7112 H 663.751 4.60954 -0.0652911 0
M  V30 7113 H 667.295 6.24725 -3.10425 0
M  V30 7114 H 663.192 6.17773 -1.87156 0
M  V30 7115 H 663.96 7.36244 -3.57613 0
M  V30 7116 N 666.623 0.143563 1.56945 0
M  V30 7117 C 667.553 -0.7936 2.196 0
M  V30 7118 C 668.534 -1.25955 1.14321 0
M  V30 7119 O 669.719 -1.31773 1.42651 0
M  V30 7120 C 666.849 -2.03424 2.81489 0
M  V30 7121 C 665.803 -1.70519 3.92565 0
M  V30 7122 C 665.129 -3.01817 4.41373 0
M  V30 7123 C 666.429 -0.95449 5.13504 0
M  V30 7124 H 668.123 -0.271423 2.98167 0
M  V30 7125 H 665.669 -0.12911 1.4342 0
M  V30 7126 H 667.622 -2.69463 3.23987 0
M  V30 7127 H 666.346 -2.58008 2.00248 0
M  V30 7128 H 665.005 -1.06859 3.5068 0
M  V30 7129 H 664.653 -3.54386 3.56959 0
M  V30 7130 H 664.353 -2.80565 5.16292 0
M  V30 7131 H 665.877 -3.68934 4.86539 0
M  V30 7132 H 667.291 -1.5169 5.52868 0
M  V30 7133 H 665.688 -0.842035 5.94163 0
M  V30 7134 H 666.758 0.0544033 4.84869 0
M  V30 7135 N 668.101 -1.57061 -0.130224 0
M  V30 7136 C 669.512 -1.73539 -0.68856 0
M  V30 7137 C 669.863 -0.760554 -1.80859 0
M  V30 7138 O 668.988 0.0690796 -2.1629 0
M  V30 7139 C 669.583 -3.14666 -1.25581 0
M  V30 7140 C 668.142 -3.32689 -1.76055 0
M  V30 7141 C 667.289 -2.69436 -0.655712 0
M  V30 7142 H 670.24 -1.58412 0.0956002 0
M  V30 7143 H 670.261 -3.15595 -2.12556 0
M  V30 7144 H 669.773 -3.85593 -0.440412 0
M  V30 7145 H 667.874 -2.66786 -2.60108 0
M  V30 7146 H 667.987 -4.4077 -1.87772 0
M  V30 7147 H 666.351 -2.30362 -1.08654 0
M  V30 7148 H 667.134 -3.42979 0.14852 0
M  V30 7149 N 669.579 0.400081 -1.52437 0
M  V30 7150 C 670.995 0.739359 -1.41441 0
M  V30 7151 C 671.195 1.94512 -0.526053 0
M  V30 7152 O 670.251 2.525 0.00472502 0
M  V30 7153 C 671.564 0.984824 -2.84116 0
M  V30 7154 C 673.112 1.08698 -2.93519 0
M  V30 7155 C 673.587 1.36515 -4.37181 0
M  V30 7156 N 675.078 1.43361 -4.40457 0
M  V30 7157 C 675.813 1.66528 -5.48686 0
M  V30 7158 N 675.309 1.87239 -6.67018 0
M  V30 7159 N 677.102 1.68617 -5.36213 0
M  V30 7160 H 669.253 -0.393484 -2.08723 0
M  V30 7161 H 671.516 -0.1138 -0.941145 0
M  V30 7162 H 671.222 0.171096 -3.51284 0
M  V30 7163 H 671.096 1.90253 -3.25705 0
M  V30 7164 H 673.483 1.89129 -2.26526 0
M  V30 7165 H 673.564 0.147432 -2.55375 0
M  V30 7166 H 673.208 0.565982 -5.04737 0
M  V30 7167 H 673.138 2.31737 -4.7287 0
M  V30 7168 H 675.629 1.29108 -3.55161 0
M  V30 7169 H 675.942 2.04392 -7.45281 0
M  V30 7170 H 674.287 1.84486 -6.70067 0
M  V30 7171 H 677.478 1.5198 -4.42741 0
M  V30 7172 H 677.651 1.86332 -6.20632 0
M  V30 7173 N 671.057 1.43213 0.657864 0
M  V30 7174 C 672.303 1.44798 1.41991 0
M  V30 7175 C 672.636 0.070256 1.94073 0
M  V30 7176 O 671.911 -0.908177 1.71995 0
M  V30 7177 C 672.194 2.4865 2.60471 0
M  V30 7178 C 672.047 3.95679 2.13911 0
M  V30 7179 C 673.366 2.49292 3.62686 0
M  V30 7180 H 670.485 0.527244 0.514959 0
M  V30 7181 H 673.127 1.74733 0.74621 0
M  V30 7182 H 671.277 2.23254 3.17946 0
M  V30 7183 H 672.949 4.32116 1.61472 0
M  V30 7184 H 671.192 4.08733 1.45325 0
M  V30 7185 H 671.863 4.6395 2.99089 0
M  V30 7186 H 674.339 2.71917 3.14961 0
M  V30 7187 H 673.215 3.23907 4.43143 0
M  V30 7188 H 673.476 1.52502 4.14964 0
M  V30 7189 N 672.536 -0.895792 1.29666 0
M  V30 7190 C 673.466 -2.01673 1.17688 0
M  V30 7191 C 674.447 -1.69955 0.0701317 0
M  V30 7192 O 675.632 -1.9258 0.250289 0
M  V30 7193 C 672.762 -3.36568 0.856681 0
M  V30 7194 C 671.716 -3.82509 1.92017 0
M  V30 7195 C 671.042 -5.14574 1.4532 0
M  V30 7196 C 672.342 -4.02409 3.32963 0
M  V30 7197 H 674.036 -2.11953 2.11463 0
M  V30 7198 H 671.582 -1.01839 1.01807 0
M  V30 7199 H 673.535 -4.14498 0.759577 0
M  V30 7200 H 672.259 -3.26391 -0.116763 0
M  V30 7201 H 670.918 -3.068 2.00673 0
M  V30 7202 H 670.566 -5.00815 0.468325 0
M  V30 7203 H 670.266 -5.46283 2.16447 0
M  V30 7204 H 671.79 -5.9504 1.36968 0
M  V30 7205 H 673.204 -4.70808 3.27127 0
M  V30 7206 H 671.601 -4.45478 4.02082 0
M  V30 7207 H 672.671 -3.06616 3.75652 0
M  V30 7208 N 674.014 -1.12206 -1.10668 0
M  V30 7209 C 675.291 -0.787382 -1.79052 0
M  V30 7210 C 675.671 0.723267 -1.98323 0
M  V30 7211 O 675.019 1.6561 -1.57434 0
M  V30 7212 C 675.229 -1.55968 -3.1221 0
M  V30 7213 C 676.577 -1.74413 -3.87125 0
M  V30 7214 O 677.601 -1.5246 -3.21923 0
M  V30 7215 O 676.46 -2.10952 -5.04144 0
M  V30 7216 H 673.554 -0.286137 -0.775922 0
M  V30 7217 H 676.1 -1.22595 -1.1734 0
M  V30 7218 H 674.872 -2.58692 -2.93588 0
M  V30 7219 H 674.495 -1.1152 -3.8164 0
M  V30 7220 N 675.492 1.28418 -0.913599 0
M  V30 7221 C 676.741 1.94265 -0.542572 0
M  V30 7222 C 677.054 1.72709 0.918207 0
M  V30 7223 O 678.26 2.32778 1.39738 0
M  V30 7224 C 676.716 3.47956 -0.919507 0
M  V30 7225 C 676.324 3.78291 -2.4 0
M  V30 7226 C 678.068 4.19962 -0.619057 0
M  V30 7227 C 675.975 5.2529 -2.71707 0
M  V30 7228 H 674.905 0.727213 -0.199192 0
M  V30 7229 H 677.556 1.45931 -1.11249 0
M  V30 7230 H 675.938 3.9502 -0.278372 0
M  V30 7231 H 677.112 3.42035 -3.08786 0
M  V30 7232 H 675.427 3.19456 -2.67089 0
M  V30 7233 H 678.024 5.28178 -0.832623 0
M  V30 7234 H 678.367 4.13935 0.443126 0
M  V30 7235 H 678.9 3.78674 -1.21865 0
M  V30 7236 H 675.639 5.36394 -3.76778 0
M  V30 7237 H 675.159 5.62743 -2.07559 0
M  V30 7238 H 676.838 5.93027 -2.58703 0
M  V30 7239 N 676.97 0.677563 1.42291 0
M  V30 7240 C 678.219 0.198173 2.00724 0
M  V30 7241 C 678.532 -1.20325 1.54211 0
M  V30 7242 O 679.738 -1.77916 2.05081 0
M  V30 7243 C 678.194 0.303432 3.58619 0
M  V30 7244 C 677.802 1.70909 4.14119 0
M  V30 7245 C 679.546 -0.117103 4.24338 0
M  V30 7246 C 677.453 1.76696 5.64387 0
M  V30 7247 H 676.383 0.070329 0.750713 0
M  V30 7248 H 679.034 0.843147 1.62982 0
M  V30 7249 H 677.416 -0.409482 3.93877 0
M  V30 7250 H 678.59 2.44931 3.90315 0
M  V30 7251 H 676.905 2.07771 3.6086 0
M  V30 7252 H 679.502 -0.0940471 5.34617 0
M  V30 7253 H 679.845 -1.15283 4.00019 0
M  V30 7254 H 680.378 0.5449 3.9405 0
M  V30 7255 H 677.117 2.7826 5.93508 0
M  V30 7256 H 676.637 1.07034 5.90173 0
M  V30 7257 H 678.316 1.52166 6.28852 0
M  V30 7258 N 678.448 -1.51871 0.421078 0
M  V30 7259 C 679.864 -1.59435 0.0725398 0
M  V30 7260 C 680.064 -1.43315 -1.41644 0
M  V30 7261 O 679.12 -1.26614 -2.18461 0
M  V30 7262 C 680.433 -2.9509 0.578132 0
M  V30 7263 C 681.981 -3.08356 0.537149 0
M  V30 7264 C 682.456 -4.4651 1.01945 0
M  V30 7265 N 683.947 -4.52784 0.976758 0
M  V30 7266 C 684.682 -5.57976 1.32099 0
M  V30 7267 N 684.178 -6.70664 1.73727 0
M  V30 7268 N 685.971 -5.48248 1.2402 0
M  V30 7269 H 678.122 -1.60595 1.39007 0
M  V30 7270 H 680.385 -0.756138 0.571803 0
M  V30 7271 H 680.091 -3.12205 1.61929 0
M  V30 7272 H 679.965 -3.772 -0.00578374 0
M  V30 7273 H 682.352 -2.90919 -0.494991 0
M  V30 7274 H 682.433 -2.28125 1.15727 0
M  V30 7275 H 682.077 -4.64692 2.04997 0
M  V30 7276 H 682.007 -5.25256 0.376023 0
M  V30 7277 H 684.498 -3.71898 0.670851 0
M  V30 7278 H 684.811 -7.46932 1.98274 0
M  V30 7279 H 683.156 -6.71914 1.77641 0
M  V30 7280 H 686.347 -4.59095 0.913756 0
M  V30 7281 H 686.52 -6.30119 1.51176 0
M  V30 7282 N 679.926 -0.151884 -1.56866 0
M  V30 7283 C 680.889 0.771861 -2.15812 0
M  V30 7284 C 681.889 1.17181 -1.10115 0
M  V30 7285 O 683.079 1.09194 -1.35729 0
M  V30 7286 C 680.211 2.04806 -2.7252 0
M  V30 7287 H 681.404 0.259021 -2.98779 0
M  V30 7288 H 678.957 0.097588 -1.55995 0
M  V30 7289 H 679.692 2.60445 -1.93233 0
M  V30 7290 H 679.477 1.77044 -3.49854 0
M  V30 7291 H 680.967 2.70771 -3.1792 0
M  V30 7292 N 681.404 1.57128 0.121893 0
M  V30 7293 C 682.367 1.99197 1.13372 0
M  V30 7294 C 683.367 0.881728 1.3447 0
M  V30 7295 O 684.557 1.14783 1.31036 0
M  V30 7296 C 681.689 2.32963 2.4888 0
M  V30 7297 H 682.882 2.89788 0.772204 0
M  V30 7298 H 680.435 1.51952 0.366093 0
M  V30 7299 H 681.17 1.45243 2.89957 0
M  V30 7300 H 680.955 3.13934 2.34921 0
M  V30 7301 H 682.445 2.66261 3.21706 0
M  V30 7302 N 682.882 -0.391992 1.52647 0
M  V30 7303 C 683.812 -1.48517 1.8018 0
M  V30 7304 C 684.793 -1.57039 0.653667 0
M  V30 7305 O 685.978 -1.72036 0.900962 0
M  V30 7306 C 683.108 -2.86161 1.96797 0
M  V30 7307 C 682.062 -2.92481 3.12472 0
M  V30 7308 C 681.388 -4.32546 3.14338 0
M  V30 7309 C 682.688 -2.624 4.51601 0
M  V30 7310 H 684.382 -1.25726 2.71723 0
M  V30 7311 H 681.928 -0.603387 1.30749 0
M  V30 7312 H 683.881 -3.62639 2.14641 0
M  V30 7313 H 682.605 -3.10283 1.01941 0
M  V30 7314 H 681.264 -2.18451 2.94406 0
M  V30 7315 H 680.912 -4.53703 2.1717 0
M  V30 7316 H 680.612 -4.37695 3.92042 0
M  V30 7317 H 682.136 -5.10934 3.34333 0
M  V30 7318 H 683.55 -3.28596 4.69785 0
M  V30 7319 H 681.947 -2.78903 5.3135 0
M  V30 7320 H 683.017 -1.57754 4.58521 0
M  V30 7321 N 684.36 -1.4356 -0.65026 0
M  V30 7322 C 685.771 -1.40324 -1.2315 0
M  V30 7323 C 686.122 -0.108812 -1.95898 0
M  V30 7324 O 685.247 0.79163 -2.01401 0
M  V30 7325 C 685.842 -2.54195 -2.23987 0
M  V30 7326 C 684.401 -2.54215 -2.77582 0
M  V30 7327 C 683.548 -2.31752 -1.5227 0
M  V30 7328 H 686.499 -1.52418 -0.442095 0
M  V30 7329 H 686.52 -2.25854 -3.0622 0
M  V30 7330 H 686.032 -3.48392 -1.71011 0
M  V30 7331 H 684.133 -1.63907 -3.34612 0
M  V30 7332 H 684.246 -3.52081 -3.24925 0
M  V30 7333 H 682.61 -1.80476 -1.79723 0
M  V30 7334 H 683.393 -3.28037 -1.01225 0
M  V30 7335 N 685.838 0.888903 -1.30139 0
M  V30 7336 C 687.249 1.45578 -1.16893 0
M  V30 7337 C 687.6 1.94825 0.231866 0
M  V30 7338 O 686.725 1.84661 1.12824 0
M  V30 7339 C 687.32 2.646 -2.11595 0
M  V30 7340 C 685.879 3.17389 -2.02339 0
M  V30 7341 C 685.026 1.90081 -2.01902 0
M  V30 7342 H 687.977 0.69921 -1.42467 0
M  V30 7343 H 687.998 3.40687 -1.69449 0
M  V30 7344 H 687.51 2.28726 -3.13538 0
M  V30 7345 H 685.611 3.5793 -1.03523 0
M  V30 7346 H 685.724 3.80955 -2.90534 0
M  V30 7347 H 684.088 2.08246 -1.46648 0
M  V30 7348 H 684.871 1.5647 -3.05568 0
M  V30 7349 N 687.317 1.12792 1.10072 0
M  V30 7350 C 688.264 0.79921 2.16521 0
M  V30 7351 C 689.234 -0.235726 1.64419 0
M  V30 7352 O 690.419 -0.109457 1.90486 0
M  V30 7353 C 687.559 0.264091 3.44088 0
M  V30 7354 C 686.672 1.35729 4.10124 0
M  V30 7355 C 685.807 0.781212 5.25424 0
M  V30 7356 C 684.846 1.85327 5.8337 0
M  V30 7357 N 683.983 1.29564 6.90042 0
M  V30 7358 H 688.823 1.71105 2.43981 0
M  V30 7359 H 686.36 0.854225 1.19756 0
M  V30 7360 H 688.318 -0.0642423 4.17151 0
M  V30 7361 H 686.948 -0.610901 3.16967 0
M  V30 7362 H 686 1.80234 3.34993 0
M  V30 7363 H 687.312 2.16782 4.4923 0
M  V30 7364 H 686.466 0.403769 6.05355 0
M  V30 7365 H 685.205 -0.0604686 4.87663 0
M  V30 7366 H 684.21 2.23986 5.02106 0
M  V30 7367 H 685.435 2.69824 6.23195 0
M  V30 7368 H 683.381 0.475844 6.54272 0
M  V30 7369 H 683.298 2.04271 7.2788 0
M  V30 7370 H 684.566 0.945545 7.73744 0
M  V30 7371 N 688.795 -1.27931 0.920396 0
M  V30 7372 C 690.072 -1.89728 0.475687 0
M  V30 7373 C 690.452 -1.8337 -1.04588 0
M  V30 7374 O 689.8 -1.27404 -1.89685 0
M  V30 7375 C 690.01 -3.33959 1.01354 0
M  V30 7376 C 691.358 -4.10907 1.06963 0
M  V30 7377 O 692.382 -3.42945 0.962646 0
M  V30 7378 O 691.241 -5.32399 1.23343 0
M  V30 7379 H 688.335 -0.81294 0.151845 0
M  V30 7380 H 690.881 -1.36252 1.01161 0
M  V30 7381 H 689.653 -3.32843 2.05746 0
M  V30 7382 H 689.276 -3.94944 0.458829 0
M  V30 7383 N 690.273 -0.685099 -1.4193 0
M  V30 7384 C 691.52 -0.211658 -2.01391 0
M  V30 7385 C 691.848 1.18526 -1.54214 0
M  V30 7386 O 691.103 1.81189 -0.739519 0
M  V30 7387 C 691.402 -0.206154 -3.56805 0
M  V30 7388 C 691.068 -1.54915 -4.23453 0
M  V30 7389 C 689.73 -1.91684 -4.41373 0
M  V30 7390 C 692.082 -2.43317 -4.60919 0
M  V30 7391 C 689.41 -3.16461 -4.94034 0
M  V30 7392 C 691.762 -3.67415 -5.14965 0
M  V30 7393 C 690.426 -4.04341 -5.31098 0
M  V30 7394 H 689.696 -0.0774511 -0.736941 0
M  V30 7395 H 692.343 -0.882121 -1.69973 0
M  V30 7396 H 690.648 0.547841 -3.87951 0
M  V30 7397 H 692.345 0.17753 -4.00607 0
M  V30 7398 H 688.935 -1.25314 -4.09871 0
M  V30 7399 H 693.119 -2.16192 -4.46738 0
M  V30 7400 H 688.375 -3.45078 -5.04709 0
M  V30 7401 H 692.549 -4.3611 -5.42938 0
M  V30 7402 H 690.176 -5.01101 -5.71666 0
M  V30 7403 N 691.751 1.51645 -0.429126 0
M  V30 7404 C 692.714 2.26116 0.374726 0
M  V30 7405 C 693.714 1.29242 0.956714 0
M  V30 7406 O 694.904 1.53022 0.832452 0
M  V30 7407 C 692.036 3.04669 1.52937 0
M  V30 7408 H 693.229 2.9861 -0.277818 0
M  V30 7409 H 690.782 1.55236 -0.182097 0
M  V30 7410 H 691.517 2.36571 2.21821 0
M  V30 7411 H 691.302 3.75814 1.11833 0
M  V30 7412 H 692.792 3.61102 2.09751 0
M  V30 7413 N 693.229 0.160201 1.56784 0
M  V30 7414 C 694.179 -0.786461 2.14007 0
M  V30 7415 C 695.163 -1.20046 1.07134 0
M  V30 7416 O 696.355 -1.16468 1.33283 0
M  V30 7417 C 693.484 -2.02024 2.77563 0
M  V30 7418 C 692.57 -1.62874 3.91578 0
M  V30 7419 N 692.961 -0.946176 4.96871 0
M  V30 7420 C 691.259 -1.92054 4.02531 0
M  V30 7421 C 691.96 -0.755084 5.76778 0
M  V30 7422 N 690.936 -1.29307 5.27997 0
M  V30 7423 H 694.738 -0.255879 2.92784 0
M  V30 7424 H 692.252 -0.0408778 1.62349 0
M  V30 7425 H 694.249 -2.70855 3.16928 0
M  V30 7426 H 692.909 -2.55587 2.00263 0
M  V30 7427 H 693.92 -0.605455 5.14349 0
M  V30 7428 H 690.597 -2.47374 3.36322 0
M  V30 7429 H 691.987 -0.216138 6.71552 0
M  V30 7430 N 694.707 -1.5719 -0.113559 0
M  V30 7431 C 695.654 -2.00736 -1.13901 0
M  V30 7432 C 696.624 -0.88044 -1.40846 0
M  V30 7433 O 697.809 -1.14507 -1.5262 0
M  V30 7434 C 694.949 -2.42132 -2.45899 0
M  V30 7435 C 694.062 -3.68264 -2.25844 0
M  V30 7436 C 693.197 -3.98617 -3.5111 0
M  V30 7437 C 692.236 -5.17915 -3.26236 0
M  V30 7438 N 691.373 -5.44111 -4.4372 0
M  V30 7439 H 696.213 -2.88128 -0.760677 0
M  V30 7440 H 693.75 -1.42523 -0.364099 0
M  V30 7441 H 695.708 -2.6417 -3.22908 0
M  V30 7442 H 694.338 -1.57775 -2.81615 0
M  V30 7443 H 693.39 -3.53809 -1.39726 0
M  V30 7444 H 694.702 -4.55425 -2.03444 0
M  V30 7445 H 693.856 -4.21333 -4.36536 0
M  V30 7446 H 692.595 -3.09942 -3.76546 0
M  V30 7447 H 691.6 -4.95038 -2.39202 0
M  V30 7448 H 692.825 -6.08172 -3.02165 0
M  V30 7449 H 690.771 -4.58394 -4.69266 0
M  V30 7450 H 690.688 -6.25606 -4.24444 0
M  V30 7451 H 691.956 -5.71351 -5.30263 0
M  V30 7452 N 696.185 0.383891 -1.52853 0
M  V30 7453 C 697.601 0.724316 -1.42218 0
M  V30 7454 C 697.801 1.93943 -0.546654 0
M  V30 7455 O 696.857 2.5249 -0.0220562 0
M  V30 7456 C 698.17 0.954635 -2.85144 0
M  V30 7457 C 699.718 1.05579 -2.94656 0
M  V30 7458 C 700.193 1.3187 -4.38605 0
M  V30 7459 N 701.684 1.38681 -4.41952 0
M  V30 7460 C 702.419 1.60699 -5.50421 0
M  V30 7461 N 701.915 1.80154 -6.68967 0
M  V30 7462 N 703.708 1.6292 -5.37972 0
M  V30 7463 H 695.859 -0.4156 -2.08294 0
M  V30 7464 H 698.122 -0.123776 -0.939885 0
M  V30 7465 H 697.828 0.133829 -3.51445 0
M  V30 7466 H 697.702 1.86788 -3.27704 0
M  V30 7467 H 700.089 1.86716 -2.2852 0
M  V30 7468 H 700.17 0.120338 -2.55517 0
M  V30 7469 H 699.814 0.512416 -5.05309 0
M  V30 7470 H 699.744 2.26708 -4.75301 0
M  V30 7471 H 702.235 1.25334 -3.56511 0
M  V30 7472 H 702.548 1.96476 -7.47407 0
M  V30 7473 H 700.893 1.77368 -6.71986 0
M  V30 7474 H 704.084 1.47276 -4.44328 0
M  V30 7475 H 704.257 1.79739 -6.22574 0
M  V30 7476 N 697.663 1.43903 0.642637 0
M  V30 7477 C 698.595 1.45857 1.768 0
M  V30 7478 C 699.608 0.353358 1.58919 0
M  V30 7479 O 700.797 0.618426 1.67445 0
M  V30 7480 C 697.897 1.26583 3.14372 0
M  V30 7481 C 697.07 2.50139 3.58817 0
M  V30 7482 C 696.129 2.25933 4.75227 0
M  V30 7483 O 695.155 2.99351 4.84125 0
M  V30 7484 N 696.357 1.28263 5.66153 0
M  V30 7485 H 699.122 2.42869 1.75598 0
M  V30 7486 H 696.683 1.39194 0.826832 0
M  V30 7487 H 698.675 1.08255 3.89953 0
M  V30 7488 H 697.245 0.37978 3.10284 0
M  V30 7489 H 696.465 2.83821 2.73568 0
M  V30 7490 H 697.753 3.32344 3.8526 0
M  V30 7491 H 697.151 0.676041 5.61646 0
M  V30 7492 H 695.708 1.15916 6.4141 0
M  V30 7493 N 699.141 -0.881989 1.30609 0
M  V30 7494 C 700.088 -1.98803 1.17244 0
M  V30 7495 C 701.058 -1.65987 0.0611905 0
M  V30 7496 O 702.243 -1.89385 0.231911 0
M  V30 7497 C 699.383 -3.33867 0.87333 0
M  V30 7498 C 698.496 -3.79354 2.06675 0
M  V30 7499 C 697.631 -5.03078 1.70547 0
M  V30 7500 C 696.67 -5.40981 2.86366 0
M  V30 7501 N 695.807 -6.55886 2.50514 0
M  V30 7502 H 700.647 -2.09566 2.11863 0
M  V30 7503 H 698.184 -1.02607 1.05405 0
M  V30 7504 H 700.142 -4.11612 0.680519 0
M  V30 7505 H 698.772 -3.2278 -0.0359983 0
M  V30 7506 H 697.824 -2.97492 2.37071 0
M  V30 7507 H 699.136 -4.03382 2.93401 0
M  V30 7508 H 698.29 -5.88457 1.47658 0
M  V30 7509 H 697.029 -4.80927 0.809947 0
M  V30 7510 H 696.034 -4.54127 3.09917 0
M  V30 7511 H 697.259 -5.65104 3.76609 0
M  V30 7512 H 695.205 -6.35306 1.63471 0
M  V30 7513 H 695.122 -6.79799 3.30771 0
M  V30 7514 H 696.39 -7.44489 2.30989 0
M  V30 7515 N 700.619 -1.13374 -1.09472 0
M  V30 7516 C 701.582 -0.813639 -2.14272 0
M  V30 7517 C 702.582 0.176677 -1.59826 0
M  V30 7518 O 703.772 -0.0503441 -1.74127 0
M  V30 7519 C 700.904 -0.210897 -3.40247 0
M  V30 7520 H 702.097 -1.74229 -2.44099 0
M  V30 7521 H 699.65 -0.938304 -1.25002 0
M  V30 7522 H 700.385 0.726998 -3.16046 0
M  V30 7523 H 700.17 -0.924048 -3.81056 0
M  V30 7524 H 701.66 -0.00377603 -4.176 0
M  V30 7525 N 702.098 1.27442 -0.927168 0
M  V30 7526 C 703.031 2.25177 -0.370232 0
M  V30 7527 C 704.009 1.53612 0.533103 0
M  V30 7528 O 705.193 1.8245 0.47373 0
M  V30 7529 C 702.32 3.35431 0.469411 0
M  V30 7530 C 701.366 4.24888 -0.370419 0
M  V30 7531 S 702.199 5.04852 -1.78562 0
M  V30 7532 C 703.355 6.18592 -0.953651 0
M  V30 7533 H 703.588 2.72069 -1.19858 0
M  V30 7534 H 701.121 1.36089 -0.729316 0
M  V30 7535 H 703.079 3.99404 0.947992 0
M  V30 7536 H 701.74 2.87179 1.27228 0
M  V30 7537 H 700.933 5.03264 0.272226 0
M  V30 7538 H 700.535 3.65709 -0.783153 0
M  V30 7539 H 702.827 6.77235 -0.189408 0
M  V30 7540 H 703.77 6.87132 -1.7104 0
M  V30 7541 H 704.178 5.62318 -0.495897 0
M  V30 7542 N 703.576 0.692616 1.41565 0
M  V30 7543 C 704.508 -0.0137132 2.29196 0
M  V30 7544 C 705.521 -0.747417 1.44629 0
M  V30 7545 O 706.71 -0.598611 1.68163 0
M  V30 7546 C 703.81 -1.04347 3.22436 0
M  V30 7547 C 702.983 -0.379985 4.35746 0
M  V30 7548 C 702.042 -1.31195 5.09583 0
M  V30 7549 O 701.068 -0.805455 5.63472 0
M  V30 7550 N 702.27 -2.64443 5.16769 0
M  V30 7551 H 705.035 0.738614 2.90456 0
M  V30 7552 H 702.596 0.538415 1.52685 0
M  V30 7553 H 704.588 -1.6686 3.687 0
M  V30 7554 H 703.158 -1.69736 2.62504 0
M  V30 7555 H 702.378 0.424975 3.91903 0
M  V30 7556 H 703.666 0.0814904 5.08735 0
M  V30 7557 H 703.064 -3.08114 4.74428 0
M  V30 7558 H 701.621 -3.22159 5.66619 0
M  V30 7559 N 705.054 -1.51416 0.437162 0
M  V30 7560 C 706.3 -2.02386 -0.129555 0
M  V30 7561 C 706.633 -1.32071 -1.42376 0
M  V30 7562 O 705.908 -0.43559 -1.8956 0
M  V30 7563 C 706.191 -3.5841 -0.348487 0
M  V30 7564 C 706.044 -4.39341 0.964352 0
M  V30 7565 C 707.363 -4.25654 -1.11834 0
M  V30 7566 H 704.482 -0.735587 -0.0456109 0
M  V30 7567 H 707.124 -1.81055 0.576124 0
M  V30 7568 H 705.274 -3.76716 -0.949592 0
M  V30 7569 H 706.946 -4.32685 1.59942 0
M  V30 7570 H 705.189 -4.04432 1.56898 0
M  V30 7571 H 705.86 -5.4667 0.765212 0
M  V30 7572 H 708.336 -4.11617 -0.609165 0
M  V30 7573 H 707.212 -5.34704 -1.24029 0
M  V30 7574 H 707.473 -3.86502 -2.14636 0
M  V30 7575 N 706.532 -0.168513 -1.56696 0
M  V30 7576 C 707.809 0.523367 -1.88468 0
M  V30 7577 C 708.189 1.81503 -1.07796 0
M  V30 7578 O 707.537 2.27859 -0.171045 0
M  V30 7579 C 707.747 0.767991 -3.40445 0
M  V30 7580 C 709.095 1.09924 -4.10124 0
M  V30 7581 O 710.119 0.856625 -3.45746 0
M  V30 7582 O 708.978 1.55681 -5.23856 0
M  V30 7583 H 706.072 0.269447 -0.781874 0
M  V30 7584 H 708.618 -0.206739 -1.68436 0
M  V30 7585 H 707.39 -0.145254 -3.9103 0
M  V30 7586 H 707.013 1.55151 -3.66079 0
M  V30 7587 N 708.01 1.57248 0.105221 0
M  V30 7588 C 708.973 2.00388 1.11252 0
M  V30 7589 C 709.973 0.89594 1.33527 0
M  V30 7590 O 711.163 1.16166 1.29811 0
M  V30 7591 C 708.295 2.35589 2.46395 0
M  V30 7592 H 709.488 2.90591 0.741424 0
M  V30 7593 H 707.041 1.52332 0.349956 0
M  V30 7594 H 707.776 1.4831 2.884 0
M  V30 7595 H 707.561 3.16408 2.31578 0
M  V30 7596 H 709.051 2.69658 3.18864 0
M  V30 7597 N 709.488 -0.375779 1.53054 0
M  V30 7598 C 710.716 -1.14036 1.72637 0
M  V30 7599 C 711.131 -1.83342 0.450687 0
M  V30 7600 O 710.488 -1.7318 -0.575749 0
M  V30 7601 C 710.539 -2.17841 2.88492 0
M  V30 7602 O 710.26 -1.51358 4.11123 0
M  V30 7603 C 711.761 -3.06924 3.19863 0
M  V30 7604 H 708.981 -0.341386 0.577665 0
M  V30 7605 H 711.525 -0.437809 1.99759 0
M  V30 7606 H 709.68 -2.8371 2.63794 0
M  V30 7607 H 710.094 -2.20439 4.75928 0
M  V30 7608 H 711.568 -3.75763 4.04359 0
M  V30 7609 H 712.045 -3.71169 2.34798 0
M  V30 7610 H 712.651 -2.46684 3.46449 0
M  V30 7611 N 710.966 -1.44241 -0.634997 0
M  V30 7612 C 712.212 -1.47038 -1.39669 0
M  V30 7613 C 712.545 -0.101122 -1.93937 0
M  V30 7614 O 711.82 0.880699 -1.73418 0
M  V30 7615 C 712.103 -2.52763 -2.56482 0
M  V30 7616 C 711.956 -3.99032 -2.07589 0
M  V30 7617 C 713.275 -2.55031 -3.58674 0
M  V30 7618 H 710.394 -0.53537 -0.506506 0
M  V30 7619 H 713.036 -1.75898 -0.718317 0
M  V30 7620 H 711.186 -2.28284 -3.14354 0
M  V30 7621 H 712.858 -4.3463 -1.54577 0
M  V30 7622 H 711.101 -4.10994 -1.38804 0
M  V30 7623 H 711.772 -4.68649 -2.91671 0
M  V30 7624 H 714.248 -2.76893 -3.10595 0
M  V30 7625 H 713.124 -3.30916 -4.37934 0
M  V30 7626 H 713.385 -1.59085 -4.12486 0
M  V30 7627 N 712.444 0.87505 -1.31075 0
M  V30 7628 C 713.691 1.62768 -1.20469 0
M  V30 7629 C 714.019 1.93034 0.23834 0
M  V30 7630 O 713.274 1.55693 1.18567 0
M  V30 7631 C 713.573 2.96948 -1.98888 0
M  V30 7632 C 713.239 2.86195 -3.4843 0
M  V30 7633 C 711.901 2.82969 -3.89207 0
M  V30 7634 C 714.253 2.73599 -4.43614 0
M  V30 7635 C 711.581 2.64999 -5.23443 0
M  V30 7636 C 713.933 2.57166 -5.77969 0
M  V30 7637 C 712.597 2.52321 -6.17973 0
M  V30 7638 H 711.867 0.595611 -0.440827 0
M  V30 7639 H 714.514 1.01665 -1.62285 0
M  V30 7640 H 712.819 3.62058 -1.49737 0
M  V30 7641 H 714.516 3.54164 -1.88067 0
M  V30 7642 H 711.106 2.8952 -3.16032 0
M  V30 7643 H 715.29 2.7515 -4.13045 0
M  V30 7644 H 710.546 2.5967 -5.53517 0
M  V30 7645 H 714.72 2.46396 -6.51354 0
M  V30 7646 H 712.347 2.38156 -7.21932 0
M  V30 7647 N 713.922 1.13953 1.08869 0
M  V30 7648 C 715.15 0.92817 1.84912 0
M  V30 7649 C 715.565 -0.523197 1.81406 0
M  V30 7650 O 714.922 -1.36237 1.21432 0
M  V30 7651 C 714.973 1.41509 3.32652 0
M  V30 7652 O 714.694 2.80959 3.36145 0
M  V30 7653 C 716.195 1.243 4.25517 0
M  V30 7654 H 713.415 0.330612 0.583898 0
M  V30 7655 H 715.959 1.51349 1.37527 0
M  V30 7656 H 714.114 0.872648 3.77444 0
M  V30 7657 H 714.528 3.02704 4.28335 0
M  V30 7658 H 716.002 1.63237 5.27312 0
M  V30 7659 H 716.479 0.18532 4.38809 0
M  V30 7660 H 717.085 1.77375 3.86546 0
M  V30 7661 N 715.4 -1.26948 0.933913 0
M  V30 7662 C 716.64 -1.9585 0.585003 0
M  V30 7663 C 717.004 -1.71722 -0.858802 0
M  V30 7664 O 718.205 -2.34366 -1.31629 0
M  V30 7665 C 716.476 -3.45638 0.909352 0
M  V30 7666 S 718.035 -4.33656 0.669892 0
M  V30 7667 H 714.853 -0.677485 0.215721 0
M  V30 7668 H 717.455 -1.54051 1.20368 0
M  V30 7669 H 716.159 -3.60697 1.9577 0
M  V30 7670 H 715.69 -3.92401 0.280115 0
M  V30 7671 H 717.705 -4.93975 -0.469378 0
M  V30 7672 N 716.879 -0.700114 -1.41195 0
M  V30 7673 C 718.128 -0.230082 -2.00383 0
M  V30 7674 C 718.441 1.17857 -1.56106 0
M  V30 7675 O 719.647 1.74631 -2.07885 0
M  V30 7676 C 718.103 -0.360447 -3.5809 0
M  V30 7677 C 717.711 -1.77475 -4.11347 0
M  V30 7678 C 719.455 0.0495799 -4.24471 0
M  V30 7679 C 717.362 -1.85653 -5.61504 0
M  V30 7680 H 716.292 -0.0822633 -0.749499 0
M  V30 7681 H 718.943 -0.868969 -1.6162 0
M  V30 7682 H 717.325 0.346768 -3.94479 0
M  V30 7683 H 718.499 -2.51109 -3.86369 0
M  V30 7684 H 716.814 -2.13486 -3.57509 0
M  V30 7685 H 719.411 0.00898219 -5.34699 0
M  V30 7686 H 719.754 1.08904 -4.01803 0
M  V30 7687 H 720.287 -0.607521 -3.93134 0
M  V30 7688 H 717.026 -2.87667 -5.89006 0
M  V30 7689 H 716.546 -1.1641 -5.88395 0
M  V30 7690 H 718.225 -1.62151 -6.26351 0
M  V30 7691 N 718.357 1.51182 -0.445186 0
M  V30 7692 C 719.582 2.07056 0.119445 0
M  V30 7693 C 720.007 1.30966 1.35016 0
M  V30 7694 O 719.365 0.349827 1.77893 0
M  V30 7695 C 719.413 3.58234 0.412428 0
M  V30 7696 O 718.517 3.84249 1.49754 0
M  V30 7697 H 717.858 0.663998 -0.00157797 0
M  V30 7698 H 720.388 1.94699 -0.628779 0
M  V30 7699 H 720.398 4.02617 0.660583 0
M  V30 7700 H 719.073 4.13038 -0.487049 0
M  V30 7701 H 717.65 3.51724 1.23873 0
M  V30 7702 N 719.835 0.176821 1.56605 0
M  V30 7703 C 720.768 -0.790135 2.14084 0
M  V30 7704 C 721.746 -1.22219 1.07244 0
M  V30 7705 O 722.93 -1.31298 1.35252 0
M  V30 7706 C 720.057 -2.06475 2.68488 0
M  V30 7707 C 719.103 -1.77628 3.87751 0
M  V30 7708 S 719.936 -0.940612 5.27174 0
M  V30 7709 C 721.092 -2.22577 5.84988 0
M  V30 7710 H 721.325 -0.30144 2.95768 0
M  V30 7711 H 718.858 -0.0379279 1.54353 0
M  V30 7712 H 720.816 -2.79683 3.00479 0
M  V30 7713 H 719.477 -2.52457 1.8688 0
M  V30 7714 H 718.67 -2.72215 4.24164 0
M  V30 7715 H 718.272 -1.12512 3.56675 0
M  V30 7716 H 720.564 -3.17992 5.98237 0
M  V30 7717 H 721.507 -1.90624 6.81959 0
M  V30 7718 H 721.915 -2.34588 5.13448 0
M  V30 7719 N 721.313 -1.57302 -0.09688 0
M  V30 7720 C 722.243 -2.0497 -1.11846 0
M  V30 7721 C 723.224 -0.938278 -1.41882 0
M  V30 7722 O 724.409 -1.20943 -1.51942 0
M  V30 7723 C 721.539 -2.47264 -2.43881 0
M  V30 7724 C 720.493 -3.62053 -2.28257 0
M  V30 7725 C 719.819 -3.90318 -3.65453 0
M  V30 7726 C 721.119 -4.93005 -1.72461 0
M  V30 7727 H 722.813 -2.90567 -0.721888 0
M  V30 7728 H 720.359 -1.39786 -0.345803 0
M  V30 7729 H 722.312 -2.7922 -3.15617 0
M  V30 7730 H 721.036 -1.58664 -2.8547 0
M  V30 7731 H 719.695 -3.30341 -1.58967 0
M  V30 7732 H 719.343 -2.98889 -4.04567 0
M  V30 7733 H 719.043 -4.67597 -3.55846 0
M  V30 7734 H 720.567 -4.24747 -4.3866 0
M  V30 7735 H 721.981 -5.23354 -2.34036 0
M  V30 7736 H 720.378 -5.74436 -1.73618 0
M  V30 7737 H 721.448 -4.80053 -0.683898 0
M  V30 7738 N 722.791 0.367657 -1.53252 0
M  V30 7739 C 723.754 1.43308 -1.78873 0
M  V30 7740 C 724.754 1.46671 -0.659115 0
M  V30 7741 O 725.944 1.47468 -0.927306 0
M  V30 7742 C 723.076 2.82442 -1.90892 0
M  V30 7743 H 724.269 1.21864 -2.74024 0
M  V30 7744 H 721.822 0.600668 -1.44297 0
M  V30 7745 H 722.557 3.09202 -0.978 0
M  V30 7746 H 722.342 2.81399 -2.73051 0
M  V30 7747 H 723.832 3.59601 -2.12314 0
M  V30 7748 N 724.269 1.44576 0.627338 0
M  V30 7749 C 725.685 1.28546 0.945938 0
M  V30 7750 C 725.885 0.224003 2.00251 0
M  V30 7751 O 724.941 -0.388817 2.49488 0
M  V30 7752 C 726.254 2.65825 1.40561 0
M  V30 7753 C 727.802 2.73566 1.52088 0
M  V30 7754 C 728.277 4.11323 2.01438 0
M  V30 7755 N 729.768 4.13519 2.08702 0
M  V30 7756 C 730.503 5.16964 2.48065 0
M  V30 7757 N 729.999 6.30768 2.86538 0
M  V30 7758 N 731.792 5.04319 2.48232 0
M  V30 7759 H 723.943 2.1228 -0.0713567 0
M  V30 7760 H 726.206 0.947503 0.0307081 0
M  V30 7761 H 725.912 3.44591 0.703539 0
M  V30 7762 H 725.786 2.92969 2.37591 0
M  V30 7763 H 728.173 1.95116 2.21391 0
M  V30 7764 H 728.254 2.50159 0.534237 0
M  V30 7765 H 727.898 4.9025 1.32729 0
M  V30 7766 H 727.828 4.32109 3.0098 0
M  V30 7767 H 730.319 3.31385 1.81638 0
M  V30 7768 H 730.632 7.0551 3.15398 0
M  V30 7769 H 728.977 6.342 2.84281 0
M  V30 7770 H 732.168 4.14465 2.17569 0
M  V30 7771 H 732.341 5.85059 2.78585 0
M  V30 7772 N 725.747 -0.868086 1.31537 0
M  V30 7773 C 726.71 -1.95703 1.19302 0
M  V30 7774 C 727.71 -1.60355 0.119612 0
M  V30 7775 O 728.9 -1.70247 0.36902 0
M  V30 7776 C 726.032 -3.30599 0.831684 0
M  V30 7777 H 727.225 -2.07982 2.16064 0
M  V30 7778 H 724.778 -1.05661 1.15176 0
M  V30 7779 H 725.513 -3.2402 -0.134694 0
M  V30 7780 H 725.298 -3.57629 1.60761 0
M  V30 7781 H 726.788 -4.10439 0.770026 0
M  V30 7782 N 727.225 -1.14528 -1.08264 0
M  V30 7783 C 728.158 -0.777154 -2.14559 0
M  V30 7784 C 729.136 0.242165 -1.60787 0
M  V30 7785 O 730.32 0.130882 -1.88045 0
M  V30 7786 C 727.447 -0.154092 -3.38349 0
M  V30 7787 C 726.493 -1.14382 -4.10876 0
M  V30 7788 S 727.326 -2.68173 -4.63512 0
M  V30 7789 C 728.482 -2.0726 -5.90588 0
M  V30 7790 H 728.715 -1.67748 -2.45454 0
M  V30 7791 H 726.248 -0.966661 -1.20395 0
M  V30 7792 H 728.206 0.19897 -4.10018 0
M  V30 7793 H 726.867 0.723688 -3.05649 0
M  V30 7794 H 726.06 -0.655908 -4.99714 0
M  V30 7795 H 725.662 -1.44095 -3.45127 0
M  V30 7796 H 727.954 -1.42895 -6.62259 0
M  V30 7797 H 728.897 -2.94227 -6.44078 0
M  V30 7798 H 729.305 -1.51935 -5.43669 0
M  V30 7799 N 728.703 1.26451 -0.940633 0
M  V30 7800 C 729.951 1.93395 -0.586748 0
M  V30 7801 C 730.272 1.7417 0.876921 0
M  V30 7802 O 729.542 1.097 1.62304 0
M  V30 7803 H 728.122 0.715687 -0.214012 0
M  V30 7804 H 730.784 1.53902 -1.19584 0
M  V30 7805 H 729.88 3.01565 -0.804059 0
M  V30 7806 N 730.181 0.707592 1.40822 0
M  V30 7807 C 731.592 0.317011 1.83989 0
M  V30 7808 C 731.943 -1.14697 1.59182 0
M  V30 7809 O 731.068 -1.8818 1.06852 0
M  V30 7810 C 731.663 0.568593 3.33995 0
M  V30 7811 C 730.222 0.231804 3.75686 0
M  V30 7812 C 729.369 0.844933 2.64114 0
M  V30 7813 H 732.32 0.907349 1.30203 0
M  V30 7814 H 732.341 -0.168798 3.80125 0
M  V30 7815 H 731.853 1.63417 3.52018 0
M  V30 7816 H 729.954 -0.82903 3.6326 0
M  V30 7817 H 730.067 0.695219 4.74029 0
M  V30 7818 H 728.431 0.273588 2.53226 0
M  V30 7819 H 729.214 1.91462 2.84951 0
M  V30 7820 N 731.66 -1.50943 0.453197 0
M  V30 7821 C 732.908 -2.01813 -0.107709 0
M  V30 7822 C 733.229 -1.33841 -1.41816 0
M  V30 7823 O 732.499 -0.477973 -1.8998 0
M  V30 7824 H 731.079 -0.745773 -0.0427948 0
M  V30 7825 H 733.741 -1.8545 0.599531 0
M  V30 7826 H 732.837 -3.10911 -0.27218 0
M  V30 7827 N 733.138 -0.185124 -1.56509 0
M  V30 7828 C 734.387 0.456421 -1.96468 0
M  V30 7829 C 734.7 1.63448 -1.07444 0
M  V30 7830 O 735.906 2.34316 -1.37143 0
M  V30 7831 C 734.362 0.863404 -3.4939 0
M  V30 7832 C 733.97 -0.289815 -4.47062 0
M  V30 7833 C 735.714 1.47259 -3.98139 0
M  V30 7834 C 733.621 0.137571 -5.9124 0
M  V30 7835 H 732.551 0.17429 -0.733579 0
M  V30 7836 H 735.202 -0.275554 -1.81419 0
M  V30 7837 H 733.584 1.65176 -3.59907 0
M  V30 7838 H 734.758 -1.06728 -4.4827 0
M  V30 7839 H 733.073 -0.809851 -4.08449 0
M  V30 7840 H 735.67 1.80463 -5.03326 0
M  V30 7841 H 736.013 2.3755 -3.41871 0
M  V30 7842 H 736.546 0.748405 -3.90696 0
M  V30 7843 H 733.285 -0.730907 -6.51412 0
M  V30 7844 H 732.805 0.8801 -5.93308 0
M  V30 7845 H 734.484 0.576771 -6.44424 0
M  V30 7846 N 734.616 1.57351 0.0885366 0
M  V30 7847 C 735.548 1.99221 1.13329 0
M  V30 7848 C 736.561 0.895705 1.35945 0
M  V30 7849 O 737.75 1.17376 1.34481 0
M  V30 7850 C 734.85 2.3016 2.48756 0
M  V30 7851 C 734.023 3.61444 2.46327 0
M  V30 7852 C 733.082 3.80244 3.63732 0
M  V30 7853 O 732.108 4.52024 3.45924 0
M  V30 7854 N 733.31 3.2132 4.8346 0
M  V30 7855 H 736.075 2.89456 0.776862 0
M  V30 7856 H 733.636 1.59505 0.277428 0
M  V30 7857 H 735.628 2.39925 3.25911 0
M  V30 7858 H 734.198 1.459 2.76464 0
M  V30 7859 H 733.418 3.62588 1.54673 0
M  V30 7860 H 734.706 4.47678 2.41789 0
M  V30 7861 H 734.104 2.63028 5.00832 0
M  V30 7862 H 732.661 3.3656 5.58185 0
M  V30 7863 N 736.094 -0.359525 1.53444 0
M  V30 7864 C 737.026 -1.46098 1.76602 0
M  V30 7865 C 738.039 -1.49395 0.646912 0
M  V30 7866 O 739.228 -1.52765 0.923307 0
M  V30 7867 C 736.328 -2.84836 1.83635 0
M  V30 7868 C 735.501 -3.05164 3.13358 0
M  V30 7869 C 734.56 -4.24051 3.11556 0
M  V30 7870 O 733.586 -4.18935 3.85334 0
M  V30 7871 N 734.788 -5.31775 2.328 0
M  V30 7872 H 737.553 -1.2661 2.71643 0
M  V30 7873 H 735.114 -0.549294 1.52297 0
M  V30 7874 H 737.106 -3.62516 1.799 0
M  V30 7875 H 735.676 -2.97542 0.958509 0
M  V30 7876 H 734.896 -2.15091 3.30348 0
M  V30 7877 H 736.184 -3.15619 3.99076 0
M  V30 7878 H 735.582 -5.38796 1.7238 0
M  V30 7879 H 734.139 -6.0801 2.34877 0
M  V30 7880 N 737.572 -1.44907 -0.619662 0
M  V30 7881 C 738.849 -1.38766 -1.37852 0
M  V30 7882 C 739.229 -0.0521393 -2.11036 0
M  V30 7883 O 738.577 0.965613 -2.07095 0
M  V30 7884 C 738.787 -2.59344 -2.33541 0
M  V30 7885 C 740.135 -3.03909 -2.96521 0
M  V30 7886 O 741.159 -2.59631 -2.43865 0
M  V30 7887 O 740.018 -3.80713 -3.92071 0
M  V30 7888 H 737.112 -0.550083 -0.617525 0
M  V30 7889 H 739.658 -1.57015 -0.643759 0
M  V30 7890 H 738.43 -3.48142 -1.78642 0
M  V30 7891 H 738.053 -2.43367 -3.14417 0
M  V30 7892 N 739.05 0.861098 -1.31996 0
M  V30 7893 C 740.299 1.60965 -1.21545 0
M  V30 7894 C 740.612 1.94325 0.222972 0
M  V30 7895 O 741.818 2.67757 0.449272 0
M  V30 7896 C 740.274 2.90223 -2.12834 0
M  V30 7897 C 739.882 2.64313 -3.61722 0
M  V30 7898 C 741.626 3.68229 -2.11205 0
M  V30 7899 C 739.533 3.89532 -4.44993 0
M  V30 7900 H 738.463 0.603988 -0.451348 0
M  V30 7901 H 741.114 0.951358 -1.56912 0
M  V30 7902 H 739.496 3.57475 -1.70375 0
M  V30 7903 H 740.67 2.05413 -4.12483 0
M  V30 7904 H 738.985 1.99647 -3.65418 0
M  V30 7905 H 741.582 4.61138 -2.70658 0
M  V30 7906 H 741.925 4.01466 -1.1014 0
M  V30 7907 H 742.458 3.07873 -2.51911 0
M  V30 7908 H 739.197 3.61441 -5.46846 0
M  V30 7909 H 738.717 4.47851 -3.98985 0
M  V30 7910 H 740.396 4.57334 -4.57663 0
M  V30 7911 N 740.528 1.15101 1.07655 0
M  V30 7912 C 741.475 0.844958 2.14777 0
M  V30 7913 C 742.445 -0.200798 1.64882 0
M  V30 7914 O 743.63 -0.0690278 1.90675 0
M  V30 7915 C 740.77 0.337018 3.4345 0
M  V30 7916 C 739.883 1.44398 4.07153 0
M  V30 7917 C 739.018 0.892487 5.23649 0
M  V30 7918 C 738.057 1.9766 5.79307 0
M  V30 7919 N 737.194 1.44171 6.87138 0
M  V30 7920 H 742.034 1.76242 2.40297 0
M  V30 7921 H 739.571 0.879435 1.17917 0
M  V30 7922 H 741.529 0.024256 4.17193 0
M  V30 7923 H 740.159 -0.543531 3.18191 0
M  V30 7924 H 739.211 1.87299 3.31094 0
M  V30 7925 H 740.523 2.26262 4.4453 0
M  V30 7926 H 739.677 0.532083 6.04362 0
M  V30 7927 H 738.416 0.0429854 4.87681 0
M  V30 7928 H 737.421 2.34586 4.97242 0
M  V30 7929 H 738.646 2.82982 6.17331 0
M  V30 7930 H 736.592 0.614518 6.53115 0
M  V30 7931 H 736.509 2.19665 7.23383 0
M  V30 7932 H 737.777 1.10945 7.71564 0
M  V30 7933 N 742.006 -1.2595 0.947325 0
M  V30 7934 C 742.916 -2.29883 0.468079 0
M  V30 7935 C 743.932 -1.67783 -0.460975 0
M  V30 7936 O 745.108 -1.98526 -0.339006 0
M  V30 7937 C 742.173 -3.45773 -0.253315 0
M  V30 7938 C 741.234 -4.23337 0.713054 0
M  V30 7939 C 740.467 -5.33694 0.025993 0
M  V30 7940 O 740.69 -5.57853 -1.18978 0
M  V30 7941 O 739.624 -5.97724 0.70782 0
M  V30 7942 H 743.45 -2.72952 1.33156 0
M  V30 7943 H 741.035 -1.31263 0.713468 0
M  V30 7944 H 742.917 -4.16209 -0.659423 0
M  V30 7945 H 741.592 -3.04721 -1.09209 0
M  V30 7946 H 740.499 -3.55359 1.16923 0
M  V30 7947 H 741.832 -4.68154 1.51963 0
M  V30 7948 N 743.484 -0.715051 -1.40445 0
M  V30 7949 C 744.414 -0.0768699 -2.33373 0
M  V30 7950 C 745.395 0.746109 -1.52863 0
M  V30 7951 O 746.58 0.695142 -1.81332 0
M  V30 7952 C 743.71 0.846014 -3.36838 0
M  V30 7953 C 742.664 0.128694 -4.27806 0
M  V30 7954 C 741.99 1.16726 -5.21804 0
M  V30 7955 C 743.29 -1.01679 -5.12307 0
M  V30 7956 H 744.984 -0.853061 -2.8699 0
M  V30 7957 H 742.53 -0.41167 -1.3799 0
M  V30 7958 H 744.483 1.30185 -4.00786 0
M  V30 7959 H 743.207 1.6541 -2.81615 0
M  V30 7960 H 741.866 -0.307314 -3.6531 0
M  V30 7961 H 741.514 1.96838 -4.62887 0
M  V30 7962 H 741.214 0.692188 -5.83509 0
M  V30 7963 H 742.738 1.62321 -5.88629 0
M  V30 7964 H 744.152 -0.640337 -5.69713 0
M  V30 7965 H 742.549 -1.4202 -5.83053 0
M  V30 7966 H 743.619 -1.84769 -4.48317 0
M  V30 7967 N 744.962 1.50701 -0.461195 0
M  V30 7968 C 745.892 2.31182 0.328184 0
M  V30 7969 C 746.873 1.37644 0.999408 0
M  V30 7970 O 748.058 1.66565 0.99848 0
M  V30 7971 C 745.188 3.17113 1.41621 0
M  V30 7972 C 744.142 4.19124 0.867148 0
M  V30 7973 C 743.468 4.93728 2.05272 0
M  V30 7974 C 744.768 5.22174 -0.114808 0
M  V30 7975 H 746.462 2.97423 -0.343501 0
M  V30 7976 H 744.008 1.43033 -0.166641 0
M  V30 7977 H 745.961 3.72208 1.97584 0
M  V30 7978 H 744.685 2.48739 2.11652 0
M  V30 7979 H 743.344 3.65116 0.329557 0
M  V30 7980 H 742.992 4.21835 2.73978 0
M  V30 7981 H 742.692 5.62724 1.69161 0
M  V30 7982 H 744.216 5.51654 2.61744 0
M  V30 7983 H 745.63 5.72198 0.355316 0
M  V30 7984 H 744.027 5.98833 -0.389689 0
M  V30 7985 H 745.097 4.7353 -1.04391 0
M  V30 7986 N 746.441 0.193421 1.56409 0
M  V30 7987 C 747.351 -0.740112 2.2262 0
M  V30 7988 C 748.367 -1.23597 1.22474 0
M  V30 7989 O 749.543 -1.28348 1.55206 0
M  V30 7990 C 746.608 -1.94317 2.87127 0
M  V30 7991 C 745.669 -1.49205 4.02538 0
M  V30 7992 C 744.902 -2.63776 4.63959 0
M  V30 7993 O 745.125 -3.81215 4.24301 0
M  V30 7994 O 744.059 -2.36585 5.53454 0
M  V30 7995 H 747.885 -0.206238 3.02999 0
M  V30 7996 H 745.47 -0.0357938 1.49357 0
M  V30 7997 H 747.352 -2.64633 3.27944 0
M  V30 7998 H 746.027 -2.46568 2.09728 0
M  V30 7999 H 744.934 -0.757738 3.66346 0
M  V30 8000 H 746.267 -1.01622 4.81595 0
M  V30 8001 N 747.919 -1.57396 -0.0801906 0
M  V30 8002 C 749.33 -1.75642 -0.633002 0
M  V30 8003 C 749.681 -0.817708 -1.78348 0
M  V30 8004 O 748.806 0.000233743 -2.164 0
M  V30 8005 C 749.401 -3.18502 -1.15507 0
M  V30 8006 C 747.96 -3.38121 -1.65381 0
M  V30 8007 C 747.107 -2.71386 -0.569661 0
M  V30 8008 H 750.058 -1.58027 0.145949 0
M  V30 8009 H 750.079 -3.22198 -2.02408 0
M  V30 8010 H 749.591 -3.86799 -0.317515 0
M  V30 8011 H 747.692 -2.74926 -2.51488 0
M  V30 8012 H 747.805 -4.46521 -1.73654 0
M  V30 8013 H 746.169 -2.33702 -1.0127 0
M  V30 8014 H 746.952 -3.42332 0.257561 0
M  V30 8015 N 749.397 0.351382 -1.53633 0
M  V30 8016 C 750.33 1.45407 -1.75875 0
M  V30 8017 C 751.308 1.50822 -0.607566 0
M  V30 8018 O 752.492 1.68658 -0.841818 0
M  V30 8019 C 749.619 2.8369 -1.85034 0
M  V30 8020 C 748.665 2.95935 -3.07123 0
M  V30 8021 S 749.498 2.63215 -4.66345 0
M  V30 8022 C 750.654 4.03622 -4.78373 0
M  V30 8023 H 750.887 1.26322 -2.69128 0
M  V30 8024 H 748.42 0.546581 -1.44402 0
M  V30 8025 H 750.378 3.6336 -1.90996 0
M  V30 8026 H 749.039 3.00076 -0.928074 0
M  V30 8027 H 748.232 3.97243 -3.10183 0
M  V30 8028 H 747.834 2.24205 -2.99346 0
M  V30 8029 H 750.126 4.98046 -4.593 0
M  V30 8030 H 751.069 4.05559 -5.80454 0
M  V30 8031 H 751.477 3.91282 -4.06889 0
M  V30 8032 N 750.875 1.45233 0.611969 0
M  V30 8033 C 751.805 1.5641 1.73373 0
M  V30 8034 C 752.786 0.415896 1.64937 0
M  V30 8035 O 753.971 0.638478 1.83404 0
M  V30 8036 C 751.101 1.52627 3.11965 0
M  V30 8037 C 750.055 2.66119 3.35208 0
M  V30 8038 C 749.381 2.4739 4.74028 0
M  V30 8039 C 750.681 4.08157 3.25891 0
M  V30 8040 H 752.375 2.50307 1.64277 0
M  V30 8041 H 749.921 1.20467 0.788904 0
M  V30 8042 H 751.874 1.59043 3.90235 0
M  V30 8043 H 750.598 0.552564 3.21892 0
M  V30 8044 H 749.257 2.59123 2.59327 0
M  V30 8045 H 748.905 1.48168 4.80682 0
M  V30 8046 H 748.605 3.23494 4.90536 0
M  V30 8047 H 750.129 2.55653 5.54503 0
M  V30 8048 H 751.543 4.1642 3.9404 0
M  V30 8049 H 749.94 4.84617 3.5393 0
M  V30 8050 H 751.01 4.30374 2.23397 0
M  V30 8051 N 752.353 -0.854086 1.3245 0
M  V30 8052 C 753.316 -1.94427 1.21371 0
M  V30 8053 C 754.316 -1.60219 0.136613 0
M  V30 8054 O 755.506 -1.69846 0.387057 0
M  V30 8055 C 752.638 -3.29698 0.866701 0
M  V30 8056 H 753.831 -2.05679 2.18257 0
M  V30 8057 H 751.384 -1.04434 1.1629 0
M  V30 8058 H 752.119 -3.24145 -0.100319 0
M  V30 8059 H 751.904 -3.55903 1.64545 0
M  V30 8060 H 753.394 -4.09599 0.813515 0
M  V30 8061 N 753.831 -1.1567 -1.07043 0
M  V30 8062 C 755.077 -0.9349 -1.79965 0
M  V30 8063 C 755.41 0.536464 -1.86643 0
M  V30 8064 O 754.685 1.39781 -1.35247 0
M  V30 8065 C 754.968 -1.55371 -3.24857 0
M  V30 8066 C 754.821 -3.09589 -3.26305 0
M  V30 8067 C 756.14 -1.24209 -4.22209 0
M  V30 8068 H 753.259 -0.341061 -0.653335 0
M  V30 8069 H 755.901 -1.42883 -1.25237 0
M  V30 8070 H 754.051 -1.13368 -3.71591 0
M  V30 8071 H 755.723 -3.60521 -2.87789 0
M  V30 8072 H 753.966 -3.43315 -2.65174 0
M  V30 8073 H 754.637 -3.48002 -4.28484 0
M  V30 8074 H 757.113 -1.60548 -3.8388 0
M  V30 8075 H 755.989 -1.70119 -5.21872 0
M  V30 8076 H 756.25 -0.15964 -4.41812 0
M  V30 8077 N 755.309 1.25446 -0.953992 0
M  V30 8078 C 756.557 1.92762 -0.607227 0
M  V30 8079 C 756.878 1.7509 0.858399 0
M  V30 8080 O 756.148 1.11416 1.61132 0
M  V30 8081 H 754.728 0.713377 -0.221591 0
M  V30 8082 H 757.39 1.52625 -1.21209 0
M  V30 8083 H 756.486 3.00695 -0.835998 0
M  V30 8084 N 756.787 0.722489 1.40064 0
M  V30 8085 C 757.717 0.0892452 2.33329 0
M  V30 8086 C 758.698 -0.737992 1.53257 0
M  V30 8087 O 759.883 -0.685516 1.81698 0
M  V30 8088 C 757.013 -0.828139 3.37282 0
M  V30 8089 C 755.967 -0.106005 4.27869 0
M  V30 8090 C 755.293 -1.13957 5.22415 0
M  V30 8091 C 756.593 1.04395 5.11761 0
M  V30 8092 H 758.287 0.868269 2.86534 0
M  V30 8093 H 755.833 0.418982 1.3777 0
M  V30 8094 H 757.786 -1.28058 4.01471 0
M  V30 8095 H 756.51 -1.63914 2.82489 0
M  V30 8096 H 755.169 0.326683 3.65142 0
M  V30 8097 H 754.817 -1.9438 4.63924 0
M  V30 8098 H 754.517 -0.661233 5.83868 0
M  V30 8099 H 756.041 -1.59197 5.89482 0
M  V30 8100 H 757.455 0.670541 5.69365 0
M  V30 8101 H 755.852 1.4511 5.82291 0
M  V30 8102 H 756.922 1.87144 4.47331 0
M  V30 8103 N 758.265 -1.50454 0.469181 0
M  V30 8104 C 759.49 -2.0722 -0.0864892 0
M  V30 8105 C 759.915 -1.33098 -1.32916 0
M  V30 8106 O 759.273 -0.378084 -1.77314 0
M  V30 8107 C 759.321 -3.58845 -0.355384 0
M  V30 8108 O 758.425 -3.86583 -1.43622 0
M  V30 8109 H 757.766 -0.663889 0.0121414 0
M  V30 8110 H 760.296 -1.93674 0.659674 0
M  V30 8111 H 760.306 -4.03617 -0.596447 0
M  V30 8112 H 758.981 -4.12211 0.552698 0
M  V30 8113 H 757.558 -3.5365 -1.18262 0
M  V30 8114 N 759.743 -0.201713 -1.56304 0
M  V30 8115 C 761.154 0.309711 -1.84113 0
M  V30 8116 C 761.505 1.60912 -1.12258 0
M  V30 8117 O 760.63 2.12937 -0.385587 0
M  V30 8118 C 761.225 0.568706 -3.33993 0
M  V30 8119 C 759.784 1.02448 -3.6219 0
M  V30 8120 C 758.931 0.0766842 -2.77194 0
M  V30 8121 H 761.882 -0.425356 -1.52893 0
M  V30 8122 H 761.903 1.41721 -3.53122 0
M  V30 8123 H 761.415 -0.37719 -3.86263 0
M  V30 8124 H 759.516 1.98443 -3.15359 0
M  V30 8125 H 759.629 0.912619 -4.70328 0
M  V30 8126 H 757.993 0.579809 -2.48013 0
M  V30 8127 H 758.776 -0.863774 -3.32256 0
M  V30 8128 N 761.222 1.57436 0.0718424 0
M  V30 8129 C 762.185 2.02703 1.06977 0
M  V30 8130 C 763.185 0.924062 1.31597 0
M  V30 8131 O 764.375 1.18894 1.27318 0
M  V30 8132 C 761.507 2.40763 2.41342 0
M  V30 8133 H 762.7 2.92098 0.679619 0
M  V30 8134 H 760.253 1.5304 0.317565 0
M  V30 8135 H 760.988 1.54394 2.8519 0
M  V30 8136 H 760.773 3.21249 2.24814 0
M  V30 8137 H 762.263 2.76361 3.13073 0
M  V30 8138 N 762.7 -0.34323 1.53817 0
M  V30 8139 C 763.63 -1.42709 1.84814 0
M  V30 8140 C 764.611 -1.5488 0.703297 0
M  V30 8141 O 765.796 -1.69082 0.955237 0
M  V30 8142 C 762.926 -2.79756 2.05801 0
M  V30 8143 C 761.88 -2.82392 3.21619 0
M  V30 8144 C 761.206 -4.22326 3.2794 0
M  V30 8145 C 762.506 -2.479 4.59721 0
M  V30 8146 H 764.2 -1.17018 2.75585 0
M  V30 8147 H 761.746 -0.561485 1.32602 0
M  V30 8148 H 763.699 -3.55627 2.26069 0
M  V30 8149 H 762.423 -3.06883 1.11761 0
M  V30 8150 H 761.082 -2.08974 3.01207 0
M  V30 8151 H 760.73 -4.46564 2.31494 0
M  V30 8152 H 760.43 -4.25001 4.05768 0
M  V30 8153 H 761.954 -5.00039 3.50419 0
M  V30 8154 H 763.368 -3.13484 4.80001 0
M  V30 8155 H 761.765 -2.61857 5.39954 0
M  V30 8156 H 762.835 -1.43087 4.63308 0
M  V30 8157 N 764.178 -1.45556 -0.604258 0
M  V30 8158 C 765.406 -1.53278 -1.38973 0
M  V30 8159 C 765.821 -0.166509 -1.88064 0
M  V30 8160 O 765.178 0.832519 -1.62405 0
M  V30 8161 C 765.229 -2.51992 -2.59195 0
M  V30 8162 O 764.95 -3.8331 -2.12143 0
M  V30 8163 C 766.451 -2.69445 -3.52015 0
M  V30 8164 H 763.671 -0.519003 -0.425297 0
M  V30 8165 H 766.215 -1.90773 -0.736621 0
M  V30 8166 H 764.37 -2.17561 -3.2054 0
M  V30 8167 H 764.784 -4.3685 -2.90279 0
M  V30 8168 H 766.258 -3.42485 -4.32907 0
M  V30 8169 H 766.735 -1.75596 -4.0257 0
M  V30 8170 H 767.341 -3.04886 -2.9652 0
M  V30 8171 N 765.656 0.84705 -1.32902 0
M  V30 8172 C 766.619 1.9378 -1.224 0
M  V30 8173 C 767.619 1.60144 -0.145108 0
M  V30 8174 O 768.809 1.69638 -0.396058 0
M  V30 8175 C 765.941 3.29234 -0.884174 0
M  V30 8176 H 767.134 2.04518 -2.19345 0
M  V30 8177 H 764.687 1.03816 -1.16842 0
M  V30 8178 H 765.422 3.24193 0.0831277 0
M  V30 8179 H 765.207 3.55026 -1.6643 0
M  V30 8180 H 766.697 4.09162 -0.835226 0
M  V30 8181 N 767.134 1.16236 1.06428 0
M  V30 8182 C 768.38 0.944431 1.79467 0
M  V30 8183 C 768.713 -0.526558 1.86925 0
M  V30 8184 O 767.988 -1.39061 1.35986 0
M  V30 8185 C 768.271 1.57092 3.24028 0
M  V30 8186 C 768.124 3.11315 3.24658 0
M  V30 8187 C 769.443 1.26447 4.21544 0
M  V30 8188 H 766.562 0.344521 0.651517 0
M  V30 8189 H 769.204 1.43545 1.24478 0
M  V30 8190 H 767.354 1.15337 3.70985 0
M  V30 8191 H 769.026 3.62042 2.85873 0
M  V30 8192 H 767.269 3.44716 2.6335 0
M  V30 8193 H 767.94 3.50269 4.26633 0
M  V30 8194 H 770.416 1.62581 3.83023 0
M  V30 8195 H 769.292 1.72885 5.20963 0
M  V30 8196 H 769.553 0.183068 4.41721 0
M  V30 8197 N 768.612 -1.24939 0.960631 0
M  V30 8198 C 769.542 -2.28 0.503815 0
M  V30 8199 C 770.523 -1.63959 -0.452928 0
M  V30 8200 O 771.708 -1.91009 -0.350585 0
M  V30 8201 C 768.838 -3.46643 -0.213535 0
M  V30 8202 C 767.792 -4.22903 0.658535 0
M  V30 8203 C 767.118 -5.34363 -0.189902 0
M  V30 8204 C 768.418 -4.84949 1.93963 0
M  V30 8205 H 770.112 -2.66462 1.36521 0
M  V30 8206 H 767.658 -1.28093 0.657897 0
M  V30 8207 H 769.611 -4.1787 -0.544286 0
M  V30 8208 H 768.335 -3.07187 -1.10923 0
M  V30 8209 H 766.994 -3.53467 0.972455 0
M  V30 8210 H 766.642 -4.91147 -1.08553 0
M  V30 8211 H 766.342 -5.86302 0.390331 0
M  V30 8212 H 767.866 -6.0842 -0.515484 0
M  V30 8213 H 769.28 -5.48288 1.67491 0
M  V30 8214 H 767.677 -5.47091 2.46601 0
M  V30 8215 H 768.747 -4.06799 2.639 0
M  V30 8216 N 770.09 -0.729906 -1.39679 0
M  V30 8217 C 771.32 -0.285295 -2.04621 0
M  V30 8218 C 771.728 1.08304 -1.55135 0
M  V30 8219 O 771.071 1.6946 -0.709146 0
M  V30 8220 C 771.133 -0.203129 -3.58926 0
M  V30 8221 C 770.797 -1.50909 -4.31365 0
M  V30 8222 C 771.794 -2.45381 -4.58349 0
M  V30 8223 C 769.479 -1.77198 -4.70007 0
M  V30 8224 C 771.473 -3.64379 -5.22979 0
M  V30 8225 C 769.16 -2.96474 -5.34365 0
M  V30 8226 C 770.158 -3.89886 -5.60783 0
M  V30 8227 O 769.846 -5.07069 -6.23808 0
M  V30 8228 H 769.578 -0.123373 -0.664647 0
M  V30 8229 H 772.132 -0.992901 -1.79807 0
M  V30 8230 H 770.362 0.560538 -3.82616 0
M  V30 8231 H 772.051 0.208811 -4.05363 0
M  V30 8232 H 772.817 -2.2634 -4.28947 0
M  V30 8233 H 768.696 -1.05337 -4.48804 0
M  V30 8234 H 772.24 -4.37307 -5.43515 0
M  V30 8235 H 768.137 -3.15419 -5.63188 0
M  V30 8236 H 768.905 -5.07335 -6.42303 0
M  V30 8237 N 771.568 1.50203 -0.477153 0
M  V30 8238 C 772.845 1.95115 0.137609 0
M  V30 8239 C 773.225 1.41778 1.56404 0
M  V30 8240 O 772.573 0.621333 2.1989 0
M  V30 8241 C 772.783 3.4892 0.0747168 0
M  V30 8242 C 774.131 4.238 0.260585 0
M  V30 8243 O 775.155 3.5588 0.151021 0
M  V30 8244 O 774.014 5.44366 0.482534 0
M  V30 8245 H 771.108 0.81987 0.108364 0
M  V30 8246 H 773.654 1.60946 -0.537989 0
M  V30 8247 H 772.426 3.80308 -0.920966 0
M  V30 8248 H 772.049 3.89642 0.791509 0
M  V30 8249 N 773.046 0.209999 1.56195 0
M  V30 8250 C 773.976 -0.699746 2.22769 0
M  V30 8251 C 774.957 -1.20993 1.1956 0
M  V30 8252 O 776.142 -1.25605 1.48112 0
M  V30 8253 C 773.272 -1.91302 2.89863 0
M  V30 8254 C 772.226 -1.53715 3.99444 0
M  V30 8255 C 771.552 -2.82826 4.53777 0
M  V30 8256 C 772.852 -0.735836 5.17091 0
M  V30 8257 H 774.546 -0.144716 2.9905 0
M  V30 8258 H 772.092 -0.0681645 1.43839 0
M  V30 8259 H 774.045 -2.5548 3.35124 0
M  V30 8260 H 772.769 -2.49283 2.11011 0
M  V30 8261 H 771.428 -0.918892 3.54897 0
M  V30 8262 H 771.076 -3.38927 3.71669 0
M  V30 8263 H 770.776 -2.58415 5.27727 0
M  V30 8264 H 772.3 -3.47966 5.01749 0
M  V30 8265 H 773.714 -1.28105 5.58804 0
M  V30 8266 H 772.111 -0.589272 5.972 0
M  V30 8267 H 773.181 0.260004 4.84202 0
M  V30 8268 N 774.524 -1.57472 -0.0634922 0
M  V30 8269 C 775.749 -1.92273 -0.77756 0
M  V30 8270 C 776.174 -0.807141 -1.69902 0
M  V30 8271 O 775.532 0.239523 -1.79711 0
M  V30 8272 C 775.58 -3.26054 -1.54017 0
M  V30 8273 O 774.684 -3.15873 -2.65138 0
M  V30 8274 H 774.025 -0.629389 -0.211579 0
M  V30 8275 H 776.555 -2.04579 -0.0292523 0
M  V30 8276 H 776.565 -3.60127 -1.91763 0
M  V30 8277 H 775.24 -4.06824 -0.864128 0
M  V30 8278 H 773.817 -2.93373 -2.30189 0
M  V30 8279 N 776.003 0.335068 -1.53997 0
M  V30 8280 C 777.419 0.678704 -1.4445 0
M  V30 8281 C 777.619 1.92106 -0.608078 0
M  V30 8282 O 776.675 2.52292 -0.102373 0
M  V30 8283 C 777.988 0.863435 -2.88037 0
M  V30 8284 C 779.536 0.961513 -2.97866 0
M  V30 8285 C 780.011 1.1785 -4.42578 0
M  V30 8286 N 781.502 1.2455 -4.46141 0
M  V30 8287 C 782.237 1.43106 -5.55255 0
M  V30 8288 N 781.733 1.5878 -6.74359 0
M  V30 8289 N 783.526 1.45722 -5.42883 0
M  V30 8290 H 775.677 -0.481656 -2.06867 0
M  V30 8291 H 777.94 -0.153615 -0.935471 0
M  V30 8292 H 777.646 0.0219511 -3.51693 0
M  V30 8293 H 777.52 1.76268 -3.33481 0
M  V30 8294 H 779.907 1.79351 -2.34344 0
M  V30 8295 H 779.988 0.0389862 -2.5577 0
M  V30 8296 H 779.632 0.351397 -5.06683 0
M  V30 8297 H 779.562 2.11472 -4.82273 0
M  V30 8298 H 782.053 1.13928 -3.60318 0
M  V30 8299 H 782.366 1.72599 -7.53279 0
M  V30 8300 H 780.711 1.559 -6.77289 0
M  V30 8301 H 783.902 1.33065 -4.48789 0
M  V30 8302 H 784.075 1.59841 -6.27977 0
M  V30 8303 N 777.481 1.45874 0.596531 0
M  V30 8304 C 778.413 1.51408 1.7207 0
M  V30 8305 C 779.426 0.403738 1.57714 0
M  V30 8306 O 780.615 0.671384 1.65393 0
M  V30 8307 C 777.715 1.3652 3.10186 0
M  V30 8308 C 776.888 2.61428 3.50677 0
M  V30 8309 C 775.947 2.40937 4.67799 0
M  V30 8310 O 774.973 3.14602 4.74357 0
M  V30 8311 N 776.175 1.4621 5.61785 0
M  V30 8312 H 778.94 2.48333 1.67782 0
M  V30 8313 H 776.501 1.41755 0.782129 0
M  V30 8314 H 778.493 1.20606 3.86311 0
M  V30 8315 H 777.063 0.478302 3.08919 0
M  V30 8316 H 776.283 2.92381 2.644 0
M  V30 8317 H 777.571 3.44432 3.74491 0
M  V30 8318 H 776.969 0.854382 5.59211 0
M  V30 8319 H 775.526 1.36264 6.37397 0
M  V30 8320 N 778.959 -0.83999 1.33349 0
M  V30 8321 C 780.208 -1.59011 1.2409 0
M  V30 8322 C 780.521 -1.94655 -0.192029 0
M  V30 8323 O 781.727 -2.68438 -0.406617 0
M  V30 8324 C 780.183 -2.86801 2.17425 0
M  V30 8325 C 779.791 -2.58525 3.65881 0
M  V30 8326 C 781.535 -3.64823 2.17036 0
M  V30 8327 C 779.442 -3.82404 4.51133 0
M  V30 8328 H 778.372 -0.596731 0.460899 0
M  V30 8329 H 781.023 -0.926274 1.58406 0
M  V30 8330 H 779.405 -3.54719 1.7604 0
M  V30 8331 H 780.579 -1.98824 4.15699 0
M  V30 8332 H 778.894 -1.93808 3.68548 0
M  V30 8333 H 781.491 -4.56774 2.7796 0
M  V30 8334 H 781.834 -3.99663 1.16513 0
M  V30 8335 H 782.367 -3.03826 2.56777 0
M  V30 8336 H 779.106 -3.52696 5.52527 0
M  V30 8337 H 778.626 -4.41447 4.0606 0
M  V30 8338 H 780.305 -4.49995 4.6488 0
M  V30 8339 N 780.437 -1.16799 -1.0581 0
M  V30 8340 C 781.848 -0.95945 -1.60161 0
M  V30 8341 C 782.199 0.49543 -1.89842 0
M  V30 8342 O 781.324 1.36957 -1.67546 0
M  V30 8343 C 781.919 -1.73527 -2.90987 0
M  V30 8344 C 780.478 -1.57158 -3.42021 0
M  V30 8345 C 779.625 -1.74089 -2.15843 0
M  V30 8346 H 782.576 -1.31598 -0.886992 0
M  V30 8347 H 782.597 -1.21397 -3.60615 0
M  V30 8348 H 782.109 -2.79411 -2.69353 0
M  V30 8349 H 780.21 -0.537361 -3.68705 0
M  V30 8350 H 780.323 -2.35858 -4.17022 0
M  V30 8351 H 778.687 -1.16874 -2.26302 0
M  V30 8352 H 779.47 -2.81371 -1.96686 0
M  V30 8353 N 781.915 1.24427 -0.967243 0
M  V30 8354 C 782.847 2.24641 -0.454856 0
M  V30 8355 C 783.86 1.56849 0.436152 0
M  V30 8356 O 785.049 1.76846 0.242401 0
M  V30 8357 C 782.149 3.36954 0.362672 0
M  V30 8358 C 781.322 4.34318 -0.518324 0
M  V30 8359 C 780.381 5.25638 0.243122 0
M  V30 8360 O 779.407 5.68043 -0.362791 0
M  V30 8361 N 780.609 5.59897 1.53282 0
M  V30 8362 H 783.374 2.69238 -1.31648 0
M  V30 8363 H 780.935 1.38464 -0.839015 0
M  V30 8364 H 782.927 3.95014 0.880094 0
M  V30 8365 H 781.497 2.91646 1.12522 0
M  V30 8366 H 780.717 3.74953 -1.21672 0
M  V30 8367 H 782.005 4.96338 -1.11919 0
M  V30 8368 H 781.403 5.27373 2.04682 0
M  V30 8369 H 779.96 6.20488 1.99594 0
M  V30 8370 N 783.393 0.737304 1.3929 0
M  V30 8371 C 784.323 0.113988 2.33222 0
M  V30 8372 C 785.304 -0.721695 1.54031 0
M  V30 8373 O 786.489 -0.666206 1.82415 0
M  V30 8374 C 783.619 -0.792319 3.38141 0
M  V30 8375 C 782.573 -0.0606178 4.27957 0
M  V30 8376 C 781.899 -1.08409 5.23595 0
M  V30 8377 C 783.199 1.09817 5.10625 0
M  V30 8378 H 784.893 0.898611 2.85596 0
M  V30 8379 H 782.439 0.433571 1.37318 0
M  V30 8380 H 784.392 -1.23793 4.02807 0
M  V30 8381 H 783.116 -1.60908 2.84211 0
M  V30 8382 H 781.775 0.365393 3.64775 0
M  V30 8383 H 781.423 -1.89449 4.6596 0
M  V30 8384 H 781.123 -0.599269 5.84536 0
M  V30 8385 H 782.647 -1.52936 5.91137 0
M  V30 8386 H 784.061 0.730892 5.68622 0
M  V30 8387 H 782.458 1.51278 5.80719 0
M  V30 8388 H 783.528 1.91878 4.45321 0
M  V30 8389 N 784.871 -1.49948 0.485112 0
M  V30 8390 C 785.818 -2.28819 -0.301729 0
M  V30 8391 C 786.788 -1.34496 -0.974683 0
M  V30 8392 O 787.973 -1.63444 -0.984418 0
M  V30 8393 C 785.113 -3.16758 -1.36961 0
M  V30 8394 C 784.226 -4.26125 -0.710027 0
M  V30 8395 C 783.361 -5.01302 -1.75699 0
M  V30 8396 C 782.4 -6.02525 -1.07841 0
M  V30 8397 N 781.537 -6.70927 -2.06886 0
M  V30 8398 H 786.377 -2.95604 0.377127 0
M  V30 8399 H 783.914 -1.45764 0.197826 0
M  V30 8400 H 785.872 -3.66106 -2.00056 0
M  V30 8401 H 784.502 -2.51991 -2.01744 0
M  V30 8402 H 783.554 -3.80385 0.0338278 0
M  V30 8403 H 784.866 -4.98493 -0.175079 0
M  V30 8404 H 784.02 -5.54438 -2.46339 0
M  V30 8405 H 782.759 -4.28672 -2.32577 0
M  V30 8406 H 781.764 -5.48635 -0.357706 0
M  V30 8407 H 782.989 -6.77134 -0.516345 0
M  V30 8408 H 780.935 -6.01079 -2.62755 0
M  V30 8409 H 780.852 -7.39216 -1.58414 0
M  V30 8410 H 782.12 -7.28675 -2.76863 0
M  V30 8411 N 786.349 -0.21828 -1.56081 0
M  V30 8412 C 787.296 0.693189 -2.20144 0
M  V30 8413 C 788.266 1.19274 -1.15598 0
M  V30 8414 O 789.451 1.25243 -1.4394 0
M  V30 8415 C 786.591 1.89715 -2.88275 0
M  V30 8416 C 785.704 1.4368 -4.07407 0
M  V30 8417 C 784.839 2.59807 -4.63329 0
M  V30 8418 C 783.878 2.10492 -5.74769 0
M  V30 8419 N 783.015 3.1988 -6.24997 0
M  V30 8420 H 787.855 0.14016 -2.9767 0
M  V30 8421 H 785.392 0.0574292 -1.46988 0
M  V30 8422 H 787.35 2.60398 -3.25958 0
M  V30 8423 H 785.98 2.42311 -2.13273 0
M  V30 8424 H 785.032 0.625007 -3.7523 0
M  V30 8425 H 786.344 1.03517 -4.8794 0
M  V30 8426 H 785.498 3.38577 -5.03438 0
M  V30 8427 H 784.237 3.03256 -3.81951 0
M  V30 8428 H 783.242 1.30182 -5.34165 0
M  V30 8429 H 784.467 1.68045 -6.5798 0
M  V30 8430 H 782.413 3.62817 -5.46534 0
M  V30 8431 H 782.33 2.83958 -7.00645 0
M  V30 8432 H 783.598 3.98796 -6.69763 0
M  V30 8433 N 787.827 1.57504 0.0551401 0
M  V30 8434 C 789.104 1.79155 0.785048 0
M  V30 8435 C 789.484 0.809995 1.94942 0
M  V30 8436 O 788.832 -0.153432 2.27984 0
M  V30 8437 C 789.042 3.26134 1.24247 0
M  V30 8438 C 790.39 3.90419 1.66908 0
M  V30 8439 O 791.414 3.30126 1.33772 0
M  V30 8440 O 790.273 4.96523 2.28314 0
M  V30 8441 H 787.367 0.735825 0.377479 0
M  V30 8442 H 789.913 1.69666 0.0339285 0
M  V30 8443 H 788.685 3.89145 0.410089 0
M  V30 8444 H 788.308 3.40411 2.05441 0
M  V30 8445 N 789.305 -0.326896 1.54172 0
M  V30 8446 C 790.554 -1.06274 1.71431 0
M  V30 8447 C 790.867 -1.89282 0.493123 0
M  V30 8448 O 792.073 -2.65933 0.54699 0
M  V30 8449 C 790.529 -1.93892 3.03206 0
M  V30 8450 C 790.137 -1.16011 4.32719 0
M  V30 8451 C 791.881 -2.67232 3.29829 0
M  V30 8452 C 789.788 -2.02755 5.55558 0
M  V30 8453 H 788.718 -0.400475 0.638855 0
M  V30 8454 H 791.369 -0.321184 1.80667 0
M  V30 8455 H 789.751 -2.71933 2.87869 0
M  V30 8456 H 790.925 -0.427643 4.58811 0
M  V30 8457 H 789.24 -0.54367 4.12836 0
M  V30 8458 H 791.837 -3.32434 4.18798 0
M  V30 8459 H 792.18 -3.34692 2.47562 0
M  V30 8460 H 792.713 -1.96255 3.46018 0
M  V30 8461 H 789.452 -1.3981 6.40417 0
M  V30 8462 H 788.972 -2.73745 5.33689 0
M  V30 8463 H 790.651 -2.61419 5.91835 0
M  V30 8464 N 790.784 -1.46188 -0.588786 0
M  V30 8465 C 791.716 -1.52319 -1.71265 0
M  V30 8466 C 792.729 -0.412096 -1.57498 0
M  V30 8467 O 793.918 -0.680146 -1.65034 0
M  V30 8468 C 791.018 -1.38164 -3.09458 0
M  V30 8469 C 790.191 -2.63284 -3.49286 0
M  V30 8470 C 789.25 -2.43415 -4.66514 0
M  V30 8471 O 788.276 -3.17113 -4.72682 0
M  V30 8472 N 789.478 -1.49187 -5.61002 0
M  V30 8473 H 792.243 -2.49219 -1.66463 0
M  V30 8474 H 789.804 -1.42167 -0.774601 0
M  V30 8475 H 791.796 -1.22653 -3.85666 0
M  V30 8476 H 790.366 -0.494678 -3.08661 0
M  V30 8477 H 789.586 -2.93779 -2.62845 0
M  V30 8478 H 790.874 -3.46413 -3.7266 0
M  V30 8479 H 790.272 -0.884027 -5.5875 0
M  V30 8480 H 788.829 -1.39642 -6.36666 0
M  V30 8481 N 792.262 0.832906 -1.33792 0
M  V30 8482 C 793.539 1.57359 -1.16178 0
M  V30 8483 C 793.919 2.09372 0.269532 0
M  V30 8484 O 793.267 1.89993 1.26944 0
M  V30 8485 C 793.477 2.70279 -2.20795 0
M  V30 8486 C 794.825 3.39305 -2.55259 0
M  V30 8487 O 795.849 2.80526 -2.19508 0
M  V30 8488 O 794.708 4.45428 -3.16632 0
M  V30 8489 H 791.802 0.694025 -0.449731 0
M  V30 8490 H 794.348 0.875144 -1.45394 0
M  V30 8491 H 793.12 2.29527 -3.16911 0
M  V30 8492 H 792.743 3.47782 -1.927 0
M  V30 8493 N 793.74 1.17359 1.05189 0
M  V30 8494 C 794.988 0.960087 1.77839 0
M  V30 8495 C 795.309 -0.512554 1.88143 0
M  V30 8496 O 794.579 -1.3721 1.39822 0
M  V30 8497 H 793.159 0.352234 0.658741 0
M  V30 8498 H 795.821 1.47834 1.27008 0
M  V30 8499 H 794.917 1.38843 2.79516 0
M  V30 8500 N 795.218 -1.23913 0.973828 0
M  V30 8501 C 796.148 -2.27453 0.527969 0
M  V30 8502 C 797.129 -1.6443 -0.435513 0
M  V30 8503 O 798.314 -1.9137 -0.330306 0
M  V30 8504 C 795.444 -3.4685 -0.176757 0
M  V30 8505 C 794.398 -4.22181 0.703352 0
M  V30 8506 C 793.724 -5.34534 -0.133215 0
M  V30 8507 C 795.024 -4.82865 1.99096 0
M  V30 8508 H 796.718 -2.65 1.3934 0
M  V30 8509 H 794.264 -1.27388 0.671446 0
M  V30 8510 H 796.217 -4.18424 -0.499934 0
M  V30 8511 H 794.941 -3.08346 -1.07659 0
M  V30 8512 H 793.6 -3.52416 1.00989 0
M  V30 8513 H 793.248 -4.92271 -1.03338 0
M  V30 8514 H 792.948 -5.85855 0.452494 0
M  V30 8515 H 794.472 -6.08933 -0.450924 0
M  V30 8516 H 795.886 -5.46481 1.73297 0
M  V30 8517 H 794.283 -5.44444 2.52389 0
M  V30 8518 H 795.353 -4.03977 2.68199 0
M  V30 8519 N 796.696 -0.74468 -1.38897 0
M  V30 8520 C 797.626 -0.126355 -2.33158 0
M  V30 8521 C 798.607 0.713517 -1.54412 0
M  V30 8522 O 799.792 0.656523 -1.82766 0
M  V30 8523 C 796.922 0.774375 -3.38557 0
M  V30 8524 C 795.876 0.0379214 -4.27983 0
M  V30 8525 C 795.202 1.05631 -5.24162 0
M  V30 8526 C 796.502 -1.12523 -5.10035 0
M  V30 8527 H 798.196 -0.913744 -2.85116 0
M  V30 8528 H 795.742 -0.440847 -1.37086 0
M  V30 8529 H 797.695 1.21655 -4.03458 0
M  V30 8530 H 796.419 1.59399 -2.85061 0
M  V30 8531 H 795.078 -0.384733 -3.64576 0
M  V30 8532 H 794.726 1.86975 -4.66958 0
M  V30 8533 H 794.426 0.568261 -5.84846 0
M  V30 8534 H 795.95 1.49799 -5.9194 0
M  V30 8535 H 797.364 -0.761037 -5.68226 0
M  V30 8536 H 795.761 -1.54355 -5.79909 0
M  V30 8537 H 796.831 -1.94237 -4.44297 0
M  V30 8538 N 798.174 1.49689 -0.493057 0
M  V30 8539 C 799.121 2.28976 0.28959 0
M  V30 8540 C 800.091 1.35011 0.967536 0
M  V30 8541 O 801.276 1.63964 0.975736 0
M  V30 8542 C 798.416 3.1748 1.35279 0
M  V30 8543 C 797.529 4.26496 0.687418 0
M  V30 8544 C 796.664 5.02226 1.73038 0
M  V30 8545 C 795.703 6.03089 1.04645 0
M  V30 8546 N 794.84 6.72014 2.03325 0
M  V30 8547 H 799.68 2.954 -0.392798 0
M  V30 8548 H 797.217 1.45657 -0.205554 0
M  V30 8549 H 799.175 3.67162 1.98111 0
M  V30 8550 H 797.805 2.53057 2.00405 0
M  V30 8551 H 796.857 3.80362 -0.0540001 0
M  V30 8552 H 798.169 4.98578 0.14864 0
M  V30 8553 H 797.323 5.55737 2.43395 0
M  V30 8554 H 796.062 4.29899 2.303 0
M  V30 8555 H 795.067 5.48817 0.328606 0
M  V30 8556 H 796.292 6.77398 0.480428 0
M  V30 8557 H 794.238 6.02464 2.59564 0
M  V30 8558 H 794.155 7.40046 1.54492 0
M  V30 8559 H 795.423 7.30133 2.72995 0
M  V30 8560 N 799.652 0.226554 1.55963 0
M  V30 8561 C 800.585 -0.721625 2.1649 0
M  V30 8562 C 801.563 -1.18745 1.11078 0
M  V30 8563 O 802.747 -1.26929 1.3936 0
M  V30 8564 C 799.874 -1.97828 2.74921 0
M  V30 8565 C 798.92 -1.65202 3.93206 0
M  V30 8566 S 799.753 -0.772419 5.299 0
M  V30 8567 C 800.909 -2.03853 5.91773 0
M  V30 8568 H 801.142 -0.207192 2.96577 0
M  V30 8569 H 798.675 0.0111976 1.54396 0
M  V30 8570 H 800.633 -2.69982 3.09225 0
M  V30 8571 H 799.294 -2.46384 1.94817 0
M  V30 8572 H 798.487 -2.58583 4.32609 0
M  V30 8573 H 798.089 -1.01108 3.60074 0
M  V30 8574 H 800.381 -2.98799 6.08051 0
M  V30 8575 H 801.324 -1.68831 6.87678 0
M  V30 8576 H 801.732 -2.18134 5.20651 0
M  V30 8577 N 801.13 -1.57531 -0.0467866 0
M  V30 8578 C 802.06 -2.08425 -1.05268 0
M  V30 8579 C 803.041 -0.982941 -1.38825 0
M  V30 8580 O 804.226 -1.25716 -1.48018 0
M  V30 8581 C 801.356 -2.54897 -2.35891 0
M  V30 8582 C 800.31 -3.69132 -2.16623 0
M  V30 8583 C 799.636 -4.01747 -3.52851 0
M  V30 8584 C 800.936 -4.98243 -1.56689 0
M  V30 8585 H 802.63 -2.92716 -0.62908 0
M  V30 8586 H 800.176 -1.40816 -0.301156 0
M  V30 8587 H 802.129 -2.8912 -3.06574 0
M  V30 8588 H 800.853 -1.67666 -2.80278 0
M  V30 8589 H 799.512 -3.35231 -1.48377 0
M  V30 8590 H 799.16 -3.11608 -3.94853 0
M  V30 8591 H 798.86 -4.78681 -3.4079 0
M  V30 8592 H 800.384 -4.38487 -4.24925 0
M  V30 8593 H 801.798 -5.30535 -2.17268 0
M  V30 8594 H 800.195 -5.79669 -1.55255 0
M  V30 8595 H 801.265 -4.81986 -0.530827 0
M  V30 8596 N 802.608 0.318715 -1.54344 0
M  V30 8597 C 803.833 1.07987 -1.77069 0
M  V30 8598 C 804.258 1.80766 -0.520117 0
M  V30 8599 O 803.616 1.73424 0.528566 0
M  V30 8600 C 803.664 2.04987 -2.96669 0
M  V30 8601 O 802.768 3.12974 -2.68554 0
M  V30 8602 H 802.109 0.311109 -0.586606 0
M  V30 8603 H 804.639 0.361533 -2.0138 0
M  V30 8604 H 804.649 2.47771 -3.2415 0
M  V30 8605 H 803.324 1.51417 -3.87357 0
M  V30 8606 H 801.901 2.74831 -2.52037 0
M  V30 8607 N 804.086 1.46499 0.581025 0
M  V30 8608 C 805.016 1.60052 1.70017 0
M  V30 8609 C 805.997 0.450788 1.64018 0
M  V30 8610 O 807.182 0.677237 1.82009 0
M  V30 8611 C 804.312 1.5921 3.08658 0
M  V30 8612 C 803.266 2.73169 3.29488 0
M  V30 8613 C 802.592 2.57389 4.68674 0
M  V30 8614 C 803.892 4.14978 3.1716 0
M  V30 8615 H 805.586 2.53735 1.5893 0
M  V30 8616 H 803.132 1.22113 0.763173 0
M  V30 8617 H 805.085 1.67285 3.86773 0
M  V30 8618 H 803.809 0.620718 3.20647 0
M  V30 8619 H 802.468 2.64566 2.53773 0
M  V30 8620 H 802.116 1.58331 4.77431 0
M  V30 8621 H 801.816 3.33826 4.83564 0
M  V30 8622 H 803.34 2.67358 5.48956 0
M  V30 8623 H 804.754 4.24684 3.85119 0
M  V30 8624 H 803.151 4.92016 3.4357 0
M  V30 8625 H 804.221 4.35016 2.14218 0
M  V30 8626 N 805.565 -0.825799 1.34232 0
M  V30 8627 C 806.811 -1.58419 1.26614 0
M  V30 8628 C 807.144 -1.93503 -0.164341 0
M  V30 8629 O 806.419 -1.59785 -1.109 0
M  V30 8630 C 806.702 -2.8856 2.15418 0
M  V30 8631 C 806.555 -2.60075 3.66989 0
M  V30 8632 C 807.874 -3.90107 2.03726 0
M  V30 8633 H 804.993 -0.574794 0.461282 0
M  V30 8634 H 807.635 -0.951519 1.64457 0
M  V30 8635 H 805.785 -3.42553 1.83275 0
M  V30 8636 H 807.457 -2.12414 4.09485 0
M  V30 8637 H 805.7 -1.93565 3.88221 0
M  V30 8638 H 806.371 -3.52866 4.24488 0
M  V30 8639 H 808.847 -3.45459 2.31942 0
M  V30 8640 H 807.723 -4.78976 2.68092 0
M  V30 8641 H 807.984 -4.30329 1.01337 0
M  V30 8642 N 807.043 -1.17915 -1.04565 0
M  V30 8643 C 807.973 -0.925033 -2.14395 0
M  V30 8644 C 808.954 0.135375 -1.6956 0
M  V30 8645 O 810.139 -0.0161774 -1.94193 0
M  V30 8646 C 807.269 -0.444469 -3.44444 0
M  V30 8647 C 806.223 -1.44478 -4.02877 0
M  V30 8648 C 805.549 -0.821933 -5.28345 0
M  V30 8649 C 806.849 -2.81995 -4.39632 0
M  V30 8650 H 808.543 -1.84354 -2.35911 0
M  V30 8651 H 806.089 -0.887806 -1.13375 0
M  V30 8652 H 808.042 -0.254078 -4.20633 0
M  V30 8653 H 806.766 0.509592 -3.226 0
M  V30 8654 H 805.425 -1.62203 -3.28764 0
M  V30 8655 H 805.073 0.139161 -5.02807 0
M  V30 8656 H 804.773 -1.48976 -5.68401 0
M  V30 8657 H 806.297 -0.641959 -6.07216 0
M  V30 8658 H 807.711 -2.67952 -5.06828 0
M  V30 8659 H 806.108 -3.45414 -4.90723 0
M  V30 8660 H 807.178 -3.35927 -3.49687 0
M  V30 8661 N 808.521 1.23394 -0.980386 0
M  V30 8662 C 809.454 2.23404 -0.465404 0
M  V30 8663 C 810.432 1.55735 0.467471 0
M  V30 8664 O 811.616 1.84295 0.395921 0
M  V30 8665 C 808.743 3.3712 0.32672 0
M  V30 8666 C 807.789 4.22935 -0.550296 0
M  V30 8667 S 808.622 4.96824 -1.99814 0
M  V30 8668 C 809.778 6.13991 -1.21516 0
M  V30 8669 H 810.011 2.6674 -1.31289 0
M  V30 8670 H 807.544 1.32874 -0.78638 0
M  V30 8671 H 809.502 4.03065 0.777738 0
M  V30 8672 H 808.163 2.92317 1.14933 0
M  V30 8673 H 807.356 5.03966 0.0585298 0
M  V30 8674 H 806.958 3.62058 -0.937558 0
M  V30 8675 H 809.25 6.75822 -0.476476 0
M  V30 8676 H 810.193 6.7926 -2.0003 0
M  V30 8677 H 810.601 5.59708 -0.733949 0
M  V30 8678 N 809.999 0.752036 1.385 0
M  V30 8679 C 810.949 0.0990189 2.27785 0
M  V30 8680 C 811.933 -0.694867 1.45122 0
M  V30 8681 O 813.125 -0.561077 1.67872 0
M  V30 8682 C 810.254 -0.794531 3.33979 0
M  V30 8683 C 809.34 0.00611984 4.241 0
M  V30 8684 N 809.731 1.04174 4.94956 0
M  V30 8685 C 808.029 -0.220934 4.45452 0
M  V30 8686 C 808.73 1.52601 5.61327 0
M  V30 8687 N 807.706 0.84159 5.37046 0
M  V30 8688 H 811.508 0.892208 2.8003 0
M  V30 8689 H 809.022 0.587934 1.51384 0
M  V30 8690 H 811.019 -1.27797 3.96829 0
M  V30 8691 H 809.679 -1.58669 2.83292 0
M  V30 8692 H 810.69 1.42349 4.97953 0
M  V30 8693 H 807.367 -0.986556 4.05676 0
M  V30 8694 H 808.757 2.38857 6.2801 0
M  V30 8695 N 811.477 -1.49425 0.500989 0
M  V30 8696 C 812.424 -2.29126 -0.277443 0
M  V30 8697 C 813.394 -1.35522 -0.960363 0
M  V30 8698 O 814.579 -1.64479 -0.967027 0
M  V30 8699 C 811.719 -3.18193 -1.33593 0
M  V30 8700 C 810.832 -4.26854 -0.664791 0
M  V30 8701 C 809.967 -5.03137 -1.70372 0
M  V30 8702 C 809.006 -6.03635 -1.01445 0
M  V30 8703 N 808.143 -6.73083 -1.99758 0
M  V30 8704 H 812.983 -2.95187 0.408458 0
M  V30 8705 H 810.52 -1.45546 0.213275 0
M  V30 8706 H 812.478 -3.68207 -1.96161 0
M  V30 8707 H 811.108 -2.54116 -1.9906 0
M  V30 8708 H 810.16 -3.80328 0.0741708 0
M  V30 8709 H 811.472 -4.9865 -0.122197 0
M  V30 8710 H 810.626 -5.5702 -2.40445 0
M  V30 8711 H 809.365 -4.31114 -2.28017 0
M  V30 8712 H 808.37 -5.48984 -0.299496 0
M  V30 8713 H 809.595 -6.77644 -0.444497 0
M  V30 8714 H 807.541 -6.03832 -2.56365 0
M  V30 8715 H 807.458 -7.40855 -1.50565 0
M  V30 8716 H 808.726 -7.3157 -2.69119 0
M  V30 8717 N 812.955 -0.234822 -1.55841 0
M  V30 8718 C 814.366 0.270588 -1.84729 0
M  V30 8719 C 814.717 1.58494 -1.15646 0
M  V30 8720 O 813.842 2.12071 -0.430667 0
M  V30 8721 C 814.437 0.497733 -3.35124 0
M  V30 8722 C 812.996 0.947428 -3.64281 0
M  V30 8723 C 812.143 0.01787 -2.77294 0
M  V30 8724 H 815.094 -0.457691 -1.51957 0
M  V30 8725 H 815.115 1.34199 -3.56049 0
M  V30 8726 H 814.627 -0.459037 -3.85376 0
M  V30 8727 H 812.728 1.91709 -3.19497 0
M  V30 8728 H 812.841 0.812651 -4.72158 0
M  V30 8729 H 811.205 0.527071 -2.49187 0
M  V30 8730 H 811.988 -0.934056 -3.30349 0
M  V30 8731 N 814.433 1.57553 0.0384317 0
M  V30 8732 C 815.363 2.0898 1.04161 0
M  V30 8733 C 816.344 0.99029 1.38301 0
M  V30 8734 O 817.529 1.26499 1.47349 0
M  V30 8735 C 814.659 2.56145 2.34536 0
M  V30 8736 C 813.613 3.70275 2.14663 0
M  V30 8737 C 812.939 4.03612 3.50715 0
M  V30 8738 C 814.239 4.99067 1.54045 0
M  V30 8739 H 815.933 2.93046 0.613548 0
M  V30 8740 H 813.479 1.40973 0.293684 0
M  V30 8741 H 815.432 2.90741 3.05037 0
M  V30 8742 H 814.156 1.6915 2.79385 0
M  V30 8743 H 812.815 3.36013 1.46597 0
M  V30 8744 H 812.463 3.13698 3.93195 0
M  V30 8745 H 812.163 4.80482 3.38247 0
M  V30 8746 H 813.687 4.40735 4.22593 0
M  V30 8747 H 815.101 5.3168 2.14451 0
M  V30 8748 H 813.498 5.80484 1.52178 0
M  V30 8749 H 814.568 4.8226 0.505259 0
M  V30 8750 N 815.911 -0.310526 1.54511 0
M  V30 8751 C 817.327 -0.655637 1.45511 0
M  V30 8752 C 817.527 -1.91114 0.638564 0
M  V30 8753 O 816.583 -2.52098 0.142497 0
M  V30 8754 C 817.896 -0.817501 2.89374 0
M  V30 8755 C 819.444 -0.914003 2.99358 0
M  V30 8756 C 819.919 -1.10794 4.44397 0
M  V30 8757 N 821.41 -1.17437 4.48066 0
M  V30 8758 C 822.145 -1.34255 5.57461 0
M  V30 8759 N 821.641 -1.48032 6.768 0
M  V30 8760 N 823.434 -1.37067 5.45132 0
M  V30 8761 H 815.585 0.514506 2.06074 0
M  V30 8762 H 817.848 0.168478 0.932909 0
M  V30 8763 H 817.554 0.034003 3.51684 0
M  V30 8764 H 817.428 -1.7094 3.36243 0
M  V30 8765 H 819.815 -1.756 2.37168 0
M  V30 8766 H 819.896 0.00170958 2.558 0
M  V30 8767 H 819.54 -0.270743 5.07178 0
M  V30 8768 H 819.47 -2.03773 4.85576 0
M  V30 8769 H 821.961 -1.08181 3.62084 0
M  V30 8770 H 822.274 -1.60593 7.5593 0
M  V30 8771 H 820.619 -1.45105 6.79683 0
M  V30 8772 H 823.81 -1.25909 4.50849 0
M  V30 8773 H 823.983 -1.49831 6.3044 0
M  V30 8774 N 817.389 -1.46805 -0.573248 0
M  V30 8775 C 818.339 -1.54497 -1.67674 0
M  V30 8776 C 819.323 -0.405117 -1.55716 0
M  V30 8777 O 820.515 -0.654097 -1.64471 0
M  V30 8778 C 817.644 -1.54717 -3.0646 0
M  V30 8779 C 816.73 -2.7403 -3.2368 0
M  V30 8780 N 817.121 -3.98871 -3.11023 0
M  V30 8781 C 815.419 -2.70453 -3.54642 0
M  V30 8782 C 816.12 -4.78689 -3.30502 0
M  V30 8783 N 815.096 -4.10727 -3.56096 0
M  V30 8784 H 818.898 -2.48809 -1.56433 0
M  V30 8785 H 816.412 -1.42576 -0.777554 0
M  V30 8786 H 818.409 -1.58316 -3.8567 0
M  V30 8787 H 817.069 -0.614886 -3.18825 0
M  V30 8788 H 818.08 -4.29976 -2.88688 0
M  V30 8789 H 814.757 -1.86291 -3.73633 0
M  V30 8790 H 816.147 -5.87615 -3.2582 0
M  V30 8791 N 818.867 0.818669 -1.34668 0
M  V30 8792 C 820.278 1.39177 -1.24446 0
M  V30 8793 C 820.629 1.9578 0.128268 0
M  V30 8794 O 819.754 1.90382 1.02877 0
M  V30 8795 C 820.349 2.53012 -2.25323 0
M  V30 8796 C 818.908 3.06218 -2.18878 0
M  V30 8797 C 818.055 1.79112 -2.11694 0
M  V30 8798 H 821.006 0.622709 -1.45973 0
M  V30 8799 H 821.027 3.31226 -1.8727 0
M  V30 8800 H 820.539 2.11784 -3.25221 0
M  V30 8801 H 818.64 3.51939 -1.22351 0
M  V30 8802 H 818.753 3.65019 -3.10319 0
M  V30 8803 H 817.117 2.0018 -1.57481 0
M  V30 8804 H 817.9 1.40053 -3.13433 0
M  V30 8805 N 820.346 1.18468 1.03938 0
M  V30 8806 C 821.594 0.978895 1.76811 0
M  V30 8807 C 821.915 -0.49257 1.88676 0
M  V30 8808 O 821.185 -1.3572 1.41269 0
M  V30 8809 H 819.765 0.359201 0.654968 0
M  V30 8810 H 822.427 1.49173 1.25433 0
M  V30 8811 H 821.523 1.418 2.78027 0
M  V30 8812 N 821.824 -1.22873 0.986916 0
M  V30 8813 C 822.757 -2.23154 0.477245 0
M  V30 8814 C 823.735 -1.55981 -0.459206 0
M  V30 8815 O 824.919 -1.84503 -0.386141 0
M  V30 8816 C 822.046 -3.37289 -0.308838 0
M  V30 8817 C 821.092 -4.22637 0.572717 0
M  V30 8818 S 821.925 -4.95758 2.02446 0
M  V30 8819 C 823.081 -6.13338 1.2477 0
M  V30 8820 H 823.314 -2.6604 1.32702 0
M  V30 8821 H 820.847 -1.32455 0.793415 0
M  V30 8822 H 822.805 -4.03472 -0.756351 0
M  V30 8823 H 821.466 -2.92922 -1.13381 0
M  V30 8824 H 820.659 -5.0399 -0.0318024 0
M  V30 8825 H 820.261 -3.61555 0.956746 0
M  V30 8826 H 822.553 -6.7556 0.51231 0
M  V30 8827 H 823.496 -6.78189 2.03629 0
M  V30 8828 H 823.904 -5.59311 0.763622 0
M  V30 8829 N 823.302 -0.75937 -1.38099 0
M  V30 8830 C 824.713 -0.385078 -1.82686 0
M  V30 8831 C 825.064 1.0871 -1.6333 0
M  V30 8832 O 824.189 1.84084 -1.13762 0
M  V30 8833 C 824.784 -0.692161 -3.31654 0
M  V30 8834 C 823.343 -0.371077 -3.74566 0
M  V30 8835 C 822.49 -0.942375 -2.60796 0
M  V30 8836 H 825.441 -0.955048 -1.26746 0
M  V30 8837 H 825.462 0.0276001 -3.8049 0
M  V30 8838 H 824.974 -1.76369 -3.4571 0
M  V30 8839 H 823.075 0.693637 -3.66087 0
M  V30 8840 H 823.188 -0.870672 -4.71122 0
M  V30 8841 H 821.552 -0.367383 -2.52036 0
M  V30 8842 H 822.335 -2.01905 -2.77649 0
M  V30 8843 N 824.78 1.49157 -0.508906 0
M  V30 8844 C 825.727 2.2927 0.265288 0
M  V30 8845 C 826.697 1.3603 0.953162 0
M  V30 8846 O 827.882 1.64989 0.958291 0
M  V30 8847 C 825.022 3.18897 1.31904 0
M  V30 8848 C 824.135 4.27201 0.642144 0
M  V30 8849 C 823.27 5.04033 1.67701 0
M  V30 8850 C 822.309 6.04165 0.982422 0
M  V30 8851 N 821.446 6.74133 1.96186 0
M  V30 8852 H 826.286 2.94967 -0.424107 0
M  V30 8853 H 823.823 1.45431 -0.220991 0
M  V30 8854 H 825.781 3.69242 1.94206 0
M  V30 8855 H 824.411 2.55168 1.97709 0
M  V30 8856 H 823.463 3.80283 -0.0943395 0
M  V30 8857 H 824.775 4.98708 0.0957507 0
M  V30 8858 H 823.929 5.58287 2.37487 0
M  V30 8859 H 822.668 4.32317 2.25728 0
M  V30 8860 H 821.673 5.49135 0.270378 0
M  V30 8861 H 822.898 6.7787 0.408554 0
M  V30 8862 H 820.844 6.05183 2.53159 0
M  V30 8863 H 820.761 7.41643 1.46634 0
M  V30 8864 H 822.029 7.32987 2.65236 0
M  V30 8865 N 826.258 0.243083 1.55714 0
M  V30 8866 C 827.506 -0.381964 1.98458 0
M  V30 8867 C 827.827 -1.58745 1.13247 0
M  V30 8868 O 827.097 -1.94723 0.214384 0
M  V30 8869 H 825.677 -0.144114 0.732967 0
M  V30 8870 H 828.339 0.340985 1.91894 0
M  V30 8871 H 827.435 -0.693702 3.04293 0
M  V30 8872 N 827.736 -1.57571 -0.0300757 0
M  V30 8873 C 828.666 -2.0953 -1.03051 0
M  V30 8874 C 829.647 -0.99761 -1.37774 0
M  V30 8875 O 830.832 -1.27279 -1.46676 0
M  V30 8876 C 827.962 -2.57385 -2.33174 0
M  V30 8877 C 826.916 -3.71409 -2.12696 0
M  V30 8878 C 826.242 -4.05467 -3.4857 0
M  V30 8879 C 827.542 -4.99877 -1.51396 0
M  V30 8880 H 829.236 -2.93367 -0.597999 0
M  V30 8881 H 826.782 -1.41127 -0.286203 0
M  V30 8882 H 828.735 -2.92355 -3.03491 0
M  V30 8883 H 827.459 -1.70629 -2.78484 0
M  V30 8884 H 826.118 -3.36786 -1.44813 0
M  V30 8885 H 825.766 -3.15779 -3.91526 0
M  V30 8886 H 825.466 -4.82269 -3.35694 0
M  V30 8887 H 826.99 -4.4297 -4.2025 0
M  V30 8888 H 828.404 -5.3281 -2.11629 0
M  V30 8889 H 826.801 -5.81283 -1.49098 0
M  V30 8890 H 827.871 -4.82522 -0.479676 0
M  V30 8891 N 829.214 0.302327 -1.54673 0
M  V30 8892 C 830.177 1.35592 -1.8479 0
M  V30 8893 C 831.177 1.43743 -0.72073 0
M  V30 8894 O 832.367 1.43402 -0.989017 0
M  V30 8895 C 829.499 2.74091 -2.02699 0
M  V30 8896 H 830.692 1.10132 -2.78946 0
M  V30 8897 H 828.245 0.538926 -1.46715 0
M  V30 8898 H 828.98 3.04775 -1.10826 0
M  V30 8899 H 828.765 2.69565 -2.8474 0
M  V30 8900 H 830.255 3.50272 -2.27374 0
M  V30 8901 N 830.692 1.47107 0.565454 0
M  V30 8902 C 831.642 1.55384 1.66852 0
M  V30 8903 C 832.626 0.413369 1.55499 0
M  V30 8904 O 833.818 0.66281 1.64121 0
M  V30 8905 C 830.947 1.5634 3.05635 0
M  V30 8906 C 830.033 2.75742 3.22222 0
M  V30 8907 N 830.424 4.00515 3.08903 0
M  V30 8908 C 828.722 2.7233 3.53203 0
M  V30 8909 C 829.423 4.80435 3.27959 0
M  V30 8910 N 828.399 4.1261 3.53913 0
M  V30 8911 H 832.201 2.49635 1.55111 0
M  V30 8912 H 829.715 1.42986 0.769982 0
M  V30 8913 H 831.712 1.60359 3.84825 0
M  V30 8914 H 830.372 0.631785 3.18494 0
M  V30 8915 H 831.383 4.31501 2.86404 0
M  V30 8916 H 828.06 1.8827 3.7264 0
M  V30 8917 H 829.45 5.89334 3.22699 0
M  V30 8918 N 832.17 -0.811516 1.35101 0
M  V30 8919 C 833.102 -1.93102 1.23468 0
M  V30 8920 C 834.115 -1.62021 0.159095 0
M  V30 8921 O 835.304 -1.73682 0.411945 0
M  V30 8922 C 832.404 -3.27345 0.877404 0
M  V30 8923 C 831.577 -3.86368 2.05033 0
M  V30 8924 C 830.636 -4.99009 1.66963 0
M  V30 8925 O 829.662 -5.16698 2.38772 0
M  V30 8926 N 830.864 -5.7749 0.590394 0
M  V30 8927 H 833.629 -2.0361 2.19916 0
M  V30 8928 H 831.19 -0.988687 1.28205 0
M  V30 8929 H 833.182 -4.00163 0.604298 0
M  V30 8930 H 831.752 -3.126 0.00275267 0
M  V30 8931 H 830.972 -3.05804 2.48752 0
M  V30 8932 H 832.26 -4.22533 2.83449 0
M  V30 8933 H 831.658 -5.657 -0.00633259 0
M  V30 8934 H 830.215 -6.50708 0.377055 0
M  V30 8935 N 833.648 -1.19017 -1.03309 0
M  V30 8936 C 834.578 -0.94772 -2.13402 0
M  V30 8937 C 835.559 0.117383 -1.69694 0
M  V30 8938 O 836.744 -0.0367733 -1.94165 0
M  V30 8939 C 833.874 -0.480977 -3.43953 0
M  V30 8940 C 832.828 -1.48743 -4.01322 0
M  V30 8941 C 832.154 -0.877924 -5.27443 0
M  V30 8942 C 833.454 -2.86642 -4.36616 0
M  V30 8943 H 835.148 -1.86846 -2.33942 0
M  V30 8944 H 832.694 -0.899781 -1.12427 0
M  V30 8945 H 834.647 -0.298677 -4.2034 0
M  V30 8946 H 833.371 0.475348 -3.23122 0
M  V30 8947 H 832.03 -1.65681 -3.27025 0
M  V30 8948 H 831.678 0.0858232 -5.02927 0
M  V30 8949 H 831.378 -1.54996 -5.66789 0
M  V30 8950 H 832.902 -0.706326 -6.06501 0
M  V30 8951 H 834.316 -2.73312 -5.03958 0
M  V30 8952 H 832.713 -3.50599 -4.87032 0
M  V30 8953 H 833.783 -3.39617 -3.46105 0
M  V30 8954 N 835.127 1.22348 -0.993418 0
M  V30 8955 C 836.09 2.22522 -0.549251 0
M  V30 8956 C 837.09 1.56529 0.368164 0
M  V30 8957 O 838.28 1.73463 0.16005 0
M  V30 8958 C 835.412 3.40307 0.201037 0
M  V30 8959 H 836.605 2.63332 -1.43515 0
M  V30 8960 H 834.158 1.35407 -0.78068 0
M  V30 8961 H 834.893 3.0497 1.10289 0
M  V30 8962 H 834.678 3.8942 -0.457685 0
M  V30 8963 H 836.168 4.14597 0.499946 0
M  V30 8964 N 836.605 0.766683 1.37694 0
M  V30 8965 C 837.83 0.338715 2.04615 0
M  V30 8966 C 838.255 -1.02918 1.57447 0
M  V30 8967 O 837.613 -1.65849 0.732386 0
M  V30 8968 C 837.661 0.385284 3.58536 0
M  V30 8969 O 836.765 -0.616081 4.07772 0
M  V30 8970 H 836.106 0.147527 0.647404 0
M  V30 8971 H 838.636 1.04146 1.7611 0
M  V30 8972 H 838.646 0.240782 4.07289 0
M  V30 8973 H 837.321 1.38325 3.92223 0
M  V30 8974 H 835.898 -0.435115 3.70353 0
M  V30 8975 N 838.083 -1.48885 0.516809 0
M  V30 8976 C 839.494 -1.86557 0.0729921 0
M  V30 8977 C 839.845 -1.42767 -1.34581 0
M  V30 8978 O 838.97 -0.812514 -2.00567 0
M  V30 8979 C 839.565 -3.38567 0.125686 0
M  V30 8980 C 838.124 -3.75481 -0.262867 0
M  V30 8981 C 837.271 -2.72913 0.491281 0
M  V30 8982 H 840.222 -1.40978 0.728767 0
M  V30 8983 H 840.243 -3.74629 -0.665831 0
M  V30 8984 H 839.755 -3.70408 1.15842 0
M  V30 8985 H 837.856 -3.49251 -1.29824 0
M  V30 8986 H 837.969 -4.79052 0.067579 0
M  V30 8987 H 836.333 -2.54627 -0.0608525 0
M  V30 8988 H 837.116 -3.07599 1.5244 0
M  V30 8989 N 839.561 -0.251338 -1.55583 0
M  V30 8990 C 840.809 0.371434 -1.98657 0
M  V30 8991 C 841.13 1.58143 -1.14087 0
M  V30 8992 O 840.4 1.94607 -0.224708 0
M  V30 8993 H 838.98 0.140225 -0.733721 0
M  V30 8994 H 841.642 -0.351157 -1.9171 0
M  V30 8995 H 840.738 0.677554 -3.04657 0
M  V30 8996 N 841.039 1.57585 0.0217189 0
M  V30 8997 C 841.969 2.10073 1.01939 0
M  V30 8998 C 842.95 1.0049 1.37243 0
M  V30 8999 O 844.135 1.28055 1.45999 0
M  V30 9000 C 841.265 2.58618 2.31806 0
M  V30 9001 C 840.219 3.72531 2.10724 0
M  V30 9002 C 839.545 4.07309 3.46415 0
M  V30 9003 C 840.845 5.00672 1.48743 0
M  V30 9004 H 842.539 2.9368 0.582432 0
M  V30 9005 H 840.085 1.41277 0.278715 0
M  V30 9006 H 842.038 2.9396 3.01936 0
M  V30 9007 H 840.762 1.72104 2.77575 0
M  V30 9008 H 839.421 3.37549 1.43025 0
M  V30 9009 H 839.069 3.17851 3.89846 0
M  V30 9010 H 838.769 4.84042 3.33132 0
M  V30 9011 H 840.293 4.45192 4.17895 0
M  V30 9012 H 841.707 5.33925 2.088 0
M  V30 9013 H 840.104 5.82065 1.46013 0
M  V30 9014 H 841.174 4.82769 0.45408 0
M  V30 9015 N 842.517 -0.29412 1.54831 0
M  V30 9016 C 843.745 -1.04724 1.78439 0
M  V30 9017 C 844.16 -1.80695 0.547239 0
M  V30 9018 O 843.517 -1.75989 -0.483141 0
M  V30 9019 C 843.568 -2.02242 2.99634 0
M  V30 9020 O 843.289 -1.29352 4.18568 0
M  V30 9021 C 844.79 -2.89537 3.35683 0
M  V30 9022 H 842.01 -0.310285 0.594949 0
M  V30 9023 H 844.554 -0.331306 2.01798 0
M  V30 9024 H 842.709 -2.69328 2.78462 0
M  V30 9025 H 843.123 -1.94901 4.86943 0
M  V30 9026 H 844.597 -3.538 4.23709 0
M  V30 9027 H 845.074 -3.58201 2.54143 0
M  V30 9028 H 845.68 -2.27973 3.59038 0
M  V30 9029 N 843.995 -1.47404 -0.557645 0
M  V30 9030 C 845.223 -1.57622 -1.34026 0
M  V30 9031 C 845.638 -0.226256 -1.87439 0
M  V30 9032 O 844.995 0.78043 -1.64971 0
M  V30 9033 C 845.046 -2.60111 -2.51047 0
M  V30 9034 O 844.767 -3.89866 -1.99841 0
M  V30 9035 C 846.268 -2.80508 -3.43264 0
M  V30 9036 H 843.488 -0.532271 -0.40857 0
M  V30 9037 H 846.032 -1.93019 -0.675555 0
M  V30 9038 H 844.187 -2.27648 -3.13457 0
M  V30 9039 H 844.601 -4.45864 -2.76234 0
M  V30 9040 H 846.075 -3.56084 -4.21792 0
M  V30 9041 H 846.552 -1.88314 -3.9678 0
M  V30 9042 H 847.158 -3.14166 -2.86671 0
M  V30 9043 N 845.473 0.80434 -1.35529 0
M  V30 9044 C 846.403 1.93086 -1.31301 0
M  V30 9045 C 847.384 1.69068 -0.187044 0
M  V30 9046 O 848.569 1.90399 -0.382359 0
M  V30 9047 C 845.699 3.29867 -1.0865 0
M  V30 9048 C 844.653 3.68373 -2.17911 0
M  V30 9049 C 843.979 5.0334 -1.80423 0
M  V30 9050 C 845.279 3.78516 -3.59893 0
M  V30 9051 H 846.973 1.96882 -2.25561 0
M  V30 9052 H 844.519 0.945841 -1.08581 0
M  V30 9053 H 846.472 4.08281 -1.04331 0
M  V30 9054 H 845.196 3.2642 -0.108359 0
M  V30 9055 H 843.855 2.92247 -2.21331 0
M  V30 9056 H 843.503 4.96399 -0.812213 0
M  V30 9057 H 843.203 5.30074 -2.53565 0
M  V30 9058 H 844.727 5.84191 -1.77633 0
M  V30 9059 H 846.141 4.47155 -3.58783 0
M  V30 9060 H 844.538 4.16721 -4.31814 0
M  V30 9061 H 845.608 2.8001 -3.95882 0
M  V30 9062 N 846.951 1.19563 1.02676 0
M  V30 9063 C 848.362 1.00158 1.57561 0
M  V30 9064 C 848.713 -0.444922 1.91089 0
M  V30 9065 O 847.838 -1.32466 1.71119 0
M  V30 9066 C 848.433 1.81181 2.86284 0
M  V30 9067 C 846.992 1.66171 3.37734 0
M  V30 9068 C 846.139 1.7975 2.11152 0
M  V30 9069 H 849.09 1.33904 0.85179 0
M  V30 9070 H 849.111 1.30916 3.57269 0
M  V30 9071 H 848.623 2.86454 2.6185 0
M  V30 9072 H 846.724 0.634927 3.6715 0
M  V30 9073 H 846.837 2.46832 4.10622 0
M  V30 9074 H 845.201 1.22833 2.23123 0
M  V30 9075 H 845.984 2.86487 1.89157 0
M  V30 9076 N 848.429 -1.21819 0.999893 0
M  V30 9077 C 849.339 -2.27691 0.565159 0
M  V30 9078 C 850.355 -1.69587 -0.389398 0
M  V30 9079 O 851.531 -1.99786 -0.254499 0
M  V30 9080 C 848.596 -3.46537 -0.106432 0
M  V30 9081 C 847.657 -4.19932 0.891964 0
M  V30 9082 C 846.89 -5.33103 0.252327 0
M  V30 9083 O 847.113 -5.62398 -0.952103 0
M  V30 9084 O 846.047 -5.94184 0.960698 0
M  V30 9085 H 849.873 -2.67059 1.44613 0
M  V30 9086 H 847.458 -1.28119 0.768499 0
M  V30 9087 H 849.34 -4.18631 -0.482301 0
M  V30 9088 H 848.015 -3.09079 -0.961865 0
M  V30 9089 H 846.922 -3.5008 1.3189 0
M  V30 9090 H 848.255 -4.61287 1.71682 0
M  V30 9091 N 849.908 -0.773975 -1.37286 0
M  V30 9092 C 850.871 -0.167974 -2.28584 0
M  V30 9093 C 851.871 0.625662 -1.48129 0
M  V30 9094 O 853.061 0.448924 -1.68316 0
M  V30 9095 C 850.193 0.769364 -3.32105 0
M  V30 9096 H 851.386 -0.972806 -2.83684 0
M  V30 9097 H 848.939 -0.542335 -1.46589 0
M  V30 9098 H 849.674 1.59912 -2.82132 0
M  V30 9099 H 849.459 0.202419 -3.91577 0
M  V30 9100 H 850.949 1.18872 -4.00324 0
M  V30 9101 N 851.386 1.48609 -0.524698 0
M  V30 9102 C 852.611 2.07398 0.00952139 0
M  V30 9103 C 853.036 1.37939 1.27884 0
M  V30 9104 O 852.394 0.443633 1.75788 0
M  V30 9105 C 852.442 3.59916 0.221956 0
M  V30 9106 O 851.546 3.91647 1.29175 0
M  V30 9107 H 850.887 0.662981 -0.0367729 0
M  V30 9108 H 853.417 1.91092 -0.7311 0
M  V30 9109 H 853.427 4.05552 0.446236 0
M  V30 9110 H 852.102 4.09876 -0.705306 0
M  V30 9111 H 850.679 3.57796 1.05055 0
M  V30 9112 N 852.864 0.259585 1.55447 0
M  V30 9113 C 854.141 -0.412595 1.91199 0
M  V30 9114 C 854.521 -1.74909 1.18194 0
M  V30 9115 O 853.869 -2.26474 0.303603 0
M  V30 9116 C 854.079 -0.568195 3.44344 0
M  V30 9117 C 855.427 -0.858253 4.15836 0
M  V30 9118 O 856.451 -0.653588 3.50152 0
M  V30 9119 O 855.31 -1.24874 5.32042 0
M  V30 9120 H 852.404 -0.223403 0.796254 0
M  V30 9121 H 854.95 0.30459 1.66944 0
M  V30 9122 H 853.722 0.372989 3.89518 0
M  V30 9123 H 853.345 -1.33544 3.74502 0
M  V30 9124 N 854.342 -1.57594 -0.0133615 0
M  V30 9125 C 855.588 -1.90262 -0.702019 0
M  V30 9126 C 855.921 -0.859219 -1.74158 0
M  V30 9127 O 855.196 0.123778 -1.94106 0
M  V30 9128 C 855.479 -3.3354 -1.35732 0
M  V30 9129 C 855.332 -4.48586 -0.330208 0
M  V30 9130 C 856.651 -3.76004 -2.28712 0
M  V30 9131 H 853.77 -0.691943 -0.253739 0
M  V30 9132 H 856.412 -1.89967 0.0351894 0
M  V30 9133 H 854.562 -3.33921 -1.98567 0
M  V30 9134 H 856.234 -4.6034 0.297433 0
M  V30 9135 H 854.477 -4.32394 0.348926 0
M  V30 9136 H 855.148 -5.45762 -0.827508 0
M  V30 9137 H 857.624 -3.77089 -1.75906 0
M  V30 9138 H 856.5 -4.77032 -2.71535 0
M  V30 9139 H 856.761 -3.09129 -3.16056 0
M  V30 9140 N 855.82 0.285905 -1.54985 0
M  V30 9141 C 857.068 1.01718 -1.74636 0
M  V30 9142 C 857.389 1.87277 -0.543342 0
M  V30 9143 O 856.659 1.90847 0.442078 0
M  V30 9144 H 855.239 0.378549 -0.643979 0
M  V30 9145 H 857.901 0.313247 -1.92366 0
M  V30 9146 H 856.997 1.66159 -2.64192 0
M  V30 9147 N 857.298 1.47698 0.54982 0
M  V30 9148 C 858.523 1.58579 1.33669 0
M  V30 9149 C 858.948 0.239049 1.86575 0
M  V30 9150 O 858.306 -0.786256 1.63364 0
M  V30 9151 C 858.354 2.62029 2.47736 0
M  V30 9152 O 857.458 2.17813 3.50188 0
M  V30 9153 H 856.799 0.532447 0.396732 0
M  V30 9154 H 859.329 1.93536 0.6637 0
M  V30 9155 H 859.339 2.82682 2.94202 0
M  V30 9156 H 858.014 3.59812 2.08586 0
M  V30 9157 H 856.591 2.07291 3.09976 0
M  V30 9158 N 858.776 -0.797141 1.35954 0
M  V30 9159 C 860.025 -1.54983 1.29086 0
M  V30 9160 C 860.338 -1.95167 -0.130003 0
M  V30 9161 O 861.544 -2.69596 -0.32101 0
M  V30 9162 C 860 -2.79738 2.26439 0
M  V30 9163 C 859.608 -2.46753 3.73921 0
M  V30 9164 C 861.352 -3.57733 2.28533 0
M  V30 9165 C 859.259 -3.67858 4.63071 0
M  V30 9166 H 858.189 -0.581766 0.479651 0
M  V30 9167 H 860.84 -0.87541 1.61273 0
M  V30 9168 H 859.222 -3.48939 1.87236 0
M  V30 9169 H 860.396 -1.85499 4.21814 0
M  V30 9170 H 858.711 -1.81985 3.74527 0
M  V30 9171 H 861.308 -4.47699 2.92351 0
M  V30 9172 H 861.651 -3.95754 1.29169 0
M  V30 9173 H 862.184 -2.95504 2.66313 0
M  V30 9174 H 858.923 -3.34939 5.63468 0
M  V30 9175 H 858.443 -4.28305 4.19898 0
M  V30 9176 H 860.122 -4.34977 4.78961 0
M  V30 9177 N 860.254 -1.20106 -1.0204 0
M  V30 9178 C 861.482 -1.0344 -1.79186 0
M  V30 9179 C 861.897 0.416542 -1.84148 0
M  V30 9180 O 861.254 1.28925 -1.29168 0
M  V30 9181 C 861.305 -1.60663 -3.23836 0
M  V30 9182 O 861.026 -3.00079 -3.19193 0
M  V30 9183 C 862.527 -1.48897 -4.17546 0
M  V30 9184 H 859.747 -0.364093 -0.563629 0
M  V30 9185 H 862.291 -1.5911 -1.28469 0
M  V30 9186 H 860.446 -1.09122 -3.71714 0
M  V30 9187 H 860.86 -3.27162 -4.09958 0
M  V30 9188 H 862.334 -1.93703 -5.16898 0
M  V30 9189 H 862.811 -0.440843 -4.36982 0
M  V30 9190 H 863.417 -1.9961 -3.75547 0
M  V30 9191 N 861.732 1.21287 -1.00634 0
M  V30 9192 C 862.662 2.25973 -0.588089 0
M  V30 9193 C 863.643 1.65527 0.391764 0
M  V30 9194 O 864.828 1.92179 0.279452 0
M  V30 9195 C 861.958 3.47197 0.0847336 0
M  V30 9196 C 860.912 4.20168 -0.815039 0
M  V30 9197 C 860.238 5.34699 -0.00855393 0
M  V30 9198 C 861.538 4.77416 -2.11828 0
M  V30 9199 H 863.232 2.61212 -1.46317 0
M  V30 9200 H 860.778 1.25563 -0.704985 0
M  V30 9201 H 862.731 4.19602 0.388821 0
M  V30 9202 H 861.455 3.11092 0.994456 0
M  V30 9203 H 860.114 3.49614 -1.10297 0
M  V30 9204 H 859.762 4.94837 0.902499 0
M  V30 9205 H 859.462 5.84449 -0.607664 0
M  V30 9206 H 860.986 6.09914 0.289317 0
M  V30 9207 H 862.4 5.41694 -1.87725 0
M  V30 9208 H 860.797 5.37561 -2.66736 0
M  V30 9209 H 861.867 3.96724 -2.78816 0
M  V30 9210 N 863.21 0.781244 1.36873 0
M  V30 9211 C 864.173 0.180094 2.28491 0
M  V30 9212 C 865.173 -0.617798 1.48458 0
M  V30 9213 O 866.363 -0.439991 1.68552 0
M  V30 9214 C 863.495 -0.751741 3.32508 0
M  V30 9215 H 864.688 0.987837 2.83164 0
M  V30 9216 H 862.241 0.550102 1.463 0
M  V30 9217 H 862.976 -1.58413 2.82977 0
M  V30 9218 H 862.761 -0.181649 3.91679 0
M  V30 9219 H 864.251 -1.16748 4.00949 0
M  V30 9220 N 864.689 -1.48329 0.532571 0
M  V30 9221 C 865.619 -2.32485 -0.217511 0
M  V30 9222 C 866.6 -1.42255 -0.932598 0
M  V30 9223 O 867.785 -1.7114 -0.917873 0
M  V30 9224 C 864.915 -3.23509 -1.26329 0
M  V30 9225 C 863.869 -4.22784 -0.666191 0
M  V30 9226 C 863.195 -5.0296 -1.81482 0
M  V30 9227 C 864.495 -5.21031 0.363813 0
M  V30 9228 H 866.189 -2.95445 0.485014 0
M  V30 9229 H 863.735 -1.42075 0.234694 0
M  V30 9230 H 865.688 -3.81211 -1.79601 0
M  V30 9231 H 864.412 -2.58554 -1.99543 0
M  V30 9232 H 863.071 -3.66272 -0.15498 0
M  V30 9233 H 862.719 -4.34427 -2.5354 0
M  V30 9234 H 862.419 -5.70154 -1.4212 0
M  V30 9235 H 863.943 -5.63514 -2.35126 0
M  V30 9236 H 865.357 -5.73241 -0.0819079 0
M  V30 9237 H 863.754 -5.96292 0.674956 0
M  V30 9238 H 864.824 -4.6801 1.26865 0
M  V30 9239 N 866.167 -0.267825 -1.55308 0
M  V30 9240 C 867.583 0.0865107 -1.59365 0
M  V30 9241 C 867.783 1.55205 -1.28505 0
M  V30 9242 O 866.839 2.29978 -1.04241 0
M  V30 9243 C 868.152 -0.28155 -2.99379 0
M  V30 9244 C 869.7 -0.227565 -3.12172 0
M  V30 9245 C 870.175 -0.569959 -4.5444 0
M  V30 9246 N 871.666 -0.521238 -4.60258 0
M  V30 9247 C 872.401 -0.759061 -5.68354 0
M  V30 9248 N 871.897 -1.06112 -6.84626 0
M  V30 9249 N 873.69 -0.688351 -5.57869 0
M  V30 9250 H 865.841 -1.22332 -1.73633 0
M  V30 9251 H 868.104 -0.493703 -0.809297 0
M  V30 9252 H 867.81 -1.3005 -3.26772 0
M  V30 9253 H 867.684 0.381192 -3.75269 0
M  V30 9254 H 870.071 0.782093 -2.84548 0
M  V30 9255 H 870.152 -0.924461 -2.38511 0
M  V30 9256 H 869.796 -1.57727 -4.82788 0
M  V30 9257 H 869.726 0.148646 -5.2639 0
M  V30 9258 H 872.217 -0.297359 -3.76728 0
M  V30 9259 H 872.53 -1.22945 -7.62958 0
M  V30 9260 H 870.875 -1.09881 -6.86259 0
M  V30 9261 H 874.066 -0.452268 -4.6591 0
M  V30 9262 H 874.239 -0.877081 -6.42037 0
M  V30 9263 N 867.645 1.57599 0.00500368 0
M  V30 9264 C 868.873 1.94626 0.702016 0
M  V30 9265 C 869.288 0.86953 1.67585 0
M  V30 9266 O 868.645 -0.15199 1.81866 0
M  V30 9267 C 868.696 3.31658 1.43824 0
M  V30 9268 O 868.417 4.35197 0.503467 0
M  V30 9269 C 869.918 3.83114 2.23021 0
M  V30 9270 H 867.138 0.641785 0.195841 0
M  V30 9271 H 869.682 2.04451 -0.0446287 0
M  V30 9272 H 867.837 3.23156 2.13655 0
M  V30 9273 H 868.251 5.1444 1.02235 0
M  V30 9274 H 869.725 4.81438 2.7004 0
M  V30 9275 H 870.202 3.15559 3.05482 0
M  V30 9276 H 870.808 3.94775 1.58216 0
M  V30 9277 N 869.123 -0.277682 1.55134 0
M  V30 9278 C 870.053 -1.34742 1.90701 0
M  V30 9279 C 871.034 -1.51757 0.768354 0
M  V30 9280 O 872.219 -1.64879 1.02609 0
M  V30 9281 C 869.349 -2.70775 2.17481 0
M  V30 9282 C 868.303 -2.68497 3.33307 0
M  V30 9283 C 867.629 -4.08037 3.45557 0
M  V30 9284 C 868.929 -2.28178 4.69821 0
M  V30 9285 H 870.623 -1.05224 2.803 0
M  V30 9286 H 868.169 -0.504738 1.34864 0
M  V30 9287 H 870.122 -3.45719 2.40949 0
M  V30 9288 H 868.846 -3.01867 1.24676 0
M  V30 9289 H 867.505 -1.9601 3.09799 0
M  V30 9290 H 867.153 -4.36344 2.50226 0
M  V30 9291 H 866.853 -4.07409 4.23429 0
M  V30 9292 H 868.377 -4.84726 3.71312 0
M  V30 9293 H 869.791 -2.92843 4.92865 0
M  V30 9294 H 868.188 -2.3872 5.50575 0
M  V30 9295 H 869.258 -1.23308 4.6896 0
M  V30 9296 N 870.601 -1.47988 -0.541979 0
M  V30 9297 C 871.849 -1.55086 -1.29587 0
M  V30 9298 C 872.17 -0.221304 -1.9374 0
M  V30 9299 O 871.44 0.756128 -1.80719 0
M  V30 9300 H 870.02 -0.571307 -0.481266 0
M  V30 9301 H 872.682 -1.8438 -0.631675 0
M  V30 9302 H 871.778 -2.32556 -2.08144 0
M  V30 9303 N 872.079 0.78992 -1.36375 0
M  V30 9304 C 873.304 1.58389 -1.33895 0
M  V30 9305 C 873.729 1.8794 0.0774934 0
M  V30 9306 O 873.087 1.4785 1.0493 0
M  V30 9307 C 873.135 2.88201 -2.16732 0
M  V30 9308 O 872.239 3.81778 -1.55946 0
M  V30 9309 H 871.58 0.480471 -0.458305 0
M  V30 9310 H 874.11 0.979119 -1.79651 0
M  V30 9311 H 874.12 3.37475 -2.29292 0
M  V30 9312 H 872.795 2.66019 -3.19698 0
M  V30 9313 H 871.372 3.40371 -1.52323 0
M  V30 9314 N 873.557 1.20646 1.01402 0
M  V30 9315 C 874.804 1.01819 1.7504 0
M  V30 9316 C 875.132 -0.449386 1.89237 0
M  V30 9317 O 874.387 -1.34985 1.41695 0
M  V30 9318 C 874.686 1.64991 3.17037 0
M  V30 9319 C 874.352 3.14808 3.22811 0
M  V30 9320 C 873.014 3.55692 3.24094 0
M  V30 9321 C 875.366 4.108 3.2077 0
M  V30 9322 C 872.694 4.9109 3.2101 0
M  V30 9323 C 875.046 5.46147 3.19227 0
M  V30 9324 C 873.71 5.86441 3.18815 0
M  V30 9325 H 872.98 0.372582 0.640518 0
M  V30 9326 H 875.627 1.50108 1.18911 0
M  V30 9327 H 873.932 1.08971 3.76341 0
M  V30 9328 H 875.629 1.47937 3.72714 0
M  V30 9329 H 872.219 2.8224 3.2255 0
M  V30 9330 H 876.403 3.80246 3.18946 0
M  V30 9331 H 871.659 5.21569 3.19023 0
M  V30 9332 H 875.833 6.20272 3.166 0
M  V30 9333 H 873.46 6.91328 3.16179 0
M  V30 9334 N 875.035 -1.20752 1.01276 0
M  V30 9335 C 875.945 -2.27079 0.589277 0
M  V30 9336 C 876.961 -1.6999 -0.371389 0
M  V30 9337 O 878.137 -2.00044 -0.233294 0
M  V30 9338 C 875.202 -3.4663 -0.0696715 0
M  V30 9339 C 874.263 -4.18962 0.936454 0
M  V30 9340 C 873.496 -5.32806 0.308856 0
M  V30 9341 O 873.719 -5.63376 -0.8924 0
M  V30 9342 O 872.653 -5.93131 1.02367 0
M  V30 9343 H 876.479 -2.6551 1.47438 0
M  V30 9344 H 874.064 -1.27297 0.782045 0
M  V30 9345 H 875.946 -4.19119 -0.437873 0
M  V30 9346 H 874.621 -3.10082 -0.929029 0
M  V30 9347 H 873.528 -3.48661 1.35595 0
M  V30 9348 H 874.861 -4.59441 1.76565 0
M  V30 9349 N 876.513 -0.788492 -1.36457 0
M  V30 9350 C 877.76 -0.360461 -1.99266 0
M  V30 9351 C 878.088 1.0676 -1.62581 0
M  V30 9352 O 877.343 1.75205 -0.871884 0
M  V30 9353 C 877.642 -0.470255 -3.54293 0
M  V30 9354 C 877.308 -1.85899 -4.10795 0
M  V30 9355 C 875.97 -2.23896 -4.25939 0
M  V30 9356 C 878.322 -2.76836 -4.41601 0
M  V30 9357 C 875.65 -3.52235 -4.69199 0
M  V30 9358 C 878.002 -4.04602 -4.86292 0
M  V30 9359 C 876.666 -4.42623 -4.99641 0
M  V30 9360 H 875.936 -0.131902 -0.729166 0
M  V30 9361 H 878.583 -1.00577 -1.62962 0
M  V30 9362 H 876.888 0.258559 -3.90946 0
M  V30 9363 H 878.585 -0.120119 -4.0082 0
M  V30 9364 H 875.175 -1.55372 -3.99447 0
M  V30 9365 H 879.359 -2.48735 -4.2947 0
M  V30 9366 H 874.615 -3.81565 -4.77722 0
M  V30 9367 H 878.789 -4.75182 -5.09092 0
M  V30 9368 H 876.416 -5.42125 -5.32921 0
M  V30 9369 N 877.991 1.48044 -0.54043 0
M  V30 9370 C 878.901 2.33565 0.220163 0
M  V30 9371 C 879.917 1.47146 0.928659 0
M  V30 9372 O 881.093 1.80107 0.901295 0
M  V30 9373 C 878.158 3.2349 1.2472 0
M  V30 9374 C 877.219 4.25789 0.547938 0
M  V30 9375 C 876.452 5.11417 1.52605 0
M  V30 9376 O 876.675 4.99204 2.75956 0
M  V30 9377 O 875.609 5.92498 1.05972 0
M  V30 9378 H 879.435 2.99868 -0.480898 0
M  V30 9379 H 877.02 1.46332 -0.301226 0
M  V30 9380 H 878.902 3.79084 1.84047 0
M  V30 9381 H 877.577 2.59835 1.93048 0
M  V30 9382 H 876.484 3.74001 -0.0860941 0
M  V30 9383 H 877.817 4.92111 -0.0935896 0
M  V30 9384 N 879.47 0.276058 1.55163 0
M  V30 9385 C 880.718 -0.339782 1.99223 0
M  V30 9386 C 881.039 -1.56307 1.16589 0
M  V30 9387 O 880.309 -1.94225 0.25564 0
M  V30 9388 H 878.889 -0.128534 0.735859 0
M  V30 9389 H 881.551 0.381612 1.91128 0
M  V30 9390 H 880.647 -0.629 3.05696 0
M  V30 9391 N 880.948 -1.576 0.00335426 0
M  V30 9392 C 881.898 -2.05116 -0.995562 0
M  V30 9393 C 882.882 -0.946535 -1.30113 0
M  V30 9394 O 884.074 -1.21028 -1.29156 0
M  V30 9395 C 881.203 -2.56077 -2.28648 0
M  V30 9396 C 880.289 -3.73422 -2.0104 0
M  V30 9397 N 880.68 -4.84986 -1.43603 0
M  V30 9398 C 878.978 -3.81416 -2.31166 0
M  V30 9399 C 879.679 -5.66399 -1.32542 0
M  V30 9400 N 878.655 -5.12505 -1.81218 0
M  V30 9401 H 882.457 -2.88783 -0.546025 0
M  V30 9402 H 879.971 -1.61135 -0.202265 0
M  V30 9403 H 881.968 -2.88395 -3.01055 0
M  V30 9404 H 880.628 -1.73829 -2.74251 0
M  V30 9405 H 881.639 -5.05768 -1.11439 0
M  V30 9406 H 878.316 -3.1003 -2.7962 0
M  V30 9407 H 879.706 -6.66066 -0.88348 0
M  V30 9408 N 882.426 0.269451 -1.5528 0
M  V30 9409 C 883.651 1.02299 -1.80415 0
M  V30 9410 C 884.076 1.7902 -0.577363 0
M  V30 9411 O 883.434 1.75018 0.473125 0
M  V30 9412 C 883.482 1.95445 -3.0304 0
M  V30 9413 O 882.586 3.04271 -2.78375 0
M  V30 9414 H 881.927 0.292289 -0.596207 0
M  V30 9415 H 884.457 0.297282 -2.02429 0
M  V30 9416 H 884.467 2.37333 -3.31869 0
M  V30 9417 H 883.142 1.39017 -3.91978 0
M  V30 9418 H 881.719 2.66673 -2.60653 0
M  V30 9419 N 883.904 1.48273 0.534124 0
M  V30 9420 C 884.834 1.6538 1.64839 0
M  V30 9421 C 885.815 0.502741 1.62501 0
M  V30 9422 O 887 0.734799 1.79762 0
M  V30 9423 C 884.13 1.68949 3.03436 0
M  V30 9424 C 883.084 2.83513 3.20631 0
M  V30 9425 C 882.41 2.72169 4.60248 0
M  V30 9426 C 883.71 4.24858 3.03797 0
M  V30 9427 H 885.404 2.58663 1.50777 0
M  V30 9428 H 882.95 1.24479 0.723937 0
M  V30 9429 H 884.903 1.79505 3.81256 0
M  V30 9430 H 883.627 0.722415 3.1851 0
M  V30 9431 H 882.286 2.72505 2.45227 0
M  V30 9432 H 881.934 1.7344 4.72152 0
M  V30 9433 H 881.634 3.49042 4.72698 0
M  V30 9434 H 883.158 2.84687 5.40172 0
M  V30 9435 H 884.572 4.36721 3.71413 0
M  V30 9436 H 882.969 5.02697 3.27743 0
M  V30 9437 H 884.039 4.41611 2.0027 0
M  V30 9438 N 885.382 -0.782676 1.36792 0
M  V30 9439 C 886.61 -1.57162 1.34565 0
M  V30 9440 C 887.025 -1.88664 -0.0715501 0
M  V30 9441 O 886.382 -1.50633 -1.03033 0
M  V30 9442 C 886.433 -2.88854 2.1736 0
M  V30 9443 O 886.154 -2.58707 3.53557 0
M  V30 9444 C 887.655 -3.83132 2.2299 0
M  V30 9445 H 884.875 -0.487245 0.461338 0
M  V30 9446 H 887.419 -0.970905 1.79982 0
M  V30 9447 H 885.574 -3.45377 1.7548 0
M  V30 9448 H 885.988 -3.42961 3.96835 0
M  V30 9449 H 887.462 -4.72575 2.85266 0
M  V30 9450 H 887.939 -4.21472 1.23524 0
M  V30 9451 H 888.545 -3.32541 2.65135 0
M  V30 9452 N 886.86 -1.21182 -1.00761 0
M  V30 9453 C 887.792 -0.926523 -2.09638 0
M  V30 9454 C 888.805 0.0892511 -1.62555 0
M  V30 9455 O 889.994 -0.142915 -1.77927 0
M  V30 9456 C 887.094 -0.369175 -3.36883 0
M  V30 9457 C 886.267 -1.43866 -4.13063 0
M  V30 9458 C 885.326 -0.891015 -5.18601 0
M  V30 9459 O 884.352 -1.57384 -5.47009 0
M  V30 9460 N 885.554 0.295057 -5.7975 0
M  V30 9461 H 888.319 -1.8638 -2.34697 0
M  V30 9462 H 885.88 -1.11671 -1.17223 0
M  V30 9463 H 887.872 0.011534 -4.04698 0
M  V30 9464 H 886.442 0.472861 -3.09003 0
M  V30 9465 H 885.662 -1.99332 -3.40089 0
M  V30 9466 H 886.95 -2.15866 -4.60738 0
M  V30 9467 H 886.348 0.8669 -5.59018 0
M  V30 9468 H 884.905 0.617306 -6.4887 0
M  V30 9469 N 888.338 1.20213 -1.01915 0
M  V30 9470 C 889.585 1.89647 -0.709955 0
M  V30 9471 C 889.913 1.7901 0.760631 0
M  V30 9472 O 889.168 1.17028 1.56853 0
M  V30 9473 C 889.467 3.40232 -1.09438 0
M  V30 9474 C 889.133 3.7107 -2.5616 0
M  V30 9475 C 887.795 3.79196 -2.96249 0
M  V30 9476 C 890.147 3.85169 -3.51133 0
M  V30 9477 C 887.475 3.98882 -4.30244 0
M  V30 9478 C 889.827 4.06365 -4.8482 0
M  V30 9479 C 888.491 4.12722 -5.24611 0
M  V30 9480 H 887.761 0.693967 -0.259791 0
M  V30 9481 H 890.408 1.42419 -1.2802 0
M  V30 9482 H 888.713 3.89292 -0.442596 0
M  V30 9483 H 890.41 3.92257 -0.832811 0
M  V30 9484 H 887 3.65346 -2.24099 0
M  V30 9485 H 891.184 3.78243 -3.21319 0
M  V30 9486 H 886.44 4.02039 -4.60624 0
M  V30 9487 H 890.614 4.16216 -5.58334 0
M  V30 9488 H 888.241 4.27728 -6.28453 0
M  V30 9489 N 889.816 0.795718 1.36037 0
M  V30 9490 C 891.062 0.371574 1.99367 0
M  V30 9491 C 891.395 -1.0557 1.62999 0
M  V30 9492 O 890.67 -1.73051 0.887895 0
M  V30 9493 C 890.953 0.542622 3.55988 0
M  V30 9494 C 890.806 2.01404 4.0219 0
M  V30 9495 C 892.125 -0.0384527 4.40083 0
M  V30 9496 H 889.244 0.136483 0.724252 0
M  V30 9497 H 891.886 1.00323 1.61355 0
M  V30 9498 H 890.036 0.0049053 3.885 0
M  V30 9499 H 891.708 2.6133 3.80137 0
M  V30 9500 H 889.951 2.51439 3.53498 0
M  V30 9501 H 890.622 2.08466 5.11122 0
M  V30 9502 H 893.098 0.420634 4.13968 0
M  V30 9503 H 891.974 0.111214 5.48787 0
M  V30 9504 H 892.235 -1.13116 4.27384 0
M  V30 9505 N 891.294 -1.47756 0.548274 0
M  V30 9506 C 892.71 -1.58247 0.207401 0
M  V30 9507 C 892.91 -1.54804 -1.28988 0
M  V30 9508 O 891.966 -1.44673 -2.06944 0
M  V30 9509 C 893.279 -2.89129 0.826142 0
M  V30 9510 C 894.827 -3.02695 0.79655 0
M  V30 9511 C 895.302 -4.36264 1.3942 0
M  V30 9512 N 896.793 -4.42877 1.35698 0
M  V30 9513 C 897.528 -5.44773 1.78913 0
M  V30 9514 N 897.024 -6.53528 2.29942 0
M  V30 9515 N 898.817 -5.35765 1.70038 0
M  V30 9516 H 890.968 -1.48236 1.52117 0
M  V30 9517 H 893.231 -0.704957 0.633829 0
M  V30 9518 H 892.937 -2.97358 1.87806 0
M  V30 9519 H 892.811 -3.75891 0.313916 0
M  V30 9520 H 895.198 -2.94067 -0.246655 0
M  V30 9521 H 895.279 -2.17496 1.34644 0
M  V30 9522 H 894.923 -4.45646 2.43642 0
M  V30 9523 H 894.853 -5.20179 0.819827 0
M  V30 9524 H 897.344 -3.64874 0.983623 0
M  V30 9525 H 897.657 -7.27441 2.60863 0
M  V30 9526 H 896.002 -6.54442 2.33947 0
M  V30 9527 H 899.193 -4.49699 1.29955 0
M  V30 9528 H 899.366 -6.1504 2.04035 0
M  V30 9529 N 892.772 -0.284283 -1.55015 0
M  V30 9530 C 893.722 0.613913 -2.19579 0
M  V30 9531 C 894.706 1.11153 -1.16335 0
M  V30 9532 O 895.898 1.05508 -1.42116 0
M  V30 9533 C 893.027 1.79329 -2.92739 0
M  V30 9534 C 892.113 1.31242 -4.03282 0
M  V30 9535 N 892.504 0.548344 -5.02819 0
M  V30 9536 C 890.802 1.5946 -4.1652 0
M  V30 9537 C 891.503 0.294358 -5.80955 0
M  V30 9538 N 890.479 0.869406 -5.36603 0
M  V30 9539 H 894.281 0.0224088 -2.93891 0
M  V30 9540 H 891.795 -0.0882619 -1.6216 0
M  V30 9541 H 893.792 2.44814 -3.37449 0
M  V30 9542 H 892.452 2.38865 -2.1994 0
M  V30 9543 H 893.463 0.194812 -5.17533 0
M  V30 9544 H 890.14 2.19866 -3.54916 0
M  V30 9545 H 891.53 -0.318195 -6.71146 0
M  V30 9546 N 894.251 1.57596 -0.0117121 0
M  V30 9547 C 895.491 1.92932 0.675031 0
M  V30 9548 C 895.855 0.887004 1.70283 0
M  V30 9549 O 897.056 1.12599 2.4408 0
M  V30 9550 C 895.327 3.3327 1.29098 0
M  V30 9551 S 896.886 3.90509 2.00121 0
M  V30 9552 H 893.704 0.675226 0.22269 0
M  V30 9553 H 896.306 1.9537 -0.071208 0
M  V30 9554 H 895.01 4.0696 0.530262 0
M  V30 9555 H 894.541 3.34233 2.0749 0
M  V30 9556 H 896.556 3.72532 3.27771 0
M  V30 9557 N 895.729 -0.261212 1.5542 0
M  V30 9558 C 896.692 -1.30645 1.8832 0
M  V30 9559 C 897.692 -1.41782 0.758588 0
M  V30 9560 O 898.882 -1.40729 1.02669 0
M  V30 9561 C 896.014 -2.6862 2.09895 0
M  V30 9562 H 897.207 -1.02698 2.81768 0
M  V30 9563 H 894.76 -0.499838 1.48092 0
M  V30 9564 H 895.495 -3.0173 1.18868 0
M  V30 9565 H 895.28 -2.61921 2.91787 0
M  V30 9566 H 896.77 -3.44121 2.36581 0
M  V30 9567 N 897.207 -1.48554 -0.526253 0
M  V30 9568 C 898.484 -1.47252 -1.28748 0
M  V30 9569 C 898.864 -0.186245 -2.10277 0
M  V30 9570 O 898.212 0.831954 -2.12816 0
M  V30 9571 C 898.422 -2.73672 -2.16575 0
M  V30 9572 C 899.77 -3.22151 -2.76593 0
M  V30 9573 O 900.794 -2.74614 -2.2686 0
M  V30 9574 O 899.653 -4.04877 -3.67066 0
M  V30 9575 H 896.747 -0.588242 -0.581292 0
M  V30 9576 H 899.293 -1.60792 -0.5426 0
M  V30 9577 H 898.065 -3.58798 -1.56139 0
M  V30 9578 H 897.688 -2.6287 -2.98304 0
M  V30 9579 N 898.685 0.775411 -1.37205 0
M  V30 9580 C 899.635 1.87867 -1.29189 0
M  V30 9581 C 900.619 1.59885 -0.180466 0
M  V30 9582 O 901.811 1.72077 -0.414536 0
M  V30 9583 C 898.94 3.25285 -1.09748 0
M  V30 9584 C 898.026 3.59231 -2.25419 0
M  V30 9585 N 898.417 3.64386 -3.50795 0
M  V30 9586 C 896.715 3.89375 -2.17492 0
M  V30 9587 C 897.416 3.94974 -4.27048 0
M  V30 9588 N 896.392 4.10684 -3.56146 0
M  V30 9589 H 900.194 1.90099 -2.24142 0
M  V30 9590 H 897.708 0.971667 -1.30125 0
M  V30 9591 H 899.705 4.04207 -1.02091 0
M  V30 9592 H 898.365 3.2432 -0.157083 0
M  V30 9593 H 899.376 3.46682 -3.8475 0
M  V30 9594 H 896.053 3.96254 -1.31489 0
M  V30 9595 H 897.443 4.05768 -5.35539 0
M  V30 9596 N 900.163 1.21714 1.00117 0
M  V30 9597 C 901.41 1.0367 1.73951 0
M  V30 9598 C 901.738 -0.429289 1.89703 0
M  V30 9599 O 900.993 -1.33475 1.43119 0
M  V30 9600 C 901.292 1.68345 3.15269 0
M  V30 9601 C 900.958 3.18214 3.19454 0
M  V30 9602 C 899.62 3.59109 3.20303 0
M  V30 9603 C 901.972 4.14179 3.16394 0
M  V30 9604 C 899.3 4.94467 3.15783 0
M  V30 9605 C 901.652 5.49502 3.13416 0
M  V30 9606 C 900.316 5.8979 3.12577 0
M  V30 9607 H 899.586 0.379355 0.63653 0
M  V30 9608 H 902.233 1.51361 1.17312 0
M  V30 9609 H 900.538 1.12957 3.75164 0
M  V30 9610 H 902.235 1.51882 3.71124 0
M  V30 9611 H 898.825 2.85646 3.19538 0
M  V30 9612 H 903.009 3.83607 3.14895 0
M  V30 9613 H 898.265 5.24923 3.13473 0
M  V30 9614 H 902.439 6.23595 3.10003 0
M  V30 9615 H 900.066 6.94643 3.08829 0
M  V30 9616 N 901.641 -1.19671 1.02551 0
M  V30 9617 C 902.571 -2.25009 0.623965 0
M  V30 9618 C 903.552 -1.66129 -0.36538 0
M  V30 9619 O 904.737 -1.92599 -0.248842 0
M  V30 9620 C 901.867 -3.47287 -0.0294869 0
M  V30 9621 C 900.821 -4.18818 0.881781 0
M  V30 9622 C 900.147 -5.34618 0.0936189 0
M  V30 9623 C 901.447 -4.73986 2.19396 0
M  V30 9624 H 903.141 -2.58851 1.50454 0
M  V30 9625 H 900.687 -1.24425 0.724872 0
M  V30 9626 H 902.64 -4.20168 -0.322016 0
M  V30 9627 H 901.364 -3.12635 -0.944838 0
M  V30 9628 H 900.023 -3.47815 1.15845 0
M  V30 9629 H 899.671 -4.9621 -0.823661 0
M  V30 9630 H 899.371 -5.83409 0.700568 0
M  V30 9631 H 900.895 -6.10297 -0.192249 0
M  V30 9632 H 902.309 -5.38639 1.96319 0
M  V30 9633 H 900.706 -5.3325 2.75254 0
M  V30 9634 H 901.776 -3.92238 2.85092 0
M  V30 9635 N 903.119 -0.802921 -1.35613 0
M  V30 9636 C 904.067 -0.198783 -2.31749 0
M  V30 9637 C 905.061 0.649416 -1.56458 0
M  V30 9638 O 906.267 0.542989 -1.71615 0
M  V30 9639 H 902.642 -0.0455177 -0.750621 0
M  V30 9640 H 904.613 -1.02479 -2.80251 0
M  V30 9641 C 903.362 0.641066 -3.41739 0
M  V30 9642 H 902.685 -0.00226244 -3.998 0
M  V30 9643 H 904.125 1.03022 -4.11294 0
M  V30 9644 C 902.584 1.80505 -2.84464 0
M  V30 9645 O 903.114 2.90235 -2.77717 0
M  V30 9646 N 901.32 1.61542 -2.41563 0
M  V30 9647 H 900.867 0.722863 -2.4725 0
M  V30 9648 H 900.825 2.39581 -2.03589 0
M  V30 9649 N 904.597 1.47463 -0.556102 0
M  V30 9650 C 905.822 2.07371 -0.0344729 0
M  V30 9651 C 906.247 1.40621 1.2493 0
M  V30 9652 O 905.605 0.48082 1.74808 0
M  V30 9653 C 905.653 3.60306 0.145563 0
M  V30 9654 O 904.757 3.94299 1.20839 0
M  V30 9655 H 904.098 0.662052 -0.0508274 0
M  V30 9656 H 906.628 1.89498 -0.771469 0
M  V30 9657 H 906.638 4.06408 0.360112 0
M  V30 9658 H 905.313 4.08288 -0.792089 0
M  V30 9659 H 903.89 3.59944 0.97442 0
M  V30 9660 N 906.075 0.2925 1.54862 0
M  V30 9661 C 906.985 -0.597036 2.26876 0
M  V30 9662 C 908.001 -1.15558 1.30086 0
M  V30 9663 O 909.177 -1.18217 1.63054 0
M  V30 9664 C 906.242 -1.75664 2.98903 0
M  V30 9665 C 905.303 -1.23303 4.11212 0
M  V30 9666 C 904.536 -2.33736 4.79795 0
M  V30 9667 O 904.759 -3.53459 4.47686 0
M  V30 9668 O 903.693 -2.00908 5.67379 0
M  V30 9669 H 907.519 -0.0131242 3.03697 0
M  V30 9670 H 905.104 0.0592642 1.49282 0
M  V30 9671 H 906.986 -2.43241 3.4411 0
M  V30 9672 H 905.661 -2.32731 2.24984 0
M  V30 9673 H 904.568 -0.523222 3.70423 0
M  V30 9674 H 905.901 -0.707887 4.87083 0
M  V30 9675 N 907.553 -1.57587 0.0200696 0
M  V30 9676 C 908.503 -2.0616 -0.973751 0
M  V30 9677 C 909.487 -0.960282 -1.29102 0
M  V30 9678 O 910.679 -1.22391 -1.27865 0
M  V30 9679 C 907.808 -2.58487 -2.25919 0
M  V30 9680 C 906.894 -3.75533 -1.97068 0
M  V30 9681 N 907.285 -4.86482 -1.38451 0
M  V30 9682 C 905.583 -3.83847 -2.27107 0
M  V30 9683 C 906.284 -5.67773 -1.26527 0
M  V30 9684 N 905.26 -5.14398 -1.75772 0
M  V30 9685 H 909.062 -2.89346 -0.515365 0
M  V30 9686 H 906.576 -1.61341 -0.185163 0
M  V30 9687 H 908.573 -2.91572 -2.97979 0
M  V30 9688 H 907.233 -1.76728 -2.72392 0
M  V30 9689 H 908.244 -5.06922 -1.06069 0
M  V30 9690 H 904.921 -3.12978 -2.76316 0
M  V30 9691 H 906.311 -6.66966 -0.812785 0
M  V30 9692 N 909.032 0.252966 -1.55557 0
M  V30 9693 C 909.979 1.3131 -1.89806 0
M  V30 9694 C 910.949 1.48121 -0.751633 0
M  V30 9695 O 912.134 1.62202 -1.00474 0
M  V30 9696 C 909.274 2.66467 -2.19293 0
M  V30 9697 C 908.387 2.57714 -3.46709 0
M  V30 9698 C 907.522 3.85184 -3.65796 0
M  V30 9699 C 906.561 3.71023 -4.86835 0
M  V30 9700 N 905.698 4.90371 -5.02474 0
M  V30 9701 H 910.538 1.01402 -2.80217 0
M  V30 9702 H 908.075 0.489462 -1.38718 0
M  V30 9703 H 910.033 3.45132 -2.34392 0
M  V30 9704 H 908.663 2.94536 -1.32093 0
M  V30 9705 H 907.715 1.70651 -3.39974 0
M  V30 9706 H 909.027 2.43158 -4.35517 0
M  V30 9707 H 908.181 4.72292 -3.80822 0
M  V30 9708 H 906.92 4.0263 -2.7521 0
M  V30 9709 H 905.925 2.82299 -4.71792 0
M  V30 9710 H 907.15 3.55078 -5.78875 0
M  V30 9711 H 905.096 5.0819 -4.14824 0
M  V30 9712 H 905.013 4.78423 -5.85361 0
M  V30 9713 H 906.281 5.78995 -5.21905 0
M  V30 9714 N 910.51 1.48831 0.518367 0
M  V30 9715 C 911.42 1.6692 1.64848 0
M  V30 9716 C 912.436 0.551711 1.65022 0
M  V30 9717 O 913.612 0.824251 1.83761 0
M  V30 9718 C 910.677 1.71559 3.01278 0
M  V30 9719 C 909.738 2.9502 3.11868 0
M  V30 9720 C 908.971 2.99428 4.4179 0
M  V30 9721 O 909.194 2.11914 5.29574 0
M  V30 9722 O 908.128 3.91719 4.5699 0
M  V30 9723 H 911.954 2.62623 1.52521 0
M  V30 9724 H 909.539 1.32368 0.692749 0
M  V30 9725 H 911.421 1.77064 3.82396 0
M  V30 9726 H 910.096 0.790316 3.13904 0
M  V30 9727 H 909.003 2.95042 2.30003 0
M  V30 9728 H 910.336 3.8697 3.04163 0
M  V30 9729 N 911.988 -0.768124 1.37614 0
M  V30 9730 C 913.237 -1.5221 1.32345 0
M  V30 9731 C 913.55 -1.95399 -0.0885761 0
M  V30 9732 O 914.756 -2.70216 -0.263752 0
M  V30 9733 C 913.212 -2.74872 2.32322 0
M  V30 9734 C 912.82 -2.38767 3.79071 0
M  V30 9735 C 914.564 -3.52805 2.36069 0
M  V30 9736 C 912.471 -3.57953 4.7077 0
M  V30 9737 H 911.401 -0.571461 0.491883 0
M  V30 9738 H 914.052 -0.841004 1.63093 0
M  V30 9739 H 912.434 -3.44889 1.94596 0
M  V30 9740 H 913.608 -1.7651 4.25654 0
M  V30 9741 H 911.923 -1.74 3.78303 0
M  V30 9742 H 914.52 -4.41397 3.01782 0
M  V30 9743 H 914.863 -3.92925 1.37535 0
M  V30 9744 H 915.396 -2.89788 2.72521 0
M  V30 9745 H 912.135 -3.22911 5.70446 0
M  V30 9746 H 911.655 -4.19302 4.28889 0
M  V30 9747 H 913.334 -4.2472 4.8808 0
M  V30 9748 N 913.466 -1.22244 -0.994698 0
M  V30 9749 C 914.882 -0.982006 -1.25813 0
M  V30 9750 C 915.082 0.325488 -1.98854 0
M  V30 9751 O 914.138 1.04857 -2.29698 0
M  V30 9752 C 915.451 -2.1795 -2.07167 0
M  V30 9753 C 916.999 -2.22287 -2.20358 0
M  V30 9754 C 917.474 -3.41583 -3.05098 0
M  V30 9755 N 918.965 -3.41734 -3.12686 0
M  V30 9756 C 919.7 -4.30692 -3.78539 0
M  V30 9757 N 919.196 -5.29865 -4.46335 0
M  V30 9758 N 920.989 -4.18473 -3.75283 0
M  V30 9759 H 913.14 -2.0631 -0.504963 0
M  V30 9760 H 915.403 -0.90395 -0.285618 0
M  V30 9761 H 915.109 -3.12758 -1.60858 0
M  V30 9762 H 914.983 -2.17862 -3.07922 0
M  V30 9763 H 917.37 -1.28028 -2.65881 0
M  V30 9764 H 917.451 -2.26414 -1.19039 0
M  V30 9765 H 917.095 -4.36141 -2.60275 0
M  V30 9766 H 917.025 -3.34695 -4.06555 0
M  V30 9767 H 919.516 -2.69969 -2.64433 0
M  V30 9768 H 919.829 -5.94027 -4.9432 0
M  V30 9769 H 918.174 -5.3378 -4.45089 0
M  V30 9770 H 921.365 -3.40249 -3.21478 0
M  V30 9771 H 921.538 -4.88007 -4.26326 0
M  V30 9772 N 914.944 1.19125 -1.03184 0
M  V30 9773 C 915.877 2.21229 -0.559739 0
M  V30 9774 C 916.855 1.57578 0.400998 0
M  V30 9775 O 918.039 1.85809 0.317399 0
M  V30 9776 C 915.166 3.38203 0.183442 0
M  V30 9777 C 914.212 4.2022 -0.729182 0
M  V30 9778 S 915.045 4.87903 -2.20706 0
M  V30 9779 C 916.201 6.08284 -1.47448 0
M  V30 9780 H 916.434 2.60932 -1.42484 0
M  V30 9781 H 913.967 1.29419 -0.842028 0
M  V30 9782 H 915.925 4.06001 0.606084 0
M  V30 9783 H 914.586 2.96929 1.02432 0
M  V30 9784 H 913.779 5.03761 -0.155272 0
M  V30 9785 H 913.381 3.57755 -1.09028 0
M  V30 9786 H 915.673 6.73193 -0.762687 0
M  V30 9787 H 916.616 6.70165 -2.28659 0
M  V30 9788 H 917.024 5.56092 -0.97068 0
M  V30 9789 N 916.422 0.810101 1.35185 0
M  V30 9790 C 917.332 0.224565 2.33523 0
M  V30 9791 C 918.348 -0.634287 1.62027 0
M  V30 9792 O 919.524 -0.545211 1.9388 0
M  V30 9793 C 916.589 -0.614319 3.41214 0
M  V30 9794 C 915.65 0.265435 4.28479 0
M  V30 9795 C 914.883 -0.533506 5.31027 0
M  V30 9796 O 915.106 -1.7679 5.42311 0
M  V30 9797 O 914.04 0.0774573 6.0185 0
M  V30 9798 H 917.866 1.03815 2.85405 0
M  V30 9799 H 915.451 0.571964 1.38018 0
M  V30 9800 H 917.333 -1.09201 4.07005 0
M  V30 9801 H 916.008 -1.40545 2.91597 0
M  V30 9802 H 914.915 0.790343 3.65656 0
M  V30 9803 H 916.248 1.0206 4.81503 0
M  V30 9804 N 917.9 -1.47166 0.563914 0
M  V30 9805 C 918.863 -2.28571 -0.169624 0
M  V30 9806 C 919.863 -1.37331 -0.836467 0
M  V30 9807 O 921.053 -1.59896 -0.6913 0
M  V30 9808 C 918.185 -3.17201 -1.24886 0
M  V30 9809 H 919.378 -2.94896 0.545539 0
M  V30 9810 H 916.931 -1.52966 0.321121 0
M  V30 9811 H 917.666 -2.55582 -1.99621 0
M  V30 9812 H 917.451 -3.84356 -0.775426 0
M  V30 9813 H 918.941 -3.7852 -1.76388 0
M  V30 9814 N 919.378 -0.300708 -1.54705 0
M  V30 9815 C 920.341 0.562648 -2.22187 0
M  V30 9816 C 921.341 1.06152 -1.20782 0
M  V30 9817 O 922.531 0.957596 -1.45519 0
M  V30 9818 C 919.663 1.77899 -2.908 0
M  V30 9819 H 920.856 -0.0269361 -2.99888 0
M  V30 9820 H 918.409 -0.0515412 -1.56215 0
M  V30 9821 H 919.144 2.40841 -2.17177 0
M  V30 9822 H 918.929 1.42892 -3.65136 0
M  V30 9823 H 920.419 2.39236 -3.42281 0
M  V30 9824 N 920.856 1.57574 -0.0284266 0
M  V30 9825 C 922.272 1.56194 0.327958 0
M  V30 9826 C 922.472 1.03397 1.72949 0
M  V30 9827 O 921.528 0.680392 2.4316 0
M  V30 9828 C 922.841 3.00177 0.177196 0
M  V30 9829 C 924.389 3.12 0.250014 0
M  V30 9830 C 924.864 4.57821 0.128049 0
M  V30 9831 N 926.355 4.6283 0.185054 0
M  V30 9832 C 927.09 5.73286 0.114454 0
M  V30 9833 N 926.586 6.928 -0.00719225 0
M  V30 9834 N 928.379 5.61848 0.16839 0
M  V30 9835 H 920.53 1.90224 -0.944921 0
M  V30 9836 H 922.793 0.874987 -0.364832 0
M  V30 9837 H 922.499 3.42753 -0.788224 0
M  V30 9838 H 922.373 3.65101 0.94768 0
M  V30 9839 H 924.76 2.69337 1.20589 0
M  V30 9840 H 924.841 2.49799 -0.550835 0
M  V30 9841 H 924.485 5.01165 -0.824407 0
M  V30 9842 H 924.415 5.18001 0.947753 0
M  V30 9843 H 926.906 3.76867 0.279247 0
M  V30 9844 H 927.219 7.72781 -0.0543903 0
M  V30 9845 H 925.564 6.94987 -0.0419648 0
M  V30 9846 H 928.755 4.67367 0.261821 0
M  V30 9847 H 928.928 6.47907 0.109908 0
M  V30 9848 N 922.334 -0.244713 1.55689 0
M  V30 9849 C 923.562 -0.989944 1.8168 0
M  V30 9850 C 923.977 -1.78863 0.604449 0
M  V30 9851 O 923.334 -1.77437 -0.426907 0
M  V30 9852 C 923.385 -1.92607 3.05916 0
M  V30 9853 O 923.106 -1.1597 4.22472 0
M  V30 9854 C 924.607 -2.78711 3.44724 0
M  V30 9855 H 921.827 -0.2912 0.604519 0
M  V30 9856 H 924.371 -0.266938 2.0275 0
M  V30 9857 H 922.526 -2.60333 2.8689 0
M  V30 9858 H 922.94 -1.79311 4.92898 0
M  V30 9859 H 924.414 -3.40141 4.34751 0
M  V30 9860 H 924.891 -3.49935 2.6541 0
M  V30 9861 H 925.497 -2.16435 3.66109 0
M  V30 9862 N 923.813 -1.49104 -0.510467 0
M  V30 9863 C 925.053 -1.59723 -1.27545 0
M  V30 9864 C 925.417 -0.273525 -1.90042 0
M  V30 9865 O 926.618 -0.254835 -2.67589 0
M  V30 9866 C 924.889 -2.71771 -2.3211 0
M  V30 9867 S 926.448 -3.02282 -3.18074 0
M  V30 9868 H 923.266 -0.563489 -0.433591 0
M  V30 9869 H 925.868 -1.86719 -0.579328 0
M  V30 9870 H 924.572 -3.66483 -1.84711 0
M  V30 9871 H 924.103 -2.46739 -3.06404 0
M  V30 9872 H 926.118 -2.43076 -4.32583 0
M  V30 9873 N 925.291 0.760815 -1.38019 0
M  V30 9874 C 926.516 1.55513 -1.37224 0
M  V30 9875 C 926.941 1.88062 0.037611 0
M  V30 9876 O 926.299 1.50042 1.0177 0
M  V30 9877 C 926.347 2.83539 -2.22796 0
M  V30 9878 O 925.451 3.78384 -1.64009 0
M  V30 9879 H 924.792 0.470642 -0.468393 0
M  V30 9880 H 927.322 0.940792 -1.81687 0
M  V30 9881 H 927.332 3.32535 -2.36399 0
M  V30 9882 H 926.007 2.59178 -3.25269 0
M  V30 9883 H 924.584 3.37063 -1.59508 0
M  V30 9884 N 926.769 1.22769 0.988202 0
M  V30 9885 C 928.185 0.988665 1.2529 0
M  V30 9886 C 928.385 -0.314938 1.99024 0
M  V30 9887 O 927.441 -1.03637 2.30251 0
M  V30 9888 C 928.754 2.19046 2.06009 0
M  V30 9889 C 930.302 2.23452 2.19176 0
M  V30 9890 C 930.777 3.43196 3.03283 0
M  V30 9891 N 932.268 3.43387 3.10869 0
M  V30 9892 C 933.003 4.32693 3.7625 0
M  V30 9893 N 932.499 5.32224 4.43519 0
M  V30 9894 N 934.292 4.20457 3.73058 0
M  V30 9895 H 926.443 2.06575 0.494014 0
M  V30 9896 H 928.706 0.905452 0.28082 0
M  V30 9897 H 928.412 3.13607 1.59197 0
M  V30 9898 H 928.286 2.19492 3.06763 0
M  V30 9899 H 930.673 1.29436 2.65199 0
M  V30 9900 H 930.754 2.27042 1.17836 0
M  V30 9901 H 930.398 4.37515 2.57959 0
M  V30 9902 H 930.328 3.36847 4.04774 0
M  V30 9903 H 932.819 2.71368 2.62998 0
M  V30 9904 H 933.132 5.9664 4.91163 0
M  V30 9905 H 931.477 5.36133 4.42252 0
M  V30 9906 H 934.668 3.41949 3.19669 0
M  V30 9907 H 934.841 4.90261 4.23731 0
M  V30 9908 N 928.247 -1.18576 1.03814 0
M  V30 9909 C 929.177 -2.24334 0.647795 0
M  V30 9910 C 930.158 -1.66508 -0.34774 0
M  V30 9911 O 931.343 -1.92852 -0.228401 0
M  V30 9912 C 928.473 -3.47299 0.00734922 0
M  V30 9913 C 927.427 -4.17859 0.926152 0
M  V30 9914 C 926.753 -5.34489 0.150317 0
M  V30 9915 C 928.053 -4.71632 2.24411 0
M  V30 9916 H 929.747 -2.57241 1.53191 0
M  V30 9917 H 927.293 -1.23649 0.738028 0
M  V30 9918 H 929.246 -4.20486 -0.277434 0
M  V30 9919 H 927.97 -3.13619 -0.911626 0
M  V30 9920 H 926.629 -3.46567 1.19528 0
M  V30 9921 H 926.277 -4.97056 -0.770985 0
M  V30 9922 H 925.977 -5.82633 0.762407 0
M  V30 9923 H 927.501 -6.10467 -0.127508 0
M  V30 9924 H 928.915 -5.36526 2.02021 0
M  V30 9925 H 927.312 -5.303 2.80894 0
M  V30 9926 H 928.382 -3.89192 2.89236 0
M  V30 9927 N 929.725 -0.817259 -1.34754 0
M  V30 9928 C 930.655 -0.249769 -2.3216 0
M  V30 9929 C 931.636 0.630663 -1.57977 0
M  V30 9930 O 932.821 0.558719 -1.85989 0
M  V30 9931 C 929.951 0.593825 -3.42186 0
M  V30 9932 C 928.905 -0.188997 -4.27583 0
M  V30 9933 C 928.231 0.776979 -5.29025 0
M  V30 9934 C 929.531 -1.39401 -5.03354 0
M  V30 9935 H 931.225 -1.06359 -2.79872 0
M  V30 9936 H 928.771 -0.512894 -1.34556 0
M  V30 9937 H 930.724 1.00097 -4.09339 0
M  V30 9938 H 929.448 1.44064 -2.93109 0
M  V30 9939 H 928.107 -0.577445 -3.62024 0
M  V30 9940 H 927.755 1.61959 -4.76212 0
M  V30 9941 H 927.455 0.257448 -5.87036 0
M  V30 9942 H 928.979 1.18211 -5.99048 0
M  V30 9943 H 930.393 -1.06117 -5.63393 0
M  V30 9944 H 928.79 -1.84878 -5.70912 0
M  V30 9945 H 929.86 -2.17515 -4.33377 0
M  V30 9946 N 931.203 1.46865 -0.571711 0
M  V30 9947 C 932.431 2.06818 -0.0583975 0
M  V30 9948 C 932.846 1.42218 1.24175 0
M  V30 9949 O 932.203 0.523655 1.74826 0
M  V30 9950 C 932.254 3.61281 0.125673 0
M  V30 9951 O 931.975 4.23462 -1.123 0
M  V30 9952 C 933.476 4.38137 0.674604 0
M  V30 9953 H 930.696 0.668948 -0.052438 0
M  V30 9954 H 933.24 1.88656 -0.789251 0
M  V30 9955 H 931.395 3.78908 0.806707 0
M  V30 9956 H 931.809 5.16192 -0.929869 0
M  V30 9957 H 933.283 5.46845 0.752626 0
M  V30 9958 H 933.76 4.05419 1.68915 0
M  V30 9959 H 934.366 4.2529 0.0287979 0
M  V30 9960 N 932.681 0.308908 1.54543 0
M  V30 9961 C 934.092 -0.182144 1.85809 0
M  V30 9962 C 934.443 -1.52796 1.23076 0
M  V30 9963 O 933.568 -2.09775 0.531358 0
M  V30 9964 C 934.163 -0.337275 3.37117 0
M  V30 9965 C 932.722 -0.772545 3.68387 0
M  V30 9966 C 931.869 0.114451 2.77064 0
M  V30 9967 H 934.82 0.529671 1.496 0
M  V30 9968 H 934.841 -1.17058 3.62046 0
M  V30 9969 H 934.353 0.642382 3.82747 0
M  V30 9970 H 932.454 -1.76247 3.2828 0
M  V30 9971 H 932.567 -0.586453 4.75497 0
M  V30 9972 H 930.931 -0.407581 2.51418 0
M  V30 9973 H 931.714 1.09061 3.25516 0
M  V30 9974 N 934.159 -1.57557 0.0367827 0
M  V30 9975 C 935.384 -1.96828 -0.653707 0
M  V30 9976 C 935.809 -0.913559 -1.64425 0
M  V30 9977 O 935.167 0.124749 -1.8087 0
M  V30 9978 C 935.215 -3.35189 -1.32969 0
M  V30 9979 O 934.319 -3.32095 -2.44513 0
M  V30 9980 H 933.66 -0.64157 -0.171124 0
M  V30 9981 H 936.19 -2.04351 0.100912 0
M  V30 9982 H 936.2 -3.71593 -1.68472 0
M  V30 9983 H 934.875 -4.11496 -0.603654 0
M  V30 9984 H 933.452 -3.07418 -2.11065 0
M  V30 9985 N 935.637 0.236453 -1.55816 0
M  V30 9986 C 936.886 0.960981 -1.77336 0
M  V30 9987 C 937.199 1.86085 -0.602641 0
M  V30 9988 O 938.405 2.62291 -0.701106 0
M  V30 9989 C 936.861 1.75884 -3.13995 0
M  V30 9990 C 936.469 0.905849 -4.38746 0
M  V30 9991 C 938.213 2.47548 -3.44848 0
M  V30 9992 C 936.12 1.7002 -5.66434 0
M  V30 9993 H 935.05 0.362547 -0.661117 0
M  V30 9994 H 937.701 0.215303 -1.82233 0
M  V30 9995 H 936.083 2.54687 -3.03234 0
M  V30 9996 H 937.257 0.159415 -4.60524 0
M  V30 9997 H 935.572 0.30205 -4.15303 0
M  V30 9998 H 938.169 3.07452 -4.37467 0
M  V30 9999 H 938.512 3.19689 -2.66655 0
M  V30 10000 H 939.045 1.75747 -3.56872 0
M  V30 10001 H 935.784 1.02234 -6.47479 0
M  V30 10002 H 935.304 2.42164 -5.48741 0
M  V30 10003 H 936.983 2.26469 -6.0607 0
M  V30 10004 N 937.115 1.49373 0.502552 0
M  V30 10005 C 938.065 1.62321 1.60112 0
M  V30 10006 C 939.049 0.47895 1.53606 0
M  V30 10007 O 940.241 0.731824 1.61162 0
M  V30 10008 C 937.37 1.69162 2.98729 0
M  V30 10009 C 936.456 2.89161 3.10237 0
M  V30 10010 N 936.847 4.13256 2.91638 0
M  V30 10011 C 935.145 2.87065 3.41335 0
M  V30 10012 C 935.846 4.93913 3.07287 0
M  V30 10013 N 934.822 4.27249 3.36094 0
M  V30 10014 H 938.624 2.55989 1.44384 0
M  V30 10015 H 936.138 1.46123 0.708644 0
M  V30 10016 H 938.135 1.76536 3.77678 0
M  V30 10017 H 936.795 0.766301 3.15528 0
M  V30 10018 H 937.806 4.4326 2.67844 0
M  V30 10019 H 934.483 2.03905 3.6432 0
M  V30 10020 H 935.873 6.02491 2.97413 0
M  V30 10021 N 938.594 -0.753485 1.38421 0
M  V30 10022 C 939.524 -1.8808 1.38377 0
M  V30 10023 C 940.505 -1.68258 0.249664 0
M  V30 10024 O 941.69 -1.88848 0.45276 0
M  V30 10025 C 938.82 -3.25608 1.20818 0
M  V30 10026 C 937.774 -3.60032 2.31433 0
M  V30 10027 C 937.1 -4.96297 1.9898 0
M  V30 10028 C 938.4 -3.64898 3.73694 0
M  V30 10029 H 940.094 -1.88375 2.32713 0
M  V30 10030 H 937.64 -0.90489 1.12017 0
M  V30 10031 H 939.593 -4.04127 1.19412 0
M  V30 10032 H 938.317 -3.25793 0.229433 0
M  V30 10033 H 936.976 -2.83831 2.32025 0
M  V30 10034 H 936.624 -4.93043 0.995889 0
M  V30 10035 H 936.324 -5.20298 2.73063 0
M  V30 10036 H 937.848 -5.77196 1.99193 0
M  V30 10037 H 939.262 -4.33531 3.75132 0
M  V30 10038 H 937.659 -4.00407 4.46983 0
M  V30 10039 H 938.729 -2.65124 4.06002 0
M  V30 10040 N 940.072 -1.23292 -0.981677 0
M  V30 10041 C 941.321 -1.05832 -1.71705 0
M  V30 10042 C 941.634 0.40514 -1.91358 0
M  V30 10043 O 942.84 0.699645 -2.6233 0
M  V30 10044 C 941.296 -1.84532 -3.08992 0
M  V30 10045 C 940.904 -3.35199 -2.9723 0
M  V30 10046 C 942.648 -1.75557 -3.86497 0
M  V30 10047 C 940.555 -4.06296 -4.29741 0
M  V30 10048 H 939.485 -0.39241 -0.64384 0
M  V30 10049 H 942.136 -1.47247 -1.09502 0
M  V30 10050 H 940.518 -1.35923 -3.71942 0
M  V30 10051 H 941.692 -3.91286 -2.43377 0
M  V30 10052 H 940.007 -3.44973 -2.332 0
M  V30 10053 H 942.604 -2.25989 -4.84596 0
M  V30 10054 H 942.947 -0.718101 -4.1006 0
M  V30 10055 H 943.48 -2.21771 -3.30246 0
M  V30 10056 H 940.219 -5.10344 -4.11375 0
M  V30 10057 H 939.739 -3.54997 -4.83464 0
M  V30 10058 H 941.418 -4.12519 -4.98434 0
M  V30 10059 N 941.55 1.18024 -1.04442 0
M  V30 10060 C 942.775 1.92573 -0.770097 0
M  V30 10061 C 943.2 1.75871 0.667169 0
M  V30 10062 O 942.558 1.07136 1.46258 0
M  V30 10063 C 942.606 3.41904 -1.14602 0
M  V30 10064 O 941.71 4.11491 -0.273712 0
M  V30 10065 H 941.051 0.600636 -0.283076 0
M  V30 10066 H 943.581 1.49645 -1.39526 0
M  V30 10067 H 943.591 3.92623 -1.10956 0
M  V30 10068 H 942.266 3.53382 -2.19304 0
M  V30 10069 H 940.843 3.71059 -0.370124 0
M  V30 10070 N 943.028 0.824394 1.34319 0
M  V30 10071 C 944.276 0.41235 1.97849 0
M  V30 10072 C 944.597 -1.02841 1.65677 0
M  V30 10073 O 943.867 -1.71421 0.948245 0
M  V30 10074 H 942.447 0.149486 0.73189 0
M  V30 10075 H 945.109 1.05416 1.63931 0
M  V30 10076 H 944.205 0.532557 3.07523 0
M  V30 10077 N 944.506 -1.46559 0.579492 0
M  V30 10078 C 945.456 -2.27316 -0.17645 0
M  V30 10079 C 946.44 -1.35681 -0.864835 0
M  V30 10080 O 947.632 -1.59879 -0.759462 0
M  V30 10081 C 944.761 -3.21957 -1.19157 0
M  V30 10082 C 943.847 -4.21077 -0.505459 0
M  V30 10083 N 944.238 -5.03908 0.437133 0
M  V30 10084 C 942.536 -4.39535 -0.75661 0
M  V30 10085 C 943.237 -5.75635 0.837819 0
M  V30 10086 N 942.213 -5.43276 0.187679 0
M  V30 10087 H 946.015 -2.88747 0.547932 0
M  V30 10088 H 943.529 -1.5737 0.401048 0
M  V30 10089 H 945.526 -3.78518 -1.74728 0
M  V30 10090 H 944.186 -2.62085 -1.9168 0
M  V30 10091 H 945.197 -5.11487 0.812488 0
M  V30 10092 H 941.874 -3.90815 -1.46867 0
M  V30 10093 H 943.264 -6.52235 1.61364 0
M  V30 10094 N 945.984 -0.3171 -1.54377 0
M  V30 10095 C 946.947 0.53905 -2.22771 0
M  V30 10096 C 947.947 1.04865 -1.21901 0
M  V30 10097 O 949.137 0.942108 -1.46526 0
M  V30 10098 C 946.269 1.74804 -2.92671 0
M  V30 10099 H 947.462 -0.0587417 -2.99842 0
M  V30 10100 H 945.015 -0.068107 -1.56152 0
M  V30 10101 H 945.75 2.38524 -2.1972 0
M  V30 10102 H 945.535 1.39011 -3.66631 0
M  V30 10103 H 947.025 2.35592 -3.44799 0
M  V30 10104 N 947.462 1.57535 -0.0451378 0
M  V30 10105 C 948.412 2.07683 0.940829 0
M  V30 10106 C 949.396 0.9807 1.27558 0
M  V30 10107 O 950.588 1.2441 1.25901 0
M  V30 10108 C 947.717 2.62049 2.21778 0
M  V30 10109 C 946.803 3.78621 1.91068 0
M  V30 10110 N 947.194 4.88623 1.30694 0
M  V30 10111 C 945.492 3.87411 2.20972 0
M  V30 10112 C 946.193 5.69714 1.17478 0
M  V30 10113 N 945.169 5.17129 1.67566 0
M  V30 10114 H 948.971 2.90129 0.469267 0
M  V30 10115 H 946.485 1.61615 0.159472 0
M  V30 10116 H 948.482 2.96276 2.93302 0
M  V30 10117 H 947.142 1.81039 2.69546 0
M  V30 10118 H 948.153 5.08545 0.979907 0
M  V30 10119 H 944.83 3.17335 2.71302 0
M  V30 10120 H 946.22 6.68174 0.706574 0
M  V30 10121 N 948.94 -0.228186 1.55939 0
M  V30 10122 C 950.186 -0.954964 1.78909 0
M  V30 10123 C 950.519 -1.8425 0.613648 0
M  V30 10124 O 949.794 -1.90604 -0.38737 0
M  V30 10125 C 950.077 -1.79957 3.1191 0
M  V30 10126 C 949.93 -0.938968 4.3989 0
M  V30 10127 C 951.249 -2.77859 3.41295 0
M  V30 10128 H 948.368 -0.345745 0.650868 0
M  V30 10129 H 951.01 -0.224244 1.88672 0
M  V30 10130 H 949.16 -2.42256 3.03717 0
M  V30 10131 H 950.832 -0.333225 4.60095 0
M  V30 10132 H 949.075 -0.244096 4.33113 0
M  V30 10133 H 949.746 -1.56416 5.29375 0
M  V30 10134 H 952.222 -2.25695 3.49572 0
M  V30 10135 H 951.098 -3.34062 4.35538 0
M  V30 10136 H 951.359 -3.55266 2.63132 0
M  V30 10137 N 950.418 -1.49637 -0.494624 0
M  V30 10138 C 951.664 -1.59681 -1.25019 0
M  V30 10139 C 951.997 -0.285511 -1.9209 0
M  V30 10140 O 951.272 0.711398 -1.81023 0
M  V30 10141 C 951.555 -2.76058 -2.31222 0
M  V30 10142 C 951.408 -4.17002 -1.68611 0
M  V30 10143 C 952.727 -2.88056 -3.32734 0
M  V30 10144 H 949.846 -0.581209 -0.453172 0
M  V30 10145 H 952.488 -1.81944 -0.547391 0
M  V30 10146 H 950.638 -2.57207 -2.91164 0
M  V30 10147 H 952.31 -4.47385 -1.12447 0
M  V30 10148 H 950.553 -4.22352 -0.989991 0
M  V30 10149 H 951.224 -4.94316 -2.45674 0
M  V30 10150 H 953.7 -3.05237 -2.82789 0
M  V30 10151 H 952.576 -3.71151 -4.04399 0
M  V30 10152 H 952.837 -1.97676 -3.95445 0
M  V30 10153 N 951.896 0.746133 -1.38819 0
M  V30 10154 C 953.121 1.54049 -1.38866 0
M  V30 10155 C 953.546 1.88092 0.0176624 0
M  V30 10156 O 952.904 1.51113 1.00173 0
M  V30 10157 C 952.952 2.8116 -2.25791 0
M  V30 10158 O 952.056 3.76623 -1.68014 0
M  V30 10159 H 951.397 0.465648 -0.473359 0
M  V30 10160 H 953.927 0.921469 -1.82675 0
M  V30 10161 H 953.937 3.30009 -2.39913 0
M  V30 10162 H 952.612 2.55713 -3.27999 0
M  V30 10163 H 951.189 3.35352 -1.63074 0
M  V30 10164 N 953.375 1.23811 0.975125 0
M  V30 10165 C 954.307 0.981779 2.07108 0
M  V30 10166 C 955.32 -0.0461211 1.62735 0
M  V30 10167 O 956.509 0.190039 1.77486 0
M  V30 10168 C 953.609 0.458364 3.35786 0
M  V30 10169 C 952.782 1.54767 4.09104 0
M  V30 10170 C 951.841 1.0282 5.16057 0
M  V30 10171 O 950.867 1.71831 5.42644 0
M  V30 10172 N 952.069 -0.141243 5.80328 0
M  V30 10173 H 954.834 1.92537 2.29673 0
M  V30 10174 H 952.395 1.1474 1.14221 0
M  V30 10175 H 954.387 0.0957686 4.04587 0
M  V30 10176 H 952.957 -0.390768 3.10148 0
M  V30 10177 H 952.177 2.08279 3.34684 0
M  V30 10178 H 953.465 2.28006 4.54853 0
M  V30 10179 H 952.863 -0.718382 5.6112 0
M  V30 10180 H 951.42 -0.445052 6.50279 0
M  V30 10181 N 954.853 -1.17469 1.05066 0
M  V30 10182 C 956.081 -1.9162 0.780334 0
M  V30 10183 C 956.496 -1.76745 -0.663817 0
M  V30 10184 O 955.853 -1.10377 -1.45338 0
M  V30 10185 C 955.904 -3.42723 1.14992 0
M  V30 10186 O 955.625 -3.57139 2.53739 0
M  V30 10187 C 957.126 -4.33952 0.905549 0
M  V30 10188 H 954.346 -0.608022 0.283814 0
M  V30 10189 H 956.89 -1.4897 1.401 0
M  V30 10190 H 955.045 -3.83124 0.57403 0
M  V30 10191 H 955.459 -4.5075 2.68189 0
M  V30 10192 H 956.933 -5.38487 1.21391 0
M  V30 10193 H 957.41 -4.38911 -0.159295 0
M  V30 10194 H 958.016 -3.99263 1.46522 0
M  V30 10195 N 956.331 -0.831506 -1.3388 0
M  V30 10196 C 957.294 -0.264773 -2.27666 0
M  V30 10197 C 958.294 0.562273 -1.50649 0
M  V30 10198 O 959.484 0.377131 -1.70069 0
M  V30 10199 C 956.616 0.627814 -3.35069 0
M  V30 10200 H 957.809 -1.09225 -2.79303 0
M  V30 10201 H 955.362 -0.604021 -1.44157 0
M  V30 10202 H 956.097 1.47802 -2.88661 0
M  V30 10203 H 955.882 0.0361552 -3.92083 0
M  V30 10204 H 957.372 1.01786 -4.05005 0
M  V30 10205 N 957.809 1.4625 -0.587256 0
M  V30 10206 C 959.055 2.02662 -0.0746851 0
M  V30 10207 C 959.388 1.45723 1.28368 0
M  V30 10208 O 958.663 0.624062 1.84216 0
M  V30 10209 C 958.946 3.60097 -0.0138109 0
M  V30 10210 C 958.799 4.27412 -1.4014 0
M  V30 10211 C 960.118 4.34744 0.684491 0
M  V30 10212 H 957.237 0.736444 -0.0286144 0
M  V30 10213 H 959.879 1.74341 -0.755328 0
M  V30 10214 H 958.029 3.84357 0.56583 0
M  V30 10215 H 959.701 4.14401 -2.02656 0
M  V30 10216 H 957.944 3.86598 -1.96785 0
M  V30 10217 H 958.615 5.362 -1.31124 0
M  V30 10218 H 961.091 4.15657 0.192023 0
M  V30 10219 H 959.967 5.44468 0.696127 0
M  V30 10220 H 960.228 4.06132 1.74669 0
M  V30 10221 N 959.287 0.325282 1.54207 0
M  V30 10222 C 960.219 -0.57395 2.21897 0
M  V30 10223 C 961.232 -1.0785 1.21952 0
M  V30 10224 O 962.421 -0.991782 1.48411 0
M  V30 10225 C 959.521 -1.8005 2.87115 0
M  V30 10226 C 958.694 -1.43435 4.13213 0
M  V30 10227 C 957.753 -2.51862 4.62009 0
M  V30 10228 O 956.779 -2.15934 5.26651 0
M  V30 10229 N 957.981 -3.8282 4.36382 0
M  V30 10230 H 960.746 0.00566918 2.99699 0
M  V30 10231 H 958.307 0.148563 1.61217 0
M  V30 10232 H 960.299 -2.51981 3.16682 0
M  V30 10233 H 958.869 -2.28792 2.13009 0
M  V30 10234 H 958.089 -0.546598 3.90392 0
M  V30 10235 H 959.377 -1.16544 4.95273 0
M  V30 10236 H 958.775 -4.14807 3.84645 0
M  V30 10237 H 957.332 -4.50976 4.70599 0
M  V30 10238 N 960.765 -1.57509 0.0534917 0
M  V30 10239 C 962.011 -1.93068 -0.62069 0
M  V30 10240 C 962.344 -0.932313 -1.70357 0
M  V30 10241 O 961.619 0.0413393 -1.94456 0
M  V30 10242 C 961.902 -3.38997 -1.21463 0
M  V30 10243 C 961.755 -4.49583 -0.13965 0
M  V30 10244 C 963.074 -3.85366 -2.12558 0
M  V30 10245 H 960.193 -0.702083 -0.224163 0
M  V30 10246 H 962.835 -1.89647 0.115729 0
M  V30 10247 H 960.985 -3.42043 -1.84226 0
M  V30 10248 H 962.657 -4.58664 0.492411 0
M  V30 10249 H 960.9 -4.30525 0.532006 0
M  V30 10250 H 961.571 -5.48781 -0.595287 0
M  V30 10251 H 964.047 -3.8421 -1.59755 0
M  V30 10252 H 962.923 -4.8812 -2.51058 0
M  V30 10253 H 963.184 -3.22256 -3.02661 0
M  V30 10254 N 962.243 0.219913 -1.56058 0
M  V30 10255 C 963.489 0.945463 -1.79412 0
M  V30 10256 C 963.822 1.83922 -0.62341 0
M  V30 10257 O 963.097 1.90806 0.377256 0
M  V30 10258 C 963.38 1.783 -3.1286 0
M  V30 10259 C 963.233 0.915626 -4.40382 0
M  V30 10260 C 964.552 2.76045 -3.42764 0
M  V30 10261 H 961.671 0.342288 -0.652693 0
M  V30 10262 H 964.313 0.214235 -1.88788 0
M  V30 10263 H 962.463 2.40642 -3.04998 0
M  V30 10264 H 964.135 0.30882 -4.60265 0
M  V30 10265 H 962.378 0.221124 -4.33236 0
M  V30 10266 H 963.049 1.53607 -5.30197 0
M  V30 10267 H 965.525 2.23838 -3.50764 0
M  V30 10268 H 964.401 3.31748 -4.37304 0
M  V30 10269 H 964.662 3.53866 -2.65012 0
M  V30 10270 N 963.721 1.49897 0.486681 0
M  V30 10271 C 964.684 1.67086 1.56891 0
M  V30 10272 C 965.684 0.54209 1.51387 0
M  V30 10273 O 966.874 0.80883 1.54284 0
M  V30 10274 C 964.006 1.68159 2.96539 0
M  V30 10275 H 965.199 2.63626 1.42974 0
M  V30 10276 H 962.752 1.39143 0.711954 0
M  V30 10277 H 963.487 0.732562 3.15918 0
M  V30 10278 H 963.272 2.50147 3.01942 0
M  V30 10279 H 964.762 1.83466 3.7514 0
M  V30 10280 N 965.199 -0.738761 1.39212 0
M  V30 10281 C 966.476 -1.48982 1.26742 0
M  V30 10282 C 966.856 -2.10732 -0.12466 0
M  V30 10283 O 966.204 -1.98287 -1.13554 0
M  V30 10284 C 966.414 -2.54427 2.38889 0
M  V30 10285 C 967.762 -3.20915 2.78027 0
M  V30 10286 O 968.786 -2.64738 2.38311 0
M  V30 10287 O 967.645 -4.22558 3.46565 0
M  V30 10288 H 964.739 -0.661395 0.496473 0
M  V30 10289 H 967.285 -0.772907 1.51077 0
M  V30 10290 H 966.057 -2.07151 3.3197 0
M  V30 10291 H 965.68 -3.33682 2.162 0
M  V30 10292 N 966.677 -1.24326 -0.968545 0
M  V30 10293 C 967.923 -1.08406 -1.71394 0
M  V30 10294 C 968.256 0.376353 -1.90518 0
M  V30 10295 O 967.531 1.27816 -1.46606 0
M  V30 10296 C 967.814 -1.82344 -3.1052 0
M  V30 10297 C 967.667 -3.3613 -2.98893 0
M  V30 10298 C 968.986 -1.59545 -4.10163 0
M  V30 10299 H 966.105 -0.395205 -0.622079 0
M  V30 10300 H 968.747 -1.52983 -1.12677 0
M  V30 10301 H 966.897 -1.44452 -3.60646 0
M  V30 10302 H 968.569 -3.83614 -2.56199 0
M  V30 10303 H 966.812 -3.64553 -2.35124 0
M  V30 10304 H 967.483 -3.83064 -3.97449 0
M  V30 10305 H 969.959 -1.92504 -3.68892 0
M  V30 10306 H 968.835 -2.13736 -5.05577 0
M  V30 10307 H 969.096 -0.533503 -4.38869 0
M  V30 10308 N 968.156 1.1691 -1.05688 0
M  V30 10309 C 969.086 2.23275 -0.683402 0
M  V30 10310 C 970.067 1.6704 0.321206 0
M  V30 10311 O 971.252 1.93191 0.197691 0
M  V30 10312 C 968.382 3.47244 -0.0626006 0
M  V30 10313 C 967.336 4.16333 -0.992513 0
M  V30 10314 C 966.662 5.34182 -0.23533 0
M  V30 10315 C 967.962 4.68002 -2.31886 0
M  V30 10316 H 969.656 2.54771 -1.57264 0
M  V30 10317 H 967.202 1.2246 -0.757606 0
M  V30 10318 H 969.155 4.20874 0.210503 0
M  V30 10319 H 967.879 3.1503 0.861616 0
M  V30 10320 H 966.538 3.44622 -1.25026 0
M  V30 10321 H 966.186 4.9822 0.69181 0
M  V30 10322 H 965.886 5.81346 -0.855002 0
M  V30 10323 H 967.41 6.10592 0.0303717 0
M  V30 10324 H 968.824 5.33244 -2.10531 0
M  V30 10325 H 967.221 5.25764 -2.89296 0
M  V30 10326 H 968.291 3.84541 -2.95391 0
M  V30 10327 N 969.634 0.838594 1.33437 0
M  V30 10328 C 970.859 0.446701 2.02532 0
M  V30 10329 C 971.284 -0.944275 1.62681 0
M  V30 10330 O 970.642 -1.61733 0.81927 0
M  V30 10331 C 970.69 0.574794 3.55989 0
M  V30 10332 O 969.794 -0.399063 4.10465 0
M  V30 10333 H 969.135 0.181637 0.638674 0
M  V30 10334 H 971.665 1.13335 1.70342 0
M  V30 10335 H 971.675 0.456339 4.0544 0
M  V30 10336 H 970.35 1.58921 3.8434 0
M  V30 10337 H 968.927 -0.238187 3.72139 0
M  V30 10338 N 971.112 -1.45937 0.595003 0
M  V30 10339 C 972.059 -2.30427 -0.131165 0
M  V30 10340 C 973.029 -1.41355 -0.872232 0
M  V30 10341 O 974.214 -1.70296 -0.860467 0
M  V30 10342 C 971.354 -3.26045 -1.13087 0
M  V30 10343 C 970.467 -4.30218 -0.391982 0
M  V30 10344 C 969.602 -5.12953 -1.3803 0
M  V30 10345 C 968.641 -6.08865 -0.628505 0
M  V30 10346 N 967.778 -6.84425 -1.56548 0
M  V30 10347 H 972.618 -2.91992 0.595359 0
M  V30 10348 H 970.155 -1.43895 0.305405 0
M  V30 10349 H 972.113 -3.79937 -1.72348 0
M  V30 10350 H 970.743 -2.66261 -1.82496 0
M  V30 10351 H 969.795 -3.79086 0.315895 0
M  V30 10352 H 971.107 -4.98418 0.195173 0
M  V30 10353 H 970.261 -5.71184 -2.04534 0
M  V30 10354 H 969 -4.44743 -2.00138 0
M  V30 10355 H 968.005 -5.49777 0.0502431 0
M  V30 10356 H 969.23 -6.79099 -0.012641 0
M  V30 10357 H 967.176 -6.18913 -2.17444 0
M  V30 10358 H 967.093 -7.48931 -1.03145 0
M  V30 10359 H 968.361 -7.47204 -2.22049 0
M  V30 10360 N 972.59 -0.333456 -1.54032 0
M  V30 10361 C 973.52 0.52051 -2.27625 0
M  V30 10362 C 974.501 1.1111 -1.28797 0
M  V30 10363 O 975.686 1.13438 -1.57625 0
M  V30 10364 C 972.816 1.67663 -3.04149 0
M  V30 10365 C 971.77 1.21487 -4.10396 0
M  V30 10366 C 971.096 2.45872 -4.74817 0
M  V30 10367 C 972.396 0.322603 -5.21303 0
M  V30 10368 H 974.09 -0.0933823 -2.99254 0
M  V30 10369 H 971.636 -0.0463526 -1.43925 0
M  V30 10370 H 973.589 2.28041 -3.54366 0
M  V30 10371 H 972.313 2.31727 -2.30153 0
M  V30 10372 H 970.972 0.633966 -3.61077 0
M  V30 10373 H 970.62 3.0832 -3.97426 0
M  V30 10374 H 970.32 2.15662 -5.46593 0
M  V30 10375 H 971.844 3.06994 -5.27814 0
M  V30 10376 H 973.258 0.832942 -5.67217 0
M  V30 10377 H 971.655 0.112843 -5.99994 0
M  V30 10378 H 972.725 -0.643954 -4.80605 0
M  V30 10379 N 974.068 1.57479 -0.061844 0
M  V30 10380 C 974.998 2.15181 0.9066 0
M  V30 10381 C 975.979 1.07624 1.31724 0
M  V30 10382 O 977.164 1.35614 1.39006 0
M  V30 10383 C 974.294 2.70542 2.17771 0
M  V30 10384 C 973.248 3.83178 1.9068 0
M  V30 10385 C 972.574 4.25099 3.24337 0
M  V30 10386 C 973.874 5.07853 1.21994 0
M  V30 10387 H 975.568 2.96355 0.42594 0
M  V30 10388 H 973.114 1.42556 0.203435 0
M  V30 10389 H 975.067 3.09552 2.85929 0
M  V30 10390 H 973.791 1.86575 2.68062 0
M  V30 10391 H 972.45 3.44656 1.24931 0
M  V30 10392 H 972.098 3.38069 3.72449 0
M  V30 10393 H 971.798 5.01021 3.07005 0
M  V30 10394 H 973.322 4.66718 3.93709 0
M  V30 10395 H 974.736 5.44242 1.80204 0
M  V30 10396 H 973.133 5.88987 1.14954 0
M  V30 10397 H 974.203 4.84497 0.197536 0
M  V30 10398 N 975.546 -0.211634 1.56173 0
M  V30 10399 C 976.792 -0.935935 1.79911 0
M  V30 10400 C 977.125 -1.83589 0.633155 0
M  V30 10401 O 976.4 -1.91004 -0.367132 0
M  V30 10402 C 976.683 -1.76638 3.13801 0
M  V30 10403 C 976.536 -0.892259 4.40861 0
M  V30 10404 C 977.855 -2.74224 3.44223 0
M  V30 10405 H 974.974 -0.338822 0.654499 0
M  V30 10406 H 977.616 -0.20422 1.88899 0
M  V30 10407 H 975.766 -2.39021 3.0627 0
M  V30 10408 H 977.438 -0.284407 4.60422 0
M  V30 10409 H 975.681 -0.198145 4.33347 0
M  V30 10410 H 976.352 -1.50793 5.31004 0
M  V30 10411 H 978.828 -2.21975 3.51946 0
M  V30 10412 H 977.704 -3.29424 4.39057 0
M  V30 10413 H 977.965 -3.52455 2.66885 0
M  V30 10414 N 977.024 -1.50153 -0.478725 0
M  V30 10415 C 978.27 -1.60998 -1.23318 0
M  V30 10416 C 978.603 -0.305868 -1.91776 0
M  V30 10417 O 977.878 0.692158 -1.81767 0
M  V30 10418 C 978.161 -2.78495 -2.28282 0
M  V30 10419 C 978.014 -4.18767 -1.64178 0
M  V30 10420 C 979.333 -2.91569 -3.2966 0
M  V30 10421 H 976.452 -0.585983 -0.446982 0
M  V30 10422 H 979.094 -1.82514 -0.528063 0
M  V30 10423 H 977.244 -2.60281 -2.8842 0
M  V30 10424 H 978.916 -4.48552 -1.07696 0
M  V30 10425 H 977.159 -4.23379 -0.94514 0
M  V30 10426 H 977.83 -4.96894 -2.40417 0
M  V30 10427 H 980.306 -3.08219 -2.79536 0
M  V30 10428 H 979.182 -3.75419 -4.0044 0
M  V30 10429 H 979.443 -2.01859 -3.93326 0
M  V30 10430 N 978.502 0.731368 -1.39602 0
M  V30 10431 C 979.75 1.48805 -1.36753 0
M  V30 10432 C 980.071 1.94969 0.034676 0
M  V30 10433 O 979.341 1.69243 0.986591 0
M  V30 10434 H 977.921 0.55203 -0.503261 0
M  V30 10435 H 980.583 0.868013 -1.74504 0
M  V30 10436 H 979.679 2.36844 -2.03252 0
M  V30 10437 N 979.98 1.24838 0.961938 0
M  V30 10438 C 981.229 1.0855 1.69999 0
M  V30 10439 C 981.542 -0.374645 1.91979 0
M  V30 10440 O 982.748 -0.657822 2.6341 0
M  V30 10441 C 981.204 1.89424 3.06017 0
M  V30 10442 C 980.812 3.39885 2.9186 0
M  V30 10443 C 982.556 1.81684 3.83655 0
M  V30 10444 C 980.463 4.13082 4.23223 0
M  V30 10445 H 979.393 0.402603 0.637516 0
M  V30 10446 H 982.044 1.4897 1.07146 0
M  V30 10447 H 980.426 1.41823 3.69733 0
M  V30 10448 H 981.6 3.95108 2.37121 0
M  V30 10449 H 979.915 3.4864 2.27683 0
M  V30 10450 H 982.512 2.3367 4.80939 0
M  V30 10451 H 982.855 0.783247 4.08865 0
M  V30 10452 H 983.388 2.26997 3.26676 0
M  V30 10453 H 980.127 5.16824 4.03204 0
M  V30 10454 H 979.647 3.62644 4.77755 0
M  V30 10455 H 981.326 4.20397 4.91808 0
M  V30 10456 N 981.458 -1.16348 1.06306 0
M  V30 10457 C 982.686 -1.90782 0.800614 0
M  V30 10458 C 983.101 -1.77439 -0.645033 0
M  V30 10459 O 982.458 -1.11912 -1.4416 0
M  V30 10460 C 982.509 -3.41484 1.18621 0
M  V30 10461 O 982.23 -3.54428 2.57512 0
M  V30 10462 C 983.731 -4.32968 0.951525 0
M  V30 10463 H 980.951 -0.604977 0.290247 0
M  V30 10464 H 983.495 -1.47476 1.41672 0
M  V30 10465 H 981.65 -3.82493 0.614633 0
M  V30 10466 H 982.064 -4.4788 2.72954 0
M  V30 10467 H 983.538 -5.37169 1.27095 0
M  V30 10468 H 984.015 -4.39055 -0.112734 0
M  V30 10469 H 984.621 -3.97687 1.50749 0
M  V30 10470 N 982.937 -0.845659 -1.3299 0
M  V30 10471 C 984.214 -0.366306 -1.92139 0
M  V30 10472 C 984.594 1.14912 -1.77083 0
M  V30 10473 O 983.942 1.96667 -1.16338 0
M  V30 10474 C 984.152 -0.820716 -3.39213 0
M  V30 10475 C 985.5 -0.832667 -4.16355 0
M  V30 10476 O 986.524 -0.764764 -3.47893 0
M  V30 10477 O 985.383 -0.926658 -5.38586 0
M  V30 10478 H 982.477 -0.105063 -0.820299 0
M  V30 10479 H 985.023 -0.931962 -1.41819 0
M  V30 10480 H 983.795 -1.86357 -3.44074 0
M  V30 10481 H 983.418 -0.232009 -3.96923 0
M  V30 10482 N 984.415 1.45619 -0.602734 0
M  V30 10483 C 985.826 1.85814 -0.181636 0
M  V30 10484 C 986.177 1.5037 1.26029 0
M  V30 10485 O 985.302 0.928068 1.95489 0
M  V30 10486 C 985.897 3.37258 -0.322866 0
M  V30 10487 C 984.456 3.76375 0.043504 0
M  V30 10488 C 983.603 2.69585 -0.649561 0
M  V30 10489 H 986.554 1.36489 -0.809721 0
M  V30 10490 H 986.575 3.77874 0.446279 0
M  V30 10491 H 986.087 3.63024 -1.37241 0
M  V30 10492 H 984.188 3.56226 1.09241 0
M  V30 10493 H 984.301 4.77843 -0.346765 0
M  V30 10494 H 982.665 2.54549 -0.087706 0
M  V30 10495 H 983.448 2.98188 -1.70115 0
M  V30 10496 N 985.893 0.34162 1.53853 0
M  V30 10497 C 987.17 -0.310664 1.93117 0
M  V30 10498 C 987.55 -1.68398 1.273 0
M  V30 10499 O 986.898 -2.24546 0.423225 0
M  V30 10500 C 987.108 -0.384867 3.46871 0
M  V30 10501 C 988.456 -0.636621 4.198 0
M  V30 10502 O 989.48 -0.467061 3.53125 0
M  V30 10503 O 988.339 -0.964962 5.37913 0
M  V30 10504 H 985.433 -0.180881 0.806977 0
M  V30 10505 H 987.979 0.392656 1.65095 0
M  V30 10506 H 986.751 0.57894 3.86994 0
M  V30 10507 H 986.374 -1.13505 3.81054 0
M  V30 10508 N 987.371 -1.57444 0.0701946 0
M  V30 10509 C 988.782 -1.80875 -0.462709 0
M  V30 10510 C 989.133 -0.983975 -1.69742 0
M  V30 10511 O 988.258 -0.206027 -2.15417 0
M  V30 10512 C 988.853 -3.28062 -0.84623 0
M  V30 10513 C 987.412 -3.52345 -1.32401 0
M  V30 10514 C 986.559 -2.7558 -0.308399 0
M  V30 10515 H 989.51 -1.55917 0.295907 0
M  V30 10516 H 989.531 -3.40023 -1.70776 0
M  V30 10517 H 989.043 -3.88064 0.0526033 0
M  V30 10518 H 987.144 -2.97645 -2.24139 0
M  V30 10519 H 987.257 -4.6104 -1.30304 0
M  V30 10520 H 985.621 -2.4229 -0.785337 0
M  V30 10521 H 986.404 -3.38319 0.582679 0
M  V30 10522 N 988.849 0.203349 -1.56283 0
M  V30 10523 C 990.126 0.950415 -1.70958 0
M  V30 10524 C 990.506 2.01708 -0.622647 0
M  V30 10525 O 989.854 2.25523 0.367635 0
M  V30 10526 C 990.064 1.54434 -3.12971 0
M  V30 10527 C 991.412 2.02964 -3.72949 0
M  V30 10528 O 992.436 1.64293 -3.16048 0
M  V30 10529 O 991.295 2.74097 -4.72793 0
M  V30 10530 H 988.389 0.445154 -0.69697 0
M  V30 10531 H 990.935 0.193695 -1.68591 0
M  V30 10532 H 989.707 0.77505 -3.83547 0
M  V30 10533 H 989.33 2.36611 -3.19532 0
M  V30 10534 N 990.327 1.50405 0.470755 0
M  V30 10535 C 991.576 1.60652 1.21959 0
M  V30 10536 C 991.889 0.312521 1.93087 0
M  V30 10537 O 993.095 0.293901 2.69905 0
M  V30 10538 C 991.551 2.83581 2.21607 0
M  V30 10539 C 991.159 4.19858 1.5628 0
M  V30 10540 C 992.903 3.03173 2.9713 0
M  V30 10541 C 990.81 5.33974 2.54217 0
M  V30 10542 H 989.74 0.598264 0.458907 0
M  V30 10543 H 992.391 1.76836 0.490041 0
M  V30 10544 H 990.773 2.60957 2.97855 0
M  V30 10545 H 991.947 4.52738 0.85819 0
M  V30 10546 H 990.262 4.05873 0.930366 0
M  V30 10547 H 992.859 3.856 3.70428 0
M  V30 10548 H 993.202 2.14914 3.56536 0
M  V30 10549 H 993.735 3.2598 2.27995 0
M  V30 10550 H 990.474 6.24388 1.99549 0
M  V30 10551 H 989.994 5.05511 3.22829 0
M  V30 10552 H 991.673 5.64561 3.16039 0
M  V30 10553 N 991.805 -0.723954 1.39988 0
M  V30 10554 C 993.221 -1.03095 1.21834 0
M  V30 10555 C 993.421 -2.01309 0.0876647 0
M  V30 10556 O 992.477 -2.46277 -0.55714 0
M  V30 10557 C 993.79 -1.58267 2.5568 0
M  V30 10558 C 995.338 -1.70293 2.6262 0
M  V30 10559 C 995.813 -2.28872 3.96713 0
M  V30 10560 N 997.304 -2.36269 3.98411 0
M  V30 10561 C 998.039 -2.82557 4.98948 0
M  V30 10562 N 997.535 -3.28661 6.0988 0
M  V30 10563 N 999.328 -2.81866 4.86321 0
M  V30 10564 H 991.479 -0.0727891 2.12275 0
M  V30 10565 H 993.742 -0.0949029 0.943238 0
M  V30 10566 H 993.448 -0.935642 3.39026 0
M  V30 10567 H 993.322 -2.56914 2.76179 0
M  V30 10568 H 995.709 -2.34115 1.7965 0
M  V30 10569 H 995.79 -0.70268 2.45959 0
M  V30 10570 H 995.434 -1.65675 4.80119 0
M  V30 10571 H 995.364 -3.29595 4.107 0
M  V30 10572 H 997.855 -2.03697 3.18302 0
M  V30 10573 H 998.168 -3.62524 6.82493 0
M  V30 10574 H 996.513 -3.26641 6.13458 0
M  V30 10575 H 999.704 -2.45179 3.98754 0
M  V30 10576 H 999.877 -3.17626 5.64817 0
M  V30 10577 N 993.283 -1.25346 -0.955304 0
M  V30 10578 C 994.513 -1.12629 -1.732 0
M  V30 10579 C 994.921 0.322748 -1.86427 0
M  V30 10580 O 994.264 1.23381 -1.36099 0
M  V30 10581 C 994.326 -1.7064 -3.16421 0
M  V30 10582 C 993.99 -3.19632 -3.26626 0
M  V30 10583 C 994.987 -4.1663 -3.10991 0
M  V30 10584 C 992.672 -3.59829 -3.50468 0
M  V30 10585 C 994.666 -5.51806 -3.19043 0
M  V30 10586 C 992.353 -4.95143 -3.58157 0
M  V30 10587 C 993.351 -5.90941 -3.42459 0
M  V30 10588 O 993.039 -7.23792 -3.49828 0
M  V30 10589 H 992.771 -0.393646 -0.549562 0
M  V30 10590 H 995.325 -1.66184 -1.20715 0
M  V30 10591 H 993.555 -1.11532 -3.70267 0
M  V30 10592 H 995.244 -1.53032 -3.75947 0
M  V30 10593 H 996.01 -3.86915 -2.92441 0
M  V30 10594 H 991.889 -2.8576 -3.61749 0
M  V30 10595 H 995.433 -6.26559 -3.06707 0
M  V30 10596 H 991.33 -5.24525 -3.76224 0
M  V30 10597 H 992.098 -7.31879 -3.66463 0
M  V30 10598 N 994.761 1.15782 -1.06922 0
M  V30 10599 C 996.001 1.88135 -0.799043 0
M  V30 10600 C 996.365 1.80203 0.662632 0
M  V30 10601 O 997.566 2.47543 1.04767 0
M  V30 10602 C 995.837 3.3339 -1.28786 0
M  V30 10603 S 997.396 4.23525 -1.1477 0
M  V30 10604 H 994.214 0.649313 -0.289679 0
M  V30 10605 H 996.816 1.3972 -1.36743 0
M  V30 10606 H 995.52 3.36705 -2.34645 0
M  V30 10607 H 995.051 3.86857 -0.714489 0
M  V30 10608 H 997.066 4.96131 -0.0825264 0
M  V30 10609 N 996.239 0.8527 1.3254 0
M  V30 10610 C 997.485 0.455798 1.97612 0
M  V30 10611 C 997.818 -0.985616 1.6733 0
M  V30 10612 O 997.093 -1.69129 0.960493 0
M  V30 10613 C 997.376 0.69312 3.53366 0
M  V30 10614 C 997.229 2.18281 3.93285 0
M  V30 10615 C 998.548 0.148236 4.3985 0
M  V30 10616 H 995.667 0.167078 0.717812 0
M  V30 10617 H 998.309 1.07076 1.56954 0
M  V30 10618 H 996.459 0.169677 3.88129 0
M  V30 10619 H 998.131 2.77218 3.68711 0
M  V30 10620 H 996.374 2.66206 3.42515 0
M  V30 10621 H 997.045 2.29957 5.01821 0
M  V30 10622 H 999.521 0.595834 4.11812 0
M  V30 10623 H 998.397 0.343873 5.47822 0
M  V30 10624 H 998.658 -0.948872 4.31797 0
M  V30 10625 N 997.718 -1.45297 0.610449 0
M  V30 10626 C 998.648 -2.33311 -0.0939698 0
M  V30 10627 C 999.629 -1.46999 -0.85588 0
M  V30 10628 O 1000.81 -1.75764 -0.825865 0
M  V30 10629 C 997.944 -3.29751 -1.09003 0
M  V30 10630 C 996.898 -4.2572 -0.441146 0
M  V30 10631 C 996.224 -5.11873 -1.54566 0
M  V30 10632 C 997.524 -5.1837 0.639489 0
M  V30 10633 H 999.218 -2.92459 0.640941 0
M  V30 10634 H 996.764 -1.40631 0.309675 0
M  V30 10635 H 998.717 -3.90195 -1.59141 0
M  V30 10636 H 997.441 -2.68768 -1.85557 0
M  V30 10637 H 996.1 -3.66579 0.0393908 0
M  V30 10638 H 995.748 -4.47256 -2.30155 0
M  V30 10639 H 995.448 -5.76886 -1.11698 0
M  V30 10640 H 996.972 -5.75185 -2.04925 0
M  V30 10641 H 998.386 -5.7287 0.22207 0
M  V30 10642 H 996.783 -5.91876 0.990089 0
M  V30 10643 H 997.853 -4.60627 1.51495 0
M  V30 10644 N 999.196 -0.349774 -1.5367 0
M  V30 10645 C 1000.16 0.491676 -2.23864 0
M  V30 10646 C 1001.16 1.02256 -1.24098 0
M  V30 10647 O 1002.35 0.910816 -1.48492 0
M  V30 10648 C 999.481 1.68557 -2.96313 0
M  V30 10649 H 1000.67 -0.12233 -2.9965 0
M  V30 10650 H 998.227 -0.101214 -1.55972 0
M  V30 10651 H 998.962 2.3381 -2.2473 0
M  V30 10652 H 998.747 1.31203 -3.69497 0
M  V30 10653 H 1000.24 2.28225 -3.49718 0
M  V30 10654 N 1000.67 1.57404 -0.0785433 0
M  V30 10655 C 1001.9 1.98492 0.601292 0
M  V30 10656 C 1002.32 0.956832 1.61945 0
M  V30 10657 O 1001.68 -0.0767502 1.81137 0
M  V30 10658 C 1001.73 3.38596 1.24036 0
M  V30 10659 O 1000.83 3.38461 2.35622 0
M  V30 10660 H 1000.17 0.645882 0.154054 0
M  V30 10661 H 1002.7 2.04012 -0.155056 0
M  V30 10662 H 1002.71 3.75929 1.5856 0
M  V30 10663 H 1001.39 4.12952 0.494341 0
M  V30 10664 H 999.967 3.12906 2.02841 0
M  V30 10665 N 1002.15 -0.195058 1.56388 0
M  V30 10666 C 1003.08 -1.24444 1.97575 0
M  V30 10667 C 1004.06 -1.47471 0.847717 0
M  V30 10668 O 1005.25 -1.59208 1.11205 0
M  V30 10669 C 1002.38 -2.58866 2.31529 0
M  V30 10670 C 1001.33 -2.50451 3.47071 0
M  V30 10671 C 1000.66 -3.89146 3.667 0
M  V30 10672 C 1001.96 -2.02953 4.81256 0
M  V30 10673 H 1003.65 -0.902178 2.85484 0
M  V30 10674 H 1001.2 -0.43254 1.3735 0
M  V30 10675 H 1003.15 -3.3246 2.58936 0
M  V30 10676 H 1001.87 -2.94833 1.40502 0
M  V30 10677 H 1000.53 -1.79313 3.19754 0
M  V30 10678 H 1000.18 -4.22466 2.73004 0
M  V30 10679 H 999.882 -3.84391 4.44429 0
M  V30 10680 H 1001.41 -4.64363 3.96484 0
M  V30 10681 H 1002.82 -2.66306 5.07695 0
M  V30 10682 H 1001.22 -2.092 5.62455 0
M  V30 10683 H 1002.29 -0.982757 4.74837 0
M  V30 10684 N 1003.63 -1.50653 -0.462772 0
M  V30 10685 C 1004.91 -1.5258 -1.22387 0
M  V30 10686 C 1005.29 -0.275263 -2.09298 0
M  V30 10687 O 1004.63 0.740943 -2.16153 0
M  V30 10688 C 1004.84 -2.82611 -2.04773 0
M  V30 10689 C 1006.19 -3.33592 -2.62681 0
M  V30 10690 O 1007.22 -2.83989 -2.15008 0
M  V30 10691 O 1006.08 -4.20081 -3.49563 0
M  V30 10692 H 1003.17 -0.612367 -0.55582 0
M  V30 10693 H 1005.72 -1.62948 -0.473914 0
M  V30 10694 H 1004.49 -3.65098 -1.40781 0
M  V30 10695 H 1004.11 -2.75286 -2.86886 0
M  V30 10696 N 1005.11 0.71652 -1.4037 0
M  V30 10697 C 1006.02 1.86074 -1.42876 0
M  V30 10698 C 1007.03 1.71005 -0.321475 0
M  V30 10699 O 1008.21 1.93286 -0.565909 0
M  V30 10700 C 1005.28 3.21862 -1.28863 0
M  V30 10701 C 1004.34 3.49193 -2.49726 0
M  V30 10702 C 1003.57 4.78502 -2.36372 0
M  V30 10703 O 1003.79 5.53529 -1.37703 0
M  V30 10704 O 1002.73 5.06147 -3.25728 0
M  V30 10705 H 1006.55 1.86916 -2.39366 0
M  V30 10706 H 1004.14 0.866818 -1.21683 0
M  V30 10707 H 1006.02 4.02972 -1.23253 0
M  V30 10708 H 1004.69 3.2175 -0.354783 0
M  V30 10709 H 1003.6 2.68095 -2.60913 0
M  V30 10710 H 1004.93 3.54101 -3.41868 0
M  V30 10711 N 1006.59 1.25851 0.948643 0
M  V30 10712 C 1008 1.02802 1.22081 0
M  V30 10713 C 1008.2 -0.251461 1.99925 0
M  V30 10714 O 1007.26 -0.962592 2.33432 0
M  V30 10715 C 1008.57 2.25489 1.98936 0
M  V30 10716 C 1010.12 2.30312 2.11956 0
M  V30 10717 C 1010.59 3.52671 2.92211 0
M  V30 10718 N 1012.09 3.53103 2.99787 0
M  V30 10719 C 1012.82 4.44445 3.62294 0
M  V30 10720 N 1012.32 5.46065 4.26362 0
M  V30 10721 N 1014.11 4.32113 3.59493 0
M  V30 10722 H 1006.26 2.08042 0.428044 0
M  V30 10723 H 1008.52 0.913928 0.251872 0
M  V30 10724 H 1008.23 3.18513 1.4914 0
M  V30 10725 H 1008.1 2.2914 2.99624 0
M  V30 10726 H 1010.49 1.37808 2.60946 0
M  V30 10727 H 1010.57 2.30676 1.10554 0
M  V30 10728 H 1010.22 4.45501 2.43909 0
M  V30 10729 H 1010.15 3.49554 3.93853 0
M  V30 10730 H 1012.64 2.79597 2.54232 0
M  V30 10731 H 1012.95 6.11964 4.71932 0
M  V30 10732 H 1011.29 5.49931 4.24972 0
M  V30 10733 H 1014.49 3.51946 3.08629 0
M  V30 10734 H 1014.66 5.03493 4.0792 0
M  V30 10735 N 1008.06 -1.15214 1.07534 0
M  V30 10736 C 1009.31 -1.86043 0.799629 0
M  V30 10737 C 1009.64 -1.82435 -0.674356 0
M  V30 10738 O 1008.89 -1.24379 -1.51091 0
M  V30 10739 C 1009.19 -3.34623 1.25547 0
M  V30 10740 C 1008.86 -3.58425 2.73573 0
M  V30 10741 C 1007.52 -3.6463 3.14004 0
M  V30 10742 C 1009.87 -3.67977 3.6911 0
M  V30 10743 C 1007.2 -3.779 4.48786 0
M  V30 10744 C 1009.55 -3.82771 5.03656 0
M  V30 10745 C 1008.22 -3.87222 5.43705 0
M  V30 10746 H 1007.49 -0.680781 0.292605 0
M  V30 10747 H 1010.13 -1.36149 1.34669 0
M  V30 10748 H 1008.44 -3.86737 0.627828 0
M  V30 10749 H 1010.14 -3.87836 1.01901 0
M  V30 10750 H 1006.73 -3.54238 2.41275 0
M  V30 10751 H 1010.91 -3.62482 3.39 0
M  V30 10752 H 1006.17 -3.79604 4.79281 0
M  V30 10753 H 1010.34 -3.89104 5.77556 0
M  V30 10754 H 1007.97 -3.97256 6.48145 0
M  V30 10755 N 1009.54 -0.859717 -1.32086 0
M  V30 10756 C 1010.82 -0.386665 -1.9174 0
M  V30 10757 C 1011.2 1.13028 -1.78292 0
M  V30 10758 O 1010.55 1.95422 -1.18417 0
M  V30 10759 C 1010.76 -0.856648 -3.38323 0
M  V30 10760 C 1012.11 -0.87678 -4.15449 0
M  V30 10761 O 1013.13 -0.80162 -3.47063 0
M  V30 10762 O 1011.99 -0.98373 -5.37573 0
M  V30 10763 H 1009.08 -0.113758 -0.819139 0
M  V30 10764 H 1011.63 -0.946952 -1.40822 0
M  V30 10765 H 1010.4 -1.89996 -3.42078 0
M  V30 10766 H 1010.02 -0.274095 -3.96654 0
M  V30 10767 N 1011.02 1.44971 -0.618145 0
M  V30 10768 C 1011.98 2.29044 0.0846739 0
M  V30 10769 C 1012.98 1.40341 0.784921 0
M  V30 10770 O 1014.17 1.62351 0.631479 0
M  V30 10771 C 1011.31 3.21617 1.13027 0
M  V30 10772 H 1012.5 2.92668 -0.654612 0
M  V30 10773 H 1010.05 1.51668 -0.377672 0
M  V30 10774 H 1010.79 2.62815 1.89997 0
M  V30 10775 H 1010.57 3.86969 0.63224 0
M  V30 10776 H 1012.06 3.84805 1.62218 0
M  V30 10777 N 1012.5 0.357919 1.53482 0
M  V30 10778 C 1013.45 -0.50845 2.22258 0
M  V30 10779 C 1014.43 -1.05476 1.21506 0
M  V30 10780 O 1015.62 -0.986075 1.46988 0
M  V30 10781 C 1012.75 -1.65157 3.00962 0
M  V30 10782 C 1011.84 -1.11851 4.09084 0
M  V30 10783 N 1012.23 -0.307818 5.04862 0
M  V30 10784 C 1010.53 -1.39405 4.23653 0
M  V30 10785 C 1011.23 -0.016842 5.81698 0
M  V30 10786 N 1010.21 -0.612396 5.40139 0
M  V30 10787 H 1014.01 0.117836 2.93664 0
M  V30 10788 H 1011.52 0.16553 1.61554 0
M  V30 10789 H 1013.52 -2.28435 3.48745 0
M  V30 10790 H 1012.18 -2.281 2.31086 0
M  V30 10791 H 1013.19 0.0523313 5.17874 0
M  V30 10792 H 1009.87 -2.02682 3.65002 0
M  V30 10793 H 1011.26 0.638046 6.68864 0
M  V30 10794 N 1013.98 -1.5736 0.0868897 0
M  V30 10795 C 1014.91 -2.16596 -0.872252 0
M  V30 10796 C 1015.89 -1.09706 -1.29995 0
M  V30 10797 O 1017.07 -1.37808 -1.36831 0
M  V30 10798 C 1014.2 -2.73972 -2.1344 0
M  V30 10799 C 1013.16 -3.86163 -1.8456 0
M  V30 10800 C 1012.48 -4.30206 -3.17533 0
M  V30 10801 C 1013.78 -5.0973 -1.13899 0
M  V30 10802 H 1015.48 -2.96995 -0.378738 0
M  V30 10803 H 1013.02 -1.42861 -0.18073 0
M  V30 10804 H 1014.98 -3.14062 -2.80968 0
M  V30 10805 H 1013.7 -1.90817 -2.6506 0
M  V30 10806 H 1012.36 -3.466 -1.19432 0
M  V30 10807 H 1012.01 -3.43951 -3.67024 0
M  V30 10808 H 1011.71 -5.05841 -2.98996 0
M  V30 10809 H 1013.23 -4.72922 -3.86234 0
M  V30 10810 H 1014.64 -5.4704 -1.71523 0
M  V30 10811 H 1013.04 -5.90741 -1.05569 0
M  V30 10812 H 1014.11 -4.8475 -0.120432 0
M  V30 10813 N 1015.45 0.186762 -1.56489 0
M  V30 10814 C 1016.42 1.21511 -1.94339 0
M  V30 10815 C 1017.42 1.38001 -0.82537 0
M  V30 10816 O 1018.61 1.3567 -1.09266 0
M  V30 10817 C 1015.74 2.583 -2.22472 0
M  V30 10818 H 1016.93 0.891371 -2.86347 0
M  V30 10819 H 1014.49 0.428612 -1.50308 0
M  V30 10820 H 1015.22 2.95715 -1.33129 0
M  V30 10821 H 1015.01 2.47701 -3.03951 0
M  V30 10822 H 1016.5 3.32441 -2.5273 0
M  V30 10823 N 1016.93 1.50896 0.454776 0
M  V30 10824 C 1017.86 1.6712 1.56855 0
M  V30 10825 C 1018.88 0.552223 1.53148 0
M  V30 10826 O 1020.07 0.825969 1.5824 0
M  V30 10827 C 1017.17 1.65464 2.95762 0
M  V30 10828 C 1016.34 2.93662 3.24163 0
M  V30 10829 C 1015.4 2.84428 4.42704 0
M  V30 10830 O 1014.42 3.58382 4.42211 0
M  V30 10831 N 1015.63 1.9909 5.45292 0
M  V30 10832 H 1018.39 2.63194 1.43349 0
M  V30 10833 H 1015.95 1.48564 0.643457 0
M  V30 10834 H 1017.94 1.56878 3.73057 0
M  V30 10835 H 1016.51 0.770568 3.02954 0
M  V30 10836 H 1015.73 3.16251 2.35328 0
M  V30 10837 H 1017.02 3.78558 3.39957 0
M  V30 10838 H 1016.42 1.3835 5.48521 0
M  V30 10839 H 1014.98 1.96396 6.21508 0
M  V30 10840 N 1018.41 -0.709066 1.40748 0
M  V30 10841 C 1019.37 -1.80485 1.41272 0
M  V30 10842 C 1020.37 -1.57872 0.305463 0
M  V30 10843 O 1021.56 -1.64793 0.564691 0
M  V30 10844 C 1018.7 -3.1867 1.21087 0
M  V30 10845 H 1019.89 -1.81417 2.38805 0
M  V30 10846 H 1017.44 -0.915356 1.26692 0
M  V30 10847 H 1018.18 -3.23385 0.243406 0
M  V30 10848 H 1017.96 -3.36484 2.01299 0
M  V30 10849 H 1019.45 -3.98685 1.24257 0
M  V30 10850 N 1019.89 -1.26353 -0.941956 0
M  V30 10851 C 1020.8 -1.09618 -2.07415 0
M  V30 10852 C 1021.82 -0.0298963 -1.73974 0
M  V30 10853 O 1022.99 -0.233466 -2.00042 0
M  V30 10854 C 1020.06 -0.73013 -3.38925 0
M  V30 10855 C 1019.12 -1.87574 -3.86153 0
M  V30 10856 C 1018.35 -1.52706 -5.11387 0
M  V30 10857 O 1018.57 -0.428438 -5.68789 0
M  V30 10858 O 1017.51 -2.36154 -5.53638 0
M  V30 10859 H 1021.33 -2.04598 -2.2444 0
M  V30 10860 H 1018.92 -1.05407 -1.05876 0
M  V30 10861 H 1020.8 -0.538684 -4.17943 0
M  V30 10862 H 1019.48 0.190282 -3.2314 0
M  V30 10863 H 1018.38 -2.12214 -3.08084 0
M  V30 10864 H 1019.72 -2.77585 -4.06457 0
M  V30 10865 N 1021.37 1.14642 -1.08144 0
M  V30 10866 C 1022.32 2.21708 -0.703448 0
M  V30 10867 C 1023.31 1.66907 0.289535 0
M  V30 10868 O 1024.52 1.79354 0.152387 0
M  V30 10869 H 1020.89 0.722247 -0.209437 0
M  V30 10870 H 1022.86 2.50862 -1.61588 0
M  V30 10871 C 1021.61 3.47472 -0.125975 0
M  V30 10872 H 1020.93 3.89967 -0.881216 0
M  V30 10873 H 1022.37 4.2388 0.100737 0
M  V30 10874 C 1020.83 3.17189 1.13546 0
M  V30 10875 O 1021.36 3.34733 2.22073 0
M  V30 10876 N 1019.57 2.71169 1.04479 0
M  V30 10877 H 1019.12 2.57093 0.161566 0
M  V30 10878 H 1019.07 2.51282 1.88957 0
M  V30 10879 N 1022.85 0.866709 1.31628 0
M  V30 10880 C 1023.78 0.335762 2.31073 0
M  V30 10881 C 1024.76 -0.571597 1.60209 0
M  V30 10882 O 1025.94 -0.489306 1.87935 0
M  V30 10883 C 1023.07 -0.466416 3.44154 0
M  V30 10884 C 1022.03 0.347561 4.26586 0
M  V30 10885 C 1021.35 -0.5801 5.31544 0
M  V30 10886 C 1022.65 1.57986 4.97833 0
M  V30 10887 H 1024.35 1.16673 2.75731 0
M  V30 10888 H 1021.89 0.56248 1.3256 0
M  V30 10889 H 1023.84 -0.84836 4.12772 0
M  V30 10890 H 1022.57 -1.33086 2.98254 0
M  V30 10891 H 1021.23 0.71141 3.59631 0
M  V30 10892 H 1020.88 -1.44174 4.81895 0
M  V30 10893 H 1020.58 -0.0393965 5.87587 0
M  V30 10894 H 1022.1 -0.958958 6.03023 0
M  V30 10895 H 1023.51 1.26954 5.59067 0
M  V30 10896 H 1021.91 2.05939 5.63657 0
M  V30 10897 H 1022.98 2.3345 4.25005 0
M  V30 10898 N 1024.32 -1.44642 0.625825 0
M  V30 10899 C 1025.26 -2.28882 -0.120614 0
M  V30 10900 C 1026.27 -1.40985 -0.81407 0
M  V30 10901 O 1027.46 -1.65188 -0.676404 0
M  V30 10902 C 1024.56 -3.17217 -1.19274 0
M  V30 10903 C 1023.73 -4.33499 -0.582839 0
M  V30 10904 C 1022.79 -5.02908 -1.54823 0
M  V30 10905 O 1021.82 -5.59102 -1.06743 0
M  V30 10906 N 1023.02 -5.0387 -2.88262 0
M  V30 10907 H 1025.78 -2.93585 0.602318 0
M  V30 10908 H 1023.34 -1.5503 0.466604 0
M  V30 10909 H 1025.34 -3.60515 -1.83878 0
M  V30 10910 H 1023.91 -2.54301 -1.81797 0
M  V30 10911 H 1023.13 -3.93458 0.241696 0
M  V30 10912 H 1024.41 -5.08561 -0.155914 0
M  V30 10913 H 1023.81 -4.59539 -3.2991 0
M  V30 10914 H 1022.37 -5.50974 -3.4824 0
M  V30 10915 N 1025.8 -0.366053 -1.5329 0
M  V30 10916 C 1026.76 0.467904 -2.24373 0
M  V30 10917 C 1027.76 1.00934 -1.25176 0
M  V30 10918 O 1028.95 0.895015 -1.49449 0
M  V30 10919 C 1026.09 1.65405 -2.98084 0
M  V30 10920 H 1027.28 -0.154105 -2.99504 0
M  V30 10921 H 1024.83 -0.117751 -1.55856 0
M  V30 10922 H 1025.57 2.31413 -2.27197 0
M  V30 10923 H 1025.35 1.27277 -3.70868 0
M  V30 10924 H 1026.84 2.24503 -3.52119 0
M  V30 10925 N 1027.28 1.57312 -0.0952337 0
M  V30 10926 C 1028.21 2.17056 0.860753 0
M  V30 10927 C 1029.19 1.10394 1.29411 0
M  V30 10928 O 1030.38 1.38532 1.36098 0
M  V30 10929 C 1027.51 2.751 2.11984 0
M  V30 10930 C 1026.46 3.87136 1.8251 0
M  V30 10931 C 1025.79 4.31883 3.15247 0
M  V30 10932 C 1027.09 5.10326 1.11194 0
M  V30 10933 H 1028.78 2.97192 0.362983 0
M  V30 10934 H 1026.33 1.42955 0.173151 0
M  V30 10935 H 1028.28 3.15547 2.79299 0
M  V30 10936 H 1027 1.92219 2.64044 0
M  V30 10937 H 1025.66 3.47229 1.17592 0
M  V30 10938 H 1025.31 3.45893 3.65195 0
M  V30 10939 H 1025.01 5.0742 2.96309 0
M  V30 10940 H 1026.53 4.74964 3.83721 0
M  V30 10941 H 1027.95 5.47942 1.6862 0
M  V30 10942 H 1026.34 5.91293 1.02435 0
M  V30 10943 H 1027.41 4.84807 0.0947227 0
M  V30 10944 N 1028.76 -0.17846 1.56586 0
M  V30 10945 C 1030 -0.896235 1.81587 0
M  V30 10946 C 1030.33 -1.82553 0.671168 0
M  V30 10947 O 1029.59 -1.92688 -0.342046 0
M  V30 10948 C 1029.89 -1.73063 3.12704 0
M  V30 10949 C 1029.55 -0.950877 4.4076 0
M  V30 10950 C 1028.21 -0.735647 4.75544 0
M  V30 10951 C 1030.57 -0.403419 5.19636 0
M  V30 10952 C 1027.89 0.0382562 5.86688 0
M  V30 10953 C 1030.25 0.357359 6.3159 0
M  V30 10954 C 1028.91 0.583455 6.64945 0
M  V30 10955 H 1028.18 -0.327956 0.664474 0
M  V30 10956 H 1030.83 -0.161586 1.90817 0
M  V30 10957 H 1029.13 -2.53446 2.98785 0
M  V30 10958 H 1030.83 -2.28891 3.29257 0
M  V30 10959 H 1027.42 -1.12866 4.13472 0
M  V30 10960 H 1031.6 -0.557059 4.93164 0
M  V30 10961 H 1026.86 0.223237 6.10992 0
M  V30 10962 H 1031.03 0.788861 6.91918 0
M  V30 10963 H 1028.66 1.18502 7.50907 0
M  V30 10964 N 1030.24 -1.51135 -0.446768 0
M  V30 10965 C 1031.48 -1.63578 -1.19875 0
M  V30 10966 C 1031.81 -0.346478 -1.91084 0
M  V30 10967 O 1031.09 0.653447 -1.83195 0
M  V30 10968 C 1031.37 -2.83275 -2.22323 0
M  V30 10969 C 1031.23 -4.22155 -1.55259 0
M  V30 10970 C 1032.54 -2.98496 -3.23401 0
M  V30 10971 H 1029.66 -0.595333 -0.434452 0
M  V30 10972 H 1032.31 -1.83593 -0.48923 0
M  V30 10973 H 1030.46 -2.6634 -2.82834 0
M  V30 10974 H 1032.13 -4.50736 -0.981571 0
M  V30 10975 H 1030.37 -4.25288 -0.855122 0
M  V30 10976 H 1031.04 -5.01882 -2.29823 0
M  V30 10977 H 1033.52 -3.14079 -2.72935 0
M  V30 10978 H 1032.39 -3.83828 -3.92386 0
M  V30 10979 H 1032.65 -2.10157 -3.88956 0
M  V30 10980 N 1031.71 0.701592 -1.41122 0
M  V30 10981 C 1032.68 1.79733 -1.42227 0
M  V30 10982 C 1033.68 1.57708 -0.313831 0
M  V30 10983 O 1034.87 1.64492 -0.573423 0
M  V30 10984 C 1032 3.18024 -1.22775 0
M  V30 10985 H 1033.19 1.80148 -2.39764 0
M  V30 10986 H 1030.74 0.908624 -1.27176 0
M  V30 10987 H 1031.48 3.23252 -0.260552 0
M  V30 10988 H 1031.26 3.35411 -2.0308 0
M  V30 10989 H 1032.75 3.98021 -1.2637 0
M  V30 10990 N 1033.19 1.2685 0.935242 0
M  V30 10991 C 1034.12 1.1143 2.05196 0
M  V30 10992 C 1035.1 0.0178362 1.70091 0
M  V30 10993 O 1036.29 0.190951 1.93259 0
M  V30 10994 C 1033.42 0.752779 3.39044 0
M  V30 10995 C 1032.37 1.80164 3.88233 0
M  V30 10996 C 1031.7 1.29428 5.18799 0
M  V30 10997 C 1033 3.20431 4.12457 0
M  V30 10998 H 1034.69 2.04845 2.18355 0
M  V30 10999 H 1032.24 0.986276 1.04922 0
M  V30 11000 H 1034.19 0.631757 4.16637 0
M  V30 11001 H 1032.91 -0.217075 3.25878 0
M  V30 11002 H 1031.57 1.91144 3.12825 0
M  V30 11003 H 1031.22 0.3141 5.02018 0
M  V30 11004 H 1030.92 1.99546 5.5268 0
M  V30 11005 H 1032.45 1.18605 5.9897 0
M  V30 11006 H 1033.86 3.12495 4.80645 0
M  V30 11007 H 1032.26 3.88193 4.57631 0
M  V30 11008 H 1033.33 3.66046 3.18023 0
M  V30 11009 N 1034.67 -1.14067 1.0875 0
M  V30 11010 C 1035.62 -2.21332 0.715195 0
M  V30 11011 C 1036.61 -1.67059 -0.280679 0
M  V30 11012 O 1037.82 -1.79432 -0.142874 0
M  V30 11013 H 1034.19 -0.721126 0.213264 0
M  V30 11014 H 1036.16 -2.50002 1.62916 0
M  V30 11015 C 1034.91 -3.474 0.144401 0
M  V30 11016 H 1034.24 -3.89495 0.901884 0
M  V30 11017 H 1035.68 -4.23928 -0.0782564 0
M  V30 11018 C 1034.14 -3.17787 -1.11862 0
M  V30 11019 O 1034.67 -3.35906 -2.20295 0
M  V30 11020 N 1032.87 -2.71719 -1.03039 0
M  V30 11021 H 1032.42 -2.57175 -0.14793 0
M  V30 11022 H 1032.38 -2.52281 -1.87621 0
M  V30 11023 N 1036.15 -0.873678 -1.31166 0
M  V30 11024 C 1037.43 -0.40698 -1.91319 0
M  V30 11025 C 1037.81 1.1113 -1.79481 0
M  V30 11026 O 1037.15 1.94155 -1.20483 0
M  V30 11027 C 1037.36 -0.892484 -3.37396 0
M  V30 11028 C 1038.71 -0.920795 -4.14496 0
M  V30 11029 O 1039.74 -0.838386 -3.46193 0
M  V30 11030 O 1038.59 -1.04069 -5.365 0
M  V30 11031 H 1035.69 -0.122439 -0.817886 0
M  V30 11032 H 1038.23 -0.961835 -1.3981 0
M  V30 11033 H 1037.01 -1.93613 -3.40044 0
M  V30 11034 H 1036.63 -0.31615 -3.96341 0
M  V30 11035 N 1037.63 1.44308 -0.633487 0
M  V30 11036 C 1038.56 2.28943 0.108474 0
M  V30 11037 C 1039.57 1.41415 0.806582 0
M  V30 11038 O 1040.76 1.65544 0.667634 0
M  V30 11039 C 1037.86 3.17845 1.1759 0
M  V30 11040 C 1037.03 4.33802 0.559842 0
M  V30 11041 C 1036.09 5.03722 1.52154 0
M  V30 11042 O 1035.12 5.5966 1.03776 0
M  V30 11043 N 1036.32 5.05392 2.85586 0
M  V30 11044 H 1039.09 2.93262 -0.617879 0
M  V30 11045 H 1036.65 1.54781 -0.474819 0
M  V30 11046 H 1038.64 3.61485 1.81963 0
M  V30 11047 H 1037.21 2.55261 1.80445 0
M  V30 11048 H 1036.43 3.93325 -0.262559 0
M  V30 11049 H 1037.72 5.08637 0.128942 0
M  V30 11050 H 1037.11 4.61282 3.27468 0
M  V30 11051 H 1035.67 5.52813 3.45313 0
M  V30 11052 N 1039.1 0.374177 1.53094 0
M  V30 11053 C 1040.35 -0.213131 2.01677 0
M  V30 11054 C 1040.68 -1.47715 1.26071 0
M  V30 11055 O 1039.96 -1.91199 0.356834 0
M  V30 11056 C 1040.24 -0.496392 3.56662 0
M  V30 11057 C 1040.09 0.781859 4.42953 0
M  V30 11058 C 1041.41 -1.29339 4.20666 0
M  V30 11059 H 1038.53 -0.0759885 0.733072 0
M  V30 11060 H 1041.17 0.500765 1.83282 0
M  V30 11061 H 1039.32 -1.10455 3.72467 0
M  V30 11062 H 1041 1.41914 4.38928 0
M  V30 11063 H 1039.24 1.40041 4.10574 0
M  V30 11064 H 1039.91 0.538508 5.49367 0
M  V30 11065 H 1042.39 -0.778848 4.08746 0
M  V30 11066 H 1041.26 -1.46033 5.29118 0
M  V30 11067 H 1041.52 -2.30435 3.77296 0
M  V30 11068 N 1040.58 -1.57259 0.103575 0
M  V30 11069 C 1041.83 -1.94657 -0.558126 0
M  V30 11070 C 1042.16 -0.985886 -1.67662 0
M  V30 11071 O 1041.41 -0.0069745 -1.95699 0
M  V30 11072 C 1041.71 -3.38549 -1.14538 0
M  V30 11073 C 1041.38 -4.50651 -0.149818 0
M  V30 11074 C 1040.04 -4.8104 0.12398 0
M  V30 11075 C 1042.39 -5.18503 0.529497 0
M  V30 11076 C 1039.72 -5.76606 1.08364 0
M  V30 11077 C 1042.07 -6.15099 1.47769 0
M  V30 11078 C 1040.74 -6.43889 1.75963 0
M  V30 11079 H 1040.01 -0.712299 -0.204233 0
M  V30 11080 H 1042.65 -1.90641 0.181208 0
M  V30 11081 H 1040.96 -3.39185 -1.96115 0
M  V30 11082 H 1042.65 -3.6479 -1.66521 0
M  V30 11083 H 1039.24 -4.2697 -0.373404 0
M  V30 11084 H 1043.43 -4.95194 0.331121 0
M  V30 11085 H 1038.68 -5.97223 1.30899 0
M  V30 11086 H 1042.86 -6.66767 2.00983 0
M  V30 11087 H 1040.49 -7.17749 2.50481 0
M  V30 11088 N 1042.06 0.170153 -1.56679 0
M  V30 11089 C 1042.97 1.23057 -1.99735 0
M  V30 11090 C 1043.99 1.48374 -0.908912 0
M  V30 11091 O 1045.16 1.60499 -1.21663 0
M  V30 11092 C 1042.23 2.54944 -2.34956 0
M  V30 11093 C 1041.29 2.3748 -3.57634 0
M  V30 11094 C 1040.52 3.63078 -3.91165 0
M  V30 11095 O 1040.74 4.68304 -3.2565 0
M  V30 11096 O 1039.68 3.57119 -4.8451 0
M  V30 11097 H 1043.5 0.895104 -2.9021 0
M  V30 11098 H 1041.09 0.377109 -1.44562 0
M  V30 11099 H 1042.97 3.32742 -2.58574 0
M  V30 11100 H 1041.65 2.88068 -1.47643 0
M  V30 11101 H 1040.55 1.57709 -3.39232 0
M  V30 11102 H 1041.89 2.0928 -4.45491 0
M  V30 11103 N 1043.54 1.5137 0.438746 0
M  V30 11104 C 1044.79 1.63202 1.18524 0
M  V30 11105 C 1045.1 0.353408 1.92381 0
M  V30 11106 O 1046.31 0.351086 2.6922 0
M  V30 11107 C 1044.76 2.88218 2.15542 0
M  V30 11108 C 1044.37 4.23078 1.47339 0
M  V30 11109 C 1046.11 3.09407 2.90633 0
M  V30 11110 C 1044.02 5.39246 2.42833 0
M  V30 11111 H 1042.95 0.607864 0.446114 0
M  V30 11112 H 1045.6 1.77835 0.452421 0
M  V30 11113 H 1043.98 2.67216 2.92253 0
M  V30 11114 H 1045.16 4.54457 0.761964 0
M  V30 11115 H 1043.47 4.07755 0.844065 0
M  V30 11116 H 1046.07 3.9337 3.62165 0
M  V30 11117 H 1046.41 2.22428 3.51897 0
M  V30 11118 H 1046.95 3.30743 2.21029 0
M  V30 11119 H 1043.69 6.2848 1.8626 0
M  V30 11120 H 1043.21 5.12245 3.12034 0
M  V30 11121 H 1044.88 5.71137 3.03992 0
M  V30 11122 N 1045.02 -0.694098 1.41492 0
M  V30 11123 C 1046.43 -1.00487 1.23994 0
M  V30 11124 C 1046.63 -2.01078 0.130346 0
M  V30 11125 O 1045.69 -2.47403 -0.504775 0
M  V30 11126 C 1047 -1.52808 2.58979 0
M  V30 11127 C 1048.55 -1.64684 2.66173 0
M  V30 11128 C 1049.02 -2.20406 4.01479 0
M  V30 11129 N 1050.52 -2.27765 4.03333 0
M  V30 11130 C 1051.25 -2.7191 5.04829 0
M  V30 11131 N 1050.75 -3.1565 6.16714 0
M  V30 11132 N 1052.54 -2.71487 4.9219 0
M  V30 11133 H 1044.69 -0.027746 2.12382 0
M  V30 11134 H 1046.95 -0.0748741 0.945039 0
M  V30 11135 H 1046.66 -0.863519 3.40934 0
M  V30 11136 H 1046.53 -2.50998 2.81566 0
M  V30 11137 H 1048.92 -2.30251 1.84576 0
M  V30 11138 H 1049 -0.65035 2.47395 0
M  V30 11139 H 1048.65 -1.55454 4.83525 0
M  V30 11140 H 1048.58 -3.2081 4.17599 0
M  V30 11141 H 1051.07 -1.96899 3.22551 0
M  V30 11142 H 1051.38 -3.47966 6.90029 0
M  V30 11143 H 1049.72 -3.13555 6.20248 0
M  V30 11144 H 1052.92 -2.36666 4.03865 0
M  V30 11145 H 1053.09 -3.05573 5.71427 0
M  V30 11146 N 1046.49 -1.27344 -0.928501 0
M  V30 11147 C 1047.4 -1.11812 -2.06241 0
M  V30 11148 C 1048.42 -0.048347 -1.73933 0
M  V30 11149 O 1049.6 -0.25467 -1.99783 0
M  V30 11150 C 1046.66 -0.766036 -3.38131 0
M  V30 11151 C 1045.72 -1.91659 -3.84142 0
M  V30 11152 C 1044.96 -1.58121 -5.09738 0
M  V30 11153 O 1045.18 -0.488742 -5.68302 0
M  V30 11154 O 1044.11 -2.42013 -5.51102 0
M  V30 11155 H 1047.94 -2.06967 -2.22258 0
M  V30 11156 H 1045.52 -1.06524 -1.04752 0
M  V30 11157 H 1047.41 -0.582982 -4.17348 0
M  V30 11158 H 1046.08 0.155998 -3.23324 0
M  V30 11159 H 1044.99 -2.1547 -3.05816 0
M  V30 11160 H 1046.32 -2.8188 -4.0349 0
M  V30 11161 N 1047.97 1.13488 -1.09353 0
M  V30 11162 C 1048.9 2.20988 -0.75409 0
M  V30 11163 C 1049.88 1.67977 0.267901 0
M  V30 11164 O 1051.07 1.93722 0.136128 0
M  V30 11165 C 1048.2 3.46869 -0.173042 0
M  V30 11166 C 1047.15 4.12965 -1.12446 0
M  V30 11167 C 1046.48 5.33163 -0.405157 0
M  V30 11168 C 1047.78 4.60388 -2.46658 0
M  V30 11169 H 1049.47 2.49639 -1.6529 0
M  V30 11170 H 1047.02 1.19987 -0.796182 0
M  V30 11171 H 1048.97 4.21331 0.0764988 0
M  V30 11172 H 1047.7 3.17611 0.760956 0
M  V30 11173 H 1046.35 3.40469 -1.35927 0
M  V30 11174 H 1046 5.00169 0.532955 0
M  V30 11175 H 1045.7 5.78332 -1.03952 0
M  V30 11176 H 1047.23 6.1038 -0.163899 0
M  V30 11177 H 1048.64 5.26276 -2.27389 0
M  V30 11178 H 1047.04 5.16294 -3.05876 0
M  V30 11179 H 1048.11 3.74949 -3.07476 0
M  V30 11180 N 1049.45 0.880621 1.30701 0
M  V30 11181 C 1050.41 0.349087 2.26526 0
M  V30 11182 C 1051.41 -0.505973 1.52632 0
M  V30 11183 O 1052.6 -0.313751 1.71351 0
M  V30 11184 C 1049.74 -0.503023 3.37168 0
M  V30 11185 H 1050.93 1.19516 2.75056 0
M  V30 11186 H 1048.48 0.657107 1.41816 0
M  V30 11187 H 1049.22 -1.36986 2.93948 0
M  V30 11188 H 1049 0.109389 3.91947 0
M  V30 11189 H 1050.49 -0.866845 4.08504 0
M  V30 11190 N 1050.93 -1.4397 0.641131 0
M  V30 11191 C 1052.18 -2.01163 0.147026 0
M  V30 11192 C 1052.49 -1.51099 -1.24211 0
M  V30 11193 O 1053.7 -2.00487 -1.83078 0
M  V30 11194 C 1052.15 -3.59275 0.212068 0
M  V30 11195 C 1051.76 -4.18334 1.60314 0
M  V30 11196 C 1053.51 -4.23903 -0.225057 0
M  V30 11197 C 1051.41 -5.68701 1.62276 0
M  V30 11198 H 1050.34 -0.75226 0.051201 0
M  V30 11199 H 1052.99 -1.65075 0.801396 0
M  V30 11200 H 1051.38 -3.92708 -0.509589 0
M  V30 11201 H 1052.55 -3.96422 2.34918 0
M  V30 11202 H 1050.86 -3.66031 1.9852 0
M  V30 11203 H 1053.46 -5.34205 -0.230074 0
M  V30 11204 H 1053.8 -3.96956 -1.25426 0
M  V30 11205 H 1054.34 -3.95309 0.44444 0
M  V30 11206 H 1051.08 -6.00397 2.63066 0
M  V30 11207 H 1050.6 -5.92705 0.919797 0
M  V30 11208 H 1052.28 -6.32521 1.36112 0
M  V30 11209 N 1052.41 -0.382291 -1.52893 0
M  V30 11210 C 1053.65 0.201996 -2.03399 0
M  V30 11211 C 1054.01 1.44624 -1.26286 0
M  V30 11212 O 1055.21 2.10723 -1.66881 0
M  V30 11213 C 1053.48 0.470348 -3.54292 0
M  V30 11214 S 1055.04 1.02592 -4.26638 0
M  V30 11215 H 1051.86 0.0575178 -0.70867 0
M  V30 11216 H 1054.46 -0.52902 -1.88206 0
M  V30 11217 H 1053.17 -0.44243 -4.08008 0
M  V30 11218 H 1052.7 1.22998 -3.73678 0
M  V30 11219 H 1054.71 2.30887 -4.3921 0
M  V30 11220 N 1053.89 1.57202 -0.111913 0
M  V30 11221 C 1055.11 1.99297 0.555713 0
M  V30 11222 C 1055.53 0.991444 1.60673 0
M  V30 11223 O 1054.89 -0.0166672 1.82492 0
M  V30 11224 C 1054.94 3.41413 1.18826 0
M  V30 11225 O 1054.66 4.37733 0.179261 0
M  V30 11226 C 1056.16 3.98602 1.93989 0
M  V30 11227 H 1053.38 0.654543 0.147695 0
M  V30 11228 H 1055.92 2.03557 -0.196163 0
M  V30 11229 H 1054.08 3.38115 1.89096 0
M  V30 11230 H 1054.49 5.20606 0.637935 0
M  V30 11231 H 1055.97 5.00143 2.33584 0
M  V30 11232 H 1056.44 3.37349 2.81233 0
M  V30 11233 H 1057.05 4.05424 1.28497 0
M  V30 11234 N 1055.36 -0.161842 1.56767 0
M  V30 11235 C 1056.61 -0.878224 1.82798 0
M  V30 11236 C 1056.94 -1.81481 0.691242 0
M  V30 11237 O 1056.22 -1.92075 -0.30618 0
M  V30 11238 C 1056.5 -1.66565 3.19262 0
M  V30 11239 C 1056.35 -0.751551 4.43477 0
M  V30 11240 C 1057.67 -2.63134 3.52773 0
M  V30 11241 H 1054.79 -0.317828 0.664947 0
M  V30 11242 H 1057.43 -0.14402 1.89453 0
M  V30 11243 H 1055.58 -2.29157 3.13719 0
M  V30 11244 H 1057.26 -0.137783 4.61094 0
M  V30 11245 H 1055.5 -0.0601785 4.33758 0
M  V30 11246 H 1056.17 -1.33823 5.35533 0
M  V30 11247 H 1058.65 -2.10666 3.5883 0
M  V30 11248 H 1057.52 -3.15289 4.49315 0
M  V30 11249 H 1057.78 -3.43786 2.77963 0
M  V30 11250 N 1056.84 -1.516 -0.430713 0
M  V30 11251 C 1058.09 -1.64271 -1.17726 0
M  V30 11252 C 1058.41 -0.364406 -1.91565 0
M  V30 11253 O 1057.68 0.619991 -1.8583 0
M  V30 11254 H 1056.26 -0.605432 -0.437562 0
M  V30 11255 H 1058.92 -1.88557 -0.493166 0
M  V30 11256 H 1058.02 -2.47355 -1.90321 0
M  V30 11257 N 1058.32 0.686584 -1.41858 0
M  V30 11258 C 1059.74 0.998283 -1.24525 0
M  V30 11259 C 1059.94 2.01006 -0.141007 0
M  V30 11260 O 1058.99 2.47667 0.491648 0
M  V30 11261 C 1060.3 1.51432 -2.59786 0
M  V30 11262 C 1061.85 1.6327 -2.67043 0
M  V30 11263 C 1062.33 2.18274 -4.02642 0
M  V30 11264 N 1063.82 2.25622 -4.04535 0
M  V30 11265 C 1064.55 2.69229 -5.06264 0
M  V30 11266 N 1064.05 3.12375 -6.1838 0
M  V30 11267 N 1065.84 2.68873 -4.93623 0
M  V30 11268 H 1057.99 0.0164825 -2.12394 0
M  V30 11269 H 1060.26 0.0698613 -0.945422 0
M  V30 11270 H 1059.96 0.845426 -3.41388 0
M  V30 11271 H 1059.84 2.49502 -2.82894 0
M  V30 11272 H 1062.22 2.29269 -1.85794 0
M  V30 11273 H 1062.3 0.637221 -2.47736 0
M  V30 11274 H 1061.95 1.52887 -4.84343 0
M  V30 11275 H 1061.88 3.18591 -4.19294 0
M  V30 11276 H 1064.37 1.95186 -3.23591 0
M  V30 11277 H 1064.68 3.44301 -6.91864 0
M  V30 11278 H 1063.03 3.10262 -6.21902 0
M  V30 11279 H 1066.22 2.34521 -4.05114 0
M  V30 11280 H 1066.39 3.02539 -5.7304 0
M  V30 11281 N 1059.8 1.27835 0.921735 0
M  V30 11282 C 1060.73 1.136 2.04003 0
M  V30 11283 C 1061.71 0.0358756 1.70062 0
M  V30 11284 O 1062.89 0.211438 1.93046 0
M  V30 11285 C 1060.02 0.788697 3.38226 0
M  V30 11286 C 1058.98 1.84272 3.863 0
M  V30 11287 C 1058.3 1.34923 5.17397 0
M  V30 11288 C 1059.6 3.24788 4.09035 0
M  V30 11289 H 1061.3 2.07149 2.1617 0
M  V30 11290 H 1058.84 0.997349 1.0387 0
M  V30 11291 H 1060.8 0.675911 4.15944 0
M  V30 11292 H 1059.52 -0.182499 3.2609 0
M  V30 11293 H 1058.18 1.94451 3.1078 0
M  V30 11294 H 1057.83 0.367328 5.01657 0
M  V30 11295 H 1057.53 2.05397 5.50532 0
M  V30 11296 H 1059.05 1.24951 5.97678 0
M  V30 11297 H 1060.47 3.17575 4.77304 0
M  V30 11298 H 1058.86 3.93025 4.53488 0
M  V30 11299 H 1059.93 3.69398 3.14122 0
M  V30 11300 N 1061.28 -1.12907 1.09954 0
M  V30 11301 C 1062.5 -1.88679 0.861099 0
M  V30 11302 C 1062.93 -1.78853 -0.582499 0
M  V30 11303 O 1062.28 -1.13992 -1.4098 0
M  V30 11304 C 1062.33 -3.36047 1.30785 0
M  V30 11305 O 1061.44 -4.09716 0.469728 0
M  V30 11306 H 1060.78 -0.586447 0.31141 0
M  V30 11307 H 1063.31 -1.42818 1.46507 0
M  V30 11308 H 1063.32 -3.86882 1.29562 0
M  V30 11309 H 1061.99 -3.42516 2.35914 0
M  V30 11310 H 1060.57 -3.6887 0.54674 0
M  V30 11311 N 1062.75 -0.88754 -1.30232 0
M  V30 11312 C 1063.98 -0.521562 -2.00735 0
M  V30 11313 C 1064.4 0.883247 -1.66073 0
M  V30 11314 O 1063.76 1.58581 -0.878731 0
M  V30 11315 C 1063.81 -0.706521 -3.53611 0
M  V30 11316 O 1062.91 0.246447 -4.11663 0
M  V30 11317 H 1062.25 -0.205216 -0.631492 0
M  V30 11318 H 1064.78 -1.19579 -1.66018 0
M  V30 11319 H 1064.79 -0.606501 -4.03467 0
M  V30 11320 H 1063.47 -1.73076 -3.78177 0
M  V30 11321 H 1062.05 0.0999062 -3.72766 0
M  V30 11322 N 1064.23 1.43628 -0.648757 0
M  V30 11323 C 1065.17 2.28001 0.0952198 0
M  V30 11324 C 1066.14 1.39569 0.834225 0
M  V30 11325 O 1067.33 1.69011 0.834711 0
M  V30 11326 C 1064.45 3.18886 1.14145 0
M  V30 11327 C 1063.5 4.23547 0.500996 0
M  V30 11328 S 1064.33 5.30609 -0.722118 0
M  V30 11329 C 1065.49 6.25062 0.323687 0
M  V30 11330 H 1065.72 2.90752 -0.620511 0
M  V30 11331 H 1063.26 1.48073 -0.437457 0
M  V30 11332 H 1065.21 3.71795 1.74008 0
M  V30 11333 H 1063.87 2.55322 1.82947 0
M  V30 11334 H 1063.07 4.87224 1.28954 0
M  V30 11335 H 1062.67 3.73993 -0.0234176 0
M  V30 11336 H 1064.96 6.66946 1.19118 0
M  V30 11337 H 1065.9 7.07554 -0.277939 0
M  V30 11338 H 1066.31 5.60658 0.657493 0
M  V30 11339 N 1065.71 0.390394 1.52688 0
M  V30 11340 C 1066.66 -0.4591 2.28024 0
M  V30 11341 C 1067.65 -1.06212 1.31967 0
M  V30 11342 O 1068.86 -1.00247 1.49501 0
M  V30 11343 H 1065.23 -0.16681 0.733266 0
M  V30 11344 H 1067.2 0.197747 2.97744 0
M  V30 11345 C 1065.95 -1.5737 3.10048 0
M  V30 11346 H 1065.28 -1.11901 3.83821 0
M  V30 11347 H 1066.72 -2.1423 3.65898 0
M  V30 11348 C 1065.18 -2.53036 2.22429 0
M  V30 11349 O 1065.71 -3.5647 1.85181 0
M  V30 11350 N 1063.91 -2.22802 1.86567 0
M  V30 11351 H 1063.46 -1.38723 2.17057 0
M  V30 11352 H 1063.42 -2.87061 1.28233 0
M  V30 11353 N 1067.19 -1.57141 0.120249 0
M  V30 11354 C 1068.6 -1.82256 -0.404931 0
M  V30 11355 C 1068.95 -1.03748 -1.66526 0
M  V30 11356 O 1068.08 -0.274456 -2.14653 0
M  V30 11357 C 1068.67 -3.30588 -0.741431 0
M  V30 11358 C 1067.23 -3.56379 -1.21124 0
M  V30 11359 C 1066.38 -2.76421 -0.220569 0
M  V30 11360 H 1069.33 -1.54897 0.345361 0
M  V30 11361 H 1069.35 -3.45284 -1.59872 0
M  V30 11362 H 1068.86 -3.87701 0.176036 0
M  V30 11363 H 1066.96 -3.04625 -2.14556 0
M  V30 11364 H 1067.07 -4.64952 -1.1557 0
M  V30 11365 H 1065.44 -2.44666 -0.707857 0
M  V30 11366 H 1066.22 -3.36294 0.690018 0
M  V30 11367 N 1068.67 0.153526 -1.5685 0
M  V30 11368 C 1069.63 1.17362 -1.96873 0
M  V30 11369 C 1070.63 1.36219 -0.854456 0
M  V30 11370 O 1071.82 1.33322 -1.1212 0
M  V30 11371 C 1068.95 2.53523 -2.27901 0
M  V30 11372 H 1070.14 0.830432 -2.88173 0
M  V30 11373 H 1067.7 0.396633 -1.51184 0
M  V30 11374 H 1068.43 2.92824 -1.39371 0
M  V30 11375 H 1068.22 2.41198 -3.09137 0
M  V30 11376 H 1069.71 3.27006 -2.59725 0
M  V30 11377 N 1070.14 1.51827 0.422667 0
M  V30 11378 C 1071.39 1.6522 1.17084 0
M  V30 11379 C 1071.72 0.375508 1.90841 0
M  V30 11380 O 1070.97 -0.641029 1.84903 0
M  V30 11381 C 1071.27 2.81572 2.20119 0
M  V30 11382 C 1070.94 4.20303 1.63268 0
M  V30 11383 C 1069.6 4.5804 1.47488 0
M  V30 11384 C 1071.95 5.06812 1.21618 0
M  V30 11385 C 1069.28 5.79979 0.885531 0
M  V30 11386 C 1071.63 6.29343 0.641071 0
M  V30 11387 C 1070.3 6.65841 0.470286 0
M  V30 11388 H 1069.57 0.604581 0.428442 0
M  V30 11389 H 1072.21 1.85896 0.459874 0
M  V30 11390 H 1070.52 2.55175 2.97309 0
M  V30 11391 H 1072.22 2.89132 2.77856 0
M  V30 11392 H 1068.81 3.90557 1.76531 0
M  V30 11393 H 1072.99 4.78251 1.32624 0
M  V30 11394 H 1068.25 6.06892 0.741105 0
M  V30 11395 H 1072.42 6.9571 0.309888 0
M  V30 11396 H 1070.05 7.60199 0.0115038 0
M  V30 11397 N 1071.62 -0.679052 1.4222 0
M  V30 11398 C 1072.87 -1.44125 1.42674 0
M  V30 11399 C 1073.2 -1.94156 0.041438 0
M  V30 11400 O 1072.48 -1.70628 -0.93361 0
M  V30 11401 C 1072.76 -2.64133 2.44756 0
M  V30 11402 C 1072.61 -2.19761 3.9246 0
M  V30 11403 C 1073.93 -3.66347 2.43881 0
M  V30 11404 H 1071.05 -0.522729 0.519541 0
M  V30 11405 H 1073.69 -0.772067 1.73606 0
M  V30 11406 H 1071.84 -3.21225 2.1851 0
M  V30 11407 H 1073.51 -1.67869 4.29671 0
M  V30 11408 H 1071.76 -1.51377 4.06531 0
M  V30 11409 H 1072.43 -3.05944 4.59459 0
M  V30 11410 H 1074.9 -3.18963 2.67211 0
M  V30 11411 H 1073.78 -4.47902 3.17293 0
M  V30 11412 H 1074.04 -4.17183 1.46325 0
M  V30 11413 N 1073.1 -1.28322 -0.914942 0
M  V30 11414 C 1074.03 -1.06469 -2.01841 0
M  V30 11415 C 1075.01 0.0188681 -1.62589 0
M  V30 11416 O 1076.2 -0.128825 -1.88059 0
M  V30 11417 C 1073.32 -0.617685 -3.3302 0
M  V30 11418 C 1072.37 -1.6977 -3.91255 0
M  V30 11419 S 1073.2 -3.29337 -4.22253 0
M  V30 11420 C 1074.36 -2.86468 -5.56495 0
M  V30 11421 H 1074.59 -1.99893 -2.20068 0
M  V30 11422 H 1072.12 -1.12297 -1.05966 0
M  V30 11423 H 1074.08 -0.366481 -4.08861 0
M  V30 11424 H 1072.74 0.296709 -3.12695 0
M  V30 11425 H 1071.94 -1.33653 -4.85956 0
M  V30 11426 H 1071.54 -1.90164 -3.22046 0
M  V30 11427 H 1073.83 -2.32565 -6.36333 0
M  V30 11428 H 1074.77 -3.79962 -5.97523 0
M  V30 11429 H 1075.18 -2.2522 -5.17626 0
M  V30 11430 N 1074.58 1.12322 -1.10551 0
M  V30 11431 C 1075.99 1.6539 -0.8662 0
M  V30 11432 C 1076.34 1.86695 0.603284 0
M  V30 11433 O 1075.47 1.59432 1.46323 0
M  V30 11434 C 1076.06 3.00443 -1.56587 0
M  V30 11435 C 1074.62 3.50456 -1.37323 0
M  V30 11436 C 1073.77 2.25454 -1.61449 0
M  V30 11437 H 1076.72 0.960866 -1.26305 0
M  V30 11438 H 1076.74 3.66972 -1.00557 0
M  V30 11439 H 1076.25 2.84905 -2.63535 0
M  V30 11440 H 1074.35 3.71176 -0.325431 0
M  V30 11441 H 1074.46 4.29839 -2.11601 0
M  V30 11442 H 1072.83 2.32621 -1.03729 0
M  V30 11443 H 1073.61 2.12469 -2.69651 0
M  V30 11444 N 1076.06 0.894434 1.2976 0
M  V30 11445 C 1077.3 0.517669 1.95771 0
M  V30 11446 C 1077.63 -0.935028 1.70551 0
M  V30 11447 O 1076.89 -1.67722 1.00835 0
M  V30 11448 C 1077.19 0.750307 3.49435 0
M  V30 11449 C 1076.85 2.17955 3.94723 0
M  V30 11450 C 1075.51 2.57036 4.068 0
M  V30 11451 C 1077.87 3.11053 4.18205 0
M  V30 11452 C 1075.19 3.88406 4.39724 0
M  V30 11453 C 1077.55 4.41966 4.52602 0
M  V30 11454 C 1076.21 4.80927 4.62888 0
M  V30 11455 H 1075.48 0.189428 0.716378 0
M  V30 11456 H 1078.13 1.13209 1.54454 0
M  V30 11457 H 1076.43 0.0529242 3.91764 0
M  V30 11458 H 1078.13 0.438251 3.98598 0
M  V30 11459 H 1074.72 1.86622 3.85837 0
M  V30 11460 H 1078.9 2.82076 4.08347 0
M  V30 11461 H 1074.16 4.18321 4.4589 0
M  V30 11462 H 1078.33 5.14134 4.69722 0
M  V30 11463 H 1075.96 5.82759 4.88156 0
M  V30 11464 N 1077.53 -1.43282 0.656365 0
M  V30 11465 C 1078.46 -2.33492 -0.0196962 0
M  V30 11466 C 1079.45 -1.49647 -0.80868 0
M  V30 11467 O 1080.63 -1.78303 -0.769529 0
M  V30 11468 C 1077.76 -3.33052 -0.984574 0
M  V30 11469 C 1076.71 -4.26908 -0.305483 0
M  V30 11470 C 1076.04 -5.16531 -1.38202 0
M  V30 11471 C 1077.34 -5.16073 0.804081 0
M  V30 11472 H 1079.03 -2.90272 0.733661 0
M  V30 11473 H 1076.58 -1.39574 0.354259 0
M  V30 11474 H 1078.53 -3.9506 -1.46647 0
M  V30 11475 H 1077.26 -2.74535 -1.76913 0
M  V30 11476 H 1075.92 -3.66268 0.155995 0
M  V30 11477 H 1075.56 -4.54351 -2.1581 0
M  V30 11478 H 1075.26 -5.80148 -0.932878 0
M  V30 11479 H 1076.79 -5.81414 -1.86522 0
M  V30 11480 H 1078.2 -5.71873 0.404212 0
M  V30 11481 H 1076.6 -5.88427 1.17789 0
M  V30 11482 H 1077.67 -4.55574 1.66073 0
M  V30 11483 N 1079.01 -0.398486 -1.52479 0
M  V30 11484 C 1080.43 -0.0488635 -1.59525 0
M  V30 11485 C 1080.63 1.43756 -1.41197 0
M  V30 11486 O 1079.69 2.20317 -1.23357 0
M  V30 11487 C 1081 -0.534262 -2.95916 0
M  V30 11488 C 1082.55 -0.491314 -3.0912 0
M  V30 11489 C 1083.02 -0.953049 -4.47974 0
M  V30 11490 N 1084.51 -0.909434 -4.54184 0
M  V30 11491 C 1085.25 -1.23801 -5.59876 0
M  V30 11492 N 1084.74 -1.63752 -6.73169 0
M  V30 11493 N 1086.54 -1.15867 -5.50028 0
M  V30 11494 H 1078.69 -1.36608 -1.62641 0
M  V30 11495 H 1080.95 -0.560515 -0.764544 0
M  V30 11496 H 1080.66 -1.57277 -3.14574 0
M  V30 11497 H 1080.53 0.0617787 -3.77149 0
M  V30 11498 H 1082.92 0.538123 -2.90152 0
M  V30 11499 H 1083 -1.12327 -2.29818 0
M  V30 11500 H 1082.64 -1.98076 -4.67684 0
M  V30 11501 H 1082.57 -0.298007 -5.25756 0
M  V30 11502 H 1085.06 -0.615569 -3.72853 0
M  V30 11503 H 1085.38 -1.87163 -7.49793 0
M  V30 11504 H 1083.72 -1.67647 -6.74477 0
M  V30 11505 H 1086.91 -0.845502 -4.60401 0
M  V30 11506 H 1087.09 -1.41805 -6.32294 0
M  V30 11507 N 1080.49 1.57075 -0.12858 0
M  V30 11508 C 1081.44 2.15816 0.818064 0
M  V30 11509 C 1082.41 1.08581 1.25696 0
M  V30 11510 O 1083.59 1.36535 1.33277 0
M  V30 11511 C 1080.73 2.76943 2.05905 0
M  V30 11512 C 1079.85 3.98514 1.66764 0
M  V30 11513 C 1078.98 4.47698 2.85902 0
M  V30 11514 C 1078.02 5.61778 2.43047 0
M  V30 11515 N 1077.16 6.05662 3.5513 0
M  V30 11516 H 1082 2.9638 0.310318 0
M  V30 11517 H 1079.53 1.46418 0.141472 0
M  V30 11518 H 1081.49 3.10519 2.78629 0
M  V30 11519 H 1080.12 1.99053 2.54122 0
M  V30 11520 H 1079.17 3.71038 0.838766 0
M  V30 11521 H 1080.49 4.81215 1.31277 0
M  V30 11522 H 1079.64 4.83233 3.66839 0
M  V30 11523 H 1078.38 3.63967 3.24622 0
M  V30 11524 H 1077.38 5.25838 1.60544 0
M  V30 11525 H 1078.61 6.47282 2.05433 0
M  V30 11526 H 1076.56 5.2487 3.93506 0
M  V30 11527 H 1076.47 6.83242 3.23598 0
M  V30 11528 H 1077.74 6.45838 4.36479 0
M  V30 11529 N 1081.97 -0.145205 1.5693 0
M  V30 11530 C 1082.9 -1.20881 1.93553 0
M  V30 11531 C 1083.88 -1.41467 0.801612 0
M  V30 11532 O 1085.06 -1.5605 1.05739 0
M  V30 11533 C 1082.19 -2.5674 2.20912 0
M  V30 11534 C 1081.24 -2.52738 3.43549 0
M  V30 11535 S 1082.07 -1.99257 4.97048 0
M  V30 11536 C 1083.23 -3.36842 5.27531 0
M  V30 11537 H 1083.46 -0.896362 2.83465 0
M  V30 11538 H 1080.99 -0.350894 1.5036 0
M  V30 11539 H 1082.95 -3.34923 2.37354 0
M  V30 11540 H 1081.61 -2.85174 1.31661 0
M  V30 11541 H 1080.8 -3.52753 3.59974 0
M  V30 11542 H 1080.41 -1.82665 3.26358 0
M  V30 11543 H 1082.7 -4.32958 5.21108 0
M  V30 11544 H 1083.64 -3.25268 6.28973 0
M  V30 11545 H 1084.05 -3.3406 4.55043 0
M  V30 11546 N 1083.45 -1.52049 -0.414609 0
M  V30 11547 C 1084.38 -1.77956 -1.51175 0
M  V30 11548 C 1085.36 -0.630282 -1.57992 0
M  V30 11549 O 1086.54 -0.875324 -1.73354 0
M  V30 11550 C 1083.67 -1.92527 -2.89051 0
M  V30 11551 C 1082.63 -3.08096 -2.97087 0
M  V30 11552 C 1081.95 -3.07882 -4.37164 0
M  V30 11553 C 1083.25 -4.47656 -2.69075 0
M  V30 11554 H 1084.95 -2.69827 -1.29746 0
M  V30 11555 H 1082.49 -1.29839 -0.62273 0
M  V30 11556 H 1084.45 -2.09234 -3.65786 0
M  V30 11557 H 1083.17 -0.973235 -3.11762 0
M  V30 11558 H 1081.83 -2.91131 -2.22797 0
M  V30 11559 H 1081.48 -2.10411 -4.56877 0
M  V30 11560 H 1081.18 -3.85501 -4.43467 0
M  V30 11561 H 1082.7 -3.26712 -5.15841 0
M  V30 11562 H 1084.12 -4.64855 -3.35534 0
M  V30 11563 H 1082.51 -5.27151 -2.8676 0
M  V30 11564 H 1083.58 -4.56129 -1.64544 0
M  V30 11565 N 1084.93 0.6715 -1.42579 0
M  V30 11566 C 1086.17 1.42731 -1.42516 0
M  V30 11567 C 1086.49 1.95545 -0.0462407 0
M  V30 11568 O 1087.69 2.71391 0.0769798 0
M  V30 11569 C 1086.15 2.58215 -2.50705 0
M  V30 11570 C 1085.76 2.12086 -3.94618 0
M  V30 11571 C 1087.5 3.35705 -2.59813 0
M  V30 11572 C 1085.41 3.24672 -4.9431 0
M  V30 11573 H 1084.34 0.536218 -0.530081 0
M  V30 11574 H 1086.99 0.726655 -1.68499 0
M  V30 11575 H 1085.37 3.30665 -2.17892 0
M  V30 11576 H 1086.55 1.46768 -4.36802 0
M  V30 11577 H 1084.86 1.47526 -3.89391 0
M  V30 11578 H 1087.46 4.1956 -3.31472 0
M  V30 11579 H 1087.8 3.82517 -1.64276 0
M  V30 11580 H 1088.33 2.70326 -2.91836 0
M  V30 11581 H 1085.07 2.82848 -5.91335 0
M  V30 11582 H 1084.59 3.88761 -4.56755 0
M  V30 11583 H 1086.27 3.90088 -5.16179 0
M  V30 11584 N 1086.4 1.28806 0.908124 0
M  V30 11585 C 1087.34 1.09018 2.01613 0
M  V30 11586 C 1088.35 0.0402059 1.6275 0
M  V30 11587 O 1089.54 0.283853 1.76229 0
M  V30 11588 C 1086.64 0.635712 3.32884 0
M  V30 11589 C 1085.81 1.76235 4.00325 0
M  V30 11590 C 1084.87 1.3003 5.09881 0
M  V30 11591 O 1083.9 2.00354 5.32773 0
M  V30 11592 N 1085.1 0.166575 5.80261 0
M  V30 11593 H 1087.86 2.0444 2.19144 0
M  V30 11594 H 1085.42 1.20633 1.07978 0
M  V30 11595 H 1087.42 0.310097 4.0351 0
M  V30 11596 H 1085.99 -0.225816 3.11783 0
M  V30 11597 H 1085.21 2.25727 3.23173 0
M  V30 11598 H 1086.49 2.51796 4.42127 0
M  V30 11599 H 1085.89 -0.419934 5.64139 0
M  V30 11600 H 1084.45 -0.0997281 6.51724 0
M  V30 11601 N 1087.88 -1.11734 1.11145 0
M  V30 11602 C 1089.13 -1.82766 0.853194 0
M  V30 11603 C 1089.44 -1.85408 -0.623168 0
M  V30 11604 O 1090.65 -2.52509 -0.997574 0
M  V30 11605 C 1089.11 -3.28215 1.47658 0
M  V30 11606 C 1088.71 -3.33911 2.98676 0
M  V30 11607 C 1090.46 -4.04168 1.29803 0
M  V30 11608 C 1088.36 -4.73739 3.54013 0
M  V30 11609 H 1087.29 -0.684807 0.315523 0
M  V30 11610 H 1089.95 -1.25756 1.33633 0
M  V30 11611 H 1088.33 -3.85138 0.921116 0
M  V30 11612 H 1089.5 -2.86887 3.606 0
M  V30 11613 H 1087.82 -2.71437 3.15771 0
M  V30 11614 H 1090.41 -5.07429 1.68582 0
M  V30 11615 H 1090.76 -4.15606 0.240302 0
M  V30 11616 H 1091.29 -3.53623 1.82196 0
M  V30 11617 H 1088.03 -4.67497 4.59485 0
M  V30 11618 H 1087.55 -5.21186 2.9686 0
M  V30 11619 H 1089.23 -5.42691 3.52271 0
M  V30 11620 N 1089.36 -0.901303 -1.29284 0
M  V30 11621 C 1090.29 -0.396909 -2.30102 0
M  V30 11622 C 1091.27 0.528919 -1.61668 0
M  V30 11623 O 1092.46 0.439306 -1.89166 0
M  V30 11624 C 1089.59 0.375006 -3.45269 0
M  V30 11625 C 1088.54 -0.46054 -4.25515 0
M  V30 11626 C 1087.87 0.438967 -5.32895 0
M  V30 11627 C 1089.17 -1.7113 -4.93469 0
M  V30 11628 H 1090.86 -1.23943 -2.72541 0
M  V30 11629 H 1088.41 -0.597428 -1.31022 0
M  V30 11630 H 1090.36 0.738622 -4.14876 0
M  V30 11631 H 1089.08 1.25132 -3.01678 0
M  V30 11632 H 1087.74 -0.80651 -3.57618 0
M  V30 11633 H 1087.39 1.31346 -4.85548 0
M  V30 11634 H 1087.09 -0.116406 -5.87485 0
M  V30 11635 H 1088.61 0.79874 -6.05353 0
M  V30 11636 H 1090.03 -1.41732 -5.55504 0
M  V30 11637 H 1088.42 -2.20811 -5.57999 0
M  V30 11638 H 1089.49 -2.44636 -4.18666 0
M  V30 11639 N 1090.84 1.42931 -0.663954 0
M  V30 11640 C 1092.07 2.06028 -0.189808 0
M  V30 11641 C 1092.48 1.49827 1.14879 0
M  V30 11642 O 1091.84 0.633778 1.71142 0
M  V30 11643 C 1091.89 3.61349 -0.104343 0
M  V30 11644 O 1091.61 4.15463 -1.39004 0
M  V30 11645 C 1093.11 4.4154 0.394599 0
M  V30 11646 H 1090.33 0.664259 -0.0948744 0
M  V30 11647 H 1092.87 1.83255 -0.907632 0
M  V30 11648 H 1091.03 3.83271 0.564103 0
M  V30 11649 H 1091.44 5.09233 -1.25626 0
M  V30 11650 H 1092.92 5.50525 0.403329 0
M  V30 11651 H 1093.39 4.1534 1.4279 0
M  V30 11652 H 1094 4.24612 -0.241729 0
M  V30 11653 N 1092.32 0.406567 1.52266 0
M  V30 11654 C 1093.23 -0.4271 2.30679 0
M  V30 11655 C 1094.24 -1.0559 1.383 0
M  V30 11656 O 1095.42 -1.05797 1.71374 0
M  V30 11657 C 1092.48 -1.53008 3.1111 0
M  V30 11658 C 1091.54 -0.924604 4.19225 0
M  V30 11659 C 1090.78 -1.97502 4.95811 0
M  V30 11660 O 1091 -3.19277 4.72671 0
M  V30 11661 O 1089.93 -1.58268 5.80719 0
M  V30 11662 H 1093.76 0.212187 3.02958 0
M  V30 11663 H 1091.34 0.169835 1.48432 0
M  V30 11664 H 1093.23 -2.17046 3.61205 0
M  V30 11665 H 1091.9 -2.15401 2.41628 0
M  V30 11666 H 1090.81 -0.247009 3.73284 0
M  V30 11667 H 1092.14 -0.34463 4.90992 0
M  V30 11668 N 1093.79 -1.57004 0.136909 0
M  V30 11669 C 1094.72 -2.19262 -0.802902 0
M  V30 11670 C 1095.71 -1.13786 -1.26439 0
M  V30 11671 O 1096.89 -1.42091 -1.32377 0
M  V30 11672 C 1094.02 -2.80624 -2.04615 0
M  V30 11673 C 1092.97 -3.91839 -1.72181 0
M  V30 11674 C 1092.3 -4.4009 -3.03686 0
M  V30 11675 C 1093.6 -5.13095 -0.976249 0
M  V30 11676 H 1095.29 -2.98049 -0.28406 0
M  V30 11677 H 1092.84 -1.43364 -0.135189 0
M  V30 11678 H 1094.79 -3.22842 -2.70834 0
M  V30 11679 H 1093.52 -1.99153 -2.58855 0
M  V30 11680 H 1092.18 -3.50224 -1.08344 0
M  V30 11681 H 1091.82 -3.55454 -3.55896 0
M  V30 11682 H 1091.52 -5.15098 -2.82751 0
M  V30 11683 H 1093.05 -4.84971 -3.70993 0
M  V30 11684 H 1094.46 -5.5222 -1.54033 0
M  V30 11685 H 1092.86 -5.93801 -0.867214 0
M  V30 11686 H 1093.93 -4.84888 0.0338488 0
M  V30 11687 N 1095.27 0.136881 -1.57004 0
M  V30 11688 C 1096.18 1.18793 -2.023 0
M  V30 11689 C 1097.2 1.46412 -0.94018 0
M  V30 11690 O 1098.37 1.57883 -1.2504 0
M  V30 11691 C 1095.44 2.49903 -2.40311 0
M  V30 11692 C 1094.5 2.29841 -3.6259 0
M  V30 11693 C 1093.73 3.54699 -3.98779 0
M  V30 11694 O 1093.96 4.61291 -3.3551 0
M  V30 11695 O 1092.89 3.46761 -4.91976 0
M  V30 11696 H 1096.72 0.833345 -2.92043 0
M  V30 11697 H 1094.3 0.346361 -1.4533 0
M  V30 11698 H 1096.18 3.27183 -2.65574 0
M  V30 11699 H 1094.86 2.84872 -1.5372 0
M  V30 11700 H 1093.77 1.50478 -3.42501 0
M  V30 11701 H 1095.1 1.99784 -4.4983 0
M  V30 11702 N 1096.75 1.52266 0.40654 0
M  V30 11703 C 1097.7 1.72175 1.49465 0
M  V30 11704 C 1098.68 0.575668 1.50249 0
M  V30 11705 O 1099.88 0.832835 1.56182 0
M  V30 11706 C 1097.01 1.87818 2.87366 0
M  V30 11707 C 1096.09 3.08305 2.91219 0
M  V30 11708 N 1096.48 4.30967 2.64766 0
M  V30 11709 C 1094.78 3.08192 3.22388 0
M  V30 11710 C 1095.48 5.12455 2.75254 0
M  V30 11711 N 1094.46 4.47758 3.08242 0
M  V30 11712 H 1098.26 2.64653 1.27812 0
M  V30 11713 H 1095.77 1.50334 0.61428 0
M  V30 11714 H 1097.77 2.00198 3.65686 0
M  V30 11715 H 1096.43 0.965414 3.10016 0
M  V30 11716 H 1097.44 4.59397 2.39113 0
M  V30 11717 H 1094.12 2.26662 3.50615 0
M  V30 11718 H 1095.51 6.20186 2.58495 0
M  V30 11719 N 1098.23 -0.663929 1.42933 0
M  V30 11720 C 1099.45 -1.45691 1.47611 0
M  V30 11721 C 1099.88 -1.87875 0.0920305 0
M  V30 11722 O 1099.24 -1.56696 -0.91192 0
M  V30 11723 C 1099.28 -2.67517 2.41799 0
M  V30 11724 O 1098.39 -3.66187 1.89686 0
M  V30 11725 H 1097.73 -0.437257 0.499702 0
M  V30 11726 H 1100.26 -0.813397 1.87737 0
M  V30 11727 H 1100.27 -3.1546 2.58745 0
M  V30 11728 H 1098.94 -2.36155 3.4235 0
M  V30 11729 H 1097.52 -3.25274 1.82349 0
M  V30 11730 N 1099.71 -1.29285 -0.901281 0
M  V30 11731 C 1100.95 -1.16934 -1.64836 0
M  V30 11732 C 1101.28 0.279826 -1.92982 0
M  V30 11733 O 1100.55 1.19179 -1.55478 0
M  V30 11734 H 1099.13 -0.429768 -0.61099 0
M  V30 11735 H 1101.79 -1.62189 -1.08077 0
M  V30 11736 H 1100.88 -1.71821 -2.60545 0
M  V30 11737 N 1101.18 1.11143 -1.11736 0
M  V30 11738 C 1102.43 1.82311 -0.862875 0
M  V30 11739 C 1102.75 1.85735 0.613326 0
M  V30 11740 O 1103.95 2.53034 0.984168 0
M  V30 11741 C 1102.41 3.27427 -1.49396 0
M  V30 11742 C 1102.02 3.32323 -3.00443 0
M  V30 11743 C 1103.76 4.03474 -1.31944 0
M  V30 11744 C 1101.67 4.71855 -3.56521 0
M  V30 11745 H 1100.6 0.683124 -0.31915 0
M  V30 11746 H 1103.25 1.25045 -1.34298 0
M  V30 11747 H 1101.63 3.84644 -0.941528 0
M  V30 11748 H 1102.8 2.84971 -3.62117 0
M  V30 11749 H 1101.12 2.69758 -3.17206 0
M  V30 11750 H 1103.72 5.06528 -1.71271 0
M  V30 11751 H 1104.06 4.15473 -0.262339 0
M  V30 11752 H 1104.59 3.52652 -1.84069 0
M  V30 11753 H 1101.33 4.65054 -4.61958 0
M  V30 11754 H 1100.85 5.19604 -2.99619 0
M  V30 11755 H 1102.53 5.40816 -3.55144 0
M  V30 11756 N 1102.66 0.908147 1.28804 0
M  V30 11757 C 1103.91 0.53734 1.94826 0
M  V30 11758 C 1104.23 -0.920962 1.71882 0
M  V30 11759 O 1103.5 -1.65043 1.05534 0
M  V30 11760 H 1102.08 0.195729 0.720902 0
M  V30 11761 H 1104.74 1.15628 1.56895 0
M  V30 11762 H 1103.84 0.727052 3.03513 0
M  V30 11763 N 1104.14 -1.42577 0.671525 0
M  V30 11764 C 1105.56 -1.5592 0.340769 0
M  V30 11765 C 1105.76 -1.65179 -1.15405 0
M  V30 11766 O 1104.81 -1.61691 -1.93939 0
M  V30 11767 C 1106.13 -2.81087 1.06821 0
M  V30 11768 C 1107.67 -2.94855 1.05022 0
M  V30 11769 C 1108.15 -4.22878 1.75892 0
M  V30 11770 N 1109.64 -4.29783 1.72744 0
M  V30 11771 C 1110.37 -5.2765 2.24439 0
M  V30 11772 N 1109.87 -6.31689 2.84501 0
M  V30 11773 N 1111.66 -5.19426 2.14832 0
M  V30 11774 H 1103.81 -1.34811 1.64133 0
M  V30 11775 H 1106.08 -0.648704 0.691294 0
M  V30 11776 H 1105.78 -2.80371 2.12332 0
M  V30 11777 H 1105.66 -3.71879 0.631356 0
M  V30 11778 H 1108.04 -2.951 0.00345633 0
M  V30 11779 H 1108.13 -2.05303 1.52592 0
M  V30 11780 H 1107.77 -4.23394 2.80535 0
M  V30 11781 H 1107.7 -5.1136 1.25773 0
M  V30 11782 H 1110.19 -3.55225 1.28932 0
M  V30 11783 H 1110.5 -7.02715 3.21575 0
M  V30 11784 H 1108.85 -6.3226 2.88569 0
M  V30 11785 H 1112.04 -4.37067 1.676 0
M  V30 11786 H 1112.21 -5.95535 2.55426 0
M  V30 11787 N 1105.62 -0.414636 -1.52048 0
M  V30 11788 C 1106.87 0.16073 -2.01059 0
M  V30 11789 C 1107.18 1.45753 -1.30443 0
M  V30 11790 O 1108.39 2.11448 -1.703 0
M  V30 11791 C 1106.84 0.336993 -3.58319 0
M  V30 11792 C 1106.45 -0.948037 -4.37854 0
M  V30 11793 C 1108.19 0.867353 -4.15545 0
M  V30 11794 C 1106.1 -0.738662 -5.86769 0
M  V30 11795 H 1105.03 0.0638419 -0.751292 0
M  V30 11796 H 1107.68 -0.540925 -1.75346 0
M  V30 11797 H 1106.06 1.10111 -3.80383 0
M  V30 11798 H 1107.24 -1.71873 -4.27547 0
M  V30 11799 H 1105.55 -1.40522 -3.91972 0
M  V30 11800 H 1108.15 1.04012 -5.24486 0
M  V30 11801 H 1108.49 1.84358 -3.73253 0
M  V30 11802 H 1109.03 0.162148 -3.97469 0
M  V30 11803 H 1105.77 -1.6866 -6.3343 0
M  V30 11804 H 1105.29 -0.00736294 -5.998 0
M  V30 11805 H 1106.96 -0.382978 -6.45866 0
M  V30 11806 N 1107.1 1.56929 -0.145233 0
M  V30 11807 C 1108.04 2.16671 0.795128 0
M  V30 11808 C 1109.01 1.09908 1.24537 0
M  V30 11809 O 1110.2 1.37941 1.31821 0
M  V30 11810 C 1107.34 2.79111 2.02956 0
M  V30 11811 C 1106.45 4.00261 1.62528 0
M  V30 11812 C 1105.59 4.50705 2.81137 0
M  V30 11813 C 1104.63 5.64324 2.37075 0
M  V30 11814 N 1103.76 6.09395 3.48687 0
M  V30 11815 H 1108.6 2.96692 0.278865 0
M  V30 11816 H 1106.14 1.4656 0.125934 0
M  V30 11817 H 1108.1 3.13456 2.7532 0
M  V30 11818 H 1106.73 2.01737 2.51996 0
M  V30 11819 H 1105.78 3.71906 0.799365 0
M  V30 11820 H 1107.09 4.8258 1.26166 0
M  V30 11821 H 1106.25 4.87096 3.61693 0
M  V30 11822 H 1104.98 3.67389 3.20744 0
M  V30 11823 H 1103.99 5.27511 1.54958 0
M  V30 11824 H 1105.21 6.49425 1.98556 0
M  V30 11825 H 1103.16 5.29014 3.87917 0
M  V30 11826 H 1103.08 6.86636 3.16333 0
M  V30 11827 H 1104.35 6.50431 4.29605 0
M  V30 11828 N 1108.58 -0.128553 1.57075 0
M  V30 11829 C 1109.49 -1.17718 2.02927 0
M  V30 11830 C 1110.5 -1.45912 0.947932 0
M  V30 11831 O 1111.68 -1.57217 1.25876 0
M  V30 11832 C 1108.74 -2.48625 2.41633 0
M  V30 11833 C 1107.8 -2.27914 3.63804 0
M  V30 11834 C 1107.04 -3.52579 4.00654 0
M  V30 11835 O 1107.26 -4.59505 3.37952 0
M  V30 11836 O 1106.19 -3.44147 4.93808 0
M  V30 11837 H 1110.02 -0.817846 2.92481 0
M  V30 11838 H 1107.6 -0.338649 1.45511 0
M  V30 11839 H 1109.49 -3.2577 2.67305 0
M  V30 11840 H 1108.16 -2.84052 1.55229 0
M  V30 11841 H 1107.07 -1.4866 3.43294 0
M  V30 11842 H 1108.4 -1.97395 4.50883 0
M  V30 11843 N 1110.05 -1.5248 -0.398459 0
M  V30 11844 C 1110.99 -1.72826 -1.50545 0
M  V30 11845 C 1112 -0.608683 -1.50993 0
M  V30 11846 O 1113.19 -0.88413 -1.55066 0
M  V30 11847 C 1110.29 -1.76327 -2.89417 0
M  V30 11848 C 1109.46 -3.05491 -3.1304 0
M  V30 11849 C 1108.52 -3.00663 -4.31843 0
M  V30 11850 O 1107.55 -3.74548 -4.28605 0
M  V30 11851 N 1108.75 -2.19191 -5.37527 0
M  V30 11852 H 1111.51 -2.68333 -1.33482 0
M  V30 11853 H 1109.07 -1.5085 -0.587875 0
M  V30 11854 H 1111.07 -1.70616 -3.66977 0
M  V30 11855 H 1109.64 -0.882476 -2.99885 0
M  V30 11856 H 1108.86 -3.24767 -2.23428 0
M  V30 11857 H 1110.14 -3.90915 -3.25673 0
M  V30 11858 H 1109.54 -1.58613 -5.43009 0
M  V30 11859 H 1108.1 -2.19328 -6.1379 0
M  V30 11860 N 1111.53 0.65634 -1.43283 0
M  V30 11861 C 1112.76 1.44906 -1.48382 0
M  V30 11862 C 1113.18 1.87823 -0.101993 0
M  V30 11863 O 1112.54 1.57178 0.903597 0
M  V30 11864 C 1112.59 2.66231 -2.43215 0
M  V30 11865 O 1111.69 3.65176 -1.91625 0
M  V30 11866 H 1111.03 0.434601 -0.502014 0
M  V30 11867 H 1113.56 0.803429 -1.88165 0
M  V30 11868 H 1113.57 3.14083 -2.60414 0
M  V30 11869 H 1112.25 2.34336 -3.43598 0
M  V30 11870 H 1110.82 3.24302 -1.84072 0
M  V30 11871 N 1113.01 1.29761 0.894412 0
M  V30 11872 C 1113.97 1.15335 1.98067 0
M  V30 11873 C 1114.97 0.0872804 1.60563 0
M  V30 11874 O 1116.16 0.334645 1.70955 0
M  V30 11875 C 1113.29 0.764907 3.32208 0
M  V30 11876 H 1114.49 2.11829 2.12293 0
M  V30 11877 H 1112.04 1.13023 1.0796 0
M  V30 11878 H 1112.78 -0.199948 3.23683 0
M  V30 11879 H 1112.56 1.53523 3.60795 0
M  V30 11880 H 1114.05 0.687176 4.11907 0
M  V30 11881 N 1114.49 -1.10549 1.12324 0
M  V30 11882 C 1115.9 -1.34508 0.85905 0
M  V30 11883 C 1116.1 -1.94901 -0.511468 0
M  V30 11884 O 1115.16 -2.18793 -1.2604 0
M  V30 11885 C 1116.47 -2.26788 1.97453 0
M  V30 11886 C 1118.02 -2.40328 2.00528 0
M  V30 11887 C 1118.5 -3.35936 3.11305 0
M  V30 11888 N 1119.99 -3.43504 3.1074 0
M  V30 11889 C 1120.72 -4.17449 3.93096 0
M  V30 11890 N 1120.22 -4.9429 4.85437 0
M  V30 11891 N 1122.01 -4.13055 3.81237 0
M  V30 11892 H 1114.16 -0.697171 2.00632 0
M  V30 11893 H 1116.42 -0.369548 0.873005 0
M  V30 11894 H 1116.13 -1.89621 2.96204 0
M  V30 11895 H 1116 -3.27086 1.87869 0
M  V30 11896 H 1118.39 -2.76765 1.02397 0
M  V30 11897 H 1118.47 -1.39849 2.14186 0
M  V30 11898 H 1118.12 -3.00225 4.09667 0
M  V30 11899 H 1118.05 -4.36291 2.94886 0
M  V30 11900 H 1120.54 -2.88702 2.43843 0
M  V30 11901 H 1120.85 -5.48109 5.4479 0
M  V30 11902 H 1119.2 -4.93419 4.89452 0
M  V30 11903 H 1122.39 -3.52117 3.08433 0
M  V30 11904 H 1122.56 -4.70424 4.45651 0
M  V30 11905 N 1115.97 -0.914965 -1.28321 0
M  V30 11906 C 1116.9 -0.348729 -2.2552 0
M  V30 11907 C 1117.88 0.547737 -1.53097 0
M  V30 11908 O 1119.06 0.491119 -1.8199 0
M  V30 11909 C 1116.19 0.501397 -3.34968 0
M  V30 11910 C 1115.23 -0.329859 -4.25223 0
M  V30 11911 S 1116.07 -1.73737 -5.06533 0
M  V30 11912 C 1117.22 -0.89458 -6.19474 0
M  V30 11913 H 1117.46 -1.17256 -2.732 0
M  V30 11914 H 1114.99 -0.716297 -1.36779 0
M  V30 11915 H 1116.95 0.986061 -3.98481 0
M  V30 11916 H 1115.61 1.29962 -2.85952 0
M  V30 11917 H 1114.8 0.320236 -5.02982 0
M  V30 11918 H 1114.4 -0.748221 -3.66439 0
M  V30 11919 H 1116.69 -0.124776 -6.77385 0
M  V30 11920 H 1117.64 -1.64475 -6.88733 0
M  V30 11921 H 1118.05 -0.442217 -5.62765 0
M  V30 11922 N 1117.44 1.42219 -0.679077 0
M  V30 11923 C 1118.37 2.33493 -0.0174528 0
M  V30 11924 C 1119.35 1.50915 0.78477 0
M  V30 11925 O 1120.54 1.79504 0.741065 0
M  V30 11926 C 1117.67 3.34576 0.931463 0
M  V30 11927 C 1116.62 4.2734 0.237527 0
M  V30 11928 C 1115.95 5.18664 1.29967 0
M  V30 11929 C 1117.25 5.14729 -0.886082 0
M  V30 11930 H 1118.94 2.89068 -0.779748 0
M  V30 11931 H 1116.49 1.38993 -0.376419 0
M  V30 11932 H 1118.44 3.97343 1.40343 0
M  V30 11933 H 1117.17 2.77315 1.72523 0
M  V30 11934 H 1115.83 3.65973 -0.214245 0
M  V30 11935 H 1115.47 4.57727 2.08554 0
M  V30 11936 H 1115.17 5.81558 0.840463 0
M  V30 11937 H 1116.7 5.84308 1.77249 0
M  V30 11938 H 1118.11 5.71158 -0.495141 0
M  V30 11939 H 1116.51 5.86478 -1.27135 0
M  V30 11940 H 1117.58 4.52874 -1.733 0
M  V30 11941 N 1118.92 0.422693 1.51826 0
M  V30 11942 C 1120.17 -0.148348 2.01555 0
M  V30 11943 C 1120.49 -1.44483 1.30956 0
M  V30 11944 O 1119.76 -1.90904 0.439599 0
M  V30 11945 H 1118.34 -0.0578116 0.74476 0
M  V30 11946 H 1121 0.562046 1.8662 0
M  V30 11947 H 1120.1 -0.334766 3.10299 0
M  V30 11948 N 1120.4 -1.5685 0.153553 0
M  V30 11949 C 1121.35 -2.13671 -0.795526 0
M  V30 11950 C 1122.33 -1.06624 -1.20499 0
M  V30 11951 O 1123.53 -1.32788 -1.17032 0
M  V30 11952 C 1120.65 -2.76704 -2.03199 0
M  V30 11953 C 1119.74 -3.90884 -1.64532 0
M  V30 11954 N 1120.13 -4.96466 -0.96723 0
M  V30 11955 C 1118.43 -4.01713 -1.93759 0
M  V30 11956 C 1119.13 -5.76453 -0.779527 0
M  V30 11957 N 1118.11 -5.27444 -1.31544 0
M  V30 11958 H 1121.91 -2.92673 -0.268288 0
M  V30 11959 H 1119.42 -1.6233 -0.0477596 0
M  V30 11960 H 1121.42 -3.15777 -2.72196 0
M  V30 11961 H 1120.08 -1.99177 -2.56434 0
M  V30 11962 H 1121.09 -5.14087 -0.627253 0
M  V30 11963 H 1117.77 -3.3527 -2.48797 0
M  V30 11964 H 1119.16 -6.71455 -0.244604 0
M  V30 11965 N 1121.88 0.120221 -1.57141 0
M  V30 11966 C 1122.81 1.14876 -2.03287 0
M  V30 11967 C 1123.79 1.43259 -0.917112 0
M  V30 11968 O 1124.97 1.53721 -1.18674 0
M  V30 11969 C 1122.1 2.47525 -2.43616 0
M  V30 11970 C 1121.06 2.33607 -3.58625 0
M  V30 11971 C 1120.38 3.71207 -3.84849 0
M  V30 11972 C 1121.68 1.79761 -4.90391 0
M  V30 11973 H 1123.38 0.764943 -2.89463 0
M  V30 11974 H 1120.92 0.366516 -1.39258 0
M  V30 11975 H 1122.88 3.19728 -2.74504 0
M  V30 11976 H 1121.6 2.87794 -1.54409 0
M  V30 11977 H 1120.26 1.63853 -3.27945 0
M  V30 11978 H 1119.91 4.0896 -2.9285 0
M  V30 11979 H 1119.61 3.62749 -4.62263 0
M  V30 11980 H 1121.13 4.44917 -4.18188 0
M  V30 11981 H 1122.55 2.4178 -5.19822 0
M  V30 11982 H 1120.94 1.82126 -5.71795 0
M  V30 11983 H 1122.01 0.755087 -4.78985 0
M  V30 11984 N 1123.36 1.52689 0.390367 0
M  V30 11985 C 1124.6 1.67914 1.13722 0
M  V30 11986 C 1124.94 0.417159 1.89667 0
M  V30 11987 O 1124.21 -0.585005 1.85494 0
M  V30 11988 C 1124.49 2.91331 2.11656 0
M  V30 11989 C 1124.35 4.27626 1.39484 0
M  V30 11990 C 1125.67 3.10293 3.12099 0
M  V30 11991 H 1122.78 0.611047 0.412057 0
M  V30 11992 H 1125.43 1.85283 0.420753 0
M  V30 11993 H 1123.58 2.76654 2.72754 0
M  V30 11994 H 1125.25 4.54068 0.813607 0
M  V30 11995 H 1123.49 4.28169 0.69669 0
M  V30 11996 H 1124.16 5.10066 2.11038 0
M  V30 11997 H 1126.64 3.23992 2.6109 0
M  V30 11998 H 1125.51 3.98127 3.7787 0
M  V30 11999 H 1125.78 2.24448 3.80888 0
M  V30 12000 N 1124.83 -0.648732 1.43629 0
M  V30 12001 C 1126.06 -1.44117 1.49148 0
M  V30 12002 C 1126.48 -1.87767 0.111952 0
M  V30 12003 O 1125.84 -1.57655 -0.895249 0
M  V30 12004 C 1125.89 -2.64938 2.44623 0
M  V30 12005 O 1124.99 -3.64155 1.93559 0
M  V30 12006 H 1124.34 -0.431933 0.504312 0
M  V30 12007 H 1126.87 -0.793439 1.88589 0
M  V30 12008 H 1126.88 -3.12698 2.62076 0
M  V30 12009 H 1125.55 -2.3251 3.44836 0
M  V30 12010 H 1124.13 -3.23322 1.85789 0
M  V30 12011 N 1126.31 -1.30234 -0.887518 0
M  V30 12012 C 1127.26 -1.16302 -2.01436 0
M  V30 12013 C 1128.25 -0.0755422 -1.69231 0
M  V30 12014 O 1129.46 -0.236213 -1.78443 0
M  V30 12015 H 1125.84 -0.35961 -0.660443 0
M  V30 12016 H 1127.81 -2.11677 -2.10322 0
M  V30 12017 C 1126.56 -0.869009 -3.36665 0
M  V30 12018 H 1125.88 -1.69787 -3.61956 0
M  V30 12019 H 1127.32 -0.811621 -4.16159 0
M  V30 12020 C 1125.78 0.428021 -3.3417 0
M  V30 12021 O 1126.31 1.45033 -3.74604 0
M  V30 12022 N 1124.51 0.438264 -2.87276 0
M  V30 12023 H 1124.06 -0.394142 -2.54567 0
M  V30 12024 H 1124.02 1.30604 -2.85989 0
M  V30 12025 N 1127.79 1.09952 -1.12909 0
M  V30 12026 C 1128.75 2.14615 -0.804548 0
M  V30 12027 C 1129.75 1.5975 0.18345 0
M  V30 12028 O 1130.94 1.74147 -0.0429623 0
M  V30 12029 C 1128.08 3.40333 -0.196471 0
M  V30 12030 H 1129.27 2.44835 -1.73193 0
M  V30 12031 H 1126.82 1.25399 -0.932997 0
M  V30 12032 H 1127.56 3.15735 0.740388 0
M  V30 12033 H 1127.34 3.81444 -0.907886 0
M  V30 12034 H 1128.83 4.17598 0.0139264 0
M  V30 12035 N 1129.27 0.921757 1.27833 0
M  V30 12036 C 1130.68 0.604496 1.76643 0
M  V30 12037 C 1131.03 -0.880294 1.75343 0
M  V30 12038 O 1130.16 -1.68875 1.35315 0
M  V30 12039 C 1130.75 1.09055 3.20768 0
M  V30 12040 C 1129.31 0.824066 3.67268 0
M  V30 12041 C 1128.46 1.25269 2.47392 0
M  V30 12042 H 1131.41 1.10217 1.14184 0
M  V30 12043 H 1131.43 0.435558 3.77999 0
M  V30 12044 H 1130.94 2.17122 3.21682 0
M  V30 12045 H 1129.04 -0.243055 3.71806 0
M  V30 12046 H 1129.15 1.43743 4.57028 0
M  V30 12047 H 1127.52 0.671313 2.45694 0
M  V30 12048 H 1128.3 2.34188 2.5102 0
M  V30 12049 N 1130.75 -1.41857 0.686609 0
M  V30 12050 C 1132.16 -1.55549 0.357288 0
M  V30 12051 C 1132.36 -1.66394 -1.13646 0
M  V30 12052 O 1131.42 -1.63739 -1.92213 0
M  V30 12053 C 1132.73 -2.79938 1.09796 0
M  V30 12054 C 1134.28 -2.93724 1.08143 0
M  V30 12055 C 1134.75 -4.20989 1.80367 0
M  V30 12056 N 1136.25 -4.27927 1.77293 0
M  V30 12057 C 1136.98 -5.2524 2.30022 0
M  V30 12058 N 1136.48 -6.28636 2.91185 0
M  V30 12059 N 1138.27 -5.17118 2.20329 0
M  V30 12060 H 1130.42 -1.33063 1.65554 0
M  V30 12061 H 1132.68 -0.641335 0.698135 0
M  V30 12062 H 1132.39 -2.78104 2.15293 0
M  V30 12063 H 1132.26 -3.71188 0.670763 0
M  V30 12064 H 1134.65 -2.9508 0.0347554 0
M  V30 12065 H 1134.73 -2.03673 1.54761 0
M  V30 12066 H 1134.38 -4.20395 2.85009 0
M  V30 12067 H 1134.31 -5.09997 1.3119 0
M  V30 12068 H 1136.8 -3.53838 1.32692 0
M  V30 12069 H 1137.11 -6.99265 3.29011 0
M  V30 12070 H 1135.45 -6.29164 2.95259 0
M  V30 12071 H 1138.65 -4.35265 1.72226 0
M  V30 12072 H 1138.82 -5.92792 2.61728 0
M  V30 12073 N 1132.22 -0.430739 -1.51599 0
M  V30 12074 C 1133.15 0.374695 -2.30474 0
M  V30 12075 C 1134.14 1.02694 -1.35602 0
M  V30 12076 O 1135.32 1.03184 -1.6452 0
M  V30 12077 C 1132.45 1.47981 -3.14196 0
M  V30 12078 C 1131.4 0.951415 -4.17291 0
M  V30 12079 C 1130.73 2.15177 -4.89492 0
M  V30 12080 C 1132.03 -0.00957951 -5.22299 0
M  V30 12081 H 1133.72 -0.283508 -2.98055 0
M  V30 12082 H 1131.27 -0.13779 -1.43339 0
M  V30 12083 H 1133.22 2.05043 -3.68151 0
M  V30 12084 H 1131.95 2.16621 -2.44424 0
M  V30 12085 H 1130.61 0.403052 -3.64378 0
M  V30 12086 H 1130.25 2.82421 -4.1623 0
M  V30 12087 H 1129.95 1.80464 -5.59202 0
M  V30 12088 H 1131.48 2.72806 -5.46269 0
M  V30 12089 H 1132.89 0.470527 -5.71366 0
M  V30 12090 H 1131.29 -0.268959 -5.99497 0
M  V30 12091 H 1132.36 -0.948297 -4.75537 0
M  V30 12092 N 1133.7 1.56767 -0.161869 0
M  V30 12093 C 1134.95 1.95769 0.485536 0
M  V30 12094 C 1135.26 1.05006 1.65025 0
M  V30 12095 O 1136.47 1.33649 2.36326 0
M  V30 12096 C 1134.93 3.4807 0.915176 0
M  V30 12097 C 1134.53 4.47443 -0.223416 0
M  V30 12098 C 1136.28 3.95909 1.53153 0
M  V30 12099 C 1134.19 5.90971 0.225325 0
M  V30 12100 H 1133.12 0.730911 0.185161 0
M  V30 12101 H 1135.77 1.81808 -0.248592 0
M  V30 12102 H 1134.15 3.57415 1.705 0
M  V30 12103 H 1135.32 4.49805 -1.00061 0
M  V30 12104 H 1133.64 4.09606 -0.749127 0
M  V30 12105 H 1136.23 5.00592 1.87915 0
M  V30 12106 H 1136.58 3.38307 2.42599 0
M  V30 12107 H 1137.11 3.89542 0.806322 0
M  V30 12108 H 1133.85 6.52426 -0.634124 0
M  V30 12109 H 1133.37 5.91936 0.96808 0
M  V30 12110 H 1135.05 6.43497 0.672373 0
M  V30 12111 N 1135.18 -0.111886 1.57202 0
M  V30 12112 C 1136.6 -0.465629 1.52657 0
M  V30 12113 C 1136.8 -1.81463 0.875989 0
M  V30 12114 O 1135.85 -2.4825 0.461345 0
M  V30 12115 C 1137.17 -0.443571 2.9741 0
M  V30 12116 C 1138.71 -0.52662 3.08538 0
M  V30 12117 C 1139.19 -0.53488 4.54866 0
M  V30 12118 N 1140.68 -0.596117 4.59348 0
M  V30 12119 C 1141.41 -0.624073 5.69994 0
M  V30 12120 N 1140.91 -0.609245 6.90116 0
M  V30 12121 N 1142.7 -0.667619 5.58121 0
M  V30 12122 H 1134.85 0.771925 1.97876 0
M  V30 12123 H 1137.12 0.285534 0.903977 0
M  V30 12124 H 1136.82 0.480138 3.48407 0
M  V30 12125 H 1136.7 -1.26876 3.55221 0
M  V30 12126 H 1139.08 -1.44075 2.57539 0
M  V30 12127 H 1139.17 0.326396 2.53709 0
M  V30 12128 H 1138.81 0.375233 5.06512 0
M  V30 12129 H 1138.74 -1.40488 5.07514 0
M  V30 12130 H 1141.23 -0.613452 3.72888 0
M  V30 12131 H 1141.54 -0.633396 7.702 0
M  V30 12132 H 1139.89 -0.576557 6.92604 0
M  V30 12133 H 1143.08 -0.676616 4.63184 0
M  V30 12134 H 1143.25 -0.685938 6.44359 0
M  V30 12135 N 1136.66 -1.52894 -0.382264 0
M  V30 12136 C 1138.07 -1.60135 -0.959887 0
M  V30 12137 C 1138.42 -0.458363 -1.90771 0
M  V30 12138 O 1137.55 0.417614 -2.12332 0
M  V30 12139 C 1138.14 -2.90243 -1.74769 0
M  V30 12140 C 1136.7 -2.99874 -2.27491 0
M  V30 12141 C 1135.85 -2.55302 -1.0824 0
M  V30 12142 H 1138.8 -1.57875 -0.161589 0
M  V30 12143 H 1138.82 -2.77108 -2.60751 0
M  V30 12144 H 1138.33 -3.73412 -1.0576 0
M  V30 12145 H 1136.43 -2.21258 -2.99793 0
M  V30 12146 H 1136.54 -4.04643 -2.56516 0
M  V30 12147 H 1134.91 -2.09781 -1.44444 0
M  V30 12148 H 1135.69 -3.40872 -0.407553 0
M  V30 12149 N 1138.14 0.641106 -1.43971 0
M  V30 12150 C 1139.37 1.42622 -1.49475 0
M  V30 12151 C 1139.78 1.8885 -0.115068 0
M  V30 12152 O 1139.12 1.60846 0.887378 0
M  V30 12153 C 1139.18 2.68643 -2.38896 0
M  V30 12154 C 1138.84 2.44276 -3.86236 0
M  V30 12155 C 1139.84 2.06732 -4.7703 0
M  V30 12156 C 1137.53 2.58225 -4.30842 0
M  V30 12157 C 1139.52 1.83451 -6.1043 0
M  V30 12158 C 1137.21 2.34559 -5.64292 0
M  V30 12159 C 1138.21 1.97229 -6.53903 0
M  V30 12160 O 1137.89 1.73819 -7.84884 0
M  V30 12161 H 1137.63 0.444187 -0.509582 0
M  V30 12162 H 1140.18 0.792179 -1.89509 0
M  V30 12163 H 1138.41 3.34649 -1.93771 0
M  V30 12164 H 1140.1 3.30623 -2.35464 0
M  V30 12165 H 1140.86 1.95521 -4.43843 0
M  V30 12166 H 1136.74 2.86253 -3.61359 0
M  V30 12167 H 1140.29 1.54238 -6.80335 0
M  V30 12168 H 1136.18 2.45376 -5.97043 0
M  V30 12169 H 1136.95 1.88146 -7.96582 0
M  V30 12170 N 1139.62 1.30703 0.880598 0
M  V30 12171 C 1140.55 1.11783 1.98947 0
M  V30 12172 C 1141.53 0.0242461 1.62582 0
M  V30 12173 O 1142.71 0.178641 1.87652 0
M  V30 12174 C 1139.84 0.705762 3.31265 0
M  V30 12175 C 1138.88 1.80084 3.86616 0
M  V30 12176 S 1139.72 3.40416 4.13373 0
M  V30 12177 C 1140.87 3.01122 5.48704 0
M  V30 12178 H 1141.11 2.05658 2.14691 0
M  V30 12179 H 1138.64 1.15067 1.02951 0
M  V30 12180 H 1140.6 0.474754 4.07745 0
M  V30 12181 H 1139.26 -0.213699 3.13372 0
M  V30 12182 H 1138.45 1.4649 4.82241 0
M  V30 12183 H 1138.05 1.98636 3.16891 0
M  V30 12184 H 1140.34 2.49355 6.29943 0
M  V30 12185 H 1141.29 3.95671 5.87239 0
M  V30 12186 H 1141.7 2.38865 5.11472 0
M  V30 12187 N 1141.09 -1.09351 1.1349 0
M  V30 12188 C 1142 -2.19564 0.826366 0
M  V30 12189 C 1143.02 -1.72967 -0.189339 0
M  V30 12190 O 1144.2 -2.0139 -0.0202033 0
M  V30 12191 C 1141.26 -3.4542 0.297685 0
M  V30 12192 C 1140.32 -4.06694 1.37473 0
M  V30 12193 C 1139.55 -5.26542 0.871183 0
M  V30 12194 O 1139.78 -5.69657 -0.290958 0
M  V30 12195 O 1138.71 -5.78961 1.64584 0
M  V30 12196 H 1142.54 -2.4841 1.74718 0
M  V30 12197 H 1140.12 -1.18302 0.912414 0
M  V30 12198 H 1142 -4.21399 0.00829479 0
M  V30 12199 H 1140.68 -3.18175 -0.595536 0
M  V30 12200 H 1139.59 -3.32347 1.71745 0
M  V30 12201 H 1140.92 -4.38166 2.24212 0
M  V30 12202 N 1142.57 -0.928524 -1.27343 0
M  V30 12203 C 1143.98 -0.613856 -1.7632 0
M  V30 12204 C 1144.33 0.870983 -1.75808 0
M  V30 12205 O 1143.46 1.68155 -1.36209 0
M  V30 12206 C 1144.05 -1.10755 -3.20186 0
M  V30 12207 C 1142.61 -0.843532 -3.66826 0
M  V30 12208 C 1141.76 -1.26579 -2.46724 0
M  V30 12209 H 1144.71 -1.10821 -1.13598 0
M  V30 12210 H 1144.73 -0.455598 -3.77763 0
M  V30 12211 H 1144.24 -2.18825 -3.20526 0
M  V30 12212 H 1142.34 0.223334 -3.7193 0
M  V30 12213 H 1142.46 -1.46165 -4.56259 0
M  V30 12214 H 1140.82 -0.684334 -2.45334 0
M  V30 12215 H 1141.6 -2.35516 -2.49774 0
M  V30 12216 N 1144.05 1.41491 -0.694123 0
M  V30 12217 C 1145.3 2.00479 -0.221585 0
M  V30 12218 C 1145.61 1.55605 1.18518 0
M  V30 12219 O 1146.82 2.07143 1.7551 0
M  V30 12220 C 1145.27 3.5824 -0.345264 0
M  V30 12221 C 1144.88 4.12096 -1.7573 0
M  V30 12222 C 1146.63 4.24446 0.0675731 0
M  V30 12223 C 1144.53 5.62286 -1.83271 0
M  V30 12224 H 1143.46 0.749841 -0.0790854 0
M  V30 12225 H 1146.11 1.61987 -0.86211 0
M  V30 12226 H 1144.5 3.94328 0.363487 0
M  V30 12227 H 1145.67 3.8743 -2.49469 0
M  V30 12228 H 1143.98 3.58411 -2.11969 0
M  V30 12229 H 1146.58 5.34691 0.0316485 0
M  V30 12230 H 1146.92 4.01338 1.10606 0
M  V30 12231 H 1147.46 3.93388 -0.59085 0
M  V30 12232 H 1144.2 5.9022 -2.85168 0
M  V30 12233 H 1143.72 5.88883 -1.13914 0
M  V30 12234 H 1145.4 6.27033 -1.59494 0
M  V30 12235 N 1145.53 0.438773 1.51369 0
M  V30 12236 C 1146.46 -0.362467 2.3067 0
M  V30 12237 C 1147.44 -1.01973 1.36145 0
M  V30 12238 O 1148.62 -1.0231 1.65065 0
M  V30 12239 C 1145.75 -1.46313 3.14976 0
M  V30 12240 C 1144.71 -0.929272 4.1779 0
M  V30 12241 C 1144.03 -2.12579 4.90627 0
M  V30 12242 C 1145.33 0.0372782 5.22287 0
M  V30 12243 H 1147.03 0.29931 2.979 0
M  V30 12244 H 1144.57 0.14539 1.43264 0
M  V30 12245 H 1146.53 -2.03088 3.69233 0
M  V30 12246 H 1145.25 -2.15321 2.45569 0
M  V30 12247 H 1143.91 -0.383722 3.64586 0
M  V30 12248 H 1143.56 -2.8021 4.17722 0
M  V30 12249 H 1143.26 -1.77496 5.60151 0
M  V30 12250 H 1144.78 -2.69905 5.47708 0
M  V30 12251 H 1146.2 -0.44022 5.71607 0
M  V30 12252 H 1144.59 0.300748 5.99346 0
M  V30 12253 H 1145.66 0.973503 4.75027 0
M  V30 12254 N 1147.01 -1.56678 0.170181 0
M  V30 12255 C 1147.95 -2.17909 -0.760556 0
M  V30 12256 C 1148.92 -1.11875 -1.22773 0
M  V30 12257 O 1150.11 -1.40021 -1.2961 0
M  V30 12258 C 1147.25 -2.82305 -1.9849 0
M  V30 12259 C 1146.36 -4.02796 -1.5614 0
M  V30 12260 C 1145.5 -4.55121 -2.73932 0
M  V30 12261 C 1144.53 -5.68025 -2.28067 0
M  V30 12262 N 1143.67 -6.14865 -3.38947 0
M  V30 12263 H 1148.51 -2.97098 -0.231629 0
M  V30 12264 H 1146.05 -1.46742 -0.102602 0
M  V30 12265 H 1148.01 -3.17797 -2.70298 0
M  V30 12266 H 1146.64 -2.05721 -2.48755 0
M  V30 12267 H 1145.69 -3.73131 -0.740097 0
M  V30 12268 H 1147 -4.84526 -1.18472 0
M  V30 12269 H 1146.15 -4.92789 -3.53898 0
M  V30 12270 H 1144.89 -3.72445 -3.14858 0
M  V30 12271 H 1143.9 -5.2991 -1.46546 0
M  V30 12272 H 1145.12 -6.52501 -1.88199 0
M  V30 12273 H 1143.07 -5.35119 -3.79452 0
M  V30 12274 H 1142.99 -6.91582 -3.05369 0
M  V30 12275 H 1144.25 -6.57183 -4.19203 0
M  V30 12276 N 1148.48 0.103547 -1.57259 0
M  V30 12277 C 1149.45 1.11039 -2.00507 0
M  V30 12278 C 1150.45 1.33432 -0.897361 0
M  V30 12279 O 1151.64 1.29688 -1.16304 0
M  V30 12280 C 1148.77 2.46144 -2.35851 0
M  V30 12281 H 1149.96 0.738332 -2.90669 0
M  V30 12282 H 1147.51 0.348334 -1.52369 0
M  V30 12283 H 1148.25 2.88242 -1.48617 0
M  V30 12284 H 1148.03 2.31241 -3.16654 0
M  V30 12285 H 1149.52 3.18577 -2.69997 0
M  V30 12286 N 1149.96 1.53094 0.37415 0
M  V30 12287 C 1150.89 1.81901 1.46404 0
M  V30 12288 C 1151.87 0.671949 1.56265 0
M  V30 12289 O 1153.06 0.920978 1.70973 0
M  V30 12290 C 1150.19 2.00123 2.83845 0
M  V30 12291 C 1149.14 3.15864 2.88814 0
M  V30 12292 C 1148.47 3.19364 4.28848 0
M  V30 12293 C 1149.77 4.54633 2.57112 0
M  V30 12294 H 1151.46 2.73172 1.22546 0
M  V30 12295 H 1149.01 1.31444 0.588087 0
M  V30 12296 H 1150.96 2.18859 3.6011 0
M  V30 12297 H 1149.68 1.05555 3.09072 0
M  V30 12298 H 1148.34 2.96935 2.15 0
M  V30 12299 H 1147.99 2.2245 4.51137 0
M  V30 12300 H 1147.69 3.97123 4.3309 0
M  V30 12301 H 1149.22 3.40273 5.06997 0
M  V30 12302 H 1150.63 4.73587 3.23091 0
M  V30 12303 H 1149.03 5.34569 2.72683 0
M  V30 12304 H 1150.1 4.60331 1.52392 0
M  V30 12305 N 1151.44 -0.633461 1.44309 0
M  V30 12306 C 1152.69 -1.38902 1.4625 0
M  V30 12307 C 1153 -1.95354 0.0980699 0
M  V30 12308 O 1154.21 -2.715 -0.0049983 0
M  V30 12309 C 1152.66 -2.51477 2.57463 0
M  V30 12310 C 1152.27 -2.01549 4.00103 0
M  V30 12311 C 1154.02 -3.28698 2.68622 0
M  V30 12312 C 1151.92 -3.11452 5.02744 0
M  V30 12313 H 1150.85 -0.521976 0.544112 0
M  V30 12314 H 1153.5 -0.681725 1.70367 0
M  V30 12315 H 1151.89 -3.24771 2.26582 0
M  V30 12316 H 1153.06 -1.35135 4.4054 0
M  V30 12317 H 1151.37 -1.3715 3.93165 0
M  V30 12318 H 1153.97 -4.10624 3.42479 0
M  V30 12319 H 1154.31 -3.78027 1.7436 0
M  V30 12320 H 1154.85 -2.62494 2.98901 0
M  V30 12321 H 1151.59 -2.6707 5.98627 0
M  V30 12322 H 1151.11 -3.76514 4.66902 0
M  V30 12323 H 1152.79 -3.76265 5.2634 0
M  V30 12324 N 1152.92 -1.31168 -0.873655 0
M  V30 12325 C 1153.85 -1.21094 -1.99646 0
M  V30 12326 C 1154.83 -0.0989684 -1.69812 0
M  V30 12327 O 1156.01 -0.282939 -1.92128 0
M  V30 12328 C 1153.14 -0.913684 -3.35066 0
M  V30 12329 C 1152.1 -1.98482 -3.79195 0
M  V30 12330 C 1151.42 -1.54033 -5.12033 0
M  V30 12331 C 1152.72 -3.39745 -3.96699 0
M  V30 12332 H 1154.42 -2.1503 -2.08333 0
M  V30 12333 H 1151.96 -1.03521 -1.00097 0
M  V30 12334 H 1153.92 -0.829821 -4.13149 0
M  V30 12335 H 1152.64 0.0613471 -3.26542 0
M  V30 12336 H 1151.3 -2.05851 -3.03349 0
M  V30 12337 H 1150.95 -0.553261 -4.99948 0
M  V30 12338 H 1150.65 -2.25688 -5.4253 0
M  V30 12339 H 1152.17 -1.47047 -5.92629 0
M  V30 12340 H 1153.59 -3.35071 -4.65188 0
M  V30 12341 H 1151.98 -4.09585 -4.38589 0
M  V30 12342 H 1153.05 -3.80802 -3.00196 0
M  V30 12343 N 1154.4 1.08748 -1.14068 0
M  V30 12344 C 1155.34 2.15573 -0.824425 0
M  V30 12345 C 1156.31 1.64683 0.216522 0
M  V30 12346 O 1157.5 1.90601 0.0872193 0
M  V30 12347 C 1154.64 3.43756 -0.30423 0
M  V30 12348 C 1153.75 4.08512 -1.40506 0
M  V30 12349 C 1152.89 5.24477 -0.842479 0
M  V30 12350 C 1151.93 5.81167 -1.92123 0
M  V30 12351 N 1151.06 6.88483 -1.37608 0
M  V30 12352 H 1155.9 2.41968 -1.73941 0
M  V30 12353 H 1153.44 1.18751 -0.868143 0
M  V30 12354 H 1155.4 4.17197 0.0155546 0
M  V30 12355 H 1154.03 3.17658 0.573868 0
M  V30 12356 H 1153.08 3.32866 -1.84131 0
M  V30 12357 H 1154.39 4.46669 -2.2201 0
M  V30 12358 H 1153.55 6.04842 -0.474389 0
M  V30 12359 H 1152.28 4.877 0.00355212 0
M  V30 12360 H 1151.29 4.99458 -2.29831 0
M  V30 12361 H 1152.51 6.20003 -2.77079 0
M  V30 12362 H 1150.46 6.53672 -0.552168 0
M  V30 12363 H 1150.38 7.25446 -2.12752 0
M  V30 12364 H 1151.65 7.72588 -1.03578 0
M  V30 12365 N 1155.87 0.935264 1.26849 0
M  V30 12366 C 1156.8 0.457776 2.28969 0
M  V30 12367 C 1157.79 -0.48587 1.63013 0
M  V30 12368 O 1158.97 -0.388998 1.90264 0
M  V30 12369 C 1156.1 -0.283332 3.46142 0
M  V30 12370 C 1155.05 0.573196 4.24144 0
M  V30 12371 C 1154.38 -0.297525 5.33872 0
M  V30 12372 C 1155.68 1.84153 4.88759 0
M  V30 12373 H 1157.37 1.31125 2.69159 0
M  V30 12374 H 1154.92 0.631956 1.29392 0
M  V30 12375 H 1156.87 -0.628366 4.16689 0
M  V30 12376 H 1155.6 -1.1709 3.04889 0
M  V30 12377 H 1154.26 0.901043 3.55354 0
M  V30 12378 H 1153.9 -1.18427 4.8886 0
M  V30 12379 H 1153.6 0.272126 5.8697 0
M  V30 12380 H 1155.13 -0.637961 6.07258 0
M  V30 12381 H 1156.54 1.5641 5.51551 0
M  V30 12382 H 1154.94 2.35528 5.51948 0
M  V30 12383 H 1156.01 2.5565 4.12033 0
M  V30 12384 N 1157.35 -1.41121 0.701616 0
M  V30 12385 C 1158.3 -2.30765 0.040121 0
M  V30 12386 C 1159.27 -1.47436 -0.764975 0
M  V30 12387 O 1160.45 -1.76209 -0.731775 0
M  V30 12388 C 1157.59 -3.33535 -0.885903 0
M  V30 12389 C 1156.71 -4.3194 -0.0717765 0
M  V30 12390 C 1155.84 -5.21779 -0.995996 0
M  V30 12391 C 1154.88 -6.11849 -0.175133 0
M  V30 12392 N 1154.02 -6.94151 -1.05348 0
M  V30 12393 H 1158.86 -2.86772 0.810312 0
M  V30 12394 H 1156.4 -1.41233 0.411301 0
M  V30 12395 H 1158.35 -3.91675 -1.4369 0
M  V30 12396 H 1156.98 -2.79065 -1.62243 0
M  V30 12397 H 1156.04 -3.75698 0.596221 0
M  V30 12398 H 1157.35 -4.95597 0.56435 0
M  V30 12399 H 1156.5 -5.84782 -1.61601 0
M  V30 12400 H 1155.24 -4.58363 -1.66597 0
M  V30 12401 H 1154.25 -5.4789 0.457916 0
M  V30 12402 H 1155.47 -6.77322 0.491133 0
M  V30 12403 H 1153.42 -6.33338 -1.70936 0
M  V30 12404 H 1153.33 -7.54518 -0.473065 0
M  V30 12405 H 1154.6 -7.61617 -1.66012 0
M  V30 12406 N 1158.83 -0.446794 -1.51134 0
M  V30 12407 C 1160.11 0.176892 -1.94798 0
M  V30 12408 C 1160.49 1.59229 -1.38598 0
M  V30 12409 O 1159.84 2.21097 -0.576905 0
M  V30 12410 C 1160.05 0.145 -3.48699 0
M  V30 12411 C 1161.39 0.345917 -4.23189 0
M  V30 12412 O 1162.42 0.222691 -3.55503 0
M  V30 12413 O 1161.28 0.592112 -5.43283 0
M  V30 12414 H 1158.37 0.12486 -0.81752 0
M  V30 12415 H 1160.92 -0.505453 -1.61998 0
M  V30 12416 H 1159.69 -0.844156 -3.82086 0
M  V30 12417 H 1159.31 0.869851 -3.87968 0
M  V30 12418 N 1160.31 1.56586 -0.178487 0
M  V30 12419 C 1161.72 1.83633 0.337009 0
M  V30 12420 C 1162.07 1.09857 1.6256 0
M  V30 12421 O 1161.2 0.353933 2.13486 0
M  V30 12422 C 1161.79 3.33112 0.618225 0
M  V30 12423 C 1160.35 3.60629 1.07814 0
M  V30 12424 C 1159.5 2.7705 0.117825 0
M  V30 12425 H 1162.45 1.53508 -0.402612 0
M  V30 12426 H 1162.47 3.5098 1.46947 0
M  V30 12427 H 1161.98 3.8678 -0.319808 0
M  V30 12428 H 1160.08 3.12378 2.03103 0
M  V30 12429 H 1160.19 4.68921 0.982339 0
M  V30 12430 H 1158.56 2.47125 0.616563 0
M  V30 12431 H 1159.34 3.33501 -0.814356 0
M  V30 12432 N 1161.79 -0.095206 1.57312 0
M  V30 12433 C 1163.06 -0.830388 1.77099 0
M  V30 12434 C 1163.44 -1.9694 0.760121 0
M  V30 12435 O 1162.79 -2.2752 -0.211403 0
M  V30 12436 C 1163 -1.32507 3.22867 0
M  V30 12437 C 1164.35 -1.7679 3.86045 0
M  V30 12438 O 1165.37 -1.42131 3.26615 0
M  V30 12439 O 1164.23 -2.40876 4.90552 0
M  V30 12440 H 1161.33 -0.396083 0.72598 0
M  V30 12441 H 1163.87 -0.0770965 1.69525 0
M  V30 12442 H 1162.64 -0.508992 3.87975 0
M  V30 12443 H 1162.27 -2.14037 3.35073 0
M  V30 12444 N 1163.26 -1.53291 -0.366026 0
M  V30 12445 C 1164.68 -1.61144 -0.942849 0
M  V30 12446 C 1165.03 -0.478571 -1.90274 0
M  V30 12447 O 1164.15 0.395069 -2.12763 0
M  V30 12448 C 1164.75 -2.92081 -1.71681 0
M  V30 12449 C 1163.31 -3.0227 -2.24298 0
M  V30 12450 C 1162.45 -2.56436 -1.05526 0
M  V30 12451 H 1165.4 -1.58038 -0.144835 0
M  V30 12452 H 1165.42 -2.79858 -2.57798 0
M  V30 12453 H 1164.94 -3.74513 -1.01793 0
M  V30 12454 H 1163.04 -2.24425 -2.97429 0
M  V30 12455 H 1163.15 -4.07341 -2.5221 0
M  V30 12456 H 1161.51 -2.11301 -1.42211 0
M  V30 12457 H 1162.3 -3.41285 -0.371376 0
M  V30 12458 N 1164.74 0.6258 -1.44643 0
M  V30 12459 C 1166.02 1.38439 -1.38181 0
M  V30 12460 C 1166.4 2.11056 -0.0431928 0
M  V30 12461 O 1165.75 2.06683 0.974383 0
M  V30 12462 C 1165.96 2.34639 -2.58352 0
M  V30 12463 C 1167.31 2.97807 -3.02649 0
M  V30 12464 O 1168.33 2.44963 -2.58595 0
M  V30 12465 O 1167.19 3.93682 -3.79048 0
M  V30 12466 H 1164.28 0.619852 -0.54746 0
M  V30 12467 H 1166.83 0.650409 -1.56741 0
M  V30 12468 H 1165.6 1.80116 -3.47382 0
M  V30 12469 H 1165.22 3.15446 -2.42032 0
M  V30 12470 N 1166.22 1.31629 0.866686 0
M  V30 12471 C 1167.63 1.19347 1.43573 0
M  V30 12472 C 1167.98 -0.198765 1.95191 0
M  V30 12473 O 1167.11 -1.09674 1.86549 0
M  V30 12474 C 1167.7 2.16055 2.6097 0
M  V30 12475 C 1166.26 2.07697 3.13909 0
M  V30 12476 C 1165.41 2.05099 1.86627 0
M  V30 12477 H 1168.36 1.43633 0.674929 0
M  V30 12478 H 1168.38 1.75207 3.37761 0
M  V30 12479 H 1167.89 3.17375 2.23371 0
M  V30 12480 H 1165.99 1.09583 3.56121 0
M  V30 12481 H 1166.11 2.96958 3.75969 0
M  V30 12482 H 1164.47 1.50162 2.05727 0
M  V30 12483 H 1165.25 3.0818 1.51261 0
M  V30 12484 N 1167.7 -1.08142 1.14644 0
M  V30 12485 C 1168.65 -2.17229 0.831513 0
M  V30 12486 C 1169.64 -1.68311 -0.19173 0
M  V30 12487 O 1170.85 -1.79937 -0.0475596 0
M  V30 12488 H 1167.22 -0.708807 0.25119 0
M  V30 12489 H 1169.19 -2.41014 1.75939 0
M  V30 12490 C 1167.94 -3.46146 0.328347 0
M  V30 12491 H 1167.27 -3.84166 1.10708 0
M  V30 12492 H 1168.71 -4.23747 0.146568 0
M  V30 12493 C 1167.16 -3.2327 -0.948594 0
M  V30 12494 O 1167.69 -3.47111 -2.0218 0
M  V30 12495 N 1165.9 -2.76799 -0.884909 0
M  V30 12496 H 1165.45 -2.57597 -0.011399 0
M  V30 12497 H 1165.41 -2.61871 -1.73985 0
M  V30 12498 N 1169.18 -0.941978 -1.26351 0
M  V30 12499 C 1170.59 -0.632522 -1.75659 0
M  V30 12500 C 1170.94 0.852287 -1.76722 0
M  V30 12501 O 1170.06 1.66701 -1.37985 0
M  V30 12502 C 1170.66 -1.14145 -3.18993 0
M  V30 12503 C 1169.22 -0.882391 -3.65911 0
M  V30 12504 C 1168.37 -1.29189 -2.45368 0
M  V30 12505 H 1171.32 -1.12019 -1.12416 0
M  V30 12506 H 1171.34 -0.495639 -3.77258 0
M  V30 12507 H 1170.85 -2.22213 -3.18187 0
M  V30 12508 H 1168.95 0.183873 -3.72146 0
M  V30 12509 H 1169.06 -1.50996 -4.54683 0
M  V30 12510 H 1167.43 -0.710316 -2.44595 0
M  V30 12511 H 1168.21 -2.38152 -2.47262 0
M  V30 12512 N 1170.66 1.40747 -0.709091 0
M  V30 12513 C 1171.9 2.00606 -0.245324 0
M  V30 12514 C 1172.22 1.56489 1.16346 0
M  V30 12515 O 1171.49 0.801456 1.78755 0
M  V30 12516 H 1170.07 0.741833 -0.0877098 0
M  V30 12517 H 1172.74 1.72178 -0.913271 0
M  V30 12518 H 1171.83 3.10901 -0.273322 0
M  V30 12519 N 1172.13 0.454803 1.50895 0
M  V30 12520 C 1173.38 -0.105927 2.02523 0
M  V30 12521 C 1173.71 -1.40825 1.33724 0
M  V30 12522 O 1172.99 -1.89038 0.457683 0
M  V30 12523 C 1173.27 -0.306635 3.58792 0
M  V30 12524 C 1173.12 1.01556 4.38185 0
M  V30 12525 C 1174.44 -1.06858 4.2693 0
M  V30 12526 H 1171.56 -0.0370232 0.736069 0
M  V30 12527 H 1174.2 0.597215 1.8037 0
M  V30 12528 H 1172.35 -0.905563 3.77799 0
M  V30 12529 H 1174.03 1.64981 4.30789 0
M  V30 12530 H 1172.27 1.61608 4.02574 0
M  V30 12531 H 1172.94 0.828959 5.4574 0
M  V30 12532 H 1175.42 -0.561086 4.123 0
M  V30 12533 H 1174.29 -1.1778 5.36115 0
M  V30 12534 H 1174.55 -2.10111 3.8898 0
M  V30 12535 N 1173.61 -1.56489 0.186789 0
M  V30 12536 C 1174.86 -1.96517 -0.45433 0
M  V30 12537 C 1175.17 -1.07618 -1.63333 0
M  V30 12538 O 1176.38 -1.37392 -2.3417 0
M  V30 12539 C 1174.84 -3.49482 -0.859685 0
M  V30 12540 C 1174.44 -4.47031 0.294572 0
M  V30 12541 C 1176.19 -3.98296 -1.46835 0
M  V30 12542 C 1174.09 -5.91254 -0.131279 0
M  V30 12543 H 1173.02 -0.733765 -0.17351 0
M  V30 12544 H 1175.68 -1.8139 0.277485 0
M  V30 12545 H 1174.06 -3.60082 -1.64793 0
M  V30 12546 H 1175.23 -4.48156 1.07205 0
M  V30 12547 H 1173.55 -4.08362 0.814197 0
M  V30 12548 H 1176.14 -5.03518 -1.79928 0
M  V30 12549 H 1176.49 -3.42123 -2.37186 0
M  V30 12550 H 1177.02 -3.90776 -0.744247 0
M  V30 12551 H 1173.76 -6.51334 0.737839 0
M  V30 12552 H 1173.28 -5.93401 -0.873786 0
M  V30 12553 H 1174.96 -6.44485 -0.569913 0
M  V30 12554 N 1175.09 0.086862 -1.5736 0
M  V30 12555 C 1176.04 1.12359 -2.03662 0
M  V30 12556 C 1177.03 1.40982 -0.939169 0
M  V30 12557 O 1178.24 1.40566 -1.12433 0
M  V30 12558 H 1174.61 0.379605 -0.649156 0
M  V30 12559 H 1176.58 0.706822 -2.89908 0
M  V30 12560 C 1175.33 2.43327 -2.48369 0
M  V30 12561 H 1174.66 2.22148 -3.324 0
M  V30 12562 H 1176.1 3.14351 -2.84534 0
M  V30 12563 C 1174.55 3.08214 -1.36036 0
M  V30 12564 O 1175.08 3.95659 -0.694063 0
M  V30 12565 N 1173.29 2.68596 -1.10927 0
M  V30 12566 H 1172.84 1.97578 -1.6529 0
M  V30 12567 H 1172.8 3.12336 -0.359679 0
M  V30 12568 N 1176.57 1.53483 0.357892 0
M  V30 12569 C 1177.52 1.81143 1.45911 0
M  V30 12570 C 1178.51 0.681002 1.55109 0
M  V30 12571 O 1179.72 0.864086 1.57904 0
M  V30 12572 H 1176.09 0.573663 0.486225 0
M  V30 12573 H 1178.06 2.733 1.19789 0
M  V30 12574 C 1176.81 2.02509 2.8264 0
M  V30 12575 H 1176.13 2.88938 2.76324 0
M  V30 12576 H 1177.57 2.25837 3.58851 0
M  V30 12577 C 1176.03 0.806412 3.27106 0
M  V30 12578 O 1176.56 -0.00116809 4.017 0
M  V30 12579 N 1174.77 0.627677 2.8374 0
M  V30 12580 H 1174.32 1.28601 2.23203 0
M  V30 12581 H 1174.27 -0.186301 3.13848 0
M  V30 12582 N 1178.05 -0.61812 1.44973 0
M  V30 12583 C 1179.29 -1.37944 1.48658 0
M  V30 12584 C 1179.62 -1.93805 0.123749 0
M  V30 12585 O 1178.9 -1.74434 -0.860401 0
M  V30 12586 C 1179.18 -2.53515 2.55739 0
M  V30 12587 C 1179.04 -2.02918 4.01428 0
M  V30 12588 C 1180.35 -3.55674 2.59199 0
M  V30 12589 H 1177.47 -0.500223 0.541244 0
M  V30 12590 H 1180.12 -0.69774 1.76725 0
M  V30 12591 H 1178.27 -3.11669 2.31937 0
M  V30 12592 H 1179.94 -1.49494 4.36405 0
M  V30 12593 H 1178.18 -1.33999 4.12586 0
M  V30 12594 H 1178.85 -2.86181 4.72021 0
M  V30 12595 H 1181.33 -3.07343 2.80499 0
M  V30 12596 H 1180.2 -4.34042 3.36004 0
M  V30 12597 H 1180.46 -4.10601 1.63888 0
M  V30 12598 N 1179.52 -1.32087 -0.859693 0
M  V30 12599 C 1180.45 -1.23204 -1.98351 0
M  V30 12600 C 1181.43 -0.116974 -1.69697 0
M  V30 12601 O 1182.62 -0.303301 -1.91817 0
M  V30 12602 C 1179.75 -0.949171 -3.34078 0
M  V30 12603 C 1178.7 -2.02493 -3.77069 0
M  V30 12604 C 1178.03 -1.59455 -5.1037 0
M  V30 12605 C 1179.33 -3.43934 -3.93074 0
M  V30 12606 H 1181.02 -2.17227 -2.0604 0
M  V30 12607 H 1178.57 -1.04577 -0.989931 0
M  V30 12608 H 1180.52 -0.873594 -4.12245 0
M  V30 12609 H 1179.25 0.0267095 -3.26589 0
M  V30 12610 H 1177.91 -2.09057 -3.01149 0
M  V30 12611 H 1177.55 -0.606256 -4.99333 0
M  V30 12612 H 1177.25 -2.31429 -5.40106 0
M  V30 12613 H 1178.78 -1.53325 -5.91036 0
M  V30 12614 H 1180.19 -3.39986 -4.61608 0
M  V30 12615 H 1178.59 -4.14214 -4.3422 0
M  V30 12616 H 1179.66 -3.83965 -2.9614 0
M  V30 12617 N 1181 1.07532 -1.15215 0
M  V30 12618 C 1181.96 2.1286 -0.84989 0
M  V30 12619 C 1182.96 1.60103 0.149524 0
M  V30 12620 O 1184.15 1.74017 -0.0798918 0
M  V30 12621 C 1181.29 3.3984 -0.268617 0
M  V30 12622 H 1182.48 2.41106 -1.78347 0
M  V30 12623 H 1180.03 1.23392 -0.959386 0
M  V30 12624 H 1180.77 3.17235 0.67325 0
M  V30 12625 H 1180.55 3.79433 -0.988592 0
M  V30 12626 H 1182.04 4.17533 -0.0746554 0
M  V30 12627 N 1182.48 0.948665 1.2585 0
M  V30 12628 C 1183.71 0.617229 1.97479 0
M  V30 12629 C 1184.12 -0.809406 1.7057 0
M  V30 12630 O 1183.48 -1.54066 0.97826 0
M  V30 12631 C 1183.53 0.859065 3.51144 0
M  V30 12632 O 1183.25 2.2296 3.77121 0
M  V30 12633 C 1184.75 0.539197 4.40009 0
M  V30 12634 H 1181.97 0.231933 0.629641 0
M  V30 12635 H 1184.52 1.27141 1.60173 0
M  V30 12636 H 1182.67 0.25138 3.86584 0
M  V30 12637 H 1183.09 2.29524 4.71613 0
M  V30 12638 H 1184.56 0.758986 5.46757 0
M  V30 12639 H 1185.04 -0.526062 4.36038 0
M  V30 12640 H 1185.64 1.12594 4.10125 0
M  V30 12641 N 1183.96 -1.40369 0.716545 0
M  V30 12642 C 1185.21 -2.00101 0.253452 0
M  V30 12643 C 1185.52 -1.57471 -1.16027 0
M  V30 12644 O 1186.73 -2.09909 -1.72193 0
M  V30 12645 C 1185.18 -3.57645 0.402213 0
M  V30 12646 C 1184.79 -4.09248 1.82264 0
M  V30 12647 C 1186.53 -4.245 -3.88526e-05 0
M  V30 12648 C 1184.44 -5.59299 1.92193 0
M  V30 12649 H 1183.37 -0.748488 0.0910047 0
M  V30 12650 H 1186.02 -1.60595 0.887772 0
M  V30 12651 H 1184.4 -3.94857 -0.300706 0
M  V30 12652 H 1185.58 -3.83412 2.55601 0
M  V30 12653 H 1183.89 -3.54993 2.17644 0
M  V30 12654 H 1186.49 -5.34673 0.0534202 0
M  V30 12655 H 1186.83 -4.03046 -1.04208 0
M  V30 12656 H 1187.37 -3.92398 0.65336 0
M  V30 12657 H 1184.11 -5.85608 2.94522 0
M  V30 12658 H 1183.63 -5.86997 1.23268 0
M  V30 12659 H 1185.3 -6.24416 1.6945 0
M  V30 12660 N 1185.44 -0.462799 -1.50652 0
M  V30 12661 C 1186.68 0.0948568 -2.01877 0
M  V30 12662 C 1187.01 1.4096 -1.34741 0
M  V30 12663 O 1186.28 1.89671 -0.49006 0
M  V30 12664 H 1184.86 0.0380453 -0.746031 0
M  V30 12665 H 1187.52 -0.611327 -1.85064 0
M  V30 12666 H 1186.61 0.252378 -3.11078 0
M  V30 12667 N 1186.91 1.56388 -0.195085 0
M  V30 12668 C 1187.82 2.22698 0.737743 0
M  V30 12669 C 1188.84 1.22605 1.23466 0
M  V30 12670 O 1190.02 1.55342 1.28183 0
M  V30 12671 C 1187.08 2.87333 1.94011 0
M  V30 12672 C 1186.14 4.02696 1.48776 0
M  V30 12673 C 1185.38 4.64239 2.63282 0
M  V30 12674 O 1185.6 4.24706 3.80763 0
M  V30 12675 O 1184.53 5.53705 2.35996 0
M  V30 12676 H 1188.36 3.03021 0.203013 0
M  V30 12677 H 1185.94 1.49361 0.0342044 0
M  V30 12678 H 1187.83 3.28226 2.64284 0
M  V30 12679 H 1186.5 2.0999 2.46345 0
M  V30 12680 H 1185.41 3.66426 0.753839 0
M  V30 12681 H 1186.74 4.81703 1.01109 0
M  V30 12682 N 1188.39 -0.0785156 1.57404 0
M  V30 12683 C 1189.32 -1.09446 2.06262 0
M  V30 12684 C 1190.3 -1.40777 0.954772 0
M  V30 12685 O 1191.49 -1.5052 1.22708 0
M  V30 12686 C 1188.62 -2.40979 2.50093 0
M  V30 12687 C 1187.57 -2.24017 3.64692 0
M  V30 12688 C 1186.9 -3.60873 3.94556 0
M  V30 12689 C 1188.2 -1.66696 4.94985 0
M  V30 12690 H 1189.89 -0.687928 2.9139 0
M  V30 12691 H 1187.44 -0.329466 1.4018 0
M  V30 12692 H 1189.39 -3.12337 2.82884 0
M  V30 12693 H 1188.12 -2.83599 1.61985 0
M  V30 12694 H 1186.77 -1.55101 3.32174 0
M  V30 12695 H 1186.42 -4.01051 3.0359 0
M  V30 12696 H 1186.12 -3.50365 4.71718 0
M  V30 12697 H 1187.65 -4.33673 4.29837 0
M  V30 12698 H 1189.06 -2.27913 5.2605 0
M  V30 12699 H 1187.46 -1.66902 5.76423 0
M  V30 12700 H 1188.53 -0.627827 4.80818 0
M  V30 12701 N 1189.87 -1.5367 -0.349747 0
M  V30 12702 C 1190.83 -1.80533 -1.41211 0
M  V30 12703 C 1191.83 -0.676188 -1.45892 0
M  V30 12704 O 1193.02 -0.944453 -1.46375 0
M  V30 12705 C 1190.16 -1.94175 -2.80195 0
M  V30 12706 H 1191.35 -2.75428 -1.18658 0
M  V30 12707 H 1188.9 -1.44988 -0.583787 0
M  V30 12708 H 1189.64 -1.01402 -3.08039 0
M  V30 12709 H 1189.42 -2.76316 -2.78194 0
M  V30 12710 H 1190.91 -2.16496 -3.57098 0
M  V30 12711 N 1191.35 0.610423 -1.45298 0
M  V30 12712 C 1192.28 1.73507 -1.4976 0
M  V30 12713 C 1193.29 1.58092 -0.38867 0
M  V30 12714 O 1194.48 1.66026 -0.655571 0
M  V30 12715 C 1191.58 3.11475 -1.33554 0
M  V30 12716 C 1190.76 3.53156 -2.5807 0
M  V30 12717 C 1189.81 4.70076 -2.36463 0
M  V30 12718 O 1188.84 4.77337 -3.10061 0
M  V30 12719 N 1190.04 5.63155 -1.40843 0
M  V30 12720 H 1192.81 1.70144 -2.46721 0
M  V30 12721 H 1190.37 0.79562 -1.41002 0
M  V30 12722 H 1192.36 3.87444 -1.16914 0
M  V30 12723 H 1190.93 3.09361 -0.448803 0
M  V30 12724 H 1190.15 2.67178 -2.89844 0
M  V30 12725 H 1191.44 3.77761 -3.40843 0
M  V30 12726 H 1190.84 5.60001 -0.800982 0
M  V30 12727 H 1189.39 6.38669 -1.30175 0
M  V30 12728 N 1192.83 1.32541 0.852676 0
M  V30 12729 C 1194.07 1.23397 1.60938 0
M  V30 12730 C 1194.41 -0.203294 1.93133 0
M  V30 12731 O 1193.68 -1.14097 1.57519 0
M  V30 12732 C 1193.96 2.0956 2.92842 0
M  V30 12733 C 1193.82 3.61675 2.67416 0
M  V30 12734 C 1195.14 1.95825 3.94133 0
M  V30 12735 H 1192.25 0.449608 0.583971 0
M  V30 12736 H 1194.9 1.62507 0.98446 0
M  V30 12737 H 1193.05 1.76336 3.46176 0
M  V30 12738 H 1194.72 4.05122 2.20621 0
M  V30 12739 H 1192.96 3.84242 2.01347 0
M  V30 12740 H 1193.63 4.17292 3.61347 0
M  V30 12741 H 1196.11 2.24935 3.50062 0
M  V30 12742 H 1194.98 2.58387 4.8428 0
M  V30 12743 H 1195.25 0.926466 4.32284 0
M  V30 12744 N 1194.3 -1.0692 1.15784 0
M  V30 12745 C 1195.53 -1.83849 0.959903 0
M  V30 12746 C 1195.95 -1.8169 -0.486873 0
M  V30 12747 O 1195.31 -1.21305 -1.34739 0
M  V30 12748 C 1195.36 -3.28642 1.48414 0
M  V30 12749 O 1194.46 -4.0665 0.686249 0
M  V30 12750 H 1193.81 -0.569115 0.342059 0
M  V30 12751 H 1196.34 -1.34851 1.53871 0
M  V30 12752 H 1196.35 -3.7947 1.49888 0
M  V30 12753 H 1195.02 -3.29529 2.53739 0
M  V30 12754 H 1193.6 -3.65453 0.741501 0
M  V30 12755 N 1195.78 -0.955326 -1.25345 0
M  V30 12756 C 1197.03 -0.609278 -1.92697 0
M  V30 12757 C 1197.35 0.856535 -1.75181 0
M  V30 12758 O 1196.62 1.61013 -1.11587 0
M  V30 12759 H 1195.2 -0.22235 -0.713141 0
M  V30 12760 H 1197.86 -1.21372 -1.52496 0
M  V30 12761 H 1196.96 -0.839198 -3.00606 0
M  V30 12762 N 1197.26 1.39987 -0.723979 0
M  V30 12763 C 1198.19 2.3332 -0.0917282 0
M  V30 12764 C 1199.17 1.53335 0.736361 0
M  V30 12765 O 1200.36 1.81771 0.683582 0
M  V30 12766 C 1197.49 3.3737 0.824549 0
M  V30 12767 C 1196.44 4.2788 0.101452 0
M  V30 12768 C 1195.77 5.22536 1.13401 0
M  V30 12769 C 1197.07 5.11649 -1.04939 0
M  V30 12770 H 1198.76 2.86441 -0.871318 0
M  V30 12771 H 1196.31 1.37725 -0.420448 0
M  V30 12772 H 1198.26 4.01607 1.27631 0
M  V30 12773 H 1196.98 2.82663 1.63613 0
M  V30 12774 H 1195.64 3.65107 -0.330569 0
M  V30 12775 H 1195.29 4.64131 1.93886 0
M  V30 12776 H 1194.99 5.83938 0.65502 0
M  V30 12777 H 1196.52 5.89651 1.58569 0
M  V30 12778 H 1197.93 5.69293 -0.6766 0
M  V30 12779 H 1196.33 5.82137 -1.45729 0
M  V30 12780 H 1197.4 4.47132 -1.8762 0
M  V30 12781 N 1198.74 0.470782 1.50404 0
M  V30 12782 C 1199.65 -0.328877 2.32283 0
M  V30 12783 C 1200.67 -0.99629 1.42654 0
M  V30 12784 O 1201.84 -0.984331 1.75707 0
M  V30 12785 C 1198.91 -1.39675 3.1732 0
M  V30 12786 C 1197.97 -0.745965 4.22769 0
M  V30 12787 C 1197.2 -1.76295 5.03742 0
M  V30 12788 O 1197.42 -2.98943 4.85788 0
M  V30 12789 O 1196.36 -1.33495 5.86909 0
M  V30 12790 H 1200.18 0.340491 3.01785 0
M  V30 12791 H 1197.77 0.232637 1.47578 0
M  V30 12792 H 1199.65 -2.0153 3.70086 0
M  V30 12793 H 1198.33 -2.04959 2.50546 0
M  V30 12794 H 1197.23 -0.0884647 3.73995 0
M  V30 12795 H 1198.57 -0.136074 4.92012 0
M  V30 12796 N 1200.22 -1.56282 0.203376 0
M  V30 12797 C 1201.15 -2.15395 -0.753684 0
M  V30 12798 C 1202.13 -1.09303 -1.20381 0
M  V30 12799 O 1203.31 -1.37461 -1.28984 0
M  V30 12800 C 1200.44 -2.71954 -2.01888 0
M  V30 12801 C 1199.49 -3.9071 -1.71021 0
M  V30 12802 S 1200.32 -5.28695 -0.850999 0
M  V30 12803 C 1201.47 -5.88681 -2.12615 0
M  V30 12804 H 1201.71 -2.96237 -0.251196 0
M  V30 12805 H 1199.24 -1.54396 -0.0117238 0
M  V30 12806 H 1201.2 -3.05183 -2.74542 0
M  V30 12807 H 1199.86 -1.91138 -2.49249 0
M  V30 12808 H 1199.05 -4.28723 -2.64977 0
M  V30 12809 H 1198.65 -3.58533 -1.06442 0
M  V30 12810 H 1200.95 -6.03548 -3.07792 0
M  V30 12811 H 1201.89 -6.85096 -1.79021 0
M  V30 12812 H 1202.3 -5.17356 -2.2584 0
M  V30 12813 N 1201.7 0.070167 -1.57444 0
M  V30 12814 C 1203.11 0.424991 -1.53838 0
M  V30 12815 C 1203.31 1.79076 -0.923793 0
M  V30 12816 O 1202.37 2.46939 -0.527002 0
M  V30 12817 C 1203.68 0.364562 -2.98482 0
M  V30 12818 C 1205.23 0.444631 -3.09826 0
M  V30 12819 C 1205.7 0.414093 -4.56124 0
M  V30 12820 N 1207.19 0.474119 -4.60767 0
M  V30 12821 C 1207.93 0.472729 -5.71448 0
M  V30 12822 N 1207.43 0.426059 -6.91489 0
M  V30 12823 N 1209.22 0.519408 -5.59695 0
M  V30 12824 H 1201.37 -0.824117 -1.9576 0
M  V30 12825 H 1203.63 -0.309401 -0.896089 0
M  V30 12826 H 1203.34 -0.572343 -3.47012 0
M  V30 12827 H 1203.21 1.17414 -3.5846 0
M  V30 12828 H 1205.6 1.37196 -2.61269 0
M  V30 12829 H 1205.68 -0.393547 -2.52755 0
M  V30 12830 H 1205.32 -0.509394 -5.05339 0
M  V30 12831 H 1205.25 1.26983 -5.11061 0
M  V30 12832 H 1207.75 0.514371 -3.74383 0
M  V30 12833 H 1208.06 0.428969 -7.71609 0
M  V30 12834 H 1206.4 0.392722 -6.9389 0
M  V30 12835 H 1209.59 0.553573 -4.64815 0
M  V30 12836 H 1209.77 0.514856 -6.45951 0
M  V30 12837 N 1203.17 1.53854 0.341593 0
M  V30 12838 C 1204.12 1.81979 1.41959 0
M  V30 12839 C 1205.09 0.665616 1.5218 0
M  V30 12840 O 1206.28 0.910246 1.67688 0
M  V30 12841 C 1203.42 2.03681 2.78583 0
M  V30 12842 C 1202.53 3.31389 2.77137 0
M  V30 12843 C 1201.66 3.43148 4.05491 0
M  V30 12844 C 1200.7 4.64799 3.98282 0
M  V30 12845 N 1199.84 4.73581 5.18329 0
M  V30 12846 H 1204.68 2.73953 1.17275 0
M  V30 12847 H 1202.22 1.35689 0.568062 0
M  V30 12848 H 1204.17 2.14253 3.57983 0
M  V30 12849 H 1202.8 1.15017 3.01614 0
M  V30 12850 H 1201.86 3.29649 1.89832 0
M  V30 12851 H 1203.17 4.20885 2.67689 0
M  V30 12852 H 1202.32 3.53163 4.93316 0
M  V30 12853 H 1201.06 2.51712 4.17723 0
M  V30 12854 H 1200.07 4.54859 3.08842 0
M  V30 12855 H 1201.29 5.57601 3.87631 0
M  V30 12856 H 1199.24 3.85055 5.31102 0
M  V30 12857 H 1199.15 5.57016 5.11145 0
M  V30 12858 H 1200.42 4.87908 6.0792 0
M  V30 12859 N 1204.65 -0.602709 1.4562 0
M  V30 12860 C 1205.9 -1.36159 1.51103 0
M  V30 12861 C 1206.25 -1.91794 0.152552 0
M  V30 12862 O 1205.55 -1.7239 -0.836201 0
M  V30 12863 C 1205.74 -2.52474 2.52966 0
M  V30 12864 C 1205.57 -2.0823 3.98585 0
M  V30 12865 C 1204.34 -1.94175 4.66502 0
M  V30 12866 C 1206.54 -1.65402 4.86977 0
M  V30 12867 N 1204.52 -1.43792 5.96822 0
M  V30 12868 C 1205.89 -1.26469 6.06964 0
M  V30 12869 C 1207.94 -1.53038 4.73797 0
M  V30 12870 C 1206.65 -0.764065 7.1523 0
M  V30 12871 C 1208.67 -1.04379 5.82116 0
M  V30 12872 C 1208.04 -0.664136 7.01262 0
M  V30 12873 H 1204.13 -0.491974 0.607853 0
M  V30 12874 H 1206.72 -0.688472 1.82121 0
M  V30 12875 H 1204.89 -3.17375 2.23891 0
M  V30 12876 H 1206.62 -3.19369 2.48567 0
M  V30 12877 H 1203.38 -2.1551 4.21726 0
M  V30 12878 H 1203.8 -1.2082 6.66132 0
M  V30 12879 H 1208.44 -1.81014 3.82091 0
M  V30 12880 H 1206.16 -0.471858 8.06721 0
M  V30 12881 H 1209.75 -0.952316 5.73953 0
M  V30 12882 H 1208.63 -0.293412 7.83651 0
M  V30 12883 N 1206.13 -1.32992 -0.845635 0
M  V30 12884 C 1207.38 -1.24249 -1.60281 0
M  V30 12885 C 1207.71 0.193049 -1.93238 0
M  V30 12886 O 1206.98 1.1326 -1.58122 0
M  V30 12887 C 1207.27 -2.1111 -2.91727 0
M  V30 12888 C 1207.12 -3.63088 -2.65494 0
M  V30 12889 C 1208.44 -1.97913 -3.93089 0
M  V30 12890 H 1205.56 -0.452698 -0.581578 0
M  V30 12891 H 1208.2 -1.63026 -0.975828 0
M  V30 12892 H 1206.35 -1.78169 -3.45236 0
M  V30 12893 H 1208.02 -4.06287 -2.18469 0
M  V30 12894 H 1206.26 -3.85304 -1.99306 0
M  V30 12895 H 1206.94 -4.19202 -3.59129 0
M  V30 12896 H 1209.41 -2.26788 -3.48864 0
M  V30 12897 H 1208.29 -2.60952 -4.82903 0
M  V30 12898 H 1208.55 -0.949378 -4.31786 0
M  V30 12899 N 1207.61 1.06304 -1.1635 0
M  V30 12900 C 1208.88 1.75916 -0.855166 0
M  V30 12901 C 1209.26 2.0094 0.647024 0
M  V30 12902 O 1208.61 1.63642 1.59479 0
M  V30 12903 C 1208.82 3.06028 -1.67774 0
M  V30 12904 C 1210.17 3.80184 -1.89065 0
M  V30 12905 O 1211.19 3.15868 -1.64639 0
M  V30 12906 O 1210.05 4.95723 -2.30045 0
M  V30 12907 H 1207.15 0.764432 -0.315551 0
M  V30 12908 H 1209.69 1.12574 -1.26985 0
M  V30 12909 H 1208.47 2.83498 -2.69712 0
M  V30 12910 H 1208.09 3.77104 -1.26009 0
M  V30 12911 N 1209.09 0.96196 1.24836 0
M  V30 12912 C 1210 0.494876 2.29321 0
M  V30 12913 C 1211.01 -0.441363 1.68309 0
M  V30 12914 O 1212.19 -0.315814 1.98908 0
M  V30 12915 C 1209.25 -0.212944 3.46045 0
M  V30 12916 C 1208.31 0.762411 4.22476 0
M  V30 12917 C 1207.55 0.0882756 5.33627 0
M  V30 12918 O 1207.77 -1.12459 5.59204 0
M  V30 12919 O 1206.7 0.777529 5.96857 0
M  V30 12920 H 1210.53 1.36333 2.7138 0
M  V30 12921 H 1208.11 0.728738 1.30421 0
M  V30 12922 H 1210 -0.610805 4.1695 0
M  V30 12923 H 1208.67 -1.05645 3.05975 0
M  V30 12924 H 1207.58 1.21062 3.5397 0
M  V30 12925 H 1208.91 1.57416 4.66349 0
M  V30 12926 N 1210.56 -1.39601 0.731392 0
M  V30 12927 C 1211.49 -2.33268 0.1041 0
M  V30 12928 C 1212.47 -1.53724 -0.728219 0
M  V30 12929 O 1213.66 -1.82131 -0.673933 0
M  V30 12930 C 1210.79 -3.37802 -0.806646 0
M  V30 12931 C 1209.74 -4.27928 -0.0787588 0
M  V30 12932 C 1209.07 -5.23131 -1.10628 0
M  V30 12933 C 1210.37 -5.11086 1.07651 0
M  V30 12934 H 1212.06 -2.85975 0.886496 0
M  V30 12935 H 1209.61 -1.375 0.427746 0
M  V30 12936 H 1211.56 -4.02278 -1.25499 0
M  V30 12937 H 1210.29 -2.83527 -1.62112 0
M  V30 12938 H 1208.95 -3.64926 0.349926 0
M  V30 12939 H 1208.59 -4.65152 -1.91422 0
M  V30 12940 H 1208.29 -5.84277 -0.624043 0
M  V30 12941 H 1209.82 -5.90483 -1.5544 0
M  V30 12942 H 1211.23 -5.68927 0.706781 0
M  V30 12943 H 1209.63 -5.81356 1.48814 0
M  V30 12944 H 1210.7 -4.46131 1.89988 0
M  V30 12945 N 1212.04 -0.478751 -1.50152 0
M  V30 12946 C 1213.29 0.073585 -2.02366 0
M  V30 12947 C 1213.62 1.3903 -1.36018 0
M  V30 12948 O 1212.87 1.89787 -0.477435 0
M  V30 12949 C 1213.17 0.297535 -3.56159 0
M  V30 12950 C 1212.84 -0.938419 -4.41027 0
M  V30 12951 C 1211.5 -1.27727 -4.63939 0
M  V30 12952 C 1213.85 -1.76098 -4.9055 0
M  V30 12953 C 1211.18 -2.4386 -5.33619 0
M  V30 12954 C 1213.53 -2.91366 -5.61506 0
M  V30 12955 C 1212.2 -3.25657 -5.8267 0
M  V30 12956 H 1211.47 0.0269267 -0.740511 0
M  V30 12957 H 1214.11 -0.63439 -1.80687 0
M  V30 12958 H 1212.42 1.08783 -3.76395 0
M  V30 12959 H 1214.11 0.73899 -3.94132 0
M  V30 12960 H 1210.7 -0.664441 -4.23418 0
M  V30 12961 H 1214.89 -1.51237 -4.72696 0
M  V30 12962 H 1210.14 -2.70692 -5.48211 0
M  V30 12963 H 1214.32 -3.55445 -5.98859 0
M  V30 12964 H 1211.95 -4.15751 -6.36439 0
M  V30 12965 N 1213.52 1.56172 -0.211661 0
M  V30 12966 C 1214.77 1.97214 0.423008 0
M  V30 12967 C 1215.08 1.10203 1.616 0
M  V30 12968 O 1216.29 1.411 2.31955 0
M  V30 12969 C 1214.74 3.50805 0.803977 0
M  V30 12970 C 1214.35 4.46505 -0.365654 0
M  V30 12971 C 1216.1 4.00582 1.4048 0
M  V30 12972 C 1214 5.91388 0.0371986 0
M  V30 12973 H 1212.93 0.736432 0.161814 0
M  V30 12974 H 1215.58 1.80925 -0.306307 0
M  V30 12975 H 1213.97 3.62659 1.59043 0
M  V30 12976 H 1215.14 4.46394 -1.14321 0
M  V30 12977 H 1213.46 4.07015 -0.879061 0
M  V30 12978 H 1216.05 5.06317 1.71894 0
M  V30 12979 H 1216.4 3.45853 2.31713 0
M  V30 12980 H 1216.93 3.9191 0.681984 0
M  V30 12981 H 1213.67 6.50078 -0.841367 0
M  V30 12982 H 1213.19 5.94716 0.77927 0
M  V30 12983 H 1214.87 6.4531 0.467309 0
M  V30 12984 N 1215 -0.0618163 1.57479 0
M  V30 12985 C 1216.25 -0.75794 1.86918 0
M  V30 12986 C 1216.56 -1.78234 0.80572 0
M  V30 12987 O 1217.77 -2.52874 0.98827 0
M  V30 12988 C 1216.22 -1.39898 3.31597 0
M  V30 12989 C 1215.83 -0.412621 4.46096 0
M  V30 12990 C 1217.57 -2.07688 3.70224 0
M  V30 12991 C 1215.48 -1.06014 5.8182 0
M  V30 12992 H 1214.41 -0.286825 0.697314 0
M  V30 12993 H 1217.06 -0.0114386 1.83496 0
M  V30 12994 H 1215.44 -2.19408 3.29661 0
M  V30 12995 H 1216.62 0.353392 4.59443 0
M  V30 12996 H 1214.93 0.161383 4.16087 0
M  V30 12997 H 1217.53 -2.56928 4.68927 0
M  V30 12998 H 1217.87 -2.88073 3.00532 0
M  V30 12999 H 1218.41 -1.34996 3.74194 0
M  V30 13000 H 1215.15 -0.296405 6.5483 0
M  V30 13001 H 1214.67 -1.79677 5.72255 0
M  V30 13002 H 1216.34 -1.57708 6.27485 0
M  V30 13003 N 1216.48 -1.54033 -0.333429 0
M  V30 13004 C 1217.73 -1.70979 -1.07 0
M  V30 13005 C 1218.04 -0.485095 -1.89489 0
M  V30 13006 O 1219.24 -0.535712 -2.66162 0
M  V30 13007 C 1217.7 -3.02382 -1.95175 0
M  V30 13008 C 1217.31 -4.32223 -1.17844 0
M  V30 13009 C 1219.05 -3.28693 -2.68628 0
M  V30 13010 C 1216.96 -5.54693 -2.05109 0
M  V30 13011 H 1215.89 -0.637152 -0.403179 0
M  V30 13012 H 1218.54 -1.80529 -0.328839 0
M  V30 13013 H 1216.92 -2.86714 -2.73151 0
M  V30 13014 H 1218.1 -4.58626 -0.447089 0
M  V30 13015 H 1216.41 -4.12601 -0.561166 0
M  V30 13016 H 1219.01 -4.17385 -3.34207 0
M  V30 13017 H 1219.35 -2.46141 -3.35738 0
M  V30 13018 H 1219.88 -3.45183 -1.9772 0
M  V30 13019 H 1216.62 -6.39818 -1.42523 0
M  V30 13020 H 1216.14 -5.32524 -2.76005 0
M  V30 13021 H 1217.82 -5.90722 -2.63926 0
M  V30 13022 N 1217.95 0.594978 -1.45938 0
M  V30 13023 C 1218.89 1.71911 -1.50072 0
M  V30 13024 C 1219.87 1.58657 -0.355913 0
M  V30 13025 O 1221.05 1.80043 -0.558272 0
M  V30 13026 C 1218.18 3.09858 -1.3677 0
M  V30 13027 C 1217.22 3.41667 -2.55277 0
M  V30 13028 S 1218.06 3.35101 -4.17693 0
M  V30 13029 C 1219.21 4.75606 -4.06878 0
M  V30 13030 H 1219.44 1.68143 -2.45184 0
M  V30 13031 H 1216.98 0.772698 -1.33674 0
M  V30 13032 H 1218.94 3.89444 -1.29782 0
M  V30 13033 H 1217.6 3.11128 -0.431073 0
M  V30 13034 H 1216.79 4.42138 -2.41929 0
M  V30 13035 H 1216.39 2.69622 -2.59191 0
M  V30 13036 H 1218.68 5.65708 -3.72801 0
M  V30 13037 H 1219.63 4.9401 -5.07306 0
M  V30 13038 H 1220.03 4.5188 -3.38327 0
M  V30 13039 N 1219.43 1.33438 0.838571 0
M  V30 13040 C 1220.71 1.1551 1.5785 0
M  V30 13041 C 1221.09 -0.278405 2.09256 0
M  V30 13042 O 1220.44 -1.27748 1.89453 0
M  V30 13043 C 1220.65 2.19647 2.71212 0
M  V30 13044 C 1222 2.53818 3.40384 0
M  V30 13045 O 1223.02 2.18317 2.81454 0
M  V30 13046 O 1221.88 3.14741 4.46766 0
M  V30 13047 H 1218.97 0.446785 0.695925 0
M  V30 13048 H 1221.52 1.45021 0.8813 0
M  V30 13049 H 1220.29 3.15936 2.30869 0
M  V30 13050 H 1219.91 1.91224 3.48596 0
M  V30 13051 N 1220.91 -1.05686 1.16912 0
M  V30 13052 C 1221.84 -2.12775 0.824755 0
M  V30 13053 C 1222.82 -1.61286 -0.206289 0
M  V30 13054 O 1224.01 -1.8829 -0.0889616 0
M  V30 13055 C 1221.13 -3.37922 0.229422 0
M  V30 13056 C 1220.18 -4.08226 1.23506 0
M  V30 13057 S 1221.01 -4.57424 2.78431 0
M  V30 13058 C 1222.17 -5.85825 2.20364 0
M  V30 13059 H 1222.4 -2.41657 1.73174 0
M  V30 13060 H 1219.93 -1.18212 0.99324 0
M  V30 13061 H 1221.89 -4.10359 -0.107588 0
M  V30 13062 H 1220.55 -3.07186 -0.655424 0
M  V30 13063 H 1219.75 -4.98129 0.767059 0
M  V30 13064 H 1219.35 -3.41832 1.51747 0
M  V30 13065 H 1221.64 -6.58912 1.57611 0
M  V30 13066 H 1222.58 -6.37364 3.08501 0
M  V30 13067 H 1222.99 -5.4015 1.64008 0
M  V30 13068 N 1222.39 -0.968567 -1.24324 0
M  V30 13069 C 1223.32 -0.518323 -2.27674 0
M  V30 13070 C 1224.3 0.442479 -1.64244 0
M  V30 13071 O 1225.48 0.338416 -1.91229 0
M  V30 13072 C 1222.61 0.191459 -3.46772 0
M  V30 13073 C 1221.57 -0.685449 -4.22476 0
M  V30 13074 C 1220.89 0.155873 -5.34473 0
M  V30 13075 C 1222.19 -1.97047 -4.83704 0
M  V30 13076 H 1223.89 -1.38215 -2.65588 0
M  V30 13077 H 1221.43 -0.66604 -1.27671 0
M  V30 13078 H 1223.39 0.517667 -4.18208 0
M  V30 13079 H 1222.11 1.08965 -3.07887 0
M  V30 13080 H 1220.77 -0.994942 -3.52841 0
M  V30 13081 H 1220.42 1.05424 -4.91828 0
M  V30 13082 H 1220.12 -0.427655 -5.86042 0
M  V30 13083 H 1221.64 0.476733 -6.08736 0
M  V30 13084 H 1223.06 -1.70979 -5.4721 0
M  V30 13085 H 1221.45 -2.50079 -5.45509 0
M  V30 13086 H 1222.52 -2.66484 -4.0511 0
M  V30 13087 N 1223.87 1.39211 -0.738786 0
M  V30 13088 C 1224.8 2.29117 -0.0616489 0
M  V30 13089 C 1225.81 1.47008 0.699462 0
M  V30 13090 O 1227 1.70041 0.542998 0
M  V30 13091 C 1224.1 3.25692 0.936893 0
M  V30 13092 C 1223.27 4.3676 0.236515 0
M  V30 13093 C 1222.33 5.1362 1.1437 0
M  V30 13094 O 1221.36 5.65816 0.619762 0
M  V30 13095 N 1222.56 5.25184 2.4731 0
M  V30 13096 H 1225.33 2.8787 -0.833711 0
M  V30 13097 H 1222.89 1.50832 -0.588323 0
M  V30 13098 H 1224.88 3.73987 1.54648 0
M  V30 13099 H 1223.45 2.67943 1.61014 0
M  V30 13100 H 1222.67 3.90293 -0.553594 0
M  V30 13101 H 1223.96 5.08192 -0.248707 0
M  V30 13102 H 1223.35 4.84302 2.92349 0
M  V30 13103 H 1221.91 5.76905 3.03355 0
M  V30 13104 N 1225.34 0.486708 1.49896 0
M  V30 13105 C 1226.62 -0.125183 1.95199 0
M  V30 13106 C 1227 -1.55498 1.42771 0
M  V30 13107 O 1226.35 -2.1949 0.635322 0
M  V30 13108 C 1226.56 -0.0524982 3.48961 0
M  V30 13109 C 1227.91 -0.233595 4.23957 0
M  V30 13110 O 1228.93 -0.128357 3.55969 0
M  V30 13111 O 1227.79 -0.447862 5.44662 0
M  V30 13112 H 1224.88 -0.103141 0.820543 0
M  V30 13113 H 1227.43 0.548226 1.60601 0
M  V30 13114 H 1226.2 0.945163 3.79714 0
M  V30 13115 H 1225.83 -0.766683 3.90138 0
M  V30 13116 N 1226.82 -1.56058 0.219941 0
M  V30 13117 C 1228.05 -2.031 -0.42014 0
M  V30 13118 C 1228.47 -1.09875 -1.52673 0
M  V30 13119 O 1227.83 -0.0866458 -1.81093 0
M  V30 13120 C 1227.88 -3.48389 -0.93047 0
M  V30 13121 O 1226.98 -3.583 -2.04192 0
M  V30 13122 H 1226.32 -0.657129 -0.0952772 0
M  V30 13123 H 1228.85 -2.01787 0.338105 0
M  V30 13124 H 1228.86 -3.88678 -1.2407 0
M  V30 13125 H 1227.54 -4.15725 -0.120539 0
M  V30 13126 H 1226.12 -3.29898 -1.73845 0
M  V30 13127 N 1228.3 0.053464 -1.57509 0
M  V30 13128 C 1229.53 0.765301 -1.92764 0
M  V30 13129 C 1229.95 1.69385 -0.817943 0
M  V30 13130 O 1229.31 1.7986 0.228075 0
M  V30 13131 C 1229.36 1.51938 -3.27028 0
M  V30 13132 O 1228.46 2.63121 -3.17555 0
M  V30 13133 H 1227.8 0.207567 -0.630723 0
M  V30 13134 H 1230.33 0.0162254 -2.04594 0
M  V30 13135 H 1230.34 1.89466 -3.6134 0
M  V30 13136 H 1229.02 0.838207 -4.07366 0
M  V30 13137 H 1227.59 2.28316 -2.94832 0
M  V30 13138 N 1229.78 1.54207 0.325255 0
M  V30 13139 C 1230.71 1.86467 1.40543 0
M  V30 13140 C 1231.69 0.721324 1.54048 0
M  V30 13141 O 1232.88 0.974905 1.67956 0
M  V30 13142 C 1230.01 2.09052 2.77335 0
M  V30 13143 C 1228.96 3.24893 2.78619 0
M  V30 13144 C 1228.29 3.32846 4.1847 0
M  V30 13145 C 1229.59 4.62582 2.42518 0
M  V30 13146 H 1231.28 2.76932 1.13794 0
M  V30 13147 H 1228.83 1.33248 0.545971 0
M  V30 13148 H 1230.78 2.30204 3.52964 0
M  V30 13149 H 1229.5 1.15335 3.05558 0
M  V30 13150 H 1228.16 3.03625 2.05444 0
M  V30 13151 H 1227.81 2.3669 4.43832 0
M  V30 13152 H 1227.51 4.10701 4.20237 0
M  V30 13153 H 1229.03 3.56231 4.95915 0
M  V30 13154 H 1230.45 4.83627 3.07861 0
M  V30 13155 H 1228.84 5.42974 2.55538 0
M  V30 13156 H 1229.91 4.64946 1.3767 0
M  V30 13157 N 1231.26 -0.58723 1.46251 0
M  V30 13158 C 1232.19 -1.70694 1.5933 0
M  V30 13159 C 1233.17 -1.64208 0.443831 0
M  V30 13160 O 1234.35 -1.82294 0.669516 0
M  V30 13161 C 1231.48 -3.0933 1.579 0
M  V30 13162 C 1230.44 -3.30643 2.7177 0
M  V30 13163 C 1229.76 -4.69761 2.554 0
M  V30 13164 C 1231.06 -3.18916 4.1363 0
M  V30 13165 H 1232.76 -1.60004 2.53059 0
M  V30 13166 H 1230.3 -0.768343 1.21789 0
M  V30 13167 H 1232.26 -3.87479 1.65644 0
M  V30 13168 H 1230.98 -3.20907 0.60712 0
M  V30 13169 H 1229.64 -2.54892 2.63488 0
M  V30 13170 H 1229.29 -4.78098 1.56306 0
M  V30 13171 H 1228.99 -4.84974 3.31774 0
M  V30 13172 H 1230.51 -5.50084 2.65028 0
M  V30 13173 H 1231.93 -3.86915 4.23048 0
M  V30 13174 H 1230.32 -3.45653 4.90555 0
M  V30 13175 H 1231.39 -2.1606 4.34104 0
M  V30 13176 N 1232.74 -1.33881 -0.831482 0
M  V30 13177 C 1233.7 -1.24654 -1.92339 0
M  V30 13178 C 1234.7 -0.163788 -1.59964 0
M  V30 13179 O 1235.89 -0.415829 -1.69164 0
M  V30 13180 C 1233.02 -0.922537 -3.2818 0
M  V30 13181 H 1234.21 -2.21717 -2.01944 0
M  V30 13182 H 1231.77 -1.18046 -1.02445 0
M  V30 13183 H 1232.5 0.0452872 -3.24268 0
M  V30 13184 H 1232.29 -1.70562 -3.53059 0
M  V30 13185 H 1233.78 -0.88292 -4.0816 0
M  V30 13186 N 1234.21 1.05064 -1.1747 0
M  V30 13187 C 1235.16 2.12841 -0.89259 0
M  V30 13188 C 1236.13 1.65288 0.16402 0
M  V30 13189 O 1237.32 1.90782 0.026537 0
M  V30 13190 C 1234.46 3.42614 -0.41344 0
M  V30 13191 C 1233.57 4.03835 -1.53432 0
M  V30 13192 C 1232.7 5.21531 -1.00891 0
M  V30 13193 C 1231.74 5.74761 -2.10515 0
M  V30 13194 N 1230.88 6.83756 -1.59442 0
M  V30 13195 H 1235.72 2.36312 -1.81551 0
M  V30 13196 H 1233.26 1.15929 -0.905483 0
M  V30 13197 H 1235.21 4.17035 -0.117181 0
M  V30 13198 H 1233.84 3.19323 0.472517 0
M  V30 13199 H 1232.9 3.2684 -1.94627 0
M  V30 13200 H 1234.21 4.3938 -2.36108 0
M  V30 13201 H 1233.36 6.03027 -0.666575 0
M  V30 13202 H 1232.1 4.87464 -0.151608 0
M  V30 13203 H 1231.11 4.91893 -2.45604 0
M  V30 13204 H 1232.33 6.10875 -2.96663 0
M  V30 13205 H 1230.28 6.51584 -0.759849 0
M  V30 13206 H 1230.19 7.18311 -2.35724 0
M  V30 13207 H 1231.46 7.68901 -1.28105 0
M  V30 13208 N 1235.69 0.975146 1.23809 0
M  V30 13209 C 1237.11 0.682899 1.44252 0
M  V30 13210 C 1237.31 -0.752739 1.86912 0
M  V30 13211 O 1236.36 -1.52579 2.01186 0
M  V30 13212 C 1237.68 1.67335 2.49839 0
M  V30 13213 C 1239.22 1.6868 2.63659 0
M  V30 13214 C 1239.7 2.66542 3.72451 0
M  V30 13215 N 1241.19 2.65028 3.79887 0
M  V30 13216 C 1241.93 3.37421 4.63611 0
M  V30 13217 N 1241.42 4.19355 5.51465 0
M  V30 13218 N 1243.21 3.2621 4.57759 0
M  V30 13219 H 1235.37 1.9026 0.94418 0
M  V30 13220 H 1237.63 0.819543 0.476502 0
M  V30 13221 H 1237.33 2.69978 2.25399 0
M  V30 13222 H 1237.21 1.45201 3.48133 0
M  V30 13223 H 1239.6 0.667438 2.87453 0
M  V30 13224 H 1239.68 1.94878 1.65699 0
M  V30 13225 H 1239.32 3.68617 3.49405 0
M  V30 13226 H 1239.25 2.3762 4.69941 0
M  V30 13227 H 1241.74 2.05562 3.171 0
M  V30 13228 H 1242.05 4.71461 6.12327 0
M  V30 13229 H 1240.4 4.23447 5.51106 0
M  V30 13230 H 1243.59 2.61656 3.88142 0
M  V30 13231 H 1243.76 3.82889 5.22781 0
M  V30 13232 N 1237.17 -1.38817 0.746158 0
M  V30 13233 C 1238.1 -2.29081 0.0737986 0
M  V30 13234 C 1239.11 -1.47377 -0.691656 0
M  V30 13235 O 1240.3 -1.70326 -0.533973 0
M  V30 13236 C 1237.4 -3.26185 -0.919607 0
M  V30 13237 C 1236.58 -4.36879 -0.213349 0
M  V30 13238 C 1235.64 -5.1422 -1.11644 0
M  V30 13239 O 1234.66 -5.66137 -0.589747 0
M  V30 13240 N 1235.86 -5.26488 -2.44521 0
M  V30 13241 H 1238.63 -2.87424 0.848966 0
M  V30 13242 H 1236.19 -1.50518 0.596314 0
M  V30 13243 H 1238.18 -3.74802 -1.52662 0
M  V30 13244 H 1236.75 -2.68793 -1.5959 0
M  V30 13245 H 1235.97 -3.89994 0.574285 0
M  V30 13246 H 1237.26 -5.08053 0.275655 0
M  V30 13247 H 1236.66 -4.85846 -2.89777 0
M  V30 13248 H 1235.21 -5.78505 -3.00291 0
M  V30 13249 N 1238.65 -0.49465 -1.49636 0
M  V30 13250 C 1239.89 0.0521945 -2.02733 0
M  V30 13251 C 1240.23 1.3723 -1.37411 0
M  V30 13252 O 1239.5 1.87758 -0.507642 0
M  V30 13253 C 1239.78 0.2114 -3.59479 0
M  V30 13254 C 1239.64 -1.13138 -4.35339 0
M  V30 13255 C 1240.96 0.955015 -4.29613 0
M  V30 13256 H 1238.08 0.0174946 -0.736792 0
M  V30 13257 H 1240.72 -0.644827 -1.78723 0
M  V30 13258 H 1238.87 0.805078 -3.80067 0
M  V30 13259 H 1240.54 -1.76345 -4.26263 0
M  V30 13260 H 1238.78 -1.72224 -3.98147 0
M  V30 13261 H 1239.45 -0.97336 -5.4335 0
M  V30 13262 H 1241.93 0.451575 -4.13642 0
M  V30 13263 H 1240.81 1.03524 -5.39049 0
M  V30 13264 H 1241.07 1.99724 -3.94414 0
M  V30 13265 N 1240.13 1.55939 -0.228214 0
M  V30 13266 C 1241.09 2.1932 0.665681 0
M  V30 13267 C 1242.09 1.15699 1.11671 0
M  V30 13268 O 1243.28 1.40893 1.02444 0
M  V30 13269 C 1240.41 2.82185 1.9127 0
M  V30 13270 H 1241.6 2.99687 0.112986 0
M  V30 13271 H 1239.16 1.56285 0.0213865 0
M  V30 13272 H 1239.89 2.05706 2.5071 0
M  V30 13273 H 1239.68 3.58073 1.5977 0
M  V30 13274 H 1241.17 3.30748 2.54942 0
M  V30 13275 N 1241.6 -0.0451101 1.57535 0
M  V30 13276 C 1242.53 -1.05046 2.08537 0
M  V30 13277 C 1243.52 -1.3872 0.984418 0
M  V30 13278 O 1244.7 -1.47884 1.25873 0
M  V30 13279 C 1241.83 -2.3562 2.55148 0
M  V30 13280 C 1240.78 -2.16231 3.69362 0
M  V30 13281 C 1240.11 -3.52423 4.02122 0
M  V30 13282 C 1241.41 -1.56159 4.98409 0
M  V30 13283 H 1243.1 -0.625965 2.92783 0
M  V30 13284 H 1240.65 -0.299657 1.40848 0
M  V30 13285 H 1242.6 -3.06266 2.89446 0
M  V30 13286 H 1241.33 -2.80099 1.67964 0
M  V30 13287 H 1239.99 -1.4802 3.35389 0
M  V30 13288 H 1239.63 -3.94522 3.12028 0
M  V30 13289 H 1239.33 -3.4028 4.79044 0
M  V30 13290 H 1240.86 -4.24458 4.38939 0
M  V30 13291 H 1242.27 -2.16703 5.30766 0
M  V30 13292 H 1240.67 -1.54638 5.79834 0
M  V30 13293 H 1241.74 -0.525698 4.82042 0
M  V30 13294 N 1243.08 -1.54377 -0.317073 0
M  V30 13295 C 1244.33 -1.74083 -1.05198 0
M  V30 13296 C 1244.68 -0.511755 -1.85469 0
M  V30 13297 O 1243.98 0.495851 -1.85073 0
M  V30 13298 C 1244.17 -2.96066 -2.00199 0
M  V30 13299 C 1244 -4.3072 -1.29269 0
M  V30 13300 C 1242.77 -4.94764 -1.0265 0
M  V30 13301 C 1244.97 -5.09441 -0.705297 0
M  V30 13302 N 1242.95 -6.13234 -0.285795 0
M  V30 13303 C 1244.32 -6.19925 -0.0965349 0
M  V30 13304 C 1246.38 -4.94165 -0.608753 0
M  V30 13305 C 1245.08 -7.16798 0.599411 0
M  V30 13306 C 1247.1 -5.91354 0.0735046 0
M  V30 13307 C 1246.47 -7.01195 0.671184 0
M  V30 13308 H 1242.57 -0.689774 -0.368423 0
M  V30 13309 H 1245.15 -1.91841 -0.332412 0
M  V30 13310 H 1243.32 -2.79762 -2.69421 0
M  V30 13311 H 1245.05 -3.0437 -2.66722 0
M  V30 13312 H 1241.81 -4.54818 -1.32052 0
M  V30 13313 H 1242.23 -6.76963 0.0706046 0
M  V30 13314 H 1246.87 -4.09386 -1.05655 0
M  V30 13315 H 1244.59 -8.01131 1.05902 0
M  V30 13316 H 1248.18 -5.81612 0.147931 0
M  V30 13317 H 1247.06 -7.75107 1.19073 0
M  V30 13318 N 1244.56 0.579466 -1.4656 0
M  V30 13319 C 1245.79 1.36351 -1.55615 0
M  V30 13320 C 1246.2 1.87755 -0.198405 0
M  V30 13321 O 1245.56 1.63795 0.804834 0
M  V30 13322 C 1245.61 2.54881 -2.56355 0
M  V30 13323 O 1245.33 2.05607 -3.86856 0
M  V30 13324 C 1246.83 3.47391 -2.75381 0
M  V30 13325 H 1244.05 0.416426 -0.526147 0
M  V30 13326 H 1246.6 0.704134 -1.91995 0
M  V30 13327 H 1244.75 3.16802 -2.2297 0
M  V30 13328 H 1245.17 2.82823 -4.41714 0
M  V30 13329 H 1246.64 4.27031 -3.49783 0
M  V30 13330 H 1247.12 3.99532 -1.82403 0
M  V30 13331 H 1247.72 2.91303 -3.09875 0
M  V30 13332 N 1246.04 1.3432 0.824371 0
M  V30 13333 C 1246.97 1.2842 1.95014 0
M  V30 13334 C 1247.95 0.161925 1.69328 0
M  V30 13335 O 1249.13 0.354052 1.90945 0
M  V30 13336 C 1246.26 1.03741 3.31444 0
M  V30 13337 C 1245.22 2.12419 3.71567 0
M  V30 13338 C 1244.54 1.72931 5.05963 0
M  V30 13339 C 1245.84 3.54235 3.83817 0
M  V30 13340 H 1247.54 2.22614 2.00209 0
M  V30 13341 H 1245.08 1.07165 0.961856 0
M  V30 13342 H 1247.04 0.982586 4.09784 0
M  V30 13343 H 1245.76 0.0598892 3.26545 0
M  V30 13344 H 1244.42 2.16968 2.955 0
M  V30 13345 H 1244.07 0.738433 4.9755 0
M  V30 13346 H 1243.77 2.45668 5.3378 0
M  V30 13347 H 1245.29 1.68941 5.86763 0
M  V30 13348 H 1246.71 3.52106 4.52432 0
M  V30 13349 H 1245.1 4.25581 4.23085 0
M  V30 13350 H 1246.17 3.91682 2.85856 0
M  V30 13351 N 1247.52 -1.0444 1.18026 0
M  V30 13352 C 1248.76 -1.77224 0.971391 0
M  V30 13353 C 1249.09 -1.88466 -0.500564 0
M  V30 13354 O 1248.36 -1.40692 -1.36317 0
M  V30 13355 H 1246.94 -0.656485 0.356422 0
M  V30 13356 H 1249.6 -1.26064 1.4864 0
M  V30 13357 H 1248.69 -2.78626 1.4062 0
M  V30 13358 N 1248.99 -0.981699 -1.2329 0
M  V30 13359 C 1249.93 -0.481042 -2.24095 0
M  V30 13360 C 1250.94 0.417818 -1.57347 0
M  V30 13361 O 1252.13 0.221746 -1.77117 0
M  V30 13362 C 1249.23 0.323324 -3.37354 0
M  V30 13363 C 1248.4 -0.568975 -4.33684 0
M  V30 13364 C 1247.46 0.181761 -5.25886 0
M  V30 13365 O 1246.49 -0.429059 -5.67581 0
M  V30 13366 N 1247.69 1.46737 -5.61648 0
M  V30 13367 H 1250.45 -1.34781 -2.67683 0
M  V30 13368 H 1248.01 -0.855117 -1.37475 0
M  V30 13369 H 1250.01 0.833934 -3.96015 0
M  V30 13370 H 1248.58 1.09111 -2.9294 0
M  V30 13371 H 1247.8 -1.2604 -3.73507 0
M  V30 13372 H 1249.08 -1.17704 -4.94998 0
M  V30 13373 H 1248.48 1.98513 -5.29725 0
M  V30 13374 H 1247.04 1.92339 -6.22775 0
M  V30 13375 N 1250.47 1.3842 -0.753509 0
M  V30 13376 C 1251.4 2.33073 -0.141198 0
M  V30 13377 C 1252.38 1.54863 0.70367 0
M  V30 13378 O 1253.57 1.8318 0.644872 0
M  V30 13379 C 1250.7 3.39043 0.752802 0
M  V30 13380 C 1249.65 4.27999 0.0106692 0
M  V30 13381 C 1248.98 5.24824 1.02291 0
M  V30 13382 C 1250.28 5.09308 -1.15768 0
M  V30 13383 H 1251.97 2.84528 -0.93188 0
M  V30 13384 H 1249.52 1.36802 -0.449567 0
M  V30 13385 H 1251.47 4.04224 1.19083 0
M  V30 13386 H 1250.2 2.8607 1.57581 0
M  V30 13387 H 1248.85 3.64323 -0.407939 0
M  V30 13388 H 1248.5 4.68139 1.83998 0
M  V30 13389 H 1248.2 5.85196 0.53101 0
M  V30 13390 H 1249.73 5.92882 1.46026 0
M  V30 13391 H 1251.14 5.6773 -0.797203 0
M  V30 13392 H 1249.54 5.78914 -1.58044 0
M  V30 13393 H 1250.61 4.43051 -1.97062 0
M  V30 13394 N 1251.95 0.502579 1.49372 0
M  V30 13395 C 1253.2 -0.0414423 2.02758 0
M  V30 13396 C 1253.53 -1.36499 1.38136 0
M  V30 13397 O 1252.8 -1.87487 0.517593 0
M  V30 13398 C 1253.09 -0.192333 3.59586 0
M  V30 13399 C 1252.94 1.15445 4.34733 0
M  V30 13400 C 1254.26 -0.932218 4.30114 0
M  V30 13401 H 1251.38 -0.0135869 0.736875 0
M  V30 13402 H 1254.02 0.654296 1.78379 0
M  V30 13403 H 1252.17 -0.78491 3.80488 0
M  V30 13404 H 1253.84 1.78603 4.25322 0
M  V30 13405 H 1252.09 1.74333 3.97228 0
M  V30 13406 H 1252.76 1.00216 5.42827 0
M  V30 13407 H 1255.23 -0.429632 4.13876 0
M  V30 13408 H 1254.11 -1.00664 5.39591 0
M  V30 13409 H 1254.37 -1.9763 3.95468 0
M  V30 13410 N 1253.43 -1.55816 0.23648 0
M  V30 13411 C 1254.39 -2.1967 -0.654041 0
M  V30 13412 C 1255.39 -1.1629 -1.11056 0
M  V30 13413 O 1256.58 -1.41435 -1.01695 0
M  V30 13414 C 1253.71 -2.83196 -1.89771 0
M  V30 13415 H 1254.91 -2.99743 -0.0970911 0
M  V30 13416 H 1252.46 -1.56295 -0.013098 0
M  V30 13417 H 1253.19 -2.07033 -2.49616 0
M  V30 13418 H 1252.98 -3.58915 -1.57868 0
M  V30 13419 H 1254.47 -3.32095 -2.53184 0
M  V30 13420 N 1254.91 0.036755 -1.57557 0
M  V30 13421 C 1256.13 0.744813 -1.93565 0
M  V30 13422 C 1256.56 1.68508 -0.835863 0
M  V30 13423 O 1255.91 1.80091 0.208986 0
M  V30 13424 C 1255.96 1.48461 -3.28621 0
M  V30 13425 O 1255.07 2.59739 -3.20327 0
M  V30 13426 H 1254.41 0.200866 -0.632889 0
M  V30 13427 H 1256.94 -0.00547543 -2.04599 0
M  V30 13428 H 1256.95 1.85622 -3.63329 0
M  V30 13429 H 1255.62 0.794953 -4.08232 0
M  V30 13430 H 1254.2 2.25176 -2.97237 0
M  V30 13431 N 1256.39 1.54543 0.308881 0
M  V30 13432 C 1257.61 1.77431 1.06422 0
M  V30 13433 C 1258.03 0.529972 1.81209 0
M  V30 13434 O 1257.39 -0.499912 1.7552 0
M  V30 13435 C 1257.44 2.9769 2.05092 0
M  V30 13436 O 1257.16 4.17315 1.33341 0
M  V30 13437 C 1258.66 3.32905 2.92727 0
M  V30 13438 H 1255.88 0.591961 0.315948 0
M  V30 13439 H 1258.42 2.01473 0.350547 0
M  V30 13440 H 1256.58 2.7588 2.71973 0
M  V30 13441 H 1256.99 4.85061 1.99539 0
M  V30 13442 H 1258.47 4.20314 3.57827 0
M  V30 13443 H 1258.94 2.50713 3.6061 0
M  V30 13444 H 1259.55 3.56847 2.31388 0
M  V30 13445 N 1257.86 -0.571685 1.46866 0
M  V30 13446 C 1259.11 -1.32685 1.52444 0
M  V30 13447 C 1259.43 -1.94147 0.182225 0
M  V30 13448 O 1258.7 -1.79159 -0.792385 0
M  V30 13449 H 1257.28 -0.492679 0.561495 0
M  V30 13450 H 1259.94 -0.668694 1.8307 0
M  V30 13451 H 1259.04 -2.12788 2.28315 0
M  V30 13452 N 1259.34 -1.34755 -0.817236 0
M  V30 13453 C 1260.57 -1.30333 -1.60303 0
M  V30 13454 C 1260.98 0.12357 -1.88796 0
M  V30 13455 O 1260.32 1.08279 -1.48396 0
M  V30 13456 C 1260.38 -2.03179 -2.96578 0
M  V30 13457 C 1260.05 -3.52414 -2.90952 0
M  V30 13458 C 1261.05 -4.47213 -2.65136 0
M  V30 13459 C 1258.73 -3.9491 -3.10405 0
M  V30 13460 C 1260.72 -5.82481 -2.58832 0
M  V30 13461 C 1258.41 -5.30277 -3.03726 0
M  V30 13462 C 1259.41 -6.23875 -2.77973 0
M  V30 13463 O 1259.1 -7.5676 -2.71237 0
M  V30 13464 H 1258.83 -0.449615 -0.5048 0
M  V30 13465 H 1261.38 -1.7803 -1.02443 0
M  V30 13466 H 1259.61 -1.50104 -3.56379 0
M  V30 13467 H 1261.3 -1.91972 -3.57633 0
M  V30 13468 H 1262.07 -4.157 -2.49836 0
M  V30 13469 H 1257.95 -3.22451 -3.29464 0
M  V30 13470 H 1261.49 -6.55508 -2.38652 0
M  V30 13471 H 1257.39 -5.61406 -3.1858 0
M  V30 13472 H 1258.16 -7.66562 -2.86923 0
M  V30 13473 N 1260.82 1.03812 -1.18578 0
M  V30 13474 C 1262.07 1.77319 -0.984173 0
M  V30 13475 C 1262.4 1.88052 0.484789 0
M  V30 13476 O 1261.67 1.3905 1.35998 0
M  V30 13477 C 1261.96 3.20448 -1.6427 0
M  V30 13478 C 1261.81 3.17643 -3.1847 0
M  V30 13479 C 1263.13 4.18623 -1.35805 0
M  V30 13480 H 1260.25 0.643681 -0.358949 0
M  V30 13481 H 1262.89 1.21249 -1.46283 0
M  V30 13482 H 1261.04 3.68324 -1.23572 0
M  V30 13483 H 1262.71 2.77738 -3.6832 0
M  V30 13484 H 1260.95 2.55606 -3.50497 0
M  V30 13485 H 1261.63 4.18724 -3.59686 0
M  V30 13486 H 1264.1 3.79306 -1.71073 0
M  V30 13487 H 1262.98 5.16982 -1.84446 0
M  V30 13488 H 1263.24 4.41203 -0.281418 0
M  V30 13489 N 1262.3 0.988223 1.22768 0
M  V30 13490 C 1263.54 0.662441 1.91676 0
M  V30 13491 C 1263.88 -0.802931 1.76824 0
M  V30 13492 O 1263.15 -1.58011 1.13415 0
M  V30 13493 C 1263.43 1.06332 3.44043 0
M  V30 13494 C 1263.29 2.5869 3.67967 0
M  V30 13495 C 1264.61 0.613058 4.35809 0
M  V30 13496 H 1261.73 0.242132 0.69609 0
M  V30 13497 H 1264.37 1.23091 1.44736 0
M  V30 13498 H 1262.52 0.579623 3.84152 0
M  V30 13499 H 1264.19 3.14694 3.37291 0
M  V30 13500 H 1262.43 3.00971 3.12408 0
M  V30 13501 H 1263.1 2.8179 4.74656 0
M  V30 13502 H 1265.58 1.02846 4.0319 0
M  V30 13503 H 1264.46 0.921901 5.41103 0
M  V30 13504 H 1264.72 -0.48641 4.39416 0
M  V30 13505 N 1263.78 -1.38018 0.760839 0
M  V30 13506 C 1264.69 -2.34181 0.140232 0
M  V30 13507 C 1265.7 -1.59635 -0.692287 0
M  V30 13508 O 1266.88 -1.91788 -0.614752 0
M  V30 13509 C 1263.94 -3.38778 -0.73693 0
M  V30 13510 C 1263 -4.29157 0.110792 0
M  V30 13511 C 1262.24 -5.28758 -0.724599 0
M  V30 13512 O 1262.46 -5.35585 -1.96226 0
M  V30 13513 O 1261.39 -6.01738 -0.139565 0
M  V30 13514 H 1265.22 -2.88962 0.934588 0
M  V30 13515 H 1262.8 -1.3999 0.521835 0
M  V30 13516 H 1264.69 -4.02804 -1.23803 0
M  V30 13517 H 1263.36 -2.86341 -1.50966 0
M  V30 13518 H 1262.27 -3.68268 0.658007 0
M  V30 13519 H 1263.6 -4.84869 0.846346 0
M  V30 13520 N 1265.25 -0.510493 -1.49103 0
M  V30 13521 C 1266.66 -0.0650831 -1.86587 0
M  V30 13522 C 1267.02 1.35185 -1.42195 0
M  V30 13523 O 1266.14 2.0091 -0.804004 0
M  V30 13524 C 1266.74 -0.111333 -3.38617 0
M  V30 13525 C 1265.29 0.278782 -3.75366 0
M  V30 13526 C 1264.44 -0.479707 -2.73119 0
M  V30 13527 H 1267.39 -0.722784 -1.41285 0
M  V30 13528 H 1267.41 0.681706 -3.74343 0
M  V30 13529 H 1266.93 -1.14271 -3.70896 0
M  V30 13530 H 1265.03 1.31304 -3.48698 0
M  V30 13531 H 1265.14 -0.047271 -4.79077 0
M  V30 13532 H 1263.5 0.0716459 -2.54599 0
M  V30 13533 H 1264.29 -1.51135 -3.08242 0
M  V30 13534 N 1266.73 1.55688 -0.24474 0
M  V30 13535 C 1267.96 2.02995 0.38425 0
M  V30 13536 C 1268.37 1.12339 1.52239 0
M  V30 13537 O 1267.71 0.129803 1.83241 0
M  V30 13538 C 1267.77 3.46564 0.955701 0
M  V30 13539 C 1267.44 4.56973 -0.0499176 0
M  V30 13540 C 1268.44 5.1276 -0.858682 0
M  V30 13541 C 1266.12 5.01994 -0.175383 0
M  V30 13542 C 1268.11 6.12059 -1.77939 0
M  V30 13543 C 1265.8 6.01126 -1.0996 0
M  V30 13544 C 1266.8 6.56037 -1.90013 0
M  V30 13545 O 1266.49 7.53235 -2.80877 0
M  V30 13546 H 1266.22 0.669189 0.0957212 0
M  V30 13547 H 1268.77 2.02121 -0.36555 0
M  V30 13548 H 1267 3.44581 1.75502 0
M  V30 13549 H 1268.69 3.77383 1.49454 0
M  V30 13550 H 1269.46 4.78811 -0.772325 0
M  V30 13551 H 1265.34 4.58918 0.437644 0
M  V30 13552 H 1268.88 6.54845 -2.40465 0
M  V30 13553 H 1264.78 6.34494 -1.18689 0
M  V30 13554 H 1265.55 7.70844 -2.75214 0
M  V30 13555 N 1268.21 -0.0283989 1.57574 0
M  V30 13556 C 1269.63 -0.384054 1.5491 0
M  V30 13557 C 1269.83 -1.76564 0.970947 0
M  V30 13558 O 1268.88 -2.45455 0.592288 0
M  V30 13559 C 1270.19 -0.285297 2.99344 0
M  V30 13560 C 1271.74 -0.36233 3.10896 0
M  V30 13561 C 1272.22 -0.293014 4.57062 0
M  V30 13562 N 1273.71 -0.351788 4.61862 0
M  V30 13563 C 1274.44 -0.321054 5.725 0
M  V30 13564 N 1273.94 -0.242573 6.92375 0
M  V30 13565 N 1275.73 -0.370832 5.60875 0
M  V30 13566 H 1267.88 0.87573 1.93506 0
M  V30 13567 H 1270.15 0.33305 0.887571 0
M  V30 13568 H 1269.85 0.664146 3.45372 0
M  V30 13569 H 1269.73 -1.07869 3.61447 0
M  V30 13570 H 1272.11 -1.30221 2.64814 0
M  V30 13571 H 1272.19 0.460422 2.51622 0
M  V30 13572 H 1271.84 0.643197 5.03811 0
M  V30 13573 H 1271.77 -1.13388 5.14248 0
M  V30 13574 H 1274.26 -0.414929 3.75615 0
M  V30 13575 H 1274.57 -0.224239 7.72475 0
M  V30 13576 H 1272.92 -0.208612 6.94687 0
M  V30 13577 H 1276.11 -0.430141 4.6612 0
M  V30 13578 H 1276.28 -0.343412 6.47089 0
M  V30 13579 N 1269.69 -1.54705 -0.300681 0
M  V30 13580 C 1270.63 -1.85678 -1.37084 0
M  V30 13581 C 1271.6 -0.70573 -1.50362 0
M  V30 13582 O 1272.79 -0.954385 -1.65215 0
M  V30 13583 C 1269.93 -2.10995 -2.73084 0
M  V30 13584 C 1269.04 -3.38621 -2.68254 0
M  V30 13585 C 1268.18 -3.53779 -3.9625 0
M  V30 13586 C 1267.22 -4.75195 -3.85818 0
M  V30 13587 N 1266.35 -4.87157 -5.05591 0
M  V30 13588 H 1271.19 -2.76967 -1.09971 0
M  V30 13589 H 1268.73 -1.37147 -0.531887 0
M  V30 13590 H 1270.69 -2.23669 -3.52176 0
M  V30 13591 H 1269.32 -1.22973 -2.98458 0
M  V30 13592 H 1268.37 -3.34566 -1.81025 0
M  V30 13593 H 1269.68 -4.27834 -2.56436 0
M  V30 13594 H 1268.84 -3.66119 -4.83779 0
M  V30 13595 H 1267.58 -2.62699 -4.10902 0
M  V30 13596 H 1266.58 -4.62888 -2.96673 0
M  V30 13597 H 1267.81 -5.67683 -3.72711 0
M  V30 13598 H 1265.75 -3.99001 -5.20706 0
M  V30 13599 H 1265.67 -5.70372 -4.96197 0
M  V30 13600 H 1266.94 -5.03854 -5.9477 0
M  V30 13601 N 1271.17 0.563888 -1.47167 0
M  V30 13602 C 1272.4 1.34498 -1.56825 0
M  V30 13603 C 1272.8 1.87974 -0.215011 0
M  V30 13604 O 1272.15 1.65323 0.80087 0
M  V30 13605 C 1272.21 2.55602 -2.528 0
M  V30 13606 C 1271.87 2.23459 -3.98642 0
M  V30 13607 C 1272.87 1.81155 -4.87318 0
M  V30 13608 C 1270.56 2.35024 -4.43925 0
M  V30 13609 C 1272.55 1.50835 -6.19296 0
M  V30 13610 C 1270.24 2.04317 -5.75932 0
M  V30 13611 C 1271.23 1.6229 -6.63439 0
M  V30 13612 O 1270.92 1.31969 -7.92994 0
M  V30 13613 H 1270.65 0.416551 -0.532411 0
M  V30 13614 H 1273.21 0.690611 -1.93442 0
M  V30 13615 H 1271.44 3.23907 -2.11237 0
M  V30 13616 H 1273.13 3.17677 -2.52659 0
M  V30 13617 H 1273.89 1.71719 -4.53583 0
M  V30 13618 H 1269.77 2.66696 -3.76024 0
M  V30 13619 H 1273.32 1.17958 -6.87555 0
M  V30 13620 H 1269.21 2.13383 -6.09211 0
M  V30 13621 H 1269.98 1.45656 -8.05436 0
M  V30 13622 N 1272.64 1.35187 0.810078 0
M  V30 13623 C 1274.06 1.25329 1.38381 0
M  V30 13624 C 1274.41 -0.115799 1.95858 0
M  V30 13625 O 1273.53 -1.01663 1.91033 0
M  V30 13626 C 1274.13 2.2693 2.51572 0
M  V30 13627 C 1272.69 2.20824 3.04818 0
M  V30 13628 C 1271.83 2.1283 1.7776 0
M  V30 13629 H 1274.78 1.46366 0.613402 0
M  V30 13630 H 1274.8 1.89375 3.30026 0
M  V30 13631 H 1274.32 3.26563 2.09709 0
M  V30 13632 H 1272.42 1.24589 3.51153 0
M  V30 13633 H 1272.53 3.12637 3.63036 0
M  V30 13634 H 1270.89 1.58752 1.99173 0
M  V30 13635 H 1271.68 3.14318 1.38054 0
M  V30 13636 N 1274.12 -1.03182 1.19127 0
M  V30 13637 C 1275.35 -1.80165 1.01726 0
M  V30 13638 C 1275.77 -1.83742 -0.434095 0
M  V30 13639 O 1275.12 -1.27932 -1.30152 0
M  V30 13640 C 1275.17 -3.25354 1.57566 0
M  V30 13641 O 1274.89 -3.22042 2.9702 0
M  V30 13642 C 1276.4 -4.18948 1.44906 0
M  V30 13643 H 1273.62 -0.567078 0.358698 0
M  V30 13644 H 1276.16 -1.29982 1.57877 0
M  V30 13645 H 1274.31 -3.72738 1.0557 0
M  V30 13646 H 1274.73 -4.13061 3.23235 0
M  V30 13647 H 1276.2 -5.18723 1.88762 0
M  V30 13648 H 1276.68 -4.37383 0.399125 0
M  V30 13649 H 1277.29 -3.77435 1.96018 0
M  V30 13650 N 1275.6 -0.99472 -1.22242 0
M  V30 13651 C 1276.53 -0.566499 -2.26524 0
M  V30 13652 C 1277.51 0.407541 -1.65146 0
M  V30 13653 O 1278.7 0.297777 -1.91903 0
M  V30 13654 C 1275.83 0.11786 -3.471 0
M  V30 13655 C 1274.78 -0.774908 -4.20927 0
M  V30 13656 C 1274.11 0.0424687 -5.34683 0
M  V30 13657 C 1275.41 -2.07263 -4.79416 0
M  V30 13658 H 1277.1 -1.43818 -2.62596 0
M  V30 13659 H 1274.65 -0.692971 -1.2623 0
M  V30 13660 H 1276.6 0.428842 -4.19212 0
M  V30 13661 H 1275.32 1.0241 -3.10129 0
M  V30 13662 H 1273.98 -1.06956 -3.50651 0
M  V30 13663 H 1273.63 0.949677 -4.93954 0
M  V30 13664 H 1273.33 -0.551867 -5.85003 0
M  V30 13665 H 1274.85 0.347504 -6.0961 0
M  V30 13666 H 1276.27 -1.82548 -5.4346 0
M  V30 13667 H 1274.67 -2.61594 -5.40082 0
M  V30 13668 H 1275.74 -2.75017 -3.99366 0
M  V30 13669 N 1277.08 1.37613 -0.768148 0
M  V30 13670 C 1278.01 2.3291 -0.165911 0
M  V30 13671 C 1278.99 1.556 0.687205 0
M  V30 13672 O 1280.17 1.83854 0.625407 0
M  V30 13673 C 1277.3 3.39822 0.7168 0
M  V30 13674 C 1276.26 4.27986 -0.0347264 0
M  V30 13675 C 1275.58 5.2588 0.967192 0
M  V30 13676 C 1276.88 5.08052 -1.21164 0
M  V30 13677 H 1278.58 2.83524 -0.962006 0
M  V30 13678 H 1276.12 1.36318 -0.464051 0
M  V30 13679 H 1278.08 4.05464 1.14789 0
M  V30 13680 H 1276.8 2.87725 1.54538 0
M  V30 13681 H 1275.46 3.6387 -0.446557 0
M  V30 13682 H 1275.11 4.70064 1.79022 0
M  V30 13683 H 1274.81 5.85726 0.468913 0
M  V30 13684 H 1276.33 5.94397 1.3973 0
M  V30 13685 H 1277.75 5.66853 -0.857373 0
M  V30 13686 H 1276.14 5.77206 -1.64176 0
M  V30 13687 H 1277.21 4.40936 -2.0175 0
M  V30 13688 N 1278.56 0.518393 1.4883 0
M  V30 13689 C 1279.47 -0.254811 2.33212 0
M  V30 13690 C 1280.48 -0.950401 1.45751 0
M  V30 13691 O 1281.66 -0.927932 1.78749 0
M  V30 13692 C 1278.72 -1.29509 3.21603 0
M  V30 13693 C 1277.78 -0.611086 4.24928 0
M  V30 13694 C 1277.02 -1.6018 5.09095 0
M  V30 13695 O 1277.24 -2.83336 4.95052 0
M  V30 13696 O 1276.17 -1.14756 5.90859 0
M  V30 13697 H 1280 0.436329 3.00549 0
M  V30 13698 H 1277.59 0.27947 1.46763 0
M  V30 13699 H 1279.47 -1.89654 3.7631 0
M  V30 13700 H 1278.14 -1.96884 2.5694 0
M  V30 13701 H 1277.05 0.0305638 3.74088 0
M  V30 13702 H 1278.38 0.0205249 4.92196 0
M  V30 13703 N 1280.03 -1.55556 0.252993 0
M  V30 13704 C 1281.28 -1.99385 -0.370599 0
M  V30 13705 C 1281.61 -1.14101 -1.57145 0
M  V30 13706 O 1280.89 -0.205828 -1.93408 0
M  V30 13707 C 1281.17 -3.51672 -0.774503 0
M  V30 13708 C 1281.02 -4.47719 0.432159 0
M  V30 13709 C 1282.34 -4.0923 -1.61923 0
M  V30 13710 H 1279.46 -0.724858 -0.133231 0
M  V30 13711 H 1282.1 -1.86644 0.355522 0
M  V30 13712 H 1280.25 -3.62661 -1.39318 0
M  V30 13713 H 1281.93 -4.48704 1.07063 0
M  V30 13714 H 1280.17 -4.2029 1.07419 0
M  V30 13715 H 1280.84 -5.51898 0.106123 0
M  V30 13716 H 1283.32 -4.01381 -1.09693 0
M  V30 13717 H 1282.19 -5.16039 -1.87068 0
M  V30 13718 H 1282.45 -3.58067 -2.59307 0
M  V30 13719 N 1281.51 0.0200419 -1.57587 0
M  V30 13720 C 1282.44 1.01715 -2.10181 0
M  V30 13721 C 1283.42 1.37136 -1.00636 0
M  V30 13722 O 1284.61 1.45862 -1.2821 0
M  V30 13723 C 1281.74 2.31531 -2.58865 0
M  V30 13724 C 1280.69 2.10327 -3.72755 0
M  V30 13725 C 1280.02 3.45981 -4.07678 0
M  V30 13726 C 1281.32 1.4821 -5.0083 0
M  V30 13727 H 1283.01 0.579307 -2.93742 0
M  V30 13728 H 1280.56 0.277211 -1.41307 0
M  V30 13729 H 1282.51 3.01623 -2.94281 0
M  V30 13730 H 1281.24 2.77392 -1.72399 0
M  V30 13731 H 1279.89 1.42665 -3.37701 0
M  V30 13732 H 1279.54 3.89508 -3.18265 0
M  V30 13733 H 1279.24 3.32616 -4.84397 0
M  V30 13734 H 1280.77 4.17421 -4.45637 0
M  V30 13735 H 1282.18 2.08232 -5.34146 0
M  V30 13736 H 1280.58 1.45393 -5.82221 0
M  V30 13737 H 1281.65 0.448942 -4.82817 0
M  V30 13738 N 1282.99 1.54862 0.292472 0
M  V30 13739 C 1283.92 1.89406 1.36556 0
M  V30 13740 C 1284.9 0.753838 1.52484 0
M  V30 13741 O 1286.09 1.01031 1.6585 0
M  V30 13742 C 1283.22 2.14888 2.72838 0
M  V30 13743 C 1282.17 3.3073 2.71665 0
M  V30 13744 C 1281.5 3.41648 4.11316 0
M  V30 13745 C 1282.8 4.67622 2.32651 0
M  V30 13746 H 1284.49 2.79284 1.07894 0
M  V30 13747 H 1282.04 1.34377 0.517585 0
M  V30 13748 H 1283.99 2.3764 3.48002 0
M  V30 13749 H 1282.71 1.2179 3.03042 0
M  V30 13750 H 1281.37 3.07915 1.98958 0
M  V30 13751 H 1281.02 2.46051 4.38711 0
M  V30 13752 H 1280.72 4.19522 4.11431 0
M  V30 13753 H 1282.24 3.6667 4.88248 0
M  V30 13754 H 1283.66 4.90048 2.97533 0
M  V30 13755 H 1282.06 5.48272 2.43963 0
M  V30 13756 H 1283.13 4.67762 1.27777 0
M  V30 13757 N 1284.47 -0.556076 1.47464 0
M  V30 13758 C 1285.42 -1.68406 1.60444 0
M  V30 13759 C 1286.41 -1.627 0.471713 0
M  V30 13760 O 1287.62 -1.67871 0.649551 0
M  V30 13761 H 1283.99 -0.557255 0.504946 0
M  V30 13762 H 1285.96 -1.54595 2.55231 0
M  V30 13763 C 1284.71 -3.06756 1.63695 0
M  V30 13764 H 1284.03 -3.11829 2.50206 0
M  V30 13765 H 1285.47 -3.85368 1.76827 0
M  V30 13766 C 1283.93 -3.34857 0.370485 0
M  V30 13767 O 1284.46 -3.98216 -0.527942 0
M  V30 13768 N 1282.67 -2.89521 0.250163 0
M  V30 13769 H 1282.22 -2.3814 0.982204 0
M  V30 13770 H 1282.17 -3.08694 -0.596268 0
M  V30 13771 N 1285.95 -1.35615 -0.802897 0
M  V30 13772 C 1287.19 -1.29094 -1.56016 0
M  V30 13773 C 1287.52 0.133617 -1.9404 0
M  V30 13774 O 1286.78 1.09975 -1.61876 0
M  V30 13775 C 1287.08 -2.14653 -2.8576 0
M  V30 13776 C 1286.74 -3.63395 -2.66936 0
M  V30 13777 C 1285.4 -4.03937 -2.61511 0
M  V30 13778 C 1287.76 -4.57758 -2.49212 0
M  V30 13779 C 1285.08 -5.37006 -2.36309 0
M  V30 13780 C 1287.44 -5.91029 -2.25539 0
M  V30 13781 C 1286.1 -6.30712 -2.18538 0
M  V30 13782 H 1285.37 -0.472387 -0.570904 0
M  V30 13783 H 1288.02 -1.67545 -0.92741 0
M  V30 13784 H 1286.32 -1.69095 -3.53432 0
M  V30 13785 H 1288.02 -2.06941 -3.43477 0
M  V30 13786 H 1284.61 -3.31224 -2.72009 0
M  V30 13787 H 1288.79 -4.27318 -2.52414 0
M  V30 13788 H 1284.05 -5.66748 -2.29361 0
M  V30 13789 H 1288.22 -6.63724 -2.10816 0
M  V30 13790 H 1285.85 -7.33753 -1.98772 0
M  V30 13791 N 1287.43 1.02549 -1.19673 0
M  V30 13792 C 1288.36 2.12794 -0.961289 0
M  V30 13793 C 1289.34 1.69766 0.106575 0
M  V30 13794 O 1290.52 1.94138 -0.0491358 0
M  V30 13795 C 1287.65 3.4364 -0.502868 0
M  V30 13796 C 1286.61 4.00367 -1.51296 0
M  V30 13797 C 1285.93 5.26874 -0.911491 0
M  V30 13798 C 1287.23 4.34782 -2.89416 0
M  V30 13799 H 1288.93 2.32748 -1.88331 0
M  V30 13800 H 1286.47 1.11852 -0.906922 0
M  V30 13801 H 1288.42 4.20141 -0.325436 0
M  V30 13802 H 1287.15 3.23418 0.454764 0
M  V30 13803 H 1285.81 3.25964 -1.67759 0
M  V30 13804 H 1285.46 5.02971 0.0537982 0
M  V30 13805 H 1285.16 5.65791 -1.58602 0
M  V30 13806 H 1286.68 6.06039 -0.74493 0
M  V30 13807 H 1288.09 5.02207 -2.76516 0
M  V30 13808 H 1286.49 4.8479 -3.53693 0
M  V30 13809 H 1287.56 3.43935 -3.41814 0
M  V30 13810 N 1288.9 1.00119 1.21713 0
M  V30 13811 C 1289.85 0.558388 2.23943 0
M  V30 13812 C 1290.82 -0.413576 1.60869 0
M  V30 13813 O 1292.01 -0.316478 1.88157 0
M  V30 13814 C 1289.15 -0.112618 3.44916 0
M  V30 13815 C 1288.26 0.902071 4.22477 0
M  V30 13816 C 1287.39 0.203722 5.30809 0
M  V30 13817 C 1286.43 1.20622 6.00097 0
M  V30 13818 N 1285.57 0.535607 7.00054 0
M  V30 13819 H 1290.41 1.43486 2.61182 0
M  V30 13820 H 1287.95 0.718572 1.28355 0
M  V30 13821 H 1289.9 -0.51865 4.13964 0
M  V30 13822 H 1288.53 -0.952827 3.08417 0
M  V30 13823 H 1287.59 1.42637 3.52645 0
M  V30 13824 H 1288.9 1.66513 4.70186 0
M  V30 13825 H 1288.05 -0.258614 6.06149 0
M  V30 13826 H 1286.79 -0.591773 4.84096 0
M  V30 13827 H 1285.8 1.6791 5.23532 0
M  V30 13828 H 1287.02 2.00273 6.48897 0
M  V30 13829 H 1284.97 -0.2403 6.5556 0
M  V30 13830 H 1284.88 1.23698 7.45812 0
M  V30 13831 H 1286.15 0.0963489 7.7944 0
M  V30 13832 N 1290.38 -1.37203 0.775435 0
M  V30 13833 C 1291.61 -2.03868 0.352927 0
M  V30 13834 C 1292.02 -1.58482 -1.0261 0
M  V30 13835 O 1291.38 -0.767772 -1.65564 0
M  V30 13836 C 1291.43 -3.59378 0.39116 0
M  V30 13837 O 1291.15 -4.03103 1.71579 0
M  V30 13838 C 1292.65 -4.4328 -0.0424808 0
M  V30 13839 H 1289.87 -0.654619 0.14736 0
M  V30 13840 H 1292.42 -1.75463 1.05039 0
M  V30 13841 H 1290.57 -3.86542 -0.257752 0
M  V30 13842 H 1290.99 -4.9764 1.65695 0
M  V30 13843 H 1292.46 -5.51989 0.0354215 0
M  V30 13844 H 1292.94 -4.25374 -1.09333 0
M  V30 13845 H 1293.54 -4.21349 0.578384 0
M  V30 13846 N 1291.86 -0.526279 -1.48553 0
M  V30 13847 C 1292.77 0.24244 -2.33344 0
M  V30 13848 C 1293.79 0.942658 -1.46253 0
M  V30 13849 O 1294.96 0.91844 -1.79239 0
M  V30 13850 C 1292.03 1.27801 -3.22285 0
M  V30 13851 C 1291.09 0.588543 -4.25247 0
M  V30 13852 C 1290.32 1.57478 -5.09938 0
M  V30 13853 O 1290.54 2.80707 -4.96548 0
M  V30 13854 O 1289.48 1.11621 -5.9146 0
M  V30 13855 H 1293.3 -0.452262 -3.00314 0
M  V30 13856 H 1290.89 -0.287249 -1.46613 0
M  V30 13857 H 1292.77 1.87656 -3.7731 0
M  V30 13858 H 1291.45 1.95519 -2.57981 0
M  V30 13859 H 1290.35 -0.0504022 -3.74066 0
M  V30 13860 H 1291.69 -0.046627 -4.92178 0
M  V30 13861 N 1293.34 1.5542 -0.261239 0
M  V30 13862 C 1294.27 2.19334 0.665214 0
M  V30 13863 C 1295.28 1.17388 1.128 0
M  V30 13864 O 1296.47 1.44183 1.0523 0
M  V30 13865 C 1293.57 2.79425 1.91768 0
M  V30 13866 C 1292.74 4.06929 1.60399 0
M  V30 13867 C 1291.8 4.51199 2.70751 0
M  V30 13868 O 1290.83 5.17272 2.37526 0
M  V30 13869 N 1292.03 4.20179 4.00537 0
M  V30 13870 H 1294.8 2.99467 0.118262 0
M  V30 13871 H 1292.36 1.61693 -0.0817727 0
M  V30 13872 H 1294.35 3.05992 2.64861 0
M  V30 13873 H 1292.92 2.03366 2.37405 0
M  V30 13874 H 1292.14 3.87798 0.707559 0
M  V30 13875 H 1293.43 4.9003 1.36924 0
M  V30 13876 H 1292.83 3.67164 4.30357 0
M  V30 13877 H 1291.38 4.51549 4.7005 0
M  V30 13878 N 1294.82 -0.0116844 1.57596 0
M  V30 13879 C 1295.76 -1.02514 2.08791 0
M  V30 13880 C 1296.76 -1.36341 1.00536 0
M  V30 13881 O 1297.96 -1.35042 1.19011 0
M  V30 13882 H 1294.34 -0.348201 0.666528 0
M  V30 13883 H 1296.31 -0.567698 2.9295 0
M  V30 13884 C 1295.06 -2.312 2.59696 0
M  V30 13885 H 1294.38 -2.06036 3.42621 0
M  V30 13886 H 1295.82 -3.00417 2.99208 0
M  V30 13887 C 1294.28 -3.01372 1.50586 0
M  V30 13888 O 1294.81 -3.91896 0.882046 0
M  V30 13889 N 1293.02 -2.62997 1.23616 0
M  V30 13890 H 1292.56 -1.89466 1.74529 0
M  V30 13891 H 1292.52 -3.10264 0.508289 0
M  V30 13892 N 1296.29 -1.55015 -0.284256 0
M  V30 13893 C 1297.23 -1.83517 -1.3731 0
M  V30 13894 C 1298.24 -0.719009 -1.46062 0
M  V30 13895 O 1299.43 -0.996719 -1.4808 0
M  V30 13896 C 1296.53 -1.97309 -2.7554 0
M  V30 13897 C 1295.7 -3.2787 -2.89517 0
M  V30 13898 C 1294.76 -3.31868 -4.08351 0
M  V30 13899 O 1293.79 -4.05309 -3.99642 0
M  V30 13900 N 1294.99 -2.5846 -5.19787 0
M  V30 13901 H 1297.75 -2.77495 -1.1321 0
M  V30 13902 H 1295.31 -1.54795 -0.474359 0
M  V30 13903 H 1297.31 -1.97367 -3.53311 0
M  V30 13904 H 1295.88 -1.10249 -2.92513 0
M  V30 13905 H 1295.1 -3.40445 -1.98722 0
M  V30 13906 H 1296.38 -4.13996 -2.95779 0
M  V30 13907 H 1295.78 -1.98455 -5.29747 0
M  V30 13908 H 1294.34 -2.64253 -5.9583 0
M  V30 13909 N 1297.77 0.548248 -1.47757 0
M  V30 13910 C 1299.02 1.30243 -1.54535 0
M  V30 13911 C 1299.34 1.93832 -0.213089 0
M  V30 13912 O 1298.61 1.80397 0.763782 0
M  V30 13913 H 1297.19 0.483684 -0.569262 0
M  V30 13914 H 1299.85 0.639485 -1.8411 0
M  V30 13915 H 1298.95 2.09128 -2.31672 0
M  V30 13916 N 1299.25 1.36039 0.795694 0
M  V30 13917 C 1300.48 1.33059 1.58439 0
M  V30 13918 C 1300.89 -0.0895496 1.88588 0
M  V30 13919 O 1300.25 -1.04466 1.49643 0
M  V30 13920 C 1300.3 2.14594 2.90915 0
M  V30 13921 O 1300.02 3.51072 2.62069 0
M  V30 13922 C 1301.52 2.19324 3.85242 0
M  V30 13923 H 1298.74 0.456668 0.491625 0
M  V30 13924 H 1301.29 1.79048 0.988035 0
M  V30 13925 H 1299.44 1.72177 3.47036 0
M  V30 13926 H 1299.86 3.93545 3.46732 0
M  V30 13927 H 1301.33 2.80744 4.75276 0
M  V30 13928 H 1301.81 1.19496 4.22631 0
M  V30 13929 H 1302.41 2.6195 3.35056 0
M  V30 13930 N 1300.73 -1.01913 1.20215 0
M  V30 13931 C 1302.14 -1.27766 0.956459 0
M  V30 13932 C 1302.34 -1.98158 -0.365486 0
M  V30 13933 O 1301.4 -2.27539 -1.09463 0
M  V30 13934 C 1302.71 -2.11516 2.13732 0
M  V30 13935 C 1304.26 -2.24792 2.17802 0
M  V30 13936 C 1304.74 -3.11919 3.35367 0
M  V30 13937 N 1306.23 -3.19507 3.35364 0
M  V30 13938 C 1306.96 -3.8714 4.22978 0
M  V30 13939 N 1306.46 -4.5692 5.20765 0
M  V30 13940 N 1308.25 -3.83638 4.10827 0
M  V30 13941 H 1300.4 -0.546426 2.05251 0
M  V30 13942 H 1302.67 -0.303772 0.898012 0
M  V30 13943 H 1302.37 -1.67127 3.09453 0
M  V30 13944 H 1302.25 -3.12249 2.11614 0
M  V30 13945 H 1304.63 -2.68407 1.22645 0
M  V30 13946 H 1304.71 -1.23576 2.2397 0
M  V30 13947 H 1304.36 -2.6901 4.30809 0
M  V30 13948 H 1304.29 -4.13215 3.26436 0
M  V30 13949 H 1306.78 -2.69819 2.64587 0
M  V30 13950 H 1307.09 -5.06188 5.83947 0
M  V30 13951 H 1305.44 -4.55753 5.24704 0
M  V30 13952 H 1308.63 -3.28268 3.33703 0
M  V30 13953 H 1308.8 -4.36071 4.79318 0
M  V30 13954 N 1302.21 -1.00763 -1.2118 0
M  V30 13955 C 1303.62 -0.720905 -1.42391 0
M  V30 13956 C 1303.82 0.702918 -1.88842 0
M  V30 13957 O 1302.88 1.47191 -2.05161 0
M  V30 13958 C 1304.19 -1.739 -2.45315 0
M  V30 13959 C 1305.74 -1.75611 -2.59094 0
M  V30 13960 C 1306.21 -2.76323 -3.65253 0
M  V30 13961 N 1307.71 -2.75007 -3.72727 0
M  V30 13962 C 1308.44 -3.49594 -4.54502 0
M  V30 13963 N 1307.94 -4.33828 -5.40153 0
M  V30 13964 N 1309.73 -3.38232 -4.4895 0
M  V30 13965 H 1301.88 -1.92697 -0.893404 0
M  V30 13966 H 1304.14 -0.831888 -0.454606 0
M  V30 13967 H 1303.85 -2.75859 -2.18162 0
M  V30 13968 H 1303.72 -1.5438 -3.44161 0
M  V30 13969 H 1306.11 -0.743416 -2.85582 0
M  V30 13970 H 1306.19 -1.99203 -1.60474 0
M  V30 13971 H 1305.84 -3.77751 -3.39509 0
M  V30 13972 H 1305.77 -2.49996 -4.63476 0
M  V30 13973 H 1308.26 -2.13897 -3.11539 0
M  V30 13974 H 1308.57 -4.8753 -5.99612 0
M  V30 13975 H 1306.91 -4.3791 -5.39685 0
M  V30 13976 H 1310.11 -2.71855 -3.81068 0
M  V30 13977 H 1310.28 -3.96615 -5.12445 0
M  V30 13978 N 1303.68 1.3679 -0.7827 0
M  V30 13979 C 1304.59 2.33928 -0.17747 0
M  V30 13980 C 1305.61 1.60716 0.666802 0
M  V30 13981 O 1306.79 1.92742 0.584162 0
M  V30 13982 C 1303.85 3.39907 0.68294 0
M  V30 13983 C 1302.91 4.28926 -0.179053 0
M  V30 13984 C 1302.15 5.29844 0.640386 0
M  V30 13985 O 1302.37 5.38639 1.87681 0
M  V30 13986 O 1301.3 6.01884 0.0438164 0
M  V30 13987 H 1305.13 2.87439 -0.980441 0
M  V30 13988 H 1302.71 1.39142 -0.54404 0
M  V30 13989 H 1304.6 4.04722 1.17379 0
M  V30 13990 H 1303.27 2.88706 1.46391 0
M  V30 13991 H 1302.18 3.67174 -0.716512 0
M  V30 13992 H 1303.51 4.83461 -0.923377 0
M  V30 13993 N 1305.16 0.53415 1.48272 0
M  V30 13994 C 1306.13 -0.215641 2.28183 0
M  V30 13995 C 1307.13 -0.863966 1.35618 0
M  V30 13996 O 1308.32 -0.723375 1.58471 0
M  V30 13997 C 1305.45 -1.31251 3.1462 0
M  V30 13998 H 1306.64 0.486014 2.95936 0
M  V30 13999 H 1304.19 0.290237 1.53582 0
M  V30 14000 H 1304.93 -2.04729 2.51508 0
M  V30 14001 H 1304.71 -0.852706 3.82716 0
M  V30 14002 H 1306.2 -1.83978 3.74889 0
M  V30 14003 N 1306.64 -1.55279 0.269478 0
M  V30 14004 C 1307.89 -1.98649 -0.349522 0
M  V30 14005 C 1308.2 -1.16125 -1.57399 0
M  V30 14006 O 1309.41 -1.49612 -2.26558 0
M  V30 14007 C 1307.86 -3.53547 -0.673224 0
M  V30 14008 C 1307.47 -4.44841 0.531119 0
M  V30 14009 C 1309.22 -4.05519 -1.25516 0
M  V30 14010 C 1307.12 -5.91119 0.182317 0
M  V30 14011 H 1306.05 -0.74193 -0.13437 0
M  V30 14012 H 1308.7 -1.79664 0.373246 0
M  V30 14013 H 1307.09 -3.68311 -1.45474 0
M  V30 14014 H 1308.26 -4.41843 1.3081 0
M  V30 14015 H 1306.58 -4.03472 1.02952 0
M  V30 14016 H 1309.17 -5.12347 -1.52984 0
M  V30 14017 H 1309.52 -3.54215 -2.18718 0
M  V30 14018 H 1310.05 -3.94172 -0.536059 0
M  V30 14019 H 1306.79 -6.46507 1.08206 0
M  V30 14020 H 1306.31 -5.97199 -0.558008 0
M  V30 14021 H 1307.99 -6.466 -0.227484 0
M  V30 14022 N 1308.12 0.00332656 -1.576 0
M  V30 14023 C 1309.53 0.359361 -1.55502 0
M  V30 14024 C 1309.73 1.74997 -0.998914 0
M  V30 14025 O 1308.79 2.44482 -0.631263 0
M  V30 14026 C 1310.1 0.237638 -2.9976 0
M  V30 14027 C 1311.65 0.312824 -3.11433 0
M  V30 14028 C 1312.13 0.220262 -4.5747 0
M  V30 14029 N 1313.62 0.278265 -4.62363 0
M  V30 14030 C 1314.35 0.229933 -5.72939 0
M  V30 14031 N 1313.85 0.132391 -6.92673 0
M  V30 14032 N 1315.64 0.281555 -5.61394 0
M  V30 14033 H 1307.79 -0.906404 -1.92089 0
M  V30 14034 H 1310.06 -0.347129 -0.88216 0
M  V30 14035 H 1309.76 -0.719007 -3.44272 0
M  V30 14036 H 1309.64 1.02105 -3.63118 0
M  V30 14037 H 1312.02 1.25991 -2.66852 0
M  V30 14038 H 1312.1 -0.500395 -2.50858 0
M  V30 14039 H 1311.75 -0.723267 -5.02724 0
M  V30 14040 H 1311.68 1.05192 -5.15987 0
M  V30 14041 H 1314.17 0.35512 -3.76228 0
M  V30 14042 H 1314.48 0.101317 -7.72734 0
M  V30 14043 H 1312.83 0.0980665 -6.94931 0
M  V30 14044 H 1316.02 0.355931 -4.66745 0
M  V30 14045 H 1316.19 0.240423 -6.47554 0
M  V30 14046 N 1309.6 1.55164 0.276031 0
M  V30 14047 C 1310.84 1.75887 1.00953 0
M  V30 14048 C 1311.18 0.5567 1.8605 0
M  V30 14049 O 1310.45 -0.445799 1.89322 0
M  V30 14050 C 1310.73 3.06228 1.89463 0
M  V30 14051 C 1310.59 4.36795 1.07379 0
M  V30 14052 C 1311.91 3.32589 2.88223 0
M  V30 14053 H 1309.02 0.639929 0.365596 0
M  V30 14054 H 1311.67 1.87893 0.282156 0
M  V30 14055 H 1309.82 2.96124 2.51481 0
M  V30 14056 H 1311.49 4.58853 0.474549 0
M  V30 14057 H 1309.73 4.32157 0.377165 0
M  V30 14058 H 1310.4 5.24315 1.72621 0
M  V30 14059 H 1312.88 3.42467 2.36338 0
M  V30 14060 H 1311.75 4.2506 3.47297 0
M  V30 14061 H 1312.02 2.52083 3.6319 0
M  V30 14062 N 1311.07 -0.540404 1.48045 0
M  V30 14063 C 1312 -1.65538 1.6468 0
M  V30 14064 C 1312.99 -1.62713 0.495847 0
M  V30 14065 O 1314.17 -1.80072 0.727172 0
M  V30 14066 C 1311.3 -3.0415 1.67661 0
M  V30 14067 C 1310.25 -3.2183 2.82152 0
M  V30 14068 C 1309.58 -4.61397 2.70216 0
M  V30 14069 C 1310.88 -3.05596 4.23567 0
M  V30 14070 H 1312.57 -1.51873 2.58021 0
M  V30 14071 H 1310.12 -0.729208 1.24171 0
M  V30 14072 H 1312.07 -3.82013 1.77887 0
M  V30 14073 H 1310.8 -3.18814 0.708907 0
M  V30 14074 H 1309.46 -2.4638 2.71463 0
M  V30 14075 H 1309.1 -4.72883 1.71437 0
M  V30 14076 H 1308.8 -4.74174 3.47035 0
M  V30 14077 H 1310.33 -5.41374 2.82395 0
M  V30 14078 H 1311.74 -3.73261 4.35143 0
M  V30 14079 H 1310.14 -3.29871 5.01303 0
M  V30 14080 H 1311.21 -2.0214 4.40758 0
M  V30 14081 N 1312.55 -1.36459 -0.788468 0
M  V30 14082 C 1313.8 -1.30483 -1.54333 0
M  V30 14083 C 1314.12 0.115266 -1.94659 0
M  V30 14084 O 1313.39 1.05573 -1.65019 0
M  V30 14085 H 1311.97 -0.480004 -0.572368 0
M  V30 14086 H 1314.63 -1.70765 -0.939428 0
M  V30 14087 H 1313.73 -1.93284 -2.45046 0
M  V30 14088 N 1314.03 1.01274 -1.20754 0
M  V30 14089 C 1314.96 2.11763 -0.983805 0
M  V30 14090 C 1315.94 1.69869 0.0885635 0
M  V30 14091 O 1317.13 1.94075 -0.0697239 0
M  V30 14092 C 1314.26 3.43087 -0.539287 0
M  V30 14093 C 1313.21 3.9874 -1.55534 0
M  V30 14094 C 1312.54 5.25877 -0.967322 0
M  V30 14095 C 1313.84 4.31688 -2.94012 0
M  V30 14096 H 1315.53 2.30737 -1.90789 0
M  V30 14097 H 1313.08 1.10884 -0.918734 0
M  V30 14098 H 1315.03 4.19773 -0.369979 0
M  V30 14099 H 1313.75 3.23883 0.420435 0
M  V30 14100 H 1312.41 3.24166 -1.71207 0
M  V30 14101 H 1312.06 5.03 0.000448307 0
M  V30 14102 H 1311.76 5.64077 -1.64594 0
M  V30 14103 H 1313.28 6.05215 -0.809167 0
M  V30 14104 H 1314.7 4.99246 -2.81827 0
M  V30 14105 H 1313.1 4.81011 -3.58815 0
M  V30 14106 H 1314.17 3.4029 -3.45442 0
M  V30 14107 N 1315.51 1.01404 1.20644 0
M  V30 14108 C 1316.44 0.602465 2.25594 0
M  V30 14109 C 1317.42 -0.381216 1.65773 0
M  V30 14110 O 1318.61 -0.267209 1.92353 0
M  V30 14111 C 1315.74 -0.0626245 3.47244 0
M  V30 14112 C 1314.69 0.841776 4.1964 0
M  V30 14113 C 1314.02 0.0426002 5.34683 0
M  V30 14114 C 1315.32 2.14864 4.76058 0
M  V30 14115 H 1317.01 1.47977 2.60275 0
M  V30 14116 H 1314.56 0.712966 1.25111 0
M  V30 14117 H 1316.51 -0.362095 4.19841 0
M  V30 14118 H 1315.23 -0.974627 3.11719 0
M  V30 14119 H 1313.89 1.12521 3.48905 0
M  V30 14120 H 1313.54 -0.870973 4.95402 0
M  V30 14121 H 1313.24 0.644866 5.84051 0
M  V30 14122 H 1314.76 -0.250476 6.10086 0
M  V30 14123 H 1316.18 1.9117 5.40488 0
M  V30 14124 H 1314.57 2.70153 5.35852 0
M  V30 14125 H 1315.64 2.81336 3.9494 0
M  V30 14126 N 1316.99 -1.36373 0.789944 0
M  V30 14127 C 1318.24 -1.98834 0.361866 0
M  V30 14128 C 1318.56 -1.63006 -1.07024 0
M  V30 14129 O 1317.83 -0.904312 -1.73779 0
M  V30 14130 H 1316.41 -0.735457 0.130812 0
M  V30 14131 H 1319.07 -1.66561 1.0121 0
M  V30 14132 H 1318.16 -3.08778 0.454122 0
M  V30 14133 N 1318.47 -0.542005 -1.47987 0
M  V30 14134 C 1319.43 0.203537 -2.28294 0
M  V30 14135 C 1320.43 0.856762 -1.36074 0
M  V30 14136 O 1321.62 0.71496 -1.58852 0
M  V30 14137 C 1318.75 1.29581 -3.15312 0
M  V30 14138 H 1319.94 -0.501701 -2.95674 0
M  V30 14139 H 1317.5 -0.298378 -1.53426 0
M  V30 14140 H 1318.23 2.03393 -2.5259 0
M  V30 14141 H 1318.02 0.832398 -3.83163 0
M  V30 14142 H 1319.51 1.81988 -3.75859 0
M  V30 14143 N 1319.94 1.55134 -0.277709 0
M  V30 14144 C 1320.87 2.256 0.602232 0
M  V30 14145 C 1321.85 1.24708 1.15681 0
M  V30 14146 O 1323.04 1.53433 1.19046 0
M  V30 14147 C 1320.17 2.97907 1.78519 0
M  V30 14148 C 1319.12 4.0575 1.36203 0
M  V30 14149 C 1318.45 4.65644 2.62829 0
M  V30 14150 C 1319.75 5.19801 0.510327 0
M  V30 14151 H 1321.44 2.99396 0.0145622 0
M  V30 14152 H 1318.99 1.43999 0.00556389 0
M  V30 14153 H 1320.94 3.45915 2.40668 0
M  V30 14154 H 1319.67 2.21649 2.39873 0
M  V30 14155 H 1318.33 3.58557 0.763726 0
M  V30 14156 H 1317.97 3.86053 3.22447 0
M  V30 14157 H 1317.67 5.38463 2.35227 0
M  V30 14158 H 1319.2 5.16403 3.25823 0
M  V30 14159 H 1320.61 5.63845 1.03689 0
M  V30 14160 H 1319.01 5.99197 0.329073 0
M  V30 14161 H 1320.08 4.82614 -0.470273 0
M  V30 14162 N 1321.42 0.00503138 1.57599 0
M  V30 14163 C 1322.7 -0.716079 1.82021 0
M  V30 14164 C 1323.08 -1.91707 0.883829 0
M  V30 14165 O 1322.43 -2.28404 -0.0662812 0
M  V30 14166 C 1322.64 -1.11706 3.3064 0
M  V30 14167 C 1323.98 -1.51881 3.96506 0
M  V30 14168 O 1325.01 -1.21071 3.34993 0
M  V30 14169 O 1323.87 -2.09191 5.04877 0
M  V30 14170 H 1320.96 -0.349112 0.7497 0
M  V30 14171 H 1323.51 0.030871 1.69672 0
M  V30 14172 H 1322.28 -0.261223 3.90427 0
M  V30 14173 H 1321.9 -1.92295 3.48006 0
M  V30 14174 N 1322.9 -1.55308 -0.267798 0
M  V30 14175 C 1324.31 -1.66814 -0.838459 0
M  V30 14176 C 1324.66 -0.598609 -1.86845 0
M  V30 14177 O 1323.79 0.25896 -2.14845 0
M  V30 14178 C 1324.38 -3.02408 -1.52758 0
M  V30 14179 C 1322.94 -3.15923 -2.04621 0
M  V30 14180 C 1322.09 -2.62628 -0.890044 0
M  V30 14181 H 1325.04 -1.58639 -0.0440354 0
M  V30 14182 H 1325.06 -2.95687 -2.39478 0
M  V30 14183 H 1324.57 -3.80228 -0.777695 0
M  V30 14184 H 1322.67 -2.42886 -2.82555 0
M  V30 14185 H 1322.79 -4.22556 -2.25794 0
M  V30 14186 H 1321.15 -2.19918 -1.28485 0
M  V30 14187 H 1321.93 -3.42956 -0.153579 0
M  V30 14188 N 1324.38 0.532545 -1.4833 0
M  V30 14189 C 1325.61 1.31141 -1.59642 0
M  V30 14190 C 1326.02 1.87476 -0.254835 0
M  V30 14191 O 1325.36 1.66985 0.765622 0
M  V30 14192 C 1325.42 2.50182 -2.58165 0
M  V30 14193 C 1325.08 2.14953 -4.03292 0
M  V30 14194 C 1326.08 1.70777 -4.91051 0
M  V30 14195 C 1323.77 2.25555 -4.4881 0
M  V30 14196 C 1325.76 1.37665 -6.22356 0
M  V30 14197 C 1323.45 1.92055 -5.80136 0
M  V30 14198 C 1324.45 1.48181 -6.66732 0
M  V30 14199 O 1324.13 1.15119 -7.95615 0
M  V30 14200 H 1323.87 0.405164 -0.541127 0
M  V30 14201 H 1326.42 0.649423 -1.94863 0
M  V30 14202 H 1324.65 3.19353 -2.1806 0
M  V30 14203 H 1326.34 3.12246 -2.5934 0
M  V30 14204 H 1327.1 1.62059 -4.57124 0
M  V30 14205 H 1322.98 2.5866 -3.81597 0
M  V30 14206 H 1326.53 1.03348 -6.89902 0
M  V30 14207 H 1322.42 2.00413 -6.136 0
M  V30 14208 H 1323.19 1.28539 -8.08344 0
M  V30 14209 N 1325.86 1.36875 0.78122 0
M  V30 14210 C 1326.8 1.31869 1.89418 0
M  V30 14211 C 1327.77 0.185904 1.65056 0
M  V30 14212 O 1328.96 0.373745 1.87104 0
M  V30 14213 C 1326.1 1.12205 3.2635 0
M  V30 14214 C 1325.21 2.34631 3.62729 0
M  V30 14215 C 1324.35 2.07914 4.8882 0
M  V30 14216 C 1323.38 3.26257 5.17902 0
M  V30 14217 N 1322.52 2.99152 6.35179 0
M  V30 14218 H 1327.36 2.2703 1.93032 0
M  V30 14219 H 1324.9 1.12826 0.943857 0
M  V30 14220 H 1326.86 0.988282 4.05326 0
M  V30 14221 H 1325.49 0.206959 3.22136 0
M  V30 14222 H 1324.54 2.58782 2.78812 0
M  V30 14223 H 1325.85 3.22919 3.80164 0
M  V30 14224 H 1325 1.91514 5.7568 0
M  V30 14225 H 1323.74 1.1695 4.7347 0
M  V30 14226 H 1322.75 3.43207 4.29522 0
M  V30 14227 H 1323.97 4.1806 5.35166 0
M  V30 14228 H 1321.92 2.10807 6.21205 0
M  V30 14229 H 1321.84 3.80981 6.52985 0
M  V30 14230 H 1323.1 2.86349 7.25 0
M  V30 14231 N 1327.33 -1.00632 1.21289 0
M  V30 14232 C 1328.28 -2.07791 0.938459 0
M  V30 14233 C 1329.27 -1.60552 -0.105773 0
M  V30 14234 O 1330.46 -1.767 0.102981 0
M  V30 14235 C 1327.59 -3.39587 0.503563 0
M  V30 14236 C 1326.67 -3.93497 1.58179 0
M  V30 14237 N 1327.07 -4.20792 2.80656 0
M  V30 14238 C 1325.36 -4.21759 1.45035 0
M  V30 14239 C 1326.06 -4.64411 3.50281 0
M  V30 14240 N 1325.04 -4.67305 2.77717 0
M  V30 14241 H 1328.84 -2.26816 1.869 0
M  V30 14242 H 1326.36 -1.18692 1.10842 0
M  V30 14243 H 1328.35 -4.15902 0.288323 0
M  V30 14244 H 1327.01 -3.21969 -0.420233 0
M  V30 14245 H 1328.02 -4.09386 3.17212 0
M  V30 14246 H 1324.7 -4.13285 0.591745 0
M  V30 14247 H 1326.09 -4.94263 4.55141 0
M  V30 14248 N 1328.81 -1.02043 -1.20104 0
M  V30 14249 C 1329.76 -0.593945 -2.23027 0
M  V30 14250 C 1330.73 0.387931 -1.61506 0
M  V30 14251 O 1331.91 0.286504 -1.88637 0
M  V30 14252 C 1329.05 0.0577309 -3.45052 0
M  V30 14253 C 1328.17 -0.969169 -4.20988 0
M  V30 14254 C 1327.3 -0.288143 -5.30418 0
M  V30 14255 C 1326.34 -1.30154 -5.98102 0
M  V30 14256 N 1325.48 -0.646912 -6.99113 0
M  V30 14257 H 1330.32 -1.47623 -2.58866 0
M  V30 14258 H 1327.85 -0.738901 -1.27195 0
M  V30 14259 H 1329.81 0.452726 -4.14736 0
M  V30 14260 H 1328.44 0.90364 -3.09894 0
M  V30 14261 H 1327.49 -1.48229 -3.50332 0
M  V30 14262 H 1328.81 -1.73972 -4.67477 0
M  V30 14263 H 1327.96 0.162149 -6.06483 0
M  V30 14264 H 1326.7 0.514683 -4.84977 0
M  V30 14265 H 1325.7 -1.76218 -5.20795 0
M  V30 14266 H 1326.93 -2.10571 -6.45629 0
M  V30 14267 H 1324.88 0.135976 -6.55859 0
M  V30 14268 H 1324.79 -1.35548 -7.43749 0
M  V30 14269 H 1326.06 -0.220339 -7.79189 0
M  V30 14270 N 1330.29 1.35952 -0.797165 0
M  V30 14271 C 1331.54 1.99327 -0.373695 0
M  V30 14272 C 1331.87 1.63111 1.05396 0
M  V30 14273 O 1331.14 0.889736 1.72956 0
M  V30 14274 C 1331.43 3.5593 -0.54641 0
M  V30 14275 C 1331.28 4.01975 -2.01832 0
M  V30 14276 C 1332.6 4.40087 0.0337694 0
M  V30 14277 H 1329.72 0.724107 -0.137254 0
M  V30 14278 H 1332.36 1.61248 -1.00495 0
M  V30 14279 H 1330.51 3.88499 -0.00903959 0
M  V30 14280 H 1332.18 3.79859 -2.61735 0
M  V30 14281 H 1330.43 3.5323 -2.51815 0
M  V30 14282 H 1331.1 5.109 -2.09009 0
M  V30 14283 H 1333.57 4.13923 -0.425039 0
M  V30 14284 H 1332.45 5.48775 -0.117054 0
M  V30 14285 H 1332.71 4.27504 1.12661 0
M  V30 14286 N 1331.77 0.549846 1.47697 0
M  V30 14287 C 1332.72 -0.215119 2.31603 0
M  V30 14288 C 1333.71 -0.916441 1.4247 0
M  V30 14289 O 1334.92 -0.838565 1.59274 0
M  V30 14290 H 1331.29 -0.0882441 0.746805 0
M  V30 14291 H 1333.26 0.511847 2.93977 0
M  V30 14292 C 1332.01 -1.23662 3.24966 0
M  V30 14293 H 1331.33 -0.706384 3.9351 0
M  V30 14294 H 1332.77 -1.7429 3.86522 0
M  V30 14295 C 1331.23 -2.28066 2.47967 0
M  V30 14296 O 1331.76 -3.34862 2.21879 0
M  V30 14297 N 1329.97 -2.01799 2.09106 0
M  V30 14298 H 1329.52 -1.14965 2.30523 0
M  V30 14299 H 1329.47 -2.71872 1.57902 0
M  V30 14300 N 1333.25 -1.54984 0.285932 0
M  V30 14301 C 1334.5 -1.99008 -0.328433 0
M  V30 14302 C 1334.81 -1.17787 -1.56158 0
M  V30 14303 O 1336.01 -1.52006 -2.24959 0
M  V30 14304 C 1334.47 -3.54241 -0.635688 0
M  V30 14305 C 1334.08 -4.44252 0.578271 0
M  V30 14306 C 1335.82 -4.06828 -1.21208 0
M  V30 14307 C 1333.73 -5.90892 0.245003 0
M  V30 14308 H 1332.66 -0.743314 -0.126494 0
M  V30 14309 H 1335.31 -1.79258 0.39228 0
M  V30 14310 H 1333.69 -3.69834 -1.41559 0
M  V30 14311 H 1334.87 -4.40431 1.35489 0
M  V30 14312 H 1333.18 -4.02358 1.07225 0
M  V30 14313 H 1335.78 -5.13941 -1.47542 0
M  V30 14314 H 1336.12 -3.56515 -2.14948 0
M  V30 14315 H 1336.65 -3.94718 -0.494222 0
M  V30 14316 H 1333.39 -6.45323 1.15057 0
M  V30 14317 H 1332.91 -5.97757 -0.494636 0
M  V30 14318 H 1334.59 -6.46805 -0.158891 0
M  V30 14319 N 1334.72 -0.0133892 -1.57594 0
M  V30 14320 C 1335.97 0.667313 -1.90765 0
M  V30 14321 C 1336.29 1.73564 -0.888847 0
M  V30 14322 O 1335.56 1.95768 0.0718946 0
M  V30 14323 H 1334.14 0.24947 -0.704112 0
M  V30 14324 H 1336.81 -0.0574789 -1.94815 0
M  V30 14325 H 1335.9 1.13007 -2.90922 0
M  V30 14326 N 1336.2 1.55448 0.259558 0
M  V30 14327 C 1337.14 1.84197 1.3471 0
M  V30 14328 C 1338.11 0.69603 1.4695 0
M  V30 14329 O 1339.3 0.940458 1.63364 0
M  V30 14330 C 1336.42 2.01549 2.72205 0
M  V30 14331 C 1335.47 3.2415 2.77181 0
M  V30 14332 S 1336.3 4.81149 2.35066 0
M  V30 14333 C 1337.46 5.0149 3.74511 0
M  V30 14334 H 1337.69 2.76153 1.10122 0
M  V30 14335 H 1335.23 1.47392 0.459893 0
M  V30 14336 H 1337.18 2.12231 3.51381 0
M  V30 14337 H 1335.84 1.10458 2.94037 0
M  V30 14338 H 1335.04 3.33219 3.78129 0
M  V30 14339 H 1334.64 3.12128 2.06038 0
M  V30 14340 H 1336.93 4.88057 4.69901 0
M  V30 14341 H 1337.87 6.03507 3.70385 0
M  V30 14342 H 1338.28 4.294 3.66437 0
M  V30 14343 N 1337.68 -0.524672 1.4861 0
M  V30 14344 C 1338.93 -1.27671 1.5615 0
M  V30 14345 C 1339.24 -1.94088 0.242709 0
M  V30 14346 O 1340.45 -2.70789 0.196407 0
M  V30 14347 C 1338.9 -2.31686 2.75408 0
M  V30 14348 C 1338.51 -1.71315 4.13951 0
M  V30 14349 C 1340.26 -3.07867 2.92264 0
M  V30 14350 C 1338.16 -2.73302 5.24462 0
M  V30 14351 H 1337.09 -0.480177 0.581332 0
M  V30 14352 H 1339.74 -0.553473 1.74954 0
M  V30 14353 H 1338.13 -3.07069 2.50049 0
M  V30 14354 H 1339.3 -1.02085 4.4935 0
M  V30 14355 H 1337.62 -1.07608 4.02255 0
M  V30 14356 H 1340.21 -3.84088 3.71995 0
M  V30 14357 H 1340.56 -3.64052 2.01921 0
M  V30 14358 H 1341.09 -2.39599 3.17549 0
M  V30 14359 H 1337.83 -2.21929 6.16788 0
M  V30 14360 H 1337.35 -3.40843 4.93544 0
M  V30 14361 H 1339.03 -3.36186 5.528 0
M  V30 14362 N 1339.16 -1.37287 -0.77395 0
M  V30 14363 C 1340.44 -1.2291 -1.52159 0
M  V30 14364 C 1340.82 0.178249 -2.10346 0
M  V30 14365 O 1340.16 1.18564 -1.95333 0
M  V30 14366 C 1340.37 -2.32337 -2.60424 0
M  V30 14367 C 1341.72 -2.69769 -3.27887 0
M  V30 14368 O 1342.75 -2.31497 -2.70717 0
M  V30 14369 O 1341.6 -3.35699 -4.31241 0
M  V30 14370 H 1338.7 -0.47948 -0.673816 0
M  V30 14371 H 1341.24 -1.49061 -0.811105 0
M  V30 14372 H 1340.02 -3.26591 -2.15532 0
M  V30 14373 H 1339.64 -2.07638 -3.39076 0
M  V30 14374 N 1340.64 0.999871 -1.21821 0
M  V30 14375 C 1341.57 2.09044 -0.939852 0
M  V30 14376 C 1342.58 1.62609 0.0788987 0
M  V30 14377 O 1343.77 1.77832 -0.154241 0
M  V30 14378 C 1340.87 3.36641 -0.390618 0
M  V30 14379 C 1340.04 4.12139 -1.46493 0
M  V30 14380 C 1339.1 5.18023 -0.924019 0
M  V30 14381 O 1338.13 5.45996 -1.60864 0
M  V30 14382 N 1339.33 5.79926 0.258136 0
M  V30 14383 H 1342.1 2.33506 -1.8787 0
M  V30 14384 H 1339.66 1.16509 -1.12415 0
M  V30 14385 H 1341.65 4.04697 -0.0142349 0
M  V30 14386 H 1340.22 3.09298 0.453176 0
M  V30 14387 H 1339.44 3.38813 -2.01494 0
M  V30 14388 H 1340.73 4.59354 -2.18795 0
M  V30 14389 H 1340.12 5.59559 0.831288 0
M  V30 14390 H 1338.68 6.4925 0.575977 0
M  V30 14391 N 1342.11 1.02678 1.19562 0
M  V30 14392 C 1343.34 0.741424 1.93695 0
M  V30 14393 C 1343.76 -0.693203 1.74861 0
M  V30 14394 O 1343.12 -1.47833 1.04953 0
M  V30 14395 C 1343.17 1.09514 3.43568 0
M  V30 14396 O 1342.27 0.212596 4.11852 0
M  V30 14397 H 1341.62 0.274128 0.604773 0
M  V30 14398 H 1344.15 1.37289 1.517 0
M  V30 14399 H 1344.16 1.05115 3.94227 0
M  V30 14400 H 1342.83 2.14034 3.56598 0
M  V30 14401 H 1341.41 0.315 3.71567 0
M  V30 14402 N 1343.59 -1.35528 0.804364 0
M  V30 14403 C 1345.01 -1.51962 0.487831 0
M  V30 14404 C 1345.21 -1.75426 -0.991353 0
M  V30 14405 O 1344.26 -1.7944 -1.77644 0
M  V30 14406 C 1345.58 -2.69626 1.33126 0
M  V30 14407 C 1347.13 -2.83502 1.32648 0
M  V30 14408 C 1347.6 -4.04188 2.15397 0
M  V30 14409 N 1349.09 -4.11362 2.12922 0
M  V30 14410 C 1349.83 -5.03856 2.73709 0
M  V30 14411 N 1349.32 -6.01696 3.43415 0
M  V30 14412 N 1351.12 -4.96585 2.63363 0
M  V30 14413 H 1343.27 -1.18553 1.76235 0
M  V30 14414 H 1345.53 -0.57986 0.749977 0
M  V30 14415 H 1345.24 -2.58857 2.38088 0
M  V30 14416 H 1345.11 -3.64168 0.982934 0
M  V30 14417 H 1347.5 -2.93723 0.284712 0
M  V30 14418 H 1347.58 -1.89824 1.71466 0
M  V30 14419 H 1347.22 -3.94728 3.19613 0
M  V30 14420 H 1347.15 -4.97044 1.7394 0
M  V30 14421 H 1349.64 -3.41319 1.62203 0
M  V30 14422 H 1349.96 -6.68866 3.8709 0
M  V30 14423 H 1348.3 -6.01877 3.47519 0
M  V30 14424 H 1351.49 -4.19103 2.08496 0
M  V30 14425 H 1351.66 -5.68478 3.11026 0
M  V30 14426 N 1345.07 -0.557671 -1.47404 0
M  V30 14427 C 1346.35 0.031908 -1.95574 0
M  V30 14428 C 1346.73 1.48509 -1.50027 0
M  V30 14429 O 1346.08 2.16209 -0.73932 0
M  V30 14430 C 1346.29 -0.114055 -3.48814 0
M  V30 14431 C 1347.63 0.0310533 -4.24589 0
M  V30 14432 O 1348.66 -0.041626 -3.56176 0
M  V30 14433 O 1347.52 0.187487 -5.46178 0
M  V30 14434 H 1344.61 0.0638747 -0.82453 0
M  V30 14435 H 1347.16 -0.624227 -1.57802 0
M  V30 14436 H 1345.93 -1.12525 -3.74772 0
M  V30 14437 H 1345.55 0.57967 -3.93352 0
M  V30 14438 N 1346.55 1.54831 -0.294147 0
M  V30 14439 C 1347.51 2.21946 0.572061 0
M  V30 14440 C 1348.51 1.20331 1.06663 0
M  V30 14441 O 1349.7 1.45112 0.963757 0
M  V30 14442 C 1346.83 2.90044 1.7913 0
M  V30 14443 H 1348.03 2.99897 -0.0142234 0
M  V30 14444 H 1345.58 1.56235 -0.0449187 0
M  V30 14445 H 1346.32 2.16154 2.4176 0
M  V30 14446 H 1346.1 3.64527 1.44439 0
M  V30 14447 H 1347.59 3.41263 2.40684 0
M  V30 14448 N 1348.03 0.0217466 1.57585 0
M  V30 14449 C 1349.25 -0.67246 1.96196 0
M  V30 14450 C 1349.68 -1.6529 0.897827 0
M  V30 14451 O 1349.04 -1.80743 -0.142002 0
M  V30 14452 C 1349.08 -1.36162 3.33905 0
M  V30 14453 O 1348.19 -2.47671 3.29747 0
M  V30 14454 H 1347.53 -0.177238 0.639908 0
M  V30 14455 H 1350.06 0.0814073 2.04438 0
M  V30 14456 H 1350.07 -1.7201 3.69968 0
M  V30 14457 H 1348.74 -0.642893 4.10901 0
M  V30 14458 H 1347.32 -2.13989 3.0539 0
M  V30 14459 N 1349.51 -1.55583 -0.251311 0
M  V30 14460 C 1350.47 -1.89148 -1.29443 0
M  V30 14461 C 1351.47 -0.7676 -1.41296 0
M  V30 14462 O 1352.66 -1.03563 -1.40073 0
M  V30 14463 C 1349.79 -2.11601 -2.67279 0
M  V30 14464 H 1350.98 -2.82416 -1.00901 0
M  V30 14465 H 1348.54 -1.48407 -0.490398 0
M  V30 14466 H 1349.27 -1.20787 -3.00967 0
M  V30 14467 H 1349.06 -2.93449 -2.60058 0
M  V30 14468 H 1350.55 -2.38768 -3.42607 0
M  V30 14469 N 1350.98 0.516783 -1.48886 0
M  V30 14470 C 1352.23 1.27375 -1.57808 0
M  V30 14471 C 1352.56 1.92492 -0.256963 0
M  V30 14472 O 1351.84 1.79947 0.738193 0
M  V30 14473 C 1352.12 2.35295 -2.72595 0
M  V30 14474 C 1351.97 1.74783 -4.14453 0
M  V30 14475 C 1353.29 3.36973 -2.83085 0
M  V30 14476 H 1350.41 0.46175 -0.574418 0
M  V30 14477 H 1353.05 0.57434 -1.81111 0
M  V30 14478 H 1351.2 2.94951 -2.52857 0
M  V30 14479 H 1352.88 1.19076 -4.45666 0
M  V30 14480 H 1351.12 1.05258 -4.20836 0
M  V30 14481 H 1351.79 2.52985 -4.90615 0
M  V30 14482 H 1354.27 2.87289 -3.01005 0
M  V30 14483 H 1353.14 4.09864 -3.65106 0
M  V30 14484 H 1353.4 3.98336 -1.91784 0
M  V30 14485 N 1352.46 1.37696 0.766659 0
M  V30 14486 C 1353.69 1.36564 1.56093 0
M  V30 14487 C 1354.11 -0.0455828 1.88045 0
M  V30 14488 O 1353.47 -1.02405 1.49609 0
M  V30 14489 C 1353.52 2.21592 2.84481 0
M  V30 14490 O 1352.62 1.62404 3.79076 0
M  V30 14491 H 1351.96 0.466394 0.472623 0
M  V30 14492 H 1354.49 1.81287 0.948486 0
M  V30 14493 H 1354.5 2.34987 3.33534 0
M  V30 14494 H 1353.18 3.24167 2.60554 0
M  V30 14495 H 1351.75 1.58078 3.37736 0
M  V30 14496 N 1353.94 -0.993397 1.22349 0
M  V30 14497 C 1354.87 -2.10171 1.01737 0
M  V30 14498 C 1355.85 -1.69989 -0.0615276 0
M  V30 14499 O 1357.04 -1.93939 0.100591 0
M  V30 14500 C 1354.17 -3.42186 0.593801 0
M  V30 14501 C 1353.12 -3.96215 1.61858 0
M  V30 14502 C 1352.45 -5.24272 1.05086 0
M  V30 14503 C 1353.75 -4.26956 3.00842 0
M  V30 14504 H 1355.44 -2.27673 1.94436 0
M  V30 14505 H 1352.99 -1.09408 0.936258 0
M  V30 14506 H 1354.94 -4.19131 0.436715 0
M  V30 14507 H 1353.66 -3.2451 -0.368855 0
M  V30 14508 H 1352.32 -3.21401 1.76343 0
M  V30 14509 H 1351.97 -5.02937 0.0795747 0
M  V30 14510 H 1351.67 -5.61387 1.73547 0
M  V30 14511 H 1353.19 -6.03851 0.905349 0
M  V30 14512 H 1354.61 -4.94699 2.89734 0
M  V30 14513 H 1353 -4.75242 3.66422 0
M  V30 14514 H 1354.07 -3.34752 3.50812 0
M  V30 14515 N 1355.42 -1.03311 -1.19015 0
M  V30 14516 C 1356.64 -0.751686 -1.93299 0
M  V30 14517 C 1357.07 0.68392 -1.75226 0
M  V30 14518 O 1356.43 1.47274 -1.05736 0
M  V30 14519 C 1356.47 -1.11335 -3.42982 0
M  V30 14520 O 1355.58 -0.234434 -4.11733 0
M  V30 14521 H 1354.92 -0.277331 -0.60331 0
M  V30 14522 H 1357.45 -1.38092 -1.5097 0
M  V30 14523 H 1357.46 -1.07204 -3.93664 0
M  V30 14524 H 1356.13 -2.15922 -3.55458 0
M  V30 14525 H 1354.71 -0.3347 -3.71395 0
M  V30 14526 N 1356.9 1.35099 -0.81154 0
M  V30 14527 C 1357.81 2.33499 -0.22705 0
M  V30 14528 C 1358.82 1.62095 0.632562 0
M  V30 14529 O 1360 1.93938 0.543147 0
M  V30 14530 C 1357.06 3.41279 0.610687 0
M  V30 14531 C 1356.12 4.2845 -0.269994 0
M  V30 14532 C 1355.36 5.31083 0.527854 0
M  V30 14533 O 1355.58 5.42499 1.76213 0
M  V30 14534 O 1354.51 6.01842 -0.083862 0
M  V30 14535 H 1358.34 2.85294 -1.04119 0
M  V30 14536 H 1355.92 1.37957 -0.573432 0
M  V30 14537 H 1357.81 4.07121 1.08768 0
M  V30 14538 H 1356.48 2.91746 1.40235 0
M  V30 14539 H 1355.39 3.65572 -0.794234 0
M  V30 14540 H 1356.72 4.81394 -1.02572 0
M  V30 14541 N 1358.37 0.56548 1.47106 0
M  V30 14542 C 1359.6 0.0476763 2.07345 0
M  V30 14543 C 1360.02 -1.24032 1.41413 0
M  V30 14544 O 1359.38 -1.74498 0.491941 0
M  V30 14545 C 1359.43 -0.122618 3.60391 0
M  V30 14546 O 1358.53 -1.18326 3.9506 0
M  V30 14547 H 1357.87 0.0550419 0.661715 0
M  V30 14548 H 1360.4 0.78352 1.89003 0
M  V30 14549 H 1360.41 -0.334227 4.06629 0
M  V30 14550 H 1359.09 0.81807 4.07775 0
M  V30 14551 H 1357.67 -0.951481 3.60557 0
M  V30 14552 N 1359.85 -1.54672 0.302354 0
M  V30 14553 C 1360.8 -2.2357 -0.573141 0
M  V30 14554 C 1361.77 -1.21878 -1.12849 0
M  V30 14555 O 1362.95 -1.50502 -1.17277 0
M  V30 14556 C 1360.09 -2.98111 -1.7385 0
M  V30 14557 C 1359.21 -4.14579 -1.21441 0
M  V30 14558 C 1358.34 -4.76699 -2.34374 0
M  V30 14559 C 1357.38 -5.8531 -1.79106 0
M  V30 14560 N 1356.52 -6.41379 -2.85618 0
M  V30 14561 H 1361.36 -2.97993 0.0209969 0
M  V30 14562 H 1358.9 -1.47083 0.0221318 0
M  V30 14563 H 1360.85 -3.39561 -2.42392 0
M  V30 14564 H 1359.48 -2.26063 -2.30425 0
M  V30 14565 H 1358.54 -3.78061 -0.421204 0
M  V30 14566 H 1359.85 -4.92824 -0.769821 0
M  V30 14567 H 1359 -5.21009 -3.10861 0
M  V30 14568 H 1357.74 -3.9779 -2.8216 0
M  V30 14569 H 1356.75 -5.40423 -1.01109 0
M  V30 14570 H 1357.97 -6.66104 -1.32222 0
M  V30 14571 H 1355.92 -5.65352 -3.32735 0
M  V30 14572 H 1355.83 -7.14974 -2.45659 0
M  V30 14573 H 1357.1 -6.90346 -3.61998 0
M  V30 14574 N 1361.33 -0.0301034 -1.57571 0
M  V30 14575 C 1362.56 0.662045 -1.9655 0
M  V30 14576 C 1362.98 1.64811 -0.906581 0
M  V30 14577 O 1362.34 1.80816 0.132415 0
M  V30 14578 C 1362.39 1.34389 -3.34622 0
M  V30 14579 O 1361.49 2.45919 -3.31056 0
M  V30 14580 H 1360.83 0.173842 -0.640839 0
M  V30 14581 H 1363.36 -0.092248 -2.04392 0
M  V30 14582 H 1363.37 1.70045 -3.70875 0
M  V30 14583 H 1362.05 0.621092 -4.11236 0
M  V30 14584 H 1360.62 2.12367 -3.06521 0
M  V30 14585 N 1362.81 1.55714 0.243056 0
M  V30 14586 C 1364.03 1.82126 0.992219 0
M  V30 14587 C 1364.46 0.607665 1.78014 0
M  V30 14588 O 1363.82 -0.443351 1.75796 0
M  V30 14589 C 1363.86 3.06314 1.90274 0
M  V30 14590 O 1362.97 2.83499 2.99503 0
M  V30 14591 H 1362.31 0.601082 0.282128 0
M  V30 14592 H 1364.84 2.02904 0.262881 0
M  V30 14593 H 1364.85 3.35849 2.31666 0
M  V30 14594 H 1363.52 3.94282 1.32344 0
M  V30 14595 H 1362.1 2.65141 2.62211 0
M  V30 14596 N 1364.29 -0.50888 1.49158 0
M  V30 14597 C 1365.22 -1.62778 1.61356 0
M  V30 14598 C 1366.23 -1.55039 0.496653 0
M  V30 14599 O 1367.42 -1.61115 0.768386 0
M  V30 14600 C 1364.52 -3.01534 1.54694 0
M  V30 14601 C 1363.69 -3.34539 2.81785 0
M  V30 14602 C 1362.75 -4.5267 2.68283 0
M  V30 14603 O 1361.78 -4.54844 3.42207 0
M  V30 14604 N 1362.98 -5.52115 1.79303 0
M  V30 14605 H 1365.75 -1.52744 2.57855 0
M  V30 14606 H 1363.31 -0.696597 1.46148 0
M  V30 14607 H 1365.3 -3.7847 1.43327 0
M  V30 14608 H 1363.87 -3.05535 0.660849 0
M  V30 14609 H 1363.09 -2.46576 3.07561 0
M  V30 14610 H 1364.38 -3.53384 3.66057 0
M  V30 14611 H 1363.77 -5.53153 1.18485 0
M  V30 14612 H 1362.33 -6.28184 1.73863 0
M  V30 14613 N 1365.76 -1.381 -0.759346 0
M  V30 14614 C 1367.04 -1.24517 -1.50847 0
M  V30 14615 C 1367.42 0.155929 -2.10523 0
M  V30 14616 O 1366.77 1.16485 -1.96579 0
M  V30 14617 C 1366.98 -2.35086 -2.57945 0
M  V30 14618 C 1368.33 -2.73232 -3.25007 0
M  V30 14619 O 1369.35 -2.34355 -2.68247 0
M  V30 14620 O 1368.21 -3.40254 -4.27656 0
M  V30 14621 H 1365.3 -0.486599 -0.668693 0
M  V30 14622 H 1367.85 -1.49913 -0.795249 0
M  V30 14623 H 1366.62 -3.28858 -2.12056 0
M  V30 14624 H 1366.25 -2.11222 -3.36854 0
M  V30 14625 N 1367.24 0.986894 -1.22875 0
M  V30 14626 C 1368.47 1.768 -1.08427 0
M  V30 14627 C 1368.89 1.84612 0.360555 0
M  V30 14628 O 1368.25 1.30299 1.26063 0
M  V30 14629 C 1368.3 3.17638 -1.70701 0
M  V30 14630 O 1367.4 4.00957 -0.964752 0
M  V30 14631 H 1366.74 0.544199 -0.380451 0
M  V30 14632 H 1369.27 1.23931 -1.62795 0
M  V30 14633 H 1369.28 3.68243 -1.75672 0
M  V30 14634 H 1367.96 3.11267 -2.75837 0
M  V30 14635 H 1366.54 3.59477 -0.991493 0
M  V30 14636 N 1368.72 1.0394 1.18466 0
M  V30 14637 C 1369.95 0.761926 1.92897 0
M  V30 14638 C 1370.37 -0.674618 1.75586 0
M  V30 14639 O 1369.73 -1.46711 1.06515 0
M  V30 14640 C 1369.78 1.13152 3.42387 0
M  V30 14641 O 1368.88 0.256266 4.11603 0
M  V30 14642 H 1368.22 0.280527 0.601831 0
M  V30 14643 H 1370.75 1.3889 1.50235 0
M  V30 14644 H 1370.76 1.0929 3.9309 0
M  V30 14645 H 1369.44 2.17804 3.54308 0
M  V30 14646 H 1368.01 0.354392 3.71212 0
M  V30 14647 N 1370.2 -1.34667 0.818693 0
M  V30 14648 C 1371.48 -1.92838 0.327521 0
M  V30 14649 C 1371.86 -1.74732 -1.18457 0
M  V30 14650 O 1371.2 -1.12352 -1.98971 0
M  V30 14651 C 1371.41 -3.40797 0.752207 0
M  V30 14652 C 1372.76 -4.17948 0.748613 0
M  V30 14653 O 1373.79 -3.49364 0.694517 0
M  V30 14654 O 1372.64 -5.40344 0.817958 0
M  V30 14655 H 1369.74 -0.822249 0.0885148 0
M  V30 14656 H 1372.28 -1.43668 0.9032 0
M  V30 14657 H 1371.06 -3.47759 1.79387 0
M  V30 14658 H 1370.68 -3.97309 0.151992 0
M  V30 14659 N 1371.68 -0.573274 -1.46804 0
M  V30 14660 C 1372.91 -0.0605105 -2.06511 0
M  V30 14661 C 1373.31 1.24572 -1.42403 0
M  V30 14662 O 1372.66 1.76182 -0.520168 0
M  V30 14663 C 1372.72 0.189394 -3.59001 0
M  V30 14664 C 1372.38 -1.02981 -4.45246 0
M  V30 14665 C 1373.38 -1.93948 -4.82369 0
M  V30 14666 C 1371.07 -1.249 -4.86524 0
M  V30 14667 C 1373.06 -3.0519 -5.59587 0
M  V30 14668 C 1370.75 -2.36449 -5.63503 0
M  V30 14669 C 1371.74 -3.26424 -5.99947 0
M  V30 14670 O 1371.43 -4.36037 -6.75372 0
M  V30 14671 H 1371.16 -0.0501758 -0.674135 0
M  V30 14672 H 1373.72 -0.790951 -1.8956 0
M  V30 14673 H 1371.95 0.974337 -3.74224 0
M  V30 14674 H 1373.64 0.649506 -4.0067 0
M  V30 14675 H 1374.4 -1.78226 -4.51066 0
M  V30 14676 H 1370.28 -0.55779 -4.57613 0
M  V30 14677 H 1373.83 -3.75444 -5.87952 0
M  V30 14678 H 1369.72 -2.52138 -5.94219 0
M  V30 14679 H 1370.49 -4.34285 -6.93786 0
M  V30 14680 N 1373.15 1.5451 -0.310553 0
M  V30 14681 C 1374.38 2.05204 0.301013 0
M  V30 14682 C 1374.8 1.1859 1.46007 0
M  V30 14683 O 1374.16 0.192081 1.8028 0
M  V30 14684 C 1374.21 3.53221 0.725767 0
M  V30 14685 O 1373.31 3.69596 1.82955 0
M  V30 14686 H 1372.66 0.661566 0.0568026 0
M  V30 14687 H 1375.19 1.99473 -0.455178 0
M  V30 14688 H 1375.2 3.9525 1.01198 0
M  V30 14689 H 1373.87 4.15721 -0.122046 0
M  V30 14690 H 1372.45 3.39472 1.54315 0
M  V30 14691 N 1374.63 0.0384594 1.57553 0
M  V30 14692 C 1375.86 -0.648077 1.96488 0
M  V30 14693 C 1376.28 -1.65123 0.915414 0
M  V30 14694 O 1375.63 -1.82216 -0.101779 0
M  V30 14695 C 1375.68 -1.34623 3.35498 0
M  V30 14696 O 1375.41 -0.383261 4.3642 0
M  V30 14697 C 1376.91 -2.12372 3.89119 0
M  V30 14698 H 1374.13 -0.178068 0.646941 0
M  V30 14699 H 1376.67 0.100993 2.0425 0
M  V30 14700 H 1374.83 -2.04663 3.28926 0
M  V30 14701 H 1375.24 -0.880095 5.17063 0
M  V30 14702 H 1376.71 -2.5666 4.88702 0
M  V30 14703 H 1377.19 -2.96664 3.23863 0
M  V30 14704 H 1377.8 -1.4727 3.98988 0
M  V30 14705 N 1376.11 -1.55841 -0.234795 0
M  V30 14706 C 1377.34 -1.82649 -0.982547 0
M  V30 14707 C 1377.76 -0.617097 -1.77689 0
M  V30 14708 O 1377.12 0.434022 -1.76028 0
M  V30 14709 C 1377.17 -3.07319 -1.88646 0
M  V30 14710 O 1376.27 -2.85084 -2.97995 0
M  V30 14711 H 1375.61 -0.60257 -0.278936 0
M  V30 14712 H 1378.14 -2.03041 -0.252117 0
M  V30 14713 H 1378.15 -3.37073 -2.29882 0
M  V30 14714 H 1376.83 -3.94978 -1.30251 0
M  V30 14715 H 1375.4 -2.66528 -2.60801 0
M  V30 14716 N 1377.59 0.500963 -1.49426 0
M  V30 14717 C 1378.5 1.62889 -1.68833 0
M  V30 14718 C 1379.52 1.64367 -0.570932 0
M  V30 14719 O 1380.69 1.82786 -0.845641 0
M  V30 14720 C 1377.76 2.99255 -1.75063 0
M  V30 14721 C 1376.82 3.08404 -2.9864 0
M  V30 14722 C 1376.05 4.38266 -3.04564 0
M  V30 14723 O 1376.27 5.27065 -2.1808 0
M  V30 14724 O 1375.21 4.52387 -3.97026 0
M  V30 14725 H 1379.03 1.49446 -2.64385 0
M  V30 14726 H 1376.62 0.677254 -1.33168 0
M  V30 14727 H 1378.5 3.80303 -1.81515 0
M  V30 14728 H 1377.18 3.1296 -0.826896 0
M  V30 14729 H 1376.08 2.26544 -2.97706 0
M  V30 14730 H 1377.42 2.99626 -3.90494 0
M  V30 14731 N 1379.07 1.38501 0.752011 0
M  V30 14732 C 1380 1.30236 1.87387 0
M  V30 14733 C 1380.98 0.179099 1.61611 0
M  V30 14734 O 1382.16 0.356686 1.85095 0
M  V30 14735 C 1379.29 1.01829 3.2303 0
M  V30 14736 C 1378.34 2.16114 3.67691 0
M  V30 14737 S 1379.17 3.78266 3.79044 0
M  V30 14738 C 1380.32 3.5205 5.17505 0
M  V30 14739 H 1380.56 2.25185 1.94111 0
M  V30 14740 H 1378.09 1.24356 0.915152 0
M  V30 14741 H 1380.05 0.861231 4.01364 0
M  V30 14742 H 1378.71 0.0859612 3.13982 0
M  V30 14743 H 1377.9 1.91788 4.66083 0
M  V30 14744 H 1377.5 2.27936 2.96515 0
M  V30 14745 H 1379.8 3.08262 6.03308 0
M  V30 14746 H 1380.74 4.49842 5.46853 0
M  V30 14747 H 1381.15 2.86528 4.86377 0
M  V30 14748 N 1380.55 -0.980364 1.23396 0
M  V30 14749 C 1381.48 -2.0908 1.0396 0
M  V30 14750 C 1382.46 -1.70044 -0.0434946 0
M  V30 14751 O 1383.64 -1.93822 0.121155 0
M  V30 14752 C 1380.77 -3.41537 0.630061 0
M  V30 14753 C 1379.73 -3.94476 1.66051 0
M  V30 14754 C 1379.05 -5.23128 1.10641 0
M  V30 14755 C 1380.35 -4.23741 3.05354 0
M  V30 14756 H 1382.05 -2.25598 1.9684 0
M  V30 14757 H 1379.59 -1.08409 0.94781 0
M  V30 14758 H 1381.54 -4.18644 0.481145 0
M  V30 14759 H 1380.27 -3.24883 -0.334416 0
M  V30 14760 H 1378.93 -3.19513 1.79742 0
M  V30 14761 H 1378.58 -5.02824 0.132913 0
M  V30 14762 H 1378.28 -5.59515 1.79492 0
M  V30 14763 H 1379.8 -6.02857 0.969344 0
M  V30 14764 H 1381.21 -4.91598 2.94964 0
M  V30 14765 H 1379.61 -4.71329 3.71442 0
M  V30 14766 H 1380.68 -3.31012 3.54343 0
M  V30 14767 N 1382.02 -1.04567 -1.17913 0
M  V30 14768 C 1383.27 -0.753137 -1.88297 0
M  V30 14769 C 1383.6 0.717651 -1.80453 0
M  V30 14770 O 1382.88 1.5242 -1.20824 0
M  V30 14771 C 1383.16 -1.22626 -3.38578 0
M  V30 14772 C 1383.01 -2.75952 -3.55205 0
M  V30 14773 C 1384.33 -0.82029 -4.32388 0
M  V30 14774 H 1381.45 -0.275067 -0.683745 0
M  V30 14775 H 1384.09 -1.29856 -1.38699 0
M  V30 14776 H 1382.24 -0.762246 -3.80949 0
M  V30 14777 H 1383.92 -3.30429 -3.21892 0
M  V30 14778 H 1382.16 -3.15534 -2.97693 0
M  V30 14779 H 1382.83 -3.04116 -4.60671 0
M  V30 14780 H 1385.31 -1.21965 -3.97824 0
M  V30 14781 H 1384.18 -1.17902 -5.36088 0
M  V30 14782 H 1384.44 0.276205 -4.41236 0
M  V30 14783 N 1383.5 1.34231 -0.825823 0
M  V30 14784 C 1384.45 2.31378 -0.23809 0
M  V30 14785 C 1385.44 1.57537 0.622767 0
M  V30 14786 O 1386.65 1.72512 0.513783 0
M  V30 14787 H 1383.02 0.74974 -0.0582516 0
M  V30 14788 H 1385 2.78471 -1.07221 0
M  V30 14789 C 1383.74 3.42778 0.582969 0
M  V30 14790 H 1383.07 3.99739 -0.0701208 0
M  V30 14791 H 1384.51 4.12983 0.960266 0
M  V30 14792 C 1382.97 2.87486 1.75651 0
M  V30 14793 O 1383.5 2.82603 2.85479 0
M  V30 14794 N 1381.7 2.4427 1.57418 0
M  V30 14795 H 1381.25 2.48441 0.680792 0
M  V30 14796 H 1381.21 2.07626 2.36091 0
M  V30 14797 N 1384.98 0.581051 1.46498 0
M  V30 14798 C 1385.91 -0.201475 2.27309 0
M  V30 14799 C 1386.89 -0.898424 1.35525 0
M  V30 14800 O 1388.07 -0.912643 1.64934 0
M  V30 14801 C 1385.2 -1.28896 3.13215 0
M  V30 14802 C 1384.25 -0.698028 4.20749 0
M  V30 14803 S 1385.08 0.473812 5.334 0
M  V30 14804 C 1386.24 -0.614916 6.22872 0
M  V30 14805 H 1386.47 0.484205 2.9333 0
M  V30 14806 H 1384 0.367907 1.49953 0
M  V30 14807 H 1385.96 -1.91162 3.63273 0
M  V30 14808 H 1384.62 -1.94658 2.46509 0
M  V30 14809 H 1383.81 -1.51542 4.80678 0
M  V30 14810 H 1383.42 -0.151069 3.73695 0
M  V30 14811 H 1385.71 -1.501 6.60663 0
M  V30 14812 H 1386.65 -0.0524259 7.08081 0
M  V30 14813 H 1387.06 -0.918315 5.5698 0
M  V30 14814 N 1386.46 -1.54343 0.318742 0
M  V30 14815 C 1387.71 -2.00084 -0.284713 0
M  V30 14816 C 1388.03 -1.20855 -1.53033 0
M  V30 14817 O 1387.3 -0.309104 -1.93446 0
M  V30 14818 H 1385.88 -0.739123 -0.108193 0
M  V30 14819 H 1388.54 -1.90002 0.434174 0
M  V30 14820 H 1387.63 -3.07314 -0.544459 0
M  V30 14821 N 1387.94 -0.0468143 -1.5753 0
M  V30 14822 C 1388.88 0.946945 -2.12452 0
M  V30 14823 C 1389.88 1.32515 -1.05527 0
M  V30 14824 O 1391.08 1.30532 -1.23941 0
M  V30 14825 H 1387.46 0.323223 -0.678993 0
M  V30 14826 H 1389.43 0.45858 -2.94855 0
M  V30 14827 C 1388.18 2.21402 -2.68098 0
M  V30 14828 H 1387.5 1.93178 -3.50032 0
M  V30 14829 H 1388.94 2.89105 -3.10152 0
M  V30 14830 C 1387.4 2.95576 -1.61668 0
M  V30 14831 O 1387.93 3.88353 -1.02689 0
M  V30 14832 N 1386.14 2.58228 -1.33291 0
M  V30 14833 H 1385.68 1.82858 -1.8144 0
M  V30 14834 H 1385.64 3.08164 -0.623092 0
M  V30 14835 N 1389.41 1.55964 0.226527 0
M  V30 14836 C 1390.34 1.95028 1.284 0
M  V30 14837 C 1391.33 0.817833 1.49149 0
M  V30 14838 O 1392.51 1.07975 1.61416 0
M  V30 14839 C 1389.64 2.26266 2.63478 0
M  V30 14840 C 1388.59 3.41954 2.57393 0
M  V30 14841 C 1387.92 3.58786 3.96456 0
M  V30 14842 C 1389.22 4.77069 2.12608 0
M  V30 14843 H 1390.91 2.83608 0.959513 0
M  V30 14844 H 1388.46 1.36451 0.460125 0
M  V30 14845 H 1390.41 2.52186 3.3761 0
M  V30 14846 H 1389.14 1.34533 2.97604 0
M  V30 14847 H 1387.8 3.16076 1.85719 0
M  V30 14848 H 1387.44 2.64437 4.27881 0
M  V30 14849 H 1387.14 4.36595 3.93267 0
M  V30 14850 H 1388.67 3.87048 4.72256 0
M  V30 14851 H 1390.08 5.02226 2.76481 0
M  V30 14852 H 1388.48 5.58126 2.2049 0
M  V30 14853 H 1389.55 4.7276 1.07823 0
M  V30 14854 N 1390.89 -0.493031 1.4969 0
M  V30 14855 C 1392.3 -1.0744 1.52688 0
M  V30 14856 C 1392.65 -1.93612 0.317652 0
M  V30 14857 O 1391.78 -2.0871 -0.571745 0
M  V30 14858 C 1392.37 -1.95523 2.76688 0
M  V30 14859 C 1390.93 -2.48808 2.82438 0
M  V30 14860 C 1390.08 -1.26617 2.46705 0
M  V30 14861 H 1393.03 -0.276589 1.56271 0
M  V30 14862 H 1393.05 -2.80315 2.57301 0
M  V30 14863 H 1392.56 -1.32779 3.6468 0
M  V30 14864 H 1390.67 -3.15168 1.98746 0
M  V30 14865 H 1390.78 -2.85416 3.84805 0
M  V30 14866 H 1389.14 -1.59396 1.98658 0
M  V30 14867 H 1389.93 -0.655695 3.3698 0
M  V30 14868 N 1392.37 -1.38898 -0.744656 0
M  V30 14869 C 1393.3 -1.39571 -1.87195 0
M  V30 14870 C 1394.28 -0.260372 -1.68095 0
M  V30 14871 O 1395.47 -0.464776 -1.88556 0
M  V30 14872 C 1392.6 -1.22889 -3.24832 0
M  V30 14873 C 1391.55 -2.33721 -3.58551 0
M  V30 14874 C 1390.88 -2.02136 -4.9502 0
M  V30 14875 C 1392.18 -3.7601 -3.62511 0
M  V30 14876 H 1393.87 -2.33908 -1.86889 0
M  V30 14877 H 1391.42 -1.12591 -0.897739 0
M  V30 14878 H 1393.37 -1.21983 -4.03359 0
M  V30 14879 H 1392.09 -0.250172 -3.2564 0
M  V30 14880 H 1390.75 -2.33828 -2.82348 0
M  V30 14881 H 1390.4 -1.02726 -4.92399 0
M  V30 14882 H 1390.1 -2.76371 -5.18549 0
M  V30 14883 H 1391.62 -2.02864 -5.75915 0
M  V30 14884 H 1393.04 -3.77885 -4.31133 0
M  V30 14885 H 1391.44 -4.49524 -3.97553 0
M  V30 14886 H 1392.51 -4.07682 -2.62533 0
M  V30 14887 N 1393.85 0.973806 -1.23914 0
M  V30 14888 C 1395.13 1.69087 -0.9833 0
M  V30 14889 C 1395.51 2.05186 0.49619 0
M  V30 14890 O 1394.85 1.75021 1.46901 0
M  V30 14891 C 1395.06 2.92739 -1.90012 0
M  V30 14892 C 1396.41 3.65112 -2.16745 0
M  V30 14893 O 1397.44 3.02785 -1.87616 0
M  V30 14894 O 1396.29 4.77293 -2.66183 0
M  V30 14895 H 1393.39 0.738919 -0.371386 0
M  V30 14896 H 1395.93 1.02844 -1.34986 0
M  V30 14897 H 1394.71 2.6271 -2.89999 0
M  V30 14898 H 1394.33 3.66718 -1.53635 0
M  V30 14899 N 1395.33 1.05191 1.17357 0
M  V30 14900 C 1396.24 0.663617 2.25018 0
M  V30 14901 C 1397.25 -0.315299 1.71119 0
M  V30 14902 O 1398.43 -0.167398 2.00703 0
M  V30 14903 C 1395.49 0.0443307 3.46672 0
M  V30 14904 C 1394.55 1.07369 4.15656 0
M  V30 14905 C 1393.79 0.483864 5.31502 0
M  V30 14906 O 1394.01 -0.706692 5.66005 0
M  V30 14907 O 1392.94 1.21812 5.89445 0
M  V30 14908 H 1396.77 1.56088 2.60519 0
M  V30 14909 H 1394.36 0.823474 1.24657 0
M  V30 14910 H 1396.24 -0.299839 4.20332 0
M  V30 14911 H 1394.91 -0.826579 3.12969 0
M  V30 14912 H 1393.82 1.46985 3.44015 0
M  V30 14913 H 1395.15 1.91575 4.53387 0
M  V30 14914 N 1396.8 -1.33791 0.83293 0
M  V30 14915 C 1398.05 -1.97973 0.425781 0
M  V30 14916 C 1398.38 -1.66003 -1.01357 0
M  V30 14917 O 1397.63 -0.929016 -1.72243 0
M  V30 14918 C 1397.93 -3.52555 0.586485 0
M  V30 14919 C 1397.6 -4.04461 1.99304 0
M  V30 14920 C 1396.26 -4.18347 2.37779 0
M  V30 14921 C 1398.61 -4.3226 2.91206 0
M  V30 14922 C 1395.94 -4.57364 3.67471 0
M  V30 14923 C 1398.29 -4.72727 4.20371 0
M  V30 14924 C 1396.96 -4.84819 4.5881 0
M  V30 14925 H 1396.23 -0.724435 0.155804 0
M  V30 14926 H 1398.87 -1.59567 1.05881 0
M  V30 14927 H 1397.18 -3.91585 -0.129885 0
M  V30 14928 H 1398.88 -4.00208 0.251835 0
M  V30 14929 H 1395.47 -3.94122 1.68421 0
M  V30 14930 H 1399.65 -4.2106 2.6272 0
M  V30 14931 H 1394.91 -4.64918 3.97065 0
M  V30 14932 H 1399.08 -4.93194 4.91663 0
M  V30 14933 H 1396.71 -5.14809 5.59353 0
M  V30 14934 N 1398.28 -0.588812 -1.46187 0
M  V30 14935 C 1399.51 -0.0824104 -2.06436 0
M  V30 14936 C 1399.92 1.23054 -1.43716 0
M  V30 14937 O 1399.26 1.7562 -0.538825 0
M  V30 14938 C 1399.33 0.151307 -3.59181 0
M  V30 14939 C 1398.99 -1.07697 -4.44129 0
M  V30 14940 C 1399.99 -1.99053 -4.80285 0
M  V30 14941 C 1397.67 -1.30053 -4.85172 0
M  V30 14942 C 1399.67 -3.11108 -5.56319 0
M  V30 14943 C 1397.35 -2.42412 -5.60963 0
M  V30 14944 C 1398.35 -3.32769 -5.96451 0
M  V30 14945 O 1398.04 -4.43175 -6.70709 0
M  V30 14946 H 1397.77 -0.0573231 -0.673565 0
M  V30 14947 H 1400.32 -0.811012 -1.88711 0
M  V30 14948 H 1398.55 0.934591 -3.75236 0
M  V30 14949 H 1400.24 0.606973 -4.01336 0
M  V30 14950 H 1401.01 -1.83 -4.4915 0
M  V30 14951 H 1396.89 -0.606295 -4.56996 0
M  V30 14952 H 1400.43 -3.81659 -5.83937 0
M  V30 14953 H 1396.33 -2.58426 -5.91512 0
M  V30 14954 H 1397.1 -4.4162 -6.8914 0
M  V30 14955 N 1399.76 1.54172 -0.326923 0
M  V30 14956 C 1401.17 1.86009 0.160446 0
M  V30 14957 C 1401.52 1.24851 1.51349 0
M  V30 14958 O 1400.65 0.555804 2.09141 0
M  V30 14959 C 1401.24 3.37488 0.297909 0
M  V30 14960 C 1399.8 3.69263 0.7295 0
M  V30 14961 C 1398.95 2.76911 -0.146778 0
M  V30 14962 H 1401.9 1.48972 -0.547093 0
M  V30 14963 H 1401.92 3.63388 1.12825 0
M  V30 14964 H 1401.43 3.81971 -0.687007 0
M  V30 14965 H 1399.53 3.30314 1.72404 0
M  V30 14966 H 1399.65 4.76149 0.53092 0
M  V30 14967 H 1398.01 2.51876 0.378212 0
M  V30 14968 H 1398.79 3.24221 -1.12852 0
M  V30 14969 N 1401.24 0.0551678 1.57503 0
M  V30 14970 C 1402.2 -0.903065 2.10659 0
M  V30 14971 C 1403.2 -1.23728 1.02703 0
M  V30 14972 O 1404.39 -1.17331 1.2876 0
M  V30 14973 C 1401.52 -2.21171 2.59415 0
M  V30 14974 H 1402.72 -0.442197 2.96622 0
M  V30 14975 H 1400.27 -0.193297 1.551 0
M  V30 14976 H 1401 -2.71831 1.76858 0
M  V30 14977 H 1400.79 -1.98216 3.38309 0
M  V30 14978 H 1402.28 -2.89802 3.00674 0
M  V30 14979 N 1402.72 -1.56081 -0.218252 0
M  V30 14980 C 1403.96 -1.79513 -0.943553 0
M  V30 14981 C 1404.3 -0.625367 -1.83855 0
M  V30 14982 O 1403.57 0.375226 -1.90846 0
M  V30 14983 C 1403.85 -3.13049 -1.77967 0
M  V30 14984 C 1403.71 -4.40479 -0.910939 0
M  V30 14985 C 1405.03 -3.43057 -2.7568 0
M  V30 14986 H 1402.14 -0.653057 -0.341593 0
M  V30 14987 H 1404.79 -1.88811 -0.212226 0
M  V30 14988 H 1402.94 -3.05254 -2.40318 0
M  V30 14989 H 1404.61 -4.60298 -0.303922 0
M  V30 14990 H 1402.85 -4.33259 -0.216513 0
M  V30 14991 H 1403.52 -5.3036 -1.53042 0
M  V30 14992 H 1406 -3.51002 -2.23465 0
M  V30 14993 H 1404.87 -4.37657 -3.31282 0
M  V30 14994 H 1405.14 -2.65389 -3.53584 0
M  V30 14995 N 1404.2 0.485086 -1.49949 0
M  V30 14996 C 1405.42 1.26648 -1.64241 0
M  V30 14997 C 1405.85 1.85359 -0.319939 0
M  V30 14998 O 1405.2 1.66628 0.714487 0
M  V30 14999 C 1405.25 2.36109 -2.72552 0
M  V30 15000 O 1404.36 3.40387 -2.32832 0
M  V30 15001 H 1403.7 0.373208 -0.549192 0
M  V30 15002 H 1406.23 0.578929 -1.96239 0
M  V30 15003 H 1406.24 2.81634 -2.95205 0
M  V30 15004 H 1404.91 1.92745 -3.6854 0
M  V30 15005 H 1403.49 3.0067 -2.20571 0
M  V30 15006 N 1405.67 1.39291 0.737279 0
M  V30 15007 C 1406.61 1.32216 1.85995 0
M  V30 15008 C 1407.58 0.19623 1.61412 0
M  V30 15009 O 1408.77 0.376297 1.84706 0
M  V30 15010 C 1405.9 1.0525 3.21932 0
M  V30 15011 C 1404.94 2.20002 3.65378 0
M  V30 15012 S 1405.77 3.82265 3.75011 0
M  V30 15013 C 1406.93 3.57519 5.13742 0
M  V30 15014 H 1407.16 2.27231 1.91712 0
M  V30 15015 H 1404.7 1.25319 0.901911 0
M  V30 15016 H 1406.65 0.903753 4.00428 0
M  V30 15017 H 1405.32 0.119258 3.13874 0
M  V30 15018 H 1404.51 1.9672 4.64023 0
M  V30 15019 H 1404.11 2.31068 2.94081 0
M  V30 15020 H 1406.4 3.14643 6.00005 0
M  V30 15021 H 1407.35 4.55616 5.42051 0
M  V30 15022 H 1407.75 2.9167 4.8331 0
M  V30 15023 N 1407.15 -0.967221 1.24429 0
M  V30 15024 C 1408.4 -1.71279 1.08588 0
M  V30 15025 C 1408.73 -1.90558 -0.374325 0
M  V30 15026 O 1408.01 -1.46742 -1.27659 0
M  V30 15027 C 1408.29 -3.10326 1.82674 0
M  V30 15028 C 1408.14 -2.98535 3.36447 0
M  V30 15029 C 1409.46 -4.09993 1.59981 0
M  V30 15030 H 1406.58 -0.621658 0.395867 0
M  V30 15031 H 1409.22 -1.12514 1.53103 0
M  V30 15032 H 1407.37 -3.60492 1.44836 0
M  V30 15033 H 1409.04 -2.55791 3.83886 0
M  V30 15034 H 1407.29 -2.34736 3.64803 0
M  V30 15035 H 1407.96 -3.97041 3.83487 0
M  V30 15036 H 1410.43 -3.68687 1.92897 0
M  V30 15037 H 1409.31 -5.05349 2.14274 0
M  V30 15038 H 1409.57 -4.38812 0.538173 0
M  V30 15039 N 1408.63 -1.05812 -1.16797 0
M  V30 15040 C 1409.59 -0.668766 -2.19226 0
M  V30 15041 C 1410.59 0.28299 -1.5829 0
M  V30 15042 O 1411.78 0.0660233 -1.74075 0
M  V30 15043 C 1408.91 0.0167379 -3.40896 0
M  V30 15044 H 1410.11 -1.57543 -2.55187 0
M  V30 15045 H 1407.66 -0.852753 -1.30988 0
M  V30 15046 H 1408.4 0.936382 -3.10487 0
M  V30 15047 H 1408.18 -0.667576 -3.86375 0
M  V30 15048 H 1409.67 0.275041 -4.16693 0
M  V30 15049 N 1410.11 1.33347 -0.840014 0
M  V30 15050 C 1411.04 2.31703 -0.289138 0
M  V30 15051 C 1412.02 1.59024 0.603759 0
M  V30 15052 O 1413.2 1.86911 0.527071 0
M  V30 15053 C 1410.33 3.43144 0.53566 0
M  V30 15054 C 1409.29 4.272 -0.261544 0
M  V30 15055 C 1408.61 5.30267 0.687075 0
M  V30 15056 C 1409.91 5.00915 -1.47924 0
M  V30 15057 H 1411.61 2.78026 -1.11094 0
M  V30 15058 H 1409.15 1.33666 -0.535658 0
M  V30 15059 H 1411.11 4.10979 0.931351 0
M  V30 15060 H 1409.83 2.95512 1.39069 0
M  V30 15061 H 1408.49 3.60991 -0.638809 0
M  V30 15062 H 1408.14 4.78893 1.53853 0
M  V30 15063 H 1407.84 5.87388 0.157773 0
M  V30 15064 H 1409.36 6.00968 1.08026 0
M  V30 15065 H 1410.78 5.61511 -1.15664 0
M  V30 15066 H 1409.17 5.67692 -1.94541 0
M  V30 15067 H 1410.24 4.29622 -2.24839 0
M  V30 15068 N 1411.59 0.596556 1.45873 0
M  V30 15069 C 1412.52 -0.177354 2.2751 0
M  V30 15070 C 1413.5 -0.883999 1.36471 0
M  V30 15071 O 1414.68 -0.895098 1.65892 0
M  V30 15072 C 1411.81 -1.25567 3.14564 0
M  V30 15073 C 1410.85 -0.653363 4.21466 0
M  V30 15074 S 1411.69 0.53036 5.32867 0
M  V30 15075 C 1412.84 -0.548817 6.23489 0
M  V30 15076 H 1413.08 0.515289 2.928 0
M  V30 15077 H 1410.61 0.383791 1.49554 0
M  V30 15078 H 1412.57 -1.87298 3.6528 0
M  V30 15079 H 1411.23 -1.92033 2.4856 0
M  V30 15080 H 1410.42 -1.46435 4.82258 0
M  V30 15081 H 1410.02 -0.111425 3.73834 0
M  V30 15082 H 1412.31 -1.43085 6.62218 0
M  V30 15083 H 1413.26 0.0226785 7.08096 0
M  V30 15084 H 1413.67 -0.859188 5.57923 0
M  V30 15085 N 1413.06 -1.53996 0.335095 0
M  V30 15086 C 1414.48 -1.59591 -0.0171422 0
M  V30 15087 C 1414.68 -1.35132 -1.49471 0
M  V30 15088 O 1413.74 -1.14141 -2.25229 0
M  V30 15089 C 1415.05 -2.97872 0.411443 0
M  V30 15090 C 1416.6 -3.10887 0.363072 0
M  V30 15091 C 1417.07 -4.51532 0.766995 0
M  V30 15092 N 1418.56 -4.57557 0.72085 0
M  V30 15093 C 1419.3 -5.64516 1.00544 0
M  V30 15094 N 1418.79 -6.79365 1.35777 0
M  V30 15095 N 1420.59 -5.54349 0.930243 0
M  V30 15096 H 1412.74 -1.68151 1.29766 0
M  V30 15097 H 1415 -0.787067 0.528422 0
M  V30 15098 H 1414.71 -3.20809 1.44134 0
M  V30 15099 H 1414.58 -3.76571 -0.217678 0
M  V30 15100 H 1416.97 -2.87679 -0.657642 0
M  V30 15101 H 1417.05 -2.34266 1.02728 0
M  V30 15102 H 1416.69 -4.75474 1.78568 0
M  V30 15103 H 1416.62 -5.26539 0.0803511 0
M  V30 15104 H 1419.11 -3.75079 0.460867 0
M  V30 15105 H 1419.43 -7.56891 1.55999 0
M  V30 15106 H 1417.77 -6.80833 1.39614 0
M  V30 15107 H 1420.96 -4.63503 0.654402 0
M  V30 15108 H 1421.14 -6.37616 1.15539 0
M  V30 15109 N 1414.54 -0.0635198 -1.57472 0
M  V30 15110 C 1415.79 0.607008 -1.92349 0
M  V30 15111 C 1416.1 1.71268 -0.944806 0
M  V30 15112 O 1417.31 2.44221 -1.18609 0
M  V30 15113 C 1415.77 1.13105 -3.41666 0
M  V30 15114 C 1415.37 0.0568256 -4.47964 0
M  V30 15115 C 1417.12 1.77611 -3.85557 0
M  V30 15116 C 1415.02 0.594443 -5.88405 0
M  V30 15117 H 1413.95 0.230506 -0.717902 0
M  V30 15118 H 1416.61 -0.134413 -1.83007 0
M  V30 15119 H 1414.99 1.92517 -3.46054 0
M  V30 15120 H 1416.16 -0.717371 -4.55182 0
M  V30 15121 H 1414.48 -0.491517 -4.13489 0
M  V30 15122 H 1417.07 2.18852 -4.87861 0
M  V30 15123 H 1417.42 2.6328 -3.22474 0
M  V30 15124 H 1417.95 1.04834 -3.83738 0
M  V30 15125 H 1414.69 -0.224893 -6.55114 0
M  V30 15126 H 1414.21 1.33635 -5.84724 0
M  V30 15127 H 1415.89 1.07346 -6.38033 0
M  V30 15128 N 1416.02 1.56195 0.209972 0
M  V30 15129 C 1417.27 1.79745 0.932638 0
M  V30 15130 C 1417.59 0.634252 1.83868 0
M  V30 15131 O 1416.85 -0.380798 1.91959 0
M  V30 15132 C 1417.15 3.09154 1.79328 0
M  V30 15133 C 1416.81 4.38754 1.03949 0
M  V30 15134 C 1415.48 4.73965 0.831308 0
M  V30 15135 C 1417.83 5.18718 0.508031 0
M  V30 15136 C 1415.16 5.86646 0.0799547 0
M  V30 15137 C 1417.51 6.32182 -0.230037 0
M  V30 15138 C 1416.17 6.65986 -0.449366 0
M  V30 15139 H 1415.44 0.657732 0.341276 0
M  V30 15140 H 1418.09 1.90453 0.199998 0
M  V30 15141 H 1416.39 2.93618 2.59414 0
M  V30 15142 H 1418.09 3.24578 2.35478 0
M  V30 15143 H 1414.68 4.11114 1.21174 0
M  V30 15144 H 1418.87 4.91941 0.656306 0
M  V30 15145 H 1414.12 6.11318 -0.100092 0
M  V30 15146 H 1418.3 6.93367 -0.649296 0
M  V30 15147 H 1415.92 7.53142 -1.03349 0
M  V30 15148 N 1417.5 -0.477127 1.50204 0
M  V30 15149 C 1418.91 -0.81037 1.37496 0
M  V30 15150 C 1419.11 -1.96937 0.426399 0
M  V30 15151 O 1418.17 -2.52148 -0.133197 0
M  V30 15152 C 1419.48 -1.12811 2.78737 0
M  V30 15153 C 1421.03 -1.23492 2.87608 0
M  V30 15154 C 1421.51 -1.58583 4.29669 0
M  V30 15155 N 1423 -1.65586 4.32591 0
M  V30 15156 C 1423.73 -1.94231 5.39502 0
M  V30 15157 N 1423.23 -2.20936 6.56627 0
M  V30 15158 N 1425.02 -1.95682 5.26939 0
M  V30 15159 H 1417.17 0.286771 2.10455 0
M  V30 15160 H 1419.43 0.0657649 0.945716 0
M  V30 15161 H 1419.14 -0.349616 3.49958 0
M  V30 15162 H 1419.01 -2.0658 3.15602 0
M  V30 15163 H 1421.4 -2.0041 2.1661 0
M  V30 15164 H 1421.48 -0.277182 2.54294 0
M  V30 15165 H 1421.13 -0.822071 5.01203 0
M  V30 15166 H 1421.06 -2.55497 4.60466 0
M  V30 15167 H 1423.55 -1.47012 3.48132 0
M  V30 15168 H 1423.86 -2.42049 7.33916 0
M  V30 15169 H 1422.21 -2.18341 6.59812 0
M  V30 15170 H 1425.4 -1.74311 4.34434 0
M  V30 15171 H 1425.57 -2.1767 6.10347 0
M  V30 15172 N 1418.98 -1.3968 -0.729882 0
M  V30 15173 C 1420.25 -1.27689 -1.48172 0
M  V30 15174 C 1420.63 0.111239 -2.10807 0
M  V30 15175 O 1419.98 1.12289 -1.99006 0
M  V30 15176 C 1420.19 -2.40505 -2.529 0
M  V30 15177 C 1421.54 -2.80064 -3.19138 0
M  V30 15178 O 1422.56 -2.39992 -2.63215 0
M  V30 15179 O 1421.42 -3.49248 -4.20342 0
M  V30 15180 H 1418.52 -0.500674 -0.658221 0
M  V30 15181 H 1421.06 -1.51566 -0.763272 0
M  V30 15182 H 1419.83 -3.33282 -2.05033 0
M  V30 15183 H 1419.46 -2.1832 -3.32298 0
M  V30 15184 N 1420.45 0.960609 -1.2494 0
M  V30 15185 C 1421.39 2.05948 -1.00588 0
M  V30 15186 C 1422.4 1.62777 0.0271261 0
M  V30 15187 O 1423.59 1.77252 -0.210739 0
M  V30 15188 C 1420.69 3.35228 -0.497521 0
M  V30 15189 C 1419.86 4.0727 -1.59531 0
M  V30 15190 C 1418.92 5.14822 -1.08836 0
M  V30 15191 O 1417.95 5.40602 -1.78153 0
M  V30 15192 N 1419.15 5.80453 0.0735067 0
M  V30 15193 H 1421.91 2.27411 -1.95204 0
M  V30 15194 H 1419.47 1.12874 -1.16065 0
M  V30 15195 H 1421.47 4.04447 -0.142979 0
M  V30 15196 H 1420.04 3.10583 0.354546 0
M  V30 15197 H 1419.26 3.32231 -2.12171 0
M  V30 15198 H 1420.54 4.52161 -2.33299 0
M  V30 15199 H 1419.94 5.6192 0.652848 0
M  V30 15200 H 1418.5 6.50754 0.369132 0
M  V30 15201 N 1421.93 1.0643 1.16234 0
M  V30 15202 C 1423.16 0.802671 1.91238 0
M  V30 15203 C 1423.58 -0.637222 1.76978 0
M  V30 15204 O 1422.94 -1.44419 1.09603 0
M  V30 15205 C 1422.99 1.20389 3.3991 0
M  V30 15206 O 1422.09 0.343516 4.10967 0
M  V30 15207 H 1421.43 0.29323 0.595745 0
M  V30 15208 H 1423.96 1.42046 1.47255 0
M  V30 15209 H 1423.97 1.17604 3.90683 0
M  V30 15210 H 1422.65 2.2527 3.49608 0
M  V30 15211 H 1421.23 0.433051 3.70377 0
M  V30 15212 N 1423.41 -1.329 0.847073 0
M  V30 15213 C 1424.34 -2.31546 0.301422 0
M  V30 15214 C 1425.32 -1.59342 -0.595317 0
M  V30 15215 O 1426.51 -1.87188 -0.517151 0
M  V30 15216 C 1423.64 -3.43423 -0.517454 0
M  V30 15217 C 1422.59 -4.27055 0.284195 0
M  V30 15218 C 1421.92 -5.30624 -0.658944 0
M  V30 15219 C 1423.22 -5.00123 1.50578 0
M  V30 15220 H 1424.91 -2.77433 1.12567 0
M  V30 15221 H 1422.46 -1.3338 0.542739 0
M  V30 15222 H 1424.41 -4.11467 -0.909543 0
M  V30 15223 H 1423.13 -2.96246 -1.37499 0
M  V30 15224 H 1421.79 -3.60648 0.657944 0
M  V30 15225 H 1421.44 -4.79702 -1.51311 0
M  V30 15226 H 1421.14 -5.87464 -0.12662 0
M  V30 15227 H 1422.66 -6.01533 -1.04837 0
M  V30 15228 H 1424.08 -5.6089 1.18641 0
M  V30 15229 H 1422.48 -5.66652 1.97549 0
M  V30 15230 H 1423.55 -4.28424 2.27115 0
M  V30 15231 N 1424.89 -0.604284 -1.45555 0
M  V30 15232 C 1426.11 -0.102634 -2.07146 0
M  V30 15233 C 1426.54 1.20239 -1.44652 0
M  V30 15234 O 1425.9 1.73133 -0.538033 0
M  V30 15235 C 1425.94 0.0270231 -3.6059 0
M  V30 15236 O 1425.05 1.0781 -3.98059 0
M  V30 15237 H 1424.39 -0.0725667 -0.660023 0
M  V30 15238 H 1426.92 -0.833355 -1.86859 0
M  V30 15239 H 1426.93 0.226299 -4.07372 0
M  V30 15240 H 1425.6 -0.925896 -4.05463 0
M  V30 15241 H 1424.18 0.855552 -3.62953 0
M  V30 15242 N 1426.37 1.53816 -0.343257 0
M  V30 15243 C 1427.32 2.21763 0.529635 0
M  V30 15244 C 1428.3 1.20494 1.06631 0
M  V30 15245 O 1429.49 1.46041 1.00006 0
M  V30 15246 C 1426.62 2.99372 1.68022 0
M  V30 15247 C 1425.71 4.07999 1.1575 0
M  V30 15248 N 1426.1 5.04546 0.355979 0
M  V30 15249 C 1424.4 4.22304 1.43442 0
M  V30 15250 C 1425.1 5.81655 0.0723481 0
M  V30 15251 N 1424.07 5.39531 0.66391 0
M  V30 15252 H 1427.88 2.93763 -0.0898087 0
M  V30 15253 H 1425.39 1.61705 -0.150107 0
M  V30 15254 H 1427.39 3.4655 2.31752 0
M  V30 15255 H 1426.05 2.28899 2.30294 0
M  V30 15256 H 1427.06 5.179 -0.00291228 0
M  V30 15257 H 1423.73 3.63051 2.06155 0
M  V30 15258 H 1425.12 6.69442 -0.574192 0
M  V30 15259 N 1427.84 0.0718701 1.57436 0
M  V30 15260 C 1428.79 -0.905443 2.0925 0
M  V30 15261 C 1429.78 -1.25875 1.00221 0
M  V30 15262 O 1430.97 -1.23771 1.26529 0
M  V30 15263 C 1428.1 -2.17298 2.65775 0
M  V30 15264 C 1427.19 -1.84614 3.81809 0
M  V30 15265 N 1427.58 -1.22381 4.90771 0
M  V30 15266 C 1425.87 -2.14364 3.91106 0
M  V30 15267 C 1426.58 -1.07791 5.71626 0
M  V30 15268 N 1425.55 -1.58764 5.19899 0
M  V30 15269 H 1429.35 -0.419955 2.90884 0
M  V30 15270 H 1426.87 -0.132017 1.61863 0
M  V30 15271 H 1428.86 -2.88231 3.01211 0
M  V30 15272 H 1427.52 -2.66434 1.85588 0
M  V30 15273 H 1428.54 -0.89345 5.10135 0
M  V30 15274 H 1425.21 -2.65877 3.21894 0
M  V30 15275 H 1426.6 -0.593061 6.69278 0
M  V30 15276 N 1429.32 -1.56304 -0.201686 0
M  V30 15277 C 1430.27 -1.90422 -1.25393 0
M  V30 15278 C 1431.26 -0.769236 -1.41321 0
M  V30 15279 O 1432.45 -1.03199 -1.43802 0
M  V30 15280 C 1429.58 -2.24157 -2.60016 0
M  V30 15281 C 1428.66 -3.44097 -2.47908 0
M  V30 15282 N 1429.05 -4.62185 -2.05471 0
M  V30 15283 C 1427.35 -3.48105 -2.78817 0
M  V30 15284 C 1428.05 -5.44345 -2.05095 0
M  V30 15285 N 1427.03 -4.84576 -2.46346 0
M  V30 15286 H 1430.83 -2.79227 -0.917045 0
M  V30 15287 H 1428.35 -1.57135 -0.410157 0
M  V30 15288 H 1430.34 -2.46782 -3.36012 0
M  V30 15289 H 1429 -1.36676 -2.94533 0
M  V30 15290 H 1430.01 -4.86974 -1.76285 0
M  V30 15291 H 1426.69 -2.71022 -3.17574 0
M  V30 15292 H 1428.08 -6.48914 -1.74242 0
M  V30 15293 N 1430.8 0.469154 -1.50455 0
M  V30 15294 C 1432.03 1.24432 -1.653 0
M  V30 15295 C 1432.44 1.85766 -0.33713 0
M  V30 15296 O 1431.8 1.69313 0.681118 0
M  V30 15297 C 1431.85 2.35163 -2.74555 0
M  V30 15298 O 1431.57 1.76344 -4.01042 0
M  V30 15299 C 1433.07 3.26006 -3.00391 0
M  V30 15300 H 1430.29 0.376251 -0.555587 0
M  V30 15301 H 1432.84 0.559777 -1.96689 0
M  V30 15302 H 1430.99 2.99389 -2.45855 0
M  V30 15303 H 1431.41 2.49278 -4.61477 0
M  V30 15304 H 1432.88 3.99909 -3.80496 0
M  V30 15305 H 1433.36 3.84901 -2.11537 0
M  V30 15306 H 1433.96 2.67515 -3.3063 0
M  V30 15307 N 1432.28 1.40065 0.722464 0
M  V30 15308 C 1433.21 1.34182 1.84582 0
M  V30 15309 C 1434.19 0.213339 1.61194 0
M  V30 15310 O 1435.37 0.395867 1.84296 0
M  V30 15311 C 1432.5 1.08658 3.20798 0
M  V30 15312 C 1431.55 2.23865 3.63024 0
M  V30 15313 S 1432.38 3.86221 3.70936 0
M  V30 15314 C 1433.54 3.62948 5.09921 0
M  V30 15315 H 1433.77 2.29251 1.89291 0
M  V30 15316 H 1431.3 1.26269 0.888568 0
M  V30 15317 H 1433.26 0.946172 3.99447 0
M  V30 15318 H 1431.92 0.152542 3.13729 0
M  V30 15319 H 1431.11 2.01631 4.6191 0
M  V30 15320 H 1430.72 2.34174 2.91614 0
M  V30 15321 H 1433.01 3.20989 5.96634 0
M  V30 15322 H 1433.95 4.6134 5.37188 0
M  V30 15323 H 1434.36 2.9678 4.8019 0
M  V30 15324 N 1433.76 -0.95397 1.25448 0
M  V30 15325 C 1435 -1.70118 1.10399 0
M  V30 15326 C 1435.34 -1.90945 -0.354093 0
M  V30 15327 O 1434.61 -1.48088 -1.26096 0
M  V30 15328 C 1434.89 -3.08371 1.85955 0
M  V30 15329 C 1434.75 -2.9495 3.39595 0
M  V30 15330 C 1436.07 -4.08273 1.64321 0
M  V30 15331 H 1433.19 -0.617424 0.402438 0
M  V30 15332 H 1435.83 -1.10884 1.54288 0
M  V30 15333 H 1433.98 -3.58936 1.48651 0
M  V30 15334 H 1435.65 -2.51705 3.86578 0
M  V30 15335 H 1433.89 -2.30853 3.67273 0
M  V30 15336 H 1434.56 -3.92952 3.87676 0
M  V30 15337 H 1437.04 -3.6662 1.96796 0
M  V30 15338 H 1435.92 -5.03048 2.19622 0
M  V30 15339 H 1436.18 -4.38217 0.584685 0
M  V30 15340 N 1435.24 -1.07045 -1.15668 0
M  V30 15341 C 1436.48 -0.792908 -1.86657 0
M  V30 15342 C 1436.81 0.679213 -1.81935 0
M  V30 15343 O 1436.09 1.49822 -1.2403 0
M  V30 15344 C 1436.37 -1.2978 -3.35901 0
M  V30 15345 C 1436.23 -2.83424 -3.49272 0
M  V30 15346 C 1437.54 -0.911821 -4.30551 0
M  V30 15347 H 1434.66 -0.289509 -0.677756 0
M  V30 15348 H 1437.31 -1.32769 -1.35913 0
M  V30 15349 H 1435.46 -0.84288 -3.79246 0
M  V30 15350 H 1437.13 -3.37182 -3.14811 0
M  V30 15351 H 1435.37 -3.21777 -2.90933 0
M  V30 15352 H 1436.04 -3.13819 -4.54116 0
M  V30 15353 H 1438.52 -1.30376 -3.95147 0
M  V30 15354 H 1437.39 -1.29247 -5.33467 0
M  V30 15355 H 1437.65 0.18255 -4.41723 0
M  V30 15356 N 1436.71 1.32449 -0.85411 0
M  V30 15357 C 1437.65 2.2777 -0.255605 0
M  V30 15358 C 1438.66 1.52407 0.572355 0
M  V30 15359 O 1439.85 1.74031 0.396935 0
M  V30 15360 C 1436.95 3.32461 0.657496 0
M  V30 15361 C 1436.12 4.37193 -0.134492 0
M  V30 15362 C 1435.18 5.21465 0.704288 0
M  V30 15363 O 1434.21 5.69033 0.138001 0
M  V30 15364 N 1435.41 5.44254 2.01911 0
M  V30 15365 H 1438.17 2.79769 -1.07468 0
M  V30 15366 H 1435.73 1.45304 -0.714038 0
M  V30 15367 H 1437.73 3.85748 1.22396 0
M  V30 15368 H 1436.3 2.80625 1.37726 0
M  V30 15369 H 1435.52 3.84198 -0.882378 0
M  V30 15370 H 1436.8 5.04256 -0.678508 0
M  V30 15371 H 1436.2 5.07336 2.50252 0
M  V30 15372 H 1434.76 6.00538 2.53371 0
M  V30 15373 N 1438.19 0.611994 1.45232 0
M  V30 15374 C 1439.15 -0.0943825 2.29006 0
M  V30 15375 C 1440.15 -0.790863 1.40007 0
M  V30 15376 O 1441.34 -0.638356 1.62082 0
M  V30 15377 C 1438.48 -1.1439 3.21135 0
M  V30 15378 H 1439.67 0.6422 2.92943 0
M  V30 15379 H 1437.22 0.37124 1.51827 0
M  V30 15380 H 1437.96 -1.9111 2.62007 0
M  V30 15381 H 1437.74 -0.648638 3.86698 0
M  V30 15382 H 1439.23 -1.63848 3.84114 0
M  V30 15383 N 1439.67 -1.53632 0.351409 0
M  V30 15384 C 1440.92 -2.00222 -0.243731 0
M  V30 15385 C 1441.23 -1.24305 -1.51022 0
M  V30 15386 O 1442.44 -1.61411 -2.18309 0
M  V30 15387 C 1440.89 -3.56619 -0.48487 0
M  V30 15388 C 1440.5 -4.414 0.766173 0
M  V30 15389 C 1442.25 -4.11603 -1.03844 0
M  V30 15390 C 1440.15 -5.89321 0.4954 0
M  V30 15391 H 1439.08 -0.74801 -0.0948534 0
M  V30 15392 H 1441.73 -1.77433 0.467957 0
M  V30 15393 H 1440.12 -3.75505 -1.25746 0
M  V30 15394 H 1441.29 -4.34288 1.54047 0
M  V30 15395 H 1439.6 -3.97448 1.24194 0
M  V30 15396 H 1442.2 -5.19736 -1.25611 0
M  V30 15397 H 1442.54 -3.65311 -1.99634 0
M  V30 15398 H 1443.08 -3.96459 -0.326363 0
M  V30 15399 H 1439.82 -6.39863 1.42324 0
M  V30 15400 H 1439.34 -5.99317 -0.240662 0
M  V30 15401 H 1441.02 -6.46897 0.115584 0
M  V30 15402 N 1441.15 -0.0802183 -1.57396 0
M  V30 15403 C 1442.38 0.595754 -1.98137 0
M  V30 15404 C 1442.79 1.62638 -0.958871 0
M  V30 15405 O 1442.15 1.82422 0.0534316 0
M  V30 15406 C 1442.2 1.2568 -3.38949 0
M  V30 15407 O 1441.92 0.267417 -4.37283 0
M  V30 15408 C 1443.42 2.0198 -3.94612 0
M  V30 15409 H 1440.64 0.160853 -0.651435 0
M  V30 15410 H 1443.18 -0.155111 -2.03911 0
M  V30 15411 H 1441.34 1.9587 -3.34236 0
M  V30 15412 H 1441.75 0.742695 -5.19215 0
M  V30 15413 H 1443.23 2.43613 -4.95335 0
M  V30 15414 H 1443.7 2.87973 -3.31614 0
M  V30 15415 H 1444.31 1.36639 -4.02753 0
M  V30 15416 N 1442.63 1.56409 0.193394 0
M  V30 15417 C 1443.87 1.80724 0.913521 0
M  V30 15418 C 1444.2 0.653718 1.83185 0
M  V30 15419 O 1443.46 -0.360417 1.92353 0
M  V30 15420 C 1443.75 3.11039 1.76039 0
M  V30 15421 C 1443.42 4.39832 0.992892 0
M  V30 15422 C 1442.08 4.7482 0.780991 0
M  V30 15423 C 1444.43 5.19228 0.452985 0
M  V30 15424 C 1441.76 5.86697 0.0177286 0
M  V30 15425 C 1444.11 6.31902 -0.297075 0
M  V30 15426 C 1442.78 6.65472 -0.519977 0
M  V30 15427 H 1442.05 0.661315 0.334281 0
M  V30 15428 H 1444.7 1.90654 0.179786 0
M  V30 15429 H 1443 2.96353 2.56285 0
M  V30 15430 H 1444.7 3.27058 2.32022 0
M  V30 15431 H 1441.29 4.12376 1.16806 0
M  V30 15432 H 1445.47 4.9261 0.604092 0
M  V30 15433 H 1440.73 6.11178 -0.164925 0
M  V30 15434 H 1444.9 6.92639 -0.7228 0
M  V30 15435 H 1442.53 7.52004 -1.11331 0
M  V30 15436 N 1444.1 -0.461169 1.50702 0
M  V30 15437 C 1445.35 -1.20934 1.61425 0
M  V30 15438 C 1445.67 -1.92884 0.32481 0
M  V30 15439 O 1446.87 -2.69712 0.311081 0
M  V30 15440 C 1445.33 -2.19797 2.84987 0
M  V30 15441 C 1444.94 -1.53604 4.20844 0
M  V30 15442 C 1446.68 -2.95194 3.05059 0
M  V30 15443 C 1444.59 -2.50811 5.35582 0
M  V30 15444 H 1443.52 -0.455088 0.601174 0
M  V30 15445 H 1446.17 -0.478771 1.77144 0
M  V30 15446 H 1444.55 -2.96187 2.62848 0
M  V30 15447 H 1445.72 -0.829345 4.53275 0
M  V30 15448 H 1444.04 -0.904504 4.06457 0
M  V30 15449 H 1446.64 -3.67965 3.87951 0
M  V30 15450 H 1446.98 -3.5516 2.1718 0
M  V30 15451 H 1447.51 -2.25915 3.27425 0
M  V30 15452 H 1444.25 -1.9557 6.25646 0
M  V30 15453 H 1443.77 -3.19604 5.07556 0
M  V30 15454 H 1445.45 -3.12437 5.66561 0
M  V30 15455 N 1445.58 -1.40446 -0.715026 0
M  V30 15456 C 1446.83 -1.38754 -1.47491 0
M  V30 15457 C 1447.16 0.0099443 -1.94497 0
M  V30 15458 O 1446.41 0.99458 -1.68543 0
M  V30 15459 C 1446.71 -2.32392 -2.7153 0
M  V30 15460 C 1446.38 -3.79635 -2.43286 0
M  V30 15461 C 1445.04 -4.19751 -2.35293 0
M  V30 15462 C 1447.39 -4.72681 -2.19596 0
M  V30 15463 C 1444.72 -5.50947 -2.01679 0
M  V30 15464 C 1447.07 -6.04176 -1.87495 0
M  V30 15465 C 1445.73 -6.43333 -1.77985 0
M  V30 15466 H 1445 -0.507738 -0.539706 0
M  V30 15467 H 1447.65 -1.73104 -0.81898 0
M  V30 15468 H 1445.96 -1.91229 -3.41963 0
M  V30 15469 H 1447.65 -2.28366 -3.29621 0
M  V30 15470 H 1444.24 -3.47852 -2.50393 0
M  V30 15471 H 1448.43 -4.42506 -2.24727 0
M  V30 15472 H 1443.68 -5.80187 -1.92854 0
M  V30 15473 H 1447.86 -6.75788 -1.68179 0
M  V30 15474 H 1445.48 -7.44909 -1.51706 0
M  V30 15475 N 1447.06 0.947303 -1.25952 0
M  V30 15476 C 1448.01 2.04511 -1.06976 0
M  V30 15477 C 1448.98 1.66084 0.023347 0
M  V30 15478 O 1450.16 1.9032 -0.135247 0
M  V30 15479 C 1447.3 3.37878 -0.70232 0
M  V30 15480 C 1446.41 3.89379 -1.87105 0
M  V30 15481 C 1445.55 5.11104 -1.44728 0
M  V30 15482 C 1444.59 5.54852 -2.58469 0
M  V30 15483 N 1443.73 6.67784 -2.16817 0
M  V30 15484 H 1448.57 2.20075 -2.00925 0
M  V30 15485 H 1446.1 1.07837 -1.00048 0
M  V30 15486 H 1448.06 4.14542 -0.470199 0
M  V30 15487 H 1446.69 3.22179 0.20019 0
M  V30 15488 H 1445.74 3.09169 -2.21627 0
M  V30 15489 H 1447.05 4.17789 -2.72496 0
M  V30 15490 H 1446.21 5.95208 -1.17525 0
M  V30 15491 H 1444.95 4.84426 -0.564191 0
M  V30 15492 H 1443.95 4.69308 -2.86409 0
M  V30 15493 H 1445.18 5.83534 -3.47368 0
M  V30 15494 H 1443.12 6.428 -1.30934 0
M  V30 15495 H 1443.04 6.95749 -2.95753 0
M  V30 15496 H 1444.31 7.55278 -1.92809 0
M  V30 15497 N 1448.54 1.07657 1.15099 0
M  V30 15498 C 1449.76 0.82291 1.90376 0
M  V30 15499 C 1450.19 -0.618415 1.77644 0
M  V30 15500 O 1449.55 -1.43248 1.11129 0
M  V30 15501 C 1449.59 1.23988 3.38614 0
M  V30 15502 O 1448.7 0.387085 4.10579 0
M  V30 15503 H 1448.04 0.299532 0.592602 0
M  V30 15504 H 1450.57 1.436 1.4574 0
M  V30 15505 H 1450.58 1.21741 3.89414 0
M  V30 15506 H 1449.25 2.28966 3.472 0
M  V30 15507 H 1447.83 0.472311 3.69897 0
M  V30 15508 N 1450.02 -1.31994 0.861122 0
M  V30 15509 C 1450.95 -2.31214 0.325963 0
M  V30 15510 C 1451.93 -1.59965 -0.578383 0
M  V30 15511 O 1453.11 -1.87726 -0.497268 0
M  V30 15512 C 1450.24 -3.43953 -0.481001 0
M  V30 15513 C 1449.2 -4.2673 0.329474 0
M  V30 15514 C 1448.52 -5.31293 -0.602627 0
M  V30 15515 C 1449.82 -4.98498 1.55874 0
M  V30 15516 H 1451.52 -2.76223 1.15503 0
M  V30 15517 H 1449.06 -1.32797 0.556856 0
M  V30 15518 H 1451.02 -4.12409 -0.86585 0
M  V30 15519 H 1449.74 -2.97687 -1.3435 0
M  V30 15520 H 1448.4 -3.59929 0.696159 0
M  V30 15521 H 1448.05 -4.8128 -1.46215 0
M  V30 15522 H 1447.75 -5.87565 -0.0643044 0
M  V30 15523 H 1449.27 -6.02611 -0.984512 0
M  V30 15524 H 1450.68 -5.596 1.24583 0
M  V30 15525 H 1449.08 -5.64525 2.03548 0
M  V30 15526 H 1450.15 -4.25991 2.31646 0
M  V30 15527 N 1451.49 -0.619688 -1.44906 0
M  V30 15528 C 1452.74 -0.119397 -2.01747 0
M  V30 15529 C 1453.06 1.25904 -1.48907 0
M  V30 15530 O 1452.33 1.83417 -0.688104 0
M  V30 15531 H 1450.91 -0.0411482 -0.745866 0
M  V30 15532 H 1453.58 -0.803813 -1.77552 0
M  V30 15533 H 1452.67 -0.078368 -3.12002 0
M  V30 15534 N 1452.97 1.53444 -0.359552 0
M  V30 15535 C 1453.9 2.28475 0.4818 0
M  V30 15536 C 1454.88 1.30664 1.08908 0
M  V30 15537 O 1456.07 1.59527 1.10746 0
M  V30 15538 C 1453.2 3.06951 1.62477 0
M  V30 15539 C 1452.15 4.12399 1.14504 0
M  V30 15540 C 1451.48 4.78922 2.37777 0
M  V30 15541 C 1452.78 5.21775 0.234075 0
M  V30 15542 H 1454.47 2.99053 -0.144162 0
M  V30 15543 H 1452.02 1.43826 -0.0707746 0
M  V30 15544 H 1453.97 3.58186 2.21993 0
M  V30 15545 H 1452.7 2.34053 2.27787 0
M  V30 15546 H 1451.35 3.62101 0.572589 0
M  V30 15547 H 1451 4.02602 3.0153 0
M  V30 15548 H 1450.7 5.50175 2.06353 0
M  V30 15549 H 1452.23 5.32948 2.97991 0
M  V30 15550 H 1453.64 5.68549 0.736548 0
M  V30 15551 H 1452.04 6.00099 0.0109887 0
M  V30 15552 H 1453.11 4.79443 -0.725435 0
M  V30 15553 N 1454.45 0.0885642 1.57351 0
M  V30 15554 C 1455.4 -0.872723 2.13664 0
M  V30 15555 C 1456.37 -1.28418 1.05347 0
M  V30 15556 O 1457.55 -1.36709 1.33099 0
M  V30 15557 C 1454.69 -2.12886 2.71613 0
M  V30 15558 C 1453.81 -1.76852 3.94141 0
M  V30 15559 C 1452.94 -2.97203 4.40277 0
M  V30 15560 C 1451.98 -2.57265 5.55411 0
M  V30 15561 N 1451.12 -3.70429 5.96428 0
M  V30 15562 H 1455.96 -0.385644 2.95494 0
M  V30 15563 H 1453.49 -0.178688 1.46011 0
M  V30 15564 H 1455.45 -2.86441 3.03327 0
M  V30 15565 H 1454.08 -2.59105 1.92521 0
M  V30 15566 H 1453.13 -0.932921 3.68783 0
M  V30 15567 H 1454.45 -1.43481 4.77718 0
M  V30 15568 H 1453.6 -3.79019 4.7374 0
M  V30 15569 H 1452.34 -3.3378 3.55587 0
M  V30 15570 H 1451.34 -1.73875 5.21582 0
M  V30 15571 H 1452.57 -2.21839 6.41844 0
M  V30 15572 H 1450.51 -4.06737 5.14686 0
M  V30 15573 H 1450.43 -3.40881 6.74786 0
M  V30 15574 H 1451.7 -4.52774 6.3452 0
M  V30 15575 N 1455.93 -1.56509 -0.185096 0
M  V30 15576 C 1457.17 -1.82997 -0.910576 0
M  V30 15577 C 1457.53 -0.667514 -1.80023 0
M  V30 15578 O 1458.73 -0.812514 -2.56226 0
M  V30 15579 C 1457 -3.14549 -1.69688 0
M  V30 15580 S 1458.56 -3.62474 -2.47301 0
M  V30 15581 H 1455.38 -0.642148 -0.305233 0
M  V30 15582 H 1457.98 -1.94731 -0.173217 0
M  V30 15583 H 1456.69 -3.97158 -1.0341 0
M  V30 15584 H 1456.22 -3.05719 -2.47587 0
M  V30 15585 H 1458.23 -3.28705 -3.71709 0
M  V30 15586 N 1457.41 0.45317 -1.50944 0
M  V30 15587 C 1458.65 1.20568 -1.63068 0
M  V30 15588 C 1458.99 1.91229 -0.338375 0
M  V30 15589 O 1458.26 1.82916 0.661207 0
M  V30 15590 C 1458.54 2.23522 -2.8233 0
M  V30 15591 C 1458.4 1.57047 -4.21493 0
M  V30 15592 C 1459.72 3.24663 -2.97123 0
M  V30 15593 H 1456.83 0.436971 -0.593486 0
M  V30 15594 H 1459.48 0.497008 -1.83384 0
M  V30 15595 H 1457.63 2.83961 -2.65139 0
M  V30 15596 H 1459.3 1.00067 -4.50316 0
M  V30 15597 H 1457.54 0.873143 -4.24922 0
M  V30 15598 H 1458.21 2.31949 -5.00903 0
M  V30 15599 H 1460.69 2.74264 -3.12919 0
M  V30 15600 H 1459.56 3.9401 -3.82161 0
M  V30 15601 H 1459.83 3.89843 -2.08506 0
M  V30 15602 N 1458.88 1.40823 0.707568 0
M  V30 15603 C 1459.82 1.37646 1.83265 0
M  V30 15604 C 1460.83 0.280547 1.60365 0
M  V30 15605 O 1462.02 0.541453 1.7009 0
M  V30 15606 C 1459.12 1.12121 3.19816 0
M  V30 15607 C 1458.29 2.33522 3.69846 0
M  V30 15608 C 1457.35 2.04035 4.85032 0
M  V30 15609 O 1456.38 2.76971 4.97268 0
M  V30 15610 N 1457.58 1.02322 5.71411 0
M  V30 15611 H 1460.34 2.34612 1.86486 0
M  V30 15612 H 1457.9 1.35281 0.889424 0
M  V30 15613 H 1459.9 0.903663 3.94482 0
M  V30 15614 H 1458.47 0.237941 3.11693 0
M  V30 15615 H 1457.69 2.71055 2.86221 0
M  V30 15616 H 1458.97 3.14436 4.00009 0
M  V30 15617 H 1458.37 0.419311 5.64144 0
M  V30 15618 H 1456.93 0.865571 6.46027 0
M  V30 15619 N 1460.36 -0.94061 1.26453 0
M  V30 15620 C 1461.61 -1.68687 1.12031 0
M  V30 15621 C 1461.94 -1.91571 -0.336252 0
M  V30 15622 O 1461.19 -1.49458 -1.26336 0
M  V30 15623 C 1461.49 -3.06683 1.83521 0
M  V30 15624 C 1461.16 -3.03553 3.33416 0
M  V30 15625 C 1459.82 -3.02407 3.74304 0
M  V30 15626 C 1462.17 -2.95817 4.29118 0
M  V30 15627 C 1459.5 -2.9129 5.09281 0
M  V30 15628 C 1461.85 -2.86242 5.64135 0
M  V30 15629 C 1460.52 -2.83438 6.04333 0
M  V30 15630 H 1459.79 -0.61727 0.40995 0
M  V30 15631 H 1462.43 -1.0979 1.56902 0
M  V30 15632 H 1460.74 -3.69208 1.31121 0
M  V30 15633 H 1462.43 -3.63274 1.69802 0
M  V30 15634 H 1459.02 -3.05226 3.00891 0
M  V30 15635 H 1463.21 -2.9581 3.9851 0
M  V30 15636 H 1458.46 -2.87498 5.39588 0
M  V30 15637 H 1462.64 -2.79219 6.37973 0
M  V30 15638 H 1460.27 -2.74581 7.08879 0
M  V30 15639 N 1461.84 -1.08266 -1.14527 0
M  V30 15640 C 1462.77 -0.732968 -2.21698 0
M  V30 15641 C 1463.75 0.283917 -1.67714 0
M  V30 15642 O 1464.94 0.154607 -1.93584 0
M  V30 15643 C 1462.07 -0.139935 -3.47018 0
M  V30 15644 C 1461.02 -1.08501 -4.14019 0
M  V30 15645 C 1460.35 -0.354263 -5.33525 0
M  V30 15646 C 1461.65 -2.42254 -4.62721 0
M  V30 15647 H 1463.34 -1.629 -2.51205 0
M  V30 15648 H 1460.89 -0.784696 -1.20742 0
M  V30 15649 H 1462.84 0.1167 -4.21238 0
M  V30 15650 H 1461.56 0.791228 -3.16871 0
M  V30 15651 H 1460.22 -1.32672 -3.41751 0
M  V30 15652 H 1459.87 0.580658 -4.99637 0
M  V30 15653 H 1459.57 -0.984287 -5.79297 0
M  V30 15654 H 1461.09 -0.105648 -6.10509 0
M  V30 15655 H 1462.51 -2.22357 -5.28422 0
M  V30 15656 H 1460.91 -3.00935 -5.1919 0
M  V30 15657 H 1461.98 -3.03884 -3.77866 0
M  V30 15658 N 1463.32 1.31536 -0.86811 0
M  V30 15659 C 1464.73 1.78991 -0.530937 0
M  V30 15660 C 1465.08 1.71553 0.952046 0
M  V30 15661 O 1464.21 1.28216 1.74326 0
M  V30 15662 C 1464.8 3.25004 -0.956981 0
M  V30 15663 C 1463.36 3.70362 -0.671495 0
M  V30 15664 C 1462.51 2.52361 -1.14932 0
M  V30 15665 H 1465.46 1.18644 -1.05401 0
M  V30 15666 H 1465.48 3.79477 -0.278883 0
M  V30 15667 H 1464.99 3.30385 -2.03635 0
M  V30 15668 H 1463.09 3.70483 0.39659 0
M  V30 15669 H 1463.21 4.62581 -1.24722 0
M  V30 15670 H 1461.57 2.4826 -0.569144 0
M  V30 15671 H 1462.35 2.60489 -2.23608 0
M  V30 15672 N 1464.8 0.627364 1.44575 0
M  V30 15673 C 1465.73 -0.118179 2.28895 0
M  V30 15674 C 1466.74 -0.812569 1.41071 0
M  V30 15675 O 1467.93 -0.674646 1.6526 0
M  V30 15676 C 1465.03 -1.18937 3.17344 0
M  V30 15677 C 1464.2 -0.578226 4.33561 0
M  V30 15678 C 1463.26 -1.54288 5.03072 0
M  V30 15679 O 1462.29 -1.06148 5.59215 0
M  V30 15680 N 1463.49 -2.87725 5.04177 0
M  V30 15681 H 1466.26 0.605442 2.93521 0
M  V30 15682 H 1463.82 0.468253 1.54981 0
M  V30 15683 H 1465.81 -1.83494 3.60711 0
M  V30 15684 H 1464.38 -1.81526 2.54494 0
M  V30 15685 H 1463.6 0.245883 3.93432 0
M  V30 15686 H 1464.89 -0.150502 5.08577 0
M  V30 15687 H 1464.29 -3.29421 4.5989 0
M  V30 15688 H 1462.84 -3.47653 5.51344 0
M  V30 15689 N 1466.28 -1.53251 0.367684 0
M  V30 15690 C 1467.52 -2.01585 -0.221679 0
M  V30 15691 C 1467.85 -1.25444 -1.48248 0
M  V30 15692 O 1467.13 -0.348726 -1.91348 0
M  V30 15693 C 1467.41 -3.56449 -0.511507 0
M  V30 15694 C 1467.27 -4.4328 0.763075 0
M  V30 15695 C 1468.58 -4.20113 -1.31121 0
M  V30 15696 H 1465.7 -0.732743 -0.0790954 0
M  V30 15697 H 1468.35 -1.83493 0.492991 0
M  V30 15698 H 1466.5 -3.71996 -1.12033 0
M  V30 15699 H 1468.17 -4.39526 1.40052 0
M  V30 15700 H 1466.41 -4.11164 1.38299 0
M  V30 15701 H 1467.08 -5.4959 0.515215 0
M  V30 15702 H 1469.56 -4.08412 -0.796169 0
M  V30 15703 H 1468.43 -5.28494 -1.48274 0
M  V30 15704 H 1468.69 -3.76316 -2.32032 0
M  V30 15705 N 1467.75 -0.0969077 -1.57302 0
M  V30 15706 C 1468.69 0.898042 -2.09787 0
M  V30 15707 C 1469.66 1.27518 -1.00886 0
M  V30 15708 O 1470.85 1.3801 -1.28396 0
M  V30 15709 C 1467.98 2.19868 -2.57635 0
M  V30 15710 C 1467.02 1.97127 -3.7821 0
M  V30 15711 S 1467.85 1.20763 -5.21705 0
M  V30 15712 C 1469.01 2.52054 -5.72905 0
M  V30 15713 H 1469.24 0.451544 -2.93851 0
M  V30 15714 H 1466.78 0.116417 -1.5396 0
M  V30 15715 H 1468.73 2.9461 -2.85859 0
M  V30 15716 H 1467.4 2.61639 -1.73793 0
M  V30 15717 H 1466.59 2.93445 -4.09763 0
M  V30 15718 H 1466.19 1.30515 -3.50488 0
M  V30 15719 H 1468.48 3.4802 -5.81282 0
M  V30 15720 H 1469.43 2.25077 -6.71376 0
M  V30 15721 H 1469.83 2.6041 -5.00846 0
M  V30 15722 N 1469.23 1.56605 0.176793 0
M  V30 15723 C 1470.64 1.71418 0.739775 0
M  V30 15724 C 1470.99 0.706527 1.83037 0
M  V30 15725 O 1470.12 -0.133259 2.15989 0
M  V30 15726 C 1470.71 3.10799 1.34867 0
M  V30 15727 C 1469.27 3.27315 1.85854 0
M  V30 15728 C 1468.42 2.67371 0.73541 0
M  V30 15729 H 1471.37 1.58626 -0.0485305 0
M  V30 15730 H 1471.39 3.09146 2.21831 0
M  V30 15731 H 1470.9 3.84116 0.554688 0
M  V30 15732 H 1469 2.58947 2.67913 0
M  V30 15733 H 1469.12 4.35002 2.00774 0
M  V30 15734 H 1467.48 2.27035 1.15444 0
M  V30 15735 H 1468.26 3.43268 -0.0466351 0
M  V30 15736 N 1470.71 -0.445159 1.51182 0
M  V30 15737 C 1471.94 -1.21787 1.67259 0
M  V30 15738 C 1472.35 -1.85206 0.366641 0
M  V30 15739 O 1471.71 -1.70376 -0.654095 0
M  V30 15740 C 1471.76 -2.30765 2.78262 0
M  V30 15741 O 1471.48 -1.69942 4.03796 0
M  V30 15742 C 1472.98 -3.21186 3.05539 0
M  V30 15743 H 1470.2 -0.367364 0.561502 0
M  V30 15744 H 1472.75 -0.528415 1.97555 0
M  V30 15745 H 1470.9 -2.9544 2.50587 0
M  V30 15746 H 1471.32 -2.41905 4.65384 0
M  V30 15747 H 1472.79 -3.93805 3.8681 0
M  V30 15748 H 1473.27 -3.81487 2.17634 0
M  V30 15749 H 1473.87 -2.62221 3.34844 0
M  V30 15750 N 1472.19 -1.41197 -0.700089 0
M  V30 15751 C 1473.43 -1.40311 -1.46011 0
M  V30 15752 C 1473.76 -0.0106853 -1.94497 0
M  V30 15753 O 1473.02 0.976648 -1.69588 0
M  V30 15754 C 1473.32 -2.35259 -2.6905 0
M  V30 15755 C 1472.98 -3.82194 -2.39245 0
M  V30 15756 C 1471.64 -4.22223 -2.30827 0
M  V30 15757 C 1474 -4.74983 -2.1457 0
M  V30 15758 C 1471.32 -5.53055 -1.95824 0
M  V30 15759 C 1473.68 -6.0613 -1.81077 0
M  V30 15760 C 1472.34 -6.45185 -1.71151 0
M  V30 15761 H 1471.61 -0.513434 -0.534291 0
M  V30 15762 H 1474.26 -1.73963 -0.800574 0
M  V30 15763 H 1472.56 -1.94845 -3.39915 0
M  V30 15764 H 1474.26 -2.31849 -3.2718 0
M  V30 15765 H 1470.85 -3.50488 -2.4669 0
M  V30 15766 H 1475.03 -4.44864 -2.20021 0
M  V30 15767 H 1470.29 -5.822 -1.86689 0
M  V30 15768 H 1474.46 -6.77533 -1.61002 0
M  V30 15769 H 1472.09 -7.46476 -1.43796 0
M  V30 15770 N 1473.67 0.933891 -1.2695 0
M  V30 15771 C 1474.6 2.05078 -1.11649 0
M  V30 15772 C 1475.58 1.70089 -0.0196463 0
M  V30 15773 O 1476.76 1.93239 -0.193007 0
M  V30 15774 C 1473.89 3.38963 -0.756387 0
M  V30 15775 C 1472.85 3.88041 -1.80577 0
M  V30 15776 C 1472.17 5.18661 -1.2998 0
M  V30 15777 C 1473.47 4.12116 -3.2087 0
M  V30 15778 H 1475.17 2.18137 -2.05077 0
M  V30 15779 H 1472.71 1.04817 -0.987392 0
M  V30 15780 H 1474.66 4.1657 -0.63619 0
M  V30 15781 H 1473.39 3.25901 0.213607 0
M  V30 15782 H 1472.05 3.12622 -1.91477 0
M  V30 15783 H 1471.7 5.01985 -0.319442 0
M  V30 15784 H 1471.4 5.52467 -2.00134 0
M  V30 15785 H 1472.92 5.98844 -1.19242 0
M  V30 15786 H 1474.33 4.80312 -3.13006 0
M  V30 15787 H 1472.73 4.57218 -3.88679 0
M  V30 15788 H 1473.8 3.17633 -3.66384 0
M  V30 15789 N 1475.14 1.08871 1.13951 0
M  V30 15790 C 1476.09 0.71755 2.21255 0
M  V30 15791 C 1477.09 -0.278901 1.67088 0
M  V30 15792 O 1478.29 -0.140964 1.79447 0
M  V30 15793 H 1474.67 0.214032 0.720898 0
M  V30 15794 H 1476.64 1.63182 2.49828 0
M  V30 15795 C 1475.39 0.148098 3.47384 0
M  V30 15796 H 1474.71 0.906028 3.89398 0
M  V30 15797 H 1476.15 -0.0737451 4.23936 0
M  V30 15798 C 1474.61 -1.11524 3.17906 0
M  V30 15799 O 1475.14 -2.19937 3.3614 0
M  V30 15800 N 1473.34 -1.0275 2.71829 0
M  V30 15801 H 1472.89 -0.145193 2.5719 0
M  V30 15802 H 1472.85 -1.87353 2.5248 0
M  V30 15803 N 1476.62 -1.31073 0.875073 0
M  V30 15804 C 1477.87 -1.96809 0.489273 0
M  V30 15805 C 1478.2 -1.68979 -0.957073 0
M  V30 15806 O 1477.48 -0.989061 -1.67475 0
M  V30 15807 C 1477.76 -3.52139 0.752998 0
M  V30 15808 C 1477.61 -3.89524 2.24925 0
M  V30 15809 C 1478.93 -4.39535 0.222871 0
M  V30 15810 H 1476.05 -0.714873 0.179238 0
M  V30 15811 H 1478.69 -1.55114 1.09725 0
M  V30 15812 H 1476.84 -3.87785 0.23553 0
M  V30 15813 H 1478.51 -3.63953 2.83436 0
M  V30 15814 H 1476.76 -3.37948 2.71981 0
M  V30 15815 H 1477.43 -4.97845 2.38441 0
M  V30 15816 H 1479.9 -4.10741 0.665645 0
M  V30 15817 H 1478.78 -5.47159 0.436806 0
M  V30 15818 H 1479.04 -4.33346 -0.875445 0
M  V30 15819 N 1478.1 -0.635022 -1.4424 0
M  V30 15820 C 1479.35 -0.138497 -2.01224 0
M  V30 15821 C 1479.66 1.2485 -1.50571 0
M  V30 15822 O 1480.87 1.83926 -1.99709 0
M  V30 15823 C 1479.32 -0.196836 -3.59361 0
M  V30 15824 C 1478.93 -1.58539 -4.1901 0
M  V30 15825 C 1480.68 0.243025 -4.23804 0
M  V30 15826 C 1478.58 -1.59864 -5.69384 0
M  V30 15827 H 1477.51 -0.0480117 -0.75247 0
M  V30 15828 H 1480.16 -0.794391 -1.65414 0
M  V30 15829 H 1478.55 0.526231 -3.92488 0
M  V30 15830 H 1479.72 -2.33236 -3.97414 0
M  V30 15831 H 1478.04 -1.96967 -3.66869 0
M  V30 15832 H 1480.63 0.252717 -5.34102 0
M  V30 15833 H 1480.98 1.27107 -3.96421 0
M  V30 15834 H 1481.51 -0.427678 -3.95494 0
M  V30 15835 H 1478.25 -2.60518 -6.01507 0
M  V30 15836 H 1477.77 -0.894664 -5.9309 0
M  V30 15837 H 1479.45 -1.3343 -6.33092 0
M  V30 15838 N 1479.58 1.53054 -0.375806 0
M  V30 15839 C 1480.99 1.5958 -0.0251765 0
M  V30 15840 C 1481.19 1.39047 1.45836 0
M  V30 15841 O 1480.25 1.20073 2.22123 0
M  V30 15842 C 1481.56 2.96676 -0.490274 0
M  V30 15843 C 1483.11 3.09815 -0.44537 0
M  V30 15844 C 1483.59 4.4934 -0.886442 0
M  V30 15845 N 1485.08 4.55484 -0.84191 0
M  V30 15846 C 1485.81 5.61652 -1.15476 0
M  V30 15847 N 1485.31 6.75526 -1.53741 0
M  V30 15848 N 1487.1 5.51688 -1.07689 0
M  V30 15849 H 1479.25 1.64651 -1.34178 0
M  V30 15850 H 1481.52 0.77278 -0.549104 0
M  V30 15851 H 1481.22 3.16874 -1.52589 0
M  V30 15852 H 1481.1 3.77016 0.11776 0
M  V30 15853 H 1483.48 2.89321 0.581138 0
M  V30 15854 H 1483.56 2.3146 -1.08903 0
M  V30 15855 H 1483.21 4.70573 -1.91111 0
M  V30 15856 H 1483.14 5.26141 -0.219925 0
M  V30 15857 H 1485.63 3.73725 -0.56015 0
M  V30 15858 H 1485.94 7.52489 -1.76012 0
M  V30 15859 H 1484.29 6.76892 -1.57616 0
M  V30 15860 H 1487.48 4.61605 -0.777062 0
M  V30 15861 H 1487.65 6.34329 -1.32403 0
M  V30 15862 N 1481.06 0.105248 1.57248 0
M  V30 15863 C 1482.3 -0.556878 1.95004 0
M  V30 15864 C 1482.64 -1.672 0.987818 0
M  V30 15865 O 1481.91 -1.94487 0.022616 0
M  V30 15866 C 1482.19 -1.10252 3.42807 0
M  V30 15867 C 1482.05 0.00823908 4.49799 0
M  V30 15868 C 1483.37 -1.99774 3.92146 0
M  V30 15869 H 1480.48 -0.200959 0.709073 0
M  V30 15870 H 1483.13 0.178019 1.89164 0
M  V30 15871 H 1481.28 -1.7288 3.47915 0
M  V30 15872 H 1482.95 0.642944 4.56797 0
M  V30 15873 H 1481.19 0.673265 4.28544 0
M  V30 15874 H 1481.86 -0.414538 5.50441 0
M  V30 15875 H 1484.34 -1.47036 3.89255 0
M  V30 15876 H 1483.21 -2.34874 4.9611 0
M  V30 15877 H 1483.48 -2.91902 3.32033 0
M  V30 15878 N 1482.53 -1.56697 -0.168486 0
M  V30 15879 C 1483.77 -1.83952 -0.891116 0
M  V30 15880 C 1484.14 -0.68657 -1.79305 0
M  V30 15881 O 1485.34 -0.839644 -2.5535 0
M  V30 15882 C 1483.61 -3.16331 -1.66342 0
M  V30 15883 S 1485.17 -3.65077 -2.43442 0
M  V30 15884 H 1481.99 -0.645349 -0.298405 0
M  V30 15885 H 1484.59 -1.94904 -0.152554 0
M  V30 15886 H 1483.29 -3.98233 -0.991915 0
M  V30 15887 H 1482.82 -3.08328 -2.4433 0
M  V30 15888 H 1484.84 -3.32629 -3.68201 0
M  V30 15889 N 1484.01 0.437135 -1.51416 0
M  V30 15890 C 1485.29 1.1978 -1.54636 0
M  V30 15891 C 1485.67 2.088 -0.310747 0
M  V30 15892 O 1485.02 2.1738 0.704148 0
M  V30 15893 C 1485.23 1.99947 -2.86046 0
M  V30 15894 C 1486.58 2.56981 -3.38003 0
M  V30 15895 O 1487.6 2.10157 -2.87598 0
M  V30 15896 O 1486.46 3.42383 -4.25953 0
M  V30 15897 H 1483.55 0.545346 -0.621713 0
M  V30 15898 H 1486.1 0.446189 -1.63729 0
M  V30 15899 H 1484.87 1.34564 -3.67435 0
M  V30 15900 H 1484.49 2.82172 -2.80115 0
M  V30 15901 N 1485.49 1.41566 0.692592 0
M  V30 15902 C 1486.74 1.40805 1.44978 0
M  V30 15903 C 1487.06 0.0191039 1.94991 0
M  V30 15904 O 1486.33 -0.939544 1.71899 0
M  V30 15905 H 1484.91 0.518293 0.537942 0
M  V30 15906 H 1487.57 1.76831 0.81956 0
M  V30 15907 H 1486.67 2.09706 2.31149 0
M  V30 15908 N 1486.97 -0.927146 1.27443 0
M  V30 15909 C 1487.93 -2.00938 1.10257 0
M  V30 15910 C 1488.93 -1.60733 0.0463898 0
M  V30 15911 O 1490.12 -1.71752 0.291029 0
M  V30 15912 C 1487.25 -3.34047 0.680115 0
M  V30 15913 H 1488.45 -2.17615 2.06358 0
M  V30 15914 H 1486 -1.10802 1.10239 0
M  V30 15915 H 1486.73 -3.23069 -0.282259 0
M  V30 15916 H 1486.52 -3.64585 1.44291 0
M  V30 15917 H 1488.01 -4.13523 0.582126 0
M  V30 15918 N 1488.45 -1.09474 -1.13372 0
M  V30 15919 C 1489.7 -0.825968 -1.84013 0
M  V30 15920 C 1490.01 0.650623 -1.84462 0
M  V30 15921 O 1491.21 1.03495 -2.51 0
M  V30 15922 C 1489.67 -1.42769 -3.30371 0
M  V30 15923 C 1489.28 -2.93686 -3.38308 0
M  V30 15924 C 1491.02 -1.23788 -4.0605 0
M  V30 15925 C 1488.93 -3.46942 -4.78942 0
M  V30 15926 H 1487.86 -0.305322 -0.689416 0
M  V30 15927 H 1490.51 -1.31751 -1.27726 0
M  V30 15928 H 1488.89 -0.86384 -3.86463 0
M  V30 15929 H 1490.07 -3.56302 -2.92208 0
M  V30 15930 H 1488.38 -3.11706 -2.76094 0
M  V30 15931 H 1490.98 -1.61031 -5.09876 0
M  V30 15932 H 1491.32 -0.178578 -4.15917 0
M  V30 15933 H 1491.85 -1.76927 -3.56289 0
M  V30 15934 H 1488.59 -4.52495 -4.74267 0
M  V30 15935 H 1488.11 -2.8909 -5.25535 0
M  V30 15936 H 1489.79 -3.44176 -5.47861 0
M  V30 15937 N 1489.92 1.30607 -0.882012 0
M  V30 15938 C 1491.34 1.48859 -0.575599 0
M  V30 15939 C 1491.54 1.80908 0.887388 0
M  V30 15940 O 1490.6 1.89492 1.6688 0
M  V30 15941 C 1491.91 2.61405 -1.48619 0
M  V30 15942 C 1493.46 2.75286 -1.48951 0
M  V30 15943 C 1493.93 3.90942 -2.38596 0
M  V30 15944 N 1495.42 3.98248 -2.36543 0
M  V30 15945 C 1496.16 4.87041 -3.0262 0
M  V30 15946 N 1495.65 5.80651 -3.77911 0
M  V30 15947 N 1497.45 4.80385 -2.91867 0
M  V30 15948 H 1489.6 1.08076 -1.82848 0
M  V30 15949 H 1491.86 0.535148 -0.782509 0
M  V30 15950 H 1491.57 2.44535 -2.52775 0
M  V30 15951 H 1491.44 3.57818 -1.19358 0
M  V30 15952 H 1493.83 2.91564 -0.455477 0
M  V30 15953 H 1493.91 1.79504 -1.82242 0
M  V30 15954 H 1493.55 3.75422 -3.42083 0
M  V30 15955 H 1493.48 4.86057 -2.02623 0
M  V30 15956 H 1495.97 3.31282 -1.81827 0
M  V30 15957 H 1496.29 6.45159 -4.25428 0
M  V30 15958 H 1494.63 5.80592 -3.82019 0
M  V30 15959 H 1497.82 4.06234 -2.32576 0
M  V30 15960 H 1498 5.49377 -3.43641 0
M  V30 15961 N 1491.4 0.642663 1.43901 0
M  V30 15962 C 1492.31 -0.0562462 2.34533 0
M  V30 15963 C 1493.33 -0.823457 1.53281 0
M  V30 15964 O 1494.5 -0.773103 1.85971 0
M  V30 15965 C 1491.57 -1.01787 3.31422 0
M  V30 15966 C 1490.63 -0.248759 4.28579 0
M  V30 15967 C 1489.86 -1.16458 5.20839 0
M  V30 15968 O 1490.09 -2.40361 5.17284 0
M  V30 15969 O 1489.02 -0.642671 5.98459 0
M  V30 15970 H 1492.85 0.689476 2.9577 0
M  V30 15971 H 1490.43 0.402847 1.43866 0
M  V30 15972 H 1492.31 -1.5708 3.91029 0
M  V30 15973 H 1490.99 -1.744 2.72702 0
M  V30 15974 H 1489.9 0.347495 3.72483 0
M  V30 15975 H 1491.23 0.437589 4.90251 0
M  V30 15976 N 1492.88 -1.52852 0.383918 0
M  V30 15977 C 1494.13 -2.0151 -0.199989 0
M  V30 15978 C 1494.46 -1.27058 -1.47263 0
M  V30 15979 O 1493.71 -0.357819 -1.92401 0
M  V30 15980 C 1494.01 -3.53602 -0.519674 0
M  V30 15981 C 1493.68 -4.46032 0.660789 0
M  V30 15982 C 1492.34 -4.71018 0.984646 0
M  V30 15983 C 1494.69 -5.00602 1.45077 0
M  V30 15984 C 1492.02 -5.47824 2.10013 0
M  V30 15985 C 1494.37 -5.78627 2.55682 0
M  V30 15986 C 1493.03 -6.01894 2.88582 0
M  V30 15987 H 1492.3 -0.737377 -0.0731812 0
M  V30 15988 H 1494.95 -1.843 0.520157 0
M  V30 15989 H 1493.26 -3.68856 -1.32108 0
M  V30 15990 H 1494.95 -3.88739 -0.984011 0
M  V30 15991 H 1491.54 -4.26745 0.398359 0
M  V30 15992 H 1495.73 -4.81228 1.21381 0
M  V30 15993 H 1490.98 -5.64066 2.3588 0
M  V30 15994 H 1495.16 -6.19914 3.173 0
M  V30 15995 H 1492.78 -6.61192 3.75138 0
M  V30 15996 N 1494.36 -0.113586 -1.5719 0
M  V30 15997 C 1495.29 0.835363 -2.18046 0
M  V30 15998 C 1496.27 1.28114 -1.11897 0
M  V30 15999 O 1497.46 1.34472 -1.40111 0
M  V30 16000 C 1494.59 2.08759 -2.77556 0
M  V30 16001 C 1493.54 1.77979 -3.8924 0
M  V30 16002 C 1492.87 3.10185 -4.35533 0
M  V30 16003 C 1494.17 1.05231 -5.11589 0
M  V30 16004 H 1495.86 0.328275 -2.97595 0
M  V30 16005 H 1493.41 0.156456 -1.43148 0
M  V30 16006 H 1495.36 2.75597 -3.18785 0
M  V30 16007 H 1494.08 2.61783 -1.95288 0
M  V30 16008 H 1492.74 1.13532 -3.48577 0
M  V30 16009 H 1492.39 3.61133 -3.50131 0
M  V30 16010 H 1492.09 2.90367 -5.10843 0
M  V30 16011 H 1493.61 3.78151 -4.7941 0
M  V30 16012 H 1495.03 1.62213 -5.49872 0
M  V30 16013 H 1493.42 0.955269 -5.92448 0
M  V30 16014 H 1494.49 0.038137 -4.84885 0
M  V30 16015 N 1495.84 1.56784 0.160173 0
M  V30 16016 C 1497.08 1.82621 0.874982 0
M  V30 16017 C 1497.41 0.692427 1.81757 0
M  V30 16018 O 1496.67 -0.319535 1.93074 0
M  V30 16019 C 1496.97 3.14703 1.69402 0
M  V30 16020 C 1496.63 4.41839 0.899373 0
M  V30 16021 C 1495.29 4.7637 0.680099 0
M  V30 16022 C 1497.65 5.20072 0.342747 0
M  V30 16023 C 1494.97 5.86603 -0.106723 0
M  V30 16024 C 1497.33 6.3113 -0.431044 0
M  V30 16025 C 1495.99 6.64219 -0.661017 0
M  V30 16026 H 1495.26 0.668256 0.320178 0
M  V30 16027 H 1497.91 1.90993 0.139305 0
M  V30 16028 H 1496.21 3.01723 2.49941 0
M  V30 16029 H 1497.91 3.31906 2.25032 0
M  V30 16030 H 1494.5 4.14761 1.08033 0
M  V30 16031 H 1498.68 4.9378 0.499467 0
M  V30 16032 H 1493.94 6.1069 -0.294528 0
M  V30 16033 H 1498.11 6.9095 -0.869557 0
M  V30 16034 H 1495.74 7.49473 -1.27257 0
M  V30 16035 N 1497.32 -0.429099 1.51646 0
M  V30 16036 C 1498.25 -1.53996 1.69758 0
M  V30 16037 C 1499.26 -1.52189 0.578138 0
M  V30 16038 O 1500.45 -1.56816 0.852709 0
M  V30 16039 C 1497.55 -2.9291 1.7046 0
M  V30 16040 C 1496.72 -3.19132 2.99122 0
M  V30 16041 C 1495.78 -4.37813 2.91901 0
M  V30 16042 O 1494.81 -4.36065 3.65836 0
M  V30 16043 N 1496.01 -5.41834 2.08317 0
M  V30 16044 H 1498.77 -1.38861 2.65589 0
M  V30 16045 H 1496.34 -0.618148 1.49635 0
M  V30 16046 H 1498.33 -3.7034 1.63187 0
M  V30 16047 H 1496.9 -3.01602 0.821877 0
M  V30 16048 H 1496.12 -2.29926 3.20199 0
M  V30 16049 H 1497.41 -3.33483 3.84274 0
M  V30 16050 H 1496.8 -5.46094 1.4764 0
M  V30 16051 H 1495.36 -6.18085 2.06917 0
M  V30 16052 N 1498.79 -1.41931 -0.685074 0
M  V30 16053 C 1499.73 -1.40545 -1.81052 0
M  V30 16054 C 1500.74 -0.306024 -1.59898 0
M  V30 16055 O 1501.93 -0.568444 -1.69207 0
M  V30 16056 C 1499.03 -1.17194 -3.17992 0
M  V30 16057 C 1498.2 -2.39376 -3.66084 0
M  V30 16058 C 1497.26 -2.11725 -4.81725 0
M  V30 16059 O 1496.29 -2.84847 -4.92799 0
M  V30 16060 N 1497.49 -1.11399 -5.69711 0
M  V30 16061 H 1500.25 -2.37549 -1.8273 0
M  V30 16062 H 1497.81 -1.36679 -0.86779 0
M  V30 16063 H 1499.81 -0.966307 -3.92994 0
M  V30 16064 H 1498.38 -0.287499 -3.11275 0
M  V30 16065 H 1497.6 -2.75575 -2.81873 0
M  V30 16066 H 1498.88 -3.2076 -3.94956 0
M  V30 16067 H 1498.28 -0.509008 -5.63405 0
M  V30 16068 H 1496.84 -0.968239 -6.44568 0
M  V30 16069 N 1500.27 0.920374 -1.27933 0
M  V30 16070 C 1501.2 2.03882 -1.13817 0
M  V30 16071 C 1502.18 1.70058 -0.0376853 0
M  V30 16072 O 1503.37 1.93023 -0.213492 0
M  V30 16073 C 1500.5 3.38142 -0.792296 0
M  V30 16074 C 1499.45 3.86104 -1.84683 0
M  V30 16075 C 1498.78 5.17253 -1.35474 0
M  V30 16076 C 1500.08 4.0869 -3.25223 0
M  V30 16077 H 1501.77 2.15949 -2.07379 0
M  V30 16078 H 1499.32 1.03764 -0.998454 0
M  V30 16079 H 1501.27 4.15872 -0.680337 0
M  V30 16080 H 1499.99 3.26109 0.179029 0
M  V30 16081 H 1498.65 3.10573 -1.94782 0
M  V30 16082 H 1498.3 5.01618 -0.372666 0
M  V30 16083 H 1498 5.50314 -2.05982 0
M  V30 16084 H 1499.53 5.97545 -1.25587 0
M  V30 16085 H 1500.94 4.76965 -3.18083 0
M  V30 16086 H 1499.34 4.5307 -3.93507 0
M  V30 16087 H 1500.41 3.13729 -3.69733 0
M  V30 16088 N 1501.75 1.10074 1.1279 0
M  V30 16089 C 1503 0.839212 1.83852 0
M  V30 16090 C 1503.32 -0.637023 1.84301 0
M  V30 16091 O 1502.59 -1.46239 1.30349 0
M  V30 16092 H 1501.17 0.307468 0.680788 0
M  V30 16093 H 1503.83 1.39025 1.36595 0
M  V30 16094 H 1502.93 1.19872 2.88162 0
M  V30 16095 N 1503.23 -1.30138 0.888926 0
M  V30 16096 C 1504.16 -2.26177 0.303221 0
M  V30 16097 C 1505.14 -1.51962 -0.578471 0
M  V30 16098 O 1506.32 -1.80963 -0.527685 0
M  V30 16099 C 1503.45 -3.3389 -0.568783 0
M  V30 16100 C 1502.5 -4.25801 0.24412 0
M  V30 16101 S 1503.33 -5.09931 1.63496 0
M  V30 16102 C 1504.48 -6.21151 0.76959 0
M  V30 16103 H 1504.72 -2.75507 1.11728 0
M  V30 16104 H 1502.25 -1.38195 0.688594 0
M  V30 16105 H 1504.21 -3.96413 -1.06614 0
M  V30 16106 H 1502.87 -2.83276 -1.35697 0
M  V30 16107 H 1502.06 -5.02234 -0.42151 0
M  V30 16108 H 1501.66 -3.67872 0.67424 0
M  V30 16109 H 1503.96 -6.77499 -0.0117256 0
M  V30 16110 H 1504.9 -6.91907 1.50566 0
M  V30 16111 H 1505.31 -5.63542 0.328744 0
M  V30 16112 N 1504.71 -0.650285 -1.43559 0
M  V30 16113 C 1505.64 0.0295939 -2.33481 0
M  V30 16114 C 1506.62 0.815017 -1.49303 0
M  V30 16115 O 1507.8 0.77708 -1.77975 0
M  V30 16116 C 1504.93 0.998683 -3.32631 0
M  V30 16117 C 1503.89 0.323577 -4.26775 0
M  V30 16118 C 1503.21 1.40391 -5.1594 0
M  V30 16119 C 1504.51 -0.782197 -5.1641 0
M  V30 16120 H 1506.21 -0.721349 -2.9058 0
M  V30 16121 H 1503.75 -0.348339 -1.39723 0
M  V30 16122 H 1505.7 1.4832 -3.94435 0
M  V30 16123 H 1504.43 1.78075 -2.73782 0
M  V30 16124 H 1503.09 -0.140467 -3.66331 0
M  V30 16125 H 1502.74 2.17734 -4.53432 0
M  V30 16126 H 1502.44 0.957462 -5.79747 0
M  V30 16127 H 1503.96 1.88985 -5.80618 0
M  V30 16128 H 1505.37 -0.379966 -5.72039 0
M  V30 16129 H 1503.77 -1.15293 -5.88921 0
M  V30 16130 H 1504.84 -1.6414 -4.56274 0
M  V30 16131 N 1506.18 1.52647 -0.392018 0
M  V30 16132 C 1507.43 2.01912 0.18958 0
M  V30 16133 C 1507.76 1.27786 1.46234 0
M  V30 16134 O 1507.04 0.379124 1.90769 0
M  V30 16135 C 1507.32 3.57217 0.454734 0
M  V30 16136 C 1507.17 4.4201 -0.833501 0
M  V30 16137 C 1508.49 4.22146 1.24421 0
M  V30 16138 H 1505.61 0.733909 0.0674281 0
M  V30 16139 H 1508.25 1.82685 -0.52212 0
M  V30 16140 H 1506.4 3.73731 1.06101 0
M  V30 16141 H 1508.08 4.37242 -1.47027 0
M  V30 16142 H 1506.32 4.08912 -1.44823 0
M  V30 16143 H 1506.99 5.48701 -0.602585 0
M  V30 16144 H 1509.47 4.09627 0.731093 0
M  V30 16145 H 1508.34 5.30786 1.39848 0
M  V30 16146 H 1508.6 3.7996 2.26016 0
M  V30 16147 N 1507.66 0.121921 1.57128 0
M  V30 16148 C 1508.89 -0.546325 2.00075 0
M  V30 16149 C 1509.31 -1.59245 1.00113 0
M  V30 16150 O 1508.67 -1.8128 -0.0267687 0
M  V30 16151 C 1508.72 -1.14651 3.41888 0
M  V30 16152 O 1507.82 -2.26199 3.4483 0
M  V30 16153 H 1507.16 -0.136184 0.649885 0
M  V30 16154 H 1509.69 0.211257 2.03506 0
M  V30 16155 H 1509.7 -1.48133 3.80159 0
M  V30 16156 H 1508.38 -0.380273 4.14158 0
M  V30 16157 H 1506.96 -1.94134 3.18381 0
M  V30 16158 N 1509.14 -1.56867 -0.151857 0
M  V30 16159 C 1510.39 -1.83082 -0.865285 0
M  V30 16160 C 1510.72 -0.702056 -1.81387 0
M  V30 16161 O 1509.97 0.309291 -1.9324 0
M  V30 16162 C 1510.27 -3.15597 -1.6773 0
M  V30 16163 C 1509.94 -4.4231 -0.875929 0
M  V30 16164 C 1508.6 -4.76724 -0.654826 0
M  V30 16165 C 1510.95 -5.20246 -0.315162 0
M  V30 16166 C 1508.28 -5.86538 0.13783 0
M  V30 16167 C 1510.63 -6.30892 0.464508 0
M  V30 16168 C 1509.29 -6.63859 0.696233 0
M  V30 16169 H 1508.56 -0.669945 -0.31663 0
M  V30 16170 H 1511.21 -1.91064 -0.129175 0
M  V30 16171 H 1509.52 -3.03044 -2.48338 0
M  V30 16172 H 1511.21 -3.33094 -2.23269 0
M  V30 16173 H 1507.8 -4.15328 -1.05832 0
M  V30 16174 H 1511.99 -4.94038 -0.473273 0
M  V30 16175 H 1507.24 -6.10525 0.32691 0
M  V30 16176 H 1511.42 -6.90479 0.906187 0
M  V30 16177 H 1509.04 -7.48788 1.3123 0
M  V30 16178 N 1510.62 0.421051 -1.51871 0
M  V30 16179 C 1511.86 1.17082 -1.65589 0
M  V30 16180 C 1512.2 1.90469 -0.378861 0
M  V30 16181 O 1511.47 1.84277 0.622259 0
M  V30 16182 C 1511.76 2.17483 -2.87007 0
M  V30 16183 C 1511.61 1.48071 -4.24729 0
M  V30 16184 C 1512.93 3.18288 -3.03942 0
M  V30 16185 H 1510.05 0.424284 -0.602621 0
M  V30 16186 H 1512.69 0.457998 -1.84397 0
M  V30 16187 H 1510.84 2.78273 -2.71102 0
M  V30 16188 H 1512.51 0.904926 -4.52337 0
M  V30 16189 H 1510.75 0.782814 -4.26678 0
M  V30 16190 H 1511.42 2.21272 -5.0571 0
M  V30 16191 H 1513.9 2.67565 -3.18666 0
M  V30 16192 H 1512.78 3.85815 -3.90433 0
M  V30 16193 H 1513.04 3.85333 -2.16728 0
M  V30 16194 N 1512.1 1.42293 0.677538 0
M  V30 16195 C 1513.04 1.45556 1.79114 0
M  V30 16196 C 1514.01 0.307826 1.63223 0
M  V30 16197 O 1515.2 0.511504 1.83816 0
M  V30 16198 C 1512.34 1.36104 3.17127 0
M  V30 16199 C 1511.45 2.60891 3.44325 0
M  V30 16200 C 1510.59 2.43601 4.72051 0
M  V30 16201 C 1509.63 3.63775 4.92274 0
M  V30 16202 N 1508.76 3.45444 6.11239 0
M  V30 16203 H 1513.6 2.40723 1.7566 0
M  V30 16204 H 1511.14 1.19517 0.857565 0
M  V30 16205 H 1513.1 1.28622 3.96878 0
M  V30 16206 H 1511.73 0.445342 3.19713 0
M  V30 16207 H 1510.78 2.78751 2.58848 0
M  V30 16208 H 1512.09 3.50229 3.55163 0
M  V30 16209 H 1511.25 2.33689 5.59888 0
M  V30 16210 H 1509.98 1.51748 4.63491 0
M  V30 16211 H 1508.99 3.74122 4.0288 0
M  V30 16212 H 1510.21 4.56605 5.02681 0
M  V30 16213 H 1508.16 2.56306 6.03857 0
M  V30 16214 H 1508.08 4.28368 6.22926 0
M  V30 16215 H 1509.35 3.39339 7.01762 0
M  V30 16216 N 1513.57 -0.913576 1.28419 0
M  V30 16217 C 1514.8 -1.70178 1.18551 0
M  V30 16218 C 1515.22 -1.864 -0.252307 0
M  V30 16219 O 1514.58 -1.37427 -1.18252 0
M  V30 16220 C 1514.63 -3.07145 1.8893 0
M  V30 16221 O 1513.73 -3.9465 1.19688 0
M  V30 16222 H 1513.08 -0.521092 0.411533 0
M  V30 16223 H 1515.61 -1.14228 1.69744 0
M  V30 16224 H 1515.62 -3.57375 1.96843 0
M  V30 16225 H 1514.29 -2.94655 2.93515 0
M  V30 16226 H 1512.87 -3.53085 1.19939 0
M  V30 16227 N 1515.05 -1.1067 -1.12204 0
M  V30 16228 C 1516 -0.726979 -2.161 0
M  V30 16229 C 1516.99 0.26505 -1.58702 0
M  V30 16230 O 1518.18 0.0734052 -1.76848 0
M  V30 16231 C 1515.31 -0.163062 -3.42913 0
M  V30 16232 C 1514.39 -1.18228 -4.07287 0
M  V30 16233 N 1514.78 -2.3738 -4.46637 0
M  V30 16234 C 1513.08 -1.02336 -4.34101 0
M  V30 16235 C 1513.78 -3.02318 -4.9697 0
M  V30 16236 N 1512.76 -2.29826 -4.92627 0
M  V30 16237 H 1516.56 -1.63396 -2.44293 0
M  V30 16238 H 1514.08 -0.984782 -1.29135 0
M  V30 16239 H 1516.07 0.127067 -4.16706 0
M  V30 16240 H 1514.73 0.738611 -3.16188 0
M  V30 16241 H 1515.74 -2.74889 -4.38926 0
M  V30 16242 H 1512.42 -0.177452 -4.17123 0
M  V30 16243 H 1513.81 -4.03685 -5.3711 0
M  V30 16244 N 1516.53 1.29665 -0.895815 0
M  V30 16245 C 1517.78 1.94995 -0.515749 0
M  V30 16246 C 1518.09 1.71427 0.94192 0
M  V30 16247 O 1519.3 2.3083 1.42933 0
M  V30 16248 C 1517.75 3.4919 -0.871468 0
M  V30 16249 C 1517.36 3.81562 -2.34764 0
M  V30 16250 C 1519.11 4.20775 -0.561123 0
M  V30 16251 C 1517.01 5.28984 -2.64442 0
M  V30 16252 H 1515.94 0.729889 -0.189151 0
M  V30 16253 H 1518.59 1.4745 -1.09228 0
M  V30 16254 H 1516.98 3.95366 -0.223908 0
M  V30 16255 H 1518.15 3.46258 -3.04043 0
M  V30 16256 H 1516.47 3.23107 -2.62661 0
M  V30 16257 H 1519.06 5.29275 -0.759755 0
M  V30 16258 H 1519.41 4.13285 0.500129 0
M  V30 16259 H 1519.94 3.80317 -1.16635 0
M  V30 16260 H 1516.68 5.41535 -3.69351 0
M  V30 16261 H 1516.2 5.6555 -1.99784 0
M  V30 16262 H 1517.88 5.96536 -2.50506 0
M  V30 16263 N 1518.01 0.657889 1.43212 0
M  V30 16264 C 1519.42 0.325876 1.56238 0
M  V30 16265 C 1519.62 -1.16975 1.6407 0
M  V30 16266 O 1518.68 -1.95473 1.59833 0
M  V30 16267 C 1519.99 1.04134 2.82093 0
M  V30 16268 C 1521.54 1.02204 2.95844 0
M  V30 16269 C 1522.02 1.71849 4.24537 0
M  V30 16270 N 1523.51 1.68635 4.31412 0
M  V30 16271 C 1524.24 2.19393 5.29768 0
M  V30 16272 N 1523.74 2.7846 6.34375 0
M  V30 16273 N 1525.53 2.09866 5.21452 0
M  V30 16274 H 1517.68 1.62839 1.36371 0
M  V30 16275 H 1519.95 0.685072 0.655271 0
M  V30 16276 H 1519.65 2.09647 2.82385 0
M  V30 16277 H 1519.53 0.595842 3.72464 0
M  V30 16278 H 1521.91 -0.0247029 2.9509 0
M  V30 16279 H 1521.99 1.50627 2.06749 0
M  V30 16280 H 1521.64 2.76482 4.26052 0
M  V30 16281 H 1521.57 1.20888 5.12536 0
M  V30 16282 H 1524.06 1.25536 3.56439 0
M  V30 16283 H 1524.37 3.14855 7.05752 0
M  V30 16284 H 1522.72 2.82523 6.34985 0
M  V30 16285 H 1525.91 1.63422 4.38647 0
M  V30 16286 H 1526.08 2.49732 5.97945 0
M  V30 16287 N 1519.49 -1.52437 0.400108 0
M  V30 16288 C 1520.9 -1.86563 -0.0715162 0
M  V30 16289 C 1521.25 -1.3193 -1.4522 0
M  V30 16290 O 1520.37 -0.654955 -2.06251 0
M  V30 16291 C 1520.97 -3.38525 -0.13655 0
M  V30 16292 C 1519.53 -3.72323 -0.55249 0
M  V30 16293 C 1518.67 -2.75896 0.278729 0
M  V30 16294 H 1521.63 -1.46192 0.617547 0
M  V30 16295 H 1521.65 -3.68357 -0.953588 0
M  V30 16296 H 1521.16 -3.78258 0.868468 0
M  V30 16297 H 1519.26 -3.38164 -1.56448 0
M  V30 16298 H 1519.37 -4.7814 -0.303139 0
M  V30 16299 H 1517.74 -2.53394 -0.257608 0
M  V30 16300 H 1518.52 -3.18467 1.28193 0
M  V30 16301 N 1520.96 -0.130252 -1.57061 0
M  V30 16302 C 1522.19 0.531644 -1.99642 0
M  V30 16303 C 1522.6 1.60045 -1.00907 0
M  V30 16304 O 1521.95 1.83699 0.00452296 0
M  V30 16305 C 1522.01 1.20654 -3.38649 0
M  V30 16306 C 1521.67 0.284337 -4.56115 0
M  V30 16307 C 1522.67 -0.481472 -5.17666 0
M  V30 16308 C 1520.35 0.192125 -5.01932 0
M  V30 16309 C 1522.35 -1.32711 -6.23431 0
M  V30 16310 C 1520.03 -0.657135 -6.07557 0
M  V30 16311 C 1521.03 -1.41537 -6.68174 0
M  V30 16312 O 1520.72 -2.25051 -7.71756 0
M  V30 16313 H 1520.45 0.144394 -0.660399 0
M  V30 16314 H 1523.01 -0.216789 -2.04253 0
M  V30 16315 H 1521.24 2.00227 -3.30826 0
M  V30 16316 H 1522.93 1.76647 -3.65446 0
M  V30 16317 H 1523.69 -0.420169 -4.83177 0
M  V30 16318 H 1519.57 0.772017 -4.5449 0
M  V30 16319 H 1523.11 -1.91942 -6.70674 0
M  V30 16320 H 1519.01 -0.719791 -6.41474 0
M  V30 16321 H 1519.78 -2.18116 -7.88903 0
M  V30 16322 N 1522.44 1.56945 0.143535 0
M  V30 16323 C 1523.38 1.93682 1.20675 0
M  V30 16324 C 1524.35 0.803117 1.41382 0
M  V30 16325 O 1525.54 1.05905 1.55937 0
M  V30 16326 C 1522.67 2.21185 2.56505 0
M  V30 16327 C 1521.71 3.43817 2.52372 0
M  V30 16328 S 1522.54 4.9726 1.98728 0
M  V30 16329 C 1523.7 5.27889 3.3628 0
M  V30 16330 H 1523.93 2.83561 0.893345 0
M  V30 16331 H 1521.47 1.50397 0.349294 0
M  V30 16332 H 1523.42 2.3771 3.3467 0
M  V30 16333 H 1522.09 1.31964 2.85034 0
M  V30 16334 H 1521.28 3.60349 3.5237 0
M  V30 16335 H 1520.88 3.26552 1.82318 0
M  V30 16336 H 1523.17 5.21568 4.32404 0
M  V30 16337 H 1524.12 6.29318 3.24598 0
M  V30 16338 H 1524.52 4.55398 3.33576 0
M  V30 16339 N 1523.92 -0.412991 1.52093 0
M  V30 16340 C 1525.2 -1.17304 1.56522 0
M  V30 16341 C 1525.58 -2.0828 0.343926 0
M  V30 16342 O 1524.93 -2.18473 -0.669475 0
M  V30 16343 C 1525.14 -1.95371 2.89191 0
M  V30 16344 C 1526.48 -2.51571 3.42048 0
M  V30 16345 O 1527.51 -2.05555 2.90905 0
M  V30 16346 O 1526.37 -3.35563 4.31347 0
M  V30 16347 H 1523.46 -0.535386 0.63031 0
M  V30 16348 H 1526.01 -0.420084 1.64418 0
M  V30 16349 H 1524.78 -1.28701 3.69529 0
M  V30 16350 H 1524.4 -2.7768 2.84569 0
M  V30 16351 N 1525.4 -1.4265 -0.669982 0
M  V30 16352 C 1526.31 -1.48916 -1.81276 0
M  V30 16353 C 1527.33 -0.377523 -1.69855 0
M  V30 16354 O 1528.5 -0.629151 -1.91321 0
M  V30 16355 C 1525.57 -1.39376 -3.17451 0
M  V30 16356 C 1524.63 -2.61072 -3.40793 0
M  V30 16357 C 1523.86 -2.51976 -4.70472 0
M  V30 16358 O 1524.08 -1.55827 -5.48702 0
M  V30 16359 O 1523.02 -3.42193 -4.95164 0
M  V30 16360 H 1526.84 -2.45382 -1.78945 0
M  V30 16361 H 1524.43 -1.24467 -0.826342 0
M  V30 16362 H 1526.31 -1.36435 -3.98702 0
M  V30 16363 H 1524.99 -0.460376 -3.20409 0
M  V30 16364 H 1523.89 -2.69587 -2.59372 0
M  V30 16365 H 1525.23 -3.53325 -3.42669 0
M  V30 16366 N 1526.88 0.906753 -1.28902 0
M  V30 16367 C 1528.13 1.65119 -1.15839 0
M  V30 16368 C 1528.44 1.93426 0.290825 0
M  V30 16369 O 1529.65 2.66021 0.542678 0
M  V30 16370 C 1528.1 2.97492 -2.0255 0
M  V30 16371 C 1527.71 2.76807 -3.52253 0
M  V30 16372 C 1529.45 3.75393 -1.98192 0
M  V30 16373 C 1527.36 4.04863 -4.31091 0
M  V30 16374 H 1526.29 0.619409 -0.429939 0
M  V30 16375 H 1528.94 1.00567 -1.53488 0
M  V30 16376 H 1527.32 3.63217 -1.57763 0
M  V30 16377 H 1528.5 2.19719 -4.05044 0
M  V30 16378 H 1526.81 2.1231 -3.58209 0
M  V30 16379 H 1529.41 4.70325 -2.54358 0
M  V30 16380 H 1529.75 4.05074 -0.960267 0
M  V30 16381 H 1530.29 3.16498 -2.40985 0
M  V30 16382 H 1527.02 3.80353 -5.33865 0
M  V30 16383 H 1526.54 4.61537 -3.83072 0
M  V30 16384 H 1528.22 4.73066 -4.41381 0
M  V30 16385 N 1528.36 1.11264 1.11616 0
M  V30 16386 C 1529.6 0.861639 1.83585 0
M  V30 16387 C 1529.93 -0.611221 1.8433 0
M  V30 16388 O 1529.21 -1.45116 1.29505 0
M  V30 16389 C 1529.49 1.42157 3.30852 0
M  V30 16390 C 1529.35 2.96192 3.38512 0
M  V30 16391 C 1530.66 1.07099 4.2687 0
M  V30 16392 H 1527.78 0.314464 0.666545 0
M  V30 16393 H 1530.43 1.37722 1.30892 0
M  V30 16394 H 1528.58 0.983054 3.75857 0
M  V30 16395 H 1530.25 3.48634 3.0208 0
M  V30 16396 H 1528.49 3.32353 2.7879 0
M  V30 16397 H 1529.16 3.30457 4.42156 0
M  V30 16398 H 1531.64 1.44952 3.90036 0
M  V30 16399 H 1530.51 1.48957 5.28302 0
M  V30 16400 H 1530.77 -0.018482 4.42096 0
M  V30 16401 N 1529.83 -1.29188 0.902679 0
M  V30 16402 C 1531.06 -1.99576 0.545635 0
M  V30 16403 C 1531.48 -1.67541 -0.870372 0
M  V30 16404 O 1530.83 -0.922082 -1.57493 0
M  V30 16405 C 1530.88 -3.54013 0.731916 0
M  V30 16406 O 1530.61 -3.84914 2.09219 0
M  V30 16407 C 1532.11 -4.41666 0.38022 0
M  V30 16408 H 1529.33 -0.637593 0.209083 0
M  V30 16409 H 1531.87 -1.64652 1.21284 0
M  V30 16410 H 1530.03 -3.87239 0.111849 0
M  V30 16411 H 1530.44 -4.79581 2.12373 0
M  V30 16412 H 1531.91 -5.49138 0.561382 0
M  V30 16413 H 1532.39 -4.33858 -0.682915 0
M  V30 16414 H 1533 -4.13918 0.977354 0
M  V30 16415 N 1531.31 -0.665475 -1.42861 0
M  V30 16416 C 1532.24 0.00482845 -2.335 0
M  V30 16417 C 1533.22 0.799135 -1.50159 0
M  V30 16418 O 1534.41 0.75816 -1.78789 0
M  V30 16419 C 1531.54 0.963347 -3.33672 0
M  V30 16420 C 1530.49 0.278294 -4.27094 0
M  V30 16421 C 1529.82 1.34911 -5.174 0
M  V30 16422 C 1531.12 -0.836925 -5.15551 0
M  V30 16423 H 1532.81 -0.752129 -2.89799 0
M  V30 16424 H 1530.36 -0.363139 -1.39346 0
M  V30 16425 H 1532.31 1.44128 -3.95986 0
M  V30 16426 H 1531.03 1.75161 -2.75656 0
M  V30 16427 H 1529.69 -0.179314 -3.66161 0
M  V30 16428 H 1529.34 2.12912 -4.55716 0
M  V30 16429 H 1529.04 0.895919 -5.8073 0
M  V30 16430 H 1530.57 1.82816 -5.8259 0
M  V30 16431 H 1531.98 -0.440617 -5.71604 0
M  V30 16432 H 1530.38 -1.21533 -5.87665 0
M  V30 16433 H 1531.45 -1.6897 -4.54507 0
M  V30 16434 N 1532.79 1.52222 -0.408187 0
M  V30 16435 C 1533.72 2.23468 0.462332 0
M  V30 16436 C 1534.7 1.24257 1.04876 0
M  V30 16437 O 1535.88 1.53305 1.0968 0
M  V30 16438 C 1533.01 2.96256 1.64165 0
M  V30 16439 C 1532.06 4.09889 1.1787 0
M  V30 16440 S 1532.89 5.35305 0.144629 0
M  V30 16441 C 1534.05 6.11621 1.3293 0
M  V30 16442 H 1534.28 2.96958 -0.142615 0
M  V30 16443 H 1531.81 1.53196 -0.19248 0
M  V30 16444 H 1533.77 3.38798 2.3179 0
M  V30 16445 H 1532.43 2.2241 2.21794 0
M  V30 16446 H 1531.62 4.59989 2.05977 0
M  V30 16447 H 1531.23 3.69458 0.581119 0
M  V30 16448 H 1533.52 6.38939 2.25306 0
M  V30 16449 H 1534.46 7.02749 0.86885 0
M  V30 16450 H 1534.87 5.4267 1.55466 0
M  V30 16451 N 1534.27 0.138579 1.5699 0
M  V30 16452 C 1535.68 -0.217898 1.58106 0
M  V30 16453 C 1535.88 -1.65293 1.15241 0
M  V30 16454 O 1534.94 -2.37805 0.848815 0
M  V30 16455 C 1536.25 0.033211 3.00682 0
M  V30 16456 C 1537.8 -0.0311593 3.12984 0
M  V30 16457 C 1538.28 0.192508 4.57595 0
M  V30 16458 N 1539.77 0.139147 4.62991 0
M  V30 16459 C 1540.5 0.286837 5.72682 0
M  V30 16460 N 1540 0.491784 6.91052 0
M  V30 16461 N 1541.79 0.225032 5.61649 0
M  V30 16462 H 1533.94 1.07567 1.83148 0
M  V30 16463 H 1536.2 0.425143 0.847324 0
M  V30 16464 H 1535.91 1.02605 3.364 0
M  V30 16465 H 1535.78 -0.689972 3.70836 0
M  V30 16466 H 1538.17 -1.01454 2.77112 0
M  V30 16467 H 1538.25 0.724219 2.45334 0
M  V30 16468 H 1537.9 1.17295 4.9417 0
M  V30 16469 H 1537.83 -0.583092 5.23362 0
M  V30 16470 H 1540.32 -0.0149467 3.77897 0
M  V30 16471 H 1540.63 0.594813 7.70508 0
M  V30 16472 H 1538.98 0.528002 6.92991 0
M  V30 16473 H 1542.17 0.0657415 4.68054 0
M  V30 16474 H 1542.34 0.343569 6.47089 0
M  V30 16475 N 1535.75 -1.57019 -0.13521 0
M  V30 16476 C 1536.66 -2.02427 -1.18578 0
M  V30 16477 C 1537.67 -0.941738 -1.46312 0
M  V30 16478 O 1538.85 -1.25208 -1.57749 0
M  V30 16479 C 1535.91 -2.40577 -2.49647 0
M  V30 16480 C 1534.97 -3.62835 -2.29455 0
M  V30 16481 C 1534.21 -3.99156 -3.54274 0
M  V30 16482 O 1534.43 -3.36001 -4.60933 0
M  V30 16483 O 1533.36 -4.92345 -3.46238 0
M  V30 16484 H 1537.19 -2.92131 -0.830237 0
M  V30 16485 H 1534.77 -1.45366 -0.344814 0
M  V30 16486 H 1536.66 -2.65922 -3.269 0
M  V30 16487 H 1535.33 -1.54023 -2.84708 0
M  V30 16488 H 1534.24 -3.42661 -1.50114 0
M  V30 16489 H 1535.57 -4.50043 -1.99305 0
M  V30 16490 N 1537.22 0.404919 -1.52309 0
M  V30 16491 C 1538.47 1.15148 -1.66575 0
M  V30 16492 C 1538.8 1.9039 -0.397754 0
M  V30 16493 O 1538.05 1.85639 0.619407 0
M  V30 16494 C 1538.35 2.16817 -2.84121 0
M  V30 16495 C 1538.02 1.58352 -4.22179 0
M  V30 16496 C 1536.68 1.42132 -4.5973 0
M  V30 16497 C 1539.03 1.15695 -5.08197 0
M  V30 16498 C 1536.36 0.817785 -5.80973 0
M  V30 16499 C 1538.71 0.56758 -6.30049 0
M  V30 16500 C 1537.38 0.392547 -6.66345 0
M  V30 16501 H 1536.65 0.421357 -0.60954 0
M  V30 16502 H 1539.29 0.438148 -1.8642 0
M  V30 16503 H 1537.6 2.94311 -2.58628 0
M  V30 16504 H 1539.3 2.74463 -2.92355 0
M  V30 16505 H 1535.89 1.71961 -3.92591 0
M  V30 16506 H 1540.07 1.27034 -4.79767 0
M  V30 16507 H 1535.33 0.670228 -6.07715 0
M  V30 16508 H 1539.5 0.228674 -6.96024 0
M  V30 16509 H 1537.13 -0.0772156 -7.60161 0
M  V30 16510 N 1538.7 1.43003 0.662408 0
M  V30 16511 C 1539.95 1.45344 1.42291 0
M  V30 16512 C 1540.3 0.0731138 1.92261 0
M  V30 16513 O 1539.6 -0.90677 1.68785 0
M  V30 16514 C 1539.79 2.4231 2.62718 0
M  V30 16515 C 1539.62 3.89634 2.24533 0
M  V30 16516 C 1538.39 4.58074 2.13299 0
M  V30 16517 C 1540.59 4.79721 1.85397 0
M  V30 16518 N 1538.57 5.90366 1.68348 0
M  V30 16519 C 1539.94 6.01216 1.51459 0
M  V30 16520 C 1542 4.67064 1.72498 0
M  V30 16521 C 1540.7 7.11459 1.05916 0
M  V30 16522 C 1542.72 5.77302 1.2836 0
M  V30 16523 C 1542.09 6.97916 0.953542 0
M  V30 16524 H 1538.19 0.58699 0.516688 0
M  V30 16525 H 1540.77 1.79119 0.763191 0
M  V30 16526 H 1538.94 2.10576 3.26362 0
M  V30 16527 H 1540.67 2.35148 3.29374 0
M  V30 16528 H 1537.43 4.12453 2.32764 0
M  V30 16529 H 1537.85 6.60566 1.48261 0
M  V30 16530 H 1542.49 3.7428 1.96659 0
M  V30 16531 H 1540.21 8.0408 0.805035 0
M  V30 16532 H 1543.8 5.69524 1.18883 0
M  V30 16533 H 1542.68 7.81767 0.617203 0
M  V30 16534 N 1540.18 -0.899904 1.29381 0
M  V30 16535 C 1541.43 -1.65282 1.17515 0
M  V30 16536 C 1541.76 -1.92275 -0.272788 0
M  V30 16537 O 1541.03 -1.53303 -1.19701 0
M  V30 16538 C 1541.32 -3.00207 1.98867 0
M  V30 16539 C 1541.17 -2.80281 3.51799 0
M  V30 16540 C 1542.49 -4.00936 1.81489 0
M  V30 16541 H 1539.61 -0.5998 0.428263 0
M  V30 16542 H 1542.25 -1.04241 1.58852 0
M  V30 16543 H 1540.4 -3.52308 1.63741 0
M  V30 16544 H 1542.07 -2.35082 3.96905 0
M  V30 16545 H 1540.32 -2.15068 3.76733 0
M  V30 16546 H 1540.99 -3.76155 4.03994 0
M  V30 16547 H 1543.46 -3.57944 2.12169 0
M  V30 16548 H 1542.34 -4.9328 2.4076 0
M  V30 16549 H 1542.6 -4.35342 0.770021 0
M  V30 16550 N 1541.66 -1.11854 -1.11024 0
M  V30 16551 C 1542.59 -0.724602 -2.1639 0
M  V30 16552 C 1543.57 0.281302 -1.60148 0
M  V30 16553 O 1544.75 0.176699 -1.8767 0
M  V30 16554 C 1541.88 -0.0715375 -3.38624 0
M  V30 16555 C 1540.93 -1.04328 -4.13543 0
M  V30 16556 S 1541.76 -2.5679 -4.69914 0
M  V30 16557 C 1542.92 -1.92797 -5.95466 0
M  V30 16558 H 1543.15 -1.61713 -2.49472 0
M  V30 16559 H 1540.68 -0.937015 -1.22717 0
M  V30 16560 H 1542.64 0.298896 -4.0941 0
M  V30 16561 H 1541.3 0.798007 -3.03794 0
M  V30 16562 H 1540.49 -0.533855 -5.01165 0
M  V30 16563 H 1540.1 -1.35636 -3.48538 0
M  V30 16564 H 1542.39 -1.26703 -6.65547 0
M  V30 16565 H 1543.33 -2.78434 -6.51061 0
M  V30 16566 H 1543.74 -1.38633 -5.47212 0
M  V30 16567 N 1543.14 1.28707 -0.909517 0
M  V30 16568 C 1544.08 2.29396 -0.384756 0
M  V30 16569 C 1545.08 1.61179 0.521318 0
M  V30 16570 O 1546.28 1.7543 0.403032 0
M  V30 16571 H 1542.66 0.744518 -0.105814 0
M  V30 16572 H 1544.63 2.71089 -1.24714 0
M  V30 16573 C 1543.38 3.45792 0.363795 0
M  V30 16574 H 1542.7 3.98483 -0.324198 0
M  V30 16575 H 1544.14 4.18254 0.695681 0
M  V30 16576 C 1542.6 2.98075 1.57012 0
M  V30 16577 O 1543.13 3.00187 2.66929 0
M  V30 16578 N 1541.34 2.53787 1.41565 0
M  V30 16579 H 1540.88 2.52268 0.521415 0
M  V30 16580 H 1540.84 2.2222 2.22408 0
M  V30 16581 N 1544.61 0.673042 1.42506 0
M  V30 16582 C 1545.84 0.202922 2.05902 0
M  V30 16583 C 1546.26 -1.13923 1.50556 0
M  V30 16584 O 1545.61 -1.70735 0.644662 0
M  V30 16585 C 1545.67 0.12735 3.61276 0
M  V30 16586 O 1545.39 1.41646 4.1457 0
M  V30 16587 C 1546.89 -0.366477 4.41783 0
M  V30 16588 H 1544.11 0.0991021 0.663641 0
M  V30 16589 H 1546.65 0.919282 1.82673 0
M  V30 16590 H 1544.81 -0.539687 3.83622 0
M  V30 16591 H 1545.22 1.28866 5.08423 0
M  V30 16592 H 1546.69 -0.368267 5.5077 0
M  V30 16593 H 1547.17 -1.40142 4.16241 0
M  V30 16594 H 1547.78 0.268761 4.2445 0
M  V30 16595 N 1546.09 -1.52004 0.416254 0
M  V30 16596 C 1547.32 -2.0679 -0.158937 0
M  V30 16597 C 1547.74 -1.28366 -1.37491 0
M  V30 16598 O 1547.1 -0.315815 -1.78528 0
M  V30 16599 C 1547.15 -3.57381 -0.480717 0
M  V30 16600 O 1546.25 -3.81321 -1.5706 0
M  V30 16601 H 1545.59 -0.663907 -0.0110938 0
M  V30 16602 H 1548.12 -1.95863 0.591509 0
M  V30 16603 H 1548.13 -4.01283 -0.737297 0
M  V30 16604 H 1546.81 -4.13893 0.408137 0
M  V30 16605 H 1545.39 -3.49296 -1.30563 0
M  V30 16606 N 1547.57 -0.146903 -1.56914 0
M  V30 16607 C 1548.82 0.504195 -1.95297 0
M  V30 16608 C 1549.13 1.66019 -1.03426 0
M  V30 16609 O 1550.34 2.37591 -1.31388 0
M  V30 16610 C 1548.79 0.948348 -3.47181 0
M  V30 16611 C 1548.4 -0.18071 -4.47635 0
M  V30 16612 C 1550.15 1.56924 -3.9443 0
M  V30 16613 C 1548.05 0.281707 -5.90729 0
M  V30 16614 H 1546.98 0.192127 -0.729111 0
M  V30 16615 H 1549.63 -0.231232 -1.82037 0
M  V30 16616 H 1548.02 1.73903 -3.55772 0
M  V30 16617 H 1549.19 -0.957645 -4.50739 0
M  V30 16618 H 1547.51 -0.710007 -4.10302 0
M  V30 16619 H 1550.1 1.92684 -4.98776 0
M  V30 16620 H 1550.45 2.45816 -3.35976 0
M  V30 16621 H 1550.98 0.843456 -3.88755 0
M  V30 16622 H 1547.72 -0.571839 -6.53001 0
M  V30 16623 H 1547.24 1.02452 -5.90985 0
M  V30 16624 H 1548.92 0.733746 -6.42826 0
M  V30 16625 N 1549.05 1.57088 0.126881 0
M  V30 16626 C 1549.98 1.96399 1.18153 0
M  V30 16627 C 1550.99 0.862288 1.38089 0
M  V30 16628 O 1552.18 1.14062 1.37303 0
M  V30 16629 C 1549.28 2.24026 2.54295 0
M  V30 16630 C 1548.46 3.5533 2.55068 0
M  V30 16631 C 1547.51 3.71261 3.72896 0
M  V30 16632 O 1546.54 4.43454 3.56844 0
M  V30 16633 N 1547.74 3.09435 4.91152 0
M  V30 16634 H 1550.51 2.87476 0.847217 0
M  V30 16635 H 1548.07 1.58781 0.316242 0
M  V30 16636 H 1550.06 2.31906 3.31665 0
M  V30 16637 H 1548.63 1.39114 2.79939 0
M  V30 16638 H 1547.85 3.58708 1.63468 0
M  V30 16639 H 1549.14 4.41649 2.52634 0
M  V30 16640 H 1548.54 2.50736 5.07097 0
M  V30 16641 H 1547.09 3.22848 5.66226 0
M  V30 16642 N 1550.53 -0.396836 1.52522 0
M  V30 16643 C 1551.75 -1.16857 1.71345 0
M  V30 16644 C 1552.18 -1.83178 0.427465 0
M  V30 16645 O 1551.53 -1.7051 -0.616123 0
M  V30 16646 C 1551.58 -2.19817 2.85855 0
M  V30 16647 O 1550.69 -3.26233 2.52281 0
M  V30 16648 H 1550.03 -0.340554 0.570017 0
M  V30 16649 H 1552.56 -0.463532 1.9928 0
M  V30 16650 H 1552.57 -2.63944 3.11123 0
M  V30 16651 H 1551.24 -1.70931 3.79151 0
M  V30 16652 H 1549.82 -2.87299 2.37726 0
M  V30 16653 N 1552.01 -1.43353 -0.654814 0
M  V30 16654 C 1553.23 -1.48322 -1.4425 0
M  V30 16655 C 1553.65 -0.100608 -1.88532 0
M  V30 16656 O 1553.01 0.888831 -1.59393 0
M  V30 16657 C 1553.06 -2.42769 -2.67853 0
M  V30 16658 O 1552.78 -3.75653 -2.25424 0
M  V30 16659 C 1554.28 -2.56964 -3.61226 0
M  V30 16660 H 1551.5 -0.503805 -0.443195 0
M  V30 16661 H 1554.04 -1.88078 -0.802916 0
M  V30 16662 H 1552.2 -2.06212 -3.27956 0
M  V30 16663 H 1552.61 -4.26427 -3.05386 0
M  V30 16664 H 1554.09 -3.27129 -4.44624 0
M  V30 16665 H 1554.56 -1.61404 -4.08467 0
M  V30 16666 H 1555.17 -2.94325 -3.07006 0
M  V30 16667 N 1553.48 0.89303 -1.29857 0
M  V30 16668 C 1554.73 1.63881 -1.17583 0
M  V30 16669 C 1555.05 1.93723 0.270293 0
M  V30 16670 O 1556.25 2.66582 0.514432 0
M  V30 16671 C 1554.71 2.95327 -2.05694 0
M  V30 16672 C 1554.32 2.73055 -3.55169 0
M  V30 16673 C 1556.06 3.7327 -2.02162 0
M  V30 16674 C 1553.97 4.00268 -4.35361 0
M  V30 16675 H 1552.9 0.614815 -0.436485 0
M  V30 16676 H 1555.55 0.989339 -1.54546 0
M  V30 16677 H 1553.93 3.61523 -1.61607 0
M  V30 16678 H 1555.1 2.1541 -4.07351 0
M  V30 16679 H 1553.42 2.08498 -3.6044 0
M  V30 16680 H 1556.02 4.67601 -2.59333 0
M  V30 16681 H 1556.36 4.04032 -1.00318 0
M  V30 16682 H 1556.89 3.13925 -2.44328 0
M  V30 16683 H 1553.63 3.74669 -5.37869 0
M  V30 16684 H 1553.15 4.57448 -3.87945 0
M  V30 16685 H 1554.83 4.68358 -4.46374 0
M  V30 16686 N 1554.96 1.12442 1.10429 0
M  V30 16687 C 1556.21 0.874466 1.81758 0
M  V30 16688 C 1556.52 -0.601487 1.86122 0
M  V30 16689 O 1557.73 -0.968037 2.53656 0
M  V30 16690 C 1556.19 1.51478 3.2647 0
M  V30 16691 C 1555.79 3.02552 3.30403 0
M  V30 16692 C 1557.54 1.34511 4.02625 0
M  V30 16693 C 1555.44 3.59518 4.69575 0
M  V30 16694 H 1554.37 0.323494 0.681078 0
M  V30 16695 H 1557.03 1.35091 1.24188 0
M  V30 16696 H 1555.41 0.966 3.84037 0
M  V30 16697 H 1556.58 3.63924 2.82659 0
M  V30 16698 H 1554.9 3.18917 2.67733 0
M  V30 16699 H 1557.49 1.74492 5.05427 0
M  V30 16700 H 1557.84 0.288788 4.15297 0
M  V30 16701 H 1558.37 1.86311 3.51473 0
M  V30 16702 H 1555.11 4.6491 4.62103 0
M  V30 16703 H 1554.63 3.02922 5.17686 0
M  V30 16704 H 1556.31 3.58581 5.38543 0
M  V30 16705 N 1556.44 -1.28223 0.91633 0
M  V30 16706 C 1557.37 -2.29623 0.423735 0
M  V30 16707 C 1558.35 -1.62274 -0.510016 0
M  V30 16708 O 1559.54 -1.89666 -0.4172 0
M  V30 16709 C 1556.67 -3.45684 -0.334686 0
M  V30 16710 C 1555.62 -4.24949 0.510169 0
M  V30 16711 C 1554.95 -5.33371 -0.376745 0
M  V30 16712 C 1556.25 -4.91438 1.76877 0
M  V30 16713 H 1557.94 -2.71076 1.27115 0
M  V30 16714 H 1555.49 -1.30316 0.612678 0
M  V30 16715 H 1557.44 -4.1571 -0.690154 0
M  V30 16716 H 1556.16 -3.03118 -1.21603 0
M  V30 16717 H 1554.82 -3.56653 0.848191 0
M  V30 16718 H 1554.47 -4.87048 -1.25671 0
M  V30 16719 H 1554.17 -5.87309 0.18496 0
M  V30 16720 H 1555.69 -6.06244 -0.728039 0
M  V30 16721 H 1557.11 -5.53812 1.48205 0
M  V30 16722 H 1555.5 -5.55384 2.27308 0
M  V30 16723 H 1556.57 -4.15783 2.49505 0
M  V30 16724 N 1557.92 -0.68059 -1.42147 0
M  V30 16725 C 1558.85 -0.0199376 -2.33491 0
M  V30 16726 C 1559.83 0.783164 -1.50999 0
M  V30 16727 O 1561.01 0.739154 -1.79583 0
M  V30 16728 C 1558.14 0.927902 -3.34675 0
M  V30 16729 C 1557.1 0.232979 -4.27365 0
M  V30 16730 C 1556.42 1.29415 -5.18802 0
M  V30 16731 C 1557.72 -0.891559 -5.14634 0
M  V30 16732 H 1559.42 -0.782823 -2.88985 0
M  V30 16733 H 1556.96 -0.377898 -1.38953 0
M  V30 16734 H 1558.92 1.3992 -3.97493 0
M  V30 16735 H 1557.64 1.72228 -2.77498 0
M  V30 16736 H 1556.3 -0.21814 -3.6595 0
M  V30 16737 H 1555.95 2.08067 -4.57949 0
M  V30 16738 H 1555.65 0.834274 -5.81647 0
M  V30 16739 H 1557.17 1.76627 -5.84496 0
M  V30 16740 H 1558.59 -0.501219 -5.71105 0
M  V30 16741 H 1556.98 -1.27759 -5.86343 0
M  V30 16742 H 1558.05 -1.73781 -4.5269 0
M  V30 16743 N 1559.4 1.51781 -0.424309 0
M  V30 16744 C 1560.64 2.01157 0.147925 0
M  V30 16745 C 1560.96 1.31369 1.44919 0
M  V30 16746 O 1562.16 1.71643 2.10359 0
M  V30 16747 C 1560.62 3.58526 0.31417 0
M  V30 16748 C 1560.23 4.37242 -0.975898 0
M  V30 16749 C 1561.97 4.16088 0.840876 0
M  V30 16750 C 1559.88 5.86287 -0.776009 0
M  V30 16751 H 1558.81 0.751684 0.0590568 0
M  V30 16752 H 1561.46 1.74998 -0.552079 0
M  V30 16753 H 1559.84 3.81077 1.07687 0
M  V30 16754 H 1561.02 4.26444 -1.74592 0
M  V30 16755 H 1559.33 3.9107 -1.43015 0
M  V30 16756 H 1561.93 5.25138 1.0067 0
M  V30 16757 H 1562.27 3.7442 1.81977 0
M  V30 16758 H 1562.8 3.97565 0.136836 0
M  V30 16759 H 1559.54 6.32343 -1.7269 0
M  V30 16760 H 1559.06 5.99783 -0.0455544 0
M  V30 16761 H 1560.74 6.45609 -0.424095 0
M  V30 16762 N 1560.87 0.155222 1.56834 0
M  V30 16763 C 1561.78 -0.794179 2.20749 0
M  V30 16764 C 1562.8 -1.26546 1.19424 0
M  V30 16765 O 1563.98 -1.32094 1.5203 0
M  V30 16766 C 1561.04 -2.01261 2.82303 0
M  V30 16767 C 1560.1 -1.58976 3.98779 0
M  V30 16768 C 1559.33 -2.75011 4.57389 0
M  V30 16769 O 1559.56 -3.91449 4.14879 0
M  V30 16770 O 1558.49 -2.50011 5.4752 0
M  V30 16771 H 1562.32 -0.280064 3.02406 0
M  V30 16772 H 1559.9 -0.0722048 1.49225 0
M  V30 16773 H 1561.78 -2.72551 3.21394 0
M  V30 16774 H 1560.46 -2.51609 2.03653 0
M  V30 16775 H 1559.37 -0.846848 3.64389 0
M  V30 16776 H 1560.7 -1.13336 4.78974 0
M  V30 16777 N 1562.35 -1.57153 -0.118549 0
M  V30 16778 C 1563.28 -1.97022 -1.1711 0
M  V30 16779 C 1564.3 -0.869599 -1.37629 0
M  V30 16780 O 1565.49 -1.14788 -1.36696 0
M  V30 16781 C 1562.59 -2.25371 -2.53103 0
M  V30 16782 C 1561.76 -3.56677 -2.5318 0
M  V30 16783 C 1560.82 -3.73233 -3.70922 0
M  V30 16784 O 1559.84 -4.4534 -3.54487 0
M  V30 16785 N 1561.05 -3.12036 -4.89504 0
M  V30 16786 H 1563.81 -2.87921 -0.831959 0
M  V30 16787 H 1561.37 -1.58947 -0.307817 0
M  V30 16788 H 1563.36 -2.33662 -3.3043 0
M  V30 16789 H 1561.93 -1.40597 -2.79197 0
M  V30 16790 H 1561.15 -3.5957 -1.61564 0
M  V30 16791 H 1562.44 -4.42982 -2.50288 0
M  V30 16792 H 1561.84 -2.53422 -5.05761 0
M  V30 16793 H 1560.4 -3.25846 -5.64506 0
M  V30 16794 N 1563.83 0.388742 -1.5273 0
M  V30 16795 C 1565.08 1.13094 -1.67011 0
M  V30 16796 C 1565.39 1.91115 -0.416467 0
M  V30 16797 O 1566.6 2.67921 -0.43941 0
M  V30 16798 C 1565.05 2.0595 -2.95149 0
M  V30 16799 C 1564.66 1.3335 -4.27694 0
M  V30 16800 C 1566.41 2.80303 -3.18795 0
M  V30 16801 C 1564.31 2.24973 -5.46938 0
M  V30 16802 H 1563.24 0.425887 -0.622203 0
M  V30 16803 H 1565.89 0.393708 -1.79227 0
M  V30 16804 H 1564.28 2.83309 -2.7668 0
M  V30 16805 H 1565.45 0.612137 -4.56716 0
M  V30 16806 H 1563.76 0.709547 -4.1031 0
M  V30 16807 H 1566.36 3.49036 -4.05065 0
M  V30 16808 H 1566.7 3.44394 -2.33877 0
M  V30 16809 H 1567.24 2.10036 -3.37831 0
M  V30 16810 H 1563.98 1.65497 -6.34264 0
M  V30 16811 H 1563.5 2.95024 -5.22227 0
M  V30 16812 H 1565.18 2.8505 -5.80823 0
M  V30 16813 N 1565.31 1.43698 0.647203 0
M  V30 16814 C 1566.55 1.45849 1.40911 0
M  V30 16815 C 1566.89 0.0846767 1.94015 0
M  V30 16816 O 1566.16 -0.89537 1.72665 0
M  V30 16817 C 1566.44 2.50579 2.58616 0
M  V30 16818 C 1566.3 3.97258 2.10965 0
M  V30 16819 C 1567.62 2.51981 3.60824 0
M  V30 16820 H 1564.74 0.531056 0.511027 0
M  V30 16821 H 1567.38 1.75283 0.733204 0
M  V30 16822 H 1565.53 2.25611 3.16278 0
M  V30 16823 H 1567.2 4.33304 1.58257 0
M  V30 16824 H 1565.44 4.09802 1.42284 0
M  V30 16825 H 1566.11 4.6616 2.95633 0
M  V30 16826 H 1568.59 2.7425 3.12932 0
M  V30 16827 H 1567.47 3.27191 4.40723 0
M  V30 16828 H 1567.73 1.55582 4.1382 0
M  V30 16829 N 1566.79 -0.886131 1.30328 0
M  V30 16830 C 1568.03 -1.64026 1.19261 0
M  V30 16831 C 1568.37 -1.92553 -0.252379 0
M  V30 16832 O 1567.64 -1.54564 -1.18069 0
M  V30 16833 C 1567.92 -2.9808 2.0204 0
M  V30 16834 C 1567.78 -2.76534 3.54752 0
M  V30 16835 C 1569.1 -3.98989 1.85731 0
M  V30 16836 H 1566.21 -0.595224 0.4346 0
M  V30 16837 H 1568.86 -1.0255 1.59949 0
M  V30 16838 H 1567.01 -3.50552 1.67469 0
M  V30 16839 H 1568.68 -2.3086 3.99376 0
M  V30 16840 H 1566.92 -2.1106 3.78993 0
M  V30 16841 H 1567.59 -3.71849 4.07961 0
M  V30 16842 H 1570.07 -3.55673 2.15953 0
M  V30 16843 H 1568.94 -4.90699 2.45979 0
M  V30 16844 H 1569.21 -4.34501 0.816152 0
M  V30 16845 N 1568.26 -1.13026 -1.09832 0
M  V30 16846 C 1569.23 -0.806832 -2.14529 0
M  V30 16847 C 1570.23 0.18175 -1.5977 0
M  V30 16848 O 1571.42 -0.0448155 -1.74142 0
M  V30 16849 C 1568.55 -0.200093 -3.40312 0
M  V30 16850 H 1569.74 -1.73453 -2.44651 0
M  V30 16851 H 1567.3 -0.934331 -1.25299 0
M  V30 16852 H 1568.03 0.737028 -3.15814 0
M  V30 16853 H 1567.82 -0.911945 -3.81348 0
M  V30 16854 H 1569.31 0.00948247 -4.17599 0
M  V30 16855 N 1569.74 1.27735 -0.923117 0
M  V30 16856 C 1570.67 2.29395 -0.435907 0
M  V30 16857 C 1571.65 1.62542 0.501403 0
M  V30 16858 O 1572.84 1.89884 0.407135 0
M  V30 16859 C 1569.97 3.45856 0.316348 0
M  V30 16860 C 1568.92 4.24672 -0.532697 0
M  V30 16861 C 1568.25 5.33563 0.348454 0
M  V30 16862 C 1569.55 4.90494 -1.79481 0
M  V30 16863 H 1571.24 2.70398 -1.28551 0
M  V30 16864 H 1568.79 1.29989 -0.619581 0
M  V30 16865 H 1570.74 4.1607 0.668098 0
M  V30 16866 H 1569.47 3.03758 1.19994 0
M  V30 16867 H 1568.12 3.56198 -0.867093 0
M  V30 16868 H 1567.77 4.87708 1.23086 0
M  V30 16869 H 1567.47 5.87202 -0.216104 0
M  V30 16870 H 1569 6.06622 0.695878 0
M  V30 16871 H 1570.41 5.53019 -1.5114 0
M  V30 16872 H 1568.81 5.5417 -2.30251 0
M  V30 16873 H 1569.88 4.14454 -2.51707 0
M  V30 16874 N 1571.22 0.688118 1.41784 0
M  V30 16875 C 1572.47 0.215517 2.00948 0
M  V30 16876 C 1572.79 -1.18656 1.54744 0
M  V30 16877 O 1572.06 -1.79925 0.774831 0
M  V30 16878 H 1570.64 0.0766876 0.743053 0
M  V30 16879 H 1573.3 0.88761 1.73515 0
M  V30 16880 H 1572.4 0.227139 3.11272 0
M  V30 16881 N 1572.7 -1.51554 0.432352 0
M  V30 16882 C 1573.95 -2.01645 -0.135511 0
M  V30 16883 C 1574.27 -1.31874 -1.43647 0
M  V30 16884 O 1573.54 -0.451746 -1.9062 0
M  V30 16885 H 1572.12 -0.745113 -0.0530683 0
M  V30 16886 H 1574.78 -1.86258 0.573917 0
M  V30 16887 H 1573.88 -3.10506 -0.315001 0
M  V30 16888 N 1574.18 -0.163538 -1.56749 0
M  V30 16889 C 1575.09 0.782461 -2.21167 0
M  V30 16890 C 1576.1 1.25911 -1.20093 0
M  V30 16891 O 1577.28 1.31286 -1.52728 0
M  V30 16892 C 1574.34 1.99761 -2.83366 0
M  V30 16893 C 1573.4 1.56859 -3.99617 0
M  V30 16894 C 1572.64 2.72582 -4.58841 0
M  V30 16895 O 1572.86 3.89243 -4.16949 0
M  V30 16896 O 1571.79 2.47104 -5.48838 0
M  V30 16897 H 1575.62 0.264023 -3.0255 0
M  V30 16898 H 1573.21 0.06429 -1.49262 0
M  V30 16899 H 1575.09 2.70843 -3.22835 0
M  V30 16900 H 1573.76 2.50526 -2.04984 0
M  V30 16901 H 1572.67 0.827511 -3.64833 0
M  V30 16902 H 1574 1.10794 -4.79568 0
M  V30 16903 N 1575.65 1.57214 0.110213 0
M  V30 16904 C 1576.9 1.85312 0.816439 0
M  V30 16905 C 1577.23 0.749901 1.79462 0
M  V30 16906 O 1576.48 -0.257948 1.93993 0
M  V30 16907 C 1576.78 3.19933 1.59304 0
M  V30 16908 C 1576.45 4.44477 0.75835 0
M  V30 16909 C 1575.11 4.78292 0.528201 0
M  V30 16910 C 1577.46 5.20899 0.177117 0
M  V30 16911 C 1574.79 5.85966 -0.293292 0
M  V30 16912 C 1577.14 6.29439 -0.631615 0
M  V30 16913 C 1575.81 6.6178 -0.871998 0
M  V30 16914 H 1575.08 0.678104 0.298756 0
M  V30 16915 H 1577.72 1.91339 0.0784721 0
M  V30 16916 H 1576.03 3.09522 2.40216 0
M  V30 16917 H 1577.73 3.38897 2.14359 0
M  V30 16918 H 1574.32 4.17988 0.94783 0
M  V30 16919 H 1578.5 4.95119 0.342121 0
M  V30 16920 H 1573.76 6.09444 -0.488665 0
M  V30 16921 H 1577.93 6.87834 -1.08894 0
M  V30 16922 H 1575.56 7.45045 -1.51037 0
M  V30 16923 N 1577.13 -0.380637 1.52934 0
M  V30 16924 C 1578.08 -1.46544 1.78307 0
M  V30 16925 C 1579.05 -1.53825 0.626671 0
M  V30 16926 O 1580.23 -1.6995 0.867276 0
M  V30 16927 C 1577.37 -2.83676 1.96525 0
M  V30 16928 C 1576.49 -2.85481 3.24229 0
M  V30 16929 C 1575.62 -4.14092 3.32718 0
M  V30 16930 C 1574.66 -4.09982 4.54512 0
M  V30 16931 N 1573.8 -5.30214 4.60237 0
M  V30 16932 H 1578.64 -1.24209 2.7088 0
M  V30 16933 H 1576.18 -0.60241 1.34199 0
M  V30 16934 H 1578.13 -3.63319 2.05073 0
M  V30 16935 H 1576.76 -3.04443 1.07304 0
M  V30 16936 H 1575.82 -1.98159 3.24711 0
M  V30 16937 H 1577.13 -2.78313 4.13936 0
M  V30 16938 H 1576.28 -5.02144 3.40494 0
M  V30 16939 H 1575.02 -4.23993 2.41 0
M  V30 16940 H 1574.03 -3.20317 4.46852 0
M  V30 16941 H 1575.25 -4.01696 5.47556 0
M  V30 16942 H 1573.2 -5.40729 3.71414 0
M  V30 16943 H 1573.11 -5.25155 5.43827 0
M  V30 16944 H 1574.38 -6.2014 4.72279 0
M  V30 16945 N 1578.61 -1.44039 -0.639573 0
M  V30 16946 C 1579.54 -1.53073 -1.76327 0
M  V30 16947 C 1580.52 -0.384344 -1.65701 0
M  V30 16948 O 1581.71 -0.603362 -1.84589 0
M  V30 16949 C 1578.84 -1.46646 -3.14821 0
M  V30 16950 C 1577.79 -2.59673 -3.40226 0
M  V30 16951 C 1577.12 -2.38298 -4.78663 0
M  V30 16952 C 1578.42 -4.01864 -3.33621 0
M  V30 16953 H 1580.11 -2.47126 -1.69023 0
M  V30 16954 H 1577.66 -1.1894 -0.811749 0
M  V30 16955 H 1579.61 -1.51567 -3.93199 0
M  V30 16956 H 1578.33 -0.491035 -3.22888 0
M  V30 16957 H 1576.99 -2.54127 -2.64225 0
M  V30 16958 H 1576.64 -1.38968 -4.83422 0
M  V30 16959 H 1576.34 -3.14074 -4.9662 0
M  V30 16960 H 1577.86 -2.45025 -5.59281 0
M  V30 16961 H 1579.28 -4.08824 -4.01915 0
M  V30 16962 H 1577.68 -4.77775 -3.63113 0
M  V30 16963 H 1578.75 -4.26033 -2.31569 0
M  V30 16964 N 1580.09 0.879207 -1.30796 0
M  V30 16965 C 1581.32 1.66208 -1.22713 0
M  V30 16966 C 1581.73 1.88014 0.211506 0
M  V30 16967 O 1581.07 1.43183 1.15084 0
M  V30 16968 C 1581.13 3.05733 -1.89123 0
M  V30 16969 C 1580.8 3.07075 -3.38458 0
M  V30 16970 C 1581.79 2.85709 -4.34358 0
M  V30 16971 C 1579.48 3.28489 -3.8 0
M  V30 16972 C 1581.47 2.85722 -5.69773 0
M  V30 16973 C 1579.16 3.28131 -5.15532 0
M  V30 16974 C 1580.16 3.06773 -6.10229 0
M  V30 16975 O 1579.84 3.06243 -7.43283 0
M  V30 16976 H 1579.58 0.525224 -0.425577 0
M  V30 16977 H 1582.13 1.10636 -1.73057 0
M  V30 16978 H 1580.36 3.62993 -1.33316 0
M  V30 16979 H 1582.05 3.66199 -1.7508 0
M  V30 16980 H 1582.82 2.68956 -4.03593 0
M  V30 16981 H 1578.69 3.44147 -3.06731 0
M  V30 16982 H 1582.24 2.6897 -6.43662 0
M  V30 16983 H 1578.14 3.44422 -5.45934 0
M  V30 16984 H 1578.9 3.22369 -7.52343 0
M  V30 16985 N 1581.57 1.13606 1.09231 0
M  V30 16986 C 1582.5 0.837908 2.17948 0
M  V30 16987 C 1583.48 -0.203575 1.68877 0
M  V30 16988 O 1584.66 -0.0620702 1.94101 0
M  V30 16989 C 1581.79 0.305342 3.45955 0
M  V30 16990 C 1580.75 1.2813 4.08371 0
M  V30 16991 C 1580.07 0.608412 5.31227 0
M  V30 16992 C 1581.37 2.64055 4.50636 0
M  V30 16993 H 1583.07 1.747 2.43147 0
M  V30 16994 H 1580.61 0.84141 1.1686 0
M  V30 16995 H 1582.57 0.0844116 4.21315 0
M  V30 16996 H 1581.29 -0.639144 3.20285 0
M  V30 16997 H 1579.95 1.48826 3.35032 0
M  V30 16998 H 1579.6 -0.341613 5.01839 0
M  V30 16999 H 1579.3 1.25956 5.73942 0
M  V30 17000 H 1580.82 0.396809 6.09309 0
M  V30 17001 H 1582.24 2.47316 5.17212 0
M  V30 17002 H 1580.63 3.25364 5.0424 0
M  V30 17003 H 1581.7 3.21566 3.62937 0
M  V30 17004 N 1583.05 -1.27244 0.929878 0
M  V30 17005 C 1584.46 -1.76254 0.615732 0
M  V30 17006 C 1584.81 -1.759 -0.869111 0
M  V30 17007 O 1583.93 -1.36388 -1.6801 0
M  V30 17008 C 1584.53 -3.20068 1.11095 0
M  V30 17009 C 1583.09 -3.66736 0.847435 0
M  V30 17010 C 1582.23 -2.4659 1.26842 0
M  V30 17011 H 1585.18 -1.1348 1.10942 0
M  V30 17012 H 1585.21 -3.77714 0.459618 0
M  V30 17013 H 1584.72 -3.20293 2.19166 0
M  V30 17014 H 1582.82 -3.71954 -0.219376 0
M  V30 17015 H 1582.93 -4.56104 1.4665 0
M  V30 17016 H 1581.3 -2.45261 0.686944 0
M  V30 17017 H 1582.08 -2.49524 2.35781 0
M  V30 17018 N 1584.52 -0.695628 -1.41417 0
M  V30 17019 C 1585.46 0.00883515 -2.29198 0
M  V30 17020 C 1586.47 0.744337 -1.44788 0
M  V30 17021 O 1587.66 0.59503 -1.6829 0
M  V30 17022 C 1584.76 1.0366 -3.22657 0
M  V30 17023 C 1583.93 0.37071 -4.35826 0
M  V30 17024 C 1582.99 1.3011 -5.09861 0
M  V30 17025 O 1582.02 0.793461 -5.63642 0
M  V30 17026 N 1583.22 2.63343 -5.1733 0
M  V30 17027 H 1585.98 -0.744795 -2.90298 0
M  V30 17028 H 1583.54 -0.541663 -1.5257 0
M  V30 17029 H 1585.54 1.66075 -3.69054 0
M  V30 17030 H 1584.11 1.69177 -2.62865 0
M  V30 17031 H 1583.33 -0.433315 -3.91811 0
M  V30 17032 H 1584.61 -0.0923178 -5.08716 0
M  V30 17033 H 1584.01 3.07103 -4.75083 0
M  V30 17034 H 1582.57 3.20952 -5.67303 0
M  V30 17035 N 1586 1.51322 -0.440383 0
M  V30 17036 C 1586.93 2.30708 0.360013 0
M  V30 17037 C 1587.91 1.36254 1.01828 0
M  V30 17038 O 1589.1 1.65174 1.02134 0
M  V30 17039 C 1586.23 3.15132 1.45977 0
M  V30 17040 C 1585.18 4.17889 0.924825 0
M  V30 17041 C 1584.51 4.90853 2.12056 0
M  V30 17042 C 1585.81 5.22282 -0.0428362 0
M  V30 17043 H 1587.5 2.97868 -0.30248 0
M  V30 17044 H 1585.05 1.43249 -0.146914 0
M  V30 17045 H 1587 3.69449 2.02695 0
M  V30 17046 H 1585.72 2.45798 2.1506 0
M  V30 17047 H 1584.38 3.64627 0.379842 0
M  V30 17048 H 1584.03 4.1802 2.79765 0
M  V30 17049 H 1583.73 5.60339 1.769 0
M  V30 17050 H 1585.26 5.47995 2.69322 0
M  V30 17051 H 1586.67 5.71654 0.434137 0
M  V30 17052 H 1585.07 5.99314 -0.307126 0
M  V30 17053 H 1586.14 4.74923 -0.978557 0
M  V30 17054 N 1587.48 0.171848 1.5666 0
M  V30 17055 C 1588.73 -0.473061 1.96074 0
M  V30 17056 C 1589.04 -1.64353 1.06054 0
M  V30 17057 O 1590.25 -2.35471 1.35151 0
M  V30 17058 C 1588.7 -0.892995 3.48645 0
M  V30 17059 C 1588.31 0.251902 4.47291 0
M  V30 17060 C 1590.06 -1.50629 3.96877 0
M  V30 17061 C 1587.96 -0.187691 5.91102 0
M  V30 17062 H 1586.89 -0.180503 0.732075 0
M  V30 17063 H 1589.54 0.260164 1.81646 0
M  V30 17064 H 1587.93 -1.68221 3.58494 0
M  V30 17065 H 1589.1 1.02923 4.49159 0
M  V30 17066 H 1587.41 0.775193 4.09121 0
M  V30 17067 H 1590.01 -1.84724 5.01778 0
M  V30 17068 H 1590.35 -2.4044 3.39844 0
M  V30 17069 H 1590.89 -0.781502 3.90048 0
M  V30 17070 H 1587.63 0.675653 6.52009 0
M  V30 17071 H 1587.15 -0.93037 5.9254 0
M  V30 17072 H 1588.83 -0.631385 6.43912 0
M  V30 17073 N 1588.96 -1.5727 -0.101874 0
M  V30 17074 C 1590.37 -1.74753 -0.657147 0
M  V30 17075 C 1590.72 -0.793052 -1.79458 0
M  V30 17076 O 1589.84 0.0300559 -2.16379 0
M  V30 17077 C 1590.44 -3.1688 -1.19885 0
M  V30 17078 C 1589 -3.3581 -1.70025 0
M  V30 17079 C 1588.15 -2.70575 -0.607007 0
M  V30 17080 H 1591.1 -1.58214 0.124158 0
M  V30 17081 H 1591.12 -3.19378 -2.06829 0
M  V30 17082 H 1590.63 -3.86325 -0.37079 0
M  V30 17083 H 1588.73 -2.71434 -2.55253 0
M  V30 17084 H 1588.84 -4.44086 -1.79791 0
M  V30 17085 H 1587.21 -2.32284 -1.04481 0
M  V30 17086 H 1587.99 -3.42655 0.21036 0
M  V30 17087 N 1590.44 0.372521 -1.53134 0
M  V30 17088 C 1591.39 1.45592 -1.75462 0
M  V30 17089 C 1592.37 1.4893 -0.608994 0
M  V30 17090 O 1593.56 1.54288 -0.867419 0
M  V30 17091 C 1590.69 2.83111 -1.94172 0
M  V30 17092 C 1589.78 2.84279 -3.14716 0
M  V30 17093 N 1590.17 2.551 -4.36758 0
M  V30 17094 C 1588.47 3.15443 -3.15297 0
M  V30 17095 C 1589.17 2.6377 -5.18459 0
M  V30 17096 N 1588.14 2.98192 -4.54513 0
M  V30 17097 H 1591.94 1.21885 -2.67435 0
M  V30 17098 H 1589.46 0.58064 -1.51665 0
M  V30 17099 H 1591.46 3.61136 -2.08294 0
M  V30 17100 H 1590.12 3.07788 -1.03423 0
M  V30 17101 H 1591.13 2.2882 -4.64609 0
M  V30 17102 H 1587.8 3.45479 -2.34416 0
M  V30 17103 H 1589.19 2.44616 -6.2579 0
M  V30 17104 N 1591.91 1.44376 0.631925 0
M  V30 17105 C 1592.85 1.45649 1.75675 0
M  V30 17106 C 1593.82 0.31542 1.59511 0
M  V30 17107 O 1595.01 0.512271 1.81406 0
M  V30 17108 C 1592.14 1.2884 3.13238 0
M  V30 17109 C 1591.18 2.46499 3.48053 0
M  V30 17110 S 1592.01 4.0903 3.45622 0
M  V30 17111 C 1593.17 3.94643 4.85807 0
M  V30 17112 H 1593.4 2.40825 1.74328 0
M  V30 17113 H 1590.94 1.31664 0.806467 0
M  V30 17114 H 1592.89 1.19829 3.92621 0
M  V30 17115 H 1591.56 0.351754 3.12124 0
M  V30 17116 H 1590.75 2.30599 4.48152 0
M  V30 17117 H 1590.35 2.52245 2.76131 0
M  V30 17118 H 1592.64 3.58283 5.75012 0
M  V30 17119 H 1593.59 4.94569 5.06761 0
M  V30 17120 H 1593.99 3.26717 4.60343 0
M  V30 17121 N 1593.39 -0.872258 1.31261 0
M  V30 17122 C 1594.32 -1.99517 1.21306 0
M  V30 17123 C 1595.3 -1.69801 0.100775 0
M  V30 17124 O 1596.49 -1.92098 0.284984 0
M  V30 17125 C 1593.62 -3.34968 0.917249 0
M  V30 17126 C 1592.57 -3.78984 1.98885 0
M  V30 17127 C 1591.9 -5.11869 1.54578 0
M  V30 17128 C 1593.2 -3.96338 3.40167 0
M  V30 17129 H 1594.89 -2.08104 2.15251 0
M  V30 17130 H 1592.44 -0.999865 1.03628 0
M  V30 17131 H 1594.39 -4.1306 0.834217 0
M  V30 17132 H 1593.11 -3.26549 -0.0578721 0
M  V30 17133 H 1591.77 -3.0313 2.06174 0
M  V30 17134 H 1591.42 -4.99889 0.558581 0
M  V30 17135 H 1591.12 -5.4229 2.26265 0
M  V30 17136 H 1592.65 -5.92472 1.47678 0
M  V30 17137 H 1594.06 -4.64831 3.35566 0
M  V30 17138 H 1592.46 -4.38153 4.10051 0
M  V30 17139 H 1593.53 -2.9979 3.81122 0
M  V30 17140 N 1594.87 -1.14184 -1.08627 0
M  V30 17141 C 1596.29 -0.881757 -1.33031 0
M  V30 17142 C 1596.49 0.478313 -1.95741 0
M  V30 17143 O 1595.54 1.22308 -2.209 0
M  V30 17144 C 1596.85 -2.01274 -2.23404 0
M  V30 17145 C 1598.4 -2.04578 -2.3689 0
M  V30 17146 C 1598.88 -3.16962 -3.30604 0
M  V30 17147 N 1600.37 -3.16526 -3.3818 0
M  V30 17148 C 1601.1 -4.00124 -4.10716 0
M  V30 17149 N 1600.6 -4.93757 -4.8598 0
M  V30 17150 N 1602.39 -3.88193 -4.06525 0
M  V30 17151 H 1594.54 -2.01787 -0.663017 0
M  V30 17152 H 1596.81 -0.879152 -0.354677 0
M  V30 17153 H 1596.51 -2.9938 -1.84566 0
M  V30 17154 H 1596.39 -1.93393 -3.2385 0
M  V30 17155 H 1598.77 -1.0708 -2.74987 0
M  V30 17156 H 1598.85 -2.16529 -1.36194 0
M  V30 17157 H 1598.5 -4.14704 -2.93228 0
M  V30 17158 H 1598.43 -3.02248 -4.31223 0
M  V30 17159 H 1600.92 -2.48708 -2.84522 0
M  V30 17160 H 1601.23 -5.54015 -5.38783 0
M  V30 17161 H 1599.58 -4.97756 -4.8504 0
M  V30 17162 H 1602.77 -3.14365 -3.46831 0
M  V30 17163 H 1602.94 -4.53571 -4.62793 0
M  V30 17164 N 1596.35 1.26749 -0.936613 0
M  V30 17165 C 1597.59 1.94251 -0.582616 0
M  V30 17166 C 1597.93 1.73352 0.875361 0
M  V30 17167 O 1597.2 1.06784 1.62565 0
M  V30 17168 C 1597.49 3.48145 -0.920151 0
M  V30 17169 C 1597.34 3.78349 -2.43253 0
M  V30 17170 C 1598.66 4.37971 -0.432326 0
M  V30 17171 H 1595.78 0.705507 -0.213141 0
M  V30 17172 H 1598.42 1.49703 -1.17001 0
M  V30 17173 H 1596.57 3.8622 -0.420279 0
M  V30 17174 H 1598.24 3.50015 -3.00478 0
M  V30 17175 H 1596.48 3.24586 -2.87795 0
M  V30 17176 H 1597.15 4.85902 -2.61922 0
M  V30 17177 H 1599.63 4.07098 -0.860857 0
M  V30 17178 H 1598.51 5.44452 -0.697366 0
M  V30 17179 H 1598.77 4.37029 0.667694 0
M  V30 17180 N 1597.83 0.703118 1.41046 0
M  V30 17181 C 1599.07 0.237287 2.01105 0
M  V30 17182 C 1599.4 -1.16552 1.55711 0
M  V30 17183 O 1598.66 -1.80233 0.762533 0
M  V30 17184 C 1598.96 0.251575 3.56513 0
M  V30 17185 C 1598.62 1.60295 4.21446 0
M  V30 17186 C 1597.28 1.9729 4.38897 0
M  V30 17187 C 1599.64 2.49167 4.57783 0
M  V30 17188 C 1596.96 3.22726 4.89964 0
M  V30 17189 C 1599.32 3.73943 5.10244 0
M  V30 17190 C 1597.98 4.11072 5.25905 0
M  V30 17191 H 1597.25 0.0868294 0.735895 0
M  V30 17192 H 1599.9 0.903695 1.68836 0
M  V30 17193 H 1598.2 -0.498393 3.88617 0
M  V30 17194 H 1599.9 -0.126501 4.008 0
M  V30 17195 H 1596.49 1.30523 4.08242 0
M  V30 17196 H 1600.67 2.21864 4.43948 0
M  V30 17197 H 1595.93 3.51477 5.00274 0
M  V30 17198 H 1600.1 4.42988 5.3734 0
M  V30 17199 H 1597.73 5.0834 5.65239 0
M  V30 17200 N 1599.3 -1.51086 0.448402 0
M  V30 17201 C 1600.24 -2.24615 -0.402921 0
M  V30 17202 C 1601.22 -1.26994 -1.01544 0
M  V30 17203 O 1602.4 -1.56159 -1.05577 0
M  V30 17204 C 1599.53 -3.00504 -1.56253 0
M  V30 17205 C 1598.57 -4.1287 -1.06961 0
M  V30 17206 S 1599.41 -5.355 -0.00265176 0
M  V30 17207 C 1600.56 -6.14931 -1.16667 0
M  V30 17208 H 1600.79 -2.96475 0.221298 0
M  V30 17209 H 1598.33 -1.52631 0.23303 0
M  V30 17210 H 1600.29 -3.44824 -2.22726 0
M  V30 17211 H 1598.95 -2.28212 -2.15819 0
M  V30 17212 H 1598.14 -4.65288 -1.93708 0
M  V30 17213 H 1597.74 -3.70869 -0.48296 0
M  V30 17214 H 1600.03 -6.44688 -2.08286 0
M  V30 17215 H 1600.98 -7.04806 -0.682223 0
M  V30 17216 H 1601.38 -5.46601 -1.41024 0
M  V30 17217 N 1600.78 -0.180154 -1.56567 0
M  V30 17218 C 1601.73 0.759144 -2.14991 0
M  V30 17219 C 1602.72 1.18672 -1.08654 0
M  V30 17220 O 1603.91 1.14761 -1.34755 0
M  V30 17221 C 1601.04 1.98473 -2.80113 0
M  V30 17222 C 1600.12 1.57874 -3.9362 0
M  V30 17223 N 1600.51 0.882825 -4.98036 0
M  V30 17224 C 1598.81 1.86913 -4.04944 0
M  V30 17225 C 1599.51 0.681573 -5.77693 0
M  V30 17226 N 1598.49 1.22573 -5.29601 0
M  V30 17227 H 1602.29 0.218574 -2.93086 0
M  V30 17228 H 1599.81 0.0202002 -1.62387 0
M  V30 17229 H 1601.8 2.66797 -3.20351 0
M  V30 17230 H 1600.46 2.53017 -2.03501 0
M  V30 17231 H 1601.47 0.539906 -5.15078 0
M  V30 17232 H 1598.15 2.43071 -3.39445 0
M  V30 17233 H 1599.54 0.130602 -6.71773 0
M  V30 17234 N 1602.26 1.57322 0.0935319 0
M  V30 17235 C 1603.54 1.77187 0.828503 0
M  V30 17236 C 1603.92 0.762216 1.96859 0
M  V30 17237 O 1603.27 -0.208982 2.27542 0
M  V30 17238 C 1603.48 3.23007 1.32163 0
M  V30 17239 C 1604.82 3.86233 1.76379 0
M  V30 17240 O 1605.85 3.26766 1.41783 0
M  V30 17241 O 1604.71 4.90808 2.40354 0
M  V30 17242 H 1601.8 0.726401 0.395311 0
M  V30 17243 H 1604.35 1.69533 0.0752924 0
M  V30 17244 H 1603.12 3.88029 0.504863 0
M  V30 17245 H 1602.74 3.353 2.13681 0
M  V30 17246 N 1603.74 -0.364395 1.53329 0
M  V30 17247 C 1604.69 -1.46678 1.80523 0
M  V30 17248 C 1605.68 -1.55396 0.674421 0
M  V30 17249 O 1606.89 -1.58268 0.857385 0
M  V30 17250 H 1603.26 -0.488652 0.571597 0
M  V30 17251 H 1605.23 -1.20947 2.7279 0
M  V30 17252 C 1603.98 -2.83496 2.01309 0
M  V30 17253 H 1603.3 -2.77546 2.87764 0
M  V30 17254 H 1604.74 -3.59805 2.24313 0
M  V30 17255 C 1603.2 -3.27445 0.792539 0
M  V30 17256 O 1603.73 -4.01696 -0.0181965 0
M  V30 17257 N 1601.94 -2.84004 0.615643 0
M  V30 17258 H 1601.49 -2.23746 1.27654 0
M  V30 17259 H 1601.44 -3.13766 -0.199604 0
M  V30 17260 N 1605.22 -1.44709 -0.62426 0
M  V30 17261 C 1606.44 -1.51573 -1.41564 0
M  V30 17262 C 1606.87 -0.143806 -1.87549 0
M  V30 17263 O 1606.22 0.868361 -1.59151 0
M  V30 17264 C 1606.27 -2.49085 -2.60747 0
M  V30 17265 O 1605.38 -1.99712 -3.60817 0
M  V30 17266 H 1604.72 -0.51157 -0.423311 0
M  V30 17267 H 1607.25 -1.89908 -0.761316 0
M  V30 17268 H 1607.26 -2.67346 -3.08205 0
M  V30 17269 H 1605.93 -3.48733 -2.26624 0
M  V30 17270 H 1604.51 -1.9125 -3.20122 0
M  V30 17271 N 1606.69 0.865285 -1.31722 0
M  V30 17272 C 1608.11 1.43445 -1.195 0
M  V30 17273 C 1608.46 1.95212 0.196688 0
M  V30 17274 O 1607.58 1.86666 1.09475 0
M  V30 17275 C 1608.18 2.6074 -2.16333 0
M  V30 17276 C 1606.74 3.13688 -2.08031 0
M  V30 17277 C 1605.88 1.86409 -2.05298 0
M  V30 17278 H 1608.83 0.6734 -1.43705 0
M  V30 17279 H 1608.85 3.37575 -1.75566 0
M  V30 17280 H 1608.37 2.23033 -3.17612 0
M  V30 17281 H 1606.47 3.56004 -1.09962 0
M  V30 17282 H 1606.58 3.75653 -2.97358 0
M  V30 17283 H 1604.94 2.05567 -1.50381 0
M  V30 17284 H 1605.73 1.50933 -3.08341 0
M  V30 17285 N 1608.17 1.14759 1.0802 0
M  V30 17286 C 1609.42 0.916435 1.80127 0
M  V30 17287 C 1609.74 -0.558281 1.86837 0
M  V30 17288 O 1609.01 -1.40579 1.36434 0
M  V30 17289 H 1607.59 0.336066 0.667135 0
M  V30 17290 H 1610.25 1.44693 1.30576 0
M  V30 17291 H 1609.35 1.31986 2.82818 0
M  V30 17292 N 1609.65 -1.26251 0.943322 0
M  V30 17293 C 1611.07 -1.45943 0.645966 0
M  V30 17294 C 1611.27 -1.84936 -0.800064 0
M  V30 17295 O 1610.32 -1.97238 -1.57649 0
M  V30 17296 C 1611.64 -2.54017 1.60922 0
M  V30 17297 C 1613.18 -2.67866 1.61916 0
M  V30 17298 C 1613.66 -3.79113 2.56977 0
M  V30 17299 N 1615.15 -3.86509 2.55275 0
M  V30 17300 C 1615.88 -4.72048 3.25513 0
M  V30 17301 N 1615.38 -5.61959 4.05184 0
M  V30 17302 N 1617.17 -4.65913 3.14454 0
M  V30 17303 H 1609.32 -0.992295 1.87796 0
M  V30 17304 H 1611.59 -0.497204 0.80715 0
M  V30 17305 H 1611.29 -2.32197 2.64155 0
M  V30 17306 H 1611.17 -3.51715 1.36294 0
M  V30 17307 H 1613.55 -2.89059 0.594067 0
M  V30 17308 H 1613.64 -1.70604 1.90598 0
M  V30 17309 H 1613.28 -3.58673 3.59605 0
M  V30 17310 H 1613.21 -4.75836 2.25583 0
M  V30 17311 H 1615.7 -3.22229 1.97425 0
M  V30 17312 H 1616.01 -6.24127 4.55725 0
M  V30 17313 H 1614.36 -5.61704 4.09285 0
M  V30 17314 H 1617.55 -3.94675 2.51693 0
M  V30 17315 H 1617.72 -5.32356 3.69461 0
M  V30 17316 N 1611.13 -0.710588 -1.40671 0
M  V30 17317 C 1612.38 -0.244967 -2.00207 0
M  V30 17318 C 1612.69 1.16693 -1.56978 0
M  V30 17319 O 1613.9 1.73081 -2.09177 0
M  V30 17320 C 1612.35 -0.387049 -3.57813 0
M  V30 17321 C 1611.96 -1.80527 -4.10017 0
M  V30 17322 C 1613.71 0.0180338 -4.24496 0
M  V30 17323 C 1611.61 -1.89821 -5.60109 0
M  V30 17324 H 1610.54 -0.087831 -0.748867 0
M  V30 17325 H 1613.19 -0.880956 -1.6097 0
M  V30 17326 H 1611.58 0.317442 -3.94726 0
M  V30 17327 H 1612.75 -2.53974 -3.84492 0
M  V30 17328 H 1611.06 -2.16137 -3.55913 0
M  V30 17329 H 1613.66 -0.0307544 -5.34691 0
M  V30 17330 H 1614 1.05915 -4.02601 0
M  V30 17331 H 1614.54 -0.63672 -3.92671 0
M  V30 17332 H 1611.28 -2.92036 -5.86852 0
M  V30 17333 H 1610.8 -1.20779 -5.87514 0
M  V30 17334 H 1612.48 -1.66801 -6.25129 0
M  V30 17335 N 1612.61 1.50847 -0.456408 0
M  V30 17336 C 1613.85 2.02534 0.103772 0
M  V30 17337 C 1614.19 1.33874 1.40682 0
M  V30 17338 O 1613.46 0.459695 1.8899 0
M  V30 17339 C 1613.74 3.58825 0.302817 0
M  V30 17340 C 1613.6 4.38077 -1.02022 0
M  V30 17341 C 1614.92 4.27044 1.06404 0
M  V30 17342 H 1612.04 0.736108 0.0362398 0
M  V30 17343 H 1614.68 1.80306 -0.599134 0
M  V30 17344 H 1612.83 3.77895 0.901542 0
M  V30 17345 H 1614.5 4.30613 -1.6544 0
M  V30 17346 H 1612.74 4.02401 -1.62036 0
M  V30 17347 H 1613.41 5.45652 -0.834766 0
M  V30 17348 H 1615.89 4.12359 0.556698 0
M  V30 17349 H 1614.77 5.3624 1.17209 0
M  V30 17350 H 1615.03 3.89204 2.09697 0
M  V30 17351 N 1614.09 0.188454 1.56469 0
M  V30 17352 C 1615.31 -0.460975 2.02212 0
M  V30 17353 C 1615.74 -1.54856 1.06777 0
M  V30 17354 O 1615.09 -1.81231 0.0501425 0
M  V30 17355 C 1615.14 -1.00047 3.46443 0
M  V30 17356 O 1614.25 -2.1137 3.54114 0
M  V30 17357 H 1613.59 -0.108497 0.655076 0
M  V30 17358 H 1616.12 0.297381 2.02427 0
M  V30 17359 H 1616.13 -1.31876 3.86099 0
M  V30 17360 H 1614.8 -0.204273 4.15398 0
M  V30 17361 H 1613.38 -1.80456 3.26328 0
M  V30 17362 N 1615.56 -1.5737 -0.0851874 0
M  V30 17363 C 1616.81 -1.85772 -0.785604 0
M  V30 17364 C 1617.13 -0.779172 -1.79411 0
M  V30 17365 O 1618.33 -0.950621 -2.54314 0
M  V30 17366 C 1616.79 -3.29484 -1.44805 0
M  V30 17367 C 1616.4 -4.45434 -0.478799 0
M  V30 17368 C 1618.14 -3.671 -2.13161 0
M  V30 17369 C 1616.05 -5.80183 -1.1464 0
M  V30 17370 H 1614.98 -0.69298 -0.297145 0
M  V30 17371 H 1617.63 -1.83459 -0.0386776 0
M  V30 17372 H 1616.01 -3.26367 -2.24278 0
M  V30 17373 H 1617.18 -4.59917 0.285148 0
M  V30 17374 H 1615.5 -4.16281 0.0995964 0
M  V30 17375 H 1618.1 -4.65061 -2.6386 0
M  V30 17376 H 1618.44 -2.96223 -2.92503 0
M  V30 17377 H 1618.97 -3.72148 -1.40536 0
M  V30 17378 H 1615.71 -6.54317 -0.393583 0
M  V30 17379 H 1615.23 -5.69525 -1.88153 0
M  V30 17380 H 1616.91 -6.25074 -1.67006 0
M  V30 17381 N 1617.04 0.356258 -1.53521 0
M  V30 17382 C 1617.99 1.43689 -1.80616 0
M  V30 17383 C 1618.96 1.52808 -0.651064 0
M  V30 17384 O 1620.14 1.68549 -0.894203 0
M  V30 17385 C 1617.28 2.80513 -2.01013 0
M  V30 17386 C 1616.4 2.80287 -3.2873 0
M  V30 17387 C 1615.53 4.08747 -3.39263 0
M  V30 17388 C 1614.57 4.02699 -4.60977 0
M  V30 17389 N 1613.71 5.22825 -4.68614 0
M  V30 17390 H 1618.55 1.19884 -2.72822 0
M  V30 17391 H 1616.08 0.580984 -1.35141 0
M  V30 17392 H 1618.04 3.60011 -2.10827 0
M  V30 17393 H 1616.67 3.02698 -1.12134 0
M  V30 17394 H 1615.72 1.92968 -3.27822 0
M  V30 17395 H 1617.04 2.71693 -4.18311 0
M  V30 17396 H 1616.19 4.96663 -3.4844 0
M  V30 17397 H 1614.93 4.20106 -2.47715 0
M  V30 17398 H 1613.93 3.13168 -4.51892 0
M  V30 17399 H 1615.16 3.92934 -5.53877 0
M  V30 17400 H 1613.11 5.34752 -3.79969 0
M  V30 17401 H 1613.02 5.16437 -5.52113 0
M  V30 17402 H 1614.29 6.12548 -4.82085 0
M  V30 17403 N 1618.52 1.45038 0.616577 0
M  V30 17404 C 1619.45 1.55858 1.73869 0
M  V30 17405 C 1620.43 0.410657 1.65069 0
M  V30 17406 O 1621.62 0.632652 1.83606 0
M  V30 17407 C 1618.75 1.51635 3.12448 0
M  V30 17408 C 1617.7 2.65053 3.36052 0
M  V30 17409 C 1617.03 2.45883 4.74811 0
M  V30 17410 C 1618.33 4.07121 3.27185 0
M  V30 17411 H 1620.02 2.49784 1.6507 0
M  V30 17412 H 1617.57 1.20216 0.792724 0
M  V30 17413 H 1619.52 1.57803 3.90738 0
M  V30 17414 H 1618.24 0.542342 3.22066 0
M  V30 17415 H 1616.9 2.58299 2.60149 0
M  V30 17416 H 1616.55 1.46641 4.8115 0
M  V30 17417 H 1616.25 3.21935 4.9156 0
M  V30 17418 H 1617.77 2.53892 5.55312 0
M  V30 17419 H 1619.19 4.15167 3.9536 0
M  V30 17420 H 1617.58 4.83491 3.55466 0
M  V30 17421 H 1618.65 4.29663 2.24762 0
M  V30 17422 N 1620 -0.858287 1.32179 0
M  V30 17423 C 1620.93 -1.98219 1.23415 0
M  V30 17424 C 1621.91 -1.69685 0.118779 0
M  V30 17425 O 1623.09 -1.91785 0.305342 0
M  V30 17426 C 1620.22 -3.33977 0.952725 0
M  V30 17427 C 1619.18 -3.76853 2.02894 0
M  V30 17428 C 1618.5 -5.10201 1.59999 0
M  V30 17429 C 1619.8 -3.92707 3.44352 0
M  V30 17430 H 1621.5 -2.05809 2.17446 0
M  V30 17431 H 1619.04 -0.988817 1.04682 0
M  V30 17432 H 1621 -4.12152 0.87798 0
M  V30 17433 H 1619.72 -3.26592 -0.023234 0
M  V30 17434 H 1618.38 -3.00926 2.09378 0
M  V30 17435 H 1618.03 -4.99268 0.61157 0
M  V30 17436 H 1617.73 -5.39859 2.32004 0
M  V30 17437 H 1619.25 -5.90873 1.53954 0
M  V30 17438 H 1620.67 -4.61246 3.40477 0
M  V30 17439 H 1619.06 -4.33779 4.14675 0
M  V30 17440 H 1620.13 -2.95731 3.8428 0
M  V30 17441 N 1621.48 -1.1533 -1.07409 0
M  V30 17442 C 1622.44 -0.852155 -2.1277 0
M  V30 17443 C 1623.44 0.14782 -1.60119 0
M  V30 17444 O 1624.63 -0.0817436 -1.74008 0
M  V30 17445 C 1621.76 -0.272233 -3.39811 0
M  V30 17446 H 1622.95 -1.78604 -2.40917 0
M  V30 17447 H 1620.51 -0.960698 -1.23289 0
M  V30 17448 H 1621.24 0.669873 -3.17306 0
M  V30 17449 H 1621.03 -0.992629 -3.79327 0
M  V30 17450 H 1622.52 -0.0790986 -4.17525 0
M  V30 17451 N 1622.95 1.25748 -0.950004 0
M  V30 17452 C 1623.92 2.24307 -0.47106 0
M  V30 17453 C 1624.92 1.55145 0.422704 0
M  V30 17454 O 1626.11 1.72797 0.220642 0
M  V30 17455 C 1623.24 3.39395 0.319979 0
M  V30 17456 H 1624.43 2.68192 -1.34214 0
M  V30 17457 H 1621.98 1.38056 -0.732827 0
M  V30 17458 H 1622.72 3.00925 1.20892 0
M  V30 17459 H 1622.5 3.90783 -0.321157 0
M  V30 17460 H 1623.99 4.12594 0.644697 0
M  V30 17461 N 1624.43 0.718038 1.40292 0
M  V30 17462 C 1625.68 0.255581 2.00074 0
M  V30 17463 C 1625.99 -1.15859 1.57594 0
M  V30 17464 O 1627.2 -1.71969 2.10092 0
M  V30 17465 C 1625.66 0.406019 3.57602 0
M  V30 17466 C 1625.26 1.82699 4.09054 0
M  V30 17467 C 1627.01 0.00447854 4.245 0
M  V30 17468 C 1624.91 1.92788 5.59094 0
M  V30 17469 H 1623.84 0.0918012 0.748391 0
M  V30 17470 H 1626.5 0.88948 1.60501 0
M  V30 17471 H 1624.88 -0.296504 3.94888 0
M  V30 17472 H 1626.05 2.56009 3.8314 0
M  V30 17473 H 1624.37 2.18021 3.54761 0
M  V30 17474 H 1626.96 0.05911 5.34667 0
M  V30 17475 H 1627.31 -1.03779 4.03157 0
M  V30 17476 H 1627.84 0.657535 3.92328 0
M  V30 17477 H 1624.58 2.95145 5.85295 0
M  V30 17478 H 1624.1 1.23893 5.86865 0
M  V30 17479 H 1625.78 1.70114 6.24236 0
M  V30 17480 N 1625.91 -1.50602 0.464402 0
M  V30 17481 C 1626.84 -2.26203 -0.36943 0
M  V30 17482 C 1627.86 -1.31269 -0.962924 0
M  V30 17483 O 1629.04 -1.56829 -0.852465 0
M  V30 17484 C 1626.14 -3.02323 -1.53147 0
M  V30 17485 C 1625.32 -4.24561 -1.05198 0
M  V30 17486 C 1624.38 -4.83031 -2.08729 0
M  V30 17487 O 1623.4 -5.44131 -1.67062 0
M  V30 17488 N 1624.6 -4.6944 -3.41477 0
M  V30 17489 H 1627.37 -2.98402 0.278652 0
M  V30 17490 H 1624.93 -1.59193 0.294803 0
M  V30 17491 H 1626.92 -3.38319 -2.22086 0
M  V30 17492 H 1625.49 -2.32965 -2.08438 0
M  V30 17493 H 1624.71 -3.93748 -0.188705 0
M  V30 17494 H 1626 -5.0383 -0.709434 0
M  V30 17495 H 1625.4 -4.20832 -3.78044 0
M  V30 17496 H 1623.96 -5.09724 -4.06233 0
M  V30 17497 N 1627.39 -0.19675 -1.56367 0
M  V30 17498 C 1628.32 0.718607 -2.22167 0
M  V30 17499 C 1629.3 1.22002 -1.1853 0
M  V30 17500 O 1630.48 1.26856 -1.47042 0
M  V30 17501 C 1627.61 1.93753 -2.88231 0
M  V30 17502 C 1626.57 1.57096 -3.98127 0
M  V30 17503 C 1625.89 2.86663 -4.51363 0
M  V30 17504 C 1627.19 0.779649 -5.16448 0
M  V30 17505 H 1628.89 0.170064 -2.98917 0
M  V30 17506 H 1626.43 0.0803568 -1.43776 0
M  V30 17507 H 1628.39 2.58312 -3.32946 0
M  V30 17508 H 1627.11 2.51063 -2.0889 0
M  V30 17509 H 1625.77 0.948947 -3.54105 0
M  V30 17510 H 1625.42 3.42066 -3.68782 0
M  V30 17511 H 1625.12 2.6288 -5.25517 0
M  V30 17512 H 1626.64 3.52207 -4.98781 0
M  V30 17513 H 1628.06 1.32838 -5.57698 0
M  V30 17514 H 1626.45 0.639882 -5.96679 0
M  V30 17515 H 1627.52 -0.218944 -4.84405 0
M  V30 17516 N 1628.87 1.57413 0.0768405 0
M  V30 17517 C 1630.11 1.87002 0.776948 0
M  V30 17518 C 1630.44 0.787799 1.77831 0
M  V30 17519 O 1629.7 -0.216742 1.94496 0
M  V30 17520 C 1630 3.2324 1.52482 0
M  V30 17521 C 1629.66 4.45986 0.663899 0
M  V30 17522 C 1628.32 4.79305 0.426629 0
M  V30 17523 C 1630.68 5.21157 0.0665867 0
M  V30 17524 C 1628 5.85213 -0.417518 0
M  V30 17525 C 1630.36 6.27958 -0.764986 0
M  V30 17526 C 1629.02 6.59781 -1.01218 0
M  V30 17527 H 1628.29 0.684289 0.284306 0
M  V30 17528 H 1630.94 1.91463 0.0378686 0
M  V30 17529 H 1629.24 3.14547 2.33596 0
M  V30 17530 H 1630.94 3.43368 2.07123 0
M  V30 17531 H 1627.53 4.19905 0.858956 0
M  V30 17532 H 1631.71 4.95734 0.237022 0
M  V30 17533 H 1626.97 6.0827 -0.617827 0
M  V30 17534 H 1631.14 6.85369 -1.23459 0
M  V30 17535 H 1628.77 7.41674 -1.66806 0
M  V30 17536 N 1630.34 -0.348112 1.53707 0
M  V30 17537 C 1631.59 -1.08671 1.70396 0
M  V30 17538 C 1631.91 -1.89314 0.467453 0
M  V30 17539 O 1631.18 -1.88911 -0.518605 0
M  V30 17540 H 1629.76 -0.404186 0.628206 0
M  V30 17541 H 1632.43 -0.390491 1.90948 0
M  V30 17542 H 1631.52 -1.76668 2.57284 0
M  V30 17543 N 1631.82 -1.45363 -0.608876 0
M  V30 17544 C 1632.79 -1.53551 -1.70161 0
M  V30 17545 C 1633.79 -0.415146 -1.55349 0
M  V30 17546 O 1634.98 -0.67858 -1.6044 0
M  V30 17547 C 1632.11 -1.43081 -3.0942 0
M  V30 17548 H 1633.3 -2.5091 -1.64268 0
M  V30 17549 H 1630.85 -1.32785 -0.824493 0
M  V30 17550 H 1631.59 -0.469016 -3.20891 0
M  V30 17551 H 1631.37 -2.24343 -3.21579 0
M  V30 17552 H 1632.86 -1.51841 -3.89017 0
M  V30 17553 N 1633.3 0.851265 -1.32632 0
M  V30 17554 C 1634.25 1.98152 -1.21813 0
M  V30 17555 C 1635.24 1.68959 -0.122182 0
M  V30 17556 O 1636.45 1.77724 -0.285332 0
M  V30 17557 H 1632.82 0.650275 -0.377686 0
M  V30 17558 H 1634.79 2.04405 -2.17397 0
M  V30 17559 C 1633.54 3.34141 -0.961521 0
M  V30 17560 H 1632.87 3.57136 -1.79704 0
M  V30 17561 H 1634.31 4.13763 -0.926077 0
M  V30 17562 C 1632.77 3.35223 0.335704 0
M  V30 17563 O 1633.3 3.78461 1.34647 0
M  V30 17564 N 1631.5 2.88376 0.358875 0
M  V30 17565 H 1631.05 2.53383 -0.464194 0
M  V30 17566 H 1631.01 2.89482 1.22668 0
M  V30 17567 N 1634.78 1.15898 1.06796 0
M  V30 17568 C 1635.71 0.88395 2.16122 0
M  V30 17569 C 1636.69 -0.167708 1.69271 0
M  V30 17570 O 1637.87 -0.0208846 1.94189 0
M  V30 17571 C 1635 0.378656 3.4523 0
M  V30 17572 C 1633.96 1.36764 4.05561 0
M  V30 17573 C 1633.28 0.720956 5.29817 0
M  V30 17574 C 1634.58 2.73554 4.44933 0
M  V30 17575 H 1636.28 1.79818 2.39386 0
M  V30 17576 H 1633.82 0.866008 1.15049 0
M  V30 17577 H 1635.78 0.17376 4.21042 0
M  V30 17578 H 1634.5 -0.571063 3.21569 0
M  V30 17579 H 1633.16 1.55899 3.318 0
M  V30 17580 H 1632.81 -0.235089 5.0245 0
M  V30 17581 H 1632.51 1.38101 5.71141 0
M  V30 17582 H 1634.03 0.525963 6.0833 0
M  V30 17583 H 1635.45 2.58231 5.11849 0
M  V30 17584 H 1633.84 3.35986 4.97226 0
M  V30 17585 H 1634.91 3.29192 3.56034 0
M  V30 17586 N 1636.26 -1.25243 0.956659 0
M  V30 17587 C 1637.53 -1.88287 0.529832 0
M  V30 17588 C 1637.91 -1.8629 -0.992929 0
M  V30 17589 O 1637.26 -1.32785 -1.85958 0
M  V30 17590 C 1637.47 -3.30919 1.10877 0
M  V30 17591 C 1638.82 -4.07674 1.18687 0
M  V30 17592 O 1639.84 -3.40048 1.06047 0
M  V30 17593 O 1638.7 -5.28648 1.38541 0
M  V30 17594 H 1635.8 -0.808258 0.175066 0
M  V30 17595 H 1638.34 -1.33298 1.05022 0
M  V30 17596 H 1637.11 -3.26813 2.15195 0
M  V30 17597 H 1636.74 -3.93468 0.571755 0
M  V30 17598 N 1637.73 -0.725468 -1.3991 0
M  V30 17599 C 1639.01 -0.195971 -1.94616 0
M  V30 17600 C 1639.39 1.30035 -1.66295 0
M  V30 17601 O 1638.74 2.06133 -0.985977 0
M  V30 17602 C 1638.95 -0.519325 -3.45115 0
M  V30 17603 C 1640.3 -0.46341 -4.22064 0
M  V30 17604 O 1641.32 -0.455958 -3.5327 0
M  V30 17605 O 1640.18 -0.449579 -5.44648 0
M  V30 17606 H 1637.27 -0.0325409 -0.82636 0
M  V30 17607 H 1639.82 -0.803676 -1.49463 0
M  V30 17608 H 1638.59 -1.55386 -3.59125 0
M  V30 17609 H 1638.22 0.117838 -3.97425 0
M  V30 17610 N 1639.21 1.50354 -0.472382 0
M  V30 17611 C 1640.44 2.06446 0.0796976 0
M  V30 17612 C 1640.85 1.33626 1.33943 0
M  V30 17613 O 1640.19 0.399473 1.79304 0
M  V30 17614 C 1640.26 3.56889 0.432455 0
M  V30 17615 C 1639.92 4.51205 -0.725443 0
M  V30 17616 C 1640.92 4.94413 -1.60784 0
M  V30 17617 C 1638.6 4.93875 -0.916135 0
M  V30 17618 C 1640.6 5.78998 -2.66533 0
M  V30 17619 C 1638.28 5.78242 -1.97684 0
M  V30 17620 C 1639.28 6.20706 -2.8498 0
M  V30 17621 O 1638.97 7.03391 -3.89224 0
M  V30 17622 H 1638.7 0.675986 -0.00433625 0
M  V30 17623 H 1641.25 1.94489 -0.660558 0
M  V30 17624 H 1639.48 3.66754 1.22591 0
M  V30 17625 H 1641.17 3.95342 0.919769 0
M  V30 17626 H 1641.94 4.62116 -1.47221 0
M  V30 17627 H 1637.82 4.60343 -0.246124 0
M  V30 17628 H 1641.36 6.12063 -3.34701 0
M  V30 17629 H 1637.26 6.09953 -2.11254 0
M  V30 17630 H 1638.03 7.21644 -3.86229 0
M  V30 17631 N 1640.69 0.205039 1.56261 0
M  V30 17632 C 1641.62 -0.706815 2.22545 0
M  V30 17633 C 1642.6 -1.21372 1.19176 0
M  V30 17634 O 1643.79 -1.26074 1.47712 0
M  V30 17635 C 1640.92 -1.92221 2.89255 0
M  V30 17636 C 1639.87 -1.54982 3.98954 0
M  V30 17637 C 1639.2 -2.84265 4.52877 0
M  V30 17638 C 1640.5 -0.75225 5.16854 0
M  V30 17639 H 1642.19 -0.15421 2.99003 0
M  V30 17640 H 1639.74 -0.0727309 1.43816 0
M  V30 17641 H 1641.69 -2.56542 3.34311 0
M  V30 17642 H 1640.41 -2.49952 2.10218 0
M  V30 17643 H 1639.07 -0.930155 3.54604 0
M  V30 17644 H 1638.72 -3.40105 3.70591 0
M  V30 17645 H 1638.42 -2.60089 5.26904 0
M  V30 17646 H 1639.95 -3.49557 5.00642 0
M  V30 17647 H 1641.36 -1.29878 5.58395 0
M  V30 17648 H 1639.76 -0.60823 5.9701 0
M  V30 17649 H 1640.83 0.24463 4.84283 0
M  V30 17650 N 1642.17 -1.57451 -0.0684915 0
M  V30 17651 C 1643.12 -2.00364 -1.08803 0
M  V30 17652 C 1644.1 -0.886239 -1.34293 0
M  V30 17653 O 1645.3 -1.15015 -1.34538 0
M  V30 17654 C 1642.42 -2.45387 -2.40083 0
M  V30 17655 C 1641.51 -3.63869 -2.17853 0
M  V30 17656 N 1641.9 -4.77936 -1.65562 0
M  V30 17657 C 1640.2 -3.70482 -2.48312 0
M  V30 17658 C 1640.9 -5.59768 -1.58223 0
M  V30 17659 N 1639.88 -5.03711 -2.04392 0
M  V30 17660 H 1643.68 -2.85994 -0.6771 0
M  V30 17661 H 1641.19 -1.60046 -0.275509 0
M  V30 17662 H 1643.19 -2.74372 -3.13888 0
M  V30 17663 H 1641.85 -1.61146 -2.8189 0
M  V30 17664 H 1642.86 -5.00163 -1.34379 0
M  V30 17665 H 1639.54 -2.96961 -2.93463 0
M  V30 17666 H 1640.93 -6.61346 -1.18619 0
M  V30 17667 N 1643.65 0.339955 -1.5389 0
M  V30 17668 C 1644.58 1.42316 -1.85117 0
M  V30 17669 C 1645.56 1.5473 -0.706591 0
M  V30 17670 O 1646.74 1.68879 -0.958834 0
M  V30 17671 C 1643.87 2.79317 -2.06396 0
M  V30 17672 C 1642.83 2.81707 -3.22219 0
M  V30 17673 C 1642.15 4.21627 -3.28838 0
M  V30 17674 C 1643.45 2.46921 -4.60247 0
M  V30 17675 H 1645.15 1.16431 -2.75834 0
M  V30 17676 H 1642.69 0.558661 -1.32721 0
M  V30 17677 H 1644.65 3.55145 -2.26826 0
M  V30 17678 H 1643.37 3.06644 -1.12414 0
M  V30 17679 H 1642.03 2.08332 -3.01651 0
M  V30 17680 H 1641.68 4.4607 -2.32444 0
M  V30 17681 H 1641.38 4.24137 -4.06672 0
M  V30 17682 H 1642.9 4.99292 -3.51482 0
M  V30 17683 H 1644.32 3.12462 -4.80667 0
M  V30 17684 H 1642.71 2.60707 -5.40511 0
M  V30 17685 H 1643.78 1.421 -4.63611 0
M  V30 17686 N 1645.13 1.45684 0.601159 0
M  V30 17687 C 1646.06 1.57694 1.72206 0
M  V30 17688 C 1647.04 0.428141 1.64624 0
M  V30 17689 O 1648.22 0.65209 1.82925 0
M  V30 17690 C 1645.35 1.54941 3.10822 0
M  V30 17691 C 1644.31 2.68603 3.33222 0
M  V30 17692 C 1643.63 2.50906 4.72176 0
M  V30 17693 C 1644.93 4.10568 3.22849 0
M  V30 17694 H 1646.63 2.51521 1.62412 0
M  V30 17695 H 1644.17 1.2105 0.779929 0
M  V30 17696 H 1646.12 1.61939 3.89042 0
M  V30 17697 H 1644.85 0.576471 3.21472 0
M  V30 17698 H 1643.51 2.61043 2.57394 0
M  V30 17699 H 1643.16 1.51736 4.79568 0
M  V30 17700 H 1642.86 3.27131 4.88118 0
M  V30 17701 H 1644.38 2.59767 5.52588 0
M  V30 17702 H 1645.79 4.19336 3.90935 0
M  V30 17703 H 1644.19 4.87234 3.50318 0
M  V30 17704 H 1645.26 4.32022 2.20192 0
M  V30 17705 N 1646.6 -0.84422 1.33082 0
M  V30 17706 C 1647.53 -1.96899 1.25511 0
M  V30 17707 C 1648.51 -1.69549 0.13677 0
M  V30 17708 O 1649.7 -1.9145 0.325667 0
M  V30 17709 C 1646.83 -3.32947 0.988094 0
M  V30 17710 C 1645.78 -3.7468 2.06879 0
M  V30 17711 C 1645.11 -5.08475 1.65401 0
M  V30 17712 C 1646.41 -3.89033 3.48498 0
M  V30 17713 H 1648.1 -2.03491 2.19617 0
M  V30 17714 H 1645.65 -0.977659 1.05725 0
M  V30 17715 H 1647.6 -4.11198 0.921645 0
M  V30 17716 H 1646.33 -3.26598 0.0114067 0
M  V30 17717 H 1644.99 -2.98689 2.12557 0
M  V30 17718 H 1644.63 -4.98592 0.66449 0
M  V30 17719 H 1644.33 -5.37368 2.37717 0
M  V30 17720 H 1645.86 -5.89207 1.60212 0
M  V30 17721 H 1647.27 -4.57609 3.4535 0
M  V30 17722 H 1645.67 -4.29357 4.19253 0
M  V30 17723 H 1646.74 -2.91639 3.87395 0
M  V30 17724 N 1648.08 -1.16463 -1.0618 0
M  V30 17725 C 1649.49 -0.95436 -1.60465 0
M  V30 17726 C 1649.84 0.501455 -1.89684 0
M  V30 17727 O 1648.97 1.37488 -1.67111 0
M  V30 17728 C 1649.56 -1.72603 -2.91537 0
M  V30 17729 C 1648.12 -1.56071 -3.42518 0
M  V30 17730 C 1647.27 -1.73403 -2.16395 0
M  V30 17731 H 1650.22 -1.31316 -0.891166 0
M  V30 17732 H 1650.24 -1.20252 -3.60998 0
M  V30 17733 H 1649.75 -2.78554 -2.70239 0
M  V30 17734 H 1647.85 -0.525652 -3.68874 0
M  V30 17735 H 1647.97 -2.34533 -4.17769 0
M  V30 17736 H 1646.33 -1.16155 -2.26672 0
M  V30 17737 H 1647.11 -2.80745 -1.97578 0
M  V30 17738 N 1649.56 1.24734 -0.963288 0
M  V30 17739 C 1650.97 1.7456 -0.662246 0
M  V30 17740 C 1651.32 1.78143 0.822169 0
M  V30 17741 O 1650.45 1.40794 1.64335 0
M  V30 17742 C 1651.04 3.1701 -1.19542 0
M  V30 17743 C 1649.6 3.64361 -0.944371 0
M  V30 17744 C 1648.75 2.4314 -1.33335 0
M  V30 17745 H 1651.7 1.10498 -1.13911 0
M  V30 17746 H 1651.72 3.76362 -0.559601 0
M  V30 17747 H 1651.23 3.1437 -2.27581 0
M  V30 17748 H 1649.33 3.72405 0.120682 0
M  V30 17749 H 1649.45 4.52055 -1.58692 0
M  V30 17750 H 1647.81 2.43354 -0.751729 0
M  V30 17751 H 1648.59 2.43185 -2.42314 0
M  V30 17752 N 1651.04 0.732878 1.39523 0
M  V30 17753 C 1652.29 0.276787 1.99792 0
M  V30 17754 C 1652.6 -1.14181 1.58814 0
M  V30 17755 O 1653.81 -1.69731 2.11905 0
M  V30 17756 C 1652.26 0.443924 3.57152 0
M  V30 17757 C 1651.87 1.87027 4.07093 0
M  V30 17758 C 1653.61 0.0495022 4.24471 0
M  V30 17759 C 1651.52 1.98708 5.57018 0
M  V30 17760 H 1650.45 0.0997337 0.747375 0
M  V30 17761 H 1653.1 0.906454 1.59548 0
M  V30 17762 H 1651.48 -0.254605 3.95181 0
M  V30 17763 H 1652.66 2.60059 3.80403 0
M  V30 17764 H 1650.97 2.21772 3.52429 0
M  V30 17765 H 1653.57 0.115815 5.34575 0
M  V30 17766 H 1653.91 -0.994967 4.04235 0
M  V30 17767 H 1654.45 0.69911 3.91609 0
M  V30 17768 H 1651.18 3.01336 5.82131 0
M  V30 17769 H 1650.7 1.30111 5.85518 0
M  V30 17770 H 1652.38 1.76725 6.22396 0
M  V30 17771 N 1652.52 -1.50101 0.480349 0
M  V30 17772 C 1653.76 -2.02674 -0.0715373 0
M  V30 17773 C 1654.09 -1.36095 -1.38535 0
M  V30 17774 O 1653.37 -0.489703 -1.88234 0
M  V30 17775 C 1653.65 -3.59261 -0.245693 0
M  V30 17776 C 1653.51 -4.36399 1.08979 0
M  V30 17777 C 1654.82 -4.28682 -0.995966 0
M  V30 17778 H 1651.94 -0.736592 -0.0245244 0
M  V30 17779 H 1654.59 -1.7933 0.627743 0
M  V30 17780 H 1652.74 -3.79281 -0.841308 0
M  V30 17781 H 1654.41 -4.27926 1.72269 0
M  V30 17782 H 1652.65 -3.99773 1.68417 0
M  V30 17783 H 1653.32 -5.44254 0.921468 0
M  V30 17784 H 1655.8 -4.13193 -0.491025 0
M  V30 17785 H 1654.67 -5.38037 -1.08663 0
M  V30 17786 H 1654.93 -3.92491 -2.03479 0
M  V30 17787 N 1653.99 -0.213323 -1.5615 0
M  V30 17788 C 1654.94 0.700175 -2.19923 0
M  V30 17789 C 1655.91 1.19641 -1.15218 0
M  V30 17790 O 1657.1 1.257 -1.43542 0
M  V30 17791 C 1654.24 1.90629 -2.87671 0
M  V30 17792 C 1653.35 1.44973 -4.06948 0
M  V30 17793 C 1652.48 2.61277 -4.62502 0
M  V30 17794 C 1651.52 2.12316 -5.74098 0
M  V30 17795 N 1650.66 3.21862 -6.23978 0
M  V30 17796 H 1655.5 0.14961 -2.97624 0
M  V30 17797 H 1653.04 0.0620957 -1.46969 0
M  V30 17798 H 1654.99 2.61431 -3.2513 0
M  V30 17799 H 1653.62 2.42987 -2.12502 0
M  V30 17800 H 1652.68 0.636917 -3.7503 0
M  V30 17801 H 1653.99 1.05065 -4.87609 0
M  V30 17802 H 1653.14 3.40174 -5.02361 0
M  V30 17803 H 1651.88 3.04468 -3.80987 0
M  V30 17804 H 1650.89 1.31877 -5.33749 0
M  V30 17805 H 1652.11 1.70134 -6.57443 0
M  V30 17806 H 1650.06 3.64551 -5.45379 0
M  V30 17807 H 1649.97 2.86181 -6.9974 0
M  V30 17808 H 1651.24 4.0092 -6.68493 0
M  V30 17809 N 1655.47 1.57485 0.0601405 0
M  V30 17810 C 1656.4 2.07525 1.07031 0
M  V30 17811 C 1657.38 0.971136 1.39653 0
M  V30 17812 O 1658.57 1.24456 1.49078 0
M  V30 17813 C 1655.7 2.52888 2.38044 0
M  V30 17814 C 1654.65 3.67282 2.19745 0
M  V30 17815 C 1653.98 3.98741 3.56244 0
M  V30 17816 C 1655.28 4.96896 1.60908 0
M  V30 17817 H 1656.97 2.92173 0.653875 0
M  V30 17818 H 1654.52 1.40555 0.313083 0
M  V30 17819 H 1656.47 2.8651 3.09014 0
M  V30 17820 H 1655.2 1.65284 2.81689 0
M  V30 17821 H 1653.85 3.33961 1.51213 0
M  V30 17822 H 1653.5 3.08249 3.97481 0
M  V30 17823 H 1653.2 4.75775 3.44836 0
M  V30 17824 H 1654.73 4.34869 4.28627 0
M  V30 17825 H 1656.14 5.28674 2.21758 0
M  V30 17826 H 1654.54 5.78332 1.60164 0
M  V30 17827 H 1655.61 4.81518 0.571671 0
M  V30 17828 N 1656.95 -0.331789 1.54068 0
M  V30 17829 C 1658.2 -1.07069 1.71879 0
M  V30 17830 C 1658.53 -1.88275 0.488139 0
M  V30 17831 O 1657.78 -1.88383 -0.53013 0
M  V30 17832 C 1658.08 -2.03015 2.94142 0
M  V30 17833 C 1657.75 -1.38029 4.29254 0
M  V30 17834 C 1656.41 -1.20036 4.65988 0
M  V30 17835 C 1658.76 -0.913164 5.13138 0
M  V30 17836 C 1656.09 -0.539664 5.84213 0
M  V30 17837 C 1658.44 -0.266329 6.32039 0
M  V30 17838 C 1657.1 -0.0741787 6.67459 0
M  V30 17839 H 1656.37 -0.391795 0.62895 0
M  V30 17840 H 1659.02 -0.348705 1.88298 0
M  V30 17841 H 1657.33 -2.81636 2.72375 0
M  V30 17842 H 1659.02 -2.60201 3.05117 0
M  V30 17843 H 1655.61 -1.53034 4.00348 0
M  V30 17844 H 1659.8 -1.03999 4.85281 0
M  V30 17845 H 1655.05 -0.379516 6.10221 0
M  V30 17846 H 1659.23 0.103668 6.96323 0
M  V30 17847 H 1656.85 0.43981 7.58927 0
M  V30 17848 N 1658.43 -1.46001 -0.593424 0
M  V30 17849 C 1659.71 -1.4123 -1.35327 0
M  V30 17850 C 1660.09 -0.0901956 -2.10907 0
M  V30 17851 O 1659.43 0.928102 -2.08803 0
M  V30 17852 C 1659.64 -2.63515 -2.28825 0
M  V30 17853 C 1660.99 -3.09208 -2.90991 0
M  V30 17854 O 1662.02 -2.63988 -2.39142 0
M  V30 17855 O 1660.87 -3.87723 -3.8514 0
M  V30 17856 H 1657.97 -0.561132 -0.607503 0
M  V30 17857 H 1660.51 -1.58151 -0.615333 0
M  V30 17858 H 1659.29 -3.51308 -1.72333 0
M  V30 17859 H 1658.91 -2.48999 -3.09976 0
M  V30 17860 N 1659.91 0.83715 -1.33527 0
M  V30 17861 C 1660.87 1.92865 -1.23837 0
M  V30 17862 C 1661.87 1.60032 -0.157005 0
M  V30 17863 O 1663.06 1.69339 -0.408654 0
M  V30 17864 C 1660.19 3.28568 -0.908617 0
M  V30 17865 H 1661.38 2.02883 -2.20859 0
M  V30 17866 H 1658.94 1.02944 -1.1761 0
M  V30 17867 H 1659.67 3.24246 0.0590328 0
M  V30 17868 H 1659.46 3.53779 -1.69064 0
M  V30 17869 H 1660.95 4.0853 -0.86561 0
M  V30 17870 N 1661.38 1.17024 1.05561 0
M  V30 17871 C 1662.8 0.962856 1.59956 0
M  V30 17872 C 1663.15 -0.491388 1.89947 0
M  V30 17873 O 1662.27 -1.366 1.67838 0
M  V30 17874 C 1662.87 1.74146 2.90617 0
M  V30 17875 C 1661.43 1.57885 3.41686 0
M  V30 17876 C 1660.57 1.74548 2.15472 0
M  V30 17877 H 1663.52 1.31787 0.88419 0
M  V30 17878 H 1663.54 1.22165 3.60355 0
M  V30 17879 H 1663.06 2.79984 2.68758 0
M  V30 17880 H 1661.16 0.545207 3.6859 0
M  V30 17881 H 1661.27 2.36745 4.16519 0
M  V30 17882 H 1659.63 1.17356 2.26052 0
M  V30 17883 H 1660.42 2.81789 1.96087 0
M  V30 17884 N 1662.86 -1.24221 0.969889 0
M  V30 17885 C 1663.77 -2.29001 0.509467 0
M  V30 17886 C 1664.79 -1.68587 -0.430637 0
M  V30 17887 O 1665.96 -1.99106 -0.303142 0
M  V30 17888 C 1663.03 -3.46174 -0.190906 0
M  V30 17889 C 1662.09 -4.21982 0.789296 0
M  V30 17890 C 1661.32 -5.3356 0.122252 0
M  V30 17891 O 1661.55 -5.59909 -1.08896 0
M  V30 17892 O 1660.48 -5.9635 0.815517 0
M  V30 17893 H 1664.31 -2.70506 1.38058 0
M  V30 17894 H 1661.89 -1.29955 0.737028 0
M  V30 17895 H 1663.77 -4.1733 -0.584244 0
M  V30 17896 H 1662.45 -3.06642 -1.03695 0
M  V30 17897 H 1661.36 -3.53192 1.23313 0
M  V30 17898 H 1662.69 -4.65337 1.60382 0
M  V30 17899 N 1664.34 -0.740267 -1.39132 0
M  V30 17900 C 1665.3 -0.112183 -2.28925 0
M  V30 17901 C 1666.3 0.661598 -1.46559 0
M  V30 17902 O 1667.49 0.489835 -1.67171 0
M  V30 17903 C 1664.63 0.850121 -3.3013 0
M  V30 17904 H 1665.82 -0.903339 -2.85972 0
M  V30 17905 H 1663.37 -0.506427 -1.47868 0
M  V30 17906 H 1664.11 1.66744 -2.78149 0
M  V30 17907 H 1663.89 0.297847 -3.90967 0
M  V30 17908 H 1665.38 1.28599 -3.97306 0
M  V30 17909 N 1665.82 1.49844 -0.488302 0
M  V30 17910 C 1667.23 1.86663 -0.037377 0
M  V30 17911 C 1667.58 1.40172 1.37281 0
M  V30 17912 O 1666.71 0.77409 2.02081 0
M  V30 17913 C 1667.3 3.38745 -0.0610523 0
M  V30 17914 C 1665.86 3.74911 0.334475 0
M  V30 17915 C 1665.01 2.73801 -0.439109 0
M  V30 17916 H 1667.96 1.42343 -0.70173 0
M  V30 17917 H 1667.98 3.7329 0.737203 0
M  V30 17918 H 1667.49 3.72551 -1.08753 0
M  V30 17919 H 1665.59 3.4671 1.36466 0
M  V30 17920 H 1665.7 4.79094 0.0238536 0
M  V30 17921 H 1664.07 2.54465 0.109433 0
M  V30 17922 H 1664.85 3.10452 -1.46542 0
M  V30 17923 N 1667.3 0.221601 1.56034 0
M  V30 17924 C 1668.23 -0.683171 2.23282 0
M  V30 17925 C 1669.21 -1.20101 1.20456 0
M  V30 17926 O 1670.39 -1.245 1.49041 0
M  V30 17927 C 1667.52 -1.89143 2.91277 0
M  V30 17928 C 1666.48 -1.50742 4.00576 0
M  V30 17929 C 1665.8 -2.79446 4.55867 0
M  V30 17930 C 1667.1 -0.697388 5.17623 0
M  V30 17931 H 1668.8 -0.122488 2.99149 0
M  V30 17932 H 1666.34 -0.0574732 1.43885 0
M  V30 17933 H 1668.3 -2.52982 3.37013 0
M  V30 17934 H 1667.02 -2.47708 2.12858 0
M  V30 17935 H 1665.68 -0.892492 3.5557 0
M  V30 17936 H 1665.33 -3.36155 3.74177 0
M  V30 17937 H 1665.03 -2.54486 5.29633 0
M  V30 17938 H 1666.55 -3.44228 5.04321 0
M  V30 17939 H 1667.96 -1.23948 5.59741 0
M  V30 17940 H 1666.36 -0.544875 5.97621 0
M  V30 17941 H 1667.43 0.295981 4.83996 0
M  V30 17942 N 1668.77 -1.57515 -0.0517878 0
M  V30 17943 C 1670.19 -1.76755 -0.601218 0
M  V30 17944 C 1670.54 -0.849744 -1.76844 0
M  V30 17945 O 1669.66 -0.0387987 -2.16365 0
M  V30 17946 C 1670.26 -3.20534 -1.09743 0
M  V30 17947 C 1668.82 -3.41049 -1.59256 0
M  V30 17948 C 1667.96 -2.72369 -0.520618 0
M  V30 17949 H 1670.91 -1.57739 0.174429 0
M  V30 17950 H 1670.93 -3.25796 -1.96563 0
M  V30 17951 H 1670.45 -3.87309 -0.247696 0
M  V30 17952 H 1668.55 -2.79417 -2.46489 0
M  V30 17953 H 1668.66 -4.49581 -1.65572 0
M  V30 17954 H 1667.02 -2.3549 -0.97038 0
M  V30 17955 H 1667.81 -3.41812 0.319266 0
M  V30 17956 N 1670.25 0.323614 -1.54242 0
M  V30 17957 C 1671.48 1.08548 -1.76726 0
M  V30 17958 C 1671.9 1.8093 -0.514375 0
M  V30 17959 O 1671.26 1.73255 0.534069 0
M  V30 17960 C 1671.31 2.05928 -2.96017 0
M  V30 17961 O 1670.41 3.13825 -2.67559 0
M  V30 17962 H 1669.75 0.31297 -0.585616 0
M  V30 17963 H 1672.28 0.367925 -2.01265 0
M  V30 17964 H 1672.29 2.48799 -3.23362 0
M  V30 17965 H 1670.97 1.52646 -3.86875 0
M  V30 17966 H 1669.55 2.7563 -2.51163 0
M  V30 17967 N 1671.73 1.46313 0.585673 0
M  V30 17968 C 1673.15 1.31203 0.908733 0
M  V30 17969 C 1673.35 0.281265 1.99527 0
M  V30 17970 O 1672.4 -0.317202 2.505 0
M  V30 17971 C 1673.72 2.69742 1.3289 0
M  V30 17972 C 1675.26 2.77809 1.44191 0
M  V30 17973 C 1675.74 4.16924 1.89574 0
M  V30 17974 N 1677.23 4.19327 1.96773 0
M  V30 17975 C 1677.97 5.23856 2.33157 0
M  V30 17976 N 1677.46 6.38716 2.68355 0
M  V30 17977 N 1679.25 5.11221 2.33686 0
M  V30 17978 H 1671.41 2.11989 -0.132126 0
M  V30 17979 H 1673.67 0.947993 0.00355835 0
M  V30 17980 H 1673.37 3.46465 0.604557 0
M  V30 17981 H 1673.25 2.99653 2.29102 0
M  V30 17982 H 1675.64 2.01377 2.15712 0
M  V30 17983 H 1675.72 2.51587 0.46237 0
M  V30 17984 H 1675.36 4.93851 1.18633 0
M  V30 17985 H 1675.29 4.40552 2.88481 0
M  V30 17986 H 1677.78 3.36451 1.72073 0
M  V30 17987 H 1678.09 7.14253 2.95063 0
M  V30 17988 H 1676.44 6.42082 2.66 0
M  V30 17989 H 1679.63 4.20527 2.05609 0
M  V30 17990 H 1679.8 5.92798 2.61714 0
M  V30 17991 N 1673.21 -0.830057 1.33969 0
M  V30 17992 C 1674.16 -1.94049 1.24955 0
M  V30 17993 C 1675.13 -1.65619 0.126279 0
M  V30 17994 O 1676.31 -1.88329 0.306049 0
M  V30 17995 C 1673.45 -3.30182 1.00367 0
M  V30 17996 C 1672.56 -3.70952 2.21402 0
M  V30 17997 C 1671.7 -4.95998 1.90157 0
M  V30 17998 C 1670.74 -5.29327 3.07374 0
M  V30 17999 N 1669.88 -6.45551 2.76059 0
M  V30 18000 H 1674.72 -2.01091 2.19923 0
M  V30 18001 H 1672.25 -0.983918 1.0935 0
M  V30 18002 H 1674.21 -4.08625 0.841516 0
M  V30 18003 H 1672.84 -3.22673 0.090692 0
M  V30 18004 H 1671.89 -2.8796 2.48563 0
M  V30 18005 H 1673.2 -3.91558 3.09004 0
M  V30 18006 H 1672.36 -5.8221 1.70636 0
M  V30 18007 H 1671.1 -4.77379 0.998045 0
M  V30 18008 H 1670.1 -4.41616 3.27499 0
M  V30 18009 H 1671.33 -5.4989 3.98495 0
M  V30 18010 H 1669.27 -6.28401 1.88275 0
M  V30 18011 H 1669.19 -6.66295 3.57193 0
M  V30 18012 H 1670.46 -7.34851 2.60026 0
M  V30 18013 N 1674.69 -1.17582 -1.04939 0
M  V30 18014 C 1675.65 -0.897095 -2.10914 0
M  V30 18015 C 1676.65 0.113823 -1.60397 0
M  V30 18016 O 1677.84 -0.118635 -1.73796 0
M  V30 18017 C 1674.97 -0.344251 -3.39157 0
M  V30 18018 H 1676.17 -1.83674 -2.37074 0
M  V30 18019 H 1673.72 -0.986634 -1.21224 0
M  V30 18020 H 1674.45 0.602417 -3.18656 0
M  V30 18021 H 1674.24 -1.07287 -3.77137 0
M  V30 18022 H 1675.73 -0.167644 -4.17263 0
M  V30 18023 N 1676.17 1.23705 -0.976463 0
M  V30 18024 C 1677.13 2.23257 -0.518533 0
M  V30 18025 C 1678.13 1.56006 0.3897 0
M  V30 18026 O 1679.32 1.73226 0.18394 0
M  V30 18027 C 1676.45 3.39997 0.247916 0
M  V30 18028 H 1677.64 2.65284 -1.39872 0
M  V30 18029 H 1675.2 1.3647 -0.761946 0
M  V30 18030 H 1675.93 3.03421 1.14482 0
M  V30 18031 H 1675.72 3.90013 -0.403975 0
M  V30 18032 H 1677.21 4.13868 0.557034 0
M  V30 18033 N 1677.64 0.747635 1.38738 0
M  V30 18034 C 1678.57 0.131317 2.3313 0
M  V30 18035 C 1679.55 -0.710229 1.54563 0
M  V30 18036 O 1680.74 -0.652631 1.82905 0
M  V30 18037 C 1677.87 -0.767168 3.38721 0
M  V30 18038 C 1676.82 -0.0288124 4.2799 0
M  V30 18039 C 1676.15 -1.04515 5.24386 0
M  V30 18040 C 1677.45 1.13608 5.09795 0
M  V30 18041 H 1679.14 0.91981 2.84921 0
M  V30 18042 H 1676.69 0.443764 1.36992 0
M  V30 18043 H 1678.64 -1.20796 4.03716 0
M  V30 18044 H 1677.37 -1.58792 2.85399 0
M  V30 18045 H 1676.03 0.392491 3.64493 0
M  V30 18046 H 1675.67 -1.8598 4.67355 0
M  V30 18047 H 1675.37 -0.555813 5.84965 0
M  V30 18048 H 1676.9 -1.48538 5.92257 0
M  V30 18049 H 1678.31 0.773129 5.68063 0
M  V30 18050 H 1676.71 1.55589 5.79579 0
M  V30 18051 H 1677.78 1.95182 4.43883 0
M  V30 18052 N 1679.12 -1.49583 0.496242 0
M  V30 18053 C 1680.03 -2.32808 -0.289404 0
M  V30 18054 C 1681.05 -1.44324 -0.971933 0
M  V30 18055 O 1682.22 -1.77352 -0.954366 0
M  V30 18056 C 1679.29 -3.19645 -1.34269 0
M  V30 18057 C 1678.35 -4.23975 -0.6741 0
M  V30 18058 C 1677.58 -5.06661 -1.6772 0
M  V30 18059 O 1677.81 -4.90792 -2.90654 0
M  V30 18060 O 1676.74 -5.89091 -1.23514 0
M  V30 18061 H 1680.57 -3.01164 0.391664 0
M  V30 18062 H 1678.15 -1.47162 0.257652 0
M  V30 18063 H 1680.03 -3.73453 -1.9522 0
M  V30 18064 H 1678.71 -2.53989 -2.00677 0
M  V30 18065 H 1677.61 -3.74092 -0.0249732 0
M  V30 18066 H 1678.95 -4.92172 -0.0525442 0
M  V30 18067 N 1680.6 -0.229873 -1.55915 0
M  V30 18068 C 1681.83 0.404189 -2.02914 0
M  V30 18069 C 1682.24 1.52758 -1.10952 0
M  V30 18070 O 1681.6 1.82101 -0.120685 0
M  V30 18071 C 1681.65 0.928016 -3.49385 0
M  V30 18072 O 1681.37 -0.150592 -4.37841 0
M  V30 18073 C 1682.87 1.63448 -4.12067 0
M  V30 18074 H 1680.09 0.0980294 -0.663801 0
M  V30 18075 H 1682.64 -0.34876 -2.01504 0
M  V30 18076 H 1680.79 1.63121 -3.51384 0
M  V30 18077 H 1681.21 0.244429 -5.2393 0
M  V30 18078 H 1682.68 1.95292 -5.16299 0
M  V30 18079 H 1683.16 2.55055 -3.57553 0
M  V30 18080 H 1683.76 0.976292 -4.13943 0
M  V30 18081 N 1682.08 1.5754 0.0434337 0
M  V30 18082 C 1683.32 1.88887 0.7382 0
M  V30 18083 C 1683.66 0.825827 1.75766 0
M  V30 18084 O 1682.93 -0.160797 1.93834 0
M  V30 18085 C 1683.21 3.30889 1.42072 0
M  V30 18086 C 1683.07 4.47874 0.415754 0
M  V30 18087 C 1684.39 3.71571 2.35846 0
M  V30 18088 H 1681.51 0.686975 0.266897 0
M  V30 18089 H 1684.15 1.9 0.00106957 0
M  V30 18090 H 1682.3 3.30071 2.04903 0
M  V30 18091 H 1683.97 4.60824 -0.209529 0
M  V30 18092 H 1682.21 4.32982 -0.266346 0
M  V30 18093 H 1682.88 5.44084 0.931509 0
M  V30 18094 H 1685.36 3.73663 1.83071 0
M  V30 18095 H 1684.24 4.71763 2.80589 0
M  V30 18096 H 1684.5 3.03041 3.21898 0
M  V30 18097 N 1683.56 -0.31543 1.54411 0
M  V30 18098 C 1684.83 -1.07113 1.63665 0
M  V30 18099 C 1685.21 -2.05671 0.475688 0
M  V30 18100 O 1684.56 -2.22288 -0.52918 0
M  V30 18101 C 1684.77 -1.76584 3.0103 0
M  V30 18102 C 1686.12 -2.29309 3.57355 0
M  V30 18103 O 1687.14 -1.86638 3.03388 0
M  V30 18104 O 1686 -3.07452 4.51814 0
M  V30 18105 H 1683.1 -0.494217 0.663083 0
M  V30 18106 H 1685.64 -0.31467 1.66757 0
M  V30 18107 H 1684.41 -1.0494 3.76966 0
M  V30 18108 H 1684.04 -2.5902 3.01653 0
M  V30 18109 N 1685.03 -1.46622 -0.577906 0
M  V30 18110 C 1686.45 -1.31683 -0.901762 0
M  V30 18111 C 1686.65 -0.291842 -1.99375 0
M  V30 18112 O 1685.71 0.303913 -2.50664 0
M  V30 18113 C 1687.02 -2.70443 -1.31457 0
M  V30 18114 C 1688.57 -2.7857 -1.42715 0
M  V30 18115 C 1689.04 -4.17923 -1.87361 0
M  V30 18116 N 1690.53 -4.20364 -1.94546 0
M  V30 18117 C 1691.27 -5.25085 -2.30376 0
M  V30 18118 N 1690.76 -6.4013 -2.64964 0
M  V30 18119 N 1692.56 -5.12453 -2.30972 0
M  V30 18120 H 1684.71 -2.11916 0.143367 0
M  V30 18121 H 1686.97 -0.947999 0.00146914 0
M  V30 18122 H 1686.68 -3.46781 -0.586174 0
M  V30 18123 H 1686.55 -3.00864 -2.2751 0
M  V30 18124 H 1688.94 -2.02518 -2.14641 0
M  V30 18125 H 1689.02 -2.51828 -0.449021 0
M  V30 18126 H 1688.66 -4.94473 -1.16012 0
M  V30 18127 H 1688.59 -4.42076 -2.8614 0
M  V30 18128 H 1691.08 -3.37359 -1.70286 0
M  V30 18129 H 1691.4 -7.15808 -2.91271 0
M  V30 18130 H 1689.74 -6.43483 -2.62591 0
M  V30 18131 H 1692.93 -4.21611 -2.03376 0
M  V30 18132 H 1693.11 -5.94178 -2.58566 0
M  V30 18133 N 1686.51 0.822941 -1.34408 0
M  V30 18134 C 1687.44 1.94878 -1.28627 0
M  V30 18135 C 1688.42 1.6931 -0.163727 0
M  V30 18136 O 1689.61 1.90908 -0.356083 0
M  V30 18137 C 1686.74 3.31333 -1.04094 0
M  V30 18138 C 1685.69 3.71341 -2.12814 0
M  V30 18139 C 1685.02 5.05779 -1.73469 0
M  V30 18140 C 1686.32 3.83439 -3.54643 0
M  V30 18141 H 1688.01 1.99972 -2.22827 0
M  V30 18142 H 1685.56 0.960715 -1.07267 0
M  V30 18143 H 1687.51 4.0968 -0.986947 0
M  V30 18144 H 1686.24 3.26539 -0.0633642 0
M  V30 18145 H 1684.89 2.95269 -2.17282 0
M  V30 18146 H 1684.54 4.97471 -0.743727 0
M  V30 18147 H 1684.24 5.33518 -2.46236 0
M  V30 18148 H 1685.77 5.86583 -1.69566 0
M  V30 18149 H 1687.18 4.52057 -3.52587 0
M  V30 18150 H 1685.58 4.22632 -4.2603 0
M  V30 18151 H 1686.65 2.85439 -3.91986 0
M  V30 18152 N 1687.99 1.18137 1.04314 0
M  V30 18153 C 1689.22 1.00002 1.81128 0
M  V30 18154 C 1689.63 -0.451609 1.83319 0
M  V30 18155 O 1688.99 -1.31367 1.26685 0
M  V30 18156 C 1689.04 1.54454 3.26843 0
M  V30 18157 O 1688.76 2.93933 3.24861 0
M  V30 18158 C 1690.26 1.40902 4.20311 0
M  V30 18159 H 1687.48 0.35327 0.570475 0
M  V30 18160 H 1690.03 1.56629 1.31482 0
M  V30 18161 H 1688.18 1.02009 3.73728 0
M  V30 18162 H 1688.6 3.19279 4.16127 0
M  V30 18163 H 1690.07 1.83803 5.205 0
M  V30 18164 H 1690.55 0.357371 4.37744 0
M  V30 18165 H 1691.15 1.92407 3.79288 0
M  V30 18166 N 1689.47 -1.23186 0.98301 0
M  V30 18167 C 1690.38 -2.28448 0.533727 0
M  V30 18168 C 1691.39 -1.69034 -0.412732 0
M  V30 18169 O 1692.57 -1.99416 -0.282007 0
M  V30 18170 C 1689.64 -3.46357 -0.154179 0
M  V30 18171 C 1688.7 -4.21121 0.834009 0
M  V30 18172 C 1687.93 -5.334 0.178836 0
M  V30 18173 O 1688.15 -5.61032 -1.02952 0
M  V30 18174 O 1687.09 -5.95451 0.878722 0
M  V30 18175 H 1690.91 -2.69027 1.40919 0
M  V30 18176 H 1688.5 -1.29166 0.75077 0
M  V30 18177 H 1690.38 -4.17926 -0.539947 0
M  V30 18178 H 1689.05 -3.07724 -1.00437 0
M  V30 18179 H 1687.96 -3.51864 1.27053 0
M  V30 18180 H 1689.29 -4.6361 1.65309 0
M  V30 18181 N 1690.95 -0.754982 -1.38339 0
M  V30 18182 C 1692.17 -0.321355 -2.04895 0
M  V30 18183 C 1692.6 1.04249 -1.56569 0
M  V30 18184 O 1691.95 1.66464 -0.718299 0
M  V30 18185 C 1692 -0.354873 -3.5885 0
M  V30 18186 O 1691.11 0.65063 -4.07235 0
M  V30 18187 H 1690.45 -0.142033 -0.648631 0
M  V30 18188 H 1692.98 -1.02649 -1.76987 0
M  V30 18189 H 1692.99 -0.206243 -4.07478 0
M  V30 18190 H 1691.66 -1.34994 -3.93382 0
M  V30 18191 H 1690.24 0.466498 -3.69971 0
M  V30 18192 N 1692.42 1.49318 -0.504168 0
M  V30 18193 C 1693.35 2.32027 0.261837 0
M  V30 18194 C 1694.34 1.4045 0.959575 0
M  V30 18195 O 1695.52 1.69357 0.950365 0
M  V30 18196 C 1692.65 3.21039 1.3248 0
M  V30 18197 C 1691.6 4.21435 0.746752 0
M  V30 18198 C 1690.93 4.99405 1.91047 0
M  V30 18199 C 1692.23 5.21631 -0.264315 0
M  V30 18200 H 1693.92 2.96317 -0.428544 0
M  V30 18201 H 1691.47 1.42497 -0.207539 0
M  V30 18202 H 1693.42 3.77714 1.86843 0
M  V30 18203 H 1692.15 2.54699 2.04441 0
M  V30 18204 H 1690.81 3.6591 0.22485 0
M  V30 18205 H 1690.45 4.29509 2.61784 0
M  V30 18206 H 1690.15 5.67338 1.52975 0
M  V30 18207 H 1691.68 5.58924 2.45837 0
M  V30 18208 H 1693.09 5.72981 0.191288 0
M  V30 18209 H 1691.49 5.97472 -0.561039 0
M  V30 18210 H 1692.56 4.70346 -1.17911 0
M  V30 18211 N 1693.9 0.238138 1.5579 0
M  V30 18212 C 1695.18 -0.438905 1.90612 0
M  V30 18213 C 1695.56 -1.76522 1.15773 0
M  V30 18214 O 1694.91 -2.26871 0.272363 0
M  V30 18215 C 1695.12 -0.615595 3.43528 0
M  V30 18216 C 1696.47 -0.915478 4.14613 0
M  V30 18217 O 1697.49 -0.70178 3.49218 0
M  V30 18218 O 1696.35 -1.32194 5.30271 0
M  V30 18219 H 1693.44 -0.234355 0.7931 0
M  V30 18220 H 1695.99 0.281555 1.67348 0
M  V30 18221 H 1694.76 0.319274 3.89995 0
M  V30 18222 H 1694.38 -1.38692 3.72626 0
M  V30 18223 N 1695.38 -1.57561 -0.0350783 0
M  V30 18224 C 1696.63 -1.88996 -0.727095 0
M  V30 18225 C 1696.96 -0.834671 -1.7568 0
M  V30 18226 O 1696.21 0.165098 -1.95002 0
M  V30 18227 C 1696.51 -3.27169 -1.43858 0
M  V30 18228 C 1696.18 -4.47589 -0.545421 0
M  V30 18229 C 1694.84 -4.80268 -0.2994 0
M  V30 18230 C 1697.19 -5.21151 0.0716124 0
M  V30 18231 C 1694.52 -5.839 0.57253 0
M  V30 18232 C 1696.87 -6.25709 0.931209 0
M  V30 18233 C 1695.53 -6.56866 1.18675 0
M  V30 18234 H 1694.8 -0.691586 -0.266063 0
M  V30 18235 H 1697.45 -1.91496 0.0129076 0
M  V30 18236 H 1695.76 -3.2063 -2.25175 0
M  V30 18237 H 1697.45 -3.48738 -1.97946 0
M  V30 18238 H 1694.04 -4.22034 -0.747323 0
M  V30 18239 H 1698.23 -4.96188 -0.105504 0
M  V30 18240 H 1693.48 -6.06418 0.778882 0
M  V30 18241 H 1697.66 -6.81855 1.41587 0
M  V30 18242 H 1695.28 -7.3699 1.86412 0
M  V30 18243 N 1696.86 0.307236 -1.54576 0
M  V30 18244 C 1698.09 1.06233 -1.77545 0
M  V30 18245 C 1698.5 1.81153 -0.5319 0
M  V30 18246 O 1697.86 1.75573 0.498044 0
M  V30 18247 C 1697.91 2.04775 -2.97908 0
M  V30 18248 O 1697.63 1.32896 -4.17457 0
M  V30 18249 C 1699.13 2.92373 -3.33216 0
M  V30 18250 H 1696.35 0.315318 -0.592297 0
M  V30 18251 H 1698.9 0.348403 -2.0151 0
M  V30 18252 H 1697.05 2.71679 -2.76169 0
M  V30 18253 H 1697.46 1.99022 -4.85274 0
M  V30 18254 H 1698.94 3.5738 -4.20694 0
M  V30 18255 H 1699.42 3.60343 -2.51097 0
M  V30 18256 H 1700.02 2.31009 -3.57093 0
M  V30 18257 N 1698.34 1.46926 0.570122 0
M  V30 18258 C 1699.61 1.43365 1.33063 0
M  V30 18259 C 1699.99 0.123738 2.10737 0
M  V30 18260 O 1699.34 -0.894766 2.10253 0
M  V30 18261 C 1699.55 2.67122 2.24604 0
M  V30 18262 C 1700.9 3.13798 2.86035 0
M  V30 18263 O 1701.92 2.67759 2.34912 0
M  V30 18264 O 1700.78 3.93801 3.78923 0
M  V30 18265 H 1697.88 0.570726 0.598499 0
M  V30 18266 H 1700.42 1.5911 0.590095 0
M  V30 18267 H 1699.19 3.54005 1.66722 0
M  V30 18268 H 1698.82 2.53899 3.05976 0
M  V30 18269 N 1699.82 -0.815801 1.34842 0
M  V30 18270 C 1701.05 -1.60164 1.30503 0
M  V30 18271 C 1701.45 -1.88809 -0.121561 0
M  V30 18272 O 1700.8 -1.48511 -1.08121 0
M  V30 18273 C 1700.86 -2.96361 2.03495 0
M  V30 18274 C 1700.52 -2.90577 3.52724 0
M  V30 18275 C 1701.52 -2.6466 4.47495 0
M  V30 18276 C 1699.2 -3.09985 3.9524 0
M  V30 18277 C 1701.2 -2.58212 5.82757 0
M  V30 18278 C 1698.89 -3.03161 5.306 0
M  V30 18279 C 1699.88 -2.77309 6.2417 0
M  V30 18280 O 1699.57 -2.70431 7.57048 0
M  V30 18281 H 1699.3 -0.504321 0.450151 0
M  V30 18282 H 1701.86 -1.02254 1.78139 0
M  V30 18283 H 1700.09 -3.56219 1.50483 0
M  V30 18284 H 1701.78 -3.57429 1.92353 0
M  V30 18285 H 1702.54 -2.49394 4.15966 0
M  V30 18286 H 1698.42 -3.2912 3.22801 0
M  V30 18287 H 1701.97 -2.37954 6.55762 0
M  V30 18288 H 1697.86 -3.17982 5.61745 0
M  V30 18289 H 1698.63 -2.86107 7.66867 0
M  V30 18290 N 1701.29 -1.18689 -1.03686 0
M  V30 18291 C 1702.26 -0.919415 -2.09951 0
M  V30 18292 C 1703.26 0.0968042 -1.60508 0
M  V30 18293 O 1704.45 -0.137062 -1.7366 0
M  V30 18294 C 1701.58 -0.380204 -3.38773 0
M  V30 18295 H 1702.77 -1.86178 -2.35112 0
M  V30 18296 H 1700.32 -0.999435 -1.20171 0
M  V30 18297 H 1701.06 0.568586 -3.19277 0
M  V30 18298 H 1700.84 -1.11281 -3.75977 0
M  V30 18299 H 1702.33 -0.211891 -4.17062 0
M  V30 18300 N 1702.77 1.22662 -0.989529 0
M  V30 18301 C 1704 1.95883 -0.681511 0
M  V30 18302 C 1704.42 1.72646 0.746646 0
M  V30 18303 O 1703.78 1.00358 1.5099 0
M  V30 18304 C 1703.83 3.46773 -0.988975 0
M  V30 18305 O 1702.93 4.12311 -0.0858485 0
M  V30 18306 H 1702.27 0.612916 -0.255401 0
M  V30 18307 H 1704.8 1.5585 -1.32559 0
M  V30 18308 H 1704.81 3.97273 -0.929426 0
M  V30 18309 H 1703.49 3.63011 -2.02967 0
M  V30 18310 H 1702.06 3.7236 -0.200592 0
M  V30 18311 N 1704.25 0.762308 1.37937 0
M  V30 18312 C 1705.67 0.440871 1.5339 0
M  V30 18313 C 1705.87 -1.04483 1.72295 0
M  V30 18314 O 1704.92 -1.83078 1.73892 0
M  V30 18315 C 1706.23 1.24772 2.73592 0
M  V30 18316 C 1707.78 1.23867 2.87447 0
M  V30 18317 C 1708.26 2.02866 4.10621 0
M  V30 18318 N 1709.75 2.00171 4.17715 0
M  V30 18319 C 1710.48 2.58086 5.12034 0
M  V30 18320 N 1709.98 3.2475 6.11972 0
M  V30 18321 N 1711.77 2.47968 5.04449 0
M  V30 18322 H 1703.92 1.72506 1.23916 0
M  V30 18323 H 1706.19 0.731791 0.602649 0
M  V30 18324 H 1705.89 2.30016 2.66056 0
M  V30 18325 H 1705.77 0.870485 3.67018 0
M  V30 18326 H 1708.15 0.194255 2.9446 0
M  V30 18327 H 1708.23 1.65548 1.95007 0
M  V30 18328 H 1707.88 3.07323 4.04369 0
M  V30 18329 H 1707.81 1.58574 5.02157 0
M  V30 18330 H 1710.3 1.5163 3.46146 0
M  V30 18331 H 1710.61 3.66339 6.80453 0
M  V30 18332 H 1708.96 3.28846 6.12279 0
M  V30 18333 H 1712.15 1.95509 4.25316 0
M  V30 18334 H 1712.32 2.93398 5.77773 0
M  V30 18335 N 1705.73 -1.49049 0.51208 0
M  V30 18336 C 1706.98 -2.01677 -0.0303931 0
M  V30 18337 C 1707.29 -1.39594 -1.37014 0
M  V30 18338 O 1708.5 -1.83615 -1.99994 0
M  V30 18339 C 1706.95 -3.59748 -0.104605 0
M  V30 18340 C 1706.56 -4.30808 1.22916 0
M  V30 18341 C 1708.3 -4.20283 -0.596854 0
M  V30 18342 C 1706.21 -5.80765 1.11651 0
M  V30 18343 H 1705.14 -0.753848 -0.015131 0
M  V30 18344 H 1707.79 -1.71482 0.653169 0
M  V30 18345 H 1706.17 -3.86707 -0.852859 0
M  V30 18346 H 1707.35 -4.15539 1.99158 0
M  V30 18347 H 1705.66 -3.82066 1.65573 0
M  V30 18348 H 1708.26 -5.30114 -0.698821 0
M  V30 18349 H 1708.6 -3.84392 -1.59838 0
M  V30 18350 H 1709.14 -3.97686 0.0951882 0
M  V30 18351 H 1705.87 -6.212 2.09264 0
M  V30 18352 H 1705.39 -5.98497 0.395167 0
M  V30 18353 H 1707.07 -6.42038 0.799782 0
M  V30 18354 N 1707.21 -0.246397 -1.55662 0
M  V30 18355 C 1708.45 0.378973 -1.98108 0
M  V30 18356 C 1708.77 1.59106 -1.13775 0
M  V30 18357 O 1709.97 2.28754 -1.46232 0
M  V30 18358 C 1708.43 0.725634 -3.52509 0
M  V30 18359 C 1708.04 -0.465024 -4.4558 0
M  V30 18360 C 1709.78 1.31522 -4.03611 0
M  V30 18361 C 1707.69 -0.0945447 -5.91324 0
M  V30 18362 H 1706.62 0.14537 -0.739854 0
M  V30 18363 H 1709.27 -0.346533 -1.80198 0
M  V30 18364 H 1707.65 1.50925 -3.66111 0
M  V30 18365 H 1708.83 -1.24236 -4.43736 0
M  V30 18366 H 1707.14 -0.969507 -4.04956 0
M  V30 18367 H 1709.74 1.60573 -5.1002 0
M  V30 18368 H 1710.08 2.23952 -3.50929 0
M  V30 18369 H 1710.61 0.594515 -3.93332 0
M  V30 18370 H 1707.35 -0.985965 -6.48042 0
M  V30 18371 H 1706.87 0.646601 -5.96305 0
M  V30 18372 H 1708.55 0.323447 -6.46191 0
M  V30 18373 N 1708.68 1.57577 0.026722 0
M  V30 18374 C 1709.63 2.03179 1.03452 0
M  V30 18375 C 1710.62 0.921533 1.31896 0
M  V30 18376 O 1711.81 1.18542 1.31442 0
M  V30 18377 C 1708.94 2.51666 2.33493 0
M  V30 18378 C 1708.02 3.69517 2.08129 0
M  V30 18379 N 1708.42 4.82158 1.52832 0
M  V30 18380 C 1706.71 3.76936 2.38402 0
M  V30 18381 C 1707.41 5.63766 1.43327 0
M  V30 18382 N 1706.39 5.08953 1.90965 0
M  V30 18383 H 1710.19 2.87689 0.601036 0
M  V30 18384 H 1707.71 1.6072 0.232979 0
M  V30 18385 H 1709.7 2.82597 3.06503 0
M  V30 18386 H 1708.36 1.68564 2.77518 0
M  V30 18387 H 1709.37 5.0355 1.21071 0
M  V30 18388 H 1706.05 3.04637 2.85486 0
M  V30 18389 H 1707.44 6.64259 1.01043 0
M  V30 18390 N 1710.16 -0.299034 1.54737 0
M  V30 18391 C 1711.57 -0.871897 1.6509 0
M  V30 18392 C 1711.92 -1.88013 0.560843 0
M  V30 18393 O 1711.05 -2.1428 -0.302194 0
M  V30 18394 C 1711.64 -1.5882 2.99269 0
M  V30 18395 C 1710.2 -2.10944 3.11736 0
M  V30 18396 C 1709.35 -0.942776 2.60782 0
M  V30 18397 H 1712.3 -0.0759883 1.58518 0
M  V30 18398 H 1712.32 -2.45387 2.90802 0
M  V30 18399 H 1711.83 -0.854144 3.78584 0
M  V30 18400 H 1709.93 -2.87391 2.37144 0
M  V30 18401 H 1710.05 -2.34262 4.17921 0
M  V30 18402 H 1708.41 -1.3289 2.17284 0
M  V30 18403 H 1709.19 -0.222646 3.42577 0
M  V30 18404 N 1711.64 -1.47227 -0.562322 0
M  V30 18405 C 1712.89 -1.52851 -1.31604 0
M  V30 18406 C 1713.2 -0.193236 -1.94643 0
M  V30 18407 O 1714.41 -0.127429 -2.71201 0
M  V30 18408 C 1712.86 -2.69422 -2.3862 0
M  V30 18409 C 1712.47 -4.09457 -1.81794 0
M  V30 18410 C 1714.22 -2.84334 -3.15205 0
M  V30 18411 C 1712.12 -5.17337 -2.8656 0
M  V30 18412 H 1711.05 -0.568923 -0.494816 0
M  V30 18413 H 1713.7 -1.73489 -0.597819 0
M  V30 18414 H 1712.09 -2.42153 -3.13333 0
M  V30 18415 H 1713.26 -4.46606 -1.13487 0
M  V30 18416 H 1711.57 -3.99387 -1.17811 0
M  V30 18417 H 1714.17 -3.621 -3.93431 0
M  V30 18418 H 1714.51 -1.9259 -3.69073 0
M  V30 18419 H 1715.05 -3.11348 -2.47603 0
M  V30 18420 H 1711.79 -6.1094 -2.37554 0
M  V30 18421 H 1711.31 -4.8471 -3.53293 0
M  V30 18422 H 1712.99 -5.44065 -3.50146 0
M  V30 18423 N 1713.12 0.808639 -1.35273 0
M  V30 18424 C 1714.36 1.56794 -1.28621 0
M  V30 18425 C 1714.7 1.93697 0.139686 0
M  V30 18426 O 1713.97 1.61185 1.08856 0
M  V30 18427 C 1714.25 2.85794 -2.19075 0
M  V30 18428 C 1714.11 2.5538 -3.70271 0
M  V30 18429 C 1715.43 3.87481 -2.08678 0
M  V30 18430 H 1712.55 0.568873 -0.468564 0
M  V30 18431 H 1715.19 0.930499 -1.65655 0
M  V30 18432 H 1713.34 3.40191 -1.87622 0
M  V30 18433 H 1715.01 2.07182 -4.12157 0
M  V30 18434 H 1713.25 1.88605 -3.90654 0
M  V30 18435 H 1713.92 3.47432 -4.28947 0
M  V30 18436 H 1716.4 3.42478 -2.36323 0
M  V30 18437 H 1715.28 4.75523 -2.7417 0
M  V30 18438 H 1715.54 4.29004 -1.06809 0
M  V30 18439 N 1714.6 1.19237 1.03055 0
M  V30 18440 C 1716.01 0.944224 1.28672 0
M  V30 18441 C 1716.21 -0.384378 1.978 0
M  V30 18442 O 1715.27 -1.11629 2.26484 0
M  V30 18443 C 1716.58 2.11704 2.13546 0
M  V30 18444 C 1718.13 2.15647 2.2686 0
M  V30 18445 C 1718.6 3.32375 3.15105 0
M  V30 18446 N 1720.1 3.323 3.22693 0
M  V30 18447 C 1720.83 4.19265 3.91158 0
M  V30 18448 N 1720.33 5.16381 4.61868 0
M  V30 18449 N 1722.12 4.07147 3.87541 0
M  V30 18450 H 1714.27 2.0472 0.565987 0
M  V30 18451 H 1716.53 0.895073 0.312328 0
M  V30 18452 H 1716.24 3.07845 1.70072 0
M  V30 18453 H 1716.11 2.08624 3.14254 0
M  V30 18454 H 1718.5 1.20078 2.69565 0
M  V30 18455 H 1718.58 2.22781 1.25708 0
M  V30 18456 H 1718.23 4.28222 2.73108 0
M  V30 18457 H 1718.16 3.22478 4.16312 0
M  V30 18458 H 1720.65 2.62 2.72331 0
M  V30 18459 H 1720.96 5.7909 5.11737 0
M  V30 18460 H 1719.3 5.20331 4.60739 0
M  V30 18461 H 1722.5 3.30555 3.31438 0
M  V30 18462 H 1722.67 4.75135 4.40625 0
M  V30 18463 N 1716.07 -1.22136 0.99602 0
M  V30 18464 C 1717.3 -1.94978 0.692172 0
M  V30 18465 C 1717.72 -1.73536 -0.743696 0
M  V30 18466 O 1717.07 -1.03637 -1.50219 0
M  V30 18467 C 1717.13 -3.47609 0.992498 0
M  V30 18468 O 1716.85 -3.68334 2.37195 0
M  V30 18469 C 1718.35 -4.37629 0.70679 0
M  V30 18470 H 1715.57 -0.620327 0.255802 0
M  V30 18471 H 1718.11 -1.55202 1.33164 0
M  V30 18472 H 1716.27 -3.85342 0.398785 0
M  V30 18473 H 1716.68 -4.62506 2.47362 0
M  V30 18474 H 1718.15 -5.43461 0.967173 0
M  V30 18475 H 1718.63 -4.37729 -0.359208 0
M  V30 18476 H 1719.24 -4.05528 1.2817 0
M  V30 18477 N 1717.55 -0.769612 -1.37531 0
M  V30 18478 C 1718.48 -0.168389 -2.32892 0
M  V30 18479 C 1719.46 0.685549 -1.55673 0
M  V30 18480 O 1720.65 0.62345 -1.8392 0
M  V30 18481 C 1717.78 0.713183 -3.39898 0
M  V30 18482 C 1716.73 -0.0392808 -4.27982 0
M  V30 18483 C 1716.06 0.961596 -5.25982 0
M  V30 18484 C 1717.36 -1.21704 -5.07923 0
M  V30 18485 H 1719.05 -0.965022 -2.83421 0
M  V30 18486 H 1716.6 -0.465502 -1.36268 0
M  V30 18487 H 1718.55 1.14358 -4.05586 0
M  V30 18488 H 1717.28 1.54231 -2.87889 0
M  V30 18489 H 1715.93 -0.450429 -3.63822 0
M  V30 18490 H 1715.58 1.78522 -4.70254 0
M  V30 18491 H 1715.28 0.462679 -5.85776 0
M  V30 18492 H 1716.81 1.39097 -5.94545 0
M  V30 18493 H 1718.22 -0.863405 -5.66761 0
M  V30 18494 H 1716.62 -1.6479 -5.77031 0
M  V30 18495 H 1717.69 -2.02219 -4.40722 0
M  V30 18496 N 1719.03 1.48775 -0.519977 0
M  V30 18497 C 1720.31 1.95429 0.0816701 0
M  V30 18498 C 1720.69 1.46199 1.52279 0
M  V30 18499 O 1720.04 0.684057 2.1802 0
M  V30 18500 C 1720.25 3.48991 -0.0252472 0
M  V30 18501 C 1721.59 4.24372 0.139099 0
M  V30 18502 O 1722.62 3.56166 0.0490322 0
M  V30 18503 O 1721.48 5.45524 0.326426 0
M  V30 18504 H 1718.57 0.822637 0.0848378 0
M  V30 18505 H 1721.12 1.5934 -0.583865 0
M  V30 18506 H 1719.89 3.77514 -1.02951 0
M  V30 18507 H 1719.51 3.91749 0.679588 0
M  V30 18508 N 1720.51 0.254649 1.55529 0
M  V30 18509 C 1721.44 -0.674506 2.1905 0
M  V30 18510 C 1722.45 -1.13297 1.16909 0
M  V30 18511 O 1723.64 -1.0584 1.43736 0
M  V30 18512 C 1720.74 -1.92951 2.78609 0
M  V30 18513 C 1719.92 -1.62123 4.06245 0
M  V30 18514 C 1718.97 -2.72661 4.50047 0
M  V30 18515 O 1718 -2.39717 5.1626 0
M  V30 18516 N 1719.2 -4.02315 4.18477 0
M  V30 18517 H 1721.97 -0.130956 2.99414 0
M  V30 18518 H 1719.53 0.0749176 1.61727 0
M  V30 18519 H 1721.52 -2.66155 3.04866 0
M  V30 18520 H 1720.09 -2.38265 2.02358 0
M  V30 18521 H 1719.31 -0.723991 3.87495 0
M  V30 18522 H 1720.6 -1.39 4.89445 0
M  V30 18523 H 1720 -4.3191 3.65336 0
M  V30 18524 H 1718.55 -4.7196 4.49552 0
M  V30 18525 N 1721.99 -1.57589 -0.0183649 0
M  V30 18526 C 1723.21 -1.94421 -0.722172 0
M  V30 18527 C 1723.64 -0.855471 -1.67521 0
M  V30 18528 O 1722.99 0.187954 -1.80323 0
M  V30 18529 C 1723.04 -3.30331 -1.44615 0
M  V30 18530 O 1722.15 -3.23337 -2.55982 0
M  V30 18531 H 1721.49 -0.63519 -0.193466 0
M  V30 18532 H 1724.02 -2.04579 0.0293527 0
M  V30 18533 H 1724.03 -3.65471 -1.8137 0
M  V30 18534 H 1722.7 -4.09132 -0.747256 0
M  V30 18535 H 1721.28 -2.99845 -2.21692 0
M  V30 18536 N 1723.46 0.290824 -1.54893 0
M  V30 18537 C 1724.88 0.86313 -1.6555 0
M  V30 18538 C 1725.23 1.87713 -0.570806 0
M  V30 18539 O 1724.35 2.14437 0.290826 0
M  V30 18540 C 1724.95 1.57231 -3.00107 0
M  V30 18541 C 1723.51 2.09288 -3.1285 0
M  V30 18542 C 1722.65 0.928933 -2.61278 0
M  V30 18543 H 1725.6 0.0675807 -1.58556 0
M  V30 18544 H 1725.62 2.43841 -2.92099 0
M  V30 18545 H 1725.14 0.834055 -3.79032 0
M  V30 18546 H 1723.24 2.86129 -2.38665 0
M  V30 18547 H 1723.35 2.32042 -4.19158 0
M  V30 18548 H 1721.71 1.31735 -2.17986 0
M  V30 18549 H 1722.5 0.204475 -3.42691 0
M  V30 18550 N 1724.94 1.47523 0.554506 0
M  V30 18551 C 1725.85 1.62851 1.68869 0
M  V30 18552 C 1726.87 0.511305 1.66318 0
M  V30 18553 O 1728.04 0.779195 1.85716 0
M  V30 18554 C 1725.11 1.64161 3.05372 0
M  V30 18555 C 1724.17 2.87327 3.1897 0
M  V30 18556 C 1723.4 2.88566 4.48961 0
M  V30 18557 O 1723.63 1.98937 5.34584 0
M  V30 18558 O 1722.56 3.80459 4.66406 0
M  V30 18559 H 1726.39 2.58826 1.5888 0
M  V30 18560 H 1723.97 1.3064 0.724822 0
M  V30 18561 H 1725.85 1.67686 3.866 0
M  V30 18562 H 1724.53 0.713534 3.15738 0
M  V30 18563 H 1723.44 2.89345 2.37129 0
M  V30 18564 H 1724.77 3.79438 3.13509 0
M  V30 18565 N 1726.42 -0.801453 1.357 0
M  V30 18566 C 1727.35 -1.92807 1.31711 0
M  V30 18567 C 1728.33 -1.69028 0.190642 0
M  V30 18568 O 1729.52 -1.90317 0.38641 0
M  V30 18569 C 1726.65 -3.29635 1.09352 0
M  V30 18570 C 1725.6 -3.67908 2.18695 0
M  V30 18571 C 1724.93 -5.02955 1.81494 0
M  V30 18572 C 1726.23 -3.77749 3.60698 0
M  V30 18573 H 1727.92 -1.96401 2.2598 0
M  V30 18574 H 1725.47 -0.943528 1.08782 0
M  V30 18575 H 1727.42 -4.08058 1.052 0
M  V30 18576 H 1726.14 -3.26396 0.115306 0
M  V30 18577 H 1724.8 -2.91775 2.21952 0
M  V30 18578 H 1724.45 -4.96225 0.822776 0
M  V30 18579 H 1724.15 -5.29533 2.54692 0
M  V30 18580 H 1725.67 -5.83811 1.78876 0
M  V30 18581 H 1727.09 -4.4639 3.59734 0
M  V30 18582 H 1725.49 -4.15801 4.327 0
M  V30 18583 H 1726.56 -2.79167 3.96477 0
M  V30 18584 N 1727.9 -1.19782 -1.02421 0
M  V30 18585 C 1729.31 -0.951034 -1.2817 0
M  V30 18586 C 1729.51 0.373883 -1.98001 0
M  V30 18587 O 1728.57 1.10427 -2.27073 0
M  V30 18588 C 1729.88 -2.12833 -2.12421 0
M  V30 18589 C 1731.43 -2.16847 -2.25713 0
M  V30 18590 C 1731.91 -3.34041 -3.13337 0
M  V30 18591 N 1733.4 -3.34007 -3.20926 0
M  V30 18592 C 1734.13 -4.21333 -3.88929 0
M  V30 18593 N 1733.63 -5.18823 -4.59123 0
M  V30 18594 N 1735.42 -4.09197 -3.85376 0
M  V30 18595 H 1727.57 -2.05017 -0.555122 0
M  V30 18596 H 1729.84 -0.896717 -0.307576 0
M  V30 18597 H 1729.54 -3.08742 -1.68437 0
M  V30 18598 H 1729.42 -2.10288 -3.13143 0
M  V30 18599 H 1731.8 -1.21506 -2.68924 0
M  V30 18600 H 1731.88 -2.23444 -1.24525 0
M  V30 18601 H 1731.53 -4.29665 -2.70833 0
M  V30 18602 H 1731.46 -3.24682 -4.14595 0
M  V30 18603 H 1733.95 -2.63441 -2.70938 0
M  V30 18604 H 1734.26 -5.81796 -5.08658 0
M  V30 18605 H 1732.61 -5.22767 -4.57973 0
M  V30 18606 H 1735.8 -3.32308 -3.2968 0
M  V30 18607 H 1735.97 -4.77465 -4.38099 0
M  V30 18608 N 1729.38 1.21606 -1.00248 0
M  V30 18609 C 1730.6 1.95149 -0.702249 0
M  V30 18610 C 1731.03 1.73429 0.728293 0
M  V30 18611 O 1730.39 1.01953 1.49917 0
M  V30 18612 C 1730.43 3.45705 -1.0257 0
M  V30 18613 O 1729.54 4.12196 -0.129575 0
M  V30 18614 H 1728.88 0.610173 -0.261888 0
M  V30 18615 H 1731.41 1.54435 -1.34205 0
M  V30 18616 H 1731.42 3.96265 -0.97151 0
M  V30 18617 H 1730.09 3.60838 -2.06806 0
M  V30 18618 H 1728.67 3.72126 -0.240074 0
M  V30 18619 N 1730.86 0.776895 1.37121 0
M  V30 18620 C 1732.08 0.355097 2.0383 0
M  V30 18621 C 1732.5 -1.02441 1.58591 0
M  V30 18622 O 1731.86 -1.65482 0.769533 0
M  V30 18623 C 1731.91 0.394984 3.59336 0
M  V30 18624 O 1731.63 1.72008 4.0292 0
M  V30 18625 C 1733.13 -0.0377636 4.43284 0
M  V30 18626 H 1730.35 0.148056 0.654462 0
M  V30 18627 H 1732.89 1.05225 1.75351 0
M  V30 18628 H 1731.05 -0.253638 3.86569 0
M  V30 18629 H 1731.46 1.66225 4.97463 0
M  V30 18630 H 1732.94 0.0412956 5.51985 0
M  V30 18631 H 1733.41 -1.08881 4.2549 0
M  V30 18632 H 1734.02 0.582867 4.21287 0
M  V30 18633 N 1732.33 -1.48497 0.527859 0
M  V30 18634 C 1733.3 -2.2809 -0.225312 0
M  V30 18635 C 1734.3 -1.35251 -0.869707 0
M  V30 18636 O 1735.49 -1.58163 -0.730086 0
M  V30 18637 C 1732.62 -3.14061 -1.32584 0
M  V30 18638 H 1733.81 -2.96139 0.473465 0
M  V30 18639 H 1731.36 -1.53703 0.283724 0
M  V30 18640 H 1732.1 -2.50638 -2.05794 0
M  V30 18641 H 1731.88 -3.82351 -0.868922 0
M  V30 18642 H 1733.37 -3.74106 -1.85566 0
M  V30 18643 N 1733.81 -0.262893 -1.55392 0
M  V30 18644 C 1734.74 0.670902 -2.18115 0
M  V30 18645 C 1735.72 1.1612 -1.13819 0
M  V30 18646 O 1736.91 1.23642 -1.42285 0
M  V30 18647 C 1734.03 1.91358 -2.79463 0
M  V30 18648 C 1733.08 1.5598 -3.96954 0
M  V30 18649 S 1733.91 0.648534 -5.31558 0
M  V30 18650 C 1735.07 1.89986 -5.96369 0
M  V30 18651 H 1735.3 0.137916 -2.9698 0
M  V30 18652 H 1732.83 -0.0472295 -1.54328 0
M  V30 18653 H 1734.79 2.62691 -3.15442 0
M  V30 18654 H 1733.45 2.4177 -2.00515 0
M  V30 18655 H 1732.65 2.48416 -4.38527 0
M  V30 18656 H 1732.25 0.926763 -3.62336 0
M  V30 18657 H 1734.54 2.84526 -6.14859 0
M  V30 18658 H 1735.48 1.52735 -6.91431 0
M  V30 18659 H 1735.89 2.05923 -5.256 0
M  V30 18660 N 1735.29 1.57597 0.0100073 0
M  V30 18661 C 1736.57 1.81329 0.733415 0
M  V30 18662 C 1736.95 0.865495 1.92542 0
M  V30 18663 O 1736.29 -0.088073 2.2833 0
M  V30 18664 C 1736.5 3.29559 1.14856 0
M  V30 18665 C 1737.85 3.95039 1.55658 0
M  V30 18666 O 1738.88 3.33822 1.24262 0
M  V30 18667 O 1737.74 5.02858 2.13999 0
M  V30 18668 H 1734.83 0.746334 0.35625 0
M  V30 18669 H 1737.38 1.69694 -0.0146791 0
M  V30 18670 H 1736.15 3.9016 0.298467 0
M  V30 18671 H 1735.77 3.46156 1.95607 0
M  V30 18672 N 1736.77 -0.282606 1.55045 0
M  V30 18673 C 1738 -1.03395 1.79212 0
M  V30 18674 C 1738.41 -1.80283 0.560652 0
M  V30 18675 O 1737.77 -1.76343 -0.470049 0
M  V30 18676 C 1737.82 -2.0001 3.01128 0
M  V30 18677 O 1737.54 -1.26238 4.19518 0
M  V30 18678 C 1739.04 -2.87035 3.37825 0
M  V30 18679 H 1736.26 -0.305855 0.597238 0
M  V30 18680 H 1738.8 -0.3163 2.02039 0
M  V30 18681 H 1736.96 -2.67251 2.80456 0
M  V30 18682 H 1737.37 -1.91277 4.88378 0
M  V30 18683 H 1738.85 -3.50642 4.26327 0
M  V30 18684 H 1739.32 -3.56303 2.56798 0
M  V30 18685 H 1739.93 -2.25298 3.60723 0
M  V30 18686 N 1738.25 -1.47815 -0.546675 0
M  V30 18687 C 1739.18 -1.63976 -1.66235 0
M  V30 18688 C 1740.16 -0.488945 -1.62921 0
M  V30 18689 O 1741.34 -0.719532 -1.80378 0
M  V30 18690 C 1738.47 -1.6637 -3.04858 0
M  V30 18691 C 1737.43 -2.80785 -3.23023 0
M  V30 18692 C 1736.75 -2.68257 -4.62539 0
M  V30 18693 C 1738.05 -4.22267 -3.07388 0
M  V30 18694 H 1739.75 -2.57375 -1.52965 0
M  V30 18695 H 1737.29 -1.23861 -0.734465 0
M  V30 18696 H 1739.24 -1.76266 -3.82764 0
M  V30 18697 H 1737.97 -0.695386 -3.19111 0
M  V30 18698 H 1736.63 -2.70417 -2.47529 0
M  V30 18699 H 1736.28 -1.69431 -4.73606 0
M  V30 18700 H 1735.98 -3.45022 -4.75641 0
M  V30 18701 H 1737.5 -2.80097 -5.42566 0
M  V30 18702 H 1738.91 -4.33557 -3.75102 0
M  V30 18703 H 1737.31 -4.999 -3.31994 0
M  V30 18704 H 1738.38 -4.39897 -2.04006 0
M  V30 18705 N 1739.72 0.794246 -1.36123 0
M  V30 18706 C 1740.95 1.58813 -1.33391 0
M  V30 18707 C 1741.37 1.87915 0.0834599 0
M  V30 18708 O 1740.73 1.47516 1.05398 0
M  V30 18709 C 1740.78 2.88887 -2.15816 0
M  V30 18710 O 1739.88 3.82271 -1.54734 0
M  V30 18711 H 1739.22 0.481924 -0.456777 0
M  V30 18712 H 1741.75 0.984818 -1.79339 0
M  V30 18713 H 1741.76 3.38201 -2.2822 0
M  V30 18714 H 1740.44 2.67032 -3.18852 0
M  V30 18715 H 1739.02 3.40852 -1.51242 0
M  V30 18716 N 1741.2 1.20323 1.01785 0
M  V30 18717 C 1742.43 1.03893 1.79502 0
M  V30 18718 C 1742.85 -0.407421 1.83635 0
M  V30 18719 O 1742.21 -1.29338 1.27049 0
M  V30 18720 C 1742.26 1.62562 3.21879 0
M  V30 18721 O 1741.36 0.862398 4.03282 0
M  V30 18722 H 1740.7 0.366479 0.553705 0
M  V30 18723 H 1743.23 1.59589 1.28034 0
M  V30 18724 H 1743.24 1.66244 3.72595 0
M  V30 18725 H 1741.92 2.67826 3.18186 0
M  V30 18726 H 1740.49 0.899687 3.61884 0
M  V30 18727 N 1742.68 -1.21073 1.00892 0
M  V30 18728 C 1743.61 -2.25847 0.592897 0
M  V30 18729 C 1744.59 -1.6561 -0.38824 0
M  V30 18730 O 1745.78 -1.92238 -0.275361 0
M  V30 18731 C 1742.91 -3.47214 -0.0773439 0
M  V30 18732 C 1741.86 -4.19994 0.82398 0
M  V30 18733 C 1741.19 -5.34696 0.0199341 0
M  V30 18734 C 1742.49 -4.76964 2.12844 0
M  V30 18735 H 1744.18 -2.609 1.46873 0
M  V30 18736 H 1741.73 -1.25412 0.707656 0
M  V30 18737 H 1743.68 -4.19684 -0.379889 0
M  V30 18738 H 1742.4 -3.11303 -0.987833 0
M  V30 18739 H 1741.06 -3.49379 1.11041 0
M  V30 18740 H 1740.71 -4.95028 -0.891966 0
M  V30 18741 H 1740.41 -5.84319 0.620102 0
M  V30 18742 H 1741.93 -6.09974 -0.276336 0
M  V30 18743 H 1743.35 -5.41293 1.88878 0
M  V30 18744 H 1741.74 -5.36992 2.67879 0
M  V30 18745 H 1742.81 -3.96129 2.79659 0
M  V30 18746 N 1744.16 -0.784156 -1.36707 0
M  V30 18747 C 1745.4 -0.354658 -1.99675 0
M  V30 18748 C 1745.74 1.06948 -1.62098 0
M  V30 18749 O 1745.01 1.73798 -0.873192 0
M  V30 18750 C 1745.3 -0.512421 -3.56435 0
M  V30 18751 C 1745.15 -1.97987 -4.03883 0
M  V30 18752 C 1746.47 0.075762 -4.40035 0
M  V30 18753 H 1743.59 -0.130338 -0.725383 0
M  V30 18754 H 1746.23 -0.989515 -1.62199 0
M  V30 18755 H 1744.38 0.0280323 -3.8849 0
M  V30 18756 H 1746.05 -2.58098 -3.82339 0
M  V30 18757 H 1744.29 -2.48433 -3.55617 0
M  V30 18758 H 1744.96 -2.04125 -5.12871 0
M  V30 18759 H 1747.44 -0.385522 -4.1431 0
M  V30 18760 H 1746.32 -0.0646832 -5.48862 0
M  V30 18761 H 1746.58 1.16735 -4.2641 0
M  V30 18762 N 1745.64 1.48215 -0.535727 0
M  V30 18763 C 1746.88 2.025 -0.00372753 0
M  V30 18764 C 1747.21 1.41227 1.33735 0
M  V30 18765 O 1746.47 0.549544 1.87826 0
M  V30 18766 C 1746.77 3.57036 0.161344 0
M  V30 18767 C 1746.43 4.37122 -1.10611 0
M  V30 18768 C 1745.09 4.58724 -1.45346 0
M  V30 18769 C 1747.45 4.83469 -1.94698 0
M  V30 18770 C 1744.77 5.2392 -2.64055 0
M  V30 18771 C 1747.13 5.49973 -3.1259 0
M  V30 18772 C 1745.79 5.69812 -3.47664 0
M  V30 18773 H 1745.06 0.740999 -0.001364 0
M  V30 18774 H 1747.71 1.78133 -0.70291 0
M  V30 18775 H 1746.01 3.80274 0.943337 0
M  V30 18776 H 1747.71 3.96666 0.587981 0
M  V30 18777 H 1744.3 4.20573 -0.825608 0
M  V30 18778 H 1748.48 4.66577 -1.69173 0
M  V30 18779 H 1743.74 5.37477 -2.91424 0
M  V30 18780 H 1747.91 5.84852 -3.78049 0
M  V30 18781 H 1745.54 6.20103 -4.39746 0
M  V30 18782 N 1747.11 0.27113 1.5525 0
M  V30 18783 C 1748.05 -0.651235 2.19753 0
M  V30 18784 C 1749.06 -1.12051 1.18104 0
M  V30 18785 O 1750.25 -1.0431 1.44851 0
M  V30 18786 C 1747.35 -1.89985 2.8064 0
M  V30 18787 C 1746.52 -1.57805 4.07942 0
M  V30 18788 C 1745.58 -2.67872 4.52914 0
M  V30 18789 O 1744.61 -2.34228 5.18774 0
M  V30 18790 N 1745.81 -3.97854 4.22721 0
M  V30 18791 H 1748.57 -0.0991913 2.99536 0
M  V30 18792 H 1746.13 0.0920667 1.61638 0
M  V30 18793 H 1748.13 -2.62907 3.07672 0
M  V30 18794 H 1746.7 -2.36105 2.04874 0
M  V30 18795 H 1745.92 -0.682852 3.88241 0
M  V30 18796 H 1747.2 -1.33801 4.90892 0
M  V30 18797 H 1746.6 -4.28011 3.69897 0
M  V30 18798 H 1745.16 -4.67165 4.54533 0
M  V30 18799 N 1748.59 -1.576 -0.00164943 0
M  V30 18800 C 1749.52 -2.11354 -0.992554 0
M  V30 18801 C 1750.5 -1.0223 -1.35952 0
M  V30 18802 O 1751.69 -1.29904 -1.44356 0
M  V30 18803 C 1748.82 -2.61549 -2.28494 0
M  V30 18804 C 1747.77 -3.75185 -2.05962 0
M  V30 18805 C 1747.1 -4.11688 -3.412 0
M  V30 18806 C 1748.4 -5.02526 -1.42355 0
M  V30 18807 H 1750.09 -2.94398 -0.544986 0
M  V30 18808 H 1747.64 -1.4162 -0.260702 0
M  V30 18809 H 1749.59 -2.97782 -2.98168 0
M  V30 18810 H 1748.32 -1.75625 -2.75361 0
M  V30 18811 H 1746.97 -3.39343 -1.38714 0
M  V30 18812 H 1746.62 -3.22789 -3.85767 0
M  V30 18813 H 1746.32 -4.88246 -3.2694 0
M  V30 18814 H 1747.85 -4.50478 -4.12192 0
M  V30 18815 H 1749.26 -5.3654 -2.01984 0
M  V30 18816 H 1747.66 -5.83878 -1.38589 0
M  V30 18817 H 1748.73 -4.83308 -0.392565 0
M  V30 18818 N 1750.07 0.274379 -1.55193 0
M  V30 18819 C 1751.32 1.00418 -1.75387 0
M  V30 18820 C 1751.64 1.86868 -0.557244 0
M  V30 18821 O 1750.91 1.9117 0.427883 0
M  V30 18822 H 1749.49 0.373753 -0.646775 0
M  V30 18823 H 1752.15 0.298942 -1.92594 0
M  V30 18824 H 1751.25 1.64191 -2.6542 0
M  V30 18825 N 1751.55 1.48103 0.538828 0
M  V30 18826 C 1752.5 1.61966 1.64425 0
M  V30 18827 C 1753.47 0.461999 1.59546 0
M  V30 18828 O 1754.65 0.684377 1.78104 0
M  V30 18829 C 1751.79 1.65711 3.02711 0
M  V30 18830 C 1750.9 2.92522 3.17891 0
M  V30 18831 C 1750.04 2.87485 4.46683 0
M  V30 18832 C 1749.08 4.0904 4.5536 0
M  V30 18833 N 1748.21 4.02131 5.7553 0
M  V30 18834 H 1753.05 2.5637 1.51916 0
M  V30 18835 H 1750.59 1.27146 0.739745 0
M  V30 18836 H 1752.55 1.65864 3.82812 0
M  V30 18837 H 1751.18 0.748045 3.14013 0
M  V30 18838 H 1750.23 3.02154 2.311 0
M  V30 18839 H 1751.54 3.82487 3.20165 0
M  V30 18840 H 1750.7 2.8599 5.35065 0
M  V30 18841 H 1749.44 1.95234 4.46917 0
M  V30 18842 H 1748.44 4.10819 3.65387 0
M  V30 18843 H 1749.67 5.02439 4.56872 0
M  V30 18844 H 1747.61 3.12695 5.76678 0
M  V30 18845 H 1747.53 4.85791 5.7926 0
M  V30 18846 H 1748.8 4.04682 6.66223 0
M  V30 18847 N 1753.03 -0.787016 1.36542 0
M  V30 18848 C 1753.97 -1.89975 1.31065 0
M  V30 18849 C 1754.94 -1.65134 0.178905 0
M  V30 18850 O 1756.13 -1.8726 0.36581 0
M  V30 18851 C 1753.27 -3.26822 1.10821 0
M  V30 18852 C 1752.38 -3.6372 2.33091 0
M  V30 18853 C 1751.52 -4.89697 2.0584 0
M  V30 18854 C 1750.56 -5.1928 3.24059 0
M  V30 18855 N 1749.69 -6.36441 2.96457 0
M  V30 18856 H 1754.53 -1.93993 2.2621 0
M  V30 18857 H 1752.07 -0.948631 1.12425 0
M  V30 18858 H 1754.03 -4.05741 0.971091 0
M  V30 18859 H 1752.66 -3.22221 0.193302 0
M  V30 18860 H 1751.71 -2.79906 2.57598 0
M  V30 18861 H 1753.02 -3.81529 3.21305 0
M  V30 18862 H 1752.18 -5.76486 1.89072 0
M  V30 18863 H 1750.91 -4.73962 1.14941 0
M  V30 18864 H 1749.92 -4.30973 3.41383 0
M  V30 18865 H 1751.14 -5.36934 4.15787 0
M  V30 18866 H 1749.09 -6.22093 2.08172 0
M  V30 18867 H 1749.01 -6.54594 3.78209 0
M  V30 18868 H 1750.28 -7.26207 2.83273 0
M  V30 18869 N 1754.5 -1.20861 -1.01145 0
M  V30 18870 C 1755.73 -1.04617 -1.78154 0
M  V30 18871 C 1756.14 0.407396 -1.84762 0
M  V30 18872 O 1755.49 1.29457 -1.30333 0
M  V30 18873 C 1755.55 -1.56038 -3.23871 0
M  V30 18874 C 1755.21 -3.0441 -3.40857 0
M  V30 18875 C 1756.21 -4.02021 -3.29659 0
M  V30 18876 C 1753.89 -3.43479 -3.66507 0
M  V30 18877 C 1755.89 -5.36689 -3.43866 0
M  V30 18878 C 1753.57 -4.78301 -3.80356 0
M  V30 18879 C 1754.57 -5.74715 -3.69041 0
M  V30 18880 O 1754.26 -7.07093 -3.82459 0
M  V30 18881 H 1753.99 -0.368185 -0.566935 0
M  V30 18882 H 1756.55 -1.60508 -1.28165 0
M  V30 18883 H 1754.78 -0.945373 -3.74966 0
M  V30 18884 H 1756.47 -1.35735 -3.82532 0
M  V30 18885 H 1757.23 -3.73182 -3.09775 0
M  V30 18886 H 1753.11 -2.68972 -3.74399 0
M  V30 18887 H 1756.65 -6.11927 -3.3495 0
M  V30 18888 H 1752.55 -5.06829 -3.99743 0
M  V30 18889 H 1753.32 -7.14413 -3.99445 0
M  V30 18890 N 1755.98 1.20536 -1.01532 0
M  V30 18891 C 1756.91 2.22683 -0.542658 0
M  V30 18892 C 1757.93 1.5844 0.374267 0
M  V30 18893 O 1759.12 1.77661 0.172818 0
M  V30 18894 C 1756.22 3.38117 0.230168 0
M  V30 18895 C 1755.39 4.3195 -0.688356 0
M  V30 18896 C 1754.45 5.26187 0.0366686 0
M  V30 18897 O 1753.47 5.66182 -0.585418 0
M  V30 18898 N 1754.68 5.65481 1.31193 0
M  V30 18899 H 1757.44 2.63864 -1.42111 0
M  V30 18900 H 1755 1.35065 -0.892703 0
M  V30 18901 H 1756.99 3.98164 0.724408 0
M  V30 18902 H 1755.56 2.95837 1.00991 0
M  V30 18903 H 1754.78 3.69889 -1.36292 0
M  V30 18904 H 1756.07 4.91564 -1.3131 0
M  V30 18905 H 1755.47 5.34998 1.83829 0
M  V30 18906 H 1754.03 6.27842 1.75092 0
M  V30 18907 N 1757.46 0.791395 1.36289 0
M  V30 18908 C 1758.71 0.361277 1.98438 0
M  V30 18909 C 1759.02 -1.07343 1.63514 0
M  V30 18910 O 1760.23 -1.60591 2.18913 0
M  V30 18911 C 1758.68 0.595005 3.54947 0
M  V30 18912 C 1758.29 2.04125 3.98794 0
M  V30 18913 C 1760.04 0.22949 4.23879 0
M  V30 18914 C 1757.94 2.22154 5.48089 0
M  V30 18915 H 1756.87 0.131343 0.742472 0
M  V30 18916 H 1759.52 0.973308 1.5556 0
M  V30 18917 H 1757.91 -0.0867658 3.95905 0
M  V30 18918 H 1759.08 2.75959 3.6903 0
M  V30 18919 H 1757.4 2.3652 3.42706 0
M  V30 18920 H 1759.99 0.342442 5.33602 0
M  V30 18921 H 1760.34 -0.822622 4.08091 0
M  V30 18922 H 1760.87 0.864575 3.88291 0
M  V30 18923 H 1757.61 3.25755 5.68827 0
M  V30 18924 H 1757.13 1.54827 5.79473 0
M  V30 18925 H 1758.81 2.02964 6.14341 0
M  V30 18926 N 1758.94 -1.47929 0.54358 0
M  V30 18927 C 1760.19 -2.02495 0.0144665 0
M  V30 18928 C 1760.51 -1.41934 -1.32985 0
M  V30 18929 O 1759.77 -0.559497 -1.87532 0
M  V30 18930 C 1760.07 -3.57116 -0.142408 0
M  V30 18931 C 1759.73 -4.3653 1.12927 0
M  V30 18932 C 1758.4 -4.57947 1.47776 0
M  V30 18933 C 1760.75 -4.8243 1.97259 0
M  V30 18934 C 1758.08 -5.22512 2.66829 0
M  V30 18935 C 1760.43 -5.48307 3.15503 0
M  V30 18936 C 1759.09 -5.6796 3.50681 0
M  V30 18937 H 1758.36 -0.740981 0.00529368 0
M  V30 18938 H 1761.01 -1.77758 0.712347 0
M  V30 18939 H 1759.31 -3.80769 -0.923157 0
M  V30 18940 H 1761.01 -3.96972 -0.566937 0
M  V30 18941 H 1757.6 -4.20129 0.847901 0
M  V30 18942 H 1761.79 -4.65673 1.71645 0
M  V30 18943 H 1757.04 -5.35924 2.9427 0
M  V30 18944 H 1761.22 -5.82839 3.81145 0
M  V30 18945 H 1758.84 -6.17762 4.43028 0
M  V30 18946 N 1760.42 -0.27936 -1.55104 0
M  V30 18947 C 1761.67 0.336866 -1.98867 0
M  V30 18948 C 1761.98 1.56656 -1.17124 0
M  V30 18949 O 1763.19 2.25601 -1.51051 0
M  V30 18950 C 1761.64 0.650699 -3.53969 0
M  V30 18951 C 1761.25 -0.559433 -4.44493 0
M  V30 18952 C 1762.99 1.22931 -4.0631 0
M  V30 18953 C 1760.9 -0.219952 -5.90991 0
M  V30 18954 H 1759.83 0.129643 -0.742771 0
M  V30 18955 H 1762.48 -0.384678 -1.79423 0
M  V30 18956 H 1760.86 1.43126 -3.6923 0
M  V30 18957 H 1762.04 -1.3362 -4.41001 0
M  V30 18958 H 1760.35 -1.05519 -4.02809 0
M  V30 18959 H 1762.95 1.49719 -5.13311 0
M  V30 18960 H 1763.29 2.16458 -3.55601 0
M  V30 18961 H 1763.83 0.51095 -3.94505 0
M  V30 18962 H 1760.56 -1.1232 -6.45805 0
M  V30 18963 H 1760.08 0.519971 -5.97542 0
M  V30 18964 H 1761.76 0.186308 -6.46732 0
M  V30 18965 N 1761.9 1.57599 -0.0067085 0
M  V30 18966 C 1763.31 1.78864 0.535202 0
M  V30 18967 C 1763.66 0.914793 1.73568 0
M  V30 18968 O 1762.78 0.119075 2.16072 0
M  V30 18969 C 1763.38 3.24386 0.977709 0
M  V30 18970 C 1761.94 3.46725 1.46488 0
M  V30 18971 C 1761.08 2.74114 0.419171 0
M  V30 18972 H 1764.03 1.56982 -0.232853 0
M  V30 18973 H 1764.06 3.32867 1.84336 0
M  V30 18974 H 1763.57 3.87961 0.103778 0
M  V30 18975 H 1761.67 2.88373 2.35948 0
M  V30 18976 H 1761.78 4.55416 1.48772 0
M  V30 18977 H 1760.15 2.3893 0.882311 0
M  V30 18978 H 1760.93 3.40392 -0.445908 0
M  V30 18979 N 1763.37 -0.266145 1.55336 0
M  V30 18980 C 1764.31 -1.35489 1.83624 0
M  V30 18981 C 1765.28 -1.47243 0.689795 0
M  V30 18982 O 1766.47 -1.63761 0.933525 0
M  V30 18983 C 1763.6 -2.73057 2.00393 0
M  V30 18984 C 1762.64 -2.78552 3.22972 0
M  V30 18985 S 1763.47 -2.37104 4.80148 0
M  V30 18986 C 1764.63 -3.76634 4.99898 0
M  V30 18987 H 1764.86 -1.11292 2.75684 0
M  V30 18988 H 1762.4 -0.466137 1.47196 0
M  V30 18989 H 1764.35 -3.52277 2.10739 0
M  V30 18990 H 1763.02 -2.94503 1.0921 0
M  V30 18991 H 1762.21 -3.79538 3.31613 0
M  V30 18992 H 1761.81 -2.0736 3.11252 0
M  V30 18993 H 1764.1 -4.71966 4.8606 0
M  V30 18994 H 1765.05 -3.7294 6.01931 0
M  V30 18995 H 1765.45 -3.68254 4.27842 0
M  V30 18996 N 1764.85 -1.48386 -0.530967 0
M  V30 18997 C 1766.1 -1.56585 -1.28875 0
M  V30 18998 C 1766.43 -0.238583 -1.92729 0
M  V30 18999 O 1765.71 0.75533 -1.79235 0
M  V30 19000 C 1765.99 -2.70338 -2.37886 0
M  V30 19001 C 1765.84 -4.12766 -1.78729 0
M  V30 19002 C 1767.16 -2.79857 -3.39659 0
M  V30 19003 H 1764.28 -0.569986 -0.46721 0
M  V30 19004 H 1766.92 -1.80555 -0.591596 0
M  V30 19005 H 1765.07 -2.50031 -2.9735 0
M  V30 19006 H 1766.74 -4.4451 -1.23324 0
M  V30 19007 H 1764.99 -4.19813 -1.09269 0
M  V30 19008 H 1765.66 -4.88178 -2.57655 0
M  V30 19009 H 1768.13 -2.9825 -2.90149 0
M  V30 19010 H 1767.01 -3.61179 -4.13329 0
M  V30 19011 H 1767.27 -1.87974 -4.00148 0
M  V30 19012 N 1766.33 0.779763 -1.36958 0
M  V30 19013 C 1767.28 1.91417 -1.32145 0
M  V30 19014 C 1768.27 1.68074 -0.211572 0
M  V30 19015 O 1769.48 1.75962 -0.379139 0
M  V30 19016 H 1765.85 0.62934 -0.411624 0
M  V30 19017 H 1767.82 1.92594 -2.27926 0
M  V30 19018 C 1766.57 3.28574 -1.13729 0
M  V30 19019 H 1765.9 3.47109 -1.98383 0
M  V30 19020 H 1767.34 4.08272 -1.1441 0
M  V30 19021 C 1765.79 3.36531 0.157538 0
M  V30 19022 O 1766.32 3.85067 1.14397 0
M  V30 19023 N 1764.53 2.89872 0.205509 0
M  V30 19024 H 1764.08 2.50566 -0.597854 0
M  V30 19025 H 1764.04 2.95578 1.07151 0
M  V30 19026 N 1767.81 1.21396 1.00503 0
M  V30 19027 C 1768.75 0.973198 2.09279 0
M  V30 19028 C 1769.72 -0.100797 1.65794 0
M  V30 19029 O 1770.91 0.0463185 1.90744 0
M  V30 19030 C 1768.05 0.543941 3.40786 0
M  V30 19031 C 1767.16 1.68737 3.97683 0
M  V30 19032 C 1766.3 1.20728 5.17299 0
M  V30 19033 C 1765.34 2.32305 5.66305 0
M  V30 19034 N 1764.47 1.8543 6.77171 0
M  V30 19035 H 1769.31 1.90441 2.29208 0
M  V30 19036 H 1766.85 0.949082 1.12387 0
M  V30 19037 H 1768.81 0.276311 4.16284 0
M  V30 19038 H 1767.44 -0.350263 3.20894 0
M  V30 19039 H 1766.49 2.06964 3.19171 0
M  V30 19040 H 1767.8 2.5271 4.30045 0
M  V30 19041 H 1766.96 0.896312 6.00043 0
M  V30 19042 H 1765.7 0.3376 4.8653 0
M  V30 19043 H 1764.7 2.64205 4.82158 0
M  V30 19044 H 1765.93 3.19769 5.99103 0
M  V30 19045 H 1763.87 1.00806 6.48208 0
M  V30 19046 H 1763.79 2.62976 7.08788 0
M  V30 19047 H 1765.06 1.57366 7.6345 0
M  V30 19048 N 1769.29 -1.19996 1.0217 0
M  V30 19049 C 1770.53 -1.89776 0.715047 0
M  V30 19050 C 1770.86 -1.78971 -0.753862 0
M  V30 19051 O 1770.14 -1.17729 -1.54823 0
M  V30 19052 C 1770.42 -3.4098 1.15779 0
M  V30 19053 C 1770.28 -3.60693 2.68739 0
M  V30 19054 C 1771.59 -4.33953 0.733008 0
M  V30 19055 H 1768.71 -0.689148 0.261236 0
M  V30 19056 H 1771.36 -1.41287 1.27035 0
M  V30 19057 H 1769.51 -3.82407 0.68534 0
M  V30 19058 H 1771.18 -3.28484 3.23876 0
M  V30 19059 H 1769.42 -3.0399 3.09472 0
M  V30 19060 H 1770.09 -4.66704 2.94773 0
M  V30 19061 H 1772.57 -4.002 1.13925 0
M  V30 19062 H 1771.44 -5.38355 1.07077 0
M  V30 19063 H 1771.7 -4.4059 -0.365047 0
M  V30 19064 N 1770.76 -0.798611 -1.35867 0
M  V30 19065 C 1771.69 -0.217751 -2.32482 0
M  V30 19066 C 1772.67 0.652374 -1.57093 0
M  V30 19067 O 1773.86 0.584297 -1.85202 0
M  V30 19068 C 1770.99 0.640925 -3.41335 0
M  V30 19069 C 1769.94 -0.130053 -4.27802 0
M  V30 19070 C 1769.27 0.849811 -5.27904 0
M  V30 19071 C 1770.57 -1.32451 -5.05227 0
M  V30 19072 H 1772.26 -1.02492 -2.81311 0
M  V30 19073 H 1769.81 -0.494302 -1.3525 0
M  V30 19074 H 1771.76 1.05729 -4.07921 0
M  V30 19075 H 1770.49 1.4809 -2.91096 0
M  V30 19076 H 1769.15 -0.5275 -3.62785 0
M  V30 19077 H 1768.79 1.68507 -4.73935 0
M  V30 19078 H 1768.49 0.338323 -5.86625 0
M  V30 19079 H 1770.02 1.26455 -5.97362 0
M  V30 19080 H 1771.43 -0.983429 -5.64802 0
M  V30 19081 H 1769.83 -1.76992 -5.73405 0
M  V30 19082 H 1770.9 -2.11522 -4.36333 0
M  V30 19083 N 1772.24 1.47639 -0.551417 0
M  V30 19084 C 1773.49 2.02784 -0.0252425 0
M  V30 19085 C 1773.82 1.42549 1.31884 0
M  V30 19086 O 1773.1 0.578954 1.85684 0
M  V30 19087 C 1773.38 3.60024 0.0740051 0
M  V30 19088 C 1773.23 4.30702 -1.29676 0
M  V30 19089 C 1774.55 4.32946 0.790302 0
M  V30 19090 H 1771.67 0.736923 -0.0106473 0
M  V30 19091 H 1774.31 1.76131 -0.712589 0
M  V30 19092 H 1772.46 3.82863 0.65939 0
M  V30 19093 H 1774.13 4.1922 -1.9249 0
M  V30 19094 H 1772.38 3.91282 -1.87299 0
M  V30 19095 H 1773.05 5.39238 -1.18009 0
M  V30 19096 H 1775.52 4.15065 0.293326 0
M  V30 19097 H 1774.4 5.42608 0.828692 0
M  V30 19098 H 1774.66 4.01752 1.84521 0
M  V30 19099 N 1773.72 0.287581 1.54954 0
M  V30 19100 C 1775.14 -0.0662092 1.59463 0
M  V30 19101 C 1775.34 -1.53556 1.30471 0
M  V30 19102 O 1774.39 -2.28632 1.07161 0
M  V30 19103 C 1775.71 0.319651 2.98996 0
M  V30 19104 C 1777.25 0.2673 3.11857 0
M  V30 19105 C 1777.73 0.627784 4.53677 0
M  V30 19106 N 1779.22 0.579808 4.59557 0
M  V30 19107 C 1779.95 0.831377 5.67341 0
M  V30 19108 N 1779.45 1.14821 6.83219 0
M  V30 19109 N 1781.24 0.759337 5.56947 0
M  V30 19110 H 1773.39 1.24534 1.72062 0
M  V30 19111 H 1775.66 0.503969 0.802944 0
M  V30 19112 H 1775.36 1.34201 3.25089 0
M  V30 19113 H 1775.24 -0.333373 3.75724 0
M  V30 19114 H 1777.62 -0.745794 2.8552 0
M  V30 19115 H 1777.71 0.954759 2.37314 0
M  V30 19116 H 1777.35 1.63862 4.80741 0
M  V30 19117 H 1777.28 -0.0816007 5.26537 0
M  V30 19118 H 1779.77 0.34531 3.76319 0
M  V30 19119 H 1780.08 1.32651 7.6133 0
M  V30 19120 H 1778.43 1.18612 6.84804 0
M  V30 19121 H 1781.62 0.511563 4.65296 0
M  V30 19122 H 1781.79 0.95877 6.40868 0
M  V30 19123 N 1775.2 -1.57593 0.0150662 0
M  V30 19124 C 1776.15 -2.0585 -0.980291 0
M  V30 19125 C 1777.13 -0.956179 -1.29406 0
M  V30 19126 O 1778.32 -1.21985 -1.28253 0
M  V30 19127 C 1775.45 -2.57769 -2.26738 0
M  V30 19128 C 1774.54 -3.74906 -1.98259 0
M  V30 19129 N 1774.93 -4.8604 -1.39995 0
M  V30 19130 C 1773.23 -3.83124 -2.28325 0
M  V30 19131 C 1773.93 -5.67368 -1.28329 0
M  V30 19132 N 1772.91 -5.13837 -1.77404 0
M  V30 19133 H 1776.71 -2.89181 -0.524549 0
M  V30 19134 H 1774.22 -1.61281 -0.190285 0
M  V30 19135 H 1776.22 -2.90624 -2.98903 0
M  V30 19136 H 1774.88 -1.75862 -2.72952 0
M  V30 19137 H 1775.89 -5.06583 -1.07678 0
M  V30 19138 H 1772.57 -3.12099 -2.77309 0
M  V30 19139 H 1773.96 -6.66704 -0.833956 0
M  V30 19140 N 1776.68 0.257904 -1.55475 0
M  V30 19141 C 1778.09 0.605871 -1.47653 0
M  V30 19142 C 1778.29 1.88837 -0.703063 0
M  V30 19143 O 1777.35 2.51469 -0.227981 0
M  V30 19144 C 1778.66 0.718813 -2.91982 0
M  V30 19145 C 1780.21 0.81187 -3.02287 0
M  V30 19146 C 1780.68 0.956465 -4.47901 0
M  V30 19147 N 1782.18 1.02161 -4.51793 0
M  V30 19148 C 1782.91 1.15256 -5.61697 0
M  V30 19149 N 1782.41 1.24975 -6.81435 0
M  V30 19150 N 1784.2 1.18485 -5.4947 0
M  V30 19151 H 1776.35 -0.584154 -2.04209 0
M  V30 19152 H 1778.61 -0.200045 -0.926653 0
M  V30 19153 H 1778.32 -0.15335 -3.51366 0
M  V30 19154 H 1778.19 1.59429 -3.41851 0
M  V30 19155 H 1780.58 1.67449 -2.42991 0
M  V30 19156 H 1780.66 -0.0885307 -2.55647 0
M  V30 19157 H 1780.31 0.0984438 -5.07805 0
M  V30 19158 H 1780.24 1.87174 -4.92213 0
M  V30 19159 H 1782.73 0.958295 -3.65548 0
M  V30 19160 H 1783.04 1.34843 -7.60945 0
M  V30 19161 H 1781.38 1.21952 -6.84217 0
M  V30 19162 H 1784.58 1.10534 -4.54863 0
M  V30 19163 H 1784.75 1.28346 -6.35162 0
M  V30 19164 N 1778.15 1.48666 0.52309 0
M  V30 19165 C 1779.4 1.56286 1.27505 0
M  V30 19166 C 1779.72 0.244774 1.94062 0
M  V30 19167 O 1780.92 0.199289 2.70768 0
M  V30 19168 C 1779.38 2.75654 2.31393 0
M  V30 19169 C 1778.99 4.14133 1.70874 0
M  V30 19170 C 1780.73 2.92591 3.07556 0
M  V30 19171 C 1778.64 5.24752 2.72743 0
M  V30 19172 H 1777.57 0.581842 0.479558 0
M  V30 19173 H 1780.22 1.75013 0.551611 0
M  V30 19174 H 1778.6 2.50376 3.06803 0
M  V30 19175 H 1779.77 4.49458 1.01607 0
M  V30 19176 H 1778.09 4.0237 1.0718 0
M  V30 19177 H 1780.69 3.72403 3.83692 0
M  V30 19178 H 1781.03 2.02308 3.63837 0
M  V30 19179 H 1781.56 3.17804 2.39261 0
M  V30 19180 H 1778.3 6.17024 2.21273 0
M  V30 19181 H 1777.82 4.93907 3.40318 0
M  V30 19182 H 1779.5 5.53158 3.35598 0
M  V30 19183 N 1779.63 -0.772489 1.37369 0
M  V30 19184 C 1780.58 -1.90713 1.33158 0
M  V30 19185 C 1781.57 -1.67959 0.220482 0
M  V30 19186 O 1782.78 -1.75758 0.388465 0
M  V30 19187 H 1779.16 -0.627149 0.414956 0
M  V30 19188 H 1781.13 -1.91382 2.28944 0
M  V30 19189 C 1779.88 -3.27966 1.1547 0
M  V30 19190 H 1779.2 -3.46052 2.00221 0
M  V30 19191 H 1780.64 -4.0766 1.16574 0
M  V30 19192 C 1779.1 -3.3661 -0.139688 0
M  V30 19193 O 1779.63 -3.85668 -1.12353 0
M  V30 19194 N 1777.83 -2.89977 -0.190134 0
M  V30 19195 H 1777.38 -2.50246 0.611134 0
M  V30 19196 H 1777.34 -2.96142 -1.05582 0
M  V30 19197 N 1781.11 -1.21927 -0.998575 0
M  V30 19198 C 1782.06 -0.951671 -2.07189 0
M  V30 19199 C 1783.04 0.095548 -1.60616 0
M  V30 19200 O 1784.24 -0.11423 -1.76631 0
M  V30 19201 C 1781.37 -0.525175 -3.39259 0
M  V30 19202 C 1780.45 -1.60681 -3.92482 0
M  V30 19203 N 1780.84 -2.8333 -4.18996 0
M  V30 19204 C 1779.14 -1.47718 -4.20827 0
M  V30 19205 C 1779.84 -3.53231 -4.62172 0
M  V30 19206 N 1778.82 -2.80687 -4.65527 0
M  V30 19207 H 1782.62 -1.88341 -2.25621 0
M  V30 19208 H 1780.13 -1.11596 -1.17984 0
M  V30 19209 H 1782.13 -0.3148 -4.1571 0
M  V30 19210 H 1780.79 0.399723 -3.2223 0
M  V30 19211 H 1781.8 -3.19812 -4.07358 0
M  V30 19212 H 1778.48 -0.618048 -4.129 0
M  V30 19213 H 1779.87 -4.58279 -4.91355 0
M  V30 19214 N 1782.59 1.19452 -1.02805 0
M  V30 19215 C 1783.52 2.22095 -0.566246 0
M  V30 19216 C 1784.53 1.58828 0.357442 0
M  V30 19217 O 1785.72 1.77835 0.153965 0
M  V30 19218 C 1782.82 3.38343 0.194294 0
M  V30 19219 C 1782 4.31195 -0.734131 0
M  V30 19220 C 1781.05 5.26197 -0.0191426 0
M  V30 19221 O 1780.08 5.65529 -0.645436 0
M  V30 19222 N 1781.28 5.66841 1.25187 0
M  V30 19223 H 1784.05 2.62342 -1.44902 0
M  V30 19224 H 1781.61 1.3411 -0.906978 0
M  V30 19225 H 1783.6 3.9891 0.682136 0
M  V30 19226 H 1782.17 2.96892 0.978474 0
M  V30 19227 H 1781.39 3.68423 -1.40208 0
M  V30 19228 H 1782.68 4.90144 -1.36516 0
M  V30 19229 H 1782.08 5.36918 1.78145 0
M  V30 19230 H 1780.63 6.29664 1.68423 0
M  V30 19231 N 1784.07 0.805805 1.35442 0
M  V30 19232 C 1785.48 0.489448 1.5191 0
M  V30 19233 C 1785.68 -0.989485 1.75532 0
M  V30 19234 O 1784.74 -1.77453 1.79629 0
M  V30 19235 C 1786.05 1.33413 2.69484 0
M  V30 19236 C 1787.6 1.32949 2.83361 0
M  V30 19237 C 1788.07 2.15827 4.03959 0
M  V30 19238 N 1789.57 2.13359 4.11135 0
M  V30 19239 C 1790.3 2.74245 5.03564 0
M  V30 19240 N 1789.8 3.44055 6.0133 0
M  V30 19241 N 1791.59 2.63891 4.96304 0
M  V30 19242 H 1783.74 1.76361 1.18366 0
M  V30 19243 H 1786 0.750594 0.579062 0
M  V30 19244 H 1785.71 2.38364 2.58603 0
M  V30 19245 H 1785.58 0.986809 3.64063 0
M  V30 19246 H 1787.97 0.287837 2.93693 0
M  V30 19247 H 1788.05 1.71668 1.89641 0
M  V30 19248 H 1787.7 3.20033 3.94388 0
M  V30 19249 H 1787.63 1.74469 4.96858 0
M  V30 19250 H 1790.12 1.62566 3.41146 0
M  V30 19251 H 1790.43 3.87802 6.68453 0
M  V30 19252 H 1788.77 3.48159 6.01507 0
M  V30 19253 H 1791.97 2.08941 4.18881 0
M  V30 19254 H 1792.14 3.11631 5.68146 0
M  V30 19255 N 1785.54 -1.47344 0.559239 0
M  V30 19256 C 1786.77 -2.0656 0.040802 0
M  V30 19257 C 1787.18 -1.41208 -1.25925 0
M  V30 19258 O 1786.53 -0.503333 -1.7667 0
M  V30 19259 C 1786.59 -3.58804 -0.223642 0
M  V30 19260 C 1786.25 -4.46208 0.987275 0
M  V30 19261 C 1787.25 -4.84198 1.89336 0
M  V30 19262 C 1784.93 -4.87693 1.20252 0
M  V30 19263 C 1786.93 -5.62474 2.99837 0
M  V30 19264 C 1784.61 -5.65733 2.31061 0
M  V30 19265 C 1785.61 -6.03034 3.20684 0
M  V30 19266 O 1785.3 -6.79502 4.29572 0
M  V30 19267 H 1785.03 -0.674583 0.0437408 0
M  V30 19268 H 1787.59 -1.90306 0.772827 0
M  V30 19269 H 1785.82 -3.73277 -1.01 0
M  V30 19270 H 1787.51 -4.00032 -0.687709 0
M  V30 19271 H 1788.27 -4.52746 1.73913 0
M  V30 19272 H 1784.15 -4.58124 0.514098 0
M  V30 19273 H 1787.69 -5.91508 3.69817 0
M  V30 19274 H 1783.59 -5.96598 2.46456 0
M  V30 19275 H 1784.36 -6.97898 4.27645 0
M  V30 19276 N 1787.02 -0.295795 -1.54799 0
M  V30 19277 C 1788.3 0.367858 -1.9211 0
M  V30 19278 C 1788.68 1.72103 -1.22244 0
M  V30 19279 O 1788.03 2.25704 -0.356377 0
M  V30 19280 C 1788.24 0.487673 -3.45576 0
M  V30 19281 C 1789.59 0.760966 -4.17725 0
M  V30 19282 O 1790.61 0.571687 -3.51582 0
M  V30 19283 O 1789.47 1.12423 -5.34812 0
M  V30 19284 H 1786.56 0.204758 -0.801251 0
M  V30 19285 H 1789.11 -0.343471 -1.66188 0
M  V30 19286 H 1787.88 -0.463798 -3.88542 0
M  V30 19287 H 1787.5 1.24767 -3.77517 0
M  V30 19288 N 1788.5 1.57583 -0.0234236 0
M  V30 19289 C 1789.75 1.91848 0.657422 0
M  V30 19290 C 1790.08 0.899633 1.72105 0
M  V30 19291 O 1789.36 -0.0784409 1.94342 0
M  V30 19292 C 1789.64 3.36617 1.2791 0
M  V30 19293 C 1789.49 4.49235 0.225421 0
M  V30 19294 C 1790.81 3.81239 2.19874 0
M  V30 19295 H 1787.93 0.697677 0.23752 0
M  V30 19296 H 1790.57 1.89834 -0.0795169 0
M  V30 19297 H 1788.72 3.38465 1.90719 0
M  V30 19298 H 1790.39 4.59521 -0.404792 0
M  V30 19299 H 1788.64 4.31462 -0.449749 0
M  V30 19300 H 1789.31 5.47545 0.699906 0
M  V30 19301 H 1791.78 3.81092 1.67058 0
M  V30 19302 H 1790.66 4.8324 2.60328 0
M  V30 19303 H 1790.92 3.16421 3.08755 0
M  V30 19304 N 1789.98 -0.249655 1.5561 0
M  V30 19305 C 1790.91 -1.31281 1.931 0
M  V30 19306 C 1791.89 -1.50347 0.795601 0
M  V30 19307 O 1793.08 -1.63001 1.05566 0
M  V30 19308 C 1790.21 -2.66808 2.2233 0
M  V30 19309 C 1789.16 -2.62441 3.38096 0
M  V30 19310 C 1788.49 -4.01738 3.52861 0
M  V30 19311 C 1789.79 -2.19667 4.7386 0
M  V30 19312 H 1791.48 -1.00151 2.82153 0
M  V30 19313 H 1789.03 -0.480331 1.35753 0
M  V30 19314 H 1790.98 -3.41316 2.47146 0
M  V30 19315 H 1789.7 -2.99569 1.30101 0
M  V30 19316 H 1788.36 -1.90391 3.13284 0
M  V30 19317 H 1788.01 -4.31759 2.58056 0
M  V30 19318 H 1787.71 -3.99705 4.30708 0
M  V30 19319 H 1789.23 -4.7795 3.79995 0
M  V30 19320 H 1790.65 -2.83906 4.98067 0
M  V30 19321 H 1789.04 -2.28751 5.54791 0
M  V30 19322 H 1790.11 -1.14829 4.71108 0
M  V30 19323 N 1791.46 -1.48941 -0.515198 0
M  V30 19324 C 1792.71 -1.5696 -1.26674 0
M  V30 19325 C 1793.02 -0.255062 -1.9393 0
M  V30 19326 O 1794.23 -0.213645 -2.70658 0
M  V30 19327 C 1792.68 -2.76877 -2.29928 0
M  V30 19328 C 1792.29 -4.15033 -1.68676 0
M  V30 19329 C 1794.03 -2.94218 -3.06 0
M  V30 19330 C 1791.94 -5.26191 -2.69957 0
M  V30 19331 H 1790.87 -0.584377 -0.476465 0
M  V30 19332 H 1793.52 -1.75303 -0.542322 0
M  V30 19333 H 1791.9 -2.51999 -3.05471 0
M  V30 19334 H 1793.08 -4.49991 -0.992215 0
M  V30 19335 H 1791.39 -4.02932 -1.05045 0
M  V30 19336 H 1793.99 -3.74433 -3.81712 0
M  V30 19337 H 1794.33 -2.04235 -3.62759 0
M  V30 19338 H 1794.87 -3.19068 -2.37572 0
M  V30 19339 H 1791.6 -6.18189 -2.17998 0
M  V30 19340 H 1791.12 -4.95705 -3.37694 0
M  V30 19341 H 1792.8 -5.54929 -3.32659 0
M  V30 19342 N 1792.94 0.765193 -1.37777 0
M  V30 19343 C 1794.18 1.53692 -1.34752 0
M  V30 19344 C 1794.54 1.91888 0.0655965 0
M  V30 19345 O 1795.74 2.67893 0.220628 0
M  V30 19346 C 1794.01 2.76363 -2.26623 0
M  V30 19347 S 1795.57 3.66358 -2.4151 0
M  V30 19348 H 1792.39 0.526091 -0.478277 0
M  V30 19349 H 1794.99 0.899252 -1.73591 0
M  V30 19350 H 1793.69 2.46393 -3.28205 0
M  V30 19351 H 1793.23 3.45085 -1.88892 0
M  V30 19352 H 1795.24 4.68644 -1.63055 0
M  V30 19353 N 1794.41 1.22455 0.992094 0
M  V30 19354 C 1795.83 0.984682 1.25603 0
M  V30 19355 C 1796.03 -0.321255 1.98923 0
M  V30 19356 O 1795.09 -1.04367 2.29921 0
M  V30 19357 C 1796.4 2.1839 2.06703 0
M  V30 19358 C 1797.95 2.22755 2.19884 0
M  V30 19359 C 1798.42 3.42232 3.04371 0
M  V30 19360 N 1799.91 3.42398 3.11958 0
M  V30 19361 C 1800.65 4.31497 3.77622 0
M  V30 19362 N 1800.14 5.30814 4.45206 0
M  V30 19363 N 1801.94 4.1927 3.74391 0
M  V30 19364 H 1794.09 2.06417 0.50057 0
M  V30 19365 H 1796.35 0.904556 0.283693 0
M  V30 19366 H 1796.06 3.13099 1.60192 0
M  V30 19367 H 1795.93 2.18517 3.07458 0
M  V30 19368 H 1798.32 1.28593 2.65608 0
M  V30 19369 H 1798.4 2.26667 1.18557 0
M  V30 19370 H 1798.04 4.36694 2.59346 0
M  V30 19371 H 1797.97 3.3556 4.05841 0
M  V30 19372 H 1800.46 2.70531 2.63858 0
M  V30 19373 H 1800.78 5.95078 4.93054 0
M  V30 19374 H 1799.12 5.34726 4.43952 0
M  V30 19375 H 1802.31 3.40932 3.20753 0
M  V30 19376 H 1802.49 4.88913 4.25286 0
M  V30 19377 N 1795.89 -1.18905 1.03437 0
M  V30 19378 C 1797.14 -1.88055 0.729268 0
M  V30 19379 C 1797.45 -1.80833 -0.745564 0
M  V30 19380 O 1798.66 -2.45285 -1.16393 0
M  V30 19381 C 1797.12 -3.37341 1.25415 0
M  V30 19382 C 1796.72 -3.53107 2.75716 0
M  V30 19383 C 1798.47 -4.11932 1.02529 0
M  V30 19384 C 1796.37 -4.96317 3.21595 0
M  V30 19385 H 1795.3 -0.704345 0.269098 0
M  V30 19386 H 1797.96 -1.34397 1.24938 0
M  V30 19387 H 1796.34 -3.90429 0.661925 0
M  V30 19388 H 1797.51 -3.10322 3.40642 0
M  V30 19389 H 1795.83 -2.91913 2.96944 0
M  V30 19390 H 1798.42 -5.17552 1.34328 0
M  V30 19391 H 1798.77 -4.16283 -0.0377114 0
M  V30 19392 H 1799.3 -3.64998 1.5818 0
M  V30 19393 H 1796.04 -4.97131 4.27248 0
M  V30 19394 H 1795.56 -5.39842 2.61401 0
M  V30 19395 H 1797.24 -5.65 3.15253 0
M  V30 19396 N 1797.37 -0.812977 -1.35013 0
M  V30 19397 C 1798.62 -0.396932 -1.98878 0
M  V30 19398 C 1798.95 1.03486 -1.6433 0
M  V30 19399 O 1798.22 1.71906 -0.90986 0
M  V30 19400 C 1798.51 -0.587911 -3.55268 0
M  V30 19401 C 1798.36 -2.06509 -3.99592 0
M  V30 19402 C 1799.68 -0.017593 -4.40096 0
M  V30 19403 H 1796.8 -0.145695 -0.722455 0
M  V30 19404 H 1799.44 -1.0237 -1.60064 0
M  V30 19405 H 1797.59 -0.0543785 -3.88462 0
M  V30 19406 H 1799.26 -2.6615 -3.76778 0
M  V30 19407 H 1797.5 -2.55921 -3.50267 0
M  V30 19408 H 1798.18 -2.14958 -5.08426 0
M  V30 19409 H 1800.65 -0.473317 -4.13399 0
M  V30 19410 H 1799.53 -0.18109 -5.48601 0
M  V30 19411 H 1799.79 1.07664 -4.2879 0
M  V30 19412 N 1798.85 1.47045 -0.567045 0
M  V30 19413 C 1799.79 2.30135 0.175115 0
M  V30 19414 C 1800.76 1.39665 0.899049 0
M  V30 19415 O 1801.95 1.68623 0.892809 0
M  V30 19416 C 1799.09 3.23827 1.19289 0
M  V30 19417 C 1798.2 4.29392 0.474011 0
M  V30 19418 C 1797.34 5.10226 1.47793 0
M  V30 19419 C 1796.38 6.07554 0.744584 0
M  V30 19420 N 1795.51 6.81313 1.69581 0
M  V30 19421 H 1800.35 2.93075 -0.539529 0
M  V30 19422 H 1797.89 1.44451 -0.277889 0
M  V30 19423 H 1799.85 3.76579 1.79567 0
M  V30 19424 H 1798.48 2.6273 1.87544 0
M  V30 19425 H 1797.53 3.7962 -0.243494 0
M  V30 19426 H 1798.84 4.987 -0.100022 0
M  V30 19427 H 1798 5.67176 2.15397 0
M  V30 19428 H 1796.74 4.40842 2.08589 0
M  V30 19429 H 1795.74 5.49773 0.0546832 0
M  V30 19430 H 1796.97 6.78951 0.142235 0
M  V30 19431 H 1794.91 6.14651 2.29216 0
M  V30 19432 H 1794.83 7.46826 1.17418 0
M  V30 19433 H 1796.1 7.42831 2.36268 0
M  V30 19434 N 1800.33 0.304 1.5464 0
M  V30 19435 C 1801.57 -0.303793 1.99804 0
M  V30 19436 C 1801.89 -1.54179 1.19389 0
M  V30 19437 O 1801.16 -1.93732 0.290631 0
M  V30 19438 H 1799.74 -0.115241 0.738057 0
M  V30 19439 H 1802.41 0.416024 1.90408 0
M  V30 19440 H 1801.5 -0.573759 3.06781 0
M  V30 19441 N 1801.8 -1.57568 0.0317802 0
M  V30 19442 C 1803.03 -1.95927 -0.655449 0
M  V30 19443 C 1803.44 -0.907011 -1.66042 0
M  V30 19444 O 1802.78 0.119389 -1.83312 0
M  V30 19445 C 1802.85 -3.30441 -1.41595 0
M  V30 19446 C 1802.51 -4.53444 -0.569009 0
M  V30 19447 C 1803.51 -5.19663 0.156812 0
M  V30 19448 C 1801.19 -4.99749 -0.505629 0
M  V30 19449 C 1803.19 -6.3051 0.934657 0
M  V30 19450 C 1800.87 -6.10477 0.275919 0
M  V30 19451 C 1801.87 -6.75717 0.994766 0
M  V30 19452 O 1801.56 -7.84319 1.7635 0
M  V30 19453 H 1801.29 -0.650077 -0.185408 0
M  V30 19454 H 1803.85 -2.05209 0.0886364 0
M  V30 19455 H 1802.08 -3.17658 -2.20523 0
M  V30 19456 H 1803.76 -3.53684 -1.99154 0
M  V30 19457 H 1804.53 -4.84858 0.117196 0
M  V30 19458 H 1800.41 -4.48772 -1.05472 0
M  V30 19459 H 1803.95 -6.81365 1.49626 0
M  V30 19460 H 1799.85 -6.4472 0.317242 0
M  V30 19461 H 1800.62 -8.00999 1.68355 0
M  V30 19462 N 1803.28 0.241399 -1.5574 0
M  V30 19463 C 1804.51 0.986075 -1.81891 0
M  V30 19464 C 1804.93 1.78734 -0.608254 0
M  V30 19465 O 1804.28 1.77527 0.423129 0
M  V30 19466 C 1804.33 1.91956 -3.06325 0
M  V30 19467 O 1804.05 1.15071 -4.22718 0
M  V30 19468 C 1805.56 2.77977 -3.45317 0
M  V30 19469 H 1802.78 0.289913 -0.605137 0
M  V30 19470 H 1805.32 0.262622 -2.02807 0
M  V30 19471 H 1803.47 2.59721 -2.87443 0
M  V30 19472 H 1803.89 1.78261 -4.93278 0
M  V30 19473 H 1805.36 3.39215 -4.35474 0
M  V30 19474 H 1805.84 3.49369 -2.66154 0
M  V30 19475 H 1806.45 2.15655 -3.66569 0
M  V30 19476 N 1804.76 1.49212 0.507292 0
M  V30 19477 C 1805.69 1.68326 1.61829 0
M  V30 19478 C 1806.67 0.531969 1.61568 0
M  V30 19479 O 1807.86 0.767104 1.78407 0
M  V30 19480 C 1804.99 1.74394 3.0034 0
M  V30 19481 C 1803.94 2.89251 3.15465 0
M  V30 19482 C 1803.27 2.80426 4.55264 0
M  V30 19483 C 1804.57 4.30269 2.96085 0
M  V30 19484 H 1806.26 2.6134 1.46087 0
M  V30 19485 H 1803.81 1.25765 0.701367 0
M  V30 19486 H 1805.76 1.86353 3.77956 0
M  V30 19487 H 1804.48 0.779748 3.17155 0
M  V30 19488 H 1803.14 2.76884 2.40272 0
M  V30 19489 H 1802.79 1.81928 4.68947 0
M  V30 19490 H 1802.49 3.57511 4.66326 0
M  V30 19491 H 1804.01 2.94384 5.34949 0
M  V30 19492 H 1805.43 4.4335 3.63475 0
M  V30 19493 H 1803.83 5.08527 3.18623 0
M  V30 19494 H 1804.9 4.45151 1.92272 0
M  V30 19495 N 1806.24 -0.757876 1.38181 0
M  V30 19496 C 1807.2 -1.85317 1.34871 0
M  V30 19497 C 1808.2 -1.58844 0.250041 0
M  V30 19498 O 1809.39 -1.66668 0.506688 0
M  V30 19499 C 1806.52 -3.22712 1.09864 0
M  V30 19500 H 1807.72 -1.89661 2.32312 0
M  V30 19501 H 1805.27 -0.959122 1.23412 0
M  V30 19502 H 1806 -3.24039 0.130112 0
M  V30 19503 H 1805.79 -3.4332 1.89403 0
M  V30 19504 H 1807.28 -4.02789 1.10232 0
M  V30 19505 N 1807.72 -1.22979 -0.985586 0
M  V30 19506 C 1808.99 -0.967121 -1.70018 0
M  V30 19507 C 1809.37 0.515746 -2.04703 0
M  V30 19508 O 1808.72 1.48564 -1.73611 0
M  V30 19509 C 1808.93 -1.8721 -2.94539 0
M  V30 19510 C 1810.28 -2.13251 -3.67163 0
M  V30 19511 O 1811.3 -1.84718 -3.04562 0
M  V30 19512 O 1810.16 -2.61617 -4.79811 0
M  V30 19513 H 1807.26 -0.364318 -0.74243 0
M  V30 19514 H 1809.8 -1.33998 -1.04127 0
M  V30 19515 H 1808.57 -2.87478 -2.65465 0
M  V30 19516 H 1808.2 -1.50128 -3.68167 0
M  V30 19517 N 1809.19 1.18355 -1.04066 0
M  V30 19518 C 1810.1 2.25641 -0.642115 0
M  V30 19519 C 1811.12 1.70811 0.331614 0
M  V30 19520 O 1812.3 2.00534 0.186542 0
M  V30 19521 C 1809.36 3.46698 -0.0112485 0
M  V30 19522 C 1808.42 4.16662 -1.03398 0
M  V30 19523 C 1807.66 5.3194 -0.433125 0
M  V30 19524 O 1807.88 5.65305 0.760669 0
M  V30 19525 O 1806.81 5.90581 -1.16182 0
M  V30 19526 H 1810.64 2.61997 -1.53595 0
M  V30 19527 H 1808.22 1.25437 -0.811542 0
M  V30 19528 H 1810.11 4.20027 0.339934 0
M  V30 19529 H 1808.78 3.12166 0.856405 0
M  V30 19530 H 1807.69 3.45402 -1.43696 0
M  V30 19531 H 1809.02 4.55194 -1.8724 0
M  V30 19532 N 1810.67 0.820125 1.3458 0
M  V30 19533 C 1811.58 0.241913 2.33349 0
M  V30 19534 C 1812.6 -0.622228 1.62494 0
M  V30 19535 O 1813.77 -0.530787 1.9428 0
M  V30 19536 C 1810.84 -0.588944 3.41661 0
M  V30 19537 C 1809.9 0.29727 4.2827 0
M  V30 19538 C 1809.13 -0.494028 5.31409 0
M  V30 19539 O 1809.36 -1.72755 5.4361 0
M  V30 19540 O 1808.29 0.122182 6.01776 0
M  V30 19541 H 1812.12 1.05934 2.84626 0
M  V30 19542 H 1809.7 0.582205 1.37589 0
M  V30 19543 H 1811.58 -1.06174 4.07805 0
M  V30 19544 H 1810.26 -1.38374 2.92633 0
M  V30 19545 H 1809.17 0.817495 3.65059 0
M  V30 19546 H 1810.5 1.05635 4.80731 0
M  V30 19547 N 1812.15 -1.46743 0.574835 0
M  V30 19548 C 1813.06 -2.34015 -0.16559 0
M  V30 19549 C 1814.08 -1.49273 -0.894064 0
M  V30 19550 O 1815.25 -1.82162 -0.859013 0
M  V30 19551 C 1812.32 -3.26313 -1.17136 0
M  V30 19552 C 1811.38 -4.26952 -0.448413 0
M  V30 19553 C 1810.61 -5.1484 -1.40627 0
M  V30 19554 O 1810.83 -5.05508 -2.6423 0
M  V30 19555 O 1809.77 -5.9481 -0.921143 0
M  V30 19556 H 1813.59 -2.98664 0.550754 0
M  V30 19557 H 1811.18 -1.45589 0.335297 0
M  V30 19558 H 1813.06 -3.83276 -1.75149 0
M  V30 19559 H 1811.74 -2.64269 -1.86931 0
M  V30 19560 H 1810.64 -3.73698 0.17336 0
M  V30 19561 H 1811.98 -4.91759 0.208419 0
M  V30 19562 N 1813.63 -0.312197 -1.54477 0
M  V30 19563 C 1814.91 0.347462 -1.92489 0
M  V30 19564 C 1815.29 1.70797 -1.24063 0
M  V30 19565 O 1814.63 2.25313 -0.380296 0
M  V30 19566 C 1814.84 0.450992 -3.46074 0
M  V30 19567 C 1816.19 0.716618 -4.18509 0
M  V30 19568 O 1817.22 0.534364 -3.52169 0
M  V30 19569 O 1816.07 1.06744 -5.35974 0
M  V30 19570 H 1813.17 0.196248 -0.803378 0
M  V30 19571 H 1815.71 -0.361078 -1.65814 0
M  V30 19572 H 1814.49 -0.504982 -3.88028 0
M  V30 19573 H 1814.11 1.20756 -3.78819 0
M  V30 19574 N 1815.11 1.57549 -0.040136 0
M  V30 19575 C 1816.52 1.79959 0.497142 0
M  V30 19576 C 1816.87 0.951403 1.71589 0
M  V30 19577 O 1815.99 0.16488 2.15771 0
M  V30 19578 C 1816.59 3.26387 0.908682 0
M  V30 19579 C 1815.15 3.49754 1.39101 0
M  V30 19580 C 1814.29 2.74941 0.360933 0
M  V30 19581 H 1817.25 1.56453 -0.266099 0
M  V30 19582 H 1817.27 3.36702 1.77234 0
M  V30 19583 H 1816.78 3.88094 0.0214628 0
M  V30 19584 H 1814.88 2.93313 2.29778 0
M  V30 19585 H 1814.99 4.58469 1.39078 0
M  V30 19586 H 1813.36 2.40747 0.831432 0
M  V30 19587 H 1814.14 3.39369 -0.51801 0
M  V30 19588 N 1816.58 -0.233136 1.55866 0
M  V30 19589 C 1817.51 -1.29225 1.94482 0
M  V30 19590 C 1818.5 -1.49495 0.811503 0
M  V30 19591 O 1819.68 -1.61872 1.07289 0
M  V30 19592 C 1816.81 -2.64435 2.25147 0
M  V30 19593 C 1815.76 -2.5884 3.4086 0
M  V30 19594 C 1815.09 -3.97973 3.57102 0
M  V30 19595 C 1816.39 -2.14629 4.76164 0
M  V30 19596 H 1818.08 -0.971527 2.83199 0
M  V30 19597 H 1815.63 -0.465905 1.36255 0
M  V30 19598 H 1817.58 -3.38676 2.50752 0
M  V30 19599 H 1816.31 -2.98172 1.33271 0
M  V30 19600 H 1814.97 -1.87057 3.15286 0
M  V30 19601 H 1814.61 -4.28998 2.62621 0
M  V30 19602 H 1814.31 -3.95114 4.34924 0
M  V30 19603 H 1815.84 -4.73893 3.85043 0
M  V30 19604 H 1817.25 -2.78607 5.0105 0
M  V30 19605 H 1815.65 -2.22853 5.57186 0
M  V30 19606 H 1816.72 -1.09826 4.72299 0
M  V30 19607 N 1818.06 -1.49479 -0.499372 0
M  V30 19608 C 1819.31 -1.58295 -1.25003 0
M  V30 19609 C 1819.63 -0.275616 -1.93648 0
M  V30 19610 O 1820.83 -0.24234 -2.70416 0
M  V30 19611 C 1819.29 -2.793 -2.26979 0
M  V30 19612 C 1818.9 -4.16799 -1.64264 0
M  V30 19613 C 1820.64 -2.97447 -3.02862 0
M  V30 19614 C 1818.55 -5.29025 -2.6436 0
M  V30 19615 H 1817.48 -0.589398 -0.470241 0
M  V30 19616 H 1820.13 -1.75868 -0.523698 0
M  V30 19617 H 1818.51 -2.55225 -3.02781 0
M  V30 19618 H 1819.68 -4.51018 -0.944432 0
M  V30 19619 H 1818 -4.04024 -1.00765 0
M  V30 19620 H 1820.6 -3.78461 -3.77719 0
M  V30 19621 H 1820.94 -2.08071 -3.60572 0
M  V30 19622 H 1821.47 -3.2157 -2.34175 0
M  V30 19623 H 1818.21 -6.20466 -2.11429 0
M  V30 19624 H 1817.73 -4.99258 -3.32417 0
M  V30 19625 H 1819.41 -5.58427 -3.26755 0
M  V30 19626 N 1819.54 0.750537 -1.38581 0
M  V30 19627 C 1820.77 1.53755 -1.37996 0
M  V30 19628 C 1821.18 1.89174 0.0313394 0
M  V30 19629 O 1820.52 1.535 1.00912 0
M  V30 19630 C 1820.58 2.86315 -2.17403 0
M  V30 19631 C 1820.25 2.73417 -3.66186 0
M  V30 19632 C 1821.25 2.43008 -4.59612 0
M  V30 19633 C 1818.93 2.90774 -4.0958 0
M  V30 19634 C 1820.92 2.30114 -5.94413 0
M  V30 19635 C 1818.61 2.775 -5.4446 0
M  V30 19636 C 1819.61 2.47213 -6.3669 0
M  V30 19637 O 1819.3 2.34004 -7.69089 0
M  V30 19638 H 1819.03 0.482269 -0.473701 0
M  V30 19639 H 1821.58 0.936379 -1.82814 0
M  V30 19640 H 1819.81 3.48633 -1.67307 0
M  V30 19641 H 1821.5 3.47844 -2.09187 0
M  V30 19642 H 1822.27 2.29263 -4.27391 0
M  V30 19643 H 1818.15 3.13344 -3.38137 0
M  V30 19644 H 1821.69 2.06396 -6.66368 0
M  V30 19645 H 1817.59 2.90818 -5.76277 0
M  V30 19646 H 1818.36 2.49193 -7.79644 0
M  V30 19647 N 1821.02 1.235 0.979051 0
M  V30 19648 C 1821.95 0.975198 2.07419 0
M  V30 19649 C 1822.96 -0.0512875 1.62719 0
M  V30 19650 O 1824.15 0.184403 1.77545 0
M  V30 19651 C 1821.25 0.447701 3.3593 0
M  V30 19652 C 1820.43 1.53467 4.09593 0
M  V30 19653 C 1819.49 1.01181 5.16381 0
M  V30 19654 O 1818.51 1.70108 5.43187 0
M  V30 19655 N 1819.71 -0.159667 5.8028 0
M  V30 19656 H 1822.48 1.91806 2.30283 0
M  V30 19657 H 1820.04 1.14377 1.14584 0
M  V30 19658 H 1822.03 0.0829228 4.04615 0
M  V30 19659 H 1820.6 -0.400613 3.10022 0
M  V30 19660 H 1819.82 2.07215 3.35344 0
M  V30 19661 H 1821.11 2.2656 4.55574 0
M  V30 19662 H 1820.51 -0.736193 5.60889 0
M  V30 19663 H 1819.06 -0.465696 6.50134 0
M  V30 19664 N 1822.5 -1.17802 1.04693 0
M  V30 19665 C 1823.45 -2.19584 0.613744 0
M  V30 19666 C 1824.43 -1.57111 -0.34713 0
M  V30 19667 O 1825.62 -1.76228 -0.16517 0
M  V30 19668 C 1822.75 -3.43297 -0.0152847 0
M  V30 19669 C 1821.84 -4.12879 0.969114 0
M  V30 19670 N 1822.23 -4.58364 2.13859 0
M  V30 19671 C 1820.53 -4.3883 0.796487 0
M  V30 19672 C 1821.23 -5.12003 2.76094 0
M  V30 19673 N 1820.2 -5.039 2.03926 0
M  V30 19674 H 1824.01 -2.5245 1.50486 0
M  V30 19675 H 1821.52 -1.34076 0.916373 0
M  V30 19676 H 1823.52 -4.15484 -0.343354 0
M  V30 19677 H 1822.18 -3.11924 -0.901858 0
M  V30 19678 H 1823.19 -4.52613 2.51718 0
M  V30 19679 H 1819.87 -4.17481 -0.0394627 0
M  V30 19680 H 1821.26 -5.57355 3.7524 0
M  V30 19681 N 1823.98 -0.827251 -1.34143 0
M  V30 19682 C 1825.39 -0.513554 -1.51112 0
M  V30 19683 C 1825.59 0.961434 -1.77084 0
M  V30 19684 O 1824.65 1.74573 -1.82429 0
M  V30 19685 C 1825.96 -1.37683 -2.67327 0
M  V30 19686 C 1827.51 -1.3744 -2.8121 0
M  V30 19687 C 1827.98 -2.22226 -4.00474 0
M  V30 19688 N 1829.47 -2.19873 -4.07689 0
M  V30 19689 C 1830.21 -2.82222 -4.99138 0
M  V30 19690 N 1829.71 -3.53578 -5.95781 0
M  V30 19691 N 1831.5 -2.71753 -4.92043 0
M  V30 19692 H 1823.65 -1.78222 -1.15545 0
M  V30 19693 H 1825.91 -0.759711 -0.567047 0
M  V30 19694 H 1825.62 -2.42448 -2.54778 0
M  V30 19695 H 1825.49 -1.0446 -3.62447 0
M  V30 19696 H 1827.88 -0.334525 -2.93198 0
M  V30 19697 H 1827.96 -1.74663 -1.86886 0
M  V30 19698 H 1827.6 -3.26266 -3.89246 0
M  V30 19699 H 1827.53 -1.82352 -4.9402 0
M  V30 19700 H 1830.03 -1.67972 -3.38517 0
M  V30 19701 H 1830.34 -3.98387 -6.62199 0
M  V30 19702 H 1828.68 -3.57685 -5.95892 0
M  V30 19703 H 1831.87 -2.15579 -4.15504 0
M  V30 19704 H 1832.05 -3.2063 -5.63117 0
M  V30 19705 N 1825.45 1.46436 -0.582609 0
M  V30 19706 C 1826.39 2.2733 0.199056 0
M  V30 19707 C 1827.36 1.35621 0.896981 0
M  V30 19708 O 1828.55 1.65031 0.910887 0
M  V30 19709 C 1825.68 3.13352 1.28563 0
M  V30 19710 C 1824.72 4.20823 0.69355 0
M  V30 19711 S 1825.55 5.33349 -0.479488 0
M  V30 19712 C 1826.71 6.22937 0.608287 0
M  V30 19713 H 1826.94 2.93279 -0.487326 0
M  V30 19714 H 1824.48 1.49913 -0.369502 0
M  V30 19715 H 1826.43 3.63476 1.90775 0
M  V30 19716 H 1825.1 2.46716 1.94396 0
M  V30 19717 H 1824.29 4.80839 1.5103 0
M  V30 19718 H 1823.89 3.73711 0.147092 0
M  V30 19719 H 1826.18 6.60823 1.49397 0
M  V30 19720 H 1827.13 7.08086 0.0448907 0
M  V30 19721 H 1827.53 5.57078 0.912387 0
M  V30 19722 N 1826.93 0.320385 1.54309 0
M  V30 19723 C 1827.86 -0.539789 2.27175 0
M  V30 19724 C 1828.84 -1.12198 1.2785 0
M  V30 19725 O 1830.03 -1.1477 1.56657 0
M  V30 19726 C 1827.16 -1.70236 3.02716 0
M  V30 19727 C 1826.11 -1.24962 4.09351 0
M  V30 19728 C 1825.44 -2.49888 4.72715 0
M  V30 19729 C 1826.74 -0.366788 5.21011 0
M  V30 19730 H 1828.43 0.0680079 2.99323 0
M  V30 19731 H 1825.98 0.0341488 1.4396 0
M  V30 19732 H 1827.93 -2.31037 3.5242 0
M  V30 19733 H 1826.65 -2.33669 2.2818 0
M  V30 19734 H 1825.31 -0.664556 3.60526 0
M  V30 19735 H 1824.96 -3.11679 3.94798 0
M  V30 19736 H 1824.66 -2.20288 5.44745 0
M  V30 19737 H 1826.19 -3.11458 5.25192 0
M  V30 19738 H 1827.6 -0.881001 5.6649 0
M  V30 19739 H 1826 -0.163707 5.99877 0
M  V30 19740 H 1827.07 0.603185 4.81134 0
M  V30 19741 N 1828.41 -1.57525 0.0484906 0
M  V30 19742 C 1829.83 -1.56599 -0.308041 0
M  V30 19743 C 1830.03 -1.05591 -1.71618 0
M  V30 19744 O 1829.08 -0.711302 -2.42274 0
M  V30 19745 C 1830.39 -3.00379 -0.138955 0
M  V30 19746 C 1831.94 -3.12293 -0.210262 0
M  V30 19747 C 1832.42 -4.57947 -0.0697369 0
M  V30 19748 N 1833.91 -4.63028 -0.1261 0
M  V30 19749 C 1834.64 -5.73385 -0.0414392 0
M  V30 19750 N 1834.14 -6.92734 0.0954164 0
M  V30 19751 N 1835.93 -5.62017 -0.0968281 0
M  V30 19752 H 1828.08 -1.89005 0.969069 0
M  V30 19753 H 1830.35 -0.87027 0.375944 0
M  V30 19754 H 1830.05 -3.41722 0.831808 0
M  V30 19755 H 1829.93 -3.66278 -0.901109 0
M  V30 19756 H 1832.31 -2.7085 -1.1715 0
M  V30 19757 H 1832.39 -2.49077 0.582601 0
M  V30 19758 H 1832.04 -5.00074 0.888161 0
M  V30 19759 H 1831.97 -5.19166 -0.881711 0
M  V30 19760 H 1834.46 -3.77192 -0.231232 0
M  V30 19761 H 1834.77 -7.72649 0.152796 0
M  V30 19762 H 1833.12 -6.94878 0.130465 0
M  V30 19763 H 1836.31 -4.67663 -0.202283 0
M  V30 19764 H 1836.48 -6.47994 -0.0273908 0
M  V30 19765 N 1829.89 0.224867 -1.55988 0
M  V30 19766 C 1831.11 0.970897 -1.83271 0
M  V30 19767 C 1831.54 1.77293 -0.628399 0
M  V30 19768 O 1830.9 1.76301 0.422804 0
M  V30 19769 C 1830.94 1.86686 -3.08514 0
M  V30 19770 O 1830.05 2.96174 -2.86975 0
M  V30 19771 H 1829.39 0.275093 -0.604334 0
M  V30 19772 H 1831.92 0.239183 -2.03197 0
M  V30 19773 H 1831.93 2.27731 -3.3853 0
M  V30 19774 H 1830.6 1.27733 -3.95799 0
M  V30 19775 H 1829.18 2.59099 -2.68183 0
M  V30 19776 N 1831.37 1.49742 0.491438 0
M  V30 19777 C 1832.61 1.59395 1.24248 0
M  V30 19778 C 1832.93 0.286934 1.92877 0
M  V30 19779 O 1832.2 -0.694353 1.83182 0
M  V30 19780 H 1830.78 0.587313 0.461598 0
M  V30 19781 H 1833.45 1.86417 0.56873 0
M  V30 19782 H 1832.54 2.39487 2.00131 0
M  V30 19783 N 1832.84 -0.743177 1.38977 0
M  V30 19784 C 1833.78 -1.86709 1.32938 0
M  V30 19785 C 1834.79 -1.61027 0.239644 0
M  V30 19786 O 1835.98 -1.71413 0.497991 0
M  V30 19787 C 1833.08 -3.22566 1.03945 0
M  V30 19788 C 1832.25 -3.75669 2.24034 0
M  V30 19789 C 1831.31 -4.90068 1.91625 0
M  V30 19790 O 1830.34 -5.04156 2.64226 0
M  V30 19791 N 1831.54 -5.7383 0.877465 0
M  V30 19792 H 1834.3 -1.92397 2.2979 0
M  V30 19793 H 1831.86 -0.923564 1.32973 0
M  V30 19794 H 1833.86 -3.96654 0.802977 0
M  V30 19795 H 1832.43 -3.12198 0.15854 0
M  V30 19796 H 1831.65 -2.93027 2.63683 0
M  V30 19797 H 1832.93 -4.07882 3.04154 0
M  V30 19798 H 1832.33 -5.65028 0.275604 0
M  V30 19799 H 1830.89 -6.48021 0.700881 0
M  V30 19800 N 1834.32 -1.24018 -0.972487 0
M  V30 19801 C 1835.57 -1.07489 -1.71145 0
M  V30 19802 C 1835.89 0.387798 -1.91105 0
M  V30 19803 O 1835.16 1.27725 -1.48537 0
M  V30 19804 H 1833.74 -0.394765 -0.634168 0
M  V30 19805 H 1836.4 -1.55861 -1.17018 0
M  V30 19806 H 1835.5 -1.56913 -2.69786 0
M  V30 19807 N 1835.8 1.17245 -1.05316 0
M  V30 19808 C 1837.08 1.83482 -0.677779 0
M  V30 19809 C 1837.46 1.93592 0.841753 0
M  V30 19810 O 1836.81 1.47142 1.74818 0
M  V30 19811 C 1837.02 3.21062 -1.36823 0
M  V30 19812 C 1838.36 3.96954 -1.50708 0
M  V30 19813 O 1839.39 3.30545 -1.32734 0
M  V30 19814 O 1838.25 5.15967 -1.80111 0
M  V30 19815 H 1835.34 0.79179 -0.238741 0
M  V30 19816 H 1837.89 1.24531 -1.15283 0
M  V30 19817 H 1836.66 3.08679 -2.40484 0
M  V30 19818 H 1836.28 3.8768 -0.882617 0
M  V30 19819 N 1837.28 0.834353 1.33702 0
M  V30 19820 C 1838.24 0.269618 2.27609 0
M  V30 19821 C 1839.24 -0.559065 1.50768 0
M  V30 19822 O 1840.43 -0.373511 1.70149 0
M  V30 19823 C 1837.56 -0.620682 3.35202 0
M  V30 19824 H 1838.76 1.09819 2.79069 0
M  V30 19825 H 1836.31 0.607087 1.44028 0
M  V30 19826 H 1837.04 -1.47187 2.88975 0
M  V30 19827 H 1836.83 -0.0278102 3.9209 0
M  V30 19828 H 1838.32 -1.00924 4.05221 0
M  V30 19829 N 1838.76 -1.46125 0.590367 0
M  V30 19830 C 1839.69 -2.33159 -0.126114 0
M  V30 19831 C 1840.67 -1.45806 -0.876057 0
M  V30 19832 O 1841.85 -1.7461 -0.850009 0
M  V30 19833 C 1838.98 -3.28217 -1.13537 0
M  V30 19834 C 1837.94 -4.25072 -0.499773 0
M  V30 19835 C 1837.26 -5.09694 -1.61605 0
M  V30 19836 C 1838.56 -5.19202 0.567992 0
M  V30 19837 H 1840.26 -2.93315 0.600577 0
M  V30 19838 H 1837.8 -1.41044 0.290265 0
M  V30 19839 H 1839.76 -3.87965 -1.64503 0
M  V30 19840 H 1838.48 -2.66185 -1.89244 0
M  V30 19841 H 1837.14 -3.66598 -0.0111313 0
M  V30 19842 H 1836.79 -4.44041 -2.36297 0
M  V30 19843 H 1836.49 -5.75292 -1.19637 0
M  V30 19844 H 1838.01 -5.72307 -2.12832 0
M  V30 19845 H 1839.42 -5.73121 0.143102 0
M  V30 19846 H 1837.82 -5.93184 0.908428 0
M  V30 19847 H 1838.89 -4.62671 1.45133 0
M  V30 19848 N 1840.23 -0.328564 -1.54137 0
M  V30 19849 C 1841.2 0.52248 -2.23165 0
M  V30 19850 C 1842.2 1.03956 -1.22677 0
M  V30 19851 O 1843.39 0.931193 -1.47222 0
M  V30 19852 C 1840.52 1.72624 -2.93962 0
M  V30 19853 H 1841.71 -0.081023 -2.99791 0
M  V30 19854 H 1839.27 -0.0797096 -1.56097 0
M  V30 19855 H 1840 2.36885 -2.21486 0
M  V30 19856 H 1839.79 1.36283 -3.67654 0
M  V30 19857 H 1841.28 2.33023 -3.4654 0
M  V30 19858 N 1841.71 1.57497 -0.0568439 0
M  V30 19859 C 1842.94 1.97645 0.628589 0
M  V30 19860 C 1843.36 0.934424 1.63249 0
M  V30 19861 O 1842.72 -0.101706 1.81015 0
M  V30 19862 C 1842.77 3.36855 1.2869 0
M  V30 19863 O 1841.87 3.35182 2.40264 0
M  V30 19864 H 1841.21 0.643698 0.16294 0
M  V30 19865 H 1843.74 2.04206 -0.126927 0
M  V30 19866 H 1843.75 3.73708 1.63726 0
M  V30 19867 H 1842.43 4.12231 0.551203 0
M  V30 19868 H 1841.01 3.10081 2.07133 0
M  V30 19869 N 1843.19 -0.216591 1.56105 0
M  V30 19870 C 1844.44 -0.938392 1.78993 0
M  V30 19871 C 1844.76 -1.84671 0.626215 0
M  V30 19872 O 1844.03 -1.92626 -0.356636 0
M  V30 19873 H 1842.61 -0.349491 0.660201 0
M  V30 19874 H 1845.27 -0.227256 1.93571 0
M  V30 19875 H 1844.37 -1.54227 2.71331 0
M  V30 19876 N 1844.67 -1.5 -0.48349 0
M  V30 19877 C 1846.08 -1.53369 -1.06466 0
M  V30 19878 C 1846.43 -0.329973 -1.93405 0
M  V30 19879 O 1845.56 0.558444 -2.0907 0
M  V30 19880 C 1846.15 -2.77927 -1.93757 0
M  V30 19881 C 1844.71 -2.84017 -2.47005 0
M  V30 19882 C 1843.86 -2.47506 -1.25044 0
M  V30 19883 H 1846.81 -1.56444 -0.266633 0
M  V30 19884 H 1846.83 -2.59081 -2.78671 0
M  V30 19885 H 1846.34 -3.65518 -1.30454 0
M  V30 19886 H 1844.44 -2.00748 -3.13896 0
M  V30 19887 H 1844.55 -3.86614 -2.8296 0
M  V30 19888 H 1842.92 -1.99669 -1.58127 0
M  V30 19889 H 1843.7 -3.37391 -0.634225 0
M  V30 19890 N 1846.15 0.735796 -1.39369 0
M  V30 19891 C 1847.39 1.49756 -1.36752 0
M  V30 19892 C 1847.73 1.94165 0.036815 0
M  V30 19893 O 1847 1.66728 1.00159 0
M  V30 19894 C 1847.28 2.73779 -2.33916 0
M  V30 19895 C 1847.14 2.35394 -3.83288 0
M  V30 19896 C 1848.46 3.75875 -2.28924 0
M  V30 19897 H 1845.57 0.543236 -0.49806 0
M  V30 19898 H 1848.22 0.841381 -1.70355 0
M  V30 19899 H 1846.37 3.29768 -2.05391 0
M  V30 19900 H 1848.04 1.85043 -4.2256 0
M  V30 19901 H 1846.28 1.67632 -4.00102 0
M  V30 19902 H 1846.95 3.24206 -4.4676 0
M  V30 19903 H 1849.43 3.29469 -2.54144 0
M  V30 19904 H 1848.3 4.60321 -2.98991 0
M  V30 19905 H 1848.57 4.22739 -1.29399 0
M  V30 19906 N 1847.63 1.24532 0.965897 0
M  V30 19907 C 1848.54 1.0564 2.09469 0
M  V30 19908 C 1849.55 -0.00330962 1.74 0
M  V30 19909 O 1850.73 0.195248 2.00451 0
M  V30 19910 C 1847.79 0.665318 3.40256 0
M  V30 19911 C 1846.85 1.80171 3.89663 0
M  V30 19912 C 1846.09 1.42919 5.14208 0
M  V30 19913 O 1846.31 0.319815 5.69503 0
M  V30 19914 O 1845.24 2.25546 5.58044 0
M  V30 19915 H 1849.07 2.00277 2.28304 0
M  V30 19916 H 1846.65 1.03368 1.07868 0
M  V30 19917 H 1848.54 0.458827 4.18895 0
M  V30 19918 H 1847.21 -0.251914 3.22718 0
M  V30 19919 H 1846.12 2.06296 3.12078 0
M  V30 19920 H 1847.45 2.69778 4.11681 0
M  V30 19921 N 1849.1 -1.16685 1.05936 0
M  V30 19922 C 1850.33 -1.91035 0.794553 0
M  V30 19923 C 1850.75 -1.77234 -0.650663 0
M  V30 19924 O 1850.1 -1.11454 -1.44514 0
M  V30 19925 C 1850.15 -3.41859 1.17536 0
M  V30 19926 O 1849.88 -3.55243 2.56386 0
M  V30 19927 C 1851.38 -4.33267 0.937774 0
M  V30 19928 H 1848.6 -0.605896 0.288325 0
M  V30 19929 H 1851.14 -1.47925 1.41203 0
M  V30 19930 H 1849.3 -3.82686 0.602486 0
M  V30 19931 H 1849.71 -4.48744 2.71531 0
M  V30 19932 H 1851.18 -5.3757 1.25389 0
M  V30 19933 H 1851.66 -4.39017 -0.126673 0
M  V30 19934 H 1852.27 -3.98163 1.49486 0
M  V30 19935 N 1850.58 -0.841432 -1.33258 0
M  V30 19936 C 1851.83 -0.437512 -1.97307 0
M  V30 19937 C 1852.15 1.00723 -1.66973 0
M  V30 19938 O 1851.42 1.70199 -0.969998 0
M  V30 19939 H 1850 -0.158794 -0.729927 0
M  V30 19940 H 1852.66 -1.07495 -1.62575 0
M  V30 19941 H 1851.76 -0.571675 -3.0682 0
M  V30 19942 N 1852.06 1.4581 -0.598108 0
M  V30 19943 C 1853.47 1.85871 -0.175736 0
M  V30 19944 C 1853.82 1.49969 1.26505 0
M  V30 19945 O 1852.95 0.921857 1.95782 0
M  V30 19946 C 1853.54 3.37359 -0.312157 0
M  V30 19947 C 1852.1 3.76359 0.0554534 0
M  V30 19948 C 1851.25 2.6979 -0.640999 0
M  V30 19949 H 1854.2 1.36745 -0.805383 0
M  V30 19950 H 1854.22 3.7773 0.458274 0
M  V30 19951 H 1853.73 3.63458 -1.36088 0
M  V30 19952 H 1851.83 3.55878 1.10372 0
M  V30 19953 H 1851.95 4.77951 -0.331592 0
M  V30 19954 H 1850.31 2.54576 -0.0796238 0
M  V30 19955 H 1851.09 2.98726 -1.69167 0
M  V30 19956 N 1853.54 0.336733 1.53961 0
M  V30 19957 C 1854.47 -0.566072 2.21068 0
M  V30 19958 C 1855.45 -1.10558 1.1923 0
M  V30 19959 O 1856.63 -1.16712 1.48022 0
M  V30 19960 C 1853.76 -1.77806 2.88275 0
M  V30 19961 C 1852.81 -1.36863 4.03944 0
M  V30 19962 S 1853.64 -0.394182 5.34047 0
M  V30 19963 C 1854.79 -1.61316 6.04754 0
M  V30 19964 H 1855.03 0.00393395 2.973 0
M  V30 19965 H 1852.56 0.120807 1.53927 0
M  V30 19966 H 1854.52 -2.47342 3.27616 0
M  V30 19967 H 1853.18 -2.31928 2.11822 0
M  V30 19968 H 1852.37 -2.2721 4.49879 0
M  V30 19969 H 1851.97 -0.752832 3.66345 0
M  V30 19970 H 1854.27 -2.54866 6.27734 0
M  V30 19971 H 1855.21 -1.19572 6.97931 0
M  V30 19972 H 1855.62 -1.80612 5.34827 0
M  V30 19973 N 1855.02 -1.57465 0.0651956 0
M  V30 19974 C 1855.96 -2.12345 -0.904345 0
M  V30 19975 C 1856.93 -1.03429 -1.29968 0
M  V30 19976 O 1858.12 -1.31055 -1.38669 0
M  V30 19977 C 1855.26 -2.68423 -2.16895 0
M  V30 19978 C 1854.37 -3.91472 -1.82684 0
M  V30 19979 C 1853.51 -4.35816 -3.03706 0
M  V30 19980 C 1852.54 -5.5153 -2.65482 0
M  V30 19981 N 1851.68 -5.90863 -3.79242 0
M  V30 19982 H 1856.52 -2.94889 -0.429468 0
M  V30 19983 H 1854.06 -1.45729 -0.200344 0
M  V30 19984 H 1856.02 -2.99041 -2.90913 0
M  V30 19985 H 1854.65 -1.88654 -2.61934 0
M  V30 19986 H 1853.7 -3.67357 -0.987564 0
M  V30 19987 H 1855.01 -4.75536 -1.50557 0
M  V30 19988 H 1854.16 -4.68062 -3.86009 0
M  V30 19989 H 1852.9 -3.50593 -3.39022 0
M  V30 19990 H 1851.91 -5.18943 -1.81598 0
M  V30 19991 H 1853.13 -6.3848 -2.31343 0
M  V30 19992 H 1851.08 -5.08591 -4.14332 0
M  V30 19993 H 1851 -6.69651 -3.50861 0
M  V30 19994 H 1852.26 -6.27729 -4.62144 0
M  V30 19995 N 1856.49 0.20831 -1.56217 0
M  V30 19996 C 1857.44 1.2582 -1.93489 0
M  V30 19997 C 1858.41 1.45907 -0.793748 0
M  V30 19998 O 1859.6 1.59258 -1.05078 0
M  V30 19999 C 1856.74 2.60077 -2.26835 0
M  V30 20000 C 1855.85 2.47678 -3.53948 0
M  V30 20001 C 1854.98 3.74549 -3.76678 0
M  V30 20002 C 1854.02 3.56928 -4.97261 0
M  V30 20003 N 1853.16 4.75779 -5.16313 0
M  V30 20004 H 1858 0.933346 -2.83006 0
M  V30 20005 H 1855.54 0.449531 -1.40063 0
M  V30 20006 H 1857.49 3.38277 -2.44181 0
M  V30 20007 H 1856.12 2.90632 -1.40474 0
M  V30 20008 H 1855.18 1.60844 -3.44722 0
M  V30 20009 H 1856.49 2.30585 -4.42303 0
M  V30 20010 H 1855.64 4.61191 -3.94193 0
M  V30 20011 H 1854.38 3.94582 -2.86629 0
M  V30 20012 H 1853.39 2.6867 -4.79683 0
M  V30 20013 H 1854.61 3.38353 -5.88808 0
M  V30 20014 H 1852.56 4.96101 -4.29209 0
M  V30 20015 H 1852.47 4.61462 -5.98823 0
M  V30 20016 H 1853.74 5.6381 -5.38274 0
M  V30 20017 N 1857.97 1.50255 0.475528 0
M  V30 20018 C 1858.9 1.71721 1.58222 0
M  V30 20019 C 1859.88 0.56612 1.60403 0
M  V30 20020 O 1861.07 0.804774 1.7674 0
M  V30 20021 C 1858.2 1.80726 2.96573 0
M  V30 20022 C 1857.15 2.95877 3.09258 0
M  V30 20023 C 1856.48 2.9002 4.49213 0
M  V30 20024 C 1857.78 4.36452 2.86891 0
M  V30 20025 H 1859.47 2.6438 1.40511 0
M  V30 20026 H 1857.02 1.27224 0.674533 0
M  V30 20027 H 1858.97 1.94328 3.73918 0
M  V30 20028 H 1857.69 0.846846 3.1543 0
M  V30 20029 H 1856.35 2.81918 2.34345 0
M  V30 20030 H 1856 1.91834 4.64982 0
M  V30 20031 H 1855.7 3.67322 4.58637 0
M  V30 20032 H 1857.23 3.05665 5.28584 0
M  V30 20033 H 1858.64 4.5096 3.53989 0
M  V30 20034 H 1857.04 5.15171 3.07765 0
M  V30 20035 H 1858.11 4.49129 1.82786 0
M  V30 20036 N 1859.45 -0.728395 1.39758 0
M  V30 20037 C 1860.4 -1.83374 1.35491 0
M  V30 20038 C 1861.38 -1.5918 0.234629 0
M  V30 20039 O 1862.58 -1.70571 0.472703 0
M  V30 20040 C 1859.7 -3.21373 1.20725 0
M  V30 20041 C 1858.79 -3.51373 2.37482 0
M  V30 20042 N 1859.18 -3.52269 3.6296 0
M  V30 20043 C 1857.48 -3.81769 2.30583 0
M  V30 20044 C 1858.18 -3.80252 4.40208 0
M  V30 20045 N 1857.16 -3.98359 3.6988 0
M  V30 20046 H 1860.96 -1.82381 2.30465 0
M  V30 20047 H 1858.47 -0.926941 1.33348 0
M  V30 20048 H 1860.47 -4.00509 1.15751 0
M  V30 20049 H 1859.13 -3.236 0.267072 0
M  V30 20050 H 1860.14 -3.33423 3.96295 0
M  V30 20051 H 1856.82 -3.91562 1.44862 0
M  V30 20052 H 1858.21 -3.87357 5.49003 0
M  V30 20053 N 1860.93 -1.25042 -0.959279 0
M  V30 20054 C 1862.17 -1.09677 -1.70584 0
M  V30 20055 C 1862.51 0.362184 -1.90793 0
M  V30 20056 O 1861.78 1.26722 -1.47552 0
M  V30 20057 C 1862.06 -1.84646 -3.09157 0
M  V30 20058 C 1861.92 -3.38342 -2.96387 0
M  V30 20059 C 1863.24 -1.62588 -4.08966 0
M  V30 20060 H 1860.36 -0.399817 -0.619125 0
M  V30 20061 H 1863 -1.53816 -1.11537 0
M  V30 20062 H 1861.15 -1.47129 -3.59563 0
M  V30 20063 H 1862.82 -3.85507 -2.53342 0
M  V30 20064 H 1861.06 -3.66291 -2.32408 0
M  V30 20065 H 1861.73 -3.86007 -3.94592 0
M  V30 20066 H 1864.21 -1.9524 -3.67451 0
M  V30 20067 H 1863.09 -2.17488 -5.03975 0
M  V30 20068 H 1863.35 -0.566103 -4.38461 0
M  V30 20069 N 1862.41 1.16121 -1.06553 0
M  V30 20070 C 1863.63 1.91152 -0.804706 0
M  V30 20071 C 1864.06 1.77045 0.635338 0
M  V30 20072 O 1863.41 1.09757 1.44302 0
M  V30 20073 C 1863.46 3.39782 -1.20751 0
M  V30 20074 O 1862.57 4.1093 -0.347889 0
M  V30 20075 H 1861.91 0.595433 -0.293863 0
M  V30 20076 H 1864.44 1.47104 -1.42203 0
M  V30 20077 H 1864.45 3.90558 -1.1802 0
M  V30 20078 H 1863.12 3.49369 -2.25642 0
M  V30 20079 H 1861.7 3.70331 -0.436993 0
M  V30 20080 N 1863.88 0.848487 1.3281 0
M  V30 20081 C 1865.11 0.462643 2.01661 0
M  V30 20082 C 1865.53 -0.938906 1.63799 0
M  V30 20083 O 1864.88 -1.61171 0.85617 0
M  V30 20084 C 1864.94 0.584905 3.56737 0
M  V30 20085 O 1864.66 1.93124 3.93236 0
M  V30 20086 C 1866.16 0.197265 4.42861 0
M  V30 20087 H 1863.38 0.18254 0.645694 0
M  V30 20088 H 1865.92 1.14372 1.69527 0
M  V30 20089 H 1864.08 -0.0483701 3.8737 0
M  V30 20090 H 1864.49 1.92361 4.87952 0
M  V30 20091 H 1865.96 0.333833 5.5099 0
M  V30 20092 H 1866.44 -0.861732 4.30663 0
M  V30 20093 H 1867.05 0.805363 4.17605 0
M  V30 20094 N 1865.36 -1.4549 0.605832 0
M  V30 20095 C 1866.61 -2.01462 0.0979275 0
M  V30 20096 C 1866.92 -1.48025 -1.27859 0
M  V30 20097 O 1868.13 -1.95962 -1.87912 0
M  V30 20098 C 1866.59 -3.59685 0.124393 0
M  V30 20099 C 1866.19 -4.22119 1.50065 0
M  V30 20100 C 1867.94 -4.23228 -0.328361 0
M  V30 20101 C 1865.85 -5.72489 1.4836 0
M  V30 20102 H 1864.78 -0.753284 0.0328415 0
M  V30 20103 H 1867.43 -1.66981 0.760903 0
M  V30 20104 H 1865.81 -3.91348 -0.605201 0
M  V30 20105 H 1866.98 -4.02032 2.25181 0
M  V30 20106 H 1865.3 -3.70763 1.89535 0
M  V30 20107 H 1867.89 -5.33485 -0.360274 0
M  V30 20108 H 1868.24 -3.93779 -1.35068 0
M  V30 20109 H 1868.77 -3.96276 0.347909 0
M  V30 20110 H 1865.51 -6.06634 2.48346 0
M  V30 20111 H 1865.03 -5.94772 0.774989 0
M  V30 20112 H 1866.71 -6.35652 1.20648 0
M  V30 20113 N 1866.84 -0.344893 -1.5378 0
M  V30 20114 C 1867.79 0.526591 -2.26561 0
M  V30 20115 C 1868.78 1.10083 -1.28756 0
M  V30 20116 O 1869.99 1.04641 -1.46459 0
M  V30 20117 H 1866.36 0.188505 -0.72799 0
M  V30 20118 H 1868.33 -0.109269 -2.982 0
M  V30 20119 C 1867.08 1.66505 -3.0524 0
M  V30 20120 H 1866.41 1.23246 -3.80329 0
M  V30 20121 H 1867.85 2.24998 -3.59377 0
M  V30 20122 C 1866.31 2.59527 -2.14819 0
M  V30 20123 O 1866.84 3.6181 -1.74517 0
M  V30 20124 N 1865.04 2.28243 -1.79871 0
M  V30 20125 H 1864.59 1.45106 -2.12843 0
M  V30 20126 H 1864.55 2.90741 -1.19654 0
M  V30 20127 N 1868.32 1.57428 -0.0735454 0
M  V30 20128 C 1869.25 2.15849 0.890584 0
M  V30 20129 C 1870.23 1.086 1.3092 0
M  V30 20130 O 1871.41 1.36643 1.37994 0
M  V30 20131 C 1868.54 2.72153 2.15755 0
M  V30 20132 C 1867.5 3.84584 1.87827 0
M  V30 20133 C 1866.82 4.27498 3.21169 0
M  V30 20134 C 1868.12 5.08746 1.18217 0
M  V30 20135 H 1869.82 2.96663 0.403904 0
M  V30 20136 H 1867.36 1.42703 0.192836 0
M  V30 20137 H 1869.32 3.11668 2.83621 0
M  V30 20138 H 1868.04 1.88562 2.66668 0
M  V30 20139 H 1866.7 3.45575 1.22366 0
M  V30 20140 H 1866.35 3.40827 3.69927 0
M  V30 20141 H 1866.05 5.03288 3.03273 0
M  V30 20142 H 1867.57 4.69631 3.9023 0
M  V30 20143 H 1868.99 5.45566 1.76155 0
M  V30 20144 H 1867.38 5.89825 1.10573 0
M  V30 20145 H 1868.45 4.84631 0.161525 0
M  V30 20146 N 1869.8 -0.200022 1.56326 0
M  V30 20147 C 1870.73 -1.27187 1.90673 0
M  V30 20148 C 1871.74 -1.41961 0.796933 0
M  V30 20149 O 1872.93 -1.42474 1.07533 0
M  V30 20150 C 1870.03 -2.64468 2.11919 0
M  V30 20151 C 1869.2 -2.71366 3.43044 0
M  V30 20152 C 1868.26 -3.89809 3.53462 0
M  V30 20153 O 1867.29 -3.77142 4.26325 0
M  V30 20154 N 1868.49 -5.05052 2.86187 0
M  V30 20155 H 1871.26 -0.980397 2.83211 0
M  V30 20156 H 1868.82 -0.389967 1.57133 0
M  V30 20157 H 1870.81 -3.42122 2.16182 0
M  V30 20158 H 1869.38 -2.86124 1.25904 0
M  V30 20159 H 1868.6 -1.80024 3.50692 0
M  V30 20160 H 1869.89 -2.72961 4.29383 0
M  V30 20161 H 1869.28 -5.18242 2.26808 0
M  V30 20162 H 1867.84 -5.8067 2.96083 0
M  V30 20163 N 1871.27 -1.50505 -0.467553 0
M  V30 20164 C 1872.22 -1.69626 -1.56511 0
M  V30 20165 C 1873.19 -0.537594 -1.5716 0
M  V30 20166 O 1874.38 -0.768574 -1.74636 0
M  V30 20167 C 1871.52 -1.79965 -2.9446 0
M  V30 20168 C 1870.63 -3.07356 -3.03572 0
M  V30 20169 C 1869.76 -3.08469 -4.32458 0
M  V30 20170 C 1868.8 -4.303 -4.35326 0
M  V30 20171 N 1867.94 -4.29132 -5.55689 0
M  V30 20172 H 1872.78 -2.63326 -1.39511 0
M  V30 20173 H 1870.32 -1.30531 -0.678239 0
M  V30 20174 H 1872.28 -1.8394 -3.74462 0
M  V30 20175 H 1870.91 -0.897013 -3.10086 0
M  V30 20176 H 1869.96 -3.12836 -2.16421 0
M  V30 20177 H 1871.27 -3.97327 -3.01551 0
M  V30 20178 H 1870.42 -3.11193 -5.20811 0
M  V30 20179 H 1869.16 -2.16335 -4.37093 0
M  V30 20180 H 1868.17 -4.27784 -3.4537 0
M  V30 20181 H 1869.39 -5.23665 -4.3238 0
M  V30 20182 H 1867.34 -3.39853 -5.61102 0
M  V30 20183 H 1867.26 -5.12875 -5.55423 0
M  V30 20184 H 1868.52 -4.36007 -6.46156 0
M  V30 20185 N 1872.75 0.720973 -1.40142 0
M  V30 20186 C 1873.72 1.81676 -1.39737 0
M  V30 20187 C 1874.72 1.58125 -0.292068 0
M  V30 20188 O 1875.91 1.65266 -0.550699 0
M  V30 20189 C 1873.04 3.19685 -1.18381 0
M  V30 20190 H 1874.23 1.83435 -2.37259 0
M  V30 20191 H 1871.78 0.926064 -1.25912 0
M  V30 20192 H 1872.52 3.2358 -0.21598 0
M  V30 20193 H 1872.3 3.38178 -1.98439 0
M  V30 20194 H 1873.79 3.99724 -1.20873 0
M  V30 20195 N 1874.23 1.25549 0.952634 0
M  V30 20196 C 1875.48 1.11588 1.70058 0
M  V30 20197 C 1875.83 -0.339332 1.89384 0
M  V30 20198 O 1875.12 -1.24644 1.45515 0
M  V30 20199 C 1875.32 1.80586 3.08421 0
M  V30 20200 C 1875.15 3.32667 3.02593 0
M  V30 20201 C 1873.92 4.01927 3.0624 0
M  V30 20202 C 1876.12 4.29036 2.83607 0
M  V30 20203 N 1874.1 5.40768 2.90591 0
M  V30 20204 C 1875.47 5.54976 2.76409 0
M  V30 20205 C 1877.52 4.19426 2.68302 0
M  V30 20206 C 1876.23 6.72404 2.55471 0
M  V30 20207 C 1878.25 5.36549 2.48735 0
M  V30 20208 C 1877.61 6.6143 2.4226 0
M  V30 20209 H 1873.71 0.463049 0.630166 0
M  V30 20210 H 1876.3 1.58678 1.12825 0
M  V30 20211 H 1874.47 1.35989 3.63815 0
M  V30 20212 H 1876.2 1.59349 3.72008 0
M  V30 20213 H 1872.96 3.53201 3.15509 0
M  V30 20214 H 1873.38 6.13639 2.85965 0
M  V30 20215 H 1878.02 3.23622 2.72081 0
M  V30 20216 H 1875.74 7.68316 2.50433 0
M  V30 20217 H 1879.33 5.30976 2.37815 0
M  V30 20218 H 1878.21 7.50531 2.27317 0
M  V30 20219 N 1875.71 -1.15554 1.07168 0
M  V30 20220 C 1876.96 -1.85928 0.792151 0
M  V30 20221 C 1877.28 -1.82621 -0.68372 0
M  V30 20222 O 1876.55 -1.26585 -1.49509 0
M  V30 20223 H 1875.13 -0.688393 0.290043 0
M  V30 20224 H 1877.79 -1.40089 1.35503 0
M  V30 20225 H 1876.89 -2.91119 1.125 0
M  V30 20226 N 1877.19 -0.855519 -1.32358 0
M  V30 20227 C 1878.15 -0.305794 -2.27151 0
M  V30 20228 C 1879.15 0.535008 -1.51639 0
M  V30 20229 O 1880.34 0.346394 -1.70721 0
M  V30 20230 C 1877.47 0.567275 -3.36147 0
M  V30 20231 H 1878.67 -1.14245 -2.77287 0
M  V30 20232 H 1876.22 -0.629924 -1.43044 0
M  V30 20233 H 1876.95 1.42571 -2.9128 0
M  V30 20234 H 1876.74 -0.0345714 -3.92085 0
M  V30 20235 H 1878.23 0.944644 -4.06775 0
M  V30 20236 N 1878.67 1.45167 -0.61354 0
M  V30 20237 C 1879.63 2.29016 0.0919454 0
M  V30 20238 C 1880.63 1.40091 0.789373 0
M  V30 20239 O 1881.82 1.6215 0.636631 0
M  V30 20240 C 1878.95 3.21257 1.14048 0
M  V30 20241 H 1880.14 2.92875 -0.645317 0
M  V30 20242 H 1877.7 1.51788 -0.372855 0
M  V30 20243 H 1878.43 2.6221 1.90831 0
M  V30 20244 H 1878.22 3.86766 0.644523 0
M  V30 20245 H 1879.71 3.84288 1.63439 0
M  V30 20246 N 1880.14 0.353044 1.53595 0
M  V30 20247 C 1881.56 0.0014839 1.596 0
M  V30 20248 C 1881.76 -1.47884 1.36867 0
M  V30 20249 O 1880.82 -2.23881 1.16762 0
M  V30 20250 C 1882.13 0.446178 2.97371 0
M  V30 20251 C 1883.68 0.399329 3.10442 0
M  V30 20252 C 1884.15 0.819639 4.50606 0
M  V30 20253 N 1885.64 0.7742 4.56684 0
M  V30 20254 C 1886.38 1.07126 5.63304 0
M  V30 20255 N 1885.87 1.43696 6.77734 0
M  V30 20256 N 1887.67 0.994874 5.53226 0
M  V30 20257 H 1879.82 1.31719 1.66625 0
M  V30 20258 H 1882.08 0.537571 0.780847 0
M  V30 20259 H 1881.79 1.47869 3.19105 0
M  V30 20260 H 1881.66 -0.173715 3.768 0
M  V30 20261 H 1884.05 -0.624023 2.88427 0
M  V30 20262 H 1884.13 1.05455 2.33051 0
M  V30 20263 H 1883.77 1.84105 4.73358 0
M  V30 20264 H 1883.7 0.141795 5.26409 0
M  V30 20265 H 1886.19 0.504609 3.74516 0
M  V30 20266 H 1886.51 1.64822 7.55019 0
M  V30 20267 H 1884.85 1.4755 6.79157 0
M  V30 20268 H 1888.04 0.70845 4.62708 0
M  V30 20269 H 1888.22 1.22972 6.36225 0
M  V30 20270 N 1881.62 -1.57387 0.0818932 0
M  V30 20271 C 1883.04 -1.57217 -0.274755 0
M  V30 20272 C 1883.24 -1.09207 -1.6934 0
M  V30 20273 O 1882.29 -0.762532 -2.40711 0
M  V30 20274 C 1883.61 -3.00606 -0.075209 0
M  V30 20275 C 1885.15 -3.12669 -0.143973 0
M  V30 20276 C 1885.63 -4.57992 0.0274161 0
M  V30 20277 N 1887.12 -4.63192 -0.0278563 0
M  V30 20278 C 1887.86 -5.73344 0.0801936 0
M  V30 20279 N 1887.35 -6.92376 0.242334 0
M  V30 20280 N 1889.14 -5.62096 0.0224057 0
M  V30 20281 H 1881.3 -1.86907 1.00894 0
M  V30 20282 H 1883.56 -0.8621 0.39432 0
M  V30 20283 H 1883.26 -3.39881 0.904105 0
M  V30 20284 H 1883.14 -3.68107 -0.823213 0
M  V30 20285 H 1885.53 -2.73274 -1.11378 0
M  V30 20286 H 1885.61 -2.47785 0.635303 0
M  V30 20287 H 1885.25 -4.98078 0.994034 0
M  V30 20288 H 1885.18 -5.2092 -0.77139 0
M  V30 20289 H 1887.67 -3.77598 -0.151172 0
M  V30 20290 H 1887.98 -7.72151 0.316652 0
M  V30 20291 H 1886.33 -6.94444 0.277829 0
M  V30 20292 H 1889.52 -4.67987 -0.103039 0
M  V30 20293 H 1889.69 -6.47907 0.110065 0
M  V30 20294 N 1883.1 0.191729 -1.56429 0
M  V30 20295 C 1884.35 0.912948 -1.81089 0
M  V30 20296 C 1884.68 1.82767 -0.656483 0
M  V30 20297 O 1883.95 1.91456 0.342779 0
M  V30 20298 C 1884.24 1.72628 -3.16025 0
M  V30 20299 C 1884.09 0.836045 -4.41962 0
M  V30 20300 C 1885.41 2.69818 -3.47687 0
M  V30 20301 H 1882.53 0.33046 -0.658761 0
M  V30 20302 H 1885.17 0.180148 -1.89144 0
M  V30 20303 H 1883.32 2.35102 -3.09289 0
M  V30 20304 H 1884.99 0.225751 -4.60747 0
M  V30 20305 H 1883.23 0.142944 -4.33564 0
M  V30 20306 H 1883.91 1.44019 -5.32881 0
M  V30 20307 H 1886.38 2.17475 -3.54745 0
M  V30 20308 H 1885.26 3.23806 -4.43216 0
M  V30 20309 H 1885.52 3.49028 -2.71352 0
M  V30 20310 N 1884.58 1.50751 0.459565 0
M  V30 20311 C 1885.8 1.66367 1.23842 0
M  V30 20312 C 1886.23 0.351355 1.84789 0
M  V30 20313 O 1885.59 -0.686103 1.67816 0
M  V30 20314 C 1885.63 2.76521 2.31449 0
M  V30 20315 O 1884.74 2.38576 3.36386 0
M  V30 20316 H 1884.08 0.555447 0.363833 0
M  V30 20317 H 1886.61 1.97193 0.545538 0
M  V30 20318 H 1886.62 2.99943 2.76583 0
M  V30 20319 H 1885.29 3.71759 1.86462 0
M  V30 20320 H 1883.87 2.25643 2.96883 0
M  V30 20321 N 1886.06 -0.713531 1.40522 0
M  V30 20322 C 1887 -1.82761 1.40951 0
M  V30 20323 C 1887.97 -1.63953 0.266188 0
M  V30 20324 O 1889.16 -1.85058 0.464558 0
M  V30 20325 C 1886.3 -3.20488 1.27989 0
M  V30 20326 C 1885.41 -3.50853 2.52044 0
M  V30 20327 C 1884.55 -4.78097 2.31509 0
M  V30 20328 C 1883.58 -5.01373 3.51129 0
M  V30 20329 N 1882.72 -6.19832 3.29777 0
M  V30 20330 H 1887.56 -1.81729 2.36175 0
M  V30 20331 H 1885.1 -0.887703 1.17296 0
M  V30 20332 H 1887.06 -4.00023 1.1848 0
M  V30 20333 H 1885.69 -3.20743 0.363832 0
M  V30 20334 H 1884.74 -2.65858 2.72073 0
M  V30 20335 H 1886.05 -3.63961 3.41077 0
M  V30 20336 H 1885.2 -5.65654 2.19365 0
M  V30 20337 H 1883.94 -4.67203 1.39903 0
M  V30 20338 H 1882.95 -4.12271 3.63748 0
M  V30 20339 H 1884.17 -5.14139 4.43664 0
M  V30 20340 H 1882.12 -6.10184 2.40855 0
M  V30 20341 H 1882.04 -6.33626 4.12376 0
M  V30 20342 H 1883.3 -7.1017 3.2137 0
M  V30 20343 N 1887.53 -1.26053 -0.945962 0
M  V30 20344 C 1888.81 -1.02072 -1.66855 0
M  V30 20345 C 1889.19 0.45036 -2.0624 0
M  V30 20346 O 1888.54 1.42966 -1.7825 0
M  V30 20347 C 1888.75 -1.96486 -2.88434 0
M  V30 20348 C 1890.1 -2.24825 -3.60193 0
M  V30 20349 O 1891.12 -1.94314 -2.98531 0
M  V30 20350 O 1889.98 -2.76749 -4.71245 0
M  V30 20351 H 1887.07 -0.387753 -0.730463 0
M  V30 20352 H 1889.62 -1.37243 -0.998117 0
M  V30 20353 H 1888.39 -2.95779 -2.56185 0
M  V30 20354 H 1888.01 -1.61765 -3.63205 0
M  V30 20355 N 1889.01 1.14984 -1.07779 0
M  V30 20356 C 1890.29 1.82003 -0.716546 0
M  V30 20357 C 1890.67 1.95334 0.8005 0
M  V30 20358 O 1890.02 1.50817 1.71658 0
M  V30 20359 C 1890.23 3.18087 -1.43602 0
M  V30 20360 C 1891.57 3.93668 -1.59094 0
M  V30 20361 O 1892.6 3.27655 -1.39715 0
M  V30 20362 O 1891.46 5.12031 -1.91015 0
M  V30 20363 H 1888.55 0.786548 -0.255482 0
M  V30 20364 H 1891.1 1.22058 -1.17898 0
M  V30 20365 H 1889.87 3.03509 -2.46978 0
M  V30 20366 H 1889.49 3.8572 -0.964651 0
M  V30 20367 N 1890.49 0.862526 1.31902 0
M  V30 20368 C 1891.74 0.479773 1.97661 0
M  V30 20369 C 1892.09 -0.955796 1.6698 0
M  V30 20370 O 1891.38 -1.66282 0.951884 0
M  V30 20371 C 1891.58 0.664872 3.51161 0
M  V30 20372 C 1891.41 2.11688 3.9676 0
M  V30 20373 C 1890.18 2.75698 4.2346 0
M  V30 20374 C 1892.37 3.08835 4.11249 0
M  V30 20375 N 1890.36 4.11728 4.5536 0
M  V30 20376 C 1891.73 4.29874 4.46776 0
M  V30 20377 C 1893.78 3.04925 3.93606 0
M  V30 20378 C 1892.49 5.47512 4.66501 0
M  V30 20379 C 1894.51 4.21814 4.1452 0
M  V30 20380 C 1893.87 5.41614 4.50371 0
M  V30 20381 H 1889.97 0.224454 0.749096 0
M  V30 20382 H 1892.56 1.11557 1.59572 0
M  V30 20383 H 1890.73 0.0587253 3.88356 0
M  V30 20384 H 1892.46 0.25124 4.03919 0
M  V30 20385 H 1889.21 2.2669 4.15823 0
M  V30 20386 H 1889.64 4.81918 4.75483 0
M  V30 20387 H 1894.28 2.13419 3.64983 0
M  V30 20388 H 1892 6.39542 4.93975 0
M  V30 20389 H 1895.58 4.20233 4.02362 0
M  V30 20390 H 1894.46 6.30557 4.66227 0
M  V30 20391 N 1891.97 -1.4484 0.62123 0
M  V30 20392 C 1892.9 -2.33374 -0.0766286 0
M  V30 20393 C 1893.88 -1.47631 -0.844932 0
M  V30 20394 O 1895.06 -1.76373 -0.81278 0
M  V30 20395 C 1892.19 -3.30552 -1.0655 0
M  V30 20396 C 1891.15 -4.26037 -0.409496 0
M  V30 20397 C 1890.47 -5.13007 -1.50757 0
M  V30 20398 C 1891.77 -5.17881 0.677994 0
M  V30 20399 H 1893.47 -2.91975 0.662658 0
M  V30 20400 H 1891.01 -1.40397 0.320117 0
M  V30 20401 H 1892.97 -3.91367 -1.56237 0
M  V30 20402 H 1891.69 -2.70139 -1.83555 0
M  V30 20403 H 1890.35 -3.66539 0.0666321 0
M  V30 20404 H 1890 -4.48954 -2.26825 0
M  V30 20405 H 1889.7 -5.777 -1.07407 0
M  V30 20406 H 1891.22 -5.76692 -2.00645 0
M  V30 20407 H 1892.64 -5.72689 0.264637 0
M  V30 20408 H 1891.03 -5.91124 1.03405 0
M  V30 20409 H 1892.1 -4.59488 1.54914 0
M  V30 20410 N 1893.45 -0.361184 -1.53405 0
M  V30 20411 C 1894.36 0.495394 -2.2931 0
M  V30 20412 C 1895.37 1.09649 -1.35104 0
M  V30 20413 O 1896.55 1.10838 -1.68158 0
M  V30 20414 C 1893.61 1.62176 -3.06431 0
M  V30 20415 C 1892.67 1.04865 -4.16295 0
M  V30 20416 C 1891.91 2.12134 -4.89729 0
M  V30 20417 O 1892.13 3.33169 -4.62985 0
M  V30 20418 O 1891.06 1.75438 -5.75765 0
M  V30 20419 H 1894.89 -0.122155 -3.03454 0
M  V30 20420 H 1892.48 -0.125695 -1.4887 0
M  V30 20421 H 1894.36 2.27673 -3.54603 0
M  V30 20422 H 1893.03 2.22479 -2.35127 0
M  V30 20423 H 1891.94 0.357717 -3.72386 0
M  V30 20424 H 1893.27 0.490239 -4.89752 0
M  V30 20425 N 1894.92 1.57341 -0.0902386 0
M  V30 20426 C 1896.17 1.95269 0.569357 0
M  V30 20427 C 1896.53 0.971128 1.66093 0
M  V30 20428 O 1895.82 -0.00366783 1.916 0
M  V30 20429 C 1896.01 3.37566 1.17404 0
M  V30 20430 C 1895.84 4.49474 0.142579 0
M  V30 20431 C 1894.61 5.04528 -0.279235 0
M  V30 20432 C 1896.81 5.10459 -0.627368 0
M  V30 20433 N 1894.79 5.99989 -1.29948 0
M  V30 20434 C 1896.16 6.01592 -1.49957 0
M  V30 20435 C 1898.22 4.93215 -0.681418 0
M  V30 20436 C 1896.92 6.77331 -2.42107 0
M  V30 20437 C 1898.95 5.69611 -1.59049 0
M  V30 20438 C 1898.31 6.60407 -2.45034 0
M  V30 20439 H 1894.41 0.76128 0.178819 0
M  V30 20440 H 1896.99 1.93942 -0.171676 0
M  V30 20441 H 1895.16 3.39596 1.88492 0
M  V30 20442 H 1896.89 3.62684 1.79561 0
M  V30 20443 H 1893.65 4.73478 0.107548 0
M  V30 20444 H 1894.07 6.52421 -1.80766 0
M  V30 20445 H 1898.72 4.22789 -0.0308191 0
M  V30 20446 H 1896.43 7.47022 -3.08194 0
M  V30 20447 H 1900.02 5.58284 -1.63739 0
M  V30 20448 H 1898.9 7.18489 -3.14235 0
M  V30 20449 N 1896.4 -0.183431 1.56529 0
M  V30 20450 C 1897.33 -1.22973 1.98494 0
M  V30 20451 C 1898.31 -1.46837 0.858653 0
M  V30 20452 O 1899.5 -1.58377 1.12385 0
M  V30 20453 C 1896.63 -2.57138 2.33446 0
M  V30 20454 C 1895.58 -2.47865 3.48922 0
M  V30 20455 C 1894.91 -3.8641 3.69582 0
M  V30 20456 C 1896.21 -1.99371 4.82751 0
M  V30 20457 H 1897.9 -0.880938 2.86147 0
M  V30 20458 H 1895.45 -0.422321 1.37668 0
M  V30 20459 H 1897.4 -3.30527 2.614 0
M  V30 20460 H 1896.13 -2.93781 1.42689 0
M  V30 20461 H 1894.78 -1.76932 3.21077 0
M  V30 20462 H 1894.43 -4.20426 2.76136 0
M  V30 20463 H 1894.13 -3.81077 4.47274 0
M  V30 20464 H 1895.66 -4.61403 3.99924 0
M  V30 20465 H 1897.07 -2.62526 5.0966 0
M  V30 20466 H 1895.47 -2.05014 5.63994 0
M  V30 20467 H 1896.54 -0.947442 4.75554 0
M  V30 20468 N 1897.88 -1.50992 -0.451564 0
M  V30 20469 C 1899.3 -1.38852 -0.786916 0
M  V30 20470 C 1899.5 -0.459764 -1.96185 0
M  V30 20471 O 1898.55 0.0903799 -2.52338 0
M  V30 20472 C 1899.87 -2.80611 -1.08064 0
M  V30 20473 C 1901.41 -2.89663 -1.18593 0
M  V30 20474 C 1901.89 -4.32299 -1.51267 0
M  V30 20475 N 1903.38 -4.3534 -1.5822 0
M  V30 20476 C 1904.11 -5.42721 -1.85046 0
M  V30 20477 N 1903.61 -6.60282 -2.09759 0
M  V30 20478 N 1905.4 -5.30185 -1.8671 0
M  V30 20479 H 1897.55 -2.09938 0.32245 0
M  V30 20480 H 1899.82 -0.944464 0.0818072 0
M  V30 20481 H 1899.52 -3.50501 -0.290167 0
M  V30 20482 H 1899.4 -3.19063 -2.01193 0
M  V30 20483 H 1901.78 -2.1998 -1.96705 0
M  V30 20484 H 1901.87 -2.54728 -0.23398 0
M  V30 20485 H 1901.51 -5.02526 -0.736882 0
M  V30 20486 H 1901.44 -4.64736 -2.47645 0
M  V30 20487 H 1903.93 -3.50577 -1.41082 0
M  V30 20488 H 1904.24 -7.37918 -2.29557 0
M  V30 20489 H 1902.59 -6.63423 -2.07111 0
M  V30 20490 H 1905.78 -4.3733 -1.66912 0
M  V30 20491 H 1905.95 -6.13954 -2.07279 0
M  V30 20492 N 1899.36 0.706069 -1.40899 0
M  V30 20493 C 1900.77 1.01535 -1.23137 0
M  V30 20494 C 1900.97 2.01181 -0.113293 0
M  V30 20495 O 1900.03 2.46966 0.525732 0
M  V30 20496 C 1901.34 1.54998 -2.57674 0
M  V30 20497 C 1902.89 1.66935 -2.64767 0
M  V30 20498 C 1903.37 2.23802 -3.99596 0
M  V30 20499 N 1904.86 2.31176 -4.01388 0
M  V30 20500 C 1905.59 2.76181 -5.02506 0
M  V30 20501 N 1905.09 3.20868 -6.14016 0
M  V30 20502 N 1906.88 2.7565 -4.89871 0
M  V30 20503 H 1899.03 0.045751 -2.12351 0
M  V30 20504 H 1901.3 0.0828835 -0.94437 0
M  V30 20505 H 1901 0.892393 -3.4019 0
M  V30 20506 H 1900.88 2.53377 -2.79428 0
M  V30 20507 H 1903.26 2.31808 -1.82617 0
M  V30 20508 H 1903.34 0.671301 -2.46834 0
M  V30 20509 H 1902.99 1.59547 -4.8219 0
M  V30 20510 H 1902.92 3.24339 -4.14864 0
M  V30 20511 H 1905.41 1.99627 -3.2087 0
M  V30 20512 H 1905.72 3.53803 -6.87054 0
M  V30 20513 H 1904.07 3.18803 -6.17568 0
M  V30 20514 H 1907.26 2.40081 -4.01844 0
M  V30 20515 H 1907.43 3.10407 -5.68816 0
M  V30 20516 N 1900.84 1.26553 0.939264 0
M  V30 20517 C 1901.77 1.10778 2.05549 0
M  V30 20518 C 1902.75 0.0124359 1.70095 0
M  V30 20519 O 1903.93 0.184814 1.93319 0
M  V30 20520 C 1901.06 0.742011 3.39281 0
M  V30 20521 C 1900.02 1.78931 3.88803 0
M  V30 20522 C 1899.34 1.2778 5.19207 0
M  V30 20523 C 1900.64 3.1912 4.13473 0
M  V30 20524 H 1902.34 2.04151 2.19004 0
M  V30 20525 H 1899.88 0.98294 1.05234 0
M  V30 20526 H 1901.84 0.618526 4.16836 0
M  V30 20527 H 1900.56 -0.22742 3.25807 0
M  V30 20528 H 1899.22 1.9015 3.13431 0
M  V30 20529 H 1898.87 0.298159 5.02116 0
M  V30 20530 H 1898.57 1.9779 5.53311 0
M  V30 20531 H 1900.09 1.16703 5.99344 0
M  V30 20532 H 1901.5 3.10967 4.81635 0
M  V30 20533 H 1899.9 3.86738 4.58862 0
M  V30 20534 H 1900.97 3.65034 3.19183 0
M  V30 20535 N 1902.31 -1.14411 1.08387 0
M  V30 20536 C 1903.54 -1.89848 0.835015 0
M  V30 20537 C 1903.96 -1.78034 -0.607091 0
M  V30 20538 O 1903.32 -1.12039 -1.42538 0
M  V30 20539 C 1903.37 -3.37818 1.26141 0
M  V30 20540 O 1902.47 -4.10325 0.41322 0
M  V30 20541 H 1901.82 -0.590682 0.303299 0
M  V30 20542 H 1904.35 -1.44823 1.44525 0
M  V30 20543 H 1904.36 -3.88631 1.24218 0
M  V30 20544 H 1903.03 -3.45735 2.31172 0
M  V30 20545 H 1901.61 -3.69589 0.495854 0
M  V30 20546 N 1903.79 -0.869509 -1.31443 0
M  V30 20547 C 1904.72 -0.340679 -2.31001 0
M  V30 20548 C 1905.7 0.568186 -1.6033 0
M  V30 20549 O 1906.89 0.485305 -1.88038 0
M  V30 20550 C 1904.02 0.45909 -3.44252 0
M  V30 20551 C 1902.97 -0.356639 -4.26512 0
M  V30 20552 C 1902.3 0.568786 -5.31666 0
M  V30 20553 C 1903.6 -1.59045 -4.97496 0
M  V30 20554 H 1905.29 -1.1726 -2.75482 0
M  V30 20555 H 1902.84 -0.5653 -1.3244 0
M  V30 20556 H 1904.79 0.839573 -4.12952 0
M  V30 20557 H 1903.52 1.32451 -2.98537 0
M  V30 20558 H 1902.17 -0.719063 -3.59479 0
M  V30 20559 H 1901.82 1.43148 -4.82201 0
M  V30 20560 H 1901.52 0.0268906 -5.87594 0
M  V30 20561 H 1903.05 0.946122 -6.03225 0
M  V30 20562 H 1904.46 -1.28144 -5.58795 0
M  V30 20563 H 1902.86 -2.07139 -5.63217 0
M  V30 20564 H 1903.93 -2.34354 -4.24507 0
M  V30 20565 N 1905.27 1.44508 -0.628902 0
M  V30 20566 C 1906.18 2.34468 0.0786233 0
M  V30 20567 C 1907.2 1.52489 0.838046 0
M  V30 20568 O 1908.37 1.85224 0.790813 0
M  V30 20569 C 1905.44 3.30435 1.04945 0
M  V30 20570 C 1904.5 4.28322 0.289643 0
M  V30 20571 C 1903.73 5.19704 1.21422 0
M  V30 20572 O 1903.95 5.14967 2.45286 0
M  V30 20573 O 1902.89 5.97819 0.699748 0
M  V30 20574 H 1906.71 2.96414 -0.661222 0
M  V30 20575 H 1904.3 1.44244 -0.3891 0
M  V30 20576 H 1906.18 3.89513 1.60804 0
M  V30 20577 H 1904.86 2.71025 1.76994 0
M  V30 20578 H 1903.76 3.72797 -0.311936 0
M  V30 20579 H 1905.1 4.90646 -0.390789 0
M  V30 20580 N 1906.75 0.369315 1.53212 0
M  V30 20581 C 1907.68 -0.467242 2.28777 0
M  V30 20582 C 1908.66 -1.08073 1.31355 0
M  V30 20583 O 1909.85 -1.09728 1.60229 0
M  V30 20584 C 1906.98 -1.60519 3.07979 0
M  V30 20585 C 1905.93 -1.11876 4.1312 0
M  V30 20586 C 1905.26 -2.34723 4.80426 0
M  V30 20587 C 1906.56 -0.200846 5.21914 0
M  V30 20588 H 1908.25 0.163201 2.98955 0
M  V30 20589 H 1905.8 0.0799312 1.43778 0
M  V30 20590 H 1907.75 -2.19708 3.59592 0
M  V30 20591 H 1906.47 -2.26292 2.35499 0
M  V30 20592 H 1905.13 -0.549521 3.62458 0
M  V30 20593 H 1904.78 -2.98961 4.04514 0
M  V30 20594 H 1904.48 -2.02846 5.51477 0
M  V30 20595 H 1906 -2.94592 5.34835 0
M  V30 20596 H 1907.42 -0.700331 5.69006 0
M  V30 20597 H 1905.81 0.0272222 6.00094 0
M  V30 20598 H 1906.88 0.755948 4.78971 0
M  V30 20599 N 1908.23 -1.57291 0.0985816 0
M  V30 20600 C 1909.16 -2.17239 -0.856131 0
M  V30 20601 C 1910.14 -1.10669 -1.29176 0
M  V30 20602 O 1911.32 -1.38821 -1.35803 0
M  V30 20603 C 1908.45 -2.75551 -2.11398 0
M  V30 20604 C 1907.41 -3.87524 -1.81685 0
M  V30 20605 C 1906.73 -4.32553 -3.14327 0
M  V30 20606 C 1908.03 -5.10562 -1.10108 0
M  V30 20607 H 1909.73 -2.97268 -0.356657 0
M  V30 20608 H 1907.27 -1.42992 -0.170108 0
M  V30 20609 H 1909.23 -3.16141 -2.78627 0
M  V30 20610 H 1907.95 -1.92781 -2.63634 0
M  V30 20611 H 1906.61 -3.47478 -1.16853 0
M  V30 20612 H 1906.26 -3.46669 -3.64458 0
M  V30 20613 H 1905.96 -5.08049 -2.95228 0
M  V30 20614 H 1907.48 -4.7578 -3.82709 0
M  V30 20615 H 1908.9 -5.483 -1.67453 0
M  V30 20616 H 1907.29 -5.91509 -1.01176 0
M  V30 20617 H 1908.36 -4.84827 -0.0844041 0
M  V30 20618 N 1909.71 0.175127 -1.56624 0
M  V30 20619 C 1910.65 1.21687 -1.96114 0
M  V30 20620 C 1911.62 1.44191 -0.824518 0
M  V30 20621 O 1912.81 1.56994 -1.08433 0
M  V30 20622 C 1909.95 2.55207 -2.323 0
M  V30 20623 C 1909.06 2.40115 -3.59122 0
M  V30 20624 C 1908.2 3.66475 -3.84538 0
M  V30 20625 C 1907.23 3.463 -5.04721 0
M  V30 20626 N 1906.37 4.6472 -5.26288 0
M  V30 20627 H 1911.21 0.873106 -2.84923 0
M  V30 20628 H 1908.75 0.419721 -1.40985 0
M  V30 20629 H 1910.71 3.33022 -2.51302 0
M  V30 20630 H 1909.34 2.87587 -1.46607 0
M  V30 20631 H 1908.39 1.53496 -3.48056 0
M  V30 20632 H 1909.7 2.21151 -4.47095 0
M  V30 20633 H 1908.85 4.52726 -4.03886 0
M  V30 20634 H 1907.59 3.88414 -2.94934 0
M  V30 20635 H 1906.6 2.58435 -4.85274 0
M  V30 20636 H 1907.82 3.25787 -5.95852 0
M  V30 20637 H 1905.77 4.86885 -4.39635 0
M  V30 20638 H 1905.69 4.48656 -6.08477 0
M  V30 20639 H 1906.95 5.52265 -5.50112 0
M  V30 20640 N 1911.18 1.5123 0.44355 0
M  V30 20641 C 1912.46 1.54127 1.20434 0
M  V30 20642 C 1912.84 0.301893 2.0893 0
M  V30 20643 O 1912.19 -0.713356 2.17079 0
M  V30 20644 C 1912.4 2.85196 2.01157 0
M  V30 20645 C 1913.75 3.3691 2.58411 0
M  V30 20646 O 1914.77 2.86704 2.11374 0
M  V30 20647 O 1913.63 4.24498 3.44185 0
M  V30 20648 H 1910.72 0.619396 0.547976 0
M  V30 20649 H 1913.27 1.63539 0.453125 0
M  V30 20650 H 1912.04 3.66861 1.3612 0
M  V30 20651 H 1911.66 2.78917 2.83357 0
M  V30 20652 N 1912.66 -0.698586 1.41271 0
M  V30 20653 C 1913.89 -1.49247 1.44014 0
M  V30 20654 C 1914.31 -1.88043 0.0461888 0
M  V30 20655 O 1913.67 -1.54426 -0.94986 0
M  V30 20656 C 1913.72 -2.73334 2.35204 0
M  V30 20657 O 1912.82 -3.70704 1.807 0
M  V30 20658 H 1912.16 -0.449313 0.488891 0
M  V30 20659 H 1914.69 -0.858936 1.85697 0
M  V30 20660 H 1914.7 -3.21676 2.50975 0
M  V30 20661 H 1913.38 -2.44433 3.3649 0
M  V30 20662 H 1911.95 -3.29624 1.74363 0
M  V30 20663 N 1914.14 -1.27049 -0.93254 0
M  V30 20664 C 1915.36 -1.16011 -1.71919 0
M  V30 20665 C 1915.79 0.279951 -1.86005 0
M  V30 20666 O 1915.15 1.20279 -1.35657 0
M  V30 20667 C 1915.2 -1.84349 -3.09916 0
M  V30 20668 O 1914.3 -1.13816 -3.96383 0
M  V30 20669 H 1913.64 -0.403752 -0.527144 0
M  V30 20670 H 1916.17 -1.6803 -1.16736 0
M  V30 20671 H 1916.18 -1.91516 -3.60258 0
M  V30 20672 H 1914.86 -2.89109 -2.9898 0
M  V30 20673 H 1913.43 -1.14684 -3.54827 0
M  V30 20674 N 1915.62 1.13835 -1.08993 0
M  V30 20675 C 1916.84 1.89402 -0.845071 0
M  V30 20676 C 1917.27 1.78353 0.597641 0
M  V30 20677 O 1916.63 1.12793 1.41942 0
M  V30 20678 C 1916.67 3.37144 -1.27931 0
M  V30 20679 O 1915.78 4.101 -0.434975 0
M  V30 20680 H 1915.12 0.589066 -0.306427 0
M  V30 20681 H 1917.65 1.44055 -1.45291 0
M  V30 20682 H 1917.66 3.87967 -1.26277 0
M  V30 20683 H 1916.33 3.44504 -2.33002 0
M  V30 20684 H 1914.91 3.6932 -0.515447 0
M  V30 20685 N 1917.1 0.876467 1.3098 0
M  V30 20686 C 1918.51 0.542323 1.7865 0
M  V30 20687 C 1918.86 -0.941103 1.72156 0
M  V30 20688 O 1917.98 -1.73506 1.29324 0
M  V30 20689 C 1918.58 0.977656 3.24388 0
M  V30 20690 C 1917.14 0.695064 3.69927 0
M  V30 20691 C 1916.28 1.16537 2.51624 0
M  V30 20692 H 1919.23 1.06154 1.1797 0
M  V30 20693 H 1919.26 0.30304 3.79291 0
M  V30 20694 H 1918.77 2.05735 3.29082 0
M  V30 20695 H 1916.87 -0.372992 3.70728 0
M  V30 20696 H 1916.98 1.27665 4.61778 0
M  V30 20697 H 1915.35 0.584941 2.47892 0
M  V30 20698 H 1916.13 2.25262 2.5906 0
M  V30 20699 N 1918.57 -1.44173 0.636557 0
M  V30 20700 C 1919.8 -2.06866 0.148751 0
M  V30 20701 C 1920.22 -1.47295 -1.16987 0
M  V30 20702 O 1919.58 -0.576466 -1.71891 0
M  V30 20703 C 1919.63 -3.60561 0.0533064 0
M  V30 20704 O 1918.73 -4.00361 -0.989163 0
M  V30 20705 H 1918.07 -0.658243 0.087251 0
M  V30 20706 H 1920.6 -1.84956 0.874772 0
M  V30 20707 H 1920.61 -4.07775 -0.135499 0
M  V30 20708 H 1919.29 -4.033 1.01599 0
M  V30 20709 H 1917.87 -3.64769 -0.77449 0
M  V30 20710 N 1920.05 -0.377435 -1.53014 0
M  V30 20711 C 1920.98 0.455103 -2.29022 0
M  V30 20712 C 1921.96 1.07375 -1.31926 0
M  V30 20713 O 1923.15 1.08877 -1.60809 0
M  V30 20714 C 1920.28 1.58883 -3.08826 0
M  V30 20715 C 1919.23 1.09683 -4.13707 0
M  V30 20716 C 1918.56 2.32172 -4.81664 0
M  V30 20717 C 1919.86 0.173165 -5.22013 0
M  V30 20718 H 1921.55 -0.179053 -2.98864 0
M  V30 20719 H 1919.1 -0.0875549 -1.43734 0
M  V30 20720 H 1921.05 2.17798 -3.60752 0
M  V30 20721 H 1919.77 2.2504 -2.36695 0
M  V30 20722 H 1918.43 0.530291 -3.62744 0
M  V30 20723 H 1918.08 2.96811 -4.06094 0
M  V30 20724 H 1917.78 1.99919 -5.52545 0
M  V30 20725 H 1919.31 2.91751 -5.3639 0
M  V30 20726 H 1920.72 0.670145 -5.6937 0
M  V30 20727 H 1919.12 -0.0590463 -6.00071 0
M  V30 20728 H 1920.19 -0.781339 -4.78564 0
M  V30 20729 N 1921.53 1.57237 -0.106922 0
M  V30 20730 C 1922.95 1.57634 0.249708 0
M  V30 20731 C 1923.15 1.11888 1.67581 0
M  V30 20732 O 1922.2 0.80073 2.39467 0
M  V30 20733 C 1923.52 3.00688 0.0273757 0
M  V30 20734 C 1925.06 3.12858 0.0942116 0
M  V30 20735 C 1925.54 4.5789 -0.100275 0
M  V30 20736 N 1927.03 4.63177 -0.045837 0
M  V30 20737 C 1927.76 5.73144 -0.171398 0
M  V30 20738 N 1927.26 6.91903 -0.352455 0
M  V30 20739 N 1929.05 5.61989 -0.111827 0
M  V30 20740 H 1921.2 1.85278 -1.03855 0
M  V30 20741 H 1923.47 0.855717 -0.407985 0
M  V30 20742 H 1923.17 3.38399 -0.958063 0
M  V30 20743 H 1923.05 3.6937 0.764546 0
M  V30 20744 H 1925.43 2.75012 1.07016 0
M  V30 20745 H 1925.52 2.46743 -0.674643 0
M  V30 20746 H 1925.16 4.96433 -1.07315 0
M  V30 20747 H 1925.09 5.22081 0.688418 0
M  V30 20748 H 1927.58 3.7779 0.0910806 0
M  V30 20749 H 1927.89 7.7155 -0.439454 0
M  V30 20750 H 1926.24 6.93915 -0.388274 0
M  V30 20751 H 1929.43 4.68091 0.0285732 0
M  V30 20752 H 1929.6 6.47649 -0.213127 0
M  V30 20753 N 1923.01 -0.166818 1.56715 0
M  V30 20754 C 1924.23 -0.902208 1.86748 0
M  V30 20755 C 1924.66 -1.74838 0.693767 0
M  V30 20756 O 1924.02 -1.77749 -0.35708 0
M  V30 20757 C 1924.06 -1.75107 3.1523 0
M  V30 20758 O 1923.17 -2.85319 2.9777 0
M  V30 20759 H 1922.51 -0.252474 0.614128 0
M  V30 20760 H 1925.04 -0.163603 2.03945 0
M  V30 20761 H 1925.05 -2.15009 3.46749 0
M  V30 20762 H 1923.72 -1.12955 4.00267 0
M  V30 20763 H 1922.3 -2.48967 2.77615 0
M  V30 20764 N 1924.49 -1.51463 -0.435524 0
M  V30 20765 C 1925.73 -1.65881 -1.19427 0
M  V30 20766 C 1926.09 -0.367896 -1.88442 0
M  V30 20767 O 1927.29 -0.387877 -2.65987 0
M  V30 20768 C 1925.56 -2.83001 -2.18278 0
M  V30 20769 S 1927.12 -3.17758 -3.02614 0
M  V30 20770 H 1923.94 -0.584398 -0.404969 0
M  V30 20771 H 1926.54 -1.89374 -0.485553 0
M  V30 20772 H 1925.25 -3.75233 -1.66217 0
M  V30 20773 H 1924.78 -2.61702 -2.93727 0
M  V30 20774 H 1926.79 -2.64333 -4.19932 0
M  V30 20775 N 1925.96 0.691085 -1.4164 0
M  V30 20776 C 1927.21 1.45191 -1.42447 0
M  V30 20777 C 1927.57 1.92369 -0.0343631 0
M  V30 20778 O 1926.86 1.66923 0.940592 0
M  V30 20779 C 1927.05 2.67547 -2.36967 0
M  V30 20780 C 1926.88 2.32338 -3.85031 0
M  V30 20781 C 1925.65 2.22485 -4.53683 0
M  V30 20782 C 1927.85 1.95024 -4.75889 0
M  V30 20783 N 1925.83 1.80208 -5.86854 0
M  V30 20784 C 1927.2 1.63541 -5.98042 0
M  V30 20785 C 1929.26 1.81874 -4.63494 0
M  V30 20786 C 1927.96 1.20229 -7.09181 0
M  V30 20787 C 1929.99 1.39966 -5.74599 0
M  V30 20788 C 1929.35 1.09396 -6.95853 0
M  V30 20789 H 1925.45 0.52841 -0.576461 0
M  V30 20790 H 1928.03 0.799124 -1.77545 0
M  V30 20791 H 1926.2 3.30538 -2.03958 0
M  V30 20792 H 1927.93 3.34045 -2.28464 0
M  V30 20793 H 1924.69 2.41027 -4.0768 0
M  V30 20794 H 1925.11 1.6154 -6.57445 0
M  V30 20795 H 1929.76 2.0416 -3.70241 0
M  V30 20796 H 1927.47 0.966874 -8.02295 0
M  V30 20797 H 1931.06 1.30334 -5.67014 0
M  V30 20798 H 1929.94 0.774584 -7.80365 0
M  V30 20799 N 1927.44 1.27542 0.925789 0
M  V30 20800 C 1928.41 1.10471 2.0082 0
M  V30 20801 C 1929.41 0.0481002 1.60728 0
M  V30 20802 O 1930.6 0.292857 1.71721 0
M  V30 20803 C 1927.73 0.683669 3.33974 0
M  V30 20804 H 1928.92 2.0659 2.17395 0
M  V30 20805 H 1926.47 1.10357 1.10684 0
M  V30 20806 H 1927.21 -0.278821 3.23099 0
M  V30 20807 H 1926.99 1.44679 3.64431 0
M  V30 20808 H 1928.48 0.586526 4.13461 0
M  V30 20809 N 1928.92 -1.13255 1.09595 0
M  V30 20810 C 1929.85 -2.20827 0.758791 0
M  V30 20811 C 1930.83 -1.68034 -0.264325 0
M  V30 20812 O 1932.02 -1.93751 -0.132005 0
M  V30 20813 C 1929.15 -3.46831 0.180424 0
M  V30 20814 C 1928.1 -4.12724 1.13325 0
M  V30 20815 C 1927.43 -5.33075 0.416504 0
M  V30 20816 C 1928.73 -4.59862 2.47637 0
M  V30 20817 H 1930.42 -2.49287 1.65821 0
M  V30 20818 H 1927.97 -1.19818 0.798734 0
M  V30 20819 H 1929.92 -4.21346 -0.0675313 0
M  V30 20820 H 1928.64 -3.17773 -0.754194 0
M  V30 20821 H 1927.3 -3.40179 1.36651 0
M  V30 20822 H 1926.95 -5.00281 -0.522308 0
M  V30 20823 H 1926.65 -5.78109 1.05183 0
M  V30 20824 H 1928.17 -6.10344 0.17689 0
M  V30 20825 H 1929.59 -5.25791 2.28509 0
M  V30 20826 H 1927.99 -5.15642 3.06974 0
M  V30 20827 H 1929.06 -3.74294 3.08273 0
M  V30 20828 N 1930.4 -0.883401 -1.30514 0
M  V30 20829 C 1931.36 -0.353908 -2.26451 0
M  V30 20830 C 1932.36 0.502723 -1.52739 0
M  V30 20831 O 1933.55 0.310104 -1.71418 0
M  V30 20832 C 1930.68 0.495846 -3.37275 0
M  V30 20833 H 1931.88 -1.20101 -2.74801 0
M  V30 20834 H 1929.43 -0.660124 -1.41676 0
M  V30 20835 H 1930.16 1.3636 -2.94239 0
M  V30 20836 H 1929.95 -0.117731 -3.91923 0
M  V30 20837 H 1931.44 0.858149 -4.08688 0
M  V30 20838 N 1931.88 1.43833 -0.644194 0
M  V30 20839 C 1932.81 2.29017 0.0914574 0
M  V30 20840 C 1933.82 1.4201 0.79605 0
M  V30 20841 O 1935.01 1.66036 0.655313 0
M  V30 20842 C 1932.11 3.18711 1.15225 0
M  V30 20843 C 1931.28 4.34206 0.527588 0
M  V30 20844 C 1930.34 5.04839 1.48406 0
M  V30 20845 O 1929.37 5.60416 0.996143 0
M  V30 20846 N 1930.57 5.075 2.81822 0
M  V30 20847 H 1933.34 2.92794 -0.639656 0
M  V30 20848 H 1930.9 1.54424 -0.486308 0
M  V30 20849 H 1932.89 3.62827 1.79272 0
M  V30 20850 H 1931.46 2.56595 1.78543 0
M  V30 20851 H 1930.68 3.93119 -0.291782 0
M  V30 20852 H 1931.97 5.08718 0.091139 0
M  V30 20853 H 1931.36 4.63703 3.24031 0
M  V30 20854 H 1929.92 5.55364 3.41195 0
M  V30 20855 N 1933.35 0.385544 1.52811 0
M  V30 20856 C 1934.32 -0.439294 2.24951 0
M  V30 20857 C 1935.32 -0.993315 1.26451 0
M  V30 20858 O 1936.51 -0.875911 1.50577 0
M  V30 20859 C 1933.64 -1.61595 3.00166 0
M  V30 20860 H 1934.83 0.192232 2.99283 0
M  V30 20861 H 1932.39 0.137589 1.55693 0
M  V30 20862 H 1933.12 -2.28501 2.30125 0
M  V30 20863 H 1932.91 -1.22544 3.72459 0
M  V30 20864 H 1934.4 -2.20001 3.5495 0
M  V30 20865 N 1934.83 -1.57178 0.115259 0
M  V30 20866 C 1936.06 -1.99126 -0.550671 0
M  V30 20867 C 1936.47 -0.993751 -1.61001 0
M  V30 20868 O 1935.81 0.0220518 -1.83687 0
M  V30 20869 C 1935.88 -3.37482 -1.2388 0
M  V30 20870 C 1935.54 -4.55823 -0.327848 0
M  V30 20871 C 1936.54 -5.18102 0.432054 0
M  V30 20872 C 1934.22 -5.01726 -0.240012 0
M  V30 20873 C 1936.22 -6.24669 1.26756 0
M  V30 20874 C 1933.9 -6.08156 0.599131 0
M  V30 20875 C 1934.9 -6.69494 1.35155 0
M  V30 20876 O 1934.59 -7.73868 2.17677 0
M  V30 20877 H 1934.32 -0.658991 -0.150689 0
M  V30 20878 H 1936.87 -2.0445 0.197288 0
M  V30 20879 H 1935.1 -3.28901 -2.03375 0
M  V30 20880 H 1936.79 -3.63744 -1.80126 0
M  V30 20881 H 1937.56 -4.83555 0.374044 0
M  V30 20882 H 1933.44 -4.53732 -0.81535 0
M  V30 20883 H 1936.98 -6.72475 1.85533 0
M  V30 20884 H 1932.88 -6.42132 0.658548 0
M  V30 20885 H 1933.65 -7.90948 2.10578 0
M  V30 20886 N 1936.31 0.158505 -1.56801 0
M  V30 20887 C 1937.26 1.21526 -1.98328 0
M  V30 20888 C 1938.25 1.45117 -0.873926 0
M  V30 20889 O 1939.46 1.45545 -1.05908 0
M  V30 20890 H 1935.83 0.408803 -0.631177 0
M  V30 20891 H 1937.81 0.838242 -2.86384 0
M  V30 20892 C 1936.55 2.54396 -2.37019 0
M  V30 20893 H 1935.88 2.3707 -3.21928 0
M  V30 20894 H 1937.32 3.26994 -2.69909 0
M  V30 20895 C 1935.78 3.14095 -1.21845 0
M  V30 20896 O 1936.31 3.98411 -0.51298 0
M  V30 20897 N 1934.51 2.73373 -0.985675 0
M  V30 20898 H 1934.06 2.04907 -1.56112 0
M  V30 20899 H 1934.02 3.13651 -0.216926 0
M  V30 20900 N 1937.79 1.51692 0.427485 0
M  V30 20901 C 1939.2 1.57214 1.007 0
M  V30 20902 C 1939.55 0.401527 1.92047 0
M  V30 20903 O 1938.68 -0.480464 2.10999 0
M  V30 20904 C 1939.27 2.84927 1.83309 0
M  V30 20905 C 1937.83 2.92989 2.36294 0
M  V30 20906 C 1936.98 2.51977 1.15772 0
M  V30 20907 H 1939.93 1.57326 0.208386 0
M  V30 20908 H 1939.95 2.69245 2.68863 0
M  V30 20909 H 1939.46 3.70108 1.16799 0
M  V30 20910 H 1937.56 2.1226 3.06229 0
M  V30 20911 H 1937.68 3.9685 2.68416 0
M  V30 20912 H 1936.04 2.054 1.50608 0
M  V30 20913 H 1936.82 3.39512 0.508568 0
M  V30 20914 N 1939.27 -0.683564 1.42004 0
M  V30 20915 C 1940.2 -1.80812 1.39221 0
M  V30 20916 C 1941.18 -1.60545 0.25771 0
M  V30 20917 O 1942.36 -1.83135 0.446539 0
M  V30 20918 C 1939.49 -3.17679 1.17463 0
M  V30 20919 C 1938.54 -3.56713 2.33791 0
M  V30 20920 S 1939.37 -3.60144 3.96304 0
M  V30 20921 C 1940.52 -4.99718 3.76872 0
M  V30 20922 H 1940.76 -1.82897 2.34384 0
M  V30 20923 H 1938.29 -0.853409 1.28671 0
M  V30 20924 H 1940.25 -3.96686 1.05597 0
M  V30 20925 H 1938.91 -3.13189 0.239001 0
M  V30 20926 H 1938.1 -4.56174 2.14292 0
M  V30 20927 H 1937.7 -2.85045 2.42127 0
M  V30 20928 H 1940 -5.87555 3.37321 0
M  V30 20929 H 1940.94 -5.24261 4.75979 0
M  V30 20930 H 1941.35 -4.71823 3.09909 0
M  V30 20931 N 1940.75 -1.28031 -0.919012 0
M  V30 20932 C 1941.71 -1.11534 -2.00232 0
M  V30 20933 C 1942.71 -0.0566233 -1.607 0
M  V30 20934 O 1943.9 -0.30196 -1.71563 0
M  V30 20935 C 1941.03 -0.701371 -3.33607 0
M  V30 20936 H 1942.22 -2.0774 -2.16297 0
M  V30 20937 H 1939.78 -1.10942 -1.10098 0
M  V30 20938 H 1940.51 0.261682 -3.23243 0
M  V30 20939 H 1940.3 -1.4661 -3.63659 0
M  V30 20940 H 1941.79 -0.608444 -4.13144 0
M  V30 20941 N 1942.22 1.12672 -1.10194 0
M  V30 20942 C 1943.64 1.36123 -0.833225 0
M  V30 20943 C 1943.84 1.93889 0.548569 0
M  V30 20944 O 1942.9 2.16347 1.30192 0
M  V30 20945 C 1944.21 2.30515 -1.93089 0
M  V30 20946 C 1945.76 2.44111 -1.95905 0
M  V30 20947 C 1946.23 3.41816 -3.04838 0
M  V30 20948 N 1947.72 3.49371 -3.04128 0
M  V30 20949 C 1948.46 4.24874 -3.85058 0
M  V30 20950 N 1947.95 5.03464 -4.75916 0
M  V30 20951 N 1949.75 4.20255 -3.73285 0
M  V30 20952 H 1941.9 0.735332 -1.99265 0
M  V30 20953 H 1944.16 0.386141 -0.865794 0
M  V30 20954 H 1943.87 1.95239 -2.92531 0
M  V30 20955 H 1943.74 3.30611 -1.81593 0
M  V30 20956 H 1946.13 2.78669 -0.97097 0
M  V30 20957 H 1946.21 1.43911 -2.11479 0
M  V30 20958 H 1945.85 3.07988 -4.03864 0
M  V30 20959 H 1945.78 4.41839 -2.86506 0
M  V30 20960 H 1948.27 2.93303 -2.38289 0
M  V30 20961 H 1948.59 5.58406 -5.34231 0
M  V30 20962 H 1946.93 5.02669 -4.79946 0
M  V30 20963 H 1950.12 3.57939 -3.01658 0
M  V30 20964 H 1950.3 4.78843 -4.36593 0
M  V30 20965 N 1943.7 0.89031 1.30043 0
M  V30 20966 C 1944.98 0.43131 1.90785 0
M  V30 20967 C 1945.36 -1.08836 1.80881 0
M  V30 20968 O 1944.71 -1.92605 1.22946 0
M  V30 20969 C 1944.92 0.935377 3.36232 0
M  V30 20970 C 1946.26 0.973504 4.13289 0
M  V30 20971 O 1947.29 0.882404 3.45097 0
M  V30 20972 O 1946.15 1.10893 5.35131 0
M  V30 20973 H 1943.24 0.132845 0.816261 0
M  V30 20974 H 1945.79 0.979561 1.38574 0
M  V30 20975 H 1944.56 1.97928 3.3755 0
M  V30 20976 H 1944.18 0.366596 3.95906 0
M  V30 20977 N 1945.18 -1.43489 0.651812 0
M  V30 20978 C 1946.11 -2.33484 -0.0271093 0
M  V30 20979 C 1947.09 -1.4939 -0.813427 0
M  V30 20980 O 1948.28 -1.78058 -0.775186 0
M  V30 20981 C 1945.41 -3.32737 -0.995143 0
M  V30 20982 C 1944.36 -4.26809 -0.319036 0
M  V30 20983 C 1943.69 -5.1609 -1.39842 0
M  V30 20984 C 1944.99 -5.16326 0.787692 0
M  V30 20985 H 1946.68 -2.90503 0.724441 0
M  V30 20986 H 1944.23 -1.39686 0.349826 0
M  V30 20987 H 1946.18 -3.94593 -1.479 0
M  V30 20988 H 1944.9 -2.73972 -1.77784 0
M  V30 20989 H 1943.56 -3.66316 0.144366 0
M  V30 20990 H 1943.21 -4.53664 -2.17251 0
M  V30 20991 H 1942.91 -5.79848 -0.951292 0
M  V30 20992 H 1944.43 -5.80819 -1.88367 0
M  V30 20993 H 1945.85 -5.71999 0.386053 0
M  V30 20994 H 1944.24 -5.88798 1.1592 0
M  V30 20995 H 1945.31 -4.56099 1.64626 0
M  V30 20996 N 1946.66 -0.393643 -1.52605 0
M  V30 20997 C 1947.9 0.187154 -2.01633 0
M  V30 20998 C 1948.23 1.46451 -1.27993 0
M  V30 20999 O 1947.49 1.92169 -0.370063 0
M  V30 21000 C 1947.79 0.497148 -3.53925 0
M  V30 21001 C 1947.45 -0.689176 -4.45602 0
M  V30 21002 C 1946.11 -1.01462 -4.70382 0
M  V30 21003 C 1948.47 -1.48262 -4.99668 0
M  V30 21004 C 1945.79 -2.13497 -5.46476 0
M  V30 21005 C 1948.15 -2.59361 -5.76987 0
M  V30 21006 C 1946.81 -2.92409 -6.00044 0
M  V30 21007 H 1946.08 0.0684846 -0.737828 0
M  V30 21008 H 1948.73 -0.531882 -1.83965 0
M  V30 21009 H 1947.03 1.29756 -3.6969 0
M  V30 21010 H 1948.73 0.959239 -3.89358 0
M  V30 21011 H 1945.32 -0.425524 -4.26482 0
M  V30 21012 H 1949.5 -1.24443 -4.80445 0
M  V30 21013 H 1944.76 -2.39467 -5.62553 0
M  V30 21014 H 1948.93 -3.21241 -6.17881 0
M  V30 21015 H 1946.56 -3.79341 -6.5879 0
M  V30 21016 N 1948.14 1.57115 -0.123593 0
M  V30 21017 C 1949.08 2.16817 0.842196 0
M  V30 21018 C 1950.08 1.11865 1.27211 0
M  V30 21019 O 1951.28 1.3016 1.24331 0
M  V30 21020 H 1947.66 0.693949 0.289721 0
M  V30 21021 H 1949.63 2.96741 0.314221 0
M  V30 21022 C 1948.38 2.78577 2.08062 0
M  V30 21023 H 1947.7 3.59037 1.75876 0
M  V30 21024 H 1949.14 3.23884 2.73634 0
M  V30 21025 C 1947.6 1.75892 2.87339 0
M  V30 21026 O 1948.13 1.21508 3.82882 0
M  V30 21027 N 1946.34 1.45728 2.5142 0
M  V30 21028 H 1945.88 1.90143 1.73791 0
M  V30 21029 H 1945.84 0.772654 3.04758 0
M  V30 21030 N 1949.61 -0.150187 1.56883 0
M  V30 21031 C 1950.58 -1.16943 1.97122 0
M  V30 21032 C 1951.58 -1.36037 0.857354 0
M  V30 21033 O 1952.77 -1.33083 1.12403 0
M  V30 21034 C 1949.9 -2.53037 2.2844 0
M  V30 21035 H 1951.09 -0.824297 2.88349 0
M  V30 21036 H 1948.64 -0.393414 1.51268 0
M  V30 21037 H 1949.38 -2.92527 1.39994 0
M  V30 21038 H 1949.16 -2.4054 3.0965 0
M  V30 21039 H 1950.65 -3.26452 2.6042 0
M  V30 21040 N 1951.09 -1.51916 -0.419434 0
M  V30 21041 C 1952.06 -1.73908 -1.49293 0
M  V30 21042 C 1953.06 -0.60898 -1.48822 0
M  V30 21043 O 1954.25 -0.876745 -1.50528 0
M  V30 21044 C 1951.38 -1.812 -2.88755 0
M  V30 21045 H 1952.57 -2.69732 -1.3109 0
M  V30 21046 H 1950.12 -1.42176 -0.649274 0
M  V30 21047 H 1950.86 -0.872544 -3.12341 0
M  V30 21048 H 1950.64 -2.63348 -2.905 0
M  V30 21049 H 1952.13 -1.99992 -3.66596 0
M  V30 21050 N 1952.57 0.676023 -1.42365 0
M  V30 21051 C 1953.82 1.43608 -1.42769 0
M  V30 21052 C 1954.15 1.94451 -0.0436961 0
M  V30 21053 O 1953.4 1.71221 0.947723 0
M  V30 21054 C 1953.7 2.65018 -2.39792 0
M  V30 21055 C 1953.37 2.32724 -3.862 0
M  V30 21056 C 1952.03 2.23628 -4.2608 0
M  V30 21057 C 1954.38 2.06477 -4.78557 0
M  V30 21058 C 1951.71 1.86409 -5.56299 0
M  V30 21059 C 1954.06 1.70763 -6.09116 0
M  V30 21060 C 1952.72 1.60176 -6.47997 0
M  V30 21061 H 1951.99 0.525499 -0.522428 0
M  V30 21062 H 1954.64 0.770932 -1.75297 0
M  V30 21063 H 1952.95 3.36559 -2.00587 0
M  V30 21064 H 1954.64 3.23198 -2.37369 0
M  V30 21065 H 1951.23 2.40705 -3.54625 0
M  V30 21066 H 1955.42 2.12439 -4.48535 0
M  V30 21067 H 1950.67 1.7678 -5.85285 0
M  V30 21068 H 1954.85 1.49479 -6.80168 0
M  V30 21069 H 1952.47 1.31106 -7.48809 0
M  V30 21070 N 1954.05 1.28517 0.912209 0
M  V30 21071 C 1955.29 1.15932 1.66396 0
M  V30 21072 C 1955.63 -0.291123 1.92006 0
M  V30 21073 O 1954.9 -1.21159 1.52154 0
M  V30 21074 C 1955.19 1.95993 3.0209 0
M  V30 21075 C 1955.04 3.49109 2.83625 0
M  V30 21076 C 1956.36 1.77655 4.0265 0
M  V30 21077 H 1953.48 0.42252 0.603859 0
M  V30 21078 H 1956.12 1.5785 1.05752 0
M  V30 21079 H 1954.27 1.60372 3.53855 0
M  V30 21080 H 1955.94 3.94644 2.38859 0
M  V30 21081 H 1954.18 3.74664 2.18653 0
M  V30 21082 H 1954.85 4.00386 3.79993 0
M  V30 21083 H 1957.33 2.08743 3.59952 0
M  V30 21084 H 1956.21 2.36043 4.95555 0
M  V30 21085 H 1956.47 0.728445 4.36057 0
M  V30 21086 N 1955.53 -1.12086 1.1079 0
M  V30 21087 C 1956.75 -1.88034 0.875097 0
M  V30 21088 C 1957.18 -1.79281 -0.569191 0
M  V30 21089 O 1956.53 -1.15037 -1.40129 0
M  V30 21090 C 1956.58 -3.35066 1.33278 0
M  V30 21091 O 1955.69 -4.09356 0.500163 0
M  V30 21092 H 1955.03 -0.584116 0.31576 0
M  V30 21093 H 1957.56 -1.41725 1.47564 0
M  V30 21094 H 1957.57 -3.85908 1.32434 0
M  V30 21095 H 1956.24 -3.40753 2.38453 0
M  V30 21096 H 1954.82 -3.68454 0.574137 0
M  V30 21097 N 1957 -0.897194 -1.29569 0
M  V30 21098 C 1958.24 -0.528705 -1.97444 0
M  V30 21099 C 1958.61 0.907603 -1.69194 0
M  V30 21100 O 1959.81 1.38284 -2.30502 0
M  V30 21101 C 1958.08 -0.810047 -3.48099 0
M  V30 21102 S 1959.64 -0.545491 -4.35396 0
M  V30 21103 H 1956.46 -0.196241 -0.683382 0
M  V30 21104 H 1959.06 -1.15909 -1.57434 0
M  V30 21105 H 1957.76 -1.85366 -3.66153 0
M  V30 21106 H 1957.29 -0.167682 -3.93042 0
M  V30 21107 H 1959.31 0.610577 -4.92429 0
M  V30 21108 N 1958.48 1.43142 -0.659413 0
M  V30 21109 C 1959.73 2.02564 -0.184217 0
M  V30 21110 C 1960.08 1.51128 1.19071 0
M  V30 21111 O 1959.38 0.6973 1.78461 0
M  V30 21112 C 1959.57 3.57118 -0.141826 0
M  V30 21113 C 1959.4 4.23551 -1.5111 0
M  V30 21114 C 1958.17 4.59365 -2.10504 0
M  V30 21115 C 1960.37 4.52154 -2.45075 0
M  V30 21116 N 1958.35 5.10901 -3.40372 0
M  V30 21117 C 1959.72 5.05075 -3.59582 0
M  V30 21118 C 1961.78 4.34127 -2.43799 0
M  V30 21119 C 1960.48 5.41867 -4.73047 0
M  V30 21120 C 1962.5 4.71985 -3.56348 0
M  V30 21121 C 1961.87 5.25045 -4.69582 0
M  V30 21122 H 1957.97 0.773941 -0.111982 0
M  V30 21123 H 1960.55 1.74228 -0.869062 0
M  V30 21124 H 1958.72 3.85005 0.512382 0
M  V30 21125 H 1960.45 4.03228 0.344819 0
M  V30 21126 H 1957.21 4.44611 -1.63149 0
M  V30 21127 H 1957.63 5.41115 -4.06845 0
M  V30 21128 H 1962.27 3.92373 -1.5749 0
M  V30 21129 H 1959.99 5.82561 -5.60043 0
M  V30 21130 H 1963.58 4.59727 -3.5657 0
M  V30 21131 H 1962.46 5.53795 -5.55231 0
M  V30 21132 N 1959.96 0.40173 1.52394 0
M  V30 21133 C 1961.19 -0.178662 2.06629 0
M  V30 21134 C 1961.61 -1.3871 1.27048 0
M  V30 21135 O 1960.97 -1.78821 0.298765 0
M  V30 21136 C 1961.02 -0.514797 3.56906 0
M  V30 21137 O 1960.12 -1.60691 3.79805 0
M  V30 21138 H 1959.46 -0.0174284 0.663771 0
M  V30 21139 H 1961.99 0.572792 1.96419 0
M  V30 21140 H 1962 -0.775554 4.00561 0
M  V30 21141 H 1960.68 0.368624 4.14263 0
M  V30 21142 H 1959.25 -1.3389 3.48034 0
M  V30 21143 N 1961.44 -1.57047 0.131923 0
M  V30 21144 C 1962.35 -2.19545 -0.826862 0
M  V30 21145 C 1963.36 -1.17532 -1.28305 0
M  V30 21146 O 1964.54 -1.50052 -1.34337 0
M  V30 21147 C 1961.61 -2.79284 -2.0543 0
M  V30 21148 C 1960.67 -3.96375 -1.64879 0
M  V30 21149 C 1959.9 -4.53256 -2.81771 0
M  V30 21150 O 1960.12 -4.09022 -3.97564 0
M  V30 21151 O 1959.06 -5.43748 -2.58111 0
M  V30 21152 H 1962.88 -3.01957 -0.324926 0
M  V30 21153 H 1960.47 -1.49102 -0.0943495 0
M  V30 21154 H 1962.35 -3.17312 -2.77292 0
M  V30 21155 H 1961.02 -1.99895 -2.54605 0
M  V30 21156 H 1959.93 -3.63092 -0.900848 0
M  V30 21157 H 1961.26 -4.77238 -1.20434 0
M  V30 21158 N 1962.92 0.141865 -1.5696 0
M  V30 21159 C 1963.85 1.17667 -2.01685 0
M  V30 21160 C 1964.83 1.44509 -0.897282 0
M  V30 21161 O 1966.01 1.55342 -1.16544 0
M  V30 21162 C 1963.14 2.50859 -2.40182 0
M  V30 21163 C 1962.1 2.38527 -3.55371 0
M  V30 21164 C 1961.42 3.76476 -3.79697 0
M  V30 21165 C 1962.72 1.86502 -4.87867 0
M  V30 21166 H 1964.42 0.804761 -2.88382 0
M  V30 21167 H 1961.96 0.385672 -1.38739 0
M  V30 21168 H 1963.92 3.2348 -2.70071 0
M  V30 21169 H 1962.64 2.89895 -1.50428 0
M  V30 21170 H 1961.3 1.68357 -3.25656 0
M  V30 21171 H 1960.95 4.12957 -2.87186 0
M  V30 21172 H 1960.65 3.69085 -4.5722 0
M  V30 21173 H 1962.17 4.50638 -4.12017 0
M  V30 21174 H 1963.58 2.48921 -5.16441 0
M  V30 21175 H 1961.98 1.89989 -5.69231 0
M  V30 21176 H 1963.05 0.821025 -4.77899 0
M  V30 21177 N 1964.39 1.52136 0.411372 0
M  V30 21178 C 1965.34 1.75927 1.52159 0
M  V30 21179 C 1966.34 0.626317 1.57396 0
M  V30 21180 O 1967.54 0.808311 1.6083 0
M  V30 21181 H 1963.92 0.5563 0.505998 0
M  V30 21182 H 1965.89 2.68942 1.29278 0
M  V30 21183 C 1964.64 1.92496 2.89552 0
M  V30 21184 H 1963.96 2.79093 2.86264 0
M  V30 21185 H 1965.4 2.13143 3.66532 0
M  V30 21186 C 1963.86 0.691473 3.29728 0
M  V30 21187 O 1964.39 -0.141712 4.0145 0
M  V30 21188 N 1962.6 0.528019 2.85763 0
M  V30 21189 H 1962.14 1.20713 2.27565 0
M  V30 21190 H 1962.1 -0.295994 3.13004 0
M  V30 21191 N 1965.87 -0.668464 1.42721 0
M  V30 21192 C 1966.78 -1.81118 1.49109 0
M  V30 21193 C 1967.8 -1.69815 0.379331 0
M  V30 21194 O 1968.98 -1.91254 0.631187 0
M  V30 21195 C 1966.04 -3.17303 1.39713 0
M  V30 21196 C 1965.1 -3.40515 2.61434 0
M  V30 21197 C 1964.33 -4.70203 2.52477 0
M  V30 21198 O 1964.56 -5.48536 1.56411 0
M  V30 21199 O 1963.49 -4.948 3.42719 0
M  V30 21200 H 1967.32 -1.78684 2.45572 0
M  V30 21201 H 1964.9 -0.825017 1.24554 0
M  V30 21202 H 1966.78 -3.98557 1.36859 0
M  V30 21203 H 1965.46 -3.2036 0.463785 0
M  V30 21204 H 1964.37 -2.59085 2.69863 0
M  V30 21205 H 1965.7 -3.42293 3.53689 0
M  V30 21206 N 1967.35 -1.28999 -0.905381 0
M  V30 21207 C 1968.63 -1.07329 -1.63523 0
M  V30 21208 C 1969.01 0.384519 -2.07568 0
M  V30 21209 O 1968.36 1.37223 -1.82708 0
M  V30 21210 C 1968.57 -2.05563 -2.82037 0
M  V30 21211 C 1969.91 -2.3617 -3.52858 0
M  V30 21212 O 1970.94 -2.03713 -2.92198 0
M  V30 21213 O 1969.8 -2.91601 -4.62202 0
M  V30 21214 H 1966.89 -0.410796 -0.717757 0
M  V30 21215 H 1969.44 -1.40349 -0.953949 0
M  V30 21216 H 1968.21 -3.03779 -2.46645 0
M  V30 21217 H 1967.83 -1.73238 -3.57875 0
M  V30 21218 N 1968.83 1.11497 -1.11383 0
M  V30 21219 C 1969.76 2.17283 -0.729431 0
M  V30 21220 C 1970.77 1.61041 0.238642 0
M  V30 21221 O 1971.96 1.78487 0.0216271 0
M  V30 21222 C 1969.06 3.38852 -0.057216 0
M  V30 21223 C 1968.24 4.24562 -1.05196 0
M  V30 21224 C 1967.3 5.24605 -0.40941 0
M  V30 21225 O 1966.32 5.59183 -1.06315 0
M  V30 21226 N 1967.52 5.74565 0.827957 0
M  V30 21227 H 1970.29 2.50871 -1.63963 0
M  V30 21228 H 1967.85 1.27013 -1.00396 0
M  V30 21229 H 1969.84 4.02871 0.384356 0
M  V30 21230 H 1968.41 3.03332 0.755551 0
M  V30 21231 H 1967.63 3.57008 -1.6715 0
M  V30 21232 H 1968.92 4.78667 -1.72498 0
M  V30 21233 H 1968.32 5.48653 1.37827 0
M  V30 21234 H 1966.87 6.40423 1.21252 0
M  V30 21235 N 1970.31 0.904053 1.29092 0
M  V30 21236 C 1971.24 0.342376 2.26628 0
M  V30 21237 C 1972.25 -0.513752 1.54481 0
M  V30 21238 O 1973.44 -0.330204 1.75419 0
M  V30 21239 C 1970.54 -0.530091 3.34729 0
M  V30 21240 C 1969.71 0.301305 4.36361 0
M  V30 21241 C 1968.77 -0.504691 5.23774 0
M  V30 21242 O 1967.8 0.0793438 5.69145 0
M  V30 21243 N 1969 -1.80985 5.51566 0
M  V30 21244 H 1971.77 1.18071 2.75462 0
M  V30 21245 H 1969.33 0.768991 1.42472 0
M  V30 21246 H 1971.32 -1.0758 3.90139 0
M  V30 21247 H 1969.89 -1.26912 2.85678 0
M  V30 21248 H 1969.11 1.02841 3.80549 0
M  V30 21249 H 1970.4 0.870527 5.01298 0
M  V30 21250 H 1969.8 -2.30701 5.16521 0
M  V30 21251 H 1968.35 -2.30259 6.09774 0
M  V30 21252 N 1971.79 -1.4279 0.666995 0
M  V30 21253 C 1973.06 -1.9526 0.11533 0
M  V30 21254 C 1973.44 -1.60776 -1.36801 0
M  V30 21255 O 1972.79 -0.899897 -2.10034 0
M  V30 21256 C 1973 -3.46967 0.376175 0
M  V30 21257 C 1974.35 -4.23619 0.28849 0
M  V30 21258 O 1975.37 -3.54853 0.30949 0
M  V30 21259 O 1974.23 -5.46041 0.223982 0
M  V30 21260 H 1971.33 -0.826998 -0.00165705 0
M  V30 21261 H 1973.87 -1.52658 0.741186 0
M  V30 21262 H 1972.64 -3.65243 1.40404 0
M  V30 21263 H 1972.27 -3.96598 -0.282074 0
M  V30 21264 N 1973.26 -0.409806 -1.52179 0
M  V30 21265 C 1974.17 0.42219 -2.3077 0
M  V30 21266 C 1975.19 1.05295 -1.38524 0
M  V30 21267 O 1976.37 1.05432 -1.71599 0
M  V30 21268 C 1973.43 1.52345 -3.11435 0
M  V30 21269 C 1972.49 0.91568 -4.19421 0
M  V30 21270 C 1971.72 1.96446 -4.9623 0
M  V30 21271 O 1971.95 3.18271 -4.7335 0
M  V30 21272 O 1970.88 1.57032 -5.81055 0
M  V30 21273 H 1974.71 -0.218635 -3.02912 0
M  V30 21274 H 1972.29 -0.172994 -1.48395 0
M  V30 21275 H 1974.17 2.16276 -3.61666 0
M  V30 21276 H 1972.85 2.14886 -2.42086 0
M  V30 21277 H 1971.76 0.239064 -3.73335 0
M  V30 21278 H 1973.09 0.33418 -4.91064 0
M  V30 21279 N 1974.74 1.56975 -0.14025 0
M  V30 21280 C 1975.67 2.19432 0.798233 0
M  V30 21281 C 1976.65 1.14055 1.26196 0
M  V30 21282 O 1977.84 1.42373 1.32074 0
M  V30 21283 C 1974.97 2.81059 2.04018 0
M  V30 21284 C 1973.92 3.92204 1.71347 0
M  V30 21285 C 1973.25 4.40735 3.02748 0
M  V30 21286 C 1974.55 5.13302 0.965327 0
M  V30 21287 H 1976.24 2.98109 0.277716 0
M  V30 21288 H 1973.79 1.43392 0.132137 0
M  V30 21289 H 1975.74 3.23417 2.70147 0
M  V30 21290 H 1974.46 1.99703 2.5843 0
M  V30 21291 H 1973.12 3.50454 1.07599 0
M  V30 21292 H 1972.77 3.5621 3.55138 0
M  V30 21293 H 1972.47 5.15698 2.81654 0
M  V30 21294 H 1974 4.85759 3.6996 0
M  V30 21295 H 1975.41 5.52547 1.52857 0
M  V30 21296 H 1973.81 5.93984 0.854574 0
M  V30 21297 H 1974.88 4.8488 -0.0441688 0
M  V30 21298 N 1976.22 -0.133539 1.57033 0
M  V30 21299 C 1977.47 -0.842358 1.83268 0
M  V30 21300 C 1977.78 -1.81722 0.723634 0
M  V30 21301 O 1978.99 -2.57117 0.871969 0
M  V30 21302 C 1977.44 -1.54868 3.24875 0
M  V30 21303 C 1977.05 -0.615546 4.43751 0
M  V30 21304 C 1978.8 -2.24349 3.60372 0
M  V30 21305 C 1976.7 -1.32426 5.76383 0
M  V30 21306 H 1975.63 -0.318314 0.683515 0
M  V30 21307 H 1978.28 -0.0950741 1.83254 0
M  V30 21308 H 1976.67 -2.34207 3.19316 0
M  V30 21309 H 1977.84 0.143586 4.60576 0
M  V30 21310 H 1976.15 -0.0284595 4.1639 0
M  V30 21311 H 1978.75 -2.78037 4.56727 0
M  V30 21312 H 1979.09 -3.01473 2.87088 0
M  V30 21313 H 1979.63 -1.51914 3.67651 0
M  V30 21314 H 1976.37 -0.594603 6.52798 0
M  V30 21315 H 1975.89 -2.05577 5.6347 0
M  V30 21316 H 1977.57 -1.86148 6.19643 0
M  V30 21317 N 1977.7 -1.52352 -0.403298 0
M  V30 21318 C 1979.11 -1.41285 -0.742343 0
M  V30 21319 C 1979.31 -0.521946 -1.94623 0
M  V30 21320 O 1978.37 0.0100547 -2.52498 0
M  V30 21321 C 1979.68 -2.83907 -0.990819 0
M  V30 21322 C 1981.23 -2.93289 -1.09318 0
M  V30 21323 C 1981.71 -4.36892 -1.37437 0
M  V30 21324 N 1983.2 -4.40153 -1.4429 0
M  V30 21325 C 1983.93 -5.48333 -1.67686 0
M  V30 21326 N 1983.43 -6.66622 -1.88647 0
M  V30 21327 N 1985.22 -5.35856 -1.69748 0
M  V30 21328 H 1977.37 -2.08806 0.389077 0
M  V30 21329 H 1979.63 -0.941383 0.111813 0
M  V30 21330 H 1979.34 -3.51247 -0.178511 0
M  V30 21331 H 1979.21 -3.25302 -1.9094 0
M  V30 21332 H 1981.6 -2.26127 -1.89607 0
M  V30 21333 H 1981.68 -2.55343 -0.152822 0
M  V30 21334 H 1981.33 -5.04616 -0.576634 0
M  V30 21335 H 1981.26 -4.72379 -2.32734 0
M  V30 21336 H 1983.75 -3.54888 -1.29857 0
M  V30 21337 H 1984.06 -7.44848 -2.05965 0
M  V30 21338 H 1982.41 -6.69676 -1.859 0
M  V30 21339 H 1985.6 -4.42419 -1.52914 0
M  V30 21340 H 1985.77 -6.20237 -1.87642 0
M  V30 21341 N 1979.18 0.660885 -1.43074 0
M  V30 21342 C 1980.4 1.45376 -1.47921 0
M  V30 21343 C 1980.83 1.87855 -0.0960289 0
M  V30 21344 O 1980.18 1.5689 0.908583 0
M  V30 21345 C 1980.23 2.67002 -2.42368 0
M  V30 21346 O 1979.34 3.65783 -1.90465 0
M  V30 21347 H 1978.68 0.436193 -0.500632 0
M  V30 21348 H 1981.21 0.809399 -1.87909 0
M  V30 21349 H 1981.22 3.14909 -2.59416 0
M  V30 21350 H 1979.89 2.35426 -3.42852 0
M  V30 21351 H 1978.47 3.24885 -1.83041 0
M  V30 21352 N 1980.65 1.29477 0.898527 0
M  V30 21353 C 1981.9 1.16888 1.64378 0
M  V30 21354 C 1982.22 -0.278503 1.93607 0
M  V30 21355 O 1983.42 -0.525728 2.66361 0
M  V30 21356 C 1981.88 2.0444 2.96196 0
M  V30 21357 C 1981.49 3.54008 2.74558 0
M  V30 21358 C 1983.23 2.00578 3.74124 0
M  V30 21359 C 1981.14 4.33661 4.0211 0
M  V30 21360 H 1980.07 0.433875 0.616659 0
M  V30 21361 H 1982.72 1.54125 0.995881 0
M  V30 21362 H 1981.1 1.60073 3.62205 0
M  V30 21363 H 1982.27 4.06435 2.17135 0
M  V30 21364 H 1980.59 3.59553 2.10025 0
M  V30 21365 H 1983.19 2.57348 4.68696 0
M  V30 21366 H 1983.53 0.98604 4.04454 0
M  V30 21367 H 1984.06 2.42995 3.14957 0
M  V30 21368 H 1980.8 5.36276 3.76946 0
M  V30 21369 H 1980.32 3.86003 4.59088 0
M  V30 21370 H 1982 4.44385 4.70246 0
M  V30 21371 N 1982.13 -1.10905 1.11972 0
M  V30 21372 C 1983.04 -2.20682 0.796029 0
M  V30 21373 C 1984.06 -1.72689 -0.213158 0
M  V30 21374 O 1985.23 -2.01343 -0.047955 0
M  V30 21375 C 1982.3 -3.45797 0.250055 0
M  V30 21376 C 1981.36 -4.08549 1.31855 0
M  V30 21377 C 1980.59 -5.27692 0.798538 0
M  V30 21378 O 1980.82 -5.69202 -0.369435 0
M  V30 21379 O 1979.75 -5.81174 1.5659 0
M  V30 21380 H 1983.58 -2.50794 1.71278 0
M  V30 21381 H 1981.16 -1.19548 0.896024 0
M  V30 21382 H 1983.04 -4.21371 -0.0497791 0
M  V30 21383 H 1981.72 -3.17324 -0.639327 0
M  V30 21384 H 1980.63 -3.34682 1.67148 0
M  V30 21385 H 1981.96 -4.41215 2.18153 0
M  V30 21386 N 1983.61 -0.910886 -1.2861 0
M  V30 21387 C 1984.54 -0.413998 -2.29801 0
M  V30 21388 C 1985.52 0.51689 -1.62056 0
M  V30 21389 O 1986.71 0.425236 -1.89487 0
M  V30 21390 C 1983.84 0.349336 -3.45539 0
M  V30 21391 C 1982.79 -0.49215 -4.25161 0
M  V30 21392 C 1982.12 0.399352 -5.33207 0
M  V30 21393 C 1983.42 -1.74792 -4.92184 0
M  V30 21394 H 1985.11 -1.25965 -2.71612 0
M  V30 21395 H 1982.66 -0.607149 -1.30575 0
M  V30 21396 H 1984.61 0.70777 -4.15414 0
M  V30 21397 H 1983.33 1.22887 -3.02599 0
M  V30 21398 H 1981.99 -0.833064 -3.57009 0
M  V30 21399 H 1981.64 1.27734 -4.86511 0
M  V30 21400 H 1981.34 -0.160062 -5.87382 0
M  V30 21401 H 1982.86 0.753731 -6.0593 0
M  V30 21402 H 1984.28 -1.45856 -5.54436 0
M  V30 21403 H 1982.68 -2.24952 -5.56342 0
M  V30 21404 H 1983.75 -2.4774 -4.16837 0
M  V30 21405 N 1985.09 1.42434 -0.674558 0
M  V30 21406 C 1986.05 2.29199 -0.00527063 0
M  V30 21407 C 1987.05 1.43313 0.729245 0
M  V30 21408 O 1988.24 1.64704 0.567284 0
M  V30 21409 C 1985.37 3.25805 1.0032 0
M  V30 21410 H 1986.57 2.89874 -0.768954 0
M  V30 21411 H 1984.12 1.5007 -0.436898 0
M  V30 21412 H 1984.85 2.70068 1.79538 0
M  V30 21413 H 1984.64 3.89152 0.479902 0
M  V30 21414 H 1986.13 3.90875 1.46993 0
M  V30 21415 N 1986.57 0.417871 1.51959 0
M  V30 21416 C 1987.5 -0.394222 2.30148 0
M  V30 21417 C 1988.48 -1.0384 1.34727 0
M  V30 21418 O 1989.66 -1.04575 1.63639 0
M  V30 21419 C 1986.79 -1.50639 3.1293 0
M  V30 21420 C 1985.75 -0.986759 4.1647 0
M  V30 21421 C 1985.07 -2.1932 4.8765 0
M  V30 21422 C 1986.37 -0.0347019 5.22288 0
M  V30 21423 H 1988.07 0.258228 2.98284 0
M  V30 21424 H 1985.61 0.125633 1.43451 0
M  V30 21425 H 1987.57 -2.08157 3.664 0
M  V30 21426 H 1986.29 -2.18685 2.42579 0
M  V30 21427 H 1984.95 -0.43393 3.64023 0
M  V30 21428 H 1984.6 -2.8594 4.1382 0
M  V30 21429 H 1984.3 -1.85199 5.57652 0
M  V30 21430 H 1985.82 -2.77427 5.43936 0
M  V30 21431 H 1987.23 -0.518951 5.70946 0
M  V30 21432 H 1985.63 0.218124 5.99703 0
M  V30 21433 H 1986.7 0.907947 4.76324 0
M  V30 21434 N 1988.04 -1.56898 0.148573 0
M  V30 21435 C 1989.27 -2.0054 -0.509047 0
M  V30 21436 C 1989.69 -1.02867 -1.58315 0
M  V30 21437 O 1989.04 -0.0259297 -1.82482 0
M  V30 21438 C 1989.1 -3.44093 -1.10825 0
M  V30 21439 O 1988.82 -4.38032 -0.077048 0
M  V30 21440 C 1990.32 -4.03021 -1.84633 0
M  V30 21441 H 1987.54 -0.657812 -0.132378 0
M  V30 21442 H 1990.08 -2.03044 0.243618 0
M  V30 21443 H 1988.24 -3.42436 -1.81153 0
M  V30 21444 H 1988.65 -5.21953 -0.516256 0
M  V30 21445 H 1990.12 -5.05458 -2.21847 0
M  V30 21446 H 1990.6 -3.43821 -2.73283 0
M  V30 21447 H 1991.21 -4.08313 -1.19 0
M  V30 21448 N 1989.52 0.125209 -1.57102 0
M  V30 21449 C 1990.75 0.852378 -1.89075 0
M  V30 21450 C 1991.17 1.72938 -0.739878 0
M  V30 21451 O 1990.53 1.78633 0.309828 0
M  V30 21452 C 1990.58 1.66688 -3.19762 0
M  V30 21453 O 1989.68 2.77324 -3.0523 0
M  V30 21454 H 1989.02 0.236103 -0.620606 0
M  V30 21455 H 1991.55 0.109473 -2.04307 0
M  V30 21456 H 1991.56 2.0574 -3.52328 0
M  V30 21457 H 1990.24 1.02303 -4.03121 0
M  V30 21458 H 1988.82 2.41519 -2.84118 0
M  V30 21459 N 1991 1.52564 0.395213 0
M  V30 21460 C 1991.93 1.73146 1.50177 0
M  V30 21461 C 1992.95 0.611895 1.50863 0
M  V30 21462 O 1994.13 0.887429 1.54877 0
M  V30 21463 C 1991.23 1.76943 2.89041 0
M  V30 21464 C 1990.41 3.06156 3.12389 0
M  V30 21465 C 1989.47 3.01581 4.31202 0
M  V30 21466 O 1988.49 3.75459 4.27807 0
M  V30 21467 N 1989.69 2.20335 5.37059 0
M  V30 21468 H 1992.46 2.68617 1.3291 0
M  V30 21469 H 1990.02 1.50975 0.584663 0
M  V30 21470 H 1992.01 1.71396 3.66613 0
M  V30 21471 H 1990.58 0.888857 2.99697 0
M  V30 21472 H 1989.8 3.25242 2.22737 0
M  V30 21473 H 1991.09 3.91607 3.2484 0
M  V30 21474 H 1990.49 1.59768 5.4267 0
M  V30 21475 H 1989.05 2.20634 6.13322 0
M  V30 21476 N 1992.48 -0.653289 1.43422 0
M  V30 21477 C 1993.76 -1.41051 1.35513 0
M  V30 21478 C 1994.14 -2.111 0.00290798 0
M  V30 21479 O 1993.48 -2.04786 -1.01365 0
M  V30 21480 C 1993.69 -2.39526 2.53827 0
M  V30 21481 C 1995.04 -3.03528 2.96911 0
M  V30 21482 O 1996.07 -2.49854 2.53873 0
M  V30 21483 O 1994.92 -4.00843 3.71466 0
M  V30 21484 H 1992.02 -0.630186 0.535532 0
M  V30 21485 H 1994.56 -0.680203 1.55471 0
M  V30 21486 H 1993.34 -1.86712 3.43881 0
M  V30 21487 H 1992.96 -3.20007 2.35968 0
M  V30 21488 N 1993.96 -1.29952 -0.891648 0
M  V30 21489 C 1995.21 -1.17758 -1.63756 0
M  V30 21490 C 1995.52 0.268231 -1.93752 0
M  V30 21491 O 1996.72 0.511595 -2.66636 0
M  V30 21492 C 1995.18 -2.06008 -2.95108 0
M  V30 21493 C 1994.79 -3.55459 -2.72677 0
M  V30 21494 C 1996.53 -2.0256 -3.73055 0
M  V30 21495 C 1994.44 -4.35787 -3.99805 0
M  V30 21496 H 1993.37 -0.437139 -0.61435 0
M  V30 21497 H 1996.02 -1.54651 -0.987694 0
M  V30 21498 H 1994.4 -1.61991 -3.61351 0
M  V30 21499 H 1995.58 -4.0758 -2.14977 0
M  V30 21500 H 1993.89 -3.60662 -2.08115 0
M  V30 21501 H 1996.49 -2.5983 -4.67325 0
M  V30 21502 H 1996.83 -1.00748 -4.03925 0
M  V30 21503 H 1997.36 -2.44662 -3.13664 0
M  V30 21504 H 1994.1 -5.38268 -3.74096 0
M  V30 21505 H 1993.62 -3.88432 -4.57035 0
M  V30 21506 H 1995.3 -4.46872 -4.67883 0
M  V30 21507 N 1995.44 1.1031 -1.12559 0
M  V30 21508 C 1996.4 2.14869 -0.79773 0
M  V30 21509 C 1997.4 1.59691 0.188521 0
M  V30 21510 O 1998.59 1.7416 -0.037433 0
M  V30 21511 C 1995.72 3.40394 -0.185665 0
M  V30 21512 H 1996.91 2.45384 -1.72415 0
M  V30 21513 H 1994.47 1.25694 -0.929011 0
M  V30 21514 H 1995.2 3.15499 0.750409 0
M  V30 21515 H 1994.99 3.81731 -0.895771 0
M  V30 21516 H 1996.48 4.17591 0.0271848 0
M  V30 21517 N 1996.91 0.917694 1.28125 0
M  V30 21518 C 1997.82 0.414339 2.30912 0
M  V30 21519 C 1998.84 -0.49998 1.66662 0
M  V30 21520 O 2000.02 -0.385213 1.97682 0
M  V30 21521 C 1997.08 -0.333886 3.45089 0
M  V30 21522 C 1996.14 0.614131 4.24885 0
M  V30 21523 C 1995.37 -0.0984806 5.33609 0
M  V30 21524 O 1995.6 -1.31956 5.54927 0
M  V30 21525 O 1994.53 0.568228 5.99212 0
M  V30 21526 H 1998.36 1.26755 2.75984 0
M  V30 21527 H 1995.94 0.682661 1.32891 0
M  V30 21528 H 1997.82 -0.756311 4.14557 0
M  V30 21529 H 1996.5 -1.16286 3.02091 0
M  V30 21530 H 1995.41 1.08603 3.57989 0
M  V30 21531 H 1996.74 1.41003 4.71571 0
M  V30 21532 N 1998.39 -1.42074 0.682102 0
M  V30 21533 C 1999.64 -2.01733 0.207714 0
M  V30 21534 C 1999.97 -1.53844 -1.18514 0
M  V30 21535 O 1999.25 -0.74378 -1.79717 0
M  V30 21536 C 1999.53 -3.59228 0.250438 0
M  V30 21537 C 1999.38 -4.17278 1.67927 0
M  V30 21538 C 2000.7 -4.38303 -0.397296 0
M  V30 21539 H 1997.82 -0.732972 0.0769518 0
M  V30 21540 H 2000.46 -1.69 0.868272 0
M  V30 21541 H 1998.61 -3.87245 -0.312007 0
M  V30 21542 H 2000.28 -4.00187 2.29452 0
M  V30 21543 H 1998.53 -3.7283 2.21767 0
M  V30 21544 H 1999.2 -5.26423 1.66079 0
M  V30 21545 H 2001.67 -4.1602 0.0815622 0
M  V30 21546 H 2000.55 -5.47866 -0.336797 0
M  V30 21547 H 2000.81 -4.16733 -1.476 0
M  V30 21548 N 1999.87 -0.425924 -1.51735 0
M  V30 21549 C 2001.1 0.143351 -2.06403 0
M  V30 21550 C 2001.51 1.37439 -1.29445 0
M  V30 21551 O 2000.87 1.79096 -0.350858 0
M  V30 21552 C 2000.92 0.477017 -3.58339 0
M  V30 21553 O 2000.64 -0.705148 -4.32388 0
M  V30 21554 C 2002.14 1.09821 -4.29481 0
M  V30 21555 H 1999.36 0.0129769 -0.670875 0
M  V30 21556 H 2001.91 -0.601719 -1.95447 0
M  V30 21557 H 2000.06 1.17198 -3.69247 0
M  V30 21558 H 2000.48 -0.422599 -5.22795 0
M  V30 21559 H 2001.95 1.28175 -5.36913 0
M  V30 21560 H 2002.43 2.07605 -3.87036 0
M  V30 21561 H 2003.03 0.442957 -4.22987 0
M  V30 21562 N 2001.35 1.56817 -0.156891 0
M  V30 21563 C 2002.28 2.14404 0.810167 0
M  V30 21564 C 2003.29 1.09595 1.20386 0
M  V30 21565 O 2004.48 1.36836 1.14622 0
M  V30 21566 C 2001.58 2.65998 2.09996 0
M  V30 21567 C 2000.75 3.95312 1.87209 0
M  V30 21568 C 1999.81 4.32116 3.00271 0
M  V30 21569 O 1998.84 5.00259 2.71532 0
M  V30 21570 N 2000.04 3.925 4.27696 0
M  V30 21571 H 2002.81 2.98009 0.317935 0
M  V30 21572 H 2000.37 1.61879 0.0263634 0
M  V30 21573 H 2002.36 2.87626 2.84699 0
M  V30 21574 H 2000.93 1.87062 2.50453 0
M  V30 21575 H 2000.15 3.82209 0.964891 0
M  V30 21576 H 2001.44 4.79795 1.69335 0
M  V30 21577 H 2000.84 3.37612 4.5391 0
M  V30 21578 H 1999.39 4.19159 4.99148 0
M  V30 21579 N 2002.83 -0.116876 1.57166 0
M  V30 21580 C 2004.05 -0.838417 1.89151 0
M  V30 21581 C 2004.47 -1.73335 0.748361 0
M  V30 21582 O 2003.83 -1.80328 -0.280719 0
M  V30 21583 C 2003.88 -1.67006 3.20611 0
M  V30 21584 O 2003.6 -0.811158 4.30525 0
M  V30 21585 C 2005.1 -2.49657 3.66314 0
M  V30 21586 H 2002.32 -0.240909 0.626262 0
M  V30 21587 H 2004.86 -0.100631 2.04252 0
M  V30 21588 H 2003.02 -2.36058 3.07173 0
M  V30 21589 H 2003.43 -1.38499 5.05884 0
M  V30 21590 H 2004.91 -3.03537 4.61052 0
M  V30 21591 H 2005.38 -3.27114 2.93075 0
M  V30 21592 H 2005.99 -1.85844 3.82547 0
M  V30 21593 N 2004.3 -1.52772 -0.387116 0
M  V30 21594 C 2005.23 -1.80654 -1.47941 0
M  V30 21595 C 2006.21 -0.658677 -1.56829 0
M  V30 21596 O 2007.4 -0.906449 -1.71747 0
M  V30 21597 C 2004.53 -1.97709 -2.85532 0
M  V30 21598 C 2003.48 -3.13404 -2.91482 0
M  V30 21599 C 2002.81 -3.15717 -4.3154 0
M  V30 21600 C 2004.11 -4.52437 -2.60957 0
M  V30 21601 H 2005.8 -2.72123 -1.24858 0
M  V30 21602 H 2003.35 -1.30941 -0.59921 0
M  V30 21603 H 2005.3 -2.15798 -3.61952 0
M  V30 21604 H 2004.03 -1.02931 -3.09956 0
M  V30 21605 H 2002.69 -2.95102 -2.1751 0
M  V30 21606 H 2002.33 -2.18618 -4.53007 0
M  V30 21607 H 2002.03 -3.93437 -4.36441 0
M  V30 21608 H 2003.56 -3.35963 -5.09864 0
M  V30 21609 H 2004.97 -4.70831 -3.27095 0
M  V30 21610 H 2003.37 -5.32238 -2.77205 0
M  V30 21611 H 2004.44 -4.59022 -1.5629 0
M  V30 21612 N 2005.78 0.645673 -1.43767 0
M  V30 21613 C 2006.71 1.76974 -1.52324 0
M  V30 21614 C 2007.69 1.65862 -0.377316 0
M  V30 21615 O 2008.88 1.84843 -0.595532 0
M  V30 21616 C 2006.01 3.1544 -1.4531 0
M  V30 21617 C 2004.96 3.41324 -2.58229 0
M  V30 21618 C 2004.29 4.79669 -2.36267 0
M  V30 21619 C 2005.59 3.35321 -4.00446 0
M  V30 21620 H 2007.28 1.70069 -2.46408 0
M  V30 21621 H 2004.83 0.816784 -1.18594 0
M  V30 21622 H 2006.78 3.93838 -1.49899 0
M  V30 21623 H 2005.5 3.23093 -0.477344 0
M  V30 21624 H 2004.16 2.653 -2.53005 0
M  V30 21625 H 2003.81 4.84007 -1.36918 0
M  V30 21626 H 2003.51 4.97947 -3.11966 0
M  V30 21627 H 2005.04 5.60315 -2.42652 0
M  V30 21628 H 2006.45 4.03644 -4.07117 0
M  V30 21629 H 2004.85 3.65135 -4.76231 0
M  V30 21630 H 2005.92 2.33373 -4.25047 0
M  V30 21631 N 2007.26 1.30423 0.884744 0
M  V30 21632 C 2008.21 1.1673 2.01188 0
M  V30 21633 C 2009.2 0.0791439 1.69215 0
M  V30 21634 O 2010.41 0.24001 1.78393 0
M  V30 21635 H 2006.78 0.361014 0.659676 0
M  V30 21636 H 2008.75 2.12124 2.09871 0
M  V30 21637 C 2007.5 0.876173 3.3648 0
M  V30 21638 H 2006.83 1.70557 3.61594 0
M  V30 21639 H 2008.27 0.820477 4.15986 0
M  V30 21640 C 2006.72 -0.420908 3.3426 0
M  V30 21641 O 2007.25 -1.44235 3.74912 0
M  V30 21642 N 2005.46 -0.432149 2.87369 0
M  V30 21643 H 2005.01 0.399559 2.54482 0
M  V30 21644 H 2004.97 -1.29995 2.86267 0
M  V30 21645 N 2008.74 -1.09711 1.13142 0
M  V30 21646 C 2009.67 -2.18301 0.828662 0
M  V30 21647 C 2010.65 -1.6879 -0.210733 0
M  V30 21648 O 2011.83 -1.94073 -0.0702977 0
M  V30 21649 C 2008.96 -3.46081 0.290674 0
M  V30 21650 C 2007.92 -4.0891 1.26398 0
M  V30 21651 C 2007.24 -5.3148 0.585887 0
M  V30 21652 C 2008.54 -4.51751 2.62142 0
M  V30 21653 H 2010.24 -2.43885 1.73668 0
M  V30 21654 H 2007.78 -1.17216 0.836449 0
M  V30 21655 H 2009.74 -4.21347 0.0665509 0
M  V30 21656 H 2008.46 -3.20011 -0.652716 0
M  V30 21657 H 2007.12 -3.3566 1.47405 0
M  V30 21658 H 2006.77 -5.01689 -0.362883 0
M  V30 21659 H 2006.47 -5.7447 1.23522 0
M  V30 21660 H 2007.99 -6.09472 0.370976 0
M  V30 21661 H 2009.41 -5.18255 2.45121 0
M  V30 21662 H 2007.8 -5.05615 3.23223 0
M  V30 21663 H 2008.87 -3.64297 3.20025 0
M  V30 21664 N 2010.22 -0.924476 -1.27637 0
M  V30 21665 C 2011.18 -0.425772 -2.25211 0
M  V30 21666 C 2012.18 0.453876 -1.54261 0
M  V30 21667 O 2013.37 0.255412 -1.72317 0
M  V30 21668 C 2010.5 0.388294 -3.38681 0
M  V30 21669 H 2011.69 -1.28783 -2.70841 0
M  V30 21670 H 2009.25 -0.704863 -1.39504 0
M  V30 21671 H 2009.98 1.2693 -2.98428 0
M  V30 21672 H 2009.77 -0.242358 -3.9135 0
M  V30 21673 H 2011.26 0.727693 -4.11211 0
M  V30 21674 N 2011.69 1.41711 -0.689627 0
M  V30 21675 C 2012.6 2.34591 -0.0208935 0
M  V30 21676 C 2013.62 1.55906 0.772616 0
M  V30 21677 O 2014.8 1.88412 0.711542 0
M  V30 21678 C 2011.86 3.34589 0.908354 0
M  V30 21679 C 2010.92 4.29165 0.107717 0
M  V30 21680 C 2010.16 5.24386 0.992705 0
M  V30 21681 O 2010.38 5.24907 2.23224 0
M  V30 21682 O 2009.31 6.00249 0.445563 0
M  V30 21683 H 2013.14 2.93343 -0.786347 0
M  V30 21684 H 2010.72 1.42464 -0.449929 0
M  V30 21685 H 2012.61 3.95982 1.44138 0
M  V30 21686 H 2011.28 2.78288 1.6534 0
M  V30 21687 H 2010.19 3.71139 -0.469771 0
M  V30 21688 H 2011.52 4.88547 -0.598537 0
M  V30 21689 N 2013.17 0.433965 1.51507 0
M  V30 21690 C 2014.42 -0.133629 2.02059 0
M  V30 21691 C 2014.75 -1.43006 1.31831 0
M  V30 21692 O 2014 -1.91121 0.420883 0
M  V30 21693 C 2014.3 -0.403136 3.55119 0
M  V30 21694 C 2013.97 0.807078 4.43618 0
M  V30 21695 C 2012.63 1.13897 4.67526 0
M  V30 21696 C 2014.98 1.61458 4.95561 0
M  V30 21697 C 2012.31 2.27911 5.40623 0
M  V30 21698 C 2014.66 2.74568 5.69908 0
M  V30 21699 C 2013.33 3.08215 5.92081 0
M  V30 21700 H 2012.6 -0.0488983 0.739385 0
M  V30 21701 H 2015.24 0.58047 1.82491 0
M  V30 21702 H 2013.55 -1.19909 3.73 0
M  V30 21703 H 2015.24 -0.85567 3.91764 0
M  V30 21704 H 2011.83 0.538448 4.25204 0
M  V30 21705 H 2016.02 1.37137 4.76977 0
M  V30 21706 H 2011.27 2.54298 5.56006 0
M  V30 21707 H 2015.45 3.3751 6.09147 0
M  V30 21708 H 2013.08 3.96674 6.48501 0
M  V30 21709 N 2014.65 -1.56732 0.165206 0
M  V30 21710 C 2015.58 -2.13493 -0.805985 0
M  V30 21711 C 2016.56 -1.06335 -1.23011 0
M  V30 21712 O 2017.75 -1.34275 -1.32297 0
M  V30 21713 C 2014.87 -2.6695 -2.08459 0
M  V30 21714 C 2013.92 -3.86423 -1.80497 0
M  V30 21715 S 2014.75 -5.26462 -0.979671 0
M  V30 21716 C 2015.91 -5.83321 -2.26908 0
M  V30 21717 H 2016.14 -2.95536 -0.32336 0
M  V30 21718 H 2013.67 -1.54321 -0.0493706 0
M  V30 21719 H 2015.63 -2.98398 -2.81903 0
M  V30 21720 H 2014.29 -1.85003 -2.53836 0
M  V30 21721 H 2013.49 -4.22134 -2.75352 0
M  V30 21722 H 2013.09 -3.55831 -1.15153 0
M  V30 21723 H 2015.38 -5.95863 -3.22419 0
M  V30 21724 H 2016.32 -6.80527 -1.95675 0
M  V30 21725 H 2016.73 -5.11694 -2.38388 0
M  V30 21726 N 2016.13 0.10854 -1.57226 0
M  V30 21727 C 2017.04 1.15125 -2.0441 0
M  V30 21728 C 2018.05 1.44693 -0.966436 0
M  V30 21729 O 2019.23 1.55601 -1.27868 0
M  V30 21730 C 2016.3 2.45528 -2.44779 0
M  V30 21731 C 2015.36 2.23263 -3.66677 0
M  V30 21732 C 2014.59 3.47448 -4.05112 0
M  V30 21733 O 2014.81 4.55164 -3.43776 0
M  V30 21734 O 2013.75 3.37831 -4.9815 0
M  V30 21735 H 2017.57 0.780533 -2.93498 0
M  V30 21736 H 2015.16 0.320091 -1.45931 0
M  V30 21737 H 2017.04 3.22339 -2.71432 0
M  V30 21738 H 2015.71 2.82052 -1.58834 0
M  V30 21739 H 2014.62 1.44276 -3.4516 0
M  V30 21740 H 2015.95 1.91638 -4.53361 0
M  V30 21741 N 2017.61 1.52975 0.379009 0
M  V30 21742 C 2018.56 1.74843 1.46335 0
M  V30 21743 C 2019.54 0.602675 1.49187 0
M  V30 21744 O 2020.73 0.860871 1.54655 0
M  V30 21745 C 2017.86 1.9297 2.83932 0
M  V30 21746 C 2016.95 3.13508 2.85611 0
M  V30 21747 N 2017.34 4.35673 2.5695 0
M  V30 21748 C 2015.64 3.13957 3.16776 0
M  V30 21749 C 2016.34 5.17337 2.65966 0
M  V30 21750 N 2015.31 4.53245 3.00116 0
M  V30 21751 H 2019.12 2.66916 1.23017 0
M  V30 21752 H 2016.63 1.51418 0.587064 0
M  V30 21753 H 2018.63 2.06761 3.62016 0
M  V30 21754 H 2017.29 1.02117 3.08224 0
M  V30 21755 H 2018.3 4.63635 2.30787 0
M  V30 21756 H 2014.97 2.32949 3.46469 0
M  V30 21757 H 2016.36 6.24747 2.47266 0
M  V30 21758 N 2019.08 -0.63804 1.44107 0
M  V30 21759 C 2020.31 -1.43004 1.50215 0
M  V30 21760 C 2020.73 -1.87678 0.125903 0
M  V30 21761 O 2020.09 -1.58316 -0.883508 0
M  V30 21762 C 2020.14 -2.63112 2.46585 0
M  V30 21763 O 2019.24 -3.62706 1.9626 0
M  V30 21764 H 2018.59 -0.428173 0.507508 0
M  V30 21765 H 2021.12 -0.779402 1.89173 0
M  V30 21766 H 2021.13 -3.10742 2.64393 0
M  V30 21767 H 2019.8 -2.29941 3.46554 0
M  V30 21768 H 2018.38 -3.21932 1.88186 0
M  V30 21769 N 2020.56 -1.3089 -0.877815 0
M  V30 21770 C 2021.84 -1.10773 -1.6121 0
M  V30 21771 C 2022.22 0.340404 -2.08337 0
M  V30 21772 O 2021.57 1.33316 -1.85577 0
M  V30 21773 C 2021.78 -2.11499 -2.77613 0
M  V30 21774 C 2023.13 -2.43601 -3.47769 0
M  V30 21775 O 2024.15 -2.09865 -2.87811 0
M  V30 21776 O 2023.01 -3.0134 -4.55913 0
M  V30 21777 H 2020.1 -0.425928 -0.708882 0
M  V30 21778 H 2022.65 -1.42341 -0.923964 0
M  V30 21779 H 2021.42 -3.08943 -2.40146 0
M  V30 21780 H 2021.04 -1.80791 -3.54119 0
M  V30 21781 N 2022.04 1.0911 -1.13723 0
M  V30 21782 C 2022.99 2.15834 -0.817576 0
M  V30 21783 C 2023.96 1.64613 0.221749 0
M  V30 21784 O 2025.14 1.90572 0.0932703 0
M  V30 21785 C 2022.28 3.43851 -0.293315 0
M  V30 21786 C 2021.4 4.08956 -1.39208 0
M  V30 21787 C 2020.53 5.24741 -0.825823 0
M  V30 21788 C 2019.57 5.81774 -1.90277 0
M  V30 21789 N 2018.71 6.88916 -1.35421 0
M  V30 21790 H 2023.55 2.42519 -1.73172 0
M  V30 21791 H 2021.08 1.19026 -0.864368 0
M  V30 21792 H 2023.04 4.1719 0.0288002 0
M  V30 21793 H 2021.67 3.17474 0.583951 0
M  V30 21794 H 2020.72 3.33449 -1.83073 0
M  V30 21795 H 2022.04 4.47372 -2.2059 0
M  V30 21796 H 2021.19 6.0499 -0.455184 0
M  V30 21797 H 2019.93 4.87696 0.0190362 0
M  V30 21798 H 2018.93 5.00185 -2.28244 0
M  V30 21799 H 2020.16 6.2088 -2.75109 0
M  V30 21800 H 2018.1 6.53844 -0.531412 0
M  V30 21801 H 2018.02 7.26118 -2.10448 0
M  V30 21802 H 2019.29 7.72913 -1.01125 0
M  V30 21803 N 2023.52 0.931232 1.27145 0
M  V30 21804 C 2024.77 0.572394 1.93825 0
M  V30 21805 C 2025.09 -0.88981 1.73515 0
M  V30 21806 O 2024.36 -1.63113 1.08494 0
M  V30 21807 H 2022.94 0.2087 0.717254 0
M  V30 21808 H 2025.6 1.18439 1.54784 0
M  V30 21809 H 2024.7 0.781679 3.02153 0
M  V30 21810 N 2025 -1.41343 0.697132 0
M  V30 21811 C 2026.41 -1.84219 0.303361 0
M  V30 21812 C 2026.76 -1.58328 -1.15874 0
M  V30 21813 O 2025.88 -1.05454 -1.88967 0
M  V30 21814 C 2026.48 -3.34407 0.543815 0
M  V30 21815 C 2025.04 -3.75847 0.203944 0
M  V30 21816 C 2024.19 -2.64733 0.825329 0
M  V30 21817 H 2027.14 -1.30872 0.897671 0
M  V30 21818 H 2027.16 -3.7999 -0.196975 0
M  V30 21819 H 2026.67 -3.5322 1.60802 0
M  V30 21820 H 2024.77 -3.62635 -0.855939 0
M  V30 21821 H 2024.88 -4.74531 0.660055 0
M  V30 21822 H 2023.25 -2.53422 0.254806 0
M  V30 21823 H 2024.03 -2.86363 1.89344 0
M  V30 21824 N 2026.48 -0.441993 -1.51275 0
M  V30 21825 C 2027.41 0.357557 -2.30746 0
M  V30 21826 C 2028.39 1.01683 -1.36362 0
M  V30 21827 O 2029.57 1.01958 -1.65282 0
M  V30 21828 C 2026.7 1.45642 -3.15287 0
M  V30 21829 C 2025.66 0.920377 -4.17987 0
M  V30 21830 C 2024.98 2.11534 -4.91078 0
M  V30 21831 C 2026.28 -0.0483941 -5.22278 0
M  V30 21832 H 2027.98 -0.30565 -2.97836 0
M  V30 21833 H 2025.52 -0.148438 -1.43233 0
M  V30 21834 H 2027.47 2.02301 -3.69665 0
M  V30 21835 H 2026.2 2.14798 -2.46027 0
M  V30 21836 H 2024.86 0.375962 -3.64667 0
M  V30 21837 H 2024.51 2.7932 -4.18317 0
M  V30 21838 H 2024.21 1.76303 -5.60527 0
M  V30 21839 H 2025.73 2.68738 -5.48281 0
M  V30 21840 H 2027.14 0.428053 -5.717 0
M  V30 21841 H 2025.54 -0.313504 -5.99281 0
M  V30 21842 H 2026.61 -0.983611 -4.74819 0
M  V30 21843 N 2027.95 1.56642 -0.173515 0
M  V30 21844 C 2029.36 1.83525 0.342837 0
M  V30 21845 C 2029.72 1.0934 1.62908 0
M  V30 21846 O 2028.84 0.347154 2.13597 0
M  V30 21847 C 2029.44 3.32914 0.628798 0
M  V30 21848 C 2027.99 3.60285 1.08958 0
M  V30 21849 C 2027.14 2.77011 0.126621 0
M  V30 21850 H 2030.09 1.53635 -0.397736 0
M  V30 21851 H 2030.11 3.50511 1.48061 0
M  V30 21852 H 2029.63 3.8688 -0.307526 0
M  V30 21853 H 2027.73 3.11732 2.04093 0
M  V30 21854 H 2027.84 4.68607 0.997222 0
M  V30 21855 H 2026.2 2.46928 0.624406 0
M  V30 21856 H 2026.99 3.33758 -0.803763 0
M  V30 21857 N 2029.43 -0.1002 1.57281 0
M  V30 21858 C 2030.36 -1.12278 2.04734 0
M  V30 21859 C 2031.34 -1.42079 0.935281 0
M  V30 21860 O 2032.53 -1.52197 1.20622 0
M  V30 21861 C 2029.66 -2.44402 2.46748 0
M  V30 21862 C 2028.61 -2.29021 3.61571 0
M  V30 21863 C 2027.94 -3.66276 3.89545 0
M  V30 21864 C 2029.24 -1.73501 4.9264 0
M  V30 21865 H 2030.93 -0.728019 2.90414 0
M  V30 21866 H 2028.48 -0.348753 1.39713 0
M  V30 21867 H 2030.43 -3.16206 2.78553 0
M  V30 21868 H 2029.15 -2.85804 1.58061 0
M  V30 21869 H 2027.81 -1.59664 3.30005 0
M  V30 21870 H 2027.46 -4.05197 2.98034 0
M  V30 21871 H 2027.16 -3.56833 4.66845 0
M  V30 21872 H 2028.69 -4.39555 4.2382 0
M  V30 21873 H 2030.1 -2.35141 5.22859 0
M  V30 21874 H 2028.5 -1.7483 5.74068 0
M  V30 21875 H 2029.57 -0.69403 4.79908 0
M  V30 21876 N 2030.91 -1.53174 -0.370891 0
M  V30 21877 C 2032.33 -1.42828 -0.712207 0
M  V30 21878 C 2032.53 -0.563111 -1.93472 0
M  V30 21879 O 2031.58 -0.0435062 -2.52463 0
M  V30 21880 C 2032.89 -2.85945 -0.930375 0
M  V30 21881 C 2034.44 -2.95542 -1.03072 0
M  V30 21882 C 2034.92 -4.39709 -1.28139 0
M  V30 21883 N 2036.41 -4.43115 -1.34921 0
M  V30 21884 C 2037.14 -5.51766 -1.56017 0
M  V30 21885 N 2036.64 -6.70473 -1.74464 0
M  V30 21886 N 2038.43 -5.39336 -1.58344 0
M  V30 21887 H 2030.58 -2.07934 0.433281 0
M  V30 21888 H 2032.85 -0.938799 0.131756 0
M  V30 21889 H 2032.55 -3.51546 -0.103966 0
M  V30 21890 H 2032.43 -3.29279 -1.83997 0
M  V30 21891 H 2034.81 -2.30098 -1.84768 0
M  V30 21892 H 2034.89 -2.5561 -0.0986256 0
M  V30 21893 H 2034.54 -5.05726 -0.469468 0
M  V30 21894 H 2034.47 -4.7721 -2.22662 0
M  V30 21895 H 2036.96 -3.57563 -1.223 0
M  V30 21896 H 2037.27 -7.49049 -1.90119 0
M  V30 21897 H 2035.62 -6.73469 -1.71653 0
M  V30 21898 H 2038.81 -4.45563 -1.43496 0
M  V30 21899 H 2038.98 -6.24078 -1.74443 0
M  V30 21900 N 2032.39 0.630389 -1.44443 0
M  V30 21901 C 2033.66 1.38877 -1.3774 0
M  V30 21902 C 2034.04 2.11068 -0.0364918 0
M  V30 21903 O 2033.39 2.06373 0.98094 0
M  V30 21904 C 2033.6 2.35458 -2.57606 0
M  V30 21905 C 2034.95 2.98766 -3.01702 0
M  V30 21906 O 2035.97 2.45783 -2.57816 0
M  V30 21907 O 2034.83 3.94883 -3.77796 0
M  V30 21908 H 2031.93 0.621587 -0.54549 0
M  V30 21909 H 2034.47 0.655382 -1.56534 0
M  V30 21910 H 2033.25 1.81218 -3.46808 0
M  V30 21911 H 2032.87 3.16213 -2.41029 0
M  V30 21912 N 2033.87 1.31354 0.870861 0
M  V30 21913 C 2035.14 1.11627 1.6062 0
M  V30 21914 C 2035.52 -0.329351 2.08515 0
M  V30 21915 O 2034.87 -1.3233 1.86282 0
M  V30 21916 C 2035.08 2.12968 2.76488 0
M  V30 21917 C 2036.43 2.45442 3.46473 0
M  V30 21918 O 2037.45 2.11388 2.86694 0
M  V30 21919 O 2036.31 3.03753 4.54309 0
M  V30 21920 H 2033.41 0.429682 0.706614 0
M  V30 21921 H 2035.95 1.42829 0.916402 0
M  V30 21922 H 2034.72 3.10212 2.38504 0
M  V30 21923 H 2034.35 1.82666 3.53156 0
M  V30 21924 N 2035.34 -1.08505 1.143 0
M  V30 21925 C 2036.29 -2.17492 0.824612 0
M  V30 21926 C 2037.29 -1.6825 -0.197073 0
M  V30 21927 O 2038.49 -1.79921 -0.0532722 0
M  V30 21928 H 2034.87 -0.709601 0.248938 0
M  V30 21929 H 2036.84 -2.41572 1.75173 0
M  V30 21930 C 2035.59 -3.46249 0.317355 0
M  V30 21931 H 2034.91 -3.84516 1.09488 0
M  V30 21932 H 2036.35 -4.23791 0.133114 0
M  V30 21933 C 2034.81 -3.22967 -0.958852 0
M  V30 21934 O 2035.34 -3.46468 -2.03281 0
M  V30 21935 N 2033.54 -2.76517 -0.893693 0
M  V30 21936 H 2033.09 -2.57593 -0.0195774 0
M  V30 21937 H 2033.05 -2.61318 -1.74815 0
M  V30 21938 N 2036.82 -0.937962 -1.26649 0
M  V30 21939 C 2038.07 -0.582665 -1.93519 0
M  V30 21940 C 2038.39 0.880595 -1.73984 0
M  V30 21941 O 2037.66 1.62535 -1.09358 0
M  V30 21942 H 2036.24 -0.212501 -0.716137 0
M  V30 21943 H 2038.9 -1.19259 -1.54154 0
M  V30 21944 H 2038 -0.797692 -3.01734 0
M  V30 21945 N 2038.3 1.40971 -0.704618 0
M  V30 21946 C 2039.55 2.00309 -0.236478 0
M  V30 21947 C 2039.86 1.56482 1.17358 0
M  V30 21948 O 2041.07 2.08442 1.73966 0
M  V30 21949 C 2039.52 3.57974 -0.371877 0
M  V30 21950 C 2039.13 4.10779 -1.78788 0
M  V30 21951 C 2040.88 4.24485 0.0360284 0
M  V30 21952 C 2038.78 5.60909 -1.87445 0
M  V30 21953 H 2037.71 0.749233 -0.0846557 0
M  V30 21954 H 2040.36 1.61342 -0.874125 0
M  V30 21955 H 2038.75 3.94587 0.334172 0
M  V30 21956 H 2039.92 3.85565 -2.52342 0
M  V30 21957 H 2038.23 3.56826 -2.14626 0
M  V30 21958 H 2040.83 5.34699 -0.00808813 0
M  V30 21959 H 2041.17 4.02149 1.07621 0
M  V30 21960 H 2041.71 3.92938 -0.620069 0
M  V30 21961 H 2038.45 5.88084 -2.89546 0
M  V30 21962 H 2037.97 5.88021 -1.18287 0
M  V30 21963 H 2039.65 6.25831 -1.6415 0
M  V30 21964 N 2039.78 0.45001 1.51039 0
M  V30 21965 C 2041.02 -0.112357 2.02489 0
M  V30 21966 C 2041.36 -1.41249 1.33276 0
M  V30 21967 O 2040.63 -1.89183 0.451679 0
M  V30 21968 C 2040.92 -0.318025 3.58693 0
M  V30 21969 C 2040.77 1.00164 4.38506 0
M  V30 21970 C 2042.09 -1.08213 4.26589 0
M  V30 21971 H 2039.21 -0.0393599 0.735948 0
M  V30 21972 H 2041.85 0.591485 1.80559 0
M  V30 21973 H 2040 -0.917553 3.77509 0
M  V30 21974 H 2041.67 1.63613 4.3131 0
M  V30 21975 H 2039.91 1.60329 4.03085 0
M  V30 21976 H 2040.58 0.811628 5.46001 0
M  V30 21977 H 2043.06 -0.574174 4.12119 0
M  V30 21978 H 2041.94 -1.19481 5.35738 0
M  V30 21979 H 2042.2 -2.11345 3.88311 0
M  V30 21980 N 2041.26 -1.56548 0.18182 0
M  V30 21981 C 2042.19 -2.21471 -0.739774 0
M  V30 21982 C 2043.17 -1.17361 -1.23128 0
M  V30 21983 O 2044.35 -1.45825 -1.28253 0
M  V30 21984 C 2041.48 -2.86369 -1.96494 0
M  V30 21985 C 2040.44 -3.96609 -1.60888 0
M  V30 21986 C 2039.76 -4.48607 -2.90957 0
M  V30 21987 C 2041.06 -5.15681 -0.828895 0
M  V30 21988 H 2042.76 -2.98741 -0.19858 0
M  V30 21989 H 2040.3 -1.43692 -0.0940725 0
M  V30 21990 H 2042.26 -3.30466 -2.61477 0
M  V30 21991 H 2040.98 -2.06485 -2.53045 0
M  V30 21992 H 2039.64 -3.53184 -0.982694 0
M  V30 21993 H 2039.29 -3.65501 -3.45569 0
M  V30 21994 H 2038.99 -5.22984 -2.67882 0
M  V30 21995 H 2040.51 -4.95397 -3.56951 0
M  V30 21996 H 2041.92 -5.56405 -1.38153 0
M  V30 21997 H 2040.32 -5.96041 -0.696789 0
M  V30 21998 H 2041.39 -4.84592 0.172711 0
M  V30 21999 N 2042.73 0.0918577 -1.57332 0
M  V30 22000 C 2043.66 1.11191 -2.05326 0
M  V30 22001 C 2044.65 1.41581 -0.942802 0
M  V30 22002 O 2045.83 1.51555 -1.21428 0
M  V30 22003 C 2042.96 2.4309 -2.48041 0
M  V30 22004 C 2041.91 2.271 -3.6278 0
M  V30 22005 C 2041.24 3.64205 -3.91482 0
M  V30 22006 C 2042.54 1.70886 -4.93554 0
M  V30 22007 H 2044.23 0.712608 -2.90796 0
M  V30 22008 H 2041.78 0.341338 -1.39896 0
M  V30 22009 H 2043.73 3.14724 -2.80226 0
M  V30 22010 H 2042.46 2.84962 -1.59575 0
M  V30 22011 H 2041.12 1.57911 -3.30847 0
M  V30 22012 H 2040.76 4.03611 -3.00179 0
M  V30 22013 H 2040.46 3.54352 -4.68731 0
M  V30 22014 H 2041.99 4.37302 -4.26145 0
M  V30 22015 H 2043.4 2.32364 -5.24099 0
M  V30 22016 H 2041.8 1.71783 -5.74987 0
M  V30 22017 H 2042.87 0.668569 -4.80269 0
M  V30 22018 N 2044.21 1.53368 0.362763 0
M  V30 22019 C 2045.46 1.69352 1.10292 0
M  V30 22020 C 2045.78 0.449366 1.89752 0
M  V30 22021 O 2045.05 -0.536608 1.88407 0
M  V30 22022 H 2043.63 0.62432 0.410162 0
M  V30 22023 H 2046.29 1.90567 0.408694 0
M  V30 22024 H 2045.39 2.55586 1.79115 0
M  V30 22025 N 2045.69 -0.62272 1.44776 0
M  V30 22026 C 2046.6 -1.76282 1.54796 0
M  V30 22027 C 2047.62 -1.68522 0.433164 0
M  V30 22028 O 2048.79 -1.89149 0.691713 0
M  V30 22029 C 2045.86 -3.12697 1.49737 0
M  V30 22030 C 2044.92 -3.32026 2.72135 0
M  V30 22031 C 2044.15 -4.61933 2.67308 0
M  V30 22032 O 2044.37 -5.43282 1.73783 0
M  V30 22033 O 2043.31 -4.83646 3.58288 0
M  V30 22034 H 2047.13 -1.70781 2.51133 0
M  V30 22035 H 2044.72 -0.784974 1.27116 0
M  V30 22036 H 2046.6 -3.94001 1.4947 0
M  V30 22037 H 2045.28 -3.18723 0.565471 0
M  V30 22038 H 2044.18 -2.50368 2.77969 0
M  V30 22039 H 2045.52 -3.30868 3.644 0
M  V30 22040 N 2047.17 -1.31814 -0.863883 0
M  V30 22041 C 2048.58 -1.10603 -1.15061 0
M  V30 22042 C 2048.78 0.119526 -2.01145 0
M  V30 22043 O 2047.84 0.807099 -2.39253 0
M  V30 22044 C 2049.15 -2.38075 -1.83686 0
M  V30 22045 C 2050.7 -2.43744 -1.96361 0
M  V30 22046 C 2051.18 -3.71113 -2.68401 0
M  V30 22047 N 2052.67 -3.72042 -2.75933 0
M  V30 22048 C 2053.4 -4.67294 -3.32301 0
M  V30 22049 N 2052.9 -5.72905 -3.89553 0
M  V30 22050 N 2054.69 -4.54804 -3.30317 0
M  V30 22051 H 2046.84 -2.10406 -0.290393 0
M  V30 22052 H 2049.11 -0.928505 -0.191264 0
M  V30 22053 H 2048.81 -3.27625 -1.27885 0
M  V30 22054 H 2048.69 -2.48336 -2.83917 0
M  V30 22055 H 2051.07 -1.54659 -2.51326 0
M  V30 22056 H 2051.15 -2.37443 -0.951544 0
M  V30 22057 H 2050.8 -4.60567 -2.14103 0
M  V30 22058 H 2050.73 -3.74682 -3.70028 0
M  V30 22059 H 2053.22 -2.95701 -2.35307 0
M  V30 22060 H 2053.53 -6.41656 -4.30694 0
M  V30 22061 H 2051.88 -5.76671 -3.87911 0
M  V30 22062 H 2055.07 -3.71468 -2.84832 0
M  V30 22063 H 2055.24 -5.29213 -3.73948 0
M  V30 22064 N 2048.65 1.07897 -1.14873 0
M  V30 22065 C 2049.61 2.13129 -0.843128 0
M  V30 22066 C 2050.61 1.60055 0.154606 0
M  V30 22067 O 2051.8 1.74041 -0.0743665 0
M  V30 22068 C 2048.93 3.39924 -0.257826 0
M  V30 22069 H 2050.12 2.41671 -1.77581 0
M  V30 22070 H 2047.68 1.23696 -0.955463 0
M  V30 22071 H 2048.41 3.17019 0.683318 0
M  V30 22072 H 2048.2 3.79745 -0.97654 0
M  V30 22073 H 2049.69 4.17555 -0.0613986 0
M  V30 22074 N 2050.12 0.944665 1.2615 0
M  V30 22075 C 2051.09 0.461547 2.24505 0
M  V30 22076 C 2052.09 -0.429277 1.54964 0
M  V30 22077 O 2053.28 -0.227965 1.72702 0
M  V30 22078 C 2050.41 -0.334363 3.39256 0
M  V30 22079 H 2051.6 1.33075 2.68758 0
M  V30 22080 H 2049.16 0.726968 1.38365 0
M  V30 22081 H 2049.89 -1.22167 3.00409 0
M  V30 22082 H 2049.68 0.304588 3.90915 0
M  V30 22083 H 2051.17 -0.662181 4.12317 0
M  V30 22084 N 2051.6 -1.40596 0.712085 0
M  V30 22085 C 2052.55 -2.30729 0.0572693 0
M  V30 22086 C 2053.52 -1.48 -0.753997 0
M  V30 22087 O 2054.7 -1.76748 -0.71866 0
M  V30 22088 C 2051.84 -3.34184 -0.861092 0
M  V30 22089 C 2050.96 -4.31982 -0.0396747 0
M  V30 22090 C 2050.09 -5.22505 -0.957193 0
M  V30 22091 C 2049.13 -6.11963 -0.129658 0
M  V30 22092 N 2048.27 -6.94915 -1.00186 0
M  V30 22093 H 2053.11 -2.86161 0.831601 0
M  V30 22094 H 2050.65 -1.40923 0.421786 0
M  V30 22095 H 2052.6 -3.92732 -1.40775 0
M  V30 22096 H 2051.23 -2.80263 -1.60164 0
M  V30 22097 H 2050.29 -3.75245 0.624125 0
M  V30 22098 H 2051.6 -4.95164 0.601165 0
M  V30 22099 H 2050.75 -5.85967 -1.57251 0
M  V30 22100 H 2049.49 -4.59589 -1.63186 0
M  V30 22101 H 2048.5 -5.47534 0.49862 0
M  V30 22102 H 2049.72 -6.76938 0.541455 0
M  V30 22103 H 2047.67 -6.34591 -1.66225 0
M  V30 22104 H 2047.58 -7.54849 -0.41698 0
M  V30 22105 H 2048.85 -7.6283 -1.60347 0
M  V30 22106 N 2053.08 -0.458013 -1.50798 0
M  V30 22107 C 2054.32 0.100377 -2.04153 0
M  V30 22108 C 2054.68 1.3815 -1.33336 0
M  V30 22109 O 2055.89 2.02144 -1.77176 0
M  V30 22110 C 2054.16 0.293195 -3.56195 0
M  V30 22111 S 2055.72 0.812021 -4.31221 0
M  V30 22112 H 2052.53 0.0221283 -0.710656 0
M  V30 22113 H 2055.14 -0.622159 -1.85336 0
M  V30 22114 H 2053.84 -0.64522 -4.05296 0
M  V30 22115 H 2053.37 1.04222 -3.79343 0
M  V30 22116 H 2055.39 2.08711 -4.50171 0
M  V30 22117 N 2054.56 1.56449 -0.190119 0
M  V30 22118 C 2055.98 1.58736 0.165798 0
M  V30 22119 C 2056.18 1.20613 1.61414 0
M  V30 22120 O 2055.23 0.926541 2.34886 0
M  V30 22121 C 2056.54 3.0041 -0.132051 0
M  V30 22122 C 2058.09 3.12918 -0.0717601 0
M  V30 22123 C 2058.57 4.56715 -0.342852 0
M  V30 22124 N 2060.06 4.62283 -0.291293 0
M  V30 22125 C 2060.79 5.71429 -0.474968 0
M  V30 22126 N 2060.29 6.89062 -0.718722 0
M  V30 22127 N 2062.08 5.60606 -0.409568 0
M  V30 22128 H 2054.23 1.79512 -1.1353 0
M  V30 22129 H 2056.5 0.832888 -0.452771 0
M  V30 22130 H 2056.2 3.32845 -1.13609 0
M  V30 22131 H 2056.08 3.72904 0.567676 0
M  V30 22132 H 2058.46 2.80298 0.922882 0
M  V30 22133 H 2058.54 2.4282 -0.804488 0
M  V30 22134 H 2058.19 4.90047 -1.33479 0
M  V30 22135 H 2058.12 5.24996 0.410707 0
M  V30 22136 H 2060.61 3.77742 -0.109306 0
M  V30 22137 H 2060.92 7.68135 -0.847818 0
M  V30 22138 H 2059.27 6.90881 -0.755557 0
M  V30 22139 H 2062.46 4.67585 -0.219592 0
M  V30 22140 H 2062.63 6.45609 -0.556132 0
M  V30 22141 N 2056.04 -0.0835127 1.57379 0
M  V30 22142 C 2057 -1.08477 2.01905 0
M  V30 22143 C 2058 -1.32278 0.91428 0
M  V30 22144 O 2059.19 -1.28196 1.17947 0
M  V30 22145 C 2056.32 -2.43121 2.38967 0
M  V30 22146 H 2057.52 -0.701256 2.91586 0
M  V30 22147 H 2055.07 -0.328903 1.528 0
M  V30 22148 H 2055.8 -2.86326 1.52275 0
M  V30 22149 H 2055.59 -2.2719 3.19573 0
M  V30 22150 H 2057.08 -3.15113 2.74032 0
M  V30 22151 N 2057.52 -1.53558 -0.354624 0
M  V30 22152 C 2058.75 -1.73941 -1.11481 0
M  V30 22153 C 2059.15 -0.473288 -1.83185 0
M  V30 22154 O 2058.5 0.564174 -1.74822 0
M  V30 22155 C 2058.56 -2.85765 -2.18125 0
M  V30 22156 C 2058.22 -4.25749 -1.66093 0
M  V30 22157 C 2059.22 -5.07712 -1.11914 0
M  V30 22158 C 2056.9 -4.72198 -1.71274 0
M  V30 22159 C 2058.9 -6.34218 -0.636077 0
M  V30 22160 C 2056.59 -5.9868 -1.2258 0
M  V30 22161 C 2057.58 -6.79522 -0.688378 0
M  V30 22162 O 2057.27 -8.03629 -0.208659 0
M  V30 22163 H 2057 -0.584973 -0.338796 0
M  V30 22164 H 2059.56 -2.01143 -0.416033 0
M  V30 22165 H 2057.79 -2.54063 -2.91528 0
M  V30 22166 H 2059.48 -2.94222 -2.79621 0
M  V30 22167 H 2060.24 -4.72995 -1.07241 0
M  V30 22168 H 2056.12 -4.09338 -2.12045 0
M  V30 22169 H 2059.67 -6.97266 -0.215934 0
M  V30 22170 H 2055.56 -6.32893 -1.26949 0
M  V30 22171 H 2056.33 -8.17847 -0.326976 0
M  V30 22172 N 2058.99 0.615033 -1.45104 0
M  V30 22173 C 2059.96 1.7081 -1.52828 0
M  V30 22174 C 2060.96 1.55523 -0.408557 0
M  V30 22175 O 2062.15 1.60726 -0.671773 0
M  V30 22176 C 2059.28 3.10023 -1.41768 0
M  V30 22177 H 2060.47 1.6533 -2.50212 0
M  V30 22178 H 2058.02 0.830115 -1.32434 0
M  V30 22179 H 2058.76 3.21086 -0.455409 0
M  V30 22180 H 2058.54 3.22527 -2.22977 0
M  V30 22181 H 2060.03 3.89657 -1.5019 0
M  V30 22182 N 2060.47 1.3227 0.85688 0
M  V30 22183 C 2061.42 1.2102 1.96527 0
M  V30 22184 C 2062.39 0.0928848 1.6584 0
M  V30 22185 O 2063.57 0.268043 1.88908 0
M  V30 22186 C 2060.71 0.936943 3.32138 0
M  V30 22187 C 2059.83 2.13883 3.75337 0
M  V30 22188 C 2058.96 1.80125 4.99728 0
M  V30 22189 C 2058 2.96647 5.35413 0
M  V30 22190 N 2057.14 2.62997 6.50982 0
M  V30 22191 H 2061.98 2.15827 2.05481 0
M  V30 22192 H 2059.51 1.07346 1.00575 0
M  V30 22193 H 2061.47 0.759018 4.10237 0
M  V30 22194 H 2060.1 0.025663 3.2279 0
M  V30 22195 H 2059.15 2.4271 2.92909 0
M  V30 22196 H 2060.47 3.01052 3.97705 0
M  V30 22197 H 2059.62 1.58871 5.8553 0
M  V30 22198 H 2058.36 0.901662 4.79293 0
M  V30 22199 H 2057.36 3.18535 4.48124 0
M  V30 22200 H 2058.59 3.87335 5.57807 0
M  V30 22201 H 2056.54 1.75576 6.32067 0
M  V30 22202 H 2056.45 3.43696 6.73357 0
M  V30 22203 H 2057.72 2.45168 7.39941 0
M  V30 22204 N 2061.95 -1.07287 1.15444 0
M  V30 22205 C 2062.91 -2.12679 0.854419 0
M  V30 22206 C 2063.91 -1.60135 -0.146116 0
M  V30 22207 O 2065.1 -1.73999 0.0835953 0
M  V30 22208 C 2062.23 -3.39782 0.275849 0
M  V30 22209 H 2063.43 -2.40726 1.7886 0
M  V30 22210 H 2060.98 -1.23187 0.96201 0
M  V30 22211 H 2061.72 -3.17377 -0.666496 0
M  V30 22212 H 2061.5 -3.79222 0.996665 0
M  V30 22213 H 2062.99 -4.17516 0.0835417 0
M  V30 22214 N 2063.43 -0.951342 -1.25647 0
M  V30 22215 C 2064.36 -0.486897 -2.28367 0
M  V30 22216 C 2065.34 0.465072 -1.63619 0
M  V30 22217 O 2066.52 0.364737 -1.90744 0
M  V30 22218 C 2063.65 0.239229 -3.46475 0
M  V30 22219 C 2062.61 -0.627163 -4.2338 0
M  V30 22220 C 2061.93 0.229514 -5.34207 0
M  V30 22221 C 2063.23 -1.90362 -4.86374 0
M  V30 22222 H 2064.93 -1.34542 -2.67467 0
M  V30 22223 H 2062.47 -0.648383 -1.28577 0
M  V30 22224 H 2064.43 0.575251 -4.17455 0
M  V30 22225 H 2063.15 1.13197 -3.06356 0
M  V30 22226 H 2061.81 -0.946222 -3.54178 0
M  V30 22227 H 2061.46 1.12192 -4.90328 0
M  V30 22228 H 2061.16 -0.346852 -5.86575 0
M  V30 22229 H 2062.68 0.560578 -6.08021 0
M  V30 22230 H 2064.1 -1.63422 -5.49515 0
M  V30 22231 H 2062.49 -2.42538 -5.48904 0
M  V30 22232 H 2063.56 -2.60876 -4.08744 0
M  V30 22233 N 2064.91 1.40216 -0.719531 0
M  V30 22234 C 2065.86 2.27954 -0.0458686 0
M  V30 22235 C 2066.84 1.43462 0.728523 0
M  V30 22236 O 2068.03 1.66518 0.600075 0
M  V30 22237 C 2065.16 3.32035 0.872205 0
M  V30 22238 C 2064.25 4.23998 0.0927891 0
M  V30 22239 N 2064.64 4.97251 -0.926022 0
M  V30 22240 C 2062.94 4.44816 0.324761 0
M  V30 22241 C 2063.64 5.64733 -1.39469 0
M  V30 22242 N 2062.61 5.38862 -0.716112 0
M  V30 22243 H 2066.41 2.82035 -0.826658 0
M  V30 22244 H 2063.93 1.52714 -0.552469 0
M  V30 22245 H 2065.93 3.93741 1.37017 0
M  V30 22246 H 2064.59 2.79514 1.65233 0
M  V30 22247 H 2065.6 5.01137 -1.30698 0
M  V30 22248 H 2062.27 4.03265 1.0809 0
M  V30 22249 H 2063.66 6.3341 -2.24145 0
M  V30 22250 N 2066.38 0.466004 1.50553 0
M  V30 22251 C 2067.61 -0.0884484 2.06411 0
M  V30 22252 C 2068.02 -1.34509 1.33057 0
M  V30 22253 O 2067.36 -1.79472 0.391869 0
M  V30 22254 C 2067.43 -0.44758 3.56703 0
M  V30 22255 C 2067.09 0.70631 4.51509 0
M  V30 22256 C 2068.09 1.58687 4.9509 0
M  V30 22257 C 2065.77 0.895191 4.94259 0
M  V30 22258 C 2067.77 2.64076 5.80123 0
M  V30 22259 C 2065.45 1.95231 5.79075 0
M  V30 22260 C 2066.45 2.82346 6.21908 0
M  V30 22261 O 2066.14 3.86239 7.05035 0
M  V30 22262 H 2065.87 0.00147065 0.675998 0
M  V30 22263 H 2068.43 0.652308 1.94767 0
M  V30 22264 H 2066.66 -1.24145 3.66231 0
M  V30 22265 H 2068.34 -0.93652 3.94948 0
M  V30 22266 H 2069.11 1.45261 4.62736 0
M  V30 22267 H 2064.99 0.226608 4.60443 0
M  V30 22268 H 2068.53 3.32103 6.13476 0
M  V30 22269 H 2064.43 2.08666 6.10843 0
M  V30 22270 H 2065.2 3.83166 7.23275 0
M  V30 22271 N 2067.86 -1.56346 0.198413 0
M  V30 22272 C 2068.81 -2.19245 -0.721128 0
M  V30 22273 C 2069.78 -1.14072 -1.20735 0
M  V30 22274 O 2070.96 -1.42336 -1.27063 0
M  V30 22275 C 2068.1 -2.85839 -1.93365 0
M  V30 22276 C 2067.22 -4.05546 -1.48849 0
M  V30 22277 C 2066.35 -4.59988 -2.65678 0
M  V30 22278 C 2065.39 -5.72046 -2.17784 0
M  V30 22279 N 2064.53 -6.20879 -3.27802 0
M  V30 22280 H 2069.37 -2.97468 -0.178003 0
M  V30 22281 H 2066.9 -1.46903 -0.076117 0
M  V30 22282 H 2068.86 -3.2262 -2.64522 0
M  V30 22283 H 2067.49 -2.10174 -2.45004 0
M  V30 22284 H 2066.54 -3.74405 -0.672674 0
M  V30 22285 H 2067.86 -4.86584 -1.09713 0
M  V30 22286 H 2067.01 -4.99092 -3.44952 0
M  V30 22287 H 2065.75 -3.78064 -3.08089 0
M  V30 22288 H 2064.75 -5.32467 -1.36964 0
M  V30 22289 H 2065.98 -6.5579 -1.76399 0
M  V30 22290 H 2063.93 -5.41876 -3.69738 0
M  V30 22291 H 2063.84 -6.96977 -2.92845 0
M  V30 22292 H 2065.11 -6.64637 -4.07281 0
M  V30 22293 N 2069.34 0.0751653 -1.57421 0
M  V30 22294 C 2070.25 1.10763 -2.06806 0
M  V30 22295 C 2071.27 1.4261 -0.99691 0
M  V30 22296 O 2072.44 1.52854 -1.31139 0
M  V30 22297 C 2069.51 2.40281 -2.49932 0
M  V30 22298 C 2068.57 2.15435 -3.7133 0
M  V30 22299 C 2067.8 3.38777 -4.1239 0
M  V30 22300 O 2068.02 4.4777 -3.53353 0
M  V30 22301 O 2066.96 3.27189 -5.05204 0
M  V30 22302 H 2070.78 0.718102 -2.95088 0
M  V30 22303 H 2068.37 0.289065 -1.46577 0
M  V30 22304 H 2070.25 3.16509 -2.78208 0
M  V30 22305 H 2068.93 2.7862 -1.64781 0
M  V30 22306 H 2067.83 1.36922 -3.48142 0
M  V30 22307 H 2069.17 1.81978 -4.57324 0
M  V30 22308 N 2070.82 1.53744 0.346476 0
M  V30 22309 C 2071.75 1.84512 1.43099 0
M  V30 22310 C 2072.73 0.700026 1.55028 0
M  V30 22311 O 2073.91 0.951666 1.69284 0
M  V30 22312 C 2071.04 2.0521 2.80189 0
M  V30 22313 C 2070 3.21022 2.8307 0
M  V30 22314 C 2069.32 3.27048 4.23018 0
M  V30 22315 C 2070.62 4.59196 2.4887 0
M  V30 22316 H 2072.32 2.75338 1.17599 0
M  V30 22317 H 2069.86 1.32483 0.564283 0
M  V30 22318 H 2071.82 2.25318 3.56103 0
M  V30 22319 H 2070.54 1.11113 3.07118 0
M  V30 22320 H 2069.2 3.00765 2.09609 0
M  V30 22321 H 2068.85 2.30551 4.47052 0
M  V30 22322 H 2068.55 4.0487 4.25857 0
M  V30 22323 H 2070.07 3.49363 5.00777 0
M  V30 22324 H 2071.49 4.79338 3.14496 0
M  V30 22325 H 2069.88 5.39401 2.62996 0
M  V30 22326 H 2070.95 4.63005 1.44064 0
M  V30 22327 N 2072.3 -0.607329 1.45428 0
M  V30 22328 C 2073.21 -1.7463 1.56657 0
M  V30 22329 C 2074.22 -1.68053 0.451014 0
M  V30 22330 O 2075.4 -1.88405 0.711736 0
M  V30 22331 C 2072.46 -3.11092 1.53045 0
M  V30 22332 C 2071.52 -3.29121 2.75641 0
M  V30 22333 C 2070.76 -4.59072 2.72193 0
M  V30 22334 O 2070.98 -5.41408 1.79536 0
M  V30 22335 O 2069.91 -4.79819 3.63397 0
M  V30 22336 H 2073.74 -1.68108 2.5293 0
M  V30 22337 H 2071.33 -0.771447 1.27942 0
M  V30 22338 H 2073.21 -3.92394 1.5364 0
M  V30 22339 H 2071.88 -3.18105 0.599244 0
M  V30 22340 H 2070.79 -2.47406 2.80608 0
M  V30 22341 H 2072.12 -3.26984 3.67889 0
M  V30 22342 N 2073.77 -1.32722 -0.849853 0
M  V30 22343 C 2075.02 -1.23556 -1.60437 0
M  V30 22344 C 2075.35 0.201425 -1.93454 0
M  V30 22345 O 2074.6 1.15572 -1.57929 0
M  V30 22346 C 2074.9 -2.04524 -2.93095 0
M  V30 22347 C 2074.57 -3.53833 -2.79487 0
M  V30 22348 C 2073.23 -3.94541 -2.75483 0
M  V30 22349 C 2075.58 -4.48759 -2.65076 0
M  V30 22350 C 2072.91 -5.28409 -2.54953 0
M  V30 22351 C 2075.26 -5.82776 -2.4608 0
M  V30 22352 C 2073.93 -6.2268 -2.40471 0
M  V30 22353 H 2073.2 -0.452123 -0.587082 0
M  V30 22354 H 2075.84 -1.64198 -0.985462 0
M  V30 22355 H 2074.15 -1.56625 -3.59132 0
M  V30 22356 H 2075.85 -1.94797 -3.50507 0
M  V30 22357 H 2072.44 -3.21504 -2.83431 0
M  V30 22358 H 2076.62 -4.18225 -2.6721 0
M  V30 22359 H 2071.88 -5.58376 -2.4905 0
M  V30 22360 H 2076.05 -6.55942 -2.33909 0
M  V30 22361 H 2073.68 -7.26349 -2.24322 0
M  V30 22362 N 2075.25 1.06673 -1.16011 0
M  V30 22363 C 2076.18 2.13994 -0.820931 0
M  V30 22364 C 2077.2 1.61909 0.170124 0
M  V30 22365 O 2078.39 1.78418 -0.0540947 0
M  V30 22366 C 2075.49 3.38304 -0.200883 0
M  V30 22367 C 2074.66 4.19718 -1.23108 0
M  V30 22368 C 2073.72 5.22396 -0.631544 0
M  V30 22369 O 2072.74 5.54171 -1.29936 0
M  V30 22370 N 2073.95 5.7756 0.583519 0
M  V30 22371 H 2076.71 2.43691 -1.74456 0
M  V30 22372 H 2074.27 1.2264 -1.05693 0
M  V30 22373 H 2076.26 4.04138 0.213139 0
M  V30 22374 H 2074.83 3.06263 0.626218 0
M  V30 22375 H 2074.05 3.49597 -1.82142 0
M  V30 22376 H 2075.34 4.7092 -1.92644 0
M  V30 22377 H 2074.74 5.54005 1.14432 0
M  V30 22378 H 2073.3 6.44989 0.939804 0
M  V30 22379 N 2076.73 0.957992 1.25141 0
M  V30 22380 C 2077.68 0.479695 2.2576 0
M  V30 22381 C 2078.65 -0.469606 1.59323 0
M  V30 22382 O 2079.83 -0.382116 1.86935 0
M  V30 22383 C 2076.97 -0.233227 3.44311 0
M  V30 22384 C 2076.09 0.753705 4.25374 0
M  V30 22385 C 2075.22 0.0178808 5.31197 0
M  V30 22386 C 2074.26 0.995522 6.0395 0
M  V30 22387 N 2073.4 0.290349 7.01499 0
M  V30 22388 H 2078.24 1.3426 2.66042 0
M  V30 22389 H 2075.77 0.673224 1.3079 0
M  V30 22390 H 2077.73 -0.663168 4.11896 0
M  V30 22391 H 2076.36 -1.06015 3.04894 0
M  V30 22392 H 2075.41 1.30212 3.5742 0
M  V30 22393 H 2076.73 1.4996 4.75724 0
M  V30 22394 H 2075.88 -0.470532 6.04873 0
M  V30 22395 H 2074.62 -0.760784 4.8173 0
M  V30 22396 H 2073.62 1.4949 5.29087 0
M  V30 22397 H 2074.85 1.77447 6.55507 0
M  V30 22398 H 2072.79 -0.469516 6.54318 0
M  V30 22399 H 2072.71 0.975282 7.49683 0
M  V30 22400 H 2073.98 -0.176416 7.793 0
M  V30 22401 N 2078.21 -1.39832 0.726957 0
M  V30 22402 C 2079.46 -2.00277 0.27085 0
M  V30 22403 C 2079.78 -1.57958 -1.14343 0
M  V30 22404 O 2079.05 -0.824155 -1.7772 0
M  V30 22405 H 2077.63 -0.740656 0.0971496 0
M  V30 22406 H 2080.29 -1.71001 0.935123 0
M  V30 22407 H 2079.39 -3.10528 0.312892 0
M  V30 22408 N 2079.69 -0.473982 -1.50304 0
M  V30 22409 C 2081.1 -0.0195635 -1.8669 0
M  V30 22410 C 2081.45 1.38613 -1.38856 0
M  V30 22411 O 2080.57 2.02811 -0.754772 0
M  V30 22412 C 2081.17 -0.0287258 -3.38788 0
M  V30 22413 C 2079.73 0.370234 -3.74575 0
M  V30 22414 C 2078.87 -0.412963 -2.74208 0
M  V30 22415 H 2081.83 -0.688116 -1.43006 0
M  V30 22416 H 2081.85 0.772789 -3.7257 0
M  V30 22417 H 2081.36 -1.05193 -3.73572 0
M  V30 22418 H 2079.46 1.39768 -3.45392 0
M  V30 22419 H 2079.57 0.0695687 -4.79049 0
M  V30 22420 H 2077.94 0.13371 -2.54349 0
M  V30 22421 H 2078.72 -1.43573 -3.11836 0
M  V30 22422 N 2081.16 1.56239 -0.206702 0
M  V30 22423 C 2082.39 2.02291 0.434267 0
M  V30 22424 C 2082.81 1.08672 1.54388 0
M  V30 22425 O 2082.16 0.0936387 1.8226 0
M  V30 22426 C 2082.22 3.47969 0.97978 0
M  V30 22427 O 2081.94 4.38016 -0.0855779 0
M  V30 22428 C 2083.44 4.09596 1.69548 0
M  V30 22429 H 2080.66 0.662272 0.107873 0
M  V30 22430 H 2083.2 2.02 -0.318809 0
M  V30 22431 H 2081.36 3.48923 1.68319 0
M  V30 22432 H 2081.77 5.2351 0.32218 0
M  V30 22433 H 2083.24 5.13343 2.02935 0
M  V30 22434 H 2083.72 3.53727 2.60334 0
M  V30 22435 H 2084.33 4.12448 1.03764 0
M  V30 22436 N 2082.64 -0.0668159 1.57458 0
M  V30 22437 C 2084.05 -0.618057 1.76173 0
M  V30 22438 C 2084.4 -1.77647 0.83283 0
M  V30 22439 O 2083.53 -2.16392 0.0181509 0
M  V30 22440 C 2084.12 -1.12796 3.19472 0
M  V30 22441 C 2082.68 -1.62503 3.39514 0
M  V30 22442 C 2081.83 -0.546584 2.7186 0
M  V30 22443 H 2084.78 0.15937 1.57898 0
M  V30 22444 H 2084.8 -1.99663 3.23906 0
M  V30 22445 H 2084.31 -0.284643 3.87055 0
M  V30 22446 H 2082.42 -2.49144 2.77053 0
M  V30 22447 H 2082.53 -1.69854 4.4798 0
M  V30 22448 H 2080.89 -0.992807 2.34554 0
M  V30 22449 H 2081.68 0.286635 3.42101 0
M  V30 22450 N 2084.12 -1.53926 -0.338317 0
M  V30 22451 C 2085.08 -1.81578 -1.39865 0
M  V30 22452 C 2086.08 -0.687011 -1.45385 0
M  V30 22453 O 2087.27 -0.955305 -1.45669 0
M  V30 22454 C 2084.41 -1.96252 -2.78744 0
M  V30 22455 H 2085.6 -2.76302 -1.16608 0
M  V30 22456 H 2083.15 -1.45418 -0.572996 0
M  V30 22457 H 2083.89 -1.03688 -3.07277 0
M  V30 22458 H 2083.67 -2.78376 -2.76133 0
M  V30 22459 H 2085.16 -2.19144 -3.5548 0
M  V30 22460 N 2085.6 0.599608 -1.45748 0
M  V30 22461 C 2086.85 1.35451 -1.49452 0
M  V30 22462 C 2087.16 1.95072 -0.143637 0
M  V30 22463 O 2088.37 2.71437 -0.0583691 0
M  V30 22464 C 2086.82 2.454 -2.63262 0
M  V30 22465 C 2086.43 1.92156 -4.04698 0
M  V30 22466 C 2088.18 3.22339 -2.7622 0
M  V30 22467 C 2086.08 2.99633 -5.09876 0
M  V30 22468 H 2085.01 0.509134 -0.556146 0
M  V30 22469 H 2087.66 0.641777 -1.71911 0
M  V30 22470 H 2086.05 3.19395 -2.34101 0
M  V30 22471 H 2087.22 1.24817 -4.43574 0
M  V30 22472 H 2085.53 1.27937 -3.96259 0
M  V30 22473 H 2088.13 4.02519 -3.5197 0
M  V30 22474 H 2088.47 3.73854 -1.83135 0
M  V30 22475 H 2089.01 2.55446 -3.04946 0
M  V30 22476 H 2085.75 2.53026 -6.04697 0
M  V30 22477 H 2085.27 3.65514 -4.75562 0
M  V30 22478 H 2086.95 3.63878 -5.34978 0
M  V30 22479 N 2087.08 1.33171 0.842803 0
M  V30 22480 C 2088.01 1.2572 1.96766 0
M  V30 22481 C 2088.99 0.138574 1.69535 0
M  V30 22482 O 2090.17 0.327704 1.91415 0
M  V30 22483 C 2087.3 0.991637 3.32842 0
M  V30 22484 C 2086.26 2.07278 3.74459 0
M  V30 22485 C 2085.58 1.65942 5.08299 0
M  V30 22486 C 2086.88 3.48911 3.88662 0
M  V30 22487 H 2088.58 2.19834 2.03257 0
M  V30 22488 H 2086.12 1.05829 0.976533 0
M  V30 22489 H 2088.08 0.926021 4.111 0
M  V30 22490 H 2086.8 0.0148823 3.26597 0
M  V30 22491 H 2085.46 2.12875 2.98462 0
M  V30 22492 H 2085.11 0.669795 4.98521 0
M  V30 22493 H 2084.81 2.38288 5.37115 0
M  V30 22494 H 2086.33 1.60839 5.89036 0
M  V30 22495 H 2087.75 3.45837 4.57241 0
M  V30 22496 H 2086.14 4.1971 4.2891 0
M  V30 22497 H 2087.21 3.87705 2.91226 0
M  V30 22498 N 2088.56 -1.06056 1.16576 0
M  V30 22499 C 2089.47 -2.17107 0.888912 0
M  V30 22500 C 2090.48 -1.73438 -0.139723 0
M  V30 22501 O 2091.66 -2.01365 0.0374846 0
M  V30 22502 C 2088.72 -3.44425 0.396494 0
M  V30 22503 C 2087.78 -4.02589 1.49065 0
M  V30 22504 C 2087.02 -5.2383 1.02163 0
M  V30 22505 O 2087.24 -5.70257 -0.127684 0
M  V30 22506 O 2086.17 -5.7401 1.81098 0
M  V30 22507 H 2090 -2.43304 1.81761 0
M  V30 22508 H 2087.58 -1.1564 0.945923 0
M  V30 22509 H 2089.47 -4.21203 0.128983 0
M  V30 22510 H 2088.14 -3.1975 -0.504164 0
M  V30 22511 H 2087.05 -3.27292 1.81193 0
M  V30 22512 H 2088.38 -4.31565 2.3667 0
M  V30 22513 N 2090.03 -0.964615 -1.24631 0
M  V30 22514 C 2091.26 -0.641907 -1.97216 0
M  V30 22515 C 2091.68 0.781279 -1.71107 0
M  V30 22516 O 2091.04 1.52981 -0.972952 0
M  V30 22517 C 2091.09 -0.918908 -3.48695 0
M  V30 22518 O 2090.19 -0.00276058 -4.124 0
M  V30 22519 H 2089.53 -0.243001 -0.617937 0
M  V30 22520 H 2092.06 -1.29393 -1.58489 0
M  V30 22521 H 2092.07 -0.849197 -3.99065 0
M  V30 22522 H 2090.75 -1.95612 -3.67027 0
M  V30 22523 H 2089.33 -0.125529 -3.72689 0
M  V30 22524 N 2091.51 1.39445 -0.734362 0
M  V30 22525 C 2092.44 2.33245 -0.109065 0
M  V30 22526 C 2093.42 1.53878 0.724945 0
M  V30 22527 O 2094.61 1.82274 0.670055 0
M  V30 22528 C 2091.74 3.37973 0.799454 0
M  V30 22529 C 2090.69 4.27943 0.0696508 0
M  V30 22530 C 2090.02 5.23365 1.09514 0
M  V30 22531 C 2091.32 5.10855 -1.08738 0
M  V30 22532 H 2093.01 2.85786 -0.892581 0
M  V30 22533 H 2090.56 1.37409 -0.430672 0
M  V30 22534 H 2092.51 4.02545 1.24643 0
M  V30 22535 H 2091.23 2.83871 1.61508 0
M  V30 22536 H 2089.89 3.64851 -0.357693 0
M  V30 22537 H 2089.54 4.65559 1.90432 0
M  V30 22538 H 2089.24 5.84408 0.611606 0
M  V30 22539 H 2090.77 5.90813 1.54183 0
M  V30 22540 H 2092.18 5.68775 -0.718888 0
M  V30 22541 H 2090.58 5.81038 -1.50051 0
M  V30 22542 H 2091.65 4.45725 -1.90937 0
M  V30 22543 N 2092.99 0.481946 1.5005 0
M  V30 22544 C 2094.24 -0.0710199 2.01575 0
M  V30 22545 C 2094.55 -1.39798 1.36806 0
M  V30 22546 O 2095.76 -2.03653 1.79549 0
M  V30 22547 C 2094.21 -0.177064 3.59464 0
M  V30 22548 C 2093.82 1.14212 4.33197 0
M  V30 22549 C 2095.57 -0.681409 4.18995 0
M  V30 22550 C 2093.47 0.999274 5.82897 0
M  V30 22551 H 2092.4 -0.0303162 0.75339 0
M  V30 22552 H 2095.05 0.618487 1.72763 0
M  V30 22553 H 2093.44 -0.930598 3.8491 0
M  V30 22554 H 2094.61 1.90745 4.19467 0
M  V30 22555 H 2092.92 1.57841 3.85325 0
M  V30 22556 H 2095.52 -0.805484 5.28598 0
M  V30 22557 H 2095.86 -1.6755 3.81094 0
M  V30 22558 H 2096.4 0.015045 3.97797 0
M  V30 22559 H 2093.14 1.96706 6.2529 0
M  V30 22560 H 2092.66 0.274505 5.99172 0
M  V30 22561 H 2094.34 0.670265 6.43519 0
M  V30 22562 N 2094.47 -1.56127 0.214985 0
M  V30 22563 C 2095.69 -2.02966 -0.426587 0
M  V30 22564 C 2096.12 -1.0939 -1.53021 0
M  V30 22565 O 2095.48 -0.0808958 -1.81119 0
M  V30 22566 C 2095.52 -3.48091 -0.941527 0
M  V30 22567 O 2094.63 -3.5765 -2.05329 0
M  V30 22568 H 2093.97 -0.656823 -0.097363 0
M  V30 22569 H 2096.5 -2.01893 0.331697 0
M  V30 22570 H 2096.51 -3.88282 -1.25304 0
M  V30 22571 H 2095.18 -4.15685 -0.133737 0
M  V30 22572 H 2093.76 -3.29344 -1.74891 0
M  V30 22573 N 2095.95 0.0584645 -1.57492 0
M  V30 22574 C 2097.19 0.75396 -1.87078 0
M  V30 22575 C 2097.51 1.78063 -0.809512 0
M  V30 22576 O 2098.71 2.52664 -0.993649 0
M  V30 22577 C 2097.17 1.39192 -3.31894 0
M  V30 22578 C 2096.78 0.403126 -4.46183 0
M  V30 22579 C 2098.52 2.069 -3.70665 0
M  V30 22580 C 2096.43 1.04775 -5.82045 0
M  V30 22581 H 2095.36 0.28534 -0.697923 0
M  V30 22582 H 2098.01 0.0075332 -1.83498 0
M  V30 22583 H 2096.39 2.18706 -3.30127 0
M  V30 22584 H 2097.57 -0.36317 -4.59367 0
M  V30 22585 H 2095.88 -0.170238 -4.16052 0
M  V30 22586 H 2098.48 2.55929 -4.69473 0
M  V30 22587 H 2098.82 2.87433 -3.01145 0
M  V30 22588 H 2099.35 1.342 -3.7448 0
M  V30 22589 H 2096.09 0.282468 -6.54891 0
M  V30 22590 H 2095.61 1.78459 -5.72636 0
M  V30 22591 H 2097.29 1.56372 -6.27819 0
M  V30 22592 N 2097.42 1.54103 0.330149 0
M  V30 22593 C 2098.37 1.83745 1.4262 0
M  V30 22594 C 2099.37 0.708869 1.53855 0
M  V30 22595 O 2100.57 0.892427 1.56319 0
M  V30 22596 H 2096.95 0.58234 0.475799 0
M  V30 22597 H 2098.92 2.75417 1.1484 0
M  V30 22598 C 2097.67 2.07574 2.78941 0
M  V30 22599 H 2096.99 2.93875 2.71068 0
M  V30 22600 H 2098.43 2.32273 3.54719 0
M  V30 22601 C 2096.89 0.865282 3.25599 0
M  V30 22602 O 2097.42 0.0712874 4.01637 0
M  V30 22603 N 2095.62 0.678754 2.82562 0
M  V30 22604 H 2095.17 1.32607 2.20847 0
M  V30 22605 H 2095.13 -0.129662 3.14133 0
M  V30 22606 N 2098.9 -0.59187 1.46064 0
M  V30 22607 C 2099.85 -1.72268 1.5629 0
M  V30 22608 C 2100.84 -1.63802 0.431898 0
M  V30 22609 O 2102.05 -1.69406 0.608421 0
M  V30 22610 H 2098.43 -0.569403 0.491207 0
M  V30 22611 H 2100.4 -1.60773 2.51385 0
M  V30 22612 C 2099.15 -3.10656 1.56166 0
M  V30 22613 H 2098.47 -3.17837 2.42527 0
M  V30 22614 H 2099.91 -3.89565 1.67377 0
M  V30 22615 C 2098.37 -3.35661 0.288718 0
M  V30 22616 O 2098.9 -3.9681 -0.624892 0
M  V30 22617 N 2097.1 -2.90045 0.179487 0
M  V30 22618 H 2096.65 -2.40464 0.92384 0
M  V30 22619 H 2096.61 -3.07148 -0.671367 0
M  V30 22620 N 2100.38 -1.33616 -0.835729 0
M  V30 22621 C 2101.33 -1.24131 -1.94577 0
M  V30 22622 C 2102.3 -0.119257 -1.65671 0
M  V30 22623 O 2103.48 -0.298063 -1.88457 0
M  V30 22624 C 2100.62 -0.989665 -3.30605 0
M  V30 22625 C 2099.74 -2.19828 -3.71887 0
M  V30 22626 C 2098.87 -1.88052 -4.96799 0
M  V30 22627 C 2097.91 -3.05128 -5.30625 0
M  V30 22628 N 2097.05 -2.7332 -6.46715 0
M  V30 22629 H 2101.89 -2.19069 -2.02022 0
M  V30 22630 H 2099.42 -1.08932 -0.988545 0
M  V30 22631 H 2101.38 -0.824187 -4.08978 0
M  V30 22632 H 2100.01 -0.0770128 -3.22708 0
M  V30 22633 H 2099.06 -2.4734 -2.89011 0
M  V30 22634 H 2100.38 -3.07341 -3.92865 0
M  V30 22635 H 2099.53 -1.68166 -5.82928 0
M  V30 22636 H 2098.27 -0.977799 -4.77797 0
M  V30 22637 H 2097.27 -3.25624 -4.43 0
M  V30 22638 H 2098.5 -3.9616 -5.51574 0
M  V30 22639 H 2096.44 -1.8561 -6.29194 0
M  V30 22640 H 2096.36 -3.54365 -6.67804 0
M  V30 22641 H 2097.63 -2.56909 -7.35947 0
M  V30 22642 N 2101.86 1.05436 -1.17136 0
M  V30 22643 C 2102.79 2.15075 -0.909112 0
M  V30 22644 C 2103.77 1.69455 0.147942 0
M  V30 22645 O 2104.95 1.942 -0.00177952 0
M  V30 22646 C 2102.08 3.44764 -0.41892 0
M  V30 22647 C 2101.04 4.03937 -1.41488 0
M  V30 22648 C 2100.36 5.2894 -0.782739 0
M  V30 22649 C 2101.66 4.4171 -2.78728 0
M  V30 22650 H 2103.36 2.37271 -1.826 0
M  V30 22651 H 2100.9 1.14031 -0.879376 0
M  V30 22652 H 2102.86 4.2081 -0.222885 0
M  V30 22653 H 2101.58 3.22213 0.533496 0
M  V30 22654 H 2100.24 3.29958 -1.59761 0
M  V30 22655 H 2099.89 5.0269 0.176435 0
M  V30 22656 H 2099.59 5.6949 -1.44758 0
M  V30 22657 H 2101.11 6.07675 -0.596922 0
M  V30 22658 H 2102.53 5.08801 -2.64187 0
M  V30 22659 H 2100.92 4.93271 -3.41766 0
M  V30 22660 H 2101.99 3.52168 -3.33325 0
M  V30 22661 N 2103.34 0.971211 1.24118 0
M  V30 22662 C 2104.27 0.462026 2.24495 0
M  V30 22663 C 2105.28 -0.431143 1.56987 0
M  V30 22664 O 2106.47 -0.236754 1.76923 0
M  V30 22665 C 2103.57 -0.351913 3.37068 0
M  V30 22666 C 2102.74 0.532187 4.3415 0
M  V30 22667 C 2101.8 -0.22634 5.25713 0
M  V30 22668 O 2100.83 0.380923 5.67924 0
M  V30 22669 N 2102.03 -1.51493 5.60384 0
M  V30 22670 H 2104.8 1.32507 2.68816 0
M  V30 22671 H 2102.36 0.843431 1.38195 0
M  V30 22672 H 2104.35 -0.867478 3.95293 0
M  V30 22673 H 2102.92 -1.1159 2.92004 0
M  V30 22674 H 2102.14 1.22869 3.74562 0
M  V30 22675 H 2103.43 1.13503 4.95978 0
M  V30 22676 H 2102.82 -2.02997 5.28023 0
M  V30 22677 H 2101.38 -1.97612 6.21122 0
M  V30 22678 N 2104.81 -1.39054 0.741747 0
M  V30 22679 C 2105.75 -2.29103 0.0665251 0
M  V30 22680 C 2106.76 -1.47157 -0.696331 0
M  V30 22681 O 2107.95 -1.70156 -0.539378 0
M  V30 22682 C 2105.05 -3.25891 -0.929959 0
M  V30 22683 C 2104.22 -4.36809 -0.227219 0
M  V30 22684 C 2103.28 -5.13863 -1.13276 0
M  V30 22685 O 2102.31 -5.65946 -0.607718 0
M  V30 22686 N 2103.51 -5.25709 -2.46192 0
M  V30 22687 H 2106.27 -2.87692 0.839836 0
M  V30 22688 H 2103.83 -1.50707 0.591532 0
M  V30 22689 H 2105.83 -3.74315 -1.53851 0
M  V30 22690 H 2104.4 -2.68285 -1.60443 0
M  V30 22691 H 2103.62 -3.90175 0.5619 0
M  V30 22692 H 2104.9 -5.08138 0.259523 0
M  V30 22693 H 2104.3 -4.84923 -2.91318 0
M  V30 22694 H 2102.86 -5.77549 -3.02127 0
M  V30 22695 N 2106.29 -0.489897 -1.49792 0
M  V30 22696 C 2107.7 -0.0393634 -1.86658 0
M  V30 22697 C 2108.05 1.37132 -1.40318 0
M  V30 22698 O 2107.18 2.01999 -0.776241 0
M  V30 22699 C 2107.77 -0.0646571 -3.38738 0
M  V30 22700 C 2106.33 0.330485 -3.74946 0
M  V30 22701 C 2105.48 -0.442023 -2.73754 0
M  V30 22702 H 2108.43 -0.703245 -1.42268 0
M  V30 22703 H 2108.45 0.73323 -3.73368 0
M  V30 22704 H 2107.96 -1.09149 -3.72435 0
M  V30 22705 H 2106.07 1.36097 -3.46855 0
M  V30 22706 H 2106.18 0.0187552 -4.79096 0
M  V30 22707 H 2104.54 0.106725 -2.54476 0
M  V30 22708 H 2105.33 -1.46872 -3.10296 0
M  V30 22709 N 2107.77 1.56011 -0.223262 0
M  V30 22710 C 2108.68 2.23993 0.697454 0
M  V30 22711 C 2109.7 1.24812 1.21235 0
M  V30 22712 O 2110.87 1.57629 1.2536 0
M  V30 22713 C 2107.94 2.90786 1.88797 0
M  V30 22714 C 2107 4.05314 1.41489 0
M  V30 22715 C 2106.23 4.68913 2.54866 0
M  V30 22716 O 2106.45 4.31505 3.73041 0
M  V30 22717 O 2105.39 5.57872 2.2597 0
M  V30 22718 H 2109.21 3.03338 0.148324 0
M  V30 22719 H 2106.8 1.49398 0.00725836 0
M  V30 22720 H 2108.68 3.32939 2.5832 0
M  V30 22721 H 2107.36 2.144 2.42517 0
M  V30 22722 H 2106.26 3.67726 0.687623 0
M  V30 22723 H 2107.6 4.83448 0.924045 0
M  V30 22724 N 2109.25 -0.0501116 1.5752 0
M  V30 22725 C 2110.21 -1.0417 2.0416 0
M  V30 22726 C 2111.21 -1.30309 0.942133 0
M  V30 22727 O 2112.4 -1.25665 1.20639 0
M  V30 22728 C 2109.53 -2.37997 2.4407 0
M  V30 22729 H 2110.73 -0.639249 2.93008 0
M  V30 22730 H 2108.28 -0.296417 1.53464 0
M  V30 22731 H 2109.01 -2.83032 1.58314 0
M  V30 22732 H 2108.8 -2.2036 3.2432 0
M  V30 22733 H 2110.29 -3.09229 2.80654 0
M  V30 22734 N 2110.73 -1.54276 -0.321972 0
M  V30 22735 C 2111.69 -1.83051 -1.37931 0
M  V30 22736 C 2112.69 -0.702392 -1.44648 0
M  V30 22737 O 2113.88 -0.970701 -1.44648 0
M  V30 22738 C 2111.01 -1.99197 -2.76647 0
M  V30 22739 H 2112.2 -2.77523 -1.1367 0
M  V30 22740 H 2109.76 -1.46018 -0.55754 0
M  V30 22741 H 2110.49 -1.06942 -3.0616 0
M  V30 22742 H 2110.28 -2.81289 -2.73164 0
M  V30 22743 H 2111.77 -2.22902 -3.53135 0
M  V30 22744 N 2112.2 0.584116 -1.46376 0
M  V30 22745 C 2113.17 1.6753 -1.56417 0
M  V30 22746 C 2114.17 1.54622 -0.441454 0
M  V30 22747 O 2115.36 1.59265 -0.705714 0
M  V30 22748 C 2112.49 3.06947 -1.48313 0
M  V30 22749 H 2113.68 1.59986 -2.53662 0
M  V30 22750 H 2111.24 0.801837 -1.34165 0
M  V30 22751 H 2111.97 3.20048 -0.523413 0
M  V30 22752 H 2111.76 3.17724 -2.29768 0
M  V30 22753 H 2113.25 3.86384 -1.58422 0
M  V30 22754 N 2113.68 1.34058 0.828631 0
M  V30 22755 C 2114.93 1.25844 1.58138 0
M  V30 22756 C 2115.25 -0.173004 1.94231 0
M  V30 22757 O 2114.52 -1.10425 1.61812 0
M  V30 22758 H 2113.1 0.4628 0.586366 0
M  V30 22759 H 2115.76 1.67901 0.989709 0
M  V30 22760 H 2114.86 1.85925 2.50676 0
M  V30 22761 N 2115.16 -1.04814 1.17694 0
M  V30 22762 C 2116.41 -1.78147 0.969105 0
M  V30 22763 C 2116.74 -1.87634 -0.500715 0
M  V30 22764 O 2116.02 -1.37892 -1.37172 0
M  V30 22765 C 2116.3 -3.2183 1.61548 0
M  V30 22766 C 2116.15 -3.20332 3.15765 0
M  V30 22767 C 2117.47 -4.19759 1.32251 0
M  V30 22768 H 2114.59 -0.646701 0.353479 0
M  V30 22769 H 2117.23 -1.22485 1.45249 0
M  V30 22770 H 2115.38 -3.69358 1.20445 0
M  V30 22771 H 2117.05 -2.8085 3.65952 0
M  V30 22772 H 2115.3 -2.58568 3.48318 0
M  V30 22773 H 2115.97 -4.21759 3.56123 0
M  V30 22774 H 2118.44 -3.80743 1.67851 0
M  V30 22775 H 2117.32 -5.18527 1.80057 0
M  V30 22776 H 2117.58 -4.41426 0.244002 0
M  V30 22777 N 2116.64 -0.977779 -1.23601 0
M  V30 22778 C 2117.57 -0.535228 -2.27283 0
M  V30 22779 C 2118.55 0.430261 -1.64568 0
M  V30 22780 O 2119.74 0.324195 -1.91475 0
M  V30 22781 C 2116.87 0.165683 -3.46905 0
M  V30 22782 C 2115.82 -0.716827 -4.21954 0
M  V30 22783 C 2115.15 0.116149 -5.34574 0
M  V30 22784 C 2116.45 -2.00636 -4.82227 0
M  V30 22785 H 2118.14 -1.40185 -2.64553 0
M  V30 22786 H 2115.69 -0.67551 -1.27173 0
M  V30 22787 H 2117.64 0.486573 -4.18581 0
M  V30 22788 H 2116.36 1.06674 -3.08688 0
M  V30 22789 H 2115.02 -1.02114 -3.52091 0
M  V30 22790 H 2114.67 1.01766 -4.92598 0
M  V30 22791 H 2114.37 -0.471195 -5.85708 0
M  V30 22792 H 2115.89 0.431481 -6.09074 0
M  V30 22793 H 2117.31 -1.75041 -5.45925 0
M  V30 22794 H 2115.7 -2.54126 -5.43636 0
M  V30 22795 H 2116.77 -2.69488 -4.03118 0
M  V30 22796 N 2118.12 1.38658 -0.749111 0
M  V30 22797 C 2119.03 2.34291 -0.120373 0
M  V30 22798 C 2120.04 1.59043 0.705796 0
M  V30 22799 O 2121.22 1.9126 0.63099 0
M  V30 22800 C 2118.28 3.38141 0.765626 0
M  V30 22801 C 2117.35 4.29236 -0.0744037 0
M  V30 22802 C 2116.58 5.28125 0.769401 0
M  V30 22803 O 2116.8 5.33902 2.0076 0
M  V30 22804 O 2115.74 6.01598 0.190576 0
M  V30 22805 H 2119.56 2.89744 -0.910056 0
M  V30 22806 H 2117.15 1.40428 -0.509948 0
M  V30 22807 H 2119.03 4.0174 1.27214 0
M  V30 22808 H 2117.7 2.8505 1.53388 0
M  V30 22809 H 2116.61 3.68812 -0.626761 0
M  V30 22810 H 2117.94 4.85569 -0.805208 0
M  V30 22811 N 2119.6 0.497834 1.49531 0
M  V30 22812 C 2120.83 -0.0446457 2.06552 0
M  V30 22813 C 2121.23 -1.31656 1.3588 0
M  V30 22814 O 2120.58 -1.786 0.429849 0
M  V30 22815 C 2120.64 -0.371817 3.57572 0
M  V30 22816 C 2120.3 0.801922 4.49909 0
M  V30 22817 C 2121.3 1.69153 4.91613 0
M  V30 22818 C 2118.98 0.999829 4.92249 0
M  V30 22819 C 2120.98 2.76322 5.74391 0
M  V30 22820 C 2118.67 2.0747 5.74804 0
M  V30 22821 C 2119.66 2.95474 6.15779 0
M  V30 22822 O 2119.35 4.01107 6.96684 0
M  V30 22823 H 2119.08 0.0158092 0.675815 0
M  V30 22824 H 2121.64 0.693474 1.93339 0
M  V30 22825 H 2119.87 -1.16349 3.68782 0
M  V30 22826 H 2121.56 -0.852535 3.96846 0
M  V30 22827 H 2122.32 1.55043 4.5955 0
M  V30 22828 H 2118.2 0.324223 4.59858 0
M  V30 22829 H 2121.75 3.45041 6.06294 0
M  V30 22830 H 2117.64 2.21576 6.06279 0
M  V30 22831 H 2118.41 3.98421 7.14984 0
M  V30 22832 N 2121.07 -1.5589 0.231532 0
M  V30 22833 C 2122.04 -2.19461 -0.661012 0
M  V30 22834 C 2123.04 -1.15936 -1.11424 0
M  V30 22835 O 2124.23 -1.41111 -1.02144 0
M  V30 22836 C 2121.36 -2.82592 -1.90669 0
M  V30 22837 H 2122.55 -2.9971 -0.106607 0
M  V30 22838 H 2120.1 -1.5629 -0.0180602 0
M  V30 22839 H 2120.84 -2.06239 -2.50272 0
M  V30 22840 H 2120.62 -3.58412 -1.59007 0
M  V30 22841 H 2122.11 -3.3129 -2.54238 0
M  V30 22842 N 2122.55 0.0417572 -1.57545 0
M  V30 22843 C 2123.48 1.079 -2.01079 0
M  V30 22844 C 2124.46 1.35893 -0.892851 0
M  V30 22845 O 2125.65 1.48763 -1.15766 0
M  V30 22846 C 2122.77 2.41667 -2.37308 0
M  V30 22847 C 2121.82 2.29614 -3.59416 0
M  V30 22848 S 2122.65 1.66161 -5.09069 0
M  V30 22849 C 2123.81 3.01444 -5.48527 0
M  V30 22850 H 2124.04 0.70813 -2.88743 0
M  V30 22851 H 2121.57 0.251319 -1.52341 0
M  V30 22852 H 2123.53 3.186 -2.58852 0
M  V30 22853 H 2122.19 2.75905 -1.50118 0
M  V30 22854 H 2121.39 3.28333 -3.82379 0
M  V30 22855 H 2120.99 1.60822 -3.37657 0
M  V30 22856 H 2123.28 3.97775 -5.48435 0
M  V30 22857 H 2124.22 2.83228 -6.48989 0
M  V30 22858 H 2124.63 3.03433 -4.76014 0
M  V30 22859 N 2124.03 1.54445 0.313786 0
M  V30 22860 C 2124.98 1.8451 1.38654 0
M  V30 22861 C 2125.95 0.692957 1.50955 0
M  V30 22862 O 2127.13 0.940344 1.66019 0
M  V30 22863 C 2124.27 2.08672 2.74863 0
M  V30 22864 C 2123.38 3.36334 2.71115 0
M  V30 22865 C 2122.52 3.50406 3.99235 0
M  V30 22866 C 2121.56 4.71907 3.89833 0
M  V30 22867 N 2120.7 4.82853 5.09703 0
M  V30 22868 H 2125.54 2.76024 1.12315 0
M  V30 22869 H 2123.07 1.36691 0.543496 0
M  V30 22870 H 2125.03 2.20675 3.5406 0
M  V30 22871 H 2123.66 1.20438 2.9949 0
M  V30 22872 H 2122.71 3.33019 1.83855 0
M  V30 22873 H 2124.02 4.25645 2.60054 0
M  V30 22874 H 2123.18 3.62004 4.86865 0
M  V30 22875 H 2121.92 2.59206 4.13115 0
M  V30 22876 H 2120.92 4.60356 3.00587 0
M  V30 22877 H 2122.15 5.64502 3.7751 0
M  V30 22878 H 2120.09 3.94572 5.2407 0
M  V30 22879 H 2120.01 5.66145 5.01015 0
M  V30 22880 H 2121.28 4.98794 5.9902 0
M  V30 22881 N 2125.51 -0.576345 1.46683 0
M  V30 22882 C 2126.46 -1.68 1.54143 0
M  V30 22883 C 2127.44 -1.55802 0.401829 0
M  V30 22884 O 2128.63 -1.64608 0.650624 0
M  V30 22885 C 2125.76 -3.06786 1.54069 0
M  V30 22886 C 2124.85 -3.24257 2.73346 0
M  V30 22887 N 2125.24 -3.11864 3.98214 0
M  V30 22888 C 2123.54 -3.55213 2.69704 0
M  V30 22889 C 2124.24 -3.31512 4.7799 0
M  V30 22890 N 2123.21 -3.56962 4.09974 0
M  V30 22891 H 2127.02 -1.56958 2.48478 0
M  V30 22892 H 2124.53 -0.780562 1.42411 0
M  V30 22893 H 2126.53 -3.86004 1.57501 0
M  V30 22894 H 2125.19 -3.18954 0.608155 0
M  V30 22895 H 2126.2 -2.89595 4.29366 0
M  V30 22896 H 2122.88 -3.74026 1.85502 0
M  V30 22897 H 2124.27 -3.27059 5.86926 0
M  V30 22898 N 2126.99 -1.34495 -0.82151 0
M  V30 22899 C 2128.23 -1.26931 -1.57781 0
M  V30 22900 C 2128.56 0.160345 -1.93838 0
M  V30 22901 O 2127.82 1.12196 -1.60345 0
M  V30 22902 C 2128.11 -2.10695 -2.88691 0
M  V30 22903 C 2127.78 -3.59682 -2.71919 0
M  V30 22904 C 2126.44 -4.00295 -2.67053 0
M  V30 22905 C 2128.79 -4.5428 -2.55497 0
M  V30 22906 C 2126.12 -5.33698 -2.43687 0
M  V30 22907 C 2128.47 -5.87864 -2.33663 0
M  V30 22908 C 2127.14 -6.2764 -2.27209 0
M  V30 22909 H 2126.41 -0.464474 -0.57736 0
M  V30 22910 H 2129.06 -1.66251 -0.950411 0
M  V30 22911 H 2127.36 -1.64208 -3.55729 0
M  V30 22912 H 2129.06 -2.02188 -3.46296 0
M  V30 22913 H 2125.65 -3.27444 -2.76547 0
M  V30 22914 H 2129.83 -4.23799 -2.58279 0
M  V30 22915 H 2125.09 -5.63534 -2.37149 0
M  V30 22916 H 2129.26 -6.60756 -2.19943 0
M  V30 22917 H 2126.89 -7.30944 -2.08865 0
M  V30 22918 N 2128.46 1.04188 -1.18248 0
M  V30 22919 C 2129.71 1.77017 -0.975161 0
M  V30 22920 C 2130.03 1.88572 0.496551 0
M  V30 22921 O 2129.3 1.40982 1.36018 0
M  V30 22922 H 2127.88 0.655725 -0.357818 0
M  V30 22923 H 2130.55 1.25748 -1.48908 0
M  V30 22924 H 2129.64 2.78326 -1.41213 0
M  V30 22925 N 2129.94 0.98432 1.23081 0
M  V30 22926 C 2130.85 0.536158 2.28391 0
M  V30 22927 C 2131.87 -0.410933 1.69078 0
M  V30 22928 O 2133.04 -0.279885 1.99446 0
M  V30 22929 C 2130.11 -0.150493 3.46373 0
M  V30 22930 C 2129.17 0.83849 4.21032 0
M  V30 22931 C 2128.4 0.184512 5.33381 0
M  V30 22932 O 2128.63 -1.02355 5.61141 0
M  V30 22933 O 2127.56 0.885058 5.95357 0
M  V30 22934 H 2131.39 1.41206 2.68877 0
M  V30 22935 H 2128.97 0.752144 1.29086 0
M  V30 22936 H 2130.85 -0.535499 4.17984 0
M  V30 22937 H 2129.53 -1.00109 3.07831 0
M  V30 22938 H 2128.44 1.27427 3.51729 0
M  V30 22939 H 2129.77 1.65802 4.63433 0
M  V30 22940 N 2131.42 -1.38259 0.756453 0
M  V30 22941 C 2132.35 -2.33042 0.146158 0
M  V30 22942 C 2133.33 -1.55012 -0.700373 0
M  V30 22943 O 2134.52 -1.83317 -0.640972 0
M  V30 22944 C 2131.65 -3.39202 -0.745585 0
M  V30 22945 C 2130.6 -4.28 -0.00155995 0
M  V30 22946 C 2129.93 -5.25041 -1.01174 0
M  V30 22947 C 2131.23 -5.09061 1.16852 0
M  V30 22948 H 2132.92 -2.84329 0.937934 0
M  V30 22949 H 2130.47 -1.36706 0.452478 0
M  V30 22950 H 2132.42 -4.04477 -1.18223 0
M  V30 22951 H 2131.14 -2.86405 -1.56971 0
M  V30 22952 H 2129.8 -3.64236 0.415692 0
M  V30 22953 H 2129.45 -4.68529 -1.83001 0
M  V30 22954 H 2129.15 -5.85307 -0.518554 0
M  V30 22955 H 2130.67 -5.93191 -1.44764 0
M  V30 22956 H 2132.09 -5.67559 0.809284 0
M  V30 22957 H 2130.49 -5.78577 1.59276 0
M  V30 22958 H 2131.56 -4.42631 1.98004 0
M  V30 22959 N 2132.9 -0.505757 -1.49264 0
M  V30 22960 C 2133.81 0.274574 -2.32988 0
M  V30 22961 C 2134.82 0.962724 -1.4494 0
M  V30 22962 O 2136 0.943054 -1.77956 0
M  V30 22963 C 2133.07 1.32231 -3.20493 0
M  V30 22964 C 2132.13 0.64709 -4.24395 0
M  V30 22965 C 2131.36 1.6449 -5.07719 0
M  V30 22966 O 2131.58 2.87523 -4.92632 0
M  V30 22967 O 2130.52 1.19761 -5.89865 0
M  V30 22968 H 2134.34 -0.410833 -3.00908 0
M  V30 22969 H 2131.93 -0.267017 -1.46994 0
M  V30 22970 H 2133.81 1.92838 -3.74689 0
M  V30 22971 H 2132.48 1.99056 -2.55262 0
M  V30 22972 H 2131.39 0.00115278 -3.741 0
M  V30 22973 H 2132.72 0.0212046 -4.92195 0
M  V30 22974 N 2134.38 1.55765 -0.239796 0
M  V30 22975 C 2135.63 1.97945 0.387367 0
M  V30 22976 C 2135.94 1.131 1.59586 0
M  V30 22977 O 2137.14 1.45261 2.29372 0
M  V30 22978 C 2135.6 3.52198 0.740571 0
M  V30 22979 C 2135.21 4.45773 -0.446131 0
M  V30 22980 C 2136.95 4.0305 1.33232 0
M  V30 22981 C 2134.86 5.91359 -0.0694771 0
M  V30 22982 H 2133.79 0.739231 0.148505 0
M  V30 22983 H 2136.44 1.80343 -0.338891 0
M  V30 22984 H 2134.82 3.65468 1.52476 0
M  V30 22985 H 2136 4.44259 -1.22354 0
M  V30 22986 H 2134.31 4.05364 -0.952332 0
M  V30 22987 H 2136.91 5.09335 1.62734 0
M  V30 22988 H 2137.25 3.49977 2.25437 0
M  V30 22989 H 2137.78 3.93077 0.611183 0
M  V30 22990 H 2134.52 6.48455 -0.958485 0
M  V30 22991 H 2134.04 5.96025 0.671873 0
M  V30 22992 H 2135.72 6.46048 0.350837 0
M  V30 22993 N 2135.85 -0.0334016 1.57565 0
M  V30 22994 C 2136.79 -1.06286 2.03066 0
M  V30 22995 C 2137.8 -1.32726 0.942744 0
M  V30 22996 O 2138.99 -1.3029 1.22012 0
M  V30 22997 C 2136.09 -2.40547 2.38727 0
M  V30 22998 C 2135.26 -2.33524 3.69845 0
M  V30 22999 C 2134.32 -3.50199 3.92743 0
M  V30 23000 O 2133.35 -3.29889 4.63856 0
M  V30 23001 N 2134.55 -4.71916 3.38047 0
M  V30 23002 H 2137.31 -0.675062 2.91998 0
M  V30 23003 H 2134.87 -0.221423 1.60379 0
M  V30 23004 H 2136.87 -3.17313 2.51186 0
M  V30 23005 H 2135.44 -2.71187 1.55488 0
M  V30 23006 H 2134.66 -1.41885 3.6778 0
M  V30 23007 H 2135.94 -2.2597 4.55867 0
M  V30 23008 H 2135.34 -4.91318 2.80398 0
M  V30 23009 H 2133.9 -5.46062 3.55893 0
M  V30 23010 N 2137.33 -1.54609 -0.305591 0
M  V30 23011 C 2138.3 -1.84504 -1.35982 0
M  V30 23012 C 2139.3 -0.717695 -1.43895 0
M  V30 23013 O 2140.49 -0.985988 -1.4361 0
M  V30 23014 C 2137.62 -2.0212 -2.74518 0
M  V30 23015 H 2138.81 -2.78713 -1.10721 0
M  V30 23016 H 2136.36 -1.46601 -0.542022 0
M  V30 23017 H 2137.1 -1.10183 -3.05009 0
M  V30 23018 H 2136.88 -2.84171 -2.70166 0
M  V30 23019 H 2138.37 -2.26635 -3.50751 0
M  V30 23020 N 2138.81 0.568558 -1.46987 0
M  V30 23021 C 2140.04 1.35191 -1.56624 0
M  V30 23022 C 2140.45 1.87602 -0.212353 0
M  V30 23023 O 2139.81 1.64388 0.792639 0
M  V30 23024 C 2139.86 2.52969 -2.58242 0
M  V30 23025 O 2139.58 2.02726 -3.88373 0
M  V30 23026 C 2141.08 3.45334 -2.77955 0
M  V30 23027 H 2138.3 0.412505 -0.529227 0
M  V30 23028 H 2140.85 0.689847 -1.92513 0
M  V30 23029 H 2139 3.15136 -2.25318 0
M  V30 23030 H 2139.42 2.79532 -4.43804 0
M  V30 23031 H 2140.89 4.2442 -3.52947 0
M  V30 23032 H 2141.37 3.98165 -1.85368 0
M  V30 23033 H 2141.97 2.88992 -3.12032 0
M  V30 23034 N 2140.29 1.34929 0.814366 0
M  V30 23035 C 2141.53 1.28964 1.57289 0
M  V30 23036 C 2141.89 -0.136931 1.91912 0
M  V30 23037 O 2141.18 -1.08538 1.57893 0
M  V30 23038 C 2141.38 2.12223 2.87569 0
M  V30 23039 C 2141.21 3.62832 2.65674 0
M  V30 23040 C 2139.98 4.32089 2.61968 0
M  V30 23041 C 2142.17 4.56649 2.36592 0
M  V30 23042 N 2140.16 5.68493 2.31708 0
M  V30 23043 C 2141.53 5.81119 2.16103 0
M  V30 23044 C 2143.58 4.45474 2.22391 0
M  V30 23045 C 2142.28 6.95671 1.8285 0
M  V30 23046 C 2144.31 5.59867 1.90535 0
M  V30 23047 C 2143.67 6.8336 1.70875 0
M  V30 23048 H 2139.77 0.52716 0.577604 0
M  V30 23049 H 2142.36 1.6973 0.953923 0
M  V30 23050 H 2140.53 1.7374 3.47374 0
M  V30 23051 H 2142.26 1.97837 3.53048 0
M  V30 23052 H 2139.01 3.84618 2.76344 0
M  V30 23053 H 2139.44 6.40465 2.19394 0
M  V30 23054 H 2144.08 3.50608 2.36292 0
M  V30 23055 H 2141.8 7.9051 1.67687 0
M  V30 23056 H 2145.38 5.53169 1.80266 0
M  V30 23057 H 2144.26 7.70379 1.46583 0
M  V30 23058 N 2141.77 -1.0356 1.18799 0
M  V30 23059 C 2143 -1.80226 1.01006 0
M  V30 23060 C 2143.4 -1.83904 -0.444538 0
M  V30 23061 O 2142.75 -1.27698 -1.32056 0
M  V30 23062 C 2142.81 -3.26949 1.49481 0
M  V30 23063 C 2142.47 -3.46921 2.97481 0
M  V30 23064 C 2143.47 -3.37692 3.95297 0
M  V30 23065 C 2141.16 -3.73353 3.36025 0
M  V30 23066 C 2143.15 -3.54609 5.29652 0
M  V30 23067 C 2140.84 -3.89916 4.70541 0
M  V30 23068 C 2141.83 -3.80545 5.67164 0
M  V30 23069 O 2141.52 -3.96627 6.99244 0
M  V30 23070 H 2141.25 -0.574238 0.356688 0
M  V30 23071 H 2143.81 -1.31373 1.57894 0
M  V30 23072 H 2142.04 -3.76795 0.869635 0
M  V30 23073 H 2143.73 -3.85189 1.28001 0
M  V30 23074 H 2144.49 -3.1723 3.66865 0
M  V30 23075 H 2140.37 -3.79743 2.61374 0
M  V30 23076 H 2143.92 -3.47211 6.05054 0
M  V30 23077 H 2139.81 -4.09873 4.98672 0
M  V30 23078 H 2140.58 -4.13758 7.0622 0
M  V30 23079 N 2143.25 -0.990834 -1.22557 0
M  V30 23080 C 2144.16 -0.548263 -2.28104 0
M  V30 23081 C 2145.17 0.401961 -1.69293 0
M  V30 23082 O 2146.35 0.269304 -1.99591 0
M  V30 23083 C 2143.41 0.132121 -3.46448 0
M  V30 23084 C 2142.47 -0.860806 -4.20581 0
M  V30 23085 C 2141.71 -0.212796 -5.33276 0
M  V30 23086 O 2141.93 0.993773 -5.61676 0
M  V30 23087 O 2140.86 -0.916619 -5.9488 0
M  V30 23088 H 2144.69 -1.4263 -2.68124 0
M  V30 23089 H 2142.27 -0.758979 -1.28685 0
M  V30 23090 H 2144.16 0.513325 -4.18262 0
M  V30 23091 H 2142.83 0.984754 -3.08357 0
M  V30 23092 H 2141.74 -1.2929 -3.51048 0
M  V30 23093 H 2143.07 -1.68257 -4.62548 0
M  V30 23094 N 2144.72 1.37856 -0.763775 0
M  V30 23095 C 2145.67 2.30357 -0.142863 0
M  V30 23096 C 2146.64 1.50697 0.698548 0
M  V30 23097 O 2147.83 1.79294 0.652566 0
M  V30 23098 C 2144.97 3.3715 0.736468 0
M  V30 23099 C 2144.08 4.31831 -0.12068 0
M  V30 23100 C 2143.21 5.25697 0.762609 0
M  V30 23101 C 2142.25 6.12022 -0.0975572 0
M  V30 23102 N 2141.39 6.98155 0.74326 0
M  V30 23103 H 2146.23 2.82878 -0.937235 0
M  V30 23104 H 2143.77 1.39261 -0.473798 0
M  V30 23105 H 2145.72 3.97686 1.26102 0
M  V30 23106 H 2144.35 2.86014 1.49652 0
M  V30 23107 H 2143.41 3.7267 -0.762965 0
M  V30 23108 H 2144.72 4.92592 -0.784528 0
M  V30 23109 H 2143.87 5.91399 1.35395 0
M  V30 23110 H 2142.61 4.65328 1.46016 0
M  V30 23111 H 2141.62 5.45306 -0.70149 0
M  V30 23112 H 2142.84 6.74462 -0.792323 0
M  V30 23113 H 2140.79 6.40323 1.42558 0
M  V30 23114 H 2140.7 7.55877 0.136535 0
M  V30 23115 H 2141.97 7.68255 1.31925 0
M  V30 23116 N 2146.2 0.513665 1.48994 0
M  V30 23117 C 2147.13 -0.247058 2.32189 0
M  V30 23118 C 2148.11 -0.950613 1.41058 0
M  V30 23119 O 2149.3 -0.939562 1.69958 0
M  V30 23120 C 2146.43 -1.30433 3.21876 0
M  V30 23121 C 2145.38 -0.719902 4.21902 0
M  V30 23122 C 2144.71 -1.87863 5.00611 0
M  V30 23123 C 2146.01 0.297524 5.21452 0
M  V30 23124 H 2147.7 0.447403 2.96038 0
M  V30 23125 H 2145.25 0.216608 1.42362 0
M  V30 23126 H 2147.2 -1.84434 3.78896 0
M  V30 23127 H 2145.92 -2.02815 2.55995 0
M  V30 23128 H 2144.58 -0.201546 3.66046 0
M  V30 23129 H 2144.23 -2.59044 4.31167 0
M  V30 23130 H 2143.93 -1.49359 5.68301 0
M  V30 23131 H 2145.46 -2.42273 5.60478 0
M  V30 23132 H 2146.87 -0.1548 5.73091 0
M  V30 23133 H 2145.27 0.599071 5.97102 0
M  V30 23134 H 2146.34 1.20903 4.69585 0
M  V30 23135 N 2147.68 -1.55636 0.248053 0
M  V30 23136 C 2148.63 -2.18088 -0.664956 0
M  V30 23137 C 2149.61 -1.13711 -1.13836 0
M  V30 23138 O 2150.81 -1.39617 -1.08794 0
M  V30 23139 C 2147.93 -2.88477 -1.86107 0
M  V30 23140 C 2147.02 -4.00112 -1.40611 0
M  V30 23141 N 2147.41 -5.01403 -0.665461 0
M  V30 23142 C 2145.71 -4.12688 -1.6913 0
M  V30 23143 C 2146.41 -5.8011 -0.429767 0
M  V30 23144 N 2145.39 -5.34429 -0.994315 0
M  V30 23145 H 2149.19 -2.93759 -0.0909433 0
M  V30 23146 H 2146.7 -1.62322 0.0504194 0
M  V30 23147 H 2148.7 -3.31648 -2.52617 0
M  V30 23148 H 2147.36 -2.14309 -2.4393 0
M  V30 23149 H 2148.37 -5.16938 -0.315457 0
M  V30 23150 H 2145.05 -3.49692 -2.28083 0
M  V30 23151 H 2146.44 -6.71706 0.161586 0
M  V30 23152 N 2149.16 0.0250451 -1.5758 0
M  V30 23153 C 2150.07 1.04128 -2.10225 0
M  V30 23154 C 2151.08 1.39367 -1.04178 0
M  V30 23155 O 2152.26 1.48605 -1.35936 0
M  V30 23156 C 2149.32 2.32208 -2.5745 0
M  V30 23157 C 2148.39 2.03512 -3.77996 0
M  V30 23158 C 2147.62 3.25486 -4.22959 0
M  V30 23159 O 2147.84 4.36301 -3.6742 0
M  V30 23160 O 2146.78 3.1095 -5.15358 0
M  V30 23161 H 2150.6 0.623859 -2.97223 0
M  V30 23162 H 2148.19 0.242286 -1.47422 0
M  V30 23163 H 2150.07 3.07498 -2.88137 0
M  V30 23164 H 2148.74 2.73237 -1.73561 0
M  V30 23165 H 2147.65 1.25777 -3.52322 0
M  V30 23166 H 2148.98 1.67337 -4.62882 0
M  V30 23167 N 2150.64 1.54769 0.297388 0
M  V30 23168 C 2151.88 1.75409 1.02972 0
M  V30 23169 C 2152.24 0.535332 1.84802 0
M  V30 23170 O 2151.53 -0.472243 1.85689 0
M  V30 23171 C 2151.72 2.98592 1.96412 0
M  V30 23172 C 2151.55 4.32331 1.23774 0
M  V30 23173 C 2150.32 4.96031 0.963412 0
M  V30 23174 C 2152.52 5.10298 0.640365 0
M  V30 23175 N 2150.5 6.13549 0.207679 0
M  V30 23176 C 2151.87 6.19998 0.0175826 0
M  V30 23177 C 2153.93 4.949 0.545774 0
M  V30 23178 C 2152.63 7.15977 -0.690643 0
M  V30 23179 C 2154.66 5.91213 -0.148805 0
M  V30 23180 C 2154.02 7.00283 -0.760423 0
M  V30 23181 H 2150.12 0.69441 0.359609 0
M  V30 23182 H 2152.7 1.92249 0.307955 0
M  V30 23183 H 2150.87 2.8317 2.65837 0
M  V30 23184 H 2152.61 3.07742 2.62825 0
M  V30 23185 H 2149.36 4.56463 1.26249 0
M  V30 23186 H 2149.78 6.76818 -0.156807 0
M  V30 23187 H 2154.43 4.10698 1.00433 0
M  V30 23188 H 2152.14 7.99717 -1.16096 0
M  V30 23189 H 2155.73 5.81376 -0.221985 0
M  V30 23190 H 2154.61 7.73528 -1.28934 0
M  V30 23191 N 2152.11 -0.560755 1.47286 0
M  V30 23192 C 2153.02 -1.69558 1.62133 0
M  V30 23193 C 2154.04 -1.66533 0.50425 0
M  V30 23194 O 2155.22 -1.86045 0.771315 0
M  V30 23195 C 2152.28 -3.06065 1.62865 0
M  V30 23196 C 2151.34 -3.20185 2.85972 0
M  V30 23197 C 2150.57 -4.5018 2.8666 0
M  V30 23198 O 2150.8 -5.35423 1.96669 0
M  V30 23199 O 2149.73 -4.68015 3.78478 0
M  V30 23200 H 2153.56 -1.59976 2.5815 0
M  V30 23201 H 2151.14 -0.730353 1.30331 0
M  V30 23202 H 2153.02 -3.87307 1.66046 0
M  V30 23203 H 2151.7 -3.16037 0.700143 0
M  V30 23204 H 2150.61 -2.38353 2.88337 0
M  V30 23205 H 2151.94 -3.15114 3.78106 0
M  V30 23206 N 2153.59 -1.35359 -0.807199 0
M  V30 23207 C 2154.87 -1.19163 -1.55111 0
M  V30 23208 C 2155.25 0.22949 -2.09849 0
M  V30 23209 O 2154.6 1.23292 -1.92383 0
M  V30 23210 C 2154.81 -2.25917 -2.66012 0
M  V30 23211 C 2156.15 -2.61693 -3.34368 0
M  V30 23212 O 2157.18 -2.24826 -2.76282 0
M  V30 23213 O 2156.04 -3.25083 -4.39299 0
M  V30 23214 H 2153.13 -0.462906 -0.685308 0
M  V30 23215 H 2155.68 -1.47039 -0.847213 0
M  V30 23216 H 2154.45 -3.21238 -2.23432 0
M  V30 23217 H 2154.07 -1.99307 -3.44038 0
M  V30 23218 N 2155.07 1.02928 -1.19346 0
M  V30 23219 C 2156.03 2.09361 -0.932765 0
M  V30 23220 C 2157.03 1.60567 0.086582 0
M  V30 23221 O 2158.22 1.73569 -0.148116 0
M  V30 23222 C 2155.35 3.38524 -0.401767 0
M  V30 23223 H 2156.55 2.33922 -1.87671 0
M  V30 23224 H 2154.1 1.19532 -1.00707 0
M  V30 23225 H 2154.84 3.19632 0.548245 0
M  V30 23226 H 2154.62 3.75261 -1.13672 0
M  V30 23227 H 2156.11 4.16919 -0.238443 0
M  V30 23228 N 2156.55 0.997319 1.2203 0
M  V30 23229 C 2157.48 0.571319 2.26403 0
M  V30 23230 C 2158.46 -0.404025 1.65232 0
M  V30 23231 O 2159.64 -0.293692 1.91966 0
M  V30 23232 C 2156.77 -0.110472 3.47124 0
M  V30 23233 C 2155.73 0.783865 4.20761 0
M  V30 23234 C 2155.05 -0.0310887 5.34691 0
M  V30 23235 C 2156.35 2.08283 4.78974 0
M  V30 23236 H 2158.05 1.44376 2.6229 0
M  V30 23237 H 2155.59 0.695656 1.26082 0
M  V30 23238 H 2157.55 -0.419919 4.19303 0
M  V30 23239 H 2156.27 -1.01749 3.10346 0
M  V30 23240 H 2154.93 1.07702 3.50422 0
M  V30 23241 H 2154.58 -0.939162 4.94155 0
M  V30 23242 H 2154.28 0.564316 5.84884 0
M  V30 23243 H 2155.8 -0.334528 6.09683 0
M  V30 23244 H 2157.22 1.83704 5.43071 0
M  V30 23245 H 2155.61 2.62743 5.39524 0
M  V30 23246 H 2156.68 2.75867 3.9878 0
M  V30 23247 N 2158.03 -1.37449 0.771075 0
M  V30 23248 C 2159.27 -2.00004 0.335588 0
M  V30 23249 C 2159.61 -1.6107 -1.0849 0
M  V30 23250 O 2158.88 -0.856568 -1.74623 0
M  V30 23251 C 2159.16 -3.56908 0.478386 0
M  V30 23252 C 2159.02 -4.05753 1.94124 0
M  V30 23253 C 2160.34 -4.39942 -0.117748 0
M  V30 23254 H 2157.45 -0.726594 0.12341 0
M  V30 23255 H 2160.1 -1.63136 0.973992 0
M  V30 23256 H 2158.25 -3.88445 -0.0651015 0
M  V30 23257 H 2159.92 -3.84784 2.54438 0
M  V30 23258 H 2158.16 -3.57971 2.45029 0
M  V30 23259 H 2158.83 -5.14796 1.99222 0
M  V30 23260 H 2161.31 -4.14659 0.34597 0
M  V30 23261 H 2160.18 -5.48899 0.0123067 0
M  V30 23262 H 2160.45 -4.25276 -1.20799 0
M  V30 23263 N 2159.5 -0.52156 -1.4872 0
M  V30 23264 C 2160.47 0.234979 -2.27992 0
M  V30 23265 C 2161.47 0.875433 -1.34881 0
M  V30 23266 O 2162.66 0.736784 -1.57852 0
M  V30 23267 C 2159.79 1.33914 -3.13496 0
M  V30 23268 H 2160.98 -0.460907 -2.96337 0
M  V30 23269 H 2158.54 -0.277206 -1.53822 0
M  V30 23270 H 2159.27 2.06854 -2.49763 0
M  V30 23271 H 2159.06 0.885123 -3.81979 0
M  V30 23272 H 2160.55 1.8715 -3.73316 0
M  V30 23273 N 2160.98 1.55502 -0.256304 0
M  V30 23274 C 2162.21 2.03275 0.369154 0
M  V30 23275 C 2162.62 1.13467 1.514 0
M  V30 23276 O 2161.96 0.143417 1.83139 0
M  V30 23277 C 2162.03 3.47265 0.929919 0
M  V30 23278 C 2161.69 4.56923 -0.0838763 0
M  V30 23279 C 2162.69 5.12108 -0.896764 0
M  V30 23280 C 2160.37 5.0185 -0.212684 0
M  V30 23281 C 2162.37 6.1072 -1.82483 0
M  V30 23282 C 2160.05 6.00292 -1.14424 0
M  V30 23283 C 2161.05 6.54606 -1.94883 0
M  V30 23284 O 2160.74 7.51127 -2.86467 0
M  V30 23285 H 2160.47 0.669882 0.0907454 0
M  V30 23286 H 2163.02 2.01844 -0.380561 0
M  V30 23287 H 2161.25 3.45875 1.72937 0
M  V30 23288 H 2162.94 3.78484 1.46645 0
M  V30 23289 H 2163.71 4.78224 -0.807887 0
M  V30 23290 H 2159.59 4.59231 0.403528 0
M  V30 23291 H 2163.13 6.5304 -2.45325 0
M  V30 23292 H 2159.03 6.33595 -1.23401 0
M  V30 23293 H 2159.8 7.68777 -2.80935 0
M  V30 23294 N 2162.46 -0.0166879 1.57591 0
M  V30 23295 C 2163.74 -0.741095 1.81017 0
M  V30 23296 C 2164.12 -1.92907 0.857326 0
M  V30 23297 O 2163.47 -2.28291 -0.0977513 0
M  V30 23298 C 2163.68 -1.16252 3.29069 0
M  V30 23299 C 2165.02 -1.57331 3.94376 0
M  V30 23300 O 2166.05 -1.25676 3.33292 0
M  V30 23301 O 2164.91 -2.16129 5.01947 0
M  V30 23302 H 2162 -0.35941 0.744818 0
M  V30 23303 H 2164.55 0.00748551 1.69698 0
M  V30 23304 H 2163.32 -0.315003 3.9003 0
M  V30 23305 H 2162.94 -1.97072 3.45323 0
M  V30 23306 N 2163.94 -1.54924 -0.289176 0
M  V30 23307 C 2164.89 -1.86692 -1.35701 0
M  V30 23308 C 2165.86 -0.716885 -1.49833 0
M  V30 23309 O 2167.04 -0.966637 -1.64502 0
M  V30 23310 C 2164.18 -2.13019 -2.71509 0
M  V30 23311 C 2163.29 -3.40605 -2.6573 0
M  V30 23312 C 2162.43 -3.56714 -3.9361 0
M  V30 23313 C 2161.47 -4.78049 -3.82276 0
M  V30 23314 N 2160.6 -4.90901 -5.01957 0
M  V30 23315 H 2165.44 -2.77776 -1.07909 0
M  V30 23316 H 2162.98 -1.37539 -0.52168 0
M  V30 23317 H 2164.94 -2.2628 -3.50504 0
M  V30 23318 H 2163.57 -1.25188 -2.97536 0
M  V30 23319 H 2162.62 -3.35902 -1.78533 0
M  V30 23320 H 2163.93 -4.29728 -2.53249 0
M  V30 23321 H 2163.09 -3.69704 -4.81045 0
M  V30 23322 H 2161.83 -2.65745 -4.08939 0
M  V30 23323 H 2160.83 -4.6508 -2.93225 0
M  V30 23324 H 2162.06 -5.70437 -3.68482 0
M  V30 23325 H 2160 -4.02859 -5.17726 0
M  V30 23326 H 2159.92 -5.74044 -4.91945 0
M  V30 23327 H 2161.19 -5.0826 -5.91009 0
M  V30 23328 N 2165.42 0.552936 -1.47582 0
M  V30 23329 C 2166.36 1.65963 -1.60389 0
M  V30 23330 C 2167.33 1.59979 -0.446754 0
M  V30 23331 O 2168.52 1.78749 -0.667351 0
M  V30 23332 C 2165.66 3.04278 -1.62815 0
M  V30 23333 C 2164.77 3.20668 -2.89476 0
M  V30 23334 C 2163.91 4.49406 -2.8321 0
M  V30 23335 C 2162.95 4.59243 -4.04676 0
M  V30 23336 N 2162.08 5.79341 -3.96621 0
M  V30 23337 H 2166.92 1.54355 -2.54909 0
M  V30 23338 H 2164.46 0.751844 -1.26435 0
M  V30 23339 H 2166.42 3.84377 -1.62204 0
M  V30 23340 H 2165.05 3.14712 -0.718048 0
M  V30 23341 H 2164.1 2.33973 -2.99935 0
M  V30 23342 H 2165.41 3.238 -3.79414 0
M  V30 23343 H 2164.57 5.3777 -2.80872 0
M  V30 23344 H 2163.3 4.4876 -1.90961 0
M  V30 23345 H 2162.31 3.69291 -4.07314 0
M  V30 23346 H 2163.53 4.61645 -4.98057 0
M  V30 23347 H 2161.48 5.79636 -3.07178 0
M  V30 23348 H 2161.4 5.8387 -4.80242 0
M  V30 23349 H 2162.67 6.70054 -3.98306 0
M  V30 23350 N 2166.89 1.35785 0.800009 0
M  V30 23351 C 2167.83 1.236 1.91829 0
M  V30 23352 C 2168.81 0.122446 1.62138 0
M  V30 23353 O 2169.99 0.291707 1.86229 0
M  V30 23354 C 2167.12 0.904648 3.26395 0
M  V30 23355 C 2166.16 2.03117 3.75027 0
M  V30 23356 S 2167 3.64773 3.92047 0
M  V30 23357 C 2168.15 3.33729 5.29505 0
M  V30 23358 H 2168.38 2.18255 2.01871 0
M  V30 23359 H 2165.92 1.21078 0.9581 0
M  V30 23360 H 2167.88 0.720277 4.04131 0
M  V30 23361 H 2166.54 -0.0239457 3.14091 0
M  V30 23362 H 2165.73 1.75363 4.72508 0
M  V30 23363 H 2165.33 2.17422 3.04309 0
M  V30 23364 H 2167.62 2.86965 6.13724 0
M  V30 23365 H 2168.57 4.30433 5.62257 0
M  V30 23366 H 2168.97 2.69335 4.96104 0
M  V30 23367 N 2168.37 -1.02294 1.19891 0
M  V30 23368 C 2169.65 -1.72912 0.914382 0
M  V30 23369 C 2170.03 -2.0302 -0.57845 0
M  V30 23370 O 2169.38 -1.68961 -1.53833 0
M  V30 23371 C 2169.59 -3.00157 1.78064 0
M  V30 23372 C 2170.94 -3.73547 2.0186 0
M  V30 23373 O 2171.96 -3.10098 1.75265 0
M  V30 23374 O 2170.82 -4.87629 2.46738 0
M  V30 23375 H 2167.91 -0.753281 0.341315 0
M  V30 23376 H 2170.46 -1.08199 1.30733 0
M  V30 23377 H 2169.23 -2.7418 2.79179 0
M  V30 23378 H 2168.85 -3.7261 1.38736 0
M  V30 23379 N 2169.85 -1.00378 -1.21499 0
M  V30 23380 C 2171.08 -0.704573 -1.94534 0
M  V30 23381 C 2171.49 0.732632 -1.74006 0
M  V30 23382 O 2170.85 1.49556 -1.04591 0
M  V30 23383 C 2170.9 -1.01461 -3.4697 0
M  V30 23384 O 2170.62 -2.39535 -3.66817 0
M  V30 23385 C 2172.12 -0.734641 -4.3717 0
M  V30 23386 H 2169.34 -0.259747 -0.618686 0
M  V30 23387 H 2171.89 -1.34149 -1.54351 0
M  V30 23388 H 2170.04 -0.423313 -3.8508 0
M  V30 23389 H 2170.46 -2.50302 -4.60922 0
M  V30 23390 H 2171.93 -1.00176 -5.42834 0
M  V30 23391 H 2172.41 0.331329 -4.37948 0
M  V30 23392 H 2173.01 -1.30749 -4.04703 0
M  V30 23393 N 2171.33 1.37038 -0.778354 0
M  V30 23394 C 2172.28 2.3207 -0.156991 0
M  V30 23395 C 2173.27 1.55262 0.677503 0
M  V30 23396 O 2174.48 1.70608 0.573826 0
M  V30 23397 H 2170.85 0.75132 -0.0319844 0
M  V30 23398 H 2172.82 2.82052 -0.974127 0
M  V30 23399 C 2171.57 3.40528 0.702542 0
M  V30 23400 H 2170.89 3.99739 0.0697802 0
M  V30 23401 H 2172.33 4.0937 1.10417 0
M  V30 23402 C 2170.79 2.81165 1.85602 0
M  V30 23403 O 2171.32 2.72442 2.95192 0
M  V30 23404 N 2169.53 2.38613 1.65868 0
M  V30 23405 H 2169.08 2.45907 0.767299 0
M  V30 23406 H 2169.03 1.99239 2.4321 0
M  V30 23407 N 2172.81 0.529439 1.48441 0
M  V30 23408 C 2173.75 -0.233627 2.29615 0
M  V30 23409 C 2174.72 -0.934301 1.37332 0
M  V30 23410 O 2175.91 -0.935433 1.66296 0
M  V30 23411 C 2173.05 -1.27491 3.20687 0
M  V30 23412 C 2172.16 -0.583135 4.28046 0
M  V30 23413 C 2171.3 -1.6073 5.06299 0
M  V30 23414 C 2170.34 -0.898962 6.05463 0
M  V30 23415 N 2169.47 -1.86865 6.76776 0
M  V30 23416 H 2174.31 0.464768 2.94353 0
M  V30 23417 H 2171.85 0.241037 1.45112 0
M  V30 23418 H 2173.81 -1.89092 3.71887 0
M  V30 23419 H 2172.44 -1.9417 2.57872 0
M  V30 23420 H 2171.49 0.146804 3.80117 0
M  V30 23421 H 2172.8 -0.0269268 4.98793 0
M  V30 23422 H 2171.96 -2.29761 5.61511 0
M  V30 23423 H 2170.7 -2.19741 4.35391 0
M  V30 23424 H 2169.7 -0.194579 5.49456 0
M  V30 23425 H 2170.93 -0.314978 6.78369 0
M  V30 23426 H 2168.87 -2.44784 6.08619 0
M  V30 23427 H 2168.79 -1.36386 7.43596 0
M  V30 23428 H 2170.06 -2.55096 7.36577 0
M  V30 23429 N 2174.29 -1.55364 0.264547 0
M  V30 23430 C 2175.56 -1.9133 -0.406489 0
M  V30 23431 C 2175.94 -1.18752 -1.74531 0
M  V30 23432 O 2175.29 -0.310831 -2.26376 0
M  V30 23433 C 2175.5 -3.44523 -0.557199 0
M  V30 23434 C 2176.85 -4.16107 -0.844973 0
M  V30 23435 O 2177.87 -3.50359 -0.642406 0
M  V30 23436 O 2176.73 -5.32438 -1.23175 0
M  V30 23437 H 2173.83 -0.796963 -0.220859 0
M  V30 23438 H 2176.37 -1.66846 0.309918 0
M  V30 23439 H 2175.14 -3.89397 0.385423 0
M  V30 23440 H 2174.77 -3.74926 -1.32348 0
M  V30 23441 N 2175.76 0.00833021 -1.57598 0
M  V30 23442 C 2177.04 0.731485 -1.81407 0
M  V30 23443 C 2177.42 1.9245 -0.867544 0
M  V30 23444 O 2176.77 2.28339 0.0856431 0
M  V30 23445 C 2176.98 1.14505 -3.29681 0
M  V30 23446 C 2178.33 1.55237 -3.95205 0
M  V30 23447 O 2179.35 1.23907 -3.33954 0
M  V30 23448 O 2178.21 2.13464 -5.03086 0
M  V30 23449 H 2175.3 0.355455 -0.746713 0
M  V30 23450 H 2177.85 -0.0164849 -1.69692 0
M  V30 23451 H 2176.62 0.294315 -3.90192 0
M  V30 23452 H 2176.24 1.95238 -3.46364 0
M  V30 23453 N 2177.24 1.55075 0.280956 0
M  V30 23454 C 2178.65 1.66097 0.852571 0
M  V30 23455 C 2179 0.582747 1.87346 0
M  V30 23456 O 2178.13 -0.277166 2.14618 0
M  V30 23457 C 2178.72 3.01102 1.55317 0
M  V30 23458 C 2177.28 3.14177 2.07292 0
M  V30 23459 C 2176.43 2.61864 0.912278 0
M  V30 23460 H 2179.38 1.58596 0.0574834 0
M  V30 23461 H 2179.4 2.93646 2.41976 0
M  V30 23462 H 2178.91 3.79555 0.809903 0
M  V30 23463 H 2177.01 2.40482 2.84604 0
M  V30 23464 H 2177.13 4.20627 2.29369 0
M  V30 23465 H 2175.49 2.1882 1.30345 0
M  V30 23466 H 2176.27 3.42814 0.18265 0
M  V30 23467 N 2178.72 -0.545102 1.47873 0
M  V30 23468 C 2179.63 -1.67829 1.63922 0
M  V30 23469 C 2180.65 -1.65989 0.521885 0
M  V30 23470 O 2181.82 -1.85216 0.791005 0
M  V30 23471 C 2178.89 -3.0432 1.66102 0
M  V30 23472 C 2177.95 -3.17134 2.89352 0
M  V30 23473 C 2177.18 -4.47114 2.91419 0
M  V30 23474 O 2177.4 -5.33307 2.02337 0
M  V30 23475 O 2176.34 -4.63974 3.83421 0
M  V30 23476 H 2180.16 -1.57229 2.59832 0
M  V30 23477 H 2177.75 -0.716489 1.31098 0
M  V30 23478 H 2179.63 -3.85524 1.70145 0
M  V30 23479 H 2178.31 -3.15277 0.733623 0
M  V30 23480 H 2177.21 -2.35282 2.90849 0
M  V30 23481 H 2178.55 -3.11086 3.81426 0
M  V30 23482 N 2180.2 -1.36208 -0.792797 0
M  V30 23483 C 2181.13 -1.32936 -1.91964 0
M  V30 23484 C 2182.11 -0.2014 -1.68903 0
M  V30 23485 O 2183.29 -0.39852 -1.90067 0
M  V30 23486 C 2180.42 -1.11449 -3.28932 0
M  V30 23487 C 2179.38 -2.21033 -3.66508 0
M  V30 23488 C 2178.7 -1.84693 -5.01789 0
M  V30 23489 C 2180 -3.63096 -3.75444 0
M  V30 23490 H 2181.7 -2.27226 -1.94958 0
M  V30 23491 H 2179.24 -1.09381 -0.936582 0
M  V30 23492 H 2181.2 -1.07796 -4.07379 0
M  V30 23493 H 2179.92 -0.136086 -3.26316 0
M  V30 23494 H 2178.58 -2.23806 -2.90356 0
M  V30 23495 H 2178.23 -0.854356 -4.95691 0
M  V30 23496 H 2177.93 -2.58059 -5.27901 0
M  V30 23497 H 2179.45 -1.8259 -5.82661 0
M  V30 23498 H 2180.87 -3.62569 -4.44091 0
M  V30 23499 H 2179.26 -4.35339 -4.13037 0
M  V30 23500 H 2180.33 -3.98247 -2.76636 0
M  V30 23501 N 2181.68 1.01656 -1.20431 0
M  V30 23502 C 2182.61 2.09853 -0.896499 0
M  V30 23503 C 2183.59 1.61893 0.151428 0
M  V30 23504 O 2184.77 1.88483 0.025002 0
M  V30 23505 C 2181.9 3.36949 -0.343986 0
M  V30 23506 C 2180.94 4.03799 -1.3729 0
M  V30 23507 S 2181.78 4.4771 -2.93796 0
M  V30 23508 C 2182.93 5.78008 -2.40121 0
M  V30 23509 H 2183.17 2.3564 -1.81277 0
M  V30 23510 H 2180.7 1.14773 -1.03279 0
M  V30 23511 H 2182.66 4.10488 -0.0317557 0
M  V30 23512 H 2181.32 3.09233 0.550783 0
M  V30 23513 H 2180.51 4.95238 -0.935689 0
M  V30 23514 H 2180.11 3.36484 -1.63261 0
M  V30 23515 H 2182.4 6.53183 -1.79885 0
M  V30 23516 H 2183.35 6.26525 -3.29957 0
M  V30 23517 H 2183.76 5.34272 -1.82247 0
M  V30 23518 N 2183.15 1.01021 1.20965 0
M  V30 23519 C 2184.08 0.5953 2.25784 0
M  V30 23520 C 2185.06 -0.386477 1.65651 0
M  V30 23521 O 2186.25 -0.273315 1.92267 0
M  V30 23522 C 2183.38 -0.0736489 3.47222 0
M  V30 23523 C 2182.33 0.828449 4.19906 0
M  V30 23524 C 2181.66 0.0256242 5.34694 0
M  V30 23525 C 2182.96 2.13351 4.76737 0
M  V30 23526 H 2184.65 1.4715 2.60744 0
M  V30 23527 H 2182.2 0.70899 1.25337 0
M  V30 23528 H 2184.15 -0.375423 4.19724 0
M  V30 23529 H 2182.88 -0.984519 3.11408 0
M  V30 23530 H 2181.54 1.11413 3.4926 0
M  V30 23531 H 2181.18 -0.886697 4.95123 0
M  V30 23532 H 2180.88 0.626319 5.84253 0
M  V30 23533 H 2182.41 -0.269844 6.10003 0
M  V30 23534 H 2183.82 1.89453 5.41092 0
M  V30 23535 H 2182.22 2.68451 5.36707 0
M  V30 23536 H 2183.29 2.80081 3.95832 0
M  V30 23537 N 2184.63 -1.36623 0.78561 0
M  V30 23538 C 2185.88 -1.98948 0.355551 0
M  V30 23539 C 2186.2 -1.62665 -1.07541 0
M  V30 23540 O 2185.47 -0.89879 -1.74065 0
M  V30 23541 H 2184.05 -0.735869 0.128476 0
M  V30 23542 H 2186.71 -1.66881 1.00681 0
M  V30 23543 H 2185.81 -3.08921 0.444316 0
M  V30 23544 N 2186.11 -0.537304 -1.48158 0
M  V30 23545 C 2187.53 -0.195663 -1.58396 0
M  V30 23546 C 2187.73 1.30132 -1.53843 0
M  V30 23547 O 2186.78 2.08011 -1.43135 0
M  V30 23548 C 2188.09 -0.804684 -2.89733 0
M  V30 23549 C 2189.64 -0.774086 -3.03277 0
M  V30 23550 C 2190.12 -1.36181 -4.37285 0
M  V30 23551 N 2191.61 -1.32411 -4.43871 0
M  V30 23552 C 2192.34 -1.74869 -5.46085 0
M  V30 23553 N 2191.84 -2.2509 -6.55215 0
M  V30 23554 N 2193.63 -1.66061 -5.3701 0
M  V30 23555 H 2185.78 -1.51014 -1.4936 0
M  V30 23556 H 2188.05 -0.628585 -0.709637 0
M  V30 23557 H 2187.75 -1.85596 -2.98742 0
M  V30 23558 H 2187.63 -0.286039 -3.76114 0
M  V30 23559 H 2190.01 0.26845 -2.93876 0
M  V30 23560 H 2190.09 -1.33028 -2.18489 0
M  V30 23561 H 2189.74 -2.40332 -4.47441 0
M  V30 23562 H 2189.67 -0.781239 -5.20773 0
M  V30 23563 H 2192.16 -0.956544 -3.65594 0
M  V30 23564 H 2192.47 -2.55463 -7.29355 0
M  V30 23565 H 2190.82 -2.29088 -6.56158 0
M  V30 23566 H 2194.01 -1.26618 -4.5065 0
M  V30 23567 H 2194.18 -1.9947 -6.16535 0
M  V30 23568 N 2187.59 1.55221 -0.272782 0
M  V30 23569 C 2188.52 2.18538 0.657 0
M  V30 23570 C 2189.5 1.14556 1.15393 0
M  V30 23571 O 2190.68 1.43069 1.22733 0
M  V30 23572 C 2187.81 2.80676 1.89575 0
M  V30 23573 C 2186.86 3.97939 1.53449 0
M  V30 23574 S 2187.69 5.31961 0.614675 0
M  V30 23575 C 2188.85 5.97567 1.86185 0
M  V30 23576 H 2189.08 2.97062 0.119003 0
M  V30 23577 H 2186.61 1.54295 -0.0570552 0
M  V30 23578 H 2188.57 3.17108 2.60677 0
M  V30 23579 H 2187.23 2.0205 2.40488 0
M  V30 23580 H 2186.42 4.401 2.45618 0
M  V30 23581 H 2186.03 3.62918 0.903673 0
M  V30 23582 H 2188.32 6.16658 2.80605 0
M  V30 23583 H 2189.26 6.9239 1.4833 0
M  V30 23584 H 2189.67 5.26901 2.02573 0
M  V30 23585 N 2189.07 2.77022e-05 1.576 0
M  V30 23586 C 2190.48 -0.35605 1.55578 0
M  V30 23587 C 2190.68 -1.74784 1.00264 0
M  V30 23588 O 2189.74 -2.44347 0.636465 0
M  V30 23589 C 2191.05 -0.231258 2.99809 0
M  V30 23590 C 2192.6 -0.306194 3.11499 0
M  V30 23591 C 2193.07 -0.210525 4.57516 0
M  V30 23592 N 2194.57 -0.268424 4.62422 0
M  V30 23593 C 2195.3 -0.217739 5.72986 0
M  V30 23594 N 2194.8 -0.117649 6.927 0
M  V30 23595 N 2196.59 -0.269606 5.61453 0
M  V30 23596 H 2188.74 0.91049 1.91895 0
M  V30 23597 H 2191 0.349005 0.881419 0
M  V30 23598 H 2190.71 0.726333 3.44118 0
M  V30 23599 H 2190.58 -1.01332 3.63334 0
M  V30 23600 H 2192.97 -1.25423 2.6712 0
M  V30 23601 H 2193.05 0.505733 2.50751 0
M  V30 23602 H 2192.7 0.733965 5.02569 0
M  V30 23603 H 2192.63 -1.04094 5.16209 0
M  V30 23604 H 2195.12 -0.347112 3.76302 0
M  V30 23605 H 2195.43 -0.0848705 7.72753 0
M  V30 23606 H 2193.77 -0.0832758 6.9495 0
M  V30 23607 H 2196.97 -0.345996 4.6682 0
M  V30 23608 H 2197.14 -0.22664 6.47604 0
M  V30 23609 N 2190.54 -1.55222 -0.272728 0
M  V30 23610 C 2191.78 -1.77592 -1.01194 0
M  V30 23611 C 2192.15 -0.565326 -1.83489 0
M  V30 23612 O 2193.35 -0.667288 -2.60386 0
M  V30 23613 C 2191.62 -3.04519 -1.87091 0
M  V30 23614 S 2193.18 -3.48009 -2.67273 0
M  V30 23615 H 2190 -0.623986 -0.340825 0
M  V30 23616 H 2192.6 -1.9345 -0.28234 0
M  V30 23617 H 2191.3 -3.90722 -1.25558 0
M  V30 23618 H 2190.83 -2.91328 -2.64371 0
M  V30 23619 H 2192.85 -3.07304 -3.89588 0
M  V30 23620 N 2192.02 0.537252 -1.4816 0
M  V30 23621 C 2192.95 1.65187 -1.65032 0
M  V30 23622 C 2193.93 1.62607 -0.499309 0
M  V30 23623 O 2195.12 1.79917 -0.731003 0
M  V30 23624 C 2192.25 3.03792 -1.68308 0
M  V30 23625 C 2191.2 3.21229 -2.82836 0
M  V30 23626 C 2190.53 4.60821 -2.71197 0
M  V30 23627 C 2191.83 3.04693 -4.24216 0
M  V30 23628 H 2193.52 1.51323 -2.58344 0
M  V30 23629 H 2191.07 0.726563 -1.24326 0
M  V30 23630 H 2193.02 3.81634 -1.787 0
M  V30 23631 H 2191.75 3.18662 -0.715691 0
M  V30 23632 H 2190.4 2.45802 -2.71987 0
M  V30 23633 H 2190.05 4.72517 -1.72443 0
M  V30 23634 H 2189.75 4.73434 -3.48043 0
M  V30 23635 H 2191.28 5.40772 -2.83546 0
M  V30 23636 H 2192.69 3.72334 -4.35936 0
M  V30 23637 H 2191.09 3.28804 -5.02004 0
M  V30 23638 H 2192.16 2.01201 -4.41187 0
M  V30 23639 N 2193.5 1.36626 0.785562 0
M  V30 23640 C 2194.41 1.33428 1.92961 0
M  V30 23641 C 2195.43 0.235882 1.72394 0
M  V30 23642 O 2196.6 0.468912 1.95865 0
M  V30 23643 C 2193.67 1.12668 3.27882 0
M  V30 23644 C 2192.73 2.32019 3.612 0
M  V30 23645 C 2191.96 2.1224 4.89684 0
M  V30 23646 O 2192.18 1.09955 5.59702 0
M  V30 23647 O 2191.12 3.00107 5.21746 0
M  V30 23648 H 2194.94 2.29757 1.98609 0
M  V30 23649 H 2192.53 1.17213 0.926363 0
M  V30 23650 H 2194.41 1.03024 4.08612 0
M  V30 23651 H 2193.09 0.194048 3.23118 0
M  V30 23652 H 2191.99 2.47233 2.80761 0
M  V30 23653 H 2193.33 3.23802 3.70693 0
M  V30 23654 N 2194.98 -1.01016 1.20969 0
M  V30 23655 C 2195.94 -2.07851 0.965954 0
M  V30 23656 C 2196.94 -1.60684 -0.0610263 0
M  V30 23657 O 2198.13 -1.73312 0.175711 0
M  V30 23658 C 2195.26 -3.37842 0.455573 0
M  V30 23659 H 2196.46 -2.30907 1.91369 0
M  V30 23660 H 2194.01 -1.17915 1.02596 0
M  V30 23661 H 2194.74 -3.20464 -0.497325 0
M  V30 23662 H 2194.53 -3.73405 1.19628 0
M  V30 23663 H 2196.02 -4.16487 0.304741 0
M  V30 23664 N 2196.46 -1.01661 -1.20428 0
M  V30 23665 C 2197.39 -0.607265 -2.25465 0
M  V30 23666 C 2198.37 0.377687 -1.65854 0
M  V30 23667 O 2199.55 0.263115 -1.92409 0
M  V30 23668 C 2196.68 0.0552339 -3.47256 0
M  V30 23669 C 2195.64 -0.850705 -4.1946 0
M  V30 23670 C 2194.96 -0.0539799 -5.34673 0
M  V30 23671 C 2196.26 -2.15876 -4.75599 0
M  V30 23672 H 2197.96 -1.48531 -2.5996 0
M  V30 23673 H 2195.5 -0.715627 -1.24959 0
M  V30 23674 H 2197.46 0.353159 -4.19918 0
M  V30 23675 H 2196.18 0.967991 -3.11925 0
M  V30 23676 H 2194.84 -1.13263 -3.48665 0
M  V30 23677 H 2194.49 0.860427 -4.95586 0
M  V30 23678 H 2194.19 -0.657295 -5.83912 0
M  V30 23679 H 2195.71 0.237491 -6.10138 0
M  V30 23680 H 2197.12 -1.9232 -5.40079 0
M  V30 23681 H 2195.52 -2.71293 -5.35276 0
M  V30 23682 H 2196.59 -2.82176 -3.94341 0
M  V30 23683 N 2197.93 1.36205 -0.792844 0
M  V30 23684 C 2199.18 1.98756 -0.366097 0
M  V30 23685 C 2199.5 1.63233 1.06677 0
M  V30 23686 O 2198.77 0.908009 1.73586 0
M  V30 23687 H 2197.35 0.735177 -0.132377 0
M  V30 23688 H 2200.02 1.66345 -1.01564 0
M  V30 23689 H 2199.11 3.08681 -0.460692 0
M  V30 23690 N 2199.41 0.545154 1.47871 0
M  V30 23691 C 2200.32 -0.212705 2.33634 0
M  V30 23692 C 2201.34 -0.923957 1.47442 0
M  V30 23693 O 2202.51 -0.89554 1.80394 0
M  V30 23694 C 2199.58 -1.23687 3.23886 0
M  V30 23695 C 2198.64 -0.534342 4.25962 0
M  V30 23696 C 2197.87 -1.50971 5.11902 0
M  V30 23697 O 2198.1 -2.74361 5.00082 0
M  V30 23698 O 2197.03 -1.0408 5.92833 0
M  V30 23699 H 2200.86 0.490469 2.99713 0
M  V30 23700 H 2198.44 0.305896 1.46235 0
M  V30 23701 H 2200.32 -1.82836 3.7967 0
M  V30 23702 H 2199 -1.92218 2.6045 0
M  V30 23703 H 2197.91 0.0980336 3.73972 0
M  V30 23704 H 2199.24 0.1093 4.92079 0
M  V30 23705 N 2200.89 -1.55074 0.28101 0
M  V30 23706 C 2202.14 -2.00745 -0.327538 0
M  V30 23707 C 2202.49 -1.166 -1.53043 0
M  V30 23708 O 2201.78 -0.229484 -1.90221 0
M  V30 23709 C 2201.98 -3.49343 -0.754595 0
M  V30 23710 C 2201.81 -4.47869 0.405369 0
M  V30 23711 C 2200.58 -4.97382 0.891034 0
M  V30 23712 C 2202.78 -4.99033 1.2438 0
M  V30 23713 N 2200.76 -5.7972 2.01985 0
M  V30 23714 C 2202.13 -5.78876 2.22041 0
M  V30 23715 C 2204.18 -4.8126 1.27646 0
M  V30 23716 C 2202.89 -6.42841 3.22721 0
M  V30 23717 C 2204.91 -5.46027 2.27174 0
M  V30 23718 C 2204.27 -6.25687 3.23567 0
M  V30 23719 H 2200.37 -0.777382 -0.0848637 0
M  V30 23720 H 2202.96 -1.90412 0.406375 0
M  V30 23721 H 2201.13 -3.60007 -1.45772 0
M  V30 23722 H 2202.86 -3.81837 -1.34098 0
M  V30 23723 H 2199.62 -4.71269 0.469345 0
M  V30 23724 H 2200.04 -6.25579 2.58805 0
M  V30 23725 H 2204.68 -4.19273 0.54501 0
M  V30 23726 H 2202.4 -7.03973 3.96796 0
M  V30 23727 H 2205.99 -5.34213 2.3045 0
M  V30 23728 H 2204.87 -6.74917 3.99321 0
M  V30 23729 N 2202.37 -0.00838561 -1.57598 0
M  V30 23730 C 2203.62 0.673366 -1.90552 0
M  V30 23731 C 2203.94 1.73845 -0.883332 0
M  V30 23732 O 2203.21 1.95744 0.0781097 0
M  V30 23733 H 2201.79 0.251704 -0.703316 0
M  V30 23734 H 2204.45 -0.0512934 -1.94832 0
M  V30 23735 H 2203.55 1.1393 -2.90562 0
M  V30 23736 N 2203.85 1.55365 0.264492 0
M  V30 23737 C 2204.78 1.85251 1.34962 0
M  V30 23738 C 2205.79 0.737551 1.45135 0
M  V30 23739 O 2206.98 1.0155 1.46799 0
M  V30 23740 C 2204.08 2.00802 2.73005 0
M  V30 23741 C 2203.25 3.3153 2.85319 0
M  V30 23742 C 2202.31 3.37041 4.04091 0
M  V30 23743 O 2201.34 4.10365 3.94448 0
M  V30 23744 N 2202.54 2.65058 5.16454 0
M  V30 23745 H 2205.31 2.78915 1.09667 0
M  V30 23746 H 2202.87 1.55386 0.454608 0
M  V30 23747 H 2204.86 2.0185 3.50769 0
M  V30 23748 H 2203.43 1.13965 2.91085 0
M  V30 23749 H 2202.65 3.42948 1.94371 0
M  V30 23750 H 2203.94 4.17729 2.90483 0
M  V30 23751 H 2203.34 2.05185 5.27177 0
M  V30 23752 H 2201.89 2.71819 5.92417 0
M  V30 23753 N 2205.33 -0.529387 1.48443 0
M  V30 23754 C 2206.26 -1.6431 1.65905 0
M  V30 23755 C 2207.24 -1.6234 0.507926 0
M  V30 23756 O 2208.42 -1.79526 0.740534 0
M  V30 23757 C 2205.55 -3.02895 1.69917 0
M  V30 23758 C 2204.51 -3.19724 2.84536 0
M  V30 23759 C 2203.83 -4.59377 2.73637 0
M  V30 23760 C 2205.13 -3.02439 4.25826 0
M  V30 23761 H 2206.83 -1.49951 2.59143 0
M  V30 23762 H 2204.37 -0.71996 1.2471 0
M  V30 23763 H 2206.32 -3.80681 1.80721 0
M  V30 23764 H 2205.05 -3.18278 0.73258 0
M  V30 23765 H 2203.71 -2.44356 2.73287 0
M  V30 23766 H 2203.36 -4.71596 1.74946 0
M  V30 23767 H 2203.06 -4.71582 3.50549 0
M  V30 23768 H 2204.58 -5.3926 2.8641 0
M  V30 23769 H 2205.99 -3.70016 4.37905 0
M  V30 23770 H 2204.39 -3.26137 5.03741 0
M  V30 23771 H 2205.46 -1.98859 4.42248 0
M  V30 23772 N 2206.8 -1.37041 -0.778305 0
M  V30 23773 C 2207.75 -1.28792 -1.8814 0
M  V30 23774 C 2208.74 -0.177091 -1.59922 0
M  V30 23775 O 2209.93 -0.410903 -1.72164 0
M  V30 23776 C 2207.06 -1.09061 -3.25516 0
M  V30 23777 C 2206.14 -2.2466 -3.59706 0
M  V30 23778 N 2206.54 -3.50025 -3.65125 0
M  V30 23779 C 2204.83 -2.1667 -3.89833 0
M  V30 23780 C 2205.53 -4.26214 -3.95875 0
M  V30 23781 N 2204.51 -3.55278 -4.11434 0
M  V30 23782 H 2208.31 -2.2374 -1.90571 0
M  V30 23783 H 2205.83 -1.29919 -0.974412 0
M  V30 23784 H 2207.82 -1.01237 -4.04421 0
M  V30 23785 H 2206.48 -0.150237 -3.24352 0
M  V30 23786 H 2207.49 -3.84017 -3.47493 0
M  V30 23787 H 2204.17 -1.30652 -3.9653 0
M  V30 23788 H 2205.56 -5.34681 -4.06898 0
M  V30 23789 N 2208.28 1.00373 -1.21503 0
M  V30 23790 C 2209.21 2.09341 -0.933211 0
M  V30 23791 C 2210.23 1.62583 0.084061 0
M  V30 23792 O 2211.42 1.7788 -0.148594 0
M  V30 23793 C 2208.52 3.36764 -0.379928 0
M  V30 23794 C 2207.69 4.12602 -1.45184 0
M  V30 23795 C 2206.75 5.18314 -0.907567 0
M  V30 23796 O 2205.77 5.46504 -1.59129 0
M  V30 23797 N 2206.98 5.79841 0.276547 0
M  V30 23798 H 2209.74 2.34101 -1.87128 0
M  V30 23799 H 2207.3 1.16866 -1.12045 0
M  V30 23800 H 2209.29 4.047 -0.00138601 0
M  V30 23801 H 2207.86 3.09152 0.462994 0
M  V30 23802 H 2207.08 3.39451 -2.00417 0
M  V30 23803 H 2208.37 4.60046 -2.17336 0
M  V30 23804 H 2207.77 5.59292 0.849049 0
M  V30 23805 H 2206.33 6.49064 0.596588 0
M  V30 23806 N 2209.76 1.02298 1.19887 0
M  V30 23807 C 2210.69 0.556826 2.22333 0
M  V30 23808 C 2211.7 -0.364171 1.58675 0
M  V30 23809 O 2212.89 -0.161502 1.77768 0
M  V30 23810 C 2209.99 -0.208634 3.38257 0
M  V30 23811 C 2209.17 0.715846 4.31503 0
M  V30 23812 C 2208.23 -0.00316348 5.262 0
M  V30 23813 O 2207.25 0.621457 5.65797 0
M  V30 23814 N 2208.45 -1.27589 5.66305 0
M  V30 23815 H 2211.22 1.43789 2.62954 0
M  V30 23816 H 2208.78 0.901285 1.34493 0
M  V30 23817 H 2210.77 -0.69904 3.98617 0
M  V30 23818 H 2209.34 -0.99105 2.96474 0
M  V30 23819 H 2208.56 1.38645 3.69014 0
M  V30 23820 H 2209.85 1.34437 4.90718 0
M  V30 23821 H 2209.25 -1.80419 5.36158 0
M  V30 23822 H 2207.8 -1.71091 6.28945 0
M  V30 23823 N 2211.24 -1.35782 0.800057 0
M  V30 23824 C 2212.48 -2.00781 0.382926 0
M  V30 23825 C 2212.84 -1.62105 -1.02888 0
M  V30 23826 O 2214.04 -2.19774 -1.54767 0
M  V30 23827 C 2212.31 -3.5309 0.553362 0
M  V30 23828 S 2213.87 -4.38219 0.225686 0
M  V30 23829 H 2210.69 -0.695901 0.145749 0
M  V30 23830 H 2213.29 -1.65487 1.04088 0
M  V30 23831 H 2212 -3.78726 1.58098 0
M  V30 23832 H 2211.53 -3.93216 -0.120145 0
M  V30 23833 H 2213.54 -4.86647 -0.968989 0
M  V30 23834 N 2212.72 -0.552988 -1.4758 0
M  V30 23835 C 2213.96 -0.0296604 -2.04378 0
M  V30 23836 C 2214.32 1.29391 -1.41852 0
M  V30 23837 O 2215.52 1.90467 -1.89673 0
M  V30 23838 C 2213.79 0.0660743 -3.57339 0
M  V30 23839 S 2215.35 0.536137 -4.35512 0
M  V30 23840 H 2212.17 -0.0231116 -0.710624 0
M  V30 23841 H 2214.77 -0.738766 -1.81004 0
M  V30 23842 H 2213.47 -0.901667 -4.00372 0
M  V30 23843 H 2213.01 0.798863 -3.85204 0
M  V30 23844 H 2215.02 1.7966 -4.62533 0
M  V30 23845 N 2214.19 1.54923 -0.28923 0
M  V30 23846 C 2215.1 2.26749 0.601824 0
M  V30 23847 C 2216.12 1.29842 1.15832 0
M  V30 23848 O 2217.3 1.62804 1.18561 0
M  V30 23849 C 2214.36 2.98532 1.76294 0
M  V30 23850 C 2213.42 4.1095 1.2417 0
M  V30 23851 C 2212.65 4.793 2.34748 0
M  V30 23852 O 2212.88 4.46939 3.54404 0
M  V30 23853 O 2211.81 5.66954 2.02105 0
M  V30 23854 H 2215.64 3.03694 0.0195345 0
M  V30 23855 H 2213.22 1.49295 -0.0561131 0
M  V30 23856 H 2215.1 3.43596 2.43967 0
M  V30 23857 H 2213.78 2.24493 2.33205 0
M  V30 23858 H 2212.69 3.70312 0.531039 0
M  V30 23859 H 2214.02 4.86932 0.718166 0
M  V30 23860 N 2215.67 0.0167433 1.57591 0
M  V30 23861 C 2216.62 -0.969215 2.09463 0
M  V30 23862 C 2217.59 -1.33087 0.993833 0
M  V30 23863 O 2218.77 -1.42634 1.26729 0
M  V30 23864 C 2215.91 -2.25046 2.61626 0
M  V30 23865 C 2215.03 -1.94636 3.8567 0
M  V30 23866 C 2214.16 -3.16964 4.26271 0
M  V30 23867 C 2213.2 -2.82316 5.43106 0
M  V30 23868 N 2212.34 -3.97232 5.78922 0
M  V30 23869 H 2217.18 -0.519945 2.93429 0
M  V30 23870 H 2214.71 -0.245062 1.45044 0
M  V30 23871 H 2216.67 -2.99971 2.89954 0
M  V30 23872 H 2215.3 -2.67612 1.8051 0
M  V30 23873 H 2214.35 -1.10006 3.64147 0
M  V30 23874 H 2215.67 -1.65109 4.70681 0
M  V30 23875 H 2214.82 -4.0022 4.5597 0
M  V30 23876 H 2213.56 -3.49642 3.40002 0
M  V30 23877 H 2212.56 -1.9747 5.13114 0
M  V30 23878 H 2213.79 -2.50868 6.31064 0
M  V30 23879 H 2211.74 -4.29776 4.95609 0
M  V30 23880 H 2211.65 -3.71287 6.58545 0
M  V30 23881 H 2212.92 -4.81228 6.13221 0
M  V30 23882 N 2217.15 -1.55503 -0.256249 0
M  V30 23883 C 2218.4 -1.78077 -0.982853 0
M  V30 23884 C 2218.75 -0.584141 -1.83318 0
M  V30 23885 O 2218.04 0.422845 -1.86876 0
M  V30 23886 C 2218.24 -3.03694 -1.88427 0
M  V30 23887 C 2218.07 -4.35461 -1.12268 0
M  V30 23888 C 2216.84 -4.98411 -0.83156 0
M  V30 23889 C 2219.04 -5.11816 -0.504843 0
M  V30 23890 N 2217.02 -6.13884 -0.0449344 0
M  V30 23891 C 2218.39 -6.19826 0.146805 0
M  V30 23892 C 2220.44 -4.96173 -0.414368 0
M  V30 23893 C 2219.15 -7.13894 0.880229 0
M  V30 23894 C 2221.17 -5.9061 0.305502 0
M  V30 23895 C 2220.53 -6.98021 0.945824 0
M  V30 23896 H 2216.63 -0.7037 -0.341072 0
M  V30 23897 H 2219.22 -1.92998 -0.256875 0
M  V30 23898 H 2217.39 -2.90119 -2.58235 0
M  V30 23899 H 2219.12 -3.14602 -2.54573 0
M  V30 23900 H 2215.88 -4.59649 -1.14102 0
M  V30 23901 H 2216.3 -6.76165 0.336198 0
M  V30 23902 H 2220.94 -4.13217 -0.89509 0
M  V30 23903 H 2218.66 -7.96358 1.37258 0
M  V30 23904 H 2222.25 -5.80583 0.376048 0
M  V30 23905 H 2221.13 -7.69838 1.49397 0
M  V30 23906 N 2218.63 0.521507 -1.48721 0
M  V30 23907 C 2219.86 1.3014 -1.60846 0
M  V30 23908 C 2220.27 1.86831 -0.271929 0
M  V30 23909 O 2219.63 1.66827 0.739939 0
M  V30 23910 C 2219.68 2.44625 -2.6616 0
M  V30 23911 O 2219.4 1.90268 -3.94626 0
M  V30 23912 C 2220.9 3.36317 -2.88801 0
M  V30 23913 H 2218.12 0.395459 -0.542082 0
M  V30 23914 H 2220.67 0.628251 -1.94611 0
M  V30 23915 H 2218.82 3.07808 -2.3523 0
M  V30 23916 H 2219.23 2.65271 -4.52472 0
M  V30 23917 H 2220.71 4.12976 -3.66271 0
M  V30 23918 H 2221.19 3.92066 -1.97941 0
M  V30 23919 H 2221.79 2.78919 -3.21068 0
M  V30 23920 N 2220.11 1.37452 0.771027 0
M  V30 23921 C 2221.04 1.35974 1.89825 0
M  V30 23922 C 2222.02 0.228246 1.68562 0
M  V30 23923 O 2223.2 0.428708 1.89409 0
M  V30 23924 C 2220.33 1.16668 3.27118 0
M  V30 23925 C 2219.29 2.26836 3.62946 0
M  V30 23926 C 2218.61 1.92652 4.98788 0
M  V30 23927 C 2219.91 3.69023 3.6962 0
M  V30 23928 H 2221.61 2.30299 1.91319 0
M  V30 23929 H 2219.15 1.10857 0.919062 0
M  V30 23930 H 2221.11 1.14263 4.05613 0
M  V30 23931 H 2219.83 0.187983 3.26059 0
M  V30 23932 H 2218.49 2.28397 2.86759 0
M  V30 23933 H 2218.14 0.933108 4.94269 0
M  V30 23934 H 2217.84 2.66425 5.23729 0
M  V30 23935 H 2219.36 1.91836 5.79682 0
M  V30 23936 H 2220.77 3.69588 4.38266 0
M  V30 23937 H 2219.17 4.41855 4.06059 0
M  V30 23938 H 2220.24 4.02597 2.70266 0
M  V30 23939 N 2221.58 -0.997276 1.22033 0
M  V30 23940 C 2222.83 -1.73876 1.04379 0
M  V30 23941 C 2223.16 -1.89589 -0.420682 0
M  V30 23942 O 2222.44 -1.43586 -1.312 0
M  V30 23943 C 2222.72 -3.14688 1.75052 0
M  V30 23944 C 2222.57 -3.06651 3.29067 0
M  V30 23945 C 2223.89 -4.13772 1.49936 0
M  V30 23946 H 2221.01 -0.631127 0.380589 0
M  V30 23947 H 2223.65 -1.16214 1.50314 0
M  V30 23948 H 2221.8 -3.63917 1.36002 0
M  V30 23949 H 2223.48 -2.65076 3.77534 0
M  V30 23950 H 2221.72 -2.43562 3.58971 0
M  V30 23951 H 2222.39 -4.06275 3.73691 0
M  V30 23952 H 2224.87 -3.73281 1.83849 0
M  V30 23953 H 2223.74 -5.10424 2.01887 0
M  V30 23954 H 2224 -4.39994 0.431006 0
M  V30 23955 N 2223.06 -1.02932 -1.19343 0
M  V30 23956 C 2224.01 -0.604041 -2.2462 0
M  V30 23957 C 2225 0.363558 -1.65453 0
M  V30 23958 O 2226.21 0.232088 -1.78497 0
M  V30 23959 H 2222.59 -0.177073 -0.730855 0
M  V30 23960 H 2224.56 -1.50259 -2.57808 0
M  V30 23961 C 2223.31 0.0288516 -3.47688 0
M  V30 23962 H 2222.63 -0.70672 -3.93504 0
M  V30 23963 H 2224.07 0.289358 -4.23011 0
M  V30 23964 C 2222.53 1.27555 -3.11819 0
M  V30 23965 O 2223.06 2.36756 -3.24514 0
M  V30 23966 N 2221.26 1.16448 -2.66248 0
M  V30 23967 H 2220.81 0.275869 -2.56119 0
M  V30 23968 H 2220.77 1.99957 -2.4262 0
M  V30 23969 N 2224.54 1.35356 -0.807246 0
M  V30 23970 C 2225.82 1.93109 -0.31116 0
M  V30 23971 C 2226.2 1.73721 1.19934 0
M  V30 23972 O 2225.55 1.10661 1.99916 0
M  V30 23973 C 2225.76 3.41423 -0.723287 0
M  V30 23974 C 2227.1 4.18568 -0.713152 0
M  V30 23975 O 2228.13 3.4994 -0.664873 0
M  V30 23976 O 2226.99 5.41018 -0.772118 0
M  V30 23977 H 2224.08 0.82297 -0.0815405 0
M  V30 23978 H 2226.63 1.44428 -0.890988 0
M  V30 23979 H 2225.4 3.49267 -1.76432 0
M  V30 23980 H 2225.02 3.97424 -0.118302 0
M  V30 23981 N 2226.02 0.560807 1.47284 0
M  V30 23982 C 2226.93 -0.187913 2.33846 0
M  V30 23983 C 2227.94 -0.908267 1.48413 0
M  V30 23984 O 2229.12 -0.876357 1.81334 0
M  V30 23985 C 2226.19 -1.20245 3.2518 0
M  V30 23986 C 2225.25 -0.489133 4.26504 0
M  V30 23987 C 2224.48 -1.45533 5.13474 0
M  V30 23988 O 2224.7 -2.69041 5.02964 0
M  V30 23989 O 2223.64 -0.977859 5.93904 0
M  V30 23990 H 2227.46 0.52223 2.99176 0
M  V30 23991 H 2225.05 0.321389 1.45902 0
M  V30 23992 H 2226.93 -1.78799 3.81587 0
M  V30 23993 H 2225.6 -1.89445 2.62474 0
M  V30 23994 H 2224.51 0.137693 3.73847 0
M  V30 23995 H 2225.84 0.161485 4.91935 0
M  V30 23996 N 2227.5 -1.54768 0.297442 0
M  V30 23997 C 2228.72 -2.04479 -0.315587 0
M  V30 23998 C 2229.14 -1.17489 -1.4779 0
M  V30 23999 O 2228.5 -0.199742 -1.81404 0
M  V30 24000 C 2228.55 -3.5309 -0.775238 0
M  V30 24001 O 2228.27 -4.36772 0.340808 0
M  V30 24002 C 2229.77 -4.18784 -1.45379 0
M  V30 24003 H 2226.99 -0.667435 -0.0690769 0
M  V30 24004 H 2229.53 -1.99797 0.436038 0
M  V30 24005 H 2227.69 -3.58143 -1.47689 0
M  V30 24006 H 2228.1 -5.24497 -0.0164113 0
M  V30 24007 H 2229.58 -5.24302 -1.7266 0
M  V30 24008 H 2230.05 -3.68303 -2.39268 0
M  V30 24009 H 2230.66 -4.17796 -0.795401 0
M  V30 24010 N 2228.97 -0.0251005 -1.5758 0
M  V30 24011 C 2229.91 0.98676 -2.06871 0
M  V30 24012 C 2230.92 1.29136 -0.991354 0
M  V30 24013 O 2232.11 1.25671 -1.26763 0
M  V30 24014 C 2229.21 2.31521 -2.4749 0
M  V30 24015 C 2228.38 2.19636 -3.78257 0
M  V30 24016 C 2227.44 3.35381 -4.0547 0
M  V30 24017 O 2226.47 3.12446 -4.7578 0
M  V30 24018 N 2227.67 4.59044 -3.55329 0
M  V30 24019 H 2230.43 0.566224 -2.94303 0
M  V30 24020 H 2227.99 0.161747 -1.6109 0
M  V30 24021 H 2229.99 3.07772 -2.6279 0
M  V30 24022 H 2228.56 2.65229 -1.65445 0
M  V30 24023 H 2227.78 1.28138 -3.72793 0
M  V30 24024 H 2229.06 2.08895 -4.6394 0
M  V30 24025 H 2228.46 4.80573 -2.9844 0
M  V30 24026 H 2227.02 5.32477 -3.75914 0
M  V30 24027 N 2230.45 1.55637 0.247999 0
M  V30 24028 C 2231.42 1.89423 1.29041 0
M  V30 24029 C 2232.42 0.770606 1.41132 0
M  V30 24030 O 2233.61 1.03861 1.39852 0
M  V30 24031 C 2230.74 2.12169 2.66828 0
M  V30 24032 H 2231.93 2.8263 1.003 0
M  V30 24033 H 2229.48 1.48512 0.487239 0
M  V30 24034 H 2230.22 1.21427 3.00709 0
M  V30 24035 H 2230 2.94002 2.59433 0
M  V30 24036 H 2231.49 2.39496 3.42098 0
M  V30 24037 N 2231.93 -0.513613 1.48996 0
M  V30 24038 C 2232.88 -1.61653 1.64733 0
M  V30 24039 C 2233.85 -1.58738 0.489012 0
M  V30 24040 O 2235.03 -1.76916 0.714509 0
M  V30 24041 C 2232.17 -2.99855 1.70825 0
M  V30 24042 C 2231.29 -3.1288 2.97876 0
M  V30 24043 C 2230.42 -4.41739 2.95025 0
M  V30 24044 C 2229.46 -4.48352 4.1671 0
M  V30 24045 N 2228.6 -5.68622 4.11842 0
M  V30 24046 H 2233.44 -1.47542 2.58912 0
M  V30 24047 H 2230.97 -0.718057 1.28384 0
M  V30 24048 H 2232.93 -3.79941 1.72338 0
M  V30 24049 H 2231.56 -3.12698 0.801236 0
M  V30 24050 H 2230.61 -2.25939 3.06033 0
M  V30 24051 H 2231.93 -3.13626 3.87866 0
M  V30 24052 H 2231.08 -5.30134 2.95031 0
M  V30 24053 H 2229.82 -4.43539 2.02792 0
M  V30 24054 H 2228.82 -3.58362 4.16962 0
M  V30 24055 H 2230.05 -4.48278 5.10121 0
M  V30 24056 H 2228 -5.71288 3.22438 0
M  V30 24057 H 2227.91 -5.70932 4.95553 0
M  V30 24058 H 2229.18 -6.59258 4.15931 0
M  V30 24059 N 2233.41 -1.37859 -0.763727 0
M  V30 24060 C 2234.34 -1.28643 -1.88484 0
M  V30 24061 C 2235.32 -0.165391 -1.61757 0
M  V30 24062 O 2236.5 -0.34098 -1.8539 0
M  V30 24063 C 2233.63 -0.990868 -3.23882 0
M  V30 24064 C 2232.68 -2.12989 -3.6951 0
M  V30 24065 S 2233.51 -3.75039 -3.82238 0
M  V30 24066 C 2234.67 -3.4765 -5.20471 0
M  V30 24067 H 2234.9 -2.23531 -1.96014 0
M  V30 24068 H 2232.43 -1.23575 -0.925662 0
M  V30 24069 H 2234.39 -0.827172 -4.0208 0
M  V30 24070 H 2233.05 -0.0593384 -3.14044 0
M  V30 24071 H 2232.24 -1.87829 -4.67692 0
M  V30 24072 H 2231.85 -2.25413 -2.98437 0
M  V30 24073 H 2234.14 -3.03136 -6.059 0
M  V30 24074 H 2235.08 -4.45189 -5.50647 0
M  V30 24075 H 2235.49 -2.82394 -4.88788 0
M  V30 24076 N 2234.89 0.990791 -1.22561 0
M  V30 24077 C 2235.85 2.06288 -0.998899 0
M  V30 24078 C 2236.85 1.60761 0.0354551 0
M  V30 24079 O 2238.04 1.7301 -0.203261 0
M  V30 24080 C 2235.17 3.37075 -0.509263 0
M  V30 24081 H 2236.37 2.27833 -1.95018 0
M  V30 24082 H 2233.92 1.16267 -1.04459 0
M  V30 24083 H 2234.65 3.21215 0.446279 0
M  V30 24084 H 2234.44 3.71455 -1.25554 0
M  V30 24085 H 2235.93 4.15949 -0.370961 0
M  V30 24086 N 2236.37 1.03564 1.18795 0
M  V30 24087 C 2237.78 0.753941 1.40669 0
M  V30 24088 C 2237.98 -0.658652 1.90431 0
M  V30 24089 O 2237.04 -1.42363 2.0854 0
M  V30 24090 C 2238.35 1.79578 2.41189 0
M  V30 24091 C 2239.9 1.81611 2.54925 0
M  V30 24092 C 2240.37 2.84772 3.58704 0
M  V30 24093 N 2241.86 2.83632 3.66207 0
M  V30 24094 C 2242.6 3.60106 4.46219 0
M  V30 24095 N 2242.1 4.46317 5.2988 0
M  V30 24096 N 2243.89 3.48618 4.40933 0
M  V30 24097 H 2236.04 1.94729 0.848187 0
M  V30 24098 H 2238.3 0.842272 0.435066 0
M  V30 24099 H 2238.01 2.80876 2.11664 0
M  V30 24100 H 2237.88 1.62371 3.40464 0
M  V30 24101 H 2240.27 0.809867 2.8377 0
M  V30 24102 H 2240.35 2.02894 1.55781 0
M  V30 24103 H 2239.99 3.85572 3.306 0
M  V30 24104 H 2239.92 2.60745 4.57515 0
M  V30 24105 H 2242.42 2.2111 3.06462 0
M  V30 24106 H 2242.73 5.01392 5.8807 0
M  V30 24107 H 2241.07 4.50386 5.29318 0
M  V30 24108 H 2244.26 2.80674 3.74619 0
M  V30 24109 H 2244.44 4.08467 5.03049 0
M  V30 24110 N 2237.84 -1.34926 0.814413 0
M  V30 24111 C 2238.78 -2.27523 0.175681 0
M  V30 24112 C 2239.75 -1.48472 -0.662927 0
M  V30 24113 O 2240.94 -1.77713 -0.628514 0
M  V30 24114 C 2238.07 -3.30167 -0.755458 0
M  V30 24115 C 2237.11 -4.265 0.00452802 0
M  V30 24116 S 2237.94 -5.1831 1.34591 0
M  V30 24117 C 2239.1 -6.24493 0.419424 0
M  V30 24118 H 2239.33 -2.81349 0.96074 0
M  V30 24119 H 2236.87 -1.41845 0.609871 0
M  V30 24120 H 2238.82 -3.89798 -1.28716 0
M  V30 24121 H 2237.49 -2.75205 -1.51397 0
M  V30 24122 H 2236.68 -4.99073 -0.70299 0
M  V30 24123 H 2236.28 -3.71079 0.466512 0
M  V30 24124 H 2238.57 -6.76363 -0.392313 0
M  V30 24125 H 2239.52 -6.99273 1.11458 0
M  V30 24126 H 2239.92 -5.64499 0.0116381 0
M  V30 24127 N 2239.32 -0.56861 -1.46985 0
M  V30 24128 C 2240.28 0.162326 -2.28624 0
M  V30 24129 C 2241.28 0.832078 -1.37598 0
M  V30 24130 O 2242.47 0.686192 -1.60116 0
M  V30 24131 C 2239.61 1.23873 -3.17598 0
M  V30 24132 H 2240.8 -0.554951 -2.94721 0
M  V30 24133 H 2238.35 -0.326003 -1.52862 0
M  V30 24134 H 2239.09 1.98804 -2.56218 0
M  V30 24135 H 2238.87 0.763151 -3.84602 0
M  V30 24136 H 2240.36 1.75178 -3.79081 0
M  V30 24137 N 2240.8 1.54608 -0.305646 0
M  V30 24138 C 2241.76 2.22365 0.555551 0
M  V30 24139 C 2242.76 1.21121 1.05766 0
M  V30 24140 O 2243.95 1.45824 0.952946 0
M  V30 24141 C 2241.08 2.91367 1.76969 0
M  V30 24142 H 2242.28 2.99878 -0.0365099 0
M  V30 24143 H 2239.83 1.56198 -0.0565281 0
M  V30 24144 H 2240.57 2.17945 2.40147 0
M  V30 24145 H 2240.35 3.6559 1.41726 0
M  V30 24146 H 2241.84 3.43043 2.38142 0
M  V30 24147 N 2242.28 0.033457 1.57564 0
M  V30 24148 C 2243.24 -0.932011 2.09395 0
M  V30 24149 C 2244.24 -1.25132 1.00988 0
M  V30 24150 O 2245.43 -1.19094 1.27131 0
M  V30 24151 C 2242.56 -2.24725 2.56342 0
M  V30 24152 H 2243.76 -0.483033 2.95984 0
M  V30 24153 H 2241.31 -0.214653 1.54819 0
M  V30 24154 H 2242.04 -2.74242 1.73095 0
M  V30 24155 H 2241.83 -2.02859 3.35545 0
M  V30 24156 H 2243.32 -2.93918 2.96651 0
M  V30 24157 N 2243.76 -1.55766 -0.239741 0
M  V30 24158 C 2244.72 -1.90105 -1.28034 0
M  V30 24159 C 2245.72 -0.77808 -1.40722 0
M  V30 24160 O 2246.91 -1.04601 -1.39299 0
M  V30 24161 C 2244.04 -2.13581 -2.65699 0
M  V30 24162 H 2245.23 -2.83158 -0.987998 0
M  V30 24163 H 2242.79 -1.48768 -0.479356 0
M  V30 24164 H 2243.52 -1.2302 -3.00061 0
M  V30 24165 H 2243.31 -2.95374 -2.5787 0
M  V30 24166 H 2244.8 -2.41307 -3.40823 0
M  V30 24167 N 2245.23 0.505704 -1.49266 0
M  V30 24168 C 2246.2 1.59003 -1.65078 0
M  V30 24169 C 2247.2 1.52064 -0.522794 0
M  V30 24170 O 2248.39 1.553 -0.789145 0
M  V30 24171 C 2245.52 2.98653 -1.64375 0
M  V30 24172 H 2246.71 1.46314 -2.61786 0
M  V30 24173 H 2244.26 0.729592 -1.38227 0
M  V30 24174 H 2245 3.16824 -0.692328 0
M  V30 24175 H 2244.78 3.05098 -2.46287 0
M  V30 24176 H 2246.27 3.77443 -1.7868 0
M  V30 24177 N 2246.71 1.38262 0.756405 0
M  V30 24178 C 2247.96 1.35519 1.51677 0
M  V30 24179 C 2248.31 -0.0554113 1.9232 0
M  V30 24180 O 2247.61 -1.01743 1.62354 0
M  V30 24181 C 2247.8 2.24229 2.78309 0
M  V30 24182 C 2247.63 3.73774 2.50046 0
M  V30 24183 C 2246.4 4.42811 2.43406 0
M  V30 24184 C 2248.6 4.66273 2.17011 0
M  V30 24185 N 2246.58 5.77809 2.07388 0
M  V30 24186 C 2247.95 5.89762 1.91261 0
M  V30 24187 C 2250.01 4.54505 2.03297 0
M  V30 24188 C 2248.71 7.028 1.5318 0
M  V30 24189 C 2250.73 5.67444 1.66617 0
M  V30 24190 C 2250.1 6.89993 1.41737 0
M  V30 24191 H 2246.2 0.551184 0.554725 0
M  V30 24192 H 2248.78 1.73624 0.881076 0
M  V30 24193 H 2246.95 1.88317 3.39693 0
M  V30 24194 H 2248.68 2.12633 3.44339 0
M  V30 24195 H 2245.44 3.95993 2.59782 0
M  V30 24196 H 2245.86 6.49194 1.92032 0
M  V30 24197 H 2250.5 3.60315 2.21209 0
M  V30 24198 H 2248.22 7.96911 1.34008 0
M  V30 24199 H 2251.81 5.60316 1.56642 0
M  V30 24200 H 2250.69 7.75902 1.13777 0
M  V30 24201 N 2248.19 -0.984277 1.23084 0
M  V30 24202 C 2249.44 -1.72163 1.05851 0
M  V30 24203 C 2249.76 -1.90726 -0.406016 0
M  V30 24204 O 2249.03 -1.47311 -1.29136 0
M  V30 24205 H 2247.61 -0.637906 0.388696 0
M  V30 24206 H 2250.27 -1.185 1.54738 0
M  V30 24207 H 2249.37 -2.71271 1.54331 0
M  V30 24208 N 2249.67 -1.04192 -1.18244 0
M  V30 24209 C 2250.6 -0.654953 -2.24126 0
M  V30 24210 C 2251.58 0.342422 -1.66618 0
M  V30 24211 O 2252.76 0.222243 -1.92924 0
M  V30 24212 C 2249.89 -0.0184367 -3.47295 0
M  V30 24213 C 2248.85 -0.939488 -4.17562 0
M  V30 24214 C 2248.17 -0.16738 -5.34438 0
M  V30 24215 C 2249.47 -2.25916 -4.70913 0
M  V30 24216 H 2251.17 -1.54012 -2.5675 0
M  V30 24217 H 2248.71 -0.741971 -1.23413 0
M  V30 24218 H 2250.67 0.264009 -4.20572 0
M  V30 24219 H 2249.39 0.901609 -3.13909 0
M  V30 24220 H 2248.05 -1.20634 -3.46184 0
M  V30 24221 H 2247.7 0.755112 -4.973 0
M  V30 24222 H 2247.4 -0.781003 -5.82387 0
M  V30 24223 H 2248.92 0.108018 -6.10504 0
M  V30 24224 H 2250.34 -2.03733 -5.35879 0
M  V30 24225 H 2248.73 -2.82586 -5.29401 0
M  V30 24226 H 2249.8 -2.90477 -3.88267 0
M  V30 24227 N 2251.15 1.34492 -0.821557 0
M  V30 24228 C 2252.39 1.97935 -0.408173 0
M  V30 24229 C 2252.72 1.65459 1.0319 0
M  V30 24230 O 2251.99 0.944625 1.71621 0
M  V30 24231 H 2250.57 0.732204 -0.147941 0
M  V30 24232 H 2253.23 1.64153 -1.0507 0
M  V30 24233 H 2252.32 3.07634 -0.526065 0
M  V30 24234 N 2252.62 0.576397 1.46681 0
M  V30 24235 C 2253.56 -0.198191 2.28342 0
M  V30 24236 C 2254.57 -0.861429 1.38142 0
M  V30 24237 O 2255.76 -0.732053 1.62798 0
M  V30 24238 C 2252.86 -1.29967 3.12989 0
M  V30 24239 C 2252.03 -0.729563 4.31273 0
M  V30 24240 C 2251.09 -1.71795 4.97366 0
M  V30 24241 O 2250.12 -1.25648 5.55159 0
M  V30 24242 N 2251.32 -3.05189 4.93801 0
M  V30 24243 H 2254.08 0.502376 2.95459 0
M  V30 24244 H 2251.64 0.413743 1.56524 0
M  V30 24245 H 2253.64 -1.96002 3.5407 0
M  V30 24246 H 2252.21 -1.90319 2.47987 0
M  V30 24247 H 2251.43 0.108081 3.94052 0
M  V30 24248 H 2252.71 -0.328348 5.07739 0
M  V30 24249 H 2252.11 -3.45309 4.48083 0
M  V30 24250 H 2250.67 -3.6673 5.38843 0
M  V30 24251 N 2254.1 -1.54444 0.313841 0
M  V30 24252 C 2255.35 -2.01395 -0.284883 0
M  V30 24253 C 2255.7 -1.1982 -1.50535 0
M  V30 24254 O 2255 -0.269781 -1.89691 0
M  V30 24255 C 2255.19 -3.50865 -0.680324 0
M  V30 24256 C 2255.02 -4.46909 0.500277 0
M  V30 24257 C 2253.79 -4.9538 0.996336 0
M  V30 24258 C 2255.99 -4.96283 1.34937 0
M  V30 24259 N 2253.97 -5.75305 2.14236 0
M  V30 24260 C 2255.34 -5.74036 2.3427 0
M  V30 24261 C 2257.4 -4.78444 1.37826 0
M  V30 24262 C 2256.1 -6.3585 3.36284 0
M  V30 24263 C 2258.12 -5.41086 2.38705 0
M  V30 24264 C 2257.49 -6.18683 3.36766 0
M  V30 24265 H 2253.59 -0.779007 -0.0683552 0
M  V30 24266 H 2256.17 -1.89507 0.446673 0
M  V30 24267 H 2254.34 -3.63018 -1.38103 0
M  V30 24268 H 2256.07 -3.84596 -1.25968 0
M  V30 24269 H 2252.83 -4.70167 0.569203 0
M  V30 24270 H 2253.25 -6.19949 2.72016 0
M  V30 24271 H 2257.89 -4.18022 0.633821 0
M  V30 24272 H 2255.61 -6.95398 4.11639 0
M  V30 24273 H 2259.2 -5.29205 2.4173 0
M  V30 24274 H 2258.08 -6.66294 4.13547 0
M  V30 24275 N 2255.58 -0.0418125 -1.57545 0
M  V30 24276 C 2256.86 0.673401 -1.83643 0
M  V30 24277 C 2257.24 1.89592 -0.928331 0
M  V30 24278 O 2256.59 2.28496 0.0129553 0
M  V30 24279 C 2256.8 1.03958 -3.33157 0
M  V30 24280 C 2258.14 1.42585 -3.99943 0
M  V30 24281 O 2259.17 1.1322 -3.37727 0
M  V30 24282 O 2258.03 1.97351 -5.09622 0
M  V30 24283 H 2255.12 0.331519 -0.757644 0
M  V30 24284 H 2257.67 -0.0704628 -1.69554 0
M  V30 24285 H 2256.44 0.170029 -3.9093 0
M  V30 24286 H 2256.06 1.8412 -3.524 0
M  V30 24287 N 2257.06 1.55891 0.231477 0
M  V30 24288 C 2258.28 1.82858 0.978657 0
M  V30 24289 C 2258.71 0.620877 1.77558 0
M  V30 24290 O 2258.07 -0.430274 1.7612 0
M  V30 24291 C 2258.11 3.0772 1.87992 0
M  V30 24292 O 2257.22 2.85717 2.97388 0
M  V30 24293 H 2256.56 0.603162 0.277653 0
M  V30 24294 H 2259.09 2.03094 0.247795 0
M  V30 24295 H 2259.1 3.37562 2.29164 0
M  V30 24296 H 2257.77 3.95254 1.2941 0
M  V30 24297 H 2256.35 2.67083 2.60233 0
M  V30 24298 N 2258.54 -0.497781 1.49532 0
M  V30 24299 C 2259.47 -1.61677 1.61046 0
M  V30 24300 C 2260.45 -1.55975 0.459413 0
M  V30 24301 O 2261.63 -1.75985 0.675389 0
M  V30 24302 C 2258.76 -3.00199 1.56838 0
M  V30 24303 C 2257.8 -3.24151 2.77179 0
M  V30 24304 S 2258.64 -3.06926 4.38813 0
M  V30 24305 C 2259.79 -4.47838 4.37255 0
M  V30 24306 H 2260.03 -1.51666 2.55704 0
M  V30 24307 H 2257.56 -0.683177 1.38463 0
M  V30 24308 H 2259.52 -3.80073 1.55096 0
M  V30 24309 H 2258.18 -3.07622 0.634615 0
M  V30 24310 H 2257.37 -4.25283 2.70463 0
M  V30 24311 H 2256.97 -2.52005 2.7635 0
M  V30 24312 H 2259.27 -5.39985 4.09173 0
M  V30 24313 H 2260.21 -4.59602 5.38676 0
M  V30 24314 H 2260.62 -4.28668 3.67293 0
M  V30 24315 N 2260.01 -1.38661 -0.749062 0
M  V30 24316 C 2260.92 -1.38497 -1.89356 0
M  V30 24317 C 2261.94 -0.281506 -1.71708 0
M  V30 24318 O 2263.12 -0.520678 -1.94553 0
M  V30 24319 C 2260.18 -1.21322 -3.2478 0
M  V30 24320 C 2259.24 -2.41514 -3.54922 0
M  V30 24321 C 2258.48 -2.25148 -4.83884 0
M  V30 24322 O 2258.7 -1.24756 -5.5659 0
M  V30 24323 O 2257.63 -3.13835 -5.13606 0
M  V30 24324 H 2261.46 -2.34942 -1.92448 0
M  V30 24325 H 2259.04 -1.19628 -0.89496 0
M  V30 24326 H 2260.93 -1.13821 -4.05737 0
M  V30 24327 H 2259.6 -0.279649 -3.2249 0
M  V30 24328 H 2258.51 -2.5459 -2.74107 0
M  V30 24329 H 2259.84 -3.33516 -3.61977 0
M  V30 24330 N 2261.49 0.977736 -1.23605 0
M  V30 24331 C 2262.4 2.10468 -1.03636 0
M  V30 24332 C 2263.42 1.73989 0.0199129 0
M  V30 24333 O 2264.6 2.00629 -0.176112 0
M  V30 24334 C 2261.66 3.40876 -0.63282 0
M  V30 24335 C 2260.72 3.91364 -1.76444 0
M  V30 24336 C 2259.95 5.15548 -1.38006 0
M  V30 24337 O 2260.18 5.69782 -0.265457 0
M  V30 24338 O 2259.11 5.6017 -2.2021 0
M  V30 24339 H 2262.94 2.30204 -1.9809 0
M  V30 24340 H 2260.52 1.08849 -1.02334 0
M  V30 24341 H 2262.4 4.19313 -0.418834 0
M  V30 24342 H 2261.08 3.22463 0.282697 0
M  V30 24343 H 2259.99 3.14032 -2.03309 0
M  V30 24344 H 2261.32 4.14236 -2.65837 0
M  V30 24345 N 2262.97 1.04818 1.1769 0
M  V30 24346 C 2264.2 0.775162 1.91507 0
M  V30 24347 C 2264.61 -0.672498 1.76845 0
M  V30 24348 O 2263.95 -1.4708 1.10059 0
M  V30 24349 C 2264.01 1.07136 3.43165 0
M  V30 24350 C 2263.68 2.51445 3.81608 0
M  V30 24351 C 2264.68 3.49644 3.84766 0
M  V30 24352 C 2262.36 2.86355 4.12682 0
M  V30 24353 C 2264.35 4.80801 4.1846 0
M  V30 24354 C 2262.04 4.17716 4.46046 0
M  V30 24355 C 2263.04 5.14749 4.48912 0
M  V30 24356 O 2262.73 6.43755 4.81493 0
M  V30 24357 H 2262.46 0.281566 0.61457 0
M  V30 24358 H 2265.01 1.40101 1.50203 0
M  V30 24359 H 2263.24 0.38841 3.84744 0
M  V30 24360 H 2264.93 0.784953 3.98238 0
M  V30 24361 H 2265.7 3.24014 3.60888 0
M  V30 24362 H 2261.58 2.11494 4.09624 0
M  V30 24363 H 2265.12 5.56535 4.20613 0
M  V30 24364 H 2261.02 4.43111 4.69386 0
M  V30 24365 H 2261.79 6.48519 4.99365 0
M  V30 24366 N 2264.45 -1.34055 0.828678 0
M  V30 24367 C 2265.68 -2.02326 0.432656 0
M  V30 24368 C 2266.09 -1.62387 -0.963119 0
M  V30 24369 O 2265.45 -0.83215 -1.62424 0
M  V30 24370 C 2265.5 -3.57566 0.531883 0
M  V30 24371 O 2265.22 -3.9606 1.87265 0
M  V30 24372 C 2266.72 -4.43105 0.1315 0
M  V30 24373 H 2263.94 -0.648332 0.172934 0
M  V30 24374 H 2266.49 -1.71206 1.11843 0
M  V30 24375 H 2264.64 -3.87255 -0.10587 0
M  V30 24376 H 2265.06 -4.90754 1.85096 0
M  V30 24377 H 2266.53 -5.51424 0.252001 0
M  V30 24378 H 2267.01 -4.29337 -0.92557 0
M  V30 24379 H 2267.61 -4.18755 0.74328 0
M  V30 24380 N 2265.93 -0.584167 -1.46374 0
M  V30 24381 C 2267.17 -0.0730054 -2.0427 0
M  V30 24382 C 2267.53 1.26353 -1.44565 0
M  V30 24383 O 2268.73 1.86401 -1.9367 0
M  V30 24384 C 2267 -0.00973746 -3.57399 0
M  V30 24385 S 2268.56 0.443637 -4.36552 0
M  V30 24386 H 2265.38 -0.0381798 -0.709974 0
M  V30 24387 H 2267.98 -0.776994 -1.79396 0
M  V30 24388 H 2266.69 -0.986389 -3.9837 0
M  V30 24389 H 2266.22 0.716976 -3.86811 0
M  V30 24390 H 2268.23 1.69808 -4.6624 0
M  V30 24391 N 2267.41 1.54275 -0.322027 0
M  V30 24392 C 2268.34 2.20517 0.587141 0
M  V30 24393 C 2269.32 1.18169 1.1169 0
M  V30 24394 O 2270.5 1.46901 1.18119 0
M  V30 24395 C 2267.63 2.86565 1.80549 0
M  V30 24396 C 2266.67 4.0262 1.40711 0
M  V30 24397 S 2267.51 5.33647 0.445124 0
M  V30 24398 C 2268.66 6.03188 1.67079 0
M  V30 24399 H 2268.9 2.9729 0.0244352 0
M  V30 24400 H 2266.43 1.54035 -0.106114 0
M  V30 24401 H 2268.39 3.25241 2.50457 0
M  V30 24402 H 2267.05 2.09599 2.33938 0
M  V30 24403 H 2266.24 4.47691 2.31493 0
M  V30 24404 H 2265.84 3.6561 0.787755 0
M  V30 24405 H 2268.13 6.25273 2.60845 0
M  V30 24406 H 2269.08 6.96758 1.26227 0
M  V30 24407 H 2269.49 5.33079 1.85707 0
M  V30 24408 N 2268.88 0.0501669 1.5752 0
M  V30 24409 C 2270.13 -0.623294 1.91828 0
M  V30 24410 C 2270.45 -1.72063 0.930252 0
M  V30 24411 O 2271.65 -2.45218 1.16534 0
M  V30 24412 C 2270.11 -1.15997 3.40694 0
M  V30 24413 C 2269.72 -0.0948023 4.479 0
M  V30 24414 C 2271.46 -1.80874 3.84038 0
M  V30 24415 C 2269.37 -0.644307 5.8788 0
M  V30 24416 H 2268.3 -0.236584 0.715922 0
M  V30 24417 H 2270.95 0.118893 1.83114 0
M  V30 24418 H 2269.33 -1.95444 3.44409 0
M  V30 24419 H 2270.5 0.678755 4.55774 0
M  V30 24420 H 2268.82 0.456443 4.13891 0
M  V30 24421 H 2271.42 -2.2298 4.85988 0
M  V30 24422 H 2271.76 -2.66005 3.2023 0
M  V30 24423 H 2272.29 -1.08084 3.82835 0
M  V30 24424 H 2269.03 0.169344 6.55281 0
M  V30 24425 H 2268.55 -1.38587 5.8357 0
M  V30 24426 H 2270.23 -1.12752 6.371 0
M  V30 24427 N 2270.36 -1.56011 -0.223207 0
M  V30 24428 C 2271.77 -1.69147 -0.790338 0
M  V30 24429 C 2272.12 -0.651878 -1.85054 0
M  V30 24430 O 2271.25 0.197321 -2.15499 0
M  V30 24431 C 2271.84 -3.06659 -1.44034 0
M  V30 24432 C 2270.4 -3.21654 -1.95489 0
M  V30 24433 C 2269.55 -2.6507 -0.81446 0
M  V30 24434 H 2272.5 -1.587 0.001418 0
M  V30 24435 H 2272.52 -3.02424 -2.30911 0
M  V30 24436 H 2272.03 -3.823 -0.668476 0
M  V30 24437 H 2270.13 -2.50879 -2.75482 0
M  V30 24438 H 2270.25 -4.2885 -2.13599 0
M  V30 24439 H 2268.61 -2.23507 -1.22133 0
M  V30 24440 H 2269.39 -3.43255 -0.0552912 0
M  V30 24441 N 2271.84 0.489844 -1.49794 0
M  V30 24442 C 2273.26 0.821998 -1.36804 0
M  V30 24443 C 2273.46 1.97291 -0.409687 0
M  V30 24444 O 2272.51 2.52026 0.154569 0
M  V30 24445 C 2273.82 1.1517 -2.7777 0
M  V30 24446 C 2275.37 1.25926 -2.86551 0
M  V30 24447 C 2275.85 1.6222 -4.28309 0
M  V30 24448 N 2277.34 1.69248 -4.31172 0
M  V30 24449 C 2278.07 1.98798 -5.37836 0
M  V30 24450 N 2277.57 2.26495 -6.5473 0
M  V30 24451 N 2279.36 2.00142 -5.25261 0
M  V30 24452 H 2271.51 -0.268918 -2.10691 0
M  V30 24453 H 2273.78 -0.0577447 -0.94624 0
M  V30 24454 H 2273.48 0.379273 -3.49649 0
M  V30 24455 H 2273.36 2.09248 -3.13839 0
M  V30 24456 H 2275.74 2.02239 -2.14903 0
M  V30 24457 H 2275.82 0.298731 -2.5405 0
M  V30 24458 H 2275.47 0.864534 -5.00488 0
M  V30 24459 H 2275.4 2.59392 -4.58283 0
M  V30 24460 H 2277.89 1.49958 -3.46873 0
M  V30 24461 H 2278.2 2.48263 -7.31837 0
M  V30 24462 H 2276.55 2.23927 -6.57937 0
M  V30 24463 H 2279.74 1.77988 -4.32941 0
M  V30 24464 H 2279.91 2.22837 -6.0848 0
M  V30 24465 N 2273.32 1.39056 0.741698 0
M  V30 24466 C 2274.59 1.26428 1.49249 0
M  V30 24467 C 2274.97 -0.129107 2.10705 0
M  V30 24468 O 2274.32 -1.13973 1.98047 0
M  V30 24469 C 2274.53 2.38352 2.5493 0
M  V30 24470 C 2275.88 2.77349 3.21501 0
M  V30 24471 O 2276.9 2.37752 2.6524 0
M  V30 24472 O 2275.76 3.45672 4.23288 0
M  V30 24473 H 2272.86 0.495075 0.662442 0
M  V30 24474 H 2275.4 1.50913 0.776094 0
M  V30 24475 H 2274.18 3.31532 2.07851 0
M  V30 24476 H 2273.8 2.15495 3.34137 0
M  V30 24477 N 2274.8 -0.971167 1.24121 0
M  V30 24478 C 2276.02 -1.74872 1.10578 0
M  V30 24479 C 2276.44 -1.85677 -0.341984 0
M  V30 24480 O 2275.8 -1.3426 -1.23615 0
M  V30 24481 C 2275.85 -3.17097 1.73585 0
M  V30 24482 O 2275.57 -3.06839 3.127 0
M  V30 24483 C 2277.07 -4.11205 1.65605 0
M  V30 24484 H 2274.29 -0.548496 0.386513 0
M  V30 24485 H 2276.83 -1.21952 1.64158 0
M  V30 24486 H 2274.99 -3.67014 1.24015 0
M  V30 24487 H 2275.4 -3.96439 3.43419 0
M  V30 24488 H 2276.88 -5.08671 2.14379 0
M  V30 24489 H 2277.35 -4.3485 0.616608 0
M  V30 24490 H 2277.96 -3.67197 2.14584 0
M  V30 24491 N 2276.27 -1.05441 -1.17133 0
M  V30 24492 C 2277.22 -0.627713 -2.19189 0
M  V30 24493 C 2278.21 0.337119 -1.57329 0
M  V30 24494 O 2279.4 0.153945 -1.76329 0
M  V30 24495 C 2276.53 -0.00657469 -3.43299 0
M  V30 24496 C 2275.62 -0.995384 -4.12253 0
M  V30 24497 N 2276.01 -2.16773 -4.56993 0
M  V30 24498 C 2274.3 -0.824413 -4.38314 0
M  V30 24499 C 2275.01 -2.79349 -5.10234 0
M  V30 24500 N 2273.98 -2.0713 -5.02591 0
M  V30 24501 H 2277.78 -1.5209 -2.51487 0
M  V30 24502 H 2275.3 -0.924892 -1.3349 0
M  V30 24503 H 2277.29 0.316892 -4.15694 0
M  V30 24504 H 2275.95 0.881978 -3.12492 0
M  V30 24505 H 2276.97 -2.54595 -4.51001 0
M  V30 24506 H 2273.64 0.0128792 -4.17498 0
M  V30 24507 H 2275.03 -3.78781 -5.54954 0
M  V30 24508 N 2277.75 1.33613 -0.835776 0
M  V30 24509 C 2279.03 1.92406 -0.352051 0
M  V30 24510 C 2279.41 1.76226 1.16222 0
M  V30 24511 O 2278.76 1.14877 1.97524 0
M  V30 24512 C 2278.97 3.39812 -0.795545 0
M  V30 24513 C 2280.32 4.16961 -0.801776 0
M  V30 24514 O 2281.34 3.48451 -0.738951 0
M  V30 24515 O 2280.2 5.39259 -0.886702 0
M  V30 24516 H 2277.29 0.821056 -0.0989786 0
M  V30 24517 H 2279.84 1.42506 -0.921422 0
M  V30 24518 H 2278.61 3.45446 -1.83801 0
M  V30 24519 H 2278.23 3.97084 -0.202575 0
M  V30 24520 N 2279.23 0.591922 1.46062 0
M  V30 24521 C 2280.48 0.0808746 2.01938 0
M  V30 24522 C 2280.8 -1.28722 1.46477 0
M  V30 24523 O 2280.07 -1.84697 0.652976 0
M  V30 24524 H 2278.65 0.0269069 0.746515 0
M  V30 24525 H 2281.31 0.769783 1.79054 0
M  V30 24526 H 2280.41 0.0188126 3.12094 0
M  V30 24527 N 2280.71 -1.54102 0.330204 0
M  V30 24528 C 2281.67 -2.23221 -0.520105 0
M  V30 24529 C 2282.67 -1.22788 -1.03826 0
M  V30 24530 O 2283.86 -1.47321 -0.929626 0
M  V30 24531 C 2280.99 -2.94145 -1.72312 0
M  V30 24532 H 2282.19 -2.99782 0.0842132 0
M  V30 24533 H 2279.74 -1.56088 0.0813707 0
M  V30 24534 H 2280.47 -2.21738 -2.36649 0
M  V30 24535 H 2280.26 -3.67799 -1.35892 0
M  V30 24536 H 2281.75 -3.46788 -2.32654 0
M  V30 24537 N 2282.19 -0.0585199 -1.57491 0
M  V30 24538 C 2283.43 0.613615 -1.92979 0
M  V30 24539 C 2283.76 1.70415 -0.937491 0
M  V30 24540 O 2283.02 1.95639 0.0490436 0
M  V30 24541 C 2283.32 1.24182 -3.35132 0
M  V30 24542 C 2282.98 0.278747 -4.50038 0
M  V30 24543 C 2281.64 0.0137601 -4.81198 0
M  V30 24544 C 2284 -0.380868 -5.19807 0
M  V30 24545 C 2281.32 -0.918153 -5.79471 0
M  V30 24546 C 2283.68 -1.30102 -6.19077 0
M  V30 24547 C 2282.34 -1.57461 -6.48662 0
M  V30 24548 H 2281.61 0.224537 -0.706161 0
M  V30 24549 H 2284.26 -0.126567 -1.91081 0
M  V30 24550 H 2282.56 2.05743 -3.33432 0
M  V30 24551 H 2284.26 1.76894 -3.59874 0
M  V30 24552 H 2280.85 0.495464 -4.25727 0
M  V30 24553 H 2285.03 -0.189245 -4.95939 0
M  V30 24554 H 2280.29 -1.13751 -6.00725 0
M  V30 24555 H 2284.46 -1.81816 -6.72247 0
M  V30 24556 H 2282.09 -2.29834 -7.24624 0
M  V30 24557 N 2283.66 1.56128 0.21493 0
M  V30 24558 C 2284.89 1.83272 0.953675 0
M  V30 24559 C 2285.3 0.636294 1.7818 0
M  V30 24560 O 2284.65 -0.404485 1.79192 0
M  V30 24561 C 2284.71 3.04243 1.9151 0
M  V30 24562 C 2284.37 4.38974 1.27086 0
M  V30 24563 C 2285.37 5.15726 0.657485 0
M  V30 24564 C 2283.05 4.857 1.28065 0
M  V30 24565 C 2285.05 6.37369 0.0624847 0
M  V30 24566 C 2282.73 6.07285 0.681807 0
M  V30 24567 C 2283.73 6.8296 0.0737846 0
M  V30 24568 O 2283.42 8.02244 -0.515724 0
M  V30 24569 H 2283.15 0.6131 0.284753 0
M  V30 24570 H 2285.71 2.04071 0.233248 0
M  V30 24571 H 2283.94 2.79279 2.6747 0
M  V30 24572 H 2285.63 3.18203 2.51996 0
M  V30 24573 H 2286.39 4.80729 0.642204 0
M  V30 24574 H 2282.27 4.26767 1.7433 0
M  V30 24575 H 2285.81 6.96378 -0.412716 0
M  V30 24576 H 2281.71 6.41753 0.694523 0
M  V30 24577 H 2282.48 8.17469 -0.410688 0
M  V30 24578 N 2285.14 -0.481893 1.50052 0
M  V30 24579 C 2286.56 -0.814732 1.37238 0
M  V30 24580 C 2286.76 -1.97071 0.420144 0
M  V30 24581 O 2285.81 -2.52105 -0.141201 0
M  V30 24582 C 2287.13 -1.13696 2.78377 0
M  V30 24583 C 2288.68 -1.24405 2.87215 0
M  V30 24584 C 2289.15 -1.59946 4.29163 0
M  V30 24585 N 2290.64 -1.66959 4.32064 0
M  V30 24586 C 2291.38 -1.95942 5.38882 0
M  V30 24587 N 2290.87 -2.2302 6.55922 0
M  V30 24588 N 2292.67 -1.97354 5.26315 0
M  V30 24589 H 2284.82 0.280087 2.10545 0
M  V30 24590 H 2287.08 0.062762 0.94592 0
M  V30 24591 H 2286.79 -0.360725 3.49845 0
M  V30 24592 H 2286.66 -2.07581 3.14945 0
M  V30 24593 H 2289.05 -2.01097 2.15972 0
M  V30 24594 H 2289.13 -0.285254 2.54205 0
M  V30 24595 H 2288.77 -0.837979 5.00939 0
M  V30 24596 H 2288.7 -2.56958 4.59652 0
M  V30 24597 H 2291.19 -1.48117 3.47663 0
M  V30 24598 H 2291.51 -2.44378 7.33143 0
M  V30 24599 H 2289.85 -2.20435 6.59116 0
M  V30 24600 H 2293.04 -1.75689 4.33879 0
M  V30 24601 H 2293.21 -2.19607 6.09653 0
M  V30 24602 N 2286.62 -1.39448 -0.734313 0
M  V30 24603 C 2287.58 -1.37997 -1.83001 0
M  V30 24604 C 2288.58 -0.276966 -1.58397 0
M  V30 24605 O 2289.77 -0.534904 -1.65784 0
M  V30 24606 C 2286.91 -1.15325 -3.208 0
M  V30 24607 H 2288.1 -2.35498 -1.8569 0
M  V30 24608 H 2285.65 -1.25022 -0.938037 0
M  V30 24609 H 2286.39 -0.185093 -3.23771 0
M  V30 24610 H 2286.17 -1.95203 -3.40056 0
M  V30 24611 H 2287.66 -1.17053 -4.0086 0
M  V30 24612 N 2288.1 0.964571 -1.24635 0
M  V30 24613 C 2289.34 1.71047 -1.08952 0
M  V30 24614 C 2289.68 1.90637 0.370268 0
M  V30 24615 O 2288.95 1.47014 1.27347 0
M  V30 24616 C 2289.24 3.09936 -1.83334 0
M  V30 24617 C 2289.09 2.97818 -3.37082 0
M  V30 24618 C 2290.41 4.09651 -1.60853 0
M  V30 24619 H 2287.53 0.620814 -0.397189 0
M  V30 24620 H 2290.17 1.12188 -1.53342 0
M  V30 24621 H 2288.32 3.60183 -1.45603 0
M  V30 24622 H 2289.99 2.54973 -3.8443 0
M  V30 24623 H 2288.23 2.33959 -3.65302 0
M  V30 24624 H 2288.9 3.96224 -3.84331 0
M  V30 24625 H 2291.38 3.68276 -1.93681 0
M  V30 24626 H 2290.26 5.04892 -2.15349 0
M  V30 24627 H 2290.52 4.38697 -0.547511 0
M  V30 24628 N 2289.58 1.0606 1.16572 0
M  V30 24629 C 2290.51 0.690527 2.23056 0
M  V30 24630 C 2291.49 -0.315871 1.67141 0
M  V30 24631 O 2292.67 -0.191522 1.93253 0
M  V30 24632 C 2289.8 0.073686 3.47222 0
M  V30 24633 C 2288.76 1.0058 4.16014 0
M  V30 24634 C 2288.08 0.252383 5.34104 0
M  V30 24635 C 2289.38 2.33379 4.6726 0
M  V30 24636 H 2291.08 1.58077 2.54268 0
M  V30 24637 H 2288.62 0.761512 1.22217 0
M  V30 24638 H 2290.58 -0.197066 4.20939 0
M  V30 24639 H 2289.3 -0.851555 3.15303 0
M  V30 24640 H 2287.96 1.26126 3.44221 0
M  V30 24641 H 2287.61 -0.675901 4.98438 0
M  V30 24642 H 2287.31 0.873557 5.8107 0
M  V30 24643 H 2288.83 -0.0108784 6.10599 0
M  V30 24644 H 2290.24 2.12233 5.32569 0
M  V30 24645 H 2288.64 2.90973 5.24838 0
M  V30 24646 H 2289.71 2.96617 3.83596 0
M  V30 24647 N 2291.06 -1.33168 0.84285 0
M  V30 24648 C 2292.02 -2.27432 0.284105 0
M  V30 24649 C 2293.02 -1.51121 -0.549454 0
M  V30 24650 O 2294.21 -1.70383 -0.362669 0
M  V30 24651 C 2291.34 -3.3559 -0.599325 0
M  V30 24652 H 2292.53 -2.78364 1.11594 0
M  V30 24653 H 2290.09 -1.43639 0.616246 0
M  V30 24654 H 2290.82 -2.89906 -1.45344 0
M  V30 24655 H 2290.61 -3.921 -0.00284374 0
M  V30 24656 H 2292.1 -4.05855 -0.983417 0
M  V30 24657 N 2292.53 -0.599659 -1.45746 0
M  V30 24658 C 2293.46 0.111265 -2.33235 0
M  V30 24659 C 2294.44 0.866755 -1.4636 0
M  V30 24660 O 2295.63 0.838873 -1.75147 0
M  V30 24661 C 2292.76 1.11445 -3.28934 0
M  V30 24662 C 2291.71 0.472697 -4.25382 0
M  V30 24663 C 2291.04 1.58356 -5.10713 0
M  V30 24664 C 2292.34 -0.60104 -5.1883 0
M  V30 24665 H 2294.03 -0.619241 -2.92926 0
M  V30 24666 H 2291.58 -0.29924 -1.40857 0
M  V30 24667 H 2293.53 1.62029 -3.89004 0
M  V30 24668 H 2292.26 1.87545 -2.67384 0
M  V30 24669 H 2290.92 -0.0122117 -3.66598 0
M  V30 24670 H 2290.56 2.33465 -4.45537 0
M  V30 24671 H 2290.26 1.15971 -5.76042 0
M  V30 24672 H 2291.79 2.09183 -5.7365 0
M  V30 24673 H 2293.2 -0.179592 -5.73019 0
M  V30 24674 H 2291.6 -0.94618 -5.92594 0
M  V30 24675 H 2292.67 -1.48076 -4.61738 0
M  V30 24676 N 2294.01 1.53925 -0.338371 0
M  V30 24677 C 2294.96 2.21594 0.536673 0
M  V30 24678 C 2295.95 1.20154 1.07013 0
M  V30 24679 O 2297.14 1.45722 1.00469 0
M  V30 24680 C 2294.27 2.98837 1.68971 0
M  V30 24681 C 2293.35 4.07629 1.17045 0
M  V30 24682 N 2293.74 5.0443 0.371996 0
M  V30 24683 C 2292.04 4.21846 1.44782 0
M  V30 24684 C 2292.74 5.81629 0.0908148 0
M  V30 24685 N 2291.72 5.39317 0.681036 0
M  V30 24686 H 2295.52 2.9379 -0.0804815 0
M  V30 24687 H 2293.03 1.61752 -0.144972 0
M  V30 24688 H 2295.03 3.45812 2.32851 0
M  V30 24689 H 2293.69 2.28166 2.3102 0
M  V30 24690 H 2294.7 5.17898 0.0135307 0
M  V30 24691 H 2291.38 3.62395 2.07307 0
M  V30 24692 H 2292.77 6.69621 -0.552935 0
M  V30 24693 N 2295.49 0.0668712 1.57458 0
M  V30 24694 C 2296.42 -0.931565 2.09415 0
M  V30 24695 C 2297.43 -1.26462 1.02524 0
M  V30 24696 O 2298.62 -1.22266 1.30051 0
M  V30 24697 C 2295.72 -2.24878 2.53541 0
M  V30 24698 C 2294.9 -2.0953 3.83948 0
M  V30 24699 C 2293.96 -3.24513 4.1422 0
M  V30 24700 O 2292.98 -2.99721 4.83896 0
M  V30 24701 N 2294.18 -4.49462 3.67375 0
M  V30 24702 H 2296.95 -0.487996 2.957 0
M  V30 24703 H 2294.51 -0.11898 1.61462 0
M  V30 24704 H 2296.5 -3.00696 2.70858 0
M  V30 24705 H 2295.07 -2.6075 1.72419 0
M  V30 24706 H 2294.29 -1.18209 3.76059 0
M  V30 24707 H 2295.58 -1.96521 4.69315 0
M  V30 24708 H 2294.98 -4.72491 3.11076 0
M  V30 24709 H 2293.53 -5.22323 3.899 0
M  V30 24710 N 2296.97 -1.56239 -0.206647 0
M  V30 24711 C 2298.24 -1.70757 -0.954021 0
M  V30 24712 C 2298.62 -0.618388 -2.01839 0
M  V30 24713 O 2297.97 0.372394 -2.25445 0
M  V30 24714 C 2298.18 -3.12645 -1.55094 0
M  V30 24715 C 2299.53 -3.7252 -2.0375 0
M  V30 24716 O 2300.55 -3.15701 -1.64959 0
M  V30 24717 O 2299.41 -4.72213 -2.75094 0
M  V30 24718 H 2296.51 -0.696029 -0.446624 0
M  V30 24719 H 2299.05 -1.6855 -0.197254 0
M  V30 24720 H 2297.83 -3.83383 -0.783145 0
M  V30 24721 H 2297.45 -3.19032 -2.37285 0
M  V30 24722 N 2298.45 0.473929 -1.50305 0
M  V30 24723 C 2299.38 1.58039 -1.71889 0
M  V30 24724 C 2300.36 1.60343 -0.567827 0
M  V30 24725 O 2301.54 1.76654 -0.806654 0
M  V30 24726 C 2298.67 2.9638 -1.81041 0
M  V30 24727 C 2297.63 3.08943 -2.96206 0
M  V30 24728 C 2296.95 4.48904 -2.90498 0
M  V30 24729 C 2298.25 2.86427 -4.36757 0
M  V30 24730 H 2299.95 1.4023 -2.6453 0
M  V30 24731 H 2297.49 0.673178 -1.27296 0
M  V30 24732 H 2299.44 3.73711 -1.94726 0
M  V30 24733 H 2298.17 3.1534 -0.850202 0
M  V30 24734 H 2296.83 2.34045 -2.82168 0
M  V30 24735 H 2296.48 4.64778 -1.92329 0
M  V30 24736 H 2296.18 4.58246 -3.6781 0
M  V30 24737 H 2297.7 5.28259 -3.06227 0
M  V30 24738 H 2299.11 3.53509 -4.51336 0
M  V30 24739 H 2297.51 3.07216 -5.15498 0
M  V30 24740 H 2298.58 1.82308 -4.49324 0
M  V30 24741 N 2299.92 1.39835 0.726907 0
M  V30 24742 C 2301.17 1.37499 1.48662 0
M  V30 24743 C 2301.5 -0.0264336 1.94482 0
M  V30 24744 O 2300.75 -1.00883 1.67693 0
M  V30 24745 C 2301.05 2.30082 2.73491 0
M  V30 24746 C 2300.72 3.77559 2.46495 0
M  V30 24747 C 2299.38 4.17741 2.38843 0
M  V30 24748 C 2301.73 4.70802 2.23596 0
M  V30 24749 C 2299.06 5.49217 2.06343 0
M  V30 24750 C 2301.41 6.02564 1.92611 0
M  V30 24751 C 2300.08 6.41801 1.83433 0
M  V30 24752 H 2299.35 0.503144 0.543992 0
M  V30 24753 H 2301.99 1.72403 0.833627 0
M  V30 24754 H 2300.3 1.88323 3.43572 0
M  V30 24755 H 2302 2.25563 3.31545 0
M  V30 24756 H 2298.59 3.45717 2.53333 0
M  V30 24757 H 2302.77 4.40585 2.28471 0
M  V30 24758 H 2298.03 5.78532 1.97765 0
M  V30 24759 H 2302.2 6.74337 1.73902 0
M  V30 24760 H 2299.83 7.43596 1.58016 0
M  V30 24761 N 2301.4 -0.957948 1.25144 0
M  V30 24762 C 2302.63 -1.74221 1.12524 0
M  V30 24763 C 2303.05 -1.85403 -0.317369 0
M  V30 24764 O 2302.41 -1.33206 -1.22988 0
M  V30 24765 C 2302.46 -3.13567 1.78068 0
M  V30 24766 O 2301.56 -3.98596 1.05807 0
M  V30 24767 H 2300.9 -0.535171 0.393049 0
M  V30 24768 H 2303.43 -1.20097 1.65644 0
M  V30 24769 H 2303.44 -3.64043 1.84219 0
M  V30 24770 H 2302.12 -3.04744 2.83026 0
M  V30 24771 H 2300.69 -3.57065 1.07512 0
M  V30 24772 N 2302.88 -1.06677 -1.16008 0
M  V30 24773 C 2303.81 -0.702346 -2.22687 0
M  V30 24774 C 2304.79 0.307003 -1.67307 0
M  V30 24775 O 2305.98 0.181271 -1.93352 0
M  V30 24776 C 2303.11 -0.092099 -3.47178 0
M  V30 24777 C 2302.06 -1.02785 -4.15475 0
M  V30 24778 C 2301.39 -0.280704 -5.33963 0
M  V30 24779 C 2302.69 -2.35854 -4.66015 0
M  V30 24780 H 2304.38 -1.59423 -2.53426 0
M  V30 24781 H 2301.93 -0.767982 -1.21811 0
M  V30 24782 H 2303.88 0.17474 -4.21038 0
M  V30 24783 H 2302.6 0.834821 -3.1575 0
M  V30 24784 H 2301.26 -1.2795 -3.43547 0
M  V30 24785 H 2300.91 0.649458 -4.9879 0
M  V30 24786 H 2300.61 -0.90436 -5.80599 0
M  V30 24787 H 2302.13 -0.0215033 -6.10596 0
M  V30 24788 H 2303.55 -2.15054 -5.31436 0
M  V30 24789 H 2301.94 -2.93752 -5.23288 0
M  V30 24790 H 2303.01 -2.98648 -3.82018 0
M  V30 24791 N 2304.36 1.32719 -0.8499 0
M  V30 24792 C 2305.32 2.27279 -0.296162 0
M  V30 24793 C 2306.32 1.51411 0.541432 0
M  V30 24794 O 2307.51 1.70573 0.353628 0
M  V30 24795 C 2304.64 3.35903 0.58152 0
M  V30 24796 H 2305.84 2.77769 -1.13069 0
M  V30 24797 H 2303.39 1.4331 -0.623855 0
M  V30 24798 H 2304.12 2.90673 1.43804 0
M  V30 24799 H 2303.91 3.92096 -0.0179503 0
M  V30 24800 H 2305.4 4.06371 0.961879 0
M  V30 24801 N 2305.84 0.60738 1.45426 0
M  V30 24802 C 2306.77 -0.149711 2.28711 0
M  V30 24803 C 2307.78 -0.831933 1.39938 0
M  V30 24804 O 2308.97 -0.697356 1.64314 0
M  V30 24805 C 2306.07 -1.23299 3.15675 0
M  V30 24806 C 2305.24 -0.63792 4.32723 0
M  V30 24807 C 2304.3 -1.61206 5.00898 0
M  V30 24808 O 2303.33 -1.13844 5.57699 0
M  V30 24809 N 2304.53 -2.94646 5.00164 0
M  V30 24810 H 2307.3 0.564934 2.94327 0
M  V30 24811 H 2304.86 0.446851 1.55611 0
M  V30 24812 H 2306.85 -1.88447 3.58148 0
M  V30 24813 H 2305.42 -1.85016 2.51968 0
M  V30 24814 H 2304.64 0.191641 3.93734 0
M  V30 24815 H 2305.93 -0.220575 5.08322 0
M  V30 24816 H 2305.32 -3.35727 4.55306 0
M  V30 24817 H 2303.88 -3.55218 5.46501 0
M  V30 24818 N 2307.31 -1.53743 0.34653 0
M  V30 24819 C 2308.25 -2.22668 -0.543277 0
M  V30 24820 C 2309.26 -1.23428 -1.06157 0
M  V30 24821 O 2310.45 -1.49766 -0.971208 0
M  V30 24822 C 2307.55 -2.89572 -1.76071 0
M  V30 24823 C 2306.72 -4.15153 -1.3772 0
M  V30 24824 C 2305.78 -4.6544 -2.45463 0
M  V30 24825 O 2304.81 -5.2958 -2.08646 0
M  V30 24826 N 2306.01 -4.41623 -3.76762 0
M  V30 24827 H 2308.77 -2.99663 0.047023 0
M  V30 24828 H 2306.33 -1.60997 0.170795 0
M  V30 24829 H 2308.33 -3.20129 -2.47588 0
M  V30 24830 H 2306.9 -2.16146 -2.25831 0
M  V30 24831 H 2306.12 -3.91109 -0.492678 0
M  V30 24832 H 2307.4 -4.96834 -1.09699 0
M  V30 24833 H 2306.8 -3.90332 -4.0946 0
M  V30 24834 H 2305.36 -4.76777 -4.4444 0
M  V30 24835 N 2308.79 -0.0752207 -1.5742 0
M  V30 24836 C 2310.03 0.596722 -1.95496 0
M  V30 24837 C 2310.4 1.66569 -0.954915 0
M  V30 24838 O 2311.6 2.39343 -1.22345 0
M  V30 24839 C 2309.87 1.1556 -3.38202 0
M  V30 24840 S 2311.43 1.84219 -3.98257 0
M  V30 24841 H 2308.25 0.195295 -0.683653 0
M  V30 24842 H 2310.85 -0.149893 -1.94925 0
M  V30 24843 H 2309.55 0.365808 -4.08766 0
M  V30 24844 H 2309.08 1.9385 -3.42324 0
M  V30 24845 H 2311.1 3.1249 -3.8544 0
M  V30 24846 N 2310.27 1.56347 0.198358 0
M  V30 24847 C 2311.52 1.79628 0.91742 0
M  V30 24848 C 2311.83 0.647873 1.84559 0
M  V30 24849 O 2313.04 0.764905 2.60502 0
M  V30 24850 C 2311.49 3.18193 1.68169 0
M  V30 24851 C 2311.1 4.40826 0.798512 0
M  V30 24852 C 2312.85 3.50787 2.39059 0
M  V30 24853 C 2310.75 5.70414 1.56147 0
M  V30 24854 H 2309.68 0.669768 0.346305 0
M  V30 24855 H 2312.33 1.82704 0.170768 0
M  V30 24856 H 2310.72 3.09359 2.47211 0
M  V30 24857 H 2311.89 4.60776 0.0469855 0
M  V30 24858 H 2310.21 4.15916 0.200613 0
M  V30 24859 H 2312.8 4.4484 2.96685 0
M  V30 24860 H 2313.15 2.74377 3.13087 0
M  V30 24861 H 2313.68 3.61055 1.66986 0
M  V30 24862 H 2310.42 6.49781 0.864028 0
M  V30 24863 H 2309.94 5.54487 2.28701 0
M  V30 24864 H 2311.62 6.11416 2.11611 0
M  V30 24865 N 2311.75 -0.465951 1.50554 0
M  V30 24866 C 2313.03 -1.22709 1.52322 0
M  V30 24867 C 2313.41 -2.09355 0.270844 0
M  V30 24868 O 2312.75 -2.15997 -0.745503 0
M  V30 24869 C 2312.96 -2.05369 2.82178 0
M  V30 24870 C 2314.31 -2.63384 3.33037 0
M  V30 24871 O 2315.34 -2.15607 2.83535 0
M  V30 24872 O 2314.19 -3.50449 4.19342 0
M  V30 24873 H 2311.29 -0.557111 0.611193 0
M  V30 24874 H 2313.83 -0.477353 1.62848 0
M  V30 24875 H 2312.61 -1.41551 3.648 0
M  V30 24876 H 2312.23 -2.87466 2.7468 0
M  V30 24877 N 2313.23 -1.40218 -0.719481 0
M  V30 24878 C 2314.17 -1.40175 -1.83357 0
M  V30 24879 C 2315.14 -0.259235 -1.64065 0
M  V30 24880 O 2316.33 -0.456709 -1.85253 0
M  V30 24881 C 2313.47 -1.26629 -3.21028 0
M  V30 24882 C 2312.58 -2.50554 -3.51918 0
M  V30 24883 C 2311.72 -2.2948 -4.79075 0
M  V30 24884 C 2310.76 -3.49001 -5.02857 0
M  V30 24885 N 2309.89 -3.27146 -6.21224 0
M  V30 24886 H 2314.73 -2.35402 -1.82729 0
M  V30 24887 H 2312.27 -1.16918 -0.892668 0
M  V30 24888 H 2314.23 -1.16783 -4.00522 0
M  V30 24889 H 2312.86 -0.350232 -3.20894 0
M  V30 24890 H 2311.91 -2.70944 -2.67009 0
M  V30 24891 H 2313.22 -3.39531 -3.65404 0
M  V30 24892 H 2312.38 -2.16965 -5.66578 0
M  V30 24893 H 2311.11 -1.37922 -4.67792 0
M  V30 24894 H 2310.12 -3.61997 -4.13809 0
M  V30 24895 H 2311.34 -4.41481 -5.16015 0
M  V30 24896 H 2309.29 -2.38267 -6.112 0
M  V30 24897 H 2309.21 -4.09687 -6.35368 0
M  V30 24898 H 2310.48 -3.18356 -7.11526 0
M  V30 24899 N 2314.7 0.951297 -1.25651 0
M  V30 24900 C 2315.67 2.03005 -1.06402 0
M  V30 24901 C 2316.67 1.60792 -0.0157077 0
M  V30 24902 O 2317.86 1.72276 -0.2582 0
M  V30 24903 C 2314.99 3.35284 -0.616243 0
M  V30 24904 H 2316.18 2.21514 -2.02168 0
M  V30 24905 H 2313.74 1.12885 -1.08105 0
M  V30 24906 H 2314.47 3.22472 0.343861 0
M  V30 24907 H 2314.26 3.67272 -1.37308 0
M  V30 24908 H 2315.75 4.14558 -0.503105 0
M  V30 24909 N 2316.18 1.07291 1.1544 0
M  V30 24910 C 2317.6 0.798313 1.382 0
M  V30 24911 C 2317.8 -0.597735 1.9243 0
M  V30 24912 O 2316.85 -1.35656 2.12964 0
M  V30 24913 C 2318.17 1.8716 2.35354 0
M  V30 24914 C 2319.72 1.89629 2.49018 0
M  V30 24915 C 2320.19 2.9604 3.49463 0
M  V30 24916 N 2321.68 2.95139 3.56998 0
M  V30 24917 C 2322.42 3.7412 4.34536 0
M  V30 24918 N 2321.91 4.62949 5.15413 0
M  V30 24919 N 2323.71 3.62469 4.29619 0
M  V30 24920 H 2315.86 1.97329 0.785806 0
M  V30 24921 H 2318.12 0.855687 0.40805 0
M  V30 24922 H 2317.83 2.87468 2.02621 0
M  V30 24923 H 2317.7 1.7312 3.35126 0
M  V30 24924 H 2320.09 0.899736 2.81049 0
M  V30 24925 H 2320.17 2.07748 1.49247 0
M  V30 24926 H 2319.81 3.95895 3.18166 0
M  V30 24927 H 2319.74 2.75169 4.48988 0
M  V30 24928 H 2322.23 2.30748 2.99272 0
M  V30 24929 H 2322.55 5.19847 5.71821 0
M  V30 24930 H 2320.89 4.66998 5.14721 0
M  V30 24931 H 2324.08 2.9245 3.655 0
M  V30 24932 H 2324.25 4.24265 4.89799 0
M  V30 24933 N 2317.66 -1.32267 0.856927 0
M  V30 24934 C 2318.94 -1.91821 0.382617 0
M  V30 24935 C 2319.32 -1.78053 -1.13404 0
M  V30 24936 O 2318.67 -1.18004 -1.95671 0
M  V30 24937 C 2318.88 -3.38503 0.849505 0
M  V30 24938 C 2320.22 -4.15633 0.868009 0
M  V30 24939 O 2321.25 -3.47231 0.794293 0
M  V30 24940 O 2320.11 -5.3778 0.972381 0
M  V30 24941 H 2317.2 -0.819377 0.112028 0
M  V30 24942 H 2319.75 -1.41022 0.943977 0
M  V30 24943 H 2318.52 -3.42478 1.89273 0
M  V30 24944 H 2318.14 -3.96711 0.265722 0
M  V30 24945 N 2319.14 -0.615084 -1.45102 0
M  V30 24946 C 2320.07 0.0865209 -2.3334 0
M  V30 24947 C 2321.05 0.851183 -1.47271 0
M  V30 24948 O 2322.23 0.82025 -1.76027 0
M  V30 24949 C 2319.36 1.0795 -3.30097 0
M  V30 24950 C 2318.32 0.427553 -4.25859 0
M  V30 24951 C 2317.64 1.52931 -5.12363 0
M  V30 24952 C 2318.94 -0.656035 -5.18164 0
M  V30 24953 H 2320.64 -0.650275 -2.92253 0
M  V30 24954 H 2318.18 -0.314163 -1.40531 0
M  V30 24955 H 2320.14 1.57894 -3.90701 0
M  V30 24956 H 2318.86 1.84699 -2.69359 0
M  V30 24957 H 2317.52 -0.0510936 -3.66564 0
M  V30 24958 H 2317.17 2.28726 -4.47988 0
M  V30 24959 H 2316.87 1.09855 -5.7724 0
M  V30 24960 H 2318.39 2.03087 -5.75837 0
M  V30 24961 H 2319.81 -0.240358 -5.72796 0
M  V30 24962 H 2318.2 -1.00898 -5.91557 0
M  V30 24963 H 2319.27 -1.52965 -4.60141 0
M  V30 24964 N 2320.62 1.53557 -0.354678 0
M  V30 24965 C 2321.55 2.28321 0.489051 0
M  V30 24966 C 2322.53 1.30318 1.09322 0
M  V30 24967 O 2323.71 1.59175 1.11252 0
M  V30 24968 C 2320.84 3.06433 1.6345 0
M  V30 24969 C 2319.8 4.12033 1.15813 0
M  V30 24970 C 2319.12 4.78164 2.39297 0
M  V30 24971 C 2320.42 5.21698 0.250639 0
M  V30 24972 H 2322.12 2.99097 -0.134666 0
M  V30 24973 H 2319.66 1.43848 -0.0662079 0
M  V30 24974 H 2321.62 3.57479 2.2313 0
M  V30 24975 H 2320.34 2.33329 2.28529 0
M  V30 24976 H 2319 3.61917 0.584083 0
M  V30 24977 H 2318.65 4.01643 3.02807 0
M  V30 24978 H 2318.35 5.49517 2.08099 0
M  V30 24979 H 2319.87 5.31999 2.99682 0
M  V30 24980 H 2321.29 5.68312 0.754595 0
M  V30 24981 H 2319.68 6.00092 0.0300413 0
M  V30 24982 H 2320.75 4.79671 -0.710209 0
M  V30 24983 N 2322.1 0.083568 1.57378 0
M  V30 24984 C 2323.37 -0.624475 1.85364 0
M  V30 24985 C 2323.75 -1.87064 0.978272 0
M  V30 24986 O 2323.1 -2.2845 0.047631 0
M  V30 24987 C 2323.31 -0.950888 3.35796 0
M  V30 24988 C 2324.66 -1.31931 4.03583 0
M  V30 24989 O 2325.68 -1.04226 3.4061 0
M  V30 24990 O 2324.54 -1.8377 5.14676 0
M  V30 24991 H 2321.64 -0.311315 0.766167 0
M  V30 24992 H 2324.18 0.115392 1.69307 0
M  V30 24993 H 2322.95 -0.0663212 3.91244 0
M  V30 24994 H 2322.58 -1.74712 3.57157 0
M  V30 24995 N 2323.57 -1.5645 -0.190064 0
M  V30 24996 C 2324.54 -1.94082 -1.21921 0
M  V30 24997 C 2325.54 -0.822455 -1.38175 0
M  V30 24998 O 2326.73 -1.0898 -1.35901 0
M  V30 24999 C 2323.86 -2.21926 -2.58769 0
M  V30 25000 H 2325.05 -2.86158 -0.897413 0
M  V30 25001 H 2322.6 -1.50218 -0.431784 0
M  V30 25002 H 2323.34 -1.32504 -2.95995 0
M  V30 25003 H 2323.12 -3.03428 -2.48342 0
M  V30 25004 H 2324.61 -2.52028 -3.32974 0
M  V30 25005 N 2325.05 0.45796 -1.50799 0
M  V30 25006 C 2325.96 1.57986 -1.73429 0
M  V30 25007 C 2326.98 1.62664 -0.617773 0
M  V30 25008 O 2328.15 1.80289 -0.897646 0
M  V30 25009 C 2325.22 2.94119 -1.83562 0
M  V30 25010 C 2324.28 2.99724 -3.0735 0
M  V30 25011 C 2323.51 4.29363 -3.16991 0
M  V30 25012 O 2323.74 5.20603 -2.33086 0
M  V30 25013 O 2322.67 4.4083 -4.0982 0
M  V30 25014 H 2326.5 1.41812 -2.68557 0
M  V30 25015 H 2324.08 0.638836 -1.35053 0
M  V30 25016 H 2325.96 3.74948 -1.92332 0
M  V30 25017 H 2324.64 3.10464 -0.916191 0
M  V30 25018 H 2323.54 2.17924 -3.04072 0
M  V30 25019 H 2324.88 2.88319 -3.98915 0
M  V30 25020 N 2326.53 1.40598 0.712035 0
M  V30 25021 C 2327.46 1.43902 1.83887 0
M  V30 25022 C 2328.44 0.299533 1.67442 0
M  V30 25023 O 2329.63 0.508657 1.8742 0
M  V30 25024 C 2326.76 1.30437 3.21875 0
M  V30 25025 C 2325.71 2.42026 3.52998 0
M  V30 25026 C 2325.04 2.13634 4.90168 0
M  V30 25027 C 2326.34 3.84368 3.53636 0
M  V30 25028 H 2328.03 2.38206 1.81379 0
M  V30 25029 H 2325.58 1.14655 0.871217 0
M  V30 25030 H 2327.53 1.31364 4.00402 0
M  V30 25031 H 2326.25 0.326107 3.24968 0
M  V30 25032 H 2324.91 2.40354 2.76813 0
M  V30 25033 H 2324.56 1.14191 4.89867 0
M  V30 25034 H 2324.26 2.88398 5.11957 0
M  V30 25035 H 2325.78 2.1625 5.71024 0
M  V30 25036 H 2327.2 3.87844 4.22196 0
M  V30 25037 H 2325.59 4.5868 3.86953 0
M  V30 25038 H 2326.66 4.13698 2.52947 0
M  V30 25039 N 2328.01 -0.94462 1.26153 0
M  V30 25040 C 2329.24 -1.72487 1.14262 0
M  V30 25041 C 2329.65 -1.86361 -0.302523 0
M  V30 25042 O 2329.01 -1.36852 -1.20739 0
M  V30 25043 C 2329.06 -3.13344 1.80272 0
M  V30 25044 O 2328.78 -3.00137 3.19138 0
M  V30 25045 C 2330.28 -4.076 1.7429 0
M  V30 25046 H 2327.5 -0.540174 0.398061 0
M  V30 25047 H 2330.04 -1.18443 1.66708 0
M  V30 25048 H 2328.2 -3.643 1.31772 0
M  V30 25049 H 2328.61 -3.89065 3.51751 0
M  V30 25050 H 2330.09 -5.04009 2.2512 0
M  V30 25051 H 2330.56 -4.33444 0.708708 0
M  V30 25052 H 2331.17 -3.62563 2.22325 0
M  V30 25053 N 2329.49 -1.07901 -1.1487 0
M  V30 25054 C 2330.45 -0.708199 -2.17984 0
M  V30 25055 C 2331.45 0.254393 -1.58775 0
M  V30 25056 O 2332.64 0.0346144 -1.74166 0
M  V30 25057 C 2329.77 -0.0447528 -3.40871 0
M  V30 25058 H 2330.96 -1.6212 -2.52303 0
M  V30 25059 H 2328.52 -0.876241 -1.29428 0
M  V30 25060 H 2329.25 0.880227 -3.12126 0
M  V30 25061 H 2329.04 -0.737159 -3.85108 0
M  V30 25062 H 2330.53 0.199836 -4.17122 0
M  V30 25063 N 2330.96 1.31811 -0.863929 0
M  V30 25064 C 2331.9 2.26714 -0.260003 0
M  V30 25065 C 2332.87 1.5083 0.607366 0
M  V30 25066 O 2334.06 1.79923 0.562123 0
M  V30 25067 C 2331.19 3.32744 0.632398 0
M  V30 25068 C 2330.23 4.26189 -0.162818 0
M  V30 25069 S 2331.06 5.12958 -1.53735 0
M  V30 25070 C 2332.22 6.22506 -0.650912 0
M  V30 25071 H 2332.45 2.77589 -1.0645 0
M  V30 25072 H 2329.99 1.39484 -0.662096 0
M  V30 25073 H 2331.94 3.94307 1.1416 0
M  V30 25074 H 2330.61 2.80634 1.41078 0
M  V30 25075 H 2329.8 5.01338 0.517277 0
M  V30 25076 H 2329.4 3.69092 -0.603915 0
M  V30 25077 H 2331.69 6.77353 0.141015 0
M  V30 25078 H 2332.64 6.94655 -1.37334 0
M  V30 25079 H 2333.04 5.64067 -0.22114 0
M  V30 25080 N 2332.44 0.62277 1.44773 0
M  V30 25081 C 2333.4 -0.0773612 2.29069 0
M  V30 25082 C 2334.4 -0.780437 1.40591 0
M  V30 25083 O 2335.59 -0.626293 1.62552 0
M  V30 25084 C 2332.73 -1.12 3.21976 0
M  V30 25085 H 2333.92 0.663952 2.92458 0
M  V30 25086 H 2331.47 0.382512 1.51547 0
M  V30 25087 H 2332.21 -1.89157 2.6342 0
M  V30 25088 H 2331.99 -0.619883 3.87169 0
M  V30 25089 H 2333.48 -1.60988 3.85321 0
M  V30 25090 N 2333.92 -1.53367 0.362817 0
M  V30 25091 C 2335.17 -2.00818 -0.22729 0
M  V30 25092 C 2335.49 -1.25188 -1.49509 0
M  V30 25093 O 2334.76 -0.364382 -1.92481 0
M  V30 25094 H 2333.34 -0.741919 -0.0869792 0
M  V30 25095 H 2336 -1.88681 0.488414 0
M  V30 25096 H 2335.1 -3.08748 -0.456219 0
M  V30 25097 N 2335.4 -0.091913 -1.57332 0
M  V30 25098 C 2336.31 0.882467 -2.1737 0
M  V30 25099 C 2337.32 1.31255 -1.14228 0
M  V30 25100 O 2338.5 1.38112 -1.46585 0
M  V30 25101 C 2335.57 2.12471 -2.73965 0
M  V30 25102 C 2334.63 1.74913 -3.92051 0
M  V30 25103 C 2333.86 2.93215 -4.45938 0
M  V30 25104 O 2334.08 4.07845 -3.98771 0
M  V30 25105 O 2333.02 2.71866 -5.37003 0
M  V30 25106 H 2336.84 0.401667 -3.01032 0
M  V30 25107 H 2334.43 0.132264 -1.48813 0
M  V30 25108 H 2336.31 2.85278 -3.10152 0
M  V30 25109 H 2334.98 2.59609 -1.93351 0
M  V30 25110 H 2333.89 0.992961 -3.60681 0
M  V30 25111 H 2335.22 1.3254 -4.74019 0
M  V30 25112 N 2336.88 1.56548 0.181765 0
M  V30 25113 C 2338.1 1.85879 0.919987 0
M  V30 25114 C 2338.53 0.677052 1.75493 0
M  V30 25115 O 2337.88 -0.374025 1.774 0
M  V30 25116 C 2337.93 3.13545 1.78107 0
M  V30 25117 O 2337.04 2.95034 2.88147 0
M  V30 25118 H 2336.38 0.61169 0.258323 0
M  V30 25119 H 2338.91 2.03779 0.183056 0
M  V30 25120 H 2338.92 3.44682 2.18308 0
M  V30 25121 H 2337.59 3.99171 1.1677 0
M  V30 25122 H 2336.17 2.75226 2.51604 0
M  V30 25123 N 2338.35 -0.449957 1.5104 0
M  V30 25124 C 2339.58 -1.2214 1.6663 0
M  V30 25125 C 2339.99 -1.85786 0.357809 0
M  V30 25126 O 2339.34 -1.70952 -0.672394 0
M  V30 25127 C 2339.4 -2.35568 2.71566 0
M  V30 25128 C 2339.06 -1.92391 4.14529 0
M  V30 25129 C 2340.06 -1.43444 4.9972 0
M  V30 25130 C 2337.74 -2.00467 4.60563 0
M  V30 25131 C 2339.74 -1.03144 6.28999 0
M  V30 25132 C 2337.42 -1.59778 5.89843 0
M  V30 25133 C 2338.42 -1.11196 6.73887 0
M  V30 25134 O 2338.11 -0.710794 8.00751 0
M  V30 25135 H 2337.84 -0.374714 0.562642 0
M  V30 25136 H 2340.4 -0.541001 1.98147 0
M  V30 25137 H 2338.63 -3.06845 2.35336 0
M  V30 25138 H 2340.32 -2.97473 2.76161 0
M  V30 25139 H 2341.08 -1.3661 4.65363 0
M  V30 25140 H 2336.96 -2.37228 3.95277 0
M  V30 25141 H 2340.5 -0.651541 6.94551 0
M  V30 25142 H 2336.4 -1.66278 6.23716 0
M  V30 25143 H 2337.17 -0.83777 8.14201 0
M  V30 25144 N 2339.83 -1.40974 -0.704569 0
M  V30 25145 C 2341.06 -1.4338 -1.49856 0
M  V30 25146 C 2341.48 -0.0382171 -1.88061 0
M  V30 25147 O 2340.84 0.956398 -1.54022 0
M  V30 25148 C 2340.89 -2.34043 -2.74329 0
M  V30 25149 O 2339.99 -1.79127 -3.71466 0
M  V30 25150 H 2339.33 -0.486982 -0.451381 0
M  V30 25151 H 2341.86 -1.85331 -0.8668 0
M  V30 25152 H 2341.87 -2.49609 -3.22737 0
M  V30 25153 H 2340.55 -3.35451 -2.45857 0
M  V30 25154 H 2339.13 -1.72964 -3.3036 0
M  V30 25155 N 2341.31 0.937917 -1.26653 0
M  V30 25156 C 2342.73 1.21203 -1.03836 0
M  V30 25157 C 2342.93 2.00131 0.234467 0
M  V30 25158 O 2341.98 2.34241 0.942726 0
M  V30 25159 C 2343.3 1.97013 -2.27171 0
M  V30 25160 C 2344.84 2.09992 -2.32105 0
M  V30 25161 C 2345.32 2.89204 -3.55141 0
M  V30 25162 N 2346.81 2.96776 -3.55638 0
M  V30 25163 C 2347.54 3.58505 -4.47506 0
M  V30 25164 N 2347.04 4.21707 -5.49668 0
M  V30 25165 N 2348.83 3.55809 -4.35151 0
M  V30 25166 H 2340.98 0.410354 -2.08398 0
M  V30 25167 H 2343.25 0.244098 -0.916035 0
M  V30 25168 H 2342.95 1.46428 -3.19768 0
M  V30 25169 H 2342.83 2.97667 -2.31677 0
M  V30 25170 H 2345.21 2.59766 -1.4002 0
M  V30 25171 H 2345.3 1.0859 -2.31607 0
M  V30 25172 H 2344.94 2.40115 -4.47557 0
M  V30 25173 H 2344.87 3.90869 -3.52887 0
M  V30 25174 H 2347.36 2.51847 -2.81747 0
M  V30 25175 H 2347.67 4.66716 -6.15951 0
M  V30 25176 H 2346.02 4.20284 -5.53522 0
M  V30 25177 H 2349.21 3.05628 -3.54555 0
M  V30 25178 H 2349.38 4.03627 -5.06941 0
M  V30 25179 N 2342.79 1.08509 1.14296 0
M  V30 25180 C 2343.75 0.71975 2.17606 0
M  V30 25181 C 2344.75 -0.245969 1.58908 0
M  V30 25182 O 2345.94 -0.0253775 1.74182 0
M  V30 25183 C 2343.07 0.0628294 3.40842 0
M  V30 25184 H 2344.27 1.63456 2.5144 0
M  V30 25185 H 2341.82 0.883093 1.28962 0
M  V30 25186 H 2342.55 -0.863661 3.12588 0
M  V30 25187 H 2342.34 0.757572 3.84712 0
M  V30 25188 H 2343.83 -0.177712 4.17222 0
M  V30 25189 N 2344.27 -1.31351 0.870907 0
M  V30 25190 C 2345.5 -2.00556 0.496085 0
M  V30 25191 C 2345.9 -1.65536 -0.916212 0
M  V30 25192 O 2345.25 -0.881163 -1.61187 0
M  V30 25193 C 2345.31 -3.5488 0.57448 0
M  V30 25194 C 2344.97 -4.13377 1.94856 0
M  V30 25195 C 2345.97 -4.30412 2.91618 0
M  V30 25196 C 2343.66 -4.49082 2.25013 0
M  V30 25197 C 2345.65 -4.82345 4.1668 0
M  V30 25198 C 2343.34 -5.00716 3.50324 0
M  V30 25199 C 2344.33 -5.17298 4.45973 0
M  V30 25200 O 2344.02 -5.67823 5.69062 0
M  V30 25201 H 2343.75 -0.648256 0.191676 0
M  V30 25202 H 2346.31 -1.68533 1.17412 0
M  V30 25203 H 2344.54 -3.86367 -0.160482 0
M  V30 25204 H 2346.23 -4.05341 0.21295 0
M  V30 25205 H 2346.99 -4.03144 2.69629 0
M  V30 25206 H 2342.87 -4.35451 1.5134 0
M  V30 25207 H 2346.42 -4.95203 4.91345 0
M  V30 25208 H 2342.31 -5.27418 3.72157 0
M  V30 25209 H 2343.08 -5.86191 5.71247 0
M  V30 25210 N 2345.74 -0.630439 -1.44441 0
M  V30 25211 C 2346.99 -0.134386 -2.01653 0
M  V30 25212 C 2347.31 1.24794 -1.49838 0
M  V30 25213 O 2346.58 1.82901 -0.701716 0
M  V30 25214 H 2345.16 -0.04669 -0.745539 0
M  V30 25215 H 2347.83 -0.816986 -1.7695 0
M  V30 25216 H 2346.92 -0.101552 -3.11935 0
M  V30 25217 N 2347.22 1.53172 -0.370945 0
M  V30 25218 C 2348.19 2.24521 0.460739 0
M  V30 25219 C 2349.19 1.25498 1.00534 0
M  V30 25220 O 2350.38 1.49734 0.89024 0
M  V30 25221 C 2347.51 2.98611 1.64452 0
M  V30 25222 H 2348.7 2.99453 -0.163665 0
M  V30 25223 H 2346.25 1.55817 -0.122726 0
M  V30 25224 H 2346.99 2.27934 2.30687 0
M  V30 25225 H 2346.77 3.71272 1.26092 0
M  V30 25226 H 2348.26 3.52834 2.23378 0
M  V30 25227 N 2348.7 0.100255 1.57281 0
M  V30 25228 C 2349.63 -0.893575 2.09977 0
M  V30 25229 C 2350.61 -1.27303 1.01157 0
M  V30 25230 O 2351.8 -1.37736 1.28689 0
M  V30 25231 C 2348.92 -2.1932 2.58102 0
M  V30 25232 C 2347.97 -1.96322 3.78629 0
M  V30 25233 S 2348.8 -1.19653 5.21961 0
M  V30 25234 C 2349.96 -2.50834 5.7344 0
M  V30 25235 H 2350.19 -0.445288 2.93946 0
M  V30 25236 H 2347.72 -0.11314 1.53985 0
M  V30 25237 H 2349.68 -2.94 2.86486 0
M  V30 25238 H 2348.34 -2.61268 1.74349 0
M  V30 25239 H 2347.54 -2.92572 4.10387 0
M  V30 25240 H 2347.14 -1.29768 3.50765 0
M  V30 25241 H 2349.43 -3.46782 5.82021 0
M  V30 25242 H 2350.37 -2.23647 6.71854 0
M  V30 25243 H 2350.78 -2.59343 5.01399 0
M  V30 25244 N 2350.18 -1.56643 -0.17346 0
M  V30 25245 C 2351.43 -1.82142 -0.891752 0
M  V30 25246 C 2351.76 -0.677768 -1.81989 0
M  V30 25247 O 2351.03 0.320412 -1.91843 0
M  V30 25248 C 2351.32 -3.18018 -1.68928 0
M  V30 25249 C 2351.17 -4.42908 -0.784409 0
M  V30 25250 C 2352.49 -3.50812 -2.65742 0
M  V30 25251 H 2349.61 -0.662572 -0.322749 0
M  V30 25252 H 2352.25 -1.89341 -0.158062 0
M  V30 25253 H 2350.4 -3.12011 -2.31476 0
M  V30 25254 H 2352.07 -4.60979 -0.171965 0
M  V30 25255 H 2350.31 -4.33702 -0.0923355 0
M  V30 25256 H 2350.99 -5.34526 -1.3779 0
M  V30 25257 H 2353.46 -3.57259 -2.1332 0
M  V30 25258 H 2352.34 -4.46965 -3.18612 0
M  V30 25259 H 2352.6 -2.75407 -3.45838 0
M  V30 25260 N 2351.66 0.44194 -1.51277 0
M  V30 25261 C 2352.88 1.21892 -1.67801 0
M  V30 25262 C 2353.31 1.84367 -0.372896 0
M  V30 25263 O 2352.67 1.68606 0.666471 0
M  V30 25264 C 2352.71 2.28206 -2.79203 0
M  V30 25265 O 2351.82 3.33579 -2.42485 0
M  V30 25266 H 2351.16 0.357326 -0.559655 0
M  V30 25267 H 2353.69 0.522487 -1.97816 0
M  V30 25268 H 2353.7 2.73064 -3.03151 0
M  V30 25269 H 2352.37 1.82111 -3.7391 0
M  V30 25270 H 2350.95 2.9423 -2.29092 0
M  V30 25271 N 2353.14 1.41345 0.697083 0
M  V30 25272 C 2354.38 1.42088 1.46937 0
M  V30 25273 C 2354.74 0.0280734 1.91979 0
M  V30 25274 O 2355.94 -0.0897031 2.6865 0
M  V30 25275 C 2354.21 2.39833 2.64981 0
M  V30 25276 S 2355.77 2.59092 3.54143 0
M  V30 25277 H 2352.59 0.503368 0.502137 0
M  V30 25278 H 2355.19 1.7777 0.813515 0
M  V30 25279 H 2353.89 3.39832 2.30092 0
M  V30 25280 H 2353.43 2.05498 3.35461 0
M  V30 25281 H 2355.44 1.85719 4.60134 0
M  V30 25282 N 2354.61 -0.931187 1.27148 0
M  V30 25283 C 2355.56 -2.0174 1.06231 0
M  V30 25284 C 2356.55 -1.60898 -0.00856237 0
M  V30 25285 O 2357.74 -1.75755 0.209568 0
M  V30 25286 C 2354.87 -3.35923 0.707846 0
M  V30 25287 C 2353.95 -3.8322 1.81668 0
M  V30 25288 N 2354.35 -4.03063 3.05571 0
M  V30 25289 C 2352.64 -4.12224 1.70256 0
M  V30 25290 C 2353.34 -4.42396 3.77704 0
M  V30 25291 N 2352.32 -4.49669 3.05448 0
M  V30 25292 H 2356.12 -2.15108 2.00264 0
M  V30 25293 H 2353.64 -1.11777 1.17812 0
M  V30 25294 H 2355.63 -4.134 0.539115 0
M  V30 25295 H 2354.29 -3.2392 -0.224907 0
M  V30 25296 H 2355.3 -3.8947 3.4137 0
M  V30 25297 H 2351.98 -4.08954 0.840401 0
M  V30 25298 H 2353.37 -4.65857 4.84176 0
M  V30 25299 N 2356.09 -1.09114 -1.13719 0
M  V30 25300 C 2357.02 -0.671618 -2.18093 0
M  V30 25301 C 2358 0.320271 -1.59415 0
M  V30 25302 O 2359.19 0.222411 -1.87183 0
M  V30 25303 C 2356.31 0.0110594 -3.38698 0
M  V30 25304 C 2355.36 -0.942128 -4.15964 0
M  V30 25305 S 2356.19 -2.45255 -4.76036 0
M  V30 25306 C 2357.35 -1.78219 -5.99991 0
M  V30 25307 H 2357.58 -1.55581 -2.53341 0
M  V30 25308 H 2355.11 -0.906811 -1.24965 0
M  V30 25309 H 2357.07 0.398645 -4.0856 0
M  V30 25310 H 2355.73 0.871852 -3.01757 0
M  V30 25311 H 2354.93 -0.411485 -5.02317 0
M  V30 25312 H 2354.53 -1.27096 -3.51742 0
M  V30 25313 H 2356.82 -1.10435 -6.68439 0
M  V30 25314 H 2357.76 -2.62474 -6.57657 0
M  V30 25315 H 2358.17 -1.25247 -5.5043 0
M  V30 25316 N 2357.57 1.30887 -0.877861 0
M  V30 25317 C 2358.5 2.3078 -0.355381 0
M  V30 25318 C 2359.48 1.60688 0.557965 0
M  V30 25319 O 2360.67 1.88344 0.473322 0
M  V30 25320 C 2357.8 3.44538 0.437161 0
M  V30 25321 C 2356.75 4.26276 -0.38379 0
M  V30 25322 C 2356.08 5.32018 0.534921 0
M  V30 25323 C 2357.38 4.96473 -1.6221 0
M  V30 25324 H 2359.07 2.7473 -1.19012 0
M  V30 25325 H 2356.62 1.32077 -0.573722 0
M  V30 25326 H 2358.57 4.13478 0.813261 0
M  V30 25327 H 2357.29 2.99374 1.30548 0
M  V30 25328 H 2355.95 3.59014 -0.741938 0
M  V30 25329 H 2355.6 4.83103 1.40074 0
M  V30 25330 H 2355.3 5.87599 -0.0105244 0
M  V30 25331 H 2356.82 6.03816 0.907693 0
M  V30 25332 H 2358.24 5.57968 -1.31699 0
M  V30 25333 H 2356.63 5.61887 -2.10721 0
M  V30 25334 H 2357.7 4.23006 -2.37052 0
M  V30 25335 N 2359.05 0.638091 1.44105 0
M  V30 25336 C 2360.27 0.150952 2.0685 0
M  V30 25337 C 2360.7 -1.1683 1.47419 0
M  V30 25338 O 2360.06 -1.7183 0.578295 0
M  V30 25339 C 2360.1 0.0571434 3.60555 0
M  V30 25340 O 2359.21 -0.984902 4.00467 0
M  V30 25341 H 2358.55 0.0879514 0.658149 0
M  V30 25342 H 2361.08 0.87674 1.84863 0
M  V30 25343 H 2361.09 -0.13116 4.07789 0
M  V30 25344 H 2359.76 1.02028 4.03191 0
M  V30 25345 H 2358.34 -0.770608 3.64851 0
M  V30 25346 N 2360.53 -1.52973 0.379063 0
M  V30 25347 C 2361.44 -2.29872 -0.468599 0
M  V30 25348 C 2362.45 -1.36375 -1.08065 0
M  V30 25349 O 2363.63 -1.6944 -1.08868 0
M  V30 25350 C 2360.69 -3.08303 -1.58589 0
M  V30 25351 C 2359.75 -4.17491 -0.999997 0
M  V30 25352 C 2358.99 -4.92172 -2.06404 0
M  V30 25353 O 2359.21 -4.66841 -3.27743 0
M  V30 25354 O 2358.14 -5.77773 -1.68707 0
M  V30 25355 H 2361.97 -3.03291 0.157561 0
M  V30 25356 H 2359.55 -1.48713 0.143061 0
M  V30 25357 H 2361.44 -3.57235 -2.23519 0
M  V30 25358 H 2360.11 -2.37707 -2.1972 0
M  V30 25359 H 2359.02 -3.72778 -0.314233 0
M  V30 25360 H 2360.35 -4.90291 -0.433049 0
M  V30 25361 N 2362 -0.108595 -1.57225 0
M  V30 25362 C 2362.93 0.842282 -2.17779 0
M  V30 25363 C 2363.91 1.28469 -1.11489 0
M  V30 25364 O 2365.1 1.34916 -1.39683 0
M  V30 25365 C 2362.23 2.09639 -2.76891 0
M  V30 25366 C 2361.18 1.79214 -3.88673 0
M  V30 25367 C 2360.51 3.11567 -4.34546 0
M  V30 25368 C 2361.81 1.06855 -5.11253 0
M  V30 25369 H 2363.5 0.337721 -2.97489 0
M  V30 25370 H 2361.05 0.161 -1.43097 0
M  V30 25371 H 2363 2.76608 -3.17909 0
M  V30 25372 H 2361.73 2.62401 -1.94456 0
M  V30 25373 H 2360.39 1.14638 -3.48215 0
M  V30 25374 H 2360.03 3.62243 -3.48983 0
M  V30 25375 H 2359.73 2.91987 -5.09919 0
M  V30 25376 H 2361.26 3.79672 -4.78207 0
M  V30 25377 H 2362.67 1.63958 -5.49355 0
M  V30 25378 H 2361.07 0.974074 -5.92142 0
M  V30 25379 H 2362.14 0.0535316 -4.8487 0
M  V30 25380 N 2363.48 1.56732 0.16515 0
M  V30 25381 C 2364.39 2.00127 1.22419 0
M  V30 25382 C 2365.41 0.913645 1.48083 0
M  V30 25383 O 2366.58 1.22175 1.6011 0
M  V30 25384 C 2363.65 2.35769 2.54193 0
M  V30 25385 C 2362.71 3.5839 2.36337 0
M  V30 25386 C 2361.94 3.92322 3.61827 0
M  V30 25387 O 2362.17 3.27143 4.67262 0
M  V30 25388 O 2361.1 4.85647 3.5557 0
M  V30 25389 H 2364.93 2.90494 0.885835 0
M  V30 25390 H 2362.51 1.44682 0.372492 0
M  V30 25391 H 2364.39 2.59635 3.31915 0
M  V30 25392 H 2363.07 1.48562 2.87595 0
M  V30 25393 H 2361.97 3.39734 1.56626 0
M  V30 25394 H 2363.31 4.46157 2.07857 0
M  V30 25395 N 2364.96 -0.433911 1.51509 0
M  V30 25396 C 2365.87 -1.55207 1.7592 0
M  V30 25397 C 2366.89 -1.61661 0.643574 0
M  V30 25398 O 2368.06 -1.78839 0.926214 0
M  V30 25399 C 2365.13 -2.91161 1.88218 0
M  V30 25400 C 2364.19 -2.94796 3.12079 0
M  V30 25401 C 2363.42 -4.24266 3.23782 0
M  V30 25402 O 2363.64 -5.16829 2.41339 0
M  V30 25403 O 2362.58 -4.34255 4.16781 0
M  V30 25404 H 2366.4 -1.37522 2.70779 0
M  V30 25405 H 2363.99 -0.617269 1.36052 0
M  V30 25406 H 2365.87 -3.71841 1.98273 0
M  V30 25407 H 2364.55 -3.08967 0.965467 0
M  V30 25408 H 2363.45 -2.13059 3.07501 0
M  V30 25409 H 2364.79 -2.81936 4.03451 0
M  V30 25410 N 2366.44 -1.41713 -0.689577 0
M  V30 25411 C 2367.68 -1.41602 -1.45179 0
M  V30 25412 C 2368.02 -0.0270422 -1.94181 0
M  V30 25413 O 2367.29 0.946235 -1.69931 0
M  V30 25414 C 2367.58 -2.42791 -2.65941 0
M  V30 25415 C 2367.43 -3.9082 -2.22665 0
M  V30 25416 C 2368.75 -2.41158 -3.68145 0
M  V30 25417 H 2365.87 -0.515651 -0.526567 0
M  V30 25418 H 2368.51 -1.73029 -0.784917 0
M  V30 25419 H 2366.66 -2.16122 -3.22837 0
M  V30 25420 H 2368.33 -4.28415 -1.7105 0
M  V30 25421 H 2366.57 -4.05397 -1.54387 0
M  V30 25422 H 2367.24 -4.57178 -3.09342 0
M  V30 25423 H 2369.72 -2.64839 -3.20935 0
M  V30 25424 H 2368.6 -3.13963 -4.50242 0
M  V30 25425 H 2368.86 -1.43228 -4.18256 0
M  V30 25426 N 2367.92 0.924431 -1.2764 0
M  V30 25427 C 2369.17 1.667 -1.13552 0
M  V30 25428 C 2369.48 1.93007 0.317453 0
M  V30 25429 O 2370.68 2.65248 0.579287 0
M  V30 25430 C 2369.14 3.00255 -1.98431 0
M  V30 25431 C 2368.75 2.81635 -3.48405 0
M  V30 25432 C 2370.49 3.78089 -1.93 0
M  V30 25433 C 2368.4 4.10766 -4.25471 0
M  V30 25434 H 2367.33 0.625276 -0.421362 0
M  V30 25435 H 2369.98 1.02673 -1.52087 0
M  V30 25436 H 2368.36 3.65357 -1.52743 0
M  V30 25437 H 2369.54 2.2528 -4.01977 0
M  V30 25438 H 2367.85 2.17226 -3.55249 0
M  V30 25439 H 2370.45 4.73786 -2.47853 0
M  V30 25440 H 2370.79 4.06358 -0.904352 0
M  V30 25441 H 2371.32 3.19789 -2.366 0
M  V30 25442 H 2368.06 3.87674 -5.28573 0
M  V30 25443 H 2367.58 4.66772 -3.76675 0
M  V30 25444 H 2369.26 4.79104 -4.3482 0
M  V30 25445 N 2369.39 1.09715 1.13139 0
M  V30 25446 C 2370.33 0.697094 2.18342 0
M  V30 25447 C 2371.34 -0.262523 1.60669 0
M  V30 25448 O 2372.53 -0.0481213 1.78435 0
M  V30 25449 C 2369.63 0.00690685 3.38899 0
M  V30 25450 C 2368.8 0.988816 4.26077 0
M  V30 25451 C 2367.86 0.331486 5.25155 0
M  V30 25452 O 2366.89 0.980025 5.607 0
M  V30 25453 N 2368.09 -0.913161 5.73273 0
M  V30 25454 H 2370.85 1.60221 2.53277 0
M  V30 25455 H 2368.41 0.984993 1.28489 0
M  V30 25456 H 2370.41 -0.44412 4.02256 0
M  V30 25457 H 2368.98 -0.800498 3.02177 0
M  V30 25458 H 2368.2 1.61832 3.5945 0
M  V30 25459 H 2369.48 1.65373 4.81175 0
M  V30 25460 H 2368.88 -1.45956 5.46547 0
M  V30 25461 H 2367.44 -1.30746 6.38552 0
M  V30 25462 N 2370.87 -1.30419 0.88479 0
M  V30 25463 C 2372.1 -2.00018 0.517328 0
M  V30 25464 C 2372.51 -1.66499 -0.898603 0
M  V30 25465 O 2371.85 -0.898209 -1.60243 0
M  V30 25466 C 2371.92 -3.54251 0.612088 0
M  V30 25467 C 2371.58 -4.11287 1.99229 0
M  V30 25468 C 2372.58 -4.27295 2.96167 0
M  V30 25469 C 2370.26 -4.4667 2.29763 0
M  V30 25470 C 2372.26 -4.77898 4.21773 0
M  V30 25471 C 2369.94 -4.96972 3.55615 0
M  V30 25472 C 2370.94 -5.12539 4.51434 0
M  V30 25473 O 2370.63 -5.61756 5.75053 0
M  V30 25474 H 2370.36 -0.646187 0.198541 0
M  V30 25475 H 2372.91 -1.67279 1.19193 0
M  V30 25476 H 2371.14 -3.86515 -0.119493 0
M  V30 25477 H 2372.83 -4.05092 0.25593 0
M  V30 25478 H 2373.6 -4.00262 2.73889 0
M  V30 25479 H 2369.48 -4.33821 1.5595 0
M  V30 25480 H 2373.02 -4.89964 4.9657 0
M  V30 25481 H 2368.92 -5.23441 3.7773 0
M  V30 25482 H 2369.69 -5.80099 5.77432 0
M  V30 25483 N 2372.35 -0.645724 -1.43764 0
M  V30 25484 C 2373.3 0.0504242 -2.30745 0
M  V30 25485 C 2374.27 0.822216 -1.44322 0
M  V30 25486 O 2375.45 0.800328 -1.73203 0
M  V30 25487 C 2372.59 1.01605 -3.29804 0
M  V30 25488 C 2371.71 0.241144 -4.31326 0
M  V30 25489 C 2370.84 1.19989 -5.17471 0
M  V30 25490 C 2369.88 0.414987 -6.10692 0
M  V30 25491 N 2369.02 1.32494 -6.89485 0
M  V30 25492 H 2373.86 -0.697206 -2.89729 0
M  V30 25493 H 2371.39 -0.355588 -1.42737 0
M  V30 25494 H 2373.35 1.58942 -3.85737 0
M  V30 25495 H 2371.98 1.73064 -2.72486 0
M  V30 25496 H 2371.03 -0.4484 -3.77748 0
M  V30 25497 H 2372.35 -0.369525 -4.97429 0
M  V30 25498 H 2371.5 1.84414 -5.77993 0
M  V30 25499 H 2370.24 1.84447 -4.51476 0
M  V30 25500 H 2369.24 -0.242662 -5.49264 0
M  V30 25501 H 2370.47 -0.225085 -6.78727 0
M  V30 25502 H 2368.41 1.95646 -6.26146 0
M  V30 25503 H 2368.33 0.76865 -7.52082 0
M  V30 25504 H 2369.6 1.95757 -7.54519 0
M  V30 25505 N 2373.83 1.5277 -0.38717 0
M  V30 25506 C 2374.76 2.29307 0.440511 0
M  V30 25507 C 2375.74 1.32607 1.06533 0
M  V30 25508 O 2376.92 1.61499 1.0785 0
M  V30 25509 C 2374.05 3.09831 1.56914 0
M  V30 25510 C 2373.01 4.14397 1.07047 0
M  V30 25511 C 2372.33 4.83133 2.291 0
M  V30 25512 C 2373.63 5.22113 0.139923 0
M  V30 25513 H 2375.33 2.98744 -0.198079 0
M  V30 25514 H 2372.87 1.43675 -0.0967052 0
M  V30 25515 H 2374.83 3.62131 2.15497 0
M  V30 25516 H 2373.55 2.38123 2.23528 0
M  V30 25517 H 2372.21 3.63075 0.507183 0
M  V30 25518 H 2371.86 4.07975 2.94219 0
M  V30 25519 H 2371.56 5.53807 1.96396 0
M  V30 25520 H 2373.08 5.38236 2.8833 0
M  V30 25521 H 2374.5 5.69785 0.633878 0
M  V30 25522 H 2372.89 6.00021 -0.097254 0
M  V30 25523 H 2373.96 4.78056 -0.811795 0
M  V30 25524 N 2375.31 0.116931 1.57166 0
M  V30 25525 C 2376.55 -0.542371 1.95413 0
M  V30 25526 C 2376.89 -1.66461 1.00022 0
M  V30 25527 O 2376.16 -1.94465 0.0370688 0
M  V30 25528 C 2376.44 -1.07702 3.43617 0
M  V30 25529 C 2376.3 0.0416659 4.49781 0
M  V30 25530 C 2377.62 -1.96854 3.9362 0
M  V30 25531 H 2374.73 -0.195684 0.710547 0
M  V30 25532 H 2377.38 0.192072 1.89027 0
M  V30 25533 H 2375.53 -1.7029 3.4919 0
M  V30 25534 H 2377.2 0.676873 4.56307 0
M  V30 25535 H 2375.44 0.705094 4.28031 0
M  V30 25536 H 2376.11 -0.373621 5.50734 0
M  V30 25537 H 2378.59 -1.44139 3.90337 0
M  V30 25538 H 2377.46 -2.31181 4.97842 0
M  V30 25539 H 2377.73 -2.89426 3.34193 0
M  V30 25540 N 2376.78 -1.56818 -0.156836 0
M  V30 25541 C 2378.2 -1.72346 -0.717886 0
M  V30 25542 C 2378.55 -0.729779 -1.82123 0
M  V30 25543 O 2377.67 0.105743 -2.16141 0
M  V30 25544 C 2378.27 -3.12492 -1.30898 0
M  V30 25545 C 2376.83 -3.29656 -1.8167 0
M  V30 25546 C 2375.97 -2.68285 -0.701302 0
M  V30 25547 H 2378.92 -1.58551 0.0687268 0
M  V30 25548 H 2378.94 -3.11946 -2.17876 0
M  V30 25549 H 2378.46 -3.84791 -0.505728 0
M  V30 25550 H 2376.56 -2.62337 -2.64594 0
M  V30 25551 H 2376.67 -4.37523 -1.95218 0
M  V30 25552 H 2375.03 -2.28486 -1.12544 0
M  V30 25553 H 2375.82 -3.43181 0.0903449 0
M  V30 25554 N 2378.26 0.425871 -1.51737 0
M  V30 25555 C 2379.17 1.54272 -1.76741 0
M  V30 25556 C 2380.19 1.61317 -0.652138 0
M  V30 25557 O 2381.36 1.78345 -0.935686 0
M  V30 25558 C 2378.43 2.90159 -1.8976 0
M  V30 25559 C 2377.49 2.93137 -3.13638 0
M  V30 25560 C 2376.72 4.22542 -3.26027 0
M  V30 25561 O 2376.95 5.15541 -2.44076 0
M  V30 25562 O 2375.88 4.32038 -4.19078 0
M  V30 25563 H 2379.71 1.36084 -2.71505 0
M  V30 25564 H 2377.29 0.610045 -1.36377 0
M  V30 25565 H 2379.17 3.70784 -2.00242 0
M  V30 25566 H 2377.85 3.0845 -0.981839 0
M  V30 25567 H 2376.76 2.11425 -3.08626 0
M  V30 25568 H 2378.09 2.79792 -4.04941 0
M  V30 25569 N 2379.74 1.42077 0.682052 0
M  V30 25570 C 2381.16 1.24843 0.994302 0
M  V30 25571 C 2381.36 0.147424 2.0096 0
M  V30 25572 O 2380.41 -0.483739 2.47823 0
M  V30 25573 C 2381.73 2.60268 1.50602 0
M  V30 25574 C 2383.27 2.67563 1.62417 0
M  V30 25575 C 2383.75 4.03337 2.16987 0
M  V30 25576 N 2385.24 4.05254 2.2433 0
M  V30 25577 C 2385.97 5.07121 2.67612 0
M  V30 25578 N 2385.47 6.19374 3.104 0
M  V30 25579 N 2387.26 4.94479 2.67296 0
M  V30 25580 H 2379.41 2.12398 0.00970174 0
M  V30 25581 H 2381.68 0.945641 0.0668427 0
M  V30 25582 H 2381.38 3.41656 0.834523 0
M  V30 25583 H 2381.26 2.83689 2.48597 0
M  V30 25584 H 2383.64 1.86525 2.28675 0
M  V30 25585 H 2383.73 2.47938 0.629309 0
M  V30 25586 H 2383.37 4.84828 1.5134 0
M  V30 25587 H 2383.3 4.20309 3.1725 0
M  V30 25588 H 2385.79 3.24212 1.94152 0
M  V30 25589 H 2386.1 6.9296 3.42091 0
M  V30 25590 H 2384.45 6.2289 3.08275 0
M  V30 25591 H 2387.64 4.05861 2.33226 0
M  V30 25592 H 2387.81 5.74002 3.00708 0
M  V30 25593 N 2381.22 -0.917649 1.28129 0
M  V30 25594 C 2382.64 -1.19536 1.05751 0
M  V30 25595 C 2382.84 -2.00479 -0.202598 0
M  V30 25596 O 2381.89 -2.35711 -0.905341 0
M  V30 25597 C 2383.2 -1.93374 2.30276 0
M  V30 25598 C 2384.75 -2.06272 2.35416 0
M  V30 25599 C 2385.23 -2.83517 3.59697 0
M  V30 25600 N 2386.72 -2.91081 3.60314 0
M  V30 25601 C 2387.45 -3.5134 4.53153 0
M  V30 25602 N 2386.95 -4.12909 5.56307 0
M  V30 25603 N 2388.74 -3.48841 4.40757 0
M  V30 25604 H 2380.89 -0.377148 2.09025 0
M  V30 25605 H 2383.16 -0.229494 0.919802 0
M  V30 25606 H 2382.86 -1.41323 3.22057 0
M  V30 25607 H 2382.74 -2.93943 2.36384 0
M  V30 25608 H 2385.12 -2.57506 1.44134 0
M  V30 25609 H 2385.2 -1.04891 2.33305 0
M  V30 25610 H 2384.85 -2.32965 4.5132 0
M  V30 25611 H 2384.78 -3.85205 3.59061 0
M  V30 25612 H 2387.27 -2.47333 2.85718 0
M  V30 25613 H 2387.58 -4.56858 6.23298 0
M  V30 25614 H 2385.93 -4.11425 5.60138 0
M  V30 25615 H 2389.12 -2.99948 3.59373 0
M  V30 25616 H 2389.29 -3.95511 5.13298 0
M  V30 25617 N 2382.7 -1.10314 -1.12555 0
M  V30 25618 C 2383.61 -0.763181 -2.21839 0
M  V30 25619 C 2384.62 0.23877 -1.72354 0
M  V30 25620 O 2385.8 0.0778393 -2.0125 0
M  V30 25621 C 2382.86 -0.198693 -3.4613 0
M  V30 25622 C 2381.93 -1.25776 -4.10462 0
M  V30 25623 C 2381.16 -0.720113 -5.28819 0
M  V30 25624 O 2381.38 0.453893 -5.68591 0
M  V30 25625 O 2380.32 -1.47945 -5.83435 0
M  V30 25626 H 2384.14 -1.67536 -2.53309 0
M  V30 25627 H 2381.73 -0.878179 -1.20865 0
M  V30 25628 H 2383.61 0.112326 -4.2125 0
M  V30 25629 H 2382.28 0.686363 -3.1634 0
M  V30 25630 H 2381.19 -1.62162 -3.37127 0
M  V30 25631 H 2382.52 -2.11579 -4.44404 0
M  V30 25632 N 2384.18 1.29948 -0.891694 0
M  V30 25633 C 2385.42 1.95157 -0.509555 0
M  V30 25634 C 2385.74 1.71127 0.947358 0
M  V30 25635 O 2386.94 2.30375 1.43665 0
M  V30 25636 C 2385.4 3.49465 -0.860377 0
M  V30 25637 C 2385.01 3.82306 -2.33552 0
M  V30 25638 C 2386.75 4.20951 -0.547761 0
M  V30 25639 C 2384.66 5.29821 -2.62762 0
M  V30 25640 H 2383.59 0.730486 -0.186833 0
M  V30 25641 H 2386.24 1.47796 -1.08759 0
M  V30 25642 H 2384.62 3.95436 -0.211354 0
M  V30 25643 H 2385.8 3.47222 -3.02942 0
M  V30 25644 H 2384.11 3.23939 -2.61634 0
M  V30 25645 H 2386.71 5.29513 -0.742947 0
M  V30 25646 H 2387.05 4.13124 0.513248 0
M  V30 25647 H 2387.58 3.80685 -1.15427 0
M  V30 25648 H 2384.32 5.42705 -3.67629 0
M  V30 25649 H 2383.84 5.66181 -1.97987 0
M  V30 25650 H 2385.52 5.97329 -2.48611 0
M  V30 25651 N 2385.65 0.653339 1.4342 0
M  V30 25652 C 2386.9 0.164111 2.01031 0
M  V30 25653 C 2387.22 -1.22923 1.52149 0
M  V30 25654 O 2388.42 -1.81368 2.02035 0
M  V30 25655 C 2386.88 0.242583 3.59082 0
M  V30 25656 C 2386.49 1.63862 4.16957 0
M  V30 25657 C 2388.23 -0.189035 4.24079 0
M  V30 25658 C 2386.14 1.67102 5.67302 0
M  V30 25659 H 2385.07 0.0575901 0.751797 0
M  V30 25660 H 2387.72 0.815391 1.64389 0
M  V30 25661 H 2386.1 -0.476207 3.93126 0
M  V30 25662 H 2387.27 2.38278 3.94412 0
M  V30 25663 H 2385.59 2.01623 3.64331 0
M  V30 25664 H 2388.19 -0.184681 5.34381 0
M  V30 25665 H 2388.53 -1.22049 3.98007 0
M  V30 25666 H 2389.06 0.478008 3.94918 0
M  V30 25667 H 2385.8 2.68157 5.98141 0
M  V30 25668 H 2385.32 0.970118 5.91903 0
M  V30 25669 H 2387 1.41481 6.31341 0
M  V30 25670 N 2387.13 -1.52563 0.395266 0
M  V30 25671 C 2388.55 -1.59535 0.0454962 0
M  V30 25672 C 2388.75 -1.40893 -1.44054 0
M  V30 25673 O 2387.8 -1.22891 -2.20576 0
M  V30 25674 C 2389.12 -2.96028 0.528015 0
M  V30 25675 C 2390.66 -3.09223 0.484788 0
M  V30 25676 C 2391.14 -4.48174 0.943591 0
M  V30 25677 N 2392.63 -4.54375 0.899845 0
M  V30 25678 C 2393.37 -5.60136 1.22619 0
M  V30 25679 N 2392.86 -6.73514 1.62331 0
M  V30 25680 N 2394.65 -5.50272 1.14706 0
M  V30 25681 H 2386.81 -1.62929 1.36264 0
M  V30 25682 H 2389.07 -0.765725 0.5589 0
M  V30 25683 H 2388.77 -3.14905 1.56612 0
M  V30 25684 H 2388.65 -3.77136 -0.0697393 0
M  V30 25685 H 2391.04 -2.90038 -0.544247 0
M  V30 25686 H 2391.12 -2.30054 1.11842 0
M  V30 25687 H 2390.76 -4.68101 1.97088 0
M  V30 25688 H 2390.69 -5.25818 0.286909 0
M  V30 25689 H 2393.18 -3.72982 0.607697 0
M  V30 25690 H 2393.49 -7.50186 1.8558 0
M  V30 25691 H 2391.84 -6.7483 1.66223 0
M  V30 25692 H 2395.03 -4.60578 0.835782 0
M  V30 25693 H 2395.2 -6.32592 1.40471 0
M  V30 25694 N 2388.61 -0.125265 -1.57101 0
M  V30 25695 C 2389.54 0.8532 -2.12728 0
M  V30 25696 C 2390.55 1.2257 -1.07147 0
M  V30 25697 O 2391.74 1.17355 -1.34499 0
M  V30 25698 C 2388.84 2.15313 -2.61713 0
M  V30 25699 C 2388.02 1.95136 -3.9146 0
M  V30 25700 C 2387.08 3.08916 -4.25978 0
M  V30 25701 O 2386.1 2.81555 -4.94687 0
M  V30 25702 N 2387.3 4.35518 -3.83803 0
M  V30 25703 H 2390.07 0.377912 -2.97308 0
M  V30 25704 H 2387.63 0.0589726 -1.61793 0
M  V30 25705 H 2389.62 2.90436 -2.81831 0
M  V30 25706 H 2388.19 2.54171 -1.81978 0
M  V30 25707 H 2387.41 1.0417 -3.80187 0
M  V30 25708 H 2388.7 1.78967 -4.76286 0
M  V30 25709 H 2388.1 4.6062 -3.28398 0
M  V30 25710 H 2386.65 5.07492 -4.09017 0
M  V30 25711 N 2390.09 1.56899 0.148518 0
M  V30 25712 C 2391.34 1.82456 0.859808 0
M  V30 25713 C 2391.65 0.706261 1.82404 0
M  V30 25714 O 2392.86 0.847394 2.57937 0
M  V30 25715 C 2391.31 3.23383 1.57961 0
M  V30 25716 C 2390.92 4.43144 0.657862 0
M  V30 25717 C 2392.66 3.58215 2.27778 0
M  V30 25718 C 2390.57 5.75093 1.3792 0
M  V30 25719 H 2389.5 0.680446 0.324822 0
M  V30 25720 H 2392.15 1.83154 0.112556 0
M  V30 25721 H 2390.53 3.17067 2.37244 0
M  V30 25722 H 2391.71 4.60692 -0.0996307 0
M  V30 25723 H 2390.02 4.16344 0.0681911 0
M  V30 25724 H 2392.62 4.54053 2.82382 0
M  V30 25725 H 2392.96 2.84198 3.04199 0
M  V30 25726 H 2393.5 3.66184 1.55415 0
M  V30 25727 H 2390.23 6.52201 0.656867 0
M  V30 25728 H 2389.75 5.61482 2.10944 0
M  V30 25729 H 2391.43 6.17839 1.92053 0
M  V30 25730 N 2391.57 -0.417818 1.51961 0
M  V30 25731 C 2392.81 -1.16408 1.66796 0
M  V30 25732 C 2393.17 -1.88431 0.388791 0
M  V30 25733 O 2392.46 -1.81415 -0.616377 0
M  V30 25734 C 2392.65 -2.19219 2.82273 0
M  V30 25735 C 2392.48 -1.5729 4.21296 0
M  V30 25736 C 2391.25 -1.34936 4.8695 0
M  V30 25737 C 2393.45 -1.03849 5.03706 0
M  V30 25738 N 2391.43 -0.688088 6.10032 0
M  V30 25739 C 2392.8 -0.503633 6.17951 0
M  V30 25740 C 2394.86 -0.932117 4.89097 0
M  V30 25741 C 2393.56 0.12716 7.19188 0
M  V30 25742 C 2395.59 -0.31519 5.90559 0
M  V30 25743 C 2394.95 0.20903 7.0409 0
M  V30 25744 H 2391.05 -0.412947 0.664077 0
M  V30 25745 H 2393.63 -0.457738 1.89243 0
M  V30 25746 H 2391.8 -2.8722 2.61456 0
M  V30 25747 H 2393.54 -2.86144 2.86188 0
M  V30 25748 H 2390.29 -1.61649 4.45159 0
M  V30 25749 H 2390.71 -0.37433 6.75964 0
M  V30 25750 H 2395.36 -1.32325 4.0156 0
M  V30 25751 H 2393.07 0.530373 8.06358 0
M  V30 25752 H 2396.66 -0.234523 5.81327 0
M  V30 25753 H 2395.54 0.678888 7.81256 0
M  V30 25754 N 2393.04 -1.42436 -0.674508 0
M  V30 25755 C 2394.29 -1.44132 -1.43518 0
M  V30 25756 C 2394.64 -0.0568111 -1.92316 0
M  V30 25757 O 2393.94 0.921047 -1.6801 0
M  V30 25758 C 2394.13 -2.40074 -2.64763 0
M  V30 25759 C 2393.96 -3.87717 -2.27829 0
M  V30 25760 C 2392.73 -4.56249 -2.17175 0
M  V30 25761 C 2394.93 -4.78132 -1.89457 0
M  V30 25762 N 2392.91 -5.88918 -1.73347 0
M  V30 25763 C 2394.28 -5.9991 -1.56551 0
M  V30 25764 C 2396.34 -4.65585 -1.76452 0
M  V30 25765 C 2395.04 -7.10536 -1.11944 0
M  V30 25766 C 2397.07 -5.76193 -1.3325 0
M  V30 25767 C 2396.43 -6.97083 -1.01268 0
M  V30 25768 H 2392.53 -0.582588 -0.521646 0
M  V30 25769 H 2395.11 -1.78465 -0.77835 0
M  V30 25770 H 2393.28 -2.07802 -3.28136 0
M  V30 25771 H 2395.01 -2.32347 -3.31356 0
M  V30 25772 H 2391.77 -4.10465 -2.36253 0
M  V30 25773 H 2392.19 -6.59286 -1.53856 0
M  V30 25774 H 2396.83 -3.72599 -1.99825 0
M  V30 25775 H 2394.55 -8.03369 -0.873177 0
M  V30 25776 H 2398.14 -5.68496 -1.23707 0
M  V30 25777 H 2397.02 -7.81216 -0.683459 0
M  V30 25778 N 2394.52 0.910841 -1.28614 0
M  V30 25779 C 2395.43 2.04678 -1.14647 0
M  V30 25780 C 2396.45 1.7385 -0.0723427 0
M  V30 25781 O 2397.62 1.99413 -0.282213 0
M  V30 25782 C 2394.69 3.37042 -0.812621 0
M  V30 25783 C 2393.75 3.81461 -1.96941 0
M  V30 25784 C 2392.98 5.07508 -1.6514 0
M  V30 25785 O 2393.21 5.67574 -0.567113 0
M  V30 25786 O 2392.14 5.4771 -2.49594 0
M  V30 25787 H 2395.97 2.19381 -2.10014 0
M  V30 25788 H 2393.55 1.03272 -1.0796 0
M  V30 25789 H 2395.43 4.16504 -0.640515 0
M  V30 25790 H 2394.11 3.23508 0.111369 0
M  V30 25791 H 2393.01 3.02814 -2.19669 0
M  V30 25792 H 2394.35 3.99562 -2.87421 0
M  V30 25793 N 2396 1.10909 1.11969 0
M  V30 25794 C 2397.42 0.841876 1.3559 0
M  V30 25795 C 2397.62 -0.536212 1.94234 0
M  V30 25796 O 2396.67 -1.28812 2.17172 0
M  V30 25797 C 2397.99 1.94553 2.29281 0
M  V30 25798 C 2399.53 1.97455 2.42859 0
M  V30 25799 C 2400.01 3.07008 3.39868 0
M  V30 25800 N 2401.5 3.06347 3.47427 0
M  V30 25801 C 2402.23 3.87755 4.22414 0
M  V30 25802 N 2401.73 4.79112 5.00424 0
M  V30 25803 N 2403.52 3.75954 4.1787 0
M  V30 25804 H 2395.67 1.99729 0.722629 0
M  V30 25805 H 2397.94 0.868235 0.38062 0
M  V30 25806 H 2397.64 2.93769 1.93373 0
M  V30 25807 H 2397.52 1.83694 3.29449 0
M  V30 25808 H 2399.9 0.988694 2.78045 0
M  V30 25809 H 2399.99 2.12391 1.42562 0
M  V30 25810 H 2399.63 4.05816 3.0541 0
M  V30 25811 H 2399.56 2.89313 4.40006 0
M  V30 25812 H 2402.05 2.40152 2.9178 0
M  V30 25813 H 2402.36 5.37776 5.54993 0
M  V30 25814 H 2400.71 4.83137 4.99603 0
M  V30 25815 H 2403.9 3.03931 3.56011 0
M  V30 25816 H 2404.07 4.39633 4.76054 0
M  V30 25817 N 2397.48 -1.29474 0.898573 0
M  V30 25818 C 2398.41 -2.30185 0.392051 0
M  V30 25819 C 2399.39 -1.61556 -0.532331 0
M  V30 25820 O 2400.57 -1.89073 -0.443298 0
M  V30 25821 C 2397.7 -3.4519 -0.382293 0
M  V30 25822 C 2396.66 -4.25611 0.451558 0
M  V30 25823 C 2395.98 -5.32801 -0.450214 0
M  V30 25824 C 2397.28 -4.93829 1.70088 0
M  V30 25825 H 2398.98 -2.72802 1.23367 0
M  V30 25826 H 2396.52 -1.31148 0.594661 0
M  V30 25827 H 2398.48 -4.14719 -0.747378 0
M  V30 25828 H 2397.2 -3.01413 -1.25769 0
M  V30 25829 H 2395.86 -3.57788 0.79896 0
M  V30 25830 H 2395.51 -4.8527 -1.32371 0
M  V30 25831 H 2395.21 -5.87508 0.104005 0
M  V30 25832 H 2396.73 -6.05183 -0.811516 0
M  V30 25833 H 2398.15 -5.55802 1.40559 0
M  V30 25834 H 2396.54 -5.58463 2.19633 0
M  V30 25835 H 2397.61 -4.19182 2.43752 0
M  V30 25836 N 2398.96 -0.660936 -1.43071 0
M  V30 25837 C 2399.89 0.0647239 -2.29109 0
M  V30 25838 C 2400.9 0.779423 -1.4293 0
M  V30 25839 O 2402.09 0.635892 -1.66789 0
M  V30 25840 C 2399.19 1.11498 -3.20034 0
M  V30 25841 C 2398.36 0.476878 -4.34793 0
M  V30 25842 C 2397.42 1.42504 -5.06536 0
M  V30 25843 O 2396.45 0.930672 -5.6154 0
M  V30 25844 N 2397.65 2.7588 -5.10755 0
M  V30 25845 H 2400.42 -0.673782 -2.92028 0
M  V30 25846 H 2397.98 -0.504297 -1.53846 0
M  V30 25847 H 2399.97 1.75025 -3.64895 0
M  V30 25848 H 2398.54 1.75537 -2.58661 0
M  V30 25849 H 2397.76 -0.337641 -3.92751 0
M  V30 25850 H 2399.05 0.0317631 -5.0879 0
M  V30 25851 H 2398.44 3.18597 -4.67453 0
M  V30 25852 H 2397 3.3469 -5.59308 0
M  V30 25853 N 2400.43 1.52351 -0.403352 0
M  V30 25854 C 2401.68 2.0135 0.173967 0
M  V30 25855 C 2402 1.29108 1.46137 0
M  V30 25856 O 2401.27 0.415287 1.91448 0
M  V30 25857 H 2399.85 0.743964 0.067278 0
M  V30 25858 H 2402.52 1.8732 -0.538268 0
M  V30 25859 H 2401.61 3.09849 0.3742 0
M  V30 25860 N 2401.91 0.133594 1.57033 0
M  V30 25861 C 2403.15 -0.523754 1.97576 0
M  V30 25862 C 2403.52 -1.62911 1.01608 0
M  V30 25863 O 2404.72 -2.34638 1.31144 0
M  V30 25864 C 2402.99 -1.02929 3.42258 0
M  V30 25865 S 2404.55 -1.69311 4.0482 0
M  V30 25866 H 2401.37 -0.169787 0.69043 0
M  V30 25867 H 2403.97 0.222135 1.94234 0
M  V30 25868 H 2402.67 -0.213845 4.09842 0
M  V30 25869 H 2402.2 -1.81011 3.49283 0
M  V30 25870 H 2404.22 -2.9797 3.96773 0
M  V30 25871 N 2403.39 -1.56975 -0.140195 0
M  V30 25872 C 2404.32 -1.9539 -1.19814 0
M  V30 25873 C 2405.34 -0.85055 -1.38815 0
M  V30 25874 O 2406.52 -1.12894 -1.38265 0
M  V30 25875 C 2403.62 -2.21862 -2.56185 0
M  V30 25876 C 2402.8 -3.53154 -2.58071 0
M  V30 25877 C 2401.86 -3.68086 -3.7603 0
M  V30 25878 O 2400.88 -4.40412 -3.60591 0
M  V30 25879 N 2402.08 -3.0526 -4.93758 0
M  V30 25880 H 2404.85 -2.86747 -0.871559 0
M  V30 25881 H 2402.41 -1.58508 -0.329692 0
M  V30 25882 H 2404.4 -2.29086 -3.33619 0
M  V30 25883 H 2402.97 -1.36736 -2.81109 0
M  V30 25884 H 2402.19 -3.5731 -1.66504 0
M  V30 25885 H 2403.48 -4.39491 -2.56369 0
M  V30 25886 H 2402.88 -2.46428 -5.09205 0
M  V30 25887 H 2401.44 -3.18036 -5.68943 0
M  V30 25888 N 2404.87 0.409753 -1.5218 0
M  V30 25889 C 2406.28 0.748326 -1.40969 0
M  V30 25890 C 2406.48 1.94842 -0.513691 0
M  V30 25891 O 2405.54 2.52491 0.0207582 0
M  V30 25892 C 2406.85 1.00285 -2.83485 0
M  V30 25893 C 2408.4 1.1056 -2.92823 0
M  V30 25894 C 2408.88 1.39288 -4.36306 0
M  V30 25895 N 2410.37 1.46155 -4.39537 0
M  V30 25896 C 2411.1 1.70009 -5.47617 0
M  V30 25897 N 2410.6 1.91471 -6.65816 0
M  V30 25898 N 2412.39 1.72018 -5.35132 0
M  V30 25899 H 2404.54 -0.380222 -2.08969 0
M  V30 25900 H 2406.81 -0.107822 -0.941848 0
M  V30 25901 H 2406.51 0.193399 -3.51168 0
M  V30 25902 H 2406.39 1.92318 -3.2449 0
M  V30 25903 H 2408.77 1.90564 -2.25321 0
M  V30 25904 H 2408.85 0.163645 -2.55276 0
M  V30 25905 H 2408.5 0.59802 -5.04367 0
M  V30 25906 H 2408.43 2.34735 -4.71389 0
M  V30 25907 H 2410.92 1.31361 -3.54334 0
M  V30 25908 H 2411.23 2.09121 -7.43968 0
M  V30 25909 H 2409.58 1.88737 -6.68882 0
M  V30 25910 H 2412.77 1.54788 -4.41767 0
M  V30 25911 H 2412.94 1.90269 -6.19436 0
M  V30 25912 N 2406.35 1.42792 0.666944 0
M  V30 25913 C 2407.6 1.42971 1.42275 0
M  V30 25914 C 2407.91 0.0524833 1.9553 0
M  V30 25915 O 2409.11 -0.0683153 2.71414 0
M  V30 25916 C 2407.57 2.51528 2.57413 0
M  V30 25917 C 2407.18 3.95293 2.10825 0
M  V30 25918 C 2408.92 2.60883 3.34874 0
M  V30 25919 C 2406.83 4.95344 3.23092 0
M  V30 25920 H 2405.76 0.53179 0.534523 0
M  V30 25921 H 2408.41 1.6873 0.721272 0
M  V30 25922 H 2406.79 2.18947 3.29967 0
M  V30 25923 H 2407.97 4.37268 1.45373 0
M  V30 25924 H 2406.28 3.8986 1.46282 0
M  V30 25925 H 2408.88 3.3281 4.18499 0
M  V30 25926 H 2409.22 1.65496 3.8199 0
M  V30 25927 H 2409.75 2.92698 2.69393 0
M  V30 25928 H 2406.49 5.92235 2.80958 0
M  V30 25929 H 2406.01 4.57994 3.87301 0
M  V30 25930 H 2407.69 5.17421 3.88438 0
M  V30 25931 N 2407.82 -0.904008 1.29095 0
M  V30 25932 C 2409.07 -1.65654 1.16989 0
M  V30 25933 C 2409.4 -1.92187 -0.278891 0
M  V30 25934 O 2408.68 -1.52922 -1.20188 0
M  V30 25935 C 2408.96 -3.00836 1.97913 0
M  V30 25936 C 2408.81 -2.81396 3.50908 0
M  V30 25937 C 2410.13 -4.0151 1.80215 0
M  V30 25938 H 2407.25 -0.601157 0.426356 0
M  V30 25939 H 2409.89 -1.04744 1.5852 0
M  V30 25940 H 2408.04 -3.52826 1.62622 0
M  V30 25941 H 2409.72 -2.36341 3.96157 0
M  V30 25942 H 2407.96 -2.16263 3.76049 0
M  V30 25943 H 2408.63 -3.77436 4.02798 0
M  V30 25944 H 2411.11 -3.58615 2.11031 0
M  V30 25945 H 2409.98 -4.94042 2.39193 0
M  V30 25946 H 2410.24 -4.35585 0.756196 0
M  V30 25947 N 2409.3 -1.11501 -1.11379 0
M  V30 25948 C 2410.21 -0.786667 -2.21017 0
M  V30 25949 C 2411.23 0.220477 -1.72598 0
M  V30 25950 O 2412.4 0.0564897 -2.01321 0
M  V30 25951 C 2409.47 -0.235394 -3.459 0
M  V30 25952 C 2408.53 -1.30122 -4.09105 0
M  V30 25953 C 2407.76 -0.776161 -5.28026 0
M  V30 25954 O 2407.99 0.393561 -5.69041 0
M  V30 25955 O 2406.92 -1.54125 -5.81833 0
M  V30 25956 H 2410.75 -1.70213 -2.51518 0
M  V30 25957 H 2408.33 -0.890949 -1.19927 0
M  V30 25958 H 2410.21 0.067641 -4.21346 0
M  V30 25959 H 2408.89 0.652773 -3.1705 0
M  V30 25960 H 2407.8 -1.65728 -3.35388 0
M  V30 25961 H 2409.13 -2.1628 -4.42135 0
M  V30 25962 N 2410.78 1.28995 -0.905426 0
M  V30 25963 C 2412.06 1.90269 -0.453546 0
M  V30 25964 C 2412.44 1.82139 1.06717 0
M  V30 25965 O 2411.79 1.25185 1.91157 0
M  V30 25966 C 2412 3.35117 -0.974553 0
M  V30 25967 C 2413.34 4.12125 -1.02167 0
M  V30 25968 O 2414.37 3.44044 -0.922618 0
M  V30 25969 O 2413.23 5.338 -1.1713 0
M  V30 25970 H 2410.32 0.814655 -0.142362 0
M  V30 25971 H 2412.87 1.37421 -0.995666 0
M  V30 25972 H 2411.64 3.35218 -2.01854 0
M  V30 25973 H 2411.26 3.95452 -0.412775 0
M  V30 25974 N 2412.26 0.668514 1.42719 0
M  V30 25975 C 2413.51 0.197111 2.02443 0
M  V30 25976 C 2413.86 -1.18106 1.51884 0
M  V30 25977 O 2413.15 -1.78013 0.708649 0
M  V30 25978 C 2413.35 0.164562 3.57021 0
M  V30 25979 C 2413.18 1.53804 4.22581 0
M  V30 25980 C 2411.95 2.13425 4.58015 0
M  V30 25981 C 2414.14 2.47949 4.50584 0
M  V30 25982 N 2412.13 3.43619 5.08723 0
M  V30 25983 C 2413.5 3.62791 5.02775 0
M  V30 25984 C 2415.55 2.46558 4.32566 0
M  V30 25985 C 2414.26 4.76487 5.38844 0
M  V30 25986 C 2416.28 3.59346 4.69706 0
M  V30 25987 C 2415.64 4.72915 5.22044 0
M  V30 25988 H 2411.74 0.116907 0.773212 0
M  V30 25989 H 2414.33 0.880138 1.73671 0
M  V30 25990 H 2412.5 -0.487857 3.85324 0
M  V30 25991 H 2414.23 -0.319137 4.0344 0
M  V30 25992 H 2410.98 1.65977 4.43563 0
M  V30 25993 H 2411.41 4.10283 5.38514 0
M  V30 25994 H 2416.05 1.59985 3.91363 0
M  V30 25995 H 2413.77 5.63741 5.78983 0
M  V30 25996 H 2417.35 3.5949 4.57447 0
M  V30 25997 H 2416.23 5.58746 5.50248 0
M  V30 25998 N 2413.74 -1.52135 0.411426 0
M  V30 25999 C 2414.67 -2.24772 -0.448347 0
M  V30 26000 C 2415.68 -1.2782 -1.00826 0
M  V30 26001 O 2416.87 -1.5375 -0.906814 0
M  V30 26002 C 2413.97 -2.9678 -1.63631 0
M  V30 26003 C 2413.14 -4.20621 -1.19988 0
M  V30 26004 C 2412.2 -4.75432 -2.25501 0
M  V30 26005 O 2411.23 -5.37953 -1.85997 0
M  V30 26006 N 2412.43 -4.57205 -3.57692 0
M  V30 26007 H 2415.2 -2.99194 0.174078 0
M  V30 26008 H 2412.76 -1.60127 0.238925 0
M  V30 26009 H 2414.75 -3.30342 -2.33787 0
M  V30 26010 H 2413.32 -2.25529 -2.16461 0
M  V30 26011 H 2412.54 -3.92847 -0.326352 0
M  V30 26012 H 2413.83 -5.01039 -0.885277 0
M  V30 26013 H 2413.23 -4.07348 -3.92536 0
M  V30 26014 H 2411.78 -4.95199 -4.23818 0
M  V30 26015 N 2415.22 -0.14192 -1.5696 0
M  V30 26016 C 2416.16 0.799699 -2.16503 0
M  V30 26017 C 2417.13 1.24769 -1.09645 0
M  V30 26018 O 2418.32 1.32112 -1.37663 0
M  V30 26019 C 2415.46 2.03544 -2.78682 0
M  V30 26020 C 2414.57 1.63373 -3.99917 0
M  V30 26021 C 2413.71 2.82088 -4.50111 0
M  V30 26022 C 2412.74 2.38265 -5.63823 0
M  V30 26023 N 2411.88 3.49972 -6.08658 0
M  V30 26024 H 2416.72 0.285127 -2.96633 0
M  V30 26025 H 2414.26 0.129027 -1.46533 0
M  V30 26026 H 2416.22 2.75981 -3.12874 0
M  V30 26027 H 2414.85 2.52421 -2.01205 0
M  V30 26028 H 2413.9 0.807213 -3.71737 0
M  V30 26029 H 2415.21 1.27184 -4.82313 0
M  V30 26030 H 2414.36 3.62721 -4.86332 0
M  V30 26031 H 2413.1 3.21518 -3.66711 0
M  V30 26032 H 2412.11 1.56071 -5.27183 0
M  V30 26033 H 2413.33 1.99927 -6.49004 0
M  V30 26034 H 2411.28 3.89033 -5.28194 0
M  V30 26035 H 2411.2 3.17782 -6.85967 0
M  V30 26036 H 2412.46 4.30977 -6.49522 0
M  V30 26037 N 2416.69 1.57047 0.131868 0
M  V30 26038 C 2417.94 1.83358 0.840408 0
M  V30 26039 C 2418.26 0.725567 1.81645 0
M  V30 26040 O 2419.46 0.874704 2.57024 0
M  V30 26041 C 2417.92 3.2504 1.54522 0
M  V30 26042 C 2417.53 4.43816 0.610823 0
M  V30 26043 C 2419.27 3.6061 2.23965 0
M  V30 26044 C 2417.18 5.76523 1.31813 0
M  V30 26045 H 2416.11 0.683853 0.317587 0
M  V30 26046 H 2418.76 1.83264 0.0931239 0
M  V30 26047 H 2417.14 3.19565 2.33867 0
M  V30 26048 H 2418.31 4.60561 -0.148488 0
M  V30 26049 H 2416.63 4.16393 0.0240284 0
M  V30 26050 H 2419.23 4.57023 2.7755 0
M  V30 26051 H 2419.57 2.87409 3.01168 0
M  V30 26052 H 2420.1 3.67812 1.51522 0
M  V30 26053 H 2416.84 6.52861 0.587656 0
M  V30 26054 H 2416.36 5.63688 2.04977 0
M  V30 26055 H 2418.04 6.19841 1.85489 0
M  V30 26056 N 2418.17 -0.401677 1.52395 0
M  V30 26057 C 2419.1 -1.49658 1.79234 0
M  V30 26058 C 2420.08 -1.57451 0.643682 0
M  V30 26059 O 2421.27 -1.72604 0.89002 0
M  V30 26060 C 2418.4 -2.87405 1.94976 0
M  V30 26061 C 2417.35 -2.94459 3.10609 0
M  V30 26062 C 2416.68 -4.34533 3.11585 0
M  V30 26063 C 2417.98 -2.65262 4.49926 0
M  V30 26064 H 2419.67 -1.27449 2.70919 0
M  V30 26065 H 2417.22 -0.611677 1.30363 0
M  V30 26066 H 2419.17 -3.63995 2.12334 0
M  V30 26067 H 2417.89 -3.10924 0.999687 0
M  V30 26068 H 2416.55 -2.20316 2.93013 0
M  V30 26069 H 2416.2 -4.55072 2.14285 0
M  V30 26070 H 2415.9 -4.40176 3.89255 0
M  V30 26071 H 2417.43 -5.13047 3.31082 0
M  V30 26072 H 2418.84 -3.31573 4.67689 0
M  V30 26073 H 2417.24 -2.82271 5.29569 0
M  V30 26074 H 2418.31 -1.60663 4.5751 0
M  V30 26075 N 2419.65 -1.43144 -0.659362 0
M  V30 26076 C 2420.58 -1.4227 -1.78422 0
M  V30 26077 C 2421.56 -0.284922 -1.60084 0
M  V30 26078 O 2422.74 -0.477559 -1.8235 0
M  V30 26079 C 2419.87 -1.22839 -3.1564 0
M  V30 26080 C 2418.92 -2.39812 -3.52693 0
M  V30 26081 S 2419.75 -4.0236 -3.53365 0
M  V30 26082 C 2420.91 -3.853 -4.93249 0
M  V30 26083 H 2421.14 -2.37455 -1.78893 0
M  V30 26084 H 2418.67 -1.30101 -0.831447 0
M  V30 26085 H 2420.63 -1.12315 -3.94836 0
M  V30 26086 H 2419.29 -0.292125 -3.12739 0
M  V30 26087 H 2418.48 -2.22004 -4.52471 0
M  V30 26088 H 2418.09 -2.4693 -2.80894 0
M  V30 26089 H 2420.38 -3.47245 -5.81745 0
M  V30 26090 H 2421.32 -4.84808 -5.16107 0
M  V30 26091 H 2421.73 -3.17873 -4.66495 0
M  V30 26092 N 2421.13 0.897149 -1.29572 0
M  V30 26093 C 2422.37 1.65032 -1.17866 0
M  V30 26094 C 2422.71 1.92332 0.268695 0
M  V30 26095 O 2421.98 1.53557 1.19375 0
M  V30 26096 C 2422.26 2.99783 -1.99505 0
M  V30 26097 C 2422.12 2.79532 -3.52395 0
M  V30 26098 C 2423.44 4.00549 -1.82342 0
M  V30 26099 H 2420.56 0.598887 -0.429538 0
M  V30 26100 H 2423.2 1.03902 -1.59073 0
M  V30 26101 H 2421.35 3.51959 -1.64491 0
M  V30 26102 H 2423.02 2.34237 -3.97405 0
M  V30 26103 H 2421.26 2.14266 -3.7719 0
M  V30 26104 H 2421.93 3.75295 -4.04794 0
M  V30 26105 H 2424.41 3.57491 -2.1293 0
M  V30 26106 H 2423.29 4.92767 -2.4181 0
M  V30 26107 H 2423.55 4.35178 -0.779285 0
M  V30 26108 N 2422.61 1.1209 1.10786 0
M  V30 26109 C 2424.02 0.856209 1.34689 0
M  V30 26110 C 2424.22 -0.515581 1.94792 0
M  V30 26111 O 2423.28 -1.26501 2.18526 0
M  V30 26112 C 2424.59 1.96974 2.27204 0
M  V30 26113 C 2426.14 2.0002 2.40751 0
M  V30 26114 C 2426.61 3.10596 3.36592 0
M  V30 26115 N 2428.1 3.10015 3.44159 0
M  V30 26116 C 2428.84 3.92214 4.18277 0
M  V30 26117 N 2428.34 4.84392 4.95314 0
M  V30 26118 N 2430.13 3.80365 4.13859 0
M  V30 26119 H 2422.28 2.00485 0.701405 0
M  V30 26120 H 2424.54 0.872223 0.37139 0
M  V30 26121 H 2424.25 2.95803 1.90246 0
M  V30 26122 H 2424.12 1.87178 3.27482 0
M  V30 26123 H 2426.51 1.01813 2.7698 0
M  V30 26124 H 2426.59 2.13891 1.40301 0
M  V30 26125 H 2426.23 4.09033 3.01089 0
M  V30 26126 H 2426.16 2.93964 4.36913 0
M  V30 26127 H 2428.66 2.43233 2.89216 0
M  V30 26128 H 2428.97 5.43632 5.49257 0
M  V30 26129 H 2427.31 4.88409 4.94451 0
M  V30 26130 H 2430.5 3.07689 3.52767 0
M  V30 26131 H 2430.68 4.44657 4.71364 0
M  V30 26132 N 2424.08 -1.28513 0.912254 0
M  V30 26133 C 2425.31 -1.99702 0.559809 0
M  V30 26134 C 2425.73 -1.6773 -0.851364 0
M  V30 26135 O 2425.09 -0.908862 -1.56874 0
M  V30 26136 C 2425.14 -3.52197 0.773936 0
M  V30 26137 O 2424.24 -4.12059 -0.16777 0
M  V30 26138 H 2423.58 -0.627457 0.217241 0
M  V30 26139 H 2426.11 -1.63704 1.22728 0
M  V30 26140 H 2426.12 -4.02235 0.683457 0
M  V30 26141 H 2424.8 -3.74802 1.80268 0
M  V30 26142 H 2423.38 -3.72889 -0.0286853 0
M  V30 26143 N 2425.56 -0.676073 -1.42362 0
M  V30 26144 C 2426.49 -0.0125243 -2.33497 0
M  V30 26145 C 2427.47 0.787954 -1.50749 0
M  V30 26146 O 2428.66 0.744852 -1.79348 0
M  V30 26147 C 2425.79 0.938523 -3.34379 0
M  V30 26148 C 2424.74 0.246547 -4.27289 0
M  V30 26149 C 2424.07 1.31062 -5.18389 0
M  V30 26150 C 2425.37 -0.875215 -5.14915 0
M  V30 26151 H 2427.06 -0.773644 -2.89232 0
M  V30 26152 H 2424.61 -0.373484 -1.39072 0
M  V30 26153 H 2426.56 1.41181 -3.97046 0
M  V30 26154 H 2425.29 1.73108 -2.7695 0
M  V30 26155 H 2423.94 -0.20652 -3.66018 0
M  V30 26156 H 2423.59 2.0952 -4.57286 0
M  V30 26157 H 2423.29 0.852737 -5.8138 0
M  V30 26158 H 2424.82 1.78481 -5.83932 0
M  V30 26159 H 2426.23 -0.483084 -5.71261 0
M  V30 26160 H 2424.63 -1.25897 -5.86745 0
M  V30 26161 H 2425.7 -1.72343 -4.53239 0
M  V30 26162 N 2427.04 1.51915 -0.419488 0
M  V30 26163 C 2428.29 2.02221 0.15313 0
M  V30 26164 C 2428.62 1.30403 1.43905 0
M  V30 26165 O 2427.89 0.413472 1.90054 0
M  V30 26166 C 2428.18 3.57979 0.390228 0
M  V30 26167 C 2428.03 4.40435 -0.913091 0
M  V30 26168 C 2429.35 4.24322 1.16786 0
M  V30 26169 H 2426.47 0.735006 0.0541795 0
M  V30 26170 H 2429.11 1.81714 -0.554987 0
M  V30 26171 H 2427.26 3.75584 0.993425 0
M  V30 26172 H 2428.93 4.34519 -1.5489 0
M  V30 26173 H 2427.18 4.06233 -1.52175 0
M  V30 26174 H 2427.85 5.47525 -0.701457 0
M  V30 26175 H 2430.32 4.10879 0.657089 0
M  V30 26176 H 2429.2 5.33222 1.30251 0
M  V30 26177 H 2429.46 3.83974 2.19126 0
M  V30 26178 N 2428.52 0.150242 1.56882 0
M  V30 26179 C 2429.76 -0.500799 1.96519 0
M  V30 26180 C 2430.1 -1.64302 1.0353 0
M  V30 26181 O 2429.37 -1.94342 0.0783093 0
M  V30 26182 C 2429.66 -1.00389 3.45824 0
M  V30 26183 C 2429.51 0.137062 4.49591 0
M  V30 26184 C 2430.83 -1.8846 3.97707 0
M  V30 26185 H 2427.95 -0.180568 0.714538 0
M  V30 26186 H 2430.59 0.232124 1.88577 0
M  V30 26187 H 2428.74 -1.62845 3.52723 0
M  V30 26188 H 2430.41 0.77351 4.54769 0
M  V30 26189 H 2428.65 0.795727 4.26439 0
M  V30 26190 H 2429.32 -0.256718 5.51403 0
M  V30 26191 H 2431.8 -1.35827 3.93307 0
M  V30 26192 H 2430.68 -2.20569 5.02634 0
M  V30 26193 H 2430.94 -2.82273 3.40257 0
M  V30 26194 N 2430 -1.57115 -0.123538 0
M  V30 26195 C 2431.22 -1.89165 -0.850365 0
M  V30 26196 C 2431.65 -0.741718 -1.72859 0
M  V30 26197 O 2431 0.307926 -1.78666 0
M  V30 26198 C 2431.05 -3.19939 -1.66347 0
M  V30 26199 O 2430.16 -3.05525 -2.76999 0
M  V30 26200 H 2429.5 -0.620856 -0.235443 0
M  V30 26201 H 2432.03 -2.04318 -0.107299 0
M  V30 26202 H 2432.04 -3.52547 -2.05365 0
M  V30 26203 H 2430.71 -4.0323 -1.01874 0
M  V30 26204 H 2429.29 -2.84375 -2.41216 0
M  V30 26205 N 2431.47 0.393589 -1.52606 0
M  V30 26206 C 2432.89 0.971733 -1.59418 0
M  V30 26207 C 2433.24 1.91105 -0.444207 0
M  V30 26208 O 2432.36 2.12017 0.433344 0
M  V30 26209 C 2432.96 1.76916 -2.8894 0
M  V30 26210 C 2431.52 2.29708 -2.98179 0
M  V30 26211 C 2430.66 1.1013 -2.54493 0
M  V30 26212 H 2433.61 0.173289 -1.57751 0
M  V30 26213 H 2433.63 2.62799 -2.75167 0
M  V30 26214 H 2433.15 1.08525 -3.72618 0
M  V30 26215 H 2431.25 3.01425 -2.19029 0
M  V30 26216 H 2431.36 2.59509 -4.0273 0
M  V30 26217 H 2429.72 1.45995 -2.08704 0
M  V30 26218 H 2430.51 0.432814 -3.40561 0
M  V30 26219 N 2432.95 1.43492 0.651762 0
M  V30 26220 C 2433.9 1.45208 1.7578 0
M  V30 26221 C 2434.89 0.320355 1.57679 0
M  V30 26222 O 2436.08 0.56424 1.67766 0
M  V30 26223 C 2433.21 1.37925 3.14375 0
M  V30 26224 C 2432.29 2.56133 3.38019 0
M  V30 26225 N 2432.68 3.81477 3.32128 0
M  V30 26226 C 2430.98 2.50888 3.68743 0
M  V30 26227 C 2431.68 4.60125 3.55893 0
M  V30 26228 N 2430.66 3.90878 3.77776 0
M  V30 26229 H 2434.46 2.3999 1.69653 0
M  V30 26230 H 2431.98 1.38164 0.853484 0
M  V30 26231 H 2433.97 1.37238 3.93664 0
M  V30 26232 H 2432.63 0.441653 3.21682 0
M  V30 26233 H 2433.64 4.13743 3.11507 0
M  V30 26234 H 2430.32 1.65823 3.83157 0
M  V30 26235 H 2431.71 5.69144 3.57106 0
M  V30 26236 N 2434.43 -0.890264 1.30046 0
M  V30 26237 C 2435.34 -2.02829 1.17889 0
M  V30 26238 C 2436.36 -1.73712 0.0999915 0
M  V30 26239 O 2437.53 -1.98939 0.313902 0
M  V30 26240 C 2434.6 -3.35707 0.866138 0
M  V30 26241 C 2433.66 -3.7828 2.02985 0
M  V30 26242 C 2432.89 -5.04817 1.73193 0
M  V30 26243 O 2433.11 -5.666 0.657337 0
M  V30 26244 O 2432.05 -5.4367 2.58276 0
M  V30 26245 H 2435.87 -2.16012 2.13478 0
M  V30 26246 H 2433.46 -1.01541 1.09589 0
M  V30 26247 H 2435.34 -4.15432 0.706696 0
M  V30 26248 H 2434.02 -3.23645 -0.0598874 0
M  V30 26249 H 2432.92 -2.99281 2.24459 0
M  V30 26250 H 2434.26 -3.94939 2.93741 0
M  V30 26251 N 2435.91 -1.12676 -1.1019 0
M  V30 26252 C 2437.19 -0.794997 -1.78715 0
M  V30 26253 C 2437.57 0.714818 -1.98629 0
M  V30 26254 O 2436.91 1.64939 -1.58138 0
M  V30 26255 C 2437.12 -1.57296 -3.11543 0
M  V30 26256 C 2438.47 -1.76059 -3.86379 0
M  V30 26257 O 2439.5 -1.53829 -3.21271 0
M  V30 26258 O 2438.35 -2.13096 -5.03242 0
M  V30 26259 H 2435.45 -0.289437 -0.774697 0
M  V30 26260 H 2437.99 -1.23093 -1.16817 0
M  V30 26261 H 2436.77 -2.5994 -2.92484 0
M  V30 26262 H 2436.39 -1.13144 -3.81162 0
M  V30 26263 N 2437.39 1.28028 -0.919057 0
M  V30 26264 C 2438.32 2.25407 -0.355926 0
M  V30 26265 C 2439.3 1.53271 0.542847 0
M  V30 26266 O 2440.48 1.82146 0.485306 0
M  V30 26267 C 2437.61 3.35127 0.490701 0
M  V30 26268 C 2436.65 4.25115 -0.343432 0
M  V30 26269 S 2437.49 5.05976 -1.75353 0
M  V30 26270 C 2438.64 6.19185 -0.914352 0
M  V30 26271 H 2438.88 2.72824 -1.18128 0
M  V30 26272 H 2436.41 1.3655 -0.72066 0
M  V30 26273 H 2438.37 3.98794 0.973334 0
M  V30 26274 H 2437.03 2.86365 1.29049 0
M  V30 26275 H 2436.22 5.03081 0.304177 0
M  V30 26276 H 2435.82 3.66198 -0.759916 0
M  V30 26277 H 2438.12 6.77342 -0.146401 0
M  V30 26278 H 2439.06 6.88205 -1.66673 0
M  V30 26279 H 2439.47 5.62621 -0.460181 0
M  V30 26280 N 2438.86 0.683613 1.42002 0
M  V30 26281 C 2440.28 0.354004 1.55624 0
M  V30 26282 C 2440.48 -1.13997 1.66153 0
M  V30 26283 O 2439.54 -1.92558 1.63333 0
M  V30 26284 C 2440.85 1.09205 2.80169 0
M  V30 26285 C 2442.4 1.07523 2.93952 0
M  V30 26286 C 2442.87 1.79478 4.21369 0
M  V30 26287 N 2444.36 1.76389 4.283 0
M  V30 26288 C 2445.1 2.28913 5.25725 0
M  V30 26289 N 2444.59 2.89857 6.29249 0
M  V30 26290 N 2446.39 2.19237 5.17582 0
M  V30 26291 H 2438.54 1.65273 1.33412 0
M  V30 26292 H 2440.8 0.69678 0.642807 0
M  V30 26293 H 2440.51 2.14706 2.78557 0
M  V30 26294 H 2440.38 0.662927 3.71329 0
M  V30 26295 H 2442.77 0.0285269 2.95086 0
M  V30 26296 H 2442.85 1.54331 2.03999 0
M  V30 26297 H 2442.49 2.84121 4.20996 0
M  V30 26298 H 2442.42 1.30113 5.10273 0
M  V30 26299 H 2444.91 1.31945 3.54117 0
M  V30 26300 H 2445.23 3.27534 6.99958 0
M  V30 26301 H 2443.57 2.9393 6.29786 0
M  V30 26302 H 2446.76 1.71307 4.35628 0
M  V30 26303 H 2446.94 2.60476 5.93343 0
M  V30 26304 N 2440.34 -1.5169 0.427538 0
M  V30 26305 C 2441.57 -2.06418 -0.141155 0
M  V30 26306 C 2441.99 -1.29591 -1.37301 0
M  V30 26307 O 2441.34 -0.352764 -1.79058 0
M  V30 26308 C 2441.39 -3.5839 -0.473203 0
M  V30 26309 O 2441.12 -4.32313 0.709749 0
M  V30 26310 C 2442.62 -4.29598 -1.09363 0
M  V30 26311 H 2439.84 -0.670888 -0.012263 0
M  V30 26312 H 2442.38 -1.95383 0.603798 0
M  V30 26313 H 2440.54 -3.69371 -1.16805 0
M  V30 26314 H 2440.95 -5.22749 0.428162 0
M  V30 26315 H 2442.42 -5.37049 -1.27604 0
M  V30 26316 H 2442.9 -3.87256 -2.07193 0
M  V30 26317 H 2443.51 -4.23034 -0.438455 0
M  V30 26318 N 2441.82 -0.15856 -1.568 0
M  V30 26319 C 2443.07 0.483922 -1.97559 0
M  V30 26320 C 2443.42 1.61714 -1.04242 0
M  V30 26321 O 2442.72 1.91434 -0.0796367 0
M  V30 26322 C 2442.91 1.02617 -3.42351 0
M  V30 26323 C 2442.74 -0.0529719 -4.49669 0
M  V30 26324 C 2441.51 -0.498322 -5.02837 0
M  V30 26325 C 2443.71 -0.848705 -5.07249 0
M  V30 26326 N 2441.69 -1.5591 -5.93772 0
M  V30 26327 C 2443.06 -1.75971 -5.94503 0
M  V30 26328 C 2445.11 -0.895207 -4.89786 0
M  V30 26329 C 2443.82 -2.71326 -6.66164 0
M  V30 26330 C 2445.84 -1.83664 -5.62158 0
M  V30 26331 C 2445.21 -2.73514 -6.4913 0
M  V30 26332 H 2441.3 0.145553 -0.768335 0
M  V30 26333 H 2443.89 -0.255833 -1.93012 0
M  V30 26334 H 2442.06 1.73549 -3.4747 0
M  V30 26335 H 2443.79 1.63623 -3.70148 0
M  V30 26336 H 2440.55 -0.0984054 -4.73498 0
M  V30 26337 H 2440.97 -2.0896 -6.43945 0
M  V30 26338 H 2445.61 -0.214604 -4.22255 0
M  V30 26339 H 2443.33 -3.4038 -7.32917 0
M  V30 26340 H 2446.92 -1.87856 -5.50637 0
M  V30 26341 H 2445.8 -3.45175 -7.04147 0
M  V30 26342 N 2443.3 1.57178 0.115204 0
M  V30 26343 C 2444.23 2.03653 1.14227 0
M  V30 26344 C 2445.21 0.921681 1.42965 0
M  V30 26345 O 2446.4 1.19164 1.53341 0
M  V30 26346 C 2443.53 2.44405 2.46746 0
M  V30 26347 C 2442.48 3.59369 2.32461 0
M  V30 26348 C 2441.81 3.86033 3.69977 0
M  V30 26349 C 2443.11 4.90962 1.78194 0
M  V30 26350 H 2444.8 2.89706 0.755698 0
M  V30 26351 H 2442.35 1.39374 0.362068 0
M  V30 26352 H 2444.3 2.75523 3.1885 0
M  V30 26353 H 2443.02 1.55327 2.873 0
M  V30 26354 H 2441.68 3.28466 1.62805 0
M  V30 26355 H 2441.33 2.94154 4.08023 0
M  V30 26356 H 2441.03 4.63419 3.61271 0
M  V30 26357 H 2442.55 4.19606 4.4358 0
M  V30 26358 H 2443.97 5.20592 2.40119 0
M  V30 26359 H 2442.36 5.72374 1.803 0
M  V30 26360 H 2443.43 4.79223 0.739792 0
M  V30 26361 N 2444.78 -0.38549 1.52813 0
M  V30 26362 C 2445.72 -1.4711 1.77841 0
M  V30 26363 C 2446.69 -1.54023 0.621784 0
M  V30 26364 O 2447.88 -1.70224 0.861876 0
M  V30 26365 C 2445.02 -2.84298 1.95623 0
M  V30 26366 C 2444.13 -2.86509 3.23321 0
M  V30 26367 C 2443.27 -4.15146 3.31401 0
M  V30 26368 C 2442.31 -4.11423 4.53208 0
M  V30 26369 N 2441.44 -5.31672 4.58551 0
M  V30 26370 H 2446.28 -1.25069 2.70484 0
M  V30 26371 H 2443.82 -0.606668 1.34007 0
M  V30 26372 H 2445.78 -3.63969 2.03918 0
M  V30 26373 H 2444.41 -3.04782 1.06337 0
M  V30 26374 H 2443.46 -1.99189 3.2408 0
M  V30 26375 H 2444.77 -2.79626 4.1305 0
M  V30 26376 H 2443.93 -5.03222 3.38898 0
M  V30 26377 H 2442.67 -4.24756 2.39652 0
M  V30 26378 H 2441.67 -3.21734 4.45833 0
M  V30 26379 H 2442.9 -4.03432 5.46278 0
M  V30 26380 H 2440.84 -5.41905 3.69695 0
M  V30 26381 H 2440.76 -5.26879 5.42157 0
M  V30 26382 H 2442.03 -6.21636 4.70307 0
M  V30 26383 N 2446.26 -1.43835 -0.644143 0
M  V30 26384 C 2447.49 -1.49173 -1.42937 0
M  V30 26385 C 2447.89 -0.111082 -1.88874 0
M  V30 26386 O 2447.24 0.890771 -1.60658 0
M  V30 26387 C 2447.3 -2.38329 -2.69146 0
M  V30 26388 C 2446.96 -3.8572 -2.45091 0
M  V30 26389 C 2447.96 -4.76593 -2.07738 0
M  V30 26390 C 2445.64 -4.30296 -2.59134 0
M  V30 26391 C 2447.64 -6.10041 -1.84739 0
M  V30 26392 C 2445.33 -5.63796 -2.35749 0
M  V30 26393 C 2446.32 -6.53486 -1.98609 0
M  V30 26394 O 2446.01 -7.84515 -1.75475 0
M  V30 26395 H 2445.74 -0.508643 -0.445262 0
M  V30 26396 H 2448.3 -1.89341 -0.796177 0
M  V30 26397 H 2446.53 -1.93064 -3.35057 0
M  V30 26398 H 2448.22 -2.34766 -3.31119 0
M  V30 26399 H 2448.98 -4.43429 -1.96457 0
M  V30 26400 H 2444.86 -3.60754 -2.87015 0
M  V30 26401 H 2448.41 -6.80008 -1.55674 0
M  V30 26402 H 2444.3 -5.96524 -2.46636 0
M  V30 26403 H 2445.07 -7.96183 -1.89827 0
M  V30 26404 N 2447.73 0.883355 -1.30517 0
M  V30 26405 C 2448.7 1.9708 -1.17014 0
M  V30 26406 C 2449.7 1.60483 -0.100918 0
M  V30 26407 O 2450.89 1.70665 -0.349157 0
M  V30 26408 C 2448.02 3.31546 -0.793103 0
M  V30 26409 H 2449.21 2.10486 -2.13625 0
M  V30 26410 H 2446.76 1.06996 -1.13936 0
M  V30 26411 H 2447.5 3.23841 0.172442 0
M  V30 26412 H 2447.28 3.59478 -1.56583 0
M  V30 26413 H 2448.77 4.11309 -0.722146 0
M  V30 26414 N 2449.21 1.13259 1.09591 0
M  V30 26415 C 2450.44 0.916765 1.86038 0
M  V30 26416 C 2450.86 -0.529114 1.80505 0
M  V30 26417 O 2450.22 -1.37532 1.1813 0
M  V30 26418 C 2450.27 1.40709 3.32014 0
M  V30 26419 O 2449.37 0.591225 4.0814 0
M  V30 26420 H 2448.71 0.328693 0.576937 0
M  V30 26421 H 2451.24 1.50685 1.38403 0
M  V30 26422 H 2451.25 1.40997 3.82863 0
M  V30 26423 H 2449.93 2.45985 3.35357 0
M  V30 26424 H 2448.5 0.656069 3.67083 0
M  V30 26425 N 2450.69 -1.27539 0.925834 0
M  V30 26426 C 2451.62 -2.29302 0.440788 0
M  V30 26427 C 2452.6 -1.62649 -0.497942 0
M  V30 26428 O 2453.79 -1.89971 -0.403093 0
M  V30 26429 C 2450.92 -3.45923 -0.308987 0
M  V30 26430 C 2449.87 -4.24558 0.541735 0
M  V30 26431 C 2449.2 -5.33636 -0.337097 0
M  V30 26432 C 2450.5 -4.9011 1.80524 0
M  V30 26433 H 2452.19 -2.70124 1.29126 0
M  V30 26434 H 2449.74 -1.29857 0.622346 0
M  V30 26435 H 2451.69 -4.16211 -0.659242 0
M  V30 26436 H 2450.41 -3.04013 -1.19347 0
M  V30 26437 H 2449.07 -3.56013 0.874672 0
M  V30 26438 H 2448.72 -4.87969 -1.22048 0
M  V30 26439 H 2448.42 -5.87155 0.228601 0
M  V30 26440 H 2449.94 -6.06768 -0.682965 0
M  V30 26441 H 2451.36 -5.52696 1.52317 0
M  V30 26442 H 2449.75 -5.53679 2.3143 0
M  V30 26443 H 2450.82 -4.13917 2.52588 0
M  V30 26444 N 2452.17 -0.691135 -1.41637 0
M  V30 26445 C 2453.41 -0.224326 -2.03165 0
M  V30 26446 C 2453.77 1.15281 -1.53539 0
M  V30 26447 O 2454.97 1.71522 -2.06963 0
M  V30 26448 C 2453.24 -0.27482 -3.56342 0
M  V30 26449 S 2454.8 0.118592 -4.3864 0
M  V30 26450 H 2451.62 -0.0907387 -0.705186 0
M  V30 26451 H 2454.22 -0.907925 -1.73139 0
M  V30 26452 H 2452.93 -1.27917 -3.89956 0
M  V30 26453 H 2452.46 0.428074 -3.91064 0
M  V30 26454 H 2454.47 1.34756 -4.77551 0
M  V30 26455 N 2453.65 1.51461 -0.435577 0
M  V30 26456 C 2454.89 2.01674 0.131219 0
M  V30 26457 C 2455.21 1.32179 1.43366 0
M  V30 26458 O 2454.48 0.455802 1.90524 0
M  V30 26459 H 2453.06 0.745224 0.0514823 0
M  V30 26460 H 2455.73 1.86136 -0.57788 0
M  V30 26461 H 2454.82 3.10573 0.308392 0
M  V30 26462 N 2455.12 0.166873 1.56714 0
M  V30 26463 C 2456.07 -0.765154 2.17748 0
M  V30 26464 C 2457.04 -1.23009 1.11616 0
M  V30 26465 O 2458.23 -1.29905 1.39747 0
M  V30 26466 C 2455.37 -1.99085 2.81885 0
M  V30 26467 C 2454.48 -1.5699 4.02465 0
M  V30 26468 C 2453.61 -2.74892 4.54542 0
M  V30 26469 C 2452.65 -2.29265 5.67542 0
M  V30 26470 N 2451.79 -3.40245 6.14148 0
M  V30 26471 H 2456.63 -0.237899 2.97049 0
M  V30 26472 H 2454.17 -0.105699 1.4672 0
M  V30 26473 H 2456.13 -2.70968 3.17225 0
M  V30 26474 H 2454.76 -2.49188 2.05195 0
M  V30 26475 H 2453.81 -0.747971 3.72974 0
M  V30 26476 H 2455.12 -1.19495 4.84275 0
M  V30 26477 H 2454.27 -3.54938 4.92041 0
M  V30 26478 H 2453.01 -3.15644 3.7178 0
M  V30 26479 H 2452.02 -1.47664 5.29599 0
M  V30 26480 H 2453.24 -1.89576 6.52103 0
M  V30 26481 H 2451.19 -3.80581 5.34317 0
M  V30 26482 H 2451.11 -3.06828 6.90936 0
M  V30 26483 H 2452.37 -4.20589 6.56297 0
M  V30 26484 N 2456.6 -1.57237 -0.106866 0
M  V30 26485 C 2457.83 -1.90057 -0.830254 0
M  V30 26486 C 2458.25 -0.76001 -1.72062 0
M  V30 26487 O 2457.61 0.288959 -1.78982 0
M  V30 26488 C 2457.66 -3.21685 -1.62944 0
M  V30 26489 O 2456.76 -3.08446 -2.73743 0
M  V30 26490 H 2456.1 -0.623319 -0.228844 0
M  V30 26491 H 2458.63 -2.04421 -0.0856221 0
M  V30 26492 H 2458.64 -3.54705 -2.01615 0
M  V30 26493 H 2457.32 -4.04288 -0.975918 0
M  V30 26494 H 2455.9 -2.86917 -2.38186 0
M  V30 26495 N 2458.08 0.377381 -1.53015 0
M  V30 26496 C 2459.33 1.11903 -1.68292 0
M  V30 26497 C 2459.65 1.90172 -0.431239 0
M  V30 26498 O 2458.92 1.87887 0.554561 0
M  V30 26499 H 2457.5 0.416101 -0.620378 0
M  V30 26500 H 2460.16 0.426859 -1.90168 0
M  V30 26501 H 2459.26 1.81545 -2.53866 0
M  V30 26502 N 2459.56 1.44175 0.636506 0
M  V30 26503 C 2460.97 1.27943 0.954081 0
M  V30 26504 C 2461.17 0.211283 2.00389 0
M  V30 26505 O 2460.23 -0.404651 2.49236 0
M  V30 26506 C 2461.54 2.64928 1.42246 0
M  V30 26507 C 2463.09 2.72594 1.53822 0
M  V30 26508 C 2463.57 4.10036 2.04045 0
M  V30 26509 N 2465.06 4.12185 2.11323 0
M  V30 26510 C 2465.79 5.15378 2.51343 0
M  V30 26511 N 2465.29 6.28935 2.90538 0
M  V30 26512 N 2467.08 5.02732 2.51429 0
M  V30 26513 H 2459.23 2.12321 -0.0578759 0
M  V30 26514 H 2461.5 0.947288 0.036724 0
M  V30 26515 H 2461.2 3.44138 0.725406 0
M  V30 26516 H 2461.08 2.91454 2.39446 0
M  V30 26517 H 2463.46 1.93706 2.22625 0
M  V30 26518 H 2463.54 2.49815 0.550111 0
M  V30 26519 H 2463.19 4.89398 1.35839 0
M  V30 26520 H 2463.12 4.30189 3.03718 0
M  V30 26521 H 2465.61 3.30225 1.83739 0
M  V30 26522 H 2465.92 7.03493 3.19872 0
M  V30 26523 H 2464.27 6.32382 2.88302 0
M  V30 26524 H 2467.46 4.13075 2.20196 0
M  V30 26525 H 2467.63 5.83279 2.82294 0
M  V30 26526 N 2461.04 -0.876421 1.30983 0
M  V30 26527 C 2461.97 -1.99901 1.20672 0
M  V30 26528 C 2462.95 -1.69832 0.0953838 0
M  V30 26529 O 2464.13 -1.92187 0.278884 0
M  V30 26530 C 2461.26 -3.35258 0.906609 0
M  V30 26531 C 2460.22 -3.79613 1.97681 0
M  V30 26532 C 2459.54 -5.12357 1.52952 0
M  V30 26533 C 2460.84 -3.97416 3.38907 0
M  V30 26534 H 2462.54 -2.08786 2.1459 0
M  V30 26535 H 2460.08 -1.00315 1.0331 0
M  V30 26536 H 2462.04 -4.13323 0.821098 0
M  V30 26537 H 2460.76 -3.26529 -0.0682395 0
M  V30 26538 H 2459.42 -3.03783 2.05211 0
M  V30 26539 H 2459.07 -5.00064 0.542707 0
M  V30 26540 H 2458.77 -5.43005 2.24542 0
M  V30 26541 H 2460.29 -5.92938 1.45796 0
M  V30 26542 H 2461.7 -4.65894 3.34089 0
M  V30 26543 H 2460.1 -4.39453 4.08658 0
M  V30 26544 H 2461.17 -3.00999 3.80168 0
M  V30 26545 N 2462.51 -1.13839 -1.08989 0
M  V30 26546 C 2463.48 -0.822752 -2.13924 0
M  V30 26547 C 2464.48 0.169872 -1.599 0
M  V30 26548 O 2465.67 -0.0577557 -1.74104 0
M  V30 26549 C 2462.8 -0.225378 -3.40154 0
M  V30 26550 H 2463.99 -1.75267 -2.43355 0
M  V30 26551 H 2461.55 -0.943616 -1.24602 0
M  V30 26552 H 2462.28 0.713538 -3.16353 0
M  V30 26553 H 2462.07 -0.94026 -3.80659 0
M  V30 26554 H 2463.56 -0.0215518 -4.17594 0
M  V30 26555 N 2463.99 1.27046 -0.932584 0
M  V30 26556 C 2464.92 2.29065 -0.452942 0
M  V30 26557 C 2465.9 1.6291 0.48931 0
M  V30 26558 O 2467.09 1.90182 0.393013 0
M  V30 26559 C 2464.22 3.46082 0.290637 0
M  V30 26560 C 2463.17 4.24264 -0.564242 0
M  V30 26561 C 2462.5 5.33808 0.308793 0
M  V30 26562 C 2463.8 4.89146 -1.83121 0
M  V30 26563 H 2465.49 2.69435 -1.30557 0
M  V30 26564 H 2463.04 1.29525 -0.629224 0
M  V30 26565 H 2464.99 4.16555 0.63716 0
M  V30 26566 H 2463.72 3.04642 1.17733 0
M  V30 26567 H 2462.37 3.55544 -0.89354 0
M  V30 26568 H 2462.02 4.88609 1.19458 0
M  V30 26569 H 2461.72 5.87026 -0.259736 0
M  V30 26570 H 2463.25 6.07122 0.650777 0
M  V30 26571 H 2464.66 5.5188 -1.55246 0
M  V30 26572 H 2463.06 5.52444 -2.34363 0
M  V30 26573 H 2464.13 4.12572 -2.5478 0
M  V30 26574 N 2465.47 0.698636 1.41269 0
M  V30 26575 C 2466.43 0.0441722 2.29157 0
M  V30 26576 C 2467.43 -0.704815 1.4453 0
M  V30 26577 O 2468.62 -0.539247 1.65643 0
M  V30 26578 C 2465.76 -0.947751 3.27461 0
M  V30 26579 H 2466.95 0.818044 2.88527 0
M  V30 26580 H 2464.5 0.462307 1.49306 0
M  V30 26581 H 2465.24 -1.74928 2.73076 0
M  V30 26582 H 2465.02 -0.413782 3.89911 0
M  V30 26583 H 2466.51 -1.40337 3.93313 0
M  V30 26584 N 2466.95 -1.51228 0.443603 0
M  V30 26585 C 2467.9 -2.24764 -0.382747 0
M  V30 26586 C 2468.88 -1.27241 -0.984814 0
M  V30 26587 O 2470.07 -1.52297 -0.901916 0
M  V30 26588 C 2467.2 -3.09767 -1.47984 0
M  V30 26589 C 2466.29 -4.14724 -0.886858 0
M  V30 26590 N 2466.68 -5.05794 -0.0236214 0
M  V30 26591 C 2464.98 -4.30818 -1.15378 0
M  V30 26592 C 2465.68 -5.80873 0.310073 0
M  V30 26593 N 2464.66 -5.42727 -0.307894 0
M  V30 26594 H 2468.46 -2.92537 0.282676 0
M  V30 26595 H 2465.97 -1.60369 0.256055 0
M  V30 26596 H 2467.97 -3.61031 -2.08476 0
M  V30 26597 H 2466.63 -2.43539 -2.14753 0
M  V30 26598 H 2467.64 -5.16761 0.343271 0
M  V30 26599 H 2464.32 -3.75815 -1.8185 0
M  V30 26600 H 2465.71 -6.64221 1.01291 0
M  V30 26601 N 2468.43 -0.175182 -1.56623 0
M  V30 26602 C 2469.37 0.753596 -2.1815 0
M  V30 26603 C 2470.34 1.22415 -1.12267 0
M  V30 26604 O 2471.53 1.29162 -1.40434 0
M  V30 26605 C 2468.67 1.97587 -2.82937 0
M  V30 26606 C 2467.78 1.54853 -4.03292 0
M  V30 26607 C 2466.92 2.72477 -4.55993 0
M  V30 26608 C 2465.96 2.26252 -5.6875 0
M  V30 26609 N 2465.09 3.36983 -6.15944 0
M  V30 26610 H 2469.93 0.222143 -2.97171 0
M  V30 26611 H 2467.47 0.0979164 -1.46774 0
M  V30 26612 H 2469.43 2.69282 -3.18658 0
M  V30 26613 H 2468.06 2.48097 -2.06514 0
M  V30 26614 H 2467.11 0.728181 -3.73365 0
M  V30 26615 H 2468.42 1.16925 -4.84902 0
M  V30 26616 H 2467.58 3.52323 -4.93916 0
M  V30 26617 H 2466.31 3.13668 -3.73449 0
M  V30 26618 H 2465.32 1.44854 -5.30375 0
M  V30 26619 H 2466.54 1.86115 -6.53099 0
M  V30 26620 H 2464.49 3.77742 -5.36328 0
M  V30 26621 H 2464.41 3.0316 -6.92553 0
M  V30 26622 H 2465.68 4.17102 -6.58518 0
M  V30 26623 N 2469.91 1.57292 0.0985263 0
M  V30 26624 C 2471.13 1.90117 0.816285 0
M  V30 26625 C 2471.55 0.768539 1.7245 0
M  V30 26626 O 2470.91 -0.259655 1.80643 0
M  V30 26627 C 2470.96 3.22538 1.63253 0
M  V30 26628 O 2470.68 4.31442 0.760859 0
M  V30 26629 C 2472.18 3.69203 2.45365 0
M  V30 26630 H 2469.4 0.629031 0.233584 0
M  V30 26631 H 2471.94 2.04356 0.076787 0
M  V30 26632 H 2470.1 3.09907 2.32457 0
M  V30 26633 H 2470.51 5.07466 1.32586 0
M  V30 26634 H 2471.99 4.64563 2.98136 0
M  V30 26635 H 2472.46 2.96873 3.23672 0
M  V30 26636 H 2473.07 3.8469 1.81367 0
M  V30 26637 N 2471.38 -0.369261 1.53213 0
M  V30 26638 C 2472.31 -1.45823 1.82368 0
M  V30 26639 C 2473.29 -1.5605 0.676935 0
M  V30 26640 O 2474.48 -1.70678 0.926431 0
M  V30 26641 C 2471.61 -2.83205 2.01028 0
M  V30 26642 C 2470.56 -2.87805 3.16785 0
M  V30 26643 C 2469.89 -4.27826 3.20732 0
M  V30 26644 C 2471.19 -2.55659 4.55451 0
M  V30 26645 H 2472.88 -1.21674 2.73562 0
M  V30 26646 H 2470.43 -0.583888 1.31631 0
M  V30 26647 H 2472.38 -3.59409 2.20007 0
M  V30 26648 H 2471.11 -3.08734 1.06541 0
M  V30 26649 H 2469.77 -2.14051 2.9762 0
M  V30 26650 H 2469.41 -4.50425 2.23889 0
M  V30 26651 H 2469.11 -4.3182 3.98504 0
M  V30 26652 H 2470.64 -5.05909 3.4189 0
M  V30 26653 H 2472.05 -3.21578 4.74616 0
M  V30 26654 H 2470.45 -2.70975 5.35437 0
M  V30 26655 H 2471.52 -1.50922 4.60815 0
M  V30 26656 N 2472.86 -1.4451 -0.628851 0
M  V30 26657 C 2474.11 -1.47632 -1.39042 0
M  V30 26658 C 2474.44 -0.109377 -1.93892 0
M  V30 26659 O 2473.72 0.87331 -1.73792 0
M  V30 26660 C 2474 -2.53852 -2.55404 0
M  V30 26661 C 2473.85 -3.99912 -2.05889 0
M  V30 26662 C 2475.17 -2.56555 -3.57586 0
M  V30 26663 H 2472.29 -0.537521 -0.504222 0
M  V30 26664 H 2474.93 -1.76202 -0.710823 0
M  V30 26665 H 2473.08 -2.2962 -3.1338 0
M  V30 26666 H 2474.75 -4.35284 -1.52726 0
M  V30 26667 H 2473 -4.11581 -1.37054 0
M  V30 26668 H 2473.67 -4.69887 -2.89673 0
M  V30 26669 H 2476.14 -2.78213 -3.09414 0
M  V30 26670 H 2475.02 -3.32777 -4.36521 0
M  V30 26671 H 2475.28 -1.60839 -4.11805 0
M  V30 26672 N 2474.34 0.869463 -1.31446 0
M  V30 26673 C 2475.27 1.99259 -1.2173 0
M  V30 26674 C 2476.25 1.69779 -0.104389 0
M  V30 26675 O 2477.44 1.92036 -0.289072 0
M  V30 26676 C 2474.57 3.34772 -0.924376 0
M  V30 26677 C 2473.52 3.78559 -1.99692 0
M  V30 26678 C 2472.85 5.11539 -1.55667 0
M  V30 26679 C 2474.15 3.95613 -3.4101 0
M  V30 26680 H 2475.84 2.07645 -2.15694 0
M  V30 26681 H 2473.39 0.997657 -1.0384 0
M  V30 26682 H 2475.34 4.12882 -0.843006 0
M  V30 26683 H 2474.06 3.2656 0.0509219 0
M  V30 26684 H 2472.72 3.02691 -2.06819 0
M  V30 26685 H 2472.37 4.99769 -0.569219 0
M  V30 26686 H 2472.07 5.41807 -2.27419 0
M  V30 26687 H 2473.59 5.92157 -1.48939 0
M  V30 26688 H 2475.01 4.64116 -3.36555 0
M  V30 26689 H 2473.4 4.37279 -4.10983 0
M  V30 26690 H 2474.47 2.98979 -3.81759 0
M  V30 26691 N 2475.82 1.14415 1.08383 0
M  V30 26692 C 2476.75 0.854082 2.17319 0
M  V30 26693 C 2477.73 -0.19102 1.69024 0
M  V30 26694 O 2478.91 -0.0476438 1.94142 0
M  V30 26695 C 2476.04 0.331044 3.45719 0
M  V30 26696 C 2475 1.31162 4.07407 0
M  V30 26697 C 2474.32 0.647873 5.3076 0
M  V30 26698 C 2475.62 2.67396 4.48661 0
M  V30 26699 H 2477.32 1.76502 2.41842 0
M  V30 26700 H 2474.86 0.850071 1.16232 0
M  V30 26701 H 2476.82 0.115719 4.21241 0
M  V30 26702 H 2475.54 -0.615324 3.20751 0
M  V30 26703 H 2474.2 1.51312 3.33917 0
M  V30 26704 H 2473.85 -0.304309 5.02079 0
M  V30 26705 H 2473.55 1.30217 5.7299 0
M  V30 26706 H 2475.07 0.442079 6.08998 0
M  V30 26707 H 2476.49 2.51153 5.15359 0
M  V30 26708 H 2474.88 3.29102 5.01809 0
M  V30 26709 H 2475.95 3.24254 3.60537 0
M  V30 26710 N 2477.3 -1.26549 0.939309 0
M  V30 26711 C 2478.23 -2.28821 0.465084 0
M  V30 26712 C 2479.21 -1.63168 -0.480663 0
M  V30 26713 O 2480.39 -1.90387 -0.382921 0
M  V30 26714 C 2477.52 -3.46231 -0.27228 0
M  V30 26715 C 2476.48 -4.23959 0.586734 0
M  V30 26716 C 2475.8 -5.33964 -0.280479 0
M  V30 26717 C 2477.1 -4.88168 1.85713 0
M  V30 26718 H 2478.8 -2.68739 1.31984 0
M  V30 26719 H 2476.34 -1.2919 0.636084 0
M  V30 26720 H 2478.29 -4.16887 -0.61506 0
M  V30 26721 H 2477.02 -3.05262 -1.16116 0
M  V30 26722 H 2475.68 -3.55065 0.912383 0
M  V30 26723 H 2475.33 -4.89236 -1.16865 0
M  V30 26724 H 2475.03 -5.8688 0.290863 0
M  V30 26725 H 2476.55 -6.07459 -0.618571 0
M  V30 26726 H 2477.96 -5.51049 1.5817 0
M  V30 26727 H 2476.36 -5.51193 2.37289 0
M  V30 26728 H 2477.43 -4.11215 2.56964 0
M  V30 26729 N 2478.77 -0.706118 -1.40896 0
M  V30 26730 C 2480.02 -0.241089 -2.00657 0
M  V30 26731 C 2480.34 1.16676 -1.56243 0
M  V30 26732 O 2479.61 1.78924 -0.797681 0
M  V30 26733 H 2478.19 -0.0861438 -0.742016 0
M  V30 26734 H 2480.85 -0.909635 -1.72371 0
M  V30 26735 H 2479.95 -0.266759 -3.10958 0
M  V30 26736 N 2480.25 1.50991 -0.451617 0
M  V30 26737 C 2481.5 2.025 0.110202 0
M  V30 26738 C 2481.83 1.33426 1.41107 0
M  V30 26739 O 2481.11 0.453692 1.89135 0
M  V30 26740 C 2481.39 3.58727 0.314208 0
M  V30 26741 C 2481.24 4.38399 -1.00631 0
M  V30 26742 C 2482.56 4.26704 1.07759 0
M  V30 26743 H 2479.68 0.73599 0.0385767 0
M  V30 26744 H 2482.32 1.80496 -0.593406 0
M  V30 26745 H 2480.47 3.77607 0.913535 0
M  V30 26746 H 2482.14 4.31136 -1.64072 0
M  V30 26747 H 2480.39 4.02914 -1.60757 0
M  V30 26748 H 2481.06 5.45914 -0.817437 0
M  V30 26749 H 2483.53 4.1218 0.569788 0
M  V30 26750 H 2482.41 5.35865 1.18911 0
M  V30 26751 H 2482.67 3.88536 2.10932 0
M  V30 26752 N 2481.73 0.183486 1.56528 0
M  V30 26753 C 2483.01 -0.505326 1.8896 0
M  V30 26754 C 2483.39 -1.80464 1.09526 0
M  V30 26755 O 2482.73 -2.27685 0.19282 0
M  V30 26756 C 2482.94 -0.73541 3.41164 0
M  V30 26757 C 2484.29 -1.05998 4.11156 0
M  V30 26758 O 2485.32 -0.823533 3.46549 0
M  V30 26759 O 2484.18 -1.50666 5.25321 0
M  V30 26760 H 2481.27 -0.26196 0.784415 0
M  V30 26761 H 2483.82 0.222832 1.68231 0
M  V30 26762 H 2482.59 0.18263 3.90874 0
M  V30 26763 H 2482.21 -1.51645 3.67545 0
M  V30 26764 N 2483.21 -1.57342 -0.0901833 0
M  V30 26765 C 2484.62 -1.75236 -0.644142 0
M  V30 26766 C 2484.97 -0.806367 -1.78864 0
M  V30 26767 O 2484.09 0.0139747 -2.16395 0
M  V30 26768 C 2484.69 -3.17762 -1.17527 0
M  V30 26769 C 2483.25 -3.37064 -1.67525 0
M  V30 26770 C 2482.4 -2.71018 -0.586882 0
M  V30 26771 H 2485.35 -1.58117 0.135912 0
M  V30 26772 H 2485.37 -3.20906 -2.0445 0
M  V30 26773 H 2484.88 -3.8659 -0.34207 0
M  V30 26774 H 2482.98 -2.73324 -2.53229 0
M  V30 26775 H 2483.09 -4.45409 -1.76486 0
M  V30 26776 H 2481.46 -2.33054 -1.02752 0
M  V30 26777 H 2482.24 -3.42489 0.235818 0
M  V30 26778 N 2484.69 0.36113 -1.53407 0
M  V30 26779 C 2485.91 1.12826 -1.74026 0
M  V30 26780 C 2486.34 1.82131 -0.470101 0
M  V30 26781 O 2485.69 1.71901 0.57616 0
M  V30 26782 C 2485.74 2.13085 -2.90907 0
M  V30 26783 O 2484.85 3.20256 -2.59826 0
M  V30 26784 H 2484.19 0.327157 -0.57781 0
M  V30 26785 H 2486.72 0.416895 -2.00308 0
M  V30 26786 H 2486.73 2.5661 -3.17199 0
M  V30 26787 H 2485.4 1.62035 -3.83037 0
M  V30 26788 H 2483.98 2.81672 -2.44367 0
M  V30 26789 N 2486.16 1.44842 0.621179 0
M  V30 26790 C 2487.58 1.28948 0.940458 0
M  V30 26791 C 2487.78 0.232525 2.00154 0
M  V30 26792 O 2486.84 -0.378193 2.49652 0
M  V30 26793 C 2488.15 2.66421 1.39428 0
M  V30 26794 C 2489.7 2.74211 1.50922 0
M  V30 26795 C 2490.17 4.12177 1.99685 0
M  V30 26796 N 2491.66 4.14403 2.0694 0
M  V30 26797 C 2492.4 5.18015 2.45862 0
M  V30 26798 N 2491.89 6.31982 2.83851 0
M  V30 26799 N 2493.69 5.05371 2.46083 0
M  V30 26800 H 2485.84 2.12248 -0.0803921 0
M  V30 26801 H 2488.1 0.947625 0.0266747 0
M  V30 26802 H 2487.81 3.44888 0.688864 0
M  V30 26803 H 2487.68 2.93977 2.36341 0
M  V30 26804 H 2490.07 1.96057 2.20558 0
M  V30 26805 H 2490.15 2.50384 0.523583 0
M  V30 26806 H 2489.79 4.90811 1.30641 0
M  V30 26807 H 2489.72 4.33387 2.99138 0
M  V30 26808 H 2492.21 3.32155 1.80226 0
M  V30 26809 H 2492.53 7.06846 3.12392 0
M  V30 26810 H 2490.87 6.35404 2.81578 0
M  V30 26811 H 2494.06 4.15388 2.15802 0
M  V30 26812 H 2494.24 5.8624 2.76092 0
M  V30 26813 N 2487.64 -0.862479 1.31905 0
M  V30 26814 C 2488.57 -1.97673 1.16009 0
M  V30 26815 C 2489.59 -1.6251 0.0971519 0
M  V30 26816 O 2490.78 -1.75127 0.345367 0
M  V30 26817 C 2487.88 -3.30455 0.751849 0
M  V30 26818 C 2487.05 -3.93911 1.9014 0
M  V30 26819 C 2486.11 -5.05017 1.47799 0
M  V30 26820 O 2485.13 -5.25433 2.18881 0
M  V30 26821 N 2486.34 -5.79322 0.369593 0
M  V30 26822 H 2489.1 -2.11854 2.11986 0
M  V30 26823 H 2486.66 -1.03689 1.24339 0
M  V30 26824 H 2488.65 -4.02177 0.451155 0
M  V30 26825 H 2487.22 -3.12383 -0.116538 0
M  V30 26826 H 2486.44 -3.15074 2.36901 0
M  V30 26827 H 2487.73 -4.33042 2.67118 0
M  V30 26828 H 2487.13 -5.65263 -0.2222 0
M  V30 26829 H 2485.69 -6.51673 0.128469 0
M  V30 26830 N 2489.12 -1.14988 -1.07775 0
M  V30 26831 C 2490.05 -0.865595 -2.16863 0
M  V30 26832 C 2491.03 0.182053 -1.69123 0
M  V30 26833 O 2492.22 0.0373473 -1.94164 0
M  V30 26834 C 2489.35 -0.349373 -3.45538 0
M  V30 26835 C 2488.3 -1.3332 -4.06706 0
M  V30 26836 C 2487.63 -0.676011 -5.30409 0
M  V30 26837 C 2488.93 -2.69772 -4.47236 0
M  V30 26838 H 2490.62 -1.77782 -2.40902 0
M  V30 26839 H 2488.17 -0.856223 -1.15779 0
M  V30 26840 H 2490.12 -0.138057 -4.21174 0
M  V30 26841 H 2488.84 0.598306 -3.21073 0
M  V30 26842 H 2487.5 -1.53081 -3.33109 0
M  V30 26843 H 2487.15 0.277679 -5.02233 0
M  V30 26844 H 2486.85 -1.33254 -5.72291 0
M  V30 26845 H 2488.37 -0.474369 -6.08755 0
M  V30 26846 H 2489.79 -2.53882 -5.1402 0
M  V30 26847 H 2488.19 -3.31759 -5.00056 0
M  V30 26848 H 2489.26 -3.26162 -3.58812 0
M  V30 26849 N 2490.6 1.26049 -0.946007 0
M  V30 26850 C 2491.88 1.8873 -0.513849 0
M  V30 26851 C 2492.26 1.85442 1.00869 0
M  V30 26852 O 2491.6 1.31203 1.87077 0
M  V30 26853 C 2491.81 3.31847 -1.08067 0
M  V30 26854 C 2493.16 4.08666 -1.15227 0
M  V30 26855 O 2494.19 3.40935 -1.03161 0
M  V30 26856 O 2493.04 5.29804 -1.34054 0
M  V30 26857 H 2490.14 0.809713 -0.168207 0
M  V30 26858 H 2492.68 1.34184 -1.03888 0
M  V30 26859 H 2491.46 3.28626 -2.12416 0
M  V30 26860 H 2491.08 3.93938 -0.538376 0
M  V30 26861 N 2492.08 0.71358 1.4052 0
M  V30 26862 C 2493.03 0.0362051 2.27971 0
M  V30 26863 C 2494.01 -0.734598 1.43152 0
M  V30 26864 O 2495.2 -0.607128 1.66262 0
M  V30 26865 C 2492.33 -0.886272 3.31663 0
M  V30 26866 C 2491.42 -0.110762 4.23955 0
M  V30 26867 N 2491.81 0.904935 4.97639 0
M  V30 26868 C 2490.11 -0.343614 4.44674 0
M  V30 26869 C 2490.81 1.37073 5.65319 0
M  V30 26870 N 2489.78 0.693263 5.39161 0
M  V30 26871 H 2493.59 0.814695 2.82383 0
M  V30 26872 H 2491.1 0.54599 1.52947 0
M  V30 26873 H 2493.1 -1.38685 3.93157 0
M  V30 26874 H 2491.76 -1.66416 2.78811 0
M  V30 26875 H 2492.77 1.28572 5.01687 0
M  V30 26876 H 2489.44 -1.09798 4.02803 0
M  V30 26877 H 2490.83 2.21458 6.34355 0
M  V30 26878 N 2493.55 -1.50749 0.459618 0
M  V30 26879 C 2494.97 -1.867 0.00174828 0
M  V30 26880 C 2495.32 -1.37527 -1.39931 0
M  V30 26881 O 2494.44 -0.735385 -2.03522 0
M  V30 26882 C 2495.04 -3.388 -0.00360343 0
M  V30 26883 C 2493.6 -3.74204 -0.40596 0
M  V30 26884 C 2492.74 -2.74589 0.386778 0
M  V30 26885 H 2495.69 -1.43656 0.674438 0
M  V30 26886 H 2495.71 -3.71815 -0.808306 0
M  V30 26887 H 2495.23 -3.74559 1.01623 0
M  V30 26888 H 2493.33 -3.44043 -1.43057 0
M  V30 26889 H 2493.44 -4.78961 -0.115278 0
M  V30 26890 H 2491.8 -2.5421 -0.157974 0
M  V30 26891 H 2492.59 -3.13192 1.40591 0
M  V30 26892 N 2495.03 -0.191784 -1.56429 0
M  V30 26893 C 2495.96 0.725657 -2.21938 0
M  V30 26894 C 2496.94 1.22378 -1.18142 0
M  V30 26895 O 2498.13 1.27322 -1.46638 0
M  V30 26896 C 2495.26 1.94667 -2.87615 0
M  V30 26897 C 2494.21 1.58359 -3.97626 0
M  V30 26898 C 2493.54 2.88094 -4.50451 0
M  V30 26899 C 2494.84 0.796042 -5.16198 0
M  V30 26900 H 2496.53 0.179554 -2.98861 0
M  V30 26901 H 2494.08 0.0849212 -1.43749 0
M  V30 26902 H 2496.03 2.59367 -3.32124 0
M  V30 26903 H 2494.76 2.51725 -2.08092 0
M  V30 26904 H 2493.41 0.960185 -3.53802 0
M  V30 26905 H 2493.06 3.43235 -3.67694 0
M  V30 26906 H 2492.76 2.64547 -5.2468 0
M  V30 26907 H 2494.29 3.53789 -4.9766 0
M  V30 26908 H 2495.7 1.34608 -5.57273 0
M  V30 26909 H 2494.1 0.658823 -5.96473 0
M  V30 26910 H 2495.17 -0.203563 -4.84473 0
M  V30 26911 N 2496.51 1.57387 0.0818378 0
M  V30 26912 C 2497.92 1.75575 0.63484 0
M  V30 26913 C 2498.27 0.815841 1.78433 0
M  V30 26914 O 2497.4 -0.00249857 2.164 0
M  V30 26915 C 2497.99 3.18381 1.1584 0
M  V30 26916 C 2496.55 3.37948 1.65735 0
M  V30 26917 C 2495.7 2.71326 0.572501 0
M  V30 26918 H 2498.65 1.58043 -0.144295 0
M  V30 26919 H 2498.67 3.21986 2.02745 0
M  V30 26920 H 2498.18 3.86766 0.321564 0
M  V30 26921 H 2496.28 2.74663 2.51776 0
M  V30 26922 H 2496.4 4.46339 1.74121 0
M  V30 26923 H 2494.76 2.33596 1.01514 0
M  V30 26924 H 2495.54 3.42359 -0.253978 0
M  V30 26925 N 2497.99 -0.35299 1.53596 0
M  V30 26926 C 2499.22 -1.11457 1.74313 0
M  V30 26927 C 2499.63 -1.82652 0.477887 0
M  V30 26928 O 2498.99 -1.74017 -0.549947 0
M  V30 26929 C 2499.04 -2.13529 2.91698 0
M  V30 26930 O 2498.76 -1.45231 4.13328 0
M  V30 26931 C 2500.26 -3.02136 3.2439 0
M  V30 26932 H 2497.48 -0.332763 0.582675 0
M  V30 26933 H 2500.03 -0.408072 2.00387 0
M  V30 26934 H 2498.18 -2.79758 2.67982 0
M  V30 26935 H 2498.59 -2.13341 4.79151 0
M  V30 26936 H 2500.07 -3.69711 4.099 0
M  V30 26937 H 2500.55 -3.67639 2.40288 0
M  V30 26938 H 2501.15 -2.41508 3.50077 0
M  V30 26939 N 2499.47 -1.45169 -0.613489 0
M  V30 26940 C 2500.71 -1.49098 -1.37469 0
M  V30 26941 C 2501.05 -0.129935 -1.93765 0
M  V30 26942 O 2500.32 0.854827 -1.74708 0
M  V30 26943 C 2500.6 -2.56547 -2.52697 0
M  V30 26944 C 2500.46 -4.02074 -2.01636 0
M  V30 26945 C 2501.78 -2.60333 -3.54844 0
M  V30 26946 H 2498.9 -0.542839 -0.498493 0
M  V30 26947 H 2501.54 -1.76946 -0.692094 0
M  V30 26948 H 2499.69 -2.32931 -3.10927 0
M  V30 26949 H 2501.36 -4.3688 -1.481 0
M  V30 26950 H 2499.6 -4.13011 -1.32681 0
M  V30 26951 H 2500.27 -4.72933 -2.84673 0
M  V30 26952 H 2502.75 -2.81479 -3.06445 0
M  V30 26953 H 2501.63 -3.37388 -4.32967 0
M  V30 26954 H 2501.89 -1.65198 -4.10076 0
M  V30 26955 N 2500.95 0.855472 -1.32361 0
M  V30 26956 C 2501.9 1.95203 -1.17812 0
M  V30 26957 C 2502.88 1.60674 -0.0852602 0
M  V30 26958 O 2504.07 1.74234 -0.311682 0
M  V30 26959 C 2501.2 3.31225 -0.902495 0
M  V30 26960 C 2500.29 3.71976 -2.03702 0
M  V30 26961 N 2500.68 3.84562 -3.28551 0
M  V30 26962 C 2498.98 4.01597 -1.94 0
M  V30 26963 C 2499.68 4.19622 -4.02855 0
M  V30 26964 N 2498.65 4.31096 -3.31145 0
M  V30 26965 H 2502.45 2.03066 -2.12465 0
M  V30 26966 H 2499.97 1.04718 -1.24129 0
M  V30 26967 H 2501.97 4.09553 -0.779222 0
M  V30 26968 H 2500.63 3.2468 0.0356696 0
M  V30 26969 H 2501.64 3.68905 -3.63497 0
M  V30 26970 H 2498.31 4.03359 -1.0774 0
M  V30 26971 H 2499.7 4.36836 -5.10514 0
M  V30 26972 N 2502.42 1.15558 1.07164 0
M  V30 26973 C 2503.83 0.940721 1.61268 0
M  V30 26974 C 2504.19 -0.517518 1.89252 0
M  V30 26975 O 2503.31 -1.389 1.65939 0
M  V30 26976 C 2503.91 1.70125 2.9299 0
M  V30 26977 C 2502.46 1.53162 3.43829 0
M  V30 26978 C 2501.61 1.71562 2.17857 0
M  V30 26979 H 2504.56 1.30556 0.902267 0
M  V30 26980 H 2504.58 1.17187 3.62005 0
M  V30 26981 H 2504.1 2.76253 2.72591 0
M  V30 26982 H 2502.2 0.494359 3.69306 0
M  V30 26983 H 2502.31 2.30983 4.19743 0
M  V30 26984 H 2500.67 1.14229 2.27648 0
M  V30 26985 H 2501.46 2.7906 1.99951 0
M  V30 26986 N 2503.9 -1.25546 0.952678 0
M  V30 26987 C 2504.83 -2.25156 0.428648 0
M  V30 26988 C 2505.85 -1.5633 -0.4544 0
M  V30 26989 O 2507.04 -1.76552 -0.262992 0
M  V30 26990 C 2504.14 -3.36508 -0.401912 0
M  V30 26991 C 2503.31 -4.34893 0.467678 0
M  V30 26992 C 2502.37 -5.25319 -0.304358 0
M  V30 26993 O 2501.39 -5.68427 0.296573 0
M  V30 26994 N 2502.6 -5.58073 -1.59796 0
M  V30 26995 H 2505.36 -2.70754 1.28501 0
M  V30 26996 H 2502.92 -1.39432 0.822823 0
M  V30 26997 H 2504.91 -3.93962 -0.926065 0
M  V30 26998 H 2503.48 -2.90315 -1.15913 0
M  V30 26999 H 2502.7 -3.76345 1.17295 0
M  V30 27000 H 2503.99 -4.97609 1.06128 0
M  V30 27001 H 2503.39 -5.24952 -2.10813 0
M  V30 27002 H 2501.95 -6.1812 -2.06811 0
M  V30 27003 N 2505.38 -0.721022 -1.40139 0
M  V30 27004 C 2506.63 -0.263267 -2.01084 0
M  V30 27005 C 2506.96 1.14226 -1.57054 0
M  V30 27006 O 2506.23 1.77597 -0.793058 0
M  V30 27007 C 2506.52 -0.349407 -3.58401 0
M  V30 27008 C 2506.37 -1.7937 -4.12488 0
M  V30 27009 C 2507.69 0.276274 -4.39232 0
M  V30 27010 H 2504.81 -0.0971357 -0.730571 0
M  V30 27011 H 2507.45 -0.914547 -1.66541 0
M  V30 27012 H 2505.6 0.205097 -3.87958 0
M  V30 27013 H 2507.27 -2.40401 -3.93707 0
M  V30 27014 H 2505.51 -2.31964 -3.66572 0
M  V30 27015 H 2506.19 -1.80533 -5.21643 0
M  V30 27016 H 2508.66 -0.196257 -4.15637 0
M  V30 27017 H 2507.54 0.185584 -5.48586 0
M  V30 27018 H 2507.8 1.36052 -4.20645 0
M  V30 27019 N 2506.86 1.50503 -0.467606 0
M  V30 27020 C 2508.09 2.0672 0.086377 0
M  V30 27021 C 2508.5 1.33186 1.33817 0
M  V30 27022 O 2507.86 0.400114 1.7806 0
M  V30 27023 C 2507.91 3.59518 0.378016 0
M  V30 27024 O 2507.63 4.30279 -0.82412 0
M  V30 27025 C 2509.13 4.32347 0.97935 0
M  V30 27026 H 2506.35 0.670977 -0.00552876 0
M  V30 27027 H 2508.89 1.93713 -0.655388 0
M  V30 27028 H 2507.05 3.72339 1.06971 0
M  V30 27029 H 2507.46 5.21431 -0.566609 0
M  V30 27030 H 2508.94 5.40243 1.1332 0
M  V30 27031 H 2509.41 3.92614 1.96853 0
M  V30 27032 H 2510.02 4.24048 0.326141 0
M  V30 27033 N 2508.34 0.200077 1.56325 0
M  V30 27034 C 2509.57 -0.442197 2.01812 0
M  V30 27035 C 2509.97 -1.55392 1.07935 0
M  V30 27036 O 2509.32 -1.83537 0.0773008 0
M  V30 27037 C 2509.38 -1.05451 3.43686 0
M  V30 27038 C 2509.04 -0.080903 4.56928 0
M  V30 27039 C 2510.04 0.711562 5.15008 0
M  V30 27040 C 2507.72 0.0316246 5.0229 0
M  V30 27041 C 2509.72 1.60347 6.16902 0
M  V30 27042 C 2507.41 0.927087 6.04027 0
M  V30 27043 C 2508.4 1.71157 6.61207 0
M  V30 27044 O 2508.09 2.59202 7.60966 0
M  V30 27045 H 2507.82 -0.114836 0.666175 0
M  V30 27046 H 2510.38 0.307547 2.03084 0
M  V30 27047 H 2508.61 -1.85293 3.39416 0
M  V30 27048 H 2510.3 -1.60195 3.72951 0
M  V30 27049 H 2511.06 0.634958 4.80826 0
M  V30 27050 H 2506.94 -0.568822 4.57477 0
M  V30 27051 H 2510.49 2.21623 6.6146 0
M  V30 27052 H 2506.38 1.00479 6.37632 0
M  V30 27053 H 2507.15 2.53037 7.78405 0
M  V30 27054 N 2509.81 -1.57429 -0.0734901 0
M  V30 27055 C 2510.78 -2.02591 -1.07189 0
M  V30 27056 C 2511.78 -0.922684 -1.31694 0
M  V30 27057 O 2512.97 -1.1876 -1.27443 0
M  V30 27058 C 2510.1 -2.4051 -2.41594 0
M  V30 27059 H 2511.29 -2.92027 -0.682676 0
M  V30 27060 H 2508.84 -1.53007 -0.319167 0
M  V30 27061 H 2509.58 -1.54095 -2.85351 0
M  V30 27062 H 2509.36 -3.21013 -2.25151 0
M  V30 27063 H 2510.85 -2.76033 -3.13362 0
M  V30 27064 N 2511.29 0.344839 -1.53781 0
M  V30 27065 C 2512.52 1.10371 -1.74648 0
M  V30 27066 C 2512.93 1.8288 -0.484943 0
M  V30 27067 O 2512.27 1.75178 0.553031 0
M  V30 27068 C 2512.33 2.16301 -2.87149 0
M  V30 27069 C 2512 1.63378 -4.26798 0
M  V30 27070 C 2513 1.08679 -5.08414 0
M  V30 27071 C 2510.68 1.68264 -4.73279 0
M  V30 27072 C 2512.67 0.595681 -6.3461 0
M  V30 27073 C 2510.36 1.18765 -5.99448 0
M  V30 27074 C 2511.36 0.645096 -6.79947 0
M  V30 27075 O 2511.05 0.157485 -8.03746 0
M  V30 27076 H 2510.78 0.335064 -0.587118 0
M  V30 27077 H 2513.33 0.403217 -2.01403 0
M  V30 27078 H 2511.56 2.89905 -2.55915 0
M  V30 27079 H 2513.25 2.77742 -2.95997 0
M  V30 27080 H 2514.02 1.04227 -4.73668 0
M  V30 27081 H 2509.9 2.09434 -4.1068 0
M  V30 27082 H 2513.44 0.171532 -6.97389 0
M  V30 27083 H 2509.34 1.22917 -6.33689 0
M  V30 27084 H 2510.11 0.274893 -8.18038 0
M  V30 27085 N 2512.77 1.45492 0.605781 0
M  V30 27086 C 2513.7 1.48794 1.73019 0
M  V30 27087 C 2514.68 0.34414 1.58916 0
M  V30 27088 O 2515.86 0.544908 1.80452 0
M  V30 27089 C 2512.99 1.34469 3.10863 0
M  V30 27090 C 2512.04 2.52737 3.4355 0
M  V30 27091 S 2512.87 4.15197 3.38189 0
M  V30 27092 C 2514.03 4.03341 4.78609 0
M  V30 27093 H 2514.26 2.43931 1.69956 0
M  V30 27094 H 2511.79 1.33097 0.782587 0
M  V30 27095 H 2513.75 1.26891 3.90396 0
M  V30 27096 H 2512.41 0.407995 3.11439 0
M  V30 27097 H 2511.6 2.38644 4.4392 0
M  V30 27098 H 2511.21 2.57185 2.71536 0
M  V30 27099 H 2513.5 3.68597 5.68456 0
M  V30 27100 H 2514.44 5.03629 4.97758 0
M  V30 27101 H 2514.85 3.34967 4.54375 0
M  V30 27102 N 2514.25 -0.848441 1.32813 0
M  V30 27103 C 2515.2 -1.95752 1.22269 0
M  V30 27104 C 2516.17 -1.65778 0.103443 0
M  V30 27105 O 2517.35 -1.88733 0.280066 0
M  V30 27106 C 2514.49 -3.31534 0.958073 0
M  V30 27107 C 2513.6 -3.73968 2.16269 0
M  V30 27108 C 2512.74 -4.98571 1.83303 0
M  V30 27109 C 2511.78 -5.33513 3.00051 0
M  V30 27110 N 2510.91 -6.49294 2.67137 0
M  V30 27111 H 2515.75 -2.04103 2.17131 0
M  V30 27112 H 2513.29 -0.998894 1.07984 0
M  V30 27113 H 2515.25 -4.09746 0.785124 0
M  V30 27114 H 2513.88 -3.22767 0.0462158 0
M  V30 27115 H 2512.93 -2.91358 2.44571 0
M  V30 27116 H 2514.24 -3.9578 3.03579 0
M  V30 27117 H 2513.4 -5.84506 1.62596 0
M  V30 27118 H 2512.14 -4.78709 0.932162 0
M  V30 27119 H 2511.14 -4.46087 3.21382 0
M  V30 27120 H 2512.37 -5.55329 3.90879 0
M  V30 27121 H 2510.31 -6.30936 1.79598 0
M  V30 27122 H 2510.23 -6.71155 3.47976 0
M  V30 27123 H 2511.5 -7.38365 2.49874 0
M  V30 27124 N 2515.73 -1.16125 -1.06549 0
M  V30 27125 C 2516.67 -0.861409 -2.16061 0
M  V30 27126 C 2517.67 0.168487 -1.6856 0
M  V30 27127 O 2518.87 0.0227263 -1.79986 0
M  V30 27128 H 2515.25 -0.260946 -0.705274 0
M  V30 27129 H 2517.22 -1.79248 -2.38564 0
M  V30 27130 C 2515.97 -0.376079 -3.4566 0
M  V30 27131 H 2515.29 -1.15998 -3.82602 0
M  V30 27132 H 2516.73 -0.205026 -4.23504 0
M  V30 27133 C 2515.19 0.903897 -3.24548 0
M  V30 27134 O 2515.72 1.97371 -3.49868 0
M  V30 27135 N 2513.93 0.84663 -2.77994 0
M  V30 27136 H 2513.47 -0.024147 -2.57589 0
M  V30 27137 H 2513.43 1.70355 -2.64247 0
M  V30 27138 N 2517.2 1.25039 -0.959323 0
M  V30 27139 C 2518.14 2.24161 -0.427458 0
M  V30 27140 C 2519.12 1.5492 0.49381 0
M  V30 27141 O 2520.3 1.83597 0.427112 0
M  V30 27142 C 2517.43 3.36518 0.383834 0
M  V30 27143 C 2516.47 4.23807 -0.478506 0
M  V30 27144 S 2517.31 5.00141 -1.91362 0
M  V30 27145 C 2518.46 6.15963 -1.11088 0
M  V30 27146 H 2518.69 2.68928 -1.26748 0
M  V30 27147 H 2516.23 1.34188 -0.763737 0
M  V30 27148 H 2518.19 4.01688 0.845968 0
M  V30 27149 H 2516.85 2.90326 1.19873 0
M  V30 27150 H 2516.04 5.03794 0.143972 0
M  V30 27151 H 2515.64 3.63595 -0.876034 0
M  V30 27152 H 2517.93 6.76533 -0.361818 0
M  V30 27153 H 2518.88 6.82554 -1.88484 0
M  V30 27154 H 2519.28 5.60872 -0.638942 0
M  V30 27155 N 2518.68 0.728444 1.39755 0
M  V30 27156 C 2519.93 0.282797 2.01424 0
M  V30 27157 C 2520.28 -1.11558 1.56756 0
M  V30 27158 O 2519.58 -1.74847 0.783513 0
M  V30 27159 C 2519.77 0.315839 3.56002 0
M  V30 27160 C 2519.6 1.71589 4.15677 0
M  V30 27161 C 2518.37 2.32658 4.48551 0
M  V30 27162 C 2520.57 2.66836 4.39662 0
M  V30 27163 N 2518.55 3.64886 4.93692 0
M  V30 27164 C 2519.92 3.83789 4.86936 0
M  V30 27165 C 2521.98 2.64683 4.2172 0
M  V30 27166 C 2520.68 4.98913 5.18149 0
M  V30 27167 C 2522.7 3.78945 4.54043 0
M  V30 27168 C 2522.07 4.94632 5.01517 0
M  V30 27169 H 2518.17 0.149597 0.767558 0
M  V30 27170 H 2520.75 0.953006 1.69782 0
M  V30 27171 H 2518.92 -0.323989 3.87046 0
M  V30 27172 H 2520.65 -0.147737 4.0443 0
M  V30 27173 H 2517.41 1.84641 4.36125 0
M  V30 27174 H 2517.83 4.32754 5.20628 0
M  V30 27175 H 2522.47 1.7644 3.84225 0
M  V30 27176 H 2520.19 5.8779 5.54552 0
M  V30 27177 H 2523.78 3.78569 4.41788 0
M  V30 27178 H 2522.66 5.81581 5.26055 0
M  V30 27179 N 2520.16 -1.50253 0.475581 0
M  V30 27180 C 2521.11 -2.28623 -0.316253 0
M  V30 27181 C 2522.08 -1.33874 -0.983203 0
M  V30 27182 O 2523.26 -1.62815 -0.994776 0
M  V30 27183 C 2520.4 -3.15882 -1.38969 0
M  V30 27184 C 2519.52 -4.25666 -0.737071 0
M  V30 27185 C 2518.65 -5.00176 -1.78879 0
M  V30 27186 C 2517.69 -6.01828 -1.11665 0
M  V30 27187 N 2516.83 -6.696 -2.11142 0
M  V30 27188 H 2521.67 -2.95838 0.358349 0
M  V30 27189 H 2519.2 -1.45886 0.188566 0
M  V30 27190 H 2521.16 -3.64828 -2.02376 0
M  V30 27191 H 2519.79 -2.50704 -2.0334 0
M  V30 27192 H 2518.84 -3.80399 0.00967337 0
M  V30 27193 H 2520.16 -4.98371 -0.206729 0
M  V30 27194 H 2519.31 -5.52863 -2.49855 0
M  V30 27195 H 2518.05 -4.27186 -2.35294 0
M  V30 27196 H 2517.05 -5.48397 -0.392537 0
M  V30 27197 H 2518.28 -6.76793 -0.559331 0
M  V30 27198 H 2516.22 -5.99398 -2.66566 0
M  V30 27199 H 2516.14 -7.38196 -1.63105 0
M  V30 27200 H 2517.41 -7.26902 -2.81485 0
M  V30 27201 N 2521.64 -0.208365 -1.56217 0
M  V30 27202 C 2522.86 0.435187 -2.02783 0
M  V30 27203 C 2523.29 1.53483 -1.0874 0
M  V30 27204 O 2522.65 1.81152 -0.0732173 0
M  V30 27205 C 2522.69 0.956274 -3.47689 0
M  V30 27206 O 2521.8 2.06843 -3.56777 0
M  V30 27207 H 2521.14 0.100146 -0.656404 0
M  V30 27208 H 2523.67 -0.323135 -2.02032 0
M  V30 27209 H 2523.68 1.26948 -3.87747 0
M  V30 27210 H 2522.35 0.151357 -4.15624 0
M  V30 27211 H 2520.93 1.76286 -3.286 0
M  V30 27212 N 2523.12 1.57465 0.0651402 0
M  V30 27213 C 2524.08 2.03157 1.06113 0
M  V30 27214 C 2525.08 0.929655 1.31202 0
M  V30 27215 O 2526.27 1.19435 1.26811 0
M  V30 27216 C 2523.4 2.41788 2.40315 0
M  V30 27217 H 2524.59 2.92385 0.667179 0
M  V30 27218 H 2522.15 1.53174 0.311048 0
M  V30 27219 H 2522.88 1.55606 2.8453 0
M  V30 27220 H 2522.67 3.22203 2.23445 0
M  V30 27221 H 2524.16 2.77691 3.11893 0
M  V30 27222 N 2524.59 -0.336679 1.53962 0
M  V30 27223 C 2526.01 -0.680215 1.44379 0
M  V30 27224 C 2526.21 -1.92169 0.606068 0
M  V30 27225 O 2525.27 -2.52303 0.0997324 0
M  V30 27226 C 2526.58 -0.866449 2.87946 0
M  V30 27227 C 2528.13 -0.964629 2.97765 0
M  V30 27228 C 2528.6 -1.18313 4.42455 0
M  V30 27229 N 2530.09 -1.25017 4.4601 0
M  V30 27230 C 2530.83 -1.43687 5.55105 0
M  V30 27231 N 2530.32 -1.59486 6.74193 0
M  V30 27232 N 2532.12 -1.4629 5.4273 0
M  V30 27233 H 2524.27 0.479491 2.06917 0
M  V30 27234 H 2526.53 0.152636 0.935632 0
M  V30 27235 H 2526.24 -0.0256319 3.51691 0
M  V30 27236 H 2526.11 -1.76617 3.33296 0
M  V30 27237 H 2528.5 -1.79596 2.34156 0
M  V30 27238 H 2528.58 -0.041663 2.55766 0
M  V30 27239 H 2528.22 -0.356699 5.06646 0
M  V30 27240 H 2528.15 -2.11977 4.82051 0
M  V30 27241 H 2530.64 -1.14305 3.60198 0
M  V30 27242 H 2530.96 -1.73387 7.53098 0
M  V30 27243 H 2529.3 -1.56609 6.77125 0
M  V30 27244 H 2532.49 -1.33535 4.48649 0
M  V30 27245 H 2532.67 -1.60499 6.27809 0
M  V30 27246 N 2526.07 -1.45812 -0.598057 0
M  V30 27247 C 2527.02 -1.5521 -1.70817 0
M  V30 27248 C 2527.99 -0.397348 -1.61277 0
M  V30 27249 O 2529.17 -0.612069 -1.80716 0
M  V30 27250 C 2526.31 -1.53381 -3.09141 0
M  V30 27251 C 2525.43 -2.79478 -3.29418 0
M  V30 27252 C 2524.56 -2.69256 -4.57902 0
M  V30 27253 C 2523.6 -3.90363 -4.7147 0
M  V30 27254 N 2522.74 -3.78618 -5.91264 0
M  V30 27255 H 2527.58 -2.50042 -1.62121 0
M  V30 27256 H 2525.12 -1.24063 -0.790367 0
M  V30 27257 H 2527.07 -1.50307 -3.89183 0
M  V30 27258 H 2525.7 -0.620932 -3.16772 0
M  V30 27259 H 2524.76 -2.92598 -2.43086 0
M  V30 27260 H 2526.07 -3.69278 -3.35314 0
M  V30 27261 H 2525.22 -2.64202 -5.46152 0
M  V30 27262 H 2523.96 -1.77071 -4.5442 0
M  V30 27263 H 2522.97 -3.95765 -3.81641 0
M  V30 27264 H 2524.19 -4.83625 -4.76743 0
M  V30 27265 H 2522.14 -2.89209 -5.88807 0
M  V30 27266 H 2522.05 -4.6206 -5.98361 0
M  V30 27267 H 2523.32 -3.77513 -6.81985 0
M  V30 27268 N 2527.55 0.841385 -1.33261 0
M  V30 27269 C 2528.8 1.59141 -1.23924 0
M  V30 27270 C 2529.11 1.94635 0.194066 0
M  V30 27271 O 2530.32 2.68395 0.409426 0
M  V30 27272 C 2528.77 2.87028 -2.17124 0
M  V30 27273 C 2528.38 2.58907 -3.6561 0
M  V30 27274 C 2530.13 3.6505 -2.16654 0
M  V30 27275 C 2528.03 3.82876 -4.50733 0
M  V30 27276 H 2526.96 0.597213 -0.460275 0
M  V30 27277 H 2529.61 0.927931 -1.58309 0
M  V30 27278 H 2528 3.54903 -1.75669 0
M  V30 27279 H 2529.17 1.99259 -4.15491 0
M  V30 27280 H 2527.49 1.94194 -3.68345 0
M  V30 27281 H 2530.08 4.57064 -2.77482 0
M  V30 27282 H 2530.43 3.99784 -1.16095 0
M  V30 27283 H 2530.96 3.04095 -2.56459 0
M  V30 27284 H 2527.7 3.53274 -5.52158 0
M  V30 27285 H 2527.22 4.41872 -4.05597 0
M  V30 27286 H 2528.9 4.50481 -4.64409 0
M  V30 27287 N 2529.03 1.16688 1.05932 0
M  V30 27288 C 2530.31 0.860778 1.75642 0
M  V30 27289 C 2530.69 -0.640606 2.01145 0
M  V30 27290 O 2530.03 -1.58956 1.6415 0
M  V30 27291 C 2530.24 1.6875 3.0549 0
M  V30 27292 C 2531.59 1.90278 3.79578 0
M  V30 27293 O 2532.62 1.65646 3.15341 0
M  V30 27294 O 2531.48 2.31627 4.94986 0
M  V30 27295 H 2528.57 0.31799 0.763421 0
M  V30 27296 H 2531.12 1.27344 1.12168 0
M  V30 27297 H 2529.89 2.70616 2.82635 0
M  V30 27298 H 2529.51 1.27212 3.767 0
M  V30 27299 N 2530.51 -1.24529 0.96594 0
M  V30 27300 C 2531.47 -2.23689 0.499586 0
M  V30 27301 C 2532.47 -1.5567 -0.402913 0
M  V30 27302 O 2533.66 -1.73064 -0.198619 0
M  V30 27303 C 2530.79 -3.39775 -0.276732 0
M  V30 27304 H 2531.99 -2.66461 1.37618 0
M  V30 27305 H 2529.54 -1.37111 0.750348 0
M  V30 27306 H 2530.27 -3.0244 -1.1705 0
M  V30 27307 H 2530.06 -3.90342 0.370895 0
M  V30 27308 H 2531.55 -4.13381 -0.592103 0
M  V30 27309 N 2531.99 -0.735845 -1.39367 0
M  V30 27310 C 2533.23 -0.284159 -2.00496 0
M  V30 27311 C 2533.56 1.12886 -1.58389 0
M  V30 27312 O 2532.82 1.78404 -0.80439 0
M  V30 27313 C 2533.11 -0.334714 -3.55829 0
M  V30 27314 C 2532.78 -1.70087 -4.1759 0
M  V30 27315 C 2531.44 -2.07479 -4.34173 0
M  V30 27316 C 2533.79 -2.59783 -4.51843 0
M  V30 27317 C 2531.12 -3.34074 -4.82298 0
M  V30 27318 C 2533.47 -3.8575 -5.01378 0
M  V30 27319 C 2532.14 -4.23234 -5.16168 0
M  V30 27320 H 2531.41 -0.103981 -0.733668 0
M  V30 27321 H 2534.06 -0.942854 -1.66681 0
M  V30 27322 H 2532.36 0.407557 -3.89675 0
M  V30 27323 H 2534.06 0.0329222 -4.00986 0
M  V30 27324 H 2530.65 -1.40016 -4.05085 0
M  V30 27325 H 2534.83 -2.32165 -4.38649 0
M  V30 27326 H 2530.09 -3.63057 -4.91934 0
M  V30 27327 H 2534.26 -4.55409 -5.26855 0
M  V30 27328 H 2531.89 -5.21394 -5.5322 0
M  V30 27329 N 2533.46 1.49999 -0.483543 0
M  V30 27330 C 2534.4 2.26655 0.340594 0
M  V30 27331 C 2535.41 1.32485 0.946129 0
M  V30 27332 O 2536.6 1.57902 0.832425 0
M  V30 27333 C 2533.7 3.04249 1.49285 0
M  V30 27334 C 2532.87 4.25866 0.997829 0
M  V30 27335 C 2531.93 4.8565 2.02561 0
M  V30 27336 O 2530.96 5.46215 1.60119 0
M  V30 27337 N 2532.16 4.7375 3.35471 0
M  V30 27338 H 2534.92 2.98023 -0.316629 0
M  V30 27339 H 2532.48 1.58805 -0.315052 0
M  V30 27340 H 2534.48 3.4112 2.1776 0
M  V30 27341 H 2533.05 2.356 2.05454 0
M  V30 27342 H 2532.27 3.93956 0.138548 0
M  V30 27343 H 2533.55 5.04692 0.645217 0
M  V30 27344 H 2532.95 4.25612 3.72654 0
M  V30 27345 H 2531.51 5.14855 3.99709 0
M  V30 27346 N 2534.94 0.216646 1.56104 0
M  V30 27347 C 2535.89 -0.70876 2.16704 0
M  V30 27348 C 2536.88 -1.16104 1.11394 0
M  V30 27349 O 2538.07 -1.11585 1.37397 0
M  V30 27350 C 2535.2 -1.91881 2.84669 0
M  V30 27351 C 2534.28 -1.48644 3.97197 0
M  V30 27352 N 2534.67 -0.766346 4.99961 0
M  V30 27353 C 2532.97 -1.77411 4.09196 0
M  V30 27354 C 2533.67 -0.546557 5.79127 0
M  V30 27355 N 2532.65 -1.10179 5.32317 0
M  V30 27356 H 2536.45 -0.15011 2.93516 0
M  V30 27357 H 2533.96 0.0177054 1.6239 0
M  V30 27358 H 2535.96 -2.59248 3.26491 0
M  V30 27359 H 2534.62 -2.48198 2.09351 0
M  V30 27360 H 2535.63 -0.419543 5.16198 0
M  V30 27361 H 2532.31 -2.35082 3.45025 0
M  V30 27362 H 2533.7 0.0262211 6.71895 0
M  V30 27363 N 2536.42 -1.57498 -0.0567885 0
M  V30 27364 C 2537.35 -2.00041 -1.09813 0
M  V30 27365 C 2538.33 -0.879843 -1.36739 0
M  V30 27366 O 2539.51 -1.14341 -1.49861 0
M  V30 27367 C 2536.64 -2.34991 -2.4392 0
M  V30 27368 C 2535.69 -3.57208 -2.33033 0
M  V30 27369 S 2536.52 -5.0746 -1.71011 0
M  V30 27370 C 2537.68 -5.45626 -3.06664 0
M  V30 27371 H 2537.91 -2.88055 -0.73565 0
M  V30 27372 H 2535.44 -1.52094 -0.265844 0
M  V30 27373 H 2537.4 -2.558 -3.21055 0
M  V30 27374 H 2536.06 -1.47478 -2.77325 0
M  V30 27375 H 2535.25 -3.79229 -3.31966 0
M  V30 27376 H 2534.86 -3.36107 -1.64037 0
M  V30 27377 H 2537.15 -5.44615 -4.0299 0
M  V30 27378 H 2538.09 -6.46257 -2.89408 0
M  V30 27379 H 2538.5 -4.73096 -3.07961 0
M  V30 27380 N 2537.9 0.328509 -1.54138 0
M  V30 27381 C 2538.83 1.42507 -1.79512 0
M  V30 27382 C 2539.84 1.4806 -0.676906 0
M  V30 27383 O 2541.03 1.50873 -0.953925 0
M  V30 27384 C 2538.13 2.81075 -1.89342 0
M  V30 27385 C 2537.3 2.98783 -3.19448 0
M  V30 27386 C 2536.36 4.17682 -3.20043 0
M  V30 27387 O 2535.39 4.11079 -3.93704 0
M  V30 27388 N 2536.59 5.26972 -2.43476 0
M  V30 27389 H 2539.36 1.21106 -2.74141 0
M  V30 27390 H 2536.92 0.518472 -1.53374 0
M  V30 27391 H 2538.91 3.58815 -1.87173 0
M  V30 27392 H 2537.48 2.95549 -1.01831 0
M  V30 27393 H 2536.7 2.08386 -3.34618 0
M  V30 27394 H 2537.99 3.07507 -4.0536 0
M  V30 27395 H 2537.39 5.35211 -1.8321 0
M  V30 27396 H 2535.94 6.0315 -2.4709 0
M  V30 27397 N 2539.38 1.46127 0.590316 0
M  V30 27398 C 2540.33 1.52533 1.69463 0
M  V30 27399 C 2541.31 0.386944 1.56178 0
M  V30 27400 O 2542.5 0.634887 1.65222 0
M  V30 27401 C 2539.63 1.51135 3.08242 0
M  V30 27402 C 2538.72 2.70239 3.26851 0
M  V30 27403 N 2539.11 3.9522 3.1565 0
M  V30 27404 C 2537.41 2.66302 3.5777 0
M  V30 27405 C 2538.11 4.74805 3.36058 0
M  V30 27406 N 2537.08 4.06549 3.60858 0
M  V30 27407 H 2540.88 2.46969 1.59322 0
M  V30 27408 H 2538.4 1.4166 0.794115 0
M  V30 27409 H 2540.4 1.53811 3.87489 0
M  V30 27410 H 2539.06 0.577692 3.1952 0
M  V30 27411 H 2540.07 4.26583 2.93679 0
M  V30 27412 H 2536.74 1.81924 3.75779 0
M  V30 27413 H 2538.13 5.83778 3.32645 0
M  V30 27414 N 2540.85 -0.834306 1.33705 0
M  V30 27415 C 2542.1 -1.58985 1.2542 0
M  V30 27416 C 2542.43 -1.93676 -0.178835 0
M  V30 27417 O 2541.68 -1.59267 -1.13721 0
M  V30 27418 C 2541.98 -2.90688 2.07931 0
M  V30 27419 C 2541.65 -2.75339 3.5707 0
M  V30 27420 C 2540.31 -2.7086 3.97729 0
M  V30 27421 C 2542.66 -2.5982 4.51822 0
M  V30 27422 C 2539.99 -2.48769 5.31348 0
M  V30 27423 C 2542.34 -2.39262 5.85608 0
M  V30 27424 C 2541.01 -2.33188 6.25444 0
M  V30 27425 H 2540.28 -0.581766 0.458944 0
M  V30 27426 H 2542.92 -0.966232 1.65337 0
M  V30 27427 H 2541.23 -3.5728 1.60806 0
M  V30 27428 H 2542.93 -3.4821 1.98874 0
M  V30 27429 H 2539.52 -2.79659 3.2479 0
M  V30 27430 H 2543.7 -2.62311 4.21315 0
M  V30 27431 H 2538.96 -2.42516 5.61245 0
M  V30 27432 H 2543.13 -2.26238 6.58627 0
M  V30 27433 H 2540.76 -2.1583 7.28918 0
M  V30 27434 N 2542.33 -1.17248 -1.05312 0
M  V30 27435 C 2543.58 -0.961544 -1.78556 0
M  V30 27436 C 2543.91 0.508664 -1.8742 0
M  V30 27437 O 2543.19 1.37755 -1.37309 0
M  V30 27438 C 2543.47 -1.60182 -3.22512 0
M  V30 27439 C 2543.32 -3.14405 -3.21667 0
M  V30 27440 C 2544.64 -1.30471 -4.20316 0
M  V30 27441 H 2541.76 -0.350734 -0.648193 0
M  V30 27442 H 2544.4 -1.44729 -1.231 0
M  V30 27443 H 2542.55 -1.18878 -3.69865 0
M  V30 27444 H 2544.22 -3.64758 -2.82399 0
M  V30 27445 H 2542.47 -3.47218 -2.60042 0
M  V30 27446 H 2543.14 -3.54332 -4.23265 0
M  V30 27447 H 2545.61 -1.66235 -3.81451 0
M  V30 27448 H 2544.49 -1.77857 -5.19286 0
M  V30 27449 H 2544.75 -0.225287 -4.41526 0
M  V30 27450 N 2543.81 1.24015 -0.972531 0
M  V30 27451 C 2544.74 2.24446 -0.464414 0
M  V30 27452 C 2545.76 1.57033 0.429472 0
M  V30 27453 O 2546.94 1.76948 0.234871 0
M  V30 27454 C 2544.04 3.37105 0.348326 0
M  V30 27455 C 2543.22 4.34093 -0.536806 0
M  V30 27456 C 2542.28 5.25737 0.220745 0
M  V30 27457 O 2541.3 5.67883 -0.386967 0
M  V30 27458 N 2542.5 5.60545 1.50897 0
M  V30 27459 H 2545.27 2.68675 -1.32793 0
M  V30 27460 H 2542.83 1.38105 -0.844901 0
M  V30 27461 H 2544.82 3.95386 0.863271 0
M  V30 27462 H 2543.39 2.92123 1.1128 0
M  V30 27463 H 2542.61 3.74431 -1.23267 0
M  V30 27464 H 2543.9 4.95857 -1.14031 0
M  V30 27465 H 2543.3 5.28239 2.02435 0
M  V30 27466 H 2541.86 6.21332 1.96951 0
M  V30 27467 N 2545.29 0.743226 1.38974 0
M  V30 27468 C 2546.52 0.305286 2.04635 0
M  V30 27469 C 2546.93 -1.06278 1.56046 0
M  V30 27470 O 2546.29 -1.6731 0.728951 0
M  V30 27471 C 2546.34 0.307241 3.60192 0
M  V30 27472 O 2546.06 1.62131 4.06995 0
M  V30 27473 C 2547.56 -0.14585 4.4306 0
M  V30 27474 H 2544.78 0.132053 0.657878 0
M  V30 27475 H 2547.33 1.00918 1.77865 0
M  V30 27476 H 2545.48 -0.34783 3.85835 0
M  V30 27477 H 2545.89 1.54045 5.01369 0
M  V30 27478 H 2547.37 -0.0933213 5.51921 0
M  V30 27479 H 2547.85 -1.19224 4.22708 0
M  V30 27480 H 2548.45 0.479961 4.22583 0
M  V30 27481 N 2546.77 -1.4974 0.491491 0
M  V30 27482 C 2547.7 -2.25677 -0.338424 0
M  V30 27483 C 2548.68 -1.2985 -0.978653 0
M  V30 27484 O 2549.86 -1.59119 -1.01061 0
M  V30 27485 C 2546.99 -3.04856 -1.47582 0
M  V30 27486 C 2546.03 -4.15764 -0.950927 0
M  V30 27487 S 2546.87 -5.35288 0.150721 0
M  V30 27488 C 2548.02 -6.1802 -0.990069 0
M  V30 27489 H 2548.26 -2.9572 0.30612 0
M  V30 27490 H 2545.79 -1.51901 0.276649 0
M  V30 27491 H 2547.75 -3.51062 -2.12758 0
M  V30 27492 H 2546.41 -2.343 -2.09195 0
M  V30 27493 H 2545.6 -4.70645 -1.80303 0
M  V30 27494 H 2545.2 -3.721 -0.376542 0
M  V30 27495 H 2547.5 -6.50389 -1.89737 0
M  V30 27496 H 2548.44 -7.06471 -0.480081 0
M  V30 27497 H 2548.85 -5.50416 -1.25311 0
M  V30 27498 N 2548.24 -0.224922 -1.55987 0
M  V30 27499 C 2549.18 0.716186 -2.17723 0
M  V30 27500 C 2550.19 1.15507 -1.14725 0
M  V30 27501 O 2551.38 1.08564 -1.4169 0
M  V30 27502 C 2548.48 1.98233 -2.74876 0
M  V30 27503 C 2547.65 1.69846 -4.03077 0
M  V30 27504 C 2546.71 2.812 -4.44762 0
M  V30 27505 O 2545.74 2.49525 -5.11591 0
M  V30 27506 N 2546.94 4.10227 -4.10723 0
M  V30 27507 H 2549.7 0.188071 -2.99109 0
M  V30 27508 H 2547.26 -0.0440408 -1.6184 0
M  V30 27509 H 2549.26 2.71925 -2.99732 0
M  V30 27510 H 2547.83 2.42083 -1.97774 0
M  V30 27511 H 2547.05 0.797807 -3.86042 0
M  V30 27512 H 2548.33 1.48315 -4.86703 0
M  V30 27513 H 2547.73 4.38803 -3.57027 0
M  V30 27514 H 2546.29 4.80453 -4.40464 0
M  V30 27515 N 2549.72 1.57526 0.0484352 0
M  V30 27516 C 2550.65 2.02043 1.08219 0
M  V30 27517 C 2551.67 0.930036 1.3362 0
M  V30 27518 O 2552.86 1.20763 1.31448 0
M  V30 27519 C 2549.96 2.36421 2.42814 0
M  V30 27520 C 2549.13 3.676 2.37042 0
M  V30 27521 C 2548.19 3.89384 3.5393 0
M  V30 27522 O 2547.21 4.60687 3.343 0
M  V30 27523 N 2548.42 3.33528 4.7512 0
M  V30 27524 H 2551.18 2.91341 0.702895 0
M  V30 27525 H 2548.74 1.6016 0.236717 0
M  V30 27526 H 2550.73 2.48147 3.19695 0
M  V30 27527 H 2549.3 1.52893 2.72658 0
M  V30 27528 H 2548.52 3.66409 1.45388 0
M  V30 27529 H 2549.81 4.5369 2.3031 0
M  V30 27530 H 2549.21 2.75697 4.93971 0
M  V30 27531 H 2547.77 3.50666 5.49433 0
M  V30 27532 N 2551.2 -0.32033 1.5431 0
M  V30 27533 C 2552.13 -1.41553 1.80265 0
M  V30 27534 C 2553.15 -1.47699 0.684749 0
M  V30 27535 O 2554.33 -1.50365 0.961913 0
M  V30 27536 C 2551.43 -2.80066 1.9083 0
M  V30 27537 C 2550.61 -2.97085 3.21028 0
M  V30 27538 C 2549.67 -4.15979 3.22254 0
M  V30 27539 O 2548.69 -4.08985 3.95878 0
M  V30 27540 N 2549.89 -5.25674 2.46267 0
M  V30 27541 H 2552.66 -1.19651 2.7478 0
M  V30 27542 H 2550.22 -0.510331 1.53646 0
M  V30 27543 H 2552.21 -3.57817 1.89074 0
M  V30 27544 H 2550.78 -2.95005 1.03397 0
M  V30 27545 H 2550 -2.06608 3.35718 0
M  V30 27546 H 2551.29 -3.05353 4.06985 0
M  V30 27547 H 2550.69 -5.34232 1.86046 0
M  V30 27548 H 2549.25 -6.01831 2.50285 0
M  V30 27549 N 2552.68 -1.46438 -0.582558 0
M  V30 27550 C 2553.64 -1.56595 -1.67363 0
M  V30 27551 C 2554.64 -0.443099 -1.54574 0
M  V30 27552 O 2555.83 -0.707409 -1.5919 0
M  V30 27553 C 2552.96 -1.48639 -3.06789 0
M  V30 27554 H 2554.16 -2.53833 -1.59715 0
M  V30 27555 H 2551.71 -1.3425 -0.800409 0
M  V30 27556 H 2552.44 -0.526819 -3.19992 0
M  V30 27557 H 2552.23 -2.30106 -3.1748 0
M  V30 27558 H 2553.72 -1.58833 -3.86215 0
M  V30 27559 N 2554.16 0.827204 -1.34146 0
M  V30 27560 C 2555.09 1.94528 -1.21209 0
M  V30 27561 C 2556.1 1.62195 -0.140204 0
M  V30 27562 O 2557.29 1.7415 -0.391678 0
M  V30 27563 C 2554.39 3.28345 -0.839199 0
M  V30 27564 C 2553.56 3.88731 -2.00517 0
M  V30 27565 C 2552.62 5.00921 -1.61137 0
M  V30 27566 O 2551.65 5.19445 -2.32735 0
M  V30 27567 N 2552.85 5.78139 -0.52306 0
M  V30 27568 H 2555.62 2.06159 -2.17529 0
M  V30 27569 H 2553.18 1.00356 -1.27044 0
M  V30 27570 H 2555.17 4.0084 -0.557627 0
M  V30 27571 H 2553.74 3.12582 0.0336744 0
M  V30 27572 H 2552.96 3.08682 -2.45172 0
M  V30 27573 H 2554.25 4.25807 -2.78506 0
M  V30 27574 H 2553.64 5.65654 0.0722524 0
M  V30 27575 H 2552.2 6.51104 -0.301203 0
M  V30 27576 N 2555.63 1.17805 1.04688 0
M  V30 27577 C 2556.58 0.867428 2.10855 0
M  V30 27578 C 2557.57 -0.160178 1.60101 0
M  V30 27579 O 2558.76 0.0429781 1.76948 0
M  V30 27580 C 2555.89 0.388072 3.411 0
M  V30 27581 C 2554.98 1.44739 3.98637 0
M  V30 27582 N 2555.37 2.6622 4.3007 0
M  V30 27583 C 2553.66 1.30644 4.26437 0
M  V30 27584 C 2554.37 3.34325 4.76027 0
M  V30 27585 N 2553.34 2.61705 4.76457 0
M  V30 27586 H 2557.14 1.79098 2.33026 0
M  V30 27587 H 2554.66 1.06752 1.22384 0
M  V30 27588 H 2556.65 0.147068 4.16641 0
M  V30 27589 H 2555.31 -0.529215 3.20358 0
M  V30 27590 H 2556.33 3.03141 4.19912 0
M  V30 27591 H 2553 0.451202 4.15055 0
M  V30 27592 H 2554.39 4.38112 5.09419 0
M  V30 27593 N 2557.11 -1.23497 0.979094 0
M  V30 27594 C 2558.08 -2.23147 0.523283 0
M  V30 27595 C 2559.08 -1.56089 -0.386379 0
M  V30 27596 O 2560.27 -1.73265 -0.180252 0
M  V30 27597 C 2557.4 -3.40049 -0.240679 0
M  V30 27598 H 2558.59 -2.64986 1.40436 0
M  V30 27599 H 2556.14 -1.36308 0.764848 0
M  V30 27600 H 2556.88 -3.03664 -1.13836 0
M  V30 27601 H 2556.66 -3.89927 0.412275 0
M  V30 27602 H 2558.15 -4.13986 -0.548225 0
M  V30 27603 N 2558.59 -0.750586 -1.38578 0
M  V30 27604 C 2559.84 -0.302207 -1.99423 0
M  V30 27605 C 2560.15 1.1215 -1.60255 0
M  V30 27606 O 2561.36 1.67019 -2.14049 0
M  V30 27607 C 2559.82 -0.48937 -3.56557 0
M  V30 27608 C 2559.42 -1.92196 -4.04678 0
M  V30 27609 C 2561.17 -0.103553 -4.24374 0
M  V30 27610 C 2559.07 -2.05785 -5.54443 0
M  V30 27611 H 2558 -0.109243 -0.746044 0
M  V30 27612 H 2560.66 -0.926698 -1.58381 0
M  V30 27613 H 2559.04 0.204259 -3.95473 0
M  V30 27614 H 2560.21 -2.64882 -3.7706 0
M  V30 27615 H 2558.53 -2.26242 -3.49576 0
M  V30 27616 H 2561.12 -0.183881 -5.34384 0
M  V30 27617 H 2561.47 0.943409 -4.05469 0
M  V30 27618 H 2562 -0.748923 -3.90687 0
M  V30 27619 H 2558.74 -3.08725 -5.78247 0
M  V30 27620 H 2558.26 -1.37556 -5.83814 0
M  V30 27621 H 2559.94 -1.84637 -6.20095 0
M  V30 27622 N 2560.07 1.49477 -0.499425 0
M  V30 27623 C 2561.03 2.27618 0.268798 0
M  V30 27624 C 2562.03 1.33566 0.89536 0
M  V30 27625 O 2563.22 1.5674 0.760136 0
M  V30 27626 C 2560.35 3.11474 1.38553 0
M  V30 27627 H 2561.55 2.96989 -0.416865 0
M  V30 27628 H 2559.1 1.54217 -0.254341 0
M  V30 27629 H 2559.84 2.46665 2.10539 0
M  V30 27630 H 2559.62 3.80623 0.94173 0
M  V30 27631 H 2561.11 3.70496 1.92671 0
M  V30 27632 N 2561.55 0.233191 1.55865 0
M  V30 27633 C 2562.78 -0.39987 2.02999 0
M  V30 27634 C 2563.19 -1.52522 1.11277 0
M  V30 27635 O 2562.55 -1.82074 0.12456 0
M  V30 27636 C 2562.6 -0.920578 3.49582 0
M  V30 27637 O 2562.32 0.159911 4.37808 0
M  V30 27638 C 2563.82 -1.62571 4.12414 0
M  V30 27639 H 2561.04 -0.0966164 0.664008 0
M  V30 27640 H 2563.58 0.353048 2.01429 0
M  V30 27641 H 2561.74 -1.62372 3.5173 0
M  V30 27642 H 2562.15 -0.233278 5.23981 0
M  V30 27643 H 2563.63 -1.94192 5.16714 0
M  V30 27644 H 2564.1 -2.54293 3.58095 0
M  V30 27645 H 2564.71 -0.96748 4.1415 0
M  V30 27646 N 2563.03 -1.57549 -0.0400806 0
M  V30 27647 C 2563.94 -2.09222 -1.06129 0
M  V30 27648 C 2564.95 -1.02843 -1.40354 0
M  V30 27649 O 2566.13 -1.34512 -1.49895 0
M  V30 27650 C 2563.19 -2.55223 -2.34654 0
M  V30 27651 C 2562.25 -3.76037 -2.0711 0
M  V30 27652 C 2561.49 -4.19834 -3.29507 0
M  V30 27653 O 2561.71 -3.6324 -4.39787 0
M  V30 27654 O 2560.64 -5.12367 -3.15854 0
M  V30 27655 H 2564.47 -2.96614 -0.652192 0
M  V30 27656 H 2562.05 -1.47184 -0.256343 0
M  V30 27657 H 2563.94 -2.85189 -3.10234 0
M  V30 27658 H 2562.61 -1.70946 -2.7488 0
M  V30 27659 H 2561.52 -3.51106 -1.29133 0
M  V30 27660 H 2562.85 -4.61264 -1.71746 0
M  V30 27661 N 2564.5 0.312142 -1.54478 0
M  V30 27662 C 2565.78 1.06764 -1.63893 0
M  V30 27663 C 2566.16 2.05569 -0.480064 0
M  V30 27664 O 2565.51 2.224 0.524448 0
M  V30 27665 C 2565.72 1.75943 -3.01405 0
M  V30 27666 C 2567.07 2.28548 -3.57842 0
M  V30 27667 O 2568.09 1.85992 -3.03785 0
M  V30 27668 O 2566.95 3.06489 -4.52467 0
M  V30 27669 H 2564.04 0.492804 -0.664133 0
M  V30 27670 H 2566.59 0.31112 -1.66824 0
M  V30 27671 H 2565.36 1.04138 -3.77188 0
M  V30 27672 H 2564.98 2.58378 -3.02203 0
M  V30 27673 N 2565.98 1.46745 0.574784 0
M  V30 27674 C 2566.91 1.53949 1.69801 0
M  V30 27675 C 2567.93 0.427134 1.57097 0
M  V30 27676 O 2569.12 0.695892 1.64376 0
M  V30 27677 C 2566.22 1.41116 3.08123 0
M  V30 27678 C 2565.39 2.66611 3.46753 0
M  V30 27679 C 2564.45 2.47864 4.64166 0
M  V30 27680 O 2563.47 3.21617 4.69629 0
M  V30 27681 N 2564.68 1.54544 5.5955 0
M  V30 27682 H 2567.44 2.50799 1.64073 0
M  V30 27683 H 2565 1.42901 0.760975 0
M  V30 27684 H 2566.99 1.26334 3.84476 0
M  V30 27685 H 2565.56 0.524163 3.08174 0
M  V30 27686 H 2564.78 2.96278 2.60025 0
M  V30 27687 H 2566.07 3.4996 3.69331 0
M  V30 27688 H 2565.47 0.937402 5.57879 0
M  V30 27689 H 2564.03 1.45722 6.35302 0
M  V30 27690 N 2567.46 -0.820078 1.34583 0
M  V30 27691 C 2568.39 -1.93882 1.22239 0
M  V30 27692 C 2569.4 -1.62119 0.148804 0
M  V30 27693 O 2570.59 -1.7394 0.400908 0
M  V30 27694 C 2567.69 -3.27896 0.8566 0
M  V30 27695 C 2566.87 -3.87662 2.02576 0
M  V30 27696 C 2565.93 -5.00059 1.63791 0
M  V30 27697 O 2564.95 -5.18203 2.35486 0
M  V30 27698 N 2566.15 -5.77853 0.553713 0
M  V30 27699 H 2568.92 -2.05002 2.18619 0
M  V30 27700 H 2566.48 -0.996808 1.27575 0
M  V30 27701 H 2568.47 -4.00539 0.578876 0
M  V30 27702 H 2567.04 -3.12595 -0.0170969 0
M  V30 27703 H 2566.26 -3.07377 2.46805 0
M  V30 27704 H 2567.55 -4.24325 2.8076 0
M  V30 27705 H 2566.95 -5.65684 -0.0422534 0
M  V30 27706 H 2565.5 -6.50935 0.335729 0
M  V30 27707 N 2568.94 -1.18359 -1.04062 0
M  V30 27708 C 2569.89 -0.878598 -2.10392 0
M  V30 27709 C 2570.87 0.151685 -1.60183 0
M  V30 27710 O 2572.06 -0.0523614 -1.76923 0
M  V30 27711 C 2569.19 -0.406156 -3.40889 0
M  V30 27712 C 2568.28 -1.46851 -3.97864 0
M  V30 27713 N 2568.67 -2.68497 -4.28653 0
M  V30 27714 C 2566.97 -1.32904 -4.25738 0
M  V30 27715 C 2567.67 -3.36845 -4.74247 0
M  V30 27716 N 2566.64 -2.64228 -4.75063 0
M  V30 27717 H 2570.45 -1.80331 -2.32073 0
M  V30 27718 H 2567.96 -1.074 -1.21816 0
M  V30 27719 H 2569.96 -0.169161 -4.16557 0
M  V30 27720 H 2568.62 0.512218 -3.20634 0
M  V30 27721 H 2569.63 -3.05364 -4.18298 0
M  V30 27722 H 2566.31 -0.473207 -4.1481 0
M  V30 27723 H 2567.7 -4.40807 -5.07088 0
M  V30 27724 N 2570.42 1.22976 -0.98563 0
M  V30 27725 C 2571.36 2.24635 -0.529864 0
M  V30 27726 C 2572.33 1.6033 0.434 0
M  V30 27727 O 2573.52 1.87739 0.340381 0
M  V30 27728 C 2570.66 3.44745 0.156472 0
M  V30 27729 C 2569.77 4.2359 -0.848271 0
M  V30 27730 C 2568.91 5.31025 -0.136203 0
M  V30 27731 C 2567.94 6.01583 -1.12981 0
M  V30 27732 N 2567.08 7.00679 -0.446538 0
M  V30 27733 H 2571.92 2.62985 -1.40153 0
M  V30 27734 H 2569.46 1.29258 -0.702191 0
M  V30 27735 H 2571.42 4.13271 0.571252 0
M  V30 27736 H 2570.05 3.0718 0.991971 0
M  V30 27737 H 2569.1 3.54431 -1.38141 0
M  V30 27738 H 2570.41 4.72266 -1.6052 0
M  V30 27739 H 2569.56 6.05771 0.335677 0
M  V30 27740 H 2568.3 4.83305 0.653288 0
M  V30 27741 H 2567.31 5.25625 -1.61239 0
M  V30 27742 H 2568.53 6.51392 -1.92005 0
M  V30 27743 H 2566.48 6.55201 0.323648 0
M  V30 27744 H 2566.4 7.47324 -1.14204 0
M  V30 27745 H 2567.66 7.795 0.00277995 0
M  V30 27746 N 2571.89 0.757924 1.38178 0
M  V30 27747 C 2572.83 0.0932579 2.2901 0
M  V30 27748 C 2573.84 -0.67911 1.47959 0
M  V30 27749 O 2575.03 -0.519483 1.70774 0
M  V30 27750 C 2572.13 -0.891863 3.26954 0
M  V30 27751 C 2571.3 -0.176226 4.37045 0
M  V30 27752 C 2570.36 -1.07272 5.1515 0
M  V30 27753 O 2569.39 -0.541629 5.66617 0
M  V30 27754 N 2570.59 -2.4004 5.28546 0
M  V30 27755 H 2573.35 0.873354 2.86693 0
M  V30 27756 H 2570.91 0.60908 1.50006 0
M  V30 27757 H 2572.91 -1.49473 3.76085 0
M  V30 27758 H 2571.48 -1.57301 2.70139 0
M  V30 27759 H 2570.7 0.607397 3.89492 0
M  V30 27760 H 2571.98 0.318807 5.078 0
M  V30 27761 H 2571.38 -2.85639 4.8829 0
M  V30 27762 H 2569.94 -2.95366 5.81036 0
M  V30 27763 N 2573.37 -1.4921 0.507345 0
M  V30 27764 C 2574.28 -2.33017 -0.272095 0
M  V30 27765 C 2575.3 -1.45042 -0.961181 0
M  V30 27766 O 2576.47 -1.78057 -0.941159 0
M  V30 27767 C 2573.54 -3.20634 -1.3189 0
M  V30 27768 C 2572.6 -4.24464 -0.642574 0
M  V30 27769 C 2571.83 -5.07894 -1.6395 0
M  V30 27770 O 2572.06 -4.92938 -2.86999 0
M  V30 27771 O 2570.99 -5.89992 -1.19133 0
M  V30 27772 H 2574.82 -3.00864 0.414035 0
M  V30 27773 H 2572.4 -1.46966 0.268581 0
M  V30 27774 H 2574.28 -3.74894 -1.92439 0
M  V30 27775 H 2572.96 -2.55473 -1.98784 0
M  V30 27776 H 2571.87 -3.741 0.00282828 0
M  V30 27777 H 2573.2 -4.92197 -0.0159668 0
M  V30 27778 N 2574.85 -0.241454 -1.55739 0
M  V30 27779 C 2575.78 0.654682 -2.24134 0
M  V30 27780 C 2576.76 1.18558 -1.21976 0
M  V30 27781 O 2577.95 1.22592 -1.50615 0
M  V30 27782 C 2575.08 1.85418 -2.93662 0
M  V30 27783 C 2574.03 1.45629 -4.02463 0
M  V30 27784 C 2573.36 2.73618 -4.59388 0
M  V30 27785 C 2574.66 0.631415 -5.18469 0
M  V30 27786 H 2576.35 0.0843827 -2.99281 0
M  V30 27787 H 2573.9 0.0391454 -1.43947 0
M  V30 27788 H 2575.85 2.4867 -3.40208 0
M  V30 27789 H 2574.57 2.44977 -2.15995 0
M  V30 27790 H 2573.23 0.84714 -3.56678 0
M  V30 27791 H 2572.88 3.31363 -3.78428 0
M  V30 27792 H 2572.58 2.47721 -5.3283 0
M  V30 27793 H 2574.1 3.37777 -5.08664 0
M  V30 27794 H 2575.52 1.1681 -5.61274 0
M  V30 27795 H 2573.92 0.468726 -5.98267 0
M  V30 27796 H 2574.99 -0.357591 -4.8358 0
M  V30 27797 N 2576.33 1.57568 0.0317248 0
M  V30 27798 C 2577.28 2.02849 1.04097 0
M  V30 27799 C 2578.26 0.91734 1.32188 0
M  V30 27800 O 2579.45 1.18124 1.31817 0
M  V30 27801 C 2576.58 2.50924 2.34291 0
M  V30 27802 C 2575.67 3.68855 2.09301 0
M  V30 27803 N 2576.06 4.8167 1.54362 0
M  V30 27804 C 2574.36 3.76177 2.39598 0
M  V30 27805 C 2575.06 5.63308 1.45116 0
M  V30 27806 N 2574.04 5.08344 1.9258 0
M  V30 27807 H 2577.84 2.87496 0.610166 0
M  V30 27808 H 2575.35 1.60645 0.23808 0
M  V30 27809 H 2577.35 2.81623 3.07399 0
M  V30 27810 H 2576.01 1.67682 2.78052 0
M  V30 27811 H 2577.02 5.03163 1.22669 0
M  V30 27812 H 2573.7 3.03729 2.86452 0
M  V30 27813 H 2575.09 6.63935 1.03151 0
M  V30 27814 N 2577.81 -0.303946 1.54641 0
M  V30 27815 C 2578.75 -1.37476 1.85389 0
M  V30 27816 C 2579.72 -1.5051 0.702554 0
M  V30 27817 O 2580.91 -1.65416 0.950896 0
M  V30 27818 C 2578.05 -2.73529 2.10418 0
M  V30 27819 C 2577.16 -2.68968 3.38054 0
M  V30 27820 C 2576.3 -3.96996 3.52941 0
M  V30 27821 C 2575.34 -3.86821 4.7438 0
M  V30 27822 N 2574.47 -5.06618 4.86089 0
M  V30 27823 H 2579.31 -1.10555 2.76734 0
M  V30 27824 H 2576.85 -0.534781 1.37035 0
M  V30 27825 H 2578.81 -3.52648 2.22925 0
M  V30 27826 H 2577.44 -2.98717 1.22343 0
M  V30 27827 H 2576.49 -1.81731 3.34183 0
M  V30 27828 H 2577.8 -2.57338 4.27292 0
M  V30 27829 H 2576.96 -4.84551 3.65097 0
M  V30 27830 H 2575.69 -4.11456 2.61831 0
M  V30 27831 H 2574.7 -2.9765 4.62261 0
M  V30 27832 H 2575.92 -3.73908 5.66895 0
M  V30 27833 H 2573.87 -5.21547 3.97901 0
M  V30 27834 H 2573.79 -4.974 5.69324 0
M  V30 27835 H 2575.06 -5.95832 5.02598 0
M  V30 27836 N 2579.28 -1.47047 -0.566994 0
M  V30 27837 C 2580.21 -1.6167 -1.68479 0
M  V30 27838 C 2581.2 -0.466447 -1.6358 0
M  V30 27839 O 2582.38 -0.694606 -1.81353 0
M  V30 27840 C 2579.51 -1.62153 -3.07122 0
M  V30 27841 C 2578.46 -2.76307 -3.26862 0
M  V30 27842 C 2577.79 -2.61858 -4.66192 0
M  V30 27843 C 2579.09 -4.17991 -3.13178 0
M  V30 27844 H 2580.78 -2.55243 -1.56497 0
M  V30 27845 H 2578.33 -1.22837 -0.751465 0
M  V30 27846 H 2580.28 -1.70975 -3.85157 0
M  V30 27847 H 2579.01 -0.651343 -3.20039 0
M  V30 27848 H 2577.67 -2.6698 -2.51232 0
M  V30 27849 H 2577.31 -1.62888 -4.75896 0
M  V30 27850 H 2577.01 -3.38434 -4.8035 0
M  V30 27851 H 2578.54 -2.72593 -5.46375 0
M  V30 27852 H 2579.95 -4.28346 -3.81041 0
M  V30 27853 H 2578.35 -4.95278 -3.38851 0
M  V30 27854 H 2579.42 -4.37044 -2.10049 0
M  V30 27855 N 2580.76 0.812929 -1.35016 0
M  V30 27856 C 2581.7 1.92999 -1.21764 0
M  V30 27857 C 2582.67 1.62248 -0.106969 0
M  V30 27858 O 2583.86 1.86499 -0.273924 0
M  V30 27859 C 2580.98 3.27244 -0.873461 0
M  V30 27860 C 2580.03 3.76949 -1.9953 0
M  V30 27861 S 2580.86 3.9551 -3.61016 0
M  V30 27862 C 2582.02 5.32666 -3.28661 0
M  V30 27863 H 2582.25 2.03945 -2.16319 0
M  V30 27864 H 2579.79 0.96961 -1.20158 0
M  V30 27865 H 2581.74 4.048 -0.681681 0
M  V30 27866 H 2580.4 3.14054 0.0539158 0
M  V30 27867 H 2579.6 4.7416 -1.70847 0
M  V30 27868 H 2579.2 3.0637 -2.14508 0
M  V30 27869 H 2581.49 6.16435 -2.81095 0
M  V30 27870 H 2582.43 5.66339 -4.25049 0
M  V30 27871 H 2582.84 4.98651 -2.64589 0
M  V30 27872 N 2582.24 1.18909 1.03433 0
M  V30 27873 C 2583.2 0.923881 2.09755 0
M  V30 27874 C 2584.2 -0.0933878 1.60529 0
M  V30 27875 O 2585.39 0.140757 1.7363 0
M  V30 27876 C 2582.53 0.387413 3.38691 0
M  V30 27877 H 2583.72 1.86678 2.34716 0
M  V30 27878 H 2581.27 1.00199 1.19958 0
M  V30 27879 H 2582.01 -0.561789 3.19397 0
M  V30 27880 H 2581.79 1.12081 3.7574 0
M  V30 27881 H 2583.28 0.220767 4.17016 0
M  V30 27882 N 2583.72 -1.22452 0.992137 0
M  V30 27883 C 2585.13 -1.43296 0.702739 0
M  V30 27884 C 2585.33 -1.87933 -0.726876 0
M  V30 27885 O 2584.39 -2.03273 -1.49788 0
M  V30 27886 C 2585.7 -2.47506 1.70766 0
M  V30 27887 C 2587.25 -2.61306 1.72302 0
M  V30 27888 C 2587.73 -3.68737 2.71656 0
M  V30 27889 N 2589.22 -3.76194 2.70245 0
M  V30 27890 C 2589.95 -4.58911 3.43786 0
M  V30 27891 N 2589.45 -5.45626 4.26924 0
M  V30 27892 N 2591.24 -4.53214 3.32495 0
M  V30 27893 H 2583.39 -0.917837 1.91545 0
M  V30 27894 H 2585.66 -0.465148 0.82604 0
M  V30 27895 H 2585.36 -2.21652 2.73063 0
M  V30 27896 H 2585.24 -3.46096 1.49991 0
M  V30 27897 H 2587.62 -2.86505 0.707039 0
M  V30 27898 H 2587.7 -1.62994 1.97146 0
M  V30 27899 H 2587.35 -3.44286 3.73403 0
M  V30 27900 H 2587.28 -4.66617 2.44082 0
M  V30 27901 H 2589.77 -3.14234 2.09918 0
M  V30 27902 H 2590.08 -6.05763 4.79866 0
M  V30 27903 H 2588.43 -5.4521 4.31011 0
M  V30 27904 H 2591.62 -3.84494 2.66987 0
M  V30 27905 H 2591.79 -5.17448 3.90067 0
M  V30 27906 N 2585.2 -0.765242 -1.37774 0
M  V30 27907 C 2586.44 -0.331705 -2.01691 0
M  V30 27908 C 2586.8 1.0698 -1.59434 0
M  V30 27909 O 2588 1.6031 -2.15764 0
M  V30 27910 C 2586.27 -0.463323 -3.54384 0
M  V30 27911 S 2587.83 -0.114088 -4.38652 0
M  V30 27912 H 2584.65 -0.127992 -0.699385 0
M  V30 27913 H 2587.25 -0.998426 -1.68082 0
M  V30 27914 H 2585.96 -1.48408 -3.82627 0
M  V30 27915 H 2585.49 0.220177 -3.92783 0
M  V30 27916 H 2587.5 1.09252 -4.84023 0
M  V30 27917 N 2586.67 1.48939 -0.515251 0
M  V30 27918 C 2587.92 2.02486 0.0241794 0
M  V30 27919 C 2588.25 1.39371 1.35669 0
M  V30 27920 O 2587.5 0.523607 1.88565 0
M  V30 27921 C 2587.8 3.56779 0.210532 0
M  V30 27922 C 2587.47 4.38605 -1.04576 0
M  V30 27923 C 2586.13 4.60684 -1.3901 0
M  V30 27924 C 2588.48 4.86106 -1.88017 0
M  V30 27925 C 2585.81 5.27509 -2.56809 0
M  V30 27926 C 2588.16 5.54228 -3.04982 0
M  V30 27927 C 2586.83 5.74549 -3.39779 0
M  V30 27928 H 2586.1 0.740947 0.00884786 0
M  V30 27929 H 2588.74 1.79085 -0.678294 0
M  V30 27930 H 2587.05 3.78938 0.995653 0
M  V30 27931 H 2588.75 3.95818 0.64259 0
M  V30 27932 H 2585.34 4.21671 -0.767571 0
M  V30 27933 H 2589.52 4.68864 -1.62727 0
M  V30 27934 H 2584.78 5.41442 -2.8399 0
M  V30 27935 H 2588.95 5.90007 -3.69953 0
M  V30 27936 H 2586.58 6.26104 -4.31159 0
M  V30 27937 N 2588.15 0.249709 1.55609 0
M  V30 27938 C 2589.08 -0.642787 2.24478 0
M  V30 27939 C 2590.06 -1.17909 1.22603 0
M  V30 27940 O 2591.25 -1.21792 1.51263 0
M  V30 27941 C 2588.38 -1.83858 2.94641 0
M  V30 27942 C 2587.33 -1.43493 4.03229 0
M  V30 27943 C 2586.66 -2.71178 4.60833 0
M  V30 27944 C 2587.96 -0.60391 5.18797 0
M  V30 27945 H 2589.65 -0.0685099 2.99322 0
M  V30 27946 H 2587.2 -0.031511 1.43966 0
M  V30 27947 H 2589.15 -2.46862 3.41522 0
M  V30 27948 H 2587.88 -2.43828 2.17291 0
M  V30 27949 H 2586.54 -0.828212 3.57122 0
M  V30 27950 H 2586.18 -3.29352 3.8018 0
M  V30 27951 H 2585.88 -2.44892 5.34137 0
M  V30 27952 H 2587.41 -3.35075 5.10448 0
M  V30 27953 H 2588.82 -1.13832 5.61885 0
M  V30 27954 H 2587.22 -0.436992 5.98507 0
M  V30 27955 H 2588.29 0.383232 4.83383 0
M  V30 27956 N 2589.63 -1.57583 -0.0233682 0
M  V30 27957 C 2590.58 -2.06929 -1.02221 0
M  V30 27958 C 2591.55 -0.959641 -1.35573 0
M  V30 27959 O 2592.73 -1.23058 -1.45813 0
M  V30 27960 C 2589.87 -2.55814 -2.31632 0
M  V30 27961 C 2588.99 -3.80591 -2.04388 0
M  V30 27962 C 2588.12 -4.18067 -3.2771 0
M  V30 27963 C 2587.16 -5.35745 -2.96046 0
M  V30 27964 N 2586.3 -5.68625 -4.11837 0
M  V30 27965 H 2591.14 -2.92011 -0.594453 0
M  V30 27966 H 2588.67 -1.44374 -0.281896 0
M  V30 27967 H 2590.63 -2.82226 -3.07253 0
M  V30 27968 H 2589.26 -1.73641 -2.72119 0
M  V30 27969 H 2588.31 -3.61229 -1.19238 0
M  V30 27970 H 2589.63 -4.66327 -1.77034 0
M  V30 27971 H 2588.78 -4.45637 -4.11695 0
M  V30 27972 H 2587.52 -3.30994 -3.58182 0
M  V30 27973 H 2586.52 -5.07922 -2.10465 0
M  V30 27974 H 2587.75 -6.24476 -2.66846 0
M  V30 27975 H 2585.7 -4.84511 -4.4225 0
M  V30 27976 H 2585.61 -6.48883 -3.87927 0
M  V30 27977 H 2586.88 -6.00775 -4.96678 0
M  V30 27978 N 2591.11 0.29574 -1.548 0
M  V30 27979 C 2592.04 1.36955 -1.89118 0
M  V30 27980 C 2593.02 1.52643 -0.750617 0
M  V30 27981 O 2594.21 1.66063 -1.00681 0
M  V30 27982 C 2591.34 2.73291 -2.14311 0
M  V30 27983 C 2590.29 2.72363 -3.30155 0
M  V30 27984 C 2589.62 4.12036 -3.40779 0
M  V30 27985 C 2590.92 2.33638 -4.6713 0
M  V30 27986 H 2592.61 1.08483 -2.79055 0
M  V30 27987 H 2590.16 0.52042 -1.34267 0
M  V30 27988 H 2592.11 3.48503 -2.36904 0
M  V30 27989 H 2590.83 3.03299 -1.2115 0
M  V30 27990 H 2589.49 1.99607 -3.07494 0
M  V30 27991 H 2589.14 4.3923 -2.45125 0
M  V30 27992 H 2588.84 4.12315 -4.18653 0
M  V30 27993 H 2590.36 4.8902 -3.65638 0
M  V30 27994 H 2591.78 2.98567 -4.89419 0
M  V30 27995 H 2590.17 2.4512 -5.47756 0
M  V30 27996 H 2591.24 1.28764 -4.67491 0
M  V30 27997 N 2592.59 1.47346 0.559187 0
M  V30 27998 C 2593.84 1.53565 1.31385 0
M  V30 27999 C 2594.16 0.198712 1.93985 0
M  V30 28000 O 2593.43 -0.777135 1.79826 0
M  V30 28001 H 2592.01 0.56566 0.487891 0
M  V30 28002 H 2594.67 1.83631 0.653117 0
M  V30 28003 H 2593.76 2.30115 2.1084 0
M  V30 28004 N 2594.07 -0.805758 1.35445 0
M  V30 28005 C 2594.98 -1.94921 1.30549 0
M  V30 28006 C 2595.99 -1.72725 0.210264 0
M  V30 28007 O 2597.17 -1.9654 0.439784 0
M  V30 28008 C 2594.23 -3.29519 1.07788 0
M  V30 28009 C 2593.29 -3.64605 2.26632 0
M  V30 28010 C 2592.53 -4.9278 2.04947 0
M  V30 28011 O 2592.75 -5.61272 1.01634 0
M  V30 28012 O 2591.68 -5.26144 2.92329 0
M  V30 28013 H 2595.51 -2.01998 2.26783 0
M  V30 28014 H 2593.09 -0.943661 1.15825 0
M  V30 28015 H 2594.98 -4.10097 0.969464 0
M  V30 28016 H 2593.65 -3.2337 0.14606 0
M  V30 28017 H 2592.56 -2.844 2.43038 0
M  V30 28018 H 2593.89 -3.75459 3.18263 0
M  V30 28019 N 2595.54 -1.19456 -1.02801 0
M  V30 28020 C 2596.79 -1.00923 -1.76596 0
M  V30 28021 C 2597.14 0.455109 -1.8694 0
M  V30 28022 O 2596.44 1.33353 -1.37578 0
M  V30 28023 C 2596.63 -1.61286 -3.18938 0
M  V30 28024 C 2596.46 -3.13437 -3.22471 0
M  V30 28025 C 2595.23 -3.82342 -3.30368 0
M  V30 28026 C 2597.43 -4.10791 -3.09444 0
M  V30 28027 N 2595.41 -5.21882 -3.23283 0
M  V30 28028 C 2596.78 -5.36935 -3.10002 0
M  V30 28029 C 2598.84 -4.0214 -2.93578 0
M  V30 28030 C 2597.54 -6.55428 -2.96322 0
M  V30 28031 C 2599.57 -5.20244 -2.81247 0
M  V30 28032 C 2598.93 -6.45287 -2.82461 0
M  V30 28033 H 2595.03 -0.423435 -0.657439 0
M  V30 28034 H 2597.61 -1.51442 -1.22366 0
M  V30 28035 H 2595.78 -1.13367 -3.71487 0
M  V30 28036 H 2597.51 -1.3618 -3.811 0
M  V30 28037 H 2594.27 -3.33138 -3.36624 0
M  V30 28038 H 2594.69 -5.949 -3.23146 0
M  V30 28039 H 2599.33 -3.06285 -2.91461 0
M  V30 28040 H 2597.05 -7.51468 -2.9719 0
M  V30 28041 H 2600.64 -5.15353 -2.70005 0
M  V30 28042 H 2599.52 -7.35138 -2.73024 0
M  V30 28043 N 2597.02 1.21924 -0.998617 0
M  V30 28044 C 2597.95 2.2341 -0.511918 0
M  V30 28045 C 2598.97 1.57909 0.396066 0
M  V30 28046 O 2600.16 1.77406 0.197285 0
M  V30 28047 C 2597.26 3.37768 0.276743 0
M  V30 28048 C 2596.43 4.32857 -0.628763 0
M  V30 28049 C 2595.49 5.26087 0.109179 0
M  V30 28050 O 2594.51 5.66935 -0.507336 0
M  V30 28051 N 2595.72 5.63619 1.38973 0
M  V30 28052 H 2598.48 2.65798 -1.38462 0
M  V30 28053 H 2596.04 1.36282 -0.874005 0
M  V30 28054 H 2598.03 3.97128 0.77921 0
M  V30 28055 H 2596.6 2.94417 1.05058 0
M  V30 28056 H 2595.82 3.71732 -1.31182 0
M  V30 28057 H 2597.11 4.93327 -1.24523 0
M  V30 28058 H 2596.51 5.32414 1.91185 0
M  V30 28059 H 2595.07 6.2537 1.83728 0
M  V30 28060 N 2598.5 0.772537 1.37367 0
M  V30 28061 C 2599.43 0.173345 2.32856 0
M  V30 28062 C 2600.41 -0.682234 1.55819 0
M  V30 28063 O 2601.6 -0.619534 1.84053 0
M  V30 28064 C 2598.73 -0.705947 3.4005 0
M  V30 28065 C 2597.68 0.0483896 4.27973 0
M  V30 28066 C 2597.01 -0.950399 5.26186 0
M  V30 28067 C 2598.31 1.22785 5.07662 0
M  V30 28068 H 2600 0.971052 2.83215 0
M  V30 28069 H 2597.55 0.468401 1.36169 0
M  V30 28070 H 2599.5 -1.13494 4.05829 0
M  V30 28071 H 2598.22 -1.53618 2.88217 0
M  V30 28072 H 2596.88 0.458171 3.63726 0
M  V30 28073 H 2596.53 -1.7752 4.70633 0
M  V30 28074 H 2596.23 -0.450211 5.85873 0
M  V30 28075 H 2597.75 -1.37832 5.9484 0
M  V30 28076 H 2599.17 0.875466 5.66576 0
M  V30 28077 H 2597.56 1.66018 5.76679 0
M  V30 28078 H 2598.63 2.03157 4.4029 0
M  V30 28079 N 2599.98 -1.48664 0.523142 0
M  V30 28080 C 2600.93 -2.31178 -0.256818 0
M  V30 28081 C 2601.92 -1.40796 -0.941965 0
M  V30 28082 O 2603.13 -1.57737 -0.867129 0
M  V30 28083 H 2599.5 -0.745093 -0.101687 0
M  V30 28084 H 2601.47 -2.94852 0.458791 0
M  V30 28085 C 2600.22 -3.22685 -1.29498 0
M  V30 28086 H 2599.54 -3.92173 -0.777179 0
M  V30 28087 H 2600.98 -3.83318 -1.81226 0
M  V30 28088 C 2599.44 -2.43817 -2.32497 0
M  V30 28089 O 2599.97 -2.15808 -3.38806 0
M  V30 28090 N 2598.18 -2.05436 -2.05534 0
M  V30 28091 H 2597.73 -2.28414 -1.191 0
M  V30 28092 H 2597.68 -1.52977 -2.74673 0
M  V30 28093 N 2601.46 -0.257958 -1.55475 0
M  V30 28094 C 2602.39 0.630873 -2.24816 0
M  V30 28095 C 2603.37 1.17257 -1.23226 0
M  V30 28096 O 2604.55 1.20988 -1.51906 0
M  V30 28097 C 2601.68 1.82293 -2.95612 0
M  V30 28098 C 2600.64 1.41352 -4.03985 0
M  V30 28099 C 2599.96 2.6873 -4.62264 0
M  V30 28100 C 2601.26 0.576389 -5.1911 0
M  V30 28101 H 2602.96 0.0526351 -2.99354 0
M  V30 28102 H 2600.5 0.0238757 -1.4398 0
M  V30 28103 H 2602.45 2.45047 -3.42826 0
M  V30 28104 H 2601.18 2.42672 -2.18581 0
M  V30 28105 H 2599.84 0.809261 -3.57556 0
M  V30 28106 H 2599.49 3.27331 -3.81921 0
M  V30 28107 H 2599.19 2.42055 -5.35428 0
M  V30 28108 H 2600.71 3.32363 -5.12218 0
M  V30 28109 H 2602.12 1.10851 -5.62481 0
M  V30 28110 H 2600.52 0.405246 -5.9873 0
M  V30 28111 H 2601.59 -0.408861 -4.83173 0
M  V30 28112 N 2602.93 1.57593 0.0150108 0
M  V30 28113 C 2603.87 2.04293 1.03909 0
M  V30 28114 C 2604.88 0.958169 1.31617 0
M  V30 28115 O 2606.07 1.23524 1.28857 0
M  V30 28116 C 2603.17 2.41518 2.37744 0
M  V30 28117 C 2602.34 3.72545 2.29192 0
M  V30 28118 C 2601.4 3.96804 3.45591 0
M  V30 28119 O 2600.43 4.67674 3.24453 0
M  V30 28120 N 2601.63 3.43531 4.67939 0
M  V30 28121 H 2604.39 2.92766 0.640939 0
M  V30 28122 H 2601.95 1.60626 0.202691 0
M  V30 28123 H 2603.95 2.54872 3.1436 0
M  V30 28124 H 2602.52 1.58642 2.69354 0
M  V30 28125 H 2601.74 3.69411 1.37584 0
M  V30 28126 H 2603.02 4.58473 2.20634 0
M  V30 28127 H 2602.42 2.86113 4.88012 0
M  V30 28128 H 2600.98 3.62241 5.41871 0
M  V30 28129 N 2604.41 -0.287527 1.54955 0
M  V30 28130 C 2605.66 -1.01901 1.7453 0
M  V30 28131 C 2605.98 -1.87334 0.541382 0
M  V30 28132 O 2605.25 -1.908 -0.444075 0
M  V30 28133 H 2603.83 -0.379223 0.643583 0
M  V30 28134 H 2606.49 -0.31526 1.92333 0
M  V30 28135 H 2605.59 -1.66435 2.64018 0
M  V30 28136 N 2605.89 -1.47641 -0.551365 0
M  V30 28137 C 2607.14 -1.53824 -1.30464 0
M  V30 28138 C 2607.45 -0.207695 -1.94494 0
M  V30 28139 O 2608.66 -0.14758 -2.71099 0
M  V30 28140 C 2607.11 -2.71188 -2.36612 0
M  V30 28141 C 2606.72 -4.10796 -1.78746 0
M  V30 28142 C 2608.47 -2.86669 -3.13083 0
M  V30 28143 C 2606.37 -5.19452 -2.82708 0
M  V30 28144 H 2605.3 -0.572585 -0.490574 0
M  V30 28145 H 2607.95 -1.73928 -0.584909 0
M  V30 28146 H 2606.34 -2.44475 -3.11525 0
M  V30 28147 H 2607.51 -4.47437 -1.10165 0
M  V30 28148 H 2605.83 -4.00251 -1.14839 0
M  V30 28149 H 2608.42 -3.65013 -3.90729 0
M  V30 28150 H 2608.77 -1.95328 -3.67631 0
M  V30 28151 H 2609.3 -3.1318 -2.45282 0
M  V30 28152 H 2606.04 -6.12689 -2.33008 0
M  V30 28153 H 2605.56 -4.87322 -3.49681 0
M  V30 28154 H 2607.24 -5.46652 -3.46093 0
M  V30 28155 N 2607.37 0.798563 -1.3587 0
M  V30 28156 C 2608.32 1.9322 -1.29495 0
M  V30 28157 C 2609.31 1.68349 -0.18839 0
M  V30 28158 O 2610.52 1.76468 -0.354853 0
M  V30 28159 H 2606.89 0.634953 -0.402912 0
M  V30 28160 H 2608.86 1.95716 -2.2525 0
M  V30 28161 C 2607.61 3.3011 -1.0919 0
M  V30 28162 H 2606.93 3.4981 -1.9358 0
M  V30 28163 H 2608.37 4.0981 -1.08773 0
M  V30 28164 C 2606.83 3.36282 0.2039 0
M  V30 28165 O 2607.36 3.83454 1.19692 0
M  V30 28166 N 2605.57 2.89562 0.245437 0
M  V30 28167 H 2605.12 2.51366 -0.563267 0
M  V30 28168 H 2605.07 2.94073 1.11214 0
M  V30 28169 N 2608.85 1.19999 1.02166 0
M  V30 28170 C 2609.76 0.959811 2.14067 0
M  V30 28171 C 2610.77 -0.0826244 1.73804 0
M  V30 28172 O 2611.95 0.103669 2.01133 0
M  V30 28173 C 2609.01 0.509519 3.42936 0
M  V30 28174 C 2608.07 1.6222 3.97471 0
M  V30 28175 C 2607.31 1.1933 5.20188 0
M  V30 28176 O 2607.53 0.0598729 5.70369 0
M  V30 28177 O 2606.46 1.99873 5.67745 0
M  V30 28178 H 2610.29 1.89662 2.37196 0
M  V30 28179 H 2607.88 0.983431 1.12468 0
M  V30 28180 H 2609.76 0.267396 4.20551 0
M  V30 28181 H 2608.43 -0.398764 3.21234 0
M  V30 28182 H 2607.34 1.91856 3.21158 0
M  V30 28183 H 2608.67 2.50731 4.2355 0
M  V30 28184 N 2610.32 -1.21392 1.00507 0
M  V30 28185 C 2611.55 -1.94999 0.706401 0
M  V30 28186 C 2611.97 -1.73583 -0.7246 0
M  V30 28187 O 2611.33 -1.02272 -1.497 0
M  V30 28188 C 2611.38 -3.45486 1.03306 0
M  V30 28189 O 2610.48 -4.12168 0.138347 0
M  V30 28190 H 2609.83 -0.609614 0.263186 0
M  V30 28191 H 2612.36 -1.54149 1.34533 0
M  V30 28192 H 2612.37 -3.96057 0.979942 0
M  V30 28193 H 2611.04 -3.60397 2.07573 0
M  V30 28194 H 2609.62 -3.72074 0.247994 0
M  V30 28195 N 2611.8 -0.779811 -1.36955 0
M  V30 28196 C 2613.03 -0.359434 -2.03754 0
M  V30 28197 C 2613.45 1.02103 -1.58809 0
M  V30 28198 O 2612.8 1.65318 -0.773053 0
M  V30 28199 C 2612.85 -0.402631 -3.59251 0
M  V30 28200 O 2612.57 -1.72865 -4.02553 0
M  V30 28201 C 2614.08 0.0283289 -4.43291 0
M  V30 28202 H 2611.3 -0.149449 -0.654145 0
M  V30 28203 H 2613.84 -1.05598 -1.75126 0
M  V30 28204 H 2611.99 0.24541 -3.86622 0
M  V30 28205 H 2612.41 -1.67283 -4.97108 0
M  V30 28206 H 2613.88 -0.0530436 -5.51975 0
M  V30 28207 H 2614.36 1.07975 -4.25721 0
M  V30 28208 H 2614.97 -0.591832 -4.21162 0
M  V30 28209 N 2613.28 1.48384 -0.531019 0
M  V30 28210 C 2614.53 2.01699 0.00470803 0
M  V30 28211 C 2614.84 1.41328 1.35225 0
M  V30 28212 O 2616.05 1.86147 1.9764 0
M  V30 28213 C 2614.5 3.59852 0.0587841 0
M  V30 28214 C 2614.11 4.29208 -1.28392 0
M  V30 28215 C 2615.86 4.21009 0.543284 0
M  V30 28216 C 2613.76 5.79296 -1.19038 0
M  V30 28217 H 2612.69 0.75398 0.00552992 0
M  V30 28218 H 2615.34 1.70636 -0.674954 0
M  V30 28219 H 2613.73 3.87762 0.803544 0
M  V30 28220 H 2614.9 4.12969 -2.04433 0
M  V30 28221 H 2613.22 3.79927 -1.70425 0
M  V30 28222 H 2615.81 5.30961 0.631257 0
M  V30 28223 H 2616.16 3.86397 1.5493 0
M  V30 28224 H 2616.69 3.97533 -0.145824 0
M  V30 28225 H 2613.43 6.18484 -2.17158 0
M  V30 28226 H 2612.95 5.97945 -0.471351 0
M  V30 28227 H 2614.63 6.40967 -0.881478 0
M  V30 28228 N 2614.76 0.2662 1.55336 0
M  V30 28229 C 2616.17 -0.233282 1.85237 0
M  V30 28230 C 2616.52 -1.5613 1.18819 0
M  V30 28231 O 2615.65 -2.1116 0.473344 0
M  V30 28232 C 2616.24 -0.430054 3.36059 0
M  V30 28233 C 2614.8 -0.873777 3.66118 0
M  V30 28234 C 2613.95 0.0380503 2.77274 0
M  V30 28235 H 2616.9 0.48824 1.51003 0
M  V30 28236 H 2616.92 -1.26992 3.58683 0
M  V30 28237 H 2616.43 0.536656 3.84372 0
M  V30 28238 H 2614.53 -1.85227 3.23298 0
M  V30 28239 H 2614.64 -0.717274 4.737 0
M  V30 28240 H 2613.01 -0.476716 2.50199 0
M  V30 28241 H 2613.79 1.00048 3.28398 0
M  V30 28242 N 2616.24 -1.57599 -0.0066531 0
M  V30 28243 C 2617.18 -2.08001 -1.0002 0
M  V30 28244 C 2618.15 -0.973967 -1.34548 0
M  V30 28245 O 2619.34 -1.24598 -1.44499 0
M  V30 28246 C 2616.48 -2.58256 -2.28905 0
M  V30 28247 C 2615.59 -3.82738 -2.00339 0
M  V30 28248 C 2614.73 -4.21519 -3.23257 0
M  V30 28249 C 2613.77 -5.38855 -2.90347 0
M  V30 28250 N 2612.9 -5.72961 -4.05783 0
M  V30 28251 H 2617.74 -2.92625 -0.563448 0
M  V30 28252 H 2615.28 -1.44665 -0.266567 0
M  V30 28253 H 2617.24 -2.85469 -3.04242 0
M  V30 28254 H 2615.87 -1.76517 -2.70262 0
M  V30 28255 H 2614.92 -3.62473 -1.154 0
M  V30 28256 H 2616.23 -4.68178 -1.72078 0
M  V30 28257 H 2615.39 -4.49979 -4.06945 0
M  V30 28258 H 2614.12 -3.34774 -3.54651 0
M  V30 28259 H 2613.13 -5.10126 -2.05066 0
M  V30 28260 H 2614.35 -6.27271 -2.60208 0
M  V30 28261 H 2612.3 -4.89175 -4.37086 0
M  V30 28262 H 2612.22 -6.52961 -3.81023 0
M  V30 28263 H 2613.49 -6.06009 -4.90278 0
M  V30 28264 N 2617.72 0.279305 -1.55105 0
M  V30 28265 C 2618.96 1.01324 -1.75674 0
M  V30 28266 C 2619.29 1.86167 -0.552771 0
M  V30 28267 O 2618.57 1.89228 0.449794 0
M  V30 28268 C 2618.85 1.90109 -3.05828 0
M  V30 28269 C 2618.71 1.08301 -4.36567 0
M  V30 28270 C 2620.02 2.88924 -3.3198 0
M  V30 28271 H 2617.14 0.366946 -0.639156 0
M  V30 28272 H 2619.79 0.286121 -1.87833 0
M  V30 28273 H 2617.94 2.52106 -2.95593 0
M  V30 28274 H 2619.61 0.484233 -4.58751 0
M  V30 28275 H 2617.85 0.386286 -4.32077 0
M  V30 28276 H 2618.52 1.73727 -5.23949 0
M  V30 28277 H 2621 2.37061 -3.41967 0
M  V30 28278 H 2619.87 3.48194 -4.24326 0
M  V30 28279 H 2620.13 3.63721 -2.51316 0
M  V30 28280 N 2619.19 1.47931 0.543528 0
M  V30 28281 C 2620.12 1.6433 1.65885 0
M  V30 28282 C 2621.1 0.492412 1.62817 0
M  V30 28283 O 2622.29 0.72337 1.80225 0
M  V30 28284 C 2619.42 1.67019 3.04503 0
M  V30 28285 C 2618.37 2.81472 3.22425 0
M  V30 28286 C 2617.7 2.69241 4.61967 0
M  V30 28287 C 2619 4.22921 3.06489 0
M  V30 28288 H 2620.69 2.577 1.52417 0
M  V30 28289 H 2618.24 1.24017 0.731827 0
M  V30 28290 H 2620.19 1.77081 3.82388 0
M  V30 28291 H 2618.92 0.702176 3.18962 0
M  V30 28292 H 2617.58 2.70943 2.46953 0
M  V30 28293 H 2617.22 1.70438 4.73244 0
M  V30 28294 H 2616.92 3.46033 4.74905 0
M  V30 28295 H 2618.45 2.81251 5.41969 0
M  V30 28296 H 2619.86 4.34354 3.74178 0
M  V30 28297 H 2618.26 5.00606 3.30929 0
M  V30 28298 H 2619.33 4.4033 2.0307 0
M  V30 28299 N 2620.67 -0.791347 1.36292 0
M  V30 28300 C 2621.6 -1.91246 1.26324 0
M  V30 28301 C 2622.62 -1.61766 0.183158 0
M  V30 28302 O 2623.81 -1.7305 0.437713 0
M  V30 28303 C 2620.91 -3.26005 0.925959 0
M  V30 28304 C 2620.08 -3.83278 2.10753 0
M  V30 28305 C 2619.14 -4.96472 1.74361 0
M  V30 28306 O 2618.16 -5.13092 2.46425 0
M  V30 28307 N 2619.37 -5.76549 0.676159 0
M  V30 28308 H 2622.13 -2.00319 2.22918 0
M  V30 28309 H 2619.69 -0.969523 1.29661 0
M  V30 28310 H 2621.68 -3.99221 0.663706 0
M  V30 28311 H 2620.25 -3.12561 0.049213 0
M  V30 28312 H 2619.47 -3.02073 2.5327 0
M  V30 28313 H 2620.76 -4.18274 2.89697 0
M  V30 28314 H 2620.16 -5.65647 0.0777461 0
M  V30 28315 H 2618.72 -6.50076 0.473726 0
M  V30 28316 N 2622.15 -1.2054 -1.01528 0
M  V30 28317 C 2623.38 -1.04051 -1.78485 0
M  V30 28318 C 2623.79 0.41326 -1.84632 0
M  V30 28319 O 2623.13 1.2987 -1.29921 0
M  V30 28320 C 2623.19 -1.55009 -3.24365 0
M  V30 28321 C 2622.86 -3.03326 -3.41822 0
M  V30 28322 C 2623.85 -4.00972 -3.30934 0
M  V30 28323 C 2621.54 -3.42314 -3.67596 0
M  V30 28324 C 2623.53 -5.35595 -3.45568 0
M  V30 28325 C 2621.22 -4.77091 -3.81873 0
M  V30 28326 C 2622.22 -5.73541 -3.70864 0
M  V30 28327 O 2621.91 -7.05875 -3.84702 0
M  V30 28328 H 2621.64 -0.366383 -0.568101 0
M  V30 28329 H 2624.19 -1.60101 -1.28674 0
M  V30 28330 H 2622.42 -0.933463 -3.75264 0
M  V30 28331 H 2624.11 -1.3452 -3.82961 0
M  V30 28332 H 2624.88 -3.72196 -3.10958 0
M  V30 28333 H 2620.76 -2.67782 -3.75252 0
M  V30 28334 H 2624.3 -6.1086 -3.36891 0
M  V30 28335 H 2620.2 -5.05557 -4.0135 0
M  V30 28336 H 2620.96 -7.13141 -4.01712 0
M  V30 28337 N 2623.63 1.20858 -1.01149 0
M  V30 28338 C 2624.86 1.938 -0.715906 0
M  V30 28339 C 2625.27 1.74693 0.726561 0
M  V30 28340 O 2624.61 1.05484 1.50395 0
M  V30 28341 C 2624.67 3.46297 -0.96533 0
M  V30 28342 C 2624.33 3.8916 -2.39591 0
M  V30 28343 C 2625.33 3.95336 -3.37647 0
M  V30 28344 C 2623.02 4.21292 -2.73529 0
M  V30 28345 C 2625.01 4.33047 -4.67706 0
M  V30 28346 C 2622.7 4.5868 -4.03802 0
M  V30 28347 C 2623.7 4.64529 -5.00702 0
M  V30 28348 O 2623.38 5.01061 -6.28644 0
M  V30 28349 H 2623.12 0.622938 -0.262535 0
M  V30 28350 H 2625.67 1.5444 -1.35415 0
M  V30 28351 H 2623.9 3.85757 -0.269915 0
M  V30 28352 H 2625.59 4.00463 -0.662121 0
M  V30 28353 H 2626.35 3.70681 -3.12763 0
M  V30 28354 H 2622.23 4.15933 -1.98797 0
M  V30 28355 H 2625.78 4.37528 -5.43337 0
M  V30 28356 H 2621.67 4.8279 -4.28468 0
M  V30 28357 H 2622.44 5.19072 -6.32856 0
M  V30 28358 N 2625.11 0.787064 1.3654 0
M  V30 28359 C 2626.33 0.369089 2.04089 0
M  V30 28360 C 2626.76 -1.00567 1.58959 0
M  V30 28361 O 2626.11 -1.64742 0.756955 0
M  V30 28362 C 2626.16 0.438529 3.57924 0
M  V30 28363 O 2625.27 -0.555407 4.08643 0
M  V30 28364 H 2624.61 0.157133 0.64514 0
M  V30 28365 H 2627.14 1.06752 1.74543 0
M  V30 28366 H 2627.15 0.30129 4.06886 0
M  V30 28367 H 2625.82 1.44139 3.90124 0
M  V30 28368 H 2624.4 -0.380022 3.70959 0
M  V30 28369 N 2626.58 -1.48101 0.53888 0
M  V30 28370 C 2627.55 -2.28251 -0.208355 0
M  V30 28371 C 2628.55 -1.35893 -0.859632 0
M  V30 28372 O 2629.74 -1.58701 -0.718312 0
M  V30 28373 C 2626.87 -3.15038 -1.30246 0
M  V30 28374 H 2628.06 -2.95779 0.495459 0
M  V30 28375 H 2625.61 -1.53488 0.295139 0
M  V30 28376 H 2626.35 -2.52161 -2.03925 0
M  V30 28377 H 2626.13 -3.82986 -0.840484 0
M  V30 28378 H 2627.62 -3.75474 -1.8278 0
M  V30 28379 N 2628.06 -0.274434 -1.55192 0
M  V30 28380 C 2629.02 0.60024 -2.21201 0
M  V30 28381 C 2630.02 1.08185 -1.18965 0
M  V30 28382 O 2631.21 0.982132 -1.43874 0
M  V30 28383 C 2628.35 1.82804 -2.87742 0
M  V30 28384 H 2629.54 0.0239155 -2.9989 0
M  V30 28385 H 2627.09 -0.0250467 -1.5628 0
M  V30 28386 H 2627.83 2.44489 -2.13062 0
M  V30 28387 H 2627.61 1.49063 -3.62661 0
M  V30 28388 H 2629.1 2.45005 -3.38175 0
M  V30 28389 N 2629.54 1.576 -0.00170483 0
M  V30 28390 C 2630.77 1.94923 0.693725 0
M  V30 28391 C 2631.18 0.876655 1.67213 0
M  V30 28392 O 2630.54 -0.144247 1.81929 0
M  V30 28393 C 2630.59 3.32267 1.42411 0
M  V30 28394 O 2630.31 4.35408 0.484937 0
M  V30 28395 C 2631.81 3.8406 2.21389 0
M  V30 28396 H 2629.03 0.642612 0.193107 0
M  V30 28397 H 2631.58 2.0443 -0.0533311 0
M  V30 28398 H 2629.73 3.24063 2.12278 0
M  V30 28399 H 2630.15 5.1487 1.00044 0
M  V30 28400 H 2631.62 4.82583 2.67988 0
M  V30 28401 H 2632.1 3.16856 3.04136 0
M  V30 28402 H 2632.7 3.95445 1.56535 0
M  V30 28403 N 2631.02 -0.271076 1.55251 0
M  V30 28404 C 2631.93 -1.35711 1.91363 0
M  V30 28405 C 2632.94 -1.53939 0.811102 0
M  V30 28406 O 2634.12 -1.68028 1.11034 0
M  V30 28407 C 2631.18 -2.69599 2.17985 0
M  V30 28408 C 2630.25 -2.60101 3.41535 0
M  V30 28409 C 2629.48 -3.87604 3.66878 0
M  V30 28410 O 2629.7 -4.88374 2.94698 0
M  V30 28411 O 2628.64 -3.87691 4.60412 0
M  V30 28412 H 2632.46 -1.08083 2.83817 0
M  V30 28413 H 2630.05 -0.469767 1.41822 0
M  V30 28414 H 2631.93 -3.48761 2.36524 0
M  V30 28415 H 2630.6 -2.97009 1.28713 0
M  V30 28416 H 2629.51 -1.79308 3.28328 0
M  V30 28417 H 2630.84 -2.3764 4.31032 0
M  V30 28418 N 2632.5 -1.48217 -0.535675 0
M  V30 28419 C 2633.45 -1.58717 -1.63685 0
M  V30 28420 C 2634.43 -0.444642 -1.54634 0
M  V30 28421 O 2635.62 -0.695771 -1.62751 0
M  V30 28422 C 2632.75 -1.62471 -3.0242 0
M  V30 28423 C 2631.84 -2.82184 -3.16596 0
M  V30 28424 N 2632.23 -4.06663 -3.00764 0
M  V30 28425 C 2630.53 -2.79397 -3.4764 0
M  V30 28426 C 2631.23 -4.86951 -3.18204 0
M  V30 28427 N 2630.2 -4.19662 -3.45521 0
M  V30 28428 H 2634.01 -2.52712 -1.50046 0
M  V30 28429 H 2631.52 -1.4451 -0.740992 0
M  V30 28430 H 2633.52 -1.68086 -3.81514 0
M  V30 28431 H 2632.18 -0.695882 -3.17155 0
M  V30 28432 H 2633.19 -4.37189 -2.77644 0
M  V30 28433 H 2629.86 -1.95746 -3.68768 0
M  V30 28434 H 2631.25 -5.95722 -3.10749 0
M  V30 28435 N 2633.97 0.784108 -1.3671 0
M  V30 28436 C 2635.25 1.53067 -1.21778 0
M  V30 28437 C 2635.63 2.10208 0.193839 0
M  V30 28438 O 2634.98 1.94448 1.20009 0
M  V30 28439 C 2635.19 2.62139 -2.304 0
M  V30 28440 C 2636.54 3.29878 -2.67331 0
M  V30 28441 O 2637.56 2.72426 -2.29483 0
M  V30 28442 O 2636.42 4.33718 -3.32492 0
M  V30 28443 H 2633.51 0.677352 -0.474471 0
M  V30 28444 H 2636.06 0.822134 -1.48456 0
M  V30 28445 H 2634.83 2.17948 -3.24984 0
M  V30 28446 H 2634.46 3.40606 -2.05118 0
M  V30 28447 N 2635.45 1.21076 1.00888 0
M  V30 28448 C 2636.87 0.967279 1.26948 0
M  V30 28449 C 2637.07 -0.348638 1.98461 0
M  V30 28450 O 2636.12 -1.07526 2.28461 0
M  V30 28451 C 2637.44 2.15521 2.09693 0
M  V30 28452 C 2638.99 2.19704 2.22933 0
M  V30 28453 C 2639.46 3.38005 3.09058 0
M  V30 28454 N 2640.95 3.38067 3.16647 0
M  V30 28455 C 2641.69 4.26252 3.83532 0
M  V30 28456 N 2641.18 5.24628 4.52479 0
M  V30 28457 N 2642.98 4.14071 3.80134 0
M  V30 28458 H 2635.13 2.05708 0.528969 0
M  V30 28459 H 2637.39 0.900561 0.296132 0
M  V30 28460 H 2637.1 3.10862 1.64492 0
M  V30 28461 H 2636.97 2.14259 3.1044 0
M  V30 28462 H 2639.36 1.24921 2.67355 0
M  V30 28463 H 2639.44 2.25012 1.21669 0
M  V30 28464 H 2639.08 4.33079 2.6534 0
M  V30 28465 H 2639.01 3.29935 4.10427 0
M  V30 28466 H 2641.5 2.66869 2.67561 0
M  V30 28467 H 2641.82 5.88226 5.01208 0
M  V30 28468 H 2640.16 5.28557 4.51279 0
M  V30 28469 H 2643.35 3.3648 3.25421 0
M  V30 28470 H 2643.52 4.83006 4.31983 0
M  V30 28471 N 2636.93 -1.2032 1.01789 0
M  V30 28472 C 2638.16 -1.94239 0.727043 0
M  V30 28473 C 2638.58 -1.74342 -0.706148 0
M  V30 28474 O 2637.94 -1.03854 -1.48607 0
M  V30 28475 C 2637.99 -3.44371 1.06964 0
M  V30 28476 O 2637.09 -4.11998 0.182055 0
M  V30 28477 H 2636.43 -0.606788 0.269637 0
M  V30 28478 H 2638.96 -1.52714 1.36161 0
M  V30 28479 H 2638.97 -3.94995 1.02189 0
M  V30 28480 H 2637.65 -3.58175 2.11384 0
M  V30 28481 H 2636.22 -3.7179 0.287443 0
M  V30 28482 N 2638.41 -0.794293 -1.3612 0
M  V30 28483 C 2639.65 -0.378577 -1.99846 0
M  V30 28484 C 2640.01 1.03952 -1.619 0
M  V30 28485 O 2639.3 1.7091 -0.866043 0
M  V30 28486 C 2639.5 -0.485332 -3.54089 0
M  V30 28487 C 2639.33 -1.91226 -4.07017 0
M  V30 28488 C 2638.1 -2.53794 -4.3694 0
M  V30 28489 C 2640.29 -2.87509 -4.2643 0
M  V30 28490 N 2638.28 -3.88025 -4.7572 0
M  V30 28491 C 2639.65 -4.06584 -4.6807 0
M  V30 28492 C 2641.7 -2.84502 -4.08611 0
M  V30 28493 C 2640.4 -5.23066 -4.93755 0
M  V30 28494 C 2642.43 -4.00176 -4.35446 0
M  V30 28495 C 2641.79 -5.17996 -4.77346 0
M  V30 28496 H 2637.89 -0.186048 -0.759546 0
M  V30 28497 H 2640.48 -1.03293 -1.65042 0
M  V30 28498 H 2638.65 0.138955 -3.88151 0
M  V30 28499 H 2640.38 -0.0453903 -4.04675 0
M  V30 28500 H 2637.13 -2.05239 -4.26819 0
M  V30 28501 H 2637.56 -4.57101 -4.99388 0
M  V30 28502 H 2642.2 -1.94571 -3.75369 0
M  V30 28503 H 2639.92 -6.13579 -5.25876 0
M  V30 28504 H 2643.5 -3.99216 -4.23223 0
M  V30 28505 H 2642.38 -6.06017 -4.97708 0
M  V30 28506 N 2639.89 1.47813 -0.546727 0
M  V30 28507 C 2641.12 2.06587 -0.0232882 0
M  V30 28508 C 2641.52 1.40135 1.27117 0
M  V30 28509 O 2640.87 0.488337 1.7709 0
M  V30 28510 C 2640.93 3.58601 0.254054 0
M  V30 28511 C 2640.59 4.47029 -0.949409 0
M  V30 28512 C 2641.59 4.85786 -1.85225 0
M  V30 28513 C 2639.28 4.88695 -1.16113 0
M  V30 28514 C 2641.27 5.64996 -2.95057 0
M  V30 28515 C 2638.96 5.67672 -2.26256 0
M  V30 28516 C 2639.95 6.05732 -3.1556 0
M  V30 28517 O 2639.64 6.8312 -4.23796 0
M  V30 28518 H 2639.37 0.67493 -0.03802 0
M  V30 28519 H 2641.93 1.90955 -0.756665 0
M  V30 28520 H 2640.16 3.72407 1.04161 0
M  V30 28521 H 2641.85 3.99434 0.721599 0
M  V30 28522 H 2642.61 4.54204 -1.70069 0
M  V30 28523 H 2638.49 4.58544 -0.47524 0
M  V30 28524 H 2642.04 5.94622 -3.64789 0
M  V30 28525 H 2637.93 5.98666 -2.4139 0
M  V30 28526 H 2638.7 7.01499 -4.21713 0
M  V30 28527 N 2641.36 0.28266 1.55044 0
M  V30 28528 C 2642.31 -0.601526 2.22823 0
M  V30 28529 C 2643.28 -1.1439 1.20433 0
M  V30 28530 O 2644.47 -1.19181 1.48998 0
M  V30 28531 C 2641.61 -1.77627 2.95876 0
M  V30 28532 C 2640.72 -1.26703 4.13002 0
M  V30 28533 C 2639.85 -2.40418 4.7368 0
M  V30 28534 C 2638.89 -1.86535 5.82985 0
M  V30 28535 N 2638.03 -2.93751 6.37695 0
M  V30 28536 H 2642.87 -0.0169004 2.97995 0
M  V30 28537 H 2640.41 0.0034255 1.471 0
M  V30 28538 H 2642.37 -2.46691 3.36451 0
M  V30 28539 H 2641 -2.33281 2.23114 0
M  V30 28540 H 2640.05 -0.469247 3.77495 0
M  V30 28541 H 2641.36 -0.832431 4.91805 0
M  V30 28542 H 2640.51 -3.17461 5.17014 0
M  V30 28543 H 2639.25 -2.87196 3.94169 0
M  V30 28544 H 2638.26 -1.07973 5.39094 0
M  V30 28545 H 2639.48 -1.40683 6.64368 0
M  V30 28546 H 2637.43 -3.39898 5.61075 0
M  V30 28547 H 2637.35 -2.54731 7.11792 0
M  V30 28548 H 2638.61 -3.70748 6.85687 0
M  V30 28549 N 2642.84 -1.57597 0.0100627 0
M  V30 28550 C 2643.81 -2.07988 -0.962993 0
M  V30 28551 C 2644.81 -0.991195 -1.26617 0
M  V30 28552 O 2646 -1.25349 -1.20968 0
M  V30 28553 C 2643.13 -2.52978 -2.28506 0
M  V30 28554 H 2644.32 -2.95235 -0.526919 0
M  V30 28555 H 2641.87 -1.54483 -0.237612 0
M  V30 28556 H 2642.61 -1.69004 -2.76782 0
M  V30 28557 H 2642.39 -3.32497 -2.07818 0
M  V30 28558 H 2643.88 -2.92256 -2.98289 0
M  V30 28559 N 2644.32 0.262839 -1.55393 0
M  V30 28560 C 2645.57 0.990393 -1.77659 0
M  V30 28561 C 2645.92 1.83564 -0.576365 0
M  V30 28562 O 2645.21 1.86695 0.430763 0
M  V30 28563 C 2645.41 1.89712 -3.02893 0
M  V30 28564 C 2645.24 1.14113 -4.34981 0
M  V30 28565 C 2644.01 0.85268 -4.98054 0
M  V30 28566 C 2646.21 0.526535 -5.11598 0
M  V30 28567 N 2644.19 0.070957 -6.13859 0
M  V30 28568 C 2645.56 -0.120529 -6.19883 0
M  V30 28569 C 2647.61 0.435398 -4.95993 0
M  V30 28570 C 2646.32 -0.849958 -7.14261 0
M  V30 28571 C 2648.34 -0.280463 -5.90735 0
M  V30 28572 C 2647.7 -0.916225 -6.98416 0
M  V30 28573 H 2643.8 0.344052 -0.702248 0
M  V30 28574 H 2646.39 0.265054 -1.92887 0
M  V30 28575 H 2644.56 2.59463 -2.89022 0
M  V30 28576 H 2646.29 2.55904 -3.1352 0
M  V30 28577 H 2643.05 1.1605 -4.59162 0
M  V30 28578 H 2643.47 -0.307532 -6.76301 0
M  V30 28579 H 2648.11 0.912599 -4.12833 0
M  V30 28580 H 2645.83 -1.33881 -7.96933 0
M  V30 28581 H 2649.42 -0.351434 -5.80738 0
M  V30 28582 H 2648.3 -1.46132 -7.70464 0
M  V30 28583 N 2645.8 1.48499 0.527807 0
M  V30 28584 C 2646.75 1.59583 1.62841 0
M  V30 28585 C 2647.73 0.452836 1.54396 0
M  V30 28586 O 2648.92 0.704392 1.6238 0
M  V30 28587 C 2646.05 1.64073 3.01554 0
M  V30 28588 C 2645.14 2.83859 3.15095 0
M  V30 28589 N 2645.53 4.08252 2.98603 0
M  V30 28590 C 2643.83 2.81237 3.46153 0
M  V30 28591 C 2644.53 4.88631 3.15617 0
M  V30 28592 N 2643.51 4.21489 3.4329 0
M  V30 28593 H 2647.31 2.53504 1.48704 0
M  V30 28594 H 2644.82 1.44901 0.733318 0
M  V30 28595 H 2646.82 1.70107 3.80617 0
M  V30 28596 H 2645.48 0.712691 3.16782 0
M  V30 28597 H 2646.49 4.38655 2.75322 0
M  V30 28598 H 2643.17 1.97699 3.67725 0
M  V30 28599 H 2644.56 5.97361 3.07586 0
M  V30 28600 N 2647.28 -0.776847 1.37123 0
M  V30 28601 C 2648.24 -1.87158 1.32304 0
M  V30 28602 C 2649.24 -1.59174 0.228127 0
M  V30 28603 O 2650.43 -1.67351 0.483672 0
M  V30 28604 C 2647.56 -3.24195 1.05406 0
M  V30 28605 H 2648.76 -1.92844 2.29676 0
M  V30 28606 H 2646.31 -0.976038 1.22079 0
M  V30 28607 H 2647.04 -3.24187 0.0854442 0
M  V30 28608 H 2646.83 -3.45898 1.84654 0
M  V30 28609 H 2648.32 -4.04269 1.04671 0
M  V30 28610 N 2648.76 -1.2161 -1.00244 0
M  V30 28611 C 2650 -1.04646 -1.74415 0
M  V30 28612 C 2650.36 0.415354 -1.87863 0
M  V30 28613 O 2649.65 1.30405 -1.40375 0
M  V30 28614 C 2649.84 -1.68015 -3.15446 0
M  V30 28615 C 2649.67 -3.20207 -3.1575 0
M  V30 28616 C 2648.44 -3.89263 -3.22183 0
M  V30 28617 C 2650.64 -4.17262 -3.00661 0
M  V30 28618 N 2648.62 -5.28622 -3.12141 0
M  V30 28619 C 2649.99 -5.43389 -2.98543 0
M  V30 28620 C 2652.05 -4.08277 -2.84982 0
M  V30 28621 C 2650.75 -6.61566 -2.82353 0
M  V30 28622 C 2652.78 -5.26093 -2.70149 0
M  V30 28623 C 2652.14 -6.51133 -2.6871 0
M  V30 28624 H 2648.24 -0.437285 -0.64831 0
M  V30 28625 H 2650.82 -1.54004 -1.19126 0
M  V30 28626 H 2648.99 -1.21221 -3.68999 0
M  V30 28627 H 2650.73 -1.44233 -3.78126 0
M  V30 28628 H 2647.48 -3.40204 -3.29482 0
M  V30 28629 H 2647.9 -6.0162 -3.10454 0
M  V30 28630 H 2652.55 -3.12398 -2.84898 0
M  V30 28631 H 2650.26 -7.57603 -2.81183 0
M  V30 28632 H 2653.85 -5.20964 -2.59013 0
M  V30 28633 H 2652.73 -7.40764 -2.57369 0
M  V30 28634 N 2650.23 1.19778 -1.02425 0
M  V30 28635 C 2651.2 2.21051 -0.605742 0
M  V30 28636 C 2652.2 1.57415 0.328181 0
M  V30 28637 O 2653.39 1.73815 0.115822 0
M  V30 28638 C 2650.52 3.40708 0.114306 0
M  V30 28639 H 2651.71 2.59591 -1.50174 0
M  V30 28640 H 2649.26 1.33375 -0.814911 0
M  V30 28641 H 2650 3.0768 1.02487 0
M  V30 28642 H 2649.78 3.88128 -0.55671 0
M  V30 28643 H 2651.27 4.15735 0.394199 0
M  V30 28644 N 2651.71 0.801501 1.35697 0
M  V30 28645 C 2652.96 0.380057 1.99207 0
M  V30 28646 C 2653.29 -1.04875 1.63447 0
M  V30 28647 O 2652.57 -1.72672 0.895253 0
M  V30 28648 C 2652.85 0.55777 3.55754 0
M  V30 28649 C 2652.7 2.03114 4.01329 0
M  V30 28650 C 2654.02 -0.0197195 4.40096 0
M  V30 28651 H 2651.14 0.139565 0.723665 0
M  V30 28652 H 2653.78 1.01009 1.60926 0
M  V30 28653 H 2651.93 0.0214424 3.88494 0
M  V30 28654 H 2653.6 2.62946 3.79021 0
M  V30 28655 H 2651.85 2.52942 3.52424 0
M  V30 28656 H 2652.52 2.10639 5.1023 0
M  V30 28657 H 2654.99 0.438251 4.13786 0
M  V30 28658 H 2653.87 0.134573 5.48735 0
M  V30 28659 H 2654.13 -1.11296 4.27862 0
M  V30 28660 N 2653.19 -1.47521 0.554558 0
M  V30 28661 C 2654.12 -2.26909 -0.242402 0
M  V30 28662 C 2655.1 -1.33884 -0.922699 0
M  V30 28663 O 2656.28 -1.63262 -0.942215 0
M  V30 28664 C 2653.41 -3.10841 -1.34519 0
M  V30 28665 C 2652.46 -4.19423 -0.773732 0
M  V30 28666 S 2653.29 -5.34167 0.377619 0
M  V30 28667 C 2654.45 -6.21663 -0.727055 0
M  V30 28668 H 2654.68 -2.94155 0.431269 0
M  V30 28669 H 2652.21 -1.50591 0.340826 0
M  V30 28670 H 2654.17 -3.59769 -1.97677 0
M  V30 28671 H 2652.83 -2.42962 -1.99069 0
M  V30 28672 H 2652.02 -4.77869 -1.60179 0
M  V30 28673 H 2651.63 -3.73362 -0.218383 0
M  V30 28674 H 2653.92 -6.57851 -1.61981 0
M  V30 28675 H 2654.86 -7.07871 -0.180011 0
M  V30 28676 H 2655.27 -5.55235 -1.01853 0
M  V30 28677 N 2654.67 -0.290879 -1.54892 0
M  V30 28678 C 2655.62 0.605537 -2.2458 0
M  V30 28679 C 2656.61 1.1452 -1.24826 0
M  V30 28680 O 2657.82 1.09701 -1.42708 0
M  V30 28681 H 2654.19 0.21386 -0.720949 0
M  V30 28682 H 2656.16 -0.00486975 -2.984 0
M  V30 28683 C 2654.91 1.77083 -2.99227 0
M  V30 28684 H 2654.23 1.36477 -3.75784 0
M  V30 28685 H 2655.67 2.37434 -3.51285 0
M  V30 28686 C 2654.13 2.66884 -2.05607 0
M  V30 28687 O 2654.66 3.67695 -1.61751 0
M  V30 28688 N 2652.87 2.34396 -1.71775 0
M  V30 28689 H 2652.42 1.52464 -2.07636 0
M  V30 28690 H 2652.37 2.94749 -1.09409 0
M  V30 28691 N 2656.15 1.57589 -0.0184203 0
M  V30 28692 C 2657.39 1.91355 0.662528 0
M  V30 28693 C 2657.72 0.893818 1.72746 0
M  V30 28694 O 2656.98 -0.0988166 1.9545 0
M  V30 28695 C 2657.27 3.31863 1.3267 0
M  V30 28696 C 2656.94 4.49182 0.393189 0
M  V30 28697 C 2655.6 4.81007 0.136218 0
M  V30 28698 C 2657.95 5.20607 -0.248457 0
M  V30 28699 C 2655.28 5.8162 -0.770384 0
M  V30 28700 C 2657.63 6.22187 -1.14305 0
M  V30 28701 C 2656.3 6.52459 -1.40901 0
M  V30 28702 H 2655.57 0.700218 0.242436 0
M  V30 28703 H 2658.22 1.91342 -0.0778966 0
M  V30 28704 H 2656.52 3.28088 2.14162 0
M  V30 28705 H 2658.22 3.55256 1.85995 0
M  V30 28706 H 2654.81 4.24328 0.603648 0
M  V30 28707 H 2658.99 4.9626 -0.0629703 0
M  V30 28708 H 2654.25 6.03425 -0.98426 0
M  V30 28709 H 2658.42 6.76656 -1.64649 0
M  V30 28710 H 2656.05 7.30239 -2.11319 0
M  V30 28711 N 2657.62 -0.254594 1.5553 0
M  V30 28712 C 2658.53 -1.33674 1.92791 0
M  V30 28713 C 2659.55 -1.5307 0.827383 0
M  V30 28714 O 2660.73 -1.66841 1.1281 0
M  V30 28715 C 2657.79 -2.67272 2.20832 0
M  V30 28716 C 2656.85 -2.56464 3.44274 0
M  V30 28717 C 2656.08 -3.83691 3.70968 0
M  V30 28718 O 2656.31 -4.85221 2.99861 0
M  V30 28719 O 2655.24 -3.82786 4.64498 0
M  V30 28720 H 2659.07 -1.05066 2.84947 0
M  V30 28721 H 2656.65 -0.454698 1.42313 0
M  V30 28722 H 2658.53 -3.46233 2.4021 0
M  V30 28723 H 2657.21 -2.95627 1.31856 0
M  V30 28724 H 2656.12 -1.75815 3.30212 0
M  V30 28725 H 2657.45 -2.33055 4.33528 0
M  V30 28726 N 2659.1 -1.48777 -0.519925 0
M  V30 28727 C 2660.06 -1.63553 -1.60571 0
M  V30 28728 C 2661.06 -0.50826 -1.52556 0
M  V30 28729 O 2662.25 -0.77429 -1.56046 0
M  V30 28730 C 2659.39 -1.61517 -3.00208 0
M  V30 28731 H 2660.58 -2.60378 -1.48806 0
M  V30 28732 H 2658.13 -1.37524 -0.742748 0
M  V30 28733 H 2658.87 -0.662065 -3.1747 0
M  V30 28734 H 2658.65 -2.43365 -3.07435 0
M  V30 28735 H 2660.14 -1.75071 -3.79131 0
M  V30 28736 N 2660.58 0.769564 -1.37534 0
M  V30 28737 C 2661.83 1.53046 -1.33059 0
M  V30 28738 C 2662.16 1.94018 0.0841524 0
M  V30 28739 O 2661.43 1.64236 1.04195 0
M  V30 28740 C 2661.72 2.79402 -2.27171 0
M  V30 28741 C 2661.57 2.44671 -3.77434 0
M  V30 28742 C 2662.89 3.81346 -2.1969 0
M  V30 28743 H 2660.01 0.55522 -0.484665 0
M  V30 28744 H 2662.65 0.882673 -1.68252 0
M  V30 28745 H 2660.8 3.34678 -1.97288 0
M  V30 28746 H 2662.47 1.95293 -4.17922 0
M  V30 28747 H 2660.71 1.77339 -3.95896 0
M  V30 28748 H 2661.39 3.35004 -4.38721 0
M  V30 28749 H 2663.86 3.35569 -2.46034 0
M  V30 28750 H 2662.74 4.67476 -2.87676 0
M  V30 28751 H 2663 4.25769 -1.19052 0
M  V30 28752 N 2662.06 1.22139 0.995977 0
M  V30 28753 C 2662.99 1.01293 2.10385 0
M  V30 28754 C 2663.97 -0.0651155 1.69975 0
M  V30 28755 O 2665.15 0.0964969 1.9396 0
M  V30 28756 C 2662.28 0.586577 3.42311 0
M  V30 28757 C 2661.24 1.61021 3.96556 0
M  V30 28758 C 2660.56 1.03979 5.24493 0
M  V30 28759 C 2661.86 2.9994 4.2759 0
M  V30 28760 H 2663.56 1.93955 2.28083 0
M  V30 28761 H 2661.1 0.933947 1.09606 0
M  V30 28762 H 2663.06 0.427867 4.19222 0
M  V30 28763 H 2661.78 -0.375704 3.24432 0
M  V30 28764 H 2660.44 1.75664 3.21773 0
M  V30 28765 H 2660.09 0.0689587 5.02953 0
M  V30 28766 H 2659.79 1.72362 5.61752 0
M  V30 28767 H 2661.31 0.892601 6.04041 0
M  V30 28768 H 2662.73 2.88689 4.9531 0
M  V30 28769 H 2661.12 3.65418 4.76014 0
M  V30 28770 H 2662.19 3.50105 3.35491 0
M  V30 28771 N 2663.54 -1.19233 1.03059 0
M  V30 28772 C 2664.49 -2.20409 0.583425 0
M  V30 28773 C 2665.47 -1.56618 -0.368748 0
M  V30 28774 O 2666.66 -1.75983 -0.18944 0
M  V30 28775 C 2663.79 -3.43243 -0.062593 0
M  V30 28776 C 2662.88 -4.14175 0.912123 0
M  V30 28777 N 2663.27 -4.61268 2.07522 0
M  V30 28778 C 2661.57 -4.39886 0.735936 0
M  V30 28779 C 2662.27 -5.15759 2.69012 0
M  V30 28780 N 2661.24 -5.06662 1.96962 0
M  V30 28781 H 2665.05 -2.545 1.46993 0
M  V30 28782 H 2662.56 -1.35326 0.897809 0
M  V30 28783 H 2664.56 -4.14971 -0.40058 0
M  V30 28784 H 2663.22 -3.10652 -0.944758 0
M  V30 28785 H 2664.23 -4.56039 2.45456 0
M  V30 28786 H 2660.9 -4.17387 -0.0969922 0
M  V30 28787 H 2662.29 -5.62473 3.67524 0
M  V30 28788 N 2665.01 -0.808686 -1.3527 0
M  V30 28789 C 2666.24 -0.401989 -2.02651 0
M  V30 28790 C 2666.65 0.992434 -1.61082 0
M  V30 28791 O 2666 1.65122 -0.805013 0
M  V30 28792 C 2666.06 -0.408309 -3.57174 0
M  V30 28793 C 2665.72 -1.75361 -4.22016 0
M  V30 28794 C 2666.72 -2.71223 -4.43547 0
M  V30 28795 C 2664.4 -2.03819 -4.59089 0
M  V30 28796 C 2666.4 -3.93726 -5.01257 0
M  V30 28797 C 2664.08 -3.26585 -5.16513 0
M  V30 28798 C 2665.08 -4.21356 -5.37539 0
M  V30 28799 O 2664.77 -5.41955 -5.93751 0
M  V30 28800 H 2664.5 -0.161227 -0.656492 0
M  V30 28801 H 2667.06 -1.09423 -1.73827 0
M  V30 28802 H 2665.29 0.34054 -3.85198 0
M  V30 28803 H 2666.98 -0.0236337 -4.05893 0
M  V30 28804 H 2667.74 -2.50529 -4.15283 0
M  V30 28805 H 2663.62 -1.30862 -4.42036 0
M  V30 28806 H 2667.16 -4.6771 -5.17584 0
M  V30 28807 H 2663.06 -3.47148 -5.44204 0
M  V30 28808 H 2663.83 -5.4328 -6.122 0
M  V30 28809 N 2666.49 1.47225 -0.562374 0
M  V30 28810 C 2667.44 2.30078 0.182421 0
M  V30 28811 C 2668.41 1.39379 0.903478 0
M  V30 28812 O 2669.59 1.68338 0.898158 0
M  V30 28813 C 2666.73 3.23447 1.20316 0
M  V30 28814 C 2665.85 4.29239 0.487642 0
M  V30 28815 C 2664.98 5.09754 1.49413 0
M  V30 28816 C 2664.02 6.07315 0.76387 0
M  V30 28817 N 2663.16 6.80771 1.71743 0
M  V30 28818 H 2668 2.93245 -0.530221 0
M  V30 28819 H 2665.54 1.44539 -0.273302 0
M  V30 28820 H 2667.49 3.76007 1.80761 0
M  V30 28821 H 2666.12 2.62133 1.88377 0
M  V30 28822 H 2665.18 3.79695 -0.23144 0
M  V30 28823 H 2666.49 4.98729 -0.0841879 0
M  V30 28824 H 2665.64 5.6649 2.17196 0
M  V30 28825 H 2664.38 4.40178 2.09988 0
M  V30 28826 H 2663.39 5.49753 0.0721378 0
M  V30 28827 H 2664.61 6.78902 0.163791 0
M  V30 28828 H 2662.56 6.1392 2.31166 0
M  V30 28829 H 2662.47 7.46449 1.19789 0
M  V30 28830 H 2663.74 7.42077 2.38625 0
M  V30 28831 N 2667.97 0.299089 1.54736 0
M  V30 28832 C 2668.92 -0.592894 2.20156 0
M  V30 28833 C 2669.9 -1.10036 1.17392 0
M  V30 28834 O 2671.1 -1.04145 1.43118 0
M  V30 28835 C 2668.23 -1.76522 2.9444 0
M  V30 28836 C 2667.31 -1.27381 4.04518 0
M  V30 28837 N 2667.7 -0.50025 5.0332 0
M  V30 28838 C 2666 -1.5547 4.18025 0
M  V30 28839 C 2666.7 -0.238807 5.8121 0
M  V30 28840 N 2665.68 -0.818068 5.37409 0
M  V30 28841 H 2669.48 0.00568762 2.93899 0
M  V30 28842 H 2666.99 0.10376 1.62068 0
M  V30 28843 H 2668.99 -2.41576 3.39774 0
M  V30 28844 H 2667.65 -2.36752 2.22213 0
M  V30 28845 H 2668.66 -0.145328 5.17696 0
M  V30 28846 H 2665.34 -2.16463 3.57002 0
M  V30 28847 H 2666.73 0.382341 6.70811 0
M  V30 28848 N 2669.45 -1.57577 0.0267774 0
M  V30 28849 C 2670.38 -2.06976 -0.984558 0
M  V30 28850 C 2671.39 -0.992728 -1.2903 0
M  V30 28851 O 2672.58 -1.26897 -1.25536 0
M  V30 28852 C 2669.68 -2.47736 -2.31257 0
M  V30 28853 C 2668.86 -3.78491 -2.19234 0
M  V30 28854 C 2667.91 -4.05827 -3.34949 0
M  V30 28855 O 2666.94 -4.76112 -3.11939 0
M  V30 28856 N 2668.14 -3.55817 -4.58666 0
M  V30 28857 H 2670.91 -2.94363 -0.563092 0
M  V30 28858 H 2668.47 -1.61107 -0.160033 0
M  V30 28859 H 2670.46 -2.63118 -3.07492 0
M  V30 28860 H 2669.03 -1.65728 -2.65053 0
M  V30 28861 H 2668.25 -3.72929 -1.27741 0
M  V30 28862 H 2669.54 -4.64162 -2.08401 0
M  V30 28863 H 2668.94 -2.98951 -4.80255 0
M  V30 28864 H 2667.49 -3.76481 -5.32076 0
M  V30 28865 N 2670.93 0.246342 -1.55663 0
M  V30 28866 C 2671.87 1.32476 -1.91188 0
M  V30 28867 C 2672.87 1.49797 -0.791022 0
M  V30 28868 O 2674.07 1.51265 -0.975644 0
M  V30 28869 H 2670.45 0.443615 -0.607215 0
M  V30 28870 H 2672.42 0.997804 -2.81223 0
M  V30 28871 C 2671.17 2.67309 -2.22353 0
M  V30 28872 H 2670.49 2.54781 -3.08102 0
M  V30 28873 H 2671.93 3.41641 -2.51113 0
M  V30 28874 C 2670.39 3.20444 -1.04007 0
M  V30 28875 O 2670.92 4.00664 -0.28835 0
M  V30 28876 N 2669.13 2.78479 -0.830543 0
M  V30 28877 H 2668.67 2.13354 -1.44354 0
M  V30 28878 H 2668.63 3.14374 -0.0403811 0
M  V30 28879 N 2672.4 1.4905 0.512027 0
M  V30 28880 C 2673.34 1.61012 1.63119 0
M  V30 28881 C 2674.35 0.493379 1.55144 0
M  V30 28882 O 2675.54 0.764983 1.61277 0
M  V30 28883 C 2672.64 1.54057 3.0186 0
M  V30 28884 C 2671.81 2.81078 3.35133 0
M  V30 28885 C 2670.87 2.67327 4.53236 0
M  V30 28886 O 2669.9 3.41246 4.55565 0
M  V30 28887 N 2671.1 1.78137 5.52492 0
M  V30 28888 H 2673.86 2.57532 1.53288 0
M  V30 28889 H 2671.42 1.46 0.69968 0
M  V30 28890 H 2673.42 1.42528 3.78772 0
M  V30 28891 H 2671.99 0.654399 3.05674 0
M  V30 28892 H 2671.21 3.0704 2.47225 0
M  V30 28893 H 2672.49 3.6531 3.54156 0
M  V30 28894 H 2671.89 1.17317 5.53401 0
M  V30 28895 H 2670.45 1.72536 6.28549 0
M  V30 28896 N 2673.88 -0.762259 1.3794 0
M  V30 28897 C 2674.85 -1.85744 1.34282 0
M  V30 28898 C 2675.85 -1.58923 0.244997 0
M  V30 28899 O 2677.04 -1.66828 0.501394 0
M  V30 28900 C 2674.17 -3.23059 1.08838 0
M  V30 28901 H 2675.36 -1.90397 2.31709 0
M  V30 28902 H 2672.91 -0.963035 1.23107 0
M  V30 28903 H 2673.65 -3.24079 0.119824 0
M  V30 28904 H 2673.43 -3.4392 1.88312 0
M  V30 28905 H 2674.92 -4.03137 1.08953 0
M  V30 28906 N 2675.36 -1.22666 -0.989486 0
M  V30 28907 C 2676.78 -0.987353 -1.25393 0
M  V30 28908 C 2676.98 0.317021 -1.98991 0
M  V30 28909 O 2676.03 1.03878 -2.30143 0
M  V30 28910 C 2677.35 -2.1883 -2.06238 0
M  V30 28911 C 2678.89 -2.23223 -2.1941 0
M  V30 28912 C 2679.37 -3.42879 -3.03642 0
M  V30 28913 N 2680.86 -3.43062 -3.11228 0
M  V30 28914 C 2681.59 -4.32299 -3.76702 0
M  V30 28915 N 2681.09 -5.3176 -4.44076 0
M  V30 28916 N 2682.88 -4.20066 -3.73498 0
M  V30 28917 H 2675.03 -2.06523 -0.496176 0
M  V30 28918 H 2677.3 -0.905158 -0.281768 0
M  V30 28919 H 2677 -3.1344 -1.59526 0
M  V30 28920 H 2676.88 -2.19171 -3.06992 0
M  V30 28921 H 2679.26 -1.29158 -2.65334 0
M  V30 28922 H 2679.35 -2.26919 -1.18074 0
M  V30 28923 H 2678.99 -4.37245 -2.58416 0
M  V30 28924 H 2678.92 -3.36423 -4.05126 0
M  V30 28925 H 2681.41 -2.71092 -2.63282 0
M  V30 28926 H 2681.72 -5.96126 -4.91787 0
M  V30 28927 H 2680.07 -5.35669 -4.42813 0
M  V30 28928 H 2683.26 -3.41614 -3.20027 0
M  V30 28929 H 2683.43 -4.89817 -4.24244 0
M  V30 28930 N 2676.84 1.18685 -1.0369 0
M  V30 28931 C 2678.12 1.84398 -0.652429 0
M  V30 28932 C 2678.5 1.92413 0.868352 0
M  V30 28933 O 2677.84 1.44719 1.7683 0
M  V30 28934 C 2678.05 3.22917 -1.32385 0
M  V30 28935 C 2679.4 3.98993 -1.45223 0
M  V30 28936 O 2680.43 3.32343 -1.28166 0
M  V30 28937 O 2679.29 5.184 -1.72984 0
M  V30 28938 H 2676.38 0.795005 -0.227806 0
M  V30 28939 H 2678.93 1.26108 -1.13555 0
M  V30 28940 H 2677.7 3.11964 -2.36208 0
M  V30 28941 H 2677.32 3.88859 -0.829107 0
M  V30 28942 N 2678.32 0.815849 1.34839 0
M  V30 28943 C 2679.23 0.234503 2.33425 0
M  V30 28944 C 2680.24 -0.627384 1.62296 0
M  V30 28945 O 2681.42 -0.536953 1.9411 0
M  V30 28946 C 2678.48 -0.599789 3.41472 0
M  V30 28947 C 2677.55 0.283671 4.28362 0
M  V30 28948 C 2676.78 -0.510897 5.31249 0
M  V30 28949 O 2677 -1.7448 5.43059 0
M  V30 28950 O 2675.94 0.103075 6.01812 0
M  V30 28951 H 2679.76 1.05029 2.84961 0
M  V30 28952 H 2677.35 0.577834 1.37773 0
M  V30 28953 H 2679.23 -1.07468 4.07466 0
M  V30 28954 H 2677.9 -1.39302 2.92193 0
M  V30 28955 H 2676.81 0.805901 3.65316 0
M  V30 28956 H 2678.14 1.04108 4.81064 0
M  V30 28957 N 2679.8 -1.46924 0.570174 0
M  V30 28958 C 2680.74 -2.30171 -0.170217 0
M  V30 28959 C 2681.71 -1.39856 -0.896074 0
M  V30 28960 O 2682.9 -1.68812 -0.889218 0
M  V30 28961 C 2680.04 -3.24081 -1.18599 0
M  V30 28962 C 2679.15 -4.29491 -0.464871 0
M  V30 28963 C 2678.29 -5.10539 -1.46707 0
M  V30 28964 C 2677.32 -6.07712 -0.731651 0
M  V30 28965 N 2676.46 -6.81672 -1.6813 0
M  V30 28966 H 2681.3 -2.9296 0.545765 0
M  V30 28967 H 2678.84 -1.44392 0.280963 0
M  V30 28968 H 2680.8 -3.7696 -1.78765 0
M  V30 28969 H 2679.43 -2.63129 -1.86984 0
M  V30 28970 H 2678.48 -3.79567 0.251573 0
M  V30 28971 H 2679.79 -4.98677 0.110636 0
M  V30 28972 H 2678.94 -5.67634 -2.14189 0
M  V30 28973 H 2677.68 -4.41285 -2.0765 0
M  V30 28974 H 2676.69 -5.49783 -0.042982 0
M  V30 28975 H 2677.91 -6.7898 -0.127784 0
M  V30 28976 H 2675.86 -6.15138 -2.27907 0
M  V30 28977 H 2675.78 -7.47074 -1.15828 0
M  V30 28978 H 2677.04 -7.43332 -2.34687 0
M  V30 28979 N 2681.27 -0.307291 -1.54575 0
M  V30 28980 C 2682.22 0.566001 -2.23752 0
M  V30 28981 C 2683.19 1.1246 -1.22237 0
M  V30 28982 O 2684.38 1.16796 -1.50875 0
M  V30 28983 C 2681.52 1.72897 -2.98665 0
M  V30 28984 C 2680.63 1.20117 -4.14965 0
M  V30 28985 C 2679.76 2.32851 -4.77445 0
M  V30 28986 C 2678.8 1.77236 -5.85879 0
M  V30 28987 N 2677.94 2.83569 -6.42287 0
M  V30 28988 H 2682.78 -0.0305102 -2.97984 0
M  V30 28989 H 2680.32 -0.0268273 -1.47076 0
M  V30 28990 H 2682.27 2.41307 -3.40333 0
M  V30 28991 H 2680.9 2.29702 -2.26797 0
M  V30 28992 H 2679.96 0.409132 -3.78193 0
M  V30 28993 H 2681.27 0.754084 -4.93067 0
M  V30 28994 H 2680.42 3.09196 -5.21999 0
M  V30 28995 H 2679.16 2.80889 -3.98689 0
M  V30 28996 H 2678.17 0.993831 -5.40743 0
M  V30 28997 H 2679.39 1.30095 -6.66522 0
M  V30 28998 H 2677.34 3.30929 -5.66412 0
M  V30 28999 H 2677.25 2.43375 -7.15755 0
M  V30 29000 H 2678.52 3.59792 -6.91498 0
M  V30 29001 N 2682.75 1.57561 -0.0351337 0
M  V30 29002 C 2683.7 2.1058 0.944703 0
M  V30 29003 C 2684.67 1.0093 1.31918 0
M  V30 29004 O 2685.85 1.28385 1.41145 0
M  V30 29005 C 2682.99 2.64235 2.21978 0
M  V30 29006 C 2682.11 3.87915 1.90121 0
M  V30 29007 C 2681.24 4.29941 3.11968 0
M  V30 29008 C 2680.28 5.46364 2.75959 0
M  V30 29009 N 2679.42 5.83519 3.90449 0
M  V30 29010 H 2684.26 2.94016 0.485665 0
M  V30 29011 H 2681.79 1.4532 0.228118 0
M  V30 29012 H 2683.75 2.93435 2.96566 0
M  V30 29013 H 2682.38 1.83621 2.65487 0
M  V30 29014 H 2681.43 3.65406 1.05749 0
M  V30 29015 H 2682.75 4.72576 1.59605 0
M  V30 29016 H 2681.9 4.6061 3.94871 0
M  V30 29017 H 2680.64 3.44059 3.45651 0
M  V30 29018 H 2679.64 5.15383 1.91469 0
M  V30 29019 H 2680.87 6.33949 2.43486 0
M  V30 29020 H 2678.82 5.00591 4.23963 0
M  V30 29021 H 2678.73 6.62833 3.63576 0
M  V30 29022 H 2680 6.18795 4.74039 0
M  V30 29023 N 2684.23 -0.238084 1.55791 0
M  V30 29024 C 2685.16 -1.29842 1.9407 0
M  V30 29025 C 2686.14 -1.49752 0.806752 0
M  V30 29026 O 2687.33 -1.62212 1.06775 0
M  V30 29027 C 2684.46 -2.65149 2.24307 0
M  V30 29028 C 2683.41 -2.59921 3.40037 0
M  V30 29029 C 2682.74 -3.99105 3.55836 0
M  V30 29030 C 2684.04 -2.16139 4.7548 0
M  V30 29031 H 2685.73 -0.980514 2.82889 0
M  V30 29032 H 2683.28 -0.470229 1.36106 0
M  V30 29033 H 2685.23 -3.3947 2.49676 0
M  V30 29034 H 2683.95 -2.98594 1.32323 0
M  V30 29035 H 2682.61 -1.88057 3.1469 0
M  V30 29036 H 2682.26 -4.2983 2.61258 0
M  V30 29037 H 2681.96 -3.96493 4.33667 0
M  V30 29038 H 2683.48 -4.75113 3.83536 0
M  V30 29039 H 2684.9 -2.80197 5.00163 0
M  V30 29040 H 2683.29 -2.24621 5.56476 0
M  V30 29041 H 2684.36 -1.11325 4.71948 0
M  V30 29042 N 2685.71 -1.4932 -0.504115 0
M  V30 29043 C 2687.12 -1.36013 -0.835015 0
M  V30 29044 C 2687.32 -0.390842 -1.97673 0
M  V30 29045 O 2686.38 0.178611 -2.51867 0
M  V30 29046 C 2687.69 -2.76659 -1.17816 0
M  V30 29047 C 2689.24 -2.85336 -1.28655 0
M  V30 29048 C 2689.72 -4.26742 -1.663 0
M  V30 29049 N 2691.21 -4.29537 -1.73355 0
M  V30 29050 C 2691.94 -5.35914 -2.03921 0
M  V30 29051 N 2691.44 -6.52539 -2.32732 0
M  V30 29052 N 2693.23 -5.23328 -2.05145 0
M  V30 29053 H 2685.38 -2.10938 0.248801 0
M  V30 29054 H 2687.64 -0.946748 0.0487128 0
M  V30 29055 H 2687.35 -3.49271 -0.41262 0
M  V30 29056 H 2687.22 -3.11828 -2.12233 0
M  V30 29057 H 2689.61 -2.12963 -2.04281 0
M  V30 29058 H 2689.69 -2.53753 -0.322959 0
M  V30 29059 H 2689.34 -4.9964 -0.912252 0
M  V30 29060 H 2689.27 -4.55787 -2.63753 0
M  V30 29061 H 2691.76 -3.45426 -1.53262 0
M  V30 29062 H 2692.07 -7.29435 -2.55235 0
M  V30 29063 H 2690.42 -6.55771 -2.30195 0
M  V30 29064 H 2693.61 -4.31223 -1.82111 0
M  V30 29065 H 2693.78 -6.06326 -2.28633 0
M  V30 29066 N 2687.19 0.754933 -1.38342 0
M  V30 29067 C 2688.14 1.85927 -1.31967 0
M  V30 29068 C 2689.12 1.59599 -0.204209 0
M  V30 29069 O 2690.31 1.71442 -0.440066 0
M  V30 29070 C 2687.44 3.23618 -1.1457 0
M  V30 29071 C 2686.53 3.55841 -2.30733 0
M  V30 29072 N 2686.92 3.59132 -3.56172 0
M  V30 29073 C 2685.22 3.861 -2.23255 0
M  V30 29074 C 2685.92 3.88584 -4.32872 0
M  V30 29075 N 2684.89 4.05345 -3.62211 0
M  V30 29076 H 2688.69 1.86746 -2.26943 0
M  V30 29077 H 2686.21 0.95222 -1.31554 0
M  V30 29078 H 2688.21 4.02645 -1.08087 0
M  V30 29079 H 2686.87 3.24051 -0.205269 0
M  V30 29080 H 2687.88 3.40925 -3.8986 0
M  V30 29081 H 2684.55 3.94256 -1.37364 0
M  V30 29082 H 2685.94 3.97764 -5.4151 0
M  V30 29083 N 2688.66 1.23189 0.982967 0
M  V30 29084 C 2689.63 1.01201 2.05648 0
M  V30 29085 C 2690.63 -0.0252181 1.6078 0
M  V30 29086 O 2691.82 0.214273 1.72877 0
M  V30 29087 C 2688.95 0.530715 3.36744 0
M  V30 29088 H 2690.14 1.96465 2.26587 0
M  V30 29089 H 2687.69 1.05197 1.156 0
M  V30 29090 H 2688.43 -0.425817 3.21492 0
M  V30 29091 H 2688.21 1.27916 3.70648 0
M  V30 29092 H 2689.7 0.397439 4.15704 0
M  V30 29093 N 2690.14 -1.18133 1.04318 0
M  V30 29094 C 2691.37 -1.92653 0.768081 0
M  V30 29095 C 2691.79 -1.75801 -0.669009 0
M  V30 29096 O 2691.15 -1.06983 -1.4637 0
M  V30 29097 C 2691.2 -3.42024 1.14245 0
M  V30 29098 O 2690.3 -4.11519 0.269405 0
M  V30 29099 H 2689.64 -0.600932 0.282447 0
M  V30 29100 H 2692.17 -1.49791 1.39369 0
M  V30 29101 H 2692.18 -3.92739 1.10545 0
M  V30 29102 H 2690.86 -3.53611 2.18934 0
M  V30 29103 H 2689.43 -3.71097 0.366241 0
M  V30 29104 N 2691.62 -0.822988 -1.34405 0
M  V30 29105 C 2692.87 -0.41028 -1.97892 0
M  V30 29106 C 2693.19 1.03014 -1.65569 0
M  V30 29107 O 2692.46 1.7152 -0.946451 0
M  V30 29108 H 2691.04 -0.14872 -0.732046 0
M  V30 29109 H 2693.7 -1.05245 -1.64041 0
M  V30 29110 H 2692.8 -0.529338 -3.07578 0
M  V30 29111 N 2693.1 1.4662 -0.577957 0
M  V30 29112 C 2694.06 2.28723 0.147765 0
M  V30 29113 C 2695.06 1.38125 0.8233 0
M  V30 29114 O 2696.25 1.60549 0.675983 0
M  V30 29115 C 2693.38 3.1838 1.21848 0
M  V30 29116 H 2694.58 2.94361 -0.573706 0
M  V30 29117 H 2692.13 1.52652 -0.33573 0
M  V30 29118 H 2692.86 2.57479 1.97168 0
M  V30 29119 H 2692.65 3.8508 0.738647 0
M  V30 29120 H 2694.14 3.80189 1.72761 0
M  V30 29121 N 2694.58 0.315484 1.5441 0
M  V30 29122 C 2695.52 -0.569731 2.25515 0
M  V30 29123 C 2696.52 -1.1252 1.26632 0
M  V30 29124 O 2697.72 -1.07417 1.44435 0
M  V30 29125 H 2694.1 -0.202363 0.72426 0
M  V30 29126 H 2696.07 0.0523419 2.98354 0
M  V30 29127 C 2694.82 -1.723 3.02007 0
M  V30 29128 H 2694.14 -1.30482 3.77908 0
M  V30 29129 H 2695.58 -2.31815 3.55018 0
M  V30 29130 C 2694.04 -2.6358 2.09827 0
M  V30 29131 O 2694.57 -3.65075 1.6758 0
M  V30 29132 N 2692.78 -2.31634 1.75482 0
M  V30 29133 H 2692.32 -1.49141 2.10035 0
M  V30 29134 H 2692.28 -2.92971 1.14084 0
M  V30 29135 N 2696.05 -1.5754 0.0434891 0
M  V30 29136 C 2697.3 -1.91562 -0.63142 0
M  V30 29137 C 2697.62 -0.92295 -1.72456 0
M  V30 29138 O 2698.82 -1.15494 -2.4571 0
M  V30 29139 C 2697.28 -3.402 -1.17441 0
M  V30 29140 C 2696.89 -4.47855 -0.113788 0
M  V30 29141 C 2698.63 -3.83267 -1.825 0
M  V30 29142 C 2696.54 -5.87601 -0.669222 0
M  V30 29143 H 2695.47 -0.714912 -0.239617 0
M  V30 29144 H 2698.12 -1.83163 0.111129 0
M  V30 29145 H 2696.5 -3.43577 -1.96903 0
M  V30 29146 H 2697.67 -4.56057 0.659428 0
M  V30 29147 H 2695.99 -4.14081 0.438894 0
M  V30 29148 H 2698.59 -4.85038 -2.25038 0
M  V30 29149 H 2698.93 -3.191 -2.6736 0
M  V30 29150 H 2699.46 -3.82374 -1.09706 0
M  V30 29151 H 2696.2 -6.55347 0.141564 0
M  V30 29152 H 2695.72 -5.82977 -1.4106 0
M  V30 29153 H 2697.4 -6.36616 -1.15451 0
M  V30 29154 N 2697.53 0.229818 -1.55915 0
M  V30 29155 C 2698.76 0.97253 -1.82618 0
M  V30 29156 C 2699.18 1.78277 -0.62152 0
M  V30 29157 O 2698.53 1.77837 0.409925 0
M  V30 29158 C 2698.58 1.89674 -3.07744 0
M  V30 29159 O 2698.3 1.11926 -4.23561 0
M  V30 29160 C 2699.81 2.75403 -3.47373 0
M  V30 29161 H 2697.03 0.285408 -0.607275 0
M  V30 29162 H 2699.57 0.247543 -2.02996 0
M  V30 29163 H 2697.72 2.57578 -2.89365 0
M  V30 29164 H 2698.14 1.7459 -4.94589 0
M  V30 29165 H 2699.61 3.35969 -4.37982 0
M  V30 29166 H 2700.09 3.47381 -2.68743 0
M  V30 29167 H 2700.7 2.12925 -3.68162 0
M  V30 29168 N 2699.01 1.49585 0.49619 0
M  V30 29169 C 2699.96 1.67101 1.61802 0
M  V30 29170 C 2700.95 0.536905 1.60666 0
M  V30 29171 O 2702.16 0.716683 1.65117 0
M  V30 29172 H 2698.53 0.526996 0.536451 0
M  V30 29173 H 2700.5 2.61255 1.44182 0
M  V30 29174 C 2699.25 1.75926 2.99909 0
M  V30 29175 H 2698.58 2.62571 3.01491 0
M  V30 29176 H 2700.02 1.92215 3.77928 0
M  V30 29177 C 2698.48 0.505146 3.33091 0
M  V30 29178 O 2699.01 -0.367015 4.0002 0
M  V30 29179 N 2697.21 0.36665 2.88278 0
M  V30 29180 H 2696.76 1.07739 2.33987 0
M  V30 29181 H 2696.72 -0.471366 3.10846 0
M  V30 29182 N 2700.49 -0.747586 1.3874 0
M  V30 29183 C 2701.45 -1.8431 1.36245 0
M  V30 29184 C 2702.45 -1.58654 0.261839 0
M  V30 29185 O 2703.64 -1.66287 0.51906 0
M  V30 29186 C 2700.77 -3.21886 1.12259 0
M  V30 29187 H 2701.97 -1.87929 2.33715 0
M  V30 29188 H 2699.52 -0.949924 1.24121 0
M  V30 29189 H 2700.25 -3.23933 0.15419 0
M  V30 29190 H 2700.04 -3.41903 1.91949 0
M  V30 29191 H 2701.53 -4.01958 1.13223 0
M  V30 29192 N 2701.97 -1.23709 -0.97642 0
M  V30 29193 C 2703.19 -1.09836 -1.75339 0
M  V30 29194 C 2703.61 0.349852 -1.8553 0
M  V30 29195 O 2702.97 1.24183 -1.33735 0
M  V30 29196 C 2703.02 -1.72239 -3.1783 0
M  V30 29197 O 2702.74 -3.11397 -3.08162 0
M  V30 29198 C 2704.24 -1.63861 -4.11904 0
M  V30 29199 H 2701.46 -0.384185 -0.55013 0
M  V30 29200 H 2704 -1.6364 -1.22647 0
M  V30 29201 H 2702.16 -1.22459 -3.67536 0
M  V30 29202 H 2702.57 -3.41736 -3.97891 0
M  V30 29203 H 2704.05 -2.1222 -5.09575 0
M  V30 29204 H 2704.52 -0.598169 -4.35108 0
M  V30 29205 H 2705.13 -2.13026 -3.68103 0
M  V30 29206 N 2703.44 1.17579 -1.04943 0
M  V30 29207 C 2704.67 1.91702 -0.778328 0
M  V30 29208 C 2705.09 1.76676 0.665666 0
M  V30 29209 O 2704.44 1.10224 1.45454 0
M  V30 29210 C 2704.5 3.42843 -1.14634 0
M  V30 29211 O 2704.22 3.57404 -2.53365 0
M  V30 29212 C 2705.72 4.34047 -0.901007 0
M  V30 29213 H 2702.94 0.608318 -0.283178 0
M  V30 29214 H 2705.48 1.49117 -1.39944 0
M  V30 29215 H 2703.64 3.83183 -0.57002 0
M  V30 29216 H 2704.05 4.5103 -2.67717 0
M  V30 29217 H 2705.52 5.38614 -1.20827 0
M  V30 29218 H 2706 4.38894 0.163889 0
M  V30 29219 H 2706.61 3.99417 -1.46104 0
M  V30 29220 N 2704.92 0.830104 1.33967 0
M  V30 29221 C 2705.89 0.26239 2.27693 0
M  V30 29222 C 2706.89 -0.563849 1.5059 0
M  V30 29223 O 2708.08 -0.378911 1.70029 0
M  V30 29224 C 2705.21 -0.631321 3.35003 0
M  V30 29225 H 2706.4 1.08933 2.79417 0
M  V30 29226 H 2703.95 0.602512 1.4422 0
M  V30 29227 H 2704.69 -1.48104 2.88506 0
M  V30 29228 H 2704.47 -0.0402587 3.92079 0
M  V30 29229 H 2705.96 -1.0221 4.04899 0
M  V30 29230 N 2706.4 -1.46311 0.585725 0
M  V30 29231 C 2707.36 -2.28798 -0.135633 0
M  V30 29232 C 2708.36 -1.38559 -0.815964 0
M  V30 29233 O 2709.55 -1.60906 -0.667459 0
M  V30 29234 C 2706.69 -3.19022 -1.20158 0
M  V30 29235 H 2707.88 -2.94053 0.589308 0
M  V30 29236 H 2705.43 -1.52472 0.343821 0
M  V30 29237 H 2706.17 -2.58521 -1.958 0
M  V30 29238 H 2705.95 -3.85466 -0.718214 0
M  V30 29239 H 2707.44 -3.81099 -1.70743 0
M  V30 29240 N 2707.88 -0.323668 -1.54241 0
M  V30 29241 C 2709.11 0.280835 -2.04985 0
M  V30 29242 C 2709.52 1.45774 -1.1998 0
M  V30 29243 O 2708.88 1.81038 -0.230503 0
M  V30 29244 C 2708.93 0.715195 -3.54355 0
M  V30 29245 O 2708.65 -0.414893 -4.36131 0
M  V30 29246 C 2710.15 1.3825 -4.21191 0
M  V30 29247 H 2707.37 0.0577385 -0.668511 0
M  V30 29248 H 2709.92 -0.469887 -1.99028 0
M  V30 29249 H 2708.07 1.41589 -3.60598 0
M  V30 29250 H 2708.49 -0.0726148 -5.2445 0
M  V30 29251 H 2709.96 1.63736 -5.27157 0
M  V30 29252 H 2710.44 2.32982 -3.72311 0
M  V30 29253 H 2711.04 0.724373 -4.19086 0
M  V30 29254 N 2709.36 1.57515 -0.0518432 0
M  V30 29255 C 2710.59 1.97032 0.631361 0
M  V30 29256 C 2711 0.929409 1.64339 0
M  V30 29257 O 2710.36 -0.0862945 1.82296 0
M  V30 29258 C 2710.41 3.3663 1.31768 0
M  V30 29259 O 2710.13 4.3673 0.34617 0
M  V30 29260 C 2711.63 3.90909 2.09058 0
M  V30 29261 H 2708.85 0.648431 0.172565 0
M  V30 29262 H 2711.39 2.04157 -0.118342 0
M  V30 29263 H 2709.55 3.30652 2.01861 0
M  V30 29264 H 2709.96 5.17792 0.836135 0
M  V30 29265 H 2711.44 4.90865 2.52499 0
M  V30 29266 H 2711.91 3.26371 2.93902 0
M  V30 29267 H 2712.52 4.00225 1.43875 0
M  V30 29268 N 2710.84 -0.221546 1.56035 0
M  V30 29269 C 2711.8 -1.25807 1.91586 0
M  V30 29270 C 2712.8 -1.39804 0.794449 0
M  V30 29271 O 2713.99 -1.38069 1.0622 0
M  V30 29272 C 2711.12 -2.63188 2.16668 0
M  V30 29273 H 2712.31 -0.954885 2.84292 0
M  V30 29274 H 2709.87 -0.461961 1.49317 0
M  V30 29275 H 2710.6 -2.98605 1.26514 0
M  V30 29276 H 2710.39 -2.54405 2.98363 0
M  V30 29277 H 2711.88 -3.37984 2.45268 0
M  V30 29278 N 2712.31 -1.49846 -0.48825 0
M  V30 29279 C 2713.28 -1.66922 -1.57066 0
M  V30 29280 C 2714.28 -0.540505 -1.51444 0
M  V30 29281 O 2715.47 -0.807215 -1.54369 0
M  V30 29282 C 2712.6 -1.67849 -2.96715 0
M  V30 29283 H 2713.79 -2.63476 -1.43249 0
M  V30 29284 H 2711.34 -1.39069 -0.71341 0
M  V30 29285 H 2712.08 -0.729256 -3.15994 0
M  V30 29286 H 2711.86 -2.49831 -3.02203 0
M  V30 29287 H 2713.35 -1.83073 -3.75332 0
M  V30 29288 N 2713.79 0.740218 -1.39135 0
M  V30 29289 C 2715.02 1.52947 -1.39337 0
M  V30 29290 C 2715.43 1.88795 0.0134676 0
M  V30 29291 O 2714.79 1.53732 0.983497 0
M  V30 29292 C 2714.84 2.8203 -2.26145 0
M  V30 29293 O 2714.56 2.47706 -3.61349 0
M  V30 29294 C 2716.06 3.7609 -2.34673 0
M  V30 29295 H 2713.28 0.47282 -0.476111 0
M  V30 29296 H 2715.83 0.915068 -1.82885 0
M  V30 29297 H 2713.98 3.39814 -1.86024 0
M  V30 29298 H 2714.4 3.30588 -4.072 0
M  V30 29299 H 2715.87 4.63574 -2.99672 0
M  V30 29300 H 2716.35 4.17472 -1.36433 0
M  V30 29301 H 2716.95 3.24226 -2.75242 0
M  V30 29302 N 2715.27 1.24225 0.969846 0
M  V30 29303 C 2716.23 1.03377 2.04563 0
M  V30 29304 C 2717.23 -0.0081638 1.60798 0
M  V30 29305 O 2718.42 0.232597 1.7264 0
M  V30 29306 C 2715.55 0.566402 3.36162 0
M  V30 29307 H 2716.75 1.98857 2.2449 0
M  V30 29308 H 2714.3 1.06417 1.14478 0
M  V30 29309 H 2715.04 -0.391694 3.21926 0
M  V30 29310 H 2714.82 1.3184 3.6927 0
M  V30 29311 H 2716.31 0.441508 4.1526 0
M  V30 29312 N 2716.75 -1.1702 1.05565 0
M  V30 29313 C 2717.98 -1.91287 0.788484 0
M  V30 29314 C 2718.39 -1.77026 -0.656287 0
M  V30 29315 O 2717.75 -1.10994 -1.44867 0
M  V30 29316 C 2717.8 -3.4223 1.1645 0
M  V30 29317 O 2717.52 -3.56056 2.55257 0
M  V30 29318 C 2719.02 -4.33563 0.924013 0
M  V30 29319 H 2716.24 -0.606808 0.2864 0
M  V30 29320 H 2718.78 -1.48373 1.40733 0
M  V30 29321 H 2716.94 -3.82876 0.590333 0
M  V30 29322 H 2717.35 -4.49604 2.70105 0
M  V30 29323 H 2718.83 -5.37965 1.23682 0
M  V30 29324 H 2719.3 -4.38975 -0.140611 0
M  V30 29325 H 2719.91 -3.98636 1.48221 0
M  V30 29326 N 2718.23 -0.837197 -1.33524 0
M  V30 29327 C 2719.45 -0.44553 -2.02046 0
M  V30 29328 C 2719.87 0.952759 -1.62997 0
M  V30 29329 O 2719.23 1.61891 -0.842475 0
M  V30 29330 C 2719.28 -0.554639 -3.5722 0
M  V30 29331 O 2719 -1.89783 -3.94859 0
M  V30 29332 C 2720.5 -0.159711 -4.43012 0
M  V30 29333 H 2717.72 -0.177059 -0.647218 0
M  V30 29334 H 2720.26 -1.12931 -1.7049 0
M  V30 29335 H 2718.42 0.08121 -3.87315 0
M  V30 29336 H 2718.83 -1.88217 -4.89566 0
M  V30 29337 H 2720.31 -0.287107 -5.51253 0
M  V30 29338 H 2720.78 0.898213 -4.29917 0
M  V30 29339 H 2721.39 -0.769929 -4.18273 0
M  V30 29340 N 2719.7 1.45999 -0.593476 0
M  V30 29341 C 2720.93 2.06708 -0.0891297 0
M  V30 29342 C 2721.35 1.44048 1.22048 0
M  V30 29343 O 2720.7 0.549581 1.74028 0
M  V30 29344 C 2720.75 3.61428 0.0719628 0
M  V30 29345 O 2720.48 4.21746 -1.18582 0
M  V30 29346 C 2721.98 4.39091 0.60941 0
M  V30 29347 H 2719.2 0.668095 -0.0623745 0
M  V30 29348 H 2721.74 1.87462 -0.817204 0
M  V30 29349 H 2719.9 3.80065 0.750302 0
M  V30 29350 H 2720.31 5.14752 -1.00649 0
M  V30 29351 H 2721.78 5.47903 0.671267 0
M  V30 29352 H 2722.26 4.07884 1.62871 0
M  V30 29353 H 2722.87 4.25286 -0.0344148 0
M  V30 29354 N 2721.18 0.331843 1.54067 0
M  V30 29355 C 2722.15 -0.517729 2.23276 0
M  V30 29356 C 2723.15 -1.03695 1.22898 0
M  V30 29357 O 2724.34 -0.928058 1.4742 0
M  V30 29358 C 2721.47 -1.71998 2.94329 0
M  V30 29359 H 2722.66 0.0874034 2.99773 0
M  V30 29360 H 2720.21 0.0830317 1.56079 0
M  V30 29361 H 2720.95 -2.36413 2.2199 0
M  V30 29362 H 2720.73 -1.355 3.67943 0
M  V30 29363 H 2722.22 -2.32285 3.47035 0
M  V30 29364 N 2722.66 -1.57485 0.0601958 0
M  V30 29365 C 2723.89 -1.97778 -0.624381 0
M  V30 29366 C 2724.31 -0.937896 -1.63049 0
M  V30 29367 O 2723.67 0.0978527 -1.81036 0
M  V30 29368 C 2723.72 -3.37128 -1.27973 0
M  V30 29369 O 2722.82 -3.35692 -2.3955 0
M  V30 29370 H 2722.16 -0.644043 -0.16157 0
M  V30 29371 H 2724.69 -2.04178 0.131272 0
M  V30 29372 H 2724.7 -3.74056 -1.6293 0
M  V30 29373 H 2723.38 -4.12348 -0.542428 0
M  V30 29374 H 2721.95 -3.10521 -2.06473 0
M  V30 29375 N 2724.14 0.213268 -1.5615 0
M  V30 29376 C 2725.37 0.953106 -1.8364 0
M  V30 29377 C 2725.78 1.77607 -0.640393 0
M  V30 29378 O 2725.14 1.78261 0.39104 0
M  V30 29379 C 2725.19 1.86399 -3.09738 0
M  V30 29380 O 2724.91 1.07428 -4.24725 0
M  V30 29381 C 2726.41 2.71703 -3.50274 0
M  V30 29382 H 2723.63 0.278951 -0.610268 0
M  V30 29383 H 2726.18 0.225999 -2.03247 0
M  V30 29384 H 2724.33 2.54495 -2.92081 0
M  V30 29385 H 2724.74 1.69335 -4.96413 0
M  V30 29386 H 2726.22 3.31305 -4.41521 0
M  V30 29387 H 2726.7 3.44511 -2.72412 0
M  V30 29388 H 2727.3 2.09008 -3.70399 0
M  V30 29389 N 2725.62 1.50103 0.480296 0
M  V30 29390 C 2726.53 1.71064 1.60544 0
M  V30 29391 C 2727.54 0.593558 1.63563 0
M  V30 29392 O 2728.72 0.870782 1.81602 0
M  V30 29393 C 2725.78 1.79176 2.96811 0
M  V30 29394 C 2724.84 3.02867 3.04254 0
M  V30 29395 C 2724.08 3.10582 4.34021 0
M  V30 29396 O 2724.3 2.25332 5.24005 0
M  V30 29397 O 2723.23 4.0323 4.46866 0
M  V30 29398 H 2727.06 2.66422 1.45783 0
M  V30 29399 H 2724.65 1.3409 0.658814 0
M  V30 29400 H 2726.53 1.86745 3.77762 0
M  V30 29401 H 2725.2 0.870002 3.11789 0
M  V30 29402 H 2724.11 3.00803 2.22414 0
M  V30 29403 H 2725.44 3.94591 2.94209 0
M  V30 29404 N 2727.09 -0.732829 1.39526 0
M  V30 29405 C 2728.34 -1.48948 1.36597 0
M  V30 29406 C 2728.66 -1.94965 -0.0367165 0
M  V30 29407 O 2727.93 -1.6914 -0.988362 0
M  V30 29408 H 2726.51 -0.552557 0.502683 0
M  V30 29409 H 2729.18 -0.869839 1.74413 0
M  V30 29410 H 2728.27 -2.37057 2.03004 0
M  V30 29411 N 2728.57 -1.24737 -0.963244 0
M  V30 29412 C 2729.8 -1.11785 -1.74697 0
M  V30 29413 C 2730.22 0.325226 -1.85267 0
M  V30 29414 O 2729.58 1.23551 -1.32683 0
M  V30 29415 C 2729.63 -1.76737 -3.14319 0
M  V30 29416 O 2728.73 -1.04116 -3.99041 0
M  V30 29417 H 2728.07 -0.390777 -0.536833 0
M  V30 29418 H 2730.6 -1.65133 -1.20798 0
M  V30 29419 H 2730.61 -1.82674 -3.64821 0
M  V30 29420 H 2729.29 -2.81732 -3.05941 0
M  V30 29421 H 2727.87 -1.05998 -3.57518 0
M  V30 29422 N 2730.05 1.16459 -1.06184 0
M  V30 29423 C 2731 2.22869 -0.665755 0
M  V30 29424 C 2731.99 1.66392 0.317793 0
M  V30 29425 O 2733.2 1.7907 0.182776 0
M  V30 29426 H 2729.57 0.725694 -0.197161 0
M  V30 29427 H 2731.54 2.53566 -1.57312 0
M  V30 29428 C 2730.29 3.47635 -0.0670414 0
M  V30 29429 H 2729.62 3.91406 -0.814968 0
M  V30 29430 H 2731.06 4.23649 0.172594 0
M  V30 29431 C 2729.52 3.15218 1.18907 0
M  V30 29432 O 2730.05 3.3092 2.27717 0
M  V30 29433 N 2728.25 2.69358 1.09061 0
M  V30 29434 H 2727.8 2.56782 0.205135 0
M  V30 29435 H 2727.76 2.48042 1.9319 0
M  V30 29436 N 2731.53 0.844266 1.33079 0
M  V30 29437 C 2732.75 0.455318 2.0234 0
M  V30 29438 C 2733.18 -0.937342 1.63081 0
M  V30 29439 O 2732.54 -1.61383 0.826147 0
M  V30 29440 C 2732.58 0.589942 3.55742 0
M  V30 29441 O 2731.69 -0.381588 4.10631 0
M  V30 29442 H 2731.03 0.184354 0.637895 0
M  V30 29443 H 2733.56 1.14059 1.69858 0
M  V30 29444 H 2733.57 0.473593 4.05242 0
M  V30 29445 H 2732.24 1.60556 3.8366 0
M  V30 29446 H 2730.82 -0.222344 3.72237 0
M  V30 29447 N 2733.01 -1.45682 0.60121 0
M  V30 29448 C 2733.92 -2.34275 -0.123354 0
M  V30 29449 C 2734.93 -1.50862 -0.866994 0
M  V30 29450 O 2736.11 -1.83682 -0.826017 0
M  V30 29451 C 2733.17 -3.28372 -1.11231 0
M  V30 29452 C 2732.23 -4.27691 -0.37133 0
M  V30 29453 C 2731.47 -5.17292 -1.31318 0
M  V30 29454 O 2731.69 -5.10192 -2.55069 0
M  V30 29455 O 2730.62 -5.96374 -0.813706 0
M  V30 29456 H 2734.45 -2.97622 0.604535 0
M  V30 29457 H 2732.04 -1.4496 0.361503 0
M  V30 29458 H 2733.92 -3.86373 -1.68208 0
M  V30 29459 H 2732.59 -2.67598 -1.82134 0
M  V30 29460 H 2731.5 -3.73325 0.240736 0
M  V30 29461 H 2732.83 -4.91303 0.297085 0
M  V30 29462 N 2734.48 -0.340009 -1.53889 0
M  V30 29463 C 2735.71 0.261761 -2.05742 0
M  V30 29464 C 2736.13 1.43715 -1.21357 0
M  V30 29465 O 2735.49 1.7988 -0.226481 0
M  V30 29466 C 2735.54 0.658165 -3.54543 0
M  V30 29467 O 2734.64 1.75862 -3.73023 0
M  V30 29468 H 2733.99 0.0441556 -0.66253 0
M  V30 29469 H 2736.52 -0.493196 -1.98567 0
M  V30 29470 H 2736.53 0.936298 -3.97111 0
M  V30 29471 H 2735.2 -0.201431 -4.15412 0
M  V30 29472 H 2733.78 1.47803 -3.42358 0
M  V30 29473 N 2735.96 1.57451 -0.0685468 0
M  V30 29474 C 2736.87 2.16036 0.914639 0
M  V30 29475 C 2737.89 1.12267 1.32936 0
M  V30 29476 O 2739.07 1.44518 1.40273 0
M  V30 29477 C 2736.13 2.70781 2.16514 0
M  V30 29478 C 2735.19 3.89411 1.80714 0
M  V30 29479 C 2734.42 4.41536 2.99803 0
M  V30 29480 O 2734.65 3.92673 4.1372 0
M  V30 29481 O 2733.58 5.32908 2.79808 0
M  V30 29482 H 2737.41 3.00403 0.446311 0
M  V30 29483 H 2734.99 1.48601 0.154341 0
M  V30 29484 H 2736.87 3.05883 2.89851 0
M  V30 29485 H 2735.55 1.89476 2.62451 0
M  V30 29486 H 2734.46 3.59168 1.0464 0
M  V30 29487 H 2735.79 4.71999 1.39562 0
M  V30 29488 N 2737.44 -0.204984 1.56261 0
M  V30 29489 C 2738.4 -1.23768 1.9291 0
M  V30 29490 C 2739.4 -1.38953 0.809233 0
M  V30 29491 O 2740.59 -1.36935 1.07678 0
M  V30 29492 C 2737.73 -2.60875 2.19447 0
M  V30 29493 H 2738.92 -0.924678 2.85289 0
M  V30 29494 H 2736.47 -0.446098 1.49799 0
M  V30 29495 H 2737.21 -2.97246 1.29674 0
M  V30 29496 H 2736.99 -2.51226 3.01044 0
M  V30 29497 H 2738.48 -3.35364 2.48839 0
M  V30 29498 N 2738.92 -1.50356 -0.472329 0
M  V30 29499 C 2739.83 -1.71913 -1.59634 0
M  V30 29500 C 2740.85 -0.602224 -1.63246 0
M  V30 29501 O 2742.02 -0.880401 -1.81138 0
M  V30 29502 C 2739.09 -1.80748 -2.95857 0
M  V30 29503 C 2738.15 -3.04476 -3.02643 0
M  V30 29504 C 2737.38 -3.12879 -4.32368 0
M  V30 29505 O 2737.6 -2.28108 -5.22803 0
M  V30 29506 O 2736.54 -4.05595 -4.44721 0
M  V30 29507 H 2740.36 -2.67192 -1.44369 0
M  V30 29508 H 2737.95 -1.34437 -0.651694 0
M  V30 29509 H 2739.83 -1.88746 -3.76767 0
M  V30 29510 H 2738.51 -0.886524 -3.11324 0
M  V30 29511 H 2737.41 -3.01979 -2.20816 0
M  V30 29512 H 2738.75 -3.96145 -2.92112 0
M  V30 29513 N 2740.4 0.725419 -1.39912 0
M  V30 29514 C 2741.62 1.51968 -1.4114 0
M  V30 29515 C 2742.05 1.88097 -0.010295 0
M  V30 29516 O 2741.41 1.52585 0.979157 0
M  V30 29517 C 2741.45 2.77773 -2.29945 0
M  V30 29518 O 2740.56 3.74085 -1.73593 0
M  V30 29519 H 2739.9 0.458561 -0.480227 0
M  V30 29520 H 2742.43 0.894217 -1.84024 0
M  V30 29521 H 2742.44 3.26407 -2.44791 0
M  V30 29522 H 2741.11 2.5081 -3.31764 0
M  V30 29523 H 2739.69 3.32891 -1.68041 0
M  V30 29524 N 2741.88 1.25246 0.956615 0
M  V30 29525 C 2743.1 1.12611 1.73569 0
M  V30 29526 C 2743.52 -0.320292 1.86063 0
M  V30 29527 O 2742.88 -1.22039 1.35693 0
M  V30 29528 C 2742.93 1.77274 3.1505 0
M  V30 29529 O 2742.65 3.1626 3.03169 0
M  V30 29530 C 2744.15 1.70393 4.09245 0
M  V30 29531 H 2741.37 0.392888 0.543948 0
M  V30 29532 H 2743.91 1.6557 1.20028 0
M  V30 29533 H 2742.07 1.2829 3.65541 0
M  V30 29534 H 2742.48 3.48022 3.92404 0
M  V30 29535 H 2743.96 2.203 5.06134 0
M  V30 29536 H 2744.43 0.667315 4.34101 0
M  V30 29537 H 2745.04 2.18855 3.64668 0
M  V30 29538 N 2743.35 -1.15894 1.068 0
M  V30 29539 C 2744.26 -2.24081 0.694603 0
M  V30 29540 C 2745.28 -1.71538 -0.291657 0
M  V30 29541 O 2746.46 -2.00915 -0.139688 0
M  V30 29542 C 2743.52 -3.46577 0.0921623 0
M  V30 29543 C 2742.58 -4.14135 1.13095 0
M  V30 29544 C 2741.81 -5.30784 0.557158 0
M  V30 29545 O 2742.04 -5.66927 -0.628523 0
M  V30 29546 O 2740.97 -5.87708 1.29934 0
M  V30 29547 H 2744.8 -2.58341 1.59668 0
M  V30 29548 H 2742.38 -1.23508 0.840597 0
M  V30 29549 H 2744.26 -4.20706 -0.24181 0
M  V30 29550 H 2742.94 -3.14079 -0.783315 0
M  V30 29551 H 2741.85 -3.41954 1.51718 0
M  V30 29552 H 2743.18 -4.507 1.97813 0
M  V30 29553 N 2744.83 -0.851312 -1.32629 0
M  V30 29554 C 2745.78 -0.282242 -2.30881 0
M  V30 29555 C 2746.77 0.592562 -1.58698 0
M  V30 29556 O 2747.98 0.480737 -1.73462 0
M  V30 29557 H 2744.35 -0.0725618 -0.748491 0
M  V30 29558 H 2746.33 -1.12521 -2.76372 0
M  V30 29559 C 2745.07 0.517389 -3.43829 0
M  V30 29560 H 2744.4 -0.146463 -3.99532 0
M  V30 29561 H 2745.84 0.881207 -4.14742 0
M  V30 29562 C 2744.3 1.70127 -2.90789 0
M  V30 29563 O 2744.83 2.80029 -2.88005 0
M  V30 29564 N 2743.03 1.52724 -2.47232 0
M  V30 29565 H 2742.58 0.633213 -2.49696 0
M  V30 29566 H 2742.54 2.32082 -2.12098 0
M  V30 29567 N 2746.31 1.45361 -0.608928 0
M  V30 29568 C 2747.53 2.07112 -0.109246 0
M  V30 29569 C 2747.96 1.45035 1.19776 0
M  V30 29570 O 2747.32 0.543558 1.7296 0
M  V30 29571 C 2747.37 3.60597 0.0155111 0
M  V30 29572 O 2746.47 3.98401 1.06539 0
M  V30 29573 H 2745.81 0.659788 -0.0746735 0
M  V30 29574 H 2748.34 1.86592 -0.839316 0
M  V30 29575 H 2748.35 4.07442 0.213293 0
M  V30 29576 H 2747.03 4.05165 -0.938836 0
M  V30 29577 H 2745.6 3.63224 0.84396 0
M  V30 29578 N 2747.79 0.348166 1.53706 0
M  V30 29579 C 2749.2 -0.134764 1.86213 0
M  V30 29580 C 2749.55 -1.49612 1.26928 0
M  V30 29581 O 2748.67 -2.08354 0.584609 0
M  V30 29582 C 2749.27 -0.251312 3.37867 0
M  V30 29583 C 2747.83 -0.678478 3.70235 0
M  V30 29584 C 2746.98 0.184974 2.76682 0
M  V30 29585 H 2749.93 0.567597 1.48203 0
M  V30 29586 H 2749.95 -1.078 3.6491 0
M  V30 29587 H 2749.46 0.739648 3.80987 0
M  V30 29588 H 2747.56 -1.6783 3.32662 0
M  V30 29589 H 2747.67 -0.465168 4.76836 0
M  V30 29590 H 2746.04 -0.34342 2.52374 0
M  V30 29591 H 2746.82 1.17315 3.22633 0
M  V30 29592 N 2749.27 -1.57412 0.0768958 0
M  V30 29593 C 2750.49 -1.98011 -0.599935 0
M  V30 29594 C 2750.91 -0.955436 -1.6284 0
M  V30 29595 O 2750.27 0.0572819 -1.8241 0
M  V30 29596 C 2750.32 -3.38683 -1.26396 0
M  V30 29597 O 2750.04 -4.37226 -0.276646 0
M  V30 29598 C 2751.54 -3.94185 -2.02813 0
M  V30 29599 H 2748.76 -0.651094 -0.162227 0
M  V30 29600 H 2751.3 -2.03943 0.150807 0
M  V30 29601 H 2749.46 -3.33822 -1.96575 0
M  V30 29602 H 2749.87 -5.19057 -0.753653 0
M  V30 29603 H 2751.35 -4.9482 -2.44658 0
M  V30 29604 H 2751.82 -3.31006 -2.88672 0
M  V30 29605 H 2752.43 -4.02463 -1.37489 0
M  V30 29606 N 2750.74 0.196695 -1.56368 0
M  V30 29607 C 2752.16 0.761515 -1.70464 0
M  V30 29608 C 2752.51 1.83921 -0.683193 0
M  V30 29609 O 2751.63 2.15802 0.160715 0
M  V30 29610 C 2752.23 1.38809 -3.09059 0
M  V30 29611 C 2750.79 1.90001 -3.24926 0
M  V30 29612 C 2749.93 0.769352 -2.66414 0
M  V30 29613 H 2752.88 -0.0283542 -1.58675 0
M  V30 29614 H 2752.9 2.25745 -3.063 0
M  V30 29615 H 2752.42 0.603491 -3.83379 0
M  V30 29616 H 2750.52 2.71184 -2.55519 0
M  V30 29617 H 2750.63 2.0629 -4.32413 0
M  V30 29618 H 2748.99 1.18322 -2.25548 0
M  V30 29619 H 2749.78 -0.00297808 -3.433 0
M  V30 29620 N 2752.22 1.50604 0.464349 0
M  V30 29621 C 2753.45 1.65973 1.24369 0
M  V30 29622 C 2753.87 0.345486 1.849 0
M  V30 29623 O 2753.23 -0.691427 1.67598 0
M  V30 29624 C 2753.28 2.75784 2.32326 0
M  V30 29625 O 2752.38 2.37506 3.37142 0
M  V30 29626 H 2751.72 0.554289 0.365595 0
M  V30 29627 H 2754.25 1.97019 0.551796 0
M  V30 29628 H 2754.26 2.99064 2.77534 0
M  V30 29629 H 2752.94 3.71165 1.87642 0
M  V30 29630 H 2751.52 2.24699 2.97598 0
M  V30 29631 N 2753.7 -0.717989 1.40295 0
M  V30 29632 C 2755.11 -1.29703 1.34291 0
M  V30 29633 C 2755.46 -1.96194 0.0152573 0
M  V30 29634 O 2754.59 -1.97396 -0.886785 0
M  V30 29635 C 2755.18 -2.35855 2.43223 0
M  V30 29636 C 2753.74 -2.8939 2.40687 0
M  V30 29637 C 2752.89 -1.6315 2.24226 0
M  V30 29638 H 2755.84 -0.514286 1.50136 0
M  V30 29639 H 2755.86 -3.16643 2.10992 0
M  V30 29640 H 2755.37 -1.87433 3.39839 0
M  V30 29641 H 2753.47 -3.42049 1.47762 0
M  V30 29642 H 2753.59 -3.41347 3.36183 0
M  V30 29643 H 2751.95 -1.88126 1.71699 0
M  V30 29644 H 2752.73 -1.16755 3.22836 0
M  V30 29645 N 2755.18 -1.25752 -0.94996 0
M  V30 29646 C 2756.11 -1.09032 -2.06481 0
M  V30 29647 C 2757.09 0.00198542 -1.701 0
M  V30 29648 O 2758.27 -0.168417 -1.93468 0
M  V30 29649 C 2755.4 -0.71322 -3.39898 0
M  V30 29650 C 2754.36 -1.75628 -3.90306 0
M  V30 29651 C 2753.68 -1.23374 -5.20272 0
M  V30 29652 C 2754.98 -3.15603 -4.16163 0
M  V30 29653 H 2756.68 -2.02287 -2.20727 0
M  V30 29654 H 2754.22 -0.973983 -1.06064 0
M  V30 29655 H 2756.18 -0.583164 -4.17345 0
M  V30 29656 H 2754.9 0.255034 -3.25603 0
M  V30 29657 H 2753.56 -1.87485 -3.15031 0
M  V30 29658 H 2753.21 -0.255579 -5.0235 0
M  V30 29659 H 2752.91 -1.93092 -5.54968 0
M  V30 29660 H 2754.43 -1.11617 -6.00312 0
M  V30 29661 H 2755.85 -3.06873 -4.84254 0
M  V30 29662 H 2754.24 -3.82834 -4.62124 0
M  V30 29663 H 2755.31 -3.62315 -3.22266 0
M  V30 29664 N 2756.66 1.15326 -1.07413 0
M  V30 29665 C 2757.59 2.19702 -0.652962 0
M  V30 29666 C 2758.6 1.60108 0.29484 0
M  V30 29667 O 2759.79 1.78302 0.0840618 0
M  V30 29668 C 2756.89 3.38844 0.0613744 0
M  V30 29669 C 2756.06 4.27982 -0.902771 0
M  V30 29670 C 2755.12 5.25716 -0.225613 0
M  V30 29671 O 2754.15 5.6256 -0.866858 0
M  V30 29672 N 2755.35 5.71317 1.02848 0
M  V30 29673 H 2758.12 2.56454 -1.55085 0
M  V30 29674 H 2755.68 1.30448 -0.958906 0
M  V30 29675 H 2757.67 4.01279 0.525074 0
M  V30 29676 H 2756.24 3.00503 0.861216 0
M  V30 29677 H 2755.46 3.62637 -1.54557 0
M  V30 29678 H 2756.75 4.84409 -1.55645 0
M  V30 29679 H 2756.14 5.43495 1.56938 0
M  V30 29680 H 2754.7 6.35788 1.43584 0
M  V30 29681 N 2758.13 0.858334 1.32176 0
M  V30 29682 C 2759.08 0.303647 2.28794 0
M  V30 29683 C 2760.05 -0.591426 1.55214 0
M  V30 29684 O 2761.24 -0.525553 1.83419 0
M  V30 29685 C 2758.38 -0.49883 3.41476 0
M  V30 29686 C 2757.49 0.422448 4.2993 0
M  V30 29687 C 2756.62 -0.393018 5.29744 0
M  V30 29688 C 2755.66 0.525425 6.09841 0
M  V30 29689 N 2754.8 -0.253084 7.01644 0
M  V30 29690 H 2759.64 1.13281 2.75629 0
M  V30 29691 H 2757.18 0.570049 1.35605 0
M  V30 29692 H 2759.14 -0.979755 4.05533 0
M  V30 29693 H 2757.77 -1.29279 2.95782 0
M  V30 29694 H 2756.82 1.02178 3.6642 0
M  V30 29695 H 2758.13 1.12717 4.85897 0
M  V30 29696 H 2757.28 -0.936951 5.99421 0
M  V30 29697 H 2756.02 -1.13109 4.74402 0
M  V30 29698 H 2755.03 1.08121 5.39064 0
M  V30 29699 H 2756.25 1.26216 6.67268 0
M  V30 29700 H 2754.2 -0.974181 6.48726 0
M  V30 29701 H 2754.12 0.392531 7.5498 0
M  V30 29702 H 2755.38 -0.778625 7.75602 0
M  V30 29703 N 2759.61 -1.45036 0.616628 0
M  V30 29704 C 2760.56 -2.30596 -0.0969034 0
M  V30 29705 C 2761.53 -1.42636 -0.851126 0
M  V30 29706 O 2762.71 -1.71556 -0.835062 0
M  V30 29707 C 2759.85 -3.2769 -1.08229 0
M  V30 29708 C 2758.97 -4.30753 -0.327996 0
M  V30 29709 C 2758.1 -5.14948 -1.3039 0
M  V30 29710 C 2757.14 -6.09732 -0.537942 0
M  V30 29711 N 2756.28 -6.86676 -1.46358 0
M  V30 29712 H 2761.12 -2.91075 0.638692 0
M  V30 29713 H 2758.66 -1.43425 0.326758 0
M  V30 29714 H 2760.61 -3.82457 -1.66682 0
M  V30 29715 H 2759.24 -2.68944 -1.78519 0
M  V30 29716 H 2758.3 -3.78575 0.372202 0
M  V30 29717 H 2759.61 -4.98073 0.26923 0
M  V30 29718 H 2758.76 -5.74161 -1.96022 0
M  V30 29719 H 2757.5 -4.47668 -1.93506 0
M  V30 29720 H 2756.51 -5.49642 0.131949 0
M  V30 29721 H 2757.73 -6.79043 0.0882925 0
M  V30 29722 H 2755.68 -6.22077 -2.08222 0
M  V30 29723 H 2755.59 -7.50381 -0.92002 0
M  V30 29724 H 2756.86 -7.50422 -2.10919 0
M  V30 29725 N 2761.09 -0.356312 -1.53519 0
M  V30 29726 C 2762.34 0.236618 -2.01415 0
M  V30 29727 C 2762.67 1.49174 -1.24341 0
M  V30 29728 O 2761.94 1.91602 -0.33453 0
M  V30 29729 C 2762.23 0.53792 -3.5606 0
M  V30 29730 C 2762.08 -0.73019 -4.43834 0
M  V30 29731 C 2763.4 1.34232 -4.1913 0
M  V30 29732 H 2760.52 0.0845258 -0.732137 0
M  V30 29733 H 2763.16 -0.479373 -1.83853 0
M  V30 29734 H 2761.31 1.14788 -3.71155 0
M  V30 29735 H 2762.98 -1.3679 -4.40552 0
M  V30 29736 H 2761.23 -1.35247 -4.12178 0
M  V30 29737 H 2761.9 -0.474455 -5.49957 0
M  V30 29738 H 2764.37 0.826426 -4.07811 0
M  V30 29739 H 2763.25 1.52188 -5.2738 0
M  V30 29740 H 2763.51 2.34816 -3.74585 0
M  V30 29741 N 2762.57 1.57369 -0.0852427 0
M  V30 29742 C 2763.8 1.98326 0.589425 0
M  V30 29743 C 2764.21 0.964059 1.62331 0
M  V30 29744 O 2763.57 -0.0476075 1.82438 0
M  V30 29745 C 2763.62 3.39349 1.24598 0
M  V30 29746 O 2763.34 4.37366 0.253455 0
M  V30 29747 C 2764.84 3.95255 2.00719 0
M  V30 29748 H 2762.06 0.651945 0.158772 0
M  V30 29749 H 2764.61 2.0386 -0.16162 0
M  V30 29750 H 2762.76 3.3486 1.94802 0
M  V30 29751 H 2763.17 5.1945 0.726115 0
M  V30 29752 H 2764.65 4.9611 2.4203 0
M  V30 29753 H 2765.13 3.32532 2.86913 0
M  V30 29754 H 2765.73 4.03187 1.35353 0
M  V30 29755 N 2764.05 -0.188399 1.5647 0
M  V30 29756 C 2764.96 -1.25376 1.98287 0
M  V30 29757 C 2765.97 -1.49423 0.891561 0
M  V30 29758 O 2767.15 -1.61906 1.19785 0
M  V30 29759 C 2764.21 -2.57665 2.31969 0
M  V30 29760 C 2763.27 -2.41631 3.54842 0
M  V30 29761 C 2762.51 -3.67611 3.86908 0
M  V30 29762 O 2762.73 -4.72066 3.20171 0
M  V30 29763 O 2761.66 -3.62741 4.80315 0
M  V30 29764 H 2765.49 -0.928861 2.89147 0
M  V30 29765 H 2763.08 -0.393929 1.44113 0
M  V30 29766 H 2764.96 -3.35733 2.54679 0
M  V30 29767 H 2763.63 -2.89769 1.44276 0
M  V30 29768 H 2762.54 -1.61652 3.37372 0
M  V30 29769 H 2763.87 -2.14457 4.43022 0
M  V30 29770 N 2765.53 -1.50848 -0.456355 0
M  V30 29771 C 2766.8 -1.531 -1.21736 0
M  V30 29772 C 2767.18 -0.284169 -2.09179 0
M  V30 29773 O 2766.53 0.731735 -2.16467 0
M  V30 29774 C 2766.74 -2.8348 -2.03568 0
M  V30 29775 C 2768.09 -3.34708 -2.61259 0
M  V30 29776 O 2769.11 -2.84902 -2.13797 0
M  V30 29777 O 2767.97 -4.21565 -3.47772 0
M  V30 29778 H 2765.07 -0.614728 -0.553208 0
M  V30 29779 H 2767.61 -1.63149 -0.466974 0
M  V30 29780 H 2766.38 -3.65694 -1.39226 0
M  V30 29781 H 2766.01 -2.76504 -2.85711 0
M  V30 29782 N 2767 0.710538 -1.40674 0
M  V30 29783 C 2767.93 1.83734 -1.44098 0
M  V30 29784 C 2768.91 1.6741 -0.301315 0
M  V30 29785 O 2770.1 1.87366 -0.510651 0
M  V30 29786 C 2767.23 3.21736 -1.30779 0
M  V30 29787 C 2766.18 3.5274 -2.42401 0
M  V30 29788 C 2765.51 4.8994 -2.14156 0
M  V30 29789 C 2766.81 3.53227 -3.84744 0
M  V30 29790 H 2768.5 1.81125 -2.38399 0
M  V30 29791 H 2766.05 0.869996 -1.14748 0
M  V30 29792 H 2768 4.00262 -1.3179 0
M  V30 29793 H 2766.73 3.24933 -0.329565 0
M  V30 29794 H 2765.39 2.76558 -2.40648 0
M  V30 29795 H 2765.03 4.89745 -1.14712 0
M  V30 29796 H 2764.73 5.1165 -2.88943 0
M  V30 29797 H 2766.26 5.70793 -2.16858 0
M  V30 29798 H 2767.67 4.21783 -3.88293 0
M  V30 29799 H 2766.07 3.86465 -4.59091 0
M  V30 29800 H 2767.14 2.52506 -4.13967 0
M  V30 29801 N 2768.48 1.26254 0.943277 0
M  V30 29802 C 2769.71 1.1455 1.72896 0
M  V30 29803 C 2770.13 -0.29571 1.85761 0
M  V30 29804 O 2769.49 -1.21425 1.34632 0
M  V30 29805 C 2769.54 1.81715 3.11467 0
M  V30 29806 O 2768.64 1.10452 3.97334 0
M  V30 29807 H 2767.98 0.399268 0.530548 0
M  V30 29808 H 2770.51 1.67034 1.18156 0
M  V30 29809 H 2770.52 1.88455 3.61868 0
M  V30 29810 H 2769.2 2.86563 3.0142 0
M  V30 29811 H 2767.77 1.11672 3.55786 0
M  V30 29812 N 2769.96 -1.14755 1.08024 0
M  V30 29813 C 2770.91 -2.19714 0.706696 0
M  V30 29814 C 2771.88 -1.63272 -0.305221 0
M  V30 29815 O 2773.06 -1.8985 -0.190117 0
M  V30 29816 C 2770.2 -3.44898 0.117975 0
M  V30 29817 C 2769.31 -4.1551 1.1822 0
M  V30 29818 C 2768.45 -5.28264 0.557752 0
M  V30 29819 C 2767.49 -5.90702 1.60428 0
M  V30 29820 N 2766.63 -6.94914 1.00192 0
M  V30 29821 H 2771.47 -2.51016 1.60608 0
M  V30 29822 H 2769 -1.2327 0.802685 0
M  V30 29823 H 2770.96 -4.16503 -0.241039 0
M  V30 29824 H 2769.59 -3.14092 -0.744733 0
M  V30 29825 H 2768.64 -3.42333 1.65869 0
M  V30 29826 H 2769.95 -4.58016 1.97541 0
M  V30 29827 H 2769.11 -6.06522 0.146761 0
M  V30 29828 H 2767.85 -4.86968 -0.267163 0
M  V30 29829 H 2766.85 -5.1115 2.02498 0
M  V30 29830 H 2768.08 -6.34074 2.43161 0
M  V30 29831 H 2766.02 -6.55701 0.198032 0
M  V30 29832 H 2765.94 -7.35886 1.73229 0
M  V30 29833 H 2767.21 -7.77057 0.61666 0
M  V30 29834 N 2771.44 -0.865331 -1.31719 0
M  V30 29835 C 2772.67 -0.488286 -2.01056 0
M  V30 29836 C 2773.08 0.917971 -1.64981 0
M  V30 29837 O 2772.44 1.60067 -0.876625 0
M  V30 29838 C 2772.49 -0.630286 -3.55963 0
M  V30 29839 O 2772.21 -1.98116 -3.90745 0
M  V30 29840 C 2773.71 -0.253645 -4.42574 0
M  V30 29841 H 2770.93 -0.190748 -0.643317 0
M  V30 29842 H 2773.47 -1.16522 -1.68056 0
M  V30 29843 H 2771.63 -0.000963517 -3.874 0
M  V30 29844 H 2772.04 -1.98559 -4.85463 0
M  V30 29845 H 2773.52 -0.403971 -5.5052 0
M  V30 29846 H 2773.99 0.806819 -4.31726 0
M  V30 29847 H 2774.6 -0.858478 -4.16546 0
M  V30 29848 N 2772.92 1.44707 -0.624311 0
M  V30 29849 C 2773.85 2.3339 0.0716615 0
M  V30 29850 C 2774.83 1.4781 0.841788 0
M  V30 29851 O 2776.01 1.76546 0.809025 0
M  V30 29852 C 2773.14 3.30778 1.05846 0
M  V30 29853 C 2772.1 4.26123 0.400428 0
M  V30 29854 C 2771.42 5.13327 1.49665 0
M  V30 29855 C 2772.72 5.17735 -0.689015 0
M  V30 29856 H 2774.42 2.91833 -0.668871 0
M  V30 29857 H 2771.96 1.40328 -0.323105 0
M  V30 29858 H 2773.91 3.91699 1.55403 0
M  V30 29859 H 2772.64 2.70529 1.8298 0
M  V30 29860 H 2771.3 3.66524 -0.0744332 0
M  V30 29861 H 2770.95 4.49435 2.25869 0
M  V30 29862 H 2770.65 5.77927 1.06177 0
M  V30 29863 H 2772.17 5.77118 1.99417 0
M  V30 29864 H 2773.58 5.72631 -0.276825 0
M  V30 29865 H 2771.98 5.90902 -1.04663 0
M  V30 29866 H 2773.05 4.59158 -1.55892 0
M  V30 29867 N 2774.39 0.364449 1.53328 0
M  V30 29868 C 2775.32 -0.474503 2.28628 0
M  V30 29869 C 2776.3 -1.0849 1.31011 0
M  V30 29870 O 2777.49 -1.10236 1.5988 0
M  V30 29871 C 2774.62 -1.61496 3.07468 0
M  V30 29872 C 2773.57 -1.13187 4.12762 0
M  V30 29873 C 2772.9 -2.36247 4.79678 0
M  V30 29874 C 2774.2 -0.217416 5.21847 0
M  V30 29875 H 2775.89 0.153708 2.99005 0
M  V30 29876 H 2773.44 0.0753659 1.43803 0
M  V30 29877 H 2775.39 -2.20849 3.58892 0
M  V30 29878 H 2774.12 -2.27038 2.34779 0
M  V30 29879 H 2772.78 -0.561026 3.62282 0
M  V30 29880 H 2772.42 -3.00243 4.03563 0
M  V30 29881 H 2772.12 -2.04596 5.50831 0
M  V30 29882 H 2773.65 -2.96288 5.33897 0
M  V30 29883 H 2775.06 -0.718393 5.68781 0
M  V30 29884 H 2773.46 0.00816956 6.00099 0
M  V30 29885 H 2774.53 0.740738 4.79209 0
M  V30 29886 N 2775.87 -1.57322 0.0935872 0
M  V30 29887 C 2776.8 -2.09597 -0.902468 0
M  V30 29888 C 2777.78 -1.00617 -1.2773 0
M  V30 29889 O 2778.97 -1.28104 -1.38281 0
M  V30 29890 C 2776.09 -2.5717 -2.20412 0
M  V30 29891 C 2775.14 -3.77793 -1.97925 0
M  V30 29892 S 2775.97 -5.21449 -1.21864 0
M  V30 29893 C 2777.13 -5.72371 -2.53263 0
M  V30 29894 H 2777.36 -2.93755 -0.457745 0
M  V30 29895 H 2774.89 -1.53936 -0.119667 0
M  V30 29896 H 2776.85 -2.85237 -2.95212 0
M  V30 29897 H 2775.51 -1.7324 -2.62005 0
M  V30 29898 H 2774.71 -4.09143 -2.94309 0
M  V30 29899 H 2774.31 -3.50212 -1.31254 0
M  V30 29900 H 2776.6 -5.80546 -3.49246 0
M  V30 29901 H 2777.54 -6.709 -2.26493 0
M  V30 29902 H 2777.95 -5.00296 -2.61466 0
M  V30 29903 N 2777.35 0.180099 -1.56568 0
M  V30 29904 C 2778.58 0.912614 -1.85351 0
M  V30 29905 C 2778.99 1.76718 -0.675826 0
M  V30 29906 O 2778.33 1.80048 0.364469 0
M  V30 29907 C 2778.39 1.84686 -3.08434 0
M  V30 29908 C 2778.06 1.17276 -4.41696 0
M  V30 29909 C 2779.05 0.542442 -5.17062 0
M  V30 29910 C 2776.74 1.17214 -4.88432 0
M  V30 29911 C 2778.73 -0.0795073 -6.3735 0
M  V30 29912 C 2776.42 0.546363 -6.08653 0
M  V30 29913 C 2777.42 -0.0783658 -6.82955 0
M  V30 29914 O 2777.11 -0.694299 -8.00896 0
M  V30 29915 H 2776.84 0.271025 -0.619291 0
M  V30 29916 H 2779.39 0.187732 -2.0454 0
M  V30 29917 H 2777.62 2.61183 -2.85168 0
M  V30 29918 H 2779.31 2.44845 -3.23737 0
M  V30 29919 H 2780.08 0.53496 -4.82041 0
M  V30 29920 H 2775.96 1.6478 -4.30544 0
M  V30 29921 H 2779.5 -0.567734 -6.95286 0
M  V30 29922 H 2775.4 0.551397 -6.43141 0
M  V30 29923 H 2776.16 -0.592681 -8.16351 0
M  V30 29924 N 2778.83 1.51088 0.448349 0
M  V30 29925 C 2780.06 1.67002 1.2214 0
M  V30 29926 C 2780.47 0.362731 1.85283 0
M  V30 29927 O 2779.83 -0.65769 1.70237 0
M  V30 29928 C 2779.88 2.77774 2.31352 0
M  V30 29929 O 2779.6 4.03437 1.70794 0
M  V30 29930 C 2781.1 3.04861 3.2183 0
M  V30 29931 H 2778.32 0.560725 0.368549 0
M  V30 29932 H 2780.86 1.97443 0.532584 0
M  V30 29933 H 2779.02 2.49963 2.95969 0
M  V30 29934 H 2779.43 4.64872 2.42887 0
M  V30 29935 H 2780.91 3.85978 3.9462 0
M  V30 29936 H 2781.38 2.16828 3.81945 0
M  V30 29937 H 2781.99 3.3429 2.62927 0
M  V30 29938 N 2780.31 -0.703068 1.41049 0
M  V30 29939 C 2781.55 -1.46523 1.4021 0
M  V30 29940 C 2781.89 -1.94198 0.00851176 0
M  V30 29941 O 2781.16 -1.69021 -0.962407 0
M  V30 29942 C 2781.44 -2.68245 2.40243 0
M  V30 29943 C 2781.3 -2.26384 3.88678 0
M  V30 29944 C 2782.62 -3.7043 2.37634 0
M  V30 29945 H 2779.73 -0.531463 0.510603 0
M  V30 29946 H 2782.38 -0.801392 1.72272 0
M  V30 29947 H 2780.53 -3.24884 2.13032 0
M  V30 29948 H 2782.2 -1.75131 4.26763 0
M  V30 29949 H 2780.44 -1.58248 4.03906 0
M  V30 29950 H 2781.11 -3.1369 4.54205 0
M  V30 29951 H 2783.59 -3.23448 2.61765 0
M  V30 29952 H 2782.46 -4.53218 3.09653 0
M  V30 29953 H 2782.73 -4.19604 1.39231 0
M  V30 29954 N 2781.78 -1.26752 -0.936569 0
M  V30 29955 C 2783.2 -1.11412 -1.49814 0
M  V30 29956 C 2783.55 0.303981 -1.93831 0
M  V30 29957 O 2782.67 1.19597 -1.80348 0
M  V30 29958 C 2783.27 -2.01633 -2.72267 0
M  V30 29959 C 2781.83 -1.90425 -3.24677 0
M  V30 29960 C 2780.97 -1.94711 -1.9744 0
M  V30 29961 H 2783.92 -1.39775 -0.75158 0
M  V30 29962 H 2783.94 -1.56694 -3.46738 0
M  V30 29963 H 2783.46 -3.04837 -2.402 0
M  V30 29964 H 2781.56 -0.901738 -3.61524 0
M  V30 29965 H 2781.67 -2.76201 -3.91471 0
M  V30 29966 H 2780.03 -1.38822 -2.13543 0
M  V30 29967 H 2780.82 -2.99553 -1.67698 0
M  V30 29968 N 2783.26 1.1418 -1.08631 0
M  V30 29969 C 2784.23 2.17529 -0.722065 0
M  V30 29970 C 2785.23 1.58934 0.244278 0
M  V30 29971 O 2786.42 1.74184 0.0235239 0
M  V30 29972 C 2783.55 3.40835 -0.0664565 0
M  V30 29973 H 2784.74 2.51266 -1.63724 0
M  V30 29974 H 2782.29 1.28868 -0.884465 0
M  V30 29975 H 2783.03 3.1268 0.860334 0
M  V30 29976 H 2782.81 3.84631 -0.761665 0
M  V30 29977 H 2784.3 4.1724 0.173272 0
M  V30 29978 N 2784.74 0.872304 1.31258 0
M  V30 29979 C 2785.99 0.485118 1.96912 0
M  V30 29980 C 2786.32 -0.960637 1.68776 0
M  V30 29981 O 2785.59 -1.67683 0.985524 0
M  V30 29982 C 2785.88 0.745564 3.52297 0
M  V30 29983 C 2785.73 2.24102 3.89998 0
M  V30 29984 C 2787.05 0.213593 4.39581 0
M  V30 29985 H 2784.17 0.177729 0.715249 0
M  V30 29986 H 2786.81 1.09397 1.55346 0
M  V30 29987 H 2784.96 0.227344 3.87834 0
M  V30 29988 H 2786.63 2.82668 3.6455 0
M  V30 29989 H 2784.88 2.71267 3.38521 0
M  V30 29990 H 2785.55 2.3739 4.98347 0
M  V30 29991 H 2788.02 0.656974 4.10881 0
M  V30 29992 H 2786.9 0.425256 5.4725 0
M  V30 29993 H 2787.16 -0.88459 4.3316 0
M  V30 29994 N 2786.22 -1.44374 0.631976 0
M  V30 29995 C 2787.15 -2.28932 -0.11087 0
M  V30 29996 C 2788.16 -1.4133 -0.808061 0
M  V30 29997 O 2789.35 -1.65474 -0.669367 0
M  V30 29998 C 2786.45 -3.17722 -1.17923 0
M  V30 29999 C 2785.63 -4.33744 -0.564381 0
M  V30 30000 C 2784.68 -5.03562 -1.52681 0
M  V30 30001 O 2783.71 -5.59551 -1.04362 0
M  V30 30002 N 2784.91 -5.05093 -2.86114 0
M  V30 30003 H 2787.68 -2.93326 0.614809 0
M  V30 30004 H 2785.24 -1.5483 0.473199 0
M  V30 30005 H 2787.23 -3.61295 -1.82341 0
M  V30 30006 H 2785.8 -2.55072 -1.80712 0
M  V30 30007 H 2785.02 -3.93352 0.258442 0
M  V30 30008 H 2786.31 -5.08623 -0.134265 0
M  V30 30009 H 2785.71 -4.60939 -3.27951 0
M  V30 30010 H 2784.26 -5.52451 -3.45891 0
M  V30 30011 N 2787.7 -0.372575 -1.53133 0
M  V30 30012 C 2788.94 0.214499 -2.00958 0
M  V30 30013 C 2789.27 1.48709 -1.26138 0
M  V30 30014 O 2788.54 1.92245 -0.37663 0
M  V30 30015 H 2787.12 0.0822534 -0.742458 0
M  V30 30016 H 2789.78 -0.500418 -1.88366 0
M  V30 30017 H 2788.87 0.43655 -3.09032 0
M  V30 30018 N 2789.17 1.5727 -0.101929 0
M  V30 30019 C 2790.42 1.94598 0.560163 0
M  V30 30020 C 2790.75 0.98413 1.67765 0
M  V30 30021 O 2790 0.00492633 1.95699 0
M  V30 30022 C 2790.3 3.38429 1.14893 0
M  V30 30023 C 2789.97 4.50635 0.154534 0
M  V30 30024 C 2788.63 4.81053 -0.118945 0
M  V30 30025 C 2790.98 5.18559 -0.524071 0
M  V30 30026 C 2788.31 5.76719 -1.07761 0
M  V30 30027 C 2790.66 6.15254 -1.47125 0
M  V30 30028 C 2789.33 6.44073 -1.75289 0
M  V30 30029 H 2788.6 0.712085 0.204978 0
M  V30 30030 H 2791.24 1.9066 -0.179213 0
M  V30 30031 H 2789.55 3.38979 1.9647 0
M  V30 30032 H 2791.25 3.64616 1.66902 0
M  V30 30033 H 2787.84 4.26931 0.377873 0
M  V30 30034 H 2792.02 4.95229 -0.325938 0
M  V30 30035 H 2787.28 5.9736 -1.30274 0
M  V30 30036 H 2791.45 6.66977 -2.00285 0
M  V30 30037 H 2789.08 7.1801 -2.4973 0
M  V30 30038 N 2790.65 -0.171793 1.56661 0
M  V30 30039 C 2791.9 -0.888497 1.81967 0
M  V30 30040 C 2792.23 -1.82266 0.678932 0
M  V30 30041 O 2791.48 -1.92832 -0.333841 0
M  V30 30042 C 2791.78 -1.7173 3.13438 0
M  V30 30043 C 2791.45 -0.932106 4.4116 0
M  V30 30044 C 2790.11 -0.715398 4.75852 0
M  V30 30045 C 2792.46 -0.381296 5.19803 0
M  V30 30046 C 2789.79 0.0632291 5.86666 0
M  V30 30047 C 2792.14 0.38424 6.31432 0
M  V30 30048 C 2790.81 0.611754 6.64691 0
M  V30 30049 H 2790.08 -0.325124 0.665864 0
M  V30 30050 H 2792.72 -0.153462 1.90884 0
M  V30 30051 H 2791.03 -2.52171 2.99861 0
M  V30 30052 H 2792.72 -2.27487 3.30228 0
M  V30 30053 H 2789.31 -1.11105 4.13949 0
M  V30 30054 H 2793.5 -0.536061 4.93396 0
M  V30 30055 H 2788.75 0.249243 6.10892 0
M  V30 30056 H 2792.93 0.818306 6.91576 0
M  V30 30057 H 2790.56 1.21697 7.50396 0
M  V30 30058 N 2792.13 -1.51324 -0.44033 0
M  V30 30059 C 2793.55 -1.39433 -0.776576 0
M  V30 30060 C 2793.75 -0.474331 -1.95838 0
M  V30 30061 O 2792.8 0.0716248 -2.52398 0
M  V30 30062 C 2794.12 -2.81407 -1.05976 0
M  V30 30063 C 2795.66 -2.90536 -1.16437 0
M  V30 30064 C 2796.14 -4.33411 -1.4805 0
M  V30 30065 N 2797.63 -4.36503 -1.5498 0
M  V30 30066 C 2798.36 -5.44081 -1.81007 0
M  V30 30067 N 2797.86 -6.61823 -2.04847 0
M  V30 30068 N 2799.65 -5.31558 -1.82765 0
M  V30 30069 H 2791.8 -2.09693 0.338043 0
M  V30 30070 H 2794.07 -0.94383 0.0888238 0
M  V30 30071 H 2793.77 -3.50707 -0.264111 0
M  V30 30072 H 2793.65 -3.20549 -1.98816 0
M  V30 30073 H 2796.03 -2.21436 -1.95065 0
M  V30 30074 H 2796.12 -2.54894 -0.215044 0
M  V30 30075 H 2795.76 -5.0306 -0.699516 0
M  V30 30076 H 2795.69 -4.66564 -2.44184 0
M  V30 30077 H 2798.18 -3.51616 -1.38473 0
M  V30 30078 H 2798.49 -7.39604 -2.24067 0
M  V30 30079 H 2796.84 -6.64944 -2.02175 0
M  V30 30080 H 2800.03 -4.38559 -1.63658 0
M  V30 30081 H 2800.2 -6.15477 -2.02711 0
M  V30 30082 N 2793.61 0.695578 -1.41419 0
M  V30 30083 C 2794.83 1.4894 -1.44332 0
M  V30 30084 C 2795.26 1.88033 -0.0501909 0
M  V30 30085 O 2794.62 1.54628 0.946571 0
M  V30 30086 C 2794.66 2.72833 -2.35785 0
M  V30 30087 O 2793.77 3.70318 -1.81488 0
M  V30 30088 H 2793.11 0.448271 -0.489846 0
M  V30 30089 H 2795.64 0.854982 -1.8588 0
M  V30 30090 H 2795.65 3.21141 -2.51659 0
M  V30 30091 H 2794.32 2.43716 -3.37009 0
M  V30 30092 H 2792.9 3.29252 -1.75064 0
M  V30 30093 N 2795.09 1.27247 0.929833 0
M  V30 30094 C 2796.34 1.12844 1.6718 0
M  V30 30095 C 2796.65 -0.325632 1.9287 0
M  V30 30096 O 2797.86 -0.590526 2.65 0
M  V30 30097 C 2796.31 1.97156 3.01094 0
M  V30 30098 C 2795.92 3.47208 2.83109 0
M  V30 30099 C 2797.66 1.91395 3.78904 0
M  V30 30100 C 2795.57 4.23726 4.12565 0
M  V30 30101 H 2794.5 0.418708 0.627056 0
M  V30 30102 H 2797.15 1.5165 1.03317 0
M  V30 30103 H 2795.53 1.51193 3.66001 0
M  V30 30104 H 2796.71 4.01019 2.26982 0
M  V30 30105 H 2795.02 3.54325 2.1873 0
M  V30 30106 H 2797.62 2.45842 4.74832 0
M  V30 30107 H 2797.96 0.887118 4.06738 0
M  V30 30108 H 2798.5 2.35242 3.20789 0
M  V30 30109 H 2795.23 5.26925 3.89911 0
M  V30 30110 H 2794.75 3.74693 4.68364 0
M  V30 30111 H 2796.43 4.32785 4.80943 0
M  V30 30112 N 2796.57 -1.13603 1.09235 0
M  V30 30113 C 2797.79 -1.89222 0.849101 0
M  V30 30114 C 2798.22 -1.7848 -0.593844 0
M  V30 30115 O 2797.57 -1.13095 -1.41701 0
M  V30 30116 C 2797.62 -3.36871 1.28648 0
M  V30 30117 O 2796.73 -4.10006 0.443702 0
M  V30 30118 H 2796.07 -0.588412 0.30768 0
M  V30 30119 H 2798.6 -1.43745 1.45597 0
M  V30 30120 H 2798.61 -3.87697 1.27103 0
M  V30 30121 H 2797.28 -3.44007 2.33735 0
M  V30 30122 H 2795.86 -3.6921 0.523306 0
M  V30 30123 N 2798.04 -0.879253 -1.30793 0
M  V30 30124 C 2798.97 -0.357836 -2.30742 0
M  V30 30125 C 2799.95 0.556255 -1.60748 0
M  V30 30126 O 2801.14 0.471317 -1.88394 0
M  V30 30127 C 2798.27 0.433494 -3.44584 0
M  V30 30128 C 2797.22 -0.388326 -4.26235 0
M  V30 30129 C 2796.55 0.529259 -5.32074 0
M  V30 30130 C 2797.85 -1.62738 -4.963 0
M  V30 30131 H 2799.54 -1.19304 -2.74603 0
M  V30 30132 H 2797.09 -0.575127 -1.32016 0
M  V30 30133 H 2799.04 0.808861 -4.13564 0
M  V30 30134 H 2797.77 1.30229 -2.99513 0
M  V30 30135 H 2796.43 -0.745758 -3.58935 0
M  V30 30136 H 2796.07 1.3956 -4.83251 0
M  V30 30137 H 2795.77 -0.0167774 -5.87598 0
M  V30 30138 H 2797.3 0.901267 -6.03912 0
M  V30 30139 H 2798.71 -1.32293 -5.57827 0
M  V30 30140 H 2797.11 -2.11318 -5.61662 0
M  V30 30141 H 2798.18 -2.37502 -4.22754 0
M  V30 30142 N 2799.52 1.44037 -0.639624 0
M  V30 30143 C 2800.75 2.06834 -0.153153 0
M  V30 30144 C 2801.17 1.47543 1.16673 0
M  V30 30145 O 2800.53 0.580123 1.71768 0
M  V30 30146 C 2800.58 3.60548 -0.0609802 0
M  V30 30147 O 2799.68 4.00571 0.98064 0
M  V30 30148 H 2799.02 0.658055 -0.0886518 0
M  V30 30149 H 2801.55 1.8477 -0.878706 0
M  V30 30150 H 2801.56 4.07803 0.12682 0
M  V30 30151 H 2800.24 4.03082 -1.02457 0
M  V30 30152 H 2798.81 3.64933 0.766725 0
M  V30 30153 N 2801 0.380691 1.52933 0
M  V30 30154 C 2802.42 0.030271 1.59571 0
M  V30 30155 C 2802.62 -1.45391 1.39512 0
M  V30 30156 O 2801.67 -2.21739 1.20781 0
M  V30 30157 C 2802.98 0.499743 2.96518 0
M  V30 30158 C 2804.53 0.455259 3.09671 0
M  V30 30159 C 2805.01 0.900782 4.49054 0
M  V30 30160 N 2806.5 0.856447 4.55213 0
M  V30 30161 C 2807.23 1.17269 5.6128 0
M  V30 30162 N 2806.73 1.55897 6.75032 0
M  V30 30163 N 2808.52 1.0945 5.51341 0
M  V30 30164 H 2800.67 1.34703 1.64222 0
M  V30 30165 H 2802.94 0.551568 0.771023 0
M  V30 30166 H 2802.64 1.536 3.16386 0
M  V30 30167 H 2802.52 -0.105723 3.77052 0
M  V30 30168 H 2804.9 -0.571898 2.89505 0
M  V30 30169 H 2804.98 1.09642 2.31111 0
M  V30 30170 H 2804.63 1.92613 4.6996 0
M  V30 30171 H 2804.56 0.236721 5.26068 0
M  V30 30172 H 2807.05 0.572079 3.73545 0
M  V30 30173 H 2807.36 1.78413 7.51923 0
M  V30 30174 H 2805.71 1.59776 6.76385 0
M  V30 30175 H 2808.9 0.791794 4.61355 0
M  V30 30176 H 2809.07 1.34428 6.33903 0
M  V30 30177 N 2802.48 -1.57214 0.110268 0
M  V30 30178 C 2803.73 -1.94507 -0.548749 0
M  V30 30179 C 2804.05 -0.993889 -1.6777 0
M  V30 30180 O 2803.32 -0.0486185 -1.9584 0
M  V30 30181 H 2801.9 -0.718119 -0.205702 0
M  V30 30182 H 2804.56 -1.94093 0.177161 0
M  V30 30183 H 2803.65 -2.97321 -0.949043 0
M  V30 30184 N 2803.96 0.163482 -1.5675 0
M  V30 30185 C 2804.9 1.22155 -1.97941 0
M  V30 30186 C 2805.9 1.45394 -0.869314 0
M  V30 30187 O 2807.1 1.45881 -1.05445 0
M  V30 30188 H 2803.48 0.410804 -0.629876 0
M  V30 30189 H 2805.45 0.84733 -2.86117 0
M  V30 30190 C 2804.2 2.55147 -2.3621 0
M  V30 30191 H 2803.52 2.38091 -3.21174 0
M  V30 30192 H 2804.96 3.2785 -2.68869 0
M  V30 30193 C 2803.42 3.1448 -1.20847 0
M  V30 30194 O 2803.95 3.98572 -0.500328 0
M  V30 30195 N 2802.16 2.73685 -0.976991 0
M  V30 30196 H 2801.7 2.05402 -1.5546 0
M  V30 30197 H 2801.66 3.13718 -0.206967 0
M  V30 30198 N 2805.43 1.51555 0.432299 0
M  V30 30199 C 2806.38 1.73813 1.54569 0
M  V30 30200 C 2807.38 0.604566 1.58245 0
M  V30 30201 O 2808.58 0.78607 1.61929 0
M  V30 30202 H 2804.96 0.549274 0.513617 0
M  V30 30203 H 2806.93 2.67135 1.32972 0
M  V30 30204 C 2805.68 1.88488 2.92177 0
M  V30 30205 H 2805 2.75121 2.90083 0
M  V30 30206 H 2806.44 2.08072 3.69435 0
M  V30 30207 C 2804.9 0.645967 3.30649 0
M  V30 30208 O 2805.43 -0.197022 4.01217 0
M  V30 30209 N 2803.63 0.488588 2.86463 0
M  V30 30210 H 2803.18 1.17566 2.29207 0
M  V30 30211 H 2803.14 -0.339101 3.12566 0
M  V30 30212 N 2806.91 -0.688069 1.41786 0
M  V30 30213 C 2807.84 -1.81418 1.47003 0
M  V30 30214 C 2808.82 -1.66909 0.32791 0
M  V30 30215 O 2810.01 -1.8653 0.540395 0
M  V30 30216 C 2807.14 -3.19615 1.35881 0
M  V30 30217 C 2806.09 -3.48839 2.47982 0
M  V30 30218 C 2805.42 -4.86471 2.21923 0
M  V30 30219 C 2806.72 -3.47061 3.90315 0
M  V30 30220 H 2808.41 -1.7731 2.4125 0
M  V30 30221 H 2805.96 -0.851631 1.16117 0
M  V30 30222 H 2807.91 -3.98114 1.38141 0
M  V30 30223 H 2806.63 -3.24368 0.381217 0
M  V30 30224 H 2805.29 -2.72694 2.45017 0
M  V30 30225 H 2804.94 -4.87858 1.22489 0
M  V30 30226 H 2804.64 -5.06989 2.97046 0
M  V30 30227 H 2806.17 -5.67271 2.25911 0
M  V30 30228 H 2807.58 -4.15553 3.94954 0
M  V30 30229 H 2805.98 -3.79112 4.65182 0
M  V30 30230 H 2807.05 -2.45889 4.17932 0
M  V30 30231 N 2808.39 -1.27739 -0.923072 0
M  V30 30232 C 2809.32 -1.06661 -2.02869 0
M  V30 30233 C 2810.33 -0.0212381 -1.62786 0
M  V30 30234 O 2811.52 -0.263298 -1.76547 0
M  V30 30235 C 2808.62 -0.596879 -3.33602 0
M  V30 30236 C 2807.8 -1.71558 -4.02351 0
M  V30 30237 C 2806.86 -1.2408 -5.11361 0
M  V30 30238 O 2805.88 -1.94132 -5.35071 0
M  V30 30239 N 2807.08 -0.0989464 -5.80416 0
M  V30 30240 H 2809.85 -2.01873 -2.21512 0
M  V30 30241 H 2807.41 -1.19367 -1.09376 0
M  V30 30242 H 2809.4 -0.263055 -4.03844 0
M  V30 30243 H 2807.97 0.262132 -3.11499 0
M  V30 30244 H 2807.19 -2.21946 -3.25782 0
M  V30 30245 H 2808.48 -2.46627 -4.45031 0
M  V30 30246 H 2807.88 0.485644 -5.63612 0
M  V30 30247 H 2806.43 0.175666 -6.51563 0
M  V30 30248 N 2809.87 1.13022 -1.09836 0
M  V30 30249 C 2811.15 1.80681 -0.749257 0
M  V30 30250 C 2811.53 1.96746 0.765137 0
M  V30 30251 O 2810.87 1.53889 1.6891 0
M  V30 30252 C 2811.08 3.15445 -1.49316 0
M  V30 30253 C 2812.43 3.90734 -1.66169 0
M  V30 30254 O 2813.46 3.25082 -1.45603 0
M  V30 30255 O 2812.31 5.08502 -2.0022 0
M  V30 30256 H 2809.41 0.781812 -0.269628 0
M  V30 30257 H 2811.95 1.19912 -1.2008 0
M  V30 30258 H 2810.73 2.99005 -2.52412 0
M  V30 30259 H 2810.35 3.83918 -1.03407 0
M  V30 30260 N 2811.35 0.886177 1.30325 0
M  V30 30261 C 2812.57 0.520211 2.00253 0
M  V30 30262 C 2812.99 -0.891608 1.66421 0
M  V30 30263 O 2812.35 -1.58652 0.901979 0
M  V30 30264 C 2812.4 0.686837 3.54915 0
M  V30 30265 O 2812.12 2.04307 3.87544 0
M  V30 30266 C 2813.62 0.324022 4.42114 0
M  V30 30267 H 2810.84 0.200958 0.640201 0
M  V30 30268 H 2813.38 1.19181 1.66181 0
M  V30 30269 H 2811.54 0.0625954 3.87349 0
M  V30 30270 H 2811.95 2.06257 4.82243 0
M  V30 30271 H 2813.43 0.491503 5.49807 0
M  V30 30272 H 2813.9 -0.738034 4.32955 0
M  V30 30273 H 2814.51 0.924638 4.15127 0
M  V30 30274 N 2812.82 -1.43695 0.647253 0
M  V30 30275 C 2813.75 -2.33474 -0.0345221 0
M  V30 30276 C 2814.74 -1.49131 -0.818166 0
M  V30 30277 O 2815.92 -1.77811 -0.780835 0
M  V30 30278 C 2813.05 -3.3242 -1.0057 0
M  V30 30279 C 2812 -4.26706 -0.332585 0
M  V30 30280 C 2811.33 -5.15643 -1.4148 0
M  V30 30281 C 2812.63 -5.16574 0.771295 0
M  V30 30282 H 2814.32 -2.90732 0.715214 0
M  V30 30283 H 2811.87 -1.39797 0.345389 0
M  V30 30284 H 2813.82 -3.94121 -1.49152 0
M  V30 30285 H 2812.55 -2.73406 -1.78653 0
M  V30 30286 H 2811.21 -3.6636 0.132735 0
M  V30 30287 H 2810.85 -4.52972 -2.1869 0
M  V30 30288 H 2810.55 -5.79543 -0.969697 0
M  V30 30289 H 2812.08 -5.80218 -1.9021 0
M  V30 30290 H 2813.49 -5.72118 0.367891 0
M  V30 30291 H 2811.89 -5.89163 1.1405 0
M  V30 30292 H 2812.96 -4.5662 1.63177 0
M  V30 30293 N 2814.3 -0.388796 -1.52729 0
M  V30 30294 C 2815.72 -0.038733 -1.59553 0
M  V30 30295 C 2815.92 1.4465 -1.40281 0
M  V30 30296 O 2814.97 2.21095 -1.21955 0
M  V30 30297 C 2816.29 -0.515461 -2.96249 0
M  V30 30298 C 2817.84 -0.471675 -3.09426 0
M  V30 30299 C 2818.31 -0.924584 -4.4857 0
M  V30 30300 N 2819.8 -0.880576 -4.54753 0
M  V30 30301 C 2820.54 -1.20244 -5.60651 0
M  V30 30302 N 2820.03 -1.59474 -6.74196 0
M  V30 30303 N 2821.83 -1.12372 -5.50753 0
M  V30 30304 H 2813.98 -1.35572 -1.63505 0
M  V30 30305 H 2816.24 -0.555649 -0.768087 0
M  V30 30306 H 2815.95 -1.55276 -3.15567 0
M  V30 30307 H 2815.82 0.0857258 -3.77103 0
M  V30 30308 H 2818.21 0.556537 -2.89805 0
M  V30 30309 H 2818.29 -1.10866 -2.30526 0
M  V30 30310 H 2817.93 -1.95102 -4.68932 0
M  V30 30311 H 2817.86 -0.264616 -5.25935 0
M  V30 30312 H 2820.35 -0.591881 -3.73236 0
M  V30 30313 H 2820.67 -1.82399 -7.50966 0
M  V30 30314 H 2819.01 -1.63361 -6.75528 0
M  V30 30315 H 2822.2 -0.81625 -4.60928 0
M  V30 30316 H 2822.37 -1.37788 -6.33181 0
M  V30 30317 N 2815.78 1.57153 -0.118604 0
M  V30 30318 C 2817.03 1.9547 0.540291 0
M  V30 30319 C 2817.36 1.00199 1.66355 0
M  V30 30320 O 2816.63 0.0391382 1.94461 0
M  V30 30321 C 2816.92 3.43731 1.07336 0
M  V30 30322 C 2816.77 4.49776 -0.0464523 0
M  V30 30323 C 2818.09 3.93829 1.96435 0
M  V30 30324 H 2815.21 0.710755 0.194927 0
M  V30 30325 H 2817.85 1.89006 -0.194083 0
M  V30 30326 H 2816 3.49371 1.69918 0
M  V30 30327 H 2817.67 4.56235 -0.681729 0
M  V30 30328 H 2815.92 4.27956 -0.709649 0
M  V30 30329 H 2816.59 5.50774 0.36776 0
M  V30 30330 H 2819.06 3.9049 1.43724 0
M  V30 30331 H 2817.94 4.98088 2.30651 0
M  V30 30332 H 2818.2 3.345 2.89071 0
M  V30 30333 N 2817.26 -0.155167 1.56834 0
M  V30 30334 C 2818.19 -1.19372 2.0068 0
M  V30 30335 C 2819.17 -1.45265 0.884998 0
M  V30 30336 O 2820.35 -1.56324 1.15223 0
M  V30 30337 C 2817.48 -2.52886 2.38046 0
M  V30 30338 C 2816.44 -2.41531 3.53336 0
M  V30 30339 C 2815.76 -3.79681 3.76492 0
M  V30 30340 C 2817.06 -1.90631 4.86268 0
M  V30 30341 H 2818.76 -0.829182 2.87689 0
M  V30 30342 H 2816.3 -0.397421 1.38407 0
M  V30 30343 H 2818.26 -3.25758 2.67319 0
M  V30 30344 H 2816.98 -2.9116 1.47965 0
M  V30 30345 H 2815.64 -1.71112 3.24216 0
M  V30 30346 H 2815.29 -4.15377 2.83675 0
M  V30 30347 H 2814.99 -3.72948 4.54074 0
M  V30 30348 H 2816.51 -4.54115 4.08182 0
M  V30 30349 H 2817.93 -2.5329 5.14312 0
M  V30 30350 H 2816.32 -1.94808 5.676 0
M  V30 30351 H 2817.39 -0.861512 4.77185 0
M  V30 30352 N 2818.74 -1.51782 -0.424256 0
M  V30 30353 C 2819.96 -1.68924 -1.19467 0
M  V30 30354 C 2820.38 -0.392162 -1.84682 0
M  V30 30355 O 2819.74 0.630524 -1.71262 0
M  V30 30356 C 2819.79 -2.8142 -2.26904 0
M  V30 30357 O 2819.51 -4.06103 -1.64354 0
M  V30 30358 C 2821.01 -3.09942 -3.1694 0
M  V30 30359 H 2818.23 -0.566518 -0.359581 0
M  V30 30360 H 2820.77 -1.98265 -0.501105 0
M  V30 30361 H 2818.93 -2.5464 -2.91954 0
M  V30 30362 H 2819.34 -4.68678 -2.3546 0
M  V30 30363 H 2820.82 -3.92207 -3.8843 0
M  V30 30364 H 2821.29 -2.22877 -3.78447 0
M  V30 30365 H 2821.9 -3.3843 -2.57575 0
M  V30 30366 N 2820.21 0.68054 -1.42149 0
M  V30 30367 C 2821.14 1.80636 -1.47963 0
M  V30 30368 C 2822.13 1.66733 -0.336757 0
M  V30 30369 O 2823.31 1.86241 -0.550279 0
M  V30 30370 C 2820.44 3.1889 -1.37574 0
M  V30 30371 C 2819.39 3.47519 -2.49829 0
M  V30 30372 C 2818.72 4.85287 -2.245 0
M  V30 30373 C 2820.02 3.44987 -3.9215 0
M  V30 30374 H 2821.71 1.76028 -2.42187 0
M  V30 30375 H 2819.26 0.845461 -1.16567 0
M  V30 30376 H 2821.21 3.97376 -1.4025 0
M  V30 30377 H 2819.94 3.24161 -0.398413 0
M  V30 30378 H 2818.6 2.71391 -2.4646 0
M  V30 30379 H 2818.24 4.87202 -1.25074 0
M  V30 30380 H 2817.94 5.05406 -2.99731 0
M  V30 30381 H 2819.47 5.66065 -2.28916 0
M  V30 30382 H 2820.88 4.13452 -3.97153 0
M  V30 30383 H 2819.28 3.7664 -4.67186 0
M  V30 30384 H 2820.35 2.43669 -4.1923 0
M  V30 30385 N 2821.69 1.28226 0.916285 0
M  V30 30386 C 2822.94 1.16413 1.66792 0
M  V30 30387 C 2823.29 -0.284952 1.90278 0
M  V30 30388 O 2822.59 -1.20425 1.49025 0
M  V30 30389 C 2822.78 1.89346 3.03122 0
M  V30 30390 C 2822.61 3.41197 2.92941 0
M  V30 30391 C 2821.38 4.10533 2.94603 0
M  V30 30392 C 2823.58 4.36983 2.71202 0
M  V30 30393 N 2821.56 5.48869 2.74983 0
M  V30 30394 C 2822.93 5.62664 2.60401 0
M  V30 30395 C 2824.99 4.26939 2.56179 0
M  V30 30396 C 2823.69 6.79445 2.36108 0
M  V30 30397 C 2825.71 5.43453 2.33266 0
M  V30 30398 C 2825.08 6.68097 2.23216 0
M  V30 30399 H 2821.18 0.480907 0.616646 0
M  V30 30400 H 2823.76 1.61844 1.08234 0
M  V30 30401 H 2821.93 1.46353 3.59771 0
M  V30 30402 H 2823.66 1.69939 3.67291 0
M  V30 30403 H 2820.42 3.62093 3.05263 0
M  V30 30404 H 2820.84 6.21578 2.68273 0
M  V30 30405 H 2825.48 3.31282 2.62701 0
M  V30 30406 H 2823.2 7.75173 2.28325 0
M  V30 30407 H 2826.79 5.37569 2.2251 0
M  V30 30408 H 2825.67 7.56734 2.05728 0
M  V30 30409 N 2823.17 -1.12438 1.10433 0
M  V30 30410 C 2824.42 -1.83947 0.84675 0
M  V30 30411 C 2824.75 -1.84094 -0.627677 0
M  V30 30412 O 2824 -1.28186 -1.47874 0
M  V30 30413 C 2824.3 -3.31318 1.34028 0
M  V30 30414 C 2823.97 -3.51342 2.82612 0
M  V30 30415 C 2822.63 -3.56515 3.23188 0
M  V30 30416 C 2824.98 -3.58457 3.78362 0
M  V30 30417 C 2822.31 -3.66348 4.58264 0
M  V30 30418 C 2824.66 -3.6982 5.13241 0
M  V30 30419 C 2823.32 -3.7325 5.5339 0
M  V30 30420 H 2822.59 -0.673109 0.309848 0
M  V30 30421 H 2825.24 -1.32675 1.38093 0
M  V30 30422 H 2823.55 -3.85013 0.726114 0
M  V30 30423 H 2825.24 -3.85116 1.11745 0
M  V30 30424 H 2821.83 -3.47978 2.50218 0
M  V30 30425 H 2826.02 -3.53731 3.48121 0
M  V30 30426 H 2821.27 -3.67275 4.88793 0
M  V30 30427 H 2825.45 -3.74269 5.87278 0
M  V30 30428 H 2823.07 -3.80621 6.58051 0
M  V30 30429 N 2824.65 -0.893076 -1.29853 0
M  V30 30430 C 2825.93 -0.43537 -1.90693 0
M  V30 30431 C 2826.31 1.0845 -1.81112 0
M  V30 30432 O 2825.65 1.92343 -1.23356 0
M  V30 30433 C 2825.86 -0.942531 -3.36032 0
M  V30 30434 C 2827.21 -0.982298 -4.13081 0
M  V30 30435 O 2828.24 -0.889747 -3.44909 0
M  V30 30436 O 2827.1 -1.12031 -5.34894 0
M  V30 30437 H 2824.19 -0.134582 -0.815976 0
M  V30 30438 H 2826.74 -0.982508 -1.38365 0
M  V30 30439 H 2825.51 -1.98646 -3.37128 0
M  V30 30440 H 2825.13 -0.375022 -3.95827 0
M  V30 30441 N 2826.13 1.4335 -0.654865 0
M  V30 30442 C 2827.36 2.05845 -0.176465 0
M  V30 30443 C 2827.77 1.49178 1.16372 0
M  V30 30444 O 2827.11 0.618352 1.7298 0
M  V30 30445 C 2827.17 3.59498 -0.0126476 0
M  V30 30446 C 2826.83 4.38755 -1.27839 0
M  V30 30447 C 2827.83 4.70708 -2.20749 0
M  V30 30448 C 2825.52 4.78736 -1.52043 0
M  V30 30449 C 2827.51 5.41552 -3.36154 0
M  V30 30450 C 2825.2 5.49325 -2.67742 0
M  V30 30451 C 2826.2 5.80655 -3.59623 0
M  V30 30452 O 2825.88 6.49801 -4.733 0
M  V30 30453 H 2825.62 0.67025 -0.08798 0
M  V30 30454 H 2828.17 1.84816 -0.896226 0
M  V30 30455 H 2826.4 3.79108 0.7625 0
M  V30 30456 H 2828.09 4.03687 0.423321 0
M  V30 30457 H 2828.85 4.40338 -2.03292 0
M  V30 30458 H 2824.73 4.53755 -0.814067 0
M  V30 30459 H 2828.28 5.65924 -4.07891 0
M  V30 30460 H 2824.17 5.79111 -2.85132 0
M  V30 30461 H 2824.94 6.68284 -4.72587 0
M  V30 30462 N 2827.61 0.39689 1.52521 0
M  V30 30463 C 2828.85 -0.182501 2.01274 0
M  V30 30464 C 2829.17 -1.46683 1.28488 0
M  V30 30465 O 2828.44 -1.91622 0.407167 0
M  V30 30466 H 2827.02 -0.0704311 0.743672 0
M  V30 30467 H 2829.69 0.530322 1.87546 0
M  V30 30468 H 2828.78 -0.387331 3.09687 0
M  V30 30469 N 2829.08 -1.57088 0.126936 0
M  V30 30470 C 2830.03 -2.12292 -0.83164 0
M  V30 30471 C 2831.02 -1.04566 -1.2229 0
M  V30 30472 O 2832.21 -1.30784 -1.19266 0
M  V30 30473 C 2829.34 -2.73219 -2.07861 0
M  V30 30474 C 2828.42 -3.88038 -1.71136 0
M  V30 30475 N 2828.82 -4.94754 -1.05127 0
M  V30 30476 C 2827.11 -3.9837 -2.00542 0
M  V30 30477 C 2827.81 -5.75049 -0.877156 0
M  V30 30478 N 2826.79 -5.25138 -1.40468 0
M  V30 30479 H 2830.59 -2.92176 -0.317874 0
M  V30 30480 H 2828.11 -1.62225 -0.0752767 0
M  V30 30481 H 2830.1 -3.11116 -2.77511 0
M  V30 30482 H 2828.76 -1.94801 -2.59774 0
M  V30 30483 H 2829.77 -5.1295 -0.71433 0
M  V30 30484 H 2826.45 -3.31004 -2.54446 0
M  V30 30485 H 2827.84 -6.70943 -0.358418 0
M  V30 30486 N 2830.56 0.146848 -1.56914 0
M  V30 30487 C 2831.81 0.855881 -1.84516 0
M  V30 30488 C 2832.16 1.78783 -0.71094 0
M  V30 30489 O 2831.46 1.89376 0.29109 0
M  V30 30490 C 2831.65 1.66722 -3.16131 0
M  V30 30491 C 2831.48 0.815327 -4.42247 0
M  V30 30492 C 2830.25 0.480887 -5.03007 0
M  V30 30493 C 2832.45 0.145594 -5.14094 0
M  V30 30494 N 2830.43 -0.384584 -6.12694 0
M  V30 30495 C 2831.8 -0.580011 -6.17281 0
M  V30 30496 C 2833.85 0.066283 -4.97856 0
M  V30 30497 C 2832.56 -1.37744 -7.05988 0
M  V30 30498 C 2834.58 -0.717883 -5.87027 0
M  V30 30499 C 2833.95 -1.43177 -6.89695 0
M  V30 30500 H 2830.04 0.291013 -0.725834 0
M  V30 30501 H 2832.63 0.121245 -1.94322 0
M  V30 30502 H 2830.8 2.37309 -3.07472 0
M  V30 30503 H 2832.53 2.31943 -3.31639 0
M  V30 30504 H 2829.29 0.816707 -4.66505 0
M  V30 30505 H 2829.71 -0.808348 -6.72157 0
M  V30 30506 H 2834.35 0.603855 -4.18466 0
M  V30 30507 H 2832.07 -1.92627 -7.84806 0
M  V30 30508 H 2835.66 -0.781242 -5.76531 0
M  V30 30509 H 2834.54 -2.02881 -7.57502 0
M  V30 30510 N 2832.04 1.52005 0.4162 0
M  V30 30511 C 2833.45 1.57958 0.995292 0
M  V30 30512 C 2833.8 0.415788 1.91744 0
M  V30 30513 O 2832.93 -0.464771 2.1135 0
M  V30 30514 C 2833.52 2.86281 1.81186 0
M  V30 30515 C 2832.08 2.94737 2.3411 0
M  V30 30516 C 2831.23 2.5283 1.13896 0
M  V30 30517 H 2834.18 1.57476 0.196688 0
M  V30 30518 H 2834.2 2.71236 2.66855 0
M  V30 30519 H 2833.71 3.70965 1.14045 0
M  V30 30520 H 2831.81 2.1453 3.04643 0
M  V30 30521 H 2831.93 3.98833 2.65459 0
M  V30 30522 H 2830.29 2.06514 1.49077 0
M  V30 30523 H 2831.07 3.39881 0.483323 0
M  V30 30524 N 2833.52 -0.672992 1.42508 0
M  V30 30525 C 2834.79 -1.42905 1.33557 0
M  V30 30526 C 2835.17 -2.11084 -0.026184 0
M  V30 30527 O 2834.52 -2.0337 -1.04177 0
M  V30 30528 C 2834.73 -2.43001 2.50502 0
M  V30 30529 C 2836.08 -3.07591 2.92699 0
M  V30 30530 O 2837.1 -2.53329 2.50406 0
M  V30 30531 O 2835.96 -4.05925 3.65906 0
M  V30 30532 H 2833.06 -0.637507 0.526796 0
M  V30 30533 H 2835.6 -0.701563 1.54519 0
M  V30 30534 H 2834.38 -1.91434 3.41275 0
M  V30 30535 H 2834 -3.23229 2.31536 0
M  V30 30536 N 2835 -1.2871 -0.909472 0
M  V30 30537 C 2836.24 -1.16286 -1.66149 0
M  V30 30538 C 2836.57 0.287036 -1.92067 0
M  V30 30539 O 2835.85 1.20835 -1.52411 0
M  V30 30540 C 2836.13 -1.96636 -3.01673 0
M  V30 30541 C 2835.99 -3.49711 -2.82881 0
M  V30 30542 C 2837.3 -1.78511 -4.02271 0
M  V30 30543 H 2834.42 -0.423804 -0.602959 0
M  V30 30544 H 2837.07 -1.58075 -1.05415 0
M  V30 30545 H 2835.22 -1.61125 -3.53512 0
M  V30 30546 H 2836.89 -3.95152 -2.38019 0
M  V30 30547 H 2835.13 -3.75129 -2.17855 0
M  V30 30548 H 2835.8 -4.01194 -3.7914 0
M  V30 30549 H 2838.28 -2.09509 -3.59507 0
M  V30 30550 H 2837.15 -2.37097 -4.95052 0
M  V30 30551 H 2837.41 -0.737724 -4.35901 0
M  V30 30552 N 2836.47 1.1185 -1.11028 0
M  V30 30553 C 2837.42 2.19844 -0.759682 0
M  V30 30554 C 2838.42 1.67591 0.246934 0
M  V30 30555 O 2839.62 1.79684 0.106662 0
M  V30 30556 H 2836 0.716679 -0.227763 0
M  V30 30557 H 2837.97 2.46666 -1.67925 0
M  V30 30558 C 2836.72 3.47038 -0.214425 0
M  V30 30559 H 2836.04 3.87597 -0.980243 0
M  V30 30560 H 2837.48 4.23999 -0.007245 0
M  V30 30561 C 2835.94 3.19978 1.05431 0
M  V30 30562 O 2836.47 3.4028 2.13477 0
M  V30 30563 N 2834.67 2.73742 0.975388 0
M  V30 30564 H 2834.22 2.57421 0.0960401 0
M  V30 30565 H 2834.18 2.56013 1.82496 0
M  V30 30566 N 2837.95 0.89995 1.29378 0
M  V30 30567 C 2838.86 0.382478 2.31461 0
M  V30 30568 C 2839.88 -0.5229 1.65957 0
M  V30 30569 O 2841.05 -0.412419 1.97132 0
M  V30 30570 C 2838.12 -0.381411 3.44596 0
M  V30 30571 C 2837.18 0.555519 4.25691 0
M  V30 30572 C 2836.41 -0.172008 5.33423 0
M  V30 30573 O 2836.64 -1.39591 5.53056 0
M  V30 30574 O 2835.57 0.485597 5.99938 0
M  V30 30575 H 2839.4 1.22939 2.77704 0
M  V30 30576 H 2836.98 0.664282 1.33819 0
M  V30 30577 H 2838.86 -0.813369 4.13476 0
M  V30 30578 H 2837.54 -1.20438 3.0046 0
M  V30 30579 H 2836.44 1.0366 3.59452 0
M  V30 30580 H 2837.78 1.34491 4.73469 0
M  V30 30581 N 2839.43 -1.43001 0.662458 0
M  V30 30582 C 2840.39 -2.29196 -0.0141613 0
M  V30 30583 C 2841.39 -1.4269 -0.741369 0
M  V30 30584 O 2842.58 -1.64217 -0.581228 0
M  V30 30585 C 2839.72 -3.24943 -1.03078 0
M  V30 30586 H 2840.91 -2.90516 0.744351 0
M  V30 30587 H 2838.46 -1.50435 0.424159 0
M  V30 30588 H 2839.2 -2.68536 -1.81821 0
M  V30 30589 H 2838.98 -3.88731 -0.512877 0
M  V30 30590 H 2840.47 -3.89614 -1.50301 0
M  V30 30591 N 2840.91 -0.404973 -1.52308 0
M  V30 30592 C 2841.84 0.41372 -2.29806 0
M  V30 30593 C 2842.82 1.04978 -1.33842 0
M  V30 30594 O 2844 1.05958 -1.62747 0
M  V30 30595 C 2841.13 1.53287 -3.11641 0
M  V30 30596 C 2840.09 1.02203 -4.15618 0
M  V30 30597 C 2839.41 2.23446 -4.85774 0
M  V30 30598 C 2840.71 0.0789807 -5.2224 0
M  V30 30599 H 2842.41 -0.23293 -2.98493 0
M  V30 30600 H 2839.95 -0.113466 -1.43552 0
M  V30 30601 H 2841.91 2.11256 -3.64622 0
M  V30 30602 H 2840.63 2.20734 -2.40716 0
M  V30 30603 H 2839.29 0.464776 -3.63642 0
M  V30 30604 H 2838.94 2.89438 -4.11381 0
M  V30 30605 H 2838.64 1.8992 -5.56061 0
M  V30 30606 H 2840.16 2.82029 -5.41565 0
M  V30 30607 H 2841.58 0.567338 -5.70486 0
M  V30 30608 H 2839.97 -0.167272 -5.99867 0
M  V30 30609 H 2841.04 -0.867531 -4.77076 0
M  V30 30610 N 2842.39 1.57018 -0.135265 0
M  V30 30611 C 2843.63 1.96032 0.519529 0
M  V30 30612 C 2843.97 1.01958 1.65282 0
M  V30 30613 O 2843.24 0.0597611 1.94408 0
M  V30 30614 C 2843.52 3.4485 1.03684 0
M  V30 30615 C 2843.38 4.49701 -0.0941544 0
M  V30 30616 C 2844.7 3.9589 1.92247 0
M  V30 30617 H 2841.81 0.712782 0.187378 0
M  V30 30618 H 2844.46 1.8879 -0.214119 0
M  V30 30619 H 2842.61 3.51153 1.66203 0
M  V30 30620 H 2844.28 4.55486 -0.73008 0
M  V30 30621 H 2842.52 4.27179 -0.754999 0
M  V30 30622 H 2843.19 5.51133 0.309322 0
M  V30 30623 H 2845.67 3.91993 1.39574 0
M  V30 30624 H 2844.54 5.00506 2.25355 0
M  V30 30625 H 2844.81 3.37548 2.85507 0
M  V30 30626 N 2843.86 -0.138524 1.5699 0
M  V30 30627 C 2844.77 -1.19005 2.02176 0
M  V30 30628 C 2845.79 -1.46511 0.938647 0
M  V30 30629 O 2846.97 -1.58013 1.24875 0
M  V30 30630 C 2844.03 -2.50154 2.40049 0
M  V30 30631 C 2843.09 -2.3022 3.6235 0
M  V30 30632 C 2842.33 -3.55116 3.98407 0
M  V30 30633 O 2842.55 -4.61642 3.35027 0
M  V30 30634 O 2841.48 -3.47276 4.91613 0
M  V30 30635 H 2845.31 -0.836401 2.91956 0
M  V30 30636 H 2842.89 -0.347881 1.45293 0
M  V30 30637 H 2844.78 -3.27461 2.65231 0
M  V30 30638 H 2843.45 -2.85032 1.53422 0
M  V30 30639 H 2842.36 -1.50837 3.42344 0
M  V30 30640 H 2843.69 -2.00255 4.49621 0
M  V30 30641 N 2845.34 -1.52224 -0.408133 0
M  V30 30642 C 2846.59 -1.66003 -1.15271 0
M  V30 30643 C 2846.91 -0.392837 -1.91002 0
M  V30 30644 O 2846.18 0.592303 -1.86731 0
M  V30 30645 H 2844.76 -0.611869 -0.428515 0
M  V30 30646 H 2847.42 -1.8927 -0.465087 0
M  V30 30647 H 2846.52 -2.50156 -1.86623 0
M  V30 30648 N 2846.82 0.665425 -1.42863 0
M  V30 30649 C 2848.07 1.42754 -1.44045 0
M  V30 30650 C 2848.4 1.94107 -0.059997 0
M  V30 30651 O 2847.67 1.71513 0.917256 0
M  V30 30652 C 2847.96 2.61781 -2.4727 0
M  V30 30653 C 2847.81 2.16 -3.94543 0
M  V30 30654 C 2849.13 3.63999 -2.47372 0
M  V30 30655 H 2846.25 0.517739 -0.524515 0
M  V30 30656 H 2848.89 0.755435 -1.74336 0
M  V30 30657 H 2847.04 3.19122 -2.21571 0
M  V30 30658 H 2848.71 1.63754 -4.31257 0
M  V30 30659 H 2846.96 1.47484 -4.07959 0
M  V30 30660 H 2847.63 3.01538 -4.62363 0
M  V30 30661 H 2850.1 3.16394 -2.70248 0
M  V30 30662 H 2848.98 4.44849 -3.2156 0
M  V30 30663 H 2849.24 4.15765 -1.50307 0
M  V30 30664 N 2848.3 1.29191 0.902633 0
M  V30 30665 C 2849.25 1.1407 2.00641 0
M  V30 30666 C 2850.22 0.0348048 1.66064 0
M  V30 30667 O 2851.4 0.201785 1.8973 0
M  V30 30668 C 2848.54 0.820163 3.35212 0
M  V30 30669 C 2847.65 2.0062 3.82591 0
M  V30 30670 C 2846.79 1.62531 5.05724 0
M  V30 30671 C 2845.83 2.77733 5.45464 0
M  V30 30672 N 2844.96 2.4006 6.59785 0
M  V30 30673 H 2849.8 2.08506 2.12907 0
M  V30 30674 H 2847.34 1.03761 1.04269 0
M  V30 30675 H 2849.3 0.615021 4.12642 0
M  V30 30676 H 2847.93 -0.0872885 3.22682 0
M  V30 30677 H 2846.98 2.32314 3.01222 0
M  V30 30678 H 2848.29 2.86953 4.07994 0
M  V30 30679 H 2847.45 1.38288 5.9073 0
M  V30 30680 H 2846.19 0.733418 4.82154 0
M  V30 30681 H 2845.19 3.02662 4.58995 0
M  V30 30682 H 2846.42 3.67582 5.71017 0
M  V30 30683 H 2844.36 1.53355 6.37823 0
M  V30 30684 H 2844.28 3.19926 6.84969 0
M  V30 30685 H 2845.55 2.19129 7.48066 0
M  V30 30686 N 2849.78 -1.1126 1.1162 0
M  V30 30687 C 2850.74 -2.15538 0.779485 0
M  V30 30688 C 2851.74 -1.59525 -0.202053 0
M  V30 30689 O 2852.93 -1.74185 0.0226663 0
M  V30 30690 C 2850.06 -3.40539 0.1568 0
M  V30 30691 H 2851.25 -2.46837 1.70328 0
M  V30 30692 H 2848.81 -1.26478 0.918321 0
M  V30 30693 H 2849.54 -3.14851 -0.77713 0
M  V30 30694 H 2849.33 -3.82476 0.863375 0
M  V30 30695 H 2850.82 -4.17553 -0.0625876 0
M  V30 30696 N 2851.25 -0.906798 -1.28899 0
M  V30 30697 C 2852.5 -0.532296 -1.94549 0
M  V30 30698 C 2852.82 0.927323 -1.72221 0
M  V30 30699 O 2854.02 1.40967 -2.32036 0
M  V30 30700 C 2852.48 -0.901102 -3.48437 0
M  V30 30701 C 2852.09 -2.37997 -3.79554 0
M  V30 30702 C 2853.83 -0.596851 -4.20283 0
M  V30 30703 C 2851.74 -2.68927 -5.26718 0
M  V30 30704 H 2850.67 -0.195345 -0.728256 0
M  V30 30705 H 2853.32 -1.10477 -1.46517 0
M  V30 30706 H 2851.7 -0.257489 -3.95162 0
M  V30 30707 H 2852.87 -3.06973 -3.43663 0
M  V30 30708 H 2851.19 -2.65397 -3.20863 0
M  V30 30709 H 2853.79 -0.804693 -5.2861 0
M  V30 30710 H 2854.13 0.464999 -4.13695 0
M  V30 30711 H 2854.66 -1.19862 -3.79312 0
M  V30 30712 H 2851.4 -3.73938 -5.38378 0
M  V30 30713 H 2850.92 -2.04581 -5.63832 0
M  V30 30714 H 2852.6 -2.55565 -5.94387 0
M  V30 30715 N 2852.73 1.42648 -0.670032 0
M  V30 30716 C 2853.66 2.29145 0.0501343 0
M  V30 30717 C 2854.68 1.43423 0.770306 0
M  V30 30718 O 2855.87 1.67191 0.625259 0
M  V30 30719 C 2852.97 3.20737 1.09458 0
M  V30 30720 C 2852.14 4.35087 0.449183 0
M  V30 30721 C 2851.2 5.07433 1.39276 0
M  V30 30722 O 2850.22 5.62121 0.894898 0
M  V30 30723 N 2851.43 5.12501 2.72622 0
M  V30 30724 H 2854.19 2.91593 -0.692363 0
M  V30 30725 H 2851.75 1.53521 -0.514083 0
M  V30 30726 H 2853.74 3.66002 1.72698 0
M  V30 30727 H 2852.31 2.59774 1.73886 0
M  V30 30728 H 2851.53 3.92528 -0.362642 0
M  V30 30729 H 2852.82 5.088 -0.00063421 0
M  V30 30730 H 2852.22 4.69472 3.15614 0
M  V30 30731 H 2850.78 5.61428 3.31122 0
M  V30 30732 N 2854.21 0.413044 1.52091 0
M  V30 30733 C 2855.46 -0.162835 2.01042 0
M  V30 30734 C 2855.77 -1.45889 1.30291 0
M  V30 30735 O 2856.98 -2.11626 1.70078 0
M  V30 30736 C 2855.44 -0.340743 3.58283 0
M  V30 30737 C 2855.04 0.943454 4.37953 0
M  V30 30738 C 2856.79 -0.871701 4.15454 0
M  V30 30739 C 2854.69 0.73252 5.86846 0
M  V30 30740 H 2853.62 -0.0646281 0.751225 0
M  V30 30741 H 2856.28 0.53909 1.75403 0
M  V30 30742 H 2854.66 -1.10509 3.80268 0
M  V30 30743 H 2855.83 1.71425 4.27727 0
M  V30 30744 H 2854.15 1.40112 3.92119 0
M  V30 30745 H 2856.74 -1.04561 5.24377 0
M  V30 30746 H 2857.09 -1.84748 3.7306 0
M  V30 30747 H 2857.62 -0.166308 3.97452 0
M  V30 30748 H 2854.36 1.67997 6.33606 0
M  V30 30749 H 2853.88 0.00108549 5.998 0
M  V30 30750 H 2855.56 0.376219 6.45905 0
M  V30 30751 N 2855.69 -1.56945 0.143591 0
M  V30 30752 C 2856.97 -1.87613 -0.553252 0
M  V30 30753 C 2857.35 -1.04898 -1.83193 0
M  V30 30754 O 2856.69 -0.134814 -2.28102 0
M  V30 30755 C 2856.9 -3.39182 -0.821996 0
M  V30 30756 C 2858.25 -4.08326 -1.16427 0
M  V30 30757 O 2859.28 -3.44341 -0.911461 0
M  V30 30758 O 2858.14 -5.21316 -1.63987 0
M  V30 30759 H 2855.23 -0.777494 -0.281838 0
M  V30 30760 H 2857.78 -1.68743 0.179946 0
M  V30 30761 H 2856.55 -3.91212 0.0830953 0
M  V30 30762 H 2856.17 -3.63567 -1.60949 0
M  V30 30763 N 2857.17 0.130197 -1.57061 0
M  V30 30764 C 2858.4 0.854423 -1.88434 0
M  V30 30765 C 2858.81 1.73963 -0.733639 0
M  V30 30766 O 2858.17 1.80084 0.295997 0
M  V30 30767 C 2858.22 1.69718 -3.19183 0
M  V30 30768 O 2857.94 0.847629 -4.29822 0
M  V30 30769 C 2859.44 2.52754 -3.64184 0
M  V30 30770 H 2856.66 0.24621 -0.624197 0
M  V30 30771 H 2859.2 0.117944 -2.0416 0
M  V30 30772 H 2857.36 2.38654 -3.05161 0
M  V30 30773 H 2857.77 1.42783 -5.04691 0
M  V30 30774 H 2859.25 3.07435 -4.58462 0
M  V30 30775 H 2859.72 3.29587 -2.90291 0
M  V30 30776 H 2860.33 1.8908 -3.80958 0
M  V30 30777 N 2858.65 1.52438 0.400055 0
M  V30 30778 C 2859.89 1.68143 1.14453 0
M  V30 30779 C 2860.25 0.410755 1.87964 0
M  V30 30780 O 2859.54 -0.595163 1.82122 0
M  V30 30781 C 2859.73 2.84812 2.15909 0
M  V30 30782 C 2859.56 4.23103 1.52362 0
M  V30 30783 C 2858.33 4.88492 1.29243 0
M  V30 30784 C 2860.53 5.04884 0.979633 0
M  V30 30785 N 2858.51 6.10793 0.616848 0
M  V30 30786 C 2859.88 6.18497 0.431481 0
M  V30 30787 C 2861.94 4.90152 0.874973 0
M  V30 30788 C 2860.64 7.1899 -0.211084 0
M  V30 30789 C 2862.67 5.90887 0.246247 0
M  V30 30790 C 2862.03 7.03798 -0.291186 0
M  V30 30791 H 2858.13 0.668851 0.405169 0
M  V30 30792 H 2860.71 1.89764 0.435622 0
M  V30 30793 H 2858.88 2.6479 2.84149 0
M  V30 30794 H 2860.62 2.89508 2.82785 0
M  V30 30795 H 2857.37 4.47015 1.56443 0
M  V30 30796 H 2857.79 6.76355 0.295417 0
M  V30 30797 H 2862.44 4.03076 1.27629 0
M  V30 30798 H 2860.15 8.05684 -0.624442 0
M  V30 30799 H 2863.74 5.81561 0.166663 0
M  V30 30800 H 2862.62 7.8041 -0.770018 0
M  V30 30801 N 2860.12 -0.657839 1.43214 0
M  V30 30802 C 2861.05 -1.78259 1.50818 0
M  V30 30803 C 2862.03 -1.66176 0.363241 0
M  V30 30804 O 2863.22 -1.85342 0.579839 0
M  V30 30805 C 2860.35 -3.16661 1.4263 0
M  V30 30806 C 2859.3 -3.43501 2.55326 0
M  V30 30807 C 2858.63 -4.81654 2.32192 0
M  V30 30808 C 2859.93 -3.38704 3.97589 0
M  V30 30809 H 2861.62 -1.72152 2.44957 0
M  V30 30810 H 2859.17 -0.826809 1.17898 0
M  V30 30811 H 2861.12 -3.95095 1.46555 0
M  V30 30812 H 2859.85 -3.23486 0.449934 0
M  V30 30813 H 2858.51 -2.67435 2.50747 0
M  V30 30814 H 2858.15 -4.8515 1.32809 0
M  V30 30815 H 2857.85 -5.00574 3.07733 0
M  V30 30816 H 2859.38 -5.62352 2.37893 0
M  V30 30817 H 2860.79 -4.07082 4.0368 0
M  V30 30818 H 2859.19 -3.6916 4.73118 0
M  V30 30819 H 2860.26 -2.36968 4.23053 0
M  V30 30820 N 2861.6 -1.29668 -0.895769 0
M  V30 30821 C 2862.53 -1.10941 -2.00561 0
M  V30 30822 C 2863.55 -0.0557626 -1.62704 0
M  V30 30823 O 2864.74 -0.300687 -1.75949 0
M  V30 30824 C 2861.84 -0.667506 -3.32261 0
M  V30 30825 C 2861.01 -1.80054 -3.98622 0
M  V30 30826 C 2860.07 -1.34899 -5.08615 0
M  V30 30827 O 2859.09 -2.05438 -5.30833 0
M  V30 30828 N 2860.3 -0.222039 -5.80075 0
M  V30 30829 H 2863.06 -2.06526 -2.1718 0
M  V30 30830 H 2860.62 -1.2166 -1.0682 0
M  V30 30831 H 2862.61 -0.348657 -4.03195 0
M  V30 30832 H 2861.18 0.196 -3.11985 0
M  V30 30833 H 2860.4 -2.28806 -3.21001 0
M  V30 30834 H 2861.69 -2.56011 -4.397 0
M  V30 30835 H 2861.09 0.365984 -5.64515 0
M  V30 30836 H 2859.65 0.0374201 -6.51789 0
M  V30 30837 N 2863.08 1.10667 -1.12208 0
M  V30 30838 C 2864.33 1.82847 -0.877204 0
M  V30 30839 C 2864.66 1.84843 0.595539 0
M  V30 30840 O 2863.93 1.30734 1.4401 0
M  V30 30841 C 2864.22 3.29633 -1.44963 0
M  V30 30842 C 2864.07 3.35984 -2.99057 0
M  V30 30843 C 2865.39 4.25945 -1.10722 0
M  V30 30844 H 2862.51 0.663849 -0.320115 0
M  V30 30845 H 2865.15 1.29717 -1.38829 0
M  V30 30846 H 2863.3 3.75008 -1.01495 0
M  V30 30847 H 2864.97 2.99107 -3.51188 0
M  V30 30848 H 2863.21 2.75956 -3.3471 0
M  V30 30849 H 2863.89 4.39333 -3.34201 0
M  V30 30850 H 2866.36 3.88791 -1.4826 0
M  V30 30851 H 2865.24 5.27018 -1.5344 0
M  V30 30852 H 2865.5 4.42096 -0.0190777 0
M  V30 30853 N 2864.56 0.913621 1.28416 0
M  V30 30854 C 2865.81 0.542606 1.94264 0
M  V30 30855 C 2866.12 -0.918176 1.7271 0
M  V30 30856 O 2867.33 -1.39734 2.3278 0
M  V30 30857 C 2865.78 0.919568 3.47954 0
M  V30 30858 C 2865.39 2.40007 3.78287 0
M  V30 30859 C 2867.13 0.619131 4.19961 0
M  V30 30860 C 2865.04 2.71716 5.25285 0
M  V30 30861 H 2863.97 0.199205 0.727209 0
M  V30 30862 H 2866.62 1.11252 1.45929 0
M  V30 30863 H 2865 0.278442 3.9502 0
M  V30 30864 H 2866.18 3.08792 3.4203 0
M  V30 30865 H 2864.49 2.67095 3.19452 0
M  V30 30866 H 2867.09 0.832716 5.28176 0
M  V30 30867 H 2867.43 -0.443053 4.13936 0
M  V30 30868 H 2867.97 1.21872 3.78671 0
M  V30 30869 H 2864.7 3.76788 5.36387 0
M  V30 30870 H 2864.22 2.07569 5.62739 0
M  V30 30871 H 2865.9 2.58714 5.93023 0
M  V30 30872 N 2866.04 -1.4229 0.677588 0
M  V30 30873 C 2867.45 -1.84619 0.277945 0
M  V30 30874 C 2867.8 -1.56716 -1.18045 0
M  V30 30875 O 2866.92 -1.0284 -1.90402 0
M  V30 30876 C 2867.52 -3.35125 0.497678 0
M  V30 30877 C 2866.08 -3.76092 0.152129 0
M  V30 30878 C 2865.22 -2.65845 0.788767 0
M  V30 30879 H 2868.17 -1.32097 0.87955 0
M  V30 30880 H 2868.2 -3.79682 -0.249323 0
M  V30 30881 H 2867.71 -3.55402 1.55919 0
M  V30 30882 H 2865.81 -3.61421 -0.905833 0
M  V30 30883 H 2865.92 -4.75396 0.594597 0
M  V30 30884 H 2864.29 -2.53749 0.219858 0
M  V30 30885 H 2865.07 -2.88945 1.85379 0
M  V30 30886 N 2867.51 -0.421104 -1.5187 0
M  V30 30887 C 2868.45 0.434025 -2.25053 0
M  V30 30888 C 2869.46 1.0001 -1.28459 0
M  V30 30889 O 2870.65 0.897005 -1.54325 0
M  V30 30890 C 2867.75 1.61738 -2.97815 0
M  V30 30891 C 2866.92 1.17307 -4.21376 0
M  V30 30892 C 2865.98 2.22469 -4.76858 0
M  V30 30893 O 2865.01 1.82568 -5.39127 0
M  V30 30894 N 2866.21 3.54774 -4.59473 0
M  V30 30895 H 2868.97 -0.193125 -2.99077 0
M  V30 30896 H 2866.53 -0.249116 -1.59972 0
M  V30 30897 H 2868.53 2.31679 -3.31824 0
M  V30 30898 H 2867.1 2.1502 -2.26903 0
M  V30 30899 H 2866.32 0.301331 -3.93047 0
M  V30 30900 H 2867.6 0.853356 -5.01593 0
M  V30 30901 H 2867 3.89934 -4.09839 0
M  V30 30902 H 2865.56 4.20656 -4.97887 0
M  V30 30903 N 2868.99 1.56866 -0.151912 0
M  V30 30904 C 2869.92 2.20019 0.781904 0
M  V30 30905 C 2870.9 1.1499 1.25345 0
M  V30 30906 O 2872.09 1.4335 1.31013 0
M  V30 30907 C 2869.22 2.82567 2.01923 0
M  V30 30908 C 2868.17 3.93467 1.68427 0
M  V30 30909 C 2867.5 4.42973 2.99465 0
M  V30 30910 C 2868.8 5.14005 0.927154 0
M  V30 30911 H 2870.49 2.98307 0.255554 0
M  V30 30912 H 2868.04 1.43487 0.121477 0
M  V30 30913 H 2869.99 3.25416 2.67736 0
M  V30 30914 H 2868.72 2.01618 2.56939 0
M  V30 30915 H 2867.37 3.51244 1.04991 0
M  V30 30916 H 2867.02 3.5884 3.52481 0
M  V30 30917 H 2866.72 5.17777 2.77814 0
M  V30 30918 H 2868.25 4.88495 3.6634 0
M  V30 30919 H 2869.66 5.53667 1.48746 0
M  V30 30920 H 2868.06 5.94603 0.810408 0
M  V30 30921 H 2869.13 4.84834 -0.0802016 0
M  V30 30922 N 2870.47 -0.121866 1.57128 0
M  V30 30923 C 2871.72 -0.828716 1.83889 0
M  V30 30924 C 2872.03 -1.81179 0.737119 0
M  V30 30925 O 2873.24 -2.56462 0.891052 0
M  V30 30926 C 2871.69 -1.52449 3.26017 0
M  V30 30927 C 2871.3 -0.582552 4.44196 0
M  V30 30928 C 2873.05 -2.21665 3.62029 0
M  V30 30929 C 2870.95 -1.28139 5.77351 0
M  V30 30930 H 2869.88 -0.313226 0.685861 0
M  V30 30931 H 2872.53 -0.0814529 1.83319 0
M  V30 30932 H 2870.92 -2.31828 3.21048 0
M  V30 30933 H 2872.09 0.17781 4.60457 0
M  V30 30934 H 2870.41 0.00248548 4.164 0
M  V30 30935 H 2873 -2.74635 4.58781 0
M  V30 30936 H 2873.35 -2.99331 2.89321 0
M  V30 30937 H 2873.88 -1.49177 3.6877 0
M  V30 30938 H 2870.62 -0.546074 6.53221 0
M  V30 30939 H 2870.14 -2.01384 5.64982 0
M  V30 30940 H 2871.82 -1.81538 6.2101 0
M  V30 30941 N 2871.95 -1.52648 -0.391965 0
M  V30 30942 C 2872.91 -1.76573 -1.46132 0
M  V30 30943 C 2873.91 -0.635724 -1.477 0
M  V30 30944 O 2875.1 -0.903754 -1.48923 0
M  V30 30945 C 2872.23 -1.86379 -2.85439 0
M  V30 30946 H 2873.43 -2.72053 -1.26203 0
M  V30 30947 H 2870.98 -1.43324 -0.623523 0
M  V30 30948 H 2871.71 -0.92874 -3.10717 0
M  V30 30949 H 2871.5 -2.68544 -2.85703 0
M  V30 30950 H 2872.99 -2.06572 -3.62929 0
M  V30 30951 N 2873.43 0.650235 -1.43561 0
M  V30 30952 C 2874.84 0.966246 -1.27027 0
M  V30 30953 C 2875.04 2.00582 -0.192152 0
M  V30 30954 O 2874.1 2.48839 0.428415 0
M  V30 30955 C 2875.41 1.44767 -2.63558 0
M  V30 30956 C 2876.96 1.56416 -2.71114 0
M  V30 30957 C 2877.43 2.07949 -4.0807 0
M  V30 30958 N 2878.93 2.15247 -4.1015 0
M  V30 30959 C 2879.66 2.56249 -5.12956 0
M  V30 30960 N 2879.16 2.96526 -6.26134 0
M  V30 30961 N 2880.95 2.56215 -5.0031 0
M  V30 30962 H 2873.1 -0.0376131 -2.12367 0
M  V30 30963 H 2875.36 0.0457616 -0.946895 0
M  V30 30964 H 2875.07 0.758211 -3.4343 0
M  V30 30965 H 2874.94 2.42216 -2.89156 0
M  V30 30966 H 2877.33 2.24463 -1.91573 0
M  V30 30967 H 2877.41 0.573923 -2.49278 0
M  V30 30968 H 2877.06 1.40503 -4.88079 0
M  V30 30969 H 2876.99 3.07809 -4.27272 0
M  V30 30970 H 2879.48 1.86882 -3.28456 0
M  V30 30971 H 2879.79 3.2657 -7.00408 0
M  V30 30972 H 2878.13 2.94323 -6.29602 0
M  V30 30973 H 2881.33 2.24128 -4.10956 0
M  V30 30974 H 2881.5 2.87847 -5.80558 0
M  V30 30975 N 2874.9 1.30141 0.88888 0
M  V30 30976 C 2876.15 1.18106 1.63505 0
M  V30 30977 C 2876.47 -0.264107 1.93809 0
M  V30 30978 O 2877.67 -0.505919 2.66745 0
M  V30 30979 C 2876.13 2.06636 2.94669 0
M  V30 30980 C 2875.74 3.56039 2.7192 0
M  V30 30981 C 2877.48 2.03353 3.72623 0
M  V30 30982 C 2875.39 4.36637 3.98876 0
M  V30 30983 H 2874.32 0.438445 0.613418 0
M  V30 30984 H 2876.97 1.54861 0.9844 0
M  V30 30985 H 2875.35 1.6276 3.61006 0
M  V30 30986 H 2876.52 4.08037 2.14109 0
M  V30 30987 H 2874.84 3.61104 2.07347 0
M  V30 30988 H 2877.44 2.60824 4.66771 0
M  V30 30989 H 2877.78 1.01607 4.0371 0
M  V30 30990 H 2878.31 2.45329 3.13143 0
M  V30 30991 H 2875.05 5.39063 3.7295 0
M  V30 30992 H 2874.57 3.89404 4.56207 0
M  V30 30993 H 2876.25 4.47867 4.66931 0
M  V30 30994 N 2876.38 -1.1007 1.12794 0
M  V30 30995 C 2877.66 -1.78631 0.796898 0
M  V30 30996 C 2878.04 -1.98705 -0.712704 0
M  V30 30997 O 2877.39 -1.58313 -1.6477 0
M  V30 30998 C 2877.6 -3.11375 1.57627 0
M  V30 30999 C 2878.95 -3.86191 1.7647 0
M  V30 31000 O 2879.97 -3.21107 1.5417 0
M  V30 31001 O 2878.83 -5.03015 2.13632 0
M  V30 31002 H 2875.92 -0.774388 0.290261 0
M  V30 31003 H 2878.47 -1.16686 1.23218 0
M  V30 31004 H 2877.24 -2.92207 2.60251 0
M  V30 31005 H 2876.86 -3.81041 1.13549 0
M  V30 31006 N 2877.86 -0.920419 -1.2793 0
M  V30 31007 C 2879.09 -0.573122 -1.98804 0
M  V30 31008 C 2879.5 0.847171 -1.68726 0
M  V30 31009 O 2878.86 1.56205 -0.943726 0
M  V30 31010 C 2878.91 -0.780695 -3.52969 0
M  V30 31011 O 2878.63 -2.14511 -3.81991 0
M  V30 31012 C 2880.13 -0.441127 -4.411 0
M  V30 31013 H 2877.35 -0.217861 -0.634648 0
M  V30 31014 H 2879.9 -1.23545 -1.62963 0
M  V30 31015 H 2878.05 -0.165272 -3.87047 0
M  V30 31016 H 2878.47 -2.1897 -4.76605 0
M  V30 31017 H 2879.94 -0.637102 -5.48311 0
M  V30 31018 H 2880.42 0.622984 -4.34759 0
M  V30 31019 H 2881.02 -1.03438 -4.1253 0
M  V30 31020 N 2879.34 1.41929 -0.685124 0
M  V30 31021 C 2880.75 1.84469 -0.287732 0
M  V30 31022 C 2881.1 1.5734 1.17212 0
M  V30 31023 O 2880.23 1.03848 1.89854 0
M  V30 31024 C 2880.82 3.34856 -0.515444 0
M  V30 31025 C 2879.38 3.76006 -0.172072 0
M  V30 31026 C 2878.53 2.65423 -0.802855 0
M  V30 31027 H 2881.48 1.31629 -0.886543 0
M  V30 31028 H 2881.5 3.79809 0.229184 0
M  V30 31029 H 2881.01 3.5457 -1.57802 0
M  V30 31030 H 2879.11 3.61897 0.886653 0
M  V30 31031 H 2879.22 4.75074 -0.6198 0
M  V30 31032 H 2877.59 2.53629 -0.233312 0
M  V30 31033 H 2878.37 2.87958 -1.86909 0
M  V30 31034 N 2880.82 0.429152 1.51644 0
M  V30 31035 C 2882.23 0.081022 1.59394 0
M  V30 31036 C 2882.43 -1.40879 1.44067 0
M  V30 31037 O 2881.49 -2.17784 1.27774 0
M  V30 31038 C 2882.8 0.593825 2.94778 0
M  V30 31039 C 2884.35 0.553548 3.08066 0
M  V30 31040 C 2884.82 1.04319 4.45961 0
M  V30 31041 N 2886.32 1.00084 4.52258 0
M  V30 31042 C 2887.05 1.35066 5.57265 0
M  V30 31043 N 2886.55 1.77293 6.6973 0
M  V30 31044 N 2888.34 1.26935 5.4758 0
M  V30 31045 H 2880.49 1.3986 1.59853 0
M  V30 31046 H 2882.75 0.575818 0.753085 0
M  V30 31047 H 2882.46 1.63588 3.11339 0
M  V30 31048 H 2882.33 0.0142865 3.77197 0
M  V30 31049 H 2884.72 -0.479505 2.91178 0
M  V30 31050 H 2884.8 1.16939 2.27506 0
M  V30 31051 H 2884.45 2.07467 4.63595 0
M  V30 31052 H 2884.38 0.403966 5.25048 0
M  V30 31053 H 2886.87 0.69063 3.71536 0
M  V30 31054 H 2887.18 2.02245 7.45866 0
M  V30 31055 H 2885.52 1.81214 6.7096 0
M  V30 31056 H 2888.72 0.93817 4.58602 0
M  V30 31057 H 2888.89 1.54527 6.29306 0
M  V30 31058 N 2882.29 -1.56783 0.160229 0
M  V30 31059 C 2883.71 -1.83228 -0.358384 0
M  V30 31060 C 2884.06 -1.07955 -1.6383 0
M  V30 31061 O 2883.18 -0.329032 -2.13884 0
M  V30 31062 C 2883.78 -3.32369 -0.657 0
M  V30 31063 C 2882.34 -3.59348 -1.12009 0
M  V30 31064 C 2881.48 -2.76893 -0.150102 0
M  V30 31065 H 2884.43 -1.53967 0.384696 0
M  V30 31066 H 2884.45 -3.49244 -1.51027 0
M  V30 31067 H 2883.97 -3.87126 0.274715 0
M  V30 31068 H 2882.07 -3.0999 -2.06729 0
M  V30 31069 H 2882.18 -4.67744 -1.03692 0
M  V30 31070 H 2880.54 -2.46389 -0.645318 0
M  V30 31071 H 2881.33 -3.34428 0.775438 0
M  V30 31072 N 2883.77 0.113531 -1.57191 0
M  V30 31073 C 2884.7 1.1401 -2.03774 0
M  V30 31074 C 2885.68 1.42867 -0.923201 0
M  V30 31075 O 2886.87 1.53214 -1.19327 0
M  V30 31076 C 2884 2.46486 -2.44667 0
M  V30 31077 C 2882.95 2.32078 -3.59616 0
M  V30 31078 C 2882.28 3.69566 -3.86426 0
M  V30 31079 C 2883.58 1.77672 -4.91152 0
M  V30 31080 H 2885.27 0.752615 -2.89786 0
M  V30 31081 H 2882.82 0.360585 -1.39412 0
M  V30 31082 H 2884.77 3.18556 -2.75862 0
M  V30 31083 H 2883.5 2.87134 -1.55633 0
M  V30 31084 H 2882.16 1.62456 -3.28639 0
M  V30 31085 H 2881.8 4.07709 -2.94588 0
M  V30 31086 H 2881.5 3.60778 -4.63803 0
M  V30 31087 H 2883.03 4.43133 -4.20078 0
M  V30 31088 H 2884.44 2.39565 -5.20847 0
M  V30 31089 H 2882.84 1.79691 -5.72566 0
M  V30 31090 H 2883.91 0.734692 -4.79302 0
M  V30 31091 N 2885.25 1.52854 0.383864 0
M  V30 31092 C 2886.5 1.68397 1.13006 0
M  V30 31093 C 2886.83 0.425229 1.89487 0
M  V30 31094 O 2886.11 -0.577104 1.85741 0
M  V30 31095 C 2886.39 2.92229 2.10414 0
M  V30 31096 C 2886.24 4.28216 1.37662 0
M  V30 31097 C 2887.56 3.11619 3.10776 0
M  V30 31098 H 2884.68 0.612795 0.409452 0
M  V30 31099 H 2887.32 1.8546 0.412863 0
M  V30 31100 H 2885.47 2.77812 2.71574 0
M  V30 31101 H 2887.14 4.54411 0.794272 0
M  V30 31102 H 2885.39 4.28462 0.678458 0
M  V30 31103 H 2886.06 5.10959 2.08865 0
M  V30 31104 H 2888.53 3.25101 2.59709 0
M  V30 31105 H 2887.41 3.99732 3.76172 0
M  V30 31106 H 2887.67 2.26067 3.79929 0
M  V30 31107 N 2886.73 -0.642612 1.43904 0
M  V30 31108 C 2887.98 -1.3996 1.45793 0
M  V30 31109 C 2888.3 -1.94804 0.0873486 0
M  V30 31110 O 2887.57 -1.75083 -0.878794 0
M  V30 31111 H 2886.15 -0.51947 0.536806 0
M  V30 31112 H 2888.81 -0.757158 1.79592 0
M  V30 31113 H 2887.91 -2.23666 2.17669 0
M  V30 31114 N 2888.21 -1.30611 -0.881966 0
M  V30 31115 C 2889.62 -1.09007 -1.16574 0
M  V30 31116 C 2889.82 0.147235 -2.00961 0
M  V30 31117 O 2888.88 0.839994 -2.38118 0
M  V30 31118 C 2890.19 -2.35521 -1.8695 0
M  V30 31119 C 2891.74 -2.41015 -1.99702 0
M  V30 31120 C 2892.22 -3.67379 -2.7349 0
M  V30 31121 N 2893.71 -3.68204 -2.81034 0
M  V30 31122 C 2894.44 -4.6267 -3.3871 0
M  V30 31123 N 2893.94 -5.67482 -3.97411 0
M  V30 31124 N 2895.73 -4.50209 -3.36553 0
M  V30 31125 H 2887.88 -2.09985 -0.319361 0
M  V30 31126 H 2890.14 -0.925781 -0.204041 0
M  V30 31127 H 2889.85 -3.25832 -1.32388 0
M  V30 31128 H 2889.72 -2.444 -2.87313 0
M  V30 31129 H 2892.11 -1.51181 -2.53433 0
M  V30 31130 H 2892.19 -2.36109 -0.984176 0
M  V30 31131 H 2891.84 -4.57573 -2.2043 0
M  V30 31132 H 2891.77 -3.69547 -3.75157 0
M  V30 31133 H 2894.26 -2.9243 -2.39359 0
M  V30 31134 H 2894.57 -6.3566 -4.39495 0
M  V30 31135 H 2892.92 -5.71271 -3.95822 0
M  V30 31136 H 2896.11 -3.67508 -2.89924 0
M  V30 31137 H 2896.28 -5.2401 -3.81206 0
M  V30 31138 N 2889.69 1.0947 -1.13376 0
M  V30 31139 C 2890.62 2.18124 -0.833306 0
M  V30 31140 C 2891.6 1.68834 0.20714 0
M  V30 31141 O 2892.78 1.94087 0.0661671 0
M  V30 31142 C 2889.91 3.46019 -0.298039 0
M  V30 31143 C 2888.87 4.0864 -1.27268 0
M  V30 31144 C 2888.19 5.31355 -0.597197 0
M  V30 31145 C 2889.49 4.51192 -2.63103 0
M  V30 31146 H 2891.19 2.43515 -1.74186 0
M  V30 31147 H 2888.73 1.17037 -0.838941 0
M  V30 31148 H 2890.68 4.21332 -0.0755184 0
M  V30 31149 H 2889.41 3.20149 0.645903 0
M  V30 31150 H 2888.07 3.35345 -1.48119 0
M  V30 31151 H 2887.72 5.01765 0.352205 0
M  V30 31152 H 2887.42 5.74206 -1.24744 0
M  V30 31153 H 2888.94 6.09392 -0.383947 0
M  V30 31154 H 2890.35 5.17732 -2.46223 0
M  V30 31155 H 2888.75 5.04926 -3.24299 0
M  V30 31156 H 2889.82 3.63615 -3.20799 0
M  V30 31157 N 2891.16 0.92719 1.2744 0
M  V30 31158 C 2892.41 0.56318 1.93678 0
M  V30 31159 C 2892.73 -0.899806 1.73675 0
M  V30 31160 O 2893.93 -1.37257 2.34249 0
M  V30 31161 C 2892.39 0.956421 3.46959 0
M  V30 31162 C 2892 2.44006 3.7572 0
M  V30 31163 C 2893.74 0.663639 4.1928 0
M  V30 31164 C 2891.65 2.77273 5.22373 0
M  V30 31165 H 2890.58 0.206907 0.725056 0
M  V30 31166 H 2893.23 1.12793 1.44741 0
M  V30 31167 H 2891.61 0.320323 3.94702 0
M  V30 31168 H 2892.78 3.12402 3.38735 0
M  V30 31169 H 2891.1 2.70468 3.16601 0
M  V30 31170 H 2893.7 0.888689 5.27263 0
M  V30 31171 H 2894.04 -0.399125 4.14382 0
M  V30 31172 H 2894.57 1.25881 3.77358 0
M  V30 31173 H 2891.31 3.82456 5.32361 0
M  V30 31174 H 2890.83 2.13526 5.60506 0
M  V30 31175 H 2892.51 2.64989 5.90246 0
M  V30 31176 N 2892.64 -1.41564 0.692641 0
M  V30 31177 C 2893.59 -2.28 0.00235855 0
M  V30 31178 C 2894.58 -1.42046 -0.755768 0
M  V30 31179 O 2895.77 -1.65342 -0.631743 0
M  V30 31180 C 2892.9 -3.3031 -0.93541 0
M  V30 31181 C 2891.98 -4.23744 -0.173686 0
M  V30 31182 N 2892.37 -4.98928 0.83096 0
M  V30 31183 C 2890.67 -4.44115 -0.409588 0
M  V30 31184 C 2891.37 -5.67292 1.28666 0
M  V30 31185 N 2890.35 -5.40131 0.613148 0
M  V30 31186 H 2894.15 -2.83561 0.772685 0
M  V30 31187 H 2891.66 -1.5374 0.523225 0
M  V30 31188 H 2893.66 -3.91055 -1.44506 0
M  V30 31189 H 2892.32 -2.7631 -1.70537 0
M  V30 31190 H 2893.33 -5.0354 1.2111 0
M  V30 31191 H 2890.01 -4.01129 -1.15766 0
M  V30 31192 H 2891.4 -6.37572 2.12017 0
M  V30 31193 N 2894.12 -0.437188 -1.51415 0
M  V30 31194 C 2895.05 0.410131 -2.25501 0
M  V30 31195 C 2896.06 0.986421 -1.29513 0
M  V30 31196 O 2897.25 0.880587 -1.55267 0
M  V30 31197 C 2894.35 1.5857 -2.99514 0
M  V30 31198 C 2893.53 1.12831 -4.22597 0
M  V30 31199 C 2892.59 2.17399 -4.79191 0
M  V30 31200 O 2891.61 1.7684 -5.41033 0
M  V30 31201 N 2892.81 3.49881 -4.6321 0
M  V30 31202 H 2895.58 -0.224836 -2.98855 0
M  V30 31203 H 2893.14 -0.266069 -1.59699 0
M  V30 31204 H 2895.13 2.28146 -3.34262 0
M  V30 31205 H 2893.7 2.12602 -2.29171 0
M  V30 31206 H 2892.92 0.259626 -3.93344 0
M  V30 31207 H 2894.21 0.800107 -5.0247 0
M  V30 31208 H 2893.61 3.85565 -4.13951 0
M  V30 31209 H 2892.16 4.15352 -5.02321 0
M  V30 31210 N 2895.6 1.56696 -0.168541 0
M  V30 31211 C 2896.53 2.20836 0.758524 0
M  V30 31212 C 2897.51 1.16313 1.24118 0
M  V30 31213 O 2898.69 1.44732 1.29485 0
M  V30 31214 C 2895.82 2.84693 1.98915 0
M  V30 31215 C 2894.78 3.95231 1.64245 0
M  V30 31216 C 2894.1 4.46124 2.94749 0
M  V30 31217 C 2895.4 5.14959 0.872585 0
M  V30 31218 H 2897.1 2.98562 0.2239 0
M  V30 31219 H 2894.64 1.43607 0.106252 0
M  V30 31220 H 2896.6 3.28237 2.64269 0
M  V30 31221 H 2895.32 2.04332 2.54786 0
M  V30 31222 H 2893.98 3.52338 1.0126 0
M  V30 31223 H 2893.63 3.62558 3.48655 0
M  V30 31224 H 2893.33 5.20695 2.72307 0
M  V30 31225 H 2894.85 4.92353 3.61138 0
M  V30 31226 H 2896.27 5.55214 1.42866 0
M  V30 31227 H 2894.66 5.95429 0.747297 0
M  V30 31228 H 2895.73 4.84721 -0.13162 0
M  V30 31229 N 2897.08 -0.105193 1.57249 0
M  V30 31230 C 2898.01 -1.12927 2.04376 0
M  V30 31231 C 2898.99 -1.42375 0.930765 0
M  V30 31232 O 2900.17 -1.52579 1.20138 0
M  V30 31233 C 2897.3 -2.45185 2.45971 0
M  V30 31234 C 2896.26 -2.30168 3.60842 0
M  V30 31235 C 2895.58 -3.67511 3.88381 0
M  V30 31236 C 2896.88 -1.75065 4.92087 0
M  V30 31237 H 2898.58 -0.737236 2.90181 0
M  V30 31238 H 2896.12 -0.353187 1.39602 0
M  V30 31239 H 2898.07 -3.17089 2.77548 0
M  V30 31240 H 2896.8 -2.86305 1.57153 0
M  V30 31241 H 2895.46 -1.6071 3.29496 0
M  V30 31242 H 2895.11 -4.06141 2.96746 0
M  V30 31243 H 2894.81 -3.58313 4.6571 0
M  V30 31244 H 2896.33 -4.40899 4.22422 0
M  V30 31245 H 2897.74 -2.36799 5.2211 0
M  V30 31246 H 2896.14 -1.76652 5.7351 0
M  V30 31247 H 2897.21 -0.709263 4.79685 0
M  V30 31248 N 2898.55 -1.53055 -0.375752 0
M  V30 31249 C 2899.78 -1.72639 -1.14033 0
M  V30 31250 C 2900.2 -0.450719 -1.83341 0
M  V30 31251 O 2899.55 0.575719 -1.73181 0
M  V30 31252 C 2899.61 -2.88496 -2.17836 0
M  V30 31253 O 2899.33 -4.11126 -1.51351 0
M  V30 31254 C 2900.83 -3.19869 -3.06919 0
M  V30 31255 H 2898.05 -0.577671 -0.341376 0
M  V30 31256 H 2900.59 -1.99759 -0.437774 0
M  V30 31257 H 2898.75 -2.63799 -2.83705 0
M  V30 31258 H 2899.16 -4.75931 -2.2043 0
M  V30 31259 H 2900.63 -4.04366 -3.75755 0
M  V30 31260 H 2901.11 -2.34804 -3.71165 0
M  V30 31261 H 2901.72 -3.46454 -2.46678 0
M  V30 31262 N 2900.03 0.634971 -1.44242 0
M  V30 31263 C 2901.31 1.39314 -1.37299 0
M  V30 31264 C 2901.69 2.11079 -0.0297903 0
M  V30 31265 O 2901.04 2.06061 0.987488 0
M  V30 31266 C 2901.25 2.36274 -2.56857 0
M  V30 31267 C 2902.6 2.99722 -3.00752 0
M  V30 31268 O 2903.62 2.466 -2.57034 0
M  V30 31269 O 2902.48 3.96081 -3.7654 0
M  V30 31270 H 2899.57 0.623315 -0.543514 0
M  V30 31271 H 2902.12 0.660349 -1.56325 0
M  V30 31272 H 2900.89 1.82318 -3.46231 0
M  V30 31273 H 2900.51 3.16977 -2.40024 0
M  V30 31274 N 2901.51 1.31076 0.875027 0
M  V30 31275 C 2902.76 1.19834 1.62243 0
M  V30 31276 C 2903.07 -0.243536 1.94078 0
M  V30 31277 O 2904.28 -0.477599 2.67266 0
M  V30 31278 C 2902.73 2.09749 2.92461 0
M  V30 31279 C 2902.34 3.58903 2.68128 0
M  V30 31280 C 2904.09 2.07294 3.70445 0
M  V30 31281 C 2901.99 4.40843 3.94223 0
M  V30 31282 H 2900.92 0.444927 0.608733 0
M  V30 31283 H 2903.57 1.55896 0.96792 0
M  V30 31284 H 2901.96 1.6658 3.59259 0
M  V30 31285 H 2903.13 4.10285 2.09769 0
M  V30 31286 H 2901.45 3.63283 2.03505 0
M  V30 31287 H 2904.04 2.6576 4.63978 0
M  V30 31288 H 2904.39 1.05883 4.0261 0
M  V30 31289 H 2904.92 2.48637 3.10523 0
M  V30 31290 H 2901.66 5.42988 3.67211 0
M  V30 31291 H 2901.18 3.94221 4.52051 0
M  V30 31292 H 2902.86 4.52794 4.62154 0
M  V30 31293 N 2902.99 -1.08867 1.13955 0
M  V30 31294 C 2904.24 -1.80802 0.903055 0
M  V30 31295 C 2904.56 -1.86418 -0.572118 0
M  V30 31296 O 2903.83 -1.35388 -1.41587 0
M  V30 31297 H 2902.41 -0.669608 0.33111 0
M  V30 31298 H 2905.07 -1.31645 1.43721 0
M  V30 31299 H 2904.17 -2.83789 1.29885 0
M  V30 31300 N 2904.47 -0.933936 -1.26946 0
M  V30 31301 C 2905.88 -0.635128 -1.46418 0
M  V30 31302 C 2906.08 0.813753 -1.84338 0
M  V30 31303 O 2905.14 1.59107 -1.96064 0
M  V30 31304 C 2906.45 -1.59034 -2.55203 0
M  V30 31305 C 2908 -1.59925 -2.69059 0
M  V30 31306 C 2908.47 -2.54159 -3.81008 0
M  V30 31307 N 2909.97 -2.52402 -3.88391 0
M  V30 31308 C 2910.7 -3.22004 -4.74448 0
M  V30 31309 N 2910.2 -4.01007 -5.64947 0
M  V30 31310 N 2911.99 -3.10992 -4.68231 0
M  V30 31311 H 2904.14 -1.87055 -1.00619 0
M  V30 31312 H 2906.4 -0.803442 -0.503175 0
M  V30 31313 H 2906.11 -2.62426 -2.34149 0
M  V30 31314 H 2905.98 -1.33683 -3.52716 0
M  V30 31315 H 2908.37 -0.57262 -2.89491 0
M  V30 31316 H 2908.45 -1.89328 -1.72013 0
M  V30 31317 H 2908.1 -3.56936 -3.6133 0
M  V30 31318 H 2908.03 -2.22049 -4.77495 0
M  V30 31319 H 2910.52 -1.95031 -3.23684 0
M  V30 31320 H 2910.83 -4.51085 -6.27488 0
M  V30 31321 H 2909.17 -4.05109 -5.64723 0
M  V30 31322 H 2912.37 -2.4876 -3.9653 0
M  V30 31323 H 2912.54 -3.65504 -5.3508 0
M  V30 31324 N 2905.94 1.41194 -0.700139 0
M  V30 31325 C 2907.17 2.05179 -0.241864 0
M  V30 31326 C 2907.58 1.52805 1.11567 0
M  V30 31327 O 2906.93 0.673072 1.70925 0
M  V30 31328 C 2906.99 3.59276 -0.127013 0
M  V30 31329 C 2906.65 4.34466 -1.41733 0
M  V30 31330 C 2907.65 4.63447 -2.35612 0
M  V30 31331 C 2905.33 4.73657 -1.67197 0
M  V30 31332 C 2907.33 5.30584 -3.53213 0
M  V30 31333 C 2905.01 5.40529 -2.85082 0
M  V30 31334 C 2906.01 5.6892 -3.77914 0
M  V30 31335 O 2905.7 6.34415 -4.93734 0
M  V30 31336 H 2905.43 0.667112 -0.109259 0
M  V30 31337 H 2907.99 1.81871 -0.95457 0
M  V30 31338 H 2906.22 3.81342 0.641504 0
M  V30 31339 H 2907.91 4.04829 0.294677 0
M  V30 31340 H 2908.67 4.33647 -2.17198 0
M  V30 31341 H 2904.55 4.50936 -0.958014 0
M  V30 31342 H 2908.09 5.52661 -4.25689 0
M  V30 31343 H 2903.99 5.69747 -3.03412 0
M  V30 31344 H 2904.76 6.52911 -4.93609 0
M  V30 31345 N 2907.42 0.445212 1.51181 0
M  V30 31346 C 2908.37 -0.380355 2.24805 0
M  V30 31347 C 2909.36 -0.983459 1.27346 0
M  V30 31348 O 2910.55 -0.900295 1.52393 0
M  V30 31349 C 2907.68 -1.47654 3.09924 0
M  V30 31350 C 2906.76 -0.882444 4.14818 0
M  V30 31351 N 2907.15 -0.0182389 5.05797 0
M  V30 31352 C 2905.45 -1.14919 4.3094 0
M  V30 31353 C 2906.15 0.316254 5.8084 0
M  V30 31354 N 2905.13 -0.302118 5.4276 0
M  V30 31355 H 2908.93 0.285789 2.92507 0
M  V30 31356 H 2906.45 0.257761 1.60341 0
M  V30 31357 H 2908.44 -2.08091 3.61253 0
M  V30 31358 H 2907.1 -2.14494 2.43767 0
M  V30 31359 H 2908.11 0.34877 5.16724 0
M  V30 31360 H 2904.79 -1.8145 3.76008 0
M  V30 31361 H 2906.18 1.01998 6.64113 0
M  V30 31362 N 2908.9 -1.56605 0.176849 0
M  V30 31363 C 2910.31 -1.83598 -0.33893 0
M  V30 31364 C 2910.66 -1.09687 -1.62675 0
M  V30 31365 O 2909.79 -0.351699 -2.13523 0
M  V30 31366 C 2910.38 -3.33047 -0.621711 0
M  V30 31367 C 2908.94 -3.60516 -1.08191 0
M  V30 31368 C 2908.09 -2.77037 -0.120725 0
M  V30 31369 H 2911.04 -1.5355 0.401005 0
M  V30 31370 H 2911.06 -3.50826 -1.47314 0
M  V30 31371 H 2910.57 -3.86813 0.315759 0
M  V30 31372 H 2908.67 -3.12165 -2.03429 0
M  V30 31373 H 2908.79 -4.68818 -0.987247 0
M  V30 31374 H 2907.15 -2.4706 -0.619149 0
M  V30 31375 H 2907.93 -3.33586 0.810865 0
M  V30 31376 N 2910.38 0.0968524 -1.57302 0
M  V30 31377 C 2911.31 1.14381 -1.9862 0
M  V30 31378 C 2912.32 1.36416 -0.888507 0
M  V30 31379 O 2913.51 1.35099 -1.16664 0
M  V30 31380 C 2910.61 2.49969 -2.28842 0
M  V30 31381 C 2909.79 2.48234 -3.60137 0
M  V30 31382 C 2908.84 3.65737 -3.78316 0
M  V30 31383 O 2907.87 3.48308 -4.50189 0
M  V30 31384 N 2909.07 4.85152 -3.1876 0
M  V30 31385 H 2911.84 0.792151 -2.89042 0
M  V30 31386 H 2909.4 0.285855 -1.59356 0
M  V30 31387 H 2911.39 3.27175 -2.38199 0
M  V30 31388 H 2909.96 2.77231 -1.44436 0
M  V30 31389 H 2909.18 1.56587 -3.61765 0
M  V30 31390 H 2910.47 2.44152 -4.46394 0
M  V30 31391 H 2909.87 5.02216 -2.60377 0
M  V30 31392 H 2908.42 5.59956 -3.33605 0
M  V30 31393 N 2911.86 1.53252 0.36763 0
M  V30 31394 C 2912.82 1.78875 1.43305 0
M  V30 31395 C 2913.82 0.659141 1.4667 0
M  V30 31396 O 2915.01 0.927332 1.47466 0
M  V30 31397 C 2912.14 1.90897 2.82438 0
M  V30 31398 H 2913.33 2.74026 1.21859 0
M  V30 31399 H 2910.89 1.44298 0.600643 0
M  V30 31400 H 2911.62 0.978055 3.092 0
M  V30 31401 H 2911.41 2.73056 2.81395 0
M  V30 31402 H 2912.9 2.1232 3.59597 0
M  V30 31403 N 2913.34 -0.627313 1.44577 0
M  V30 31404 C 2914.27 -1.7502 1.54565 0
M  V30 31405 C 2915.25 -1.65368 0.398407 0
M  V30 31406 O 2916.43 -1.8407 0.619022 0
M  V30 31407 C 2913.56 -3.13564 1.49315 0
M  V30 31408 C 2912.52 -3.38008 2.62555 0
M  V30 31409 C 2911.84 -4.76621 2.42356 0
M  V30 31410 C 2913.14 -3.30195 4.04684 0
M  V30 31411 H 2914.84 -1.66918 2.48553 0
M  V30 31412 H 2912.38 -0.801615 1.19625 0
M  V30 31413 H 2914.33 -3.91897 1.54902 0
M  V30 31414 H 2913.06 -3.22459 0.518449 0
M  V30 31415 H 2911.72 -2.62057 2.56363 0
M  V30 31416 H 2911.37 -4.82224 1.4307 0
M  V30 31417 H 2911.07 -4.93934 3.18282 0
M  V30 31418 H 2912.59 -5.57179 2.49768 0
M  V30 31419 H 2914 -3.98427 4.12224 0
M  V30 31420 H 2912.4 -3.59041 4.80842 0
M  V30 31421 H 2913.47 -2.27941 4.27984 0
M  V30 31422 N 2914.81 -1.31539 -0.868063 0
M  V30 31423 C 2916.06 -1.20692 -1.61605 0
M  V30 31424 C 2916.38 0.23324 -1.94204 0
M  V30 31425 O 2917.58 0.463418 -2.67516 0
M  V30 31426 C 2916.04 -2.11297 -2.91344 0
M  V30 31427 C 2915.65 -3.6032 -2.66221 0
M  V30 31428 C 2917.39 -2.09255 -3.69341 0
M  V30 31429 C 2915.3 -4.42927 -3.91879 0
M  V30 31430 H 2914.23 -0.448149 -0.606365 0
M  V30 31431 H 2916.88 -1.56407 -0.959638 0
M  V30 31432 H 2915.26 -1.68483 -3.58371 0
M  V30 31433 H 2916.43 -4.11392 -2.0759 0
M  V30 31434 H 2914.75 -3.64357 -2.01576 0
M  V30 31435 H 2917.35 -2.68217 -4.62562 0
M  V30 31436 H 2917.69 -1.08017 -4.02042 0
M  V30 31437 H 2918.22 -2.5028 -3.092 0
M  V30 31438 H 2914.96 -5.44928 -3.64327 0
M  V30 31439 H 2914.48 -3.96612 -4.49954 0
M  V30 31440 H 2916.16 -4.55239 -4.59746 0
M  V30 31441 N 2916.29 1.08262 -1.1453 0
M  V30 31442 C 2917.52 1.84149 -0.936636 0
M  V30 31443 C 2917.93 1.81963 0.518266 0
M  V30 31444 O 2917.27 1.22274 1.37094 0
M  V30 31445 C 2917.33 3.32706 -1.36188 0
M  V30 31446 C 2917 3.58624 -2.83263 0
M  V30 31447 C 2918 3.53343 -3.81372 0
M  V30 31448 C 2915.68 3.86587 -3.20711 0
M  V30 31449 C 2917.67 3.75659 -5.14936 0
M  V30 31450 C 2915.36 4.08556 -4.54451 0
M  V30 31451 C 2916.36 4.03085 -5.51372 0
M  V30 31452 O 2916.05 4.24476 -6.82697 0
M  V30 31453 H 2915.78 0.588142 -0.333264 0
M  V30 31454 H 2918.33 1.37627 -1.52473 0
M  V30 31455 H 2916.56 3.79992 -0.71713 0
M  V30 31456 H 2918.25 3.90033 -1.12379 0
M  V30 31457 H 2919.02 3.31753 -3.53787 0
M  V30 31458 H 2914.9 3.89964 -2.45864 0
M  V30 31459 H 2918.44 3.71305 -5.90575 0
M  V30 31460 H 2914.34 4.29631 -4.81755 0
M  V30 31461 H 2915.11 4.41873 -6.88978 0
M  V30 31462 N 2917.77 0.940655 1.26449 0
M  V30 31463 C 2919.18 0.630683 1.75725 0
M  V30 31464 C 2919.53 -0.854136 1.76632 0
M  V30 31465 O 2918.66 -1.66845 1.3781 0
M  V30 31466 C 2919.25 1.13811 3.19112 0
M  V30 31467 C 2917.81 0.878561 3.66003 0
M  V30 31468 C 2916.96 1.28932 2.45503 0
M  V30 31469 H 2919.91 1.11902 1.12533 0
M  V30 31470 H 2919.93 0.491691 3.7731 0
M  V30 31471 H 2919.44 2.21879 3.1842 0
M  V30 31472 H 2917.54 -0.187768 3.72127 0
M  V30 31473 H 2917.66 1.5052 4.54841 0
M  V30 31474 H 2916.02 0.707756 2.44669 0
M  V30 31475 H 2916.8 2.37893 2.47512 0
M  V30 31476 N 2919.25 -1.40821 0.707617 0
M  V30 31477 C 2920.18 -2.33411 0.0645335 0
M  V30 31478 C 2921.16 -1.52467 -0.754179 0
M  V30 31479 O 2922.34 -1.80962 -0.704717 0
M  V30 31480 C 2919.47 -3.36386 -0.863806 0
M  V30 31481 C 2918.43 -4.27732 -0.151305 0
M  V30 31482 C 2917.75 -5.2118 -1.19482 0
M  V30 31483 C 2919.05 -5.12837 0.989697 0
M  V30 31484 H 2920.75 -2.87437 0.83788 0
M  V30 31485 H 2918.29 -1.38206 0.404371 0
M  V30 31486 H 2920.25 -4.00093 -1.32302 0
M  V30 31487 H 2918.97 -2.80737 -1.66896 0
M  V30 31488 H 2917.63 -3.65467 0.288001 0
M  V30 31489 H 2917.28 -4.6184 -1.99281 0
M  V30 31490 H 2916.98 -5.83135 -0.723021 0
M  V30 31491 H 2918.5 -5.87763 -1.6543 0
M  V30 31492 H 2919.92 -5.70043 0.610215 0
M  V30 31493 H 2918.31 -5.83795 1.38936 0
M  V30 31494 H 2919.38 -4.49288 1.82397 0
M  V30 31495 N 2920.73 -0.453223 -1.50943 0
M  V30 31496 C 2921.95 0.106099 -2.06628 0
M  V30 31497 C 2922.37 1.35082 -1.31903 0
M  V30 31498 O 2921.73 1.78434 -0.383105 0
M  V30 31499 C 2921.78 0.412305 -3.59141 0
M  V30 31500 O 2921.5 -0.783024 -4.31046 0
M  V30 31501 C 2923 1.02056 -4.31392 0
M  V30 31502 H 2920.22 0.000874102 -0.670999 0
M  V30 31503 H 2922.76 -0.636874 -1.9433 0
M  V30 31504 H 2920.92 1.10519 -3.71301 0
M  V30 31505 H 2921.33 -0.516827 -5.21947 0
M  V30 31506 H 2922.81 1.1847 -5.39137 0
M  V30 31507 H 2923.28 2.00591 -3.90717 0
M  V30 31508 H 2923.89 0.36659 -4.23717 0
M  V30 31509 N 2922.2 1.56509 -0.185151 0
M  V30 31510 C 2923.45 1.97586 0.456899 0
M  V30 31511 C 2923.78 1.07164 1.61955 0
M  V30 31512 O 2923.06 0.12158 1.9412 0
M  V30 31513 C 2923.34 3.47974 0.926604 0
M  V30 31514 C 2923.19 4.49174 -0.237176 0
M  V30 31515 C 2924.51 4.01806 1.79554 0
M  V30 31516 H 2921.63 0.718383 0.164606 0
M  V30 31517 H 2924.27 1.88013 -0.274072 0
M  V30 31518 H 2922.42 3.56263 1.54947 0
M  V30 31519 H 2924.1 4.52933 -0.87462 0
M  V30 31520 H 2922.34 4.24561 -0.890521 0
M  V30 31521 H 2923.01 5.51838 0.133827 0
M  V30 31522 H 2925.49 3.96235 1.27033 0
M  V30 31523 H 2924.36 5.07422 2.09318 0
M  V30 31524 H 2924.62 3.4646 2.74623 0
M  V30 31525 N 2923.68 -0.0885089 1.57351 0
M  V30 31526 C 2924.64 -1.09117 2.01559 0
M  V30 31527 C 2925.64 -1.32568 0.910076 0
M  V30 31528 O 2926.83 -1.2857 1.17539 0
M  V30 31529 C 2923.97 -2.43878 2.38194 0
M  V30 31530 H 2925.16 -0.71051 2.91362 0
M  V30 31531 H 2922.71 -0.333752 1.52695 0
M  V30 31532 H 2923.45 -2.86808 1.51365 0
M  V30 31533 H 2923.23 -2.28203 3.1885 0
M  V30 31534 H 2924.72 -3.15981 2.7303 0
M  V30 31535 N 2925.16 -1.53445 -0.359498 0
M  V30 31536 C 2926.38 -1.74146 -1.12641 0
M  V30 31537 C 2926.81 -0.472039 -1.82081 0
M  V30 31538 O 2926.17 0.57433 -1.71963 0
M  V30 31539 C 2926.22 -2.91134 -2.12776 0
M  V30 31540 O 2925.32 -2.60167 -3.19979 0
M  V30 31541 H 2924.66 -0.578157 -0.326542 0
M  V30 31542 H 2927.19 -2.00352 -0.414763 0
M  V30 31543 H 2927.2 -3.17472 -2.56273 0
M  V30 31544 H 2925.88 -3.83209 -1.61627 0
M  V30 31545 H 2924.45 -2.44666 -2.81412 0
M  V30 31546 N 2926.64 0.619637 -1.44908 0
M  V30 31547 C 2927.58 1.73102 -1.52657 0
M  V30 31548 C 2928.55 1.61849 -0.373362 0
M  V30 31549 O 2929.74 1.81605 -0.585174 0
M  V30 31550 C 2926.88 3.11384 -1.48775 0
M  V30 31551 C 2925.99 3.3353 -2.74557 0
M  V30 31552 C 2925.13 4.61849 -2.62429 0
M  V30 31553 C 2924.17 4.77213 -3.83321 0
M  V30 31554 N 2923.3 5.96819 -3.69799 0
M  V30 31555 H 2928.14 1.65815 -2.47607 0
M  V30 31556 H 2925.68 0.808698 -1.22876 0
M  V30 31557 H 2927.64 3.91372 -1.44513 0
M  V30 31558 H 2926.27 3.17659 -0.573839 0
M  V30 31559 H 2925.32 2.47402 -2.88957 0
M  V30 31560 H 2926.63 3.40759 -3.64259 0
M  V30 31561 H 2925.79 5.50014 -2.56065 0
M  V30 31562 H 2924.53 4.56998 -1.70306 0
M  V30 31563 H 2923.53 3.87474 -3.90056 0
M  V30 31564 H 2924.76 4.8387 -4.76495 0
M  V30 31565 H 2922.7 5.93036 -2.80436 0
M  V30 31566 H 2922.62 6.05155 -4.53127 0
M  V30 31567 H 2923.89 6.87515 -3.67347 0
M  V30 31568 N 2928.12 1.31997 0.861075 0
M  V30 31569 C 2929.34 1.25313 1.65261 0
M  V30 31570 C 2929.77 -0.176975 1.87266 0
M  V30 31571 O 2929.12 -1.12617 1.42082 0
M  V30 31572 C 2929.17 2.01155 2.99281 0
M  V30 31573 O 2928.28 1.35497 3.89505 0
M  V30 31574 H 2927.62 0.432201 0.504082 0
M  V30 31575 H 2930.15 1.7421 1.07294 0
M  V30 31576 H 2930.16 2.11087 3.49151 0
M  V30 31577 H 2928.83 3.05153 2.82586 0
M  V30 31578 H 2927.41 1.34073 3.47964 0
M  V30 31579 N 2929.59 -1.07653 1.15103 0
M  V30 31580 C 2930.82 -1.83916 0.947763 0
M  V30 31581 C 2931.24 -1.81951 -0.503895 0
M  V30 31582 O 2930.59 -1.22873 -1.34939 0
M  V30 31583 C 2930.65 -3.3113 1.45035 0
M  V30 31584 O 2930.37 -3.33141 2.84514 0
M  V30 31585 C 2931.87 -4.24172 1.28814 0
M  V30 31586 H 2929.09 -0.580352 0.336797 0
M  V30 31587 H 2931.63 -1.35912 1.52801 0
M  V30 31588 H 2929.79 -3.76495 0.912698 0
M  V30 31589 H 2930.2 -4.25095 3.07237 0
M  V30 31590 H 2931.67 -5.25548 1.68829 0
M  V30 31591 H 2932.15 -4.38587 0.231928 0
M  V30 31592 H 2932.76 -3.8464 1.81472 0
M  V30 31593 N 2931.07 -0.947348 -1.25949 0
M  V30 31594 C 2932.3 -0.615162 -1.97543 0
M  V30 31595 C 2932.72 0.811191 -1.70485 0
M  V30 31596 O 2932.07 1.54168 -0.976647 0
M  V30 31597 C 2932.12 -0.85539 -3.51234 0
M  V30 31598 O 2931.84 -2.22565 -3.77355 0
M  V30 31599 C 2933.35 -0.534592 -4.40065 0
M  V30 31600 H 2930.57 -0.231274 -0.629884 0
M  V30 31601 H 2933.11 -1.26974 -1.60306 0
M  V30 31602 H 2931.26 -0.247334 -3.8661 0
M  V30 31603 H 2931.68 -2.29031 -4.71853 0
M  V30 31604 H 2933.15 -0.753264 -5.46836 0
M  V30 31605 H 2933.63 0.530625 -4.35983 0
M  V30 31606 H 2934.24 -1.12165 -4.10243 0
M  V30 31607 N 2932.55 1.40444 -0.715075 0
M  V30 31608 C 2933.78 2.05209 -0.263995 0
M  V30 31609 C 2934.19 1.53873 1.094 0
M  V30 31610 O 2933.55 0.695094 1.68744 0
M  V30 31611 C 2933.6 3.60738 -0.234608 0
M  V30 31612 O 2933.32 4.10179 -1.53898 0
M  V30 31613 C 2934.82 4.42676 0.235086 0
M  V30 31614 H 2932.04 0.660405 -0.118771 0
M  V30 31615 H 2934.59 1.79862 -0.973139 0
M  V30 31616 H 2932.74 3.85056 0.425496 0
M  V30 31617 H 2933.16 5.0437 -1.43912 0
M  V30 31618 H 2934.63 5.51621 0.204501 0
M  V30 31619 H 2935.11 4.2022 1.27716 0
M  V30 31620 H 2935.71 4.23464 -0.394723 0
M  V30 31621 N 2934.03 0.461222 1.507 0
M  V30 31622 C 2934.99 -0.326639 2.26861 0
M  V30 31623 C 2935.99 -0.929061 1.31244 0
M  V30 31624 O 2937.18 -0.799779 1.54755 0
M  V30 31625 C 2934.31 -1.46435 3.07847 0
M  V30 31626 H 2935.51 0.341148 2.97953 0
M  V30 31627 H 2933.06 0.215011 1.54814 0
M  V30 31628 H 2933.79 -2.16749 2.41227 0
M  V30 31629 H 2933.58 -1.03829 3.78103 0
M  V30 31630 H 2935.07 -2.02038 3.65473 0
M  V30 31631 N 2935.51 -1.56408 0.193449 0
M  V30 31632 C 2936.92 -1.58771 -0.16242 0
M  V30 31633 C 2937.12 -1.20957 -1.61157 0
M  V30 31634 O 2936.18 -0.931538 -2.34688 0
M  V30 31635 C 2937.49 -3.00381 0.138444 0
M  V30 31636 C 2939.04 -3.12902 0.0784199 0
M  V30 31637 C 2939.51 -4.56641 0.352571 0
M  V30 31638 N 2941.01 -4.6222 0.301131 0
M  V30 31639 C 2941.74 -5.71327 0.487128 0
M  V30 31640 N 2941.24 -6.88907 0.733386 0
M  V30 31641 N 2943.03 -5.60517 0.421499 0
M  V30 31642 H 2935.18 -1.7927 1.13912 0
M  V30 31643 H 2937.44 -0.831922 0.454543 0
M  V30 31644 H 2937.15 -3.32602 1.14318 0
M  V30 31645 H 2937.02 -3.73024 -0.559738 0
M  V30 31646 H 2939.41 -2.80494 -0.916914 0
M  V30 31647 H 2939.49 -2.42648 0.809654 0
M  V30 31648 H 2939.14 -4.89762 1.34522 0
M  V30 31649 H 2939.07 -5.25082 -0.399532 0
M  V30 31650 H 2941.56 -3.77718 0.117345 0
M  V30 31651 H 2941.87 -7.67953 0.864165 0
M  V30 31652 H 2940.21 -6.90718 0.77026 0
M  V30 31653 H 2943.41 -4.67537 0.229543 0
M  V30 31654 H 2943.58 -6.45489 0.569872 0
M  V30 31655 N 2936.98 0.0801629 -1.57396 0
M  V30 31656 C 2937.93 1.10286 -1.99552 0
M  V30 31657 C 2938.92 1.34946 -0.876258 0
M  V30 31658 O 2940.11 1.35387 -1.14014 0
M  V30 31659 C 2937.24 2.41896 -2.43601 0
M  V30 31660 C 2936.33 2.20545 -3.62244 0
M  V30 31661 N 2936.72 1.69101 -4.76696 0
M  V30 31662 C 2935.01 2.51052 -3.68631 0
M  V30 31663 C 2935.72 1.62369 -5.5858 0
M  V30 31664 N 2934.69 2.08121 -5.02182 0
M  V30 31665 H 2938.49 0.698285 -2.85484 0
M  V30 31666 H 2936.01 0.287367 -1.59837 0
M  V30 31667 H 2938 3.15914 -2.72037 0
M  V30 31668 H 2936.66 2.83077 -1.59052 0
M  V30 31669 H 2937.68 1.38084 -4.99153 0
M  V30 31670 H 2934.35 2.95656 -2.94777 0
M  V30 31671 H 2935.74 1.23519 -6.60449 0
M  V30 31672 N 2938.46 1.53634 0.351355 0
M  V30 31673 C 2939.41 1.81762 1.45139 0
M  V30 31674 C 2940.4 0.687598 1.54817 0
M  V30 31675 O 2941.61 0.8708 1.57534 0
M  V30 31676 H 2937.99 0.575728 0.483779 0
M  V30 31677 H 2939.96 2.73808 1.18625 0
M  V30 31678 C 2938.71 2.03711 2.81775 0
M  V30 31679 H 2938.03 2.90111 2.75092 0
M  V30 31680 H 2939.47 2.27362 3.57886 0
M  V30 31681 C 2937.93 0.820329 3.2676 0
M  V30 31682 O 2938.46 0.0159309 4.01697 0
M  V30 31683 N 2936.66 0.639749 2.83471 0
M  V30 31684 H 2936.21 1.2955 2.22653 0
M  V30 31685 H 2936.17 -0.17294 3.13924 0
M  V30 31686 N 2939.94 -0.611943 1.45234 0
M  V30 31687 C 2940.9 -1.70485 1.53192 0
M  V30 31688 C 2941.9 -1.55436 0.411866 0
M  V30 31689 O 2943.09 -1.60583 0.675192 0
M  V30 31690 C 2940.23 -3.09721 1.42428 0
M  V30 31691 H 2941.42 -1.64797 2.50563 0
M  V30 31692 H 2938.97 -0.827294 1.3261 0
M  V30 31693 H 2939.71 -3.20989 0.462241 0
M  V30 31694 H 2939.49 -3.22051 2.23663 0
M  V30 31695 H 2940.98 -3.89337 1.51019 0
M  V30 31696 N 2941.42 -1.32452 -0.854063 0
M  V30 31697 C 2942.38 -1.21375 -1.94424 0
M  V30 31698 C 2943.38 -0.136641 -1.60218 0
M  V30 31699 O 2944.57 -0.387086 -1.69845 0
M  V30 31700 C 2941.7 -0.866759 -3.29697 0
M  V30 31701 H 2942.9 -2.18261 -2.05675 0
M  V30 31702 H 2940.45 -1.16292 -1.04432 0
M  V30 31703 H 2941.18 0.100262 -3.24145 0
M  V30 31704 H 2940.97 -1.64551 -3.55901 0
M  V30 31705 H 2942.46 -0.813587 -4.09598 0
M  V30 31706 N 2942.9 1.07041 -1.15672 0
M  V30 31707 C 2943.85 2.16425 -0.852242 0
M  V30 31708 C 2944.84 1.68487 0.175631 0
M  V30 31709 O 2946.05 1.79974 0.0303558 0
M  V30 31710 H 2942.42 0.706373 -0.257954 0
M  V30 31711 H 2944.39 2.39321 -1.78235 0
M  V30 31712 C 2943.14 3.45816 -0.361423 0
M  V30 31713 H 2942.46 3.8309 -1.14375 0
M  V30 31714 H 2943.9 4.23587 -0.187071 0
M  V30 31715 C 2942.36 3.24162 0.917646 0
M  V30 31716 O 2942.89 3.49028 1.98852 0
M  V30 31717 N 2941.1 2.77632 0.858407 0
M  V30 31718 H 2940.65 2.57597 -0.0132274 0
M  V30 31719 H 2940.6 2.63523 1.71473 0
M  V30 31720 N 2944.38 0.954014 1.25445 0
M  V30 31721 C 2945.32 0.472524 2.25911 0
M  V30 31722 C 2946.29 -0.474662 1.59173 0
M  V30 31723 O 2947.48 -0.388049 1.86812 0
M  V30 31724 C 2944.62 -0.244157 3.44235 0
M  V30 31725 C 2943.73 0.740196 4.25611 0
M  V30 31726 C 2942.87 0.00101564 5.312 0
M  V30 31727 C 2941.9 0.976342 6.04263 0
M  V30 31728 N 2941.04 0.268075 7.01588 0
M  V30 31729 H 2945.88 1.33415 2.66467 0
M  V30 31730 H 2943.42 0.669068 1.31003 0
M  V30 31731 H 2945.38 -0.676242 4.11683 0
M  V30 31732 H 2944.01 -1.06983 3.04556 0
M  V30 31733 H 2943.06 1.29076 3.57832 0
M  V30 31734 H 2944.37 1.48449 4.76198 0
M  V30 31735 H 2943.52 -0.489734 6.0472 0
M  V30 31736 H 2942.26 -0.776074 4.81486 0
M  V30 31737 H 2941.27 1.4781 5.29559 0
M  V30 31738 H 2942.49 1.75365 6.56067 0
M  V30 31739 H 2940.44 -0.490288 6.54165 0
M  V30 31740 H 2940.36 0.951475 7.49989 0
M  V30 31741 H 2941.62 -0.201157 7.7924 0
M  V30 31742 N 2945.85 -1.40063 0.722513 0
M  V30 31743 C 2947.1 -1.99992 0.261967 0
M  V30 31744 C 2947.42 -1.57963 -1.15356 0
M  V30 31745 O 2948.62 -2.1064 -1.71298 0
M  V30 31746 C 2947.08 -3.57471 0.417433 0
M  V30 31747 C 2946.69 -4.08468 1.84004 0
M  V30 31748 C 2948.43 -4.24496 0.0180307 0
M  V30 31749 C 2946.34 -5.58476 1.94572 0
M  V30 31750 H 2945.27 -0.748094 0.0941899 0
M  V30 31751 H 2947.92 -1.60216 0.8946 0
M  V30 31752 H 2946.3 -3.94981 -0.283896 0
M  V30 31753 H 2947.47 -3.8232 2.57231 0
M  V30 31754 H 2945.79 -3.54064 2.19153 0
M  V30 31755 H 2948.39 -5.34646 0.0761789 0
M  V30 31756 H 2948.73 -4.03486 -1.02491 0
M  V30 31757 H 2949.26 -3.92116 0.670057 0
M  V30 31758 H 2946 -5.8435 2.97012 0
M  V30 31759 H 2945.52 -5.86467 1.25766 0
M  V30 31760 H 2947.2 -6.23689 1.72106 0
M  V30 31761 N 2947.33 -0.469207 -1.50453 0
M  V30 31762 C 2948.26 0.315879 -2.31354 0
M  V30 31763 C 2949.24 0.99207 -1.38174 0
M  V30 31764 O 2950.43 0.989604 -1.67094 0
M  V30 31765 C 2947.56 1.39931 -3.17862 0
M  V30 31766 C 2946.51 0.844835 -4.19579 0
M  V30 31767 C 2945.84 2.02642 -4.94814 0
M  V30 31768 C 2947.14 -0.14259 -5.22105 0
M  V30 31769 H 2948.83 -0.359322 -2.97236 0
M  V30 31770 H 2946.38 -0.174249 -1.42942 0
M  V30 31771 H 2948.33 1.95601 -3.73254 0
M  V30 31772 H 2947.05 2.10326 -2.49861 0
M  V30 31773 H 2945.71 0.310125 -3.65286 0
M  V30 31774 H 2945.36 2.7173 -4.23287 0
M  V30 31775 H 2945.06 1.66164 -5.63616 0
M  V30 31776 H 2946.59 2.58805 -5.53039 0
M  V30 31777 H 2948 0.324865 -5.72379 0
M  V30 31778 H 2946.4 -0.421546 -5.98618 0
M  V30 31779 H 2947.47 -1.06909 -4.72968 0
M  V30 31780 N 2948.81 1.56303 -0.201741 0
M  V30 31781 C 2949.76 2.19398 0.71646 0
M  V30 31782 C 2950.73 1.14328 1.20492 0
M  V30 31783 O 2951.91 1.42606 1.2676 0
M  V30 31784 C 2949.05 2.8625 1.92757 0
M  V30 31785 C 2948.16 4.05862 1.47986 0
M  V30 31786 C 2947.3 4.60552 2.64698 0
M  V30 31787 C 2946.34 5.72508 2.16566 0
M  V30 31788 N 2945.48 6.21575 3.2648 0
M  V30 31789 H 2950.32 2.97505 0.171672 0
M  V30 31790 H 2947.85 1.46919 0.0729902 0
M  V30 31791 H 2949.81 3.23183 2.63835 0
M  V30 31792 H 2948.44 2.10695 2.44556 0
M  V30 31793 H 2947.49 3.74548 0.664704 0
M  V30 31794 H 2948.8 4.86817 1.08678 0
M  V30 31795 H 2947.96 4.99825 3.43889 0
M  V30 31796 H 2946.7 3.78719 3.07284 0
M  V30 31797 H 2945.7 5.32757 1.35831 0
M  V30 31798 H 2946.93 6.56164 1.75003 0
M  V30 31799 H 2944.87 5.42662 3.68584 0
M  V30 31800 H 2944.79 6.97599 2.91361 0
M  V30 31801 H 2946.06 6.65503 4.05865 0
M  V30 31802 N 2950.29 -0.0718147 1.57436 0
M  V30 31803 C 2951.24 -1.10407 2.04727 0
M  V30 31804 C 2952.23 -1.40078 0.952604 0
M  V30 31805 O 2953.44 -1.39485 1.13771 0
M  V30 31806 H 2949.81 -0.373382 0.652756 0
M  V30 31807 H 2951.78 -0.679075 2.9057 0
M  V30 31808 C 2950.53 -2.40941 2.50684 0
M  V30 31809 H 2949.85 -2.18961 3.34509 0
M  V30 31810 H 2951.29 -3.11616 2.87526 0
M  V30 31811 C 2949.75 -3.06899 1.38976 0
M  V30 31812 O 2950.28 -3.94977 0.731855 0
M  V30 31813 N 2948.49 -2.67523 1.1349 0
M  V30 31814 H 2948.04 -1.95989 1.67171 0
M  V30 31815 H 2947.99 -3.11978 0.389522 0
M  V30 31816 N 2951.77 -1.53818 -0.343203 0
M  V30 31817 C 2952.7 -1.76646 -1.44469 0
M  V30 31818 C 2953.68 -0.615582 -1.50497 0
M  V30 31819 O 2954.86 -0.850781 -1.68208 0
M  V30 31820 C 2951.99 -1.86541 -2.82702 0
M  V30 31821 C 2951.03 -3.08693 -2.94297 0
M  V30 31822 S 2951.87 -4.67739 -2.6073 0
M  V30 31823 C 2953.02 -4.80513 -4.01071 0
M  V30 31824 H 2953.26 -2.69797 -1.24888 0
M  V30 31825 H 2950.79 -1.4469 -0.53889 0
M  V30 31826 H 2952.75 -1.92927 -3.62339 0
M  V30 31827 H 2951.41 -0.944027 -2.99578 0
M  V30 31828 H 2950.6 -3.12293 -3.95587 0
M  V30 31829 H 2950.2 -3.00535 -2.22609 0
M  V30 31830 H 2952.49 -4.61944 -4.95595 0
M  V30 31831 H 2953.44 -5.82604 -4.02465 0
M  V30 31832 H 2953.85 -4.08965 -3.89112 0
M  V30 31833 N 2953.24 0.604233 -1.45557 0
M  V30 31834 C 2954.48 1.37442 -1.51291 0
M  V30 31835 C 2954.85 1.91396 -0.152145 0
M  V30 31836 O 2956.05 2.68668 -0.0841891 0
M  V30 31837 C 2954.32 2.4892 -2.56464 0
M  V30 31838 S 2955.88 3.36649 -2.81448 0
M  V30 31839 H 2952.7 0.46854 -0.534782 0
M  V30 31840 H 2955.3 0.696869 -1.82658 0
M  V30 31841 H 2954 2.07638 -3.53998 0
M  V30 31842 H 2953.53 3.21472 -2.26759 0
M  V30 31843 H 2955.55 4.47163 -2.15081 0
M  V30 31844 N 2954.72 1.32903 0.847027 0
M  V30 31845 C 2955.63 1.24493 1.98843 0
M  V30 31846 C 2956.65 0.15705 1.7329 0
M  V30 31847 O 2957.82 0.379139 1.97799 0
M  V30 31848 C 2954.89 0.976043 3.32677 0
M  V30 31849 C 2953.95 2.15313 3.71401 0
M  V30 31850 C 2953.18 1.89697 4.98849 0
M  V30 31851 O 2953.41 0.843267 5.64132 0
M  V30 31852 O 2952.34 2.76011 5.34884 0
M  V30 31853 H 2956.17 2.20464 2.08876 0
M  V30 31854 H 2953.75 1.12868 0.978832 0
M  V30 31855 H 2955.63 0.842899 4.12884 0
M  V30 31856 H 2954.31 0.0465523 3.23667 0
M  V30 31857 H 2953.21 2.34177 2.91739 0
M  V30 31858 H 2954.55 3.06567 3.85068 0
M  V30 31859 N 2956.2 -1.06426 1.16238 0
M  V30 31860 C 2957.15 -2.12119 0.836031 0
M  V30 31861 C 2958.13 -1.59845 -0.183927 0
M  V30 31862 O 2959.33 -1.76992 0.0167053 0
M  V30 31863 C 2956.45 -3.41638 0.337393 0
M  V30 31864 C 2955.54 -4.00742 1.38805 0
M  V30 31865 N 2955.93 -4.33975 2.59806 0
M  V30 31866 C 2954.23 -4.28329 1.24299 0
M  V30 31867 C 2954.93 -4.80938 3.27222 0
M  V30 31868 N 2953.91 -4.8029 2.54603 0
M  V30 31869 H 2957.71 -2.35659 1.75619 0
M  V30 31870 H 2955.22 -1.23955 1.04923 0
M  V30 31871 H 2957.22 -4.16813 0.0852007 0
M  V30 31872 H 2955.88 -3.19537 -0.576714 0
M  V30 31873 H 2956.89 -4.24366 2.96874 0
M  V30 31874 H 2953.57 -4.15679 0.389537 0
M  V30 31875 H 2954.96 -5.15867 4.30501 0
M  V30 31876 N 2957.68 -0.960653 -1.24937 0
M  V30 31877 C 2958.9 -0.635643 -1.97419 0
M  V30 31878 C 2959.33 0.786707 -1.70858 0
M  V30 31879 O 2958.69 1.5329 -0.96809 0
M  V30 31880 C 2958.73 -0.907833 -3.48985 0
M  V30 31881 O 2957.84 0.0103328 -4.12399 0
M  V30 31882 H 2957.18 -0.241038 -0.618706 0
M  V30 31883 H 2959.71 -1.28889 -1.58899 0
M  V30 31884 H 2959.72 -0.836523 -3.99332 0
M  V30 31885 H 2958.39 -1.94446 -3.67646 0
M  V30 31886 H 2956.97 -0.113696 -3.72727 0
M  V30 31887 N 2959.16 1.39677 -0.729931 0
M  V30 31888 C 2960.1 2.32477 -0.0756998 0
M  V30 31889 C 2961.1 1.52796 0.731411 0
M  V30 31890 O 2962.3 1.68496 0.633166 0
M  V30 31891 H 2958.68 0.751979 -0.00567814 0
M  V30 31892 H 2960.65 2.85288 -0.874848 0
M  V30 31893 C 2959.4 3.37862 0.821253 0
M  V30 31894 H 2958.72 3.9925 0.209596 0
M  V30 31895 H 2960.16 4.05256 1.24672 0
M  V30 31896 C 2958.62 2.74499 1.95325 0
M  V30 31897 O 2959.15 2.61947 3.04543 0
M  V30 31898 N 2957.36 2.32663 1.74115 0
M  V30 31899 H 2956.9 2.43072 0.852865 0
M  V30 31900 H 2956.86 1.90608 2.50032 0
M  V30 31901 N 2960.63 0.47718 1.50202 0
M  V30 31902 C 2961.86 -0.0732126 2.0677 0
M  V30 31903 C 2962.28 -1.32966 1.34035 0
M  V30 31904 O 2961.63 -1.77802 0.411444 0
M  V30 31905 C 2961.69 -0.355117 3.59752 0
M  V30 31906 O 2961.41 0.8515 4.29745 0
M  V30 31907 C 2962.91 -0.951801 4.32961 0
M  V30 31908 H 2960.13 0.00980103 0.670928 0
M  V30 31909 H 2962.67 0.66771 1.93292 0
M  V30 31910 H 2960.83 -1.04598 3.73012 0
M  V30 31911 H 2961.24 0.599799 5.21059 0
M  V30 31912 H 2962.71 -1.09878 5.40954 0
M  V30 31913 H 2963.19 -1.94349 3.93859 0
M  V30 31914 H 2963.8 -0.299134 4.24247 0
M  V30 31915 N 2962.11 -1.56194 0.210027 0
M  V30 31916 C 2963.04 -2.2277 -0.699707 0
M  V30 31917 C 2964.02 -1.19562 -1.20991 0
M  V30 31918 O 2965.21 -1.48114 -1.25602 0
M  V30 31919 C 2962.34 -2.89867 -1.91297 0
M  V30 31920 C 2961.29 -3.99447 -1.53708 0
M  V30 31921 C 2960.62 -4.53782 -2.82818 0
M  V30 31922 C 2961.92 -5.17092 -0.735746 0
M  V30 31923 H 2963.61 -2.9905 -0.144663 0
M  V30 31924 H 2961.16 -1.43839 -0.0681392 0
M  V30 31925 H 2963.11 -3.35129 -2.55474 0
M  V30 31926 H 2961.84 -2.11015 -2.49279 0
M  V30 31927 H 2960.49 -3.54899 -0.918829 0
M  V30 31928 H 2960.14 -3.71675 -3.3892 0
M  V30 31929 H 2959.84 -5.27731 -2.58406 0
M  V30 31930 H 2961.37 -5.01755 -3.47957 0
M  V30 31931 H 2962.78 -5.58806 -1.28095 0
M  V30 31932 H 2961.18 -5.97201 -0.589167 0
M  V30 31933 H 2962.25 -4.84202 0.260089 0
M  V30 31934 N 2963.59 0.0634645 -1.57472 0
M  V30 31935 C 2964.84 0.762161 -1.87933 0
M  V30 31936 C 2965.17 1.76802 -0.803408 0
M  V30 31937 O 2964.44 1.93614 0.185434 0
M  V30 31938 C 2964.73 1.46269 -3.29055 0
M  V30 31939 C 2964.58 0.472676 -4.4731 0
M  V30 31940 C 2965.9 2.40552 -3.68541 0
M  V30 31941 H 2963.02 0.275612 -0.683525 0
M  V30 31942 H 2965.66 0.0252317 -1.89983 0
M  V30 31943 H 2963.81 2.09084 -3.27439 0
M  V30 31944 H 2965.48 -0.150909 -4.61053 0
M  V30 31945 H 2963.73 -0.211263 -4.33285 0
M  V30 31946 H 2964.4 1.00062 -5.42855 0
M  V30 31947 H 2966.87 1.87808 -3.71305 0
M  V30 31948 H 2965.75 2.86566 -4.68157 0
M  V30 31949 H 2966.01 3.25726 -2.98923 0
M  V30 31950 N 2965.07 1.53998 0.33504 0
M  V30 31951 C 2966 1.78906 1.43267 0
M  V30 31952 C 2967.01 0.670624 1.48346 0
M  V30 31953 O 2968.2 0.947521 1.51276 0
M  V30 31954 C 2965.3 1.88149 2.81875 0
M  V30 31955 C 2964.48 3.18179 3.00135 0
M  V30 31956 C 2963.53 3.1827 4.19035 0
M  V30 31957 O 2962.56 3.91958 4.12744 0
M  V30 31958 N 2963.76 2.4124 5.28 0
M  V30 31959 H 2966.53 2.73625 1.22267 0
M  V30 31960 H 2964.09 1.53153 0.524969 0
M  V30 31961 H 2966.08 1.85651 3.59605 0
M  V30 31962 H 2964.65 1.00578 2.95978 0
M  V30 31963 H 2963.87 3.33731 2.09802 0
M  V30 31964 H 2965.16 4.04053 3.09223 0
M  V30 31965 H 2964.56 1.8094 5.35983 0
M  V30 31966 H 2963.11 2.44531 6.04192 0
M  V30 31967 N 2966.55 -0.596505 1.45875 0
M  V30 31968 C 2967.48 -1.72067 1.51411 0
M  V30 31969 C 2968.49 -1.57714 0.403765 0
M  V30 31970 O 2969.68 -1.65391 0.671413 0
M  V30 31971 C 2966.78 -3.10184 1.36526 0
M  V30 31972 C 2965.95 -3.50672 2.61434 0
M  V30 31973 C 2965.01 -4.67794 2.40946 0
M  V30 31974 O 2964.04 -4.74351 3.1461 0
M  V30 31975 N 2965.24 -5.61783 1.4622 0
M  V30 31976 H 2968.01 -1.67778 2.48336 0
M  V30 31977 H 2965.57 -0.782105 1.41756 0
M  V30 31978 H 2967.56 -3.86309 1.20613 0
M  V30 31979 H 2966.13 -3.08918 0.478357 0
M  V30 31980 H 2965.35 -2.64394 2.92385 0
M  V30 31981 H 2966.64 -3.74485 3.44439 0
M  V30 31982 H 2966.03 -5.59209 0.854481 0
M  V30 31983 H 2964.59 -6.37395 1.36275 0
M  V30 31984 N 2968.02 -1.3335 -0.839967 0
M  V30 31985 C 2968.99 -1.2343 -1.93126 0
M  V30 31986 C 2969.99 -0.153627 -1.60064 0
M  V30 31987 O 2971.18 -0.405079 -1.69425 0
M  V30 31988 C 2968.31 -0.901679 -3.28759 0
M  V30 31989 H 2969.5 -2.2043 -2.03348 0
M  V30 31990 H 2967.06 -1.17393 -1.03192 0
M  V30 31991 H 2967.79 0.0658768 -3.24233 0
M  V30 31992 H 2967.58 -1.68317 -3.54135 0
M  V30 31993 H 2969.07 -0.856985 -4.08712 0
M  V30 31994 N 2969.5 1.05808 -1.16801 0
M  V30 31995 C 2970.44 2.12861 -0.822528 0
M  V30 31996 C 2971.41 1.61264 0.207977 0
M  V30 31997 O 2972.6 1.88281 0.0909321 0
M  V30 31998 C 2969.72 3.37946 -0.225885 0
M  V30 31999 C 2968.77 4.08355 -1.23079 0
M  V30 32000 S 2969.6 4.57715 -2.77952 0
M  V30 32001 C 2970.76 5.86055 -2.19751 0
M  V30 32002 H 2970.99 2.41838 -1.72921 0
M  V30 32003 H 2968.53 1.18316 -0.992002 0
M  V30 32004 H 2970.48 4.10348 0.111883 0
M  V30 32005 H 2969.14 3.07117 0.658638 0
M  V30 32006 H 2968.34 4.98209 -0.761845 0
M  V30 32007 H 2967.94 3.4199 -1.51389 0
M  V30 32008 H 2970.23 6.59076 -1.56922 0
M  V30 32009 H 2971.17 6.37686 -3.07834 0
M  V30 32010 H 2971.58 5.40321 -1.63443 0
M  V30 32011 N 2970.98 0.967265 1.24426 0
M  V30 32012 C 2971.91 0.441722 2.23884 0
M  V30 32013 C 2972.89 -0.483936 1.55232 0
M  V30 32014 O 2974.08 -0.415413 1.83866 0
M  V30 32015 C 2971.2 -0.362399 3.36756 0
M  V30 32016 C 2970.25 0.505481 4.23494 0
M  V30 32017 S 2971.08 1.94542 4.98912 0
M  V30 32018 C 2972.24 1.15008 6.15243 0
M  V30 32019 H 2972.47 1.28457 2.68116 0
M  V30 32020 H 2970 0.772266 1.33699 0
M  V30 32021 H 2971.96 -0.820374 4.02219 0
M  V30 32022 H 2970.62 -1.18022 2.91084 0
M  V30 32023 H 2969.82 -0.11189 5.03876 0
M  V30 32024 H 2969.42 0.899168 3.6303 0
M  V30 32025 H 2971.71 0.404888 6.76289 0
M  V30 32026 H 2972.65 1.92826 6.8134 0
M  V30 32027 H 2973.06 0.674642 5.60454 0
M  V30 32028 N 2972.46 -1.39288 0.737328 0
M  V30 32029 C 2973.71 -2.00763 0.286716 0
M  V30 32030 C 2974.04 -1.58377 -1.12385 0
M  V30 32031 O 2973.31 -0.81373 -1.7666 0
M  V30 32032 C 2973.6 -3.57969 0.39121 0
M  V30 32033 C 2973.45 -4.10367 1.84172 0
M  V30 32034 C 2974.77 -4.39524 -0.224995 0
M  V30 32035 H 2971.89 -0.729387 0.105655 0
M  V30 32036 H 2974.53 -1.65463 0.933921 0
M  V30 32037 H 2972.68 -3.88171 -0.159807 0
M  V30 32038 H 2974.35 -3.90875 2.44979 0
M  V30 32039 H 2972.59 -3.6384 2.36226 0
M  V30 32040 H 2973.27 -5.19501 1.86609 0
M  V30 32041 H 2975.74 -4.1538 0.24475 0
M  V30 32042 H 2974.62 -5.48765 -0.121549 0
M  V30 32043 H 2974.88 -4.22204 -1.31133 0
M  V30 32044 N 2973.94 -0.485139 -1.49947 0
M  V30 32045 C 2975.16 0.0644695 -2.073 0
M  V30 32046 C 2975.59 1.31494 -1.34502 0
M  V30 32047 O 2974.95 1.76902 -0.396901 0
M  V30 32048 C 2974.99 0.31724 -3.59202 0
M  V30 32049 O 2974.1 1.39507 -3.88087 0
M  V30 32050 H 2973.44 -0.0191938 -0.663723 0
M  V30 32051 H 2975.97 -0.680212 -1.92962 0
M  V30 32052 H 2975.98 0.553533 -4.04228 0
M  V30 32053 H 2974.65 -0.59646 -4.11601 0
M  V30 32054 H 2973.23 1.14498 -3.54887 0
M  V30 32055 N 2975.42 1.56081 -0.218307 0
M  V30 32056 C 2976.33 2.2377 0.704562 0
M  V30 32057 C 2977.34 1.24427 1.2163 0
M  V30 32058 O 2978.52 1.5723 1.2586 0
M  V30 32059 C 2975.58 2.90185 1.89719 0
M  V30 32060 C 2974.64 4.04863 1.42775 0
M  V30 32061 C 2973.88 4.68101 2.56353 0
M  V30 32062 O 2974.1 4.30319 3.74409 0
M  V30 32063 O 2973.03 5.57152 2.2774 0
M  V30 32064 H 2976.86 3.03289 0.157954 0
M  V30 32065 H 2974.44 1.49395 0.0120016 0
M  V30 32066 H 2976.33 3.32117 2.59376 0
M  V30 32067 H 2975 2.13628 2.43197 0
M  V30 32068 H 2973.91 3.67506 0.699295 0
M  V30 32069 H 2975.24 4.83152 0.939389 0
M  V30 32070 N 2976.89 -0.0551124 1.57504 0
M  V30 32071 C 2977.8 -1.0812 2.082 0
M  V30 32072 C 2978.82 -1.41329 1.01499 0
M  V30 32073 O 2980 -1.51172 1.33075 0
M  V30 32074 C 2977.06 -2.37078 2.52972 0
M  V30 32075 C 2976.12 -2.10689 3.74044 0
M  V30 32076 C 2975.35 -3.33498 4.16671 0
M  V30 32077 O 2975.58 -4.43233 3.59027 0
M  V30 32078 O 2974.51 -3.20729 5.0933 0
M  V30 32079 H 2978.34 -0.680466 2.95979 0
M  V30 32080 H 2975.92 -0.270376 1.46933 0
M  V30 32081 H 2977.8 -3.12941 2.82216 0
M  V30 32082 H 2976.48 -2.76499 1.68315 0
M  V30 32083 H 2975.39 -1.32478 3.49858 0
M  V30 32084 H 2976.72 -1.7614 4.59604 0
M  V30 32085 N 2978.37 -1.54173 -0.326869 0
M  V30 32086 C 2979.3 -1.8632 -1.40738 0
M  V30 32087 C 2980.28 -0.719711 -1.54124 0
M  V30 32088 O 2981.47 -0.973147 -1.68058 0
M  V30 32089 C 2978.6 -2.08762 -2.77553 0
M  V30 32090 C 2977.55 -3.24601 -2.78959 0
M  V30 32091 C 2976.88 -3.32408 -4.18819 0
M  V30 32092 C 2978.18 -4.62328 -2.43002 0
M  V30 32093 H 2979.87 -2.76813 -1.14083 0
M  V30 32094 H 2977.42 -1.33191 -0.547366 0
M  V30 32095 H 2979.37 -2.29835 -3.53205 0
M  V30 32096 H 2978.09 -1.15015 -3.05678 0
M  V30 32097 H 2976.75 -3.0341 -2.05762 0
M  V30 32098 H 2976.4 -2.36226 -4.44079 0
M  V30 32099 H 2976.1 -4.1026 -4.20666 0
M  V30 32100 H 2977.63 -3.55712 -4.96288 0
M  V30 32101 H 2979.04 -4.83304 -3.08367 0
M  V30 32102 H 2977.44 -5.42706 -2.56106 0
M  V30 32103 H 2978.51 -4.64802 -1.38157 0
M  V30 32104 N 2979.85 0.58876 -1.4619 0
M  V30 32105 C 2981.1 1.34337 -1.50454 0
M  V30 32106 C 2981.41 1.9496 -0.15813 0
M  V30 32107 O 2982.62 2.71386 -0.0785395 0
M  V30 32108 C 2981.07 2.43436 -2.65079 0
M  V30 32109 C 2980.68 1.89143 -4.06114 0
M  V30 32110 C 2982.43 3.20278 -2.78608 0
M  V30 32111 C 2980.33 2.95836 -5.12089 0
M  V30 32112 H 2979.26 0.504987 -0.559914 0
M  V30 32113 H 2981.91 0.628984 -1.72383 0
M  V30 32114 H 2980.3 3.17646 -2.36468 0
M  V30 32115 H 2981.47 1.21517 -4.44489 0
M  V30 32116 H 2979.78 1.24988 -3.97199 0
M  V30 32117 H 2982.38 3.99892 -3.54951 0
M  V30 32118 H 2982.72 3.72483 -1.85909 0
M  V30 32119 H 2983.26 2.53173 -3.06836 0
M  V30 32120 H 2980 2.48525 -6.06561 0
M  V30 32121 H 2979.52 3.6197 -4.78265 0
M  V30 32122 H 2981.2 3.59893 -5.37667 0
M  V30 32123 N 2981.33 1.33794 0.832883 0
M  V30 32124 C 2982.74 1.13259 1.12448 0
M  V30 32125 C 2982.94 -0.0725478 2.01369 0
M  V30 32126 O 2982 -0.75104 2.41072 0
M  V30 32127 C 2983.31 2.42298 1.7808 0
M  V30 32128 C 2984.86 2.48261 1.90619 0
M  V30 32129 C 2985.34 3.77276 2.59667 0
M  V30 32130 N 2986.83 3.78381 2.67175 0
M  V30 32131 C 2987.56 4.74922 3.21305 0
M  V30 32132 N 2987.06 5.81841 3.76075 0
M  V30 32133 N 2988.85 4.6239 3.19612 0
M  V30 32134 H 2981 2.11026 0.241207 0
M  V30 32135 H 2983.26 0.932716 0.169541 0
M  V30 32136 H 2982.97 3.30521 1.20203 0
M  V30 32137 H 2982.84 2.54895 2.78044 0
M  V30 32138 H 2985.23 1.60483 2.47648 0
M  V30 32139 H 2985.31 2.39599 0.895868 0
M  V30 32140 H 2984.96 4.65439 2.03296 0
M  V30 32141 H 2984.89 3.83216 3.61183 0
M  V30 32142 H 2987.38 3.01112 2.28341 0
M  V30 32143 H 2987.69 6.51534 4.156 0
M  V30 32144 H 2986.04 5.85568 3.74347 0
M  V30 32145 H 2989.23 3.78015 2.76084 0
M  V30 32146 H 2989.4 5.37797 3.61495 0
M  V30 32147 N 2982.81 -1.05187 1.1736 0
M  V30 32148 C 2984.05 -1.78453 0.963444 0
M  V30 32149 C 2984.38 -1.87474 -0.50667 0
M  V30 32150 O 2983.66 -1.37456 -1.37609 0
M  V30 32151 C 2983.94 -3.22341 1.60525 0
M  V30 32152 C 2983.8 -3.21333 3.14747 0
M  V30 32153 C 2985.11 -4.20177 1.30918 0
M  V30 32154 H 2982.23 -0.64782 0.351424 0
M  V30 32155 H 2984.88 -1.22946 1.4486 0
M  V30 32156 H 2983.03 -3.69738 1.19272 0
M  V30 32157 H 2984.7 -2.82011 3.65058 0
M  V30 32158 H 2982.94 -2.59672 3.47495 0
M  V30 32159 H 2983.61 -4.22887 3.54782 0
M  V30 32160 H 2986.09 -3.81274 1.66641 0
M  V30 32161 H 2984.96 -5.19097 1.7841 0
M  V30 32162 H 2985.22 -4.41501 0.229986 0
M  V30 32163 N 2984.28 -0.97385 -1.23911 0
M  V30 32164 C 2985.25 -0.513819 -2.23366 0
M  V30 32165 C 2986.25 0.392992 -1.55924 0
M  V30 32166 O 2987.44 0.187596 -1.73187 0
M  V30 32167 C 2984.57 0.255092 -3.39944 0
M  V30 32168 H 2985.76 -1.39312 -2.65579 0
M  V30 32169 H 2983.31 -0.759063 -1.36631 0
M  V30 32170 H 2984.05 1.15122 -3.03179 0
M  V30 32171 H 2983.83 -0.395742 -3.90098 0
M  V30 32172 H 2985.32 0.565769 -4.1375 0
M  V30 32173 N 2985.76 1.38895 -0.744705 0
M  V30 32174 C 2987.01 1.99549 -0.293751 0
M  V30 32175 C 2987.32 1.59779 1.12828 0
M  V30 32176 O 2988.53 2.13339 1.67925 0
M  V30 32177 C 2986.99 3.56762 -0.474251 0
M  V30 32178 C 2986.59 4.05489 -1.90479 0
M  V30 32179 C 2988.34 4.24414 -0.0855621 0
M  V30 32180 C 2986.24 5.5531 -2.03433 0
M  V30 32181 H 2985.17 0.746501 -0.10608 0
M  V30 32182 H 2987.83 1.58772 -0.919976 0
M  V30 32183 H 2986.21 3.95383 0.221022 0
M  V30 32184 H 2987.38 3.7818 -2.63281 0
M  V30 32185 H 2985.7 3.50532 -2.24758 0
M  V30 32186 H 2988.29 5.34457 -0.161227 0
M  V30 32187 H 2988.64 4.05066 0.960589 0
M  V30 32188 H 2989.17 3.91001 -0.732354 0
M  V30 32189 H 2985.91 5.7955 -3.06271 0
M  V30 32190 H 2985.43 5.84391 -1.3508 0
M  V30 32191 H 2987.11 6.20872 -1.82007 0
M  V30 32192 N 2987.24 0.493084 1.49688 0
M  V30 32193 C 2988.17 -0.279033 2.31827 0
M  V30 32194 C 2989.15 -0.969962 1.39735 0
M  V30 32195 O 2990.34 -0.962895 1.68647 0
M  V30 32196 C 2987.47 -1.34857 3.20048 0
M  V30 32197 C 2986.42 -0.777976 4.2087 0
M  V30 32198 C 2985.75 -1.94744 4.97975 0
M  V30 32199 C 2987.05 0.225635 5.21812 0
M  V30 32200 H 2988.74 0.406564 2.96627 0
M  V30 32201 H 2986.29 0.196968 1.42647 0
M  V30 32202 H 2988.24 -1.89638 3.76318 0
M  V30 32203 H 2986.96 -2.06324 2.53176 0
M  V30 32204 H 2985.62 -0.251972 3.65733 0
M  V30 32205 H 2985.27 -2.64961 4.27557 0
M  V30 32206 H 2984.97 -1.57177 5.66188 0
M  V30 32207 H 2986.49 -2.49974 5.57086 0
M  V30 32208 H 2987.91 -0.233763 5.72823 0
M  V30 32209 H 2986.31 0.516727 5.97871 0
M  V30 32210 H 2987.38 1.1442 4.71207 0
M  V30 32211 N 2988.72 -1.55963 0.226582 0
M  V30 32212 C 2989.96 -1.99477 -0.397573 0
M  V30 32213 C 2990.32 -1.11174 -1.57029 0
M  V30 32214 O 2989.61 -0.162791 -1.90907 0
M  V30 32215 C 2989.81 -3.46489 -0.876359 0
M  V30 32216 C 2989.64 -4.49013 0.248423 0
M  V30 32217 C 2988.41 -5.00195 0.716468 0
M  V30 32218 C 2990.6 -5.03079 1.06844 0
M  V30 32219 N 2988.59 -5.86432 1.81578 0
M  V30 32220 C 2989.96 -5.86291 2.01651 0
M  V30 32221 C 2992.01 -4.85431 1.1073 0
M  V30 32222 C 2990.71 -6.53738 3.00032 0
M  V30 32223 C 2992.74 -5.53641 2.07931 0
M  V30 32224 C 2992.1 -6.36624 3.01478 0
M  V30 32225 H 2988.2 -0.773936 -0.11201 0
M  V30 32226 H 2990.79 -1.91717 0.339506 0
M  V30 32227 H 2988.96 -3.54686 -1.58278 0
M  V30 32228 H 2990.69 -3.76912 -1.47375 0
M  V30 32229 H 2987.44 -4.72622 0.304173 0
M  V30 32230 H 2987.87 -6.34251 2.36759 0
M  V30 32231 H 2992.51 -4.20923 0.397983 0
M  V30 32232 H 2990.23 -7.17425 3.71923 0
M  V30 32233 H 2993.81 -5.41949 2.11619 0
M  V30 32234 H 2992.69 -6.88475 3.75463 0
M  V30 32235 N 2990.2 0.0467589 -1.57531 0
M  V30 32236 C 2991.15 1.06028 -2.01847 0
M  V30 32237 C 2992.13 1.33057 -0.904685 0
M  V30 32238 O 2993.32 1.32939 -1.1686 0
M  V30 32239 C 2990.45 2.36674 -2.48677 0
M  V30 32240 C 2989.54 2.12812 -3.66841 0
M  V30 32241 N 2989.93 1.58951 -4.80175 0
M  V30 32242 C 2988.23 2.43176 -3.73873 0
M  V30 32243 C 2988.93 1.50484 -5.61898 0
M  V30 32244 N 2987.9 1.97422 -5.06483 0
M  V30 32245 H 2991.71 0.637572 -2.86901 0
M  V30 32246 H 2989.22 0.253398 -1.60411 0
M  V30 32247 H 2991.22 3.10072 -2.78677 0
M  V30 32248 H 2989.88 2.7964 -1.65021 0
M  V30 32249 H 2990.89 1.27465 -5.01969 0
M  V30 32250 H 2987.56 2.89337 -3.00982 0
M  V30 32251 H 2988.95 1.09482 -6.6292 0
M  V30 32252 N 2991.67 1.54344 0.318688 0
M  V30 32253 C 2992.58 1.87099 1.41531 0
M  V30 32254 C 2993.6 0.763381 1.5636 0
M  V30 32255 O 2994.78 1.05814 1.71363 0
M  V30 32256 C 2991.84 2.09591 2.76174 0
M  V30 32257 C 2990.9 3.33375 2.7048 0
M  V30 32258 C 2990.14 3.54785 3.98702 0
M  V30 32259 O 2990.36 2.7954 4.97206 0
M  V30 32260 O 2989.29 4.48273 4.01666 0
M  V30 32261 H 2993.12 2.80359 1.16759 0
M  V30 32262 H 2990.7 1.40311 0.513156 0
M  V30 32263 H 2992.59 2.25688 3.55869 0
M  V30 32264 H 2991.26 1.19519 3.00827 0
M  V30 32265 H 2990.17 3.22659 1.89319 0
M  V30 32266 H 2991.5 4.2352 2.50782 0
M  V30 32267 N 2993.15 -0.580999 1.465 0
M  V30 32268 C 2994.09 -1.70469 1.51709 0
M  V30 32269 C 2995.06 -1.58309 0.371064 0
M  V30 32270 O 2996.25 -1.79501 0.575458 0
M  V30 32271 C 2993.37 -3.08536 1.39726 0
M  V30 32272 C 2992.42 -3.39211 2.58531 0
M  V30 32273 S 2993.25 -3.31093 4.20878 0
M  V30 32274 C 2994.41 -4.71694 4.11406 0
M  V30 32275 H 2994.64 -1.65792 2.4678 0
M  V30 32276 H 2992.18 -0.759884 1.34407 0
M  V30 32277 H 2994.13 -3.88186 1.33499 0
M  V30 32278 H 2992.79 -3.10702 0.460797 0
M  V30 32279 H 2991.99 -4.39805 2.46145 0
M  V30 32280 H 2991.59 -2.67132 2.61757 0
M  V30 32281 H 2993.88 -5.62118 3.78192 0
M  V30 32282 H 2994.82 -4.89138 5.12005 0
M  V30 32283 H 2995.23 -4.48625 3.42631 0
M  V30 32284 N 2994.63 -1.34234 -0.825776 0
M  V30 32285 C 2995.88 -1.27626 -1.58377 0
M  V30 32286 C 2996.23 0.153197 -1.91789 0
M  V30 32287 O 2995.52 1.09873 -1.56967 0
M  V30 32288 C 2995.72 -2.09777 -2.89358 0
M  V30 32289 C 2995.55 -3.60567 -2.68741 0
M  V30 32290 C 2994.32 -4.29852 -2.65622 0
M  V30 32291 C 2996.52 -4.54627 -2.40455 0
M  V30 32292 N 2994.5 -5.66508 -2.3652 0
M  V30 32293 C 2995.87 -5.79266 -2.21022 0
M  V30 32294 C 2997.92 -4.43572 -2.2616 0
M  V30 32295 C 2996.63 -6.94096 -1.88742 0
M  V30 32296 C 2998.65 -5.58231 -1.95274 0
M  V30 32297 C 2998.01 -6.81887 -1.76662 0
M  V30 32298 H 2994.11 -0.522244 -0.582052 0
M  V30 32299 H 2996.7 -1.68916 -0.968278 0
M  V30 32300 H 2994.87 -1.70789 -3.48835 0
M  V30 32301 H 2996.6 -1.94837 -3.54712 0
M  V30 32302 H 2993.36 -3.82262 -2.79594 0
M  V30 32303 H 2993.78 -6.38582 -2.24816 0
M  V30 32304 H 2998.42 -3.48592 -2.39256 0
M  V30 32305 H 2996.14 -7.8906 -1.74383 0
M  V30 32306 H 2999.73 -5.5162 -1.84949 0
M  V30 32307 H 2998.61 -7.69108 -1.53109 0
M  V30 32308 N 2996.11 1.04563 -1.17917 0
M  V30 32309 C 2997.06 2.10762 -0.869671 0
M  V30 32310 C 2998.04 1.60118 0.158474 0
M  V30 32311 O 2999.23 1.76943 -0.0448611 0
M  V30 32312 C 2996.36 3.41058 -0.391702 0
M  V30 32313 C 2995.45 3.98483 -1.45163 0
M  V30 32314 N 2995.84 4.29787 -2.66677 0
M  V30 32315 C 2994.14 4.26297 -1.31098 0
M  V30 32316 C 2994.84 4.75671 -3.34831 0
M  V30 32317 N 2993.82 4.76179 -2.62211 0
M  V30 32318 H 2997.62 2.32835 -1.79346 0
M  V30 32319 H 2995.13 1.2227 -1.06882 0
M  V30 32320 H 2997.13 4.16625 -0.151501 0
M  V30 32321 H 2995.79 3.20414 0.525806 0
M  V30 32322 H 2996.8 4.19589 -3.03588 0
M  V30 32323 H 2993.48 4.15006 -0.455618 0
M  V30 32324 H 2994.87 5.08953 -4.38654 0
M  V30 32325 N 2997.59 0.980408 1.23393 0
M  V30 32326 C 2998.5 0.528904 2.2856 0
M  V30 32327 C 2999.51 -0.416299 1.68947 0
M  V30 32328 O 3000.69 -0.286216 1.99356 0
M  V30 32329 C 2997.75 -0.161489 3.46324 0
M  V30 32330 C 2996.81 0.825118 4.21296 0
M  V30 32331 C 2996.05 0.167577 5.33437 0
M  V30 32332 O 2996.27 -1.04136 5.60814 0
M  V30 32333 O 2995.2 0.866152 5.95635 0
M  V30 32334 H 2999.03 1.40351 2.69324 0
M  V30 32335 H 2996.62 0.748042 1.29324 0
M  V30 32336 H 2998.5 -0.548767 4.17812 0
M  V30 32337 H 2997.17 -1.01086 3.07511 0
M  V30 32338 H 2996.08 1.2631 3.52132 0
M  V30 32339 H 2997.41 1.6433 4.63957 0
M  V30 32340 N 2999.06 -1.38498 0.75206 0
M  V30 32341 C 3000.31 -1.99756 0.306931 0
M  V30 32342 C 3000.63 -1.59994 -1.11476 0
M  V30 32343 O 2999.9 -0.856076 -1.76205 0
M  V30 32344 H 2998.48 -0.738783 0.110493 0
M  V30 32345 H 3001.15 -1.69287 0.965815 0
M  V30 32346 H 3000.24 -3.09913 0.368851 0
M  V30 32347 N 3000.54 -0.501015 -1.49424 0
M  V30 32348 C 3001.47 0.266734 -2.31972 0
M  V30 32349 C 3002.45 0.962538 -1.40247 0
M  V30 32350 O 3003.64 0.953938 -1.69156 0
M  V30 32351 C 3000.77 1.33157 -3.20759 0
M  V30 32352 C 2999.72 0.755646 -4.21277 0
M  V30 32353 C 2999.05 1.921 -4.99001 0
M  V30 32354 C 3000.35 -0.253304 -5.21685 0
M  V30 32355 H 3002.04 -0.422289 -2.96407 0
M  V30 32356 H 2999.59 -0.20453 -1.4254 0
M  V30 32357 H 3001.54 1.8764 -3.77319 0
M  V30 32358 H 3000.27 2.04978 -2.54266 0
M  V30 32359 H 2998.92 0.232573 -3.65862 0
M  V30 32360 H 2998.57 2.6269 -4.28956 0
M  V30 32361 H 2998.27 1.54172 -5.67014 0
M  V30 32362 H 2999.8 2.47016 -5.58404 0
M  V30 32363 H 3001.21 0.203382 -5.72939 0
M  V30 32364 H 2999.61 -0.548427 -5.97589 0
M  V30 32365 H 3000.68 -1.16918 -4.70594 0
M  V30 32366 N 3002.02 1.5584 -0.234849 0
M  V30 32367 C 3002.93 2.24505 0.680789 0
M  V30 32368 C 3003.95 1.2571 1.20304 0
M  V30 32369 O 3005.12 1.58556 1.24185 0
M  V30 32370 C 3002.19 2.92181 1.86631 0
M  V30 32371 C 3001.25 4.06354 1.38473 0
M  V30 32372 C 3000.48 4.70794 2.51374 0
M  V30 32373 O 3000.71 4.34265 3.69824 0
M  V30 32374 O 2999.64 5.59536 2.21818 0
M  V30 32375 H 3003.47 3.03439 0.125777 0
M  V30 32376 H 3001.05 1.494 -0.00384443 0
M  V30 32377 H 3002.93 3.3485 2.55839 0
M  V30 32378 H 3001.61 2.16196 2.40917 0
M  V30 32379 H 3000.51 3.68227 0.660276 0
M  V30 32380 H 3001.85 4.84122 0.888092 0
M  V30 32381 N 3003.5 -0.038404 1.57553 0
M  V30 32382 C 3004.41 -1.05906 2.09335 0
M  V30 32383 C 3005.43 -1.40245 1.02992 0
M  V30 32384 O 3006.6 -1.49752 1.34671 0
M  V30 32385 C 3003.67 -2.34382 2.55472 0
M  V30 32386 C 3002.73 -2.0671 3.76257 0
M  V30 32387 C 3001.96 -3.2906 4.20185 0
M  V30 32388 O 3002.18 -4.39401 3.63708 0
M  V30 32389 O 3001.12 -3.15308 5.12703 0
M  V30 32390 H 3004.94 -0.649035 2.96684 0
M  V30 32391 H 3002.53 -0.254776 1.47212 0
M  V30 32392 H 3004.41 -3.0993 2.85519 0
M  V30 32393 H 3003.09 -2.74698 1.71238 0
M  V30 32394 H 3001.99 -1.2876 3.51243 0
M  V30 32395 H 3003.33 -1.71255 4.61446 0
M  V30 32396 N 3004.98 -1.54511 -0.310498 0
M  V30 32397 C 3005.94 -1.84071 -1.36567 0
M  V30 32398 C 3006.94 -0.713122 -1.44122 0
M  V30 32399 O 3008.13 -0.981424 -1.43923 0
M  V30 32400 C 3005.26 -2.01248 -2.75159 0
M  V30 32401 H 3006.46 -2.7836 -1.11605 0
M  V30 32402 H 3004.01 -1.46428 -0.546674 0
M  V30 32403 H 3004.74 -1.09214 -3.05357 0
M  V30 32404 H 3004.53 -2.83311 -2.71067 0
M  V30 32405 H 3006.02 -2.2552 -3.51469 0
M  V30 32406 N 3006.46 0.573222 -1.46806 0
M  V30 32407 C 3007.68 1.36172 -1.56435 0
M  V30 32408 C 3008.11 1.86931 -0.209369 0
M  V30 32409 O 3007.46 1.62094 0.812118 0
M  V30 32410 C 3007.51 2.51868 -2.58059 0
M  V30 32411 O 3006.62 3.53605 -2.1222 0
M  V30 32412 H 3005.96 0.405144 -0.526075 0
M  V30 32413 H 3008.49 0.694372 -1.92457 0
M  V30 32414 H 3008.5 2.98657 -2.77971 0
M  V30 32415 H 3007.17 2.14278 -3.56452 0
M  V30 32416 H 3005.75 3.13231 -2.02338 0
M  V30 32417 N 3007.93 1.3467 0.818645 0
M  V30 32418 C 3009.35 1.14445 1.11241 0
M  V30 32419 C 3009.55 -0.0511858 2.01435 0
M  V30 32420 O 3008.61 -0.725428 2.41855 0
M  V30 32421 C 3009.92 2.44173 1.755 0
M  V30 32422 C 3011.47 2.50268 1.87975 0
M  V30 32423 C 3011.94 3.80009 2.55651 0
M  V30 32424 N 3013.43 3.81193 2.63146 0
M  V30 32425 C 3014.17 4.78303 3.16249 0
M  V30 32426 N 3013.66 5.85797 3.69883 0
M  V30 32427 N 3015.46 4.65754 3.1469 0
M  V30 32428 H 3007.61 2.1127 0.218811 0
M  V30 32429 H 3009.87 0.934462 0.159639 0
M  V30 32430 H 3009.58 3.31777 1.16691 0
M  V30 32431 H 3009.45 2.57829 2.75325 0
M  V30 32432 H 3011.84 1.631 2.45931 0
M  V30 32433 H 3011.92 2.40536 0.870404 0
M  V30 32434 H 3011.56 4.67569 1.98347 0
M  V30 32435 H 3011.49 3.87025 3.57098 0
M  V30 32436 H 3013.98 3.03517 2.25135 0
M  V30 32437 H 3014.3 6.55905 4.08667 0
M  V30 32438 H 3012.64 5.89505 3.68115 0
M  V30 32439 H 3015.83 3.80922 2.72059 0
M  V30 32440 H 3016.01 5.41601 3.5577 0
M  V30 32441 N 3009.41 -1.03936 1.1847 0
M  V30 32442 C 3010.34 -2.139 0.936427 0
M  V30 32443 C 3011.32 -1.6963 -0.126351 0
M  V30 32444 O 3012.51 -1.94182 0.0265098 0
M  V30 32445 C 3009.64 -3.44203 0.46279 0
M  V30 32446 C 3008.59 -4.02103 1.4662 0
M  V30 32447 C 3007.92 -5.279 0.850033 0
M  V30 32448 C 3009.22 -4.38125 2.8433 0
M  V30 32449 H 3010.91 -2.34927 1.85607 0
M  V30 32450 H 3008.46 -1.12902 0.893826 0
M  V30 32451 H 3010.41 -4.20492 0.276456 0
M  V30 32452 H 3009.13 -3.22867 -0.49242 0
M  V30 32453 H 3007.79 -3.27896 1.6395 0
M  V30 32454 H 3007.44 -5.02874 -0.112405 0
M  V30 32455 H 3007.14 -5.67601 1.51998 0
M  V30 32456 H 3008.67 -6.06866 0.674258 0
M  V30 32457 H 3010.08 -5.05395 2.70645 0
M  V30 32458 H 3008.48 -4.88878 3.4802 0
M  V30 32459 H 3009.55 -3.47895 3.37783 0
M  V30 32460 N 3010.89 -0.986938 -1.22871 0
M  V30 32461 C 3012.12 -0.676715 -1.95203 0
M  V30 32462 C 3012.53 0.76161 -1.73194 0
M  V30 32463 O 3011.87 1.5249 -1.02433 0
M  V30 32464 C 3011.93 -0.895364 -3.48172 0
M  V30 32465 C 3011.6 -2.31702 -3.93908 0
M  V30 32466 C 3012.59 -3.29614 -4.02058 0
M  V30 32467 C 3010.28 -2.64986 -4.26718 0
M  V30 32468 C 3012.27 -4.58886 -4.42383 0
M  V30 32469 C 3009.96 -3.94479 -4.66722 0
M  V30 32470 C 3010.96 -4.91241 -4.74522 0
M  V30 32471 O 3010.65 -6.18421 -5.13625 0
M  V30 32472 H 3010.38 -0.249931 -0.628101 0
M  V30 32473 H 3012.93 -1.32276 -1.57137 0
M  V30 32474 H 3011.16 -0.19214 -3.86222 0
M  V30 32475 H 3012.85 -0.581303 -4.01716 0
M  V30 32476 H 3013.62 -3.05231 -3.76907 0
M  V30 32477 H 3009.5 -1.90377 -4.19854 0
M  V30 32478 H 3013.04 -5.34412 -4.48386 0
M  V30 32479 H 3008.94 -4.18654 -4.91324 0
M  V30 32480 H 3009.7 -6.2227 -5.31717 0
M  V30 32481 N 3012.37 1.38098 -0.759394 0
M  V30 32482 C 3013.61 1.99985 -0.318148 0
M  V30 32483 C 3013.94 1.60282 1.10182 0
M  V30 32484 O 3013.2 0.834555 1.77013 0
M  V30 32485 C 3013.5 3.5521 -0.395061 0
M  V30 32486 C 3013.16 4.14643 -1.77151 0
M  V30 32487 C 3011.82 4.30588 -2.14819 0
M  V30 32488 C 3014.18 4.47369 -2.67415 0
M  V30 32489 C 3011.5 4.76558 -3.42212 0
M  V30 32490 C 3013.86 4.94758 -3.94205 0
M  V30 32491 C 3012.52 5.0891 -4.31934 0
M  V30 32492 H 3011.79 0.731798 -0.116419 0
M  V30 32493 H 3014.44 1.65057 -0.971009 0
M  V30 32494 H 3012.74 3.9031 0.341358 0
M  V30 32495 H 3014.44 4.00985 -0.0351426 0
M  V30 32496 H 3011.03 4.0265 -1.46871 0
M  V30 32497 H 3015.21 4.34646 -2.39577 0
M  V30 32498 H 3010.47 4.85701 -3.71355 0
M  V30 32499 H 3014.64 5.19049 -4.64285 0
M  V30 32500 H 3012.27 5.44291 -5.30708 0
M  V30 32501 N 3013.85 0.508932 1.49156 0
M  V30 32502 C 3015.09 -0.032698 2.02074 0
M  V30 32503 C 3015.41 -1.36748 1.39014 0
M  V30 32504 O 3014.68 -1.88074 0.548186 0
M  V30 32505 H 3013.26 -0.0150733 0.746848 0
M  V30 32506 H 3015.93 0.667979 1.83096 0
M  V30 32507 H 3015.02 -0.156545 3.11707 0
M  V30 32508 N 3015.32 -1.55714 0.243111 0
M  V30 32509 C 3016.23 -2.24863 -0.668873 0
M  V30 32510 C 3017.25 -1.26346 -1.19635 0
M  V30 32511 O 3018.43 -1.59213 -1.23342 0
M  V30 32512 C 3015.49 -2.93167 -1.85079 0
M  V30 32513 C 3014.55 -4.07083 -1.36316 0
M  V30 32514 C 3013.78 -4.7212 -2.48874 0
M  V30 32515 O 3014.01 -4.36221 -3.67516 0
M  V30 32516 O 3012.94 -5.60704 -2.18847 0
M  V30 32517 H 3016.77 -3.03502 -0.109683 0
M  V30 32518 H 3014.35 -1.49395 0.0117674 0
M  V30 32519 H 3016.23 -3.36202 -2.5406 0
M  V30 32520 H 3014.91 -2.1747 -2.39767 0
M  V30 32521 H 3013.82 -3.68572 -0.640739 0
M  V30 32522 H 3015.15 -4.84586 -0.862405 0
M  V30 32523 N 3016.8 0.030048 -1.57571 0
M  V30 32524 C 3018.22 0.385675 -1.5487 0
M  V30 32525 C 3018.42 1.76666 -0.969099 0
M  V30 32526 O 3017.47 2.45517 -0.589719 0
M  V30 32527 C 3018.79 0.28843 -2.99314 0
M  V30 32528 C 3020.34 0.365584 -3.10858 0
M  V30 32529 C 3020.81 0.297797 -4.57031 0
M  V30 32530 N 3022.3 0.356622 -4.61825 0
M  V30 32531 C 3023.04 0.327045 -5.72467 0
M  V30 32532 N 3022.53 0.249819 -6.92349 0
M  V30 32533 N 3024.33 0.376702 -5.60836 0
M  V30 32534 H 3016.48 -0.873704 -1.93598 0
M  V30 32535 H 3018.74 -0.332121 -0.887919 0
M  V30 32536 H 3018.45 -0.660531 -3.45442 0
M  V30 32537 H 3018.32 1.08247 -3.61334 0
M  V30 32538 H 3020.71 1.30498 -2.64678 0
M  V30 32539 H 3020.79 -0.457789 -2.5167 0
M  V30 32540 H 3020.43 -0.637924 -5.03878 0
M  V30 32541 H 3020.36 1.13926 -5.14129 0
M  V30 32542 H 3022.85 0.41886 -3.75572 0
M  V30 32543 H 3023.17 0.232324 -7.72451 0
M  V30 32544 H 3021.51 0.215882 -6.94665 0
M  V30 32545 H 3024.7 0.435019 -4.66074 0
M  V30 32546 H 3024.87 0.350185 -6.47053 0
M  V30 32547 N 3018.28 1.54674 0.3023 0
M  V30 32548 C 3019.23 1.86288 1.39283 0
M  V30 32549 C 3020.22 0.736504 1.52552 0
M  V30 32550 O 3021.43 0.920477 1.54684 0
M  V30 32551 H 3017.8 0.590827 0.465217 0
M  V30 32552 H 3019.77 2.77443 1.09854 0
M  V30 32553 C 3018.52 2.12572 2.75152 0
M  V30 32554 H 3017.85 2.98716 2.65723 0
M  V30 32555 H 3019.29 2.38633 3.50472 0
M  V30 32556 C 3017.75 0.92387 3.23985 0
M  V30 32557 O 3018.28 0.14372 4.01443 0
M  V30 32558 N 3016.48 0.729609 2.81292 0
M  V30 32559 H 3016.03 1.36568 2.18419 0
M  V30 32560 H 3015.99 -0.0729798 3.14315 0
M  V30 32561 N 3019.76 -0.565428 1.47108 0
M  V30 32562 C 3021 -1.32492 1.53537 0
M  V30 32563 C 3021.34 -1.93233 0.193571 0
M  V30 32564 O 3020.61 -1.77424 -0.796925 0
M  V30 32565 C 3020.9 -2.44126 2.64716 0
M  V30 32566 C 3020.75 -1.88307 4.08486 0
M  V30 32567 C 3022.07 -3.46093 2.71859 0
M  V30 32568 H 3019.19 -0.480376 0.558935 0
M  V30 32569 H 3021.83 -0.633544 1.79126 0
M  V30 32570 H 3019.98 -3.031 2.43028 0
M  V30 32571 H 3021.65 -1.33657 4.41513 0
M  V30 32572 H 3019.89 -1.1903 4.1715 0
M  V30 32573 H 3020.56 -2.6897 4.82036 0
M  V30 32574 H 3023.04 -2.97025 2.91402 0
M  V30 32575 H 3021.92 -4.2164 3.51441 0
M  V30 32576 H 3022.18 -4.04423 1.78591 0
M  V30 32577 N 3021.24 -1.35102 -0.811492 0
M  V30 32578 C 3022.18 -1.2762 -1.92306 0
M  V30 32579 C 3023.15 -0.14912 -1.65429 0
M  V30 32580 O 3024.34 -0.332007 -1.87889 0
M  V30 32581 C 3021.48 -1.04914 -3.28766 0
M  V30 32582 C 3020.59 -2.265 -3.67861 0
M  V30 32583 C 3019.73 -1.96983 -4.93327 0
M  V30 32584 C 3018.77 -3.14649 -5.25036 0
M  V30 32585 N 3017.9 -2.84941 -6.4168 0
M  V30 32586 H 3022.74 -2.22677 -1.98037 0
M  V30 32587 H 3020.28 -1.10697 -0.968736 0
M  V30 32588 H 3022.24 -0.897821 -4.07425 0
M  V30 32589 H 3020.87 -0.135208 -3.22517 0
M  V30 32590 H 3019.92 -2.52512 -2.84503 0
M  V30 32591 H 3021.23 -3.14378 -3.87257 0
M  V30 32592 H 3020.39 -1.78653 -5.798 0
M  V30 32593 H 3019.12 -1.06382 -4.75956 0
M  V30 32594 H 3018.13 -3.33562 -4.37055 0
M  V30 32595 H 3019.35 -4.06044 -5.44339 0
M  V30 32596 H 3017.3 -1.96929 -6.25744 0
M  V30 32597 H 3017.22 -3.66353 -6.61303 0
M  V30 32598 H 3018.49 -2.70141 -7.31194 0
M  V30 32599 N 3022.71 1.03306 -1.19019 0
M  V30 32600 C 3023.96 1.76287 -0.988289 0
M  V30 32601 C 3024.28 1.88936 0.482524 0
M  V30 32602 O 3023.55 1.41989 1.34966 0
M  V30 32603 H 3022.13 0.653048 -0.362681 0
M  V30 32604 H 3024.8 1.24638 -1.49838 0
M  V30 32605 H 3023.89 2.77269 -1.43278 0
M  V30 32606 N 3024.19 0.99344 1.22346 0
M  V30 32607 C 3025.13 0.489112 2.22897 0
M  V30 32608 C 3026.1 -0.4509 1.56223 0
M  V30 32609 O 3027.29 -0.376319 1.84705 0
M  V30 32610 C 3024.41 -0.290887 3.37449 0
M  V30 32611 C 3023.46 0.595197 4.22326 0
M  V30 32612 S 3024.29 2.05081 4.94674 0
M  V30 32613 C 3025.45 1.28032 6.12665 0
M  V30 32614 H 3025.68 1.34116 2.65331 0
M  V30 32615 H 3023.22 0.800452 1.32031 0
M  V30 32616 H 3025.17 -0.734873 4.03869 0
M  V30 32617 H 3023.83 -1.11821 2.93521 0
M  V30 32618 H 3023.03 -0.00498554 5.04 0
M  V30 32619 H 3022.63 0.97597 3.61041 0
M  V30 32620 H 3024.92 0.548248 6.75278 0
M  V30 32621 H 3025.86 2.07235 6.77096 0
M  V30 32622 H 3026.27 0.793371 5.58897 0
M  V30 32623 N 3025.67 -1.37693 0.766707 0
M  V30 32624 C 3026.92 -1.99814 0.328749 0
M  V30 32625 C 3027.25 -1.60864 -1.0933 0
M  V30 32626 O 3026.5 -0.843931 -1.76568 0
M  V30 32627 C 3026.8 -3.54995 0.413893 0
M  V30 32628 C 3026.47 -4.13697 1.79347 0
M  V30 32629 C 3025.13 -4.29443 2.17099 0
M  V30 32630 C 3027.48 -4.45944 2.69784 0
M  V30 32631 C 3024.81 -4.74737 3.44734 0
M  V30 32632 C 3027.16 -4.9266 3.96823 0
M  V30 32633 C 3025.82 -5.06612 4.34627 0
M  V30 32634 H 3025.09 -0.73117 0.120298 0
M  V30 32635 H 3027.74 -1.64539 0.979749 0
M  V30 32636 H 3026.05 -3.90486 -0.320654 0
M  V30 32637 H 3027.74 -4.0096 0.0564073 0
M  V30 32638 H 3024.33 -4.01865 1.49004 0
M  V30 32639 H 3028.52 -4.33369 2.41878 0
M  V30 32640 H 3023.77 -4.83725 3.73925 0
M  V30 32641 H 3027.95 -5.1658 4.67032 0
M  V30 32642 H 3025.57 -5.41469 5.33587 0
M  V30 32643 N 3027.15 -0.516835 -1.48884 0
M  V30 32644 C 3028.06 0.257252 -2.33185 0
M  V30 32645 C 3029.07 0.951926 -1.45652 0
M  V30 32646 O 3030.25 0.929803 -1.78652 0
M  V30 32647 C 3027.32 1.29845 -3.21467 0
M  V30 32648 C 3026.38 0.615533 -4.24864 0
M  V30 32649 C 3025.61 1.60713 -5.08927 0
M  V30 32650 O 3025.83 2.83854 -4.94755 0
M  V30 32651 O 3024.77 1.15374 -5.90739 0
M  V30 32652 H 3028.59 -0.433183 -3.00595 0
M  V30 32653 H 3026.18 -0.277934 -1.46792 0
M  V30 32654 H 3028.06 1.90048 -3.76111 0
M  V30 32655 H 3026.73 1.97153 -2.56734 0
M  V30 32656 H 3025.64 -0.0266486 -3.74091 0
M  V30 32657 H 3026.97 -0.0153736 -4.92198 0
M  V30 32658 N 3028.63 1.55583 -0.251365 0
M  V30 32659 C 3029.87 1.99346 0.372685 0
M  V30 32660 C 3030.21 1.13937 1.57264 0
M  V30 32661 O 3029.48 0.203804 1.93429 0
M  V30 32662 C 3029.76 3.51591 0.778183 0
M  V30 32663 C 3029.62 4.47764 -0.427473 0
M  V30 32664 C 3030.94 4.0906 1.62351 0
M  V30 32665 H 3028.05 0.724718 0.133989 0
M  V30 32666 H 3030.7 1.86681 -0.353569 0
M  V30 32667 H 3028.85 3.62515 1.39698 0
M  V30 32668 H 3030.52 4.48816 -1.06594 0
M  V30 32669 H 3028.76 4.20402 -1.06979 0
M  V30 32670 H 3029.43 5.51909 -0.100347 0
M  V30 32671 H 3031.91 4.01266 1.10113 0
M  V30 32672 H 3030.78 5.15843 1.87608 0
M  V30 32673 H 3031.05 3.57796 2.59682 0
M  V30 32674 N 3030.1 -0.0216912 1.57585 0
M  V30 32675 C 3031.03 -1.01935 2.10075 0
M  V30 32676 C 3032.02 -1.37242 1.00493 0
M  V30 32677 O 3033.2 -1.45997 1.28057 0
M  V30 32678 C 3030.33 -2.31801 2.58622 0
M  V30 32679 C 3029.28 -2.10717 3.72535 0
M  V30 32680 C 3028.61 -3.46408 4.07315 0
M  V30 32681 C 3029.91 -1.48734 5.00675 0
M  V30 32682 H 3031.6 -0.582381 2.93681 0
M  V30 32683 H 3029.15 -0.27869 1.41277 0
M  V30 32684 H 3031.1 -3.01931 2.93966 0
M  V30 32685 H 3029.83 -2.77572 1.72109 0
M  V30 32686 H 3028.49 -1.43019 3.37552 0
M  V30 32687 H 3028.13 -3.89841 3.17857 0
M  V30 32688 H 3027.83 -3.33123 4.84048 0
M  V30 32689 H 3029.36 -4.17887 4.45199 0
M  V30 32690 H 3030.77 -2.08791 5.33928 0
M  V30 32691 H 3029.17 -1.46003 5.82068 0
M  V30 32692 H 3030.24 -0.453995 4.8277 0
M  V30 32693 N 3031.58 -1.54832 -0.294093 0
M  V30 32694 C 3032.49 -1.89327 -1.38537 0
M  V30 32695 C 3033.51 -0.78816 -1.55126 0
M  V30 32696 O 3034.69 -1.08527 -1.69658 0
M  V30 32697 C 3031.75 -2.13959 -2.72805 0
M  V30 32698 C 3030.81 -3.37636 -2.65142 0
M  V30 32699 C 3030.04 -3.61083 -3.93007 0
M  V30 32700 O 3030.27 -2.87415 -4.92695 0
M  V30 32701 O 3029.2 -4.54606 -3.94483 0
M  V30 32702 H 3033.03 -2.82181 -1.12284 0
M  V30 32703 H 3030.61 -1.41109 -0.490769 0
M  V30 32704 H 3032.49 -2.31321 -3.52234 0
M  V30 32705 H 3031.17 -1.2429 -2.98887 0
M  V30 32706 H 3030.08 -3.2563 -1.84162 0
M  V30 32707 H 3031.41 -4.27456 -2.44012 0
M  V30 32708 N 3033.06 0.557619 -1.47405 0
M  V30 32709 C 3034.47 1.13974 -1.47874 0
M  V30 32710 C 3034.82 1.94809 -0.23321 0
M  V30 32711 O 3033.95 2.06028 0.661908 0
M  V30 32712 C 3034.54 2.07363 -2.67929 0
M  V30 32713 C 3033.1 2.60848 -2.71359 0
M  V30 32714 C 3032.25 1.37219 -2.40969 0
M  V30 32715 H 3035.2 0.344241 -1.54921 0
M  V30 32716 H 3035.22 2.91232 -2.44876 0
M  V30 32717 H 3034.73 1.48502 -3.58565 0
M  V30 32718 H 3032.83 3.23508 -1.84861 0
M  V30 32719 H 3032.95 3.01869 -3.72037 0
M  V30 32720 H 3031.31 1.67878 -1.91543 0
M  V30 32721 H 3032.09 0.801524 -3.33812 0
M  V30 32722 N 3034.54 1.35531 0.804316 0
M  V30 32723 C 3035.47 1.31304 1.93084 0
M  V30 32724 C 3036.45 0.187073 1.69068 0
M  V30 32725 O 3037.64 0.382392 1.90398 0
M  V30 32726 C 3034.77 1.08656 3.29865 0
M  V30 32727 C 3033.72 2.17918 3.68369 0
M  V30 32728 C 3033.05 1.80432 5.03337 0
M  V30 32729 C 3034.35 3.599 3.78509 0
M  V30 32730 H 3036.04 2.25565 1.96878 0
M  V30 32731 H 3033.59 1.08583 0.945822 0
M  V30 32732 H 3035.54 1.04338 4.08279 0
M  V30 32733 H 3034.26 0.108416 3.2642 0
M  V30 32734 H 3032.92 2.21336 2.92243 0
M  V30 32735 H 3032.57 0.8123 4.96398 0
M  V30 32736 H 3032.27 2.53574 5.3007 0
M  V30 32737 H 3033.79 1.77643 5.84188 0
M  V30 32738 H 3035.21 3.58791 4.47149 0
M  V30 32739 H 3033.6 4.31822 4.16713 0
M  V30 32740 H 3034.67 3.95887 2.80003 0
M  V30 32741 N 3036.02 -1.02674 1.19565 0
M  V30 32742 C 3036.97 -2.09352 0.903092 0
M  V30 32743 C 3037.95 -1.6035 -0.13298 0
M  V30 32744 O 3039.14 -1.76849 0.0730055 0
M  V30 32745 C 3036.27 -3.40392 0.445911 0
M  V30 32746 C 3035.36 -3.96123 1.51484 0
M  V30 32747 N 3035.75 -4.2549 2.73481 0
M  V30 32748 C 3034.05 -4.24158 1.37863 0
M  V30 32749 C 3034.75 -4.70284 3.42357 0
M  V30 32750 N 3033.72 -4.71947 2.69754 0
M  V30 32751 H 3037.53 -2.29953 1.83027 0
M  V30 32752 H 3035.04 -1.20554 1.08814 0
M  V30 32753 H 3037.04 -4.16331 0.217763 0
M  V30 32754 H 3035.7 -3.2121 -0.474764 0
M  V30 32755 H 3036.71 -4.14706 3.10225 0
M  V30 32756 H 3033.39 -4.14229 0.521585 0
M  V30 32757 H 3034.78 -5.0191 4.46695 0
M  V30 32758 N 3037.5 -0.999914 -1.21817 0
M  V30 32759 C 3038.46 -0.561083 -2.22226 0
M  V30 32760 C 3039.46 0.35983 -1.56722 0
M  V30 32761 O 3040.65 0.150818 -1.73546 0
M  V30 32762 C 3037.78 0.182927 -3.40409 0
M  V30 32763 H 3038.97 -1.44914 -2.62564 0
M  V30 32764 H 3036.53 -0.787874 -1.3499 0
M  V30 32765 H 3037.26 1.08665 -3.05553 0
M  V30 32766 H 3037.05 -0.478399 -3.89171 0
M  V30 32767 H 3038.54 0.477879 -4.14857 0
M  V30 32768 N 3038.97 1.37284 -0.773999 0
M  V30 32769 C 3039.91 2.27944 -0.108059 0
M  V30 32770 C 3040.88 1.46439 0.706712 0
M  V30 32771 O 3042.07 1.75769 0.680994 0
M  V30 32772 C 3039.2 3.27779 0.853141 0
M  V30 32773 C 3038.24 4.26325 0.122089 0
M  V30 32774 S 3039.07 5.22077 -1.19145 0
M  V30 32775 C 3040.23 6.25463 -0.233847 0
M  V30 32776 H 3040.46 2.84077 -0.876793 0
M  V30 32777 H 3038 1.43593 -0.567493 0
M  V30 32778 H 3039.95 3.85805 1.40231 0
M  V30 32779 H 3038.62 2.70589 1.595 0
M  V30 32780 H 3037.81 4.96766 0.850839 0
M  V30 32781 H 3037.41 3.723 -0.356145 0
M  V30 32782 H 3039.7 6.749 0.592931 0
M  V30 32783 H 3040.65 7.02274 -0.906496 0
M  V30 32784 H 3041.05 5.64285 0.155949 0
M  V30 32785 N 3040.45 0.524724 1.48608 0
M  V30 32786 C 3041.38 -0.28807 2.26374 0
M  V30 32787 C 3042.36 -0.949486 1.31998 0
M  V30 32788 O 3043.55 -0.974917 1.61331 0
M  V30 32789 C 3040.67 -1.40755 3.08068 0
M  V30 32790 C 3039.72 -0.858078 4.17779 0
M  V30 32791 S 3040.55 0.269921 5.34819 0
M  V30 32792 C 3041.71 -0.852157 6.20072 0
M  V30 32793 H 3041.94 0.371917 2.94965 0
M  V30 32794 H 3039.47 0.310417 1.51247 0
M  V30 32795 H 3041.43 -2.04885 3.55714 0
M  V30 32796 H 3040.09 -2.03924 2.38902 0
M  V30 32797 H 3039.29 -1.69774 4.74545 0
M  V30 32798 H 3038.89 -0.293562 3.72846 0
M  V30 32799 H 3041.18 -1.75202 6.54454 0
M  V30 32800 H 3042.12 -0.322593 7.07365 0
M  V30 32801 H 3042.53 -1.13019 5.5307 0
M  V30 32802 N 3041.93 -1.55447 0.259613 0
M  V30 32803 C 3042.84 -2.2556 -0.644986 0
M  V30 32804 C 3043.86 -1.27608 -1.18289 0
M  V30 32805 O 3045.03 -1.60512 -1.21647 0
M  V30 32806 C 3042.1 -2.95113 -1.81959 0
M  V30 32807 C 3041.16 -4.08506 -1.3199 0
M  V30 32808 C 3040.39 -4.74733 -2.43852 0
M  V30 32809 O 3040.61 -4.40094 -3.62868 0
M  V30 32810 O 3039.55 -5.62994 -2.12888 0
M  V30 32811 H 3043.37 -3.03601 -0.0774866 0
M  V30 32812 H 3040.96 -1.49374 0.0276121 0
M  V30 32813 H 3042.84 -3.38878 -2.50479 0
M  V30 32814 H 3041.52 -2.20001 -2.37447 0
M  V30 32815 H 3040.42 -3.69231 -0.601611 0
M  V30 32816 H 3041.76 -4.85473 -0.81096 0
M  V30 32817 N 3043.41 0.0133338 -1.57594 0
M  V30 32818 C 3044.82 0.369228 -1.5527 0
M  V30 32819 C 3045.02 1.75628 -0.987782 0
M  V30 32820 O 3044.08 2.44878 -0.615726 0
M  V30 32821 C 3045.39 0.256667 -2.99603 0
M  V30 32822 C 3046.94 0.332593 -3.11228 0
M  V30 32823 C 3047.42 0.249306 -4.57321 0
M  V30 32824 N 3048.91 0.307619 -4.62177 0
M  V30 32825 C 3049.64 0.266309 -5.72781 0
M  V30 32826 N 3049.14 0.176372 -6.92575 0
M  V30 32827 N 3050.93 0.317197 -5.61204 0
M  V30 32828 H 3043.08 -0.894188 -1.9266 0
M  V30 32829 H 3045.34 -0.34152 -0.884346 0
M  V30 32830 H 3045.05 -0.697132 -3.44722 0
M  V30 32831 H 3044.92 1.04408 -3.62462 0
M  V30 32832 H 3047.31 1.27683 -2.66047 0
M  V30 32833 H 3047.39 -0.484456 -2.51171 0
M  V30 32834 H 3047.04 -0.691331 -5.03173 0
M  V30 32835 H 3046.97 1.08467 -5.15308 0
M  V30 32836 H 3049.46 0.379002 -3.75995 0
M  V30 32837 H 3049.77 0.150382 -7.72654 0
M  V30 32838 H 3048.12 0.142191 -6.94855 0
M  V30 32839 H 3051.31 0.385561 -4.66509 0
M  V30 32840 H 3051.48 0.281536 -6.47388 0
M  V30 32841 N 3044.89 1.54985 0.285878 0
M  V30 32842 C 3046.13 1.74638 1.01715 0
M  V30 32843 C 3046.45 0.543375 1.87276 0
M  V30 32844 O 3045.72 -0.442044 1.90848 0
M  V30 32845 H 3044.3 0.643986 0.378538 0
M  V30 32846 H 3046.97 1.92367 0.313213 0
M  V30 32847 H 3046.06 2.64195 1.66154 0
M  V30 32848 N 3046.36 -0.549794 1.47699 0
M  V30 32849 C 3047.78 -1.13189 1.48476 0
M  V30 32850 C 3048.13 -1.94683 0.243538 0
M  V30 32851 O 3047.25 -2.06377 -0.650973 0
M  V30 32852 C 3047.85 -2.05939 2.69025 0
M  V30 32853 C 3046.41 -2.59405 2.72738 0
M  V30 32854 C 3045.55 -1.35939 2.41694 0
M  V30 32855 H 3048.5 -0.33602 1.55102 0
M  V30 32856 H 3048.52 -2.89929 2.46417 0
M  V30 32857 H 3048.04 -1.46599 3.59347 0
M  V30 32858 H 3046.14 -3.22523 1.86574 0
M  V30 32859 H 3046.25 -2.99892 3.73633 0
M  V30 32860 H 3044.61 -1.6686 1.92431 0
M  V30 32861 H 3045.4 -0.78381 3.34232 0
M  V30 32862 N 3047.84 -1.35955 -0.797117 0
M  V30 32863 C 3048.77 -1.25512 -1.91779 0
M  V30 32864 C 3049.79 -0.176299 -1.61843 0
M  V30 32865 O 3050.98 -0.430373 -1.73234 0
M  V30 32866 C 3048.08 -0.912131 -3.26395 0
M  V30 32867 C 3047.25 -2.09127 -3.84168 0
M  V30 32868 C 3046.31 -1.72255 -4.97207 0
M  V30 32869 O 3045.33 -2.44248 -5.14132 0
M  V30 32870 N 3046.54 -0.651713 -5.7683 0
M  V30 32871 H 3049.3 -2.22067 -2.01262 0
M  V30 32872 H 3046.86 -1.29248 -0.975011 0
M  V30 32873 H 3048.85 -0.646777 -3.99498 0
M  V30 32874 H 3047.42 -0.0359629 -3.12579 0
M  V30 32875 H 3046.64 -2.51987 -3.03144 0
M  V30 32876 H 3047.93 -2.87922 -4.19498 0
M  V30 32877 H 3047.33 -0.0537672 -5.65674 0
M  V30 32878 H 3045.89 -0.446164 -6.50271 0
M  V30 32879 N 3049.32 1.02038 -1.20108 0
M  V30 32880 C 3050.55 1.79185 -1.03443 0
M  V30 32881 C 3050.96 1.84148 0.41651 0
M  V30 32882 O 3050.32 1.29171 1.28923 0
M  V30 32883 C 3050.37 3.23833 -1.60669 0
M  V30 32884 O 3050.09 3.19188 -3.00085 0
M  V30 32885 C 3051.59 4.17543 -1.48905 0
M  V30 32886 H 3048.81 0.563623 -0.364102 0
M  V30 32887 H 3051.36 1.28467 -1.59112 0
M  V30 32888 H 3049.51 3.71712 -1.09129 0
M  V30 32889 H 3049.93 4.09952 -3.27169 0
M  V30 32890 H 3051.4 5.16894 -1.93712 0
M  V30 32891 H 3051.88 4.36981 -0.44092 0
M  V30 32892 H 3052.48 3.75544 -1.99617 0
M  V30 32893 N 3050.8 1.00636 1.21285 0
M  V30 32894 C 3051.73 0.588128 2.25972 0
M  V30 32895 C 3052.71 -0.391735 1.65528 0
M  V30 32896 O 3053.89 -0.279418 1.92179 0
M  V30 32897 C 3051.02 -0.0846726 3.47197 0
M  V30 32898 C 3049.98 0.815113 4.20167 0
M  V30 32899 C 3049.3 0.00864792 5.34699 0
M  V30 32900 C 3050.6 2.11836 4.77412 0
M  V30 32901 H 3052.3 1.46322 2.61209 0
M  V30 32902 H 3049.84 0.705007 1.25561 0
M  V30 32903 H 3051.8 -0.388747 4.19603 0
M  V30 32904 H 3050.52 -0.994401 3.11094 0
M  V30 32905 H 3049.18 1.10303 3.49612 0
M  V30 32906 H 3048.83 -0.902412 4.94839 0
M  V30 32907 H 3048.53 0.607767 5.84448 0
M  V30 32908 H 3050.05 -0.28921 6.09915 0
M  V30 32909 H 3051.47 1.87735 5.41691 0
M  V30 32910 H 3049.86 2.66745 5.37557 0
M  V30 32911 H 3050.93 2.78823 3.96719 0
M  V30 32912 N 3052.28 -1.36872 0.781268 0
M  V30 32913 C 3053.22 -2.30157 0.172187 0
M  V30 32914 C 3054.19 -1.51574 -0.679301 0
M  V30 32915 O 3055.38 -1.8011 -0.629681 0
M  V30 32916 C 3052.52 -3.38061 -0.693474 0
M  V30 32917 C 3051.63 -4.31643 0.175662 0
M  V30 32918 C 3050.77 -5.26626 -0.695602 0
M  V30 32919 C 3049.81 -6.11848 0.175487 0
M  V30 32920 N 3048.94 -6.99045 -0.654293 0
M  V30 32921 H 3053.78 -2.81661 0.973182 0
M  V30 32922 H 3051.32 -1.38646 0.491494 0
M  V30 32923 H 3053.28 -3.99259 -1.21028 0
M  V30 32924 H 3051.91 -2.87897 -1.45998 0
M  V30 32925 H 3050.96 -3.71668 0.810361 0
M  V30 32926 H 3052.27 -4.91553 0.847193 0
M  V30 32927 H 3051.43 -5.93076 -1.27853 0
M  V30 32928 H 3050.16 -4.6715 -1.40079 0
M  V30 32929 H 3049.17 -5.44369 0.770875 0
M  V30 32930 H 3050.39 -6.73398 0.878148 0
M  V30 32931 H 3048.34 -6.42086 -1.34392 0
M  V30 32932 H 3048.26 -7.55989 -0.0402669 0
M  V30 32933 H 3049.53 -7.69873 -1.22131 0
M  V30 32934 N 3053.75 -0.532597 -1.48328 0
M  V30 32935 C 3054.66 0.232505 -2.33445 0
M  V30 32936 C 3055.68 0.936424 -1.46653 0
M  V30 32937 O 3056.86 0.910802 -1.79628 0
M  V30 32938 C 3053.92 1.26428 -3.22826 0
M  V30 32939 C 3052.98 0.570436 -4.25493 0
M  V30 32940 C 3052.22 1.55306 -5.10603 0
M  V30 32941 O 3052.44 2.78591 -4.97738 0
M  V30 32942 O 3051.37 1.09102 -5.91929 0
M  V30 32943 H 3055.2 -0.465041 -3.00118 0
M  V30 32944 H 3052.78 -0.293487 -1.46489 0
M  V30 32945 H 3054.67 1.86048 -3.78106 0
M  V30 32946 H 3053.34 1.94419 -2.58811 0
M  V30 32947 H 3052.25 -0.0663244 -3.74041 0
M  V30 32948 H 3053.58 -0.0675769 -4.92154 0
M  V30 32949 N 3055.23 1.55307 -0.267853 0
M  V30 32950 C 3056.46 2.0384 0.354551 0
M  V30 32951 C 3056.88 1.14647 1.50005 0
M  V30 32952 O 3056.23 0.165087 1.81752 0
M  V30 32953 C 3056.28 3.51546 0.842479 0
M  V30 32954 O 3056 4.37343 -0.257395 0
M  V30 32955 C 3057.51 4.15933 1.53344 0
M  V30 32956 H 3054.73 0.665995 0.0818014 0
M  V30 32957 H 3057.27 2.00593 -0.39783 0
M  V30 32958 H 3055.42 3.5526 1.54497 0
M  V30 32959 H 3055.84 5.24371 0.116501 0
M  V30 32960 H 3057.31 5.20911 1.82634 0
M  V30 32961 H 3057.79 3.6367 2.46253 0
M  V30 32962 H 3058.4 4.16202 0.874987 0
M  V30 32963 N 3056.71 -0.00497598 1.57599 0
M  V30 32964 C 3057.94 -0.705629 1.95027 0
M  V30 32965 C 3058.36 -1.66788 0.869673 0
M  V30 32966 O 3057.72 -1.80476 -0.172628 0
M  V30 32967 C 3057.77 -1.41804 3.31548 0
M  V30 32968 O 3056.87 -2.53226 3.255 0
M  V30 32969 H 3056.21 -0.188063 0.636811 0
M  V30 32970 H 3058.74 0.046732 2.04547 0
M  V30 32971 H 3058.75 -1.78258 3.66999 0
M  V30 32972 H 3057.43 -0.712471 4.09752 0
M  V30 32973 H 3056 -2.19136 3.01718 0
M  V30 32974 N 3058.19 -1.55135 -0.277654 0
M  V30 32975 C 3059.44 -1.75522 -1.00987 0
M  V30 32976 C 3059.76 -0.553745 -1.86451 0
M  V30 32977 O 3059.02 0.463862 -1.90123 0
M  V30 32978 C 3059.32 -3.01069 -1.92594 0
M  V30 32979 C 3058.98 -4.33822 -1.22918 0
M  V30 32980 C 3057.65 -4.69904 -1.0365 0
M  V30 32981 C 3060 -5.1602 -0.732981 0
M  V30 32982 C 3057.33 -5.85744 -0.33483 0
M  V30 32983 C 3059.68 -6.32584 -0.0449207 0
M  V30 32984 C 3058.34 -6.67309 0.15951 0
M  V30 32985 H 3057.61 -0.642279 -0.369538 0
M  V30 32986 H 3060.26 -1.89404 -0.282578 0
M  V30 32987 H 3058.56 -2.82067 -2.71929 0
M  V30 32988 H 3060.26 -3.14038 -2.49361 0
M  V30 32989 H 3056.85 -4.0546 -1.38926 0
M  V30 32990 H 3061.03 -4.88624 -0.869479 0
M  V30 32991 H 3056.29 -6.11175 -0.165675 0
M  V30 32992 H 3060.46 -6.95533 0.347352 0
M  V30 32993 H 3058.09 -7.56922 0.705203 0
M  V30 32994 N 3059.67 0.541953 -1.47989 0
M  V30 32995 C 3060.61 1.66864 -1.62047 0
M  V30 32996 C 3061.61 1.62241 -0.487246 0
M  V30 32997 O 3062.81 1.67243 -0.66557 0
M  V30 32998 H 3059.19 0.552403 -0.51025 0
M  V30 32999 H 3061.16 1.52148 -2.56697 0
M  V30 33000 C 3059.91 3.05177 -1.6662 0
M  V30 33001 H 3059.23 3.09423 -2.53175 0
M  V30 33002 H 3060.67 3.8366 -1.80503 0
M  V30 33003 C 3059.13 3.34487 -0.40248 0
M  V30 33004 O 3059.66 3.98702 0.489849 0
M  V30 33005 N 3057.87 2.89269 -0.277829 0
M  V30 33006 H 3057.41 2.3719 -1.00492 0
M  V30 33007 H 3057.37 3.0925 0.56673 0
M  V30 33008 N 3061.15 1.36376 0.789896 0
M  V30 33009 C 3062.08 1.26527 1.91111 0
M  V30 33010 C 3063.09 0.18488 1.61747 0
M  V30 33011 O 3064.28 0.439554 1.73003 0
M  V30 33012 C 3061.38 0.929428 3.25906 0
M  V30 33013 C 3060.55 2.11161 3.83053 0
M  V30 33014 C 3059.61 1.74889 4.96286 0
M  V30 33015 O 3058.64 2.46971 5.12829 0
M  V30 33016 N 3059.84 0.682294 5.76476 0
M  V30 33017 H 3062.6 2.23131 2.00081 0
M  V30 33018 H 3060.17 1.29764 0.968142 0
M  V30 33019 H 3062.16 0.667954 3.9915 0
M  V30 33020 H 3060.73 0.0525392 3.12556 0
M  V30 33021 H 3059.95 2.53591 3.01803 0
M  V30 33022 H 3061.24 2.90142 4.17965 0
M  V30 33023 H 3060.63 0.0837655 5.65638 0
M  V30 33024 H 3059.19 0.480644 6.50025 0
M  V30 33025 N 3062.62 -1.014 1.20647 0
M  V30 33026 C 3063.59 -2.08156 0.95935 0
M  V30 33027 C 3064.59 -1.60664 -0.0661276 0
M  V30 33028 O 3065.78 -1.73366 0.170208 0
M  V30 33029 C 3062.91 -3.37985 0.444844 0
M  V30 33030 H 3064.1 -2.31513 1.90635 0
M  V30 33031 H 3061.65 -1.1824 1.02221 0
M  V30 33032 H 3062.39 -3.20304 -0.507497 0
M  V30 33033 H 3062.17 -3.73783 1.18442 0
M  V30 33034 H 3063.66 -4.16581 0.291516 0
M  V30 33035 N 3064.1 -1.01278 -1.2075 0
M  V30 33036 C 3065.33 -0.717968 -1.93723 0
M  V30 33037 C 3065.74 0.724702 -1.7477 0
M  V30 33038 O 3065.08 1.50283 -1.05644 0
M  V30 33039 C 3065.14 -0.969015 -3.46194 0
M  V30 33040 C 3064.81 -2.40005 -3.88904 0
M  V30 33041 C 3065.81 -3.38068 -3.94976 0
M  V30 33042 C 3063.49 -2.73977 -4.21001 0
M  V30 33043 C 3065.48 -4.68166 -4.32549 0
M  V30 33044 C 3063.17 -4.0429 -4.5825 0
M  V30 33045 C 3064.17 -5.01196 -4.63996 0
M  V30 33046 O 3063.86 -6.29177 -5.00392 0
M  V30 33047 H 3063.59 -0.263197 -0.622658 0
M  V30 33048 H 3066.14 -1.3558 -1.54296 0
M  V30 33049 H 3064.37 -0.27402 -3.85728 0
M  V30 33050 H 3066.06 -0.666382 -4.00393 0
M  V30 33051 H 3066.83 -3.13157 -3.70348 0
M  V30 33052 H 3062.71 -1.9924 -4.15722 0
M  V30 33053 H 3066.25 -5.43803 -4.36949 0
M  V30 33054 H 3062.15 -4.28981 -4.82333 0
M  V30 33055 H 3062.92 -6.33408 -5.18398 0
M  V30 33056 N 3065.58 1.36456 -0.788516 0
M  V30 33057 C 3066.83 1.98872 -0.359784 0
M  V30 33058 C 3067.15 1.62894 1.07194 0
M  V30 33059 O 3066.42 0.902493 1.73873 0
M  V30 33060 H 3065 0.735594 -0.130042 0
M  V30 33061 H 3067.66 1.66667 -1.01036 0
M  V30 33062 H 3066.76 3.08826 -0.45089 0
M  V30 33063 N 3067.06 0.540456 1.48043 0
M  V30 33064 C 3068.47 0.199034 1.58354 0
M  V30 33065 C 3068.67 -1.29805 1.5412 0
M  V30 33066 O 3067.73 -2.07706 1.43577 0
M  V30 33067 C 3069.04 0.810848 2.89561 0
M  V30 33068 C 3070.59 0.780539 3.03112 0
M  V30 33069 C 3071.07 1.37112 4.36995 0
M  V30 33070 N 3072.56 1.33355 4.43588 0
M  V30 33071 C 3073.29 1.76031 5.45711 0
M  V30 33072 N 3072.79 2.26484 6.54734 0
M  V30 33073 N 3074.58 1.67203 5.36656 0
M  V30 33074 H 3066.73 1.51332 1.49038 0
M  V30 33075 H 3068.99 0.630094 0.708298 0
M  V30 33076 H 3068.7 1.86232 2.98346 0
M  V30 33077 H 3068.57 0.294043 3.76052 0
M  V30 33078 H 3070.96 -0.262195 2.93933 0
M  V30 33079 H 3071.04 1.33493 2.18205 0
M  V30 33080 H 3070.69 2.41283 4.46928 0
M  V30 33081 H 3070.62 0.792321 5.20605 0
M  V30 33082 H 3073.11 0.964323 3.65389 0
M  V30 33083 H 3073.42 2.57014 7.2881 0
M  V30 33084 H 3071.77 2.30484 6.55669 0
M  V30 33085 H 3074.96 1.27577 4.5038 0
M  V30 33086 H 3075.13 2.00782 6.16109 0
M  V30 33087 N 3068.54 -1.55163 0.276085 0
M  V30 33088 C 3069.81 -1.91626 -0.392259 0
M  V30 33089 C 3070.19 -1.20046 -1.73644 0
M  V30 33090 O 3069.54 -0.327646 -2.26139 0
M  V30 33091 C 3069.75 -3.44928 -0.53158 0
M  V30 33092 C 3071.1 -4.16724 -0.814027 0
M  V30 33093 O 3072.12 -3.50827 -0.616351 0
M  V30 33094 O 3070.98 -5.33339 -1.19215 0
M  V30 33095 H 3068.08 -0.798582 -0.214931 0
M  V30 33096 H 3070.62 -1.66611 0.322309 0
M  V30 33097 H 3069.39 -3.891 0.41435 0
M  V30 33098 H 3069.02 -3.759 -1.29558 0
M  V30 33099 N 3070.01 -0.00338196 -1.576 0
M  V30 33100 C 3070.94 0.985801 -2.1167 0
M  V30 33101 C 3071.92 1.35625 -1.02663 0
M  V30 33102 O 3073.11 1.43941 -1.30364 0
M  V30 33103 C 3070.24 2.27658 -2.62277 0
M  V30 33104 C 3069.19 2.04764 -3.7584 0
M  V30 33105 C 3068.52 3.39884 -4.12775 0
M  V30 33106 C 3069.82 1.4075 -5.02978 0
M  V30 33107 H 3071.51 0.535585 -2.94571 0
M  V30 33108 H 3069.06 0.256179 -1.41703 0
M  V30 33109 H 3071.01 2.97216 -2.98732 0
M  V30 33110 H 3069.74 2.74799 -1.76503 0
M  V30 33111 H 3068.4 1.3763 -3.39784 0
M  V30 33112 H 3068.04 3.84734 -3.24019 0
M  V30 33113 H 3067.74 3.2538 -4.89287 0
M  V30 33114 H 3069.27 4.10752 -4.51791 0
M  V30 33115 H 3070.68 2.0027 -5.37182 0
M  V30 33116 H 3069.08 1.36724 -5.84317 0
M  V30 33117 H 3070.15 0.377133 -4.83431 0
M  V30 33118 N 3071.49 1.5528 0.269423 0
M  V30 33119 C 3072.42 1.83338 1.35877 0
M  V30 33120 C 3073.4 0.686685 1.47389 0
M  V30 33121 O 3074.59 0.930066 1.63957 0
M  V30 33122 C 3071.71 1.99817 2.7348 0
M  V30 33123 C 3070.76 3.22383 2.79233 0
M  V30 33124 S 3071.59 4.79646 2.38117 0
M  V30 33125 C 3072.75 4.99102 3.77688 0
M  V30 33126 H 3072.98 2.75448 1.11874 0
M  V30 33127 H 3070.51 1.47097 0.469242 0
M  V30 33128 H 3072.47 2.09995 3.52721 0
M  V30 33129 H 3071.13 1.08588 2.94733 0
M  V30 33130 H 3070.33 3.30811 3.80237 0
M  V30 33131 H 3069.93 3.10814 2.08016 0
M  V30 33132 H 3072.22 4.85063 4.72991 0
M  V30 33133 H 3073.16 6.01143 3.7421 0
M  V30 33134 H 3073.57 4.27064 3.69156 0
M  V30 33135 N 3072.97 -0.534097 1.48274 0
M  V30 33136 C 3073.88 -1.66606 1.65165 0
M  V30 33137 C 3074.9 -1.65597 0.534206 0
M  V30 33138 O 3076.07 -1.84623 0.804747 0
M  V30 33139 C 3073.14 -3.03078 1.68359 0
M  V30 33140 C 3072.2 -3.14974 2.91701 0
M  V30 33141 C 3071.43 -4.44936 2.94733 0
M  V30 33142 O 3071.65 -5.31788 2.06295 0
M  V30 33143 O 3070.59 -4.61112 3.86858 0
M  V30 33144 H 3074.41 -1.55293 2.60994 0
M  V30 33145 H 3072 -0.706726 1.31627 0
M  V30 33146 H 3073.88 -3.84249 1.73005 0
M  V30 33147 H 3072.56 -3.14723 0.757033 0
M  V30 33148 H 3071.46 -2.33114 2.9259 0
M  V30 33149 H 3072.8 -3.08243 3.83728 0
M  V30 33150 N 3074.45 -1.36793 -0.782652 0
M  V30 33151 C 3075.41 -1.3151 -1.87717 0
M  V30 33152 C 3076.41 -0.221377 -1.59269 0
M  V30 33153 O 3077.6 -0.476573 -1.67554 0
M  V30 33154 C 3074.73 -1.04031 -3.24639 0
M  V30 33155 H 3075.93 -2.28857 -1.93816 0
M  V30 33156 H 3073.48 -1.21664 -0.981205 0
M  V30 33157 H 3074.21 -0.0717009 -3.24221 0
M  V30 33158 H 3074 -1.83186 -3.46678 0
M  V30 33159 H 3075.49 -1.02956 -4.04709 0
M  V30 33160 N 3075.93 1.00759 -1.21184 0
M  V30 33161 C 3076.86 2.09637 -0.92656 0
M  V30 33162 C 3077.87 1.62555 0.0892225 0
M  V30 33163 O 3079.06 1.77927 -0.142946 0
M  V30 33164 C 3076.16 3.36883 -0.369234 0
M  V30 33165 C 3075.33 4.13061 -1.43873 0
M  V30 33166 C 3074.39 5.186 -0.891106 0
M  V30 33167 O 3073.42 5.47006 -1.57393 0
M  V30 33168 N 3074.62 5.7975 0.294955 0
M  V30 33169 H 3077.39 2.34694 -1.86384 0
M  V30 33170 H 3074.95 1.17221 -1.11673 0
M  V30 33171 H 3076.94 4.04698 0.0114629 0
M  V30 33172 H 3075.51 3.09004 0.472807 0
M  V30 33173 H 3074.73 3.40085 -1.99338 0
M  V30 33174 H 3076.02 4.60734 -2.15874 0
M  V30 33175 H 3075.41 5.5902 0.866802 0
M  V30 33176 H 3073.97 6.48871 0.617192 0
M  V30 33177 N 3077.4 1.01917 1.20211 0
M  V30 33178 C 3078.31 0.601351 2.26762 0
M  V30 33179 C 3079.33 -0.362339 1.70185 0
M  V30 33180 O 3080.51 -0.222647 2.00166 0
M  V30 33181 C 3077.57 -0.051227 3.46662 0
M  V30 33182 C 3076.63 0.958732 4.18458 0
M  V30 33183 C 3075.87 0.337201 5.32634 0
M  V30 33184 O 3076.09 -0.862411 5.63843 0
M  V30 33185 O 3075.02 1.05521 5.92578 0
M  V30 33186 H 3078.85 1.48849 2.64722 0
M  V30 33187 H 3076.43 0.788807 1.26879 0
M  V30 33188 H 3078.32 -0.415566 4.19346 0
M  V30 33189 H 3076.99 -0.912517 3.10572 0
M  V30 33190 H 3075.9 1.37448 3.47935 0
M  V30 33191 H 3077.23 1.79007 4.58495 0
M  V30 33192 N 3078.88 -1.36036 0.795742 0
M  V30 33193 C 3080.13 -1.99805 0.380703 0
M  V30 33194 C 3080.48 -1.62011 -1.0378 0
M  V30 33195 O 3079.78 -0.867861 -1.70818 0
M  V30 33196 C 3079.97 -3.54038 0.4891 0
M  V30 33197 C 3079.8 -4.06813 1.91659 0
M  V30 33198 C 3078.57 -4.3667 2.54259 0
M  V30 33199 C 3080.77 -4.26124 2.87963 0
M  V30 33200 N 3078.75 -4.75307 3.88531 0
M  V30 33201 C 3080.12 -4.67637 4.07082 0
M  V30 33202 C 3082.18 -4.08308 2.84937 0
M  V30 33203 C 3080.88 -4.93198 5.23591 0
M  V30 33204 C 3082.9 -4.35019 4.0064 0
M  V30 33205 C 3082.27 -4.76794 5.18504 0
M  V30 33206 H 3078.37 -0.759348 0.186856 0
M  V30 33207 H 3080.95 -1.64932 1.03468 0
M  V30 33208 H 3079.12 -3.88166 -0.134825 0
M  V30 33209 H 3080.85 -4.04669 0.0496967 0
M  V30 33210 H 3077.61 -4.266 2.05693 0
M  V30 33211 H 3078.03 -4.98901 4.57632 0
M  V30 33212 H 3082.67 -3.75162 1.9497 0
M  V30 33213 H 3080.39 -5.25223 6.14139 0
M  V30 33214 H 3083.98 -4.22798 3.99666 0
M  V30 33215 H 3082.86 -4.97062 6.06547 0
M  V30 33216 N 3080.36 -0.5483 -1.47755 0
M  V30 33217 C 3081.6 -0.0231714 -2.04387 0
M  V30 33218 C 3081.96 1.2984 -1.41441 0
M  V30 33219 O 3083.17 1.91068 -1.89067 0
M  V30 33220 C 3081.44 0.0774192 -3.57316 0
M  V30 33221 S 3083 0.549961 -4.3534 0
M  V30 33222 H 3079.81 -0.0208553 -0.710694 0
M  V30 33223 H 3082.42 -0.733016 -1.81238 0
M  V30 33224 H 3081.12 -0.888951 -4.00657 0
M  V30 33225 H 3080.65 0.811089 -3.84948 0
M  V30 33226 H 3082.67 1.81127 -4.6196 0
M  V30 33227 N 3081.84 1.55014 -0.28431 0
M  V30 33228 C 3083.25 1.59448 0.0695749 0
M  V30 33229 C 3083.45 1.30147 1.53831 0
M  V30 33230 O 3082.51 1.06678 2.28858 0
M  V30 33231 C 3083.82 2.99063 -0.313339 0
M  V30 33232 C 3085.37 3.11912 -0.260717 0
M  V30 33233 C 3085.85 4.53809 -0.618206 0
M  V30 33234 N 3087.34 4.59678 -0.570106 0
M  V30 33235 C 3088.07 5.67515 -0.8194 0
M  V30 33236 N 3087.57 6.8346 -1.13379 0
M  V30 33237 N 3089.36 5.57107 -0.74758 0
M  V30 33238 H 3081.51 1.72324 -1.2417 0
M  V30 33239 H 3083.78 0.804006 -0.502273 0
M  V30 33240 H 3083.48 3.25372 -1.33515 0
M  V30 33241 H 3083.36 3.75653 0.341303 0
M  V30 33242 H 3085.74 2.85362 0.751819 0
M  V30 33243 H 3085.82 2.37515 -0.949748 0
M  V30 33244 H 3085.47 4.81085 -1.62847 0
M  V30 33245 H 3085.4 5.26518 0.0927144 0
M  V30 33246 H 3087.89 3.76391 -0.337366 0
M  V30 33247 H 3088.2 7.61608 -1.31043 0
M  V30 33248 H 3086.55 6.85053 -1.17166 0
M  V30 33249 H 3089.74 4.65403 -0.50174 0
M  V30 33250 H 3089.91 6.41069 -0.945241 0
M  V30 33251 N 3083.32 0.0117398 1.57596 0
M  V30 33252 C 3084.26 -0.97586 2.09155 0
M  V30 33253 C 3085.23 -1.33402 0.989603 0
M  V30 33254 O 3086.42 -1.43035 1.26275 0
M  V30 33255 C 3083.56 -2.25876 2.6091 0
M  V30 33256 C 3082.67 -1.95859 3.8505 0
M  V30 33257 C 3081.81 -3.18316 4.25263 0
M  V30 33258 C 3080.85 -2.84039 5.42207 0
M  V30 33259 N 3079.98 -3.99068 5.77658 0
M  V30 33260 H 3084.82 -0.529259 2.93262 0
M  V30 33261 H 3082.36 -0.249666 1.44966 0
M  V30 33262 H 3084.32 -3.0089 2.89 0
M  V30 33263 H 3082.95 -2.68184 1.79659 0
M  V30 33264 H 3082 -1.11162 3.63796 0
M  V30 33265 H 3083.31 -1.66602 4.70154 0
M  V30 33266 H 3082.47 -4.01666 4.54697 0
M  V30 33267 H 3081.2 -3.5072 3.3889 0
M  V30 33268 H 3080.21 -1.99098 5.12484 0
M  V30 33269 H 3081.43 -2.5287 6.30265 0
M  V30 33270 H 3079.38 -4.31347 4.94242 0
M  V30 33271 H 3079.3 -3.73376 6.57363 0
M  V30 33272 H 3080.57 -4.83173 6.1169 0
M  V30 33273 N 3084.79 -1.55421 -0.261185 0
M  V30 33274 C 3086.02 -1.8036 -1.00766 0
M  V30 33275 C 3086.43 -0.583117 -1.7999 0
M  V30 33276 O 3085.78 0.457503 -1.77912 0
M  V30 33277 C 3085.84 -2.98424 -2.00458 0
M  V30 33278 C 3085.5 -4.35008 -1.40062 0
M  V30 33279 C 3086.5 -5.13547 -0.810298 0
M  V30 33280 C 3084.18 -4.81684 -1.42427 0
M  V30 33281 C 3086.18 -6.36903 -0.251672 0
M  V30 33282 C 3083.86 -6.04993 -0.86179 0
M  V30 33283 C 3084.86 -6.8244 -0.276502 0
M  V30 33284 O 3084.55 -8.03421 0.277335 0
M  V30 33285 H 3084.28 -0.604377 -0.302828 0
M  V30 33286 H 3086.84 -2.03289 -0.293727 0
M  V30 33287 H 3085.07 -2.71215 -2.75643 0
M  V30 33288 H 3086.76 -3.10582 -2.61331 0
M  V30 33289 H 3087.52 -4.78611 -0.784635 0
M  V30 33290 H 3083.4 -4.21404 -1.86922 0
M  V30 33291 H 3086.94 -6.97296 0.205801 0
M  V30 33292 H 3082.84 -6.39408 -0.884733 0
M  V30 33293 H 3083.61 -8.18328 0.167826 0
M  V30 33294 N 3086.27 0.526227 -1.48555 0
M  V30 33295 C 3087.21 1.64721 -1.57931 0
M  V30 33296 C 3088.18 1.56823 -0.429564 0
M  V30 33297 O 3089.37 1.77242 -0.641682 0
M  V30 33298 C 3086.49 3.03138 -1.5108 0
M  V30 33299 C 3085.54 3.29382 -2.70943 0
M  V30 33300 S 3086.37 3.15244 -4.32876 0
M  V30 33301 C 3087.53 4.561 -4.2863 0
M  V30 33302 H 3087.76 1.56518 -2.52763 0
M  V30 33303 H 3085.3 0.709476 -1.37134 0
M  V30 33304 H 3087.25 3.82964 -1.47815 0
M  V30 33305 H 3085.91 3.08777 -0.575794 0
M  V30 33306 H 3085.11 4.30367 -2.62298 0
M  V30 33307 H 3084.71 2.57233 -2.71491 0
M  V30 33308 H 3087 5.47695 -3.98794 0
M  V30 33309 H 3087.94 4.69798 -5.29807 0
M  V30 33310 H 3088.35 4.35599 -3.59046 0
M  V30 33311 N 3087.75 1.37206 0.775387 0
M  V30 33312 C 3088.7 1.32674 1.88855 0
M  V30 33313 C 3089.67 0.192928 1.64976 0
M  V30 33314 O 3090.85 0.381706 1.86943 0
M  V30 33315 C 3087.99 1.13593 3.25869 0
M  V30 33316 C 3087.11 2.36173 3.61727 0
M  V30 33317 C 3086.24 2.09993 4.87931 0
M  V30 33318 C 3085.28 3.28459 5.16509 0
M  V30 33319 N 3084.42 3.01853 6.339 0
M  V30 33320 H 3089.26 2.2785 1.92064 0
M  V30 33321 H 3086.79 1.13227 0.939046 0
M  V30 33322 H 3088.75 1.00553 4.04901 0
M  V30 33323 H 3087.38 0.22067 3.22045 0
M  V30 33324 H 3086.43 2.59967 2.77708 0
M  V30 33325 H 3087.75 3.24535 3.78786 0
M  V30 33326 H 3086.9 1.93963 5.74859 0
M  V30 33327 H 3085.64 1.18964 4.72968 0
M  V30 33328 H 3084.64 3.45032 4.28057 0
M  V30 33329 H 3085.87 4.20334 5.33382 0
M  V30 33330 H 3083.81 2.1345 6.20302 0
M  V30 33331 H 3083.73 3.83757 6.51357 0
M  V30 33332 H 3085 2.89433 7.23774 0
M  V30 33333 N 3089.23 -1.00115 1.21716 0
M  V30 33334 C 3090.45 -1.78052 1.0636 0
M  V30 33335 C 3090.88 -1.84179 -0.382043 0
M  V30 33336 O 3090.24 -1.28821 -1.27573 0
M  V30 33337 C 3090.28 -3.19605 1.66988 0
M  V30 33338 O 3089.39 -4.02054 0.917963 0
M  V30 33339 H 3088.73 -0.548596 0.374084 0
M  V30 33340 H 3091.26 -1.25819 1.6134 0
M  V30 33341 H 3091.27 -3.70265 1.71369 0
M  V30 33342 H 3089.94 -3.1446 2.72191 0
M  V30 33343 H 3088.52 -3.60608 0.949536 0
M  V30 33344 N 3090.71 -1.02553 -1.19669 0
M  V30 33345 C 3091.96 -0.718613 -1.88892 0
M  V30 33346 C 3092.28 0.754824 -1.79798 0
M  V30 33347 O 3091.55 1.54359 -1.20623 0
M  V30 33348 H 3090.13 -0.262818 -0.699239 0
M  V30 33349 H 3092.79 -1.29904 -1.45296 0
M  V30 33350 H 3091.88 -1.00994 -2.95308 0
M  V30 33351 N 3092.19 1.35612 -0.802945 0
M  V30 33352 C 3093.13 2.31749 -0.198824 0
M  V30 33353 C 3094.13 1.56459 0.649388 0
M  V30 33354 O 3095.33 1.71616 0.542959 0
M  V30 33355 H 3091.71 0.75062 -0.0455309 0
M  V30 33356 H 3093.68 2.80249 -1.02484 0
M  V30 33357 C 3092.43 3.4174 0.641006 0
M  V30 33358 H 3091.75 3.998 -0.00233272 0
M  V30 33359 H 3093.19 4.11295 1.03015 0
M  V30 33360 C 3091.65 2.84467 1.805 0
M  V30 33361 O 3092.18 2.77722 2.9023 0
M  V30 33362 N 3090.39 2.41566 1.61538 0
M  V30 33363 H 3089.93 2.47251 0.722819 0
M  V30 33364 H 3089.89 2.03593 2.39577 0
M  V30 33365 N 3093.66 0.556128 1.47462 0
M  V30 33366 C 3094.91 0.0317162 2.02775 0
M  V30 33367 C 3095.24 -1.31428 1.4297 0
M  V30 33368 O 3094.52 -1.85498 0.584879 0
M  V30 33369 C 3094.8 -0.0625109 3.60046 0
M  V30 33370 C 3094.65 1.3105 4.30286 0
M  V30 33371 C 3095.97 -0.776476 4.33196 0
M  V30 33372 H 3093.09 0.0129999 0.736885 0
M  V30 33373 H 3095.73 0.718208 1.75903 0
M  V30 33374 H 3093.88 -0.647163 3.83072 0
M  V30 33375 H 3095.56 1.93827 4.18603 0
M  V30 33376 H 3093.8 1.88547 3.90682 0
M  V30 33377 H 3094.47 1.1973 5.38859 0
M  V30 33378 H 3096.95 -0.280074 4.15156 0
M  V30 33379 H 3095.82 -0.811365 5.4287 0
M  V30 33380 H 3096.08 -1.83237 4.02339 0
M  V30 33381 N 3095.14 -1.54861 0.292527 0
M  V30 33382 C 3096.09 -2.23202 -0.587326 0
M  V30 33383 C 3097.06 -1.21159 -1.13621 0
M  V30 33384 O 3098.24 -1.49754 -1.1823 0
M  V30 33385 C 3095.38 -2.97001 -1.75739 0
M  V30 33386 C 3094.5 -4.138 -1.24071 0
M  V30 33387 C 3093.63 -4.75201 -2.37397 0
M  V30 33388 C 3092.67 -5.84161 -1.82819 0
M  V30 33389 N 3091.81 -6.39552 -2.89685 0
M  V30 33390 H 3096.65 -2.98 0.00207445 0
M  V30 33391 H 3094.18 -1.47094 0.0127918 0
M  V30 33392 H 3096.14 -3.38015 -2.44544 0
M  V30 33393 H 3094.77 -2.24595 -2.31856 0
M  V30 33394 H 3093.82 -3.77786 -0.445201 0
M  V30 33395 H 3095.14 -4.92325 -0.801099 0
M  V30 33396 H 3094.29 -5.19025 -3.14163 0
M  V30 33397 H 3093.03 -3.9599 -2.84681 0
M  V30 33398 H 3092.03 -5.3977 -1.04539 0
M  V30 33399 H 3093.26 -6.65251 -1.36449 0
M  V30 33400 H 3091.21 -5.63228 -3.36318 0
M  V30 33401 H 3091.12 -7.134 -2.50194 0
M  V30 33402 H 3092.39 -6.88034 -3.66374 0
M  V30 33403 N 3096.62 -0.0200973 -1.57587 0
M  V30 33404 C 3097.9 0.698645 -1.82697 0
M  V30 33405 C 3098.28 1.90854 -0.902115 0
M  V30 33406 O 3097.62 2.28457 0.0444432 0
M  V30 33407 C 3097.83 1.0854 -3.31693 0
M  V30 33408 C 3099.18 1.48083 -3.9794 0
M  V30 33409 O 3100.21 1.17863 -3.36135 0
M  V30 33410 O 3099.07 2.04355 -5.06854 0
M  V30 33411 H 3096.16 0.341929 -0.753003 0
M  V30 33412 H 3098.71 -0.0470899 -1.69635 0
M  V30 33413 H 3097.48 0.223887 -3.90659 0
M  V30 33414 H 3097.1 1.88959 -3.49829 0
M  V30 33415 N 3098.1 1.55557 0.252939 0
M  V30 33416 C 3099.03 1.92822 1.31688 0
M  V30 33417 C 3100.01 0.792426 1.50515 0
M  V30 33418 O 3101.19 1.05222 1.63224 0
M  V30 33419 C 3098.32 2.21766 2.67277 0
M  V30 33420 C 3097.28 3.37541 2.63154 0
M  V30 33421 C 3096.6 3.52012 4.02482 0
M  V30 33422 C 3097.9 4.73396 2.20667 0
M  V30 33423 H 3099.6 2.81941 1.00746 0
M  V30 33424 H 3097.14 1.35651 0.483195 0
M  V30 33425 H 3099.1 2.46425 3.41837 0
M  V30 33426 H 3097.82 1.29468 2.99843 0
M  V30 33427 H 3096.48 3.12882 1.91052 0
M  V30 33428 H 3096.13 2.57144 4.32303 0
M  V30 33429 H 3095.83 4.29864 4.00613 0
M  V30 33430 H 3097.35 3.78985 4.78751 0
M  V30 33431 H 3098.77 4.97466 2.84957 0
M  V30 33432 H 3097.16 5.54307 2.29921 0
M  V30 33433 H 3098.23 4.70864 1.15823 0
M  V30 33434 N 3099.58 -0.518341 1.48832 0
M  V30 33435 C 3100.8 -1.29797 1.61122 0
M  V30 33436 C 3101.22 -1.86773 0.275905 0
M  V30 33437 O 3100.58 -1.66984 -0.736387 0
M  V30 33438 C 3100.63 -2.44058 2.6668 0
M  V30 33439 O 3100.35 -1.89427 3.9503 0
M  V30 33440 C 3101.85 -3.35701 2.89516 0
M  V30 33441 H 3099.07 -0.394304 0.542923 0
M  V30 33442 H 3101.61 -0.624108 1.94744 0
M  V30 33443 H 3099.77 -3.07307 2.35884 0
M  V30 33444 H 3100.18 -2.64308 4.53036 0
M  V30 33445 H 3101.66 -4.12196 3.67149 0
M  V30 33446 H 3102.13 -3.91644 1.98775 0
M  V30 33447 H 3102.74 -2.78235 3.21661 0
M  V30 33448 N 3101.05 -1.37615 -0.7681 0
M  V30 33449 C 3101.99 -1.29552 -1.89074 0
M  V30 33450 C 3103 -0.210589 -1.61432 0
M  V30 33451 O 3104.19 -0.467022 -1.72282 0
M  V30 33452 C 3101.29 -0.981159 -3.24386 0
M  V30 33453 C 3100.46 -2.17228 -3.79645 0
M  V30 33454 C 3099.52 -1.82763 -4.93441 0
M  V30 33455 O 3098.55 -2.55099 -5.08835 0
M  V30 33456 N 3099.75 -0.77392 -5.75318 0
M  V30 33457 H 3102.51 -2.26286 -1.96506 0
M  V30 33458 H 3100.07 -1.31287 -0.947376 0
M  V30 33459 H 3102.07 -0.731371 -3.98036 0
M  V30 33460 H 3100.64 -0.102257 -3.12433 0
M  V30 33461 H 3099.86 -2.5836 -2.97731 0
M  V30 33462 H 3101.14 -2.96755 -4.13296 0
M  V30 33463 H 3100.54 -0.173743 -5.65433 0
M  V30 33464 H 3099.1 -0.583996 -6.49179 0
M  V30 33465 N 3102.53 0.994677 -1.22245 0
M  V30 33466 C 3103.49 2.06604 -0.992345 0
M  V30 33467 C 3104.49 1.60749 0.040559 0
M  V30 33468 O 3105.68 1.73074 -0.197767 0
M  V30 33469 C 3102.82 3.37235 -0.498558 0
M  V30 33470 H 3104.01 2.28451 -1.94294 0
M  V30 33471 H 3101.56 1.16598 -1.04089 0
M  V30 33472 H 3102.3 3.21071 0.456475 0
M  V30 33473 H 3102.08 3.71852 -1.24374 0
M  V30 33474 H 3103.57 4.16065 -0.357754 0
M  V30 33475 N 3104.01 1.03186 1.19123 0
M  V30 33476 C 3105.26 0.74089 1.89426 0
M  V30 33477 C 3105.61 -0.722878 1.78304 0
M  V30 33478 O 3104.9 -1.51992 1.16658 0
M  V30 33479 C 3105.1 1.13047 3.3905 0
M  V30 33480 C 3104.93 2.63056 3.64735 0
M  V30 33481 C 3103.7 3.30072 3.82597 0
M  V30 33482 C 3105.89 3.61269 3.66046 0
M  V30 33483 N 3103.88 4.69154 3.95939 0
M  V30 33484 C 3105.25 4.85983 3.84995 0
M  V30 33485 C 3107.3 3.55025 3.49087 0
M  V30 33486 C 3106.01 6.05204 3.88742 0
M  V30 33487 C 3108.03 4.73664 3.54113 0
M  V30 33488 C 3107.39 5.97193 3.7355 0
M  V30 33489 H 3103.49 0.323026 0.712164 0
M  V30 33490 H 3106.08 1.31977 1.43144 0
M  V30 33491 H 3104.25 0.579766 3.84049 0
M  V30 33492 H 3105.98 0.791439 3.96886 0
M  V30 33493 H 3102.73 2.80483 3.8161 0
M  V30 33494 H 3103.16 5.41411 4.06452 0
M  V30 33495 H 3107.8 2.60503 3.33013 0
M  V30 33496 H 3105.52 7.00091 4.03607 0
M  V30 33497 H 3109.1 4.70465 3.42278 0
M  V30 33498 H 3107.98 6.8746 3.77318 0
M  V30 33499 N 3105.49 -1.35184 0.810125 0
M  V30 33500 C 3106.77 -1.93043 0.315269 0
M  V30 33501 C 3107.15 -1.73976 -1.19564 0
M  V30 33502 O 3106.49 -1.11086 -1.9968 0
M  V30 33503 C 3106.7 -3.41268 0.730551 0
M  V30 33504 C 3108.05 -4.18415 0.722059 0
M  V30 33505 O 3109.08 -3.49798 0.672319 0
M  V30 33506 O 3107.93 -5.40853 0.783631 0
M  V30 33507 H 3105.03 -0.822795 0.0832919 0
M  V30 33508 H 3107.57 -1.44238 0.894059 0
M  V30 33509 H 3106.35 -3.48891 1.77175 0
M  V30 33510 H 3105.97 -3.97398 0.12676 0
M  V30 33511 N 3106.97 -0.56394 -1.47165 0
M  V30 33512 C 3107.9 0.168107 -2.32894 0
M  V30 33513 C 3108.88 0.902188 -1.44203 0
M  V30 33514 O 3110.06 0.881335 -1.7305 0
M  V30 33515 C 3107.19 1.19433 -3.26118 0
M  V30 33516 C 3106.15 0.576288 -4.24102 0
M  V30 33517 C 3105.47 1.70763 -5.06699 0
M  V30 33518 C 3106.77 -0.474341 -5.20142 0
M  V30 33519 H 3108.47 -0.547625 -2.94349 0
M  V30 33520 H 3106.01 -0.264802 -1.41544 0
M  V30 33521 H 3107.97 1.71467 -3.84938 0
M  V30 33522 H 3106.69 1.9401 -2.62732 0
M  V30 33523 H 3105.35 0.077189 -3.66519 0
M  V30 33524 H 3105 2.4426 -4.39711 0
M  V30 33525 H 3104.7 1.29984 -5.73043 0
M  V30 33526 H 3106.22 2.2311 -5.68379 0
M  V30 33527 H 3107.63 -0.0398043 -5.73286 0
M  V30 33528 H 3106.03 -0.801391 -5.94725 0
M  V30 33529 H 3107.1 -1.36772 -4.65211 0
M  V30 33530 N 3108.44 1.54704 -0.300735 0
M  V30 33531 C 3109.67 2.04249 0.310783 0
M  V30 33532 C 3110.08 1.17757 1.48088 0
M  V30 33533 O 3109.43 0.195811 1.82653 0
M  V30 33534 C 3109.49 3.49786 0.830079 0
M  V30 33535 C 3109.15 4.56495 -0.214708 0
M  V30 33536 C 3110.15 5.09329 -1.04307 0
M  V30 33537 C 3107.83 5.01035 -0.35633 0
M  V30 33538 C 3109.83 6.05243 -1.99899 0
M  V30 33539 C 3107.51 5.96768 -1.3157 0
M  V30 33540 C 3108.51 6.48756 -2.13551 0
M  V30 33541 O 3108.2 7.42614 -3.07862 0
M  V30 33542 H 3107.93 0.672206 0.0715223 0
M  V30 33543 H 3110.49 2.00671 -0.438214 0
M  V30 33544 H 3108.72 3.50687 1.6296 0
M  V30 33545 H 3110.41 3.82528 1.35745 0
M  V30 33546 H 3111.17 4.75714 -0.944522 0
M  V30 33547 H 3107.05 4.60198 0.271835 0
M  V30 33548 H 3110.59 6.45746 -2.63928 0
M  V30 33549 H 3106.49 6.29801 -1.41497 0
M  V30 33550 H 3107.26 7.60415 -3.02838 0
M  V30 33551 N 3109.92 0.0284543 1.57574 0
M  V30 33552 C 3111.15 -0.659583 1.95788 0
M  V30 33553 C 3111.56 -1.66233 0.903505 0
M  V30 33554 O 3110.9 -1.83286 -0.123258 0
M  V30 33555 C 3110.97 -1.42292 3.30141 0
M  V30 33556 C 3110.63 -0.578578 4.53323 0
M  V30 33557 C 3111.63 0.145843 5.19695 0
M  V30 33558 C 3109.31 -0.516176 4.99641 0
M  V30 33559 C 3111.31 0.921346 6.30706 0
M  V30 33560 C 3108.99 0.263032 6.10534 0
M  V30 33561 C 3109.99 0.980501 6.75925 0
M  V30 33562 O 3109.68 1.74694 7.84689 0
M  V30 33563 H 3109.41 -0.18678 0.649684 0
M  V30 33564 H 3111.96 0.0843048 2.05227 0
M  V30 33565 H 3110.19 -2.21193 3.17192 0
M  V30 33566 H 3111.88 -1.999 3.53263 0
M  V30 33567 H 3112.65 0.106962 4.84882 0
M  V30 33568 H 3108.53 -1.06419 4.48549 0
M  V30 33569 H 3112.07 1.48188 6.81679 0
M  V30 33570 H 3107.97 0.303633 6.44785 0
M  V30 33571 H 3108.74 1.66664 8.01352 0
M  V30 33572 N 3111.4 -1.55689 -0.244686 0
M  V30 33573 C 3112.35 -1.86894 -1.30593 0
M  V30 33574 C 3113.33 -0.729997 -1.43387 0
M  V30 33575 O 3114.53 -0.991966 -1.46591 0
M  V30 33576 C 3111.66 -2.16906 -2.66095 0
M  V30 33577 C 3110.74 -3.37134 -2.57297 0
M  V30 33578 N 3111.13 -4.56347 -2.18131 0
M  V30 33579 C 3109.43 -3.40288 -2.88305 0
M  V30 33580 C 3110.13 -5.38485 -2.20019 0
M  V30 33581 N 3109.11 -4.77603 -2.59608 0
M  V30 33582 H 3112.91 -2.76593 -0.99365 0
M  V30 33583 H 3110.42 -1.55945 -0.453307 0
M  V30 33584 H 3112.42 -2.37428 -3.42686 0
M  V30 33585 H 3111.08 -1.28507 -2.98188 0
M  V30 33586 H 3112.09 -4.81931 -1.89639 0
M  V30 33587 H 3108.77 -2.62167 -3.24923 0
M  V30 33588 H 3110.16 -6.43866 -1.92059 0
M  V30 33589 N 3112.88 0.510441 -1.49105 0
M  V30 33590 C 3114.12 1.26703 -1.58349 0
M  V30 33591 C 3114.46 1.92381 -0.265155 0
M  V30 33592 O 3113.73 1.8026 0.730526 0
M  V30 33593 C 3114.02 2.34133 -2.73594 0
M  V30 33594 C 3113.87 1.73017 -4.15193 0
M  V30 33595 C 3115.19 3.35765 -2.84517 0
M  V30 33596 H 3112.31 0.459301 -0.576378 0
M  V30 33597 H 3114.95 0.566626 -1.81354 0
M  V30 33598 H 3113.1 2.93872 -2.5411 0
M  V30 33599 H 3114.77 1.17178 -4.46169 0
M  V30 33600 H 3113.01 1.03466 -4.21281 0
M  V30 33601 H 3113.68 2.50894 -4.91687 0
M  V30 33602 H 3116.16 2.86006 -3.02225 0
M  V30 33603 H 3115.04 4.08306 -3.66848 0
M  V30 33604 H 3115.3 3.97516 -1.93478 0
M  V30 33605 N 3114.36 1.38021 0.760791 0
M  V30 33606 C 3115.6 1.33833 1.5197 0
M  V30 33607 C 3115.93 -0.0738513 1.9436 0
M  V30 33608 O 3115.19 -1.04943 1.65183 0
M  V30 33609 C 3115.49 2.23344 2.7902 0
M  V30 33610 C 3115.15 3.71436 2.55629 0
M  V30 33611 C 3113.81 4.11792 2.48959 0
M  V30 33612 C 3116.17 4.65209 2.3501 0
M  V30 33613 C 3113.49 5.44022 2.19674 0
M  V30 33614 C 3115.85 5.97688 2.07248 0
M  V30 33615 C 3114.51 6.37137 1.99029 0
M  V30 33616 H 3113.78 0.489729 0.556099 0
M  V30 33617 H 3116.43 1.70319 0.87542 0
M  V30 33618 H 3114.73 1.79889 3.48062 0
M  V30 33619 H 3116.43 2.17411 3.36947 0
M  V30 33620 H 3113.02 3.39436 2.61689 0
M  V30 33621 H 3117.2 4.34882 2.39147 0
M  V30 33622 H 3112.46 5.73537 2.11814 0
M  V30 33623 H 3116.63 6.69896 1.90295 0
M  V30 33624 H 3114.26 7.39522 1.76102 0
M  V30 33625 N 3115.83 -0.98818 1.22771 0
M  V30 33626 C 3117.25 -1.25288 0.988687 0
M  V30 33627 C 3117.45 -1.99024 -0.314903 0
M  V30 33628 O 3116.51 -2.30253 -1.03633 0
M  V30 33629 C 3117.82 -2.06005 2.19049 0
M  V30 33630 C 3119.37 -2.19172 2.23456 0
M  V30 33631 C 3119.84 -3.03277 3.43202 0
M  V30 33632 N 3121.33 -3.10863 3.43393 0
M  V30 33633 C 3122.07 -3.76242 4.327 0
M  V30 33634 N 3121.56 -4.43509 5.32232 0
M  V30 33635 N 3123.36 -3.73051 4.20463 0
M  V30 33636 H 3115.51 -0.493978 2.06576 0
M  V30 33637 H 3117.77 -0.280804 0.905457 0
M  V30 33638 H 3117.48 -1.59192 3.13609 0
M  V30 33639 H 3117.35 -3.06759 2.19497 0
M  V30 33640 H 3119.74 -2.65196 1.29441 0
M  V30 33641 H 3119.82 -1.17832 2.27044 0
M  V30 33642 H 3119.46 -2.57951 4.3752 0
M  V30 33643 H 3119.39 -4.04768 3.36854 0
M  V30 33644 H 3121.88 -2.62993 2.71372 0
M  V30 33645 H 3122.2 -4.91152 5.96649 0
M  V30 33646 H 3120.54 -4.42243 5.3614 0
M  V30 33647 H 3123.73 -3.19663 3.41955 0
M  V30 33648 H 3123.91 -4.23723 4.90268 0
M  V30 33649 N 3117.31 -1.03816 -1.18575 0
M  V30 33650 C 3118.73 -0.756934 -1.40509 0
M  V30 33651 C 3118.93 0.654598 -1.90571 0
M  V30 33652 O 3117.98 1.41918 -2.08843 0
M  V30 33653 C 3119.3 -1.80091 -2.40806 0
M  V30 33654 C 3120.85 -1.82153 -2.54538 0
M  V30 33655 C 3121.32 -2.85535 -3.58097 0
M  V30 33656 N 3122.81 -2.8441 -3.65602 0
M  V30 33657 C 3123.55 -3.61055 -4.45451 0
M  V30 33658 N 3123.04 -4.47444 -5.28929 0
M  V30 33659 N 3124.84 -3.49555 -4.4019 0
M  V30 33660 H 3116.99 -1.9491 -0.84404 0
M  V30 33661 H 3119.25 -0.843196 -0.433272 0
M  V30 33662 H 3118.96 -2.81326 -2.11065 0
M  V30 33663 H 3118.83 -1.63095 -3.40118 0
M  V30 33664 H 3121.22 -0.815905 -2.83597 0
M  V30 33665 H 3121.3 -2.03225 -1.55348 0
M  V30 33666 H 3120.94 -3.86275 -3.29779 0
M  V30 33667 H 3120.87 -2.61718 -4.56959 0
M  V30 33668 H 3123.36 -2.21762 -3.0599 0
M  V30 33669 H 3123.68 -5.02642 -5.87001 0
M  V30 33670 H 3122.02 -4.51512 -5.28358 0
M  V30 33671 H 3125.21 -2.81471 -3.74021 0
M  V30 33672 H 3125.38 -4.09537 -5.02179 0
M  V30 33673 N 3118.79 1.34753 -0.817283 0
M  V30 33674 C 3120.04 1.97712 -0.399115 0
M  V30 33675 C 3120.35 1.65535 1.042 0
M  V30 33676 O 3121.56 2.2194 1.5638 0
M  V30 33677 C 3120.01 3.53746 -0.662696 0
M  V30 33678 C 3119.62 3.94822 -2.11706 0
M  V30 33679 C 3121.37 4.23364 -0.310414 0
M  V30 33680 C 3119.27 5.43746 -2.32582 0
M  V30 33681 H 3118.2 0.739828 -0.145501 0
M  V30 33682 H 3120.85 1.53673 -1.00284 0
M  V30 33683 H 3119.24 3.95998 0.0111276 0
M  V30 33684 H 3120.41 3.63692 -2.82957 0
M  V30 33685 H 3118.73 3.38125 -2.43023 0
M  V30 33686 H 3121.32 5.32851 -0.444304 0
M  V30 33687 H 3121.67 4.09588 0.744522 0
M  V30 33688 H 3122.2 3.86569 -0.938586 0
M  V30 33689 H 3118.94 5.62501 -3.36561 0
M  V30 33690 H 3118.46 5.7641 -1.65868 0
M  V30 33691 H 3120.14 6.10352 -2.14662 0
M  V30 33692 N 3120.27 0.571737 1.46864 0
M  V30 33693 C 3121.49 0.0565019 2.07323 0
M  V30 33694 C 3121.92 -1.23429 1.4194 0
M  V30 33695 O 3121.28 -1.74287 0.499364 0
M  V30 33696 C 3121.33 -0.107276 3.6044 0
M  V30 33697 O 3120.43 -1.16643 3.95561 0
M  V30 33698 H 3119.77 0.0578581 0.661474 0
M  V30 33699 H 3122.3 0.791558 1.88668 0
M  V30 33700 H 3122.31 -0.316915 4.06767 0
M  V30 33701 H 3120.99 0.83542 4.07423 0
M  V30 33702 H 3119.56 -0.936125 3.60959 0
M  V30 33703 N 3121.75 -1.54542 0.308935 0
M  V30 33704 C 3122.69 -2.23812 -0.56362 0
M  V30 33705 C 3123.66 -1.22357 -1.1233 0
M  V30 33706 O 3124.85 -1.50999 -1.16635 0
M  V30 33707 C 3121.99 -2.98848 -1.72579 0
M  V30 33708 C 3121.1 -4.15093 -1.19675 0
M  V30 33709 C 3120.24 -4.77693 -2.32343 0
M  V30 33710 C 3119.28 -5.86067 -1.76613 0
M  V30 33711 N 3118.41 -6.42589 -2.82885 0
M  V30 33712 H 3123.25 -2.97981 0.0336812 0
M  V30 33713 H 3120.79 -1.47073 0.0283925 0
M  V30 33714 H 3122.75 -3.4059 -2.40945 0
M  V30 33715 H 3121.38 -2.27041 -2.2946 0
M  V30 33716 H 3120.43 -3.78237 -0.405107 0
M  V30 33717 H 3121.74 -4.93147 -0.748836 0
M  V30 33718 H 3120.9 -5.22327 -3.0864 0
M  V30 33719 H 3119.64 -3.98987 -2.80465 0
M  V30 33720 H 3118.64 -5.40848 -0.988076 0
M  V30 33721 H 3119.87 -6.6666 -1.29386 0
M  V30 33722 H 3117.81 -5.66764 -3.30326 0
M  V30 33723 H 3117.73 -7.16013 -2.42613 0
M  V30 33724 H 3119 -6.91881 -3.59056 0
M  V30 33725 N 3123.23 -0.0368104 -1.57557 0
M  V30 33726 C 3124.16 0.971359 -2.07599 0
M  V30 33727 C 3125.17 1.28395 -1.00092 0
M  V30 33728 O 3126.36 1.24726 -1.27694 0
M  V30 33729 C 3123.46 2.29675 -2.49204 0
M  V30 33730 C 3122.63 2.16819 -3.79879 0
M  V30 33731 C 3121.69 3.32358 -4.07951 0
M  V30 33732 O 3120.72 3.08901 -4.78088 0
M  V30 33733 N 3121.92 4.56391 -3.5873 0
M  V30 33734 H 3124.68 0.544337 -2.94715 0
M  V30 33735 H 3122.25 0.149771 -1.61206 0
M  V30 33736 H 3124.24 3.0581 -2.6507 0
M  V30 33737 H 3122.81 2.63992 -1.67412 0
M  V30 33738 H 3122.03 1.25364 -3.73735 0
M  V30 33739 H 3123.32 2.05441 -4.6548 0
M  V30 33740 H 3122.71 4.78342 -3.02003 0
M  V30 33741 H 3121.27 5.29668 -3.79861 0
M  V30 33742 N 3124.7 1.55817 0.236426 0
M  V30 33743 C 3125.63 1.94208 1.29636 0
M  V30 33744 C 3126.61 0.808346 1.49666 0
M  V30 33745 O 3127.8 1.06947 1.62098 0
M  V30 33746 C 3124.93 2.24589 2.6491 0
M  V30 33747 C 3123.88 3.40313 2.59559 0
M  V30 33748 C 3123.21 3.56261 3.98726 0
M  V30 33749 C 3124.51 4.7571 2.15633 0
M  V30 33750 H 3126.2 2.82993 0.977503 0
M  V30 33751 H 3123.75 1.36156 0.46878 0
M  V30 33752 H 3125.7 2.50037 3.39204 0
M  V30 33753 H 3124.43 1.32641 2.98453 0
M  V30 33754 H 3123.09 3.1489 1.87722 0
M  V30 33755 H 3122.73 2.61715 4.29551 0
M  V30 33756 H 3122.43 4.34089 3.96031 0
M  V30 33757 H 3123.96 3.84041 4.74705 0
M  V30 33758 H 3125.37 5.00461 2.79664 0
M  V30 33759 H 3123.77 5.56714 2.24029 0
M  V30 33760 H 3124.84 4.72066 1.10822 0
M  V30 33761 N 3126.18 -0.502526 1.49373 0
M  V30 33762 C 3127.59 -1.08408 1.52002 0
M  V30 33763 C 3127.94 -1.93809 0.305351 0
M  V30 33764 O 3127.07 -2.08343 -0.584986 0
M  V30 33765 C 3127.66 -1.97276 2.75441 0
M  V30 33766 C 3126.22 -2.50597 2.80853 0
M  V30 33767 C 3125.37 -1.28181 2.45896 0
M  V30 33768 H 3128.32 -0.286506 1.56092 0
M  V30 33769 H 3128.34 -2.81943 2.55516 0
M  V30 33770 H 3127.85 -1.35092 3.63829 0
M  V30 33771 H 3125.95 -3.16424 1.9674 0
M  V30 33772 H 3126.07 -2.87854 3.82985 0
M  V30 33773 H 3124.43 -1.60654 1.97642 0
M  V30 33774 H 3125.21 -0.67708 3.36557 0
M  V30 33775 N 3127.66 -1.38422 -0.75346 0
M  V30 33776 C 3128.59 -1.3155 -1.87689 0
M  V30 33777 C 3129.6 -0.227699 -1.612 0
M  V30 33778 O 3130.79 -0.485268 -1.71777 0
M  V30 33779 C 3127.89 -1.01551 -3.23327 0
M  V30 33780 C 3127.07 -2.21243 -3.7732 0
M  V30 33781 C 3126.13 -1.87986 -4.91475 0
M  V30 33782 O 3125.15 -2.60481 -5.06101 0
M  V30 33783 N 3126.35 -0.834897 -5.74465 0
M  V30 33784 H 3129.12 -2.28357 -1.94095 0
M  V30 33785 H 3126.68 -1.32285 -0.933398 0
M  V30 33786 H 3128.67 -0.773547 -3.97238 0
M  V30 33787 H 3127.24 -0.135389 -3.12307 0
M  V30 33788 H 3126.46 -2.61504 -2.94974 0
M  V30 33789 H 3127.75 -3.01122 -4.10126 0
M  V30 33790 H 3127.15 -0.233705 -5.65217 0
M  V30 33791 H 3125.7 -0.652817 -6.48523 0
M  V30 33792 N 3129.14 0.981655 -1.23294 0
M  V30 33793 C 3130.07 2.09189 -1.03742 0
M  V30 33794 C 3131.05 1.7004 0.0452742 0
M  V30 33795 O 3132.23 1.93834 -0.119126 0
M  V30 33796 C 3129.36 3.41603 -0.626487 0
M  V30 33797 C 3128.32 3.94649 -1.65638 0
M  V30 33798 C 3127.64 5.23243 -1.10093 0
M  V30 33799 C 3128.94 4.2406 -3.0491 0
M  V30 33800 H 3130.64 2.25804 -1.96604 0
M  V30 33801 H 3128.18 1.08508 -0.946675 0
M  V30 33802 H 3130.14 4.18694 -0.476763 0
M  V30 33803 H 3128.86 3.24848 0.337816 0
M  V30 33804 H 3127.52 3.19701 -1.79407 0
M  V30 33805 H 3127.17 5.02838 -0.127651 0
M  V30 33806 H 3126.87 5.59702 -1.78906 0
M  V30 33807 H 3128.39 6.02958 -0.963034 0
M  V30 33808 H 3129.81 4.91907 -2.9445 0
M  V30 33809 H 3128.2 4.71717 -3.70949 0
M  V30 33810 H 3129.27 3.31383 -3.53996 0
M  V30 33811 N 3130.62 1.04444 1.18022 0
M  V30 33812 C 3131.84 0.770195 1.9203 0
M  V30 33813 C 3132.26 -0.67315 1.76392 0
M  V30 33814 O 3131.62 -1.4592 1.09607 0
M  V30 33815 C 3131.67 1.13179 3.43326 0
M  V30 33816 O 3131.39 2.51848 3.58475 0
M  V30 33817 C 3132.89 0.882599 4.34425 0
M  V30 33818 H 3130.11 0.280596 0.609513 0
M  V30 33819 H 3132.65 1.39311 1.49709 0
M  V30 33820 H 3130.81 0.553771 3.83422 0
M  V30 33821 H 3131.22 2.65802 4.52161 0
M  V30 33822 H 3132.7 1.18543 5.39121 0
M  V30 33823 H 3133.17 -0.182492 4.38821 0
M  V30 33824 H 3133.78 1.4441 4.00032 0
M  V30 33825 N 3132.09 -1.34317 0.824418 0
M  V30 33826 C 3133.32 -2.02994 0.42523 0
M  V30 33827 C 3133.74 -1.61672 -0.961448 0
M  V30 33828 O 3133.1 -0.802098 -1.62592 0
M  V30 33829 C 3133.15 -3.56578 0.537067 0
M  V30 33830 O 3132.25 -4.10019 -0.442504 0
M  V30 33831 H 3131.59 -0.640561 0.174864 0
M  V30 33832 H 3134.12 -1.71532 1.11525 0
M  V30 33833 H 3134.13 -4.059 0.413382 0
M  V30 33834 H 3132.81 -3.86001 1.54842 0
M  V30 33835 H 3131.39 -3.71865 -0.277579 0
M  V30 33836 N 3133.57 -0.579517 -1.46558 0
M  V30 33837 C 3134.5 0.143396 -2.33059 0
M  V30 33838 C 3135.48 0.886843 -1.45152 0
M  V30 33839 O 3136.67 0.862931 -1.73975 0
M  V30 33840 C 3133.8 1.15968 -3.27366 0
M  V30 33841 C 3132.75 0.531274 -4.2469 0
M  V30 33842 C 3132.08 1.65379 -5.08482 0
M  V30 33843 C 3133.38 -0.529482 -5.19609 0
M  V30 33844 H 3135.07 -0.578814 -2.93752 0
M  V30 33845 H 3132.62 -0.2798 -1.41256 0
M  V30 33846 H 3134.57 1.67375 -3.86735 0
M  V30 33847 H 3133.29 1.91212 -2.64774 0
M  V30 33848 H 3131.95 0.0383105 -3.6658 0
M  V30 33849 H 3131.6 2.39583 -4.42277 0
M  V30 33850 H 3131.3 1.23899 -5.74389 0
M  V30 33851 H 3132.83 2.17069 -5.70713 0
M  V30 33852 H 3134.24 -0.100607 -5.73212 0
M  V30 33853 H 3132.64 -0.864425 -5.93841 0
M  V30 33854 H 3133.71 -1.41699 -4.63734 0
M  V30 33855 N 3135.05 1.54376 -0.317127 0
M  V30 33856 C 3135.96 2.27798 0.560827 0
M  V30 33857 C 3136.98 1.3191 1.13471 0
M  V30 33858 O 3138.15 1.64916 1.15606 0
M  V30 33859 C 3135.22 3.01663 1.70881 0
M  V30 33860 C 3134.28 4.13123 1.16738 0
M  V30 33861 C 3133.51 4.83457 2.26065 0
M  V30 33862 O 3133.73 4.53258 3.46284 0
M  V30 33863 O 3132.67 5.70507 1.91846 0
M  V30 33864 H 3136.49 3.0368 -0.0352464 0
M  V30 33865 H 3134.08 1.49169 -0.0830325 0
M  V30 33866 H 3135.96 3.47941 2.3773 0
M  V30 33867 H 3134.64 2.28662 2.29118 0
M  V30 33868 H 3133.54 3.71209 0.464159 0
M  V30 33869 H 3134.88 4.88149 0.630221 0
M  V30 33870 N 3136.53 0.0451655 1.57535 0
M  V30 33871 C 3137.46 -0.929334 2.14209 0
M  V30 33872 C 3138.44 -1.32856 1.06223 0
M  V30 33873 O 3139.62 -1.40434 1.34134 0
M  V30 33874 C 3136.75 -2.20624 2.68221 0
M  V30 33875 C 3135.71 -1.94727 3.81137 0
M  V30 33876 C 3135.03 -3.2882 4.21641 0
M  V30 33877 C 3136.33 -1.27365 5.06533 0
M  V30 33878 H 3138.03 -0.457296 2.95887 0
M  V30 33879 H 3135.57 -0.218519 1.42332 0
M  V30 33880 H 3137.53 -2.89191 3.06507 0
M  V30 33881 H 3136.25 -2.70022 1.83727 0
M  V30 33882 H 3134.91 -1.28573 3.43314 0
M  V30 33883 H 3134.56 -3.76008 3.34106 0
M  V30 33884 H 3134.26 -3.12293 4.97742 0
M  V30 33885 H 3135.78 -3.98629 4.62523 0
M  V30 33886 H 3137.2 -1.85957 5.42303 0
M  V30 33887 H 3135.59 -1.21184 5.87737 0
M  V30 33888 H 3136.66 -0.248827 4.84261 0
M  V30 33889 N 3138.01 -1.5594 -0.228159 0
M  V30 33890 C 3138.94 -1.8835 -1.30602 0
M  V30 33891 C 3139.95 -0.771223 -1.43374 0
M  V30 33892 O 3141.14 -1.04948 -1.44389 0
M  V30 33893 C 3138.24 -2.07119 -2.68244 0
M  V30 33894 C 3137.41 -3.38099 -2.77503 0
M  V30 33895 C 3136.47 -3.4638 -3.96115 0
M  V30 33896 O 3135.5 -4.1946 -3.84763 0
M  V30 33897 N 3136.7 -2.7704 -5.10127 0
M  V30 33898 H 3139.47 -2.81398 -1.03127 0
M  V30 33899 H 3137.03 -1.56405 -0.418218 0
M  V30 33900 H 3139.02 -2.09982 -3.45962 0
M  V30 33901 H 3137.59 -1.20728 -2.88346 0
M  V30 33902 H 3136.81 -3.47391 -1.86314 0
M  V30 33903 H 3138.1 -4.24394 -2.80654 0
M  V30 33904 H 3137.49 -2.17433 -5.22245 0
M  V30 33905 H 3136.05 -2.85572 -5.85911 0
M  V30 33906 N 3139.48 0.494597 -1.49638 0
M  V30 33907 C 3140.71 1.27033 -1.6293 0
M  V30 33908 C 3141.12 1.86766 -0.302497 0
M  V30 33909 O 3140.47 1.6888 0.722848 0
M  V30 33910 C 3140.53 2.43526 -2.64453 0
M  V30 33911 C 3140.19 2.04613 -4.08635 0
M  V30 33912 C 3141.19 1.58216 -4.95241 0
M  V30 33913 C 3138.87 2.14052 -4.54409 0
M  V30 33914 C 3140.87 1.21771 -6.2566 0
M  V30 33915 C 3138.55 1.77218 -5.84839 0
M  V30 33916 C 3139.55 1.31153 -6.70289 0
M  V30 33917 O 3139.24 0.948199 -7.98288 0
M  V30 33918 H 3138.97 0.391252 -0.55127 0
M  V30 33919 H 3141.53 0.599587 -1.96454 0
M  V30 33920 H 3139.76 3.13696 -2.26123 0
M  V30 33921 H 3141.45 3.0554 -2.67208 0
M  V30 33922 H 3142.21 1.50365 -4.61102 0
M  V30 33923 H 3138.09 2.48858 -3.8806 0
M  V30 33924 H 3141.63 0.857444 -6.9231 0
M  V30 33925 H 3137.53 1.84721 -6.18505 0
M  V30 33926 H 3138.3 1.07911 -8.11355 0
M  V30 33927 N 3140.96 1.3882 0.746109 0
M  V30 33928 C 3142.21 1.35638 1.50765 0
M  V30 33929 C 3142.54 -0.0512093 1.94132 0
M  V30 33930 O 3141.82 -1.01393 1.65981 0
M  V30 33931 C 3142.1 2.3188 2.75506 0
M  V30 33932 C 3141.95 3.81532 2.38229 0
M  V30 33933 C 3143.27 2.26131 3.77562 0
M  V30 33934 H 3140.39 0.494019 0.546913 0
M  V30 33935 H 3143.03 1.69726 0.853988 0
M  V30 33936 H 3141.18 2.02941 3.31281 0
M  V30 33937 H 3142.85 4.21176 1.88171 0
M  V30 33938 H 3141.1 3.98849 1.70594 0
M  V30 33939 H 3141.77 4.44344 3.27509 0
M  V30 33940 H 3144.24 2.51695 3.31344 0
M  V30 33941 H 3143.12 2.9557 4.62526 0
M  V30 33942 H 3143.38 1.26262 4.23687 0
M  V30 33943 N 3142.44 -0.975103 1.23812 0
M  V30 33944 C 3143.67 -1.75756 1.10112 0
M  V30 33945 C 3144.09 -1.84948 -0.34289 0
M  V30 33946 O 3143.45 -1.31498 -1.24812 0
M  V30 33947 C 3143.5 -3.15991 1.7373 0
M  V30 33948 O 3142.6 -4.00016 1.00304 0
M  V30 33949 H 3141.94 -0.540537 0.385636 0
M  V30 33950 H 3144.47 -1.22369 1.63973 0
M  V30 33951 H 3144.48 -3.66547 1.79185 0
M  V30 33952 H 3143.16 -3.08616 2.788 0
M  V30 33953 H 3141.73 -3.58513 1.02581 0
M  V30 33954 N 3143.92 -1.05068 -1.17467 0
M  V30 33955 C 3145.33 -0.786333 -1.69333 0
M  V30 33956 C 3145.68 0.691639 -1.83605 0
M  V30 33957 O 3144.81 1.5376 -1.52272 0
M  V30 33958 C 3145.4 -1.42079 -3.07569 0
M  V30 33959 C 3143.96 -1.20452 -3.56607 0
M  V30 33960 C 3143.11 -1.50512 -2.32898 0
M  V30 33961 H 3146.06 -1.21579 -1.02001 0
M  V30 33962 H 3146.08 -0.829399 -3.71351 0
M  V30 33963 H 3145.59 -2.49647 -2.9715 0
M  V30 33964 H 3143.69 -0.148033 -3.72306 0
M  V30 33965 H 3143.8 -1.9086 -4.39442 0
M  V30 33966 H 3142.17 -0.925165 -2.37303 0
M  V30 33967 H 3142.95 -2.59211 -2.25088 0
M  V30 33968 N 3145.4 1.33878 -0.831529 0
M  V30 33969 C 3146.34 2.29359 -0.257489 0
M  V30 33970 C 3147.31 1.53991 0.622577 0
M  V30 33971 O 3148.5 1.82323 0.5624 0
M  V30 33972 C 3145.64 3.40401 0.567527 0
M  V30 33973 C 3144.75 4.30693 -0.335742 0
M  V30 33974 C 3143.89 5.28845 0.499669 0
M  V30 33975 C 3142.93 6.10776 -0.40245 0
M  V30 33976 N 3142.06 7.00991 0.394397 0
M  V30 33977 H 3146.9 2.77855 -1.07705 0
M  V30 33978 H 3144.44 1.36726 -0.542613 0
M  V30 33979 H 3146.4 4.03476 1.06126 0
M  V30 33980 H 3145.03 2.93117 1.35212 0
M  V30 33981 H 3144.08 3.68405 -0.947745 0
M  V30 33982 H 3145.39 4.8807 -1.02905 0
M  V30 33983 H 3144.55 5.97412 1.05753 0
M  V30 33984 H 3143.28 4.72027 1.22644 0
M  V30 33985 H 3142.29 5.41133 -0.972383 0
M  V30 33986 H 3143.51 6.69675 -1.12747 0
M  V30 33987 H 3141.46 6.46632 1.10469 0
M  V30 33988 H 3141.38 7.55618 -0.240341 0
M  V30 33989 H 3142.65 7.73875 0.934731 0
M  V30 33990 N 3146.87 0.587281 1.46249 0
M  V30 33991 C 3147.8 -0.131035 2.33132 0
M  V30 33992 C 3148.79 -0.879133 1.4562 0
M  V30 33993 O 3149.97 -0.853692 1.7443 0
M  V30 33994 C 3147.1 -1.1423 3.27977 0
M  V30 33995 C 3146.05 -0.508744 4.24966 0
M  V30 33996 C 3145.38 -1.62681 5.09352 0
M  V30 33997 C 3146.68 0.557031 5.19321 0
M  V30 33998 H 3148.37 0.594384 2.93441 0
M  V30 33999 H 3145.92 0.287287 1.41105 0
M  V30 34000 H 3147.87 -1.65322 3.87617 0
M  V30 34001 H 3146.6 -1.89805 2.65785 0
M  V30 34002 H 3145.26 -0.0188693 3.66595 0
M  V30 34003 H 3144.9 -2.37234 4.43542 0
M  V30 34004 H 3144.6 -1.20851 5.75038 0
M  V30 34005 H 3146.13 -2.14039 5.71856 0
M  V30 34006 H 3147.54 0.131004 5.7315 0
M  V30 34007 H 3145.94 0.895905 5.93375 0
M  V30 34008 H 3147.01 1.44156 4.62976 0
M  V30 34009 N 3148.35 -1.54206 0.325309 0
M  V30 34010 C 3149.28 -2.27346 -0.532534 0
M  V30 34011 C 3150.26 -1.28208 -1.11789 0
M  V30 34012 O 3151.45 -1.57023 -1.14269 0
M  V30 34013 C 3148.58 -3.03258 -1.69268 0
M  V30 34014 C 3147.53 -4.09748 -1.23655 0
M  V30 34015 C 3146.86 -4.73511 -2.48378 0
M  V30 34016 C 3148.16 -5.21125 -0.350152 0
M  V30 34017 H 3149.85 -2.993 0.0775635 0
M  V30 34018 H 3147.4 -1.43948 0.0387446 0
M  V30 34019 H 3149.35 -3.53156 -2.29911 0
M  V30 34020 H 3148.08 -2.28925 -2.3294 0
M  V30 34021 H 3146.73 -3.60737 -0.653043 0
M  V30 34022 H 3146.38 -3.95791 -3.10417 0
M  V30 34023 H 3146.08 -5.45445 -2.18548 0
M  V30 34024 H 3147.61 -5.26183 -3.09779 0
M  V30 34025 H 3149.02 -5.66769 -0.862912 0
M  V30 34026 H 3147.42 -5.99926 -0.144555 0
M  V30 34027 H 3148.49 -4.80939 0.618542 0
M  V30 34028 N 3149.83 -0.0535194 -1.57509 0
M  V30 34029 C 3150.76 0.955517 -2.07232 0
M  V30 34030 C 3151.74 1.30249 -0.973336 0
M  V30 34031 O 3152.93 1.41496 -1.24543 0
M  V30 34032 C 3150.05 2.26885 -2.51477 0
M  V30 34033 C 3149.1 2.07476 -3.72634 0
M  V30 34034 S 3149.93 1.35095 -5.18179 0
M  V30 34035 C 3151.09 2.67747 -5.65741 0
M  V30 34036 H 3151.32 0.532356 -2.92495 0
M  V30 34037 H 3148.85 0.158804 -1.53581 0
M  V30 34038 H 3150.81 3.02376 -2.77631 0
M  V30 34039 H 3149.47 2.66329 -1.66516 0
M  V30 34040 H 3148.67 3.04626 -4.01521 0
M  V30 34041 H 3148.27 1.40124 -3.46758 0
M  V30 34042 H 3150.56 3.63908 -5.7147 0
M  V30 34043 H 3151.5 2.43494 -6.64918 0
M  V30 34044 H 3151.91 2.74114 -4.93479 0
M  V30 34045 N 3151.31 1.56059 0.219886 0
M  V30 34046 C 3152.55 1.80925 0.951082 0
M  V30 34047 C 3152.91 0.627279 1.81464 0
M  V30 34048 O 3154.11 0.755282 2.57971 0
M  V30 34049 C 3152.39 3.10694 1.76647 0
M  V30 34050 S 3153.94 3.5688 2.55307 0
M  V30 34051 H 3150.76 0.635195 0.31945 0
M  V30 34052 H 3153.36 1.94297 0.216517 0
M  V30 34053 H 3152.07 3.94758 1.12224 0
M  V30 34054 H 3151.6 3.00133 2.5433 0
M  V30 34055 H 3153.61 3.2035 3.78933 0
M  V30 34056 N 3152.79 -0.486655 1.49898 0
M  V30 34057 C 3154.2 -0.819085 1.36979 0
M  V30 34058 C 3154.4 -1.97204 0.413885 0
M  V30 34059 O 3153.46 -2.52059 -0.149205 0
M  V30 34060 C 3154.77 -1.14579 2.78015 0
M  V30 34061 C 3156.32 -1.25316 2.86819 0
M  V30 34062 C 3156.8 -1.61308 4.28653 0
M  V30 34063 N 3158.29 -1.6833 4.31531 0
M  V30 34064 C 3159.02 -1.97652 5.38257 0
M  V30 34065 N 3158.52 -2.25101 6.55211 0
M  V30 34066 N 3160.31 -1.99024 5.25686 0
M  V30 34067 H 3152.46 0.273401 2.10633 0
M  V30 34068 H 3154.72 0.0597585 0.946115 0
M  V30 34069 H 3154.43 -0.371831 3.49729 0
M  V30 34070 H 3154.3 -2.08579 3.14284 0
M  V30 34071 H 3156.69 -2.01782 2.15333 0
M  V30 34072 H 3156.77 -0.293323 2.54113 0
M  V30 34073 H 3156.42 -0.85388 5.00671 0
M  V30 34074 H 3156.35 -2.58416 4.58834 0
M  V30 34075 H 3158.84 -1.4922 3.47191 0
M  V30 34076 H 3159.15 -2.46705 7.32364 0
M  V30 34077 H 3157.5 -2.22527 6.58412 0
M  V30 34078 H 3160.69 -1.77066 4.33319 0
M  V30 34079 H 3160.86 -2.21541 6.08953 0
M  V30 34080 N 3154.27 -1.39214 -0.738737 0
M  V30 34081 C 3155.54 -1.26745 -1.4898 0
M  V30 34082 C 3155.92 0.124623 -2.10732 0
M  V30 34083 O 3155.27 1.13551 -1.98289 0
M  V30 34084 C 3155.48 -2.38894 -2.54422 0
M  V30 34085 C 3156.83 -2.78032 -3.2091 0
M  V30 34086 O 3157.85 -2.38316 -2.64734 0
M  V30 34087 O 3156.71 -3.46572 -4.22552 0
M  V30 34088 H 3153.81 -0.496484 -0.661387 0
M  V30 34089 H 3156.35 -1.51078 -0.77288 0
M  V30 34090 H 3155.12 -3.31974 -2.07145 0
M  V30 34091 H 3154.75 -2.16206 -3.33678 0
M  V30 34092 N 3155.74 0.968523 -1.24328 0
M  V30 34093 C 3156.67 2.08077 -1.05954 0
M  V30 34094 C 3157.65 1.70078 0.0272367 0
M  V30 34095 O 3158.84 1.93697 -0.139678 0
M  V30 34096 C 3155.97 3.40919 -0.662683 0
M  V30 34097 C 3154.92 3.9287 -1.69814 0
M  V30 34098 C 3154.25 5.22046 -1.15637 0
M  V30 34099 C 3155.55 4.20803 -3.09391 0
M  V30 34100 H 3157.24 2.23706 -1.98988 0
M  V30 34101 H 3154.79 1.07498 -0.95813 0
M  V30 34102 H 3156.74 4.18165 -0.521144 0
M  V30 34103 H 3155.47 3.25188 0.303342 0
M  V30 34104 H 3154.13 3.1778 -1.82788 0
M  V30 34105 H 3153.77 5.02674 -0.180976 0
M  V30 34106 H 3153.47 5.57773 -1.84832 0
M  V30 34107 H 3155 6.01902 -1.02693 0
M  V30 34108 H 3156.41 4.88756 -2.9965 0
M  V30 34109 H 3154.81 4.67756 -3.75931 0
M  V30 34110 H 3155.88 3.2761 -3.57491 0
M  V30 34111 N 3157.22 1.0569 1.16908 0
M  V30 34112 C 3158.13 0.673189 2.24734 0
M  V30 34113 C 3159.15 -0.308013 1.71252 0
M  V30 34114 O 3160.32 -0.158853 2.00773 0
M  V30 34115 C 3157.39 0.0590869 3.4665 0
M  V30 34116 C 3156.45 1.09138 4.15196 0
M  V30 34117 C 3155.68 0.506484 5.31291 0
M  V30 34118 O 3155.91 -0.682592 5.66301 0
M  V30 34119 O 3154.84 1.2432 5.88921 0
M  V30 34120 H 3158.67 1.57195 2.59853 0
M  V30 34121 H 3156.25 0.828773 1.24305 0
M  V30 34122 H 3158.13 -0.281944 4.20456 0
M  V30 34123 H 3156.81 -0.813249 3.13318 0
M  V30 34124 H 3155.71 1.48448 3.43386 0
M  V30 34125 H 3157.05 1.93503 4.52567 0
M  V30 34126 N 3158.7 -1.33435 0.838617 0
M  V30 34127 C 3159.63 -2.31733 0.286713 0
M  V30 34128 C 3160.61 -1.58961 -0.605423 0
M  V30 34129 O 3161.8 -1.86855 -0.529026 0
M  V30 34130 C 3158.93 -3.43088 -0.539251 0
M  V30 34131 C 3157.88 -4.27227 0.257072 0
M  V30 34132 C 3157.21 -5.30195 -0.692625 0
M  V30 34133 C 3158.51 -5.01069 1.474 0
M  V30 34134 H 3160.2 -2.78142 1.10803 0
M  V30 34135 H 3157.75 -1.33722 0.534259 0
M  V30 34136 H 3159.7 -4.10881 -0.935652 0
M  V30 34137 H 3158.42 -2.95367 -1.39378 0
M  V30 34138 H 3157.08 -3.61058 0.63503 0
M  V30 34139 H 3156.73 -4.78731 -1.54354 0
M  V30 34140 H 3156.43 -5.87371 -0.16392 0
M  V30 34141 H 3157.95 -6.00855 -1.08655 0
M  V30 34142 H 3159.37 -5.61632 1.15077 0
M  V30 34143 H 3157.76 -5.67895 1.93947 0
M  V30 34144 H 3158.83 -4.29857 2.2439 0
M  V30 34145 N 3160.18 -0.595029 -1.45935 0
M  V30 34146 C 3161.14 0.121062 -2.2888 0
M  V30 34147 C 3162.14 0.807124 -1.39076 0
M  V30 34148 O 3163.33 0.6572 -1.61327 0
M  V30 34149 C 3160.46 1.18124 -3.1978 0
M  V30 34150 H 3161.66 -0.60802 -2.93672 0
M  V30 34151 H 3159.21 -0.353522 -1.5225 0
M  V30 34152 H 3159.94 1.9415 -2.59762 0
M  V30 34153 H 3159.73 0.693656 -3.85916 0
M  V30 34154 H 3161.22 1.68312 -3.82179 0
M  V30 34155 N 3161.66 1.54031 -0.333483 0
M  V30 34156 C 3162.9 2.01041 0.266492 0
M  V30 34157 C 3163.23 1.22113 1.51004 0
M  V30 34158 O 3162.51 0.30605 1.92077 0
M  V30 34159 C 3162.79 3.55222 0.590718 0
M  V30 34160 C 3162.65 4.44869 -0.664222 0
M  V30 34161 C 3163.96 4.17091 1.40439 0
M  V30 34162 H 3161.08 0.730801 0.0953851 0
M  V30 34163 H 3163.73 1.84545 -0.452027 0
M  V30 34164 H 3161.88 3.6941 1.20285 0
M  V30 34165 H 3163.55 4.42534 -1.30235 0
M  V30 34166 H 3161.79 4.1414 -1.29113 0
M  V30 34167 H 3162.46 5.50601 -0.392761 0
M  V30 34168 H 3164.94 4.06539 0.886875 0
M  V30 34169 H 3163.81 5.25063 1.60001 0
M  V30 34170 H 3164.07 3.71058 2.40351 0
M  V30 34171 N 3163.13 0.0618717 1.57479 0
M  V30 34172 C 3164.54 -0.472263 1.80628 0
M  V30 34173 C 3164.9 -1.7026 0.97499 0
M  V30 34174 O 3164.02 -2.15523 0.194638 0
M  V30 34175 C 3164.62 -0.863558 3.2761 0
M  V30 34176 C 3163.17 -1.34261 3.5164 0
M  V30 34177 C 3162.32 -0.322961 2.75413 0
M  V30 34178 H 3165.27 0.287662 1.56071 0
M  V30 34179 H 3165.29 -1.72571 3.39116 0
M  V30 34180 H 3164.81 0.0320908 3.88087 0
M  V30 34181 H 3162.91 -2.25709 2.96456 0
M  V30 34182 H 3163.02 -1.32739 4.60345 0
M  V30 34183 H 3161.38 -0.798133 2.41872 0
M  V30 34184 H 3162.17 0.564788 3.38622 0
M  V30 34185 N 3164.61 -1.56173 -0.211607 0
M  V30 34186 C 3165.86 -1.79292 -0.932673 0
M  V30 34187 C 3166.18 -0.632108 -1.84471 0
M  V30 34188 O 3165.45 0.350485 -1.92739 0
M  V30 34189 H 3164.03 -0.661313 -0.347382 0
M  V30 34190 H 3166.69 -1.93642 -0.221076 0
M  V30 34191 H 3165.79 -2.71822 -1.5336 0
M  V30 34192 N 3166.09 0.478699 -1.50154 0
M  V30 34193 C 3167.32 1.25479 -1.64507 0
M  V30 34194 C 3167.73 1.85976 -0.325328 0
M  V30 34195 O 3167.09 1.68878 0.691855 0
M  V30 34196 C 3167.14 2.36902 -2.73057 0
M  V30 34197 O 3166.86 1.78887 -3.99914 0
M  V30 34198 C 3168.36 3.27907 -2.98315 0
M  V30 34199 H 3165.58 0.379771 -0.553186 0
M  V30 34200 H 3168.13 0.572255 -1.9633 0
M  V30 34201 H 3166.28 3.00945 -2.43949 0
M  V30 34202 H 3166.7 2.52203 -4.59884 0
M  V30 34203 H 3168.17 4.02317 -3.77949 0
M  V30 34204 H 3168.65 3.86236 -2.09089 0
M  V30 34205 H 3169.25 2.69609 -3.28924 0
M  V30 34206 N 3167.57 1.39603 0.731343 0
M  V30 34207 C 3168.8 1.40105 1.51836 0
M  V30 34208 C 3169.21 -0.00523308 1.89199 0
M  V30 34209 O 3168.55 -0.987846 1.54878 0
M  V30 34210 C 3168.61 2.21333 2.83288 0
M  V30 34211 C 3168.28 3.69924 2.68338 0
M  V30 34212 C 3169.27 4.62922 2.36642 0
M  V30 34213 C 3166.96 4.13553 2.85095 0
M  V30 34214 C 3168.95 5.97531 2.2189 0
M  V30 34215 C 3166.64 5.48237 2.69961 0
M  V30 34216 C 3167.64 6.40041 2.38404 0
M  V30 34217 O 3167.32 7.72244 2.23369 0
M  V30 34218 H 3167.06 0.48031 0.475687 0
M  V30 34219 H 3169.61 1.84089 0.911064 0
M  V30 34220 H 3167.84 1.72102 3.46291 0
M  V30 34221 H 3169.53 2.13967 3.44925 0
M  V30 34222 H 3170.3 4.30514 2.23344 0
M  V30 34223 H 3166.17 3.42428 3.08649 0
M  V30 34224 H 3169.72 6.69153 1.97181 0
M  V30 34225 H 3165.62 5.80235 2.82839 0
M  V30 34226 H 3166.38 7.83009 2.38411 0
M  V30 34227 N 3169.05 -0.961916 1.2484 0
M  V30 34228 C 3170.32 -1.6814 0.99942 0
M  V30 34229 C 3170.7 -2.05651 -0.476552 0
M  V30 34230 O 3170.05 -1.76417 -1.45221 0
M  V30 34231 C 3170.26 -2.9091 1.92802 0
M  V30 34232 C 3171.61 -3.63023 2.20226 0
M  V30 34233 O 3172.63 -3.00978 1.90502 0
M  V30 34234 O 3171.49 -4.74727 2.70734 0
M  V30 34235 H 3168.59 -0.735335 0.378432 0
M  V30 34236 H 3171.13 -1.01549 1.35963 0
M  V30 34237 H 3169.9 -2.59926 2.92497 0
M  V30 34238 H 3169.53 -3.65233 1.57133 0
M  V30 34239 N 3170.52 -1.06308 -1.16346 0
M  V30 34240 C 3171.94 -0.804249 -1.6849 0
M  V30 34241 C 3172.29 0.672126 -1.84328 0
M  V30 34242 O 3171.41 1.52136 -1.53894 0
M  V30 34243 C 3172.01 -1.45333 -3.06045 0
M  V30 34244 C 3170.57 -1.24227 -3.55309 0
M  V30 34245 C 3169.71 -1.52974 -2.31288 0
M  V30 34246 H 3172.66 -1.22654 -1.00706 0
M  V30 34247 H 3172.68 -0.868739 -3.7045 0
M  V30 34248 H 3172.2 -2.52784 -2.94485 0
M  V30 34249 H 3170.3 -0.187513 -3.72128 0
M  V30 34250 H 3170.41 -1.9551 -4.37393 0
M  V30 34251 H 3168.77 -0.950283 -2.36309 0
M  V30 34252 H 3169.56 -2.61584 -2.22326 0
M  V30 34253 N 3172 1.32989 -0.845682 0
M  V30 34254 C 3172.95 2.30999 -0.272453 0
M  V30 34255 C 3173.94 1.58445 0.599284 0
M  V30 34256 O 3175.15 1.73256 0.488086 0
M  V30 34257 H 3171.53 0.748792 -0.0693883 0
M  V30 34258 H 3173.5 2.76847 -1.11348 0
M  V30 34259 C 3172.25 3.43607 0.531959 0
M  V30 34260 H 3171.57 3.9959 -0.129525 0
M  V30 34261 H 3173.01 4.14365 0.89878 0
M  V30 34262 C 3171.47 2.90065 1.71359 0
M  V30 34263 O 3172 2.86815 2.81247 0
M  V30 34264 N 3170.2 2.46583 1.53771 0
M  V30 34265 H 3169.75 2.49425 0.643792 0
M  V30 34266 H 3169.71 2.11112 2.32979 0
M  V30 34267 N 3173.48 0.60276 1.45618 0
M  V30 34268 C 3174.41 -0.156972 2.28662 0
M  V30 34269 C 3175.43 -0.836372 1.39673 0
M  V30 34270 O 3176.61 -0.70257 1.64092 0
M  V30 34271 C 3173.71 -1.243 3.15282 0
M  V30 34272 C 3172.89 -0.651655 4.32518 0
M  V30 34273 C 3171.95 -1.62796 5.00384 0
M  V30 34274 O 3170.97 -1.15614 5.57335 0
M  V30 34275 N 3172.17 -2.96233 4.99226 0
M  V30 34276 H 3174.94 0.555586 2.94505 0
M  V30 34277 H 3172.5 0.441908 1.55752 0
M  V30 34278 H 3174.49 -1.89584 3.57547 0
M  V30 34279 H 3173.06 -1.85815 2.51379 0
M  V30 34280 H 3172.28 0.179139 3.93793 0
M  V30 34281 H 3173.57 -0.236713 5.08249 0
M  V30 34282 H 3172.97 -3.37171 4.54238 0
M  V30 34283 H 3171.53 -3.56951 5.4537 0
M  V30 34284 N 3174.96 -1.53852 0.341647 0
M  V30 34285 C 3176.37 -1.86154 -0.142657 0
M  V30 34286 C 3176.72 -1.26292 -1.50149 0
M  V30 34287 O 3175.85 -0.575772 -2.086 0
M  V30 34288 C 3176.44 -3.37757 -0.265632 0
M  V30 34289 C 3175 -3.69944 -0.694166 0
M  V30 34290 C 3174.15 -2.76758 0.173243 0
M  V30 34291 H 3177.1 -1.48442 0.56131 0
M  V30 34292 H 3177.12 -3.6445 -1.09346 0
M  V30 34293 H 3176.63 -3.81297 0.723491 0
M  V30 34294 H 3174.73 -3.31948 -1.69238 0
M  V30 34295 H 3174.84 -4.76635 -0.485377 0
M  V30 34296 H 3173.21 -2.52226 -0.354116 0
M  V30 34297 H 3173.99 -3.23127 1.15946 0
M  V30 34298 N 3176.44 -0.0702223 -1.57443 0
M  V30 34299 C 3177.69 0.598815 -1.92606 0
M  V30 34300 C 3178 1.70864 -0.952088 0
M  V30 34301 O 3179.2 2.43714 -1.19648 0
M  V30 34302 C 3177.66 1.11649 -3.42144 0
M  V30 34303 C 3177.27 0.0377567 -4.47984 0
M  V30 34304 C 3179.01 1.75969 -3.8631 0
M  V30 34305 C 3176.92 0.569391 -5.88653 0
M  V30 34306 H 3175.85 0.227448 -0.718877 0
M  V30 34307 H 3178.5 -0.142202 -1.82948 0
M  V30 34308 H 3176.88 1.91043 -3.4687 0
M  V30 34309 H 3178.06 -0.736741 -4.54872 0
M  V30 34310 H 3176.37 -0.509113 -4.13276 0
M  V30 34311 H 3178.97 2.16773 -4.88788 0
M  V30 34312 H 3179.31 2.61905 -3.23591 0
M  V30 34313 H 3179.84 1.032 -3.84181 0
M  V30 34314 H 3176.58 -0.252777 -6.55012 0
M  V30 34315 H 3176.1 1.31145 -5.85287 0
M  V30 34316 H 3177.78 1.04629 -6.38484 0
M  V30 34317 N 3177.91 1.56283 0.203321 0
M  V30 34318 C 3179.16 1.79336 0.923118 0
M  V30 34319 C 3179.48 0.64201 1.84764 0
M  V30 34320 O 3180.68 0.75663 2.60744 0
M  V30 34321 C 3179.14 3.17658 1.69179 0
M  V30 34322 C 3178.75 4.40571 0.812503 0
M  V30 34323 C 3180.49 3.50026 2.40171 0
M  V30 34324 C 3178.4 5.69915 1.57957 0
M  V30 34325 H 3177.33 0.668665 0.34843 0
M  V30 34326 H 3179.98 1.82649 0.176568 0
M  V30 34327 H 3178.36 3.08572 2.48192 0
M  V30 34328 H 3179.53 4.60759 0.0616146 0
M  V30 34329 H 3177.85 4.15851 0.213817 0
M  V30 34330 H 3180.45 4.43896 2.98095 0
M  V30 34331 H 3180.79 2.73381 3.13956 0
M  V30 34332 H 3181.32 3.60523 1.68132 0
M  V30 34333 H 3178.06 6.49503 0.884653 0
M  V30 34334 H 3177.58 5.53758 2.3046 0
M  V30 34335 H 3179.26 6.10741 2.13552 0
M  V30 34336 N 3179.39 -0.470729 1.50406 0
M  V30 34337 C 3180.81 -0.80451 1.3784 0
M  V30 34338 C 3181.01 -1.96753 0.434778 0
M  V30 34339 O 3180.07 -2.52203 -0.122462 0
M  V30 34340 C 3181.38 -1.11624 2.79214 0
M  V30 34341 C 3182.93 -1.22267 2.88132 0
M  V30 34342 C 3183.4 -1.56753 4.3034 0
M  V30 34343 N 3184.89 -1.63743 4.33292 0
M  V30 34344 C 3185.63 -1.91932 5.40324 0
M  V30 34345 N 3185.12 -2.18139 6.57562 0
M  V30 34346 N 3186.92 -1.93437 5.27767 0
M  V30 34347 H 3179.07 0.295726 2.10331 0
M  V30 34348 H 3181.33 0.0697899 0.945428 0
M  V30 34349 H 3181.04 -0.334717 3.50104 0
M  V30 34350 H 3180.91 -2.05234 3.16479 0
M  V30 34351 H 3183.3 -1.99486 2.17461 0
M  V30 34352 H 3183.38 -0.266355 2.54409 0
M  V30 34353 H 3183.02 -0.800729 5.01548 0
M  V30 34354 H 3182.95 -2.53535 4.61549 0
M  V30 34355 H 3185.44 -1.45529 3.48755 0
M  V30 34356 H 3185.76 -2.38923 7.34939 0
M  V30 34357 H 3184.1 -2.15531 6.60736 0
M  V30 34358 H 3187.29 -1.7246 4.35172 0
M  V30 34359 H 3187.47 -2.1507 6.11268 0
M  V30 34360 N 3180.87 -1.39989 -0.72393 0
M  V30 34361 C 3182.12 -1.37123 -1.4792 0
M  V30 34362 C 3182.43 0.0263321 -1.95582 0
M  V30 34363 O 3183.64 0.177604 -2.70918 0
M  V30 34364 C 3182.1 -2.40954 -2.67338 0
M  V30 34365 C 3181.7 -3.86479 -2.26579 0
M  V30 34366 C 3183.45 -2.4718 -3.45112 0
M  V30 34367 C 3181.35 -4.81925 -3.42786 0
M  V30 34368 H 3180.28 -0.509824 -0.555513 0
M  V30 34369 H 3182.94 -1.65688 -0.788663 0
M  V30 34370 H 3181.32 -2.05476 -3.3852 0
M  V30 34371 H 3182.49 -4.31057 -1.62871 0
M  V30 34372 H 3180.81 -3.8365 -1.6187 0
M  V30 34373 H 3183.4 -3.1568 -4.31568 0
M  V30 34374 H 3183.75 -1.49973 -3.88348 0
M  V30 34375 H 3184.28 -2.81607 -2.80966 0
M  V30 34376 H 3181.02 -5.80436 -3.04589 0
M  V30 34377 H 3180.54 -4.42019 -4.05437 0
M  V30 34378 H 3182.22 -5.01352 -4.08968 0
M  V30 34379 N 3182.35 0.955282 -1.25348 0
M  V30 34380 C 3183.28 2.05518 -1.01464 0
M  V30 34381 C 3184.29 1.62787 0.0201969 0
M  V30 34382 O 3185.48 1.7716 -0.218282 0
M  V30 34383 C 3182.58 3.35013 -0.511786 0
M  V30 34384 C 3181.76 4.06587 -1.61263 0
M  V30 34385 C 3180.82 5.14354 -1.11026 0
M  V30 34386 O 3179.84 5.39839 -1.80452 0
M  V30 34387 N 3181.04 5.80479 0.048798 0
M  V30 34388 H 3183.81 2.26578 -1.9617 0
M  V30 34389 H 3181.37 1.12379 -1.16545 0
M  V30 34390 H 3183.36 4.04383 -0.160194 0
M  V30 34391 H 3181.93 3.10731 0.341322 0
M  V30 34392 H 3181.15 3.31325 -2.13583 0
M  V30 34393 H 3182.44 4.51163 -2.35221 0
M  V30 34394 H 3181.84 5.62193 0.628923 0
M  V30 34395 H 3180.39 6.50905 0.341428 0
M  V30 34396 N 3183.83 1.06924 1.1578 0
M  V30 34397 C 3185.05 0.810805 1.90895 0
M  V30 34398 C 3185.48 -0.629683 1.77247 0
M  V30 34399 O 3184.84 -1.43951 1.10217 0
M  V30 34400 C 3184.88 1.21835 3.39394 0
M  V30 34401 O 3183.99 0.361006 4.10817 0
M  V30 34402 H 3183.33 0.295763 0.594492 0
M  V30 34403 H 3185.86 1.42671 1.46649 0
M  V30 34404 H 3185.87 1.19266 3.90179 0
M  V30 34405 H 3184.54 2.26756 3.48646 0
M  V30 34406 H 3183.12 0.448813 3.70189 0
M  V30 34407 N 3185.31 -1.32538 0.852723 0
M  V30 34408 C 3186.55 -1.96584 0.451394 0
M  V30 34409 C 3186.87 -1.68239 -0.997743 0
M  V30 34410 O 3188.07 -2.26008 -1.50441 0
M  V30 34411 C 3186.53 -3.51865 0.756252 0
M  V30 34412 C 3186.14 -3.89071 2.22099 0
M  V30 34413 C 3187.88 -4.22392 0.422553 0
M  V30 34414 C 3185.79 -5.37388 2.46917 0
M  V30 34415 H 3184.72 -0.73571 0.165065 0
M  V30 34416 H 3187.37 -1.5096 1.04324 0
M  V30 34417 H 3185.75 -3.95889 0.0938683 0
M  V30 34418 H 3186.93 -3.56062 2.925 0
M  V30 34419 H 3185.24 -3.31563 2.51902 0
M  V30 34420 H 3187.84 -5.31486 0.585424 0
M  V30 34421 H 3188.18 -4.11418 -0.635665 0
M  V30 34422 H 3188.71 -3.83944 1.04075 0
M  V30 34423 H 3185.45 -5.5338 3.51356 0
M  V30 34424 H 3184.97 -5.71809 1.81092 0
M  V30 34425 H 3186.65 -6.04446 2.30769 0
M  V30 34426 N 3186.78 -0.610474 -1.45296 0
M  V30 34427 C 3187.75 0.0967792 -2.28996 0
M  V30 34428 C 3188.75 0.792328 -1.39924 0
M  V30 34429 O 3189.94 0.640052 -1.62015 0
M  V30 34430 C 3187.07 1.14726 -3.21015 0
M  V30 34431 H 3188.26 -0.639134 -2.9301 0
M  V30 34432 H 3185.81 -0.36965 -1.51866 0
M  V30 34433 H 3186.55 1.91384 -2.61807 0
M  V30 34434 H 3186.33 0.652685 -3.8663 0
M  V30 34435 H 3187.82 1.64249 -3.83943 0
M  V30 34436 N 3188.26 1.53669 -0.349801 0
M  V30 34437 C 3189.67 1.86227 0.132783 0
M  V30 34438 C 3190.02 1.27087 1.49477 0
M  V30 34439 O 3189.15 0.586826 2.08291 0
M  V30 34440 C 3189.74 3.37893 0.247716 0
M  V30 34441 C 3188.3 3.70307 0.674538 0
M  V30 34442 C 3187.45 2.76663 -0.187918 0
M  V30 34443 H 3190.4 1.48142 -0.569174 0
M  V30 34444 H 3190.42 3.65025 1.07412 0
M  V30 34445 H 3189.93 3.80908 -0.743702 0
M  V30 34446 H 3188.03 3.3284 1.67476 0
M  V30 34447 H 3188.15 4.76886 0.460093 0
M  V30 34448 H 3186.51 2.52411 0.340734 0
M  V30 34449 H 3187.29 3.22508 -1.17658 0
M  V30 34450 N 3189.74 0.0785709 1.57404 0
M  V30 34451 C 3190.96 -0.601257 1.98493 0
M  V30 34452 C 3191.39 -1.61944 0.956861 0
M  V30 34453 O 3190.75 -1.81138 -0.0767184 0
M  V30 34454 C 3190.8 -1.2403 3.38599 0
M  V30 34455 O 3189.9 -2.35616 3.38465 0
M  V30 34456 H 3189.24 -0.154042 0.645885 0
M  V30 34457 H 3191.77 0.155092 2.04011 0
M  V30 34458 H 3191.78 -1.58554 3.75932 0
M  V30 34459 H 3190.46 -0.494269 4.12953 0
M  V30 34460 H 3189.03 -2.02835 3.1291 0
M  V30 34461 N 3191.22 -1.56389 -0.19503 0
M  V30 34462 C 3192.15 -1.97577 -1.24441 0
M  V30 34463 C 3193.13 -0.847743 -1.4747 0
M  V30 34464 O 3194.31 -1.11208 -1.59206 0
M  V30 34465 C 3191.44 -2.31533 -2.58862 0
M  V30 34466 C 3190.4 -3.47075 -2.50445 0
M  V30 34467 C 3189.72 -3.66707 -3.8914 0
M  V30 34468 C 3191.02 -4.81259 -2.02945 0
M  V30 34469 H 3192.72 -2.85486 -0.902128 0
M  V30 34470 H 3190.26 -1.37351 -0.432516 0
M  V30 34471 H 3192.22 -2.58942 -3.32456 0
M  V30 34472 H 3190.94 -1.40507 -2.94831 0
M  V30 34473 H 3189.6 -3.19757 -1.79307 0
M  V30 34474 H 3189.25 -2.73012 -4.22461 0
M  V30 34475 H 3188.95 -4.44436 -3.84383 0
M  V30 34476 H 3190.47 -3.96492 -4.64356 0
M  V30 34477 H 3191.89 -5.07699 -2.66297 0
M  V30 34478 H 3190.28 -5.62458 -2.0919 0
M  V30 34479 H 3191.35 -4.74838 -0.982674 0
M  V30 34480 N 3192.7 0.462746 -1.50653 0
M  V30 34481 C 3193.63 1.57737 -1.66288 0
M  V30 34482 C 3194.64 1.53438 -0.544121 0
M  V30 34483 O 3195.83 1.58675 -0.817594 0
M  V30 34484 C 3192.93 2.96632 -1.63898 0
M  V30 34485 C 3192.1 3.2571 -2.91944 0
M  V30 34486 C 3191.16 4.44201 -2.82084 0
M  V30 34487 O 3190.19 4.44099 -3.5604 0
M  V30 34488 N 3191.39 5.46337 -1.96205 0
M  V30 34489 H 3194.15 1.44738 -2.62433 0
M  V30 34490 H 3191.72 0.6513 -1.48222 0
M  V30 34491 H 3193.71 3.73881 -1.54904 0
M  V30 34492 H 3192.28 3.03357 -0.754544 0
M  V30 34493 H 3191.5 2.36996 -3.15002 0
M  V30 34494 H 3192.79 3.41953 -3.76756 0
M  V30 34495 H 3192.18 5.49245 -1.35449 0
M  V30 34496 H 3190.74 6.22537 -1.93108 0
M  V30 34497 N 3194.17 1.40371 0.716495 0
M  V30 34498 C 3195.42 1.38805 1.47854 0
M  V30 34499 C 3195.75 -0.0100194 1.94197 0
M  V30 34500 O 3195.03 -0.978491 1.68095 0
M  V30 34501 C 3195.31 2.37672 2.70526 0
M  V30 34502 C 3195.16 3.865 2.30083 0
M  V30 34503 C 3196.48 2.34088 3.7268 0
M  V30 34504 H 3193.6 0.505509 0.536311 0
M  V30 34505 H 3196.24 1.715 0.817794 0
M  V30 34506 H 3194.39 2.09922 3.26902 0
M  V30 34507 H 3196.07 4.25073 1.79195 0
M  V30 34508 H 3194.31 4.02377 1.62095 0
M  V30 34509 H 3194.98 4.51191 3.1801 0
M  V30 34510 H 3197.46 2.58666 3.25931 0
M  V30 34511 H 3196.33 3.05314 4.56152 0
M  V30 34512 H 3196.59 1.3522 4.20913 0
M  V30 34513 N 3195.65 -0.948621 1.25853 0
M  V30 34514 C 3196.9 -1.68836 1.1035 0
M  V30 34515 C 3197.21 -1.92366 -0.354228 0
M  V30 34516 O 3198.42 -2.64094 -0.6298 0
M  V30 34517 C 3196.88 -3.03987 1.92665 0
M  V30 34518 C 3196.48 -2.88232 3.42967 0
M  V30 34519 C 3198.23 -3.81703 1.85749 0
M  V30 34520 C 3196.14 -4.1881 4.17555 0
M  V30 34521 H 3195.07 -0.633203 0.409353 0
M  V30 34522 H 3197.72 -1.05557 1.501 0
M  V30 34523 H 3196.1 -3.68205 1.45743 0
M  V30 34524 H 3197.27 -2.3291 3.97605 0
M  V30 34525 H 3195.59 -2.23966 3.51039 0
M  V30 34526 H 3198.18 -4.7843 2.38766 0
M  V30 34527 H 3198.53 -4.0801 0.82664 0
M  V30 34528 H 3199.06 -3.24246 2.30454 0
M  V30 34529 H 3195.8 -3.9769 5.21079 0
M  V30 34530 H 3195.32 -4.73875 3.67699 0
M  V30 34531 H 3197 -4.87314 4.25598 0
M  V30 34532 N 3197.13 -1.07536 -1.15212 0
M  V30 34533 C 3198.36 -0.820837 -1.89921 0
M  V30 34534 C 3198.77 0.626146 -1.78115 0
M  V30 34535 O 3198.13 1.42962 -1.13437 0
M  V30 34536 C 3198.18 -1.22242 -3.40204 0
M  V30 34537 O 3197.9 -2.61263 -3.51672 0
M  V30 34538 C 3199.4 -0.997469 -4.31932 0
M  V30 34539 H 3196.62 -0.296658 -0.60186 0
M  V30 34540 H 3199.17 -1.43231 -1.45963 0
M  V30 34541 H 3197.32 -0.655234 -3.81819 0
M  V30 34542 H 3197.74 -2.77697 -4.44955 0
M  V30 34543 H 3199.21 -1.32795 -5.35789 0
M  V30 34544 H 3199.69 0.0660827 -4.3915 0
M  V30 34545 H 3200.29 -1.54965 -3.96063 0
M  V30 34546 N 3198.61 1.32084 -0.85974 0
M  V30 34547 C 3199.83 2.01795 -0.478901 0
M  V30 34548 C 3200.26 1.64164 0.918246 0
M  V30 34549 O 3199.62 0.844924 1.60408 0
M  V30 34550 C 3199.66 3.55029 -0.631419 0
M  V30 34551 O 3198.77 4.11048 0.333639 0
M  V30 34552 H 3198.11 0.6357 -0.191786 0
M  V30 34553 H 3200.64 1.68515 -1.16034 0
M  V30 34554 H 3200.65 4.04662 -0.520854 0
M  V30 34555 H 3199.32 3.8176 -1.65022 0
M  V30 34556 H 3197.9 3.72471 0.178887 0
M  V30 34557 N 3200.09 0.618171 1.4497 0
M  V30 34558 C 3201.03 -0.0944494 2.30607 0
M  V30 34559 C 3202 -0.849608 1.42727 0
M  V30 34560 O 3203.19 -0.833235 1.71644 0
M  V30 34561 C 3200.33 -1.0788 3.27805 0
M  V30 34562 C 3199.44 -0.323412 4.30788 0
M  V30 34563 C 3198.58 -1.29842 5.15087 0
M  V30 34564 C 3197.62 -0.531453 6.09788 0
M  V30 34565 N 3196.75 -1.45628 6.86831 0
M  V30 34566 H 3201.59 0.641789 2.91007 0
M  V30 34567 H 3199.13 0.328284 1.4339 0
M  V30 34568 H 3201.09 -1.66275 3.82634 0
M  V30 34569 H 3199.72 -1.78232 2.69134 0
M  V30 34570 H 3198.77 0.376231 3.78535 0
M  V30 34571 H 3200.08 0.27453 4.98044 0
M  V30 34572 H 3199.24 -1.95411 5.74369 0
M  V30 34573 H 3197.97 -1.9303 4.47874 0
M  V30 34574 H 3196.98 0.137798 5.49627 0
M  V30 34575 H 3198.2 0.0955187 6.79033 0
M  V30 34576 H 3196.15 -2.0756 6.22298 0
M  V30 34577 H 3196.07 -0.912035 7.50478 0
M  V30 34578 H 3197.34 -2.1012 7.50646 0
M  V30 34579 N 3201.56 -1.53481 0.357946 0
M  V30 34580 C 3202.5 -2.23066 -0.526714 0
M  V30 34581 C 3203.51 -1.24214 -1.05237 0
M  V30 34582 O 3204.7 -1.50483 -0.960052 0
M  V30 34583 C 3201.8 -2.90873 -1.73914 0
M  V30 34584 C 3200.97 -4.16165 -1.34631 0
M  V30 34585 C 3200.03 -4.67251 -2.41997 0
M  V30 34586 O 3199.06 -5.31116 -2.04705 0
M  V30 34587 N 3200.26 -4.4441 -3.7347 0
M  V30 34588 H 3203.02 -2.9962 0.0692913 0
M  V30 34589 H 3200.58 -1.60865 0.182755 0
M  V30 34590 H 3202.58 -3.2196 -2.45202 0
M  V30 34591 H 3201.15 -2.17818 -2.24219 0
M  V30 34592 H 3200.37 -3.91464 -0.463599 0
M  V30 34593 H 3201.65 -4.97635 -1.06004 0
M  V30 34594 H 3201.05 -3.93364 -4.06548 0
M  V30 34595 H 3199.61 -4.80067 -4.40884 0
M  V30 34596 N 3203.04 -0.0869173 -1.5736 0
M  V30 34597 C 3204.46 0.269734 -1.57304 0
M  V30 34598 C 3204.66 1.6899 -1.09748 0
M  V30 34599 O 3203.71 2.40466 -0.770213 0
M  V30 34600 C 3205.03 0.0656118 -3.00628 0
M  V30 34601 C 3206.58 0.13399 -3.12713 0
M  V30 34602 C 3207.05 -0.0420374 -4.57981 0
M  V30 34603 N 3208.54 0.0130687 -4.63198 0
M  V30 34604 C 3209.28 -0.0984972 -5.73315 0
M  V30 34605 N 3208.77 -0.264437 -6.92295 0
M  V30 34606 N 3210.57 -0.0403505 -5.62086 0
M  V30 34607 H 3202.72 -1.0149 -1.86584 0
M  V30 34608 H 3204.98 -0.39707 -0.860837 0
M  V30 34609 H 3204.69 -0.914951 -3.3959 0
M  V30 34610 H 3204.56 0.811457 -3.68368 0
M  V30 34611 H 3206.95 1.10505 -2.73629 0
M  V30 34612 H 3207.03 -0.64321 -2.47581 0
M  V30 34613 H 3206.67 -1.00993 -4.97758 0
M  V30 34614 H 3206.6 0.754755 -5.21163 0
M  V30 34615 H 3209.09 0.139117 -3.77644 0
M  V30 34616 H 3209.41 -0.341301 -7.72046 0
M  V30 34617 H 3207.75 -0.299998 -6.94352 0
M  V30 34618 H 3210.94 0.0880978 -4.68017 0
M  V30 34619 H 3211.11 -0.130748 -6.47868 0
M  V30 34620 N 3204.52 1.5649 0.186734 0
M  V30 34621 C 3205.93 1.70945 0.750645 0
M  V30 34622 C 3206.28 0.69489 1.83482 0
M  V30 34623 O 3205.41 -0.146971 2.159 0
M  V30 34624 C 3206 3.09937 1.36838 0
M  V30 34625 C 3204.56 3.26129 1.87928 0
M  V30 34626 C 3203.71 2.66898 0.752373 0
M  V30 34627 H 3206.66 1.58653 -0.0384571 0
M  V30 34628 H 3206.68 3.07731 2.2379 0
M  V30 34629 H 3206.19 3.83756 0.579068 0
M  V30 34630 H 3204.29 2.5724 2.69552 0
M  V30 34631 H 3204.41 4.33718 2.03532 0
M  V30 34632 H 3202.77 2.26297 1.16884 0
M  V30 34633 H 3203.55 3.43291 -0.0248373 0
M  V30 34634 N 3206 -0.45475 1.50897 0
M  V30 34635 C 3207.41 -0.789845 1.38685 0
M  V30 34636 C 3207.61 -1.96281 0.455622 0
M  V30 34637 O 3206.67 -2.52319 -0.0957059 0
M  V30 34638 C 3207.98 -1.08656 2.80382 0
M  V30 34639 C 3209.53 -1.19204 2.89412 0
M  V30 34640 C 3210.01 -1.52179 4.31978 0
M  V30 34641 N 3211.5 -1.59139 4.35005 0
M  V30 34642 C 3212.23 -1.86191 5.42329 0
M  V30 34643 N 3211.73 -2.11152 6.59838 0
M  V30 34644 N 3213.52 -1.87829 5.29789 0
M  V30 34645 H 3205.67 0.318018 2.10006 0
M  V30 34646 H 3207.94 0.0798135 0.944634 0
M  V30 34647 H 3207.64 -0.297565 3.50439 0
M  V30 34648 H 3207.52 -2.01866 3.18638 0
M  V30 34649 H 3209.9 -1.97169 2.19564 0
M  V30 34650 H 3209.98 -0.239356 2.54678 0
M  V30 34651 H 3209.63 -0.747488 5.02369 0
M  V30 34652 H 3209.56 -2.48625 4.64212 0
M  V30 34653 H 3212.05 -1.41822 3.50278 0
M  V30 34654 H 3212.36 -2.31115 7.37432 0
M  V30 34655 H 3210.71 -2.08511 6.62984 0
M  V30 34656 H 3213.9 -1.67835 4.36977 0
M  V30 34657 H 3214.07 -2.08575 6.13515 0
M  V30 34658 N 3207.48 -1.40749 -0.709041 0
M  V30 34659 C 3208.42 -1.41534 -1.8231 0
M  V30 34660 C 3209.39 -0.27142 -1.63867 0
M  V30 34661 O 3210.58 -0.470464 -1.84909 0
M  V30 34662 C 3207.72 -1.29012 -3.20078 0
M  V30 34663 C 3206.83 -2.53163 -3.50047 0
M  V30 34664 C 3205.97 -2.33034 -4.77356 0
M  V30 34665 C 3205.01 -3.52728 -5.00249 0
M  V30 34666 N 3204.14 -3.31754 -6.18776 0
M  V30 34667 H 3208.98 -2.36754 -1.80974 0
M  V30 34668 H 3206.52 -1.17578 -0.883954 0
M  V30 34669 H 3208.48 -1.19756 -3.99643 0
M  V30 34670 H 3207.11 -0.37407 -3.20625 0
M  V30 34671 H 3206.16 -2.7292 -2.64988 0
M  V30 34672 H 3207.47 -3.42237 -3.62871 0
M  V30 34673 H 3206.63 -2.21169 -5.6495 0
M  V30 34674 H 3205.36 -1.41394 -4.66754 0
M  V30 34675 H 3204.37 -3.65062 -4.11108 0
M  V30 34676 H 3205.59 -4.45304 -5.1272 0
M  V30 34677 H 3203.54 -2.42802 -6.09412 0
M  V30 34678 H 3203.46 -4.14397 -6.32306 0
M  V30 34679 H 3204.73 -3.23635 -7.09141 0
M  V30 34680 N 3208.96 0.941933 -1.26354 0
M  V30 34681 C 3209.89 2.05782 -1.10344 0
M  V30 34682 C 3210.87 1.70098 -0.00884555 0
M  V30 34683 O 3212.05 1.93357 -0.180733 0
M  V30 34684 C 3209.18 3.39437 -0.734848 0
M  V30 34685 C 3208.14 3.8918 -1.7811 0
M  V30 34686 C 3207.46 5.19476 -1.26684 0
M  V30 34687 C 3208.76 4.14145 -3.18247 0
M  V30 34688 H 3210.46 2.19435 -2.03688 0
M  V30 34689 H 3208 1.05442 -0.980717 0
M  V30 34690 H 3209.95 4.16966 -0.609726 0
M  V30 34691 H 3208.68 3.25759 0.234297 0
M  V30 34692 H 3207.34 3.13831 -1.89488 0
M  V30 34693 H 3206.99 5.02177 -0.28756 0
M  V30 34694 H 3206.69 5.53727 -1.96622 0
M  V30 34695 H 3208.21 5.99589 -1.15437 0
M  V30 34696 H 3209.62 4.8229 -3.0995 0
M  V30 34697 H 3208.02 4.59677 -3.85768 0
M  V30 34698 H 3209.09 3.19953 -3.6436 0
M  V30 34699 N 3210.43 1.08146 1.1464 0
M  V30 34700 C 3211.66 0.830898 1.89483 0
M  V30 34701 C 3212.08 -0.616691 1.78444 0
M  V30 34702 O 3211.43 -1.42359 1.14194 0
M  V30 34703 C 3211.48 1.24045 3.39551 0
M  V30 34704 O 3211.21 2.63125 3.50281 0
M  V30 34705 C 3212.71 1.02036 4.31397 0
M  V30 34706 H 3209.93 0.299846 0.600278 0
M  V30 34707 H 3212.47 1.44003 1.45201 0
M  V30 34708 H 3210.63 0.675474 3.81466 0
M  V30 34709 H 3211.04 2.80053 4.43476 0
M  V30 34710 H 3212.51 1.35634 5.35077 0
M  V30 34711 H 3212.99 -0.0427925 4.39179 0
M  V30 34712 H 3213.6 1.57064 3.95236 0
M  V30 34713 N 3211.91 -1.31626 0.866732 0
M  V30 34714 C 3212.84 -2.31073 0.335802 0
M  V30 34715 C 3213.82 -1.6021 -0.571569 0
M  V30 34716 O 3215.01 -1.87936 -0.489273 0
M  V30 34717 C 3212.14 -3.44155 -0.466355 0
M  V30 34718 C 3211.09 -4.26586 0.347636 0
M  V30 34719 C 3210.42 -5.31545 -0.580007 0
M  V30 34720 C 3211.72 -4.9783 1.57995 0
M  V30 34721 H 3213.41 -2.75729 1.16678 0
M  V30 34722 H 3210.96 -1.32559 0.562503 0
M  V30 34723 H 3212.91 -4.12774 -0.848287 0
M  V30 34724 H 3211.63 -2.98257 -1.33081 0
M  V30 34725 H 3210.29 -3.5963 0.711473 0
M  V30 34726 H 3209.94 -4.81898 -1.44165 0
M  V30 34727 H 3209.64 -5.87587 -0.0392932 0
M  V30 34728 H 3211.17 -6.03024 -0.958852 0
M  V30 34729 H 3212.58 -5.59064 1.26964 0
M  V30 34730 H 3210.98 -5.63653 2.05949 0
M  V30 34731 H 3212.05 -4.25001 2.33457 0
M  V30 34732 N 3213.39 -0.62585 -1.4464 0
M  V30 34733 C 3214.32 0.131441 -2.27821 0
M  V30 34734 C 3215.3 0.8563 -1.38225 0
M  V30 34735 O 3216.48 0.861464 -1.67663 0
M  V30 34736 C 3213.61 1.19198 -3.17032 0
M  V30 34737 C 3212.66 0.568241 -4.22698 0
M  V30 34738 S 3213.49 -0.637705 -5.31689 0
M  V30 34739 C 3214.65 0.422979 -6.24469 0
M  V30 34740 H 3214.88 -0.574228 -2.91702 0
M  V30 34741 H 3212.41 -0.41387 -1.4875 0
M  V30 34742 H 3214.37 1.79894 -3.68983 0
M  V30 34743 H 3213.03 1.86982 -2.52382 0
M  V30 34744 H 3212.22 1.36681 -4.85113 0
M  V30 34745 H 3211.83 0.0360186 -3.73983 0
M  V30 34746 H 3214.12 1.29702 -6.64969 0
M  V30 34747 H 3215.06 -0.165462 -7.07907 0
M  V30 34748 H 3215.47 0.746508 -5.59542 0
M  V30 34749 N 3214.87 1.53289 -0.36608 0
M  V30 34750 C 3216.12 2.00866 0.223016 0
M  V30 34751 C 3216.44 1.25506 1.49242 0
M  V30 34752 O 3215.71 0.368478 1.92403 0
M  V30 34753 H 3214.29 0.742102 0.0854 0
M  V30 34754 H 3216.95 1.88577 -0.492429 0
M  V30 34755 H 3216.04 3.08844 0.449647 0
M  V30 34756 N 3216.35 0.0952613 1.57312 0
M  V30 34757 C 3217.57 -0.580171 1.9912 0
M  V30 34758 C 3218 -1.6092 0.973983 0
M  V30 34759 O 3217.35 -1.81209 -0.057502 0
M  V30 34760 C 3217.4 -1.20432 3.39895 0
M  V30 34761 O 3216.51 -2.32013 3.40945 0
M  V30 34762 H 3215.85 -0.147183 0.647482 0
M  V30 34763 H 3218.38 0.176721 2.03835 0
M  V30 34764 H 3218.39 -1.54558 3.77592 0
M  V30 34765 H 3217.06 -0.450442 4.13454 0
M  V30 34766 H 3215.64 -1.99505 3.15043 0
M  V30 34767 N 3217.82 -1.56587 -0.178432 0
M  V30 34768 C 3218.77 -1.96767 -1.24039 0
M  V30 34769 C 3219.77 -0.855401 -1.46216 0
M  V30 34770 O 3220.97 -1.04049 -1.4688 0
M  V30 34771 H 3217.35 -0.625927 -0.416796 0
M  V30 34772 H 3219.32 -2.85295 -0.874594 0
M  V30 34773 C 3218.07 -2.33765 -2.5739 0
M  V30 34774 H 3217.39 -3.18887 -2.41145 0
M  V30 34775 H 3218.83 -2.65729 -3.304 0
M  V30 34776 C 3217.29 -1.1784 -3.15619 0
M  V30 34777 O 3217.82 -0.462272 -3.99031 0
M  V30 34778 N 3216.02 -0.950831 -2.74604 0
M  V30 34779 H 3215.57 -1.53493 -2.06876 0
M  V30 34780 H 3215.53 -0.177022 -3.13901 0
M  V30 34781 N 3219.3 0.446741 -1.51136 0
M  V30 34782 C 3220.55 1.19459 -1.63015 0
M  V30 34783 C 3220.87 1.9194 -0.344101 0
M  V30 34784 O 3220.14 1.85163 0.639634 0
M  V30 34785 H 3218.72 0.443948 -0.600765 0
M  V30 34786 H 3221.38 0.513104 -1.88025 0
M  V30 34787 H 3220.48 1.92929 -2.45326 0
M  V30 34788 N 3220.78 1.41123 0.701567 0
M  V30 34789 C 3221.73 1.38969 1.80753 0
M  V30 34790 C 3222.71 0.264992 1.58703 0
M  V30 34791 O 3223.91 0.505198 1.69637 0
M  V30 34792 C 3221.03 1.26842 3.19008 0
M  V30 34793 C 3220.12 2.4415 3.46773 0
M  V30 34794 N 3220.51 3.69623 3.45272 0
M  V30 34795 C 3218.81 2.37833 3.77295 0
M  V30 34796 C 3219.51 4.47391 3.71774 0
M  V30 34797 N 3218.49 3.77422 3.91221 0
M  V30 34798 H 3222.29 2.33907 1.77946 0
M  V30 34799 H 3219.8 1.35094 0.901301 0
M  V30 34800 H 3221.8 1.2338 3.98225 0
M  V30 34801 H 3220.46 0.328834 3.23031 0
M  V30 34802 H 3221.47 4.02591 3.25792 0
M  V30 34803 H 3218.15 1.52315 3.88724 0
M  V30 34804 H 3219.54 5.56301 3.768 0
M  V30 34805 N 3222.26 -0.935219 1.26852 0
M  V30 34806 C 3223.17 -2.06829 1.1072 0
M  V30 34807 C 3224.18 -1.73956 0.0391528 0
M  V30 34808 O 3225.36 -1.99915 0.244106 0
M  V30 34809 C 3222.42 -3.38531 0.748153 0
M  V30 34810 C 3221.49 -3.8515 1.89626 0
M  V30 34811 C 3220.72 -5.10567 1.55425 0
M  V30 34812 O 3220.94 -5.68553 0.458696 0
M  V30 34813 O 3219.88 -5.52373 2.39097 0
M  V30 34814 H 3223.7 -2.23348 2.05789 0
M  V30 34815 H 3221.29 -1.05313 1.05969 0
M  V30 34816 H 3223.17 -4.1765 0.560914 0
M  V30 34817 H 3221.84 -3.23237 -0.173086 0
M  V30 34818 H 3220.75 -3.06951 2.13851 0
M  V30 34819 H 3222.08 -4.04974 2.79744 0
M  V30 34820 N 3223.74 -1.08752 -1.14065 0
M  V30 34821 C 3224.98 -0.819349 -1.85183 0
M  V30 34822 C 3225.31 0.654937 -1.83142 0
M  V30 34823 O 3224.57 1.49761 -1.25977 0
M  V30 34824 C 3224.87 -1.29095 -3.33271 0
M  V30 34825 C 3224.53 -2.77365 -3.55499 0
M  V30 34826 C 3223.19 -3.1786 -3.61274 0
M  V30 34827 C 3225.55 -3.72999 -3.64035 0
M  V30 34828 C 3222.87 -4.52775 -3.73111 0
M  V30 34829 C 3225.23 -5.07694 -3.77398 0
M  V30 34830 C 3223.89 -5.47789 -3.81424 0
M  V30 34831 H 3223.16 -0.299821 -0.677634 0
M  V30 34832 H 3225.81 -1.36108 -1.3471 0
M  V30 34833 H 3224.11 -0.668879 -3.86048 0
M  V30 34834 H 3225.81 -1.06016 -3.86732 0
M  V30 34835 H 3222.4 -2.45025 -3.51654 0
M  V30 34836 H 3226.58 -3.42831 -3.5886 0
M  V30 34837 H 3221.84 -4.83287 -3.74491 0
M  V30 34838 H 3226.01 -5.81658 -3.82946 0
M  V30 34839 H 3223.64 -6.52328 -3.90348 0
M  V30 34840 N 3225.21 1.31165 -0.873701 0
M  V30 34841 C 3226.46 1.96861 -0.487213 0
M  V30 34842 C 3226.79 1.68878 0.958841 0
M  V30 34843 O 3226.07 0.987308 1.67578 0
M  V30 34844 C 3226.35 3.52218 -0.749312 0
M  V30 34845 C 3226.2 3.89759 -2.24517 0
M  V30 34846 C 3227.52 4.39558 -0.218271 0
M  V30 34847 H 3224.64 0.71506 -0.17849 0
M  V30 34848 H 3227.28 1.55229 -1.09563 0
M  V30 34849 H 3225.43 3.8781 -0.231472 0
M  V30 34850 H 3227.11 3.64249 -2.83055 0
M  V30 34851 H 3225.35 3.38232 -2.71627 0
M  V30 34852 H 3226.02 4.98095 -2.3792 0
M  V30 34853 H 3228.5 4.10811 -0.661346 0
M  V30 34854 H 3227.37 5.47205 -0.43108 0
M  V30 34855 H 3227.63 4.33254 0.87998 0
M  V30 34856 N 3226.69 0.633512 1.44307 0
M  V30 34857 C 3227.94 0.138952 2.02023 0
M  V30 34858 C 3228.27 -1.24006 1.49843 0
M  V30 34859 O 3227.52 -1.83736 0.67375 0
M  V30 34860 C 3227.82 0.0774514 3.57316 0
M  V30 34861 C 3227.49 1.39556 4.2876 0
M  V30 34862 C 3226.15 1.75656 4.47994 0
M  V30 34863 C 3228.5 2.2655 4.69387 0
M  V30 34864 C 3225.83 2.98453 5.05116 0
M  V30 34865 C 3228.18 3.48621 5.2787 0
M  V30 34866 C 3226.85 3.84941 5.45322 0
M  V30 34867 H 3226.12 0.0508463 0.739253 0
M  V30 34868 H 3228.76 0.820301 1.73041 0
M  V30 34869 H 3227.07 -0.687277 3.85725 0
M  V30 34870 H 3228.76 -0.321767 3.99707 0
M  V30 34871 H 3225.35 1.10463 4.14121 0
M  V30 34872 H 3229.54 1.99954 4.54238 0
M  V30 34873 H 3224.79 3.26667 5.16816 0
M  V30 34874 H 3228.97 4.16262 5.583 0
M  V30 34875 H 3226.6 4.80176 5.89351 0
M  V30 34876 N 3228.17 -1.53093 0.374204 0
M  V30 34877 C 3229.1 -2.28925 -0.459936 0
M  V30 34878 C 3230.08 -1.31699 -1.07653 0
M  V30 34879 O 3231.27 -1.60579 -1.09216 0
M  V30 34880 C 3228.4 -3.0849 -1.59535 0
M  V30 34881 C 3227.35 -4.13475 -1.10556 0
M  V30 34882 C 3226.68 -4.81173 -2.33188 0
M  V30 34883 C 3227.98 -5.21975 -0.184183 0
M  V30 34884 H 3229.67 -2.98901 0.172744 0
M  V30 34885 H 3227.22 -1.43752 0.0845209 0
M  V30 34886 H 3229.17 -3.60291 -2.18559 0
M  V30 34887 H 3227.89 -2.3622 -2.25539 0
M  V30 34888 H 3226.55 -3.62632 -0.537947 0
M  V30 34889 H 3226.2 -4.05466 -2.97668 0
M  V30 34890 H 3225.9 -5.52122 -2.01084 0
M  V30 34891 H 3227.42 -5.35773 -2.92883 0
M  V30 34892 H 3228.84 -5.69227 -0.682162 0
M  V30 34893 H 3227.24 -6.00082 0.0463801 0
M  V30 34894 H 3228.31 -4.78727 0.771236 0
M  V30 34895 N 3229.65 -0.103603 -1.57259 0
M  V30 34896 C 3230.58 0.849192 -2.17511 0
M  V30 34897 C 3231.56 1.28822 -1.11081 0
M  V30 34898 O 3232.74 1.35359 -1.39254 0
M  V30 34899 C 3229.87 2.10517 -2.76224 0
M  V30 34900 C 3228.83 1.80447 -3.88102 0
M  V30 34901 C 3228.15 3.12945 -4.33555 0
M  V30 34902 C 3229.45 1.08478 -5.10911 0
M  V30 34903 H 3231.15 0.347165 -2.9738 0
M  V30 34904 H 3228.69 0.165543 -1.43045 0
M  V30 34905 H 3230.65 2.77616 -3.17029 0
M  V30 34906 H 3229.37 2.63017 -1.93622 0
M  V30 34907 H 3228.03 1.15743 -3.47849 0
M  V30 34908 H 3227.68 3.63349 -3.47831 0
M  V30 34909 H 3227.38 2.93605 -5.08989 0
M  V30 34910 H 3228.9 3.81188 -4.76999 0
M  V30 34911 H 3230.32 1.65702 -5.48831 0
M  V30 34912 H 3228.71 0.992869 -5.91829 0
M  V30 34913 H 3229.78 0.0689256 -4.84851 0
M  V30 34914 N 3231.13 1.56679 0.170126 0
M  V30 34915 C 3232.07 1.96502 1.21061 0
M  V30 34916 C 3233.04 0.829117 1.43927 0
M  V30 34917 O 3234.23 1.08933 1.56647 0
M  V30 34918 C 3231.37 2.33114 2.54464 0
M  V30 34919 C 3230.48 3.59887 2.38967 0
M  V30 34920 C 3229.62 3.85706 3.65245 0
M  V30 34921 C 3228.66 5.05824 3.44687 0
M  V30 34922 N 3227.79 5.27769 4.63038 0
M  V30 34923 H 3232.63 2.852 0.864005 0
M  V30 34924 H 3230.17 1.41118 0.415218 0
M  V30 34925 H 3232.13 2.52363 3.32218 0
M  V30 34926 H 3230.76 1.47525 2.87117 0
M  V30 34927 H 3229.81 3.48545 1.52384 0
M  V30 34928 H 3231.12 4.47798 2.19723 0
M  V30 34929 H 3230.28 4.0533 4.51434 0
M  V30 34930 H 3229.01 2.96173 3.8747 0
M  V30 34931 H 3228.02 4.86097 2.56885 0
M  V30 34932 H 3229.24 5.96889 3.23883 0
M  V30 34933 H 3227.19 4.41187 4.85479 0
M  V30 34934 H 3227.11 6.09906 4.46711 0
M  V30 34935 H 3228.38 5.51873 5.50506 0
M  V30 34936 N 3232.6 -0.43872 1.5137 0
M  V30 34937 C 3233.85 -1.18592 1.63647 0
M  V30 34938 C 3234.17 -1.91755 0.354275 0
M  V30 34939 O 3233.44 -1.855 -0.629805 0
M  V30 34940 H 3232.02 -0.440756 0.603111 0
M  V30 34941 H 3234.69 -0.503126 1.88294 0
M  V30 34942 H 3233.78 -1.91625 2.46346 0
M  V30 34943 N 3234.08 -1.41493 -0.694073 0
M  V30 34944 C 3235.03 -1.39926 -1.80013 0
M  V30 34945 C 3236.02 -0.273404 -1.5856 0
M  V30 34946 O 3237.21 -0.514187 -1.69367 0
M  V30 34947 C 3234.34 -1.28532 -3.18331 0
M  V30 34948 C 3233.42 -2.45986 -3.45473 0
M  V30 34949 N 3233.81 -3.71449 -3.43307 0
M  V30 34950 C 3232.11 -2.39831 -3.76028 0
M  V30 34951 C 3232.81 -4.49357 -3.69396 0
M  V30 34952 N 3231.79 -3.79491 -3.89214 0
M  V30 34953 H 3235.59 -2.34847 -1.76703 0
M  V30 34954 H 3233.11 -1.3557 -0.894124 0
M  V30 34955 H 3235.1 -1.25491 -3.97565 0
M  V30 34956 H 3233.76 -0.345961 -3.22852 0
M  V30 34957 H 3234.77 -4.04313 -3.23653 0
M  V30 34958 H 3231.45 -1.54375 -3.87911 0
M  V30 34959 H 3232.84 -5.58292 -3.73845 0
M  V30 34960 N 3235.56 0.928479 -1.27346 0
M  V30 34961 C 3236.47 2.06239 -1.11815 0
M  V30 34962 C 3237.49 1.73933 -0.0483775 0
M  V30 34963 O 3238.66 1.99783 -0.254705 0
M  V30 34964 C 3235.73 3.3813 -0.766096 0
M  V30 34965 C 3234.79 3.84139 -1.91666 0
M  V30 34966 C 3234.02 5.09736 -1.5813 0
M  V30 34967 O 3234.24 5.68301 -0.488841 0
M  V30 34968 O 3233.18 5.51098 -2.42023 0
M  V30 34969 H 3237 2.22254 -2.06971 0
M  V30 34970 H 3234.59 1.0475 -1.06526 0
M  V30 34971 H 3236.47 4.17347 -0.583055 0
M  V30 34972 H 3235.15 3.23324 0.155941 0
M  V30 34973 H 3234.05 3.05812 -2.15475 0
M  V30 34974 H 3235.39 4.03485 -2.81887 0
M  V30 34975 N 3237.04 1.09355 1.13486 0
M  V30 34976 C 3238.32 0.741591 1.80997 0
M  V30 34977 C 3238.7 -0.77347 1.9642 0
M  V30 34978 O 3238.04 -1.69561 1.53171 0
M  V30 34979 C 3238.25 1.47978 3.16075 0
M  V30 34980 C 3239.6 1.64511 3.91435 0
M  V30 34981 O 3240.63 1.44223 3.25696 0
M  V30 34982 O 3239.48 1.98063 5.09346 0
M  V30 34983 H 3236.58 0.266311 0.782948 0
M  V30 34984 H 3239.12 1.19571 1.20419 0
M  V30 34985 H 3237.9 2.51142 3.00072 0
M  V30 34986 H 3237.52 1.01778 3.84353 0
M  V30 34987 N 3238.52 -1.307 0.880644 0
M  V30 34988 C 3239.45 -2.30704 0.360292 0
M  V30 34989 C 3240.43 -1.60807 -0.554544 0
M  V30 34990 O 3241.61 -1.88444 -0.469312 0
M  V30 34991 C 3238.74 -3.4463 -0.429827 0
M  V30 34992 C 3237.7 -4.26193 0.392861 0
M  V30 34993 C 3237.02 -5.3213 -0.523596 0
M  V30 34994 C 3238.32 -4.96126 1.63266 0
M  V30 34995 H 3240.02 -2.74476 1.19596 0
M  V30 34996 H 3237.56 -1.31955 0.576531 0
M  V30 34997 H 3239.52 -4.1365 -0.804459 0
M  V30 34998 H 3238.24 -2.99651 -1.2991 0
M  V30 34999 H 3236.9 -3.58855 0.749577 0
M  V30 35000 H 3236.55 -4.834 -1.39046 0
M  V30 35001 H 3236.25 -5.87595 0.0230304 0
M  V30 35002 H 3237.77 -6.04007 -0.89484 0
M  V30 35003 H 3239.19 -5.57686 1.32886 0
M  V30 35004 H 3237.58 -5.61437 2.11916 0
M  V30 35005 H 3238.65 -4.22501 2.37952 0
M  V30 35006 N 3240 -0.641156 -1.43969 0
M  V30 35007 C 3241.41 -0.307647 -1.56607 0
M  V30 35008 C 3241.61 1.18879 -1.62696 0
M  V30 35009 O 3240.67 1.97322 -1.57544 0
M  V30 35010 C 3241.98 -1.00839 -2.83288 0
M  V30 35011 C 3243.53 -0.987492 -2.97014 0
M  V30 35012 C 3244 -1.6689 -4.26511 0
M  V30 35013 N 3245.49 -1.63596 -4.33348 0
M  V30 35014 C 3246.23 -2.13205 -5.32289 0
M  V30 35015 N 3245.73 -2.71049 -6.37577 0
M  V30 35016 N 3247.52 -2.03775 -5.23863 0
M  V30 35017 H 3239.67 -1.61239 -1.38259 0
M  V30 35018 H 3241.93 -0.67739 -0.663209 0
M  V30 35019 H 3241.64 -2.06342 -2.84809 0
M  V30 35020 H 3241.51 -0.552399 -3.73133 0
M  V30 35021 H 3243.9 0.0590876 -2.95041 0
M  V30 35022 H 3243.98 -1.48207 -2.08491 0
M  V30 35023 H 3243.62 -2.71498 -4.29245 0
M  V30 35024 H 3243.55 -1.14907 -5.1391 0
M  V30 35025 H 3246.05 -1.21374 -3.57878 0
M  V30 35026 H 3246.36 -3.0661 -7.09373 0
M  V30 35027 H 3244.7 -2.75105 -6.38234 0
M  V30 35028 H 3247.89 -1.58299 -4.40521 0
M  V30 35029 H 3248.07 -2.42747 -6.00814 0
M  V30 35030 N 3241.47 1.52892 -0.382318 0
M  V30 35031 C 3242.41 2.23876 0.491159 0
M  V30 35032 C 3243.42 1.25872 1.03247 0
M  V30 35033 O 3244.61 1.51992 0.93599 0
M  V30 35034 C 3241.71 2.93603 1.69265 0
M  V30 35035 C 3240.88 4.18254 1.27993 0
M  V30 35036 C 3239.94 4.71042 2.34533 0
M  V30 35037 O 3238.97 5.34306 1.96229 0
M  V30 35038 N 3240.17 4.50296 3.66352 0
M  V30 35039 H 3242.93 2.99472 -0.116949 0
M  V30 35040 H 3240.49 1.60554 -0.208324 0
M  V30 35041 H 3242.49 3.2582 2.40048 0
M  V30 35042 H 3241.06 2.21357 2.20725 0
M  V30 35043 H 3240.28 3.92152 0.401261 0
M  V30 35044 H 3241.56 4.99259 0.980732 0
M  V30 35045 H 3240.96 3.99782 4.00238 0
M  V30 35046 H 3239.52 4.8702 4.33191 0
M  V30 35047 N 3242.95 0.111941 1.57202 0
M  V30 35048 C 3244.23 -0.590939 1.8646 0
M  V30 35049 C 3244.61 -1.85269 1.01185 0
M  V30 35050 O 3243.96 -2.28327 0.0888292 0
M  V30 35051 C 3244.17 -0.890166 3.37457 0
M  V30 35052 C 3245.51 -1.2463 4.05897 0
M  V30 35053 O 3246.54 -0.980652 3.42435 0
M  V30 35054 O 3245.4 -1.74456 5.17907 0
M  V30 35055 H 3242.49 -0.297445 0.771658 0
M  V30 35056 H 3245.04 0.145912 1.69072 0
M  V30 35057 H 3243.81 0.0042589 3.913 0
M  V30 35058 H 3243.43 -1.68242 3.60251 0
M  V30 35059 N 3244.43 -1.56767 -0.161814 0
M  V30 35060 C 3245.34 -2.00387 -1.21993 0
M  V30 35061 C 3246.36 -0.916794 -1.47888 0
M  V30 35062 O 3247.53 -1.22515 -1.5985 0
M  V30 35063 C 3244.6 -2.36309 -2.5369 0
M  V30 35064 C 3243.66 -3.58892 -2.35574 0
M  V30 35065 C 3242.89 -3.93092 -3.60991 0
M  V30 35066 O 3243.11 -3.28137 -4.66564 0
M  V30 35067 O 3242.05 -4.86403 -3.54536 0
M  V30 35068 H 3245.87 -2.90682 -0.87965 0
M  V30 35069 H 3243.46 -1.44761 -0.369412 0
M  V30 35070 H 3245.34 -2.60341 -3.31362 0
M  V30 35071 H 3244.02 -1.49174 -2.87278 0
M  V30 35072 H 3242.92 -3.40067 -1.55902 0
M  V30 35073 H 3244.26 -4.46599 -2.06907 0
M  V30 35074 N 3245.91 0.430686 -1.51601 0
M  V30 35075 C 3247.32 0.767682 -1.39924 0
M  V30 35076 C 3247.52 1.95532 -0.486791 0
M  V30 35077 O 3246.58 2.52439 0.0555521 0
M  V30 35078 C 3247.89 1.04182 -2.82076 0
M  V30 35079 C 3249.44 1.14585 -2.91272 0
M  V30 35080 C 3249.92 1.45288 -4.34345 0
M  V30 35081 N 3251.41 1.52198 -4.37481 0
M  V30 35082 C 3252.14 1.77539 -5.45222 0
M  V30 35083 N 3251.64 2.00628 -6.63114 0
M  V30 35084 N 3253.43 1.79376 -5.32711 0
M  V30 35085 H 3245.58 -0.351388 -2.09473 0
M  V30 35086 H 3247.84 -0.0948317 -0.943245 0
M  V30 35087 H 3247.55 0.241775 -3.50868 0
M  V30 35088 H 3247.42 1.96771 -3.21809 0
M  V30 35089 H 3249.81 1.93651 -2.22673 0
M  V30 35090 H 3249.89 0.198809 -2.55026 0
M  V30 35091 H 3249.54 0.66747 -5.03495 0
M  V30 35092 H 3249.47 2.41208 -4.68109 0
M  V30 35093 H 3251.96 1.36231 -3.5249 0
M  V30 35094 H 3252.27 2.19353 -7.41015 0
M  V30 35095 H 3250.62 1.97937 -6.66218 0
M  V30 35096 H 3253.81 1.60862 -4.39592 0
M  V30 35097 H 3253.98 1.98788 -6.16756 0
M  V30 35098 N 3247.39 1.4186 0.686559 0
M  V30 35099 C 3248.63 1.4191 1.44877 0
M  V30 35100 C 3248.96 0.031175 1.94175 0
M  V30 35101 O 3248.24 -0.942616 1.70132 0
M  V30 35102 C 3248.52 2.43357 2.65423 0
M  V30 35103 C 3248.38 3.91293 2.21833 0
M  V30 35104 C 3249.69 2.41941 3.67631 0
M  V30 35105 H 3246.81 0.516771 0.525468 0
M  V30 35106 H 3249.46 1.73196 0.781232 0
M  V30 35107 H 3247.61 2.16809 3.22376 0
M  V30 35108 H 3249.28 4.28778 1.70138 0
M  V30 35109 H 3247.52 4.05725 1.53524 0
M  V30 35110 H 3248.19 4.57835 3.08368 0
M  V30 35111 H 3250.67 2.65522 3.20371 0
M  V30 35112 H 3249.54 3.14921 4.49573 0
M  V30 35113 H 3249.8 1.44118 4.1795 0
M  V30 35114 N 3248.86 -0.921712 1.27837 0
M  V30 35115 C 3249.8 -2.02401 1.054 0
M  V30 35116 C 3250.77 -1.62577 -0.0274618 0
M  V30 35117 O 3251.96 -1.88125 0.118883 0
M  V30 35118 C 3249.09 -3.33342 0.600074 0
M  V30 35119 C 3248.13 -3.92147 1.677 0
M  V30 35120 S 3248.96 -4.23988 3.271 0
M  V30 35121 C 3250.12 -5.58001 2.83523 0
M  V30 35122 H 3250.35 -2.21122 1.98727 0
M  V30 35123 H 3247.89 -1.06558 1.11735 0
M  V30 35124 H 3249.84 -4.09049 0.344865 0
M  V30 35125 H 3248.51 -3.12534 -0.313233 0
M  V30 35126 H 3247.7 -4.86655 1.31083 0
M  V30 35127 H 3247.3 -3.23047 1.88459 0
M  V30 35128 H 3249.59 -6.37553 2.29198 0
M  V30 35129 H 3250.54 -5.99523 3.76799 0
M  V30 35130 H 3250.94 -5.18809 2.22481 0
M  V30 35131 N 3250.34 -1.09956 -1.12905 0
M  V30 35132 C 3251.27 -0.70174 -2.18193 0
M  V30 35133 C 3252.29 0.259103 -1.60725 0
M  V30 35134 O 3253.48 0.0443235 -1.78445 0
M  V30 35135 C 3250.58 -0.0141198 -3.38897 0
M  V30 35136 C 3249.75 -0.997882 -4.25865 0
M  V30 35137 C 3248.81 -0.342663 -5.25083 0
M  V30 35138 O 3247.83 -0.991956 -5.6049 0
M  V30 35139 N 3249.04 0.900957 -5.73466 0
M  V30 35140 H 3251.8 -1.60759 -2.52936 0
M  V30 35141 H 3249.36 -0.987726 -1.28279 0
M  V30 35142 H 3251.35 0.435557 -4.02349 0
M  V30 35143 H 3249.92 0.794064 -3.02346 0
M  V30 35144 H 3249.14 -1.62597 -3.59104 0
M  V30 35145 H 3250.43 -1.66396 -4.80822 0
M  V30 35146 H 3249.83 1.44793 -5.46856 0
M  V30 35147 H 3248.39 1.29386 -6.38829 0
M  V30 35148 N 3251.82 1.30231 -0.887563 0
M  V30 35149 C 3252.75 2.30509 -0.372521 0
M  V30 35150 C 3253.73 1.61099 0.546008 0
M  V30 35151 O 3254.92 1.8869 0.459312 0
M  V30 35152 C 3252.05 3.44853 0.411544 0
M  V30 35153 C 3251 4.25979 -0.415458 0
M  V30 35154 C 3250.33 5.324 0.495369 0
M  V30 35155 C 3251.63 4.95254 -1.65895 0
M  V30 35156 H 3253.32 2.73838 -1.2105 0
M  V30 35157 H 3250.87 1.31647 -0.583521 0
M  V30 35158 H 3252.82 4.14071 0.782511 0
M  V30 35159 H 3251.54 3.00336 1.28319 0
M  V30 35160 H 3250.2 3.58452 -0.768597 0
M  V30 35161 H 3249.85 4.8413 1.3648 0
M  V30 35162 H 3249.55 5.87575 -0.0541917 0
M  V30 35163 H 3251.07 6.04473 0.862795 0
M  V30 35164 H 3252.49 5.56974 -1.35842 0
M  V30 35165 H 3250.88 5.60305 -2.14891 0
M  V30 35166 H 3251.95 4.21233 -2.40189 0
M  V30 35167 N 3253.3 0.648782 1.43627 0
M  V30 35168 C 3254.55 0.160372 2.01864 0
M  V30 35169 C 3254.87 -1.22409 1.5115 0
M  V30 35170 O 3254.13 -1.83012 0.6932 0
M  V30 35171 C 3254.43 0.115345 3.57214 0
M  V30 35172 C 3254.09 1.44096 4.27256 0
M  V30 35173 C 3252.76 1.80397 4.46106 0
M  V30 35174 C 3255.11 2.31516 4.66958 0
M  V30 35175 C 3252.44 3.03794 5.01922 0
M  V30 35176 C 3254.79 3.542 5.24142 0
M  V30 35177 C 3253.45 3.90703 5.41209 0
M  V30 35178 H 3252.72 0.0586842 0.738673 0
M  V30 35179 H 3255.37 0.838609 1.72162 0
M  V30 35180 H 3253.67 -0.646327 3.86432 0
M  V30 35181 H 3255.37 -0.279355 4.00026 0
M  V30 35182 H 3251.96 1.14849 4.12926 0
M  V30 35183 H 3256.14 2.04761 4.52091 0
M  V30 35184 H 3251.4 3.32131 5.13322 0
M  V30 35185 H 3255.57 4.22161 5.53853 0
M  V30 35186 H 3253.2 4.864 5.84225 0
M  V30 35187 N 3254.78 -1.52688 0.390421 0
M  V30 35188 C 3256.02 -2.01195 -0.191032 0
M  V30 35189 C 3256.35 -1.27865 -1.47226 0
M  V30 35190 O 3255.62 -0.399041 -1.91793 0
M  V30 35191 H 3254.2 -0.743367 -0.073583 0
M  V30 35192 H 3256.86 -1.87769 0.522367 0
M  V30 35193 H 3255.95 -3.0952 -0.400455 0
M  V30 35194 N 3256.25 -0.120276 -1.5714 0
M  V30 35195 C 3257.18 0.826074 -2.18399 0
M  V30 35196 C 3258.17 1.27636 -1.12441 0
M  V30 35197 O 3259.35 1.33874 -1.40682 0
M  V30 35198 C 3256.48 2.07575 -2.78442 0
M  V30 35199 C 3255.43 1.76321 -3.89994 0
M  V30 35200 C 3254.76 3.08329 -4.3685 0
M  V30 35201 C 3256.06 1.03053 -5.12033 0
M  V30 35202 H 3257.75 0.315604 -2.97732 0
M  V30 35203 H 3255.3 0.150361 -1.43213 0
M  V30 35204 H 3257.25 2.74238 -3.19956 0
M  V30 35205 H 3255.98 2.60949 -1.964 0
M  V30 35206 H 3254.64 1.12047 -3.49057 0
M  V30 35207 H 3254.28 3.59639 -3.51665 0
M  V30 35208 H 3253.98 2.8819 -5.12075 0
M  V30 35209 H 3255.51 3.76107 -4.81015 0
M  V30 35210 H 3256.92 1.59871 -5.50558 0
M  V30 35211 H 3255.32 0.930042 -5.92849 0
M  V30 35212 H 3256.39 0.0174968 -4.84897 0
M  V30 35213 N 3257.73 1.56851 0.153498 0
M  V30 35214 C 3258.98 1.83263 0.868485 0
M  V30 35215 C 3259.31 0.700889 1.81111 0
M  V30 35216 O 3258.59 -0.295956 1.92235 0
M  V30 35217 C 3258.87 3.20143 1.64864 0
M  V30 35218 C 3258.72 4.43871 0.727943 0
M  V30 35219 C 3260.04 3.54168 2.61253 0
M  V30 35220 H 3257.16 0.666629 0.314285 0
M  V30 35221 H 3259.8 1.89527 0.133938 0
M  V30 35222 H 3257.95 3.14934 2.27484 0
M  V30 35223 H 3259.62 4.61161 0.113247 0
M  V30 35224 H 3257.87 4.33784 0.0370982 0
M  V30 35225 H 3258.54 5.36237 1.30972 0
M  V30 35226 H 3261.01 3.59946 2.08753 0
M  V30 35227 H 3259.89 4.50986 3.12894 0
M  V30 35228 H 3260.15 2.79788 3.42302 0
M  V30 35229 N 3259.21 -0.42264 1.51827 0
M  V30 35230 C 3260.16 -1.5346 1.74794 0
M  V30 35231 C 3261.15 -1.57856 0.61463 0
M  V30 35232 O 3262.36 -1.61425 0.796365 0
M  V30 35233 H 3258.73 -0.510109 0.552533 0
M  V30 35234 H 3260.7 -1.31268 2.67976 0
M  V30 35235 C 3259.45 -2.90971 1.90344 0
M  V30 35236 H 3258.78 -2.88325 2.76963 0
M  V30 35237 H 3260.22 -3.68103 2.1042 0
M  V30 35238 C 3258.68 -3.30231 0.667008 0
M  V30 35239 O 3259.21 -4.01334 -0.171471 0
M  V30 35240 N 3257.41 -2.86146 0.506819 0
M  V30 35241 H 3256.96 -2.28454 1.19023 0
M  V30 35242 H 3256.92 -3.12776 -0.319192 0
M  V30 35243 N 3260.69 -1.42222 -0.679027 0
M  V30 35244 C 3261.92 -1.45855 -1.46745 0
M  V30 35245 C 3262.33 -0.0686268 -1.88675 0
M  V30 35246 O 3261.69 0.915729 -1.57863 0
M  V30 35247 C 3261.74 -2.38193 -2.71931 0
M  V30 35248 O 3261.46 -3.71777 -2.31761 0
M  V30 35249 C 3262.96 -2.50802 -3.65531 0
M  V30 35250 H 3260.18 -0.496218 -0.451673 0
M  V30 35251 H 3262.73 -1.8669 -0.83469 0
M  V30 35252 H 3260.88 -2.00622 -3.31405 0
M  V30 35253 H 3261.29 -4.21188 -3.12572 0
M  V30 35254 H 3262.77 -3.19543 -4.50107 0
M  V30 35255 H 3263.25 -1.54454 -4.11145 0
M  V30 35256 H 3263.85 -2.89077 -3.11952 0
M  V30 35257 N 3262.17 0.91492 -1.28324 0
M  V30 35258 C 3263.1 2.03396 -1.14684 0
M  V30 35259 C 3264.08 1.70041 -0.0449238 0
M  V30 35260 O 3265.26 1.9293 -0.221706 0
M  V30 35261 C 3262.39 3.37802 -0.806682 0
M  V30 35262 C 3261.35 3.85314 -1.86325 0
M  V30 35263 C 3260.67 5.16672 -1.37675 0
M  V30 35264 C 3261.97 4.07302 -3.2696 0
M  V30 35265 H 3263.67 2.15065 -2.08297 0
M  V30 35266 H 3261.21 1.03338 -1.00286 0
M  V30 35267 H 3263.17 4.15578 -0.698033 0
M  V30 35268 H 3261.89 3.26182 0.165146 0
M  V30 35269 H 3260.55 3.09741 -1.96102 0
M  V30 35270 H 3260.2 5.01454 -0.394015 0
M  V30 35271 H 3259.9 5.49432 -2.08323 0
M  V30 35272 H 3261.42 5.97005 -1.28129 0
M  V30 35273 H 3262.83 4.75607 -3.2011 0
M  V30 35274 H 3261.23 4.51391 -3.95432 0
M  V30 35275 H 3262.3 3.12152 -3.71065 0
M  V30 35276 N 3263.64 1.10553 1.1232 0
M  V30 35277 C 3264.57 0.777525 2.20174 0
M  V30 35278 C 3265.56 -0.25004 1.68252 0
M  V30 35279 O 3266.74 -0.11554 1.93856 0
M  V30 35280 C 3263.87 0.209883 3.46665 0
M  V30 35281 C 3262.82 1.16827 4.11747 0
M  V30 35282 C 3262.15 0.461777 5.32702 0
M  V30 35283 C 3263.45 2.51535 4.57742 0
M  V30 35284 H 3265.14 1.67933 2.47869 0
M  V30 35285 H 3262.69 0.808884 1.19135 0
M  V30 35286 H 3264.64 -0.0317327 4.21388 0
M  V30 35287 H 3263.37 -0.72717 3.18402 0
M  V30 35288 H 3262.03 1.39536 3.39006 0
M  V30 35289 H 3261.67 -0.479787 5.00707 0
M  V30 35290 H 3261.37 1.1009 5.77195 0
M  V30 35291 H 3262.9 0.228736 6.10171 0
M  V30 35292 H 3264.31 2.32968 5.23831 0
M  V30 35293 H 3262.71 3.11344 5.13016 0
M  V30 35294 H 3263.78 3.11442 3.71661 0
M  V30 35295 N 3265.12 -1.29758 0.894457 0
M  V30 35296 C 3266.09 -2.26142 0.373133 0
M  V30 35297 C 3267.09 -1.53161 -0.489729 0
M  V30 35298 O 3268.28 -1.71675 -0.29553 0
M  V30 35299 C 3265.41 -3.37684 -0.467174 0
M  V30 35300 H 3266.6 -2.73771 1.22431 0
M  V30 35301 H 3264.15 -1.4111 0.672137 0
M  V30 35302 H 3264.89 -2.95386 -1.33856 0
M  V30 35303 H 3264.67 -3.91809 0.151023 0
M  V30 35304 H 3266.16 -4.09402 -0.823397 0
M  V30 35305 N 3266.6 -0.65639 -1.4328 0
M  V30 35306 C 3267.55 0.0451628 -2.32556 0
M  V30 35307 C 3268.54 0.809794 -1.48791 0
M  V30 35308 O 3269.75 0.719836 -1.6498 0
M  V30 35309 H 3266.12 0.0333911 -0.751258 0
M  V30 35310 H 3268.09 -0.725474 -2.89447 0
M  V30 35311 C 3266.84 0.995648 -3.3314 0
M  V30 35312 H 3266.17 0.416704 -3.97622 0
M  V30 35313 H 3267.61 1.45555 -3.98233 0
M  V30 35314 C 3266.07 2.0932 -2.63982 0
M  V30 35315 O 3266.6 3.17739 -2.45774 0
M  V30 35316 N 3264.8 1.85966 -2.23305 0
M  V30 35317 H 3264.35 0.977978 -2.38314 0
M  V30 35318 H 3264.31 2.59596 -1.77362 0
M  V30 35319 N 3268.08 1.52478 -0.398513 0
M  V30 35320 C 3269.36 1.94138 0.238742 0
M  V30 35321 C 3269.74 1.33465 1.63555 0
M  V30 35322 O 3269.08 0.506311 2.2282 0
M  V30 35323 C 3269.29 3.48061 0.255802 0
M  V30 35324 C 3270.64 4.21875 0.480302 0
M  V30 35325 O 3271.67 3.54615 0.335617 0
M  V30 35326 O 3270.53 5.41125 0.764559 0
M  V30 35327 H 3267.62 0.813136 0.150792 0
M  V30 35328 H 3270.17 1.63523 -0.453688 0
M  V30 35329 H 3268.94 3.84577 -0.722239 0
M  V30 35330 H 3268.56 3.85006 0.992772 0
M  V30 35331 N 3269.56 0.128608 1.57074 0
M  V30 35332 C 3270.97 -0.395227 1.82469 0
M  V30 35333 C 3271.32 -1.65971 1.04633 0
M  V30 35334 O 3270.44 -2.14503 0.285873 0
M  V30 35335 C 3271.04 -0.723831 3.30978 0
M  V30 35336 C 3269.6 -1.19226 3.57018 0
M  V30 35337 C 3268.75 -0.205858 2.76535 0
M  V30 35338 H 3271.7 0.353598 1.54711 0
M  V30 35339 H 3271.72 -1.58033 3.4613 0
M  V30 35340 H 3271.23 0.196663 3.87601 0
M  V30 35341 H 3269.33 -2.12932 3.05762 0
M  V30 35342 H 3269.44 -1.13094 4.6556 0
M  V30 35343 H 3267.81 -0.694829 2.45039 0
M  V30 35344 H 3268.59 0.707902 3.35922 0
M  V30 35345 N 3271.04 -1.5693 -0.145178 0
M  V30 35346 C 3272.26 -1.8761 -0.872365 0
M  V30 35347 C 3272.68 -0.717006 -1.74655 0
M  V30 35348 O 3272.04 0.313168 -1.79793 0
M  V30 35349 C 3272.09 -3.17549 -1.72756 0
M  V30 35350 O 3271.81 -4.28993 -0.888605 0
M  V30 35351 C 3273.31 -3.61756 -2.56218 0
M  V30 35352 H 3270.53 -0.621819 -0.252155 0
M  V30 35353 H 3273.07 -2.04038 -0.13742 0
M  V30 35354 H 3271.23 -3.02869 -2.41555 0
M  V30 35355 H 3271.64 -5.03306 -1.47592 0
M  V30 35356 H 3273.12 -4.55508 -3.11796 0
M  V30 35357 H 3273.59 -2.87133 -3.32342 0
M  V30 35358 H 3274.2 -3.79136 -1.92707 0
M  V30 35359 N 3272.51 0.414582 -1.52049 0
M  V30 35360 C 3273.74 1.18845 -1.69972 0
M  V30 35361 C 3274.16 1.83664 -0.40609 0
M  V30 35362 O 3273.52 1.6978 0.635951 0
M  V30 35363 C 3273.57 2.23133 -2.83274 0
M  V30 35364 O 3272.67 3.29151 -2.48462 0
M  V30 35365 H 3272.01 0.347173 -0.566009 0
M  V30 35366 H 3274.54 0.486722 -1.98726 0
M  V30 35367 H 3274.55 2.67551 -3.08027 0
M  V30 35368 H 3273.23 1.75337 -3.77134 0
M  V30 35369 H 3271.81 2.9005 -2.34362 0
M  V30 35370 N 3273.99 1.4258 0.671475 0
M  V30 35371 C 3274.92 1.4911 1.7969 0
M  V30 35372 C 3275.9 0.347367 1.66515 0
M  V30 35373 O 3277.09 0.562127 1.85886 0
M  V30 35374 C 3274.22 1.39602 3.18007 0
M  V30 35375 C 3273.17 2.52036 3.45921 0
M  V30 35376 C 3272.5 2.27585 4.83848 0
M  V30 35377 C 3273.8 3.94339 3.42483 0
M  V30 35378 H 3275.49 2.43303 1.74482 0
M  V30 35379 H 3273.04 1.17103 0.838022 0
M  V30 35380 H 3274.99 1.42778 3.96475 0
M  V30 35381 H 3273.71 0.419046 3.23901 0
M  V30 35382 H 3272.37 2.48183 2.69816 0
M  V30 35383 H 3272.02 1.28174 4.86395 0
M  V30 35384 H 3271.72 3.02943 5.03487 0
M  V30 35385 H 3273.25 2.32516 5.64596 0
M  V30 35386 H 3274.66 3.99777 4.10915 0
M  V30 35387 H 3273.06 4.69574 3.73658 0
M  V30 35388 H 3274.13 4.20773 2.40994 0
M  V30 35389 N 3275.47 -0.908102 1.28807 0
M  V30 35390 C 3276.89 -1.18747 1.06636 0
M  V30 35391 C 3277.09 -2.00624 -0.187694 0
M  V30 35392 O 3276.14 -2.36378 -0.887799 0
M  V30 35393 C 3277.45 -1.91657 2.31707 0
M  V30 35394 C 3279 -2.04517 2.36942 0
M  V30 35395 C 3279.48 -2.80836 3.61794 0
M  V30 35396 N 3280.97 -2.88395 3.62467 0
M  V30 35397 C 3281.7 -3.47962 4.55752 0
M  V30 35398 N 3281.2 -4.08764 5.5936 0
M  V30 35399 N 3282.99 -3.45556 4.43337 0
M  V30 35400 H 3275.14 -0.361603 2.09299 0
M  V30 35401 H 3277.41 -0.222652 0.921483 0
M  V30 35402 H 3277.11 -1.38925 3.23098 0
M  V30 35403 H 3276.99 -2.92178 2.38561 0
M  V30 35404 H 3279.37 -2.56428 1.46044 0
M  V30 35405 H 3279.45 -1.03155 2.34079 0
M  V30 35406 H 3279.1 -2.29604 4.53039 0
M  V30 35407 H 3279.03 -3.82526 3.61914 0
M  V30 35408 H 3281.52 -2.45203 2.87548 0
M  V30 35409 H 3281.83 -4.52213 6.26676 0
M  V30 35410 H 3280.18 -4.07251 5.6318 0
M  V30 35411 H 3283.37 -2.97269 3.61592 0
M  V30 35412 H 3283.54 -3.91686 5.16223 0
M  V30 35413 N 3276.95 -1.11147 -1.11732 0
M  V30 35414 C 3277.89 -0.767018 -2.17682 0
M  V30 35415 C 3278.86 0.26008 -1.64051 0
M  V30 35416 O 3280.05 0.13769 -1.90303 0
M  V30 35417 C 3277.19 -0.213043 -3.44442 0
M  V30 35418 C 3276.3 -1.29633 -4.12091 0
M  V30 35419 C 3275.44 -0.703219 -5.26525 0
M  V30 35420 C 3274.48 -1.76657 -5.86053 0
M  V30 35421 N 3273.61 -1.19318 -6.91887 0
M  V30 35422 H 3278.45 -1.67469 -2.46492 0
M  V30 35423 H 3275.99 -0.836374 -1.21009 0
M  V30 35424 H 3277.95 0.126088 -4.17009 0
M  V30 35425 H 3276.58 0.657833 -3.16026 0
M  V30 35426 H 3275.63 -1.75247 -3.37628 0
M  V30 35427 H 3276.94 -2.10097 -4.52395 0
M  V30 35428 H 3276.1 -0.313966 -6.05887 0
M  V30 35429 H 3274.84 0.13277 -4.87519 0
M  V30 35430 H 3273.84 -2.16517 -5.05372 0
M  V30 35431 H 3275.07 -2.60554 -6.27127 0
M  V30 35432 H 3273.01 -0.378779 -6.54906 0
M  V30 35433 H 3272.93 -1.93456 -7.30829 0
M  V30 35434 H 3274.2 -0.830714 -7.75061 0
M  V30 35435 N 3278.43 1.29282 -0.901326 0
M  V30 35436 C 3279.37 2.29635 -0.370182 0
M  V30 35437 C 3280.37 1.60845 0.531542 0
M  V30 35438 O 3281.57 1.7517 0.414163 0
M  V30 35439 H 3277.95 0.745175 -0.101085 0
M  V30 35440 H 3279.92 2.71875 -1.2299 0
M  V30 35441 C 3278.67 3.45554 0.385745 0
M  V30 35442 H 3277.99 3.98681 -0.298888 0
M  V30 35443 H 3279.43 4.17804 0.722225 0
M  V30 35444 C 3277.89 2.97072 1.58902 0
M  V30 35445 O 3278.42 2.98486 2.68829 0
M  V30 35446 N 3276.63 2.52883 1.43174 0
M  V30 35447 H 3276.17 2.51932 0.537423 0
M  V30 35448 H 3276.13 2.20804 2.23815 0
M  V30 35449 N 3279.9 0.663979 1.4293 0
M  V30 35450 C 3280.83 -0.00727223 2.33499 0
M  V30 35451 C 3281.81 -0.800706 1.50076 0
M  V30 35452 O 3283 -0.760031 1.7871 0
M  V30 35453 C 3280.13 -0.966839 3.33571 0
M  V30 35454 C 3279.08 -0.282764 4.27065 0
M  V30 35455 C 3278.41 -1.35452 5.17259 0
M  V30 35456 C 3279.71 0.831529 5.15638 0
M  V30 35457 H 3281.4 0.749095 2.89877 0
M  V30 35458 H 3278.95 0.36168 1.39384 0
M  V30 35459 H 3280.9 -1.44542 3.95835 0
M  V30 35460 H 3279.63 -1.7545 2.75472 0
M  V30 35461 H 3278.29 0.175481 3.6618 0
M  V30 35462 H 3277.93 -2.13389 4.55493 0
M  V30 35463 H 3277.63 -0.901996 5.80636 0
M  V30 35464 H 3279.16 -1.83426 5.82398 0
M  V30 35465 H 3280.57 0.434634 5.7165 0
M  V30 35466 H 3278.97 1.20918 5.87791 0
M  V30 35467 H 3280.04 1.68495 4.54684 0
M  V30 35468 N 3281.38 -1.52265 0.406593 0
M  V30 35469 C 3282.61 -2.06685 -0.172065 0
M  V30 35470 C 3283.03 -1.2749 -1.38303 0
M  V30 35471 O 3282.39 -0.304473 -1.78725 0
M  V30 35472 C 3282.44 -3.57069 -0.5034 0
M  V30 35473 O 3281.54 -3.80316 -1.59478 0
M  V30 35474 H 3280.88 -0.663823 -0.0153092 0
M  V30 35475 H 3283.41 -1.96235 0.57906 0
M  V30 35476 H 3283.42 -4.00807 -0.762763 0
M  V30 35477 H 3282.1 -4.14143 0.381848 0
M  V30 35478 H 3280.67 -3.4846 -1.32778 0
M  V30 35479 N 3282.86 -0.136936 -1.57004 0
M  V30 35480 C 3284.11 0.516586 -1.94973 0
M  V30 35481 C 3284.42 1.66673 -1.0237 0
M  V30 35482 O 3285.63 2.3842 -1.29877 0
M  V30 35483 C 3284.08 0.970374 -3.46571 0
M  V30 35484 C 3283.69 -0.152283 -4.47741 0
M  V30 35485 C 3285.44 1.59426 -3.93426 0
M  V30 35486 C 3283.34 0.319211 -5.90538 0
M  V30 35487 H 3282.27 0.196753 -0.727877 0
M  V30 35488 H 3284.92 -0.219669 -1.8218 0
M  V30 35489 H 3283.31 1.76159 -3.5466 0
M  V30 35490 H 3284.48 -0.929004 -4.51338 0
M  V30 35491 H 3282.8 -0.683939 -4.10745 0
M  V30 35492 H 3285.39 1.95847 -4.97542 0
M  V30 35493 H 3285.74 2.47945 -3.34409 0
M  V30 35494 H 3286.27 0.868124 -3.88212 0
M  V30 35495 H 3283.01 -0.530363 -6.53351 0
M  V30 35496 H 3282.53 1.06203 -5.90323 0
M  V30 35497 H 3284.21 0.77455 -6.42347 0
M  V30 35498 N 3284.34 1.57005 0.136853 0
M  V30 35499 C 3285.27 1.95644 1.19398 0
M  V30 35500 C 3286.28 0.853502 1.38633 0
M  V30 35501 O 3287.47 1.13188 1.38025 0
M  V30 35502 C 3284.57 2.22406 2.55712 0
M  V30 35503 C 3283.75 3.53703 2.57319 0
M  V30 35504 C 3282.8 3.68886 3.75246 0
M  V30 35505 O 3281.83 4.41179 3.59652 0
M  V30 35506 N 3283.03 3.0631 4.93107 0
M  V30 35507 H 3285.8 2.86932 0.865454 0
M  V30 35508 H 3283.36 1.58577 0.326318 0
M  V30 35509 H 3285.35 2.29795 3.33131 0
M  V30 35510 H 3283.92 1.37334 2.80817 0
M  V30 35511 H 3283.14 3.57663 1.65743 0
M  V30 35512 H 3284.43 4.40036 2.55433 0
M  V30 35513 H 3283.83 2.47511 5.08679 0
M  V30 35514 H 3282.38 3.19246 5.68265 0
M  V30 35515 N 3285.82 -0.406513 1.52267 0
M  V30 35516 C 3287.23 -0.745324 1.41128 0
M  V30 35517 C 3287.43 -1.94732 0.517837 0
M  V30 35518 O 3286.49 -2.52495 -0.0153843 0
M  V30 35519 C 3287.8 -0.996809 2.83697 0
M  V30 35520 C 3289.35 -1.09936 2.93058 0
M  V30 35521 C 3289.82 -1.38359 4.36601 0
M  V30 35522 N 3291.32 -1.45219 4.39847 0
M  V30 35523 C 3292.05 -1.68843 5.47978 0
M  V30 35524 N 3291.55 -1.90053 6.66222 0
M  V30 35525 N 3293.34 -1.70879 5.35497 0
M  V30 35526 H 3285.49 0.384669 2.08888 0
M  V30 35527 H 3287.75 0.109826 0.941617 0
M  V30 35528 H 3287.46 -0.185924 3.51208 0
M  V30 35529 H 3287.33 -1.91627 3.24899 0
M  V30 35530 H 3289.72 -1.90084 2.25726 0
M  V30 35531 H 3289.8 -0.158211 2.5531 0
M  V30 35532 H 3289.45 -0.587284 5.04493 0
M  V30 35533 H 3289.38 -2.33731 4.71887 0
M  V30 35534 H 3291.87 -1.30606 3.54613 0
M  V30 35535 H 3292.18 -2.07537 7.44411 0
M  V30 35536 H 3290.52 -1.87313 6.69282 0
M  V30 35537 H 3293.72 -1.53848 4.42096 0
M  V30 35538 H 3293.89 -1.88951 6.1984 0
M  V30 35539 N 3287.29 -1.42934 -0.663904 0
M  V30 35540 C 3288.52 -1.47189 -1.44979 0
M  V30 35541 C 3288.93 -0.0850423 -1.89009 0
M  V30 35542 O 3288.28 0.912827 -1.59415 0
M  V30 35543 C 3288.34 -2.34597 -2.72405 0
M  V30 35544 C 3288 -3.82305 -2.50383 0
M  V30 35545 C 3289 -4.73685 -2.14286 0
M  V30 35546 C 3286.68 -4.26684 -2.65039 0
M  V30 35547 C 3288.68 -6.07437 -1.93128 0
M  V30 35548 C 3286.36 -5.60493 -2.43496 0
M  V30 35549 C 3287.36 -6.50687 -2.07596 0
M  V30 35550 O 3287.05 -7.82022 -1.8627 0
M  V30 35551 H 3286.78 -0.502459 -0.452229 0
M  V30 35552 H 3289.34 -1.88226 -0.822195 0
M  V30 35553 H 3287.57 -1.88428 -3.37686 0
M  V30 35554 H 3289.26 -2.3018 -3.34323 0
M  V30 35555 H 3290.02 -4.4068 -2.02549 0
M  V30 35556 H 3285.9 -3.56764 -2.91959 0
M  V30 35557 H 3289.44 -6.77798 -1.6503 0
M  V30 35558 H 3285.34 -5.93069 -2.54833 0
M  V30 35559 H 3286.11 -7.93492 -2.00781 0
M  V30 35560 N 3288.77 0.901258 -1.29287 0
M  V30 35561 C 3289.74 1.98674 -1.14286 0
M  V30 35562 C 3290.74 1.60607 -0.0787923 0
M  V30 35563 O 3291.93 1.7113 -0.325604 0
M  V30 35564 C 3289.06 3.32607 -0.747337 0
M  V30 35565 H 3290.25 2.1341 -2.10704 0
M  V30 35566 H 3287.8 1.08556 -1.12451 0
M  V30 35567 H 3288.54 3.23573 0.217054 0
M  V30 35568 H 3288.32 3.61601 -1.51614 0
M  V30 35569 H 3289.81 4.12265 -0.665395 0
M  V30 35570 N 3290.25 1.11738 1.11141 0
M  V30 35571 C 3291.5 0.869445 1.83217 0
M  V30 35572 C 3291.83 -0.603369 1.84589 0
M  V30 35573 O 3291.1 -1.44563 1.30122 0
M  V30 35574 C 3291.39 1.43564 3.30244 0
M  V30 35575 C 3291.24 2.9763 3.37248 0
M  V30 35576 C 3292.56 1.08915 4.2641 0
M  V30 35577 H 3289.68 0.317298 0.6652 0
M  V30 35578 H 3292.32 1.38278 1.30304 0
M  V30 35579 H 3290.47 0.999044 3.75435 0
M  V30 35580 H 3292.14 3.49916 3.00593 0
M  V30 35581 H 3290.39 3.33537 2.77373 0
M  V30 35582 H 3291.06 3.32336 4.40746 0
M  V30 35583 H 3293.53 1.46611 3.89416 0
M  V30 35584 H 3292.41 1.51204 5.27663 0
M  V30 35585 H 3292.67 0.000336719 4.421 0
M  V30 35586 N 3291.73 -1.28802 0.90817 0
M  V30 35587 C 3292.98 -1.94493 0.534366 0
M  V30 35588 C 3293.29 -1.7232 -0.925489 0
M  V30 35589 O 3294.5 -2.32186 -1.4072 0
M  V30 35590 C 3292.95 -3.48341 0.90481 0
M  V30 35591 C 3292.56 -3.79301 2.38401 0
M  V30 35592 C 3294.3 -4.20219 0.601323 0
M  V30 35593 C 3292.21 -5.26432 2.69487 0
M  V30 35594 H 3291.14 -0.728047 0.19612 0
M  V30 35595 H 3293.79 -1.46399 1.10632 0
M  V30 35596 H 3292.17 -3.95134 0.261694 0
M  V30 35597 H 3293.35 -3.43336 3.07339 0
M  V30 35598 H 3291.66 -3.20581 2.65738 0
M  V30 35599 H 3294.26 -5.28524 0.810318 0
M  V30 35600 H 3294.6 -4.13744 -0.460597 0
M  V30 35601 H 3295.14 -3.79185 1.20266 0
M  V30 35602 H 3291.88 -5.3798 3.74511 0
M  V30 35603 H 3291.4 -5.63614 2.05181 0
M  V30 35604 H 3293.07 -5.94114 2.56198 0
M  V30 35605 N 3293.21 -0.67155 -1.42576 0
M  V30 35606 C 3294.62 -0.270116 -1.84736 0
M  V30 35607 C 3294.97 1.18708 -1.56214 0
M  V30 35608 O 3294.09 1.90836 -1.02031 0
M  V30 35609 C 3294.69 -0.483468 -3.35333 0
M  V30 35610 C 3293.25 -0.136185 -3.76154 0
M  V30 35611 C 3292.39 -0.777491 -2.66177 0
M  V30 35612 H 3295.35 -0.873943 -1.32469 0
M  V30 35613 H 3295.37 0.265416 -3.79573 0
M  V30 35614 H 3294.88 -1.54412 -3.5606 0
M  V30 35615 H 3292.98 0.921145 -3.61034 0
M  V30 35616 H 3293.09 -0.574439 -4.75644 0
M  V30 35617 H 3291.46 -0.209099 -2.5384 0
M  V30 35618 H 3292.24 -1.84153 -2.89729 0
M  V30 35619 N 3294.68 1.52047 -0.414663 0
M  V30 35620 C 3295.61 2.30064 0.399079 0
M  V30 35621 C 3296.6 1.34507 1.04124 0
M  V30 35622 O 3297.78 1.63418 1.0492 0
M  V30 35623 C 3294.91 3.12611 1.513 0
M  V30 35624 C 3293.86 4.16261 0.995548 0
M  V30 35625 C 3293.19 4.87186 2.20348 0
M  V30 35626 C 3294.49 5.2228 0.045726 0
M  V30 35627 H 3296.18 2.98338 -0.251932 0
M  V30 35628 H 3293.73 1.43477 -0.122604 0
M  V30 35629 H 3295.68 3.65959 2.0893 0
M  V30 35630 H 3294.41 2.42117 2.19197 0
M  V30 35631 H 3293.07 3.6393 0.441612 0
M  V30 35632 H 3292.71 4.13216 2.86813 0
M  V30 35633 H 3292.41 5.57259 1.86375 0
M  V30 35634 H 3293.94 5.43349 2.78575 0
M  V30 35635 H 3295.35 5.70836 0.531001 0
M  V30 35636 H 3293.75 5.99748 -0.205465 0
M  V30 35637 H 3294.82 4.76514 -0.897891 0
M  V30 35638 N 3296.16 0.145261 1.56929 0
M  V30 35639 C 3297.39 -0.516528 2.00865 0
M  V30 35640 C 3297.81 -1.5774 1.02469 0
M  V30 35641 O 3297.17 -1.813 0.000177307 0
M  V30 35642 C 3297.22 -1.09557 3.43554 0
M  V30 35643 O 3296.32 -2.21049 3.48154 0
M  V30 35644 H 3295.66 -0.12651 0.651837 0
M  V30 35645 H 3298.19 0.241481 2.0317 0
M  V30 35646 H 3298.2 -1.42466 3.82318 0
M  V30 35647 H 3296.88 -0.318677 4.14677 0
M  V30 35648 H 3295.46 -1.89381 3.21231 0
M  V30 35649 N 3297.64 -1.57075 -0.128525 0
M  V30 35650 C 3298.87 -1.88524 -0.852417 0
M  V30 35651 C 3299.28 -0.73549 -1.73885 0
M  V30 35652 O 3298.64 0.294081 -1.80115 0
M  V30 35653 C 3298.69 -3.19364 -1.69379 0
M  V30 35654 O 3298.41 -4.29912 -0.843055 0
M  V30 35655 C 3299.91 -3.64453 -2.52366 0
M  V30 35656 H 3297.13 -0.624459 -0.245545 0
M  V30 35657 H 3299.68 -2.04172 -0.115771 0
M  V30 35658 H 3297.83 -3.05414 -2.38329 0
M  V30 35659 H 3298.25 -5.04843 -1.42246 0
M  V30 35660 H 3299.72 -4.58789 -3.06947 0
M  V30 35661 H 3300.2 -2.90642 -3.29278 0
M  V30 35662 H 3300.8 -3.81159 -1.88675 0
M  V30 35663 N 3299.12 0.398432 -1.5248 0
M  V30 35664 C 3300.07 1.50659 -1.77213 0
M  V30 35665 C 3301.06 1.56859 -0.639666 0
M  V30 35666 O 3302.27 1.60138 -0.821945 0
M  V30 35667 H 3298.64 0.501254 -0.560579 0
M  V30 35668 H 3300.61 1.26989 -2.70031 0
M  V30 35669 C 3299.36 2.87906 -1.94949 0
M  V30 35670 H 3298.69 2.83883 -2.81515 0
M  V30 35671 H 3300.13 3.64708 -2.16249 0
M  V30 35672 C 3298.58 3.29128 -0.71946 0
M  V30 35673 O 3299.11 4.01556 0.107601 0
M  V30 35674 N 3297.32 2.85304 -0.552278 0
M  V30 35675 H 3296.87 2.26532 -1.22642 0
M  V30 35676 H 3296.83 3.13244 0.269392 0
M  V30 35677 N 3300.6 1.43284 0.656314 0
M  V30 35678 C 3301.82 1.48384 1.44903 0
M  V30 35679 C 3302.25 0.102026 1.87823 0
M  V30 35680 O 3301.61 -0.903569 1.57179 0
M  V30 35681 C 3301.65 2.43219 2.66227 0
M  V30 35682 O 3300.76 1.91632 3.65173 0
M  V30 35683 H 3300.1 0.502022 0.434592 0
M  V30 35684 H 3302.63 1.88167 0.803396 0
M  V30 35685 H 3302.64 2.6042 3.14079 0
M  V30 35686 H 3301.31 3.43602 2.3433 0
M  V30 35687 H 3299.89 1.84077 3.24299 0
M  V30 35688 N 3302.08 -0.894389 1.29763 0
M  V30 35689 C 3303.32 -1.64212 1.17809 0
M  V30 35690 C 3303.64 -1.93128 -0.269554 0
M  V30 35691 O 3302.91 -1.5611 -1.1835 0
M  V30 35692 H 3301.49 -0.608694 0.433013 0
M  V30 35693 H 3304.16 -1.07213 1.62762 0
M  V30 35694 H 3303.25 -2.59627 1.73205 0
M  V30 35695 N 3303.55 -1.12326 -1.10547 0
M  V30 35696 C 3304.48 -0.812454 -2.1891 0
M  V30 35697 C 3305.46 0.223241 -1.68629 0
M  V30 35698 O 3306.65 0.0846843 -1.94015 0
M  V30 35699 C 3303.78 -0.265008 -3.46287 0
M  V30 35700 C 3302.73 -1.23363 -4.09836 0
M  V30 35701 C 3302.06 -0.546467 -5.319 0
M  V30 35702 C 3303.36 -2.58786 -4.53682 0
M  V30 35703 H 3305.05 -1.71855 -2.45166 0
M  V30 35704 H 3302.6 -0.827735 -1.17833 0
M  V30 35705 H 3304.55 -0.0353105 -4.21385 0
M  V30 35706 H 3303.28 0.676423 -3.19519 0
M  V30 35707 H 3301.94 -1.44912 -3.36743 0
M  V30 35708 H 3301.58 0.400068 -5.01406 0
M  V30 35709 H 3301.28 -1.19259 -5.7537 0
M  V30 35710 H 3302.81 -0.32578 -6.0973 0
M  V30 35711 H 3304.22 -2.41272 -5.20058 0
M  V30 35712 H 3302.62 -3.19466 -5.07998 0
M  V30 35713 H 3303.69 -3.17315 -3.66659 0
M  V30 35714 N 3305.03 1.28319 -0.914988 0
M  V30 35715 C 3306.28 1.94207 -0.544673 0
M  V30 35716 C 3306.59 1.72808 0.916338 0
M  V30 35717 O 3307.8 2.32929 1.39486 0
M  V30 35718 C 3306.26 3.47856 -0.92327 0
M  V30 35719 C 3305.86 3.78031 -2.40409 0
M  V30 35720 C 3307.61 4.19895 -0.6236 0
M  V30 35721 C 3305.51 5.24995 -2.72275 0
M  V30 35722 H 3304.44 0.726997 -0.199979 0
M  V30 35723 H 3307.1 1.4581 -1.11407 0
M  V30 35724 H 3305.48 3.9499 -0.282645 0
M  V30 35725 H 3306.65 3.41701 -3.09155 0
M  V30 35726 H 3304.97 3.19167 -2.67435 0
M  V30 35727 H 3307.56 5.28087 -0.838336 0
M  V30 35728 H 3307.91 4.13983 0.438648 0
M  V30 35729 H 3308.44 3.78542 -1.22275 0
M  V30 35730 H 3305.18 5.35986 -3.77358 0
M  V30 35731 H 3304.7 5.62518 -2.08167 0
M  V30 35732 H 3306.38 5.92747 -2.59345 0
M  V30 35733 N 3306.51 0.679102 1.42218 0
M  V30 35734 C 3307.76 0.202753 2.0108 0
M  V30 35735 C 3308.08 -1.19636 1.53988 0
M  V30 35736 O 3307.35 -1.80414 0.763391 0
M  V30 35737 H 3305.93 0.0719678 0.743525 0
M  V30 35738 H 3308.59 0.876574 1.74075 0
M  V30 35739 H 3307.69 0.207369 3.1141 0
M  V30 35740 N 3307.99 -1.51825 0.42272 0
M  V30 35741 C 3309.23 -2.0291 -0.141151 0
M  V30 35742 C 3309.59 -1.30207 -1.41647 0
M  V30 35743 O 3308.88 -0.403802 -1.87297 0
M  V30 35744 C 3309.08 -3.5481 -0.429454 0
M  V30 35745 C 3308.9 -4.42228 0.816368 0
M  V30 35746 C 3307.67 -4.87054 1.34559 0
M  V30 35747 C 3309.87 -4.85448 1.69838 0
M  V30 35748 N 3307.85 -5.5864 2.54548 0
M  V30 35749 C 3309.23 -5.55952 2.74441 0
M  V30 35750 C 3311.28 -4.67449 1.71453 0
M  V30 35751 C 3309.98 -6.10365 3.80587 0
M  V30 35752 C 3312.01 -5.22769 2.76525 0
M  V30 35753 C 3311.37 -5.93207 3.79849 0
M  V30 35754 H 3307.47 -0.781894 -0.0128646 0
M  V30 35755 H 3310.05 -1.85857 0.580116 0
M  V30 35756 H 3308.23 -3.71909 -1.11976 0
M  V30 35757 H 3309.96 -3.9257 -0.983398 0
M  V30 35758 H 3306.71 -4.64938 0.901636 0
M  V30 35759 H 3307.14 -5.99067 3.15353 0
M  V30 35760 H 3311.78 -4.12466 0.929063 0
M  V30 35761 H 3309.5 -6.64412 4.59981 0
M  V30 35762 H 3313.08 -5.10703 2.78699 0
M  V30 35763 H 3311.96 -6.35246 4.59817 0
M  V30 35764 N 3309.47 -0.153581 -1.5685 0
M  V30 35765 C 3310.71 0.496615 -1.96625 0
M  V30 35766 C 3311.04 1.64081 -1.03879 0
M  V30 35767 O 3310.32 1.94325 -0.0824454 0
M  V30 35768 C 3310.6 0.996525 -3.46037 0
M  V30 35769 C 3310.46 -0.14663 -4.49561 0
M  V30 35770 C 3311.77 1.87613 -3.98107 0
M  V30 35771 H 3308.89 0.179047 -0.71492 0
M  V30 35772 H 3311.54 -0.236137 -1.88527 0
M  V30 35773 H 3309.69 1.62094 -3.53069 0
M  V30 35774 H 3311.36 -0.783187 -4.54603 0
M  V30 35775 H 3309.6 -0.804802 -4.26269 0
M  V30 35776 H 3310.27 0.244981 -5.51456 0
M  V30 35777 H 3312.75 1.3499 -3.93595 0
M  V30 35778 H 3311.62 2.19499 -5.03102 0
M  V30 35779 H 3311.88 2.81548 -3.40857 0
M  V30 35780 N 3310.94 1.57141 0.120193 0
M  V30 35781 C 3312.35 1.73975 0.677466 0
M  V30 35782 C 3312.71 0.772086 1.8037 0
M  V30 35783 O 3311.83 -0.0552682 2.16329 0
M  V30 35784 C 3312.43 3.15462 1.23569 0
M  V30 35785 C 3310.98 3.33806 1.73927 0
M  V30 35786 C 3310.13 2.69849 0.638495 0
M  V30 35787 H 3313.08 1.58348 -0.105713 0
M  V30 35788 H 3313.1 3.16946 2.10536 0
M  V30 35789 H 3312.62 3.85866 0.415783 0
M  V30 35790 H 3310.72 2.68441 2.58399 0
M  V30 35791 H 3310.83 4.4196 1.84954 0
M  V30 35792 H 3309.19 2.31051 1.07181 0
M  V30 35793 H 3309.98 3.42877 -0.170416 0
M  V30 35794 N 3312.42 -0.39034 1.5269 0
M  V30 35795 C 3313.37 -1.47627 1.73753 0
M  V30 35796 C 3314.36 -1.49629 0.591598 0
M  V30 35797 O 3315.55 -1.55288 0.849381 0
M  V30 35798 C 3312.68 -2.85355 1.9086 0
M  V30 35799 C 3311.76 -2.87927 3.11382 0
M  V30 35800 N 3312.15 -2.60173 4.33756 0
M  V30 35801 C 3310.45 -3.19095 3.11599 0
M  V30 35802 C 3311.15 -2.69794 5.1535 0
M  V30 35803 N 3310.13 -3.03468 4.51008 0
M  V30 35804 H 3313.93 -1.24993 2.65996 0
M  V30 35805 H 3311.45 -0.598274 1.50978 0
M  V30 35806 H 3313.44 -3.63539 2.04072 0
M  V30 35807 H 3312.1 -3.08973 0.998295 0
M  V30 35808 H 3313.11 -2.34218 4.61911 0
M  V30 35809 H 3309.79 -3.48187 2.30374 0
M  V30 35810 H 3311.18 -2.51891 6.22897 0
M  V30 35811 N 3313.9 -1.4363 -0.648706 0
M  V30 35812 C 3315.14 -1.46993 -1.4203 0
M  V30 35813 C 3315.5 -0.0932178 -1.91774 0
M  V30 35814 O 3316.71 -0.00153228 -2.688 0
M  V30 35815 C 3314.98 -2.48688 -2.56688 0
M  V30 35816 S 3316.54 -2.70962 -3.45145 0
M  V30 35817 H 3313.35 -0.520121 -0.484763 0
M  V30 35818 H 3315.96 -1.80429 -0.752708 0
M  V30 35819 H 3314.66 -3.47446 -2.18425 0
M  V30 35820 H 3314.19 -2.16766 -3.28293 0
M  V30 35821 H 3316.21 -2.01229 -4.53565 0
M  V30 35822 N 3315.38 0.887495 -1.30236 0
M  V30 35823 C 3316.66 1.62027 -1.09575 0
M  V30 35824 C 3317.04 2.08079 0.355841 0
M  V30 35825 O 3316.38 1.84584 1.34689 0
M  V30 35826 C 3316.59 2.79174 -2.09435 0
M  V30 35827 C 3317.94 3.49566 -2.41016 0
M  V30 35828 O 3318.97 2.89359 -2.07725 0
M  V30 35829 O 3317.82 4.58135 -2.97951 0
M  V30 35830 H 3314.92 0.712021 -0.420661 0
M  V30 35831 H 3317.46 0.934492 -1.41652 0
M  V30 35832 H 3316.24 2.4243 -3.07154 0
M  V30 35833 H 3315.86 3.5545 -1.7816 0
M  V30 35834 N 3316.86 1.12911 1.0995 0
M  V30 35835 C 3318.08 0.910516 1.85788 0
M  V30 35836 C 3318.5 -0.540452 1.80899 0
M  V30 35837 O 3317.86 -1.37387 1.20129 0
M  V30 35838 C 3317.91 1.38335 3.33985 0
M  V30 35839 O 3317.63 2.77745 3.38806 0
M  V30 35840 C 3319.13 1.20241 4.26681 0
M  V30 35841 H 3316.35 0.325036 0.58702 0
M  V30 35842 H 3318.89 1.50032 1.38963 0
M  V30 35843 H 3317.05 0.836658 3.78258 0
M  V30 35844 H 3317.46 2.9861 4.31199 0
M  V30 35845 H 3318.94 1.58207 5.28843 0
M  V30 35846 H 3319.41 0.143517 4.38965 0
M  V30 35847 H 3320.02 1.73686 3.88218 0
M  V30 35848 N 3318.33 -1.27832 0.92178 0
M  V30 35849 C 3319.26 -2.29441 0.433506 0
M  V30 35850 C 3320.25 -1.6249 -0.503104 0
M  V30 35851 O 3321.43 -1.89842 -0.409122 0
M  V30 35852 C 3318.56 -3.45823 -0.319968 0
M  V30 35853 C 3317.51 -4.24728 0.528253 0
M  V30 35854 C 3316.84 -5.33527 -0.354038 0
M  V30 35855 C 3318.14 -4.90681 1.78967 0
M  V30 35856 H 3319.83 -2.70532 1.28268 0
M  V30 35857 H 3317.38 -1.30054 0.61822 0
M  V30 35858 H 3319.33 -4.16 -0.672453 0
M  V30 35859 H 3318.06 -3.03633 -1.20311 0
M  V30 35860 H 3316.72 -3.56289 0.863364 0
M  V30 35861 H 3316.36 -4.87579 -1.23596 0
M  V30 35862 H 3316.06 -5.87225 0.209958 0
M  V30 35863 H 3317.59 -6.06549 -0.702226 0
M  V30 35864 H 3319 -5.53176 1.50561 0
M  V30 35865 H 3317.4 -5.54411 2.2967 0
M  V30 35866 H 3318.47 -4.14717 2.51273 0
M  V30 35867 N 3319.81 -0.686634 -1.41856 0
M  V30 35868 C 3320.76 0.00730658 -2.27999 0
M  V30 35869 C 3321.75 0.761783 -1.41724 0
M  V30 35870 O 3322.94 0.638747 -1.65073 0
M  V30 35871 C 3320.07 0.949404 -3.29911 0
M  V30 35872 C 3319.15 0.191648 -4.23667 0
M  V30 35873 N 3319.54 -0.809803 -4.99275 0
M  V30 35874 C 3317.84 0.428411 -4.43938 0
M  V30 35875 C 3318.54 -1.2626 -5.67832 0
M  V30 35876 N 3317.52 -0.590246 -5.40386 0
M  V30 35877 H 3321.32 -0.760658 -2.83886 0
M  V30 35878 H 3318.84 -0.516703 -1.53961 0
M  V30 35879 H 3320.83 1.46162 -3.90438 0
M  V30 35880 H 3319.49 1.71706 -2.75585 0
M  V30 35881 H 3320.5 -1.18975 -5.04049 0
M  V30 35882 H 3317.18 1.17465 -4.00635 0
M  V30 35883 H 3318.57 -2.09312 -6.38465 0
M  V30 35884 N 3321.29 1.51599 -0.430766 0
M  V30 35885 C 3322.25 2.26156 0.372279 0
M  V30 35886 C 3323.25 1.29346 0.955315 0
M  V30 35887 O 3324.44 1.53112 0.830796 0
M  V30 35888 C 3321.58 3.04834 1.52608 0
M  V30 35889 H 3322.77 2.9858 -0.281048 0
M  V30 35890 H 3320.32 1.55216 -0.183776 0
M  V30 35891 H 3321.06 2.36811 2.21565 0
M  V30 35892 H 3320.84 3.75934 1.11426 0
M  V30 35893 H 3322.33 3.61328 2.0936 0
M  V30 35894 N 3322.77 0.161897 1.56766 0
M  V30 35895 C 3323.7 -0.767879 2.20513 0
M  V30 35896 C 3324.68 -1.2461 1.15785 0
M  V30 35897 O 3325.86 -1.30097 1.44182 0
M  V30 35898 C 3322.99 -2.0012 2.83847 0
M  V30 35899 C 3321.95 -1.65919 3.94531 0
M  V30 35900 C 3321.27 -2.96638 4.44871 0
M  V30 35901 C 3322.57 -0.894406 5.14585 0
M  V30 35902 H 3324.27 -0.236555 2.98464 0
M  V30 35903 H 3321.81 -0.112338 1.43561 0
M  V30 35904 H 3323.77 -2.65658 3.27114 0
M  V30 35905 H 3322.49 -2.5565 2.0325 0
M  V30 35906 H 3321.15 -1.02753 3.51905 0
M  V30 35907 H 3320.8 -3.50189 3.61077 0
M  V30 35908 H 3320.5 -2.74512 5.19536 0
M  V30 35909 H 3322.02 -3.63222 4.90818 0
M  V30 35910 H 3323.44 -1.45218 5.54603 0
M  V30 35911 H 3321.83 -0.772531 5.95107 0
M  V30 35912 H 3322.9 0.111071 4.84773 0
M  V30 35913 N 3324.25 -1.57203 -0.111858 0
M  V30 35914 C 3325.5 -1.84413 -0.81699 0
M  V30 35915 C 3325.81 -0.74864 -1.80706 0
M  V30 35916 O 3327.01 -0.907364 -2.55889 0
M  V30 35917 C 3325.47 -3.26981 -1.50371 0
M  V30 35918 C 3325.08 -4.44558 -0.554256 0
M  V30 35919 C 3326.82 -3.63433 -2.19355 0
M  V30 35920 C 3324.73 -5.78155 -1.2446 0
M  V30 35921 H 3323.66 -0.687842 -0.308852 0
M  V30 35922 H 3326.31 -1.83367 -0.0697786 0
M  V30 35923 H 3324.69 -3.22518 -2.29779 0
M  V30 35924 H 3325.87 -4.60334 0.207126 0
M  V30 35925 H 3324.18 -4.1639 0.0289993 0
M  V30 35926 H 3326.78 -4.6052 -2.71708 0
M  V30 35927 H 3327.12 -2.91221 -2.97483 0
M  V30 35928 H 3327.65 -3.69712 -1.46826 0
M  V30 35929 H 3324.39 -6.53556 -0.504469 0
M  V30 35930 H 3323.91 -5.66253 -1.97782 0
M  V30 35931 H 3325.59 -6.22153 -1.7758 0
M  V30 35932 N 3325.72 0.382237 -1.52894 0
M  V30 35933 C 3327.14 0.722777 -1.42296 0
M  V30 35934 C 3327.34 1.93884 -0.548751 0
M  V30 35935 O 3326.4 2.52488 -0.0247875 0
M  V30 35936 C 3327.71 0.95155 -2.85247 0
M  V30 35937 C 3329.26 1.0526 -2.9477 0
M  V30 35938 C 3329.73 1.31396 -4.38747 0
M  V30 35939 N 3331.22 1.38203 -4.42102 0
M  V30 35940 C 3331.96 1.60103 -5.50595 0
M  V30 35941 N 3331.45 1.7943 -6.69161 0
M  V30 35942 N 3333.25 1.62338 -5.38148 0
M  V30 35943 H 3325.4 -0.417853 -2.08249 0
M  V30 35944 H 3327.66 -0.124792 -0.93975 0
M  V30 35945 H 3327.37 0.130027 -3.5146 0
M  V30 35946 H 3327.24 1.86434 -3.27906 0
M  V30 35947 H 3329.63 1.86468 -2.28722 0
M  V30 35948 H 3329.71 0.117574 -2.5553 0
M  V30 35949 H 3329.35 0.50695 -5.05364 0
M  V30 35950 H 3329.28 2.26194 -4.75546 0
M  V30 35951 H 3331.77 1.24948 -3.56646 0
M  V30 35952 H 3332.09 1.95668 -7.47619 0
M  V30 35953 H 3330.43 1.76641 -6.72178 0
M  V30 35954 H 3333.62 1.46795 -4.44487 0
M  V30 35955 H 3333.8 1.79066 -6.22768 0
M  V30 35956 N 3327.2 1.43972 0.64108 0
M  V30 35957 C 3328.48 1.36707 1.39895 0
M  V30 35958 C 3328.86 0.0208422 2.1109 0
M  V30 35959 O 3328.21 -0.996214 2.0564 0
M  V30 35960 C 3328.42 2.55853 2.37361 0
M  V30 35961 C 3329.77 2.99479 3.00995 0
M  V30 35962 O 3330.79 2.55987 2.47688 0
M  V30 35963 O 3329.65 3.74858 3.97673 0
M  V30 35964 H 3326.74 0.540866 0.625614 0
M  V30 35965 H 3329.29 1.56044 0.66697 0
M  V30 35966 H 3328.06 3.45455 1.83784 0
M  V30 35967 H 3327.68 2.38678 3.17991 0
M  V30 35968 N 3328.68 -0.880575 1.30704 0
M  V30 35969 C 3329.91 -1.66336 1.22539 0
M  V30 35970 C 3330.32 -1.87992 -0.213474 0
M  V30 35971 O 3329.66 -1.43063 -1.15233 0
M  V30 35972 C 3329.72 -3.05931 1.88803 0
M  V30 35973 C 3329.39 -3.07429 3.38137 0
M  V30 35974 C 3330.39 -2.86163 4.34058 0
M  V30 35975 C 3328.07 -3.28887 3.79656 0
M  V30 35976 C 3330.06 -2.86318 5.69474 0
M  V30 35977 C 3327.75 -3.28671 5.15188 0
M  V30 35978 C 3328.75 -3.07412 6.09907 0
M  V30 35979 O 3328.44 -3.07021 7.42963 0
M  V30 35980 H 3328.17 -0.525669 0.425027 0
M  V30 35981 H 3330.72 -1.10817 1.72941 0
M  V30 35982 H 3328.95 -3.63132 1.32936 0
M  V30 35983 H 3330.64 -3.66382 1.74697 0
M  V30 35984 H 3331.41 -2.69378 4.03312 0
M  V30 35985 H 3327.29 -3.44468 3.06371 0
M  V30 35986 H 3330.83 -2.69644 6.4338 0
M  V30 35987 H 3326.73 -3.44993 5.45573 0
M  V30 35988 H 3327.5 -3.23156 7.52006 0
M  V30 35989 N 3330.16 -1.13492 -1.09349 0
M  V30 35990 C 3331.58 -0.873292 -1.33588 0
M  V30 35991 C 3331.78 0.490733 -1.95433 0
M  V30 35992 O 3330.83 1.23708 -2.20119 0
M  V30 35993 C 3332.14 -1.99851 -2.24677 0
M  V30 35994 C 3333.69 -2.0307 -2.38184 0
M  V30 35995 C 3334.17 -3.14857 -3.3261 0
M  V30 35996 N 3335.66 -3.14372 -3.40183 0
M  V30 35997 C 3336.39 -3.97508 -4.13249 0
M  V30 35998 N 3335.89 -4.90661 -4.89105 0
M  V30 35999 N 3337.68 -3.85604 -4.08981 0
M  V30 36000 H 3329.83 -2.01362 -0.675817 0
M  V30 36001 H 3332.1 -0.876882 -0.360252 0
M  V30 36002 H 3331.8 -2.98202 -1.86464 0
M  V30 36003 H 3331.68 -1.91333 -3.25071 0
M  V30 36004 H 3334.06 -1.05332 -2.75661 0
M  V30 36005 H 3334.14 -2.1566 -1.37566 0
M  V30 36006 H 3333.79 -4.12834 -2.95856 0
M  V30 36007 H 3333.72 -2.99504 -4.33134 0
M  V30 36008 H 3336.21 -2.46897 -2.86095 0
M  V30 36009 H 3336.52 -5.50583 -5.4229 0
M  V30 36010 H 3334.87 -4.94666 -4.88191 0
M  V30 36011 H 3338.06 -3.12157 -3.48821 0
M  V30 36012 H 3338.23 -4.50624 -4.65663 0
M  V30 36013 N 3331.64 1.27341 -0.928546 0
M  V30 36014 C 3332.55 2.30552 -0.433942 0
M  V30 36015 C 3333.56 1.67081 0.485803 0
M  V30 36016 O 3334.74 1.98002 0.368405 0
M  V30 36017 C 3331.8 3.4536 0.304556 0
M  V30 36018 C 3330.87 4.24348 -0.650206 0
M  V30 36019 C 3330.1 5.33674 0.0531434 0
M  V30 36020 O 3330.32 5.56028 1.27236 0
M  V30 36021 O 3329.26 5.98707 -0.619115 0
M  V30 36022 H 3333.08 2.74897 -1.29095 0
M  V30 36023 H 3330.67 1.32307 -0.693926 0
M  V30 36024 H 3332.55 4.15185 0.721064 0
M  V30 36025 H 3331.22 3.03068 1.13715 0
M  V30 36026 H 3330.13 3.57053 -1.11641 0
M  V30 36027 H 3331.46 4.70356 -1.45005 0
M  V30 36028 N 3333.12 0.694147 1.4149 0
M  V30 36029 C 3334.06 0.0279229 2.30783 0
M  V30 36030 C 3335.03 -0.772757 1.47029 0
M  V30 36031 O 3336.22 -0.741079 1.7582 0
M  V30 36032 C 3333.36 -0.90352 3.33062 0
M  V30 36033 C 3332.47 -0.0946064 4.31896 0
M  V30 36034 C 3331.61 -1.02356 5.21245 0
M  V30 36035 C 3330.64 -0.207471 6.11748 0
M  V30 36036 N 3329.78 -1.09015 6.93585 0
M  V30 36037 H 3334.62 0.795143 2.87196 0
M  V30 36038 H 3332.16 0.40383 1.41448 0
M  V30 36039 H 3334.12 -1.45758 3.9091 0
M  V30 36040 H 3332.75 -1.63715 2.78203 0
M  V30 36041 H 3331.8 0.576355 3.76008 0
M  V30 36042 H 3333.11 0.538146 4.95889 0
M  V30 36043 H 3332.26 -1.6469 5.8392 0
M  V30 36044 H 3331 -1.69017 4.57476 0
M  V30 36045 H 3330.01 0.42895 5.48124 0
M  V30 36046 H 3331.23 0.455325 6.77572 0
M  V30 36047 H 3329.18 -1.74281 6.32426 0
M  V30 36048 H 3329.1 -0.51294 7.54258 0
M  V30 36049 H 3330.36 -1.70035 7.60729 0
M  V30 36050 N 3334.59 -1.51368 0.438799 0
M  V30 36051 C 3335.54 -2.27784 -0.37191 0
M  V30 36052 C 3336.51 -1.31437 -1.01556 0
M  V30 36053 O 3337.7 -1.60341 -1.03418 0
M  V30 36054 C 3334.84 -3.12399 -1.46631 0
M  V30 36055 C 3333.95 -4.23742 -0.840653 0
M  V30 36056 C 3333.08 -4.95665 -1.91022 0
M  V30 36057 C 3332.12 -5.98926 -1.26308 0
M  V30 36058 N 3331.26 -6.64252 -2.27408 0
M  V30 36059 H 3336.1 -2.96623 0.2861 0
M  V30 36060 H 3333.64 -1.46303 0.152935 0
M  V30 36061 H 3335.59 -3.59785 -2.11213 0
M  V30 36062 H 3334.22 -2.45671 -2.09393 0
M  V30 36063 H 3333.28 -3.80309 -0.083092 0
M  V30 36064 H 3334.59 -4.97719 -0.328198 0
M  V30 36065 H 3333.74 -5.46606 -2.63262 0
M  V30 36066 H 3332.48 -4.21321 -2.45641 0
M  V30 36067 H 3331.49 -5.47277 -0.52615 0
M  V30 36068 H 3332.71 -6.75227 -0.724205 0
M  V30 36069 H 3330.66 -5.9272 -2.81104 0
M  V30 36070 H 3330.57 -7.33999 -1.81058 0
M  V30 36071 H 3331.84 -7.19822 -2.99127 0
M  V30 36072 N 3336.07 -0.170208 -1.56678 0
M  V30 36073 C 3337.02 0.760518 -2.1791 0
M  V30 36074 C 3337.99 1.22771 -1.11877 0
M  V30 36075 O 3339.17 1.29608 -1.40023 0
M  V30 36076 C 3336.31 1.98485 -2.82308 0
M  V30 36077 C 3335.43 1.56133 -4.02798 0
M  V30 36078 C 3334.56 2.73924 -4.55126 0
M  V30 36079 C 3333.6 2.28057 -5.68029 0
M  V30 36080 N 3332.74 3.38937 -6.14871 0
M  V30 36081 H 3337.58 0.231577 -2.97099 0
M  V30 36082 H 3335.11 0.102576 -1.46742 0
M  V30 36083 H 3337.07 2.70293 -3.17801 0
M  V30 36084 H 3335.7 2.48751 -2.05725 0
M  V30 36085 H 3334.75 0.740031 -3.73132 0
M  V30 36086 H 3336.07 1.18464 -4.84528 0
M  V30 36087 H 3335.22 3.5389 -4.92795 0
M  V30 36088 H 3333.96 3.14852 -3.72451 0
M  V30 36089 H 3332.96 1.46537 -5.29912 0
M  V30 36090 H 3334.19 1.88188 -6.52505 0
M  V30 36091 H 3332.14 3.79443 -5.35126 0
M  V30 36092 H 3332.05 3.05357 -6.91587 0
M  V30 36093 H 3333.32 4.19191 -6.5719 0
M  V30 36094 N 3337.55 1.5726 0.10352 0
M  V30 36095 C 3338.8 1.84844 0.807198 0
M  V30 36096 C 3339.11 0.758213 1.80307 0
M  V30 36097 O 3340.32 0.920922 2.55404 0
M  V30 36098 C 3338.77 3.27774 1.48634 0
M  V30 36099 C 3338.38 4.44846 0.530672 0
M  V30 36100 C 3340.13 3.64591 2.17425 0
M  V30 36101 C 3338.03 5.78807 1.21393 0
M  V30 36102 H 3336.96 0.68947 0.3052 0
M  V30 36103 H 3339.61 1.83402 0.0600532 0
M  V30 36104 H 3338 3.23732 2.28065 0
M  V30 36105 H 3339.17 4.60218 -0.231536 0
M  V30 36106 H 3337.48 4.16369 -0.051081 0
M  V30 36107 H 3340.08 4.61955 2.69262 0
M  V30 36108 H 3340.42 2.92794 2.95935 0
M  V30 36109 H 3340.96 3.70485 1.44863 0
M  V30 36110 H 3337.7 6.53814 0.469803 0
M  V30 36111 H 3337.22 5.67294 1.94777 0
M  V30 36112 H 3338.9 6.23086 1.74278 0
M  V30 36113 N 3339.03 -0.374123 1.53095 0
M  V30 36114 C 3339.96 -1.46401 1.81904 0
M  V30 36115 C 3340.94 -1.56264 0.671977 0
M  V30 36116 O 3342.12 -1.70971 0.921008 0
M  V30 36117 C 3339.25 -2.83842 2.00128 0
M  V30 36118 C 3338.21 -2.88809 3.15869 0
M  V30 36119 C 3337.53 -4.28842 3.19372 0
M  V30 36120 C 3338.83 -2.57104 4.54637 0
M  V30 36121 H 3340.53 -1.22542 2.73174 0
M  V30 36122 H 3338.07 -0.588064 1.31445 0
M  V30 36123 H 3340.03 -3.60106 2.18865 0
M  V30 36124 H 3338.75 -3.0907 1.05561 0
M  V30 36125 H 3337.41 -2.14995 2.96939 0
M  V30 36126 H 3337.06 -4.51133 2.22458 0
M  V30 36127 H 3336.76 -4.33083 3.97131 0
M  V30 36128 H 3338.28 -5.06991 3.40282 0
M  V30 36129 H 3339.7 -3.23083 4.73593 0
M  V30 36130 H 3338.09 -2.72673 5.34574 0
M  V30 36131 H 3339.16 -1.52384 4.60334 0
M  V30 36132 N 3340.51 -1.4431 -0.633436 0
M  V30 36133 C 3341.44 -1.53822 -1.75673 0
M  V30 36134 C 3342.42 -0.391394 -1.65536 0
M  V30 36135 O 3343.6 -0.611214 -1.84331 0
M  V30 36136 C 3340.73 -1.47984 -3.14194 0
M  V30 36137 C 3339.69 -2.61119 -3.39118 0
M  V30 36138 C 3339.01 -2.40334 -4.77644 0
M  V30 36139 C 3340.31 -4.0328 -3.31907 0
M  V30 36140 H 3342.01 -2.47844 -1.6797 0
M  V30 36141 H 3339.55 -1.19284 -0.806679 0
M  V30 36142 H 3341.5 -1.5324 -3.9255 0
M  V30 36143 H 3340.23 -0.504775 -3.22676 0
M  V30 36144 H 3338.89 -2.5525 -2.63141 0
M  V30 36145 H 3338.54 -1.41025 -4.82826 0
M  V30 36146 H 3338.24 -3.16185 -4.95278 0
M  V30 36147 H 3339.76 -2.47403 -5.58233 0
M  V30 36148 H 3341.17 -4.10531 -4.00171 0
M  V30 36149 H 3339.57 -4.79316 -3.61076 0
M  V30 36150 H 3340.64 -4.27014 -2.29754 0
M  V30 36151 N 3341.98 0.873632 -1.3117 0
M  V30 36152 C 3342.93 2.00189 -1.18435 0
M  V30 36153 C 3343.93 1.69142 -0.093517 0
M  V30 36154 O 3345.13 1.78182 -0.255157 0
M  V30 36155 H 3341.51 0.656585 -0.366606 0
M  V30 36156 H 3343.48 2.08061 -2.139 0
M  V30 36157 C 3342.23 3.35723 -0.904727 0
M  V30 36158 H 3341.55 3.60132 -1.73623 0
M  V30 36159 H 3342.99 4.15274 -0.855788 0
M  V30 36160 C 3341.45 3.34606 0.392495 0
M  V30 36161 O 3341.98 3.76124 1.41045 0
M  V30 36162 N 3340.19 2.87726 0.40772 0
M  V30 36163 H 3339.73 2.54134 -0.421165 0
M  V30 36164 H 3339.69 2.87361 1.27559 0
M  V30 36165 N 3343.46 1.1407 1.08746 0
M  V30 36166 C 3344.71 0.901383 1.80438 0
M  V30 36167 C 3345.02 -0.573758 1.86996 0
M  V30 36168 O 3346.23 -0.93023 2.55067 0
M  V30 36169 C 3344.69 1.56314 3.24182 0
M  V30 36170 C 3344.29 3.0743 3.2587 0
M  V30 36171 C 3346.04 1.4048 4.00582 0
M  V30 36172 C 3343.95 3.66458 4.6418 0
M  V30 36173 H 3342.88 0.333581 0.676195 0
M  V30 36174 H 3345.53 1.36922 1.22166 0
M  V30 36175 H 3343.91 1.02297 3.82559 0
M  V30 36176 H 3345.08 3.68085 2.77219 0
M  V30 36177 H 3343.4 3.22861 2.62963 0
M  V30 36178 H 3345.99 1.81985 5.02778 0
M  V30 36179 H 3346.34 0.350481 4.14822 0
M  V30 36180 H 3346.87 1.91514 3.48665 0
M  V30 36181 H 3343.61 4.71727 4.55142 0
M  V30 36182 H 3343.13 3.10583 5.13126 0
M  V30 36183 H 3344.81 3.66545 5.33154 0
M  V30 36184 N 3344.94 -1.26847 0.935286 0
M  V30 36185 C 3345.85 -2.30318 0.446162 0
M  V30 36186 C 3346.87 -1.67336 -0.476935 0
M  V30 36187 O 3348.04 -1.98194 -0.357899 0
M  V30 36188 C 3345.11 -3.45516 -0.286237 0
M  V30 36189 C 3344.17 -4.23997 0.672701 0
M  V30 36190 C 3343.4 -5.33694 -0.0248406 0
M  V30 36191 O 3343.62 -5.56695 -1.24286 0
M  V30 36192 O 3342.56 -5.98371 0.650857 0
M  V30 36193 H 3346.38 -2.74208 1.30551 0
M  V30 36194 H 3343.97 -1.31937 0.700933 0
M  V30 36195 H 3345.85 -4.15562 -0.699035 0
M  V30 36196 H 3344.53 -3.03667 -1.12106 0
M  V30 36197 H 3343.43 -3.56456 1.13533 0
M  V30 36198 H 3344.77 -4.6958 1.47497 0
M  V30 36199 N 3346.42 -0.701641 -1.4112 0
M  V30 36200 C 3347.37 -0.0168762 -2.27994 0
M  V30 36201 C 3348.35 0.746708 -1.42524 0
M  V30 36202 O 3349.54 0.621202 -1.65741 0
M  V30 36203 C 3346.67 0.914359 -3.30899 0
M  V30 36204 C 3345.76 0.146701 -4.23846 0
M  V30 36205 N 3346.15 -0.862712 -4.98388 0
M  V30 36206 C 3344.45 0.381302 -4.44367 0
M  V30 36207 C 3345.15 -1.32276 -5.66461 0
M  V30 36208 N 3344.13 -0.647527 -5.3973 0
M  V30 36209 H 3347.93 -0.790725 -2.83063 0
M  V30 36210 H 3345.44 -0.533004 -1.53404 0
M  V30 36211 H 3347.44 1.42013 -3.91967 0
M  V30 36212 H 3346.1 1.68774 -2.7739 0
M  V30 36213 H 3347.11 -1.24314 -5.02759 0
M  V30 36214 H 3343.79 1.13209 -4.01858 0
M  V30 36215 H 3345.18 -2.16072 -6.36209 0
M  V30 36216 N 3347.9 1.51133 -0.446821 0
M  V30 36217 C 3349.31 1.59289 -0.0996185 0
M  V30 36218 C 3349.51 1.45701 1.39188 0
M  V30 36219 O 3348.57 1.30307 2.16278 0
M  V30 36220 C 3349.88 2.94065 -0.628186 0
M  V30 36221 C 3351.43 3.07399 -0.589463 0
M  V30 36222 C 3351.9 4.44714 -1.09516 0
M  V30 36223 N 3353.4 4.51059 -1.05355 0
M  V30 36224 C 3354.13 5.55651 -1.4156 0
M  V30 36225 N 3353.63 6.67616 -1.85097 0
M  V30 36226 N 3355.42 5.46061 -1.33317 0
M  V30 36227 H 3347.57 1.5821 -1.41716 0
M  V30 36228 H 3349.83 0.746314 -0.584568 0
M  V30 36229 H 3349.54 3.09408 -1.6721 0
M  V30 36230 H 3349.41 3.77155 -0.0583061 0
M  V30 36231 H 3351.8 2.91718 0.44549 0
M  V30 36232 H 3351.88 2.26126 -1.19586 0
M  V30 36233 H 3351.53 4.61142 -2.12863 0
M  V30 36234 H 3351.46 5.24541 -0.465214 0
M  V30 36235 H 3353.95 3.70704 -0.733942 0
M  V30 36236 H 3354.26 7.43455 -2.10936 0
M  V30 36237 H 3352.6 6.68799 -1.89032 0
M  V30 36238 H 3355.8 4.57476 -0.991627 0
M  V30 36239 H 3355.97 6.27459 -1.61861 0
M  V30 36240 N 3349.37 0.178515 1.56586 0
M  V30 36241 C 3350.62 -0.46471 1.96274 0
M  V30 36242 C 3350.94 -1.639 1.06753 0
M  V30 36243 O 3352.14 -2.34893 1.36152 0
M  V30 36244 C 3350.6 -0.878146 3.49022 0
M  V30 36245 C 3350.21 0.27094 4.4718 0
M  V30 36246 C 3351.95 -1.48939 3.97514 0
M  V30 36247 C 3349.86 -0.162529 5.91177 0
M  V30 36248 H 3348.79 -0.177386 0.732837 0
M  V30 36249 H 3351.44 0.267893 1.81534 0
M  V30 36250 H 3349.82 -1.66694 3.59206 0
M  V30 36251 H 3350.99 1.04834 4.48716 0
M  V30 36252 H 3349.31 0.792601 4.08787 0
M  V30 36253 H 3351.91 -1.82587 5.0256 0
M  V30 36254 H 3352.25 -2.38991 3.40865 0
M  V30 36255 H 3352.78 -0.764892 3.90377 0
M  V30 36256 H 3349.52 0.703401 6.51715 0
M  V30 36257 H 3349.04 -0.905139 5.92931 0
M  V30 36258 H 3350.72 -0.60397 6.44175 0
M  V30 36259 N 3350.85 -1.57312 -0.0951784 0
M  V30 36260 C 3351.79 -1.97303 -1.14659 0
M  V30 36261 C 3352.76 -0.846237 -1.38844 0
M  V30 36262 O 3353.95 -1.10652 -1.52605 0
M  V30 36263 C 3351.07 -2.28973 -2.49578 0
M  V30 36264 C 3350.12 -3.5142 -2.41674 0
M  V30 36265 S 3350.95 -5.03139 -1.83335 0
M  V30 36266 C 3352.11 -5.37986 -3.19879 0
M  V30 36267 H 3352.34 -2.86175 -0.805675 0
M  V30 36268 H 3349.88 -1.51401 -0.302854 0
M  V30 36269 H 3351.83 -2.47895 -3.27198 0
M  V30 36270 H 3350.49 -1.40672 -2.80838 0
M  V30 36271 H 3349.69 -3.71021 -3.41115 0
M  V30 36272 H 3349.29 -3.32007 -1.72184 0
M  V30 36273 H 3351.58 -5.34626 -4.16151 0
M  V30 36274 H 3352.52 -6.39008 -3.05081 0
M  V30 36275 H 3352.93 -4.65446 -3.19406 0
M  V30 36276 N 3352.33 0.365999 -1.53291 0
M  V30 36277 C 3353.26 1.45434 -1.82678 0
M  V30 36278 C 3354.24 1.55906 -0.680255 0
M  V30 36279 O 3355.43 1.7048 -0.930062 0
M  V30 36280 C 3352.56 2.82776 -2.01631 0
M  V30 36281 C 3351.51 2.8713 -3.17397 0
M  V30 36282 C 3350.84 4.27142 -3.21642 0
M  V30 36283 C 3352.14 2.54689 -4.55994 0
M  V30 36284 H 3353.83 1.21091 -2.7382 0
M  V30 36285 H 3351.38 0.581085 -1.31755 0
M  V30 36286 H 3353.33 3.5894 -2.20772 0
M  V30 36287 H 3352.05 3.08506 -1.07198 0
M  V30 36288 H 3350.71 2.13417 -2.98075 0
M  V30 36289 H 3350.36 4.49947 -2.24848 0
M  V30 36290 H 3350.06 4.30971 -3.99422 0
M  V30 36291 H 3351.58 5.0518 -3.42966 0
M  V30 36292 H 3353 3.20567 -4.753 0
M  V30 36293 H 3351.4 2.69835 -5.36012 0
M  V30 36294 H 3352.47 1.49941 -4.61135 0
M  V30 36295 N 3353.81 1.44644 0.625774 0
M  V30 36296 C 3355.22 1.28649 0.944547 0
M  V30 36297 C 3355.42 0.226169 2.00227 0
M  V30 36298 O 3354.48 -0.386118 2.4953 0
M  V30 36299 C 3355.79 2.65977 1.40273 0
M  V30 36300 C 3357.34 2.7373 1.51792 0
M  V30 36301 C 3357.82 4.11541 2.00992 0
M  V30 36302 N 3359.31 4.13744 2.08254 0
M  V30 36303 C 3360.04 5.17232 2.47506 0
M  V30 36304 N 3359.54 6.31077 2.85856 0
M  V30 36305 N 3361.33 5.04587 2.47686 0
M  V30 36306 H 3353.48 2.12272 -0.073653 0
M  V30 36307 H 3355.75 0.947535 0.0296832 0
M  V30 36308 H 3355.45 3.44667 0.699811 0
M  V30 36309 H 3355.33 2.93225 2.37274 0
M  V30 36310 H 3357.71 1.95355 2.21179 0
M  V30 36311 H 3357.79 2.50217 0.53153 0
M  V30 36312 H 3357.44 4.90394 1.32198 0
M  V30 36313 H 3357.37 4.32435 3.00513 0
M  V30 36314 H 3359.86 3.31581 1.8128 0
M  V30 36315 H 3360.17 7.0585 3.14635 0
M  V30 36316 H 3358.52 6.34507 2.83594 0
M  V30 36317 H 3361.71 4.147 2.1712 0
M  V30 36318 H 3361.88 5.8536 2.77952 0
M  V30 36319 N 3355.29 -0.866663 1.31631 0
M  V30 36320 C 3356.22 -1.97748 1.1389 0
M  V30 36321 C 3357.2 -1.62547 0.0415173 0
M  V30 36322 O 3358.38 -1.87451 0.198567 0
M  V30 36323 C 3355.51 -3.30497 0.740916 0
M  V30 36324 C 3354.55 -3.84681 1.84181 0
M  V30 36325 S 3355.39 -4.09733 3.44789 0
M  V30 36326 C 3356.54 -5.45474 3.06935 0
M  V30 36327 H 3356.78 -2.12494 2.07927 0
M  V30 36328 H 3354.31 -1.01723 1.16154 0
M  V30 36329 H 3356.27 -4.07218 0.518046 0
M  V30 36330 H 3354.93 -3.13582 -0.180395 0
M  V30 36331 H 3354.12 -4.80658 1.51605 0
M  V30 36332 H 3353.72 -3.14763 2.01991 0
M  V30 36333 H 3356.02 -6.27259 2.56033 0
M  V30 36334 H 3356.96 -5.83003 4.01887 0
M  V30 36335 H 3357.37 -5.08906 2.44285 0
M  V30 36336 N 3356.77 -1.14645 -1.0814 0
M  V30 36337 C 3357.73 -0.838627 -2.13307 0
M  V30 36338 C 3358.73 0.157984 -1.60022 0
M  V30 36339 O 3359.92 -0.0706927 -1.74057 0
M  V30 36340 C 3357.05 -0.25065 -3.39977 0
M  V30 36341 H 3358.24 -1.7707 -2.42046 0
M  V30 36342 H 3355.8 -0.95285 -1.23897 0
M  V30 36343 H 3356.53 0.690008 -3.16874 0
M  V30 36344 H 3356.32 -0.968523 -3.7995 0
M  V30 36345 H 3357.81 -0.0525849 -4.17567 0
M  V30 36346 N 3358.24 1.26349 -0.942 0
M  V30 36347 C 3359.65 1.75658 -0.632553 0
M  V30 36348 C 3360.01 1.76723 0.852256 0
M  V30 36349 O 3359.13 1.37988 1.66698 0
M  V30 36350 C 3359.73 3.18991 -1.1415 0
M  V30 36351 C 3358.28 3.65909 -0.882455 0
M  V30 36352 C 3357.43 2.45366 -1.29193 0
M  V30 36353 H 3360.38 1.12414 -1.12021 0
M  V30 36354 H 3360.4 3.77257 -0.495706 0
M  V30 36355 H 3359.92 3.18183 -2.22218 0
M  V30 36356 H 3358.02 3.72146 0.183808 0
M  V30 36357 H 3358.13 4.54681 -1.51004 0
M  V30 36358 H 3356.49 2.44594 -0.710359 0
M  V30 36359 H 3357.28 2.47258 -2.38156 0
M  V30 36360 N 3359.72 0.709115 1.40746 0
M  V30 36361 C 3361 0.17328 1.94831 0
M  V30 36362 C 3361.38 -1.31964 1.64768 0
M  V30 36363 O 3360.73 -2.07268 0.96189 0
M  V30 36364 C 3360.94 0.479074 3.45696 0
M  V30 36365 C 3362.28 0.414196 4.22575 0
M  V30 36366 O 3363.31 0.414761 3.53777 0
M  V30 36367 O 3362.17 0.386082 5.45135 0
M  V30 36368 H 3359.26 0.0229092 0.826683 0
M  V30 36369 H 3361.81 0.786205 1.50389 0
M  V30 36370 H 3360.58 1.51191 3.60911 0
M  V30 36371 H 3360.2 -0.164142 3.97261 0
M  V30 36372 N 3361.2 -1.50894 0.454829 0
M  V30 36373 C 3362.43 -2.06339 -0.103749 0
M  V30 36374 C 3362.84 -1.32056 -1.35491 0
M  V30 36375 O 3362.18 -0.378552 -1.79757 0
M  V30 36376 C 3362.24 -3.56361 -0.474013 0
M  V30 36377 C 3361.91 -4.5202 0.672815 0
M  V30 36378 C 3362.9 -4.96253 1.55012 0
M  V30 36379 C 3360.59 -4.94909 0.858522 0
M  V30 36380 C 3362.58 -5.82065 2.59768 0
M  V30 36381 C 3360.27 -5.80507 1.90933 0
M  V30 36382 C 3361.27 -6.23984 2.77728 0
M  V30 36383 O 3360.96 -7.07879 3.81002 0
M  V30 36384 H 3360.69 -0.675991 -0.00354122 0
M  V30 36385 H 3363.24 -1.95245 0.63785 0
M  V30 36386 H 3361.47 -3.653 -1.26857 0
M  V30 36387 H 3363.16 -3.94243 -0.965775 0
M  V30 36388 H 3363.93 -4.638 1.41826 0
M  V30 36389 H 3359.81 -4.60598 0.192464 0
M  V30 36390 H 3363.35 -6.15922 3.27546 0
M  V30 36391 H 3359.25 -6.12373 2.04132 0
M  V30 36392 H 3360.01 -7.26095 3.77793 0
M  V30 36393 N 3362.68 -0.186817 -1.56489 0
M  V30 36394 C 3363.95 0.501304 -1.89067 0
M  V30 36395 C 3364.33 1.80231 -1.0991 0
M  V30 36396 O 3363.68 2.27643 -0.197666 0
M  V30 36397 C 3363.89 0.728147 -3.4132 0
M  V30 36398 C 3365.24 1.05123 -4.11381 0
M  V30 36399 O 3366.26 0.816155 -3.46724 0
M  V30 36400 O 3365.12 1.49548 -5.2564 0
M  V30 36401 H 3362.22 0.26029 -0.78497 0
M  V30 36402 H 3364.76 -0.226412 -1.68183 0
M  V30 36403 H 3363.54 -0.190948 -3.90834 0
M  V30 36404 H 3363.16 1.50862 -3.67867 0
M  V30 36405 N 3364.16 1.57361 0.0868344 0
M  V30 36406 C 3365.11 1.99083 1.1113 0
M  V30 36407 C 3366.09 0.87053 1.35317 0
M  V30 36408 O 3367.28 1.13439 1.35869 0
M  V30 36409 C 3364.41 2.42573 2.42926 0
M  V30 36410 C 3363.5 3.61306 2.22079 0
M  V30 36411 N 3363.89 4.75974 1.7112 0
M  V30 36412 C 3362.19 3.67563 2.52613 0
M  V30 36413 C 3362.89 5.57886 1.64736 0
M  V30 36414 N 3361.86 5.01295 2.10248 0
M  V30 36415 H 3365.66 2.85186 0.71038 0
M  V30 36416 H 3363.18 1.59714 0.29414 0
M  V30 36417 H 3365.18 2.70695 3.17064 0
M  V30 36418 H 3363.84 1.57851 2.83749 0
M  V30 36419 H 3364.85 4.98563 1.40198 0
M  V30 36420 H 3361.52 2.93521 2.96903 0
M  V30 36421 H 3362.91 6.59919 1.26317 0
M  V30 36422 N 3365.63 -0.357865 1.53483 0
M  V30 36423 C 3366.56 -1.44463 1.83446 0
M  V30 36424 C 3367.54 -1.55543 0.688513 0
M  V30 36425 O 3368.73 -1.69985 0.93909 0
M  V30 36426 C 3365.86 -2.81703 2.03127 0
M  V30 36427 C 3364.81 -2.85442 3.18915 0
M  V30 36428 C 3364.14 -4.25431 3.23902 0
M  V30 36429 C 3365.44 -2.52267 4.57339 0
M  V30 36430 H 3367.13 -1.19637 2.74458 0
M  V30 36431 H 3364.68 -0.574089 1.32061 0
M  V30 36432 H 3366.63 -3.57764 2.22672 0
M  V30 36433 H 3365.36 -3.07933 1.08833 0
M  V30 36434 H 3364.02 -2.11833 2.99203 0
M  V30 36435 H 3363.66 -4.48749 2.27231 0
M  V30 36436 H 3363.36 -4.28847 4.01702 0
M  V30 36437 H 3364.89 -5.03354 3.4564 0
M  V30 36438 H 3366.3 -3.18042 4.76993 0
M  V30 36439 H 3364.7 -2.66988 5.37436 0
M  V30 36440 H 3365.77 -1.47493 4.61924 0
M  V30 36441 N 3367.11 -1.44974 -0.618094 0
M  V30 36442 C 3368.34 -1.51947 -1.40426 0
M  V30 36443 C 3368.75 -0.148589 -1.88214 0
M  V30 36444 O 3368.11 0.84795 -1.61605 0
M  V30 36445 C 3368.16 -2.49512 -2.61584 0
M  V30 36446 O 3367.88 -3.81272 -2.15785 0
M  V30 36447 C 3369.38 -2.6608 -3.54565 0
M  V30 36448 H 3366.6 -0.514928 -0.430221 0
M  V30 36449 H 3369.15 -1.90062 -0.754758 0
M  V30 36450 H 3367.3 -2.14498 -3.22598 0
M  V30 36451 H 3367.72 -4.34066 -2.94427 0
M  V30 36452 H 3369.19 -3.38346 -4.36149 0
M  V30 36453 H 3369.67 -1.71754 -4.04224 0
M  V30 36454 H 3370.27 -3.02048 -2.99411 0
M  V30 36455 N 3368.59 0.85967 -1.32089 0
M  V30 36456 C 3369.52 1.98348 -1.23208 0
M  V30 36457 C 3370.5 1.69697 -0.117003 0
M  V30 36458 O 3371.69 1.91816 -0.303335 0
M  V30 36459 C 3368.82 3.34076 -0.949229 0
M  V30 36460 C 3367.77 3.77065 -2.02499 0
M  V30 36461 C 3367.1 5.10368 -1.59464 0
M  V30 36462 C 3368.4 3.93068 -3.43941 0
M  V30 36463 H 3370.09 2.06037 -2.17231 0
M  V30 36464 H 3367.64 0.989912 -1.04579 0
M  V30 36465 H 3369.59 4.12244 -0.873666 0
M  V30 36466 H 3368.31 3.26589 0.0266521 0
M  V30 36467 H 3366.97 3.01145 -2.09062 0
M  V30 36468 H 3366.62 4.99332 -0.606344 0
M  V30 36469 H 3366.32 5.40102 -2.31439 0
M  V30 36470 H 3367.84 5.91034 -1.53335 0
M  V30 36471 H 3369.26 4.61602 -3.39995 0
M  V30 36472 H 3367.65 4.34213 -4.14221 0
M  V30 36473 H 3368.72 2.96133 -3.8397 0
M  V30 36474 N 3370.07 1.15217 1.0753 0
M  V30 36475 C 3371 0.790838 2.14058 0
M  V30 36476 C 3371.98 -0.231894 1.60938 0
M  V30 36477 O 3373.16 -0.118873 1.88125 0
M  V30 36478 C 3370.29 0.175692 3.38244 0
M  V30 36479 C 3369.34 1.17003 4.10137 0
M  V30 36480 S 3370.17 2.71127 4.61791 0
M  V30 36481 C 3371.32 2.11027 5.89253 0
M  V30 36482 H 3371.56 1.69312 2.44378 0
M  V30 36483 H 3369.09 0.974329 1.19776 0
M  V30 36484 H 3371.05 -0.172787 4.10136 0
M  V30 36485 H 3369.71 -0.704158 3.06105 0
M  V30 36486 H 3368.9 0.687802 4.99285 0
M  V30 36487 H 3368.5 1.46295 3.442 0
M  V30 36488 H 3370.8 1.4712 6.61333 0
M  V30 36489 H 3371.74 2.98334 6.42186 0
M  V30 36490 H 3372.15 1.55404 5.42688 0
M  V30 36491 N 3371.55 -1.25848 0.948687 0
M  V30 36492 C 3372.48 -2.25291 0.421498 0
M  V30 36493 C 3373.49 -1.56185 -0.459361 0
M  V30 36494 O 3374.68 -1.76468 -0.268596 0
M  V30 36495 C 3371.78 -3.36379 -0.412594 0
M  V30 36496 C 3370.95 -4.35039 0.453868 0
M  V30 36497 C 3370.01 -5.2522 -0.321035 0
M  V30 36498 O 3369.04 -5.68518 0.278524 0
M  V30 36499 N 3370.24 -5.57563 -1.61567 0
M  V30 36500 H 3373.01 -2.7116 1.27641 0
M  V30 36501 H 3370.57 -1.39692 0.818392 0
M  V30 36502 H 3372.56 -3.93666 -0.938568 0
M  V30 36503 H 3371.13 -2.89946 -1.16834 0
M  V30 36504 H 3370.35 -3.76716 1.16099 0
M  V30 36505 H 3371.64 -4.97943 1.04547 0
M  V30 36506 H 3371.03 -5.2428 -2.12479 0
M  V30 36507 H 3369.59 -6.1746 -2.08773 0
M  V30 36508 N 3373.02 -0.716569 -1.40368 0
M  V30 36509 C 3373.97 -0.064635 -2.30709 0
M  V30 36510 C 3374.94 0.749268 -1.4824 0
M  V30 36511 O 3376.13 0.713014 -1.76977 0
M  V30 36512 C 3373.27 0.850419 -3.34458 0
M  V30 36513 C 3372.38 0.0258834 -4.31992 0
M  V30 36514 C 3371.51 0.940507 -5.22808 0
M  V30 36515 C 3370.55 0.11012 -6.12001 0
M  V30 36516 N 3369.69 0.979674 -6.95231 0
M  V30 36517 H 3374.53 -0.840733 -2.85895 0
M  V30 36518 H 3372.07 -0.426283 -1.40788 0
M  V30 36519 H 3374.03 1.39521 -3.93179 0
M  V30 36520 H 3372.66 1.59269 -2.80773 0
M  V30 36521 H 3371.71 -0.636102 -3.75044 0
M  V30 36522 H 3373.02 -0.61697 -4.9497 0
M  V30 36523 H 3372.17 1.55379 -5.86466 0
M  V30 36524 H 3370.91 1.61718 -4.60107 0
M  V30 36525 H 3369.92 -0.516097 -5.47372 0
M  V30 36526 H 3371.14 -0.563063 -6.76762 0
M  V30 36527 H 3369.09 1.64198 -6.35118 0
M  V30 36528 H 3369.01 0.392879 -7.54978 0
M  V30 36529 H 3370.27 1.57911 -7.63338 0
M  V30 36530 N 3374.5 1.50651 -0.462825 0
M  V30 36531 C 3375.75 2.02577 0.0951497 0
M  V30 36532 C 3376.08 1.34471 1.40111 0
M  V30 36533 O 3375.36 0.467735 1.88792 0
M  V30 36534 C 3375.64 3.5895 0.28754 0
M  V30 36535 C 3375.49 4.37639 -1.03886 0
M  V30 36536 C 3376.81 4.27493 1.04585 0
M  V30 36537 H 3373.93 0.736256 0.0331061 0
M  V30 36538 H 3376.57 1.8005 -0.606803 0
M  V30 36539 H 3374.72 3.78275 0.885448 0
M  V30 36540 H 3376.39 4.29905 -1.67271 0
M  V30 36541 H 3374.64 4.01708 -1.63747 0
M  V30 36542 H 3375.31 5.45291 -0.857985 0
M  V30 36543 H 3377.78 4.12592 0.539141 0
M  V30 36544 H 3376.66 5.36734 1.14926 0
M  V30 36545 H 3376.92 3.90093 2.08038 0
M  V30 36546 N 3375.98 0.195113 1.56388 0
M  V30 36547 C 3376.89 -0.737704 2.227 0
M  V30 36548 C 3377.91 -1.23464 1.22608 0
M  V30 36549 O 3379.08 -1.2818 1.55344 0
M  V30 36550 C 3376.15 -1.94006 2.87337 0
M  V30 36551 C 3375.21 -1.48769 4.02699 0
M  V30 36552 C 3374.44 -2.63274 4.64244 0
M  V30 36553 O 3374.66 -3.80756 4.24713 0
M  V30 36554 O 3373.6 -2.35986 5.5371 0
M  V30 36555 H 3377.42 -0.20296 3.03021 0
M  V30 36556 H 3375.01 -0.0341781 1.49361 0
M  V30 36557 H 3376.89 -2.64278 3.2823 0
M  V30 36558 H 3375.57 -2.46341 2.09995 0
M  V30 36559 H 3374.47 -0.753774 3.66427 0
M  V30 36560 H 3375.81 -1.01101 4.81705 0
M  V30 36561 N 3377.46 -1.57404 -0.0784879 0
M  V30 36562 C 3378.7 -1.87198 -0.780059 0
M  V30 36563 C 3379.04 -0.786501 -1.77561 0
M  V30 36564 O 3378.31 0.203901 -1.93428 0
M  V30 36565 C 3378.6 -3.27645 -1.49402 0
M  V30 36566 C 3378.45 -4.46838 -0.515338 0
M  V30 36567 C 3379.77 -3.66229 -2.44058 0
M  V30 36568 H 3376.89 -0.680864 -0.282122 0
M  V30 36569 H 3379.53 -1.89951 -0.0433592 0
M  V30 36570 H 3377.68 -3.25429 -2.12199 0
M  V30 36571 H 3379.35 -4.61176 0.106908 0
M  V30 36572 H 3377.59 -4.33467 0.169908 0
M  V30 36573 H 3378.26 -5.41875 -1.05238 0
M  V30 36574 H 3380.74 -3.69496 -1.91342 0
M  V30 36575 H 3379.62 -4.65401 -2.9102 0
M  V30 36576 H 3379.88 -2.95801 -3.28563 0
M  V30 36577 N 3378.94 0.34972 -1.53671 0
M  V30 36578 C 3380.18 1.09065 -1.7062 0
M  V30 36579 C 3380.51 1.88831 -0.466166 0
M  V30 36580 O 3379.77 1.87752 0.552046 0
M  V30 36581 C 3380.07 2.06429 -2.91757 0
M  V30 36582 C 3379.73 1.43022 -4.27616 0
M  V30 36583 C 3378.39 1.25458 -4.64558 0
M  V30 36584 C 3380.75 0.972897 -5.12039 0
M  V30 36585 C 3378.07 0.607705 -5.83544 0
M  V30 36586 C 3380.43 0.339962 -6.31686 0
M  V30 36587 C 3379.09 0.151952 -6.67327 0
M  V30 36588 H 3378.36 0.399097 -0.624341 0
M  V30 36589 H 3381.01 0.370624 -1.87879 0
M  V30 36590 H 3379.31 2.84791 -2.69075 0
M  V30 36591 H 3381.01 2.63739 -3.02064 0
M  V30 36592 H 3377.6 1.57689 -3.98538 0
M  V30 36593 H 3381.78 1.09647 -4.84036 0
M  V30 36594 H 3377.04 0.450598 -6.09737 0
M  V30 36595 H 3381.21 -0.0225197 -6.96396 0
M  V30 36596 H 3378.84 -0.351344 -7.59388 0
M  V30 36597 N 3380.41 1.45299 0.610397 0
M  V30 36598 C 3381.32 1.56288 1.74961 0
M  V30 36599 C 3382.34 0.447465 1.68148 0
M  V30 36600 O 3383.52 0.707758 1.88554 0
M  V30 36601 C 3380.58 1.52388 3.11414 0
M  V30 36602 C 3379.64 2.74946 3.29702 0
M  V30 36603 C 3378.88 2.71223 4.59645 0
M  V30 36604 O 3379.1 1.78392 5.41786 0
M  V30 36605 O 3378.03 3.62384 4.80585 0
M  V30 36606 H 3381.86 2.52574 1.68641 0
M  V30 36607 H 3379.44 1.27778 0.774146 0
M  V30 36608 H 3381.33 1.52811 3.92717 0
M  V30 36609 H 3380 0.592528 3.18231 0
M  V30 36610 H 3378.91 2.80086 2.47998 0
M  V30 36611 H 3380.24 3.67198 3.2776 0
M  V30 36612 N 3381.89 -0.852653 1.32543 0
M  V30 36613 C 3382.84 -1.94952 1.18227 0
M  V30 36614 C 3383.83 -1.60655 0.0886797 0
M  V30 36615 O 3385.02 -1.74167 0.315389 0
M  V30 36616 C 3382.15 -3.31032 0.909542 0
M  V30 36617 C 3381.23 -3.71542 2.04493 0
M  V30 36618 N 3381.62 -3.83862 3.29369 0
M  V30 36619 C 3379.92 -4.01183 1.94855 0
M  V30 36620 C 3380.62 -4.18764 4.03747 0
M  V30 36621 N 3379.6 -4.3039 3.32062 0
M  V30 36622 H 3383.4 -2.02613 2.12897 0
M  V30 36623 H 3380.92 -1.04454 1.24351 0
M  V30 36624 H 3382.91 -4.09386 0.787937 0
M  V30 36625 H 3381.57 -3.24687 -0.0287592 0
M  V30 36626 H 3382.58 -3.6813 3.64281 0
M  V30 36627 H 3379.26 -4.03129 1.08599 0
M  V30 36628 H 3380.65 -4.35748 5.11442 0
M  V30 36629 N 3383.37 -1.15786 -1.06918 0
M  V30 36630 C 3384.33 -0.861204 -2.12405 0
M  V30 36631 C 3385.33 0.141003 -1.60181 0
M  V30 36632 O 3386.52 -0.0891498 -1.73972 0
M  V30 36633 C 3383.66 -0.286695 -3.39692 0
M  V30 36634 H 3384.85 -1.79627 -2.40154 0
M  V30 36635 H 3382.4 -0.965937 -1.22879 0
M  V30 36636 H 3383.14 0.656361 -3.17588 0
M  V30 36637 H 3382.92 -1.00877 -3.78901 0
M  V30 36638 H 3384.41 -0.0968705 -4.17488 0
M  V30 36639 N 3384.85 1.25343 -0.955348 0
M  V30 36640 C 3386.09 1.93364 -0.611422 0
M  V30 36641 C 3386.43 1.74634 0.849499 0
M  V30 36642 O 3385.7 1.09188 1.6096 0
M  V30 36643 C 3385.99 3.46739 -0.971793 0
M  V30 36644 C 3385.84 3.74692 -2.4885 0
M  V30 36645 C 3387.16 4.3728 -0.497372 0
M  V30 36646 H 3384.28 0.702261 -0.223603 0
M  V30 36647 H 3386.92 1.47947 -1.19213 0
M  V30 36648 H 3385.07 3.85553 -0.477636 0
M  V30 36649 H 3386.74 3.4551 -3.05647 0
M  V30 36650 H 3384.98 3.20273 -2.92588 0
M  V30 36651 H 3385.65 4.81955 -2.69115 0
M  V30 36652 H 3388.13 4.05773 -0.921268 0
M  V30 36653 H 3387.01 5.43355 -0.778209 0
M  V30 36654 H 3387.27 4.37973 0.602666 0
M  V30 36655 N 3386.33 0.724003 1.39986 0
M  V30 36656 C 3387.28 0.0658442 2.32507 0
M  V30 36657 C 3388.27 -0.737881 1.52485 0
M  V30 36658 O 3389.48 -0.640303 1.68226 0
M  V30 36659 H 3385.85 0.00249039 0.751996 0
M  V30 36660 H 3387.82 0.862746 2.85656 0
M  V30 36661 C 3386.57 -0.835568 3.37511 0
M  V30 36662 H 3385.89 -0.226518 3.99158 0
M  V30 36663 H 3387.33 -1.26389 4.04724 0
M  V30 36664 C 3385.79 -1.96487 2.73668 0
M  V30 36665 O 3386.32 -3.05651 2.60654 0
M  V30 36666 N 3384.53 -1.751 2.31923 0
M  V30 36667 H 3384.08 -0.863162 2.42708 0
M  V30 36668 H 3384.03 -2.50838 1.89546 0
M  V30 36669 N 3387.81 -1.50403 0.470808 0
M  V30 36670 C 3388.75 -2.30138 -0.337544 0
M  V30 36671 C 3389.75 -1.37414 -0.990649 0
M  V30 36672 O 3390.95 -1.54606 -0.921786 0
M  V30 36673 H 3387.33 -0.741079 -0.127693 0
M  V30 36674 H 3389.3 -2.96277 0.355349 0
M  V30 36675 C 3388.05 -3.17957 -1.40708 0
M  V30 36676 H 3387.37 -3.89214 -0.913914 0
M  V30 36677 H 3388.81 -3.76743 -1.94527 0
M  V30 36678 C 3387.27 -2.35533 -2.40885 0
M  V30 36679 O 3387.8 -2.03822 -3.46149 0
M  V30 36680 N 3386.01 -1.98119 -2.12596 0
M  V30 36681 H 3385.55 -2.24107 -1.27019 0
M  V30 36682 H 3385.51 -1.43274 -2.79857 0
M  V30 36683 N 3389.28 -0.203404 -1.56282 0
M  V30 36684 C 3390.51 0.438536 -2.02199 0
M  V30 36685 C 3390.93 1.54617 -1.08346 0
M  V30 36686 O 3390.28 1.82279 -0.0897915 0
M  V30 36687 C 3390.33 0.987123 -3.47762 0
M  V30 36688 O 3390.06 -0.0763322 -4.38033 0
M  V30 36689 C 3391.56 1.70412 -4.09237 0
M  V30 36690 H 3388.78 0.10927 -0.662043 0
M  V30 36691 H 3391.32 -0.314544 -2.02066 0
M  V30 36692 H 3389.48 1.69055 -3.48567 0
M  V30 36693 H 3389.89 0.33323 -5.2344 0
M  V30 36694 H 3391.36 2.04018 -5.12914 0
M  V30 36695 H 3391.84 2.6108 -3.53177 0
M  V30 36696 H 3392.45 1.04634 -4.12228 0
M  V30 36697 N 3390.76 1.57444 0.0701393 0
M  V30 36698 C 3391.72 2.02819 1.06757 0
M  V30 36699 C 3392.72 0.925485 1.31497 0
M  V30 36700 O 3393.91 1.19031 1.27189 0
M  V30 36701 C 3391.05 2.41023 2.41082 0
M  V30 36702 H 3392.24 2.92171 0.676459 0
M  V30 36703 H 3389.79 1.53074 0.315909 0
M  V30 36704 H 3390.53 1.54702 2.85022 0
M  V30 36705 H 3390.31 3.21492 2.24467 0
M  V30 36706 H 3391.8 2.76699 3.12773 0
M  V30 36707 N 3392.24 -0.341566 1.53854 0
M  V30 36708 C 3393.49 -1.07945 1.70857 0
M  V30 36709 C 3393.81 -1.89114 0.475507 0
M  V30 36710 O 3393.08 -1.8913 -0.510559 0
M  V30 36711 H 3391.66 -0.401508 0.629921 0
M  V30 36712 H 3394.32 -0.382359 1.91113 0
M  V30 36713 H 3393.42 -1.75571 2.58033 0
M  V30 36714 N 3393.72 -1.45621 -0.602683 0
M  V30 36715 C 3394.99 -1.40368 -1.36221 0
M  V30 36716 C 3395.37 -0.0768016 -2.1096 0
M  V30 36717 O 3394.72 0.941342 -2.08209 0
M  V30 36718 C 3394.93 -2.62056 -2.30494 0
M  V30 36719 C 3396.28 -3.07354 -2.92949 0
M  V30 36720 O 3397.3 -2.62464 -2.40814 0
M  V30 36721 O 3396.16 -3.8527 -3.87595 0
M  V30 36722 H 3393.26 -0.557263 -0.611054 0
M  V30 36723 H 3395.8 -1.57757 -0.625363 0
M  V30 36724 H 3394.58 -3.50206 -1.7456 0
M  V30 36725 H 3394.2 -2.47025 -3.11551 0
M  V30 36726 N 3395.2 0.845612 -1.32993 0
M  V30 36727 C 3396.47 1.58459 -1.14674 0
M  V30 36728 C 3396.85 2.09106 0.289462 0
M  V30 36729 O 3396.2 1.88776 1.28748 0
M  V30 36730 C 3396.41 2.72369 -2.18211 0
M  V30 36731 C 3397.76 3.41721 -2.52016 0
M  V30 36732 O 3398.78 2.82604 -2.16826 0
M  V30 36733 O 3397.64 4.48424 -3.12376 0
M  V30 36734 H 3394.74 0.698277 -0.4431 0
M  V30 36735 H 3397.28 0.888953 -1.44554 0
M  V30 36736 H 3396.05 2.32536 -3.14711 0
M  V30 36737 H 3395.68 3.49602 -1.89378 0
M  V30 36738 N 3396.67 1.16351 1.06302 0
M  V30 36739 C 3397.6 0.893141 2.15743 0
M  V30 36740 C 3398.58 -0.160501 1.69341 0
M  V30 36741 O 3399.77 -0.0126184 1.94196 0
M  V30 36742 C 3396.9 0.393348 3.45065 0
M  V30 36743 C 3395.85 1.38489 4.04975 0
M  V30 36744 C 3395.18 0.743502 5.29506 0
M  V30 36745 C 3396.48 2.75445 4.43765 0
M  V30 36746 H 3398.17 1.80836 2.38619 0
M  V30 36747 H 3395.72 0.870898 1.14679 0
M  V30 36748 H 3397.67 0.191681 4.20964 0
M  V30 36749 H 3396.4 -0.55737 3.21809 0
M  V30 36750 H 3395.06 1.5731 3.31133 0
M  V30 36751 H 3394.7 -0.213699 5.02546 0
M  V30 36752 H 3394.4 1.40531 5.70548 0
M  V30 36753 H 3395.93 0.551853 6.08101 0
M  V30 36754 H 3397.34 2.60407 5.10745 0
M  V30 36755 H 3395.74 3.381 4.95791 0
M  V30 36756 H 3396.81 3.30705 3.5463 0
M  V30 36757 N 3398.15 -1.24835 0.961982 0
M  V30 36758 C 3399.11 -2.23847 0.492482 0
M  V30 36759 C 3400.11 -1.55542 -0.407853 0
M  V30 36760 O 3401.3 -1.73 -0.204113 0
M  V30 36761 C 3398.44 -3.39685 -0.287519 0
M  V30 36762 H 3399.63 -2.66896 1.36771 0
M  V30 36763 H 3397.18 -1.37349 0.745991 0
M  V30 36764 H 3397.92 -3.02067 -1.1801 0
M  V30 36765 H 3397.7 -3.90458 0.3585 0
M  V30 36766 H 3399.19 -4.13191 -0.605224 0
M  V30 36767 N 3399.63 -0.731417 -1.396 0
M  V30 36768 C 3400.58 -0.0891012 -2.30628 0
M  V30 36769 C 3401.55 0.733503 -1.49027 0
M  V30 36770 O 3402.73 0.694203 -1.77723 0
M  V30 36771 C 3399.87 0.814897 -3.35341 0
M  V30 36772 C 3398.98 -0.0199366 -4.31995 0
M  V30 36773 C 3398.12 0.885003 -5.23776 0
M  V30 36774 C 3397.16 0.0452034 -6.12083 0
M  V30 36775 N 3396.3 0.90588 -6.96231 0
M  V30 36776 H 3401.14 -0.871008 -2.84987 0
M  V30 36777 H 3398.67 -0.441191 -1.40328 0
M  V30 36778 H 3400.63 1.35343 -3.94637 0
M  V30 36779 H 3399.26 1.56282 -2.82446 0
M  V30 36780 H 3398.31 -0.675844 -3.74348 0
M  V30 36781 H 3399.62 -0.669433 -4.94287 0
M  V30 36782 H 3398.78 1.4915 -5.88081 0
M  V30 36783 H 3397.52 1.56829 -4.61797 0
M  V30 36784 H 3396.52 -0.574124 -5.46794 0
M  V30 36785 H 3397.75 -0.634811 -6.76126 0
M  V30 36786 H 3395.69 1.57452 -6.36824 0
M  V30 36787 H 3395.61 0.312782 -7.55353 0
M  V30 36788 H 3396.88 1.49806 -7.6497 0
M  V30 36789 N 3401.11 1.50152 -0.478778 0
M  V30 36790 C 3402.04 2.3155 0.301141 0
M  V30 36791 C 3403.02 1.38803 0.983252 0
M  V30 36792 O 3404.2 1.67721 0.978944 0
M  V30 36793 C 3401.33 3.18747 1.37904 0
M  V30 36794 C 3400.29 4.20108 0.818101 0
M  V30 36795 C 3399.61 4.96094 1.99487 0
M  V30 36796 C 3400.91 5.22004 -0.175832 0
M  V30 36797 H 3402.61 2.97001 -0.37824 0
M  V30 36798 H 3400.15 1.42828 -0.183348 0
M  V30 36799 H 3402.11 3.74492 1.9322 0
M  V30 36800 H 3400.83 2.51196 2.0873 0
M  V30 36801 H 3399.49 3.65476 0.28686 0
M  V30 36802 H 3399.14 4.25009 2.69029 0
M  V30 36803 H 3398.84 5.64663 1.62572 0
M  V30 36804 H 3400.36 5.54676 2.55279 0
M  V30 36805 H 3401.78 5.72574 0.288413 0
M  V30 36806 H 3400.17 5.98337 -0.459654 0
M  V30 36807 H 3401.24 4.72277 -1.09919 0
M  V30 36808 N 3402.59 0.211689 1.56172 0
M  V30 36809 C 3403.52 -0.697336 2.22844 0
M  V30 36810 C 3404.5 -1.20864 1.19691 0
M  V30 36811 O 3405.68 -1.25444 1.48248 0
M  V30 36812 C 3402.81 -1.90988 2.9007 0
M  V30 36813 C 3401.77 -1.53283 3.9961 0
M  V30 36814 C 3401.09 -2.82335 4.54083 0
M  V30 36815 C 3402.39 -0.730242 5.1717 0
M  V30 36816 H 3404.09 -0.141481 2.99066 0
M  V30 36817 H 3401.63 -0.0666085 1.43846 0
M  V30 36818 H 3403.59 -2.55117 3.354 0
M  V30 36819 H 3402.31 -2.49054 2.1128 0
M  V30 36820 H 3400.97 -0.915052 3.54996 0
M  V30 36821 H 3400.62 -3.38525 3.72035 0
M  V30 36822 H 3400.32 -2.57844 5.28006 0
M  V30 36823 H 3401.84 -3.47423 5.02125 0
M  V30 36824 H 3403.25 -1.275 5.58942 0
M  V30 36825 H 3401.65 -0.582811 5.97263 0
M  V30 36826 H 3402.72 0.265242 4.84174 0
M  V30 36827 N 3404.06 -1.57479 -0.0617887 0
M  V30 36828 C 3405.31 -1.88874 -0.75486 0
M  V30 36829 C 3405.67 -0.806569 -1.74677 0
M  V30 36830 O 3404.96 0.188268 -1.90673 0
M  V30 36831 C 3405.15 -3.24683 -1.49385 0
M  V30 36832 C 3404.98 -4.46009 -0.575009 0
M  V30 36833 C 3403.75 -5.04871 -0.208206 0
M  V30 36834 C 3405.95 -5.14129 0.132592 0
M  V30 36835 N 3403.93 -6.09718 0.715308 0
M  V30 36836 C 3405.3 -6.13242 0.912929 0
M  V30 36837 C 3407.36 -4.97486 0.203007 0
M  V30 36838 C 3406.06 -6.97507 1.75715 0
M  V30 36839 C 3408.09 -5.82286 1.03424 0
M  V30 36840 C 3407.45 -6.80945 1.8026 0
M  V30 36841 H 3403.55 -0.740508 -0.251341 0
M  V30 36842 H 3406.13 -1.94693 -0.0159965 0
M  V30 36843 H 3404.3 -3.19853 -2.20337 0
M  V30 36844 H 3406.03 -3.43695 -2.13672 0
M  V30 36845 H 3402.79 -4.70238 -0.563271 0
M  V30 36846 H 3403.21 -6.66803 1.1706 0
M  V30 36847 H 3407.86 -4.21118 -0.376705 0
M  V30 36848 H 3405.57 -7.73243 2.3478 0
M  V30 36849 H 3409.16 -5.71463 1.09183 0
M  V30 36850 H 3408.04 -7.45424 2.43543 0
M  V30 36851 N 3405.54 0.333401 -1.54033 0
M  V30 36852 C 3406.47 1.41527 -1.85722 0
M  V30 36853 C 3407.45 1.54428 -0.713171 0
M  V30 36854 O 3408.64 1.68469 -0.966014 0
M  V30 36855 C 3405.77 2.78436 -2.07583 0
M  V30 36856 C 3404.72 2.80333 -3.23416 0
M  V30 36857 C 3404.05 4.20224 -3.3063 0
M  V30 36858 C 3405.35 2.44959 -4.61294 0
M  V30 36859 H 3407.04 1.15256 -2.76327 0
M  V30 36860 H 3404.59 0.553007 -1.32958 0
M  V30 36861 H 3406.54 3.54176 -2.28336 0
M  V30 36862 H 3405.27 3.06163 -1.13718 0
M  V30 36863 H 3403.92 2.07046 -3.02535 0
M  V30 36864 H 3403.57 4.45077 -2.34341 0
M  V30 36865 H 3403.27 4.22402 -4.08474 0
M  V30 36866 H 3404.8 4.97791 -3.53605 0
M  V30 36867 H 3406.21 3.10413 -4.81993 0
M  V30 36868 H 3404.61 2.58404 -5.41615 0
M  V30 36869 H 3405.68 1.40126 -4.64212 0
M  V30 36870 N 3407.02 1.45939 0.594952 0
M  V30 36871 C 3407.97 1.55573 1.70486 0
M  V30 36872 C 3408.94 0.400779 1.61192 0
M  V30 36873 O 3410.12 0.615914 1.80586 0
M  V30 36874 C 3407.26 1.54039 3.08814 0
M  V30 36875 C 3406.38 2.80179 3.28822 0
M  V30 36876 C 3405.51 2.7023 4.57328 0
M  V30 36877 C 3404.55 3.91365 4.70638 0
M  V30 36878 N 3403.69 3.79876 5.90456 0
M  V30 36879 H 3408.53 2.50386 1.61588 0
M  V30 36880 H 3406.06 1.24231 0.787725 0
M  V30 36881 H 3408.02 1.51135 3.88862 0
M  V30 36882 H 3406.65 0.627673 3.16639 0
M  V30 36883 H 3405.7 2.93115 2.42462 0
M  V30 36884 H 3407.02 3.69991 3.34527 0
M  V30 36885 H 3406.17 2.65364 5.45589 0
M  V30 36886 H 3404.91 1.78038 4.54042 0
M  V30 36887 H 3403.91 3.96577 3.80798 0
M  V30 36888 H 3405.14 4.84639 4.75712 0
M  V30 36889 H 3403.08 2.90461 5.88191 0
M  V30 36890 H 3403 4.63333 5.97376 0
M  V30 36891 H 3404.27 3.78964 6.8118 0
M  V30 36892 N 3408.5 -0.838547 1.3344 0
M  V30 36893 C 3409.72 -1.63111 1.281 0
M  V30 36894 C 3410.15 -1.87539 -0.145164 0
M  V30 36895 O 3409.51 -1.43973 -1.10189 0
M  V30 36896 C 3409.55 -2.95823 2.06206 0
M  V30 36897 O 3408.66 -3.87149 1.42088 0
M  V30 36898 H 3408 -0.496674 0.440694 0
M  V30 36899 H 3410.53 -1.04322 1.76006 0
M  V30 36900 H 3410.54 -3.45518 2.16983 0
M  V30 36901 H 3409.21 -2.77366 3.09905 0
M  V30 36902 H 3407.79 -3.45638 1.39959 0
M  V30 36903 N 3409.98 -1.16914 -1.05683 0
M  V30 36904 C 3411.39 -0.961182 -1.60057 0
M  V30 36905 C 3411.74 0.493376 -1.89895 0
M  V30 36906 O 3410.86 1.36775 -1.67695 0
M  V30 36907 C 3411.46 -1.73842 -2.908 0
M  V30 36908 C 3410.02 -1.57528 -3.41851 0
M  V30 36909 C 3409.16 -1.74322 -2.15655 0
M  V30 36910 H 3412.12 -1.31694 -0.885568 0
M  V30 36911 H 3412.14 -1.21787 -3.60483 0
M  V30 36912 H 3411.65 -2.79702 -2.69051 0
M  V30 36913 H 3409.75 -0.541349 -3.68646 0
M  V30 36914 H 3409.86 -2.36309 -4.16767 0
M  V30 36915 H 3408.23 -1.17119 -2.26175 0
M  V30 36916 H 3409.01 -2.81584 -1.96381 0
M  V30 36917 N 3411.45 1.24323 -0.968589 0
M  V30 36918 C 3412.68 1.9701 -0.6482 0
M  V30 36919 C 3413.1 1.71356 0.775812 0
M  V30 36920 O 3412.46 0.977831 1.5267 0
M  V30 36921 C 3412.51 3.484 -0.930036 0
M  V30 36922 O 3411.61 4.12397 -0.0159264 0
M  V30 36923 H 3410.96 0.617159 -0.244972 0
M  V30 36924 H 3413.49 1.58075 -1.29898 0
M  V30 36925 H 3413.5 3.98792 -0.861933 0
M  V30 36926 H 3412.17 3.66401 -1.96783 0
M  V30 36927 H 3410.75 3.72647 -0.137427 0
M  V30 36928 N 3412.93 0.73881 1.3921 0
M  V30 36929 C 3414.16 0.297457 2.05256 0
M  V30 36930 C 3414.58 -1.06067 1.55343 0
M  V30 36931 O 3413.94 -1.67289 0.698853 0
M  V30 36932 C 3413.99 0.313033 3.59239 0
M  V30 36933 O 3413.09 -0.69804 4.06449 0
M  V30 36934 H 3412.43 0.134465 0.650242 0
M  V30 36935 H 3414.96 1.0058 1.78171 0
M  V30 36936 H 3414.97 0.158746 4.07691 0
M  V30 36937 H 3413.65 1.30401 3.94928 0
M  V30 36938 H 3412.23 -0.509578 3.69402 0
M  V30 36939 N 3414.41 -1.49895 0.486734 0
M  V30 36940 C 3415.32 -2.3262 -0.304181 0
M  V30 36941 C 3416.34 -1.43704 -0.981078 0
M  V30 36942 O 3417.51 -1.76743 -0.965608 0
M  V30 36943 C 3414.58 -3.18786 -1.36296 0
M  V30 36944 C 3413.64 -4.23538 -0.701008 0
M  V30 36945 C 3412.87 -5.05586 -1.70934 0
M  V30 36946 O 3413.09 -4.88936 -2.93765 0
M  V30 36947 O 3412.03 -5.88295 -1.27252 0
M  V30 36948 H 3415.85 -3.01407 0.372533 0
M  V30 36949 H 3413.44 -1.47322 0.248302 0
M  V30 36950 H 3415.32 -3.72206 -1.97587 0
M  V30 36951 H 3414 -2.5271 -2.02286 0
M  V30 36952 H 3412.9 -3.74068 -0.0487268 0
M  V30 36953 H 3414.24 -4.92129 -0.0837952 0
M  V30 36954 N 3415.89 -0.219968 -1.56057 0
M  V30 36955 C 3417.14 0.412773 -1.98555 0
M  V30 36956 C 3417.47 1.59528 -1.10745 0
M  V30 36957 O 3416.74 1.93801 -0.164791 0
M  V30 36958 C 3417.03 0.848862 -3.49952 0
M  V30 36959 C 3416.88 -0.337172 -4.48534 0
M  V30 36960 C 3418.2 1.70559 -4.05706 0
M  V30 36961 H 3415.32 0.148563 -0.721871 0
M  V30 36962 H 3417.96 -0.315885 -1.87356 0
M  V30 36963 H 3416.11 1.46973 -3.59626 0
M  V30 36964 H 3417.78 -0.975295 -4.50872 0
M  V30 36965 H 3416.02 -0.984873 -4.22472 0
M  V30 36966 H 3416.7 0.0108695 -5.51999 0
M  V30 36967 H 3419.17 1.18175 -3.98966 0
M  V30 36968 H 3418.05 1.97963 -5.11959 0
M  V30 36969 H 3418.31 2.66838 -3.52491 0
M  V30 36970 N 3417.37 1.57509 0.0534363 0
M  V30 36971 C 3418.61 1.89272 0.744833 0
M  V30 36972 C 3418.97 0.815821 1.74247 0
M  V30 36973 O 3418.26 -0.178153 1.9077 0
M  V30 36974 C 3418.46 3.25471 1.47661 0
M  V30 36975 C 3418.28 4.46307 0.551348 0
M  V30 36976 C 3417.05 5.04974 0.181428 0
M  V30 36977 C 3419.25 5.14052 -0.159856 0
M  V30 36978 N 3417.23 6.09331 -0.747633 0
M  V30 36979 C 3418.61 6.12749 -0.945438 0
M  V30 36980 C 3420.66 4.97371 -0.229387 0
M  V30 36981 C 3419.36 6.96566 -1.79412 0
M  V30 36982 C 3421.39 5.8173 -1.06511 0
M  V30 36983 C 3420.75 6.79979 -1.83868 0
M  V30 36984 H 3416.85 0.74183 0.24741 0
M  V30 36985 H 3419.43 1.94699 0.0056712 0
M  V30 36986 H 3417.61 3.21017 2.18638 0
M  V30 36987 H 3419.34 3.44823 2.11846 0
M  V30 36988 H 3416.09 4.70531 0.538325 0
M  V30 36989 H 3416.52 6.66173 -1.20595 0
M  V30 36990 H 3421.16 4.21312 0.354367 0
M  V30 36991 H 3418.88 7.71987 -2.38877 0
M  V30 36992 H 3422.46 5.70876 -1.12212 0
M  V30 36993 H 3421.34 7.44122 -2.47492 0
M  V30 36994 N 3418.85 -0.325228 1.54208 0
M  V30 36995 C 3420.09 -1.06337 1.72333 0
M  V30 36996 C 3420.42 -1.88065 0.496148 0
M  V30 36997 O 3419.68 -1.88607 -0.522107 0
M  V30 36998 C 3419.97 -2.01761 2.95004 0
M  V30 36999 C 3419.64 -1.362 4.29837 0
M  V30 37000 C 3418.3 -1.18051 4.66495 0
M  V30 37001 C 3420.65 -0.891313 5.13522 0
M  V30 37002 C 3417.98 -0.514791 5.84437 0
M  V30 37003 C 3420.33 -0.239423 6.32147 0
M  V30 37004 C 3419 -0.0457665 6.67484 0
M  V30 37005 H 3418.27 -0.389114 0.630612 0
M  V30 37006 H 3420.92 -0.340687 1.88445 0
M  V30 37007 H 3419.22 -2.80474 2.73572 0
M  V30 37008 H 3420.92 -2.589 3.06222 0
M  V30 37009 H 3417.51 -1.51328 4.00996 0
M  V30 37010 H 3421.69 -1.01932 4.8572 0
M  V30 37011 H 3416.95 -0.353537 6.10377 0
M  V30 37012 H 3421.12 0.133307 6.96272 0
M  V30 37013 H 3418.75 0.472111 7.58733 0
M  V30 37014 N 3420.32 -1.46252 -0.587204 0
M  V30 37015 C 3421.6 -1.41805 -1.34725 0
M  V30 37016 C 3421.98 -0.0991724 -2.10867 0
M  V30 37017 O 3421.33 0.919205 -2.09196 0
M  V30 37018 C 3421.54 -2.64486 -2.27702 0
M  V30 37019 C 3422.89 -3.10443 -2.89672 0
M  V30 37020 O 3423.91 -2.65003 -2.38016 0
M  V30 37021 O 3422.77 -3.89359 -3.83487 0
M  V30 37022 H 3419.86 -0.563713 -0.605109 0
M  V30 37023 H 3422.41 -1.58412 -0.608596 0
M  V30 37024 H 3421.18 -3.52038 -1.70836 0
M  V30 37025 H 3420.8 -2.50316 -3.08914 0
M  V30 37026 N 3421.8 0.831459 -1.33883 0
M  V30 37027 C 3423.22 1.12328 -1.13378 0
M  V30 37028 C 3423.42 2.01377 0.0704048 0
M  V30 37029 O 3422.47 2.41152 0.748474 0
M  V30 37030 C 3423.79 1.77822 -2.42487 0
M  V30 37031 C 3425.33 1.90355 -2.48463 0
M  V30 37032 C 3425.81 2.59265 -3.77552 0
M  V30 37033 N 3427.3 2.66772 -3.78665 0
M  V30 37034 C 3428.04 3.20799 -4.75264 0
M  V30 37035 N 3427.53 3.75456 -5.82241 0
M  V30 37036 N 3429.32 3.1912 -4.6273 0
M  V30 37037 H 3421.48 0.238961 -2.11052 0
M  V30 37038 H 3423.74 0.168548 -0.932896 0
M  V30 37039 H 3423.44 1.19851 -3.30649 0
M  V30 37040 H 3423.32 2.77773 -2.5519 0
M  V30 37041 H 3425.71 2.47477 -1.60746 0
M  V30 37042 H 3425.79 0.893317 -2.39695 0
M  V30 37043 H 3425.43 2.028 -4.65655 0
M  V30 37044 H 3425.36 3.60775 -3.836 0
M  V30 37045 H 3427.85 2.28021 -3.01355 0
M  V30 37046 H 3428.16 4.14907 -6.51976 0
M  V30 37047 H 3426.51 3.73723 -5.85966 0
M  V30 37048 H 3429.7 2.75682 -3.78308 0
M  V30 37049 H 3429.87 3.60922 -5.38181 0
M  V30 37050 N 3423.28 1.17472 1.05062 0
M  V30 37051 C 3424.7 0.922271 1.30255 0
M  V30 37052 C 3424.9 -0.417861 1.9712 0
M  V30 37053 O 3423.95 -1.15454 2.24559 0
M  V30 37054 C 3425.26 2.08052 2.17105 0
M  V30 37055 C 3426.81 2.1177 2.30483 0
M  V30 37056 C 3427.29 3.26984 3.20695 0
M  V30 37057 N 3428.78 3.26781 3.28281 0
M  V30 37058 C 3429.51 4.12572 3.98211 0
M  V30 37059 N 3429.01 5.08476 4.70558 0
M  V30 37060 N 3430.8 4.00518 3.94388 0
M  V30 37061 H 3422.95 2.03731 0.600617 0
M  V30 37062 H 3425.22 0.889649 0.327459 0
M  V30 37063 H 3424.92 3.04917 1.75268 0
M  V30 37064 H 3424.8 2.03266 3.17746 0
M  V30 37065 H 3427.18 1.1549 2.71562 0
M  V30 37066 H 3427.26 2.20617 1.29467 0
M  V30 37067 H 3426.91 4.2353 2.8033 0
M  V30 37068 H 3426.84 3.15373 4.21719 0
M  V30 37069 H 3429.33 2.57345 2.76735 0
M  V30 37070 H 3429.64 5.7033 5.21482 0
M  V30 37071 H 3427.99 5.12444 4.69496 0
M  V30 37072 H 3431.18 3.24888 3.36995 0
M  V30 37073 H 3431.35 4.67596 4.48618 0
M  V30 37074 N 3424.76 -1.23807 0.975168 0
M  V30 37075 C 3425.99 -1.96124 0.659013 0
M  V30 37076 C 3426.4 -1.7225 -0.773014 0
M  V30 37077 O 3425.76 -1.01075 -1.51954 0
M  V30 37078 C 3425.81 -3.49241 0.933416 0
M  V30 37079 O 3425.53 -3.72303 2.30915 0
M  V30 37080 C 3427.03 -4.38765 0.632485 0
M  V30 37081 H 3424.25 -0.624576 0.245248 0
M  V30 37082 H 3426.79 -1.57438 1.30513 0
M  V30 37083 H 3424.95 -3.85963 0.333391 0
M  V30 37084 H 3425.36 -4.66634 2.39485 0
M  V30 37085 H 3426.84 -5.45023 0.874887 0
M  V30 37086 H 3427.31 -4.37057 -0.433376 0
M  V30 37087 H 3427.92 -4.07643 1.21275 0
M  V30 37088 N 3426.24 -0.746182 -1.38816 0
M  V30 37089 C 3427.18 -0.102826 -2.32373 0
M  V30 37090 C 3428.18 0.713529 -1.5364 0
M  V30 37091 O 3429.38 0.613458 -1.69224 0
M  V30 37092 H 3425.76 -0.0144537 -0.751861 0
M  V30 37093 H 3427.73 -0.908082 -2.84247 0
M  V30 37094 C 3426.48 0.781768 -3.38797 0
M  V30 37095 H 3425.8 0.162987 -3.99468 0
M  V30 37096 H 3427.24 1.19934 -4.06684 0
M  V30 37097 C 3425.7 1.92108 -2.7676 0
M  V30 37098 O 3426.23 3.01465 -2.65484 0
M  V30 37099 N 3424.44 1.71388 -2.34679 0
M  V30 37100 H 3423.98 0.82444 -2.44051 0
M  V30 37101 H 3423.94 2.47791 -1.93513 0
M  V30 37102 N 3427.71 1.49635 -0.494676 0
M  V30 37103 C 3428.94 2.06542 0.0490054 0
M  V30 37104 C 3429.35 1.35602 1.31943 0
M  V30 37105 O 3428.69 0.426078 1.7869 0
M  V30 37106 C 3428.76 3.57493 0.379364 0
M  V30 37107 C 3428.42 4.50077 -0.792424 0
M  V30 37108 C 3429.42 4.91969 -1.68115 0
M  V30 37109 C 3427.1 4.92459 -0.989437 0
M  V30 37110 C 3429.1 5.74973 -2.75109 0
M  V30 37111 C 3426.78 5.7524 -2.06257 0
M  V30 37112 C 3427.78 6.16401 -2.94174 0
M  V30 37113 O 3427.47 6.97529 -3.99636 0
M  V30 37114 H 3427.2 0.675847 -0.0143827 0
M  V30 37115 H 3429.76 1.93485 -0.689392 0
M  V30 37116 H 3427.99 3.68535 1.17127 0
M  V30 37117 H 3429.67 3.96665 0.860909 0
M  V30 37118 H 3430.44 4.59877 -1.54073 0
M  V30 37119 H 3426.32 4.59926 -0.314516 0
M  V30 37120 H 3429.86 6.07021 -3.43761 0
M  V30 37121 H 3425.76 6.06745 -2.20296 0
M  V30 37122 H 3426.53 7.15824 -3.96911 0
M  V30 37123 N 3429.19 0.228241 1.55939 0
M  V30 37124 C 3430.42 -0.406313 2.02871 0
M  V30 37125 C 3430.83 -1.52874 1.10792 0
M  V30 37126 O 3430.19 -1.82113 0.118779 0
M  V30 37127 C 3430.24 -0.931672 3.49288 0
M  V30 37128 O 3429.96 0.14601 4.37857 0
M  V30 37129 C 3431.46 -1.6388 4.11896 0
M  V30 37130 H 3428.68 -0.0987241 0.663698 0
M  V30 37131 H 3431.23 0.346651 2.01541 0
M  V30 37132 H 3429.38 -1.63488 3.51213 0
M  V30 37133 H 3429.8 -0.249913 5.23904 0
M  V30 37134 H 3431.27 -1.95832 5.16095 0
M  V30 37135 H 3431.75 -2.55429 3.57285 0
M  V30 37136 H 3432.35 -0.980624 4.1384 0
M  V30 37137 N 3430.67 -1.57536 -0.0450825 0
M  V30 37138 C 3432.09 -1.54495 -0.400436 0
M  V30 37139 C 3432.29 -0.952197 -1.77582 0
M  V30 37140 O 3431.34 -0.566264 -2.46068 0
M  V30 37141 C 3432.66 -2.99025 -0.316978 0
M  V30 37142 C 3434.2 -3.10495 -0.39523 0
M  V30 37143 C 3434.68 -4.56726 -0.341395 0
M  V30 37144 N 3436.17 -4.61464 -0.400674 0
M  V30 37145 C 3436.9 -5.72128 -0.381657 0
M  V30 37146 N 3436.4 -6.9208 -0.315873 0
M  V30 37147 N 3438.19 -5.60451 -0.430201 0
M  V30 37148 H 3430.34 -1.94423 0.855191 0
M  V30 37149 H 3432.61 -0.891047 0.323633 0
M  V30 37150 H 3432.31 -3.46056 0.627538 0
M  V30 37151 H 3432.19 -3.60285 -1.1169 0
M  V30 37152 H 3434.57 -2.63421 -1.33017 0
M  V30 37153 H 3434.66 -2.52096 0.433753 0
M  V30 37154 H 3434.3 -5.04464 0.589813 0
M  V30 37155 H 3434.23 -5.13018 -1.18827 0
M  V30 37156 H 3436.72 -3.75155 -0.454679 0
M  V30 37157 H 3437.03 -7.72194 -0.306022 0
M  V30 37158 H 3435.38 -6.94427 -0.282159 0
M  V30 37159 H 3438.57 -4.65638 -0.479473 0
M  V30 37160 H 3438.74 -6.46689 -0.411912 0
M  V30 37161 N 3432.15 0.317045 -1.54378 0
M  V30 37162 C 3433.37 1.07795 -1.77186 0
M  V30 37163 C 3433.8 1.8071 -0.522072 0
M  V30 37164 O 3433.16 1.73481 0.52669 0
M  V30 37165 C 3433.2 2.04666 -2.96891 0
M  V30 37166 O 3432.31 3.12683 -2.68892 0
M  V30 37167 H 3431.65 0.310474 -0.586943 0
M  V30 37168 H 3434.18 0.359354 -2.01419 0
M  V30 37169 H 3434.19 2.4742 -3.24418 0
M  V30 37170 H 3432.86 1.50998 -3.87521 0
M  V30 37171 H 3431.44 2.74558 -2.52334 0
M  V30 37172 N 3433.63 1.46561 0.57944 0
M  V30 37173 C 3434.56 1.60236 1.69843 0
M  V30 37174 C 3435.54 0.452562 1.63969 0
M  V30 37175 O 3436.72 0.679206 1.81935 0
M  V30 37176 C 3433.85 1.59543 3.08485 0
M  V30 37177 C 3432.81 2.73526 3.29193 0
M  V30 37178 C 3432.13 2.57896 4.68395 0
M  V30 37179 C 3433.43 4.15321 3.16711 0
M  V30 37180 H 3435.13 2.53907 1.58656 0
M  V30 37181 H 3432.67 1.22196 0.761852 0
M  V30 37182 H 3434.63 1.67703 3.86592 0
M  V30 37183 H 3433.35 0.624186 3.2058 0
M  V30 37184 H 3432.01 2.6484 2.53486 0
M  V30 37185 H 3431.66 1.58847 4.77259 0
M  V30 37186 H 3431.36 3.34349 4.83202 0
M  V30 37187 H 3432.88 2.67951 5.48666 0
M  V30 37188 H 3434.29 4.251 3.84659 0
M  V30 37189 H 3432.69 4.92387 3.43038 0
M  V30 37190 H 3433.76 4.35247 2.13747 0
M  V30 37191 N 3435.1 -0.824347 1.34322 0
M  V30 37192 C 3436.07 -1.91673 1.25675 0
M  V30 37193 C 3437.07 -1.59874 0.172297 0
M  V30 37194 O 3438.26 -1.6894 0.424824 0
M  V30 37195 C 3435.39 -3.27684 0.939986 0
M  V30 37196 H 3436.58 -2.00762 2.22788 0
M  V30 37197 H 3434.14 -1.01815 1.18589 0
M  V30 37198 H 3434.87 -3.24288 -0.0280328 0
M  V30 37199 H 3434.66 -3.52147 1.72438 0
M  V30 37200 H 3436.15 -4.07684 0.904625 0
M  V30 37201 N 3436.58 -1.18028 -1.04437 0
M  V30 37202 C 3437.83 -0.974787 -1.77836 0
M  V30 37203 C 3438.16 0.494722 -1.87793 0
M  V30 37204 O 3437.44 1.36731 -1.38329 0
M  V30 37205 C 3437.72 -1.62574 -3.21312 0
M  V30 37206 C 3437.57 -3.16786 -3.19322 0
M  V30 37207 C 3438.89 -1.33591 -4.19335 0
M  V30 37208 H 3436.01 -0.355541 -0.645569 0
M  V30 37209 H 3438.65 -1.4564 -1.22021 0
M  V30 37210 H 3436.8 -1.21623 -3.68972 0
M  V30 37211 H 3438.47 -3.66847 -2.79681 0
M  V30 37212 H 3436.72 -3.49141 -2.57455 0
M  V30 37213 H 3437.39 -3.57467 -4.2062 0
M  V30 37214 H 3439.86 -1.69066 -3.80205 0
M  V30 37215 H 3438.74 -1.81711 -5.1795 0
M  V30 37216 H 3439 -0.258093 -4.41346 0
M  V30 37217 N 3438.06 1.23288 -0.98172 0
M  V30 37218 C 3438.99 2.23353 -0.467821 0
M  V30 37219 C 3439.97 1.55786 0.465786 0
M  V30 37220 O 3441.16 1.84338 0.393927 0
M  V30 37221 C 3438.28 3.37156 0.323073 0
M  V30 37222 C 3437.33 4.22875 -0.554871 0
M  V30 37223 S 3438.16 4.96608 -2.00352 0
M  V30 37224 C 3439.32 6.13859 -1.2218 0
M  V30 37225 H 3439.55 2.66598 -1.31578 0
M  V30 37226 H 3437.08 1.32789 -0.787817 0
M  V30 37227 H 3439.04 4.03149 0.773377 0
M  V30 37228 H 3437.7 2.92441 1.14617 0
M  V30 37229 H 3436.9 5.03972 0.0530781 0
M  V30 37230 H 3436.5 3.61956 -0.941474 0
M  V30 37231 H 3438.79 6.7577 -0.483787 0
M  V30 37232 H 3439.73 6.79043 -2.00764 0
M  V30 37233 H 3440.14 5.59629 -0.740003 0
M  V30 37234 N 3439.54 0.753533 1.38418 0
M  V30 37235 C 3440.76 0.31921 2.04929 0
M  V30 37236 C 3441.19 -1.04413 1.56459 0
M  V30 37237 O 3440.55 -1.66539 0.716557 0
M  V30 37238 C 3440.59 0.351117 3.58887 0
M  V30 37239 O 3439.7 -0.654892 4.07167 0
M  V30 37240 H 3439.04 0.141354 0.64878 0
M  V30 37241 H 3441.57 1.02464 1.77094 0
M  V30 37242 H 3441.58 0.201978 4.075 0
M  V30 37243 H 3440.25 1.34582 3.93523 0
M  V30 37244 H 3438.83 -0.47037 3.69922 0
M  V30 37245 N 3441.02 -1.49371 0.502605 0
M  V30 37246 C 3441.95 -2.25922 -0.321643 0
M  V30 37247 C 3442.93 -1.30574 -0.968977 0
M  V30 37248 O 3444.11 -1.59866 -0.99876 0
M  V30 37249 C 3441.24 -3.05944 -1.45313 0
M  V30 37250 C 3440.28 -4.16459 -0.920003 0
M  V30 37251 S 3441.12 -5.35161 0.190497 0
M  V30 37252 C 3442.27 -6.18738 -0.944114 0
M  V30 37253 H 3442.51 -2.95484 0.328088 0
M  V30 37254 H 3440.04 -1.51692 0.28793 0
M  V30 37255 H 3442 -3.52633 -2.10143 0
M  V30 37256 H 3440.66 -2.35848 -2.07448 0
M  V30 37257 H 3439.85 -4.71972 -1.768 0
M  V30 37258 H 3439.45 -3.72369 -0.348879 0
M  V30 37259 H 3441.75 -6.51781 -1.84898 0
M  V30 37260 H 3442.69 -7.06808 -0.427566 0
M  V30 37261 H 3443.1 -5.51332 -1.21217 0
M  V30 37262 N 3442.49 -0.236508 -1.55815 0
M  V30 37263 C 3443.74 0.39169 -1.98981 0
M  V30 37264 C 3444.07 1.58344 -1.12431 0
M  V30 37265 O 3443.35 1.93615 -0.185337 0
M  V30 37266 C 3443.63 0.811697 -3.50833 0
M  V30 37267 C 3443.48 -0.384726 -4.48152 0
M  V30 37268 C 3444.8 1.66247 -4.07492 0
M  V30 37269 H 3441.92 0.140899 -0.723406 0
M  V30 37270 H 3444.56 -0.335739 -1.8701 0
M  V30 37271 H 3442.71 1.43151 -3.61165 0
M  V30 37272 H 3444.39 -1.02306 -4.49812 0
M  V30 37273 H 3442.63 -1.02963 -4.21404 0
M  V30 37274 H 3443.3 -0.047678 -5.51979 0
M  V30 37275 H 3445.78 1.13936 -4.00197 0
M  V30 37276 H 3444.65 1.92522 -5.1403 0
M  V30 37277 H 3444.91 2.63084 -3.55302 0
M  V30 37278 N 3443.97 1.57557 0.0367273 0
M  V30 37279 C 3445.22 1.88547 0.727632 0
M  V30 37280 C 3445.54 0.83321 1.76303 0
M  V30 37281 O 3444.81 -0.134106 1.9544 0
M  V30 37282 H 3443.39 0.695824 0.271732 0
M  V30 37283 H 3446.05 1.94899 0.00449489 0
M  V30 37284 H 3445.15 2.87182 1.222 0
M  V30 37285 N 3445.45 -0.308854 1.54544 0
M  V30 37286 C 3446.68 -1.06265 1.77176 0
M  V30 37287 C 3447.09 -1.81698 0.527493 0
M  V30 37288 O 3446.43 -1.76421 -0.511996 0
M  V30 37289 C 3446.49 -2.0954 2.92119 0
M  V30 37290 C 3446.16 -1.53373 4.30495 0
M  V30 37291 C 3447.16 -0.967833 5.10812 0
M  V30 37292 C 3444.84 -1.57172 4.77077 0
M  V30 37293 C 3446.83 -0.447405 6.35828 0
M  V30 37294 C 3444.52 -1.04742 6.02057 0
M  V30 37295 C 3445.52 -0.486225 6.81267 0
M  V30 37296 O 3445.21 0.0301468 8.03894 0
M  V30 37297 H 3444.94 -0.32127 0.594779 0
M  V30 37298 H 3447.49 -0.356101 2.0229 0
M  V30 37299 H 3445.72 -2.83853 2.62611 0
M  V30 37300 H 3447.41 -2.70758 3.02399 0
M  V30 37301 H 3448.18 -0.931439 4.75972 0
M  V30 37302 H 3444.06 -1.99792 4.15456 0
M  V30 37303 H 3447.6 -0.0087195 6.97599 0
M  V30 37304 H 3443.5 -1.08094 6.36385 0
M  V30 37305 H 3444.27 -0.0838942 8.18457 0
M  V30 37306 N 3446.93 -1.46867 -0.571659 0
M  V30 37307 C 3448.18 -1.52012 -1.32572 0
M  V30 37308 C 3448.49 -0.180872 -1.94762 0
M  V30 37309 O 3449.7 -0.110206 -2.71276 0
M  V30 37310 C 3448.15 -2.67902 -2.40326 0
M  V30 37311 C 3447.76 -4.08294 -1.84391 0
M  V30 37312 C 3449.51 -2.82327 -3.17004 0
M  V30 37313 C 3447.41 -5.15507 -2.8984 0
M  V30 37314 H 3446.34 -0.56577 -0.498418 0
M  V30 37315 H 3448.99 -1.73106 -0.608823 0
M  V30 37316 H 3447.38 -2.40159 -3.14865 0
M  V30 37317 H 3448.55 -4.45877 -1.16321 0
M  V30 37318 H 3446.86 -3.9863 -1.20344 0
M  V30 37319 H 3449.46 -3.59594 -3.95722 0
M  V30 37320 H 3449.8 -1.90243 -3.70288 0
M  V30 37321 H 3450.34 -3.0977 -2.49575 0
M  V30 37322 H 3447.08 -6.0942 -2.41429 0
M  V30 37323 H 3446.6 -4.82457 -3.56364 0
M  V30 37324 H 3448.28 -5.41831 -3.53593 0
M  V30 37325 N 3448.41 0.817212 -1.34757 0
M  V30 37326 C 3449.34 1.94328 -1.29456 0
M  V30 37327 C 3450.32 1.69239 -0.170932 0
M  V30 37328 O 3451.5 1.90754 -0.364206 0
M  V30 37329 C 3448.63 3.30887 -1.05503 0
M  V30 37330 C 3447.59 3.70432 -2.14393 0
M  V30 37331 C 3446.91 5.05036 -1.75621 0
M  V30 37332 C 3448.21 3.81926 -3.56272 0
M  V30 37333 H 3449.91 1.99021 -2.23676 0
M  V30 37334 H 3447.45 0.95614 -1.07675 0
M  V30 37335 H 3449.41 4.09256 -1.00438 0
M  V30 37336 H 3448.13 3.26509 -0.0772633 0
M  V30 37337 H 3446.79 2.94342 -2.18537 0
M  V30 37338 H 3446.44 4.9715 -0.764896 0
M  V30 37339 H 3446.14 5.32465 -2.48504 0
M  V30 37340 H 3447.66 5.85856 -1.72061 0
M  V30 37341 H 3449.08 4.50552 -3.54508 0
M  V30 37342 H 3447.47 4.20815 -4.27826 0
M  V30 37343 H 3448.54 2.83768 -3.93197 0
M  V30 37344 N 3449.89 1.1858 1.0381 0
M  V30 37345 C 3451.13 0.980807 1.76705 0
M  V30 37346 C 3451.45 -0.490529 1.88729 0
M  V30 37347 O 3450.72 -1.35567 1.41416 0
M  V30 37348 H 3449.3 0.35991 0.654579 0
M  V30 37349 H 3451.97 1.49308 1.25272 0
M  V30 37350 H 3451.06 1.42101 2.77874 0
M  V30 37351 N 3451.36 -1.22766 0.988245 0
M  V30 37352 C 3452.29 -2.2682 0.554518 0
M  V30 37353 C 3453.27 -1.64928 -0.416264 0
M  V30 37354 O 3454.46 -1.91743 -0.307916 0
M  V30 37355 C 3451.59 -3.47033 -0.136205 0
M  V30 37356 C 3450.54 -4.2133 0.752649 0
M  V30 37357 C 3449.87 -5.34653 -0.0707296 0
M  V30 37358 C 3451.17 -4.80505 2.04726 0
M  V30 37359 H 3452.86 -2.63353 1.42428 0
M  V30 37360 H 3450.41 -1.26594 0.68629 0
M  V30 37361 H 3452.36 -4.1898 -0.450995 0
M  V30 37362 H 3451.09 -3.09583 -1.04047 0
M  V30 37363 H 3449.75 -3.51211 1.05101 0
M  V30 37364 H 3449.39 -4.93445 -0.975772 0
M  V30 37365 H 3449.09 -5.85286 0.520938 0
M  V30 37366 H 3450.62 -6.09418 -0.379721 0
M  V30 37367 H 3452.03 -5.44418 1.79672 0
M  V30 37368 H 3450.43 -5.41457 2.58736 0
M  V30 37369 H 3451.5 -4.00814 2.72903 0
M  V30 37370 N 3452.84 -0.760864 -1.38017 0
M  V30 37371 C 3454.09 -0.319644 -1.99556 0
M  V30 37372 C 3454.41 1.10455 -1.60701 0
M  V30 37373 O 3453.68 1.75656 -0.867279 0
M  V30 37374 H 3452.26 -0.115195 -0.738064 0
M  V30 37375 H 3454.92 -0.976574 -1.68668 0
M  V30 37376 H 3454.02 -0.388577 -3.09672 0
M  V30 37377 N 3454.32 1.49102 -0.510519 0
M  V30 37378 C 3455.6 1.95374 0.0940779 0
M  V30 37379 C 3455.98 1.45229 1.53205 0
M  V30 37380 O 3455.32 0.670199 2.1845 0
M  V30 37381 C 3455.53 3.49 -0.00308641 0
M  V30 37382 C 3456.88 4.24275 0.166043 0
M  V30 37383 O 3457.91 3.56128 0.0716471 0
M  V30 37384 O 3456.77 5.45306 0.361059 0
M  V30 37385 H 3453.86 0.822082 0.0900597 0
M  V30 37386 H 3456.41 1.59707 -0.573735 0
M  V30 37387 H 3455.18 3.7816 -1.00552 0
M  V30 37388 H 3454.8 3.9131 0.704449 0
M  V30 37389 N 3455.8 0.244768 1.55688 0
M  V30 37390 C 3457.21 -0.110131 1.5922 0
M  V30 37391 C 3457.41 -1.57093 1.2619 0
M  V30 37392 O 3456.47 -2.31499 1.0082 0
M  V30 37393 C 3457.78 0.237128 2.99764 0
M  V30 37394 C 3459.33 0.181253 3.12475 0
M  V30 37395 C 3459.81 0.502515 4.55235 0
M  V30 37396 N 3461.3 0.452936 4.6098 0
M  V30 37397 C 3462.03 0.674705 5.69417 0
M  V30 37398 N 3461.53 0.959487 6.86124 0
M  V30 37399 N 3463.32 0.605557 5.58829 0
M  V30 37400 H 3455.47 1.19744 1.75428 0
M  V30 37401 H 3457.73 0.481649 0.816528 0
M  V30 37402 H 3457.44 1.25191 3.28664 0
M  V30 37403 H 3457.31 -0.436794 3.74662 0
M  V30 37404 H 3459.7 -0.824198 2.83357 0
M  V30 37405 H 3459.78 0.888994 2.39855 0
M  V30 37406 H 3459.43 1.50551 4.85074 0
M  V30 37407 H 3459.36 -0.22668 5.26112 0
M  V30 37408 H 3461.85 0.241467 3.77128 0
M  V30 37409 H 3462.16 1.11618 7.64697 0
M  V30 37410 H 3460.51 0.996937 6.87813 0
M  V30 37411 H 3463.7 0.383135 4.66529 0
M  V30 37412 H 3463.87 0.781787 6.43267 0
M  V30 37413 N 3457.28 -1.57574 -0.0283712 0
M  V30 37414 C 3458.23 -2.0307 -1.03665 0
M  V30 37415 C 3459.21 -0.920152 -1.31992 0
M  V30 37416 O 3460.4 -1.18404 -1.31566 0
M  V30 37417 C 3457.53 -2.51422 -2.33756 0
M  V30 37418 C 3456.62 -3.69299 -2.08516 0
M  V30 37419 N 3457.01 -4.81997 -1.53336 0
M  V30 37420 C 3455.31 -3.76686 -2.38797 0
M  V30 37421 C 3456.01 -5.63616 -1.43917 0
M  V30 37422 N 3454.98 -5.08753 -1.91498 0
M  V30 37423 H 3458.78 -2.87626 -0.604046 0
M  V30 37424 H 3456.3 -1.60696 -0.234661 0
M  V30 37425 H 3458.3 -2.82276 -3.06799 0
M  V30 37426 H 3456.96 -1.68273 -2.77695 0
M  V30 37427 H 3457.97 -5.03423 -1.21598 0
M  V30 37428 H 3454.64 -3.04338 -2.85805 0
M  V30 37429 H 3456.03 -6.64153 -1.01738 0
M  V30 37430 N 3458.75 0.300654 -1.54706 0
M  V30 37431 C 3460.16 0.873625 -1.64999 0
M  V30 37432 C 3460.52 1.88072 -0.558875 0
M  V30 37433 O 3459.64 2.14248 0.304436 0
M  V30 37434 C 3460.24 1.59133 -2.99102 0
M  V30 37435 C 3458.79 2.1127 -3.11515 0
M  V30 37436 C 3457.94 0.945505 -2.60683 0
M  V30 37437 H 3460.89 0.0776473 -1.5851 0
M  V30 37438 H 3460.91 2.45691 -2.90545 0
M  V30 37439 H 3460.43 0.858106 -3.78495 0
M  V30 37440 H 3458.53 2.87639 -2.36843 0
M  V30 37441 H 3458.64 2.34699 -4.17676 0
M  V30 37442 H 3457 1.33117 -2.17145 0
M  V30 37443 H 3457.79 0.226231 -3.42554 0
M  V30 37444 N 3460.23 1.47168 0.563863 0
M  V30 37445 C 3461.46 1.57299 1.35173 0
M  V30 37446 C 3461.88 0.221268 1.86794 0
M  V30 37447 O 3461.24 -0.80178 1.62607 0
M  V30 37448 C 3461.29 2.59658 2.5022 0
M  V30 37449 O 3460.39 2.14467 3.52246 0
M  V30 37450 H 3459.73 0.528644 0.401786 0
M  V30 37451 H 3462.26 1.92895 0.682103 0
M  V30 37452 H 3462.27 2.79867 2.96881 0
M  V30 37453 H 3460.95 3.57809 2.12004 0
M  V30 37454 H 3459.53 2.04329 3.11936 0
M  V30 37455 N 3461.71 -0.810054 1.35188 0
M  V30 37456 C 3462.66 -1.94311 1.27852 0
M  V30 37457 C 3463.65 -1.68503 0.17411 0
M  V30 37458 O 3464.86 -1.76762 0.339879 0
M  V30 37459 H 3461.23 -0.638346 0.397515 0
M  V30 37460 H 3463.2 -1.97619 2.23583 0
M  V30 37461 C 3461.95 -3.31024 1.06387 0
M  V30 37462 H 3461.28 -3.51438 1.90608 0
M  V30 37463 H 3462.72 -4.10718 1.05295 0
M  V30 37464 C 3461.18 -3.36097 -0.232403 0
M  V30 37465 O 3461.71 -3.82425 -1.22939 0
M  V30 37466 N 3459.91 -2.89343 -0.269978 0
M  V30 37467 H 3459.46 -2.51835 0.541936 0
M  V30 37468 H 3459.42 -2.93119 -1.13703 0
M  V30 37469 N 3463.19 -1.19129 -1.0318 0
M  V30 37470 C 3464.12 -0.950028 -2.133 0
M  V30 37471 C 3465.1 0.115547 -1.69707 0
M  V30 37472 O 3466.28 -0.0388736 -1.94161 0
M  V30 37473 C 3463.41 -0.484697 -3.43901 0
M  V30 37474 C 3462.37 -1.49177 -4.01161 0
M  V30 37475 C 3461.69 -0.883629 -5.27348 0
M  V30 37476 C 3462.99 -2.87114 -4.36306 0
M  V30 37477 H 3464.69 -1.87099 -2.3374 0
M  V30 37478 H 3462.23 -0.900997 -1.1233 0
M  V30 37479 H 3464.19 -0.303224 -4.20308 0
M  V30 37480 H 3462.91 0.471852 -3.23174 0
M  V30 37481 H 3461.57 -1.66034 -3.26846 0
M  V30 37482 H 3461.22 0.0803828 -5.02936 0
M  V30 37483 H 3460.92 -1.55609 -5.66621 0
M  V30 37484 H 3462.44 -0.712886 -6.06424 0
M  V30 37485 H 3463.86 -2.73857 -5.03662 0
M  V30 37486 H 3462.25 -3.51126 -4.86652 0
M  V30 37487 H 3463.32 -3.39991 -3.45737 0
M  V30 37488 N 3464.67 1.2224 -0.994741 0
M  V30 37489 C 3465.6 2.22845 -0.491484 0
M  V30 37490 C 3466.58 1.56271 0.449237 0
M  V30 37491 O 3467.76 1.84745 0.374353 0
M  V30 37492 C 3464.89 3.37479 0.287295 0
M  V30 37493 C 3463.93 4.22263 -0.599691 0
M  V30 37494 S 3464.77 4.94455 -2.05607 0
M  V30 37495 C 3465.92 6.12529 -1.28684 0
M  V30 37496 H 3466.16 2.65188 -1.34398 0
M  V30 37497 H 3463.69 1.31946 -0.801856 0
M  V30 37498 H 3465.65 4.03947 0.730575 0
M  V30 37499 H 3464.31 2.9364 1.11509 0
M  V30 37500 H 3463.5 5.04 -0.000377868 0
M  V30 37501 H 3463.1 3.60937 -0.979811 0
M  V30 37502 H 3465.4 6.75219 -0.555434 0
M  V30 37503 H 3466.34 6.76875 -2.07955 0
M  V30 37504 H 3466.75 5.58812 -0.799318 0
M  V30 37505 N 3466.14 0.768172 1.37611 0
M  V30 37506 C 3467.07 0.165952 2.3291 0
M  V30 37507 C 3468.06 -0.687178 1.55602 0
M  V30 37508 O 3469.24 -0.625374 1.83855 0
M  V30 37509 C 3466.37 -0.71674 3.39824 0
M  V30 37510 C 3465.32 0.0348016 4.27986 0
M  V30 37511 C 3464.65 -0.9671 5.25881 0
M  V30 37512 C 3465.95 1.21173 5.0805 0
M  V30 37513 H 3467.64 0.962055 2.83522 0
M  V30 37514 H 3465.19 0.464075 1.36317 0
M  V30 37515 H 3467.14 -1.14782 4.05466 0
M  V30 37516 H 3465.87 -1.54532 2.87728 0
M  V30 37517 H 3464.53 0.446621 3.63869 0
M  V30 37518 H 3464.17 -1.79014 4.70067 0
M  V30 37519 H 3463.87 -0.46881 5.85727 0
M  V30 37520 H 3465.4 -1.39719 5.944 0
M  V30 37521 H 3466.81 0.857473 5.66851 0
M  V30 37522 H 3465.21 1.64186 5.77203 0
M  V30 37523 H 3466.28 2.01758 4.40933 0
M  V30 37524 N 3467.62 -1.48829 0.518419 0
M  V30 37525 C 3468.9 -1.95421 -0.0837154 0
M  V30 37526 C 3469.28 -1.4604 -1.52432 0
M  V30 37527 O 3468.63 -0.681774 -2.18092 0
M  V30 37528 C 3468.84 -3.48993 0.0215947 0
M  V30 37529 C 3470.19 -4.24357 -0.14354 0
M  V30 37530 O 3471.21 -3.56161 -0.0527597 0
M  V30 37531 O 3470.07 -5.4549 -0.332135 0
M  V30 37532 H 3467.16 -0.822548 -0.0856987 0
M  V30 37533 H 3469.71 -1.59401 0.582197 0
M  V30 37534 H 3468.48 -3.77621 1.02556 0
M  V30 37535 H 3468.1 -3.91678 -0.683687 0
M  V30 37536 N 3469.1 -0.253021 -1.55556 0
M  V30 37537 C 3470.52 0.101686 -1.59276 0
M  V30 37538 C 3470.72 1.56422 -1.27021 0
M  V30 37539 O 3469.77 2.30961 -1.02046 0
M  V30 37540 C 3471.09 -0.253022 -2.99634 0
M  V30 37541 C 3472.63 -0.197822 -3.12374 0
M  V30 37542 C 3473.11 -0.52665 -4.54962 0
M  V30 37543 N 3474.6 -0.477377 -4.60733 0
M  V30 37544 C 3475.33 -0.704893 -5.69051 0
M  V30 37545 N 3474.83 -0.99586 -6.85605 0
M  V30 37546 N 3476.62 -0.635185 -5.585 0
M  V30 37547 H 3468.77 -1.20673 -1.74791 0
M  V30 37548 H 3471.04 -0.485972 -0.813962 0
M  V30 37549 H 3470.74 -1.26932 -3.27996 0
M  V30 37550 H 3470.62 0.416918 -3.74889 0
M  V30 37551 H 3473 0.809159 -2.8379 0
M  V30 37552 H 3473.09 -0.901701 -2.3938 0
M  V30 37553 H 3472.73 -1.53121 -4.84269 0
M  V30 37554 H 3472.66 0.198776 -5.26225 0
M  V30 37555 H 3475.15 -0.261464 -3.76994 0
M  V30 37556 H 3475.46 -1.15672 -7.64094 0
M  V30 37557 H 3473.81 -1.0334 -6.87274 0
M  V30 37558 H 3477 -0.407871 -4.6632 0
M  V30 37559 H 3477.17 -0.81589 -6.42843 0
M  V30 37560 N 3470.58 1.57587 0.0200142 0
M  V30 37561 C 3471.51 2.10183 1.01712 0
M  V30 37562 C 3472.49 1.00639 1.37134 0
M  V30 37563 O 3473.67 1.28213 1.4586 0
M  V30 37564 C 3470.8 2.58869 2.31526 0
M  V30 37565 C 3469.76 3.72759 2.1032 0
M  V30 37566 C 3469.08 4.07684 3.45974 0
M  V30 37567 C 3470.38 5.00833 1.48201 0
M  V30 37568 H 3472.08 2.93743 0.579255 0
M  V30 37569 H 3469.62 1.41307 0.277187 0
M  V30 37570 H 3471.58 2.94287 3.01618 0
M  V30 37571 H 3470.3 1.72404 2.77389 0
M  V30 37572 H 3468.96 3.37704 1.42659 0
M  V30 37573 H 3468.61 3.18272 3.89502 0
M  V30 37574 H 3468.31 4.84403 3.32608 0
M  V30 37575 H 3469.83 4.45644 4.17413 0
M  V30 37576 H 3471.25 5.3415 2.08222 0
M  V30 37577 H 3469.64 5.82223 1.45383 0
M  V30 37578 H 3470.71 4.82818 0.448857 0
M  V30 37579 N 3472.06 -0.292445 1.54863 0
M  V30 37580 C 3473.28 -1.04963 1.78879 0
M  V30 37581 C 3473.71 -1.79856 0.550755 0
M  V30 37582 O 3473.06 -1.74297 -0.499024 0
M  V30 37583 C 3473.11 -1.99917 3.00109 0
M  V30 37584 O 3472.22 -3.08366 2.73833 0
M  V30 37585 H 3471.56 -0.301097 0.591808 0
M  V30 37586 H 3474.09 -0.327265 2.01966 0
M  V30 37587 H 3474.1 -2.42228 3.28313 0
M  V30 37588 H 3472.77 -1.44814 3.89874 0
M  V30 37589 H 3471.35 -2.70509 2.5667 0
M  V30 37590 N 3473.53 -1.47465 -0.55605 0
M  V30 37591 C 3474.78 -1.53845 -1.31058 0
M  V30 37592 C 3475.1 -0.20284 -1.93942 0
M  V30 37593 O 3474.37 0.773306 -1.79991 0
M  V30 37594 H 3472.95 -0.566697 -0.486686 0
M  V30 37595 H 3475.62 -1.8377 -0.649208 0
M  V30 37596 H 3474.71 -2.30563 -2.1035 0
M  V30 37597 N 3475.01 0.802873 -1.35616 0
M  V30 37598 C 3475.96 1.9149 -1.28842 0
M  V30 37599 C 3476.93 1.65331 -0.15965 0
M  V30 37600 O 3478.12 1.87674 -0.343964 0
M  V30 37601 C 3475.26 3.28091 -1.07005 0
M  V30 37602 C 3474.37 3.66412 -2.28837 0
M  V30 37603 C 3473.5 4.92062 -2.0012 0
M  V30 37604 C 3472.54 5.23021 -3.17986 0
M  V30 37605 N 3471.68 6.39853 -2.89021 0
M  V30 37606 H 3476.52 1.96616 -2.23934 0
M  V30 37607 H 3474.06 0.961668 -1.11312 0
M  V30 37608 H 3476.01 4.06845 -0.923745 0
M  V30 37609 H 3474.64 3.22424 -0.155741 0
M  V30 37610 H 3473.7 2.82889 -2.54319 0
M  V30 37611 H 3475.01 3.85248 -3.16837 0
M  V30 37612 H 3474.16 5.78651 -1.82342 0
M  V30 37613 H 3472.9 4.75269 -1.09411 0
M  V30 37614 H 3471.91 4.34922 -3.36338 0
M  V30 37615 H 3473.13 5.41742 -4.09502 0
M  V30 37616 H 3471.08 6.24477 -2.00909 0
M  V30 37617 H 3470.99 6.58957 -3.70556 0
M  V30 37618 H 3472.26 7.29459 -2.74792 0
M  V30 37619 N 3476.49 1.19674 1.02547 0
M  V30 37620 C 3477.74 0.995762 1.75407 0
M  V30 37621 C 3478.05 -0.473829 1.89774 0
M  V30 37622 O 3479.26 -0.793717 2.59639 0
M  V30 37623 C 3477.72 1.73278 3.1544 0
M  V30 37624 C 3477.32 3.24271 3.09115 0
M  V30 37625 C 3479.07 1.61516 3.92572 0
M  V30 37626 C 3476.97 3.90548 4.44102 0
M  V30 37627 H 3475.9 0.368955 0.657562 0
M  V30 37628 H 3478.56 1.43205 1.14737 0
M  V30 37629 H 3476.94 1.22432 3.76598 0
M  V30 37630 H 3478.11 3.82262 2.57318 0
M  V30 37631 H 3476.43 3.36346 2.45479 0
M  V30 37632 H 3479.02 2.08381 4.92424 0
M  V30 37633 H 3479.37 0.569876 4.12381 0
M  V30 37634 H 3479.9 2.09727 3.38023 0
M  V30 37635 H 3476.64 4.95189 4.29497 0
M  V30 37636 H 3476.16 3.37346 4.95942 0
M  V30 37637 H 3477.84 3.94291 5.12975 0
M  V30 37638 N 3477.97 -1.21711 1.00121 0
M  V30 37639 C 3478.9 -2.26219 0.578544 0
M  V30 37640 C 3479.88 -1.6536 -0.398748 0
M  V30 37641 O 3481.07 -1.92059 -0.287562 0
M  V30 37642 C 3478.2 -3.47158 -0.0993898 0
M  V30 37643 C 3477.15 -4.20508 0.797294 0
M  V30 37644 C 3476.48 -5.34698 -0.0140185 0
M  V30 37645 C 3477.78 -4.78306 2.09811 0
M  V30 37646 H 3479.47 -2.61827 1.45213 0
M  V30 37647 H 3477.02 -1.25859 0.699678 0
M  V30 37648 H 3478.97 -4.19434 -0.406531 0
M  V30 37649 H 3477.69 -3.10669 -1.00758 0
M  V30 37650 H 3476.35 -3.50077 1.0882 0
M  V30 37651 H 3476 -4.94452 -0.923381 0
M  V30 37652 H 3475.7 -5.84701 0.582986 0
M  V30 37653 H 3477.22 -6.09787 -0.315062 0
M  V30 37654 H 3478.64 -5.42481 1.85437 0
M  V30 37655 H 3477.03 -5.38682 2.64464 0
M  V30 37656 H 3478.1 -3.97897 2.77139 0
M  V30 37657 N 3479.45 -0.775459 -1.37202 0
M  V30 37658 C 3480.4 -0.137707 -2.27584 0
M  V30 37659 C 3481.38 0.670109 -1.46282 0
M  V30 37660 O 3482.57 0.532473 -1.68801 0
M  V30 37661 C 3479.7 0.737671 -3.35281 0
M  V30 37662 C 3478.79 -0.0781766 -4.24028 0
M  V30 37663 N 3479.18 -1.12568 -4.93115 0
M  V30 37664 C 3477.48 0.145216 -4.45764 0
M  V30 37665 C 3478.18 -1.62117 -5.58653 0
M  V30 37666 N 3477.15 -0.932716 -5.35538 0
M  V30 37667 H 3480.96 -0.939659 -2.78474 0
M  V30 37668 H 3478.47 -0.613571 -1.50363 0
M  V30 37669 H 3480.47 1.21036 -3.98943 0
M  V30 37670 H 3479.13 1.53833 -2.85947 0
M  V30 37671 H 3480.14 -1.50789 -4.95462 0
M  V30 37672 H 3476.82 0.917486 -4.07294 0
M  V30 37673 H 3478.21 -2.49493 -6.23861 0
M  V30 37674 N 3480.93 1.48552 -0.526305 0
M  V30 37675 C 3482.17 2.01697 0.0111118 0
M  V30 37676 C 3482.49 1.40898 1.35673 0
M  V30 37677 O 3483.69 1.85519 1.9823 0
M  V30 37678 C 3482.15 3.59832 0.0702088 0
M  V30 37679 C 3481.76 4.29613 -1.27029 0
M  V30 37680 C 3483.5 4.20834 0.556648 0
M  V30 37681 C 3481.41 5.79671 -1.17198 0
M  V30 37682 H 3480.34 0.753958 0.00792372 0
M  V30 37683 H 3482.99 1.70849 -0.669533 0
M  V30 37684 H 3481.37 3.87505 0.815851 0
M  V30 37685 H 3482.55 4.13616 -2.03121 0
M  V30 37686 H 3480.86 3.80466 -1.69217 0
M  V30 37687 H 3483.46 5.30758 0.648112 0
M  V30 37688 H 3483.8 3.85903 1.56156 0
M  V30 37689 H 3484.33 3.97577 -0.133202 0
M  V30 37690 H 3481.07 6.19171 -2.15193 0
M  V30 37691 H 3480.59 5.98092 -0.452364 0
M  V30 37692 H 3482.27 6.41244 -0.861123 0
M  V30 37693 N 3482.4 0.261267 1.55419 0
M  V30 37694 C 3483.68 -0.410526 1.91243 0
M  V30 37695 C 3484.06 -1.74781 1.18383 0
M  V30 37696 O 3483.41 -2.26441 0.306052 0
M  V30 37697 C 3483.62 -0.56447 3.44405 0
M  V30 37698 C 3484.97 -0.853754 4.15928 0
M  V30 37699 O 3485.99 -0.6498 3.50223 0
M  V30 37700 O 3484.85 -1.24299 5.32177 0
M  V30 37701 H 3481.94 -0.222541 0.796495 0
M  V30 37702 H 3484.49 0.306396 1.66911 0
M  V30 37703 H 3483.26 0.377203 3.89478 0
M  V30 37704 H 3482.88 -1.33139 3.74646 0
M  V30 37705 N 3483.88 -1.57596 -0.0116567 0
M  V30 37706 C 3485.13 -1.90056 -0.698925 0
M  V30 37707 C 3485.46 -0.860689 -1.7442 0
M  V30 37708 O 3484.71 0.136098 -1.95226 0
M  V30 37709 C 3485.01 -3.29271 -1.38979 0
M  V30 37710 C 3484.68 -4.4835 -0.478837 0
M  V30 37711 C 3483.34 -4.8066 -0.227986 0
M  V30 37712 C 3485.69 -5.20987 0.149061 0
M  V30 37713 C 3483.02 -5.82984 0.65925 0
M  V30 37714 C 3485.37 -6.24255 1.0241 0
M  V30 37715 C 3484.03 -6.55029 1.28425 0
M  V30 37716 H 3483.3 -0.695464 -0.255755 0
M  V30 37717 H 3485.95 -1.91455 0.0413676 0
M  V30 37718 H 3484.26 -3.23941 -2.20384 0
M  V30 37719 H 3485.95 -3.51642 -1.92741 0
M  V30 37720 H 3482.54 -4.23099 -0.684515 0
M  V30 37721 H 3486.73 -4.9629 -0.0317454 0
M  V30 37722 H 3481.98 -6.05194 0.868926 0
M  V30 37723 H 3486.16 -6.79675 1.51706 0
M  V30 37724 H 3483.78 -7.34138 1.97345 0
M  V30 37725 N 3485.36 0.284228 -1.55016 0
M  V30 37726 C 3486.61 1.01529 -1.74746 0
M  V30 37727 C 3486.93 1.87218 -0.545367 0
M  V30 37728 O 3486.2 1.90894 0.440013 0
M  V30 37729 H 3484.78 0.377853 -0.644388 0
M  V30 37730 H 3487.44 0.311166 -1.924 0
M  V30 37731 H 3486.54 1.65873 -2.64372 0
M  V30 37732 N 3486.84 1.47758 0.548222 0
M  V30 37733 C 3488.11 1.45327 1.30918 0
M  V30 37734 C 3488.49 0.155045 2.1053 0
M  V30 37735 O 3487.84 -0.863418 2.11559 0
M  V30 37736 C 3488.05 2.7043 2.20609 0
M  V30 37737 C 3489.4 3.18014 2.8134 0
M  V30 37738 O 3490.42 2.71221 2.30907 0
M  V30 37739 O 3489.28 3.99389 3.73029 0
M  V30 37740 H 3486.38 0.579558 0.58995 0
M  V30 37741 H 3488.92 1.59969 0.566382 0
M  V30 37742 H 3487.7 3.56444 1.61442 0
M  V30 37743 H 3487.32 2.58418 3.02168 0
M  V30 37744 N 3488.32 -0.79567 1.3604 0
M  V30 37745 C 3489.56 -1.56653 1.31298 0
M  V30 37746 C 3489.92 -1.91694 -0.10829 0
M  V30 37747 O 3491.12 -2.67336 -0.280201 0
M  V30 37748 C 3489.39 -2.81339 2.20416 0
M  V30 37749 S 3490.95 -3.71643 2.33296 0
M  V30 37750 H 3487.77 -0.536606 0.466449 0
M  V30 37751 H 3490.37 -0.937667 1.71546 0
M  V30 37752 H 3489.07 -2.53637 3.2264 0
M  V30 37753 H 3488.61 -3.49203 1.81164 0
M  V30 37754 H 3490.62 -4.72158 1.52584 0
M  V30 37755 N 3489.79 -1.20217 -1.0191 0
M  V30 37756 C 3491.04 -1.01079 -1.75469 0
M  V30 37757 C 3491.37 0.45737 -1.89046 0
M  V30 37758 O 3490.62 1.35582 -1.41124 0
M  V30 37759 C 3490.92 -1.63651 -3.17731 0
M  V30 37760 C 3490.59 -3.13442 -3.24137 0
M  V30 37761 C 3489.25 -3.5432 -3.25593 0
M  V30 37762 C 3491.6 -4.09442 -3.22501 0
M  V30 37763 C 3488.93 -4.89731 -3.2308 0
M  V30 37764 C 3491.28 -5.44795 -3.2153 0
M  V30 37765 C 3489.95 -5.8509 -3.21288 0
M  V30 37766 H 3489.22 -0.369875 -0.642085 0
M  V30 37767 H 3491.86 -1.49605 -1.19544 0
M  V30 37768 H 3490.17 -1.07382 -3.76798 0
M  V30 37769 H 3491.87 -1.46362 -3.73335 0
M  V30 37770 H 3488.46 -2.80876 -3.23738 0
M  V30 37771 H 3492.64 -3.78896 -3.20549 0
M  V30 37772 H 3487.9 -5.20217 -3.21222 0
M  V30 37773 H 3492.07 -6.1893 -3.19216 0
M  V30 37774 H 3489.7 -6.89987 -3.19095 0
M  V30 37775 N 3491.27 1.21178 -1.00765 0
M  V30 37776 C 3492.18 2.27325 -0.579686 0
M  V30 37777 C 3493.2 1.69832 0.378562 0
M  V30 37778 O 3494.37 1.99944 0.241737 0
M  V30 37779 C 3491.44 3.46597 0.0843039 0
M  V30 37780 C 3490.5 4.19353 -0.918759 0
M  V30 37781 C 3489.73 5.32931 -0.286361 0
M  V30 37782 O 3489.96 5.62994 0.916175 0
M  V30 37783 O 3488.89 5.93558 -0.998617 0
M  V30 37784 H 3492.72 2.6613 -1.46316 0
M  V30 37785 H 3490.3 1.27626 -0.776664 0
M  V30 37786 H 3492.18 4.1893 0.455562 0
M  V30 37787 H 3490.86 3.09687 0.942111 0
M  V30 37788 H 3489.77 3.49231 -1.34122 0
M  V30 37789 H 3491.1 4.60182 -1.74624 0
M  V30 37790 N 3492.75 0.782725 1.36789 0
M  V30 37791 C 3494 0.352568 1.99712 0
M  V30 37792 C 3494.33 -1.07118 1.61986 0
M  V30 37793 O 3493.6 -1.73889 0.871372 0
M  V30 37794 C 3493.89 0.508691 3.56489 0
M  V30 37795 C 3493.74 1.97564 4.0409 0
M  V30 37796 C 3495.06 -0.0803673 4.40027 0
M  V30 37797 H 3492.18 0.129579 0.725519 0
M  V30 37798 H 3494.82 0.987816 1.62303 0
M  V30 37799 H 3492.97 -0.0320981 3.88487 0
M  V30 37800 H 3494.64 2.57698 3.82609 0
M  V30 37801 H 3492.89 2.48061 3.55877 0
M  V30 37802 H 3493.56 2.03588 5.13085 0
M  V30 37803 H 3496.03 0.381186 4.1435 0
M  V30 37804 H 3494.91 0.0589389 5.48868 0
M  V30 37805 H 3495.17 -1.17181 4.26287 0
M  V30 37806 N 3494.23 -1.48271 0.534176 0
M  V30 37807 C 3495.19 -2.28184 -0.215601 0
M  V30 37808 C 3496.19 -1.3562 -0.863942 0
M  V30 37809 O 3497.38 -1.58472 -0.723347 0
M  V30 37810 C 3494.51 -3.14623 -1.31246 0
M  V30 37811 H 3495.71 -2.95935 0.486066 0
M  V30 37812 H 3493.26 -1.53581 0.290264 0
M  V30 37813 H 3493.99 -2.51512 -2.04725 0
M  V30 37814 H 3493.78 -3.82717 -0.852639 0
M  V30 37815 H 3495.27 -3.74892 -1.83972 0
M  V30 37816 N 3495.71 -0.269505 -1.55279 0
M  V30 37817 C 3496.64 0.661611 -2.18399 0
M  V30 37818 C 3497.62 1.15635 -1.14312 0
M  V30 37819 O 3498.8 1.23035 -1.4281 0
M  V30 37820 C 3495.93 1.90167 -2.80275 0
M  V30 37821 C 3494.97 1.54288 -3.97615 0
M  V30 37822 S 3495.81 0.625902 -5.3183 0
M  V30 37823 C 3496.96 1.87446 -5.97172 0
M  V30 37824 H 3497.2 0.125273 -2.97036 0
M  V30 37825 H 3494.73 -0.0537983 -1.54306 0
M  V30 37826 H 3496.69 2.61346 -3.16557 0
M  V30 37827 H 3495.35 2.40914 -2.01542 0
M  V30 37828 H 3494.54 2.46547 -4.3958 0
M  V30 37829 H 3494.14 0.911331 -3.62727 0
M  V30 37830 H 3496.44 2.81906 -6.16064 0
M  V30 37831 H 3497.38 1.49791 -6.92075 0
M  V30 37832 H 3497.79 2.03684 -5.26472 0
M  V30 37833 N 3497.18 1.576 0.00329885 0
M  V30 37834 C 3498.41 1.94702 0.69991 0
M  V30 37835 C 3498.83 0.871342 1.67491 0
M  V30 37836 O 3498.18 -0.150022 1.81882 0
M  V30 37837 C 3498.24 3.31813 1.43465 0
M  V30 37838 O 3497.96 4.35252 0.498759 0
M  V30 37839 C 3499.46 3.83355 2.22607 0
M  V30 37840 H 3496.68 0.641996 0.195146 0
M  V30 37841 H 3499.22 2.04446 -0.0468403 0
M  V30 37842 H 3497.38 3.23387 2.13306 0
M  V30 37843 H 3497.79 5.1455 1.01678 0
M  V30 37844 H 3499.26 4.8173 2.69519 0
M  V30 37845 H 3499.74 3.15889 3.05141 0
M  V30 37846 H 3500.35 3.94946 1.57789 0
M  V30 37847 N 3498.66 -0.276003 1.55164 0
M  V30 37848 C 3500.08 -0.623036 1.46937 0
M  V30 37849 C 3500.28 -1.89643 0.68101 0
M  V30 37850 O 3499.33 -2.51717 0.198662 0
M  V30 37851 C 3500.65 -0.752788 2.91125 0
M  V30 37852 C 3502.2 -0.84704 3.01321 0
M  V30 37853 C 3502.67 -1.00859 4.46757 0
M  V30 37854 N 3504.16 -1.07419 4.50572 0
M  V30 37855 C 3504.9 -1.21794 5.60316 0
M  V30 37856 N 3504.39 -1.32907 6.79932 0
M  V30 37857 N 3506.19 -1.2488 5.48052 0
M  V30 37858 H 3498.34 0.560318 2.04876 0
M  V30 37859 H 3500.6 0.189233 0.928921 0
M  V30 37860 H 3500.31 0.112395 3.5152 0
M  V30 37861 H 3500.18 -1.63402 3.3997 0
M  V30 37862 H 3502.57 -1.70269 2.41024 0
M  V30 37863 H 3502.65 0.0587346 2.55733 0
M  V30 37864 H 3502.29 -0.157611 5.07655 0
M  V30 37865 H 3502.22 -1.92897 4.89998 0
M  V30 37866 H 3504.71 -1.00083 3.64406 0
M  V30 37867 H 3505.03 -1.43701 7.59322 0
M  V30 37868 H 3503.37 -1.29917 6.82749 0
M  V30 37869 H 3506.56 -1.15827 4.53544 0
M  V30 37870 H 3506.73 -1.35739 6.33624 0
M  V30 37871 N 3500.14 -1.48046 -0.540378 0
M  V30 37872 C 3501.05 -1.64457 -1.67305 0
M  V30 37873 C 3502.07 -0.527181 -1.65822 0
M  V30 37874 O 3503.24 -0.796914 -1.84963 0
M  V30 37875 C 3500.31 -1.67073 -3.03789 0
M  V30 37876 C 3499.37 -2.90363 -3.16208 0
M  V30 37877 C 3498.6 -2.92844 -4.46181 0
M  V30 37878 O 3498.82 -2.04038 -5.32658 0
M  V30 37879 O 3497.76 -3.849 -4.62748 0
M  V30 37880 H 3501.58 -2.60333 -1.56398 0
M  V30 37881 H 3499.17 -1.31327 -0.7123 0
M  V30 37882 H 3501.05 -1.71374 -3.84979 0
M  V30 37883 H 3499.73 -0.743685 -3.15041 0
M  V30 37884 H 3498.63 -2.91599 -2.34352 0
M  V30 37885 H 3499.97 -3.82418 -3.09867 0
M  V30 37886 N 3501.62 0.788444 -1.3646 0
M  V30 37887 C 3502.57 1.90112 -1.30866 0
M  V30 37888 C 3503.54 1.65152 -0.177177 0
M  V30 37889 O 3504.72 1.87299 -0.36385 0
M  V30 37890 C 3501.86 3.26938 -1.10479 0
M  V30 37891 C 3500.97 3.63964 -2.32711 0
M  V30 37892 C 3500.11 4.89912 -2.05328 0
M  V30 37893 C 3499.15 5.19619 -3.23515 0
M  V30 37894 N 3498.28 6.36751 -2.95791 0
M  V30 37895 H 3503.12 1.94229 -2.26007 0
M  V30 37896 H 3500.66 0.949807 -1.12326 0
M  V30 37897 H 3502.62 4.05842 -0.966844 0
M  V30 37898 H 3501.25 3.22241 -0.189929 0
M  V30 37899 H 3500.3 2.80176 -2.57305 0
M  V30 37900 H 3501.61 3.81865 -3.20905 0
M  V30 37901 H 3500.77 5.76684 -1.88469 0
M  V30 37902 H 3499.51 4.74082 -1.14445 0
M  V30 37903 H 3498.51 4.3133 -3.40932 0
M  V30 37904 H 3499.74 5.37368 -4.15225 0
M  V30 37905 H 3497.68 6.22311 -2.07521 0
M  V30 37906 H 3497.6 6.5499 -3.77524 0
M  V30 37907 H 3498.87 7.26503 -2.82513 0
M  V30 37908 N 3503.1 1.20755 1.01271 0
M  V30 37909 C 3504.34 1.02008 1.7493 0
M  V30 37910 C 3504.67 -0.447338 1.89286 0
M  V30 37911 O 3503.93 -1.34832 1.41841 0
M  V30 37912 C 3504.23 1.65334 3.16859 0
M  V30 37913 C 3503.89 3.15157 3.2247 0
M  V30 37914 C 3502.55 3.56042 3.23709 0
M  V30 37915 C 3504.91 4.11146 3.20325 0
M  V30 37916 C 3502.23 4.91437 3.20479 0
M  V30 37917 C 3504.59 5.46492 3.18636 0
M  V30 37918 C 3503.25 5.86786 3.1818 0
M  V30 37919 H 3502.52 0.373275 0.640115 0
M  V30 37920 H 3505.17 1.50236 1.18749 0
M  V30 37921 H 3503.47 1.09378 3.76223 0
M  V30 37922 H 3505.17 1.4834 3.72554 0
M  V30 37923 H 3501.76 2.82589 3.22244 0
M  V30 37924 H 3505.94 3.80591 3.18535 0
M  V30 37925 H 3501.2 5.21914 3.18459 0
M  V30 37926 H 3505.37 6.20614 3.15929 0
M  V30 37927 H 3503 6.9167 3.15431 0
M  V30 37928 N 3504.58 -1.20642 1.01406 0
M  V30 37929 C 3505.99 -1.71671 0.733891 0
M  V30 37930 C 3506.34 -1.81391 -0.747772 0
M  V30 37931 O 3505.46 -1.47472 -1.5837 0
M  V30 37932 C 3506.06 -3.11793 1.32554 0
M  V30 37933 C 3504.62 -3.60142 1.09429 0
M  V30 37934 C 3503.76 -2.37416 1.43279 0
M  V30 37935 H 3506.71 -1.05692 1.18385 0
M  V30 37936 H 3506.74 -3.73725 0.714814 0
M  V30 37937 H 3506.25 -3.04686 2.40391 0
M  V30 37938 H 3504.35 -3.72585 0.0334768 0
M  V30 37939 H 3504.46 -4.45103 1.77256 0
M  V30 37940 H 3502.83 -2.40036 0.851756 0
M  V30 37941 H 3503.61 -2.32952 2.52167 0
M  V30 37942 N 3506.05 -0.789968 -1.36372 0
M  V30 37943 C 3506.96 -0.189914 -2.3383 0
M  V30 37944 C 3507.98 0.658242 -1.61069 0
M  V30 37945 O 3509.16 0.573898 -1.9305 0
M  V30 37946 C 3506.22 0.664845 -3.40266 0
M  V30 37947 C 3505.28 -0.201873 -4.28825 0
M  V30 37948 C 3504.51 0.612185 -5.30177 0
M  V30 37949 O 3504.74 1.84812 -5.3963 0
M  V30 37950 O 3503.67 0.0117906 -6.01899 0
M  V30 37951 H 3507.5 -0.995721 -2.86913 0
M  V30 37952 H 3505.08 -0.551436 -1.38851 0
M  V30 37953 H 3506.96 1.15224 -4.05341 0
M  V30 37954 H 3505.64 1.44853 -2.89481 0
M  V30 37955 H 3504.55 -0.736038 -3.66788 0
M  V30 37956 H 3505.88 -0.949088 -4.82963 0
M  V30 37957 N 3507.53 1.47986 -0.542031 0
M  V30 37958 C 3508.48 2.29805 0.214111 0
M  V30 37959 C 3509.45 1.38121 0.9226 0
M  V30 37960 O 3510.63 1.67084 0.921272 0
M  V30 37961 C 3507.77 3.21758 1.24762 0
M  V30 37962 C 3506.89 4.28526 0.546749 0
M  V30 37963 C 3506.02 5.07647 1.56423 0
M  V30 37964 C 3505.06 6.06205 0.847491 0
M  V30 37965 N 3504.2 6.78339 1.81109 0
M  V30 37966 H 3509.04 2.93948 -0.489758 0
M  V30 37967 H 3506.57 1.44902 -0.253357 0
M  V30 37968 H 3508.53 3.7348 1.85926 0
M  V30 37969 H 3507.16 2.59512 1.91972 0
M  V30 37970 H 3506.21 3.79978 -0.179092 0
M  V30 37971 H 3507.53 4.98798 -0.01545 0
M  V30 37972 H 3506.68 5.63443 2.24983 0
M  V30 37973 H 3505.42 4.37242 2.16034 0
M  V30 37974 H 3504.42 5.49601 0.147892 0
M  V30 37975 H 3505.65 6.78612 0.257335 0
M  V30 37976 H 3503.6 6.10676 2.39605 0
M  V30 37977 H 3503.51 7.44728 1.30064 0
M  V30 37978 H 3504.78 7.38718 2.48829 0
M  V30 37979 N 3509.01 0.277736 1.55133 0
M  V30 37980 C 3510.26 -0.338947 1.98832 0
M  V30 37981 C 3510.57 -1.56779 1.1696 0
M  V30 37982 O 3511.78 -2.25759 1.50815 0
M  V30 37983 C 3510.23 -0.654403 3.53901 0
M  V30 37984 C 3509.84 0.554781 4.44552 0
M  V30 37985 C 3511.59 -1.23357 4.06181 0
M  V30 37986 C 3509.49 0.213767 5.91014 0
M  V30 37987 H 3508.42 -0.130421 0.742635 0
M  V30 37988 H 3511.07 0.3828 1.79463 0
M  V30 37989 H 3509.46 -1.43512 3.6908 0
M  V30 37990 H 3510.63 1.33159 4.41141 0
M  V30 37991 H 3508.94 1.05097 4.02919 0
M  V30 37992 H 3511.54 -1.50256 5.13154 0
M  V30 37993 H 3511.88 -2.1683 3.55374 0
M  V30 37994 H 3512.42 -0.515078 3.94451 0
M  V30 37995 H 3509.16 1.11644 6.45922 0
M  V30 37996 H 3508.68 -0.526224 5.97487 0
M  V30 37997 H 3510.36 -0.193077 6.46712 0
M  V30 37998 N 3510.49 -1.57599 0.00505908 0
M  V30 37999 C 3511.9 -1.78808 -0.537074 0
M  V30 38000 C 3512.25 -0.912976 -1.73664 0
M  V30 38001 O 3511.37 -0.116813 -2.16084 0
M  V30 38002 C 3511.97 -3.24284 -0.981103 0
M  V30 38003 C 3510.53 -3.46571 -1.46851 0
M  V30 38004 C 3509.68 -2.7407 -0.42204 0
M  V30 38005 H 3512.63 -1.57007 0.23121 0
M  V30 38006 H 3512.65 -3.32674 -1.84684 0
M  V30 38007 H 3512.16 -3.8795 -0.107839 0
M  V30 38008 H 3510.26 -2.88126 -2.3625 0
M  V30 38009 H 3510.37 -4.5526 -1.49248 0
M  V30 38010 H 3508.74 -2.38837 -0.884811 0
M  V30 38011 H 3509.52 -3.40438 0.442345 0
M  V30 38012 N 3511.97 0.267771 -1.55309 0
M  V30 38013 C 3513.21 0.998676 -1.76161 0
M  V30 38014 C 3513.54 1.86094 -0.565606 0
M  V30 38015 O 3512.8 1.90415 0.451747 0
M  V30 38016 C 3513.09 1.90673 -3.02289 0
M  V30 38017 C 3512.76 1.20153 -4.34596 0
M  V30 38018 C 3511.42 1.00656 -4.70555 0
M  V30 38019 C 3513.77 0.700109 -5.16476 0
M  V30 38020 C 3511.1 0.297526 -5.85945 0
M  V30 38021 C 3513.45 0.00464068 -6.326 0
M  V30 38022 C 3512.12 -0.201997 -6.67194 0
M  V30 38023 H 3511.39 0.365441 -0.644619 0
M  V30 38024 H 3514.04 0.270512 -1.8958 0
M  V30 38025 H 3512.34 2.70128 -2.83793 0
M  V30 38026 H 3514.04 2.47357 -3.1562 0
M  V30 38027 H 3510.63 1.36341 -4.06336 0
M  V30 38028 H 3514.81 0.838349 -4.89168 0
M  V30 38029 H 3510.07 0.126756 -6.11269 0
M  V30 38030 H 3514.24 -0.391633 -6.95298 0
M  V30 38031 H 3511.87 -0.753385 -7.56458 0
M  V30 38032 N 3513.44 1.48331 0.532519 0
M  V30 38033 C 3514.86 1.34395 0.860819 0
M  V30 38034 C 3515.06 0.353048 1.98383 0
M  V30 38035 O 3514.12 -0.226644 2.51481 0
M  V30 38036 C 3515.43 2.7436 1.23074 0
M  V30 38037 C 3516.98 2.82829 1.34077 0
M  V30 38038 C 3517.45 4.2349 1.74413 0
M  V30 38039 N 3518.94 4.26151 1.8152 0
M  V30 38040 C 3519.68 5.31925 2.14111 0
M  V30 38041 N 3519.17 6.47979 2.45143 0
M  V30 38042 N 3520.97 5.19317 2.15095 0
M  V30 38043 H 3513.12 2.11374 -0.208501 0
M  V30 38044 H 3515.38 0.947505 -0.0306366 0
M  V30 38045 H 3515.09 3.4842 0.479199 0
M  V30 38046 H 3514.96 3.07721 2.18145 0
M  V30 38047 H 3517.35 2.09026 2.08308 0
M  V30 38048 H 3517.43 2.53091 0.371326 0
M  V30 38049 H 3517.07 4.97808 1.00743 0
M  V30 38050 H 3517 4.50671 2.72403 0
M  V30 38051 H 3519.49 3.42439 1.59826 0
M  V30 38052 H 3519.81 7.24431 2.69109 0
M  V30 38053 H 3518.15 6.51258 2.42668 0
M  V30 38054 H 3521.34 4.27669 1.90307 0
M  V30 38055 H 3521.52 6.01852 2.40162 0
M  V30 38056 N 3514.92 -0.781196 1.36876 0
M  V30 38057 C 3515.85 -1.90828 1.34563 0
M  V30 38058 C 3516.83 -1.68726 0.215743 0
M  V30 38059 O 3518.02 -1.89722 0.414653 0
M  V30 38060 C 3515.15 -3.27974 1.14239 0
M  V30 38061 C 3514.1 -3.64617 2.24139 0
M  V30 38062 C 3513.43 -5.00202 1.88949 0
M  V30 38063 C 3514.73 -3.72346 3.66273 0
M  V30 38064 H 3516.42 -1.93021 2.28874 0
M  V30 38065 H 3513.97 -0.927256 1.10172 0
M  V30 38066 H 3515.92 -4.06449 1.11253 0
M  V30 38067 H 3514.64 -3.26189 0.163804 0
M  V30 38068 H 3513.3 -2.88444 2.26264 0
M  V30 38069 H 3512.95 -4.94947 0.896438 0
M  V30 38070 H 3512.65 -5.25689 2.62534 0
M  V30 38071 H 3514.18 -5.81088 1.87533 0
M  V30 38072 H 3515.59 -4.40994 3.66329 0
M  V30 38073 H 3513.99 -4.09324 4.38832 0
M  V30 38074 H 3515.06 -2.73243 4.00582 0
M  V30 38075 N 3516.4 -1.21291 -1.0063 0
M  V30 38076 C 3517.63 -1.05527 -1.77965 0
M  V30 38077 C 3518.04 0.394991 -1.84622 0
M  V30 38078 O 3517.4 1.27407 -1.30667 0
M  V30 38079 C 3517.45 -1.64437 -3.21936 0
M  V30 38080 O 3517.17 -3.03789 -3.15664 0
M  V30 38081 C 3518.67 -1.53767 -4.15777 0
M  V30 38082 H 3515.89 -0.370655 -0.559335 0
M  V30 38083 H 3518.44 -1.606 -1.26601 0
M  V30 38084 H 3516.59 -1.1346 -3.70413 0
M  V30 38085 H 3517.01 -3.31931 -4.06106 0
M  V30 38086 H 3518.48 -1.99731 -5.14598 0
M  V30 38087 H 3518.96 -0.491888 -4.36437 0
M  V30 38088 H 3519.56 -2.03986 -3.73189 0
M  V30 38089 N 3517.88 1.20103 -1.02045 0
M  V30 38090 C 3519.29 1.41617 -0.735992 0
M  V30 38091 C 3519.49 1.89578 0.682816 0
M  V30 38092 O 3518.55 2.06713 1.45003 0
M  V30 38093 C 3519.86 2.43453 -1.76496 0
M  V30 38094 C 3521.41 2.57214 -1.78354 0
M  V30 38095 C 3521.89 3.62297 -2.80188 0
M  V30 38096 N 3523.38 3.69784 -2.78952 0
M  V30 38097 C 3524.11 4.50762 -3.54403 0
M  V30 38098 N 3523.61 5.35513 -4.39542 0
M  V30 38099 N 3525.4 4.45331 -3.42982 0
M  V30 38100 H 3517.55 0.872882 -1.93635 0
M  V30 38101 H 3519.81 0.445742 -0.836671 0
M  V30 38102 H 3519.52 2.15218 -2.78162 0
M  V30 38103 H 3519.39 3.42501 -1.58028 0
M  V30 38104 H 3521.78 2.84777 -0.773715 0
M  V30 38105 H 3521.86 1.58348 -2.00897 0
M  V30 38106 H 3521.51 3.35477 -3.81337 0
M  V30 38107 H 3521.44 4.60793 -2.54906 0
M  V30 38108 H 3523.93 3.09249 -2.17195 0
M  V30 38109 H 3524.24 5.94398 -4.93873 0
M  V30 38110 H 3522.59 5.35002 -4.43619 0
M  V30 38111 H 3525.78 3.78158 -2.75888 0
M  V30 38112 H 3525.95 5.08203 -4.02037 0
M  V30 38113 N 3519.36 0.797189 1.35951 0
M  V30 38114 C 3520.29 0.146733 2.27728 0
M  V30 38115 C 3521.27 -0.681754 1.47617 0
M  V30 38116 O 3522.45 -0.651062 1.76899 0
M  V30 38117 C 3519.58 -0.797384 3.2918 0
M  V30 38118 C 3518.62 -0.0497101 4.26471 0
M  V30 38119 S 3519.46 1.27989 5.1998 0
M  V30 38120 C 3520.61 0.339974 6.24976 0
M  V30 38121 H 3520.85 0.924884 2.82548 0
M  V30 38122 H 3518.38 0.591784 1.42609 0
M  V30 38123 H 3520.34 -1.33662 3.8813 0
M  V30 38124 H 3519 -1.54884 2.73257 0
M  V30 38125 H 3518.19 -0.7664 4.98139 0
M  V30 38126 H 3517.79 0.419285 3.71642 0
M  V30 38127 H 3520.09 -0.478294 6.7581 0
M  V30 38128 H 3521.03 1.02556 7.00634 0
M  V30 38129 H 3521.44 -0.0601499 5.64468 0
M  V30 38130 N 3520.83 -1.47696 0.549872 0
M  V30 38131 C 3521.76 -2.32723 -0.190323 0
M  V30 38132 C 3522.75 -1.43336 -0.915907 0
M  V30 38133 O 3523.93 -1.72201 -0.897807 0
M  V30 38134 C 3521.06 -3.24964 -1.2254 0
M  V30 38135 C 3520.01 -4.23533 -0.616731 0
M  V30 38136 C 3519.34 -5.05047 -1.75591 0
M  V30 38137 C 3520.64 -5.20571 0.424686 0
M  V30 38138 H 3522.33 -2.94858 0.519513 0
M  V30 38139 H 3519.88 -1.41791 0.251284 0
M  V30 38140 H 3521.83 -3.83284 -1.75133 0
M  V30 38141 H 3520.56 -2.60868 -1.96508 0
M  V30 38142 H 3519.22 -3.66428 -0.11216 0
M  V30 38143 H 3518.86 -4.3736 -2.48445 0
M  V30 38144 H 3518.56 -5.71776 -1.35446 0
M  V30 38145 H 3520.09 -5.66224 -2.28524 0
M  V30 38146 H 3521.5 -5.73298 -0.0149018 0
M  V30 38147 H 3519.9 -5.95463 0.744605 0
M  V30 38148 H 3520.97 -4.66495 1.32327 0
M  V30 38149 N 3522.31 -0.285959 -1.54984 0
M  V30 38150 C 3523.54 0.330738 -2.04239 0
M  V30 38151 C 3523.96 1.48657 -1.1639 0
M  V30 38152 O 3523.31 1.81547 -0.186287 0
M  V30 38153 C 3523.36 0.801394 -3.52505 0
M  V30 38154 O 3523.08 -0.308417 -4.37013 0
M  V30 38155 C 3524.59 1.48479 -4.17695 0
M  V30 38156 H 3521.81 0.0740234 -0.666904 0
M  V30 38157 H 3524.35 -0.421213 -2.00115 0
M  V30 38158 H 3522.5 1.50341 -3.57038 0
M  V30 38159 H 3522.92 0.0552969 -5.24471 0
M  V30 38160 H 3524.39 1.76542 -5.23007 0
M  V30 38161 H 3524.87 2.41992 -3.66519 0
M  V30 38162 H 3525.48 0.826354 -4.17195 0
M  V30 38163 N 3523.79 1.57594 -0.0134169 0
M  V30 38164 C 3524.74 2.10397 0.991759 0
M  V30 38165 C 3525.73 1.02695 1.34722 0
M  V30 38166 O 3526.94 1.21147 1.33129 0
M  V30 38167 H 3523.31 0.67199 0.337541 0
M  V30 38168 H 3525.28 2.93817 0.520969 0
M  V30 38169 C 3524.03 2.63345 2.27034 0
M  V30 38170 H 3523.36 3.45859 2.00553 0
M  V30 38171 H 3524.8 3.03955 2.95614 0
M  V30 38172 C 3523.26 1.55367 2.98936 0
M  V30 38173 O 3523.79 0.944351 3.90442 0
M  V30 38174 N 3521.99 1.27789 2.60995 0
M  V30 38175 H 3521.54 1.77524 1.86663 0
M  V30 38176 H 3521.5 0.55764 3.09415 0
M  V30 38177 N 3525.27 -0.259531 1.55448 0
M  V30 38178 C 3526.23 -1.30441 1.88461 0
M  V30 38179 C 3527.23 -1.417 0.760121 0
M  V30 38180 O 3528.42 -1.40618 1.02821 0
M  V30 38181 C 3525.55 -2.68393 2.10185 0
M  V30 38182 H 3526.75 -1.02393 2.81879 0
M  V30 38183 H 3524.3 -0.498236 1.48146 0
M  V30 38184 H 3525.03 -3.01601 1.19194 0
M  V30 38185 H 3524.82 -2.61605 2.9207 0
M  V30 38186 H 3526.31 -3.43865 2.36953 0
M  V30 38187 N 3526.75 -1.48611 -0.524645 0
M  V30 38188 C 3527.68 -1.58106 -1.64553 0
M  V30 38189 C 3528.66 -0.431232 -1.56777 0
M  V30 38190 O 3529.84 -0.643568 -1.77174 0
M  V30 38191 C 3526.97 -1.51403 -3.02977 0
M  V30 38192 C 3526.01 -2.71293 -3.29093 0
M  V30 38193 S 3526.85 -4.33211 -3.14783 0
M  V30 38194 C 3528 -4.29115 -4.55644 0
M  V30 38195 H 3528.24 -2.5293 -1.56249 0
M  V30 38196 H 3525.77 -1.3721 -0.708016 0
M  V30 38197 H 3527.73 -1.48222 -3.82806 0
M  V30 38198 H 3526.39 -0.57908 -3.08716 0
M  V30 38199 H 3525.58 -2.62756 -4.30087 0
M  V30 38200 H 3525.18 -2.71764 -2.56944 0
M  V30 38201 H 3527.48 -3.99377 -5.4727 0
M  V30 38202 H 3528.42 -5.30306 -4.69234 0
M  V30 38203 H 3528.83 -3.59509 -4.35217 0
M  V30 38204 N 3528.22 0.773926 -1.37289 0
M  V30 38205 C 3529.13 1.91821 -1.35063 0
M  V30 38206 C 3530.15 1.72187 -0.250519 0
M  V30 38207 O 3531.33 1.9546 -0.485535 0
M  V30 38208 C 3528.39 3.26913 -1.1545 0
M  V30 38209 C 3527.45 3.59216 -2.35079 0
M  V30 38210 C 3526.69 4.87863 -2.16392 0
M  V30 38211 O 3526.91 5.58747 -1.14706 0
M  V30 38212 O 3525.84 5.19178 -3.04529 0
M  V30 38213 H 3529.67 1.9665 -2.31436 0
M  V30 38214 H 3527.25 0.916371 -1.17996 0
M  V30 38215 H 3529.14 4.07722 -1.06491 0
M  V30 38216 H 3527.81 3.22941 -0.221492 0
M  V30 38217 H 3526.72 2.7865 -2.49609 0
M  V30 38218 H 3528.05 3.67928 -3.2694 0
M  V30 38219 N 3529.7 1.21823 0.99985 0
M  V30 38220 C 3530.95 1.04012 1.74096 0
M  V30 38221 C 3531.28 -0.424683 1.895 0
M  V30 38222 O 3530.56 -1.31503 1.43308 0
M  V30 38223 C 3530.84 1.74388 3.15057 0
M  V30 38224 C 3530.69 3.28419 3.07345 0
M  V30 38225 C 3532.01 1.49062 4.14088 0
M  V30 38226 H 3529.13 0.379256 0.631928 0
M  V30 38227 H 3531.77 1.50068 1.16531 0
M  V30 38228 H 3529.92 1.35234 3.64203 0
M  V30 38229 H 3531.59 3.76974 2.65873 0
M  V30 38230 H 3529.84 3.58456 2.44319 0
M  V30 38231 H 3530.51 3.72832 4.07063 0
M  V30 38232 H 3532.98 1.8306 3.73669 0
M  V30 38233 H 3531.86 2.00809 5.10849 0
M  V30 38234 H 3532.12 0.421718 4.40084 0
M  V30 38235 N 3531.18 -1.1956 1.0268 0
M  V30 38236 C 3532.41 -1.93152 0.741603 0
M  V30 38237 C 3532.82 -1.75373 -0.699261 0
M  V30 38238 O 3532.18 -1.07429 -1.47531 0
M  V30 38239 C 3532.23 -3.44968 1.0807 0
M  V30 38240 O 3531.95 -3.62174 2.46498 0
M  V30 38241 C 3533.45 -4.35687 0.818011 0
M  V30 38242 H 3530.67 -0.613612 0.271517 0
M  V30 38243 H 3533.22 -1.5176 1.37073 0
M  V30 38244 H 3531.37 -3.84201 0.496791 0
M  V30 38245 H 3531.79 -4.56057 2.59061 0
M  V30 38246 H 3533.26 -5.40822 1.10526 0
M  V30 38247 H 3533.74 -4.38501 -0.247616 0
M  V30 38248 H 3534.34 -4.02132 1.38456 0
M  V30 38249 N 3532.66 -0.804387 -1.35526 0
M  V30 38250 C 3533.91 -0.382969 -1.98438 0
M  V30 38251 C 3534.23 1.05286 -1.64134 0
M  V30 38252 O 3533.5 1.72808 -0.922723 0
M  V30 38253 H 3532.08 -0.138618 -0.734026 0
M  V30 38254 H 3534.74 -1.02974 -1.65476 0
M  V30 38255 H 3533.84 -0.4869 -3.08279 0
M  V30 38256 N 3534.14 1.47403 -0.557697 0
M  V30 38257 C 3535.07 2.32821 0.177978 0
M  V30 38258 C 3536.05 1.43819 0.908293 0
M  V30 38259 O 3537.23 1.72674 0.888662 0
M  V30 38260 C 3534.36 3.25609 1.20815 0
M  V30 38261 C 3533.32 4.23854 0.594261 0
M  V30 38262 C 3532.64 5.05971 1.7291 0
M  V30 38263 C 3533.94 5.20338 -0.452288 0
M  V30 38264 H 3535.64 2.94579 -0.535143 0
M  V30 38265 H 3533.18 1.41655 -0.2588 0
M  V30 38266 H 3535.14 3.84207 1.73098 0
M  V30 38267 H 3533.86 2.61907 1.95122 0
M  V30 38268 H 3532.52 3.66483 0.0927254 0
M  V30 38269 H 3532.17 4.38672 2.46122 0
M  V30 38270 H 3531.87 5.72487 1.32412 0
M  V30 38271 H 3533.39 5.67428 2.25517 0
M  V30 38272 H 3534.81 5.73298 -0.0155018 0
M  V30 38273 H 3533.2 5.95059 -0.776173 0
M  V30 38274 H 3534.27 4.65787 -1.34799 0
M  V30 38275 N 3535.62 0.294175 1.5483 0
M  V30 38276 C 3536.89 -0.369868 1.92071 0
M  V30 38277 C 3537.27 -1.72231 1.22064 0
M  V30 38278 O 3536.62 -2.25741 0.354015 0
M  V30 38279 C 3536.83 -0.491289 3.45525 0
M  V30 38280 C 3538.18 -0.765338 4.17645 0
M  V30 38281 O 3539.2 -0.575366 3.51522 0
M  V30 38282 O 3538.06 -1.12982 5.34694 0
M  V30 38283 H 3535.16 -0.205596 0.801036 0
M  V30 38284 H 3537.7 0.341731 1.66224 0
M  V30 38285 H 3536.47 0.459732 3.8859 0
M  V30 38286 H 3536.1 -1.25162 3.77386 0
M  V30 38287 N 3537.09 -1.57585 0.0217743 0
M  V30 38288 C 3538.34 -1.91118 -0.657153 0
M  V30 38289 C 3538.66 -0.898069 -1.73089 0
M  V30 38290 O 3537.93 0.0614771 -1.95804 0
M  V30 38291 H 3536.51 -0.705429 -0.24572 0
M  V30 38292 H 3539.17 -1.94782 0.0678439 0
M  V30 38293 H 3538.27 -2.9152 -1.11457 0
M  V30 38294 N 3538.57 0.251283 -1.55584 0
M  V30 38295 C 3539.52 1.33082 -1.90766 0
M  V30 38296 C 3540.51 1.50048 -0.786262 0
M  V30 38297 O 3541.72 1.51574 -0.970836 0
M  V30 38298 H 3538.09 0.445541 -0.605803 0
M  V30 38299 H 3540.07 1.00673 -2.80905 0
M  V30 38300 C 3538.81 2.68014 -2.21503 0
M  V30 38301 H 3538.14 2.55758 -3.07291 0
M  V30 38302 H 3539.58 3.42436 -2.50027 0
M  V30 38303 C 3538.04 3.20772 -1.02989 0
M  V30 38304 O 3538.57 4.00753 -0.275628 0
M  V30 38305 N 3536.77 2.78741 -0.821698 0
M  V30 38306 H 3536.32 2.13811 -1.43676 0
M  V30 38307 H 3536.28 3.14385 -0.0303997 0
M  V30 38308 N 3540.05 1.48887 0.516757 0
M  V30 38309 C 3541.28 1.61026 1.29438 0
M  V30 38310 C 3541.69 0.274738 1.87195 0
M  V30 38311 O 3541.03 -0.747839 1.67789 0
M  V30 38312 C 3541.09 2.60809 2.47425 0
M  V30 38313 C 3540.76 4.05553 2.10656 0
M  V30 38314 C 3541.75 4.92838 1.65551 0
M  V30 38315 C 3539.44 4.51181 2.20774 0
M  V30 38316 C 3541.43 6.23783 1.31046 0
M  V30 38317 C 3539.12 5.82144 1.8588 0
M  V30 38318 C 3540.12 6.68269 1.41089 0
M  V30 38319 O 3539.81 7.96793 1.0666 0
M  V30 38320 H 3539.54 0.545401 0.399392 0
M  V30 38321 H 3542.09 1.95542 0.628685 0
M  V30 38322 H 3540.32 2.21441 3.17019 0
M  V30 38323 H 3542.01 2.62643 3.09473 0
M  V30 38324 H 3542.78 4.58819 1.57193 0
M  V30 38325 H 3538.66 3.84323 2.54591 0
M  V30 38326 H 3542.2 6.90961 0.960124 0
M  V30 38327 H 3538.1 6.15694 1.93883 0
M  V30 38328 H 3538.86 8.09664 1.19944 0
M  V30 38329 N 3541.53 -0.766635 1.37697 0
M  V30 38330 C 3542.94 -1.0679 1.18608 0
M  V30 38331 C 3543.14 -2.01484 0.0257549 0
M  V30 38332 O 3542.2 -2.44448 -0.632565 0
M  V30 38333 C 3543.51 -1.6605 2.50695 0
M  V30 38334 C 3545.06 -1.78284 2.57262 0
M  V30 38335 C 3545.54 -2.40956 3.89492 0
M  V30 38336 N 3547.03 -2.48401 3.90962 0
M  V30 38337 C 3547.76 -2.97758 4.90028 0
M  V30 38338 N 3547.26 -3.47249 5.99491 0
M  V30 38339 N 3549.05 -2.96679 4.77428 0
M  V30 38340 H 3541.2 -0.137993 2.11951 0
M  V30 38341 H 3543.46 -0.123847 0.939876 0
M  V30 38342 H 3543.17 -1.03939 3.3599 0
M  V30 38343 H 3543.04 -2.65281 2.68153 0
M  V30 38344 H 3545.43 -2.39525 1.72371 0
M  V30 38345 H 3545.51 -0.777939 2.43684 0
M  V30 38346 H 3545.16 -1.80352 4.74801 0
M  V30 38347 H 3545.09 -3.42062 4.00376 0
M  V30 38348 H 3547.58 -2.13383 3.11891 0
M  V30 38349 H 3547.89 -3.83328 6.71029 0
M  V30 38350 H 3546.24 -3.4534 6.03129 0
M  V30 38351 H 3549.43 -2.57318 3.91031 0
M  V30 38352 H 3549.6 -3.34834 5.54788 0
M  V30 38353 N 3543.01 -1.22351 -0.993375 0
M  V30 38354 C 3544.25 -1.04192 -1.72705 0
M  V30 38355 C 3544.57 0.423347 -1.90964 0
M  V30 38356 O 3545.77 0.724599 -2.61652 0
M  V30 38357 C 3544.23 -1.81581 -3.10735 0
M  V30 38358 C 3543.84 -3.32353 -3.00409 0
M  V30 38359 C 3545.58 -1.71868 -3.88152 0
M  V30 38360 C 3543.49 -4.02185 -4.33591 0
M  V30 38361 H 3542.42 -0.38626 -0.647549 0
M  V30 38362 H 3545.07 -1.46197 -1.10899 0
M  V30 38363 H 3543.45 -1.32374 -3.7322 0
M  V30 38364 H 3544.63 -3.8895 -2.47092 0
M  V30 38365 H 3542.94 -3.42736 -2.36476 0
M  V30 38366 H 3545.54 -2.21363 -4.86726 0
M  V30 38367 H 3545.88 -0.679011 -4.10725 0
M  V30 38368 H 3546.41 -2.18615 -3.32344 0
M  V30 38369 H 3543.15 -5.06403 -4.16217 0
M  V30 38370 H 3542.67 -3.50376 -4.86823 0
M  V30 38371 H 3544.35 -4.07753 -5.02341 0
M  V30 38372 N 3544.48 1.19014 -1.03313 0
M  V30 38373 C 3545.71 1.92756 -0.751836 0
M  V30 38374 C 3546.13 1.75742 0.689951 0
M  V30 38375 O 3545.48 1.08209 1.46959 0
M  V30 38376 C 3545.53 3.4439 -1.09898 0
M  V30 38377 O 3545.26 3.60862 -2.48415 0
M  V30 38378 C 3546.76 4.35247 -0.841105 0
M  V30 38379 H 3543.98 0.612163 -0.274768 0
M  V30 38380 H 3546.52 1.51031 -1.37876 0
M  V30 38381 H 3544.68 3.83933 -0.517159 0
M  V30 38382 H 3545.09 4.54677 -2.61476 0
M  V30 38383 H 3546.56 5.40228 -1.13393 0
M  V30 38384 H 3547.04 4.38627 0.224357 0
M  V30 38385 H 3547.65 4.01392 -1.40586 0
M  V30 38386 N 3545.96 0.811563 1.35098 0
M  V30 38387 C 3547.2 0.39997 2.00448 0
M  V30 38388 C 3547.57 -1.01507 1.62973 0
M  V30 38389 O 3548.77 -1.52894 2.21081 0
M  V30 38390 C 3547.04 0.583339 3.52607 0
M  V30 38391 S 3548.6 0.262907 4.38012 0
M  V30 38392 H 3545.41 0.151656 0.694638 0
M  V30 38393 H 3548.02 1.0549 1.64597 0
M  V30 38394 H 3546.72 1.61309 3.77369 0
M  V30 38395 H 3546.25 -0.0867341 3.93304 0
M  V30 38396 H 3548.27 -0.92761 4.87452 0
M  V30 38397 N 3547.44 -1.47105 0.565506 0
M  V30 38398 C 3548.39 -2.27138 -0.198093 0
M  V30 38399 C 3549.37 -1.34851 -0.877719 0
M  V30 38400 O 3550.57 -1.59148 -0.774655 0
M  V30 38401 C 3547.69 -3.20808 -1.22218 0
M  V30 38402 C 3546.78 -4.20577 -0.545542 0
M  V30 38403 N 3547.17 -5.04301 0.389118 0
M  V30 38404 C 3545.47 -4.38795 -0.79844 0
M  V30 38405 C 3546.17 -5.76407 0.782954 0
M  V30 38406 N 3545.15 -5.4343 0.135925 0
M  V30 38407 H 3548.95 -2.89256 0.520405 0
M  V30 38408 H 3546.46 -1.57745 0.38604 0
M  V30 38409 H 3548.46 -3.76836 -1.78325 0
M  V30 38410 H 3547.12 -2.60248 -1.94168 0
M  V30 38411 H 3548.13 -5.12238 0.763734 0
M  V30 38412 H 3544.81 -3.89399 -1.50582 0
M  V30 38413 H 3546.2 -6.53743 1.55145 0
M  V30 38414 N 3548.92 -0.302382 -1.54672 0
M  V30 38415 C 3550.15 0.309057 -2.04579 0
M  V30 38416 C 3550.56 1.47414 -1.1796 0
M  V30 38417 O 3549.92 1.81339 -0.205532 0
M  V30 38418 C 3549.97 0.763961 -3.53335 0
M  V30 38419 O 3549.69 -0.354751 -4.36661 0
M  V30 38420 C 3551.19 1.44041 -4.19246 0
M  V30 38421 H 3548.41 0.0669458 -0.667652 0
M  V30 38422 H 3550.96 -0.442414 -1.99657 0
M  V30 38423 H 3549.11 1.46545 -3.58613 0
M  V30 38424 H 3549.52 -0.000333382 -5.245 0
M  V30 38425 H 3551 1.70985 -5.2485 0
M  V30 38426 H 3551.48 2.38091 -3.69065 0
M  V30 38427 H 3552.08 0.782059 -4.18048 0
M  V30 38428 N 3550.4 1.57571 -0.0301311 0
M  V30 38429 C 3551.64 1.92127 0.649249 0
M  V30 38430 C 3551.98 0.90695 1.71721 0
M  V30 38431 O 3551.25 -0.0701677 1.94373 0
M  V30 38432 C 3551.53 3.37158 1.26476 0
M  V30 38433 C 3551.39 4.49327 0.206296 0
M  V30 38434 C 3552.71 3.82172 2.18249 0
M  V30 38435 H 3549.82 0.698682 0.234548 0
M  V30 38436 H 3552.47 1.89798 -0.0875967 0
M  V30 38437 H 3550.62 3.39273 1.89277 0
M  V30 38438 H 3552.29 4.59344 -0.424348 0
M  V30 38439 H 3550.53 4.31267 -0.468111 0
M  V30 38440 H 3551.2 5.47838 0.676593 0
M  V30 38441 H 3553.68 3.81799 1.65434 0
M  V30 38442 H 3552.55 4.84343 2.58268 0
M  V30 38443 H 3552.82 3.17733 3.07406 0
M  V30 38444 N 3551.87 -0.243029 1.55715 0
M  V30 38445 C 3552.81 -1.32745 1.85618 0
M  V30 38446 C 3553.79 -1.46202 0.711603 0
M  V30 38447 O 3554.97 -1.62355 0.957761 0
M  V30 38448 C 3552.1 -2.70049 2.0443 0
M  V30 38449 C 3551.14 -2.73721 3.27076 0
M  V30 38450 S 3551.98 -2.29942 4.83619 0
M  V30 38451 C 3553.13 -3.69162 5.0544 0
M  V30 38452 H 3553.36 -1.07182 2.77307 0
M  V30 38453 H 3550.9 -0.444208 1.47872 0
M  V30 38454 H 3552.86 -3.49106 2.15952 0
M  V30 38455 H 3551.52 -2.92847 1.13575 0
M  V30 38456 H 3550.71 -3.74567 3.37217 0
M  V30 38457 H 3550.31 -2.02711 3.143 0
M  V30 38458 H 3552.6 -4.64689 4.93021 0
M  V30 38459 H 3553.55 -3.63953 6.07408 0
M  V30 38460 H 3553.95 -3.61855 4.33268 0
M  V30 38461 N 3553.35 -1.49159 -0.508854 0
M  V30 38462 C 3554.26 -1.67969 -1.63779 0
M  V30 38463 C 3555.28 -0.562236 -1.64666 0
M  V30 38464 O 3556.45 -0.835968 -1.83231 0
M  V30 38465 C 3553.52 -1.73479 -3.00176 0
M  V30 38466 C 3552.58 -2.97005 -3.09978 0
M  V30 38467 C 3551.81 -3.02243 -4.39869 0
M  V30 38468 O 3552.04 -2.15291 -5.2821 0
M  V30 38469 O 3550.97 -3.94629 -4.54479 0
M  V30 38470 H 3554.8 -2.63592 -1.50841 0
M  V30 38471 H 3552.38 -1.32808 -0.684283 0
M  V30 38472 H 3554.26 -1.79502 -3.81257 0
M  V30 38473 H 3552.94 -0.810343 -3.13393 0
M  V30 38474 H 3551.85 -2.96504 -2.28114 0
M  V30 38475 H 3553.18 -3.88904 -3.01686 0
M  V30 38476 N 3554.83 0.759322 -1.38102 0
M  V30 38477 C 3556.08 1.52053 -1.34193 0
M  V30 38478 C 3556.41 1.94075 0.0697316 0
M  V30 38479 O 3555.68 1.65006 1.02972 0
M  V30 38480 C 3555.97 2.77706 -2.29241 0
M  V30 38481 C 3555.82 2.41859 -3.79242 0
M  V30 38482 C 3557.14 3.79702 -2.22518 0
M  V30 38483 H 3554.26 0.551602 -0.488778 0
M  V30 38484 H 3556.9 0.870144 -1.68904 0
M  V30 38485 H 3555.05 3.33203 -1.9977 0
M  V30 38486 H 3556.72 1.92181 -4.19361 0
M  V30 38487 H 3554.97 1.74392 -3.97203 0
M  V30 38488 H 3555.64 3.31734 -4.41199 0
M  V30 38489 H 3558.11 3.33731 -2.48521 0
M  V30 38490 H 3556.99 4.65325 -2.91143 0
M  V30 38491 H 3557.25 4.24872 -1.22213 0
M  V30 38492 N 3556.31 1.22876 0.986873 0
M  V30 38493 C 3557.24 1.02854 2.09627 0
M  V30 38494 C 3558.22 -0.0524819 1.70019 0
M  V30 38495 O 3559.4 0.110908 1.93883 0
M  V30 38496 C 3556.53 0.612 3.41865 0
M  V30 38497 C 3555.49 1.63963 3.95348 0
M  V30 38498 C 3554.81 1.07874 5.23705 0
M  V30 38499 C 3556.11 3.0311 4.25349 0
M  V30 38500 H 3557.81 1.95645 2.26635 0
M  V30 38501 H 3555.35 0.942067 1.08909 0
M  V30 38502 H 3557.31 0.45901 4.18893 0
M  V30 38503 H 3556.03 -0.351583 3.24702 0
M  V30 38504 H 3554.69 1.7805 3.20458 0
M  V30 38505 H 3554.34 0.106334 5.02888 0
M  V30 38506 H 3554.04 1.76532 5.60455 0
M  V30 38507 H 3555.56 0.937466 6.03361 0
M  V30 38508 H 3556.98 2.92362 4.93151 0
M  V30 38509 H 3555.37 3.68946 4.73285 0
M  V30 38510 H 3556.44 3.52589 3.3288 0
M  V30 38511 N 3557.79 -1.18464 1.03942 0
M  V30 38512 C 3559.2 -1.40428 0.758428 0
M  V30 38513 C 3559.4 -1.9064 -0.65257 0
M  V30 38514 O 3558.46 -2.08994 -1.41696 0
M  V30 38515 C 3559.77 -2.40615 1.80347 0
M  V30 38516 C 3561.32 -2.54344 1.82423 0
M  V30 38517 C 3561.79 -3.57793 2.85916 0
M  V30 38518 N 3563.29 -3.65299 2.84799 0
M  V30 38519 C 3564.02 -4.45067 3.61529 0
M  V30 38520 N 3563.52 -5.28453 4.48006 0
M  V30 38521 N 3565.31 -4.39818 3.50024 0
M  V30 38522 H 3557.46 -0.841966 1.94999 0
M  V30 38523 H 3559.72 -0.432375 0.843656 0
M  V30 38524 H 3559.43 -2.10766 2.8155 0
M  V30 38525 H 3559.3 -3.39944 1.63457 0
M  V30 38526 H 3561.69 -2.8351 0.818922 0
M  V30 38527 H 3561.77 -1.55132 2.03391 0
M  V30 38528 H 3561.42 -3.29368 3.86625 0
M  V30 38529 H 3561.35 -4.5668 2.62204 0
M  V30 38530 H 3563.84 -3.05754 2.22087 0
M  V30 38531 H 3564.15 -5.86466 5.03267 0
M  V30 38532 H 3562.49 -5.27877 4.52074 0
M  V30 38533 H 3565.69 -3.73721 2.81869 0
M  V30 38534 H 3565.86 -5.01742 4.10071 0
M  V30 38535 N 3559.26 -0.818716 -1.34665 0
M  V30 38536 C 3560.17 -0.23947 -2.33375 0
M  V30 38537 C 3561.19 0.623928 -1.62429 0
M  V30 38538 O 3562.37 0.53282 -1.94224 0
M  V30 38539 C 3559.43 0.59252 -3.41599 0
M  V30 38540 C 3558.49 -0.292788 -4.283 0
M  V30 38541 C 3557.73 0.499589 -5.31357 0
M  V30 38542 O 3557.95 1.73324 -5.43429 0
M  V30 38543 O 3556.88 -0.115884 -6.01788 0
M  V30 38544 H 3560.71 -1.05636 -2.84736 0
M  V30 38545 H 3558.29 -0.580765 -1.3765 0
M  V30 38546 H 3560.18 1.066 -4.07694 0
M  V30 38547 H 3558.85 1.3868 -2.92488 0
M  V30 38548 H 3557.76 -0.813674 -3.65144 0
M  V30 38549 H 3559.09 -1.05132 -4.80841 0
M  V30 38550 N 3560.74 1.46803 -0.573299 0
M  V30 38551 C 3561.69 2.2724 0.186045 0
M  V30 38552 C 3562.68 1.35315 0.870555 0
M  V30 38553 O 3563.87 1.59557 0.766204 0
M  V30 38554 C 3561 3.21452 1.20515 0
M  V30 38555 C 3560.08 4.2086 0.523231 0
M  V30 38556 N 3560.47 5.04088 -0.415857 0
M  V30 38557 C 3558.77 4.39212 0.775159 0
M  V30 38558 C 3559.47 5.75983 -0.813511 0
M  V30 38559 N 3558.45 5.4335 -0.164743 0
M  V30 38560 H 3562.25 2.88976 -0.535737 0
M  V30 38561 H 3559.77 1.57538 -0.394401 0
M  V30 38562 H 3561.76 3.77777 1.76325 0
M  V30 38563 H 3560.42 2.61274 1.92785 0
M  V30 38564 H 3561.43 5.11826 -0.790888 0
M  V30 38565 H 3558.11 3.90192 1.48515 0
M  V30 38566 H 3559.5 6.52911 -1.5861 0
M  V30 38567 N 3562.22 0.31058 1.54509 0
M  V30 38568 C 3563.17 -0.561238 2.23872 0
M  V30 38569 C 3564.14 -1.12199 1.22477 0
M  V30 38570 O 3565.32 -1.16475 1.51124 0
M  V30 38571 C 3562.46 -1.72261 2.99032 0
M  V30 38572 C 3561.58 -1.19233 4.1522 0
M  V30 38573 C 3560.71 -2.31835 4.7794 0
M  V30 38574 C 3559.75 -1.75989 5.86254 0
M  V30 38575 N 3558.89 -2.82201 6.42889 0
M  V30 38576 H 3563.73 0.0368522 2.97977 0
M  V30 38577 H 3561.26 0.0299575 1.47069 0
M  V30 38578 H 3563.22 -2.40582 3.40846 0
M  V30 38579 H 3561.85 -2.29219 2.27285 0
M  V30 38580 H 3560.9 -0.401082 3.7828 0
M  V30 38581 H 3562.22 -0.743588 4.93226 0
M  V30 38582 H 3561.37 -3.08084 5.22656 0
M  V30 38583 H 3560.11 -2.8004 3.99286 0
M  V30 38584 H 3559.11 -0.98232 5.40953 0
M  V30 38585 H 3560.34 -1.28676 6.66798 0
M  V30 38586 H 3558.28 -3.29722 5.67115 0
M  V30 38587 H 3558.2 -2.41851 7.16271 0
M  V30 38588 H 3559.47 -3.58319 6.92263 0
M  V30 38589 N 3563.7 -1.57553 0.0384871 0
M  V30 38590 C 3564.98 -1.835 -0.677276 0
M  V30 38591 C 3565.36 -0.924327 -1.89788 0
M  V30 38592 O 3564.7 0.0177783 -2.28493 0
M  V30 38593 C 3564.91 -3.32937 -1.04661 0
M  V30 38594 C 3566.26 -3.99641 -1.43429 0
M  V30 38595 O 3567.29 -3.37488 -1.13932 0
M  V30 38596 O 3566.15 -5.09205 -1.98426 0
M  V30 38597 H 3563.24 -0.756942 -0.333118 0
M  V30 38598 H 3565.79 -1.69568 0.0668838 0
M  V30 38599 H 3564.56 -3.90894 -0.17828 0
M  V30 38600 H 3564.18 -3.5201 -1.84864 0
M  V30 38601 N 3565.18 0.234767 -1.55842 0
M  V30 38602 C 3566.4 0.982514 -1.82651 0
M  V30 38603 C 3566.83 1.77688 -0.617128 0
M  V30 38604 O 3566.19 1.76029 0.433991 0
M  V30 38605 C 3566.23 1.88641 -3.07322 0
M  V30 38606 O 3565.34 2.9799 -2.85089 0
M  V30 38607 H 3564.68 0.278925 -0.602575 0
M  V30 38608 H 3567.21 0.252081 -2.03041 0
M  V30 38609 H 3567.22 2.29876 -3.37077 0
M  V30 38610 H 3565.89 1.30244 -3.9498 0
M  V30 38611 H 3564.47 2.60796 -2.66533 0
M  V30 38612 N 3566.66 1.49427 0.500936 0
M  V30 38613 C 3567.9 1.59152 1.25692 0
M  V30 38614 C 3568.23 0.277399 1.92209 0
M  V30 38615 O 3567.51 -0.719033 1.80721 0
M  V30 38616 C 3567.79 2.7508 2.32386 0
M  V30 38617 C 3567.65 4.16286 1.7037 0
M  V30 38618 C 3568.96 2.86649 3.33947 0
M  V30 38619 H 3566.08 0.579291 0.455621 0
M  V30 38620 H 3568.73 1.81711 0.555067 0
M  V30 38621 H 3566.88 2.55976 2.92248 0
M  V30 38622 H 3568.55 4.46906 1.14335 0
M  V30 38623 H 3566.79 4.21931 1.00781 0
M  V30 38624 H 3567.46 4.93275 2.47758 0
M  V30 38625 H 3569.94 3.0404 2.84075 0
M  V30 38626 H 3568.81 3.6944 4.05962 0
M  V30 38627 H 3569.07 1.96005 3.96276 0
M  V30 38628 N 3568.13 -0.751987 1.38502 0
M  V30 38629 C 3569.07 -1.87384 1.30239 0
M  V30 38630 C 3570.04 -1.6161 0.179127 0
M  V30 38631 O 3571.23 -1.85094 0.356718 0
M  V30 38632 C 3568.36 -3.23028 1.01835 0
M  V30 38633 C 3567.4 -3.67687 2.16121 0
M  V30 38634 S 3568.23 -3.79038 3.78273 0
M  V30 38635 C 3569.39 -5.17499 3.52059 0
M  V30 38636 H 3569.62 -1.94107 2.25188 0
M  V30 38637 H 3567.16 -0.91513 1.24357 0
M  V30 38638 H 3569.11 -4.01362 0.861301 0
M  V30 38639 H 3567.78 -3.13982 0.0860164 0
M  V30 38640 H 3566.97 -4.6608 1.91796 0
M  V30 38641 H 3566.57 -2.96511 2.27941 0
M  V30 38642 H 3568.86 -6.03303 3.08272 0
M  V30 38643 H 3569.81 -5.46845 4.49851 0
M  V30 38644 H 3570.21 -4.86372 2.86536 0
M  V30 38645 N 3569.61 -1.23398 -0.980343 0
M  V30 38646 C 3570.57 -1.01639 -2.05432 0
M  V30 38647 C 3571.57 0.0217961 -1.60785 0
M  V30 38648 O 3572.76 -0.217952 -1.72831 0
M  V30 38649 C 3569.9 -0.537881 -3.3663 0
M  V30 38650 H 3571.09 -1.96947 -2.26168 0
M  V30 38651 H 3568.64 -1.05443 -1.15376 0
M  V30 38652 H 3569.38 0.418973 -3.21582 0
M  V30 38653 H 3569.16 -1.28705 -3.70375 0
M  V30 38654 H 3570.65 -0.406286 -4.15619 0
M  V30 38655 N 3571.09 1.17911 -1.04569 0
M  V30 38656 C 3572.34 1.88295 -0.75317 0
M  V30 38657 C 3572.67 1.80455 0.71762 0
M  V30 38658 O 3571.94 1.20827 1.52417 0
M  V30 38659 C 3572.23 3.38576 -1.22632 0
M  V30 38660 C 3572.08 3.552 -2.75958 0
M  V30 38661 C 3573.4 4.32386 -0.820366 0
M  V30 38662 H 3570.52 0.68374 -0.275079 0
M  V30 38663 H 3573.16 1.38697 -1.29859 0
M  V30 38664 H 3571.31 3.80948 -0.762313 0
M  V30 38665 H 3572.98 3.21886 -3.30434 0
M  V30 38666 H 3571.22 2.97687 -3.15539 0
M  V30 38667 H 3571.9 4.60665 -3.04124 0
M  V30 38668 H 3574.37 3.97822 -1.21972 0
M  V30 38669 H 3573.25 5.36086 -1.17911 0
M  V30 38670 H 3573.51 4.41237 0.276128 0
M  V30 38671 N 3572.57 0.825847 1.34229 0
M  V30 38672 C 3573.5 0.264587 2.31996 0
M  V30 38673 C 3574.48 -0.620564 1.58376 0
M  V30 38674 O 3575.66 -0.546832 1.86342 0
M  V30 38675 C 3572.79 -0.571964 3.42558 0
M  V30 38676 C 3571.75 0.216294 4.27453 0
M  V30 38677 C 3571.07 -0.743185 5.2951 0
M  V30 38678 C 3572.37 1.42612 5.02453 0
M  V30 38679 H 3574.07 1.08144 2.79187 0
M  V30 38680 H 3571.61 0.521475 1.34226 0
M  V30 38681 H 3573.57 -0.974816 4.0997 0
M  V30 38682 H 3572.29 -1.4219 2.94023 0
M  V30 38683 H 3570.95 0.600549 3.61648 0
M  V30 38684 H 3570.6 -1.58916 4.77237 0
M  V30 38685 H 3570.3 -0.219961 5.87188 0
M  V30 38686 H 3571.82 -1.14383 5.99791 0
M  V30 38687 H 3573.24 1.09712 5.62704 0
M  V30 38688 H 3571.63 1.88519 5.6972 0
M  V30 38689 H 3572.7 2.20278 4.31979 0
M  V30 38690 N 3574.05 -1.46497 0.581077 0
M  V30 38691 C 3574.96 -2.34083 -0.155628 0
M  V30 38692 C 3575.97 -1.49652 -0.887701 0
M  V30 38693 O 3577.15 -1.82526 -0.851252 0
M  V30 38694 C 3574.21 -3.26808 -1.15746 0
M  V30 38695 C 3573.27 -4.27139 -0.430235 0
M  V30 38696 C 3572.51 -5.15433 -1.38434 0
M  V30 38697 O 3572.73 -5.06629 -2.62076 0
M  V30 38698 O 3571.66 -5.95196 -0.895815 0
M  V30 38699 H 3575.49 -2.98427 0.563462 0
M  V30 38700 H 3573.07 -1.45445 0.341491 0
M  V30 38701 H 3574.96 -3.84018 -1.73516 0
M  V30 38702 H 3573.63 -2.65063 -1.85805 0
M  V30 38703 H 3572.54 -3.73621 0.189265 0
M  V30 38704 H 3573.87 -4.91665 0.22935 0
M  V30 38705 N 3575.52 -0.31877 -1.54343 0
M  V30 38706 C 3576.49 0.53664 -2.22829 0
M  V30 38707 C 3577.49 1.04733 -1.22015 0
M  V30 38708 O 3578.68 0.940523 -1.46628 0
M  V30 38709 C 3575.81 1.74488 -2.9286 0
M  V30 38710 H 3577 -0.0619852 -2.99836 0
M  V30 38711 H 3574.55 -0.0697961 -1.56144 0
M  V30 38712 H 3575.29 2.38286 -2.19977 0
M  V30 38713 H 3575.07 1.38615 -3.66781 0
M  V30 38714 H 3576.56 2.35219 -3.45053 0
M  V30 38715 N 3577 1.5753 -0.0468419 0
M  V30 38716 C 3578.25 1.92519 0.627905 0
M  V30 38717 C 3578.58 0.924831 1.71106 0
M  V30 38718 O 3577.83 -0.0635468 1.95597 0
M  V30 38719 C 3578.13 3.34202 1.26663 0
M  V30 38720 C 3577.8 4.49819 0.312105 0
M  V30 38721 C 3576.46 4.81175 0.0494356 0
M  V30 38722 C 3578.81 5.20075 -0.34232 0
M  V30 38723 C 3576.14 5.80136 -0.875166 0
M  V30 38724 C 3578.49 6.20024 -1.25509 0
M  V30 38725 C 3577.15 6.49812 -1.52647 0
M  V30 38726 H 3576.42 0.704477 0.229767 0
M  V30 38727 H 3579.07 1.9117 -0.112396 0
M  V30 38728 H 3577.38 3.31898 2.0821 0
M  V30 38729 H 3579.07 3.58553 1.79557 0
M  V30 38730 H 3575.66 4.25348 0.527013 0
M  V30 38731 H 3579.85 4.96066 -0.152471 0
M  V30 38732 H 3575.1 6.01552 -1.09294 0
M  V30 38733 H 3579.28 6.73576 -1.76827 0
M  V30 38734 H 3576.9 7.26308 -2.24456 0
M  V30 38735 N 3578.48 -0.226499 1.55964 0
M  V30 38736 C 3579.73 -0.953028 1.79012 0
M  V30 38737 C 3580.06 -1.84183 0.615641 0
M  V30 38738 O 3579.33 -1.90645 -0.385308 0
M  V30 38739 C 3579.62 -1.79619 3.12104 0
M  V30 38740 C 3579.47 -0.934209 4.39992 0
M  V30 38741 C 3580.79 -2.7749 3.41595 0
M  V30 38742 H 3577.91 -0.34504 0.651242 0
M  V30 38743 H 3580.55 -0.222203 1.88696 0
M  V30 38744 H 3578.7 -2.41928 3.03979 0
M  V30 38745 H 3580.37 -0.328248 4.60131 0
M  V30 38746 H 3578.62 -0.239411 4.33139 0
M  V30 38747 H 3579.29 -1.55844 5.29544 0
M  V30 38748 H 3581.76 -2.25317 3.49816 0
M  V30 38749 H 3580.64 -3.33591 4.35899 0
M  V30 38750 H 3580.9 -3.54981 2.63516 0
M  V30 38751 N 3579.96 -1.4969 -0.493005 0
M  V30 38752 C 3581.19 -1.63065 -1.26859 0
M  V30 38753 C 3581.6 -0.304484 -1.86734 0
M  V30 38754 O 3580.94 0.72105 -1.68957 0
M  V30 38755 C 3581 -2.64712 -2.43244 0
M  V30 38756 C 3580.67 -4.08853 -2.04178 0
M  V30 38757 C 3581.66 -4.95409 -1.57689 0
M  V30 38758 C 3579.35 -4.54636 -2.13568 0
M  V30 38759 C 3581.34 -6.25789 -1.21105 0
M  V30 38760 C 3579.03 -5.85028 -1.76596 0
M  V30 38761 C 3580.03 -6.70429 -1.3044 0
M  V30 38762 O 3579.71 -7.98389 -0.939703 0
M  V30 38763 H 3579.45 -0.551686 -0.390665 0
M  V30 38764 H 3582 -1.96518 -0.597496 0
M  V30 38765 H 3580.23 -2.26456 -3.13456 0
M  V30 38766 H 3581.92 -2.67533 -3.05256 0
M  V30 38767 H 3582.69 -4.61262 -1.49874 0
M  V30 38768 H 3578.56 -3.88325 -2.48445 0
M  V30 38769 H 3582.11 -6.92401 -0.850077 0
M  V30 38770 H 3578.01 -6.18701 -1.84063 0
M  V30 38771 H 3578.77 -8.1147 -1.07048 0
M  V30 38772 N 3581.44 0.744631 -1.38899 0
M  V30 38773 C 3582.71 1.49516 -1.26112 0
M  V30 38774 C 3583.09 2.10677 0.133554 0
M  V30 38775 O 3582.44 1.97806 1.1439 0
M  V30 38776 C 3582.65 2.55433 -2.37813 0
M  V30 38777 C 3584 3.22086 -2.76669 0
M  V30 38778 O 3585.02 2.65742 -2.37192 0
M  V30 38779 O 3583.88 4.24017 -3.44778 0
M  V30 38780 H 3580.98 0.663485 -0.493676 0
M  V30 38781 H 3583.52 0.779278 -1.50749 0
M  V30 38782 H 3582.29 2.0855 -3.31093 0
M  V30 38783 H 3581.92 3.34591 -2.14789 0
M  V30 38784 N 3582.91 1.23916 0.973785 0
M  V30 38785 C 3584.33 1.06916 1.53055 0
M  V30 38786 C 3584.68 -0.361389 1.92843 0
M  V30 38787 O 3583.8 -1.24898 1.76718 0
M  V30 38788 C 3584.4 1.93462 2.78133 0
M  V30 38789 C 3582.96 1.80703 3.30187 0
M  V30 38790 C 3582.1 1.88764 2.03134 0
M  V30 38791 H 3585.05 1.37482 0.792743 0
M  V30 38792 H 3585.07 1.46331 3.51237 0
M  V30 38793 H 3584.59 2.97572 2.49144 0
M  V30 38794 H 3582.69 0.794015 3.64041 0
M  V30 38795 H 3582.8 2.64458 3.99498 0
M  V30 38796 H 3581.16 1.32422 2.1757 0
M  V30 38797 H 3581.95 2.94443 1.76517 0
M  V30 38798 N 3584.39 -1.17355 1.05193 0
M  V30 38799 C 3585.32 -2.23562 0.673971 0
M  V30 38800 C 3586.3 -1.66903 -0.328254 0
M  V30 38801 O 3587.49 -1.93106 -0.205844 0
M  V30 38802 C 3584.62 -3.47267 0.0479411 0
M  V30 38803 C 3583.57 -4.16748 0.974929 0
M  V30 38804 C 3582.9 -5.34276 0.212778 0
M  V30 38805 C 3584.2 -4.68977 2.29908 0
M  V30 38806 H 3585.89 -2.55433 1.56187 0
M  V30 38807 H 3583.44 -1.22778 0.752429 0
M  V30 38808 H 3585.39 -4.20781 -0.228269 0
M  V30 38809 H 3584.12 -3.14663 -0.874908 0
M  V30 38810 H 3582.77 -3.45146 1.2357 0
M  V30 38811 H 3582.42 -4.97923 -0.712836 0
M  V30 38812 H 3582.12 -5.81702 0.830453 0
M  V30 38813 H 3583.65 -6.10574 -0.0561476 0
M  V30 38814 H 3585.06 -5.34128 2.08278 0
M  V30 38815 H 3583.46 -5.26981 2.87073 0
M  V30 38816 H 3584.53 -3.85785 2.93765 0
M  V30 38817 N 3585.87 -0.832954 -1.3379 0
M  V30 38818 C 3586.8 -0.276887 -2.31853 0
M  V30 38819 C 3587.78 0.612156 -1.58703 0
M  V30 38820 O 3588.97 0.536943 -1.86629 0
M  V30 38821 C 3586.1 0.55379 -3.42856 0
M  V30 38822 C 3585.05 -0.23896 -4.27332 0
M  V30 38823 C 3584.38 0.715094 -5.29897 0
M  V30 38824 C 3585.68 -1.45274 -5.0169 0
M  V30 38825 H 3587.37 -1.09623 -2.78609 0
M  V30 38826 H 3584.92 -0.528586 -1.33948 0
M  V30 38827 H 3586.87 0.953061 -4.10481 0
M  V30 38828 H 3585.59 1.40629 -2.94773 0
M  V30 38829 H 3584.25 -0.619719 -3.61324 0
M  V30 38830 H 3583.9 1.56382 -4.78073 0
M  V30 38831 H 3583.6 0.188818 -5.87297 0
M  V30 38832 H 3585.12 1.11201 -6.00389 0
M  V30 38833 H 3586.54 -1.12695 -5.62115 0
M  V30 38834 H 3584.94 -1.91538 -5.68712 0
M  V30 38835 H 3586.01 -2.22565 -4.30805 0
M  V30 38836 N 3587.35 1.46186 -0.588837 0
M  V30 38837 C 3588.3 2.32092 0.153597 0
M  V30 38838 C 3589.29 1.44851 0.87832 0
M  V30 38839 O 3590.5 1.61442 0.796013 0
M  V30 38840 H 3586.87 0.748883 0.0683997 0
M  V30 38841 H 3588.84 2.92516 -0.589662 0
M  V30 38842 C 3587.59 3.28133 1.14997 0
M  V30 38843 H 3586.91 3.95246 0.601734 0
M  V30 38844 H 3588.35 3.9101 1.63973 0
M  V30 38845 C 3586.81 2.5393 2.21407 0
M  V30 38846 O 3587.34 2.30685 3.28858 0
M  V30 38847 N 3585.55 2.14387 1.9618 0
M  V30 38848 H 3585.1 2.33492 1.08808 0
M  V30 38849 H 3585.05 1.6506 2.67587 0
M  V30 38850 N 3588.83 0.32695 1.54171 0
M  V30 38851 C 3590.07 -0.267763 2.0163 0
M  V30 38852 C 3590.43 -1.49512 1.21095 0
M  V30 38853 O 3589.72 -1.89455 0.285887 0
M  V30 38854 C 3589.91 -0.650491 3.5143 0
M  V30 38855 C 3589.74 0.538227 4.46467 0
M  V30 38856 C 3588.51 1.03839 4.94516 0
M  V30 38857 C 3590.71 1.39148 4.95118 0
M  V30 38858 N 3588.69 2.19116 5.73464 0
M  V30 38859 C 3590.06 2.39138 5.72025 0
M  V30 38860 C 3592.12 1.41886 4.77256 0
M  V30 38861 C 3590.82 3.41673 6.32971 0
M  V30 38862 C 3592.85 2.43293 5.39038 0
M  V30 38863 C 3592.21 3.4201 6.15799 0
M  V30 38864 H 3588.31 -0.0617345 0.779559 0
M  V30 38865 H 3590.89 0.462757 1.89121 0
M  V30 38866 H 3589.06 -1.35014 3.64178 0
M  V30 38867 H 3590.8 -1.22696 3.85652 0
M  V30 38868 H 3587.55 0.609126 4.69666 0
M  V30 38869 H 3587.98 2.77273 6.17615 0
M  V30 38870 H 3592.62 0.669312 4.17469 0
M  V30 38871 H 3590.34 4.17532 6.91876 0
M  V30 38872 H 3593.92 2.46217 5.27132 0
M  V30 38873 H 3592.8 4.19193 6.62757 0
M  V30 38874 N 3590.3 -1.57503 0.0551955 0
M  V30 38875 C 3591.72 -1.56729 -0.301372 0
M  V30 38876 C 3591.92 -1.0632 -1.71167 0
M  V30 38877 O 3590.98 -0.721608 -2.41969 0
M  V30 38878 C 3592.29 -3.00435 -0.126168 0
M  V30 38879 C 3593.84 -3.1238 -0.196967 0
M  V30 38880 C 3594.31 -4.57972 -0.050243 0
M  V30 38881 N 3595.8 -4.63078 -0.106389 0
M  V30 38882 C 3596.54 -5.73397 -0.0170317 0
M  V30 38883 N 3596.03 -6.92687 0.124903 0
M  V30 38884 N 3597.83 -5.62053 -0.0729041 0
M  V30 38885 H 3589.98 -1.88591 0.977105 0
M  V30 38886 H 3592.24 -0.868662 0.379646 0
M  V30 38887 H 3591.95 -3.41365 0.846346 0
M  V30 38888 H 3591.82 -3.66659 -0.88551 0
M  V30 38889 H 3594.21 -2.71347 -1.15996 0
M  V30 38890 H 3594.29 -2.48827 0.593198 0
M  V30 38891 H 3593.93 -4.99692 0.90944 0
M  V30 38892 H 3593.86 -5.19537 -0.859604 0
M  V30 38893 H 3596.35 -3.77287 -0.215174 0
M  V30 38894 H 3596.67 -7.72577 0.185684 0
M  V30 38895 H 3595.01 -6.94816 0.160042 0
M  V30 38896 H 3598.2 -4.67745 -0.182374 0
M  V30 38897 H 3598.38 -6.48 0.000192407 0
M  V30 38898 N 3591.78 0.218225 -1.56082 0
M  V30 38899 C 3592.71 1.2736 -1.95708 0
M  V30 38900 C 3593.69 1.48712 -0.825757 0
M  V30 38901 O 3594.88 1.60839 -1.08832 0
M  V30 38902 C 3592.01 2.62271 -2.27665 0
M  V30 38903 C 3590.96 2.5557 -3.43319 0
M  V30 38904 C 3590.29 3.94541 -3.6089 0
M  V30 38905 C 3591.59 2.10067 -4.78194 0
M  V30 38906 H 3593.28 0.944409 -2.84115 0
M  V30 38907 H 3590.83 0.452858 -1.36694 0
M  V30 38908 H 3592.78 3.36263 -2.53978 0
M  V30 38909 H 3591.51 2.96884 -1.36115 0
M  V30 38910 H 3590.16 1.84035 -3.1706 0
M  V30 38911 H 3589.81 4.26468 -2.6671 0
M  V30 38912 H 3589.51 3.90938 -4.38681 0
M  V30 38913 H 3591.04 4.7019 -3.89555 0
M  V30 38914 H 3592.45 2.73805 -5.0369 0
M  V30 38915 H 3590.85 2.17517 -5.59291 0
M  V30 38916 H 3591.92 1.05306 -4.73327 0
M  V30 38917 N 3593.26 1.4995 0.485059 0
M  V30 38918 C 3594.19 1.62414 1.60303 0
M  V30 38919 C 3595.17 0.472648 1.55579 0
M  V30 38920 O 3596.36 0.690316 1.75405 0
M  V30 38921 C 3593.48 1.59383 2.98856 0
M  V30 38922 C 3592.53 2.79923 3.21785 0
M  V30 38923 S 3593.36 4.41405 3.03187 0
M  V30 38924 C 3594.52 4.41044 4.44107 0
M  V30 38925 H 3594.75 2.56984 1.49488 0
M  V30 38926 H 3592.28 1.39039 0.671389 0
M  V30 38927 H 3594.24 1.58319 3.78742 0
M  V30 38928 H 3592.9 0.660727 3.07072 0
M  V30 38929 H 3592.1 2.74067 4.2297 0
M  V30 38930 H 3591.7 2.78481 2.49648 0
M  V30 38931 H 3593.99 4.13746 5.36489 0
M  V30 38932 H 3594.93 5.42561 4.55009 0
M  V30 38933 H 3595.34 3.70922 4.25532 0
M  V30 38934 N 3594.74 -0.737255 1.39292 0
M  V30 38935 C 3596.02 -1.48845 1.26904 0
M  V30 38936 C 3596.4 -2.10745 -0.12238 0
M  V30 38937 O 3595.74 -1.9841 -1.1334 0
M  V30 38938 C 3595.95 -2.54168 2.39164 0
M  V30 38939 C 3597.3 -3.20614 2.78374 0
M  V30 38940 O 3598.33 -2.6448 2.38597 0
M  V30 38941 O 3597.19 -4.22183 3.47022 0
M  V30 38942 H 3594.28 -0.660858 0.497188 0
M  V30 38943 H 3596.83 -0.771272 1.5116 0
M  V30 38944 H 3595.6 -2.06792 3.32194 0
M  V30 38945 H 3595.22 -3.33448 2.16561 0
M  V30 38946 N 3596.22 -1.24431 -0.967199 0
M  V30 38947 C 3597.45 -1.11136 -1.74518 0
M  V30 38948 C 3597.86 0.336055 -1.85785 0
M  V30 38949 O 3597.22 1.23185 -1.34654 0
M  V30 38950 C 3597.27 -1.74596 -3.16541 0
M  V30 38951 O 3596.99 -3.13678 -3.05839 0
M  V30 38952 C 3598.49 -1.66917 -4.10674 0
M  V30 38953 H 3595.71 -0.388263 -0.54726 0
M  V30 38954 H 3598.25 -1.64547 -1.21427 0
M  V30 38955 H 3596.41 -1.25187 -3.66616 0
M  V30 38956 H 3596.82 -3.44683 -3.9534 0
M  V30 38957 H 3598.3 -2.16001 -5.07984 0
M  V30 38958 H 3598.77 -0.630488 -4.34651 0
M  V30 38959 H 3599.38 -2.15756 -3.6651 0
M  V30 38960 N 3597.7 1.16795 -1.05814 0
M  V30 38961 C 3598.64 2.23079 -0.658675 0
M  V30 38962 C 3599.64 1.66291 0.323074 0
M  V30 38963 O 3600.84 1.79011 0.18846 0
M  V30 38964 H 3597.22 0.726316 -0.194856 0
M  V30 38965 H 3599.19 2.54064 -1.56506 0
M  V30 38966 C 3597.94 3.47655 -0.0560039 0
M  V30 38967 H 3597.26 3.91662 -0.802537 0
M  V30 38968 H 3598.7 4.23592 0.186044 0
M  V30 38969 C 3597.16 3.14839 1.19908 0
M  V30 38970 O 3597.69 3.30195 2.28766 0
M  V30 38971 N 3595.9 2.69011 1.09916 0
M  V30 38972 H 3595.44 2.56716 0.213286 0
M  V30 38973 H 3595.4 2.47428 1.93977 0
M  V30 38974 N 3599.17 0.840037 1.33346 0
M  V30 38975 C 3600.4 0.449829 2.01951 0
M  V30 38976 C 3600.82 -0.949288 1.63199 0
M  V30 38977 O 3600.17 -1.61711 0.845919 0
M  V30 38978 C 3600.22 0.562241 3.57101 0
M  V30 38979 O 3599.95 1.90623 3.94455 0
M  V30 38980 C 3601.45 0.16914 4.42977 0
M  V30 38981 H 3598.67 0.178436 0.64684 0
M  V30 38982 H 3601.21 1.13293 1.70249 0
M  V30 38983 H 3599.37 -0.0729664 3.87331 0
M  V30 38984 H 3599.78 1.89258 4.89164 0
M  V30 38985 H 3601.25 0.298839 5.5119 0
M  V30 38986 H 3601.73 -0.889061 4.30107 0
M  V30 38987 H 3602.34 0.778829 4.18108 0
M  V30 38988 N 3600.65 -1.45872 0.596582 0
M  V30 38989 C 3601.6 -2.30441 -0.128673 0
M  V30 38990 C 3602.57 -1.4145 -0.870702 0
M  V30 38991 O 3603.75 -1.70389 -0.858624 0
M  V30 38992 C 3600.89 -3.26167 -1.12734 0
M  V30 38993 C 3600.01 -4.3026 -0.387327 0
M  V30 38994 C 3599.14 -5.13103 -1.37475 0
M  V30 38995 C 3598.18 -6.08932 -0.621918 0
M  V30 38996 N 3597.32 -6.84594 -1.55808 0
M  V30 38997 H 3602.16 -2.91928 0.598518 0
M  V30 38998 H 3599.69 -1.43862 0.306961 0
M  V30 38999 H 3601.65 -3.80123 -1.71936 0
M  V30 39000 H 3600.28 -2.66458 -1.82208 0
M  V30 39001 H 3599.33 -3.79052 0.319995 0
M  V30 39002 H 3600.65 -4.98397 0.200565 0
M  V30 39003 H 3599.8 -5.71405 -2.03916 0
M  V30 39004 H 3598.54 -4.44959 -1.99657 0
M  V30 39005 H 3597.54 -5.49771 0.0561903 0
M  V30 39006 H 3598.77 -6.791 -0.0052949 0
M  V30 39007 H 3596.72 -6.19148 -2.16775 0
M  V30 39008 H 3596.63 -7.49042 -1.02334 0
M  V30 39009 H 3597.9 -7.47444 -2.21241 0
M  V30 39010 N 3602.13 -0.335122 -1.53996 0
M  V30 39011 C 3603.38 0.26344 -2.00376 0
M  V30 39012 C 3603.7 1.5174 -1.22474 0
M  V30 39013 O 3602.97 1.93107 -0.329638 0
M  V30 39014 H 3601.55 0.100334 -0.740231 0
M  V30 39015 H 3604.21 -0.454335 -1.8953 0
M  V30 39016 H 3603.31 0.51178 -3.07875 0
M  V30 39017 N 3603.61 1.57472 -0.0635475 0
M  V30 39018 C 3604.56 2.13446 0.924321 0
M  V30 39019 C 3605.55 1.06929 1.31387 0
M  V30 39020 O 3606.76 1.25321 1.29208 0
M  V30 39021 H 3603.13 0.682388 0.315991 0
M  V30 39022 H 3605.1 2.95326 0.427229 0
M  V30 39023 C 3603.85 2.70435 2.18541 0
M  V30 39024 H 3603.17 3.52064 1.89449 0
M  V30 39025 H 3604.61 3.13206 2.85794 0
M  V30 39026 C 3603.07 1.64799 2.93842 0
M  V30 39027 O 3603.6 1.06809 3.8724 0
M  V30 39028 N 3601.81 1.36027 2.56797 0
M  V30 39029 H 3601.36 1.83373 1.80921 0
M  V30 39030 H 3601.31 0.655795 3.07484 0
M  V30 39031 N 3605.09 -0.209945 1.56195 0
M  V30 39032 C 3606.03 -1.26022 1.93357 0
M  V30 39033 C 3607 -1.4599 0.79222 0
M  V30 39034 O 3608.19 -1.59368 1.04912 0
M  V30 39035 C 3605.33 -2.60314 2.26562 0
M  V30 39036 C 3604.44 -2.48049 3.53689 0
M  V30 39037 C 3603.58 -3.74943 3.76286 0
M  V30 39038 C 3602.61 -3.57448 4.96888 0
M  V30 39039 N 3601.75 -4.76319 5.15814 0
M  V30 39040 H 3606.59 -0.936307 2.82909 0
M  V30 39041 H 3604.13 -0.450997 1.40016 0
M  V30 39042 H 3606.09 -3.38532 2.43827 0
M  V30 39043 H 3604.72 -2.90779 1.4017 0
M  V30 39044 H 3603.77 -1.61205 3.44554 0
M  V30 39045 H 3605.08 -2.31048 4.42061 0
M  V30 39046 H 3604.23 -4.61603 3.9371 0
M  V30 39047 H 3602.97 -3.94882 2.86216 0
M  V30 39048 H 3601.98 -2.69172 4.79402 0
M  V30 39049 H 3603.2 -3.38969 5.88453 0
M  V30 39050 H 3601.15 -4.9655 4.28689 0
M  V30 39051 H 3601.07 -4.62088 5.9834 0
M  V30 39052 H 3602.33 -5.64373 5.37684 0
M  V30 39053 N 3606.56 -1.50205 -0.4771 0
M  V30 39054 C 3607.98 -1.37497 -0.810346 0
M  V30 39055 C 3608.18 -0.426433 -1.96936 0
M  V30 39056 O 3607.24 0.133152 -2.52149 0
M  V30 39057 C 3608.55 -2.78739 -1.12806 0
M  V30 39058 C 3610.1 -2.87611 -1.23487 0
M  V30 39059 C 3610.57 -4.29672 -1.58575 0
M  V30 39060 N 3612.06 -4.32594 -1.65579 0
M  V30 39061 C 3612.8 -5.39505 -1.94221 0
M  V30 39062 N 3612.29 -6.56631 -2.20925 0
M  V30 39063 N 3614.09 -5.26943 -1.95673 0
M  V30 39064 H 3606.24 -2.10455 0.286808 0
M  V30 39065 H 3608.5 -0.945715 0.0657815 0
M  V30 39066 H 3608.21 -3.49959 -0.349555 0
M  V30 39067 H 3608.08 -3.15606 -2.06574 0
M  V30 39068 H 3610.47 -2.16613 -2.00406 0
M  V30 39069 H 3610.55 -2.54294 -0.277137 0
M  V30 39070 H 3610.19 -5.01204 -0.821983 0
M  V30 39071 H 3610.12 -4.6047 -2.55489 0
M  V30 39072 H 3612.61 -3.48134 -1.47006 0
M  V30 39073 H 3612.93 -7.3392 -2.42036 0
M  V30 39074 H 3611.27 -6.59816 -2.1833 0
M  V30 39075 H 3614.46 -4.34438 -1.74303 0
M  V30 39076 H 3614.64 -6.10351 -2.17659 0
M  V30 39077 N 3608.04 0.729857 -1.39681 0
M  V30 39078 C 3609.27 1.52415 -1.40657 0
M  V30 39079 C 3609.69 1.881 -0.00432304 0
M  V30 39080 O 3609.05 1.52273 0.983996 0
M  V30 39081 C 3609.1 2.78502 -2.29062 0
M  V30 39082 O 3608.2 3.74634 -1.72404 0
M  V30 39083 H 3607.54 0.460083 -0.478769 0
M  V30 39084 H 3610.07 0.900055 -1.83739 0
M  V30 39085 H 3610.08 3.27182 -2.43753 0
M  V30 39086 H 3608.76 2.51862 -3.30966 0
M  V30 39087 H 3607.34 3.33423 -1.66983 0
M  V30 39088 N 3609.52 1.24942 0.960587 0
M  V30 39089 C 3610.94 1.01635 1.23055 0
M  V30 39090 C 3611.14 -0.270491 1.99676 0
M  V30 39091 O 3610.19 -0.984782 2.32504 0
M  V30 39092 C 3611.51 2.23584 2.01074 0
M  V30 39093 C 3613.05 2.28283 2.1414 0
M  V30 39094 C 3613.53 3.49872 2.95556 0
M  V30 39095 N 3615.02 3.50232 3.03137 0
M  V30 39096 C 3615.75 4.40974 3.6651 0
M  V30 39097 N 3615.25 5.4198 4.31544 0
M  V30 39098 N 3617.04 4.28669 3.63592 0
M  V30 39099 H 3609.19 2.07625 0.44784 0
M  V30 39100 H 3611.46 0.911488 0.260565 0
M  V30 39101 H 3611.16 3.17078 1.52167 0
M  V30 39102 H 3611.04 2.26276 3.01793 0
M  V30 39103 H 3613.42 1.35316 2.62247 0
M  V30 39104 H 3613.51 2.29613 1.12746 0
M  V30 39105 H 3613.15 4.43157 2.48141 0
M  V30 39106 H 3613.08 3.45786 3.97164 0
M  V30 39107 H 3615.57 2.77163 2.56883 0
M  V30 39108 H 3615.88 6.07441 4.7774 0
M  V30 39109 H 3614.23 5.45858 4.3019 0
M  V30 39110 H 3617.42 3.4899 3.11967 0
M  V30 39111 H 3617.59 4.99585 4.12697 0
M  V30 39112 N 3611 -1.16233 1.06432 0
M  V30 39113 C 3612.23 -1.90695 0.802677 0
M  V30 39114 C 3612.64 -1.77509 -0.643113 0
M  V30 39115 O 3612 -1.12068 -1.44038 0
M  V30 39116 C 3612.05 -3.41355 1.1899 0
M  V30 39117 O 3611.77 -3.54149 2.57896 0
M  V30 39118 C 3613.27 -4.32864 0.956208 0
M  V30 39119 H 3610.49 -0.604663 0.290901 0
M  V30 39120 H 3613.04 -1.47323 1.41832 0
M  V30 39121 H 3611.19 -3.82426 0.61877 0
M  V30 39122 H 3611.6 -4.47584 2.73439 0
M  V30 39123 H 3613.08 -5.37031 1.27676 0
M  V30 39124 H 3613.56 -4.39067 -0.107984 0
M  V30 39125 H 3614.16 -3.97524 1.51179 0
M  V30 39126 N 3612.48 -0.847097 -1.32899 0
M  V30 39127 C 3613.89 -0.535956 -1.50332 0
M  V30 39128 C 3614.09 0.935009 -1.78493 0
M  V30 39129 O 3613.15 1.71843 -1.85004 0
M  V30 39130 C 3614.46 -1.41641 -2.65251 0
M  V30 39131 C 3616.01 -1.41605 -2.79136 0
M  V30 39132 C 3616.48 -2.28154 -3.97127 0
M  V30 39133 N 3617.98 -2.25908 -4.04376 0
M  V30 39134 C 3618.71 -2.89609 -4.94888 0
M  V30 39135 N 3618.21 -3.62394 -5.9046 0
M  V30 39136 N 3620 -2.79036 -4.8795 0
M  V30 39137 H 3612.15 -1.7992 -1.12883 0
M  V30 39138 H 3614.41 -0.768055 -0.555694 0
M  V30 39139 H 3614.12 -2.46208 -2.51147 0
M  V30 39140 H 3613.99 -1.09836 -3.60854 0
M  V30 39141 H 3616.38 -0.378065 -2.92668 0
M  V30 39142 H 3616.46 -1.77422 -1.84269 0
M  V30 39143 H 3616.11 -3.32016 -3.84354 0
M  V30 39144 H 3616.04 -1.89674 -4.91255 0
M  V30 39145 H 3618.53 -1.72985 -3.35983 0
M  V30 39146 H 3618.84 -4.08185 -6.56205 0
M  V30 39147 H 3617.18 -3.66502 -5.9051 0
M  V30 39148 H 3620.38 -2.21731 -4.12254 0
M  V30 39149 H 3620.55 -3.28964 -5.58289 0
M  V30 39150 N 3613.95 1.45554 -0.604309 0
M  V30 39151 C 3615.18 2.06636 -0.104489 0
M  V30 39152 C 3615.6 1.44951 1.20974 0
M  V30 39153 O 3614.95 0.562499 1.73615 0
M  V30 39154 C 3615.01 3.61472 0.0451011 0
M  V30 39155 O 3614.73 4.20853 -1.21713 0
M  V30 39156 C 3616.23 4.39532 0.576762 0
M  V30 39157 H 3613.45 0.667613 -0.0673378 0
M  V30 39158 H 3615.99 1.8685 -0.831112 0
M  V30 39159 H 3614.15 3.80612 0.722037 0
M  V30 39160 H 3614.56 5.1399 -1.04471 0
M  V30 39161 H 3616.03 5.48387 0.630531 0
M  V30 39162 H 3616.51 4.09084 1.59835 0
M  V30 39163 H 3617.12 4.25249 -0.0660191 0
M  V30 39164 N 3615.43 0.343284 1.53816 0
M  V30 39165 C 3616.71 -0.308575 1.93151 0
M  V30 39166 C 3617.09 -1.68261 1.27482 0
M  V30 39167 O 3616.44 -2.245 0.425654 0
M  V30 39168 C 3616.65 -0.381115 3.46913 0
M  V30 39169 C 3618 -0.63208 4.19869 0
M  V30 39170 O 3619.02 -0.463241 3.53175 0
M  V30 39171 O 3617.88 -0.959142 5.38017 0
M  V30 39172 H 3614.97 -0.180008 0.807172 0
M  V30 39173 H 3617.52 0.394441 1.65052 0
M  V30 39174 H 3616.29 0.583126 3.86931 0
M  V30 39175 H 3615.91 -1.13093 3.81177 0
M  V30 39176 N 3616.91 -1.57436 0.0718977 0
M  V30 39177 C 3618.14 -1.98237 -0.609666 0
M  V30 39178 C 3618.56 -0.949987 -1.62348 0
M  V30 39179 O 3617.92 0.0843963 -1.81103 0
M  V30 39180 C 3617.97 -3.3807 -1.25464 0
M  V30 39181 O 3617.07 -3.37463 -2.37049 0
M  V30 39182 H 3616.41 -0.645226 -0.156779 0
M  V30 39183 H 3618.94 -2.04075 0.146442 0
M  V30 39184 H 3618.95 -3.75256 -1.60146 0
M  V30 39185 H 3617.63 -4.12739 -0.51177 0
M  V30 39186 H 3616.2 -3.12047 -2.0416 0
M  V30 39187 N 3618.39 0.201658 -1.56305 0
M  V30 39188 C 3619.62 0.938071 -1.84076 0
M  V30 39189 C 3620.03 1.77633 -0.651408 0
M  V30 39190 O 3619.37 1.79529 0.389247 0
M  V30 39191 C 3619.43 1.88919 -3.05859 0
M  V30 39192 C 3619.1 1.23352 -4.40038 0
M  V30 39193 C 3620.09 0.613647 -5.16266 0
M  V30 39194 C 3617.78 1.23934 -4.86771 0
M  V30 39195 C 3619.77 0.00833365 -6.37399 0
M  V30 39196 C 3617.46 0.630189 -6.07842 0
M  V30 39197 C 3618.46 0.0157598 -6.82998 0
M  V30 39198 O 3618.14 -0.583861 -8.01777 0
M  V30 39199 H 3617.88 0.279534 -0.615497 0
M  V30 39200 H 3620.43 0.215902 -2.04262 0
M  V30 39201 H 3618.66 2.65088 -2.81541 0
M  V30 39202 H 3620.35 2.49283 -3.20332 0
M  V30 39203 H 3621.12 0.60134 -4.81258 0
M  V30 39204 H 3616.99 1.70698 -4.28233 0
M  V30 39205 H 3620.54 -0.471863 -6.96002 0
M  V30 39206 H 3616.44 0.639976 -6.4232 0
M  V30 39207 H 3617.2 -0.480123 -8.17091 0
M  V30 39208 N 3619.87 1.50456 0.469128 0
M  V30 39209 C 3621.09 1.65577 1.24896 0
M  V30 39210 C 3621.52 0.339614 1.85009 0
M  V30 39211 O 3620.87 -0.696745 1.67377 0
M  V30 39212 C 3620.92 2.75045 2.332 0
M  V30 39213 O 3620.03 2.36435 3.37894 0
M  V30 39214 H 3619.37 0.553126 0.367353 0
M  V30 39215 H 3621.9 1.96843 0.558048 0
M  V30 39216 H 3621.91 2.98181 2.78482 0
M  V30 39217 H 3620.58 3.70567 1.88819 0
M  V30 39218 H 3619.16 2.23753 2.9831 0
M  V30 39219 N 3621.34 -0.722439 1.40066 0
M  V30 39220 C 3622.31 -1.81822 1.39547 0
M  V30 39221 C 3623.31 -1.58156 0.290413 0
M  V30 39222 O 3624.5 -1.65324 0.54897 0
M  V30 39223 C 3621.63 -3.19809 1.18046 0
M  V30 39224 H 3622.82 -1.83683 2.37067 0
M  V30 39225 H 3620.38 -0.927382 1.25815 0
M  V30 39226 H 3621.11 -3.23602 0.212593 0
M  V30 39227 H 3620.9 -3.38386 1.98085 0
M  V30 39228 H 3622.39 -3.99851 1.20454 0
M  V30 39229 N 3622.82 -1.2545 -0.953947 0
M  V30 39230 C 3624.07 -1.10021 -1.69528 0
M  V30 39231 C 3624.39 0.359352 -1.9166 0
M  V30 39232 O 3623.66 1.25503 -1.50419 0
M  V30 39233 H 3622.24 -0.404147 -0.628231 0
M  V30 39234 H 3624.9 -1.57583 -1.14689 0
M  V30 39235 H 3624 -1.60905 -2.67424 0
M  V30 39236 N 3624.3 1.15667 -1.07047 0
M  V30 39237 C 3625.23 2.19908 -0.645984 0
M  V30 39238 C 3626.25 1.60013 0.299922 0
M  V30 39239 O 3627.44 1.78274 0.0897223 0
M  V30 39240 C 3624.54 3.38823 0.0721322 0
M  V30 39241 C 3623.71 4.28267 -0.889179 0
M  V30 39242 C 3622.77 5.25785 -0.208921 0
M  V30 39243 O 3621.79 5.62833 -0.848993 0
M  V30 39244 N 3623 5.70987 1.04661 0
M  V30 39245 H 3625.76 2.56945 -1.5427 0
M  V30 39246 H 3623.32 1.30751 -0.954759 0
M  V30 39247 H 3625.31 4.01111 0.537812 0
M  V30 39248 H 3623.88 3.00228 0.870753 0
M  V30 39249 H 3623.1 3.63126 -1.53405 0
M  V30 39250 H 3624.39 4.84901 -1.54106 0
M  V30 39251 H 3623.79 5.42994 1.58663 0
M  V30 39252 H 3622.35 6.35329 1.45602 0
M  V30 39253 N 3625.78 0.854133 1.32447 0
M  V30 39254 C 3627 0.470342 2.01996 0
M  V30 39255 C 3627.43 -0.925196 1.63773 0
M  V30 39256 O 3626.79 -1.60765 0.838117 0
M  V30 39257 C 3626.84 0.616363 3.55293 0
M  V30 39258 O 3625.94 -0.351061 4.10903 0
M  V30 39259 H 3625.28 0.18909 0.636507 0
M  V30 39260 H 3627.81 1.15318 1.69006 0
M  V30 39261 H 3627.82 0.503695 4.04879 0
M  V30 39262 H 3626.5 1.63402 3.82456 0
M  V30 39263 H 3625.07 -0.194675 3.72391 0
M  V30 39264 N 3627.26 -1.45231 0.61202 0
M  V30 39265 C 3628.5 -2.02506 0.109108 0
M  V30 39266 C 3628.84 -1.47883 -1.25874 0
M  V30 39267 O 3628.11 -0.655272 -1.8313 0
M  V30 39268 C 3628.39 -3.60022 0.074992 0
M  V30 39269 C 3628.25 -4.24969 1.47382 0
M  V30 39270 C 3629.57 -4.35845 -0.610526 0
M  V30 39271 H 3626.69 -0.735852 0.041123 0
M  V30 39272 H 3629.33 -1.73033 0.78484 0
M  V30 39273 H 3627.48 -3.85263 -0.500443 0
M  V30 39274 H 3629.15 -4.10898 2.09667 0
M  V30 39275 H 3627.39 -3.83199 2.03325 0
M  V30 39276 H 3628.06 -5.33895 1.40215 0
M  V30 39277 H 3630.54 -4.15923 -0.121372 0
M  V30 39278 H 3629.42 -5.45572 -0.603518 0
M  V30 39279 H 3629.68 -4.09041 -1.67743 0
M  V30 39280 N 3628.74 -0.351436 -1.53632 0
M  V30 39281 C 3629.65 0.509945 -2.28991 0
M  V30 39282 C 3630.66 1.10505 -1.34405 0
M  V30 39283 O 3631.84 1.11903 -1.6745 0
M  V30 39284 C 3628.9 1.64119 -3.05395 0
M  V30 39285 C 3627.96 1.07506 -4.15621 0
M  V30 39286 C 3627.2 2.1524 -4.88372 0
M  V30 39287 O 3627.42 3.36102 -4.6086 0
M  V30 39288 O 3626.35 1.7909 -5.74639 0
M  V30 39289 H 3630.18 -0.102883 -3.03526 0
M  V30 39290 H 3627.76 -0.11624 -1.48947 0
M  V30 39291 H 3629.65 2.2992 -3.5315 0
M  V30 39292 H 3628.32 2.23968 -2.33709 0
M  V30 39293 H 3627.23 0.381355 -3.72151 0
M  V30 39294 H 3628.56 0.521327 -4.89431 0
M  V30 39295 N 3630.21 1.57396 -0.0802459 0
M  V30 39296 C 3631.46 1.92983 0.586539 0
M  V30 39297 C 3631.78 0.962948 1.70255 0
M  V30 39298 O 3632.98 1.21197 2.42948 0
M  V30 39299 C 3631.44 3.42848 1.09469 0
M  V30 39300 C 3631.05 4.47999 0.00923105 0
M  V30 39301 C 3632.79 3.87422 1.73505 0
M  V30 39302 C 3630.7 5.89003 0.531898 0
M  V30 39303 H 3629.63 0.72031 0.222866 0
M  V30 39304 H 3632.28 1.82854 -0.153848 0
M  V30 39305 H 3630.66 3.48079 1.8883 0
M  V30 39306 H 3631.83 4.54394 -0.765689 0
M  V30 39307 H 3630.15 4.12943 -0.535418 0
M  V30 39308 H 3632.75 4.90158 2.13656 0
M  V30 39309 H 3633.09 3.25253 2.59839 0
M  V30 39310 H 3633.62 3.8483 1.00751 0
M  V30 39311 H 3630.36 6.54838 -0.294479 0
M  V30 39312 H 3629.88 5.8611 1.27415 0
M  V30 39313 H 3631.56 6.39137 1.00562 0
M  V30 39314 N 3631.69 -0.193366 1.56409 0
M  V30 39315 C 3632.62 -1.24231 1.97709 0
M  V30 39316 C 3633.6 -1.47379 0.849311 0
M  V30 39317 O 3634.79 -1.59087 1.11377 0
M  V30 39318 C 3631.92 -2.58616 2.31809 0
M  V30 39319 C 3630.87 -2.50076 3.47341 0
M  V30 39320 C 3630.2 -3.88749 3.67121 0
M  V30 39321 C 3631.5 -2.02433 4.81475 0
M  V30 39322 H 3633.19 -0.89909 2.85581 0
M  V30 39323 H 3630.74 -0.431054 1.37397 0
M  V30 39324 H 3632.69 -3.3218 2.59296 0
M  V30 39325 H 3631.41 -2.94681 1.40821 0
M  V30 39326 H 3630.07 -1.78967 3.19947 0
M  V30 39327 H 3629.72 -4.22171 2.73461 0
M  V30 39328 H 3629.42 -3.8391 4.44845 0
M  V30 39329 H 3630.95 -4.63933 3.96986 0
M  V30 39330 H 3632.36 -2.65757 5.07983 0
M  V30 39331 H 3630.76 -2.08591 5.62681 0
M  V30 39332 H 3631.83 -0.97762 4.74943 0
M  V30 39333 N 3633.17 -1.50702 -0.461142 0
M  V30 39334 C 3634.45 -1.52713 -1.22222 0
M  V30 39335 C 3634.83 -0.277526 -2.09268 0
M  V30 39336 O 3634.17 0.738604 -2.16233 0
M  V30 39337 C 3634.38 -2.82832 -2.04467 0
M  V30 39338 C 3635.73 -3.33876 -2.6232 0
M  V30 39339 O 3636.76 -2.84222 -2.14701 0
M  V30 39340 O 3635.62 -4.20459 -3.49109 0
M  V30 39341 H 3632.71 -0.612968 -0.555157 0
M  V30 39342 H 3635.26 -1.62999 -0.472151 0
M  V30 39343 H 3634.03 -3.6525 -1.40386 0
M  V30 39344 H 3633.65 -2.75596 -2.86588 0
M  V30 39345 N 3634.65 0.715001 -1.40447 0
M  V30 39346 C 3635.9 1.47197 -1.38483 0
M  V30 39347 C 3636.22 1.94996 0.0118856 0
M  V30 39348 O 3635.49 1.70385 0.966742 0
M  V30 39349 H 3634.07 0.546111 -0.509678 0
M  V30 39350 H 3636.73 0.847557 -1.75506 0
M  V30 39351 H 3635.82 2.34452 -2.06006 0
M  V30 39352 N 3636.13 1.25954 0.947281 0
M  V30 39353 C 3637.37 1.11302 1.69528 0
M  V30 39354 C 3637.7 -0.343928 1.9113 0
M  V30 39355 O 3636.98 -1.25306 1.48757 0
M  V30 39356 C 3637.26 1.87593 3.07377 0
M  V30 39357 C 3637.12 3.41159 2.93139 0
M  V30 39358 C 3638.43 1.66491 4.07393 0
M  V30 39359 H 3635.55 0.405717 0.615274 0
M  V30 39360 H 3638.2 1.54876 1.10062 0
M  V30 39361 H 3636.35 1.50559 3.5814 0
M  V30 39362 H 3638.02 3.87911 2.49645 0
M  V30 39363 H 3636.26 3.68496 2.28896 0
M  V30 39364 H 3636.93 3.89762 3.90883 0
M  V30 39365 H 3639.41 1.98744 3.65568 0
M  V30 39366 H 3638.28 2.22296 5.01872 0
M  V30 39367 H 3638.54 0.607993 4.37899 0
M  V30 39368 N 3637.6 -1.15097 1.07659 0
M  V30 39369 C 3638.51 -2.23559 0.711237 0
M  V30 39370 C 3639.53 -1.7175 -0.278901 0
M  V30 39371 O 3640.71 -2.01013 -0.124753 0
M  V30 39372 C 3637.77 -3.46499 0.117916 0
M  V30 39373 C 3636.83 -4.13283 1.16169 0
M  V30 39374 C 3636.07 -5.30355 0.596588 0
M  V30 39375 O 3636.29 -5.67378 -0.586375 0
M  V30 39376 O 3635.22 -5.86726 1.34298 0
M  V30 39377 H 3639.05 -2.57147 1.61583 0
M  V30 39378 H 3636.63 -1.2288 0.849752 0
M  V30 39379 H 3638.52 -4.20874 -0.210539 0
M  V30 39380 H 3637.19 -3.14653 -0.759952 0
M  V30 39381 H 3636.1 -3.40817 1.54255 0
M  V30 39382 H 3637.43 -4.49218 2.01157 0
M  V30 39383 N 3639.08 -0.861145 -1.31993 0
M  V30 39384 C 3640.01 -0.326004 -2.31213 0
M  V30 39385 C 3640.99 0.578355 -1.59966 0
M  V30 39386 O 3642.18 0.497235 -1.87726 0
M  V30 39387 C 3639.31 0.48094 -3.43954 0
M  V30 39388 C 3638.26 -0.329549 -4.26729 0
M  V30 39389 C 3637.59 0.602534 -5.31294 0
M  V30 39390 C 3638.89 -1.55883 -4.98495 0
M  V30 39391 H 3640.58 -1.15508 -2.76221 0
M  V30 39392 H 3638.13 -0.556879 -1.32796 0
M  V30 39393 H 3640.08 0.865778 -4.1241 0
M  V30 39394 H 3638.81 1.34344 -2.9769 0
M  V30 39395 H 3637.46 -0.696222 -3.59928 0
M  V30 39396 H 3637.11 1.46207 -4.81282 0
M  V30 39397 H 3636.81 0.0642012 -5.87565 0
M  V30 39398 H 3638.34 0.984406 -6.02612 0
M  V30 39399 H 3639.75 -1.24593 -5.59598 0
M  V30 39400 H 3638.15 -2.03558 -5.64521 0
M  V30 39401 H 3639.22 -2.31653 -4.25987 0
M  V30 39402 N 3640.56 1.44905 -0.619713 0
M  V30 39403 C 3641.81 2.01747 -0.119432 0
M  V30 39404 C 3642.13 1.48909 1.25901 0
M  V30 39405 O 3641.4 0.688137 1.83416 0
M  V30 39406 H 3639.98 0.745865 -0.0411613 0
M  V30 39407 H 3642.64 1.77551 -0.803844 0
M  V30 39408 H 3641.74 3.12001 -0.0784228 0
M  V30 39409 N 3642.04 0.359579 1.53443 0
M  V30 39410 C 3642.95 -0.497793 2.29258 0
M  V30 39411 C 3643.96 -1.0979 1.34989 0
M  V30 39412 O 3645.14 -1.11014 1.68041 0
M  V30 39413 C 3642.21 -1.62497 3.06261 0
M  V30 39414 C 3641.27 -1.05301 4.16185 0
M  V30 39415 C 3640.5 -2.12647 4.89507 0
M  V30 39416 O 3640.72 -3.33653 4.62636 0
M  V30 39417 O 3639.66 -1.7604 5.75581 0
M  V30 39418 H 3643.48 0.118979 3.03467 0
M  V30 39419 H 3641.07 0.124137 1.48883 0
M  V30 39420 H 3642.95 -2.28044 3.54364 0
M  V30 39421 H 3641.62 -2.22725 2.34894 0
M  V30 39422 H 3640.53 -0.361614 3.72348 0
M  V30 39423 H 3641.86 -0.495364 4.89701 0
M  V30 39424 N 3643.52 -1.57351 0.0885919 0
M  V30 39425 C 3644.93 -1.81404 -0.441537 0
M  V30 39426 C 3645.28 -1.00375 -1.6858 0
M  V30 39427 O 3644.4 -0.231191 -2.15161 0
M  V30 39428 C 3645 -3.29028 -0.807828 0
M  V30 39429 C 3643.56 -3.53868 -1.28273 0
M  V30 39430 C 3642.7 -2.75921 -0.276168 0
M  V30 39431 H 3645.66 -1.5556 0.31411 0
M  V30 39432 H 3645.68 -3.41996 -1.66791 0
M  V30 39433 H 3645.19 -3.87976 0.0979568 0
M  V30 39434 H 3643.29 -3.00244 -2.20645 0
M  V30 39435 H 3643.4 -4.62531 -1.24906 0
M  V30 39436 H 3641.77 -2.43192 -0.756965 0
M  V30 39437 H 3642.55 -3.37615 0.622182 0
M  V30 39438 N 3644.99 0.185069 -1.5651 0
M  V30 39439 C 3645.96 1.21301 -1.9447 0
M  V30 39440 C 3646.96 1.37912 -0.826862 0
M  V30 39441 O 3648.15 1.35552 -1.09413 0
M  V30 39442 C 3645.28 2.58059 -2.22751 0
M  V30 39443 H 3646.47 0.888273 -2.86443 0
M  V30 39444 H 3644.03 0.426986 -1.50355 0
M  V30 39445 H 3644.76 2.95571 -1.33448 0
M  V30 39446 H 3644.55 2.47372 -3.04219 0
M  V30 39447 H 3646.04 3.32168 -2.5309 0
M  V30 39448 N 3646.47 1.50945 0.453144 0
M  V30 39449 C 3647.42 1.675 1.54686 0
M  V30 39450 C 3648.41 0.52922 1.51948 0
M  V30 39451 O 3649.6 0.784443 1.58668 0
M  V30 39452 C 3646.73 1.78897 2.93003 0
M  V30 39453 C 3645.81 2.9921 3.00557 0
M  V30 39454 N 3646.2 4.22626 2.77886 0
M  V30 39455 C 3644.5 2.98138 3.31707 0
M  V30 39456 C 3645.2 5.03754 2.90873 0
M  V30 39457 N 3644.18 4.38074 3.21858 0
M  V30 39458 H 3647.98 2.606 1.35885 0
M  V30 39459 H 3645.5 1.48375 0.660192 0
M  V30 39460 H 3647.49 1.88865 3.71666 0
M  V30 39461 H 3646.15 0.869681 3.12836 0
M  V30 39462 H 3647.16 4.51831 2.53118 0
M  V30 39463 H 3643.84 2.15779 3.57415 0
M  V30 39464 H 3645.23 6.11948 2.77433 0
M  V30 39465 N 3647.95 -0.707543 1.40825 0
M  V30 39466 C 3648.9 -1.82159 1.41728 0
M  V30 39467 C 3649.87 -1.63838 0.273164 0
M  V30 39468 O 3651.05 -1.84859 0.472431 0
M  V30 39469 C 3648.19 -3.19941 1.29352 0
M  V30 39470 C 3647.31 -3.49777 2.53535 0
M  V30 39471 C 3646.44 -4.77108 2.33542 0
M  V30 39472 C 3645.48 -4.99874 3.5326 0
M  V30 39473 N 3644.62 -6.18423 3.32412 0
M  V30 39474 H 3649.46 -1.80722 2.36946 0
M  V30 39475 H 3646.99 -0.882703 1.17672 0
M  V30 39476 H 3648.95 -3.99515 1.20182 0
M  V30 39477 H 3647.58 -3.20585 0.377482 0
M  V30 39478 H 3646.63 -2.64697 2.73202 0
M  V30 39479 H 3647.95 -3.62506 3.42623 0
M  V30 39480 H 3647.1 -5.64715 2.2177 0
M  V30 39481 H 3645.84 -4.66603 1.41891 0
M  V30 39482 H 3644.84 -4.10719 3.655 0
M  V30 39483 H 3646.07 -5.12246 4.45849 0
M  V30 39484 H 3644.01 -6.09153 2.43451 0
M  V30 39485 H 3643.93 -6.31865 4.1507 0
M  V30 39486 H 3645.2 -7.08796 3.2439 0
M  V30 39487 N 3649.43 -1.26454 -0.940588 0
M  V30 39488 C 3650.38 -1.08063 -2.03939 0
M  V30 39489 C 3651.35 0.0145096 -1.66094 0
M  V30 39490 O 3652.53 -0.145371 -1.90245 0
M  V30 39491 C 3649.67 -0.720287 -3.37499 0
M  V30 39492 C 3648.78 -1.89174 -3.88378 0
M  V30 39493 C 3647.92 -1.47445 -5.10327 0
M  V30 39494 C 3646.96 -2.61418 -5.53468 0
M  V30 39495 N 3646.09 -2.20367 -6.6662 0
M  V30 39496 H 3650.93 -2.02094 -2.19003 0
M  V30 39497 H 3648.47 -1.0062 -1.07304 0
M  V30 39498 H 3650.43 -0.49225 -4.14286 0
M  V30 39499 H 3649.06 0.183044 -3.22281 0
M  V30 39500 H 3648.11 -2.23269 -3.07986 0
M  V30 39501 H 3649.42 -2.74715 -4.16333 0
M  V30 39502 H 3648.58 -1.2069 -5.94575 0
M  V30 39503 H 3647.32 -0.589958 -4.84119 0
M  V30 39504 H 3646.32 -2.88902 -4.67777 0
M  V30 39505 H 3647.55 -3.50468 -5.81678 0
M  V30 39506 H 3645.49 -1.34352 -6.42095 0
M  V30 39507 H 3645.41 -2.99451 -6.94165 0
M  V30 39508 H 3646.68 -1.96825 -7.54242 0
M  V30 39509 N 3650.91 1.14525 -1.08268 0
M  V30 39510 C 3652.13 1.89394 -0.832914 0
M  V30 39511 C 3652.55 1.7851 0.614792 0
M  V30 39512 O 3651.91 1.14345 1.42237 0
M  V30 39513 C 3651.96 3.39419 -1.24406 0
M  V30 39514 O 3651.68 3.50001 -2.63497 0
M  V30 39515 C 3653.18 4.31288 -1.02495 0
M  V30 39516 H 3650.4 0.599959 -0.300484 0
M  V30 39517 H 3652.94 1.45048 -1.44158 0
M  V30 39518 H 3651.1 3.81394 -0.679533 0
M  V30 39519 H 3651.51 4.43177 -2.80525 0
M  V30 39520 H 3652.99 5.34932 -1.36204 0
M  V30 39521 H 3653.46 4.39183 0.0381189 0
M  V30 39522 H 3654.07 3.95068 -1.57484 0
M  V30 39523 N 3652.39 0.868133 1.31534 0
M  V30 39524 C 3653.63 0.47721 1.96385 0
M  V30 39525 C 3653.95 -0.973352 1.6897 0
M  V30 39526 O 3653.22 -1.68209 1.00412 0
M  V30 39527 H 3651.8 0.173481 0.726576 0
M  V30 39528 H 3654.47 1.10752 1.60375 0
M  V30 39529 H 3653.56 0.633429 3.05604 0
M  V30 39530 N 3653.86 -1.44574 0.627389 0
M  V30 39531 C 3655.09 -2.06444 0.13735 0
M  V30 39532 C 3655.51 -1.46857 -1.18652 0
M  V30 39533 O 3654.86 -0.590048 -1.72698 0
M  V30 39534 C 3654.91 -3.61498 0.0124116 0
M  V30 39535 O 3654.64 -4.18864 1.28393 0
M  V30 39536 C 3656.14 -4.40394 -0.506764 0
M  V30 39537 H 3653.36 -0.666457 0.0779504 0
M  V30 39538 H 3655.9 -1.85504 0.860733 0
M  V30 39539 H 3654.06 -3.81712 -0.661393 0
M  V30 39540 H 3654.47 -5.12263 1.12635 0
M  V30 39541 H 3655.94 -5.49321 -0.543207 0
M  V30 39542 H 3656.42 -4.11575 -1.53307 0
M  V30 39543 H 3657.03 -4.2509 0.133664 0
M  V30 39544 N 3655.34 -0.367711 -1.5325 0
M  V30 39545 C 3656.57 0.222011 -2.05705 0
M  V30 39546 C 3656.98 1.42278 -1.24106 0
M  V30 39547 O 3656.34 1.80304 -0.282259 0
M  V30 39548 C 3656.39 0.613412 -3.56258 0
M  V30 39549 O 3656.11 -0.539634 -4.34764 0
M  V30 39550 C 3657.61 1.2613 -4.24978 0
M  V30 39551 H 3654.83 0.0385681 -0.669891 0
M  V30 39552 H 3657.38 -0.526697 -1.97601 0
M  V30 39553 H 3655.53 1.31203 -3.64506 0
M  V30 39554 H 3655.95 -0.222791 -5.24027 0
M  V30 39555 H 3657.42 1.48571 -5.3163 0
M  V30 39556 H 3657.9 2.22224 -3.78832 0
M  V30 39557 H 3658.5 0.604047 -4.20989 0
M  V30 39558 N 3656.82 1.57302 -0.0969353 0
M  V30 39559 C 3658.07 1.94707 0.567178 0
M  V30 39560 C 3658.4 0.978967 1.6772 0
M  V30 39561 O 3657.67 0.0123358 1.94496 0
M  V30 39562 C 3657.96 3.42219 1.12063 0
M  V30 39563 C 3657.81 4.49797 0.0155359 0
M  V30 39564 C 3659.13 3.91085 2.01843 0
M  V30 39565 H 3656.25 0.708001 0.204704 0
M  V30 39566 H 3658.89 1.89256 -0.168018 0
M  V30 39567 H 3657.04 3.46996 1.74717 0
M  V30 39568 H 3658.71 4.57131 -0.61879 0
M  V30 39569 H 3656.95 4.28893 -0.650605 0
M  V30 39570 H 3657.63 5.50214 0.443627 0
M  V30 39571 H 3660.1 3.88473 1.49092 0
M  V30 39572 H 3658.98 4.94862 2.37493 0
M  V30 39573 H 3659.24 3.30485 2.93653 0
M  V30 39574 N 3658.3 -0.176766 1.56606 0
M  V30 39575 C 3659.71 -0.739745 1.7142 0
M  V30 39576 C 3660.06 -1.83036 0.706559 0
M  V30 39577 O 3659.18 -2.1599 -0.133221 0
M  V30 39578 C 3659.78 -1.34862 3.10802 0
M  V30 39579 C 3658.34 -1.85848 3.27319 0
M  V30 39580 C 3657.49 -0.735363 2.67372 0
M  V30 39581 H 3660.44 0.0485584 1.58626 0
M  V30 39582 H 3660.46 -2.21826 3.0915 0
M  V30 39583 H 3659.97 -0.554621 3.84117 0
M  V30 39584 H 3658.07 -2.67909 2.58951 0
M  V30 39585 H 3658.18 -2.00766 4.35005 0
M  V30 39586 H 3656.55 -1.1544 2.27037 0
M  V30 39587 H 3657.33 0.0466955 3.43268 0
M  V30 39588 N 3659.78 -1.51183 -0.445132 0
M  V30 39589 C 3660.69 -1.74765 -1.56507 0
M  V30 39590 C 3661.7 -0.631571 -1.62133 0
M  V30 39591 O 3662.88 -0.91293 -1.7952 0
M  V30 39592 C 3659.94 -1.86055 -2.92548 0
M  V30 39593 C 3659 -3.09885 -2.97102 0
M  V30 39594 C 3658.24 -3.20627 -4.26654 0
M  V30 39595 O 3658.46 -2.37501 -5.18604 0
M  V30 39596 O 3657.39 -4.1355 -4.37333 0
M  V30 39597 H 3661.22 -2.69752 -1.39526 0
M  V30 39598 H 3658.8 -1.35591 -0.627339 0
M  V30 39599 H 3660.69 -1.95511 -3.73301 0
M  V30 39600 H 3659.36 -0.942534 -3.09674 0
M  V30 39601 H 3658.27 -3.05913 -2.15333 0
M  V30 39602 H 3659.6 -4.0135 -2.84919 0
M  V30 39603 N 3661.25 0.700065 -1.41198 0
M  V30 39604 C 3662.48 1.49397 -1.43858 0
M  V30 39605 C 3662.9 1.88048 -0.0442208 0
M  V30 39606 O 3662.26 1.54326 0.951476 0
M  V30 39607 C 3662.31 2.7358 -2.34918 0
M  V30 39608 O 3661.41 3.70893 -1.80312 0
M  V30 39609 H 3660.75 0.449824 -0.48842 0
M  V30 39610 H 3663.28 0.860879 -1.85607 0
M  V30 39611 H 3663.29 3.21938 -2.50639 0
M  V30 39612 H 3661.97 2.44785 -3.36234 0
M  V30 39613 H 3660.55 3.29806 -1.74018 0
M  V30 39614 N 3662.73 1.26951 0.933869 0
M  V30 39615 C 3663.98 1.12313 1.67537 0
M  V30 39616 C 3664.29 -0.331754 1.92766 0
M  V30 39617 O 3665.5 -0.598936 2.64811 0
M  V30 39618 C 3663.96 1.96199 3.01718 0
M  V30 39619 C 3663.56 3.46307 2.8421 0
M  V30 39620 C 3665.31 1.90191 3.7951 0
M  V30 39621 C 3663.21 4.22414 4.13909 0
M  V30 39622 H 3662.14 0.416715 0.628382 0
M  V30 39623 H 3664.8 1.51322 1.03798 0
M  V30 39624 H 3663.18 1.5003 3.66479 0
M  V30 39625 H 3664.35 4.00296 2.28254 0
M  V30 39626 H 3662.67 3.53629 2.19854 0
M  V30 39627 H 3665.26 2.44333 4.7561 0
M  V30 39628 H 3665.61 0.8742 4.07018 0
M  V30 39629 H 3666.14 2.34223 3.21535 0
M  V30 39630 H 3662.88 5.25684 3.91582 0
M  V30 39631 H 3662.4 3.73204 4.69552 0
M  V30 39632 H 3664.08 4.31256 4.82314 0
M  V30 39633 N 3664.21 -1.13949 1.08873 0
M  V30 39634 C 3665.16 -2.17228 0.692545 0
M  V30 39635 C 3666.14 -1.58261 -0.290237 0
M  V30 39636 O 3667.34 -1.76709 -0.1015 0
M  V30 39637 C 3664.46 -3.43128 0.108547 0
M  V30 39638 C 3663.55 -4.09115 1.1174 0
M  V30 39639 N 3663.94 -4.50353 2.30252 0
M  V30 39640 C 3662.24 -4.35672 0.954248 0
M  V30 39641 C 3662.94 -5.01711 2.94382 0
M  V30 39642 N 3661.92 -4.96217 2.21968 0
M  V30 39643 H 3665.72 -2.46858 1.59494 0
M  V30 39644 H 3663.23 -1.30684 0.964136 0
M  V30 39645 H 3665.23 -4.16452 -0.193272 0
M  V30 39646 H 3663.89 -3.14974 -0.788765 0
M  V30 39647 H 3664.9 -4.43239 2.67879 0
M  V30 39648 H 3661.58 -4.17352 0.111142 0
M  V30 39649 H 3662.97 -5.43458 3.95099 0
M  V30 39650 N 3665.69 -0.875096 -1.31072 0
M  V30 39651 C 3666.91 -0.502419 -2.01223 0
M  V30 39652 C 3667.34 0.899024 -1.65225 0
M  V30 39653 O 3666.7 1.59411 -0.863587 0
M  V30 39654 C 3666.74 -0.672809 -3.54268 0
M  V30 39655 O 3665.85 0.285645 -4.1141 0
M  V30 39656 H 3665.19 -0.199192 -0.633418 0
M  V30 39657 H 3667.72 -1.17992 -1.6715 0
M  V30 39658 H 3667.73 -0.568044 -4.04026 0
M  V30 39659 H 3666.4 -1.69466 -3.79808 0
M  V30 39660 H 3664.98 0.135406 -3.72654 0
M  V30 39661 N 3667.17 1.44239 -0.635047 0
M  V30 39662 C 3668.41 2.02008 -0.141102 0
M  V30 39663 C 3668.74 1.49975 1.23846 0
M  V30 39664 O 3668 0.675705 1.83665 0
M  V30 39665 C 3668.3 3.57308 -0.0812538 0
M  V30 39666 C 3667.96 4.28611 -1.40012 0
M  V30 39667 C 3666.62 4.47807 -1.76132 0
M  V30 39668 C 3668.98 4.69146 -2.2705 0
M  V30 39669 C 3666.3 5.04798 -2.98991 0
M  V30 39670 C 3668.66 5.27498 -3.49182 0
M  V30 39671 C 3667.32 5.44912 -3.85521 0
M  V30 39672 H 3666.59 0.739199 -0.051633 0
M  V30 39673 H 3669.24 1.72954 -0.822142 0
M  V30 39674 H 3667.54 3.85798 0.683172 0
M  V30 39675 H 3669.24 3.99741 0.317513 0
M  V30 39676 H 3665.83 4.14003 -1.10904 0
M  V30 39677 H 3670.01 4.54025 -2.00438 0
M  V30 39678 H 3665.27 5.16468 -3.27217 0
M  V30 39679 H 3669.44 5.57856 -4.16856 0
M  V30 39680 H 3667.07 5.8884 -4.80803 0
M  V30 39681 N 3668.64 0.375833 1.53053 0
M  V30 39682 C 3669.89 -0.211811 2.00585 0
M  V30 39683 C 3670.21 -1.49023 1.26694 0
M  V30 39684 O 3671.41 -2.15711 1.64867 0
M  V30 39685 C 3669.87 -0.428011 3.57346 0
M  V30 39686 C 3669.48 0.836376 4.40124 0
M  V30 39687 C 3671.22 -0.972753 4.13204 0
M  V30 39688 C 3669.13 0.589197 5.88458 0
M  V30 39689 H 3668.06 -0.082928 0.749426 0
M  V30 39690 H 3670.71 0.496157 1.76665 0
M  V30 39691 H 3669.09 -1.19749 3.7746 0
M  V30 39692 H 3670.26 1.60944 4.3178 0
M  V30 39693 H 3668.58 1.30508 3.95419 0
M  V30 39694 H 3671.18 -1.17317 5.21671 0
M  V30 39695 H 3671.52 -1.9379 3.68444 0
M  V30 39696 H 3672.05 -0.263179 3.96928 0
M  V30 39697 H 3668.79 1.52497 6.37515 0
M  V30 39698 H 3668.31 -0.14518 5.99624 0
M  V30 39699 H 3669.99 0.218599 6.46631 0
M  V30 39700 N 3670.12 -1.57248 0.105276 0
M  V30 39701 C 3671.37 -1.94332 -0.554922 0
M  V30 39702 C 3671.69 -0.988557 -1.68085 0
M  V30 39703 O 3670.96 -0.0424005 -1.95854 0
M  V30 39704 H 3669.54 -0.717463 -0.207981 0
M  V30 39705 H 3672.2 -1.94148 0.170998 0
M  V30 39706 H 3671.3 -2.97018 -0.958478 0
M  V30 39707 N 3671.6 0.168458 -1.56697 0
M  V30 39708 C 3672.88 0.912067 -1.73034 0
M  V30 39709 C 3673.26 2.0027 -0.667459 0
M  V30 39710 O 3672.61 2.26287 0.317268 0
M  V30 39711 C 3672.82 1.47419 -3.16337 0
M  V30 39712 C 3674.16 1.94599 -3.77381 0
M  V30 39713 O 3675.19 1.57206 -3.19632 0
M  V30 39714 O 3674.05 2.63489 -4.78786 0
M  V30 39715 H 3671.14 0.429505 -0.706721 0
M  V30 39716 H 3673.69 0.156063 -1.68981 0
M  V30 39717 H 3672.46 0.689354 -3.8518 0
M  V30 39718 H 3672.08 2.29429 -3.24727 0
M  V30 39719 N 3673.08 1.51417 0.437109 0
M  V30 39720 C 3674.33 1.63773 1.18418 0
M  V30 39721 C 3674.65 0.356315 1.91717 0
M  V30 39722 O 3673.92 -0.627831 1.85567 0
M  V30 39723 H 3672.5 0.60358 0.440114 0
M  V30 39724 H 3675.16 1.88348 0.501122 0
M  V30 39725 H 3674.26 2.46549 1.91363 0
M  V30 39726 N 3674.56 -0.692567 1.41567 0
M  V30 39727 C 3675.49 -1.81884 1.46426 0
M  V30 39728 C 3676.47 -1.67013 0.32261 0
M  V30 39729 O 3677.65 -1.867 0.53447 0
M  V30 39730 C 3674.78 -3.20045 1.34866 0
M  V30 39731 C 3673.74 -3.49625 2.46873 0
M  V30 39732 C 3673.06 -4.87173 2.20378 0
M  V30 39733 C 3674.36 -3.48299 3.89211 0
M  V30 39734 H 3676.06 -1.78075 2.40686 0
M  V30 39735 H 3673.6 -0.855313 1.15846 0
M  V30 39736 H 3675.56 -3.98551 1.36876 0
M  V30 39737 H 3674.28 -3.24487 0.370917 0
M  V30 39738 H 3672.94 -2.73471 2.4415 0
M  V30 39739 H 3672.59 -4.88245 1.20939 0
M  V30 39740 H 3672.29 -5.07929 2.95435 0
M  V30 39741 H 3673.81 -5.67986 2.24109 0
M  V30 39742 H 3675.22 -4.16804 3.93633 0
M  V30 39743 H 3673.62 -3.80587 4.63976 0
M  V30 39744 H 3674.69 -2.47214 4.17149 0
M  V30 39745 N 3676.03 -1.27445 -0.927123 0
M  V30 39746 C 3677.28 -1.13985 -1.67736 0
M  V30 39747 C 3677.61 0.313477 -1.91653 0
M  V30 39748 O 3676.89 1.22924 -1.50732 0
M  V30 39749 C 3677.17 -1.9246 -3.04354 0
M  V30 39750 C 3677.02 -3.4578 -2.87674 0
M  V30 39751 C 3678.34 -1.72951 -4.04692 0
M  V30 39752 H 3675.46 -0.415454 -0.608742 0
M  V30 39753 H 3678.1 -1.56607 -1.07584 0
M  V30 39754 H 3676.25 -1.56238 -3.55699 0
M  V30 39755 H 3677.93 -3.91834 -2.43442 0
M  V30 39756 H 3676.17 -3.72091 -2.23004 0
M  V30 39757 H 3676.84 -3.95931 -3.84633 0
M  V30 39758 H 3679.32 -2.04535 -3.6236 0
M  V30 39759 H 3678.19 -2.30252 -4.98272 0
M  V30 39760 H 3678.45 -0.677582 -4.36877 0
M  V30 39761 N 3677.51 1.1337 -1.09476 0
M  V30 39762 C 3678.46 2.18797 -0.734618 0
M  V30 39763 C 3679.43 1.63647 0.284404 0
M  V30 39764 O 3680.61 1.90077 0.165925 0
M  V30 39765 C 3677.75 3.4472 -0.161887 0
M  V30 39766 C 3676.87 4.1397 -1.23501 0
M  V30 39767 C 3676 5.27511 -0.624979 0
M  V30 39768 C 3675.04 5.88611 -1.67938 0
M  V30 39769 N 3674.18 6.93582 -1.09033 0
M  V30 39770 H 3679.02 2.48951 -1.63791 0
M  V30 39771 H 3676.56 1.22237 -0.818318 0
M  V30 39772 H 3678.51 4.16776 0.18798 0
M  V30 39773 H 3677.14 3.15015 0.704674 0
M  V30 39774 H 3676.2 3.40193 -1.70215 0
M  V30 39775 H 3677.51 4.55464 -2.03358 0
M  V30 39776 H 3676.66 6.06286 -0.223987 0
M  V30 39777 H 3675.4 4.87268 0.205128 0
M  V30 39778 H 3674.41 5.0853 -2.08991 0
M  V30 39779 H 3675.63 6.30926 -2.51215 0
M  V30 39780 H 3673.58 6.55396 -0.281516 0
M  V30 39781 H 3673.49 7.3362 -1.82586 0
M  V30 39782 H 3674.76 7.76209 -0.715564 0
M  V30 39783 N 3678.99 0.882035 1.30606 0
M  V30 39784 C 3680.4 0.549923 1.78417 0
M  V30 39785 C 3680.75 -0.933766 1.72555 0
M  V30 39786 O 3679.88 -1.72954 1.30061 0
M  V30 39787 C 3680.47 0.991455 3.23969 0
M  V30 39788 C 3679.03 0.710804 3.69628 0
M  V30 39789 C 3678.18 1.17607 2.51125 0
M  V30 39790 H 3681.13 1.06655 1.17517 0
M  V30 39791 H 3681.15 0.319182 3.79159 0
M  V30 39792 H 3680.66 2.07134 3.28203 0
M  V30 39793 H 3678.76 -0.357208 3.70884 0
M  V30 39794 H 3678.88 1.29629 4.6123 0
M  V30 39795 H 3677.24 0.595487 2.47641 0
M  V30 39796 H 3678.02 2.26363 2.58099 0
M  V30 39797 N 3680.47 -1.439 0.642688 0
M  V30 39798 C 3681.38 -2.34533 -0.056205 0
M  V30 39799 C 3682.39 -1.53283 -0.82343 0
M  V30 39800 O 3683.57 -1.85972 -0.77307 0
M  V30 39801 C 3680.64 -3.31423 -1.01781 0
M  V30 39802 C 3679.7 -4.28579 -0.248683 0
M  V30 39803 C 3678.93 -5.20841 -1.16448 0
M  V30 39804 O 3679.15 -5.17288 -2.40352 0
M  V30 39805 O 3678.09 -5.9846 -0.642566 0
M  V30 39806 H 3681.91 -2.95769 0.689528 0
M  V30 39807 H 3679.5 -1.43866 0.402872 0
M  V30 39808 H 3681.38 -3.91032 -1.57073 0
M  V30 39809 H 3680.05 -2.72705 -1.74395 0
M  V30 39810 H 3678.96 -3.72482 0.34756 0
M  V30 39811 H 3680.29 -4.9025 0.437676 0
M  V30 39812 N 3681.95 -0.383945 -1.52852 0
M  V30 39813 C 3682.91 0.441648 -2.24905 0
M  V30 39814 C 3683.91 0.994638 -1.26347 0
M  V30 39815 O 3685.1 0.877486 -1.50485 0
M  V30 39816 C 3682.23 1.61909 -2.99997 0
M  V30 39817 H 3683.43 -0.1891 -2.99303 0
M  V30 39818 H 3680.98 -0.135959 -1.55708 0
M  V30 39819 H 3681.71 2.28742 -2.29886 0
M  V30 39820 H 3681.5 1.22933 -3.7233 0
M  V30 39821 H 3682.99 2.20372 -3.54719 0
M  V30 39822 N 3683.43 1.5719 -0.113614 0
M  V30 39823 C 3684.36 2.18047 0.835325 0
M  V30 39824 C 3685.34 1.11899 1.28112 0
M  V30 39825 O 3686.52 1.40113 1.34469 0
M  V30 39826 C 3683.65 2.77559 2.08754 0
M  V30 39827 C 3682.61 3.89243 1.77972 0
M  V30 39828 C 3681.93 4.35539 3.10178 0
M  V30 39829 C 3683.23 5.11591 1.05222 0
M  V30 39830 H 3684.93 2.97595 0.328222 0
M  V30 39831 H 3682.47 1.43148 0.156431 0
M  V30 39832 H 3684.42 3.1879 2.75592 0
M  V30 39833 H 3683.15 1.95293 2.61779 0
M  V30 39834 H 3681.81 3.48579 1.13526 0
M  V30 39835 H 3681.46 3.50138 3.61127 0
M  V30 39836 H 3681.16 5.10848 2.90358 0
M  V30 39837 H 3682.68 4.79417 3.78143 0
M  V30 39838 H 3684.09 5.49875 1.62204 0
M  V30 39839 H 3682.49 5.9245 0.955165 0
M  V30 39840 H 3683.56 4.84885 0.0380518 0
M  V30 39841 N 3684.9 -0.160146 1.56784 0
M  V30 39842 C 3685.85 -1.21734 1.98201 0
M  V30 39843 C 3686.85 -1.45208 0.872406 0
M  V30 39844 O 3688.05 -1.45656 1.05756 0
M  V30 39845 H 3684.43 -0.409463 0.630749 0
M  V30 39846 H 3686.4 -0.841239 2.86297 0
M  V30 39847 C 3685.15 -2.54644 2.36753 0
M  V30 39848 H 3684.47 -2.37407 3.2168 0
M  V30 39849 H 3685.91 -3.27277 2.69566 0
M  V30 39850 C 3684.37 -3.14222 1.21516 0
M  V30 39851 O 3684.9 -3.98465 0.50881 0
M  V30 39852 N 3683.1 -2.73476 0.982814 0
M  V30 39853 H 3682.65 -2.0507 1.55897 0
M  V30 39854 H 3682.61 -3.13673 0.213644 0
M  V30 39855 N 3686.38 -1.51647 -0.429072 0
M  V30 39856 C 3687.33 -1.73557 -1.5214 0
M  V30 39857 C 3688.3 -0.577443 -1.5574 0
M  V30 39858 O 3689.48 -0.812799 -1.72622 0
M  V30 39859 C 3686.62 -1.87406 -2.89781 0
M  V30 39860 C 3685.74 -3.14988 -2.95646 0
M  V30 39861 C 3684.87 -3.19383 -4.24462 0
M  V30 39862 C 3683.91 -4.41247 -4.24226 0
M  V30 39863 N 3683.05 -4.43145 -5.4458 0
M  V30 39864 H 3687.89 -2.66794 -1.3276 0
M  V30 39865 H 3685.42 -1.32216 -0.644777 0
M  V30 39866 H 3687.38 -1.93417 -3.69656 0
M  V30 39867 H 3686.01 -0.975692 -3.07701 0
M  V30 39868 H 3685.06 -3.18246 -2.08384 0
M  V30 39869 H 3686.38 -4.04877 -2.91334 0
M  V30 39870 H 3685.53 -3.24356 -5.12717 0
M  V30 39871 H 3684.27 -2.27396 -4.31442 0
M  V30 39872 H 3683.27 -4.36441 -3.34364 0
M  V30 39873 H 3684.5 -5.34506 -4.18903 0
M  V30 39874 H 3682.45 -3.54033 -5.52265 0
M  V30 39875 H 3682.36 -5.26854 -5.42181 0
M  V30 39876 H 3683.63 -4.52321 -6.34843 0
M  V30 39877 N 3687.86 0.685049 -1.41932 0
M  V30 39878 C 3688.81 1.79881 -1.44608 0
M  V30 39879 C 3689.78 1.63383 -0.299195 0
M  V30 39880 O 3690.96 1.84084 -0.501781 0
M  V30 39881 C 3688.1 3.17842 -1.34426 0
M  V30 39882 C 3687.21 3.45699 -2.59068 0
M  V30 39883 C 3686.35 4.73332 -2.41102 0
M  V30 39884 C 3685.39 4.9419 -3.61168 0
M  V30 39885 N 3684.53 6.13056 -3.42209 0
M  V30 39886 H 3689.37 1.7693 -2.39791 0
M  V30 39887 H 3686.9 0.86387 -1.19062 0
M  V30 39888 H 3688.86 3.97552 -1.26522 0
M  V30 39889 H 3687.49 3.19944 -0.428437 0
M  V30 39890 H 3686.54 2.60317 -2.77379 0
M  V30 39891 H 3687.85 3.57009 -3.48347 0
M  V30 39892 H 3687.01 5.61115 -2.30726 0
M  V30 39893 H 3685.75 4.64286 -1.49296 0
M  V30 39894 H 3684.75 4.04852 -3.71988 0
M  V30 39895 H 3685.98 5.05088 -4.53942 0
M  V30 39896 H 3683.92 6.05203 -2.53111 0
M  V30 39897 H 3683.84 6.25181 -4.2507 0
M  V30 39898 H 3685.11 7.03545 -3.35625 0
M  V30 39899 N 3689.34 1.27935 0.920351 0
M  V30 39900 C 3690.3 1.11325 2.00348 0
M  V30 39901 C 3691.3 0.0549414 1.60706 0
M  V30 39902 O 3692.49 0.300164 1.71594 0
M  V30 39903 C 3689.62 0.697879 3.3368 0
M  V30 39904 H 3690.82 2.07513 2.16514 0
M  V30 39905 H 3688.37 1.10827 1.10214 0
M  V30 39906 H 3689.1 -0.265065 3.23215 0
M  V30 39907 H 3688.89 1.46229 3.63812 0
M  V30 39908 H 3690.38 0.60412 4.13207 0
M  V30 39909 N 3690.82 -1.12788 1.10076 0
M  V30 39910 C 3692.06 -1.83571 0.835748 0
M  V30 39911 C 3692.38 -1.84806 -0.640799 0
M  V30 39912 O 3693.58 -2.51547 -1.02158 0
M  V30 39913 C 3692.04 -3.29607 1.44525 0
M  V30 39914 C 3691.65 -3.36741 2.95482 0
M  V30 39915 C 3693.39 -4.05386 1.25947 0
M  V30 39916 C 3691.3 -4.77089 3.49485 0
M  V30 39917 H 3690.23 -0.687782 0.308986 0
M  V30 39918 H 3692.88 -1.27023 1.32429 0
M  V30 39919 H 3691.26 -3.85998 0.884391 0
M  V30 39920 H 3692.44 -2.90309 3.57851 0
M  V30 39921 H 3690.75 -2.74432 3.13171 0
M  V30 39922 H 3693.35 -5.09012 1.63741 0
M  V30 39923 H 3693.69 -4.15816 0.200706 0
M  V30 39924 H 3694.22 -3.55342 1.7882 0
M  V30 39925 H 3690.96 -4.71852 4.55012 0
M  V30 39926 H 3690.48 -5.23989 2.91882 0
M  V30 39927 H 3692.16 -5.46022 3.47086 0
M  V30 39928 N 3692.29 -0.888949 -1.30136 0
M  V30 39929 C 3693.23 -0.315944 -2.27012 0
M  V30 39930 C 3694.24 0.531719 -1.53872 0
M  V30 39931 O 3695.43 0.350623 -1.75023 0
M  V30 39932 C 3692.53 0.56906 -3.34088 0
M  V30 39933 C 3691.7 -0.250436 -4.36682 0
M  V30 39934 C 3690.76 0.565691 -5.2315 0
M  V30 39935 O 3689.79 -0.0130168 -5.69199 0
M  V30 39936 N 3690.99 1.874 -5.49419 0
M  V30 39937 H 3693.75 -1.14853 -2.76819 0
M  V30 39938 H 3691.31 -0.752337 -1.43358 0
M  V30 39939 H 3693.31 1.12118 -3.88859 0
M  V30 39940 H 3691.88 1.30232 -2.8418 0
M  V30 39941 H 3691.1 -0.983998 -3.81721 0
M  V30 39942 H 3692.38 -0.812052 -5.02278 0
M  V30 39943 H 3691.78 2.36704 -5.13797 0
M  V30 39944 H 3690.34 2.37349 -6.07049 0
M  V30 39945 N 3693.77 1.43557 -0.65031 0
M  V30 39946 C 3695.02 2.01065 -0.159867 0
M  V30 39947 C 3695.33 1.51889 1.23244 0
M  V30 39948 O 3696.54 2.01651 1.81794 0
M  V30 39949 C 3695 3.59132 -0.235003 0
M  V30 39950 C 3694.6 4.17302 -1.62982 0
M  V30 39951 C 3696.35 4.24038 0.197986 0
M  V30 39952 C 3694.25 5.67653 -1.65904 0
M  V30 39953 H 3693.18 0.751917 -0.0560031 0
M  V30 39954 H 3695.84 1.6456 -0.811919 0
M  V30 39955 H 3694.22 3.93025 0.484504 0
M  V30 39956 H 3695.39 3.94914 -2.37445 0
M  V30 39957 H 3693.71 3.64756 -2.00853 0
M  V30 39958 H 3696.3 5.34341 0.19596 0
M  V30 39959 H 3696.65 3.97749 1.22889 0
M  V30 39960 H 3697.18 3.95018 -0.469671 0
M  V30 39961 H 3693.92 5.98705 -2.66894 0
M  V30 39962 H 3693.44 5.92106 -0.957623 0
M  V30 39963 H 3695.12 6.31639 -1.40148 0
M  V30 39964 N 3695.25 0.392045 1.52646 0
M  V30 39965 C 3696.5 -0.190525 2.00798 0
M  V30 39966 C 3696.81 -1.47671 1.28268 0
M  V30 39967 O 3698.02 -2.1395 1.67146 0
M  V30 39968 C 3696.47 -0.390085 3.5778 0
M  V30 39969 C 3696.08 0.88301 4.39212 0
M  V30 39970 C 3697.83 -0.928872 4.14213 0
M  V30 39971 C 3695.73 0.651577 5.878 0
M  V30 39972 H 3694.66 -0.0749747 0.750263 0
M  V30 39973 H 3697.31 0.514866 1.76129 0
M  V30 39974 H 3695.7 -1.15739 3.78709 0
M  V30 39975 H 3696.87 1.65515 4.30048 0
M  V30 39976 H 3695.18 1.34695 3.94013 0
M  V30 39977 H 3697.78 -1.11778 5.22886 0
M  V30 39978 H 3698.12 -1.89872 3.70479 0
M  V30 39979 H 3698.66 -0.221065 3.97185 0
M  V30 39980 H 3695.4 1.5925 6.35861 0
M  V30 39981 H 3694.92 -0.0815732 5.99745 0
M  V30 39982 H 3696.6 0.28717 6.46362 0
M  V30 39983 N 3696.73 -1.57127 0.121948 0
M  V30 39984 C 3697.68 -2.16729 -0.844465 0
M  V30 39985 C 3698.67 -1.11732 -1.27328 0
M  V30 39986 O 3699.88 -1.3003 -1.24467 0
M  V30 39987 H 3696.25 -0.693646 -0.290447 0
M  V30 39988 H 3698.22 -2.96708 -0.317327 0
M  V30 39989 C 3696.97 -2.7836 -2.08354 0
M  V30 39990 H 3696.29 -3.58853 -1.76251 0
M  V30 39991 H 3697.73 -3.23597 -2.73972 0
M  V30 39992 C 3696.19 -1.75591 -2.87523 0
M  V30 39993 O 3696.72 -1.21107 -3.83009 0
M  V30 39994 N 3694.93 -1.45464 -2.51572 0
M  V30 39995 H 3694.48 -1.89961 -1.7399 0
M  V30 39996 H 3694.43 -0.769464 -3.04839 0
M  V30 39997 N 3698.21 0.151829 -1.56867 0
M  V30 39998 C 3699.62 0.504302 -1.51423 0
M  V30 39999 C 3699.82 1.83632 -0.829557 0
M  V30 40000 O 3698.88 2.49343 -0.398061 0
M  V30 40001 C 3700.19 0.519065 -2.96186 0
M  V30 40002 C 3701.74 0.604916 -3.07099 0
M  V30 40003 C 3702.21 0.650388 -4.53359 0
M  V30 40004 N 3703.71 0.712745 -4.57684 0
M  V30 40005 C 3704.44 0.768831 -5.68222 0
M  V30 40006 N 3703.94 0.784557 -6.88343 0
M  V30 40007 N 3705.73 0.809343 -5.56243 0
M  V30 40008 H 3697.88 -0.721351 -1.99776 0
M  V30 40009 H 3700.14 -0.262452 -0.910946 0
M  V30 40010 H 3699.85 -0.391376 -3.49516 0
M  V30 40011 H 3699.72 1.35869 -3.5188 0
M  V30 40012 H 3702.11 1.50578 -2.53792 0
M  V30 40013 H 3702.19 -0.261767 -2.54457 0
M  V30 40014 H 3701.84 -0.246297 -5.07302 0
M  V30 40015 H 3701.77 1.53349 -5.03777 0
M  V30 40016 H 3704.26 0.708085 -3.71207 0
M  V30 40017 H 3704.57 0.829067 -7.6834 0
M  V30 40018 H 3702.91 0.752512 -6.90914 0
M  V30 40019 H 3706.11 0.794193 -4.61314 0
M  V30 40020 H 3706.28 0.849588 -6.42406 0
M  V30 40021 N 3699.68 1.51872 0.421024 0
M  V30 40022 C 3700.93 1.65591 1.17079 0
M  V30 40023 C 3701.26 0.378895 1.90468 0
M  V30 40024 O 3700.54 -0.622226 1.84279 0
M  V30 40025 C 3700.82 2.87011 2.17478 0
M  V30 40026 C 3700.67 4.24732 1.48064 0
M  V30 40027 C 3701.99 3.03948 3.18282 0
M  V30 40028 H 3699.11 0.602628 0.424274 0
M  V30 40029 H 3701.75 1.84398 0.457965 0
M  V30 40030 H 3699.9 2.71107 2.78268 0
M  V30 40031 H 3701.58 4.52339 0.904846 0
M  V30 40032 H 3699.82 4.2668 0.782739 0
M  V30 40033 H 3700.49 5.05714 2.21263 0
M  V30 40034 H 3702.97 3.18671 2.67559 0
M  V30 40035 H 3701.84 3.9044 3.85808 0
M  V30 40036 H 3702.1 2.16735 3.85329 0
M  V30 40037 N 3701.16 -0.677513 1.42294 0
M  V30 40038 C 3702.58 -0.990312 1.2516 0
M  V30 40039 C 3702.78 -2.00912 0.153839 0
M  V30 40040 O 3701.83 -2.47976 -0.475824 0
M  V30 40041 C 3703.15 -1.49771 2.60748 0
M  V30 40042 C 3704.7 -1.61562 2.6808 0
M  V30 40043 C 3705.17 -2.15698 4.04028 0
M  V30 40044 N 3706.66 -2.23035 4.05968 0
M  V30 40045 C 3707.4 -2.65991 5.07973 0
M  V30 40046 N 3706.89 -3.08421 6.20362 0
M  V30 40047 N 3708.69 -2.65716 4.9533 0
M  V30 40048 H 3700.84 -0.00292089 2.124 0
M  V30 40049 H 3703.1 -0.0638234 0.945849 0
M  V30 40050 H 3702.81 -0.823612 3.4192 0
M  V30 40051 H 3702.68 -2.4769 2.84481 0
M  V30 40052 H 3705.07 -2.28078 1.87255 0
M  V30 40053 H 3705.15 -0.62139 2.48138 0
M  V30 40054 H 3704.79 -1.49792 4.85309 0
M  V30 40055 H 3704.72 -3.15907 4.2132 0
M  V30 40056 H 3707.21 -1.93116 3.2483 0
M  V30 40057 H 3707.53 -3.39877 6.94049 0
M  V30 40058 H 3705.87 -3.06285 6.23871 0
M  V30 40059 H 3709.06 -2.31929 4.06604 0
M  V30 40060 H 3709.23 -2.98874 5.7496 0
M  V30 40061 N 3702.64 -1.28421 -0.913554 0
M  V30 40062 C 3703.92 -1.06288 -1.64202 0
M  V30 40063 C 3704.3 0.397691 -2.0732 0
M  V30 40064 O 3703.65 1.3838 -1.81833 0
M  V30 40065 C 3703.86 -2.03768 -2.83337 0
M  V30 40066 C 3705.2 -2.33925 -3.54351 0
M  V30 40067 O 3706.23 -2.01853 -2.93485 0
M  V30 40068 O 3705.09 -2.8866 -4.64045 0
M  V30 40069 H 3702.18 -0.40623 -0.720351 0
M  V30 40070 H 3704.73 -1.39741 -0.962841 0
M  V30 40071 H 3703.5 -3.02207 -2.48569 0
M  V30 40072 H 3703.12 -1.70963 -3.58967 0
M  V30 40073 N 3704.12 1.12202 -1.10672 0
M  V30 40074 C 3705.07 2.18005 -0.757783 0
M  V30 40075 C 3706.04 1.63939 0.267032 0
M  V30 40076 O 3707.22 1.90242 0.145755 0
M  V30 40077 C 3704.36 3.44529 -0.19844 0
M  V30 40078 C 3703.47 4.12637 -1.27885 0
M  V30 40079 C 3702.61 5.26818 -0.680893 0
M  V30 40080 C 3701.65 5.86797 -1.74171 0
M  V30 40081 N 3700.78 6.92387 -1.16384 0
M  V30 40082 H 3705.62 2.47199 -1.66422 0
M  V30 40083 H 3703.16 1.21363 -0.831237 0
M  V30 40084 H 3705.12 4.16952 0.143765 0
M  V30 40085 H 3703.75 3.15744 0.671223 0
M  V30 40086 H 3702.8 3.38368 -1.73814 0
M  V30 40087 H 3704.11 4.53281 -2.08177 0
M  V30 40088 H 3703.27 6.06015 -0.288279 0
M  V30 40089 H 3702.01 4.87459 0.153435 0
M  V30 40090 H 3701.01 5.06285 -2.14372 0
M  V30 40091 H 3702.24 6.28226 -2.57893 0
M  V30 40092 H 3700.18 6.5506 -0.351014 0
M  V30 40093 H 3700.1 7.31642 -1.90356 0
M  V30 40094 H 3701.37 7.75406 -0.797851 0
M  V30 40095 N 3705.6 0.895838 1.29663 0
M  V30 40096 C 3706.53 0.387191 2.30267 0
M  V30 40097 C 3707.51 -0.535739 1.61443 0
M  V30 40098 O 3708.69 -0.447288 1.88979 0
M  V30 40099 C 3705.82 -0.389578 3.45108 0
M  V30 40100 C 3704.78 0.442573 4.25706 0
M  V30 40101 C 3704.1 -0.461459 5.32705 0
M  V30 40102 C 3705.4 1.69045 4.94187 0
M  V30 40103 H 3707.1 1.22791 2.73062 0
M  V30 40104 H 3704.64 0.591892 1.31273 0
M  V30 40105 H 3706.6 -0.75613 4.14561 0
M  V30 40106 H 3705.32 -1.26404 3.01147 0
M  V30 40107 H 3703.98 0.791406 3.57956 0
M  V30 40108 H 3703.63 -1.33395 4.84989 0
M  V30 40109 H 3703.33 0.0916039 5.87529 0
M  V30 40110 H 3704.85 -0.824288 6.05011 0
M  V30 40111 H 3706.26 1.39386 5.56098 0
M  V30 40112 H 3704.66 2.18454 5.58926 0
M  V30 40113 H 3705.73 2.42866 4.19695 0
M  V30 40114 N 3707.07 -1.43211 0.657914 0
M  V30 40115 C 3708.3 -2.06106 0.181108 0
M  V30 40116 C 3708.72 -1.49341 -1.15511 0
M  V30 40117 O 3708.07 -0.626548 -1.71408 0
M  V30 40118 C 3708.13 -3.6139 0.0890879 0
M  V30 40119 O 3707.85 -4.16046 1.37249 0
M  V30 40120 C 3709.35 -4.4137 -0.413235 0
M  V30 40121 H 3706.57 -0.664653 0.0920694 0
M  V30 40122 H 3709.11 -1.83636 0.899888 0
M  V30 40123 H 3707.27 -3.83029 -0.580278 0
M  V30 40124 H 3707.68 -5.09759 1.23476 0
M  V30 40125 H 3709.15 -5.50349 -0.426566 0
M  V30 40126 H 3709.63 -4.14734 -1.44542 0
M  V30 40127 H 3710.24 -4.24711 0.223802 0
M  V30 40128 N 3708.55 -0.400135 -1.52436 0
M  V30 40129 C 3709.8 0.178217 -2.01313 0
M  V30 40130 C 3710.12 1.46409 -1.288 0
M  V30 40131 O 3709.39 1.91535 -0.411245 0
M  V30 40132 H 3707.97 0.0688482 -0.74382 0
M  V30 40133 H 3710.63 -0.534313 -1.87433 0
M  V30 40134 H 3709.73 0.380739 -3.09769 0
M  V30 40135 N 3710.03 1.57061 -0.13028 0
M  V30 40136 C 3711.45 1.57988 0.226252 0
M  V30 40137 C 3711.65 1.14366 1.659 0
M  V30 40138 O 3710.7 0.836233 2.38251 0
M  V30 40139 C 3712.02 3.00695 -0.0173175 0
M  V30 40140 C 3713.56 3.12964 0.0477022 0
M  V30 40141 C 3714.04 4.57691 -0.168319 0
M  V30 40142 N 3715.53 4.63058 -0.114672 0
M  V30 40143 C 3716.26 5.72826 -0.256563 0
M  V30 40144 N 3715.76 6.91303 -0.455251 0
M  V30 40145 N 3717.55 5.6176 -0.195342 0
M  V30 40146 H 3709.7 1.83714 -1.06597 0
M  V30 40147 H 3711.97 0.849559 -0.420658 0
M  V30 40148 H 3711.67 3.36938 -1.00825 0
M  V30 40149 H 3711.55 3.70466 0.709564 0
M  V30 40150 H 3713.93 2.76572 1.02917 0
M  V30 40151 H 3714.02 2.45713 -0.711241 0
M  V30 40152 H 3713.66 4.94783 -1.14681 0
M  V30 40153 H 3713.59 5.23046 0.610747 0
M  V30 40154 H 3716.08 3.77884 0.0349208 0
M  V30 40155 H 3716.39 7.70811 -0.554079 0
M  V30 40156 H 3714.74 6.93261 -0.491366 0
M  V30 40157 H 3717.93 4.68082 -0.0410008 0
M  V30 40158 H 3718.1 6.47261 -0.309361 0
M  V30 40159 N 3711.51 -0.143508 1.56945 0
M  V30 40160 C 3712.79 -0.884423 1.74463 0
M  V30 40161 C 3713.17 -1.99183 0.699236 0
M  V30 40162 O 3712.51 -2.26763 -0.281227 0
M  V30 40163 C 3712.72 -1.42367 3.18642 0
M  V30 40164 C 3714.07 -1.88571 3.80429 0
M  V30 40165 O 3715.1 -1.52101 3.22093 0
M  V30 40166 O 3713.96 -2.55838 4.82917 0
M  V30 40167 H 3711.05 -0.418208 0.713464 0
M  V30 40168 H 3713.6 -0.12916 1.69208 0
M  V30 40169 H 3712.37 -0.627988 3.86228 0
M  V30 40170 H 3711.99 -2.24234 3.28336 0
M  V30 40171 N 3712.99 -1.52093 -0.412964 0
M  V30 40172 C 3714.23 -1.65964 -1.16027 0
M  V30 40173 C 3714.56 -0.387685 -1.90597 0
M  V30 40174 O 3713.82 0.62921 -1.85309 0
M  V30 40175 C 3714.12 -2.82971 -2.18316 0
M  V30 40176 C 3713.78 -4.21337 -1.60581 0
M  V30 40177 C 3712.44 -4.58973 -1.4456 0
M  V30 40178 C 3714.8 -5.07578 -1.18379 0
M  V30 40179 C 3712.12 -5.80532 -0.848482 0
M  V30 40180 C 3714.48 -6.2974 -0.600874 0
M  V30 40181 C 3713.14 -6.66128 -0.427763 0
M  V30 40182 H 3712.41 -0.607305 -0.424573 0
M  V30 40183 H 3715.06 -1.86186 -0.447995 0
M  V30 40184 H 3713.36 -2.57068 -2.95674 0
M  V30 40185 H 3715.06 -2.909 -2.76004 0
M  V30 40186 H 3711.65 -3.91676 -1.74033 0
M  V30 40187 H 3715.83 -4.79089 -1.29568 0
M  V30 40188 H 3711.09 -6.07353 -0.70234 0
M  V30 40189 H 3715.26 -6.95894 -0.265461 0
M  V30 40190 H 3712.89 -7.60191 0.037035 0
M  V30 40191 N 3714.47 0.669957 -1.42651 0
M  V30 40192 C 3715.69 1.46312 -1.46995 0
M  V30 40193 C 3716.12 1.87912 -0.0840986 0
M  V30 40194 O 3715.47 1.5631 0.918527 0
M  V30 40195 C 3715.52 2.68536 -2.40668 0
M  V30 40196 O 3714.63 3.66985 -1.88138 0
M  V30 40197 H 3713.97 0.439363 -0.497852 0
M  V30 40198 H 3716.5 0.821315 -1.87392 0
M  V30 40199 H 3716.51 3.1655 -2.57411 0
M  V30 40200 H 3715.18 2.37598 -3.4135 0
M  V30 40201 H 3713.76 3.26041 -1.80974 0
M  V30 40202 N 3715.94 1.28904 0.90673 0
M  V30 40203 C 3716.89 1.10065 1.99674 0
M  V30 40204 C 3717.88 0.0221725 1.60885 0
M  V30 40205 O 3719.07 0.243101 1.75323 0
M  V30 40206 C 3716.2 0.771882 3.3451 0
M  V30 40207 C 3715.28 1.88955 3.7968 0
M  V30 40208 N 3715.68 3.13214 3.97153 0
M  V30 40209 C 3713.97 1.78099 4.08897 0
M  V30 40210 C 3714.67 3.86086 4.35101 0
M  V30 40211 N 3713.65 3.13981 4.43753 0
M  V30 40212 H 3717.45 2.04337 2.11243 0
M  V30 40213 H 3714.97 1.19926 1.09506 0
M  V30 40214 H 3716.96 0.617981 4.12294 0
M  V30 40215 H 3715.62 -0.162993 3.24291 0
M  V30 40216 H 3716.63 3.48747 3.82878 0
M  V30 40217 H 3713.31 0.918363 4.07274 0
M  V30 40218 H 3714.7 4.92986 4.56524 0
M  V30 40219 N 3717.42 -1.11614 1.11266 0
M  V30 40220 C 3718.7 -1.79712 0.772205 0
M  V30 40221 C 3719.08 -1.97704 -0.74002 0
M  V30 40222 O 3718.43 -1.56027 -1.66936 0
M  V30 40223 C 3718.64 -3.13518 1.53321 0
M  V30 40224 C 3719.98 -3.88586 1.71131 0
M  V30 40225 O 3721.01 -3.23201 1.49731 0
M  V30 40226 O 3719.87 -5.05911 2.06679 0
M  V30 40227 H 3716.96 -0.778315 0.279562 0
M  V30 40228 H 3719.51 -1.18373 1.21598 0
M  V30 40229 H 3718.28 -2.95766 2.56199 0
M  V30 40230 H 3717.9 -3.8257 1.08287 0
M  V30 40231 N 3718.9 -0.902701 -1.29186 0
M  V30 40232 C 3720.18 -0.449529 -1.90364 0
M  V30 40233 C 3720.56 1.07102 -1.81913 0
M  V30 40234 O 3719.9 1.91421 -1.24782 0
M  V30 40235 C 3720.11 -0.967477 -3.35322 0
M  V30 40236 C 3721.46 -1.01297 -4.1234 0
M  V30 40237 O 3722.49 -0.915354 -3.44238 0
M  V30 40238 O 3721.35 -1.16003 -5.34046 0
M  V30 40239 H 3718.44 -0.140642 -0.814953 0
M  V30 40240 H 3720.99 -0.992763 -1.37631 0
M  V30 40241 H 3719.76 -2.01146 -3.35643 0
M  V30 40242 H 3719.38 -0.404427 -3.95538 0
M  V30 40243 N 3720.38 1.4286 -0.6655 0
M  V30 40244 C 3721.61 2.06007 -0.192036 0
M  V30 40245 C 3722.02 1.49951 1.14717 0
M  V30 40246 O 3721.38 0.635629 1.71073 0
M  V30 40247 C 3721.43 3.61338 -0.108252 0
M  V30 40248 O 3721.15 4.15312 -1.39453 0
M  V30 40249 C 3722.65 4.41583 0.389823 0
M  V30 40250 H 3719.87 0.664156 -0.0955929 0
M  V30 40251 H 3722.41 1.83156 -0.909614 0
M  V30 40252 H 3720.57 3.83332 0.559956 0
M  V30 40253 H 3720.98 5.09097 -1.26177 0
M  V30 40254 H 3722.46 5.50568 0.397374 0
M  V30 40255 H 3722.93 4.15495 1.42341 0
M  V30 40256 H 3723.54 4.24586 -0.246322 0
M  V30 40257 N 3721.86 0.408213 1.52221 0
M  V30 40258 C 3722.79 -0.408828 2.29893 0
M  V30 40259 C 3723.77 -1.04693 1.34065 0
M  V30 40260 O 3724.95 -1.05612 1.62972 0
M  V30 40261 C 3722.08 -1.52623 3.11967 0
M  V30 40262 C 3721.04 -1.01318 4.15835 0
M  V30 40263 C 3720.36 -2.22412 4.86248 0
M  V30 40264 C 3721.66 -0.0678655 5.22256 0
M  V30 40265 H 3723.36 0.239283 2.98442 0
M  V30 40266 H 3720.9 0.116521 1.43528 0
M  V30 40267 H 3722.85 -2.10479 3.6507 0
M  V30 40268 H 3721.58 -2.20221 2.41185 0
M  V30 40269 H 3720.24 -0.457036 3.6374 0
M  V30 40270 H 3719.89 -2.88562 4.11996 0
M  V30 40271 H 3719.59 -1.88736 5.56464 0
M  V30 40272 H 3721.11 -2.80875 5.42164 0
M  V30 40273 H 3722.52 -0.555195 5.70605 0
M  V30 40274 H 3720.92 0.180039 5.9983 0
M  V30 40275 H 3721.99 0.877683 4.76891 0
M  V30 40276 N 3723.33 -1.56989 0.138607 0
M  V30 40277 C 3724.61 -1.87436 -0.559206 0
M  V30 40278 C 3724.99 -1.04315 -1.83525 0
M  V30 40279 O 3724.34 -0.127571 -2.28144 0
M  V30 40280 C 3724.55 -3.38919 -0.83276 0
M  V30 40281 C 3725.9 -4.07954 -1.17723 0
M  V30 40282 O 3726.92 -3.4405 -0.922389 0
M  V30 40283 O 3725.78 -5.20793 -1.65641 0
M  V30 40284 H 3722.87 -0.776595 -0.284305 0
M  V30 40285 H 3725.42 -1.688 0.174587 0
M  V30 40286 H 3724.19 -3.91236 0.0706742 0
M  V30 40287 H 3723.81 -3.63054 -1.62103 0
M  V30 40288 N 3724.81 0.135183 -1.57019 0
M  V30 40289 C 3726.06 0.847038 -1.84264 0
M  V30 40290 C 3726.39 1.80281 -0.721977 0
M  V30 40291 O 3725.67 1.92567 0.273501 0
M  V30 40292 C 3725.95 1.61117 -3.22046 0
M  V30 40293 C 3725.8 0.676092 -4.4469 0
M  V30 40294 C 3727.12 2.57102 -3.57193 0
M  V30 40295 H 3724.24 0.306484 -0.670251 0
M  V30 40296 H 3726.88 0.11181 -1.89671 0
M  V30 40297 H 3725.03 2.23793 -3.17567 0
M  V30 40298 H 3726.7 0.0594198 -4.61262 0
M  V30 40299 H 3724.95 -0.0135289 -4.33798 0
M  V30 40300 H 3725.62 1.24705 -5.37729 0
M  V30 40301 H 3728.09 2.04539 -3.62358 0
M  V30 40302 H 3726.97 3.07609 -4.54607 0
M  V30 40303 H 3727.23 3.39014 -2.83764 0
M  V30 40304 N 3726.29 1.5231 0.404892 0
M  V30 40305 C 3727.7 1.58694 0.983525 0
M  V30 40306 C 3728.05 0.430026 1.91429 0
M  V30 40307 O 3727.18 -0.449051 2.1169 0
M  V30 40308 C 3727.77 2.8762 1.79054 0
M  V30 40309 C 3726.33 2.96468 2.31913 0
M  V30 40310 C 3725.48 2.53669 1.12014 0
M  V30 40311 H 3728.43 1.57618 0.18498 0
M  V30 40312 H 3728.45 2.73211 2.64832 0
M  V30 40313 H 3727.96 3.71803 1.11285 0
M  V30 40314 H 3726.06 2.16788 3.03041 0
M  V30 40315 H 3726.18 4.00795 2.62488 0
M  V30 40316 H 3724.54 2.07616 1.47538 0
M  V30 40317 H 3725.32 3.4023 0.458051 0
M  V30 40318 N 3727.77 -0.662382 1.43004 0
M  V30 40319 C 3729 -1.45032 1.47557 0
M  V30 40320 C 3729.41 -1.88582 0.0906414 0
M  V30 40321 O 3728.77 -1.58921 -0.897243 0
M  V30 40322 C 3728.82 -2.69133 2.4135 0
M  V30 40323 O 3728.54 -2.27407 3.74457 0
M  V30 40324 C 3730.04 -3.62579 2.55051 0
M  V30 40325 H 3727.26 -0.445851 0.501455 0
M  V30 40326 H 3729.81 -0.812846 1.87651 0
M  V30 40327 H 3727.96 -3.29041 2.04476 0
M  V30 40328 H 3728.37 -3.07635 4.24807 0
M  V30 40329 H 3729.85 -4.46347 3.24774 0
M  V30 40330 H 3730.33 -4.09315 1.59242 0
M  V30 40331 H 3730.93 -3.08557 2.92698 0
M  V30 40332 N 3729.25 -1.29383 -0.899882 0
M  V30 40333 C 3730.18 -1.10303 -2.00912 0
M  V30 40334 C 3731.19 -0.0505966 -1.62721 0
M  V30 40335 O 3732.38 -0.295099 -1.76044 0
M  V30 40336 C 3729.48 -0.656954 -3.32472 0
M  V30 40337 C 3728.65 -1.78787 -3.99192 0
M  V30 40338 C 3727.71 -1.33283 -5.0904 0
M  V30 40339 O 3726.74 -2.03752 -5.31483 0
M  V30 40340 N 3727.94 -0.203621 -5.80143 0
M  V30 40341 H 3730.71 -2.05835 -2.17834 0
M  V30 40342 H 3728.27 -1.2132 -1.07205 0
M  V30 40343 H 3730.26 -0.335854 -4.03304 0
M  V30 40344 H 3728.83 0.205904 -3.11921 0
M  V30 40345 H 3728.05 -2.27786 -3.21725 0
M  V30 40346 H 3729.34 -2.54614 -4.4051 0
M  V30 40347 H 3728.73 0.383905 -5.64396 0
M  V30 40348 H 3727.29 0.0581137 -6.51774 0
M  V30 40349 N 3730.72 1.11022 -1.11856 0
M  V30 40350 C 3731.97 1.83124 -0.871395 0
M  V30 40351 C 3732.3 1.84653 0.601404 0
M  V30 40352 O 3731.58 1.30276 1.44425 0
M  V30 40353 C 3731.86 3.30091 -1.43916 0
M  V30 40354 C 3731.71 3.36931 -2.97989 0
M  V30 40355 C 3733.03 4.26294 -1.09369 0
M  V30 40356 H 3730.15 0.664862 -0.318006 0
M  V30 40357 H 3732.79 1.30157 -1.38416 0
M  V30 40358 H 3730.94 3.75328 -1.00304 0
M  V30 40359 H 3732.62 3.0022 -3.50236 0
M  V30 40360 H 3730.86 2.77017 -3.33832 0
M  V30 40361 H 3731.53 4.40392 -3.32805 0
M  V30 40362 H 3734.01 3.89259 -1.47025 0
M  V30 40363 H 3732.88 5.27502 -1.51766 0
M  V30 40364 H 3733.14 4.421 -0.00504141 0
M  V30 40365 N 3732.2 0.90954 1.28706 0
M  V30 40366 C 3733.11 0.399668 2.31171 0
M  V30 40367 C 3734.13 -0.510552 1.66341 0
M  V30 40368 O 3735.3 -0.397758 1.97433 0
M  V30 40369 C 3732.37 -0.355792 3.4487 0
M  V30 40370 C 3731.43 0.587139 4.25266 0
M  V30 40371 C 3730.66 -0.132362 5.33536 0
M  V30 40372 O 3730.89 -1.35477 5.54078 0
M  V30 40373 O 3729.82 0.530168 5.99561 0
M  V30 40374 H 3733.65 1.25 2.76783 0
M  V30 40375 H 3731.23 0.674209 1.33322 0
M  V30 40376 H 3733.11 -0.782619 4.14069 0
M  V30 40377 H 3731.79 -1.18202 3.01347 0
M  V30 40378 H 3730.7 1.06328 3.58671 0
M  V30 40379 H 3732.03 1.38006 4.72456 0
M  V30 40380 N 3733.68 -1.42505 0.673067 0
M  V30 40381 C 3734.61 -2.33499 0.00759571 0
M  V30 40382 C 3735.59 -1.50582 -0.791134 0
M  V30 40383 O 3736.78 -1.7919 -0.748636 0
M  V30 40384 C 3733.91 -3.3418 -0.945579 0
M  V30 40385 C 3732.86 -4.27236 -0.255565 0
M  V30 40386 C 3732.19 -5.18111 -1.32156 0
M  V30 40387 C 3733.49 -5.15098 0.864345 0
M  V30 40388 H 3735.18 -2.89395 0.767538 0
M  V30 40389 H 3732.73 -1.39151 0.370548 0
M  V30 40390 H 3734.68 -3.96747 -1.42019 0
M  V30 40391 H 3733.4 -2.76584 -1.73692 0
M  V30 40392 H 3732.06 -3.66061 0.198794 0
M  V30 40393 H 3731.71 -4.56843 -2.10484 0
M  V30 40394 H 3731.41 -5.81198 -0.865006 0
M  V30 40395 H 3732.93 -5.83554 -1.79714 0
M  V30 40396 H 3734.35 -5.71362 0.471025 0
M  V30 40397 H 3732.75 -5.8701 1.24658 0
M  V30 40398 H 3733.82 -4.53602 1.71386 0
M  V30 40399 N 3735.16 -0.41628 -1.52003 0
M  V30 40400 C 3736.09 0.39663 -2.30107 0
M  V30 40401 C 3737.07 1.03981 -1.34618 0
M  V30 40402 O 3738.25 1.04746 -1.6353 0
M  V30 40403 C 3735.38 1.50967 -3.12772 0
M  V30 40404 C 3734.34 0.991117 -4.16366 0
M  V30 40405 C 3733.66 2.1983 -4.87421 0
M  V30 40406 C 3734.96 0.0401681 -5.22285 0
M  V30 40407 H 3736.66 -0.255106 -2.98311 0
M  V30 40408 H 3734.2 -0.124131 -1.43464 0
M  V30 40409 H 3736.16 2.0854 -3.66182 0
M  V30 40410 H 3734.88 2.18939 -2.4235 0
M  V30 40411 H 3733.54 0.437739 -3.63977 0
M  V30 40412 H 3733.19 2.86373 -4.13521 0
M  V30 40413 H 3732.89 1.85782 -5.57457 0
M  V30 40414 H 3734.41 2.77996 -5.43646 0
M  V30 40415 H 3735.83 0.524926 -5.70892 0
M  V30 40416 H 3734.22 -0.211847 -5.99726 0
M  V30 40417 H 3735.29 -0.902961 -4.76419 0
M  V30 40418 N 3736.64 1.56914 -0.146931 0
M  V30 40419 C 3737.89 1.95297 0.50416 0
M  V30 40420 C 3738.2 1.03429 1.66017 0
M  V30 40421 O 3739.4 1.31392 2.37589 0
M  V30 40422 C 3737.86 3.47182 0.948287 0
M  V30 40423 C 3737.47 4.47635 -0.180789 0
M  V30 40424 C 3739.21 3.94433 1.56917 0
M  V30 40425 C 3737.12 5.90729 0.281603 0
M  V30 40426 H 3736.05 0.729115 0.192114 0
M  V30 40427 H 3738.7 1.82037 -0.231264 0
M  V30 40428 H 3737.08 3.55775 1.73897 0
M  V30 40429 H 3738.26 4.50737 -0.957724 0
M  V30 40430 H 3736.57 4.10301 -0.710079 0
M  V30 40431 H 3739.17 4.98779 1.92675 0
M  V30 40432 H 3739.51 3.35981 2.4581 0
M  V30 40433 H 3740.04 3.88757 0.843388 0
M  V30 40434 H 3736.78 6.53 -0.571954 0
M  V30 40435 H 3736.3 5.90987 1.02442 0
M  V30 40436 H 3737.98 6.42827 0.733633 0
M  V30 40437 N 3738.11 -0.126854 1.57089 0
M  V30 40438 C 3739.06 -1.15596 1.99766 0
M  V30 40439 C 3740.03 -1.41585 0.868493 0
M  V30 40440 O 3741.22 -1.53583 1.13212 0
M  V30 40441 C 3738.36 -2.47939 2.40043 0
M  V30 40442 C 3737.47 -2.28952 3.6634 0
M  V30 40443 C 3736.6 -3.5447 3.95632 0
M  V30 40444 C 3735.64 -3.30607 5.15137 0
M  V30 40445 N 3734.78 -4.48307 5.40338 0
M  V30 40446 H 3739.62 -0.785027 2.87474 0
M  V30 40447 H 3737.16 -0.376144 1.4221 0
M  V30 40448 H 3739.12 -3.25132 2.61429 0
M  V30 40449 H 3737.75 -2.8294 1.55387 0
M  V30 40450 H 3736.8 -1.42714 3.52614 0
M  V30 40451 H 3738.11 -2.0729 4.53687 0
M  V30 40452 H 3737.26 -4.40085 4.17625 0
M  V30 40453 H 3736 -3.79155 3.06745 0
M  V30 40454 H 3735.01 -2.43382 4.92996 0
M  V30 40455 H 3736.23 -3.073 6.05594 0
M  V30 40456 H 3734.18 -4.73128 4.54408 0
M  V30 40457 H 3734.1 -4.29722 6.21993 0
M  V30 40458 H 3735.36 -5.35078 5.66844 0
M  V30 40459 N 3739.59 -1.52523 -0.396809 0
M  V30 40460 C 3740.52 -1.72989 -1.50358 0
M  V30 40461 C 3741.54 -0.610316 -1.50927 0
M  V30 40462 O 3742.73 -0.885807 -1.5497 0
M  V30 40463 C 3739.83 -1.7664 -2.89226 0
M  V30 40464 C 3739 -3.05829 -3.1271 0
M  V30 40465 C 3738.06 -3.0113 -4.31517 0
M  V30 40466 O 3737.08 -3.75011 -4.282 0
M  V30 40467 N 3738.29 -2.19773 -5.3729 0
M  V30 40468 H 3741.05 -2.68477 -1.33191 0
M  V30 40469 H 3738.61 -1.50913 -0.586243 0
M  V30 40470 H 3740.6 -1.71012 -3.66793 0
M  V30 40471 H 3739.17 -0.88572 -2.9979 0
M  V30 40472 H 3738.39 -3.25008 -2.23077 0
M  V30 40473 H 3739.68 -3.91267 -3.2525 0
M  V30 40474 H 3739.08 -1.592 -5.42837 0
M  V30 40475 H 3737.64 -2.19992 -6.13553 0
M  V30 40476 N 3741.07 0.654789 -1.43354 0
M  V30 40477 C 3742.03 1.74957 -1.48063 0
M  V30 40478 C 3743.03 1.5659 -0.36554 0
M  V30 40479 O 3744.22 1.62516 -0.627222 0
M  V30 40480 C 3741.36 3.13813 -1.3317 0
M  V30 40481 H 3742.55 1.72163 -2.4556 0
M  V30 40482 H 3740.1 0.866298 -1.30096 0
M  V30 40483 H 3740.84 3.2222 -0.366746 0
M  V30 40484 H 3740.62 3.28549 -2.14004 0
M  V30 40485 H 3742.11 3.93648 -1.39394 0
M  V30 40486 N 3742.55 1.29858 0.893007 0
M  V30 40487 C 3743.78 1.21122 1.67741 0
M  V30 40488 C 3744.19 -0.227165 1.87428 0
M  V30 40489 O 3743.55 -1.15125 1.41607 0
M  V30 40490 C 3743.6 1.92754 3.05823 0
M  V30 40491 O 3743.32 3.30976 2.8703 0
M  V30 40492 C 3744.82 1.90577 4.00244 0
M  V30 40493 H 3742.04 0.419509 0.523692 0
M  V30 40494 H 3744.59 1.71346 1.11627 0
M  V30 40495 H 3742.74 1.46348 3.58693 0
M  V30 40496 H 3743.16 3.67146 3.74572 0
M  V30 40497 H 3744.63 2.45251 4.94526 0
M  V30 40498 H 3745.11 0.882829 4.30236 0
M  V30 40499 H 3745.71 2.36757 3.53307 0
M  V30 40500 N 3744.03 -1.10427 1.12443 0
M  V30 40501 C 3745.25 -1.86713 0.902947 0
M  V30 40502 C 3745.68 -1.80108 -0.542482 0
M  V30 40503 O 3745.04 -1.17107 -1.38404 0
M  V30 40504 C 3745.08 -3.33048 1.38244 0
M  V30 40505 O 3744.19 -4.08567 0.560949 0
M  V30 40506 H 3743.53 -0.579359 0.324407 0
M  V30 40507 H 3746.06 -1.39516 1.49654 0
M  V30 40508 H 3746.07 -3.83898 1.38155 0
M  V30 40509 H 3744.74 -3.37172 2.43492 0
M  V30 40510 H 3743.32 -3.6756 0.628836 0
M  V30 40511 N 3745.51 -0.916353 -1.28221 0
M  V30 40512 C 3746.46 -0.377868 -2.24847 0
M  V30 40513 C 3747.44 0.51148 -1.52554 0
M  V30 40514 O 3748.63 0.350777 -1.73489 0
M  V30 40515 C 3745.76 0.378575 -3.41206 0
M  V30 40516 C 3744.85 -0.526641 -4.20817 0
M  V30 40517 N 3745.24 -1.6414 -4.78426 0
M  V30 40518 C 3743.54 -0.327515 -4.44796 0
M  V30 40519 C 3744.24 -2.20348 -5.38351 0
M  V30 40520 N 3743.21 -1.49443 -5.22654 0
M  V30 40521 H 3747.01 -1.22919 -2.66961 0
M  V30 40522 H 3744.53 -0.769307 -1.43022 0
M  V30 40523 H 3746.53 0.781211 -4.09515 0
M  V30 40524 H 3745.19 1.22696 -3.00626 0
M  V30 40525 H 3746.2 -2.02395 -4.76714 0
M  V30 40526 H 3742.87 0.481141 -4.14718 0
M  V30 40527 H 3744.26 -3.14137 -5.93943 0
M  V30 40528 N 3746.98 1.42146 -0.680615 0
M  V30 40529 C 3747.89 2.34599 -0.00599697 0
M  V30 40530 C 3748.91 1.55412 0.7825 0
M  V30 40531 O 3750.09 1.87956 0.723491 0
M  V30 40532 C 3747.15 3.34006 0.929581 0
M  V30 40533 C 3746.21 4.29088 0.134966 0
M  V30 40534 C 3745.44 5.23745 1.02598 0
M  V30 40535 O 3745.67 5.23479 2.26552 0
M  V30 40536 O 3744.6 5.99954 0.483669 0
M  V30 40537 H 3748.43 2.93837 -0.767704 0
M  V30 40538 H 3746.01 1.42747 -0.440874 0
M  V30 40539 H 3747.89 3.95059 1.4665 0
M  V30 40540 H 3746.57 2.77233 1.67104 0
M  V30 40541 H 3745.48 3.7143 -0.446195 0
M  V30 40542 H 3746.81 4.88917 -0.567503 0
M  V30 40543 N 3748.46 0.424336 1.5178 0
M  V30 40544 C 3749.41 -0.408153 2.28991 0
M  V30 40545 C 3750.4 -1.03244 1.34302 0
M  V30 40546 O 3751.61 -0.968893 1.51699 0
M  V30 40547 H 3747.98 -0.150422 0.736802 0
M  V30 40548 H 3749.96 0.264074 2.97229 0
M  V30 40549 C 3748.7 -1.50419 3.1348 0
M  V30 40550 H 3748.03 -1.03317 3.8622 0
M  V30 40551 H 3749.47 -2.0602 3.70583 0
M  V30 40552 C 3747.93 -2.48014 2.28014 0
M  V30 40553 O 3748.46 -3.52253 1.93082 0
M  V30 40554 N 3746.66 -2.18588 1.91488 0
M  V30 40555 H 3746.21 -1.3385 2.20095 0
M  V30 40556 H 3746.17 -2.84131 1.346 0
M  V30 40557 N 3749.94 -1.56833 0.15525 0
M  V30 40558 C 3750.87 -2.20185 -0.77722 0
M  V30 40559 C 3751.85 -1.15256 -1.251 0
M  V30 40560 O 3753.04 -1.43629 -1.30707 0
M  V30 40561 C 3750.17 -2.82996 -2.01321 0
M  V30 40562 C 3749.12 -3.93825 -1.6759 0
M  V30 40563 C 3748.45 -4.43609 -2.98521 0
M  V30 40564 C 3749.75 -5.14201 -0.916212 0
M  V30 40565 H 3751.44 -2.98361 -0.249205 0
M  V30 40566 H 3748.99 -1.43512 -0.118423 0
M  V30 40567 H 3750.94 -3.25985 -2.67043 0
M  V30 40568 H 3749.66 -2.02164 -2.56509 0
M  V30 40569 H 3748.32 -3.51467 -1.04244 0
M  V30 40570 H 3747.97 -3.59589 -3.51717 0
M  V30 40571 H 3747.67 -5.18367 -2.76711 0
M  V30 40572 H 3749.19 -4.89274 -3.65299 0
M  V30 40573 H 3750.61 -5.53983 -1.47568 0
M  V30 40574 H 3749 -5.94774 -0.797751 0
M  V30 40575 H 3750.07 -4.84816 0.0905203 0
M  V30 40576 N 3751.42 0.118521 -1.57154 0
M  V30 40577 C 3752.66 0.832109 -1.86696 0
M  V30 40578 C 3753.02 1.77028 -0.743298 0
M  V30 40579 O 3754.22 2.52547 -0.920501 0
M  V30 40580 C 3752.49 1.56188 -3.21465 0
M  V30 40581 S 3754.05 2.31698 -3.72641 0
M  V30 40582 H 3750.87 0.277711 -0.654521 0
M  V30 40583 H 3753.47 0.0904349 -1.95291 0
M  V30 40584 H 3752.18 0.864648 -4.01188 0
M  V30 40585 H 3751.71 2.34392 -3.15949 0
M  V30 40586 H 3753.72 3.57427 -3.44181 0
M  V30 40587 N 3752.9 1.52731 0.388715 0
M  V30 40588 C 3753.83 1.73784 1.49438 0
M  V30 40589 C 3754.84 0.618311 1.50601 0
M  V30 40590 O 3756.03 0.894013 1.54498 0
M  V30 40591 C 3753.13 1.78171 2.88285 0
M  V30 40592 C 3752.3 3.07483 3.11083 0
M  V30 40593 C 3751.36 3.03414 4.29914 0
M  V30 40594 O 3750.39 3.77277 4.26205 0
M  V30 40595 N 3751.59 2.22619 5.36117 0
M  V30 40596 H 3754.35 2.6918 1.31766 0
M  V30 40597 H 3751.92 1.51222 0.578231 0
M  V30 40598 H 3753.91 1.72955 3.65881 0
M  V30 40599 H 3752.48 0.901606 2.99316 0
M  V30 40600 H 3751.7 3.26187 2.2135 0
M  V30 40601 H 3752.99 3.92986 3.23171 0
M  V30 40602 H 3752.38 1.62076 5.41985 0
M  V30 40603 H 3750.94 2.23242 6.12377 0
M  V30 40604 N 3754.37 -0.647178 1.43699 0
M  V30 40605 C 3755.61 -1.41873 1.47144 0
M  V30 40606 C 3755.98 -1.91764 0.0952586 0
M  V30 40607 O 3757.18 -2.688 0.00439277 0
M  V30 40608 C 3755.45 -2.56423 2.48961 0
M  V30 40609 S 3757.01 -3.44856 2.71329 0
M  V30 40610 H 3753.83 -0.484209 0.520637 0
M  V30 40611 H 3756.43 -0.750788 1.80509 0
M  V30 40612 H 3755.13 -2.18055 3.47678 0
M  V30 40613 H 3754.66 -3.28062 2.17115 0
M  V30 40614 H 3756.68 -4.53351 2.01712 0
M  V30 40615 N 3755.85 -1.3033 -0.886108 0
M  V30 40616 C 3757.08 -1.21833 -1.66854 0
M  V30 40617 C 3757.49 0.221441 -1.879 0
M  V30 40618 O 3756.83 1.15839 -1.42573 0
M  V30 40619 C 3756.9 -1.87505 -3.06728 0
M  V30 40620 C 3756.56 -3.3683 -3.0886 0
M  V30 40621 C 3757.56 -4.32841 -2.88001 0
M  V30 40622 C 3755.24 -3.78259 -3.30493 0
M  V30 40623 C 3757.24 -5.68255 -2.8873 0
M  V30 40624 C 3754.92 -5.1379 -3.30852 0
M  V30 40625 C 3755.92 -6.08599 -3.09995 0
M  V30 40626 O 3755.61 -7.41654 -3.10168 0
M  V30 40627 H 3755.34 -0.422795 -0.527466 0
M  V30 40628 H 3757.89 -1.7247 -1.11549 0
M  V30 40629 H 3756.12 -1.31396 -3.63692 0
M  V30 40630 H 3757.81 -1.73142 -3.67119 0
M  V30 40631 H 3758.58 -4.02166 -2.71085 0
M  V30 40632 H 3754.46 -3.04908 -3.45763 0
M  V30 40633 H 3758 -6.42231 -2.72369 0
M  V30 40634 H 3753.9 -5.44106 -3.47302 0
M  V30 40635 H 3754.67 -7.50629 -3.26341 0
M  V30 40636 N 3757.33 1.0983 -1.13028 0
M  V30 40637 C 3758.58 1.8129 -0.884124 0
M  V30 40638 C 3758.89 1.8644 0.591576 0
M  V30 40639 O 3760.1 2.54167 0.954527 0
M  V30 40640 C 3758.55 3.25659 -1.53213 0
M  V30 40641 C 3758.16 3.28788 -3.04306 0
M  V30 40642 C 3759.91 4.01904 -1.36651 0
M  V30 40643 C 3757.81 4.67655 -3.62012 0
M  V30 40644 H 3756.74 0.679348 -0.327113 0
M  V30 40645 H 3759.39 1.23467 -1.3575 0
M  V30 40646 H 3757.78 3.83518 -0.986421 0
M  V30 40647 H 3758.95 2.80719 -3.65423 0
M  V30 40648 H 3757.27 2.66032 -3.20337 0
M  V30 40649 H 3759.86 5.04491 -1.77179 0
M  V30 40650 H 3760.21 4.15138 -0.310882 0
M  V30 40651 H 3760.74 3.50476 -1.88178 0
M  V30 40652 H 3757.48 4.59623 -4.67362 0
M  V30 40653 H 3757 5.16067 -3.05672 0
M  V30 40654 H 3758.68 5.36628 -3.61441 0
M  V30 40655 N 3758.81 0.92314 1.27734 0
M  V30 40656 C 3760.06 0.560075 1.94184 0
M  V30 40657 C 3760.38 -0.90081 1.72946 0
M  V30 40658 O 3759.65 -1.63799 1.07456 0
M  V30 40659 H 3758.23 0.204142 0.718565 0
M  V30 40660 H 3760.89 1.17454 1.55533 0
M  V30 40661 H 3759.99 0.762477 3.02643 0
M  V30 40662 N 3760.29 -1.41783 0.688143 0
M  V30 40663 C 3761.53 -2.02151 0.225027 0
M  V30 40664 C 3761.89 -1.53499 -1.15999 0
M  V30 40665 O 3761.18 -0.733145 -1.77018 0
M  V30 40666 C 3761.37 -3.5676 0.21381 0
M  V30 40667 C 3761.2 -4.20418 1.59621 0
M  V30 40668 C 3759.97 -4.55027 2.19724 0
M  V30 40669 C 3762.17 -4.4712 2.54143 0
M  V30 40670 N 3760.15 -5.03934 3.50605 0
M  V30 40671 C 3761.52 -4.97721 3.69694 0
M  V30 40672 C 3763.58 -4.29123 2.52503 0
M  V30 40673 C 3762.28 -5.32217 4.83877 0
M  V30 40674 C 3764.31 -4.64703 3.65794 0
M  V30 40675 C 3763.67 -5.15469 4.80074 0
M  V30 40676 H 3759.77 -0.771525 0.127565 0
M  V30 40677 H 3762.35 -1.7244 0.904019 0
M  V30 40678 H 3760.52 -3.8596 -0.434641 0
M  V30 40679 H 3762.26 -4.03842 -0.263437 0
M  V30 40680 H 3759.01 -4.41231 1.72082 0
M  V30 40681 H 3759.44 -5.32801 4.17674 0
M  V30 40682 H 3764.08 -3.89118 1.6537 0
M  V30 40683 H 3761.8 -5.71149 5.71677 0
M  V30 40684 H 3765.38 -4.52443 3.65768 0
M  V30 40685 H 3764.26 -5.42486 5.66285 0
M  V30 40686 N 3761.76 -0.432379 -1.51553 0
M  V30 40687 C 3763 0.134978 -2.03954 0
M  V30 40688 C 3763.37 1.40391 -1.30975 0
M  V30 40689 O 3764.57 2.05119 -1.73723 0
M  V30 40690 C 3762.84 0.353548 -3.55647 0
M  V30 40691 S 3764.4 0.88502 -4.29782 0
M  V30 40692 H 3761.22 0.0341747 -0.710178 0
M  V30 40693 H 3763.82 -0.590645 -1.86364 0
M  V30 40694 H 3762.52 -0.576407 -4.06332 0
M  V30 40695 H 3762.05 1.10639 -3.77522 0
M  V30 40696 H 3764.07 2.16314 -4.46568 0
M  V30 40697 N 3763.24 1.56749 -0.163565 0
M  V30 40698 C 3764.65 1.83304 0.354484 0
M  V30 40699 C 3765 1.08304 1.63599 0
M  V30 40700 O 3764.13 0.333584 2.13813 0
M  V30 40701 C 3764.72 3.32508 0.649925 0
M  V30 40702 C 3763.28 3.59586 1.11244 0
M  V30 40703 C 3762.43 2.76925 0.144208 0
M  V30 40704 H 3765.38 1.53885 -0.387973 0
M  V30 40705 H 3765.4 3.49564 1.50284 0
M  V30 40706 H 3764.91 3.87067 -0.282954 0
M  V30 40707 H 3763.02 3.10429 2.06069 0
M  V30 40708 H 3763.13 4.67964 1.02696 0
M  V30 40709 H 3761.49 2.46526 0.640073 0
M  V30 40710 H 3762.28 3.34262 -0.782554 0
M  V30 40711 N 3764.72 -0.110185 1.57214 0
M  V30 40712 C 3765.97 -0.816407 1.85313 0
M  V30 40713 C 3766.3 -1.79461 0.749932 0
M  V30 40714 O 3765.55 -1.93993 -0.257914 0
M  V30 40715 C 3765.85 -1.59298 3.19936 0
M  V30 40716 C 3765.52 -0.758272 4.44478 0
M  V30 40717 C 3764.18 -0.528117 4.78293 0
M  V30 40718 C 3766.53 -0.177025 5.20899 0
M  V30 40719 C 3763.86 0.293395 5.85966 0
M  V30 40720 C 3766.21 0.631726 6.29438 0
M  V30 40721 C 3764.87 0.872115 6.61778 0
M  V30 40722 H 3764.14 -0.298744 0.67811 0
M  V30 40723 H 3766.79 -0.0784385 1.91339 0
M  V30 40724 H 3765.1 -2.4021 3.09526 0
M  V30 40725 H 3766.79 -2.14353 3.38901 0
M  V30 40726 H 3763.38 -0.947757 4.1799 0
M  V30 40727 H 3767.57 -0.342034 4.9512 0
M  V30 40728 H 3762.82 0.488772 6.09443 0
M  V30 40729 H 3767 1.08906 6.87832 0
M  V30 40730 H 3764.62 1.5105 7.45042 0
M  V30 40731 N 3766.2 -1.52935 -0.38061 0
M  V30 40732 C 3767.44 -1.69587 -1.12303 0
M  V30 40733 C 3767.8 -0.434658 -1.87426 0
M  V30 40734 O 3767.09 0.571923 -1.82865 0
M  V30 40735 C 3767.29 -2.87538 -2.12265 0
M  V30 40736 C 3767.12 -4.25009 -1.46962 0
M  V30 40737 C 3765.89 -4.90098 -1.23012 0
M  V30 40738 C 3768.08 -5.0609 -0.915259 0
M  V30 40739 N 3766.07 -6.11529 -0.539016 0
M  V30 40740 C 3767.44 -6.18996 -0.352684 0
M  V30 40741 C 3769.49 -4.91226 -0.812484 0
M  V30 40742 C 3768.19 -7.18663 0.302627 0
M  V30 40743 C 3770.22 -5.91153 -0.17098 0
M  V30 40744 C 3769.58 -7.0337 0.380788 0
M  V30 40745 H 3765.68 -0.673957 -0.396619 0
M  V30 40746 H 3768.27 -1.90303 -0.411421 0
M  V30 40747 H 3766.44 -2.68387 -2.80754 0
M  V30 40748 H 3768.17 -2.93086 -2.79075 0
M  V30 40749 H 3764.92 -4.48971 -1.50738 0
M  V30 40750 H 3765.35 -6.76677 -0.209262 0
M  V30 40751 H 3769.99 -4.04669 -1.22486 0
M  V30 40752 H 3767.71 -8.04823 0.726991 0
M  V30 40753 H 3771.29 -5.81726 -0.0925906 0
M  V30 40754 H 3770.17 -7.79367 0.869337 0
M  V30 40755 O 3767.72 0.526566 -1.52675 0
M  V30 40756 H 3768.41 1.18166 -1.53481 0
M  V30 END ATOM
M  V30 BEGIN BOND
M  V30 END BOND
M  V30 END CTAB
M  END
$$$$
