drugbank_target|P12931 Proto-oncogene tyrosine-protein kinase Src (DB01254; DB01678; DB01866; DB01893; DB01908; DB01947; DB01962; DB02175; DB02336; DB02432; DB02762; DB02908; DB03023; DB03078; DB03104; DB03114; DB03217; DB03268; DB03298; DB03306; DB03525; DB03591; DB03628; DB03712; DB03828; DB03902; DB04080; DB04272; DB04495; DB04739; DB04751; DB05184; DB06137; DB06616; DB06882; DB06883; DB07335; DB07662; DB07966; DB08052; DB08053; DB08054; DB08192; DB08462; DB08564; DB08901; DB09079; DB12010)
 OpenBabel12092119413D

  0  0  0     0  0            999 V3000
M  V30 BEGIN CTAB
M  V30 COUNTS 22094 23725 0 0 0
M  V30 BEGIN ATOM
M  V30 1 H -1.547 9.37743 -1.21644 0
M  V30 2 O -1.44 8.89599 -0.40059 0
M  V30 3 P 0 8.91 0 0
M  V30 4 O 0.22 10.1746 0.733838 0
M  V30 5 O 0.79 8.73346 -1.23964 0
M  V30 6 O 0.25 7.66872 0.971405 0
M  V30 7 C -0.69 7.42405 2.04668 0
M  V30 8 C 0.04 6.86059 3.24661 0
M  V30 9 O 0.25 5.42934 3.03695 0
M  V30 10 C 1.44 7.41287 3.50796 0
M  V30 11 O 1.83 7.27073 4.86816 0
M  V30 12 C 2.32 6.5273 2.63741 0
M  V30 13 C 1.61 5.1842 2.73198 0
M  V30 14 N 1.66 4.38762 1.4784 0
M  V30 15 H -1.178 8.36899 2.3252 0
M  V30 16 H -1.45 6.70391 1.71179 0
M  V30 17 H -0.582 7.03638 4.13219 0
M  V30 18 H 2.073 4.59931 3.54016 0
M  V30 19 H 2.353 6.88995 1.59871 0
M  V30 20 H 3.344 6.4684 3.0373 0
M  V30 21 H 1.51 8.47002 3.20749 0
M  V30 22 P 3.37998 7.20834 5.23717 0
M  V30 23 O 3.59998 7.79853 6.57286 0
M  V30 24 O 4.16998 7.79239 4.12957 0
M  V30 25 O 3.62998 5.63315 5.29344 0
M  V30 26 C 2.68998 4.80255 6.01876 0
M  V30 27 C 3.41998 3.64202 6.65911 0
M  V30 28 O 3.62998 2.60694 5.64732 0
M  V30 29 C 4.81998 3.93473 7.1943 0
M  V30 30 O 5.20998 3.02071 8.21205 0
M  V30 31 C 5.69998 3.73047 5.97036 0
M  V30 32 C 4.98998 2.58828 5.25741 0
M  V30 33 N 5.03998 2.68068 3.77503 0
M  V30 34 C 4.95998 3.79715 2.96723 0
M  V30 35 N 5.03998 3.5377 1.68852 0
M  V30 36 C 5.17998 2.15054 1.63254 0
M  V30 37 C 5.30998 1.28964 0.518571 0
M  V30 38 O 5.32998 1.56826 -0.679156 0
M  V30 39 N 5.42998 -0.0538097 0.918425 0
M  V30 40 C 5.42998 -0.494275 2.22578 0
M  V30 41 N 5.55998 -1.81086 2.40434 0
M  V30 42 N 5.29998 0.313645 3.27502 0
M  V30 43 C 5.17998 1.61829 2.91033 0
M  V30 44 H 2.20098 5.40332 6.79951 0
M  V30 45 H 1.93098 4.41613 5.32378 0
M  V30 46 H 2.79798 3.26331 7.47797 0
M  V30 47 H 5.45298 1.63422 5.56814 0
M  V30 48 H 5.73198 4.63374 5.34244 0
M  V30 49 H 6.72398 3.44728 6.25838 0
M  V30 50 H 4.88998 4.96652 7.57263 0
M  V30 51 H 4.84098 4.80617 3.3614 0
M  V30 52 H 5.52298 -0.742702 0.199384 0
M  V30 53 H 5.55998 -2.20598 3.35588 0
M  V30 54 H 5.66098 -2.43518 1.58945 0
M  V30 55 P 6.75996 2.75334 8.47391 0
M  V30 56 O 6.97996 2.44571 9.90142 0
M  V30 57 O 7.54996 3.87688 7.92115 0
M  V30 58 O 7.00996 1.4459 7.59357 0
M  V30 59 C 6.06996 0.347608 7.69215 0
M  V30 60 C 6.79996 -0.96767 7.52806 0
M  V30 61 O 7.00996 -1.21036 6.1011 0
M  V30 62 C 8.19996 -1.04544 8.13308 0
M  V30 63 O 8.58996 -2.38311 8.41922 0
M  V30 64 C 9.07996 -0.491279 7.02284 0
M  V30 65 C 8.36996 -0.996264 5.77469 0
M  V30 66 N 8.41996 -0.0501916 4.62973 0
M  V30 67 H 5.58096 0.374722 8.67691 0
M  V30 68 H 5.31096 0.443485 6.90277 0
M  V30 69 H 6.17796 -1.75537 7.96793 0
M  V30 70 P 10.1399 -2.75334 8.47391 0
M  V30 71 O 10.3599 -3.84128 9.44797 0
M  V30 72 O 10.9299 -1.51947 8.68712 0
M  V30 73 O 10.3899 -3.29363 6.99321 0
M  V30 74 C 9.44994 -4.24011 6.4274 0
M  V30 75 C 10.1799 -5.20775 5.52155 0
M  V30 76 O 10.3899 -4.56534 4.22446 0
M  V30 77 C 11.5799 -5.62629 5.96531 0
M  V30 78 O 11.9699 -6.87667 5.41053 0
M  V30 79 C 12.4599 -4.52537 5.39283 0
M  V30 80 C 11.7499 -4.20027 4.08623 0
M  V30 81 N 11.7999 -2.76189 3.71603 0
M  V30 82 H 8.96094 -4.797 7.24003 0
M  V30 83 H 8.69094 -3.69856 5.84513 0
M  V30 84 H 9.55794 -6.10356 5.41441 0
M  V30 85 P 13.5199 -7.20834 5.23717 0
M  V30 86 O 13.7399 -8.66104 5.38572 0
M  V30 87 O 14.3099 -6.33544 6.1349 0
M  V30 88 O 13.7699 -6.7751 3.72168 0
M  V30 89 C 12.8299 -7.20825 2.7076 0
M  V30 90 C 13.5599 -7.45864 1.40599 0
M  V30 91 O 13.7699 -6.17651 0.734225 0
M  V30 92 C 14.9599 -8.05808 1.51899 0
M  V30 93 O 15.3499 -8.74358 0.335205 0
M  V30 94 C 15.8399 -6.83093 1.70294 0
M  V30 95 C 15.1299 -5.79992 0.836974 0
M  V30 96 N 15.1799 -4.41864 1.38293 0
M  V30 97 H 12.3409 -8.13644 3.0377 0
M  V30 98 H 12.0709 -6.42788 2.55485 0
M  V30 99 H 12.9379 -8.12039 0.792769 0
M  V30 100 P 16.8999 -8.91 1.09116e-15 0
M  V30 101 O 17.1199 -10.1726 -0.733694 0
M  V30 102 O 17.6899 -8.73148 1.23936 0
M  V30 103 O 17.1499 -7.66872 -0.971405 0
M  V30 104 C 16.2099 -7.42309 -2.04641 0
M  V30 105 C 16.9399 -6.86059 -3.24661 0
M  V30 106 O 17.1499 -5.42847 -3.03646 0
M  V30 107 C 18.3399 -7.41196 -3.50753 0
M  V30 108 O 18.7299 -7.27073 -4.86816 0
M  V30 109 C 19.2199 -6.5273 -2.63741 0
M  V30 110 C 18.5099 -5.1842 -2.73198 0
M  V30 111 N 18.5599 -4.38762 -1.4784 0
M  V30 112 H 15.7209 -8.36803 -2.32493 0
M  V30 113 H 15.4509 -6.70197 -1.71129 0
M  V30 114 H 16.3179 -7.03551 -4.13168 0
M  V30 115 P 20.2799 -7.20834 -5.23717 0
M  V30 116 O 20.4999 -7.79853 -6.57286 0
M  V30 117 O 21.0699 -7.79239 -4.12957 0
M  V30 118 O 20.5299 -5.63315 -5.29344 0
M  V30 119 C 19.5899 -4.80255 -6.01876 0
M  V30 120 C 20.3199 -3.64202 -6.65911 0
M  V30 121 O 20.5299 -2.60694 -5.64732 0
M  V30 122 C 21.7199 -3.93473 -7.1943 0
M  V30 123 O 22.1099 -3.02071 -8.21205 0
M  V30 124 C 22.5999 -3.73047 -5.97036 0
M  V30 125 C 21.8899 -2.58828 -5.25741 0
M  V30 126 N 21.9399 -2.68068 -3.77503 0
M  V30 127 H 19.1009 -5.40332 -6.79951 0
M  V30 128 H 18.8309 -4.41613 -5.32378 0
M  V30 129 H 19.6979 -3.26331 -7.47797 0
M  V30 130 P 23.6599 -2.75334 -8.47391 0
M  V30 131 O 23.8799 -2.44571 -9.90142 0
M  V30 132 O 24.4499 -3.87688 -7.92115 0
M  V30 133 O 23.9099 -1.4459 -7.59357 0
M  V30 134 C 22.9699 -0.347608 -7.69215 0
M  V30 135 C 23.6999 0.96767 -7.52806 0
M  V30 136 O 23.9099 1.21036 -6.1011 0
M  V30 137 C 25.0999 1.04544 -8.13308 0
M  V30 138 O 25.4899 2.38311 -8.41922 0
M  V30 139 C 25.9799 0.491279 -7.02284 0
M  V30 140 C 25.2699 0.996264 -5.77469 0
M  V30 141 N 25.3199 0.0501916 -4.62973 0
M  V30 142 H 22.4809 -0.374722 -8.67691 0
M  V30 143 H 22.2109 -0.443485 -6.90277 0
M  V30 144 H 23.0779 1.75537 -7.96793 0
M  V30 145 P 27.0398 2.75334 -8.47391 0
M  V30 146 O 27.2598 3.84128 -9.44797 0
M  V30 147 O 27.8298 1.51947 -8.68712 0
M  V30 148 O 27.2898 3.29363 -6.99321 0
M  V30 149 C 26.3498 4.24011 -6.4274 0
M  V30 150 C 27.0798 5.20775 -5.52155 0
M  V30 151 O 27.2898 4.56534 -4.22446 0
M  V30 152 C 28.4798 5.62629 -5.96531 0
M  V30 153 O 28.8698 6.87667 -5.41053 0
M  V30 154 C 29.3598 4.52537 -5.39283 0
M  V30 155 C 28.6498 4.20027 -4.08623 0
M  V30 156 N 28.6998 2.76189 -3.71603 0
M  V30 157 H 25.8608 4.797 -7.24003 0
M  V30 158 H 25.5908 3.69856 -5.84513 0
M  V30 159 H 26.4578 6.10356 -5.41441 0
M  V30 160 P 30.4198 7.20834 -5.23717 0
M  V30 161 O 30.6398 8.66104 -5.38572 0
M  V30 162 O 31.2098 6.33544 -6.1349 0
M  V30 163 O 30.6698 6.7751 -3.72168 0
M  V30 164 C 29.7298 7.20825 -2.7076 0
M  V30 165 C 30.4598 7.45864 -1.40599 0
M  V30 166 O 30.6698 6.17651 -0.734225 0
M  V30 167 C 31.8598 8.05808 -1.51899 0
M  V30 168 O 32.2498 8.74358 -0.335205 0
M  V30 169 C 32.7398 6.83093 -1.70294 0
M  V30 170 C 32.0298 5.79992 -0.836974 0
M  V30 171 N 32.0798 4.41864 -1.38293 0
M  V30 172 H 29.2408 8.13644 -3.0377 0
M  V30 173 H 28.9708 6.42788 -2.55485 0
M  V30 174 H 29.8378 8.12039 -0.792769 0
M  V30 175 P 33.7998 8.91 -2.18232e-15 0
M  V30 176 O 34.0198 10.1746 0.733838 0
M  V30 177 O 34.5898 8.73346 -1.23964 0
M  V30 178 O 34.0498 7.66872 0.971405 0
M  V30 179 C 33.1098 7.42405 2.04668 0
M  V30 180 C 33.8398 6.86059 3.24661 0
M  V30 181 O 34.0498 5.42934 3.03695 0
M  V30 182 C 35.2398 7.41287 3.50796 0
M  V30 183 O 35.6298 7.27073 4.86816 0
M  V30 184 C 36.1198 6.5273 2.63741 0
M  V30 185 C 35.4098 5.1842 2.73198 0
M  V30 186 N 35.4598 4.38762 1.4784 0
M  V30 187 C 35.3798 4.83651 0.183876 0
M  V30 188 N 35.4498 3.88759 -0.699393 0
M  V30 189 C 35.5998 2.7404 0.0575568 0
M  V30 190 C 35.7298 1.37902 -0.293928 0
M  V30 191 N 35.7398 0.938021 -1.54797 0
M  V30 192 N 35.8498 0.491817 0.70549 0
M  V30 193 C 35.8398 0.931735 1.95979 0
M  V30 194 N 35.7198 2.16017 2.41481 0
M  V30 195 C 35.5998 3.02547 1.39121 0
M  V30 196 H 32.6218 8.36899 2.3252 0
M  V30 197 H 32.3498 6.70391 1.71179 0
M  V30 198 H 33.2178 7.03638 4.13219 0
M  V30 199 H 35.8728 4.59931 3.54016 0
M  V30 200 H 36.1528 6.88995 1.59871 0
M  V30 201 H 37.1438 6.4684 3.0373 0
M  V30 202 H 35.3098 8.47002 3.20749 0
M  V30 203 H 35.2688 5.8885 -0.0765548 0
M  V30 204 H 35.6498 1.60276 -2.32875 0
M  V30 205 H 35.8388 -0.0699355 -1.73859 0
M  V30 206 H 35.9468 0.165507 2.71897 0
M  V30 207 P 37.1798 7.20834 5.23717 0
M  V30 208 O 37.3998 7.79853 6.57286 0
M  V30 209 O 37.9698 7.79239 4.12957 0
M  V30 210 O 37.4298 5.63315 5.29344 0
M  V30 211 C 36.4898 4.80255 6.01876 0
M  V30 212 C 37.2198 3.64202 6.65911 0
M  V30 213 O 37.4298 2.60694 5.64732 0
M  V30 214 C 38.6198 3.93473 7.1943 0
M  V30 215 O 39.0098 3.02071 8.21205 0
M  V30 216 C 39.4998 3.73047 5.97036 0
M  V30 217 C 38.7898 2.58828 5.25741 0
M  V30 218 N 38.8398 2.68068 3.77503 0
M  V30 219 H 36.0008 5.40332 6.79951 0
M  V30 220 H 35.7308 4.41613 5.32378 0
M  V30 221 H 36.5978 3.26331 7.47797 0
M  V30 222 P 40.5598 2.75334 8.47391 0
M  V30 223 O 40.7798 2.44571 9.90142 0
M  V30 224 O 41.3498 3.87688 7.92115 0
M  V30 225 O 40.8098 1.4459 7.59357 0
M  V30 226 C 39.8698 0.347608 7.69215 0
M  V30 227 C 40.5998 -0.96767 7.52806 0
M  V30 228 O 40.8098 -1.21036 6.1011 0
M  V30 229 C 41.9998 -1.04544 8.13308 0
M  V30 230 O 42.3898 -2.38311 8.41922 0
M  V30 231 C 42.8798 -0.491279 7.02284 0
M  V30 232 C 42.1698 -0.996264 5.77469 0
M  V30 233 N 42.2198 -0.0501916 4.62973 0
M  V30 234 H 39.3808 0.374722 8.67691 0
M  V30 235 H 39.1108 0.443485 6.90277 0
M  V30 236 H 39.9778 -1.75537 7.96793 0
M  V30 237 P 43.9397 -2.75334 8.47391 0
M  V30 238 O 44.1597 -3.84128 9.44797 0
M  V30 239 O 44.7297 -1.51947 8.68712 0
M  V30 240 O 44.1897 -3.29363 6.99321 0
M  V30 241 C 43.2497 -4.24011 6.4274 0
M  V30 242 C 43.9797 -5.20775 5.52155 0
M  V30 243 O 44.1897 -4.56534 4.22446 0
M  V30 244 C 45.3797 -5.62629 5.96531 0
M  V30 245 O 45.7697 -6.87667 5.41053 0
M  V30 246 C 46.2597 -4.52537 5.39283 0
M  V30 247 C 45.5497 -4.20027 4.08623 0
M  V30 248 N 45.5997 -2.76189 3.71603 0
M  V30 249 C 45.5197 -1.64862 4.52822 0
M  V30 250 N 45.5997 -0.512671 3.88633 0
M  V30 251 C 45.7397 -0.888083 2.54977 0
M  V30 252 C 45.8697 -0.094668 1.38677 0
M  V30 253 N 45.9897 -0.890102 0.232633 0
M  V30 254 C 45.9897 -2.26958 0.21772 0
M  V30 255 N 46.1197 -2.84626 -0.97925 0
M  V30 256 N 45.8597 -3.0178 1.31033 0
M  V30 257 C 45.7397 -2.26781 2.43843 0
M  V30 258 H 42.7607 -4.797 7.24003 0
M  V30 259 H 42.4907 -3.69856 5.84513 0
M  V30 260 H 43.3577 -6.10356 5.41441 0
M  V30 261 P 47.3197 -7.20834 5.23717 0
M  V30 262 O 47.5397 -8.66104 5.38572 0
M  V30 263 O 48.1097 -6.33544 6.1349 0
M  V30 264 O 47.5697 -6.7751 3.72168 0
M  V30 265 C 46.6297 -7.20825 2.7076 0
M  V30 266 C 47.3597 -7.45864 1.40599 0
M  V30 267 O 47.5697 -6.17651 0.734225 0
M  V30 268 C 48.7597 -8.05808 1.51899 0
M  V30 269 O 49.1497 -8.74358 0.335205 0
M  V30 270 C 49.6397 -6.83093 1.70294 0
M  V30 271 C 48.9297 -5.79992 0.836974 0
M  V30 272 N 48.9797 -4.41864 1.38293 0
M  V30 273 C 48.8997 -3.99538 2.69438 0
M  V30 274 N 48.9797 -2.69909 2.84277 0
M  V30 275 C 49.1197 -2.21719 1.5408 0
M  V30 276 C 49.2497 -0.891712 1.06628 0
M  V30 277 N 49.3697 -0.856846 -0.334985 0
M  V30 278 C 49.3697 -1.9641 -1.15789 0
M  V30 279 N 49.4997 -1.72708 -2.46522 0
M  V30 280 N 49.2397 -3.21165 -0.713741 0
M  V30 281 C 49.1197 -3.26797 0.639748 0
M  V30 282 H 46.1407 -8.13644 3.0377 0
M  V30 283 H 45.8707 -6.42788 2.55485 0
M  V30 284 H 46.7377 -8.12039 0.792769 0
M  V30 285 P 50.6997 -8.91 3.27348e-15 0
M  V30 286 O 50.9197 -10.1726 -0.733694 0
M  V30 287 O 51.4897 -8.73148 1.23936 0
M  V30 288 O 50.9497 -7.66872 -0.971405 0
M  V30 289 C 50.0097 -7.42309 -2.04641 0
M  V30 290 C 50.7397 -6.86059 -3.24661 0
M  V30 291 O 50.9497 -5.42847 -3.03646 0
M  V30 292 C 52.1397 -7.41196 -3.50753 0
M  V30 293 O 52.5297 -7.27073 -4.86816 0
M  V30 294 C 53.0197 -6.5273 -2.63741 0
M  V30 295 C 52.3097 -5.1842 -2.73198 0
M  V30 296 N 52.3597 -4.38762 -1.4784 0
M  V30 297 C 52.2797 -4.81605 -0.168631 0
M  V30 298 N 52.3597 -3.85454 0.713363 0
M  V30 299 C 52.4997 -2.6994 -0.0566958 0
M  V30 300 C 52.6297 -1.34815 0.338502 0
M  V30 301 N 52.7497 -0.496304 -0.77465 0
M  V30 302 C 52.7497 -0.908403 -2.09122 0
M  V30 303 N 52.8797 0.0517805 -3.00955 0
M  V30 304 N 52.6197 -2.17875 -2.46519 0
M  V30 305 C 52.4997 -3.01988 -1.4033 0
M  V30 306 H 49.5207 -8.36803 -2.32493 0
M  V30 307 H 49.2507 -6.70197 -1.71129 0
M  V30 308 H 50.1177 -7.03551 -4.13168 0
M  V30 309 P 54.0797 -7.20834 -5.23717 0
M  V30 310 O 54.2997 -7.79853 -6.57286 0
M  V30 311 O 54.8697 -7.79239 -4.12957 0
M  V30 312 O 54.3297 -5.63315 -5.29344 0
M  V30 313 C 53.3897 -4.80255 -6.01876 0
M  V30 314 C 54.1197 -3.64202 -6.65911 0
M  V30 315 O 54.3297 -2.60694 -5.64732 0
M  V30 316 C 55.5197 -3.93473 -7.1943 0
M  V30 317 O 55.9097 -3.02071 -8.21205 0
M  V30 318 C 56.3997 -3.73047 -5.97036 0
M  V30 319 C 55.6897 -2.58828 -5.25741 0
M  V30 320 N 55.7397 -2.68068 -3.77503 0
M  V30 321 H 52.9007 -5.40332 -6.79951 0
M  V30 322 H 52.6307 -4.41613 -5.32378 0
M  V30 323 H 53.4977 -3.26331 -7.47797 0
M  V30 324 P 57.4597 -2.75334 -8.47391 0
M  V30 325 O 57.6797 -2.44571 -9.90142 0
M  V30 326 O 58.2497 -3.87688 -7.92115 0
M  V30 327 O 57.7097 -1.4459 -7.59357 0
M  V30 328 C 56.7697 -0.347608 -7.69215 0
M  V30 329 C 57.4997 0.96767 -7.52806 0
M  V30 330 O 57.7097 1.21036 -6.1011 0
M  V30 331 C 58.8997 1.04544 -8.13308 0
M  V30 332 O 59.2897 2.38311 -8.41922 0
M  V30 333 C 59.7797 0.491279 -7.02284 0
M  V30 334 C 59.0697 0.996264 -5.77469 0
M  V30 335 N 59.1197 0.0501916 -4.62973 0
M  V30 336 H 56.2807 -0.374722 -8.67691 0
M  V30 337 H 56.0107 -0.443485 -6.90277 0
M  V30 338 H 56.8777 1.75537 -7.96793 0
M  V30 339 P 60.8396 2.75334 -8.47391 0
M  V30 340 O 61.0596 3.84128 -9.44797 0
M  V30 341 O 61.6296 1.51947 -8.68712 0
M  V30 342 O 61.0896 3.29363 -6.99321 0
M  V30 343 C 60.1496 4.24011 -6.4274 0
M  V30 344 C 60.8796 5.20775 -5.52155 0
M  V30 345 O 61.0896 4.56534 -4.22446 0
M  V30 346 C 62.2796 5.62629 -5.96531 0
M  V30 347 O 62.6696 6.87667 -5.41053 0
M  V30 348 C 63.1596 4.52537 -5.39283 0
M  V30 349 C 62.4496 4.20027 -4.08623 0
M  V30 350 N 62.4996 2.76189 -3.71603 0
M  V30 351 H 59.6606 4.797 -7.24003 0
M  V30 352 H 59.3906 3.69856 -5.84513 0
M  V30 353 H 60.2576 6.10356 -5.41441 0
M  V30 354 P 64.2196 7.20834 -5.23717 0
M  V30 355 O 64.4396 8.66104 -5.38572 0
M  V30 356 O 65.0096 6.33544 -6.1349 0
M  V30 357 O 64.4696 6.7751 -3.72168 0
M  V30 358 C 63.5296 7.20825 -2.7076 0
M  V30 359 C 64.2596 7.45864 -1.40599 0
M  V30 360 O 64.4696 6.17651 -0.734225 0
M  V30 361 C 65.6596 8.05808 -1.51899 0
M  V30 362 O 66.0496 8.74358 -0.335205 0
M  V30 363 C 66.5396 6.83093 -1.70294 0
M  V30 364 C 65.8296 5.79992 -0.836974 0
M  V30 365 N 65.8796 4.41864 -1.38293 0
M  V30 366 H 63.0406 8.13644 -3.0377 0
M  V30 367 H 62.7706 6.42788 -2.55485 0
M  V30 368 H 63.6376 8.12039 -0.792769 0
M  V30 369 P 67.5996 8.91 -4.36464e-15 0
M  V30 370 O 67.8196 10.1746 0.733838 0
M  V30 371 O 68.3896 8.73346 -1.23964 0
M  V30 372 O 67.8496 7.66872 0.971405 0
M  V30 373 C 66.9096 7.42405 2.04668 0
M  V30 374 C 67.6396 6.86059 3.24661 0
M  V30 375 O 67.8496 5.42934 3.03695 0
M  V30 376 C 69.0396 7.41287 3.50796 0
M  V30 377 O 69.4296 7.27073 4.86816 0
M  V30 378 C 69.9196 6.5273 2.63741 0
M  V30 379 C 69.2096 5.1842 2.73198 0
M  V30 380 N 69.2596 4.38762 1.4784 0
M  V30 381 C 69.1796 4.83651 0.183876 0
M  V30 382 N 69.2496 3.88759 -0.699393 0
M  V30 383 C 69.3996 2.7404 0.0575568 0
M  V30 384 C 69.5296 1.37902 -0.293928 0
M  V30 385 N 69.5396 0.938021 -1.54797 0
M  V30 386 N 69.6496 0.491817 0.70549 0
M  V30 387 C 69.6396 0.931735 1.95979 0
M  V30 388 N 69.5196 2.16017 2.41481 0
M  V30 389 C 69.3996 3.02547 1.39121 0
M  V30 390 H 66.4216 8.36899 2.3252 0
M  V30 391 H 66.1496 6.70391 1.71179 0
M  V30 392 H 67.0176 7.03638 4.13219 0
M  V30 393 H 69.6726 4.59931 3.54016 0
M  V30 394 H 69.9526 6.88995 1.59871 0
M  V30 395 H 70.9436 6.4684 3.0373 0
M  V30 396 H 69.1096 8.47002 3.20749 0
M  V30 397 H 69.0686 5.8885 -0.0765548 0
M  V30 398 H 69.4496 1.60276 -2.32875 0
M  V30 399 H 69.6386 -0.0699355 -1.73859 0
M  V30 400 H 69.7466 0.165507 2.71897 0
M  V30 401 P 70.9796 7.20834 5.23717 0
M  V30 402 O 71.1996 7.79853 6.57286 0
M  V30 403 O 71.7696 7.79239 4.12957 0
M  V30 404 O 71.2296 5.63315 5.29344 0
M  V30 405 C 70.2896 4.80255 6.01876 0
M  V30 406 C 71.0196 3.64202 6.65911 0
M  V30 407 O 71.2296 2.60694 5.64732 0
M  V30 408 C 72.4196 3.93473 7.1943 0
M  V30 409 O 72.8096 3.02071 8.21205 0
M  V30 410 C 73.2996 3.73047 5.97036 0
M  V30 411 C 72.5896 2.58828 5.25741 0
M  V30 412 N 72.6396 2.68068 3.77503 0
M  V30 413 H 69.8006 5.40332 6.79951 0
M  V30 414 H 69.5306 4.41613 5.32378 0
M  V30 415 H 70.3976 3.26331 7.47797 0
M  V30 416 P 74.3596 2.75334 8.47391 0
M  V30 417 O 74.5796 2.44571 9.90142 0
M  V30 418 O 75.1496 3.87688 7.92115 0
M  V30 419 O 74.6096 1.4459 7.59357 0
M  V30 420 C 73.6696 0.347608 7.69215 0
M  V30 421 C 74.3996 -0.96767 7.52806 0
M  V30 422 O 74.6096 -1.21036 6.1011 0
M  V30 423 C 75.7996 -1.04544 8.13308 0
M  V30 424 O 76.1896 -2.38311 8.41922 0
M  V30 425 C 76.6796 -0.491279 7.02284 0
M  V30 426 C 75.9696 -0.996264 5.77469 0
M  V30 427 N 76.0196 -0.0501916 4.62973 0
M  V30 428 H 73.1806 0.374722 8.67691 0
M  V30 429 H 72.9106 0.443485 6.90277 0
M  V30 430 H 73.7776 -1.75537 7.96793 0
M  V30 431 P 77.7395 -2.75334 8.47391 0
M  V30 432 O 77.9595 -3.84128 9.44797 0
M  V30 433 O 78.5295 -1.51947 8.68712 0
M  V30 434 O 77.9895 -3.29363 6.99321 0
M  V30 435 C 77.0495 -4.24011 6.4274 0
M  V30 436 C 77.7795 -5.20775 5.52155 0
M  V30 437 O 77.9895 -4.56534 4.22446 0
M  V30 438 C 79.1795 -5.62629 5.96531 0
M  V30 439 O 79.5695 -6.87667 5.41053 0
M  V30 440 C 80.0595 -4.52537 5.39283 0
M  V30 441 C 79.3495 -4.20027 4.08623 0
M  V30 442 N 79.3995 -2.76189 3.71603 0
M  V30 443 H 76.5605 -4.797 7.24003 0
M  V30 444 H 76.2905 -3.69856 5.84513 0
M  V30 445 H 77.1575 -6.10356 5.41441 0
M  V30 446 P 81.1195 -7.20834 5.23717 0
M  V30 447 O 81.3395 -8.66274 5.38678 0
M  V30 448 O 81.9095 -6.33687 6.13629 0
M  V30 449 O 81.3695 -6.7751 3.72168 0
M  V30 450 C 80.4295 -7.20919 2.70795 0
M  V30 451 C 81.1595 -7.45864 1.40599 0
M  V30 452 O 81.3695 -6.17751 0.734343 0
M  V30 453 C 82.5595 -8.05906 1.51917 0
M  V30 454 O 82.9495 -8.74358 0.335205 0
M  V30 455 C 83.4395 -6.83093 1.70294 0
M  V30 456 C 82.7295 -5.79992 0.836974 0
M  V30 457 N 82.7795 -4.41864 1.38293 0
M  V30 458 H 79.9415 -8.13738 3.03804 0
M  V30 459 H 79.6695 -6.42974 2.55559 0
M  V30 460 H 80.5375 -8.12139 0.792866 0
M  V30 461 H 83.1925 -5.80178 -0.160643 0
M  V30 462 H 83.4725 -6.51379 2.75643 0
M  V30 463 H 84.4635 -7.01832 1.3448 0
M  V30 464 H 82.6295 -8.73771 2.38364 0
M  V30 465 P 84.4995 -8.91 5.4558e-15 0
M  V30 466 O 84.7195 -10.1726 -0.733694 0
M  V30 467 O 85.2895 -8.73148 1.23936 0
M  V30 468 O 84.7495 -7.66872 -0.971405 0
M  V30 469 C 83.8095 -7.42309 -2.04641 0
M  V30 470 C 84.5395 -6.86059 -3.24661 0
M  V30 471 O 84.7495 -5.42847 -3.03646 0
M  V30 472 C 85.9395 -7.41196 -3.50753 0
M  V30 473 O 86.3295 -7.27073 -4.86816 0
M  V30 474 C 86.8195 -6.5273 -2.63741 0
M  V30 475 C 86.1095 -5.1842 -2.73198 0
M  V30 476 N 86.1595 -4.38762 -1.4784 0
M  V30 477 C 86.0795 -4.81605 -0.168631 0
M  V30 478 N 86.1595 -3.85454 0.713363 0
M  V30 479 C 86.2995 -2.6994 -0.0566958 0
M  V30 480 C 86.4295 -1.34815 0.338502 0
M  V30 481 O 86.4495 -0.869548 1.47125 0
M  V30 482 N 86.5495 -0.496304 -0.77465 0
M  V30 483 C 86.5495 -0.908403 -2.09122 0
M  V30 484 N 86.6795 0.0517805 -3.00955 0
M  V30 485 N 86.4195 -2.17875 -2.46519 0
M  V30 486 C 86.2995 -3.01988 -1.4033 0
M  V30 487 H 83.3205 -8.36803 -2.32493 0
M  V30 488 H 83.0505 -6.70197 -1.71129 0
M  V30 489 H 83.9175 -7.03551 -4.13168 0
M  V30 490 H 86.5725 -4.59498 -3.54415 0
M  V30 491 H 86.8515 -6.88898 -1.59848 0
M  V30 492 H 87.8435 -6.46749 -3.03687 0
M  V30 493 H 86.0095 -8.46908 -3.20714 0
M  V30 494 H 85.9605 -5.86405 0.105564 0
M  V30 495 H 86.6425 0.483664 -0.597855 0
M  V30 496 H 86.6795 -0.187865 -4.0116 0
M  V30 497 H 86.7805 1.03585 -2.71726 0
M  V30 498 P 87.8795 -7.20834 -5.23717 0
M  V30 499 O 88.0995 -7.80006 -6.57415 0
M  V30 500 O 88.6695 -7.79416 -4.13051 0
M  V30 501 O 88.1295 -5.63315 -5.29344 0
M  V30 502 C 87.1895 -4.80318 -6.01954 0
M  V30 503 C 87.9195 -3.64202 -6.65911 0
M  V30 504 O 88.1295 -2.60736 -5.64823 0
M  V30 505 C 89.3195 -3.93521 -7.19518 0
M  V30 506 O 89.7095 -3.02071 -8.21205 0
M  V30 507 C 90.1995 -3.73047 -5.97036 0
M  V30 508 C 89.4895 -2.58828 -5.25741 0
M  V30 509 N 89.5395 -2.68068 -3.77503 0
M  V30 510 C 89.4595 -3.80474 -2.99159 0
M  V30 511 N 89.5295 -3.55622 -1.71925 0
M  V30 512 C 89.6795 -2.1832 -1.65733 0
M  V30 513 C 89.8095 -1.28842 -0.572777 0
M  V30 514 N 89.8195 -1.66875 0.70098 0
M  V30 515 N 89.9295 0.016788 -0.859836 0
M  V30 516 C 89.9195 0.398145 -2.13316 0
M  V30 517 N 89.7995 -0.328224 -3.22333 0
M  V30 518 C 89.6795 -1.62992 -2.90383 0
M  V30 519 H 86.7015 -5.40394 -6.8003 0
M  V30 520 H 86.4295 -4.41741 -5.32532 0
M  V30 521 H 87.2975 -3.26371 -7.47889 0
M  V30 522 H 89.9525 -1.64007 -5.56746 0
M  V30 523 H 90.2325 -4.63439 -5.3432 0
M  V30 524 H 91.2235 -3.44776 -6.25925 0
M  V30 525 H 89.3895 -4.96707 -7.57347 0
M  V30 526 H 89.3485 -4.8089 -3.39924 0
M  V30 527 H 89.7295 -2.66547 0.941919 0
M  V30 528 H 89.9185 -0.965341 1.44766 0
M  V30 529 H 90.0265 1.46427 -2.29697 0
M  V30 530 P 91.2595 -2.75334 -8.47391 0
M  V30 531 O 91.4795 -2.44571 -9.90142 0
M  V30 532 O 92.0495 -3.87688 -7.92115 0
M  V30 533 O 91.5095 -1.4459 -7.59357 0
M  V30 534 C 90.5695 -0.347608 -7.69215 0
M  V30 535 C 91.2995 0.96767 -7.52806 0
M  V30 536 O 91.5095 1.21036 -6.1011 0
M  V30 537 C 92.6995 1.04544 -8.13308 0
M  V30 538 O 93.0895 2.38311 -8.41922 0
M  V30 539 C 93.5795 0.491279 -7.02284 0
M  V30 540 C 92.8695 0.996264 -5.77469 0
M  V30 541 N 92.9195 0.0501916 -4.62973 0
M  V30 542 C 92.8395 -1.32786 -4.63244 0
M  V30 543 N 92.9195 -1.86957 -3.44545 0
M  V30 544 C 93.0595 -0.780241 -2.58481 0
M  V30 545 C 93.1895 -0.738536 -1.17757 0
M  V30 546 O 93.2095 -1.66794 -0.372349 0
M  V30 547 N 93.3095 0.58337 -0.711393 0
M  V30 548 C 93.3095 1.70816 -1.51017 0
M  V30 549 N 93.4395 2.87826 -0.880757 0
M  V30 550 N 93.1795 1.67126 -2.8339 0
M  V30 551 C 93.0595 0.401421 -3.30572 0
M  V30 552 H 90.0805 -0.374722 -8.67691 0
M  V30 553 H 89.8105 -0.443485 -6.90277 0
M  V30 554 H 90.6775 1.75537 -7.96793 0
M  V30 555 H 93.3325 1.95076 -5.46529 0
M  V30 556 H 93.6115 -0.608565 -7.04577 0
M  V30 557 H 94.6035 0.889672 -7.08939 0
M  V30 558 H 92.7695 0.43308 -9.04564 0
M  V30 559 H 92.7205 -1.91249 -5.54442 0
M  V30 560 H 93.4025 0.718054 0.275244 0
M  V30 561 H 93.4395 3.75721 -1.41832 0
M  V30 562 H 93.5405 2.90436 0.145468 0
M  V30 563 P 94.6394 2.75334 -8.47391 0
M  V30 564 O 94.8594 3.84128 -9.44797 0
M  V30 565 O 95.4294 1.51947 -8.68712 0
M  V30 566 O 94.8894 3.29363 -6.99321 0
M  V30 567 C 93.9494 4.24011 -6.4274 0
M  V30 568 C 94.6794 5.20775 -5.52155 0
M  V30 569 O 94.8894 4.56534 -4.22446 0
M  V30 570 C 96.0794 5.62629 -5.96531 0
M  V30 571 O 96.4694 6.87667 -5.41053 0
M  V30 572 C 96.9594 4.52537 -5.39283 0
M  V30 573 C 96.2494 4.20027 -4.08623 0
M  V30 574 N 96.2994 2.76189 -3.71603 0
M  V30 575 C 96.2194 1.64862 -4.52822 0
M  V30 576 N 96.2994 0.512671 -3.88633 0
M  V30 577 C 96.4394 0.888083 -2.54977 0
M  V30 578 C 96.5694 0.094668 -1.38677 0
M  V30 579 O 96.5894 -1.13053 -1.28163 0
M  V30 580 N 96.6894 0.890102 -0.232633 0
M  V30 581 C 96.6894 2.26958 -0.21772 0
M  V30 582 N 96.8194 2.84626 0.97925 0
M  V30 583 N 96.5594 3.0178 -1.31033 0
M  V30 584 C 96.4394 2.26781 -2.43843 0
M  V30 585 H 93.4604 4.797 -7.24003 0
M  V30 586 H 93.1904 3.69856 -5.84513 0
M  V30 587 H 94.0574 6.10356 -5.41441 0
M  V30 588 H 96.7124 4.79061 -3.27488 0
M  V30 589 H 96.9914 3.64906 -6.05785 0
M  V30 590 H 97.9834 4.8868 -5.2125 0
M  V30 591 H 96.1494 5.66726 -7.06352 0
M  V30 592 H 96.1004 1.71169 -5.60966 0
M  V30 593 H 96.7824 0.419134 0.644739 0
M  V30 594 H 96.8194 3.87332 1.06098 0
M  V30 595 H 96.9204 2.26417 1.82483 0
M  V30 596 P 98.0194 7.20834 -5.23717 0
M  V30 597 O 98.2394 8.66104 -5.38572 0
M  V30 598 O 98.8094 6.33544 -6.1349 0
M  V30 599 O 98.2694 6.7751 -3.72168 0
M  V30 600 C 97.3294 7.20825 -2.7076 0
M  V30 601 C 98.0594 7.45864 -1.40599 0
M  V30 602 O 98.2694 6.17651 -0.734225 0
M  V30 603 C 99.4594 8.05808 -1.51899 0
M  V30 604 O 99.8494 8.74358 -0.335205 0
M  V30 605 C 100.339 6.83093 -1.70294 0
M  V30 606 C 99.6294 5.79992 -0.836974 0
M  V30 607 N 99.6794 4.41864 -1.38293 0
M  V30 608 C 99.5994 3.99538 -2.69438 0
M  V30 609 N 99.6794 2.69909 -2.84277 0
M  V30 610 C 99.8194 2.21719 -1.5408 0
M  V30 611 C 99.9494 0.891712 -1.06628 0
M  V30 612 O 99.9694 -0.161298 -1.70137 0
M  V30 613 N 100.069 0.856846 0.334985 0
M  V30 614 C 100.069 1.9641 1.15789 0
M  V30 615 N 100.199 1.72708 2.46522 0
M  V30 616 N 99.9394 3.21165 0.713741 0
M  V30 617 C 99.8194 3.26797 -0.639748 0
M  V30 618 H 96.8404 8.13644 -3.0377 0
M  V30 619 H 96.5704 6.42788 -2.55485 0
M  V30 620 H 97.4374 8.12039 -0.792769 0
M  V30 621 H 100.092 5.80061 0.166416 0
M  V30 622 H 100.371 6.51287 -2.75604 0
M  V30 623 H 101.363 7.01734 -1.34462 0
M  V30 624 H 99.5294 8.73674 -2.38337 0
M  V30 625 H 99.4804 4.68207 -3.53221 0
M  V30 626 H 100.162 -0.0398818 0.767965 0
M  V30 627 H 100.199 2.50995 3.13503 0
M  V30 628 H 100.3 0.759148 2.80716 0
M  V30 629 P 101.399 8.91 -6.54696e-15 0
M  V30 630 O 101.619 10.1746 0.733838 0
M  V30 631 O 102.189 8.73346 -1.23964 0
M  V30 632 O 101.649 7.66872 0.971405 0
M  V30 633 C 100.709 7.42405 2.04668 0
M  V30 634 C 101.439 6.86059 3.24661 0
M  V30 635 O 101.649 5.42934 3.03695 0
M  V30 636 C 102.839 7.41287 3.50796 0
M  V30 637 O 103.229 7.27073 4.86816 0
M  V30 638 C 103.719 6.5273 2.63741 0
M  V30 639 C 103.009 5.1842 2.73198 0
M  V30 640 N 103.059 4.38762 1.4784 0
M  V30 641 C 102.979 4.83651 0.183876 0
M  V30 642 N 103.049 3.88759 -0.699393 0
M  V30 643 C 103.199 2.7404 0.0575568 0
M  V30 644 C 103.329 1.37902 -0.293928 0
M  V30 645 N 103.339 0.938021 -1.54797 0
M  V30 646 N 103.449 0.491817 0.70549 0
M  V30 647 C 103.439 0.931735 1.95979 0
M  V30 648 N 103.319 2.16017 2.41481 0
M  V30 649 C 103.199 3.02547 1.39121 0
M  V30 650 H 100.221 8.36899 2.3252 0
M  V30 651 H 99.9494 6.70391 1.71179 0
M  V30 652 H 100.817 7.03638 4.13219 0
M  V30 653 H 103.472 4.59931 3.54016 0
M  V30 654 H 103.752 6.88995 1.59871 0
M  V30 655 H 104.743 6.4684 3.0373 0
M  V30 656 H 102.909 8.47002 3.20749 0
M  V30 657 H 102.868 5.8885 -0.0765548 0
M  V30 658 H 103.249 1.60276 -2.32875 0
M  V30 659 H 103.438 -0.0699355 -1.73859 0
M  V30 660 H 103.546 0.165507 2.71897 0
M  V30 661 P 104.779 7.20834 5.23717 0
M  V30 662 O 104.999 7.79853 6.57286 0
M  V30 663 O 105.569 7.79239 4.12957 0
M  V30 664 O 105.029 5.63315 5.29344 0
M  V30 665 C 104.089 4.80255 6.01876 0
M  V30 666 C 104.819 3.64202 6.65911 0
M  V30 667 O 105.029 2.60694 5.64732 0
M  V30 668 C 106.219 3.93473 7.1943 0
M  V30 669 O 106.609 3.02071 8.21205 0
M  V30 670 C 107.099 3.73047 5.97036 0
M  V30 671 C 106.389 2.58828 5.25741 0
M  V30 672 N 106.439 2.68068 3.77503 0
M  V30 673 H 103.6 5.40332 6.79951 0
M  V30 674 H 103.33 4.41613 5.32378 0
M  V30 675 H 104.197 3.26331 7.47797 0
M  V30 676 P 108.159 2.75334 8.47391 0
M  V30 677 O 108.379 2.44571 9.90142 0
M  V30 678 O 108.949 3.87688 7.92115 0
M  V30 679 O 108.409 1.4459 7.59357 0
M  V30 680 C 107.469 0.347608 7.69215 0
M  V30 681 C 108.199 -0.96767 7.52806 0
M  V30 682 O 108.409 -1.21036 6.1011 0
M  V30 683 C 109.599 -1.04544 8.13308 0
M  V30 684 O 109.989 -2.38311 8.41922 0
M  V30 685 C 110.479 -0.491279 7.02284 0
M  V30 686 C 109.769 -0.996264 5.77469 0
M  V30 687 N 109.819 -0.0501916 4.62973 0
M  V30 688 H 106.98 0.374722 8.67691 0
M  V30 689 H 106.71 0.443485 6.90277 0
M  V30 690 H 107.577 -1.75537 7.96793 0
M  V30 691 P 111.539 -2.75334 8.47391 0
M  V30 692 O 111.759 -3.84204 9.44982 0
M  V30 693 O 112.329 -1.51982 8.68909 0
M  V30 694 O 111.789 -3.29363 6.99321 0
M  V30 695 C 110.849 -4.24066 6.42823 0
M  V30 696 C 111.579 -5.20775 5.52155 0
M  V30 697 O 111.789 -4.56607 4.22514 0
M  V30 698 C 112.979 -5.62697 5.96604 0
M  V30 699 O 113.369 -6.87667 5.41053 0
M  V30 700 C 113.859 -4.52537 5.39283 0
M  V30 701 C 113.149 -4.20027 4.08623 0
M  V30 702 N 113.199 -2.76189 3.71603 0
M  V30 703 C 113.119 -1.66944 4.54297 0
M  V30 704 N 113.189 -0.536169 3.91344 0
M  V30 705 C 113.339 -0.901569 2.58849 0
M  V30 706 C 113.469 -0.146599 1.40236 0
M  V30 707 N 113.479 1.18234 1.37046 0
M  V30 708 N 113.589 -0.822941 0.249738 0
M  V30 709 C 113.579 -2.15179 0.280525 0
M  V30 710 N 113.459 -2.96414 1.30822 0
M  V30 711 C 113.339 -2.25804 2.44748 0
M  V30 712 H 110.361 -4.79756 7.24086 0
M  V30 713 H 110.089 -3.69963 5.84682 0
M  V30 714 H 110.957 -6.10431 5.41508 0
M  V30 715 H 113.612 -4.78816 3.28024 0
M  V30 716 H 113.892 -3.64957 6.05871 0
M  V30 717 H 114.883 -4.88748 5.21323 0
M  V30 718 H 113.049 -5.66789 7.0643 0
M  V30 719 H 113.008 -1.74684 5.62396 0
M  V30 720 H 113.389 1.71949 2.24394 0
M  V30 721 H 113.578 1.67511 0.470742 0
M  V30 722 H 113.686 -2.63704 -0.6828 0
M  V30 723 P 114.919 -7.20834 5.23717 0
M  V30 724 O 115.139 -8.66104 5.38572 0
M  V30 725 O 115.709 -6.33544 6.1349 0
M  V30 726 O 115.169 -6.7751 3.72168 0
M  V30 727 C 114.229 -7.20825 2.7076 0
M  V30 728 C 114.959 -7.45864 1.40599 0
M  V30 729 O 115.169 -6.17651 0.734225 0
M  V30 730 C 116.359 -8.05808 1.51899 0
M  V30 731 O 116.749 -8.74358 0.335205 0
M  V30 732 C 117.239 -6.83093 1.70294 0
M  V30 733 C 116.529 -5.79992 0.836974 0
M  V30 734 N 116.579 -4.41864 1.38293 0
M  V30 735 H 113.74 -8.13644 3.0377 0
M  V30 736 H 113.47 -6.42788 2.55485 0
M  V30 737 H 114.337 -8.12039 0.792769 0
M  V30 738 P 118.299 -8.91 7.63812e-15 0
M  V30 739 O 118.519 -10.1726 -0.733694 0
M  V30 740 O 119.089 -8.73148 1.23936 0
M  V30 741 O 118.549 -7.66872 -0.971405 0
M  V30 742 C 117.609 -7.42309 -2.04641 0
M  V30 743 C 118.339 -6.86059 -3.24661 0
M  V30 744 O 118.549 -5.42847 -3.03646 0
M  V30 745 C 119.739 -7.41196 -3.50753 0
M  V30 746 O 120.129 -7.27073 -4.86816 0
M  V30 747 C 120.619 -6.5273 -2.63741 0
M  V30 748 C 119.909 -5.1842 -2.73198 0
M  V30 749 N 119.959 -4.38762 -1.4784 0
M  V30 750 H 117.12 -8.36803 -2.32493 0
M  V30 751 H 116.85 -6.70197 -1.71129 0
M  V30 752 H 117.717 -7.03551 -4.13168 0
M  V30 753 P 121.679 -7.20834 -5.23717 0
M  V30 754 O 121.899 -7.7993 -6.57351 0
M  V30 755 O 122.469 -7.79328 -4.13004 0
M  V30 756 O 121.929 -5.63315 -5.29344 0
M  V30 757 C 120.989 -4.80193 -6.01798 0
M  V30 758 C 121.719 -3.64202 -6.65911 0
M  V30 759 O 121.929 -2.60694 -5.64732 0
M  V30 760 C 123.119 -3.93473 -7.1943 0
M  V30 761 O 123.509 -3.02071 -8.21205 0
M  V30 762 C 123.999 -3.73047 -5.97036 0
M  V30 763 C 123.289 -2.58828 -5.25741 0
M  V30 764 N 123.339 -2.6801 -3.77422 0
M  V30 765 C 123.489 -1.50443 -3.07133 0
M  V30 766 O 123.579 -0.419406 -3.61576 0
M  V30 767 N 123.529 -1.6403 -1.69677 0
M  V30 768 C 123.439 -2.81206 -0.986255 0
M  V30 769 O 123.489 -2.80892 0.249754 0
M  V30 770 C 123.289 -3.99158 -1.80325 0
M  V30 771 C 123.179 -5.29309 -1.06921 0
M  V30 772 C 123.239 -3.89779 -3.1476 0
M  V30 773 H 120.499 -5.40332 -6.79951 0
M  V30 774 H 120.23 -4.41549 -5.32301 0
M  V30 775 H 121.097 -3.26331 -7.47797 0
M  V30 776 H 123.752 -1.6395 -5.56554 0
M  V30 777 H 124.031 -4.63439 -5.3432 0
M  V30 778 H 125.023 -3.44728 -6.25838 0
M  V30 779 H 123.189 -4.96652 -7.57263 0
M  V30 780 H 123.118 -4.80159 -3.74441 0
M  V30 781 H 124.148 -5.81459 -1.09608 0
M  V30 782 H 122.411 -5.9187 -1.54487 0
M  V30 783 H 122.899 -5.10095 -0.0220288 0
M  V30 784 H 123.635 -0.798962 -1.16664 0
M  V30 785 P 125.059 -2.75334 -8.47391 0
M  V30 786 O 125.279 -2.44571 -9.90142 0
M  V30 787 O 125.849 -3.87688 -7.92115 0
M  V30 788 O 125.309 -1.4459 -7.59357 0
M  V30 789 C 124.369 -0.347608 -7.69215 0
M  V30 790 C 125.099 0.96767 -7.52806 0
M  V30 791 O 125.309 1.21036 -6.1011 0
M  V30 792 C 126.499 1.04544 -8.13308 0
M  V30 793 O 126.889 2.38311 -8.41922 0
M  V30 794 C 127.379 0.491279 -7.02284 0
M  V30 795 C 126.669 0.996264 -5.77469 0
M  V30 796 N 126.719 0.0501916 -4.62973 0
M  V30 797 H 123.88 -0.374722 -8.67691 0
M  V30 798 H 123.61 -0.443485 -6.90277 0
M  V30 799 H 124.477 1.75537 -7.96793 0
M  V30 800 P 128.439 2.75334 -8.47391 0
M  V30 801 O 128.659 3.84128 -9.44797 0
M  V30 802 O 129.229 1.51947 -8.68712 0
M  V30 803 O 128.689 3.29363 -6.99321 0
M  V30 804 C 127.749 4.24011 -6.4274 0
M  V30 805 C 128.479 5.20775 -5.52155 0
M  V30 806 O 128.689 4.56534 -4.22446 0
M  V30 807 C 129.879 5.62629 -5.96531 0
M  V30 808 O 130.269 6.87667 -5.41053 0
M  V30 809 C 130.759 4.52537 -5.39283 0
M  V30 810 C 130.049 4.20027 -4.08623 0
M  V30 811 N 130.099 2.76189 -3.71603 0
M  V30 812 H 127.26 4.797 -7.24003 0
M  V30 813 H 126.99 3.69856 -5.84513 0
M  V30 814 H 127.857 6.10356 -5.41441 0
M  V30 815 P 131.819 7.20834 -5.23717 0
M  V30 816 O 132.039 8.66104 -5.38572 0
M  V30 817 O 132.609 6.33544 -6.1349 0
M  V30 818 O 132.069 6.7751 -3.72168 0
M  V30 819 C 131.129 7.20825 -2.7076 0
M  V30 820 C 131.859 7.45864 -1.40599 0
M  V30 821 O 132.069 6.17651 -0.734225 0
M  V30 822 C 133.259 8.05808 -1.51899 0
M  V30 823 O 133.649 8.74358 -0.335205 0
M  V30 824 C 134.139 6.83093 -1.70294 0
M  V30 825 C 133.429 5.79992 -0.836974 0
M  V30 826 N 133.479 4.41864 -1.38293 0
M  V30 827 H 130.64 8.13644 -3.0377 0
M  V30 828 H 130.37 6.42788 -2.55485 0
M  V30 829 H 131.237 8.12039 -0.792769 0
M  V30 830 P 135.199 8.91 -8.72928e-15 0
M  V30 831 O 135.419 10.1726 0.733694 0
M  V30 832 O 135.989 8.73148 -1.23936 0
M  V30 833 O 135.449 7.66872 0.971405 0
M  V30 834 C 134.509 7.42309 2.04641 0
M  V30 835 C 135.239 6.86059 3.24661 0
M  V30 836 O 135.449 5.42847 3.03646 0
M  V30 837 C 136.639 7.41196 3.50753 0
M  V30 838 O 137.029 7.27073 4.86816 0
M  V30 839 C 137.519 6.5273 2.63741 0
M  V30 840 C 136.809 5.1842 2.73198 0
M  V30 841 N 136.859 4.38762 1.4784 0
M  V30 842 H 134.02 8.36803 2.32493 0
M  V30 843 H 133.75 6.70197 1.71129 0
M  V30 844 H 134.617 7.03551 4.13168 0
M  V30 845 P 138.579 7.20834 5.23717 0
M  V30 846 O 138.799 7.80006 6.57415 0
M  V30 847 O 139.369 7.79416 4.13051 0
M  V30 848 O 138.829 5.63315 5.29344 0
M  V30 849 C 137.889 4.80318 6.01954 0
M  V30 850 C 138.619 3.64202 6.65911 0
M  V30 851 O 138.829 2.60736 5.64823 0
M  V30 852 C 140.019 3.93521 7.19518 0
M  V30 853 O 140.409 3.02071 8.21205 0
M  V30 854 C 140.899 3.73047 5.97036 0
M  V30 855 C 140.189 2.58828 5.25741 0
M  V30 856 N 140.239 2.68068 3.77503 0
M  V30 857 C 140.159 3.80474 2.99159 0
M  V30 858 N 140.229 3.55622 1.71925 0
M  V30 859 C 140.379 2.1832 1.65733 0
M  V30 860 C 140.509 1.28842 0.572777 0
M  V30 861 N 140.519 1.66875 -0.70098 0
M  V30 862 N 140.629 -0.016788 0.859836 0
M  V30 863 C 140.619 -0.398145 2.13316 0
M  V30 864 N 140.499 0.328224 3.22333 0
M  V30 865 C 140.379 1.62992 2.90383 0
M  V30 866 H 137.401 5.40394 6.8003 0
M  V30 867 H 137.129 4.41741 5.32532 0
M  V30 868 H 137.997 3.26371 7.47889 0
M  V30 869 H 140.652 1.64007 5.56746 0
M  V30 870 H 140.932 4.63439 5.3432 0
M  V30 871 H 141.923 3.44776 6.25925 0
M  V30 872 H 140.089 4.96707 7.57347 0
M  V30 873 H 140.048 4.8089 3.39924 0
M  V30 874 H 140.429 2.66547 -0.941919 0
M  V30 875 H 140.618 0.965341 -1.44766 0
M  V30 876 H 140.726 -1.46427 2.29697 0
M  V30 877 P 141.959 2.75334 8.47391 0
M  V30 878 O 142.179 2.44571 9.90142 0
M  V30 879 O 142.749 3.87688 7.92115 0
M  V30 880 O 142.209 1.4459 7.59357 0
M  V30 881 C 141.269 0.347608 7.69215 0
M  V30 882 C 141.999 -0.96767 7.52806 0
M  V30 883 O 142.209 -1.21036 6.1011 0
M  V30 884 C 143.399 -1.04544 8.13308 0
M  V30 885 O 143.789 -2.38311 8.41922 0
M  V30 886 C 144.279 -0.491279 7.02284 0
M  V30 887 C 143.569 -0.996264 5.77469 0
M  V30 888 N 143.619 -0.0501916 4.62973 0
M  V30 889 H 140.78 0.374722 8.67691 0
M  V30 890 H 140.51 0.443485 6.90277 0
M  V30 891 H 141.377 -1.75537 7.96793 0
M  V30 892 P 145.339 -2.75334 8.47391 0
M  V30 893 O 145.559 -3.84204 9.44982 0
M  V30 894 O 146.129 -1.51982 8.68909 0
M  V30 895 O 145.589 -3.29363 6.99321 0
M  V30 896 C 144.649 -4.24066 6.42823 0
M  V30 897 C 145.379 -5.20775 5.52155 0
M  V30 898 O 145.589 -4.56607 4.22514 0
M  V30 899 C 146.779 -5.62697 5.96604 0
M  V30 900 O 147.169 -6.87667 5.41053 0
M  V30 901 C 147.659 -4.52537 5.39283 0
M  V30 902 C 146.949 -4.20027 4.08623 0
M  V30 903 N 146.999 -2.76189 3.71603 0
M  V30 904 C 146.919 -1.66944 4.54297 0
M  V30 905 N 146.989 -0.536169 3.91344 0
M  V30 906 C 147.139 -0.901569 2.58849 0
M  V30 907 C 147.269 -0.146599 1.40236 0
M  V30 908 N 147.279 1.18234 1.37046 0
M  V30 909 N 147.389 -0.822941 0.249738 0
M  V30 910 C 147.379 -2.15179 0.280525 0
M  V30 911 N 147.259 -2.96414 1.30822 0
M  V30 912 C 147.139 -2.25804 2.44748 0
M  V30 913 H 144.161 -4.79756 7.24086 0
M  V30 914 H 143.889 -3.69963 5.84682 0
M  V30 915 H 144.757 -6.10431 5.41508 0
M  V30 916 H 147.412 -4.78816 3.28024 0
M  V30 917 H 147.692 -3.64957 6.05871 0
M  V30 918 H 148.683 -4.88748 5.21323 0
M  V30 919 H 146.849 -5.66789 7.0643 0
M  V30 920 H 146.808 -1.74684 5.62396 0
M  V30 921 H 147.189 1.71949 2.24394 0
M  V30 922 H 147.378 1.67511 0.470742 0
M  V30 923 H 147.486 -2.63704 -0.6828 0
M  V30 924 P 148.719 -7.20834 5.23717 0
M  V30 925 O 148.939 -8.66104 5.38572 0
M  V30 926 O 149.509 -6.33544 6.1349 0
M  V30 927 O 148.969 -6.7751 3.72168 0
M  V30 928 C 148.029 -7.20825 2.7076 0
M  V30 929 C 148.759 -7.45864 1.40599 0
M  V30 930 O 148.969 -6.17651 0.734225 0
M  V30 931 C 150.159 -8.05808 1.51899 0
M  V30 932 O 150.549 -8.74358 0.335205 0
M  V30 933 C 151.039 -6.83093 1.70294 0
M  V30 934 C 150.329 -5.79992 0.836974 0
M  V30 935 N 150.379 -4.41864 1.38293 0
M  V30 936 H 147.54 -8.13644 3.0377 0
M  V30 937 H 147.27 -6.42788 2.55485 0
M  V30 938 H 148.137 -8.12039 0.792769 0
M  V30 939 P 152.099 -8.91 9.82044e-15 0
M  V30 940 O 152.319 -10.1726 -0.733694 0
M  V30 941 O 152.889 -8.73148 1.23936 0
M  V30 942 O 152.349 -7.66872 -0.971405 0
M  V30 943 C 151.409 -7.42309 -2.04641 0
M  V30 944 C 152.139 -6.86059 -3.24661 0
M  V30 945 O 152.349 -5.42847 -3.03646 0
M  V30 946 C 153.539 -7.41196 -3.50753 0
M  V30 947 O 153.929 -7.27073 -4.86816 0
M  V30 948 C 154.419 -6.5273 -2.63741 0
M  V30 949 C 153.709 -5.1842 -2.73198 0
M  V30 950 N 153.759 -4.38762 -1.4784 0
M  V30 951 C 153.679 -4.81605 -0.168631 0
M  V30 952 N 153.759 -3.85454 0.713363 0
M  V30 953 C 153.899 -2.6994 -0.0566958 0
M  V30 954 C 154.029 -1.34815 0.338502 0
M  V30 955 O 154.049 -0.869548 1.47125 0
M  V30 956 N 154.149 -0.496304 -0.77465 0
M  V30 957 C 154.149 -0.908403 -2.09122 0
M  V30 958 N 154.279 0.0517805 -3.00955 0
M  V30 959 N 154.019 -2.17875 -2.46519 0
M  V30 960 C 153.899 -3.01988 -1.4033 0
M  V30 961 H 150.92 -8.36803 -2.32493 0
M  V30 962 H 150.65 -6.70197 -1.71129 0
M  V30 963 H 151.517 -7.03551 -4.13168 0
M  V30 964 H 154.172 -4.59498 -3.54415 0
M  V30 965 H 154.451 -6.88898 -1.59848 0
M  V30 966 H 155.443 -6.46749 -3.03687 0
M  V30 967 H 153.609 -8.46908 -3.20714 0
M  V30 968 H 153.56 -5.86405 0.105564 0
M  V30 969 H 154.242 0.483664 -0.597855 0
M  V30 970 H 154.279 -0.187865 -4.0116 0
M  V30 971 H 154.38 1.03585 -2.71726 0
M  V30 972 P 155.479 -7.20834 -5.23717 0
M  V30 973 O 155.699 -7.80006 -6.57415 0
M  V30 974 O 156.269 -7.79416 -4.13051 0
M  V30 975 O 155.729 -5.63315 -5.29344 0
M  V30 976 C 154.789 -4.80318 -6.01954 0
M  V30 977 C 155.519 -3.64202 -6.65911 0
M  V30 978 O 155.729 -2.60736 -5.64823 0
M  V30 979 C 156.919 -3.93521 -7.19518 0
M  V30 980 O 157.309 -3.02071 -8.21205 0
M  V30 981 C 157.799 -3.73047 -5.97036 0
M  V30 982 C 157.089 -2.58828 -5.25741 0
M  V30 983 N 157.139 -2.68068 -3.77503 0
M  V30 984 H 154.301 -5.40394 -6.8003 0
M  V30 985 H 154.029 -4.41741 -5.32532 0
M  V30 986 H 154.897 -3.26371 -7.47889 0
M  V30 987 H 157.552 -1.64007 -5.56746 0
M  V30 988 H 157.832 -4.63439 -5.3432 0
M  V30 989 H 158.823 -3.44776 -6.25925 0
M  V30 990 H 156.989 -4.96707 -7.57347 0
M  V30 991 P 158.859 -2.75334 -8.47391 0
M  V30 992 O 159.079 -2.44571 -9.90142 0
M  V30 993 O 159.649 -3.87688 -7.92115 0
M  V30 994 O 159.109 -1.4459 -7.59357 0
M  V30 995 C 158.169 -0.347608 -7.69215 0
M  V30 996 C 158.899 0.96767 -7.52806 0
M  V30 997 O 159.109 1.21036 -6.1011 0
M  V30 998 C 160.299 1.04544 -8.13308 0
M  V30 999 O 160.689 2.38311 -8.41922 0
M  V30 1000 C 161.179 0.491279 -7.02284 0
M  V30 1001 C 160.469 0.996264 -5.77469 0
M  V30 1002 N 160.519 0.0501916 -4.62973 0
M  V30 1003 C 160.439 -1.32786 -4.63244 0
M  V30 1004 N 160.519 -1.86957 -3.44545 0
M  V30 1005 C 160.659 -0.780241 -2.58481 0
M  V30 1006 C 160.789 -0.738536 -1.17757 0
M  V30 1007 N 160.909 0.58337 -0.711393 0
M  V30 1008 C 160.909 1.70816 -1.51017 0
M  V30 1009 N 161.039 2.87826 -0.880757 0
M  V30 1010 N 160.779 1.67126 -2.8339 0
M  V30 1011 C 160.659 0.401421 -3.30572 0
M  V30 1012 H 157.68 -0.374722 -8.67691 0
M  V30 1013 H 157.41 -0.443485 -6.90277 0
M  V30 1014 H 158.277 1.75537 -7.96793 0
M  V30 1015 P 162.239 2.75334 -8.47391 0
M  V30 1016 O 162.459 3.84128 -9.44797 0
M  V30 1017 O 163.029 1.51947 -8.68712 0
M  V30 1018 O 162.489 3.29363 -6.99321 0
M  V30 1019 C 161.549 4.24011 -6.4274 0
M  V30 1020 C 162.279 5.20775 -5.52155 0
M  V30 1021 O 162.489 4.56534 -4.22446 0
M  V30 1022 C 163.679 5.62629 -5.96531 0
M  V30 1023 O 164.069 6.87667 -5.41053 0
M  V30 1024 C 164.559 4.52537 -5.39283 0
M  V30 1025 C 163.849 4.20027 -4.08623 0
M  V30 1026 N 163.899 2.76189 -3.71603 0
M  V30 1027 C 163.819 1.64862 -4.52822 0
M  V30 1028 N 163.899 0.512671 -3.88633 0
M  V30 1029 C 164.039 0.888083 -2.54977 0
M  V30 1030 C 164.169 0.094668 -1.38677 0
M  V30 1031 O 164.189 -1.13053 -1.28163 0
M  V30 1032 N 164.289 0.890102 -0.232633 0
M  V30 1033 C 164.289 2.26958 -0.21772 0
M  V30 1034 N 164.419 2.84626 0.97925 0
M  V30 1035 N 164.159 3.0178 -1.31033 0
M  V30 1036 C 164.039 2.26781 -2.43843 0
M  V30 1037 H 161.06 4.797 -7.24003 0
M  V30 1038 H 160.79 3.69856 -5.84513 0
M  V30 1039 H 161.657 6.10356 -5.41441 0
M  V30 1040 H 164.312 4.79061 -3.27488 0
M  V30 1041 H 164.591 3.64906 -6.05785 0
M  V30 1042 H 165.583 4.8868 -5.2125 0
M  V30 1043 H 163.749 5.66726 -7.06352 0
M  V30 1044 H 163.7 1.71169 -5.60966 0
M  V30 1045 H 164.382 0.419134 0.644739 0
M  V30 1046 H 164.419 3.87332 1.06098 0
M  V30 1047 H 164.52 2.26417 1.82483 0
M  V30 1048 P 165.619 7.20834 -5.23717 0
M  V30 1049 O 165.839 8.66104 -5.38572 0
M  V30 1050 O 166.409 6.33544 -6.1349 0
M  V30 1051 O 165.869 6.7751 -3.72168 0
M  V30 1052 C 164.929 7.20825 -2.7076 0
M  V30 1053 C 165.659 7.45864 -1.40599 0
M  V30 1054 O 165.869 6.17651 -0.734225 0
M  V30 1055 C 167.059 8.05808 -1.51899 0
M  V30 1056 O 167.449 8.74358 -0.335205 0
M  V30 1057 C 167.939 6.83093 -1.70294 0
M  V30 1058 C 167.229 5.79992 -0.836974 0
M  V30 1059 N 167.279 4.41864 -1.38293 0
M  V30 1060 H 164.44 8.13644 -3.0377 0
M  V30 1061 H 164.17 6.42788 -2.55485 0
M  V30 1062 H 165.037 8.12039 -0.792769 0
M  V30 1063 P 168.999 8.91 -1.09116e-14 0
M  V30 1064 O 169.219 10.1726 0.733694 0
M  V30 1065 O 169.789 8.73148 -1.23936 0
M  V30 1066 O 169.249 7.66872 0.971405 0
M  V30 1067 C 168.309 7.42309 2.04641 0
M  V30 1068 C 169.039 6.86059 3.24661 0
M  V30 1069 O 169.249 5.42847 3.03646 0
M  V30 1070 C 170.439 7.41196 3.50753 0
M  V30 1071 O 170.829 7.27073 4.86816 0
M  V30 1072 C 171.319 6.5273 2.63741 0
M  V30 1073 C 170.609 5.1842 2.73198 0
M  V30 1074 N 170.659 4.38762 1.4784 0
M  V30 1075 H 167.82 8.36803 2.32493 0
M  V30 1076 H 167.55 6.70197 1.71129 0
M  V30 1077 H 168.417 7.03551 4.13168 0
M  V30 1078 P 172.379 7.20834 5.23717 0
M  V30 1079 O 172.599 7.80006 6.57415 0
M  V30 1080 O 173.169 7.79416 4.13051 0
M  V30 1081 O 172.629 5.63315 5.29344 0
M  V30 1082 C 171.689 4.80318 6.01954 0
M  V30 1083 C 172.419 3.64202 6.65911 0
M  V30 1084 O 172.629 2.60736 5.64823 0
M  V30 1085 C 173.819 3.93521 7.19518 0
M  V30 1086 O 174.209 3.02071 8.21205 0
M  V30 1087 C 174.699 3.73047 5.97036 0
M  V30 1088 C 173.989 2.58828 5.25741 0
M  V30 1089 N 174.039 2.68068 3.77503 0
M  V30 1090 C 173.959 3.80474 2.99159 0
M  V30 1091 N 174.029 3.55622 1.71925 0
M  V30 1092 C 174.179 2.1832 1.65733 0
M  V30 1093 C 174.309 1.28842 0.572777 0
M  V30 1094 N 174.319 1.66875 -0.70098 0
M  V30 1095 N 174.429 -0.016788 0.859836 0
M  V30 1096 C 174.419 -0.398145 2.13316 0
M  V30 1097 N 174.299 0.328224 3.22333 0
M  V30 1098 C 174.179 1.62992 2.90383 0
M  V30 1099 H 171.201 5.40394 6.8003 0
M  V30 1100 H 170.929 4.41741 5.32532 0
M  V30 1101 H 171.797 3.26371 7.47889 0
M  V30 1102 H 174.452 1.64007 5.56746 0
M  V30 1103 H 174.732 4.63439 5.3432 0
M  V30 1104 H 175.723 3.44776 6.25925 0
M  V30 1105 H 173.889 4.96707 7.57347 0
M  V30 1106 H 173.848 4.8089 3.39924 0
M  V30 1107 H 174.229 2.66547 -0.941919 0
M  V30 1108 H 174.418 0.965341 -1.44766 0
M  V30 1109 H 174.526 -1.46427 2.29697 0
M  V30 1110 P 175.759 2.75334 8.47391 0
M  V30 1111 O 175.979 2.44619 9.90336 0
M  V30 1112 O 176.549 3.87776 7.92294 0
M  V30 1113 O 176.009 1.4459 7.59357 0
M  V30 1114 C 175.069 0.347653 7.69315 0
M  V30 1115 C 175.799 -0.96767 7.52806 0
M  V30 1116 O 176.009 -1.21055 6.10208 0
M  V30 1117 C 177.199 -1.04557 8.13408 0
M  V30 1118 O 177.589 -2.38311 8.41922 0
M  V30 1119 C 178.079 -0.491279 7.02284 0
M  V30 1120 C 177.369 -0.996264 5.77469 0
M  V30 1121 N 177.419 -0.0501916 4.62973 0
M  V30 1122 C 177.339 1.31969 4.65661 0
M  V30 1123 N 177.409 1.86649 3.48119 0
M  V30 1124 C 177.559 0.792089 2.62406 0
M  V30 1125 C 177.689 0.705684 1.2207 0
M  V30 1126 N 177.699 1.76207 0.413762 0
M  V30 1127 N 177.809 -0.518981 0.685754 0
M  V30 1128 C 177.799 -1.57595 1.49174 0
M  V30 1129 N 177.679 -1.62909 2.80066 0
M  V30 1130 C 177.559 -0.388195 3.3073 0
M  V30 1131 H 174.581 0.374765 8.67791 0
M  V30 1132 H 174.309 0.443613 6.90476 0
M  V30 1133 H 175.177 -1.75559 7.96891 0
M  V30 1134 H 177.832 -1.94563 5.46818 0
M  V30 1135 H 178.112 0.608651 7.04676 0
M  V30 1136 H 179.103 -0.889796 7.09039 0
M  V30 1137 H 177.269 -0.433128 9.04664 0
M  V30 1138 H 177.228 1.89246 5.57664 0
M  V30 1139 H 177.609 2.71005 0.804694 0
M  V30 1140 H 177.798 1.63189 -0.603768 0
M  V30 1141 H 177.906 -2.53475 0.997614 0
M  V30 1142 P 179.139 -2.75334 8.47391 0
M  V30 1143 O 179.359 -3.84128 9.44797 0
M  V30 1144 O 179.929 -1.51947 8.68712 0
M  V30 1145 O 179.389 -3.29363 6.99321 0
M  V30 1146 C 178.449 -4.24011 6.4274 0
M  V30 1147 C 179.179 -5.20775 5.52155 0
M  V30 1148 O 179.389 -4.56534 4.22446 0
M  V30 1149 C 180.579 -5.62629 5.96531 0
M  V30 1150 O 180.969 -6.87667 5.41053 0
M  V30 1151 C 181.459 -4.52537 5.39283 0
M  V30 1152 C 180.749 -4.20027 4.08623 0
M  V30 1153 N 180.799 -2.76189 3.71603 0
M  V30 1154 H 177.96 -4.797 7.24003 0
M  V30 1155 H 177.69 -3.69856 5.84513 0
M  V30 1156 H 178.557 -6.10356 5.41441 0
M  V30 1157 P 182.519 -7.20834 5.23717 0
M  V30 1158 O 182.739 -8.66274 5.38678 0
M  V30 1159 O 183.309 -6.33687 6.13629 0
M  V30 1160 O 182.769 -6.7751 3.72168 0
M  V30 1161 C 181.829 -7.20919 2.70795 0
M  V30 1162 C 182.559 -7.45864 1.40599 0
M  V30 1163 O 182.769 -6.17751 0.734343 0
M  V30 1164 C 183.959 -8.05906 1.51917 0
M  V30 1165 O 184.349 -8.74358 0.335205 0
M  V30 1166 C 184.839 -6.83093 1.70294 0
M  V30 1167 C 184.129 -5.79992 0.836974 0
M  V30 1168 N 184.179 -4.41864 1.38293 0
M  V30 1169 C 184.099 -4.02089 2.69407 0
M  V30 1170 N 184.169 -2.73403 2.85089 0
M  V30 1171 C 184.319 -2.25086 1.5642 0
M  V30 1172 C 184.449 -0.942887 1.04836 0
M  V30 1173 N 184.459 0.150999 1.80369 0
M  V30 1174 N 184.569 -0.812565 -0.28167 0
M  V30 1175 C 184.559 -1.90572 -1.03784 0
M  V30 1176 N 184.439 -3.167 -0.683905 0
M  V30 1177 C 184.319 -3.26538 0.652815 0
M  V30 1178 H 181.341 -8.13738 3.03804 0
M  V30 1179 H 181.069 -6.42974 2.55559 0
M  V30 1180 H 181.937 -8.12139 0.792866 0
M  V30 1181 H 184.592 -5.80178 -0.160643 0
M  V30 1182 H 184.872 -6.51379 2.75643 0
M  V30 1183 H 185.863 -7.01832 1.3448 0
M  V30 1184 H 184.029 -8.73771 2.38364 0
M  V30 1185 H 183.988 -4.7189 3.52311 0
M  V30 1186 H 184.369 0.0721434 2.82608 0
M  V30 1187 H 184.558 1.0785 1.36544 0
M  V30 1188 H 184.666 -1.73207 -2.10241 0
M  V30 1189 P 185.899 -8.91 -8.29613e-14 0
M  V30 1190 O 186.119 -10.1726 -0.733694 0
M  V30 1191 O 186.689 -8.73148 1.23936 0
M  V30 1192 O 186.149 -7.66872 -0.971405 0
M  V30 1193 C 185.209 -7.42309 -2.04641 0
M  V30 1194 C 185.939 -6.86059 -3.24661 0
M  V30 1195 O 186.149 -5.42847 -3.03646 0
M  V30 1196 C 187.339 -7.41196 -3.50753 0
M  V30 1197 O 187.729 -7.27073 -4.86816 0
M  V30 1198 C 188.219 -6.5273 -2.63741 0
M  V30 1199 C 187.509 -5.1842 -2.73198 0
M  V30 1200 N 187.559 -4.38762 -1.4784 0
M  V30 1201 H 184.72 -8.36803 -2.32493 0
M  V30 1202 H 184.45 -6.70197 -1.71129 0
M  V30 1203 H 185.317 -7.03551 -4.13168 0
M  V30 1204 P 189.279 -7.20834 -5.23717 0
M  V30 1205 O 189.499 -7.80006 -6.57415 0
M  V30 1206 O 190.069 -7.79416 -4.13051 0
M  V30 1207 O 189.529 -5.63315 -5.29344 0
M  V30 1208 C 188.589 -4.80318 -6.01954 0
M  V30 1209 C 189.319 -3.64202 -6.65911 0
M  V30 1210 O 189.529 -2.60736 -5.64823 0
M  V30 1211 C 190.719 -3.93521 -7.19518 0
M  V30 1212 O 191.109 -3.02071 -8.21205 0
M  V30 1213 C 191.599 -3.73047 -5.97036 0
M  V30 1214 C 190.889 -2.58828 -5.25741 0
M  V30 1215 N 190.939 -2.68068 -3.77503 0
M  V30 1216 C 190.859 -3.80474 -2.99159 0
M  V30 1217 N 190.929 -3.55622 -1.71925 0
M  V30 1218 C 191.079 -2.1832 -1.65733 0
M  V30 1219 C 191.209 -1.28842 -0.572777 0
M  V30 1220 N 191.219 -1.66875 0.70098 0
M  V30 1221 N 191.329 0.016788 -0.859836 0
M  V30 1222 C 191.319 0.398145 -2.13316 0
M  V30 1223 N 191.199 -0.328224 -3.22333 0
M  V30 1224 C 191.079 -1.62992 -2.90383 0
M  V30 1225 H 188.101 -5.40394 -6.8003 0
M  V30 1226 H 187.829 -4.41741 -5.32532 0
M  V30 1227 H 188.697 -3.26371 -7.47889 0
M  V30 1228 H 191.352 -1.64007 -5.56746 0
M  V30 1229 H 191.632 -4.63439 -5.3432 0
M  V30 1230 H 192.623 -3.44776 -6.25925 0
M  V30 1231 H 190.789 -4.96707 -7.57347 0
M  V30 1232 H 190.748 -4.8089 -3.39924 0
M  V30 1233 H 191.129 -2.66547 0.941919 0
M  V30 1234 H 191.318 -0.965341 1.44766 0
M  V30 1235 H 191.426 1.46427 -2.29697 0
M  V30 1236 P 192.659 -2.75334 -8.47391 0
M  V30 1237 O 192.879 -2.44619 -9.90336 0
M  V30 1238 O 193.449 -3.87776 -7.92294 0
M  V30 1239 O 192.909 -1.4459 -7.59357 0
M  V30 1240 C 191.969 -0.347653 -7.69315 0
M  V30 1241 C 192.699 0.96767 -7.52806 0
M  V30 1242 O 192.909 1.21055 -6.10208 0
M  V30 1243 C 194.099 1.04557 -8.13408 0
M  V30 1244 O 194.489 2.38311 -8.41922 0
M  V30 1245 C 194.979 0.491279 -7.02284 0
M  V30 1246 C 194.269 0.996264 -5.77469 0
M  V30 1247 N 194.319 0.0501916 -4.62973 0
M  V30 1248 C 194.239 -1.31969 -4.65661 0
M  V30 1249 N 194.309 -1.86649 -3.48119 0
M  V30 1250 C 194.459 -0.792089 -2.62406 0
M  V30 1251 C 194.589 -0.705684 -1.2207 0
M  V30 1252 N 194.599 -1.76207 -0.413762 0
M  V30 1253 N 194.709 0.518981 -0.685754 0
M  V30 1254 C 194.699 1.57595 -1.49174 0
M  V30 1255 N 194.579 1.62909 -2.80066 0
M  V30 1256 C 194.459 0.388195 -3.3073 0
M  V30 1257 H 191.481 -0.374765 -8.67791 0
M  V30 1258 H 191.209 -0.443613 -6.90476 0
M  V30 1259 H 192.077 1.75559 -7.96891 0
M  V30 1260 H 194.732 1.94563 -5.46818 0
M  V30 1261 H 195.012 -0.608651 -7.04676 0
M  V30 1262 H 196.003 0.889796 -7.09039 0
M  V30 1263 H 194.169 0.433128 -9.04664 0
M  V30 1264 H 194.128 -1.89246 -5.57664 0
M  V30 1265 H 194.509 -2.71005 -0.804694 0
M  V30 1266 H 194.698 -1.63189 0.603768 0
M  V30 1267 H 194.806 2.53475 -0.997614 0
M  V30 1268 P 196.039 2.75334 -8.47391 0
M  V30 1269 O 196.259 3.84204 -9.44982 0
M  V30 1270 O 196.829 1.51982 -8.68909 0
M  V30 1271 O 196.289 3.29363 -6.99321 0
M  V30 1272 C 195.349 4.24066 -6.42823 0
M  V30 1273 C 196.079 5.20775 -5.52155 0
M  V30 1274 O 196.289 4.56607 -4.22514 0
M  V30 1275 C 197.479 5.62697 -5.96604 0
M  V30 1276 O 197.869 6.87667 -5.41053 0
M  V30 1277 C 198.359 4.52537 -5.39283 0
M  V30 1278 C 197.649 4.20027 -4.08623 0
M  V30 1279 N 197.699 2.76189 -3.71603 0
M  V30 1280 C 197.619 1.66944 -4.54297 0
M  V30 1281 N 197.689 0.536169 -3.91344 0
M  V30 1282 C 197.839 0.901569 -2.58849 0
M  V30 1283 C 197.969 0.146599 -1.40236 0
M  V30 1284 N 197.979 -1.18234 -1.37046 0
M  V30 1285 N 198.089 0.822941 -0.249738 0
M  V30 1286 C 198.079 2.15179 -0.280525 0
M  V30 1287 N 197.959 2.96414 -1.30822 0
M  V30 1288 C 197.839 2.25804 -2.44748 0
M  V30 1289 H 194.861 4.79756 -7.24086 0
M  V30 1290 H 194.589 3.69963 -5.84682 0
M  V30 1291 H 195.457 6.10431 -5.41508 0
M  V30 1292 H 198.112 4.78816 -3.28024 0
M  V30 1293 H 198.392 3.64957 -6.05871 0
M  V30 1294 H 199.383 4.88748 -5.21323 0
M  V30 1295 H 197.549 5.66789 -7.0643 0
M  V30 1296 H 197.508 1.74684 -5.62396 0
M  V30 1297 H 197.889 -1.71949 -2.24394 0
M  V30 1298 H 198.078 -1.67511 -0.470742 0
M  V30 1299 H 198.186 2.63704 0.6828 0
M  V30 1300 P 199.419 7.20834 -5.23717 0
M  V30 1301 O 199.639 8.66104 -5.38572 0
M  V30 1302 O 200.209 6.33544 -6.1349 0
M  V30 1303 O 199.669 6.7751 -3.72168 0
M  V30 1304 C 198.729 7.20825 -2.7076 0
M  V30 1305 C 199.459 7.45864 -1.40599 0
M  V30 1306 O 199.669 6.17651 -0.734225 0
M  V30 1307 C 200.859 8.05808 -1.51899 0
M  V30 1308 O 201.249 8.74358 -0.335205 0
M  V30 1309 C 201.739 6.83093 -1.70294 0
M  V30 1310 C 201.029 5.79992 -0.836974 0
M  V30 1311 N 201.079 4.41864 -1.38293 0
M  V30 1312 H 198.24 8.13644 -3.0377 0
M  V30 1313 H 197.97 6.42788 -2.55485 0
M  V30 1314 H 198.837 8.12039 -0.792769 0
M  V30 1315 P 202.799 8.91 2.40144e-13 0
M  V30 1316 O 203.019 10.1726 0.733694 0
M  V30 1317 O 203.589 8.73148 -1.23936 0
M  V30 1318 O 203.049 7.66872 0.971405 0
M  V30 1319 C 202.109 7.42309 2.04641 0
M  V30 1320 C 202.839 6.86059 3.24661 0
M  V30 1321 O 203.049 5.42847 3.03646 0
M  V30 1322 C 204.239 7.41196 3.50753 0
M  V30 1323 O 204.629 7.27073 4.86816 0
M  V30 1324 C 205.119 6.5273 2.63741 0
M  V30 1325 C 204.409 5.1842 2.73198 0
M  V30 1326 N 204.459 4.38762 1.4784 0
M  V30 1327 H 201.62 8.36803 2.32493 0
M  V30 1328 H 201.35 6.70197 1.71129 0
M  V30 1329 H 202.217 7.03551 4.13168 0
M  V30 1330 P 206.179 7.20834 5.23717 0
M  V30 1331 O 206.399 7.79853 6.57286 0
M  V30 1332 O 206.969 7.79239 4.12957 0
M  V30 1333 O 206.429 5.63315 5.29344 0
M  V30 1334 C 205.489 4.80255 6.01876 0
M  V30 1335 C 206.219 3.64202 6.65911 0
M  V30 1336 O 206.429 2.60694 5.64732 0
M  V30 1337 C 207.619 3.93473 7.1943 0
M  V30 1338 O 208.009 3.02071 8.21205 0
M  V30 1339 C 208.499 3.73047 5.97036 0
M  V30 1340 C 207.789 2.58828 5.25741 0
M  V30 1341 N 207.839 2.68068 3.77503 0
M  V30 1342 H 205 5.40332 6.79951 0
M  V30 1343 H 204.73 4.41613 5.32378 0
M  V30 1344 H 205.597 3.26331 7.47797 0
M  V30 1345 P 209.559 2.75334 8.47391 0
M  V30 1346 O 209.779 2.44571 9.90142 0
M  V30 1347 O 210.349 3.87688 7.92115 0
M  V30 1348 O 209.809 1.4459 7.59357 0
M  V30 1349 C 208.869 0.347608 7.69215 0
M  V30 1350 C 209.599 -0.96767 7.52806 0
M  V30 1351 O 209.809 -1.21036 6.1011 0
M  V30 1352 C 210.999 -1.04544 8.13308 0
M  V30 1353 O 211.389 -2.38311 8.41922 0
M  V30 1354 C 211.879 -0.491279 7.02284 0
M  V30 1355 C 211.169 -0.996264 5.77469 0
M  V30 1356 N 211.219 -0.0501916 4.62973 0
M  V30 1357 H 208.38 0.374722 8.67691 0
M  V30 1358 H 208.11 0.443485 6.90277 0
M  V30 1359 H 208.977 -1.75537 7.96793 0
M  V30 1360 P 212.939 -2.75334 8.47391 0
M  V30 1361 O 213.159 -3.84128 9.44797 0
M  V30 1362 O 213.729 -1.51947 8.68712 0
M  V30 1363 O 213.189 -3.29363 6.99321 0
M  V30 1364 C 212.249 -4.24011 6.4274 0
M  V30 1365 C 212.979 -5.20775 5.52155 0
M  V30 1366 O 213.189 -4.56534 4.22446 0
M  V30 1367 C 214.379 -5.62629 5.96531 0
M  V30 1368 O 214.769 -6.87667 5.41053 0
M  V30 1369 C 215.259 -4.52537 5.39283 0
M  V30 1370 C 214.549 -4.20027 4.08623 0
M  V30 1371 N 214.599 -2.76189 3.71603 0
M  V30 1372 H 211.76 -4.797 7.24003 0
M  V30 1373 H 211.49 -3.69856 5.84513 0
M  V30 1374 H 212.357 -6.10356 5.41441 0
M  V30 1375 P 216.319 -7.20834 5.23717 0
M  V30 1376 O 216.539 -8.66104 5.38572 0
M  V30 1377 O 217.109 -6.33544 6.1349 0
M  V30 1378 O 216.569 -6.7751 3.72168 0
M  V30 1379 C 215.629 -7.20825 2.7076 0
M  V30 1380 C 216.359 -7.45864 1.40599 0
M  V30 1381 O 216.569 -6.17651 0.734225 0
M  V30 1382 C 217.759 -8.05808 1.51899 0
M  V30 1383 O 218.149 -8.74358 0.335205 0
M  V30 1384 C 218.639 -6.83093 1.70294 0
M  V30 1385 C 217.929 -5.79992 0.836974 0
M  V30 1386 N 217.979 -4.41864 1.38293 0
M  V30 1387 C 217.899 -3.99538 2.69438 0
M  V30 1388 N 217.979 -2.69909 2.84277 0
M  V30 1389 C 218.119 -2.21719 1.5408 0
M  V30 1390 C 218.249 -0.891712 1.06628 0
M  V30 1391 O 218.269 0.161298 1.70137 0
M  V30 1392 N 218.369 -0.856846 -0.334985 0
M  V30 1393 C 218.369 -1.9641 -1.15789 0
M  V30 1394 N 218.499 -1.72708 -2.46522 0
M  V30 1395 N 218.239 -3.21165 -0.713741 0
M  V30 1396 C 218.119 -3.26797 0.639748 0
M  V30 1397 H 215.14 -8.13644 3.0377 0
M  V30 1398 H 214.87 -6.42788 2.55485 0
M  V30 1399 H 215.737 -8.12039 0.792769 0
M  V30 1400 H 218.392 -5.80061 -0.166416 0
M  V30 1401 H 218.671 -6.51287 2.75604 0
M  V30 1402 H 219.663 -7.01734 1.34462 0
M  V30 1403 H 217.829 -8.73674 2.38337 0
M  V30 1404 H 217.78 -4.68207 3.53221 0
M  V30 1405 H 218.462 0.0398818 -0.767965 0
M  V30 1406 H 218.499 -2.50995 -3.13503 0
M  V30 1407 H 218.6 -0.759148 -2.80716 0
M  V30 1408 P 219.699 -8.91 -3.97326e-13 0
M  V30 1409 O 219.919 -10.1726 -0.733694 0
M  V30 1410 O 220.489 -8.73148 1.23936 0
M  V30 1411 O 219.949 -7.66872 -0.971405 0
M  V30 1412 C 219.009 -7.42309 -2.04641 0
M  V30 1413 C 219.739 -6.86059 -3.24661 0
M  V30 1414 O 219.949 -5.42847 -3.03646 0
M  V30 1415 C 221.139 -7.41196 -3.50753 0
M  V30 1416 O 221.529 -7.27073 -4.86816 0
M  V30 1417 C 222.019 -6.5273 -2.63741 0
M  V30 1418 C 221.309 -5.1842 -2.73198 0
M  V30 1419 N 221.359 -4.38762 -1.4784 0
M  V30 1420 C 221.279 -4.81605 -0.168631 0
M  V30 1421 N 221.359 -3.85454 0.713363 0
M  V30 1422 C 221.499 -2.6994 -0.0566958 0
M  V30 1423 C 221.629 -1.34815 0.338502 0
M  V30 1424 O 221.649 -0.869548 1.47125 0
M  V30 1425 N 221.749 -0.496304 -0.77465 0
M  V30 1426 C 221.749 -0.908403 -2.09122 0
M  V30 1427 N 221.879 0.0517805 -3.00955 0
M  V30 1428 N 221.619 -2.17875 -2.46519 0
M  V30 1429 C 221.499 -3.01988 -1.4033 0
M  V30 1430 H 218.52 -8.36803 -2.32493 0
M  V30 1431 H 218.25 -6.70197 -1.71129 0
M  V30 1432 H 219.117 -7.03551 -4.13168 0
M  V30 1433 H 221.772 -4.59498 -3.54415 0
M  V30 1434 H 222.051 -6.88898 -1.59848 0
M  V30 1435 H 223.043 -6.46749 -3.03687 0
M  V30 1436 H 221.209 -8.46908 -3.20714 0
M  V30 1437 H 221.16 -5.86405 0.105564 0
M  V30 1438 H 221.842 0.483664 -0.597855 0
M  V30 1439 H 221.879 -0.187865 -4.0116 0
M  V30 1440 H 221.98 1.03585 -2.71726 0
M  V30 1441 P 223.079 -7.20834 -5.23717 0
M  V30 1442 O 223.299 -7.79853 -6.57286 0
M  V30 1443 O 223.869 -7.79239 -4.12957 0
M  V30 1444 O 223.329 -5.63315 -5.29344 0
M  V30 1445 C 222.389 -4.80255 -6.01876 0
M  V30 1446 C 223.119 -3.64202 -6.65911 0
M  V30 1447 O 223.329 -2.60694 -5.64732 0
M  V30 1448 C 224.519 -3.93473 -7.1943 0
M  V30 1449 O 224.909 -3.02071 -8.21205 0
M  V30 1450 C 225.399 -3.73047 -5.97036 0
M  V30 1451 C 224.689 -2.58828 -5.25741 0
M  V30 1452 N 224.739 -2.68068 -3.77503 0
M  V30 1453 H 221.9 -5.40332 -6.79951 0
M  V30 1454 H 221.63 -4.41613 -5.32378 0
M  V30 1455 H 222.497 -3.26331 -7.47797 0
M  V30 1456 P 226.459 -2.75334 -8.47391 0
M  V30 1457 O 226.679 -2.44571 -9.90142 0
M  V30 1458 O 227.249 -3.87688 -7.92115 0
M  V30 1459 O 226.709 -1.4459 -7.59357 0
M  V30 1460 C 225.769 -0.347608 -7.69215 0
M  V30 1461 C 226.499 0.96767 -7.52806 0
M  V30 1462 O 226.709 1.21036 -6.1011 0
M  V30 1463 C 227.899 1.04544 -8.13308 0
M  V30 1464 O 228.289 2.38311 -8.41922 0
M  V30 1465 C 228.779 0.491279 -7.02284 0
M  V30 1466 C 228.069 0.996264 -5.77469 0
M  V30 1467 N 228.119 0.0501916 -4.62973 0
M  V30 1468 H 225.28 -0.374722 -8.67691 0
M  V30 1469 H 225.01 -0.443485 -6.90277 0
M  V30 1470 H 225.877 1.75537 -7.96793 0
M  V30 1471 P 229.839 2.75334 -8.47391 0
M  V30 1472 O 230.059 3.84128 -9.44797 0
M  V30 1473 O 230.629 1.51947 -8.68712 0
M  V30 1474 O 230.089 3.29363 -6.99321 0
M  V30 1475 C 229.149 4.24011 -6.4274 0
M  V30 1476 C 229.879 5.20775 -5.52155 0
M  V30 1477 O 230.089 4.56534 -4.22446 0
M  V30 1478 C 231.279 5.62629 -5.96531 0
M  V30 1479 O 231.669 6.87667 -5.41053 0
M  V30 1480 C 232.159 4.52537 -5.39283 0
M  V30 1481 C 231.449 4.20027 -4.08623 0
M  V30 1482 N 231.499 2.76189 -3.71603 0
M  V30 1483 H 228.66 4.797 -7.24003 0
M  V30 1484 H 228.39 3.69856 -5.84513 0
M  V30 1485 H 229.257 6.10356 -5.41441 0
M  V30 1486 P 233.219 7.20834 -5.23717 0
M  V30 1487 O 233.439 8.66104 -5.38572 0
M  V30 1488 O 234.009 6.33544 -6.1349 0
M  V30 1489 O 233.469 6.7751 -3.72168 0
M  V30 1490 C 232.529 7.20825 -2.7076 0
M  V30 1491 C 233.259 7.45864 -1.40599 0
M  V30 1492 O 233.469 6.17651 -0.734225 0
M  V30 1493 C 234.659 8.05808 -1.51899 0
M  V30 1494 O 235.049 8.74358 -0.335205 0
M  V30 1495 C 235.539 6.83093 -1.70294 0
M  V30 1496 C 234.829 5.79992 -0.836974 0
M  V30 1497 N 234.879 4.41864 -1.38293 0
M  V30 1498 H 232.04 8.13644 -3.0377 0
M  V30 1499 H 231.77 6.42788 -2.55485 0
M  V30 1500 H 232.637 8.12039 -0.792769 0
M  V30 1501 P 236.599 8.91 5.54508e-13 0
M  V30 1502 O 236.819 10.1726 0.733694 0
M  V30 1503 O 237.389 8.73148 -1.23936 0
M  V30 1504 O 236.849 7.66872 0.971405 0
M  V30 1505 C 235.909 7.42309 2.04641 0
M  V30 1506 C 236.639 6.86059 3.24661 0
M  V30 1507 O 236.849 5.42847 3.03646 0
M  V30 1508 C 238.039 7.41196 3.50753 0
M  V30 1509 O 238.429 7.27073 4.86816 0
M  V30 1510 C 238.919 6.5273 2.63741 0
M  V30 1511 C 238.209 5.1842 2.73198 0
M  V30 1512 N 238.259 4.38762 1.4784 0
M  V30 1513 H 235.42 8.36803 2.32493 0
M  V30 1514 H 235.15 6.70197 1.71129 0
M  V30 1515 H 236.017 7.03551 4.13168 0
M  V30 1516 P 239.979 7.20834 5.23717 0
M  V30 1517 O 240.199 7.7993 6.57351 0
M  V30 1518 O 240.769 7.79328 4.13004 0
M  V30 1519 O 240.229 5.63315 5.29344 0
M  V30 1520 C 239.289 4.80193 6.01798 0
M  V30 1521 C 240.019 3.64202 6.65911 0
M  V30 1522 O 240.229 2.60694 5.64732 0
M  V30 1523 C 241.419 3.93473 7.1943 0
M  V30 1524 O 241.809 3.02071 8.21205 0
M  V30 1525 C 242.299 3.73047 5.97036 0
M  V30 1526 C 241.589 2.58828 5.25741 0
M  V30 1527 N 241.639 2.6801 3.77422 0
M  V30 1528 C 241.789 1.50443 3.07133 0
M  V30 1529 O 241.879 0.419406 3.61576 0
M  V30 1530 N 241.829 1.6403 1.69677 0
M  V30 1531 C 241.739 2.81206 0.986255 0
M  V30 1532 O 241.789 2.80892 -0.249754 0
M  V30 1533 C 241.589 3.99158 1.80325 0
M  V30 1534 C 241.479 5.29309 1.06921 0
M  V30 1535 C 241.539 3.89779 3.1476 0
M  V30 1536 H 238.799 5.40332 6.79951 0
M  V30 1537 H 238.53 4.41549 5.32301 0
M  V30 1538 H 239.397 3.26331 7.47797 0
M  V30 1539 H 242.052 1.6395 5.56554 0
M  V30 1540 H 242.331 4.63439 5.3432 0
M  V30 1541 H 243.323 3.44728 6.25838 0
M  V30 1542 H 241.489 4.96652 7.57263 0
M  V30 1543 H 241.418 4.80159 3.74441 0
M  V30 1544 H 242.448 5.81459 1.09608 0
M  V30 1545 H 240.711 5.9187 1.54487 0
M  V30 1546 H 241.199 5.10095 0.0220288 0
M  V30 1547 H 241.935 0.798962 1.16664 0
M  V30 1548 P 243.359 2.75334 8.47391 0
M  V30 1549 O 243.579 2.44571 9.90142 0
M  V30 1550 O 244.149 3.87688 7.92115 0
M  V30 1551 O 243.609 1.4459 7.59357 0
M  V30 1552 C 242.669 0.347608 7.69215 0
M  V30 1553 C 243.399 -0.96767 7.52806 0
M  V30 1554 O 243.609 -1.21036 6.1011 0
M  V30 1555 C 244.799 -1.04544 8.13308 0
M  V30 1556 O 245.189 -2.38311 8.41922 0
M  V30 1557 C 245.679 -0.491279 7.02284 0
M  V30 1558 C 244.969 -0.996264 5.77469 0
M  V30 1559 N 245.019 -0.0501916 4.62973 0
M  V30 1560 H 242.18 0.374722 8.67691 0
M  V30 1561 H 241.91 0.443485 6.90277 0
M  V30 1562 H 242.777 -1.75537 7.96793 0
M  V30 1563 P 246.739 -2.75334 8.47391 0
M  V30 1564 O 246.959 -3.84166 9.4489 0
M  V30 1565 O 247.529 -1.51964 8.6881 0
M  V30 1566 O 246.989 -3.29363 6.99321 0
M  V30 1567 C 246.049 -4.23956 6.42656 0
M  V30 1568 C 246.779 -5.20775 5.52155 0
M  V30 1569 O 246.989 -4.56534 4.22446 0
M  V30 1570 C 248.179 -5.62629 5.96531 0
M  V30 1571 O 248.569 -6.87667 5.41053 0
M  V30 1572 C 249.059 -4.52537 5.39283 0
M  V30 1573 C 248.349 -4.20027 4.08623 0
M  V30 1574 N 248.399 -2.7613 3.71522 0
M  V30 1575 C 248.549 -2.45612 2.37989 0
M  V30 1576 O 248.639 -3.30919 1.51621 0
M  V30 1577 N 248.589 -1.10684 2.08435 0
M  V30 1578 C 248.499 -0.0690084 2.9792 0
M  V30 1579 O 248.549 1.10553 2.59426 0
M  V30 1580 C 248.349 -0.481522 4.35345 0
M  V30 1581 C 248.239 0.618778 5.36443 0
M  V30 1582 C 248.299 -1.78906 4.67968 0
M  V30 1583 H 245.559 -4.797 7.24003 0
M  V30 1584 H 245.29 -3.69802 5.84429 0
M  V30 1585 H 246.157 -6.10356 5.41441 0
M  V30 1586 H 248.812 -4.78651 3.27911 0
M  V30 1587 H 249.091 -3.64957 6.05871 0
M  V30 1588 H 250.083 -4.8868 5.2125 0
M  V30 1589 H 248.249 -5.66726 7.06352 0
M  V30 1590 H 248.178 -2.07737 5.72367 0
M  V30 1591 H 249.208 0.754375 5.86871 0
M  V30 1592 H 247.471 0.359721 6.10641 0
M  V30 1593 H 247.959 1.55533 4.8581 0
M  V30 1594 H 248.695 -0.862651 1.12037 0
M  V30 1595 P 250.119 -7.20834 5.23717 0
M  V30 1596 O 250.339 -8.66104 5.38572 0
M  V30 1597 O 250.909 -6.33544 6.1349 0
M  V30 1598 O 250.369 -6.7751 3.72168 0
M  V30 1599 C 249.429 -7.20825 2.7076 0
M  V30 1600 C 250.159 -7.45864 1.40599 0
M  V30 1601 O 250.369 -6.17651 0.734225 0
M  V30 1602 C 251.559 -8.05808 1.51899 0
M  V30 1603 O 251.949 -8.74358 0.335205 0
M  V30 1604 C 252.439 -6.83093 1.70294 0
M  V30 1605 C 251.729 -5.79992 0.836974 0
M  V30 1606 N 251.779 -4.41864 1.38293 0
M  V30 1607 H 248.94 -8.13644 3.0377 0
M  V30 1608 H 248.67 -6.42788 2.55485 0
M  V30 1609 H 249.537 -8.12039 0.792769 0
M  V30 1610 P 253.498 -8.91 -7.1169e-13 0
M  V30 1611 O 253.718 -10.1726 -0.733694 0
M  V30 1612 O 254.288 -8.73148 1.23936 0
M  V30 1613 O 253.748 -7.66872 -0.971405 0
M  V30 1614 C 252.808 -7.42309 -2.04641 0
M  V30 1615 C 253.538 -6.86059 -3.24661 0
M  V30 1616 O 253.748 -5.42847 -3.03646 0
M  V30 1617 C 254.938 -7.41196 -3.50753 0
M  V30 1618 O 255.328 -7.27073 -4.86816 0
M  V30 1619 C 255.818 -6.5273 -2.63741 0
M  V30 1620 C 255.108 -5.1842 -2.73198 0
M  V30 1621 N 255.158 -4.38762 -1.4784 0
M  V30 1622 H 252.319 -8.36803 -2.32493 0
M  V30 1623 H 252.049 -6.70197 -1.71129 0
M  V30 1624 H 252.916 -7.03551 -4.13168 0
M  V30 1625 P 256.878 -7.20834 -5.23717 0
M  V30 1626 O 257.098 -7.79853 -6.57286 0
M  V30 1627 O 257.668 -7.79239 -4.12957 0
M  V30 1628 O 257.128 -5.63315 -5.29344 0
M  V30 1629 C 256.188 -4.80255 -6.01876 0
M  V30 1630 C 256.918 -3.64202 -6.65911 0
M  V30 1631 O 257.128 -2.60694 -5.64732 0
M  V30 1632 C 258.318 -3.93473 -7.1943 0
M  V30 1633 O 258.708 -3.02071 -8.21205 0
M  V30 1634 C 259.198 -3.73047 -5.97036 0
M  V30 1635 C 258.488 -2.58828 -5.25741 0
M  V30 1636 N 258.538 -2.68068 -3.77503 0
M  V30 1637 H 255.699 -5.40332 -6.79951 0
M  V30 1638 H 255.429 -4.41613 -5.32378 0
M  V30 1639 H 256.296 -3.26331 -7.47797 0
M  V30 1640 P 260.258 -2.75334 -8.47391 0
M  V30 1641 O 260.478 -2.44571 -9.90142 0
M  V30 1642 O 261.048 -3.87688 -7.92115 0
M  V30 1643 O 260.508 -1.4459 -7.59357 0
M  V30 1644 C 259.568 -0.347608 -7.69215 0
M  V30 1645 C 260.298 0.96767 -7.52806 0
M  V30 1646 O 260.508 1.21036 -6.1011 0
M  V30 1647 C 261.698 1.04544 -8.13308 0
M  V30 1648 O 262.088 2.38311 -8.41922 0
M  V30 1649 C 262.578 0.491279 -7.02284 0
M  V30 1650 C 261.868 0.996264 -5.77469 0
M  V30 1651 N 261.918 0.0501916 -4.62973 0
M  V30 1652 C 261.838 -1.32786 -4.63244 0
M  V30 1653 N 261.918 -1.86957 -3.44545 0
M  V30 1654 C 262.058 -0.780241 -2.58481 0
M  V30 1655 C 262.188 -0.738536 -1.17757 0
M  V30 1656 N 262.308 0.58337 -0.711393 0
M  V30 1657 C 262.308 1.70816 -1.51017 0
M  V30 1658 N 262.438 2.87826 -0.880757 0
M  V30 1659 N 262.178 1.67126 -2.8339 0
M  V30 1660 C 262.058 0.401421 -3.30572 0
M  V30 1661 H 259.079 -0.374722 -8.67691 0
M  V30 1662 H 258.809 -0.443485 -6.90277 0
M  V30 1663 H 259.676 1.75537 -7.96793 0
M  V30 1664 P 263.638 2.75334 -8.47391 0
M  V30 1665 O 263.858 3.84204 -9.44982 0
M  V30 1666 O 264.428 1.51982 -8.68909 0
M  V30 1667 O 263.888 3.29363 -6.99321 0
M  V30 1668 C 262.948 4.24066 -6.42823 0
M  V30 1669 C 263.678 5.20775 -5.52155 0
M  V30 1670 O 263.888 4.56607 -4.22514 0
M  V30 1671 C 265.078 5.62697 -5.96604 0
M  V30 1672 O 265.468 6.87667 -5.41053 0
M  V30 1673 C 265.958 4.52537 -5.39283 0
M  V30 1674 C 265.248 4.20027 -4.08623 0
M  V30 1675 N 265.298 2.76189 -3.71603 0
M  V30 1676 C 265.218 1.66944 -4.54297 0
M  V30 1677 N 265.288 0.536169 -3.91344 0
M  V30 1678 C 265.438 0.901569 -2.58849 0
M  V30 1679 C 265.568 0.146599 -1.40236 0
M  V30 1680 N 265.578 -1.18234 -1.37046 0
M  V30 1681 N 265.688 0.822941 -0.249738 0
M  V30 1682 C 265.678 2.15179 -0.280525 0
M  V30 1683 N 265.558 2.96414 -1.30822 0
M  V30 1684 C 265.438 2.25804 -2.44748 0
M  V30 1685 H 262.46 4.79756 -7.24086 0
M  V30 1686 H 262.188 3.69963 -5.84682 0
M  V30 1687 H 263.056 6.10431 -5.41508 0
M  V30 1688 H 265.711 4.78816 -3.28024 0
M  V30 1689 H 265.991 3.64957 -6.05871 0
M  V30 1690 H 266.982 4.88748 -5.21323 0
M  V30 1691 H 265.148 5.66789 -7.0643 0
M  V30 1692 H 265.107 1.74684 -5.62396 0
M  V30 1693 H 265.488 -1.71949 -2.24394 0
M  V30 1694 H 265.677 -1.67511 -0.470742 0
M  V30 1695 H 265.785 2.63704 0.6828 0
M  V30 1696 P 267.018 7.20834 -5.23717 0
M  V30 1697 O 267.238 8.66104 -5.38572 0
M  V30 1698 O 267.808 6.33544 -6.1349 0
M  V30 1699 O 267.268 6.7751 -3.72168 0
M  V30 1700 C 266.328 7.20825 -2.7076 0
M  V30 1701 C 267.058 7.45864 -1.40599 0
M  V30 1702 O 267.268 6.17651 -0.734225 0
M  V30 1703 C 268.458 8.05808 -1.51899 0
M  V30 1704 O 268.848 8.74358 -0.335205 0
M  V30 1705 C 269.338 6.83093 -1.70294 0
M  V30 1706 C 268.628 5.79992 -0.836974 0
M  V30 1707 N 268.678 4.41864 -1.38293 0
M  V30 1708 C 268.598 3.99538 -2.69438 0
M  V30 1709 N 268.678 2.69909 -2.84277 0
M  V30 1710 C 268.818 2.21719 -1.5408 0
M  V30 1711 C 268.948 0.891712 -1.06628 0
M  V30 1712 O 268.968 -0.161298 -1.70137 0
M  V30 1713 N 269.068 0.856846 0.334985 0
M  V30 1714 C 269.068 1.9641 1.15789 0
M  V30 1715 N 269.198 1.72708 2.46522 0
M  V30 1716 N 268.938 3.21165 0.713741 0
M  V30 1717 C 268.818 3.26797 -0.639748 0
M  V30 1718 H 265.839 8.13644 -3.0377 0
M  V30 1719 H 265.569 6.42788 -2.55485 0
M  V30 1720 H 266.436 8.12039 -0.792769 0
M  V30 1721 H 269.091 5.80061 0.166416 0
M  V30 1722 H 269.37 6.51287 -2.75604 0
M  V30 1723 H 270.362 7.01734 -1.34462 0
M  V30 1724 H 268.528 8.73674 -2.38337 0
M  V30 1725 H 268.479 4.68207 -3.53221 0
M  V30 1726 H 269.161 -0.0398818 0.767965 0
M  V30 1727 H 269.198 2.50995 3.13503 0
M  V30 1728 H 269.299 0.759148 2.80716 0
M  V30 1729 P 270.398 8.91 8.68872e-13 0
M  V30 1730 O 270.618 10.1726 0.733694 0
M  V30 1731 O 271.188 8.73148 -1.23936 0
M  V30 1732 O 270.648 7.66872 0.971405 0
M  V30 1733 C 269.708 7.42309 2.04641 0
M  V30 1734 C 270.438 6.86059 3.24661 0
M  V30 1735 O 270.648 5.42847 3.03646 0
M  V30 1736 C 271.838 7.41196 3.50753 0
M  V30 1737 O 272.228 7.27073 4.86816 0
M  V30 1738 C 272.718 6.5273 2.63741 0
M  V30 1739 C 272.008 5.1842 2.73198 0
M  V30 1740 N 272.058 4.38762 1.4784 0
M  V30 1741 H 269.219 8.36803 2.32493 0
M  V30 1742 H 268.949 6.70197 1.71129 0
M  V30 1743 H 269.816 7.03551 4.13168 0
M  V30 1744 P 273.778 7.20834 5.23717 0
M  V30 1745 O 273.998 7.79853 6.57286 0
M  V30 1746 O 274.568 7.79239 4.12957 0
M  V30 1747 O 274.028 5.63315 5.29344 0
M  V30 1748 C 273.088 4.80255 6.01876 0
M  V30 1749 C 273.818 3.64202 6.65911 0
M  V30 1750 O 274.028 2.60694 5.64732 0
M  V30 1751 C 275.218 3.93473 7.1943 0
M  V30 1752 O 275.608 3.02071 8.21205 0
M  V30 1753 C 276.098 3.73047 5.97036 0
M  V30 1754 C 275.388 2.58828 5.25741 0
M  V30 1755 N 275.438 2.68068 3.77503 0
M  V30 1756 H 272.599 5.40332 6.79951 0
M  V30 1757 H 272.329 4.41613 5.32378 0
M  V30 1758 H 273.196 3.26331 7.47797 0
M  V30 1759 P 277.158 2.75334 8.47391 0
M  V30 1760 O 277.378 2.44619 9.90336 0
M  V30 1761 O 277.948 3.87776 7.92294 0
M  V30 1762 O 277.408 1.4459 7.59357 0
M  V30 1763 C 276.468 0.347653 7.69315 0
M  V30 1764 C 277.198 -0.96767 7.52806 0
M  V30 1765 O 277.408 -1.21055 6.10208 0
M  V30 1766 C 278.598 -1.04557 8.13408 0
M  V30 1767 O 278.988 -2.38311 8.41922 0
M  V30 1768 C 279.478 -0.491279 7.02284 0
M  V30 1769 C 278.768 -0.996264 5.77469 0
M  V30 1770 N 278.818 -0.0501916 4.62973 0
M  V30 1771 C 278.738 1.31969 4.65661 0
M  V30 1772 N 278.808 1.86649 3.48119 0
M  V30 1773 C 278.958 0.792089 2.62406 0
M  V30 1774 C 279.088 0.705684 1.2207 0
M  V30 1775 N 279.098 1.76207 0.413762 0
M  V30 1776 N 279.208 -0.518981 0.685754 0
M  V30 1777 C 279.198 -1.57595 1.49174 0
M  V30 1778 N 279.078 -1.62909 2.80066 0
M  V30 1779 C 278.958 -0.388195 3.3073 0
M  V30 1780 H 275.98 0.374765 8.67791 0
M  V30 1781 H 275.708 0.443613 6.90476 0
M  V30 1782 H 276.576 -1.75559 7.96891 0
M  V30 1783 H 279.231 -1.94563 5.46818 0
M  V30 1784 H 279.511 0.608651 7.04676 0
M  V30 1785 H 280.502 -0.889796 7.09039 0
M  V30 1786 H 278.668 -0.433128 9.04664 0
M  V30 1787 H 278.627 1.89246 5.57664 0
M  V30 1788 H 279.008 2.71005 0.804694 0
M  V30 1789 H 279.197 1.63189 -0.603768 0
M  V30 1790 H 279.305 -2.53475 0.997614 0
M  V30 1791 P 280.538 -2.75334 8.47391 0
M  V30 1792 O 280.758 -3.84128 9.44797 0
M  V30 1793 O 281.328 -1.51947 8.68712 0
M  V30 1794 O 280.788 -3.29363 6.99321 0
M  V30 1795 C 279.848 -4.24011 6.4274 0
M  V30 1796 C 280.578 -5.20775 5.52155 0
M  V30 1797 O 280.788 -4.56534 4.22446 0
M  V30 1798 C 281.978 -5.62629 5.96531 0
M  V30 1799 O 282.368 -6.87667 5.41053 0
M  V30 1800 C 282.858 -4.52537 5.39283 0
M  V30 1801 C 282.148 -4.20027 4.08623 0
M  V30 1802 N 282.198 -2.76189 3.71603 0
M  V30 1803 C 282.118 -1.64862 4.52822 0
M  V30 1804 N 282.198 -0.512671 3.88633 0
M  V30 1805 C 282.338 -0.888083 2.54977 0
M  V30 1806 C 282.468 -0.094668 1.38677 0
M  V30 1807 O 282.488 1.13053 1.28163 0
M  V30 1808 N 282.588 -0.890102 0.232633 0
M  V30 1809 C 282.588 -2.26958 0.21772 0
M  V30 1810 N 282.718 -2.84626 -0.97925 0
M  V30 1811 N 282.458 -3.0178 1.31033 0
M  V30 1812 C 282.338 -2.26781 2.43843 0
M  V30 1813 H 279.359 -4.797 7.24003 0
M  V30 1814 H 279.089 -3.69856 5.84513 0
M  V30 1815 H 279.956 -6.10356 5.41441 0
M  V30 1816 H 282.611 -4.79061 3.27488 0
M  V30 1817 H 282.89 -3.64906 6.05785 0
M  V30 1818 H 283.882 -4.8868 5.2125 0
M  V30 1819 H 282.048 -5.66726 7.06352 0
M  V30 1820 H 281.999 -1.71169 5.60966 0
M  V30 1821 H 282.681 -0.419134 -0.644739 0
M  V30 1822 H 282.718 -3.87332 -1.06098 0
M  V30 1823 H 282.819 -2.26417 -1.82483 0
M  V30 1824 P 283.918 -7.20834 5.23717 0
M  V30 1825 O 284.138 -8.66104 5.38572 0
M  V30 1826 O 284.708 -6.33544 6.1349 0
M  V30 1827 O 284.168 -6.7751 3.72168 0
M  V30 1828 C 283.228 -7.20825 2.7076 0
M  V30 1829 C 283.958 -7.45864 1.40599 0
M  V30 1830 O 284.168 -6.17651 0.734225 0
M  V30 1831 C 285.358 -8.05808 1.51899 0
M  V30 1832 O 285.748 -8.74358 0.335205 0
M  V30 1833 C 286.238 -6.83093 1.70294 0
M  V30 1834 C 285.528 -5.79992 0.836974 0
M  V30 1835 N 285.578 -4.41864 1.38293 0
M  V30 1836 C 285.498 -3.99538 2.69438 0
M  V30 1837 N 285.578 -2.69909 2.84277 0
M  V30 1838 C 285.718 -2.21719 1.5408 0
M  V30 1839 C 285.848 -0.891712 1.06628 0
M  V30 1840 O 285.868 0.161298 1.70137 0
M  V30 1841 N 285.968 -0.856846 -0.334985 0
M  V30 1842 C 285.968 -1.9641 -1.15789 0
M  V30 1843 N 286.098 -1.72708 -2.46522 0
M  V30 1844 N 285.838 -3.21165 -0.713741 0
M  V30 1845 C 285.718 -3.26797 0.639748 0
M  V30 1846 H 282.739 -8.13644 3.0377 0
M  V30 1847 H 282.469 -6.42788 2.55485 0
M  V30 1848 H 283.336 -8.12039 0.792769 0
M  V30 1849 H 285.991 -5.80061 -0.166416 0
M  V30 1850 H 286.27 -6.51287 2.75604 0
M  V30 1851 H 287.262 -7.01734 1.34462 0
M  V30 1852 H 285.428 -8.73674 2.38337 0
M  V30 1853 H 285.379 -4.68207 3.53221 0
M  V30 1854 H 286.061 0.0398818 -0.767965 0
M  V30 1855 H 286.098 -2.50995 -3.13503 0
M  V30 1856 H 286.199 -0.759148 -2.80716 0
M  V30 1857 P 287.298 -8.91 -1.02605e-12 0
M  V30 1858 O 287.518 -10.1726 -0.733694 0
M  V30 1859 O 288.088 -8.73148 1.23936 0
M  V30 1860 O 287.548 -7.66872 -0.971405 0
M  V30 1861 C 286.608 -7.42309 -2.04641 0
M  V30 1862 C 287.338 -6.86059 -3.24661 0
M  V30 1863 O 287.548 -5.42847 -3.03646 0
M  V30 1864 C 288.738 -7.41196 -3.50753 0
M  V30 1865 O 289.128 -7.27073 -4.86816 0
M  V30 1866 C 289.618 -6.5273 -2.63741 0
M  V30 1867 C 288.908 -5.1842 -2.73198 0
M  V30 1868 N 288.958 -4.38762 -1.4784 0
M  V30 1869 H 286.119 -8.36803 -2.32493 0
M  V30 1870 H 285.849 -6.70197 -1.71129 0
M  V30 1871 H 286.716 -7.03551 -4.13168 0
M  V30 1872 P 290.678 -7.20834 -5.23717 0
M  V30 1873 O 290.898 -7.7993 -6.57351 0
M  V30 1874 O 291.468 -7.79328 -4.13004 0
M  V30 1875 O 290.928 -5.63315 -5.29344 0
M  V30 1876 C 289.988 -4.80193 -6.01798 0
M  V30 1877 C 290.718 -3.64202 -6.65911 0
M  V30 1878 O 290.928 -2.60694 -5.64732 0
M  V30 1879 C 292.118 -3.93473 -7.1943 0
M  V30 1880 O 292.508 -3.02071 -8.21205 0
M  V30 1881 C 292.998 -3.73047 -5.97036 0
M  V30 1882 C 292.288 -2.58828 -5.25741 0
M  V30 1883 N 292.338 -2.6801 -3.77422 0
M  V30 1884 C 292.488 -1.50443 -3.07133 0
M  V30 1885 O 292.578 -0.419406 -3.61576 0
M  V30 1886 N 292.528 -1.6403 -1.69677 0
M  V30 1887 C 292.438 -2.81206 -0.986255 0
M  V30 1888 O 292.488 -2.80892 0.249754 0
M  V30 1889 C 292.288 -3.99158 -1.80325 0
M  V30 1890 C 292.178 -5.29309 -1.06921 0
M  V30 1891 C 292.238 -3.89779 -3.1476 0
M  V30 1892 H 289.498 -5.40332 -6.79951 0
M  V30 1893 H 289.229 -4.41549 -5.32301 0
M  V30 1894 H 290.096 -3.26331 -7.47797 0
M  V30 1895 H 292.751 -1.6395 -5.56554 0
M  V30 1896 H 293.03 -4.63439 -5.3432 0
M  V30 1897 H 294.022 -3.44728 -6.25838 0
M  V30 1898 H 292.188 -4.96652 -7.57263 0
M  V30 1899 H 292.117 -4.80159 -3.74441 0
M  V30 1900 H 293.147 -5.81459 -1.09608 0
M  V30 1901 H 291.41 -5.9187 -1.54487 0
M  V30 1902 H 291.898 -5.10095 -0.0220288 0
M  V30 1903 H 292.634 -0.798962 -1.16664 0
M  V30 1904 P 294.058 -2.75334 -8.47391 0
M  V30 1905 O 294.278 -2.44595 -9.90239 0
M  V30 1906 O 294.848 -3.87732 -7.92204 0
M  V30 1907 O 294.308 -1.4459 -7.59357 0
M  V30 1908 C 293.368 -0.347563 -7.69115 0
M  V30 1909 C 294.098 0.96767 -7.52806 0
M  V30 1910 O 294.308 1.21036 -6.1011 0
M  V30 1911 C 295.498 1.04544 -8.13308 0
M  V30 1912 O 295.888 2.38311 -8.41922 0
M  V30 1913 C 296.378 0.491279 -7.02284 0
M  V30 1914 C 295.668 0.996264 -5.77469 0
M  V30 1915 N 295.718 0.0501808 -4.62873 0
M  V30 1916 C 295.868 0.588177 -3.36904 0
M  V30 1917 O 295.958 1.78598 -3.17173 0
M  V30 1918 N 295.908 -0.329694 -2.33686 0
M  V30 1919 C 295.818 -1.6953 -2.45079 0
M  V30 1920 O 295.868 -2.41926 -1.44899 0
M  V30 1921 C 295.668 -2.16933 -3.80505 0
M  V30 1922 C 295.558 -3.65373 -3.97621 0
M  V30 1923 C 295.618 -1.30326 -4.83752 0
M  V30 1924 H 292.878 -0.374722 -8.67691 0
M  V30 1925 H 292.609 -0.443421 -6.90177 0
M  V30 1926 H 293.476 1.75537 -7.96793 0
M  V30 1927 H 296.131 1.94496 -5.46629 0
M  V30 1928 H 296.41 -0.608651 -7.04676 0
M  V30 1929 H 297.402 0.889672 -7.08939 0
M  V30 1930 H 295.568 0.43308 -9.04564 0
M  V30 1931 H 295.497 -1.68366 -5.8516 0
M  V30 1932 H 296.527 -4.05985 -4.30448 0
M  V30 1933 H 294.79 -3.88028 -4.72875 0
M  V30 1934 H 295.278 -4.11381 -3.01609 0
M  V30 1935 H 296.014 0.0393617 -1.41345 0
M  V30 1936 P 297.438 2.75334 -8.47391 0
M  V30 1937 O 297.658 3.84128 -9.44797 0
M  V30 1938 O 298.228 1.51947 -8.68712 0
M  V30 1939 O 297.688 3.29363 -6.99321 0
M  V30 1940 C 296.748 4.24011 -6.4274 0
M  V30 1941 C 297.478 5.20775 -5.52155 0
M  V30 1942 O 297.688 4.56534 -4.22446 0
M  V30 1943 C 298.878 5.62629 -5.96531 0
M  V30 1944 O 299.268 6.87667 -5.41053 0
M  V30 1945 C 299.758 4.52537 -5.39283 0
M  V30 1946 C 299.048 4.20027 -4.08623 0
M  V30 1947 N 299.098 2.76189 -3.71603 0
M  V30 1948 H 296.259 4.797 -7.24003 0
M  V30 1949 H 295.989 3.69856 -5.84513 0
M  V30 1950 H 296.856 6.10356 -5.41441 0
M  V30 1951 P 300.818 7.20834 -5.23717 0
M  V30 1952 O 301.038 8.66104 -5.38572 0
M  V30 1953 O 301.608 6.33544 -6.1349 0
M  V30 1954 O 301.068 6.7751 -3.72168 0
M  V30 1955 C 300.128 7.20825 -2.7076 0
M  V30 1956 C 300.858 7.45864 -1.40599 0
M  V30 1957 O 301.068 6.17651 -0.734225 0
M  V30 1958 C 302.258 8.05808 -1.51899 0
M  V30 1959 O 302.648 8.74358 -0.335205 0
M  V30 1960 C 303.138 6.83093 -1.70294 0
M  V30 1961 C 302.428 5.79992 -0.836974 0
M  V30 1962 N 302.478 4.41864 -1.38293 0
M  V30 1963 H 299.639 8.13644 -3.0377 0
M  V30 1964 H 299.369 6.42788 -2.55485 0
M  V30 1965 H 300.236 8.12039 -0.792769 0
M  V30 1966 P 304.198 8.91 1.18324e-12 0
M  V30 1967 O 304.418 10.1746 0.733838 0
M  V30 1968 O 304.988 8.73346 -1.23964 0
M  V30 1969 O 304.448 7.66872 0.971405 0
M  V30 1970 C 303.508 7.42405 2.04668 0
M  V30 1971 C 304.238 6.86059 3.24661 0
M  V30 1972 O 304.448 5.42934 3.03695 0
M  V30 1973 C 305.638 7.41287 3.50796 0
M  V30 1974 O 306.028 7.27073 4.86816 0
M  V30 1975 C 306.518 6.5273 2.63741 0
M  V30 1976 C 305.808 5.1842 2.73198 0
M  V30 1977 N 305.858 4.38762 1.4784 0
M  V30 1978 C 305.778 4.83651 0.183876 0
M  V30 1979 N 305.848 3.88759 -0.699393 0
M  V30 1980 C 305.998 2.7404 0.0575568 0
M  V30 1981 C 306.128 1.37902 -0.293928 0
M  V30 1982 N 306.138 0.938021 -1.54797 0
M  V30 1983 N 306.248 0.491817 0.70549 0
M  V30 1984 C 306.238 0.931735 1.95979 0
M  V30 1985 N 306.118 2.16017 2.41481 0
M  V30 1986 C 305.998 3.02547 1.39121 0
M  V30 1987 H 303.02 8.36899 2.3252 0
M  V30 1988 H 302.748 6.70391 1.71179 0
M  V30 1989 H 303.616 7.03638 4.13219 0
M  V30 1990 H 306.271 4.59931 3.54016 0
M  V30 1991 H 306.551 6.88995 1.59871 0
M  V30 1992 H 307.542 6.4684 3.0373 0
M  V30 1993 H 305.708 8.47002 3.20749 0
M  V30 1994 H 305.667 5.8885 -0.0765548 0
M  V30 1995 H 306.048 1.60276 -2.32875 0
M  V30 1996 H 306.237 -0.0699355 -1.73859 0
M  V30 1997 H 306.345 0.165507 2.71897 0
M  V30 1998 P 307.578 7.20834 5.23717 0
M  V30 1999 O 307.798 7.79853 6.57286 0
M  V30 2000 O 308.368 7.79239 4.12957 0
M  V30 2001 O 307.828 5.63315 5.29344 0
M  V30 2002 C 306.888 4.80255 6.01876 0
M  V30 2003 C 307.618 3.64202 6.65911 0
M  V30 2004 O 307.828 2.60694 5.64732 0
M  V30 2005 C 309.018 3.93473 7.1943 0
M  V30 2006 O 309.408 3.02071 8.21205 0
M  V30 2007 C 309.898 3.73047 5.97036 0
M  V30 2008 C 309.188 2.58828 5.25741 0
M  V30 2009 N 309.238 2.68068 3.77503 0
M  V30 2010 H 306.399 5.40332 6.79951 0
M  V30 2011 H 306.129 4.41613 5.32378 0
M  V30 2012 H 306.996 3.26331 7.47797 0
M  V30 2013 P 310.958 2.75334 8.47391 0
M  V30 2014 O 311.178 2.44595 9.90239 0
M  V30 2015 O 311.748 3.87732 7.92204 0
M  V30 2016 O 311.208 1.4459 7.59357 0
M  V30 2017 C 310.268 0.347563 7.69115 0
M  V30 2018 C 310.998 -0.96767 7.52806 0
M  V30 2019 O 311.208 -1.21036 6.1011 0
M  V30 2020 C 312.398 -1.04544 8.13308 0
M  V30 2021 O 312.788 -2.38311 8.41922 0
M  V30 2022 C 313.278 -0.491279 7.02284 0
M  V30 2023 C 312.568 -0.996264 5.77469 0
M  V30 2024 N 312.618 -0.0501808 4.62873 0
M  V30 2025 C 312.768 -0.588177 3.36904 0
M  V30 2026 O 312.858 -1.78598 3.17173 0
M  V30 2027 N 312.808 0.329694 2.33686 0
M  V30 2028 C 312.718 1.6953 2.45079 0
M  V30 2029 C 312.568 2.16933 3.80505 0
M  V30 2030 C 312.518 1.30326 4.83752 0
M  V30 2031 H 309.778 0.374722 8.67691 0
M  V30 2032 H 309.509 0.443421 6.90177 0
M  V30 2033 H 310.376 -1.75537 7.96793 0
M  V30 2034 H 313.031 -1.94496 5.46629 0
M  V30 2035 H 313.31 0.608651 7.04676 0
M  V30 2036 H 314.302 -0.889672 7.08939 0
M  V30 2037 H 312.468 -0.43308 9.04564 0
M  V30 2038 H 312.397 1.68366 5.8516 0
M  V30 2039 P 314.338 -2.75334 8.47391 0
M  V30 2040 O 314.558 -3.84128 9.44797 0
M  V30 2041 O 315.128 -1.51947 8.68712 0
M  V30 2042 O 314.588 -3.29363 6.99321 0
M  V30 2043 C 313.648 -4.24011 6.4274 0
M  V30 2044 C 314.378 -5.20775 5.52155 0
M  V30 2045 O 314.588 -4.56534 4.22446 0
M  V30 2046 C 315.778 -5.62629 5.96531 0
M  V30 2047 O 316.168 -6.87667 5.41053 0
M  V30 2048 C 316.658 -4.52537 5.39283 0
M  V30 2049 C 315.948 -4.20027 4.08623 0
M  V30 2050 N 315.998 -2.76189 3.71603 0
M  V30 2051 H 313.159 -4.797 7.24003 0
M  V30 2052 H 312.889 -3.69856 5.84513 0
M  V30 2053 H 313.756 -6.10356 5.41441 0
M  V30 2054 P 317.718 -7.20834 5.23717 0
M  V30 2055 O 317.938 -8.66189 5.38625 0
M  V30 2056 O 318.508 -6.33615 6.1356 0
M  V30 2057 O 317.968 -6.7751 3.72168 0
M  V30 2058 C 317.028 -7.20732 2.70725 0
M  V30 2059 C 317.758 -7.45864 1.40599 0
M  V30 2060 O 317.968 -6.17651 0.734225 0
M  V30 2061 C 319.158 -8.05808 1.51899 0
M  V30 2062 O 319.548 -8.74358 0.335205 0
M  V30 2063 C 320.038 -6.83093 1.70294 0
M  V30 2064 C 319.328 -5.79992 0.836974 0
M  V30 2065 N 319.378 -4.41769 1.38263 0
M  V30 2066 C 319.528 -3.38591 0.481702 0
M  V30 2067 O 319.618 -3.56839 -0.718452 0
M  V30 2068 N 319.568 -2.1206 1.03569 0
M  V30 2069 C 319.478 -1.80696 2.36966 0
M  V30 2070 C 319.328 -2.94845 3.23898 0
M  V30 2071 C 319.278 -4.19803 2.73435 0
M  V30 2072 H 316.538 -8.13644 3.0377 0
M  V30 2073 H 316.269 -6.42695 2.55448 0
M  V30 2074 H 317.136 -8.12039 0.792769 0
M  V30 2075 H 319.791 -5.79978 -0.160587 0
M  V30 2076 H 320.07 -6.51379 2.75643 0
M  V30 2077 H 321.062 -7.01734 1.34462 0
M  V30 2078 H 319.228 -8.73674 2.38337 0
M  V30 2079 H 319.157 -5.04492 3.4095 0
M  V30 2080 P 321.098 -8.91 -1.34042e-12 0
M  V30 2081 O 321.318 -10.1726 -0.733694 0
M  V30 2082 O 321.888 -8.73148 1.23936 0
M  V30 2083 O 321.348 -7.66872 -0.971405 0
M  V30 2084 C 320.408 -7.42309 -2.04641 0
M  V30 2085 C 321.138 -6.86059 -3.24661 0
M  V30 2086 O 321.348 -5.42847 -3.03646 0
M  V30 2087 C 322.538 -7.41196 -3.50753 0
M  V30 2088 O 322.928 -7.27073 -4.86816 0
M  V30 2089 C 323.418 -6.5273 -2.63741 0
M  V30 2090 C 322.708 -5.1842 -2.73198 0
M  V30 2091 N 322.758 -4.38762 -1.4784 0
M  V30 2092 H 319.919 -8.36803 -2.32493 0
M  V30 2093 H 319.649 -6.70197 -1.71129 0
M  V30 2094 H 320.516 -7.03551 -4.13168 0
M  V30 2095 P 324.478 -7.20834 -5.23717 0
M  V30 2096 O 324.698 -7.79853 -6.57286 0
M  V30 2097 O 325.268 -7.79239 -4.12957 0
M  V30 2098 O 324.728 -5.63315 -5.29344 0
M  V30 2099 C 323.788 -4.80255 -6.01876 0
M  V30 2100 C 324.518 -3.64202 -6.65911 0
M  V30 2101 O 324.728 -2.60694 -5.64732 0
M  V30 2102 C 325.918 -3.93473 -7.1943 0
M  V30 2103 O 326.308 -3.02071 -8.21205 0
M  V30 2104 C 326.798 -3.73047 -5.97036 0
M  V30 2105 C 326.088 -2.58828 -5.25741 0
M  V30 2106 N 326.138 -2.68068 -3.77503 0
M  V30 2107 H 323.299 -5.40332 -6.79951 0
M  V30 2108 H 323.029 -4.41613 -5.32378 0
M  V30 2109 H 323.896 -3.26331 -7.47797 0
M  V30 2110 P 327.858 -2.75334 -8.47391 0
M  V30 2111 O 328.078 -2.44571 -9.90142 0
M  V30 2112 O 328.648 -3.87688 -7.92115 0
M  V30 2113 O 328.108 -1.4459 -7.59357 0
M  V30 2114 C 327.168 -0.347608 -7.69215 0
M  V30 2115 C 327.898 0.96767 -7.52806 0
M  V30 2116 O 328.108 1.21036 -6.1011 0
M  V30 2117 C 329.298 1.04544 -8.13308 0
M  V30 2118 O 329.688 2.38311 -8.41922 0
M  V30 2119 C 330.178 0.491279 -7.02284 0
M  V30 2120 C 329.468 0.996264 -5.77469 0
M  V30 2121 N 329.518 0.0501916 -4.62973 0
M  V30 2122 C 329.438 -1.32786 -4.63244 0
M  V30 2123 N 329.518 -1.86957 -3.44545 0
M  V30 2124 C 329.658 -0.780241 -2.58481 0
M  V30 2125 C 329.788 -0.738536 -1.17757 0
M  V30 2126 N 329.908 0.58337 -0.711393 0
M  V30 2127 C 329.908 1.70816 -1.51017 0
M  V30 2128 N 330.038 2.87826 -0.880757 0
M  V30 2129 N 329.778 1.67126 -2.8339 0
M  V30 2130 C 329.658 0.401421 -3.30572 0
M  V30 2131 H 326.679 -0.374722 -8.67691 0
M  V30 2132 H 326.409 -0.443485 -6.90277 0
M  V30 2133 H 327.276 1.75537 -7.96793 0
M  V30 2134 P 331.238 2.75334 -8.47391 0
M  V30 2135 O 331.458 3.84166 -9.4489 0
M  V30 2136 O 332.028 1.51964 -8.6881 0
M  V30 2137 O 331.488 3.29363 -6.99321 0
M  V30 2138 C 330.548 4.23956 -6.42656 0
M  V30 2139 C 331.278 5.20775 -5.52155 0
M  V30 2140 O 331.488 4.56534 -4.22446 0
M  V30 2141 C 332.678 5.62629 -5.96531 0
M  V30 2142 O 333.068 6.87667 -5.41053 0
M  V30 2143 C 333.558 4.52537 -5.39283 0
M  V30 2144 C 332.848 4.20027 -4.08623 0
M  V30 2145 N 332.898 2.7613 -3.71522 0
M  V30 2146 C 333.048 2.45612 -2.37989 0
M  V30 2147 O 333.138 3.30919 -1.51621 0
M  V30 2148 N 333.088 1.10684 -2.08435 0
M  V30 2149 C 332.998 0.0690084 -2.9792 0
M  V30 2150 O 333.048 -1.10553 -2.59426 0
M  V30 2151 C 332.848 0.481522 -4.35345 0
M  V30 2152 C 332.738 -0.618778 -5.36443 0
M  V30 2153 C 332.798 1.78906 -4.67968 0
M  V30 2154 H 330.058 4.797 -7.24003 0
M  V30 2155 H 329.789 3.69802 -5.84429 0
M  V30 2156 H 330.656 6.10356 -5.41441 0
M  V30 2157 H 333.311 4.78651 -3.27911 0
M  V30 2158 H 333.59 3.64957 -6.05871 0
M  V30 2159 H 334.582 4.8868 -5.2125 0
M  V30 2160 H 332.748 5.66726 -7.06352 0
M  V30 2161 H 332.677 2.07737 -5.72367 0
M  V30 2162 H 333.707 -0.754375 -5.86871 0
M  V30 2163 H 331.97 -0.359721 -6.10641 0
M  V30 2164 H 332.458 -1.55533 -4.8581 0
M  V30 2165 H 333.194 0.862651 -1.12037 0
M  V30 2166 P 334.618 7.20834 -5.23717 0
M  V30 2167 O 334.838 8.66104 -5.38572 0
M  V30 2168 O 335.408 6.33544 -6.1349 0
M  V30 2169 O 334.868 6.7751 -3.72168 0
M  V30 2170 C 333.928 7.20825 -2.7076 0
M  V30 2171 C 334.658 7.45864 -1.40599 0
M  V30 2172 O 334.868 6.17651 -0.734225 0
M  V30 2173 C 336.058 8.05808 -1.51899 0
M  V30 2174 O 336.448 8.74358 -0.335205 0
M  V30 2175 C 336.938 6.83093 -1.70294 0
M  V30 2176 C 336.228 5.79992 -0.836974 0
M  V30 2177 N 336.278 4.41864 -1.38293 0
M  V30 2178 H 333.439 8.13644 -3.0377 0
M  V30 2179 H 333.169 6.42788 -2.55485 0
M  V30 2180 H 334.036 8.12039 -0.792769 0
M  V30 2181 P 337.998 8.91 1.4976e-12 0
M  V30 2182 O 338.218 10.1736 0.733766 0
M  V30 2183 O 338.788 8.73247 -1.2395 0
M  V30 2184 O 338.248 7.66872 0.971405 0
M  V30 2185 C 337.308 7.42212 2.04614 0
M  V30 2186 C 338.038 6.86059 3.24661 0
M  V30 2187 O 338.248 5.42847 3.03646 0
M  V30 2188 C 339.438 7.41196 3.50753 0
M  V30 2189 O 339.828 7.27073 4.86816 0
M  V30 2190 C 340.318 6.5273 2.63741 0
M  V30 2191 C 339.608 5.1842 2.73198 0
M  V30 2192 N 339.658 4.38668 1.47808 0
M  V30 2193 C 339.808 3.02239 1.60048 0
M  V30 2194 O 339.898 2.46459 2.67869 0
M  V30 2195 N 339.848 2.32436 0.408571 0
M  V30 2196 C 339.758 2.85471 -0.854993 0
M  V30 2197 O 339.808 2.12566 -1.8531 0
M  V30 2198 C 339.608 4.28918 -0.887335 0
M  V30 2199 C 339.498 4.91066 -2.24619 0
M  V30 2200 C 339.558 5.00349 0.255399 0
M  V30 2201 H 336.818 8.36803 2.32493 0
M  V30 2202 H 336.549 6.701 1.71105 0
M  V30 2203 H 337.416 7.03551 4.13168 0
M  V30 2204 H 340.071 4.59773 3.53894 0
M  V30 2205 H 340.35 6.88995 1.59871 0
M  V30 2206 H 341.342 6.46749 3.03687 0
M  V30 2207 H 339.508 8.46908 3.20714 0
M  V30 2208 H 339.437 6.08548 0.206986 0
M  V30 2209 H 340.467 5.34836 -2.53099 0
M  V30 2210 H 338.73 5.69638 -2.2291 0
M  V30 2211 H 339.218 4.13971 -2.98044 0
M  V30 2212 H 339.954 1.33211 0.474216 0
M  V30 2213 P 341.378 7.20834 5.23717 0
M  V30 2214 O 341.598 7.79853 6.57286 0
M  V30 2215 O 342.168 7.79239 4.12957 0
M  V30 2216 O 341.628 5.63315 5.29344 0
M  V30 2217 C 340.688 4.80255 6.01876 0
M  V30 2218 C 341.418 3.64202 6.65911 0
M  V30 2219 O 341.628 2.60694 5.64732 0
M  V30 2220 C 342.818 3.93473 7.1943 0
M  V30 2221 O 343.208 3.02071 8.21205 0
M  V30 2222 C 343.698 3.73047 5.97036 0
M  V30 2223 C 342.988 2.58828 5.25741 0
M  V30 2224 N 343.038 2.68068 3.77503 0
M  V30 2225 H 340.199 5.40332 6.79951 0
M  V30 2226 H 339.929 4.41613 5.32378 0
M  V30 2227 H 340.796 3.26331 7.47797 0
M  V30 2228 P 344.758 2.75334 8.47391 0
M  V30 2229 O 344.978 2.44571 9.90142 0
M  V30 2230 O 345.548 3.87688 7.92115 0
M  V30 2231 O 345.008 1.4459 7.59357 0
M  V30 2232 C 344.068 0.347608 7.69215 0
M  V30 2233 C 344.798 -0.96767 7.52806 0
M  V30 2234 O 345.008 -1.21036 6.1011 0
M  V30 2235 C 346.198 -1.04544 8.13308 0
M  V30 2236 O 346.588 -2.38311 8.41922 0
M  V30 2237 C 347.078 -0.491279 7.02284 0
M  V30 2238 C 346.368 -0.996264 5.77469 0
M  V30 2239 N 346.418 -0.0501916 4.62973 0
M  V30 2240 H 343.579 0.374722 8.67691 0
M  V30 2241 H 343.309 0.443485 6.90277 0
M  V30 2242 H 344.176 -1.75537 7.96793 0
M  V30 2243 P 348.138 -2.75334 8.47391 0
M  V30 2244 O 348.358 -3.84128 9.44797 0
M  V30 2245 O 348.928 -1.51947 8.68712 0
M  V30 2246 O 348.388 -3.29363 6.99321 0
M  V30 2247 C 347.448 -4.24011 6.4274 0
M  V30 2248 C 348.178 -5.20775 5.52155 0
M  V30 2249 O 348.388 -4.56534 4.22446 0
M  V30 2250 C 349.578 -5.62629 5.96531 0
M  V30 2251 O 349.968 -6.87667 5.41053 0
M  V30 2252 C 350.458 -4.52537 5.39283 0
M  V30 2253 C 349.748 -4.20027 4.08623 0
M  V30 2254 N 349.798 -2.76189 3.71603 0
M  V30 2255 H 346.959 -4.797 7.24003 0
M  V30 2256 H 346.689 -3.69856 5.84513 0
M  V30 2257 H 347.556 -6.10356 5.41441 0
M  V30 2258 P 351.518 -7.20834 5.23717 0
M  V30 2259 O 351.738 -8.66104 5.38572 0
M  V30 2260 O 352.308 -6.33544 6.1349 0
M  V30 2261 O 351.768 -6.7751 3.72168 0
M  V30 2262 C 350.828 -7.20825 2.7076 0
M  V30 2263 C 351.558 -7.45864 1.40599 0
M  V30 2264 O 351.768 -6.17651 0.734225 0
M  V30 2265 C 352.958 -8.05808 1.51899 0
M  V30 2266 O 353.348 -8.74358 0.335205 0
M  V30 2267 C 353.838 -6.83093 1.70294 0
M  V30 2268 C 353.128 -5.79992 0.836974 0
M  V30 2269 N 353.178 -4.41864 1.38293 0
M  V30 2270 H 350.339 -8.13644 3.0377 0
M  V30 2271 H 350.069 -6.42788 2.55485 0
M  V30 2272 H 350.936 -8.12039 0.792769 0
M  V30 2273 P 354.898 -8.91 -1.65478e-12 0
M  V30 2274 O 355.118 -10.1726 -0.733694 0
M  V30 2275 O 355.688 -8.73148 1.23936 0
M  V30 2276 O 355.148 -7.66872 -0.971405 0
M  V30 2277 C 354.208 -7.42309 -2.04641 0
M  V30 2278 C 354.938 -6.86059 -3.24661 0
M  V30 2279 O 355.148 -5.42847 -3.03646 0
M  V30 2280 C 356.338 -7.41196 -3.50753 0
M  V30 2281 O 356.728 -7.27073 -4.86816 0
M  V30 2282 C 357.218 -6.5273 -2.63741 0
M  V30 2283 C 356.508 -5.1842 -2.73198 0
M  V30 2284 N 356.558 -4.38762 -1.4784 0
M  V30 2285 H 353.719 -8.36803 -2.32493 0
M  V30 2286 H 353.449 -6.70197 -1.71129 0
M  V30 2287 H 354.316 -7.03551 -4.13168 0
M  V30 2288 P 358.278 -7.20834 -5.23717 0
M  V30 2289 O 358.498 -7.79853 -6.57286 0
M  V30 2290 O 359.068 -7.79239 -4.12957 0
M  V30 2291 O 358.528 -5.63315 -5.29344 0
M  V30 2292 C 357.588 -4.80255 -6.01876 0
M  V30 2293 C 358.318 -3.64202 -6.65911 0
M  V30 2294 O 358.528 -2.60694 -5.64732 0
M  V30 2295 C 359.718 -3.93473 -7.1943 0
M  V30 2296 O 360.108 -3.02071 -8.21205 0
M  V30 2297 C 360.598 -3.73047 -5.97036 0
M  V30 2298 C 359.888 -2.58828 -5.25741 0
M  V30 2299 N 359.938 -2.68068 -3.77503 0
M  V30 2300 H 357.099 -5.40332 -6.79951 0
M  V30 2301 H 356.829 -4.41613 -5.32378 0
M  V30 2302 H 357.696 -3.26331 -7.47797 0
M  V30 2303 P 361.658 -2.75334 -8.47391 0
M  V30 2304 O 361.878 -2.44571 -9.90142 0
M  V30 2305 O 362.448 -3.87688 -7.92115 0
M  V30 2306 O 361.908 -1.4459 -7.59357 0
M  V30 2307 C 360.968 -0.347608 -7.69215 0
M  V30 2308 C 361.698 0.96767 -7.52806 0
M  V30 2309 O 361.908 1.21036 -6.1011 0
M  V30 2310 C 363.098 1.04544 -8.13308 0
M  V30 2311 O 363.488 2.38311 -8.41922 0
M  V30 2312 C 363.978 0.491279 -7.02284 0
M  V30 2313 C 363.268 0.996264 -5.77469 0
M  V30 2314 N 363.318 0.0501916 -4.62973 0
M  V30 2315 C 363.238 -1.32786 -4.63244 0
M  V30 2316 N 363.318 -1.86957 -3.44545 0
M  V30 2317 C 363.458 -0.780241 -2.58481 0
M  V30 2318 C 363.588 -0.738536 -1.17757 0
M  V30 2319 O 363.608 -1.66794 -0.372349 0
M  V30 2320 N 363.708 0.58337 -0.711393 0
M  V30 2321 C 363.708 1.70816 -1.51017 0
M  V30 2322 N 363.838 2.87826 -0.880757 0
M  V30 2323 N 363.578 1.67126 -2.8339 0
M  V30 2324 C 363.458 0.401421 -3.30572 0
M  V30 2325 H 360.479 -0.374722 -8.67691 0
M  V30 2326 H 360.209 -0.443485 -6.90277 0
M  V30 2327 H 361.076 1.75537 -7.96793 0
M  V30 2328 H 363.731 1.95076 -5.46529 0
M  V30 2329 H 364.01 -0.608565 -7.04577 0
M  V30 2330 H 365.002 0.889672 -7.08939 0
M  V30 2331 H 363.168 0.43308 -9.04564 0
M  V30 2332 H 363.119 -1.91249 -5.54442 0
M  V30 2333 H 363.801 0.718054 0.275244 0
M  V30 2334 H 363.838 3.75721 -1.41832 0
M  V30 2335 H 363.939 2.90436 0.145468 0
M  V30 2336 P 365.038 2.75334 -8.47391 0
M  V30 2337 O 365.258 3.84128 -9.44797 0
M  V30 2338 O 365.828 1.51947 -8.68712 0
M  V30 2339 O 365.288 3.29363 -6.99321 0
M  V30 2340 C 364.348 4.24011 -6.4274 0
M  V30 2341 C 365.078 5.20775 -5.52155 0
M  V30 2342 O 365.288 4.56534 -4.22446 0
M  V30 2343 C 366.478 5.62629 -5.96531 0
M  V30 2344 O 366.868 6.87667 -5.41053 0
M  V30 2345 C 367.358 4.52537 -5.39283 0
M  V30 2346 C 366.648 4.20027 -4.08623 0
M  V30 2347 N 366.698 2.76189 -3.71603 0
M  V30 2348 H 363.859 4.797 -7.24003 0
M  V30 2349 H 363.589 3.69856 -5.84513 0
M  V30 2350 H 364.456 6.10356 -5.41441 0
M  V30 2351 P 368.418 7.20834 -5.23717 0
M  V30 2352 O 368.638 8.66104 -5.38572 0
M  V30 2353 O 369.208 6.33544 -6.1349 0
M  V30 2354 O 368.668 6.7751 -3.72168 0
M  V30 2355 C 367.728 7.20825 -2.7076 0
M  V30 2356 C 368.458 7.45864 -1.40599 0
M  V30 2357 O 368.668 6.17651 -0.734225 0
M  V30 2358 C 369.858 8.05808 -1.51899 0
M  V30 2359 O 370.248 8.74358 -0.335205 0
M  V30 2360 C 370.738 6.83093 -1.70294 0
M  V30 2361 C 370.028 5.79992 -0.836974 0
M  V30 2362 N 370.078 4.41864 -1.38293 0
M  V30 2363 C 369.998 3.99538 -2.69438 0
M  V30 2364 N 370.078 2.69909 -2.84277 0
M  V30 2365 C 370.218 2.21719 -1.5408 0
M  V30 2366 C 370.348 0.891712 -1.06628 0
M  V30 2367 N 370.468 0.856846 0.334985 0
M  V30 2368 C 370.468 1.9641 1.15789 0
M  V30 2369 N 370.598 1.72708 2.46522 0
M  V30 2370 N 370.338 3.21165 0.713741 0
M  V30 2371 C 370.218 3.26797 -0.639748 0
M  V30 2372 H 367.239 8.13644 -3.0377 0
M  V30 2373 H 366.969 6.42788 -2.55485 0
M  V30 2374 H 367.836 8.12039 -0.792769 0
M  V30 2375 P 371.798 8.91 1.81197e-12 0
M  V30 2376 O 372.018 10.1726 0.733694 0
M  V30 2377 O 372.588 8.73148 -1.23936 0
M  V30 2378 O 372.048 7.66872 0.971405 0
M  V30 2379 C 371.108 7.42309 2.04641 0
M  V30 2380 C 371.838 6.86059 3.24661 0
M  V30 2381 O 372.048 5.42847 3.03646 0
M  V30 2382 C 373.238 7.41196 3.50753 0
M  V30 2383 O 373.628 7.27073 4.86816 0
M  V30 2384 C 374.118 6.5273 2.63741 0
M  V30 2385 C 373.408 5.1842 2.73198 0
M  V30 2386 N 373.458 4.38762 1.4784 0
M  V30 2387 H 370.619 8.36803 2.32493 0
M  V30 2388 H 370.349 6.70197 1.71129 0
M  V30 2389 H 371.216 7.03551 4.13168 0
M  V30 2390 P 375.178 7.20834 5.23717 0
M  V30 2391 O 375.398 7.79853 6.57286 0
M  V30 2392 O 375.968 7.79239 4.12957 0
M  V30 2393 O 375.428 5.63315 5.29344 0
M  V30 2394 C 374.488 4.80255 6.01876 0
M  V30 2395 C 375.218 3.64202 6.65911 0
M  V30 2396 O 375.428 2.60694 5.64732 0
M  V30 2397 C 376.618 3.93473 7.1943 0
M  V30 2398 O 377.008 3.02071 8.21205 0
M  V30 2399 C 377.498 3.73047 5.97036 0
M  V30 2400 C 376.788 2.58828 5.25741 0
M  V30 2401 N 376.838 2.68068 3.77503 0
M  V30 2402 H 373.999 5.40332 6.79951 0
M  V30 2403 H 373.729 4.41613 5.32378 0
M  V30 2404 H 374.596 3.26331 7.47797 0
M  V30 2405 P 378.558 2.75334 8.47391 0
M  V30 2406 O 378.778 2.44571 9.90142 0
M  V30 2407 O 379.348 3.87688 7.92115 0
M  V30 2408 O 378.808 1.4459 7.59357 0
M  V30 2409 C 377.868 0.347608 7.69215 0
M  V30 2410 C 378.598 -0.96767 7.52806 0
M  V30 2411 O 378.808 -1.21036 6.1011 0
M  V30 2412 C 379.998 -1.04544 8.13308 0
M  V30 2413 O 380.388 -2.38311 8.41922 0
M  V30 2414 C 380.878 -0.491279 7.02284 0
M  V30 2415 C 380.168 -0.996264 5.77469 0
M  V30 2416 N 380.218 -0.0501916 4.62973 0
M  V30 2417 H 377.379 0.374722 8.67691 0
M  V30 2418 H 377.109 0.443485 6.90277 0
M  V30 2419 H 377.976 -1.75537 7.96793 0
M  V30 2420 P 381.938 -2.75334 8.47391 0
M  V30 2421 O 382.158 -3.84128 9.44797 0
M  V30 2422 O 382.728 -1.51947 8.68712 0
M  V30 2423 O 382.188 -3.29363 6.99321 0
M  V30 2424 C 381.248 -4.24011 6.4274 0
M  V30 2425 C 381.978 -5.20775 5.52155 0
M  V30 2426 O 382.188 -4.56534 4.22446 0
M  V30 2427 C 383.378 -5.62629 5.96531 0
M  V30 2428 O 383.768 -6.87667 5.41053 0
M  V30 2429 C 384.258 -4.52537 5.39283 0
M  V30 2430 C 383.548 -4.20027 4.08623 0
M  V30 2431 N 383.598 -2.76189 3.71603 0
M  V30 2432 H 380.759 -4.797 7.24003 0
M  V30 2433 H 380.489 -3.69856 5.84513 0
M  V30 2434 H 381.356 -6.10356 5.41441 0
M  V30 2435 P 385.318 -7.20834 5.23717 0
M  V30 2436 O 385.538 -8.66104 5.38572 0
M  V30 2437 O 386.108 -6.33544 6.1349 0
M  V30 2438 O 385.568 -6.7751 3.72168 0
M  V30 2439 C 384.628 -7.20825 2.7076 0
M  V30 2440 C 385.358 -7.45864 1.40599 0
M  V30 2441 O 385.568 -6.17651 0.734225 0
M  V30 2442 C 386.758 -8.05808 1.51899 0
M  V30 2443 O 387.148 -8.74358 0.335205 0
M  V30 2444 C 387.638 -6.83093 1.70294 0
M  V30 2445 C 386.928 -5.79992 0.836974 0
M  V30 2446 N 386.978 -4.41864 1.38293 0
M  V30 2447 H 384.139 -8.13644 3.0377 0
M  V30 2448 H 383.869 -6.42788 2.55485 0
M  V30 2449 H 384.736 -8.12039 0.792769 0
M  V30 2450 P 388.698 -8.91 -1.96915e-12 0
M  V30 2451 O 388.918 -10.1726 -0.733694 0
M  V30 2452 O 389.488 -8.73148 1.23936 0
M  V30 2453 O 388.948 -7.66872 -0.971405 0
M  V30 2454 C 388.008 -7.42309 -2.04641 0
M  V30 2455 C 388.738 -6.86059 -3.24661 0
M  V30 2456 O 388.948 -5.42847 -3.03646 0
M  V30 2457 C 390.138 -7.41196 -3.50753 0
M  V30 2458 O 390.528 -7.27073 -4.86816 0
M  V30 2459 C 391.018 -6.5273 -2.63741 0
M  V30 2460 C 390.308 -5.1842 -2.73198 0
M  V30 2461 N 390.358 -4.38762 -1.4784 0
M  V30 2462 H 387.519 -8.36803 -2.32493 0
M  V30 2463 H 387.249 -6.70197 -1.71129 0
M  V30 2464 H 388.116 -7.03551 -4.13168 0
M  V30 2465 P 392.078 -7.20834 -5.23717 0
M  V30 2466 O 392.298 -7.7993 -6.57351 0
M  V30 2467 O 392.868 -7.79328 -4.13004 0
M  V30 2468 O 392.328 -5.63315 -5.29344 0
M  V30 2469 C 391.388 -4.80193 -6.01798 0
M  V30 2470 C 392.118 -3.64202 -6.65911 0
M  V30 2471 O 392.328 -2.60694 -5.64732 0
M  V30 2472 C 393.518 -3.93473 -7.1943 0
M  V30 2473 O 393.908 -3.02071 -8.21205 0
M  V30 2474 C 394.398 -3.73047 -5.97036 0
M  V30 2475 C 393.688 -2.58828 -5.25741 0
M  V30 2476 N 393.738 -2.6801 -3.77422 0
M  V30 2477 C 393.888 -1.50443 -3.07133 0
M  V30 2478 O 393.978 -0.419406 -3.61576 0
M  V30 2479 N 393.928 -1.6403 -1.69677 0
M  V30 2480 C 393.838 -2.81206 -0.986255 0
M  V30 2481 O 393.888 -2.80892 0.249754 0
M  V30 2482 C 393.688 -3.99158 -1.80325 0
M  V30 2483 C 393.578 -5.29309 -1.06921 0
M  V30 2484 C 393.638 -3.89779 -3.1476 0
M  V30 2485 H 390.898 -5.40332 -6.79951 0
M  V30 2486 H 390.629 -4.41549 -5.32301 0
M  V30 2487 H 391.496 -3.26331 -7.47797 0
M  V30 2488 H 394.151 -1.6395 -5.56554 0
M  V30 2489 H 394.43 -4.63439 -5.3432 0
M  V30 2490 H 395.422 -3.44728 -6.25838 0
M  V30 2491 H 393.588 -4.96652 -7.57263 0
M  V30 2492 H 393.517 -4.80159 -3.74441 0
M  V30 2493 H 394.547 -5.81459 -1.09608 0
M  V30 2494 H 392.81 -5.9187 -1.54487 0
M  V30 2495 H 393.298 -5.10095 -0.0220288 0
M  V30 2496 H 394.034 -0.798962 -1.16664 0
M  V30 2497 P 395.458 -2.75334 -8.47391 0
M  V30 2498 O 395.678 -2.44571 -9.90142 0
M  V30 2499 O 396.248 -3.87688 -7.92115 0
M  V30 2500 O 395.708 -1.4459 -7.59357 0
M  V30 2501 C 394.768 -0.347608 -7.69215 0
M  V30 2502 C 395.498 0.96767 -7.52806 0
M  V30 2503 O 395.708 1.21036 -6.1011 0
M  V30 2504 C 396.898 1.04544 -8.13308 0
M  V30 2505 O 397.288 2.38311 -8.41922 0
M  V30 2506 C 397.778 0.491279 -7.02284 0
M  V30 2507 C 397.068 0.996264 -5.77469 0
M  V30 2508 N 397.118 0.0501916 -4.62973 0
M  V30 2509 H 394.279 -0.374722 -8.67691 0
M  V30 2510 H 394.009 -0.443485 -6.90277 0
M  V30 2511 H 394.876 1.75537 -7.96793 0
M  V30 2512 P 398.838 2.75334 -8.47391 0
M  V30 2513 O 399.058 3.84128 -9.44797 0
M  V30 2514 O 399.628 1.51947 -8.68712 0
M  V30 2515 O 399.088 3.29363 -6.99321 0
M  V30 2516 C 398.148 4.24011 -6.4274 0
M  V30 2517 C 398.878 5.20775 -5.52155 0
M  V30 2518 O 399.088 4.56534 -4.22446 0
M  V30 2519 C 400.278 5.62629 -5.96531 0
M  V30 2520 O 400.668 6.87667 -5.41053 0
M  V30 2521 C 401.158 4.52537 -5.39283 0
M  V30 2522 C 400.448 4.20027 -4.08623 0
M  V30 2523 N 400.498 2.76189 -3.71603 0
M  V30 2524 C 400.418 1.64862 -4.52822 0
M  V30 2525 N 400.498 0.512671 -3.88633 0
M  V30 2526 C 400.638 0.888083 -2.54977 0
M  V30 2527 C 400.768 0.094668 -1.38677 0
M  V30 2528 O 400.788 -1.13053 -1.28163 0
M  V30 2529 N 400.888 0.890102 -0.232633 0
M  V30 2530 C 400.888 2.26958 -0.21772 0
M  V30 2531 N 401.018 2.84626 0.97925 0
M  V30 2532 N 400.758 3.0178 -1.31033 0
M  V30 2533 C 400.638 2.26781 -2.43843 0
M  V30 2534 H 397.659 4.797 -7.24003 0
M  V30 2535 H 397.389 3.69856 -5.84513 0
M  V30 2536 H 398.256 6.10356 -5.41441 0
M  V30 2537 H 400.911 4.79061 -3.27488 0
M  V30 2538 H 401.19 3.64906 -6.05785 0
M  V30 2539 H 402.182 4.8868 -5.2125 0
M  V30 2540 H 400.348 5.66726 -7.06352 0
M  V30 2541 H 400.299 1.71169 -5.60966 0
M  V30 2542 H 400.981 0.419134 0.644739 0
M  V30 2543 H 401.018 3.87332 1.06098 0
M  V30 2544 H 401.119 2.26417 1.82483 0
M  V30 2545 P 402.218 7.20834 -5.23717 0
M  V30 2546 O 402.438 8.66104 -5.38572 0
M  V30 2547 O 403.008 6.33544 -6.1349 0
M  V30 2548 O 402.468 6.7751 -3.72168 0
M  V30 2549 C 401.528 7.20825 -2.7076 0
M  V30 2550 C 402.258 7.45864 -1.40599 0
M  V30 2551 O 402.468 6.17651 -0.734225 0
M  V30 2552 C 403.658 8.05808 -1.51899 0
M  V30 2553 O 404.048 8.74358 -0.335205 0
M  V30 2554 C 404.538 6.83093 -1.70294 0
M  V30 2555 C 403.828 5.79992 -0.836974 0
M  V30 2556 N 403.878 4.41864 -1.38293 0
M  V30 2557 H 401.039 8.13644 -3.0377 0
M  V30 2558 H 400.769 6.42788 -2.55485 0
M  V30 2559 H 401.636 8.12039 -0.792769 0
M  V30 2560 P 405.598 8.91 2.12633e-12 0
M  V30 2561 O 405.818 10.1746 0.733838 0
M  V30 2562 O 406.388 8.73346 -1.23964 0
M  V30 2563 O 405.848 7.66872 0.971405 0
M  V30 2564 C 404.908 7.42405 2.04668 0
M  V30 2565 C 405.638 6.86059 3.24661 0
M  V30 2566 O 405.848 5.42934 3.03695 0
M  V30 2567 C 407.038 7.41287 3.50796 0
M  V30 2568 O 407.428 7.27073 4.86816 0
M  V30 2569 C 407.918 6.5273 2.63741 0
M  V30 2570 C 407.208 5.1842 2.73198 0
M  V30 2571 N 407.258 4.38762 1.4784 0
M  V30 2572 H 404.42 8.36899 2.3252 0
M  V30 2573 H 404.148 6.70391 1.71179 0
M  V30 2574 H 405.016 7.03638 4.13219 0
M  V30 2575 H 407.671 4.59931 3.54016 0
M  V30 2576 H 407.951 6.88995 1.59871 0
M  V30 2577 H 408.942 6.4684 3.0373 0
M  V30 2578 H 407.108 8.47002 3.20749 0
M  V30 2579 P 408.978 7.20834 5.23717 0
M  V30 2580 O 409.198 7.80006 6.57415 0
M  V30 2581 O 409.768 7.79416 4.13051 0
M  V30 2582 O 409.228 5.63315 5.29344 0
M  V30 2583 C 408.288 4.80318 6.01954 0
M  V30 2584 C 409.018 3.64202 6.65911 0
M  V30 2585 O 409.228 2.60736 5.64823 0
M  V30 2586 C 410.418 3.93521 7.19518 0
M  V30 2587 O 410.808 3.02071 8.21205 0
M  V30 2588 C 411.298 3.73047 5.97036 0
M  V30 2589 C 410.588 2.58828 5.25741 0
M  V30 2590 N 410.638 2.68068 3.77503 0
M  V30 2591 H 407.8 5.40394 6.8003 0
M  V30 2592 H 407.528 4.41741 5.32532 0
M  V30 2593 H 408.396 3.26371 7.47889 0
M  V30 2594 H 411.051 1.64007 5.56746 0
M  V30 2595 H 411.331 4.63439 5.3432 0
M  V30 2596 H 412.322 3.44776 6.25925 0
M  V30 2597 H 410.488 4.96707 7.57347 0
M  V30 2598 P 412.358 2.75334 8.47391 0
M  V30 2599 O 412.578 2.44571 9.90142 0
M  V30 2600 O 413.148 3.87688 7.92115 0
M  V30 2601 O 412.608 1.4459 7.59357 0
M  V30 2602 C 411.668 0.347608 7.69215 0
M  V30 2603 C 412.398 -0.96767 7.52806 0
M  V30 2604 O 412.608 -1.21036 6.1011 0
M  V30 2605 C 413.798 -1.04544 8.13308 0
M  V30 2606 O 414.188 -2.38311 8.41922 0
M  V30 2607 C 414.678 -0.491279 7.02284 0
M  V30 2608 C 413.968 -0.996264 5.77469 0
M  V30 2609 N 414.018 -0.0501916 4.62973 0
M  V30 2610 H 411.179 0.374722 8.67691 0
M  V30 2611 H 410.909 0.443485 6.90277 0
M  V30 2612 H 411.776 -1.75537 7.96793 0
M  V30 2613 P 415.738 -2.75334 8.47391 0
M  V30 2614 O 415.958 -3.84204 9.44982 0
M  V30 2615 O 416.528 -1.51982 8.68909 0
M  V30 2616 O 415.988 -3.29363 6.99321 0
M  V30 2617 C 415.048 -4.24066 6.42823 0
M  V30 2618 C 415.778 -5.20775 5.52155 0
M  V30 2619 O 415.988 -4.56607 4.22514 0
M  V30 2620 C 417.178 -5.62697 5.96604 0
M  V30 2621 O 417.568 -6.87667 5.41053 0
M  V30 2622 C 418.058 -4.52537 5.39283 0
M  V30 2623 C 417.348 -4.20027 4.08623 0
M  V30 2624 N 417.398 -2.76189 3.71603 0
M  V30 2625 C 417.318 -1.66944 4.54297 0
M  V30 2626 N 417.388 -0.536169 3.91344 0
M  V30 2627 C 417.538 -0.901569 2.58849 0
M  V30 2628 C 417.668 -0.146599 1.40236 0
M  V30 2629 N 417.678 1.18234 1.37046 0
M  V30 2630 N 417.788 -0.822941 0.249738 0
M  V30 2631 C 417.778 -2.15179 0.280525 0
M  V30 2632 N 417.658 -2.96414 1.30822 0
M  V30 2633 C 417.538 -2.25804 2.44748 0
M  V30 2634 H 414.56 -4.79756 7.24086 0
M  V30 2635 H 414.288 -3.69963 5.84682 0
M  V30 2636 H 415.156 -6.10431 5.41508 0
M  V30 2637 H 417.811 -4.78816 3.28024 0
M  V30 2638 H 418.091 -3.64957 6.05871 0
M  V30 2639 H 419.082 -4.88748 5.21323 0
M  V30 2640 H 417.248 -5.66789 7.0643 0
M  V30 2641 H 417.207 -1.74684 5.62396 0
M  V30 2642 H 417.588 1.71949 2.24394 0
M  V30 2643 H 417.777 1.67511 0.470742 0
M  V30 2644 H 417.885 -2.63704 -0.6828 0
M  V30 2645 P 419.118 -7.20834 5.23717 0
M  V30 2646 O 419.338 -8.66274 5.38678 0
M  V30 2647 O 419.908 -6.33687 6.13629 0
M  V30 2648 O 419.368 -6.7751 3.72168 0
M  V30 2649 C 418.428 -7.20919 2.70795 0
M  V30 2650 C 419.158 -7.45864 1.40599 0
M  V30 2651 O 419.368 -6.17751 0.734343 0
M  V30 2652 C 420.558 -8.05906 1.51917 0
M  V30 2653 O 420.948 -8.74358 0.335205 0
M  V30 2654 C 421.438 -6.83093 1.70294 0
M  V30 2655 C 420.728 -5.79992 0.836974 0
M  V30 2656 N 420.778 -4.41864 1.38293 0
M  V30 2657 H 417.94 -8.13738 3.03804 0
M  V30 2658 H 417.668 -6.42974 2.55559 0
M  V30 2659 H 418.536 -8.12139 0.792866 0
M  V30 2660 H 421.191 -5.80178 -0.160643 0
M  V30 2661 H 421.471 -6.51379 2.75643 0
M  V30 2662 H 422.462 -7.01832 1.3448 0
M  V30 2663 H 420.628 -8.73771 2.38364 0
M  V30 2664 P 422.497 -8.91 -2.28351e-12 0
M  V30 2665 O 422.717 -10.1726 -0.733694 0
M  V30 2666 O 423.287 -8.73148 1.23936 0
M  V30 2667 O 422.747 -7.66872 -0.971405 0
M  V30 2668 C 421.807 -7.42309 -2.04641 0
M  V30 2669 C 422.537 -6.86059 -3.24661 0
M  V30 2670 O 422.747 -5.42847 -3.03646 0
M  V30 2671 C 423.937 -7.41196 -3.50753 0
M  V30 2672 O 424.327 -7.27073 -4.86816 0
M  V30 2673 C 424.817 -6.5273 -2.63741 0
M  V30 2674 C 424.107 -5.1842 -2.73198 0
M  V30 2675 N 424.157 -4.38762 -1.4784 0
M  V30 2676 H 421.318 -8.36803 -2.32493 0
M  V30 2677 H 421.048 -6.70197 -1.71129 0
M  V30 2678 H 421.915 -7.03551 -4.13168 0
M  V30 2679 P 425.877 -7.20834 -5.23717 0
M  V30 2680 O 426.097 -7.79853 -6.57286 0
M  V30 2681 O 426.667 -7.79239 -4.12957 0
M  V30 2682 O 426.127 -5.63315 -5.29344 0
M  V30 2683 C 425.187 -4.80255 -6.01876 0
M  V30 2684 C 425.917 -3.64202 -6.65911 0
M  V30 2685 O 426.127 -2.60694 -5.64732 0
M  V30 2686 C 427.317 -3.93473 -7.1943 0
M  V30 2687 O 427.707 -3.02071 -8.21205 0
M  V30 2688 C 428.197 -3.73047 -5.97036 0
M  V30 2689 C 427.487 -2.58828 -5.25741 0
M  V30 2690 N 427.537 -2.68068 -3.77503 0
M  V30 2691 H 424.698 -5.40332 -6.79951 0
M  V30 2692 H 424.428 -4.41613 -5.32378 0
M  V30 2693 H 425.295 -3.26331 -7.47797 0
M  V30 2694 P 429.257 -2.75334 -8.47391 0
M  V30 2695 O 429.477 -2.44571 -9.90142 0
M  V30 2696 O 430.047 -3.87688 -7.92115 0
M  V30 2697 O 429.507 -1.4459 -7.59357 0
M  V30 2698 C 428.567 -0.347608 -7.69215 0
M  V30 2699 C 429.297 0.96767 -7.52806 0
M  V30 2700 O 429.507 1.21036 -6.1011 0
M  V30 2701 C 430.697 1.04544 -8.13308 0
M  V30 2702 O 431.087 2.38311 -8.41922 0
M  V30 2703 C 431.577 0.491279 -7.02284 0
M  V30 2704 C 430.867 0.996264 -5.77469 0
M  V30 2705 N 430.917 0.0501916 -4.62973 0
M  V30 2706 H 428.078 -0.374722 -8.67691 0
M  V30 2707 H 427.808 -0.443485 -6.90277 0
M  V30 2708 H 428.675 1.75537 -7.96793 0
M  V30 2709 P 432.637 2.75334 -8.47391 0
M  V30 2710 O 432.857 3.84166 -9.4489 0
M  V30 2711 O 433.427 1.51964 -8.6881 0
M  V30 2712 O 432.887 3.29363 -6.99321 0
M  V30 2713 C 431.947 4.23956 -6.42656 0
M  V30 2714 C 432.677 5.20775 -5.52155 0
M  V30 2715 O 432.887 4.56534 -4.22446 0
M  V30 2716 C 434.077 5.62629 -5.96531 0
M  V30 2717 O 434.467 6.87667 -5.41053 0
M  V30 2718 C 434.957 4.52537 -5.39283 0
M  V30 2719 C 434.247 4.20027 -4.08623 0
M  V30 2720 N 434.297 2.7613 -3.71522 0
M  V30 2721 C 434.447 2.45612 -2.37989 0
M  V30 2722 O 434.537 3.30919 -1.51621 0
M  V30 2723 N 434.487 1.10684 -2.08435 0
M  V30 2724 C 434.397 0.0690084 -2.9792 0
M  V30 2725 O 434.447 -1.10553 -2.59426 0
M  V30 2726 C 434.247 0.481522 -4.35345 0
M  V30 2727 C 434.137 -0.618778 -5.36443 0
M  V30 2728 C 434.197 1.78906 -4.67968 0
M  V30 2729 H 431.457 4.797 -7.24003 0
M  V30 2730 H 431.188 3.69802 -5.84429 0
M  V30 2731 H 432.055 6.10356 -5.41441 0
M  V30 2732 H 434.71 4.78651 -3.27911 0
M  V30 2733 H 434.989 3.64957 -6.05871 0
M  V30 2734 H 435.981 4.8868 -5.2125 0
M  V30 2735 H 434.147 5.66726 -7.06352 0
M  V30 2736 H 434.076 2.07737 -5.72367 0
M  V30 2737 H 435.106 -0.754375 -5.86871 0
M  V30 2738 H 433.369 -0.359721 -6.10641 0
M  V30 2739 H 433.857 -1.55533 -4.8581 0
M  V30 2740 H 434.593 0.862651 -1.12037 0
M  V30 2741 P 436.017 7.20834 -5.23717 0
M  V30 2742 O 436.237 8.66104 -5.38572 0
M  V30 2743 O 436.807 6.33544 -6.1349 0
M  V30 2744 O 436.267 6.7751 -3.72168 0
M  V30 2745 C 435.327 7.20825 -2.7076 0
M  V30 2746 C 436.057 7.45864 -1.40599 0
M  V30 2747 O 436.267 6.17651 -0.734225 0
M  V30 2748 C 437.457 8.05808 -1.51899 0
M  V30 2749 O 437.847 8.74358 -0.335205 0
M  V30 2750 C 438.337 6.83093 -1.70294 0
M  V30 2751 C 437.627 5.79992 -0.836974 0
M  V30 2752 N 437.677 4.41864 -1.38293 0
M  V30 2753 C 437.597 3.99538 -2.69438 0
M  V30 2754 N 437.677 2.69909 -2.84277 0
M  V30 2755 C 437.817 2.21719 -1.5408 0
M  V30 2756 C 437.947 0.891712 -1.06628 0
M  V30 2757 O 437.967 -0.161298 -1.70137 0
M  V30 2758 N 438.067 0.856846 0.334985 0
M  V30 2759 C 438.067 1.9641 1.15789 0
M  V30 2760 N 438.197 1.72708 2.46522 0
M  V30 2761 N 437.937 3.21165 0.713741 0
M  V30 2762 C 437.817 3.26797 -0.639748 0
M  V30 2763 H 434.838 8.13644 -3.0377 0
M  V30 2764 H 434.568 6.42788 -2.55485 0
M  V30 2765 H 435.435 8.12039 -0.792769 0
M  V30 2766 H 438.09 5.80061 0.166416 0
M  V30 2767 H 438.369 6.51287 -2.75604 0
M  V30 2768 H 439.361 7.01734 -1.34462 0
M  V30 2769 H 437.527 8.73674 -2.38337 0
M  V30 2770 H 437.478 4.68207 -3.53221 0
M  V30 2771 H 438.16 -0.0398818 0.767965 0
M  V30 2772 H 438.197 2.50995 3.13503 0
M  V30 2773 H 438.298 0.759148 2.80716 0
M  V30 2774 P 439.397 8.91 2.44069e-12 0
M  V30 2775 O 439.617 10.1726 0.733694 0
M  V30 2776 O 440.187 8.73148 -1.23936 0
M  V30 2777 O 439.647 7.66872 0.971405 0
M  V30 2778 C 438.707 7.42309 2.04641 0
M  V30 2779 C 439.437 6.86059 3.24661 0
M  V30 2780 O 439.647 5.42847 3.03646 0
M  V30 2781 C 440.837 7.41196 3.50753 0
M  V30 2782 O 441.227 7.27073 4.86816 0
M  V30 2783 C 441.717 6.5273 2.63741 0
M  V30 2784 C 441.007 5.1842 2.73198 0
M  V30 2785 N 441.057 4.38762 1.4784 0
M  V30 2786 H 438.218 8.36803 2.32493 0
M  V30 2787 H 437.948 6.70197 1.71129 0
M  V30 2788 H 438.815 7.03551 4.13168 0
M  V30 2789 P 442.777 7.20834 5.23717 0
M  V30 2790 O 442.997 7.7993 6.57351 0
M  V30 2791 O 443.567 7.79328 4.13004 0
M  V30 2792 O 443.027 5.63315 5.29344 0
M  V30 2793 C 442.087 4.80193 6.01798 0
M  V30 2794 C 442.817 3.64202 6.65911 0
M  V30 2795 O 443.027 2.60694 5.64732 0
M  V30 2796 C 444.217 3.93473 7.1943 0
M  V30 2797 O 444.607 3.02071 8.21205 0
M  V30 2798 C 445.097 3.73047 5.97036 0
M  V30 2799 C 444.387 2.58828 5.25741 0
M  V30 2800 N 444.437 2.6801 3.77422 0
M  V30 2801 C 444.587 1.50443 3.07133 0
M  V30 2802 O 444.677 0.419406 3.61576 0
M  V30 2803 N 444.627 1.6403 1.69677 0
M  V30 2804 C 444.537 2.81206 0.986255 0
M  V30 2805 O 444.587 2.80892 -0.249754 0
M  V30 2806 C 444.387 3.99158 1.80325 0
M  V30 2807 C 444.277 5.29309 1.06921 0
M  V30 2808 C 444.337 3.89779 3.1476 0
M  V30 2809 H 441.597 5.40332 6.79951 0
M  V30 2810 H 441.328 4.41549 5.32301 0
M  V30 2811 H 442.195 3.26331 7.47797 0
M  V30 2812 H 444.85 1.6395 5.56554 0
M  V30 2813 H 445.129 4.63439 5.3432 0
M  V30 2814 H 446.121 3.44728 6.25838 0
M  V30 2815 H 444.287 4.96652 7.57263 0
M  V30 2816 H 444.216 4.80159 3.74441 0
M  V30 2817 H 445.246 5.81459 1.09608 0
M  V30 2818 H 443.509 5.9187 1.54487 0
M  V30 2819 H 443.997 5.10095 0.0220288 0
M  V30 2820 H 444.733 0.798962 1.16664 0
M  V30 2821 P 446.157 2.75334 8.47391 0
M  V30 2822 O 446.377 2.44571 9.90142 0
M  V30 2823 O 446.947 3.87688 7.92115 0
M  V30 2824 O 446.407 1.4459 7.59357 0
M  V30 2825 C 445.467 0.347608 7.69215 0
M  V30 2826 C 446.197 -0.96767 7.52806 0
M  V30 2827 O 446.407 -1.21036 6.1011 0
M  V30 2828 C 447.597 -1.04544 8.13308 0
M  V30 2829 O 447.987 -2.38311 8.41922 0
M  V30 2830 C 448.477 -0.491279 7.02284 0
M  V30 2831 C 447.767 -0.996264 5.77469 0
M  V30 2832 N 447.817 -0.0501916 4.62973 0
M  V30 2833 C 447.737 1.32786 4.63244 0
M  V30 2834 N 447.817 1.86957 3.44545 0
M  V30 2835 C 447.957 0.780241 2.58481 0
M  V30 2836 C 448.087 0.738536 1.17757 0
M  V30 2837 O 448.107 1.66794 0.372349 0
M  V30 2838 N 448.207 -0.58337 0.711393 0
M  V30 2839 C 448.207 -1.70816 1.51017 0
M  V30 2840 N 448.337 -2.87826 0.880757 0
M  V30 2841 N 448.077 -1.67126 2.8339 0
M  V30 2842 C 447.957 -0.401421 3.30572 0
M  V30 2843 H 444.978 0.374722 8.67691 0
M  V30 2844 H 444.708 0.443485 6.90277 0
M  V30 2845 H 445.575 -1.75537 7.96793 0
M  V30 2846 H 448.23 -1.95076 5.46529 0
M  V30 2847 H 448.509 0.608565 7.04577 0
M  V30 2848 H 449.501 -0.889672 7.08939 0
M  V30 2849 H 447.667 -0.43308 9.04564 0
M  V30 2850 H 447.618 1.91249 5.54442 0
M  V30 2851 H 448.3 -0.718054 -0.275244 0
M  V30 2852 H 448.337 -3.75721 1.41832 0
M  V30 2853 H 448.438 -2.90436 -0.145468 0
M  V30 2854 P 449.537 -2.75334 8.47391 0
M  V30 2855 O 449.757 -3.84166 9.4489 0
M  V30 2856 O 450.327 -1.51964 8.6881 0
M  V30 2857 O 449.787 -3.29363 6.99321 0
M  V30 2858 C 448.847 -4.23956 6.42656 0
M  V30 2859 C 449.577 -5.20775 5.52155 0
M  V30 2860 O 449.787 -4.56534 4.22446 0
M  V30 2861 C 450.977 -5.62629 5.96531 0
M  V30 2862 O 451.367 -6.87667 5.41053 0
M  V30 2863 C 451.857 -4.52537 5.39283 0
M  V30 2864 C 451.147 -4.20027 4.08623 0
M  V30 2865 N 451.197 -2.7613 3.71522 0
M  V30 2866 C 451.347 -2.45612 2.37989 0
M  V30 2867 O 451.437 -3.30919 1.51621 0
M  V30 2868 N 451.387 -1.10684 2.08435 0
M  V30 2869 C 451.297 -0.0690084 2.9792 0
M  V30 2870 C 451.147 -0.481522 4.35345 0
M  V30 2871 C 451.097 -1.78906 4.67968 0
M  V30 2872 H 448.357 -4.797 7.24003 0
M  V30 2873 H 448.088 -3.69802 5.84429 0
M  V30 2874 H 448.955 -6.10356 5.41441 0
M  V30 2875 H 451.61 -4.78651 3.27911 0
M  V30 2876 H 451.889 -3.64957 6.05871 0
M  V30 2877 H 452.881 -4.8868 5.2125 0
M  V30 2878 H 451.047 -5.66726 7.06352 0
M  V30 2879 H 450.976 -2.07737 5.72367 0
M  V30 2880 P 452.917 -7.20834 5.23717 0
M  V30 2881 O 453.137 -8.66104 5.38572 0
M  V30 2882 O 453.707 -6.33544 6.1349 0
M  V30 2883 O 453.167 -6.7751 3.72168 0
M  V30 2884 C 452.227 -7.20825 2.7076 0
M  V30 2885 C 452.957 -7.45864 1.40599 0
M  V30 2886 O 453.167 -6.17651 0.734225 0
M  V30 2887 C 454.357 -8.05808 1.51899 0
M  V30 2888 O 454.747 -8.74358 0.335205 0
M  V30 2889 C 455.237 -6.83093 1.70294 0
M  V30 2890 C 454.527 -5.79992 0.836974 0
M  V30 2891 N 454.577 -4.41864 1.38293 0
M  V30 2892 H 451.738 -8.13644 3.0377 0
M  V30 2893 H 451.468 -6.42788 2.55485 0
M  V30 2894 H 452.335 -8.12039 0.792769 0
M  V30 2895 P 456.297 -8.91 -2.59788e-12 0
M  V30 2896 O 456.517 -10.1726 -0.733694 0
M  V30 2897 O 457.087 -8.73148 1.23936 0
M  V30 2898 O 456.547 -7.66872 -0.971405 0
M  V30 2899 C 455.607 -7.42309 -2.04641 0
M  V30 2900 C 456.337 -6.86059 -3.24661 0
M  V30 2901 O 456.547 -5.42847 -3.03646 0
M  V30 2902 C 457.737 -7.41196 -3.50753 0
M  V30 2903 O 458.127 -7.27073 -4.86816 0
M  V30 2904 C 458.617 -6.5273 -2.63741 0
M  V30 2905 C 457.907 -5.1842 -2.73198 0
M  V30 2906 N 457.957 -4.38762 -1.4784 0
M  V30 2907 H 455.118 -8.36803 -2.32493 0
M  V30 2908 H 454.848 -6.70197 -1.71129 0
M  V30 2909 H 455.715 -7.03551 -4.13168 0
M  V30 2910 P 459.677 -7.20834 -5.23717 0
M  V30 2911 O 459.897 -7.79853 -6.57286 0
M  V30 2912 O 460.467 -7.79239 -4.12957 0
M  V30 2913 O 459.927 -5.63315 -5.29344 0
M  V30 2914 C 458.987 -4.80255 -6.01876 0
M  V30 2915 C 459.717 -3.64202 -6.65911 0
M  V30 2916 O 459.927 -2.60694 -5.64732 0
M  V30 2917 C 461.117 -3.93473 -7.1943 0
M  V30 2918 O 461.507 -3.02071 -8.21205 0
M  V30 2919 C 461.997 -3.73047 -5.97036 0
M  V30 2920 C 461.287 -2.58828 -5.25741 0
M  V30 2921 N 461.337 -2.68068 -3.77503 0
M  V30 2922 H 458.498 -5.40332 -6.79951 0
M  V30 2923 H 458.228 -4.41613 -5.32378 0
M  V30 2924 H 459.095 -3.26331 -7.47797 0
M  V30 2925 P 463.057 -2.75334 -8.47391 0
M  V30 2926 O 463.277 -2.44571 -9.90142 0
M  V30 2927 O 463.847 -3.87688 -7.92115 0
M  V30 2928 O 463.307 -1.4459 -7.59357 0
M  V30 2929 C 462.367 -0.347608 -7.69215 0
M  V30 2930 C 463.097 0.96767 -7.52806 0
M  V30 2931 O 463.307 1.21036 -6.1011 0
M  V30 2932 C 464.497 1.04544 -8.13308 0
M  V30 2933 O 464.887 2.38311 -8.41922 0
M  V30 2934 C 465.377 0.491279 -7.02284 0
M  V30 2935 C 464.667 0.996264 -5.77469 0
M  V30 2936 N 464.717 0.0501916 -4.62973 0
M  V30 2937 H 461.878 -0.374722 -8.67691 0
M  V30 2938 H 461.608 -0.443485 -6.90277 0
M  V30 2939 H 462.475 1.75537 -7.96793 0
M  V30 2940 P 466.437 2.75334 -8.47391 0
M  V30 2941 O 466.657 3.84166 -9.4489 0
M  V30 2942 O 467.227 1.51964 -8.6881 0
M  V30 2943 O 466.687 3.29363 -6.99321 0
M  V30 2944 C 465.747 4.23956 -6.42656 0
M  V30 2945 C 466.477 5.20775 -5.52155 0
M  V30 2946 O 466.687 4.56534 -4.22446 0
M  V30 2947 C 467.877 5.62629 -5.96531 0
M  V30 2948 O 468.267 6.87667 -5.41053 0
M  V30 2949 C 468.757 4.52537 -5.39283 0
M  V30 2950 C 468.047 4.20027 -4.08623 0
M  V30 2951 N 468.097 2.7613 -3.71522 0
M  V30 2952 C 468.247 2.45612 -2.37989 0
M  V30 2953 O 468.337 3.30919 -1.51621 0
M  V30 2954 N 468.287 1.10684 -2.08435 0
M  V30 2955 C 468.197 0.0690084 -2.9792 0
M  V30 2956 C 468.047 0.481522 -4.35345 0
M  V30 2957 C 467.997 1.78906 -4.67968 0
M  V30 2958 H 465.257 4.797 -7.24003 0
M  V30 2959 H 464.988 3.69802 -5.84429 0
M  V30 2960 H 465.855 6.10356 -5.41441 0
M  V30 2961 H 468.51 4.78651 -3.27911 0
M  V30 2962 H 468.789 3.64957 -6.05871 0
M  V30 2963 H 469.781 4.8868 -5.2125 0
M  V30 2964 H 467.947 5.66726 -7.06352 0
M  V30 2965 H 467.876 2.07737 -5.72367 0
M  V30 2966 P 469.817 7.20834 -5.23717 0
M  V30 2967 O 470.037 8.66104 -5.38572 0
M  V30 2968 O 470.607 6.33544 -6.1349 0
M  V30 2969 O 470.067 6.7751 -3.72168 0
M  V30 2970 C 469.127 7.20825 -2.7076 0
M  V30 2971 C 469.857 7.45864 -1.40599 0
M  V30 2972 O 470.067 6.17651 -0.734225 0
M  V30 2973 C 471.257 8.05808 -1.51899 0
M  V30 2974 O 471.647 8.74358 -0.335205 0
M  V30 2975 C 472.137 6.83093 -1.70294 0
M  V30 2976 C 471.427 5.79992 -0.836974 0
M  V30 2977 N 471.477 4.41864 -1.38293 0
M  V30 2978 H 468.638 8.13644 -3.0377 0
M  V30 2979 H 468.368 6.42788 -2.55485 0
M  V30 2980 H 469.235 8.12039 -0.792769 0
M  V30 2981 P 473.197 8.91 2.75506e-12 0
M  V30 2982 O 473.417 10.1746 0.733838 0
M  V30 2983 O 473.987 8.73346 -1.23964 0
M  V30 2984 O 473.447 7.66872 0.971405 0
M  V30 2985 C 472.507 7.42405 2.04668 0
M  V30 2986 C 473.237 6.86059 3.24661 0
M  V30 2987 O 473.447 5.42934 3.03695 0
M  V30 2988 C 474.637 7.41287 3.50796 0
M  V30 2989 O 475.027 7.27073 4.86816 0
M  V30 2990 C 475.517 6.5273 2.63741 0
M  V30 2991 C 474.807 5.1842 2.73198 0
M  V30 2992 N 474.857 4.38762 1.4784 0
M  V30 2993 C 474.777 4.83651 0.183876 0
M  V30 2994 N 474.847 3.88759 -0.699393 0
M  V30 2995 C 474.997 2.7404 0.0575568 0
M  V30 2996 C 475.127 1.37902 -0.293928 0
M  V30 2997 N 475.137 0.938021 -1.54797 0
M  V30 2998 N 475.247 0.491817 0.70549 0
M  V30 2999 C 475.237 0.931735 1.95979 0
M  V30 3000 N 475.117 2.16017 2.41481 0
M  V30 3001 C 474.997 3.02547 1.39121 0
M  V30 3002 H 472.019 8.36899 2.3252 0
M  V30 3003 H 471.747 6.70391 1.71179 0
M  V30 3004 H 472.615 7.03638 4.13219 0
M  V30 3005 H 475.27 4.59931 3.54016 0
M  V30 3006 H 475.55 6.88995 1.59871 0
M  V30 3007 H 476.541 6.4684 3.0373 0
M  V30 3008 H 474.707 8.47002 3.20749 0
M  V30 3009 H 474.666 5.8885 -0.0765548 0
M  V30 3010 H 475.047 1.60276 -2.32875 0
M  V30 3011 H 475.236 -0.0699355 -1.73859 0
M  V30 3012 H 475.344 0.165507 2.71897 0
M  V30 3013 P 476.577 7.20834 5.23717 0
M  V30 3014 O 476.797 7.79853 6.57286 0
M  V30 3015 O 477.367 7.79239 4.12957 0
M  V30 3016 O 476.827 5.63315 5.29344 0
M  V30 3017 C 475.887 4.80255 6.01876 0
M  V30 3018 C 476.617 3.64202 6.65911 0
M  V30 3019 O 476.827 2.60694 5.64732 0
M  V30 3020 C 478.017 3.93473 7.1943 0
M  V30 3021 O 478.407 3.02071 8.21205 0
M  V30 3022 C 478.897 3.73047 5.97036 0
M  V30 3023 C 478.187 2.58828 5.25741 0
M  V30 3024 N 478.237 2.68068 3.77503 0
M  V30 3025 H 475.398 5.40332 6.79951 0
M  V30 3026 H 475.128 4.41613 5.32378 0
M  V30 3027 H 475.995 3.26331 7.47797 0
M  V30 3028 P 479.957 2.75334 8.47391 0
M  V30 3029 O 480.177 2.44571 9.90142 0
M  V30 3030 O 480.747 3.87688 7.92115 0
M  V30 3031 O 480.207 1.4459 7.59357 0
M  V30 3032 C 479.267 0.347608 7.69215 0
M  V30 3033 C 479.997 -0.96767 7.52806 0
M  V30 3034 O 480.207 -1.21036 6.1011 0
M  V30 3035 C 481.397 -1.04544 8.13308 0
M  V30 3036 O 481.787 -2.38311 8.41922 0
M  V30 3037 C 482.277 -0.491279 7.02284 0
M  V30 3038 C 481.567 -0.996264 5.77469 0
M  V30 3039 N 481.617 -0.0501916 4.62973 0
M  V30 3040 H 478.778 0.374722 8.67691 0
M  V30 3041 H 478.508 0.443485 6.90277 0
M  V30 3042 H 479.375 -1.75537 7.96793 0
M  V30 3043 P 483.337 -2.75334 8.47391 0
M  V30 3044 O 483.557 -3.84128 9.44797 0
M  V30 3045 O 484.127 -1.51947 8.68712 0
M  V30 3046 O 483.587 -3.29363 6.99321 0
M  V30 3047 C 482.647 -4.24011 6.4274 0
M  V30 3048 C 483.377 -5.20775 5.52155 0
M  V30 3049 O 483.587 -4.56534 4.22446 0
M  V30 3050 C 484.777 -5.62629 5.96531 0
M  V30 3051 O 485.167 -6.87667 5.41053 0
M  V30 3052 C 485.657 -4.52537 5.39283 0
M  V30 3053 C 484.947 -4.20027 4.08623 0
M  V30 3054 N 484.997 -2.76189 3.71603 0
M  V30 3055 H 482.158 -4.797 7.24003 0
M  V30 3056 H 481.888 -3.69856 5.84513 0
M  V30 3057 H 482.755 -6.10356 5.41441 0
M  V30 3058 P 486.717 -7.20834 5.23717 0
M  V30 3059 O 486.937 -8.66104 5.38572 0
M  V30 3060 O 487.507 -6.33544 6.1349 0
M  V30 3061 O 486.967 -6.7751 3.72168 0
M  V30 3062 C 486.027 -7.20825 2.7076 0
M  V30 3063 C 486.757 -7.45864 1.40599 0
M  V30 3064 O 486.967 -6.17651 0.734225 0
M  V30 3065 C 488.157 -8.05808 1.51899 0
M  V30 3066 O 488.547 -8.74358 0.335205 0
M  V30 3067 C 489.037 -6.83093 1.70294 0
M  V30 3068 C 488.327 -5.79992 0.836974 0
M  V30 3069 N 488.377 -4.41864 1.38293 0
M  V30 3070 H 485.538 -8.13644 3.0377 0
M  V30 3071 H 485.268 -6.42788 2.55485 0
M  V30 3072 H 486.135 -8.12039 0.792769 0
M  V30 3073 P 490.097 -8.91 -2.91224e-12 0
M  V30 3074 O 490.317 -10.1726 -0.733694 0
M  V30 3075 O 490.887 -8.73148 1.23936 0
M  V30 3076 O 490.347 -7.66872 -0.971405 0
M  V30 3077 C 489.407 -7.42309 -2.04641 0
M  V30 3078 C 490.137 -6.86059 -3.24661 0
M  V30 3079 O 490.347 -5.42847 -3.03646 0
M  V30 3080 C 491.537 -7.41196 -3.50753 0
M  V30 3081 O 491.927 -7.27073 -4.86816 0
M  V30 3082 C 492.417 -6.5273 -2.63741 0
M  V30 3083 C 491.707 -5.1842 -2.73198 0
M  V30 3084 N 491.757 -4.38762 -1.4784 0
M  V30 3085 H 488.918 -8.36803 -2.32493 0
M  V30 3086 H 488.648 -6.70197 -1.71129 0
M  V30 3087 H 489.515 -7.03551 -4.13168 0
M  V30 3088 P 493.477 -7.20834 -5.23717 0
M  V30 3089 O 493.697 -7.79853 -6.57286 0
M  V30 3090 O 494.267 -7.79239 -4.12957 0
M  V30 3091 O 493.727 -5.63315 -5.29344 0
M  V30 3092 C 492.787 -4.80255 -6.01876 0
M  V30 3093 C 493.517 -3.64202 -6.65911 0
M  V30 3094 O 493.727 -2.60694 -5.64732 0
M  V30 3095 C 494.917 -3.93473 -7.1943 0
M  V30 3096 O 495.307 -3.02071 -8.21205 0
M  V30 3097 C 495.797 -3.73047 -5.97036 0
M  V30 3098 C 495.087 -2.58828 -5.25741 0
M  V30 3099 N 495.137 -2.68068 -3.77503 0
M  V30 3100 H 492.298 -5.40332 -6.79951 0
M  V30 3101 H 492.028 -4.41613 -5.32378 0
M  V30 3102 H 492.895 -3.26331 -7.47797 0
M  V30 3103 P 496.857 -2.75334 -8.47391 0
M  V30 3104 O 497.077 -2.44619 -9.90336 0
M  V30 3105 O 497.647 -3.87776 -7.92294 0
M  V30 3106 O 497.107 -1.4459 -7.59357 0
M  V30 3107 C 496.167 -0.347653 -7.69315 0
M  V30 3108 C 496.897 0.96767 -7.52806 0
M  V30 3109 O 497.107 1.21055 -6.10208 0
M  V30 3110 C 498.297 1.04557 -8.13408 0
M  V30 3111 O 498.687 2.38311 -8.41922 0
M  V30 3112 C 499.177 0.491279 -7.02284 0
M  V30 3113 C 498.467 0.996264 -5.77469 0
M  V30 3114 N 498.517 0.0501916 -4.62973 0
M  V30 3115 C 498.437 -1.31969 -4.65661 0
M  V30 3116 N 498.507 -1.86649 -3.48119 0
M  V30 3117 C 498.657 -0.792089 -2.62406 0
M  V30 3118 C 498.787 -0.705684 -1.2207 0
M  V30 3119 N 498.797 -1.76207 -0.413762 0
M  V30 3120 N 498.907 0.518981 -0.685754 0
M  V30 3121 C 498.897 1.57595 -1.49174 0
M  V30 3122 N 498.777 1.62909 -2.80066 0
M  V30 3123 C 498.657 0.388195 -3.3073 0
M  V30 3124 H 495.679 -0.374765 -8.67791 0
M  V30 3125 H 495.407 -0.443613 -6.90476 0
M  V30 3126 H 496.275 1.75559 -7.96891 0
M  V30 3127 H 498.93 1.94563 -5.46818 0
M  V30 3128 H 499.21 -0.608651 -7.04676 0
M  V30 3129 H 500.201 0.889796 -7.09039 0
M  V30 3130 H 498.367 0.433128 -9.04664 0
M  V30 3131 H 498.326 -1.89246 -5.57664 0
M  V30 3132 H 498.707 -2.71005 -0.804694 0
M  V30 3133 H 498.896 -1.63189 0.603768 0
M  V30 3134 H 499.004 2.53475 -0.997614 0
M  V30 3135 P 500.237 2.75334 -8.47391 0
M  V30 3136 O 500.457 3.84128 -9.44797 0
M  V30 3137 O 501.027 1.51947 -8.68712 0
M  V30 3138 O 500.487 3.29363 -6.99321 0
M  V30 3139 C 499.547 4.24011 -6.4274 0
M  V30 3140 C 500.277 5.20775 -5.52155 0
M  V30 3141 O 500.487 4.56534 -4.22446 0
M  V30 3142 C 501.677 5.62629 -5.96531 0
M  V30 3143 O 502.067 6.87667 -5.41053 0
M  V30 3144 C 502.557 4.52537 -5.39283 0
M  V30 3145 C 501.847 4.20027 -4.08623 0
M  V30 3146 N 501.897 2.76189 -3.71603 0
M  V30 3147 H 499.058 4.797 -7.24003 0
M  V30 3148 H 498.788 3.69856 -5.84513 0
M  V30 3149 H 499.655 6.10356 -5.41441 0
M  V30 3150 P 503.617 7.20834 -5.23717 0
M  V30 3151 O 503.837 8.66104 -5.38572 0
M  V30 3152 O 504.407 6.33544 -6.1349 0
M  V30 3153 O 503.867 6.7751 -3.72168 0
M  V30 3154 C 502.927 7.20825 -2.7076 0
M  V30 3155 C 503.657 7.45864 -1.40599 0
M  V30 3156 O 503.867 6.17651 -0.734225 0
M  V30 3157 C 505.057 8.05808 -1.51899 0
M  V30 3158 O 505.447 8.74358 -0.335205 0
M  V30 3159 C 505.937 6.83093 -1.70294 0
M  V30 3160 C 505.227 5.79992 -0.836974 0
M  V30 3161 N 505.277 4.41864 -1.38293 0
M  V30 3162 H 502.438 8.13644 -3.0377 0
M  V30 3163 H 502.168 6.42788 -2.55485 0
M  V30 3164 H 503.035 8.12039 -0.792769 0
M  V30 3165 P 506.997 8.91 3.06942e-12 0
M  V30 3166 O 507.217 10.1746 0.733838 0
M  V30 3167 O 507.787 8.73346 -1.23964 0
M  V30 3168 O 507.247 7.66872 0.971405 0
M  V30 3169 C 506.307 7.42405 2.04668 0
M  V30 3170 C 507.037 6.86059 3.24661 0
M  V30 3171 O 507.247 5.42934 3.03695 0
M  V30 3172 C 508.437 7.41287 3.50796 0
M  V30 3173 O 508.827 7.27073 4.86816 0
M  V30 3174 C 509.317 6.5273 2.63741 0
M  V30 3175 C 508.607 5.1842 2.73198 0
M  V30 3176 N 508.657 4.38762 1.4784 0
M  V30 3177 H 505.819 8.36899 2.3252 0
M  V30 3178 H 505.547 6.70391 1.71179 0
M  V30 3179 H 506.415 7.03638 4.13219 0
M  V30 3180 H 509.07 4.59931 3.54016 0
M  V30 3181 H 509.35 6.88995 1.59871 0
M  V30 3182 H 510.341 6.4684 3.0373 0
M  V30 3183 H 508.507 8.47002 3.20749 0
M  V30 3184 P 510.377 7.20834 5.23717 0
M  V30 3185 O 510.597 7.7993 6.57351 0
M  V30 3186 O 511.167 7.79328 4.13004 0
M  V30 3187 O 510.627 5.63315 5.29344 0
M  V30 3188 C 509.687 4.80193 6.01798 0
M  V30 3189 C 510.417 3.64202 6.65911 0
M  V30 3190 O 510.627 2.60694 5.64732 0
M  V30 3191 C 511.817 3.93473 7.1943 0
M  V30 3192 O 512.207 3.02071 8.21205 0
M  V30 3193 C 512.697 3.73047 5.97036 0
M  V30 3194 C 511.987 2.58828 5.25741 0
M  V30 3195 N 512.037 2.6801 3.77422 0
M  V30 3196 C 512.187 1.50443 3.07133 0
M  V30 3197 O 512.277 0.419406 3.61576 0
M  V30 3198 N 512.227 1.6403 1.69677 0
M  V30 3199 C 512.137 2.81206 0.986255 0
M  V30 3200 C 511.987 3.99158 1.80325 0
M  V30 3201 C 511.937 3.89779 3.1476 0
M  V30 3202 H 509.197 5.40332 6.79951 0
M  V30 3203 H 508.928 4.41549 5.32301 0
M  V30 3204 H 509.795 3.26331 7.47797 0
M  V30 3205 H 512.45 1.6395 5.56554 0
M  V30 3206 H 512.729 4.63439 5.3432 0
M  V30 3207 H 513.721 3.44728 6.25838 0
M  V30 3208 H 511.887 4.96652 7.57263 0
M  V30 3209 H 511.816 4.80159 3.74441 0
M  V30 3210 P 513.757 2.75334 8.47391 0
M  V30 3211 O 513.977 2.44571 9.90142 0
M  V30 3212 O 514.547 3.87688 7.92115 0
M  V30 3213 O 514.007 1.4459 7.59357 0
M  V30 3214 C 513.067 0.347608 7.69215 0
M  V30 3215 C 513.797 -0.96767 7.52806 0
M  V30 3216 O 514.007 -1.21036 6.1011 0
M  V30 3217 C 515.197 -1.04544 8.13308 0
M  V30 3218 O 515.587 -2.38311 8.41922 0
M  V30 3219 C 516.077 -0.491279 7.02284 0
M  V30 3220 C 515.367 -0.996264 5.77469 0
M  V30 3221 N 515.417 -0.0501916 4.62973 0
M  V30 3222 H 512.578 0.374722 8.67691 0
M  V30 3223 H 512.308 0.443485 6.90277 0
M  V30 3224 H 513.175 -1.75537 7.96793 0
M  V30 3225 P 517.137 -2.75334 8.47391 0
M  V30 3226 O 517.357 -3.84128 9.44797 0
M  V30 3227 O 517.927 -1.51947 8.68712 0
M  V30 3228 O 517.387 -3.29363 6.99321 0
M  V30 3229 C 516.447 -4.24011 6.4274 0
M  V30 3230 C 517.177 -5.20775 5.52155 0
M  V30 3231 O 517.387 -4.56534 4.22446 0
M  V30 3232 C 518.577 -5.62629 5.96531 0
M  V30 3233 O 518.967 -6.87667 5.41053 0
M  V30 3234 C 519.457 -4.52537 5.39283 0
M  V30 3235 C 518.747 -4.20027 4.08623 0
M  V30 3236 N 518.797 -2.76189 3.71603 0
M  V30 3237 C 518.717 -1.64862 4.52822 0
M  V30 3238 N 518.797 -0.512671 3.88633 0
M  V30 3239 C 518.937 -0.888083 2.54977 0
M  V30 3240 C 519.067 -0.094668 1.38677 0
M  V30 3241 O 519.087 1.13053 1.28163 0
M  V30 3242 N 519.187 -0.890102 0.232633 0
M  V30 3243 C 519.187 -2.26958 0.21772 0
M  V30 3244 N 519.317 -2.84626 -0.97925 0
M  V30 3245 N 519.057 -3.0178 1.31033 0
M  V30 3246 C 518.937 -2.26781 2.43843 0
M  V30 3247 H 515.958 -4.797 7.24003 0
M  V30 3248 H 515.688 -3.69856 5.84513 0
M  V30 3249 H 516.555 -6.10356 5.41441 0
M  V30 3250 H 519.21 -4.79061 3.27488 0
M  V30 3251 H 519.489 -3.64906 6.05785 0
M  V30 3252 H 520.481 -4.8868 5.2125 0
M  V30 3253 H 518.647 -5.66726 7.06352 0
M  V30 3254 H 518.598 -1.71169 5.60966 0
M  V30 3255 H 519.28 -0.419134 -0.644739 0
M  V30 3256 H 519.317 -3.87332 -1.06098 0
M  V30 3257 H 519.418 -2.26417 -1.82483 0
M  V30 3258 P 520.517 -7.20834 5.23717 0
M  V30 3259 O 520.737 -8.66104 5.38572 0
M  V30 3260 O 521.307 -6.33544 6.1349 0
M  V30 3261 O 520.767 -6.7751 3.72168 0
M  V30 3262 C 519.827 -7.20825 2.7076 0
M  V30 3263 C 520.557 -7.45864 1.40599 0
M  V30 3264 O 520.767 -6.17651 0.734225 0
M  V30 3265 C 521.957 -8.05808 1.51899 0
M  V30 3266 O 522.347 -8.74358 0.335205 0
M  V30 3267 C 522.837 -6.83093 1.70294 0
M  V30 3268 C 522.127 -5.79992 0.836974 0
M  V30 3269 N 522.177 -4.41864 1.38293 0
M  V30 3270 H 519.338 -8.13644 3.0377 0
M  V30 3271 H 519.068 -6.42788 2.55485 0
M  V30 3272 H 519.935 -8.12039 0.792769 0
M  V30 3273 P 523.897 -8.91 -3.22661e-12 0
M  V30 3274 O 524.117 -10.1726 -0.733694 0
M  V30 3275 O 524.687 -8.73148 1.23936 0
M  V30 3276 O 524.147 -7.66872 -0.971405 0
M  V30 3277 C 523.207 -7.42309 -2.04641 0
M  V30 3278 C 523.937 -6.86059 -3.24661 0
M  V30 3279 O 524.147 -5.42847 -3.03646 0
M  V30 3280 C 525.337 -7.41196 -3.50753 0
M  V30 3281 O 525.727 -7.27073 -4.86816 0
M  V30 3282 C 526.217 -6.5273 -2.63741 0
M  V30 3283 C 525.507 -5.1842 -2.73198 0
M  V30 3284 N 525.557 -4.38762 -1.4784 0
M  V30 3285 H 522.718 -8.36803 -2.32493 0
M  V30 3286 H 522.448 -6.70197 -1.71129 0
M  V30 3287 H 523.315 -7.03551 -4.13168 0
M  V30 3288 P 527.277 -7.20834 -5.23717 0
M  V30 3289 O 527.497 -7.7993 -6.57351 0
M  V30 3290 O 528.067 -7.79328 -4.13004 0
M  V30 3291 O 527.527 -5.63315 -5.29344 0
M  V30 3292 C 526.587 -4.80193 -6.01798 0
M  V30 3293 C 527.317 -3.64202 -6.65911 0
M  V30 3294 O 527.527 -2.60694 -5.64732 0
M  V30 3295 C 528.717 -3.93473 -7.1943 0
M  V30 3296 O 529.107 -3.02071 -8.21205 0
M  V30 3297 C 529.597 -3.73047 -5.97036 0
M  V30 3298 C 528.887 -2.58828 -5.25741 0
M  V30 3299 N 528.937 -2.6801 -3.77422 0
M  V30 3300 C 529.087 -1.50443 -3.07133 0
M  V30 3301 O 529.177 -0.419406 -3.61576 0
M  V30 3302 N 529.127 -1.6403 -1.69677 0
M  V30 3303 C 529.037 -2.81206 -0.986255 0
M  V30 3304 O 529.087 -2.80892 0.249754 0
M  V30 3305 C 528.887 -3.99158 -1.80325 0
M  V30 3306 C 528.777 -5.29309 -1.06921 0
M  V30 3307 C 528.837 -3.89779 -3.1476 0
M  V30 3308 H 526.097 -5.40332 -6.79951 0
M  V30 3309 H 525.828 -4.41549 -5.32301 0
M  V30 3310 H 526.695 -3.26331 -7.47797 0
M  V30 3311 H 529.35 -1.6395 -5.56554 0
M  V30 3312 H 529.629 -4.63439 -5.3432 0
M  V30 3313 H 530.621 -3.44728 -6.25838 0
M  V30 3314 H 528.787 -4.96652 -7.57263 0
M  V30 3315 H 528.716 -4.80159 -3.74441 0
M  V30 3316 H 529.746 -5.81459 -1.09608 0
M  V30 3317 H 528.009 -5.9187 -1.54487 0
M  V30 3318 H 528.497 -5.10095 -0.0220288 0
M  V30 3319 H 529.233 -0.798962 -1.16664 0
M  V30 3320 P 530.657 -2.75334 -8.47391 0
M  V30 3321 O 530.877 -2.44571 -9.90142 0
M  V30 3322 O 531.447 -3.87688 -7.92115 0
M  V30 3323 O 530.907 -1.4459 -7.59357 0
M  V30 3324 C 529.967 -0.347608 -7.69215 0
M  V30 3325 C 530.697 0.96767 -7.52806 0
M  V30 3326 O 530.907 1.21036 -6.1011 0
M  V30 3327 C 532.097 1.04544 -8.13308 0
M  V30 3328 O 532.487 2.38311 -8.41922 0
M  V30 3329 C 532.977 0.491279 -7.02284 0
M  V30 3330 C 532.267 0.996264 -5.77469 0
M  V30 3331 N 532.317 0.0501916 -4.62973 0
M  V30 3332 C 532.237 -1.32786 -4.63244 0
M  V30 3333 N 532.317 -1.86957 -3.44545 0
M  V30 3334 C 532.457 -0.780241 -2.58481 0
M  V30 3335 C 532.587 -0.738536 -1.17757 0
M  V30 3336 N 532.707 0.58337 -0.711393 0
M  V30 3337 C 532.707 1.70816 -1.51017 0
M  V30 3338 N 532.837 2.87826 -0.880757 0
M  V30 3339 N 532.577 1.67126 -2.8339 0
M  V30 3340 C 532.457 0.401421 -3.30572 0
M  V30 3341 H 529.478 -0.374722 -8.67691 0
M  V30 3342 H 529.208 -0.443485 -6.90277 0
M  V30 3343 H 530.075 1.75537 -7.96793 0
M  V30 3344 P 534.037 2.75334 -8.47391 0
M  V30 3345 O 534.257 3.84128 -9.44797 0
M  V30 3346 O 534.827 1.51947 -8.68712 0
M  V30 3347 O 534.287 3.29363 -6.99321 0
M  V30 3348 C 533.347 4.24011 -6.4274 0
M  V30 3349 C 534.077 5.20775 -5.52155 0
M  V30 3350 O 534.287 4.56534 -4.22446 0
M  V30 3351 C 535.477 5.62629 -5.96531 0
M  V30 3352 O 535.867 6.87667 -5.41053 0
M  V30 3353 C 536.357 4.52537 -5.39283 0
M  V30 3354 C 535.647 4.20027 -4.08623 0
M  V30 3355 N 535.697 2.76189 -3.71603 0
M  V30 3356 C 535.617 1.64862 -4.52822 0
M  V30 3357 N 535.697 0.512671 -3.88633 0
M  V30 3358 C 535.837 0.888083 -2.54977 0
M  V30 3359 C 535.967 0.094668 -1.38677 0
M  V30 3360 N 536.087 0.890102 -0.232633 0
M  V30 3361 C 536.087 2.26958 -0.21772 0
M  V30 3362 N 536.217 2.84626 0.97925 0
M  V30 3363 N 535.957 3.0178 -1.31033 0
M  V30 3364 C 535.837 2.26781 -2.43843 0
M  V30 3365 H 532.858 4.797 -7.24003 0
M  V30 3366 H 532.588 3.69856 -5.84513 0
M  V30 3367 H 533.455 6.10356 -5.41441 0
M  V30 3368 P 537.417 7.20834 -5.23717 0
M  V30 3369 O 537.637 8.66104 -5.38572 0
M  V30 3370 O 538.207 6.33544 -6.1349 0
M  V30 3371 O 537.667 6.7751 -3.72168 0
M  V30 3372 C 536.727 7.20825 -2.7076 0
M  V30 3373 C 537.457 7.45864 -1.40599 0
M  V30 3374 O 537.667 6.17651 -0.734225 0
M  V30 3375 C 538.857 8.05808 -1.51899 0
M  V30 3376 O 539.247 8.74358 -0.335205 0
M  V30 3377 C 539.737 6.83093 -1.70294 0
M  V30 3378 C 539.027 5.79992 -0.836974 0
M  V30 3379 N 539.077 4.41864 -1.38293 0
M  V30 3380 H 536.238 8.13644 -3.0377 0
M  V30 3381 H 535.968 6.42788 -2.55485 0
M  V30 3382 H 536.835 8.12039 -0.792769 0
M  V30 3383 P 540.797 8.91 3.38379e-12 0
M  V30 3384 O 541.017 10.1726 0.733694 0
M  V30 3385 O 541.587 8.73148 -1.23936 0
M  V30 3386 O 541.047 7.66872 0.971405 0
M  V30 3387 C 540.107 7.42309 2.04641 0
M  V30 3388 C 540.837 6.86059 3.24661 0
M  V30 3389 O 541.047 5.42847 3.03646 0
M  V30 3390 C 542.237 7.41196 3.50753 0
M  V30 3391 O 542.627 7.27073 4.86816 0
M  V30 3392 C 543.117 6.5273 2.63741 0
M  V30 3393 C 542.407 5.1842 2.73198 0
M  V30 3394 N 542.457 4.38762 1.4784 0
M  V30 3395 H 539.618 8.36803 2.32493 0
M  V30 3396 H 539.348 6.70197 1.71129 0
M  V30 3397 H 540.215 7.03551 4.13168 0
M  V30 3398 P 544.177 7.20834 5.23717 0
M  V30 3399 O 544.397 7.79853 6.57286 0
M  V30 3400 O 544.967 7.79239 4.12957 0
M  V30 3401 O 544.427 5.63315 5.29344 0
M  V30 3402 C 543.487 4.80255 6.01876 0
M  V30 3403 C 544.217 3.64202 6.65911 0
M  V30 3404 O 544.427 2.60694 5.64732 0
M  V30 3405 C 545.617 3.93473 7.1943 0
M  V30 3406 O 546.007 3.02071 8.21205 0
M  V30 3407 C 546.497 3.73047 5.97036 0
M  V30 3408 C 545.787 2.58828 5.25741 0
M  V30 3409 N 545.837 2.68068 3.77503 0
M  V30 3410 H 542.998 5.40332 6.79951 0
M  V30 3411 H 542.728 4.41613 5.32378 0
M  V30 3412 H 543.595 3.26331 7.47797 0
M  V30 3413 P 547.557 2.75334 8.47391 0
M  V30 3414 O 547.777 2.44571 9.90142 0
M  V30 3415 O 548.347 3.87688 7.92115 0
M  V30 3416 O 547.807 1.4459 7.59357 0
M  V30 3417 C 546.867 0.347608 7.69215 0
M  V30 3418 C 547.597 -0.96767 7.52806 0
M  V30 3419 O 547.807 -1.21036 6.1011 0
M  V30 3420 C 548.997 -1.04544 8.13308 0
M  V30 3421 O 549.387 -2.38311 8.41922 0
M  V30 3422 C 549.877 -0.491279 7.02284 0
M  V30 3423 C 549.167 -0.996264 5.77469 0
M  V30 3424 N 549.217 -0.0501916 4.62973 0
M  V30 3425 C 549.137 1.32786 4.63244 0
M  V30 3426 N 549.217 1.86957 3.44545 0
M  V30 3427 C 549.357 0.780241 2.58481 0
M  V30 3428 C 549.487 0.738536 1.17757 0
M  V30 3429 N 549.607 -0.58337 0.711393 0
M  V30 3430 C 549.607 -1.70816 1.51017 0
M  V30 3431 N 549.737 -2.87826 0.880757 0
M  V30 3432 N 549.477 -1.67126 2.8339 0
M  V30 3433 C 549.357 -0.401421 3.30572 0
M  V30 3434 H 546.378 0.374722 8.67691 0
M  V30 3435 H 546.108 0.443485 6.90277 0
M  V30 3436 H 546.975 -1.75537 7.96793 0
M  V30 3437 P 550.937 -2.75334 8.47391 0
M  V30 3438 O 551.157 -3.84128 9.44797 0
M  V30 3439 O 551.727 -1.51947 8.68712 0
M  V30 3440 O 551.187 -3.29363 6.99321 0
M  V30 3441 C 550.247 -4.24011 6.4274 0
M  V30 3442 C 550.977 -5.20775 5.52155 0
M  V30 3443 O 551.187 -4.56534 4.22446 0
M  V30 3444 C 552.377 -5.62629 5.96531 0
M  V30 3445 O 552.767 -6.87667 5.41053 0
M  V30 3446 C 553.257 -4.52537 5.39283 0
M  V30 3447 C 552.547 -4.20027 4.08623 0
M  V30 3448 N 552.597 -2.76189 3.71603 0
M  V30 3449 H 549.758 -4.797 7.24003 0
M  V30 3450 H 549.488 -3.69856 5.84513 0
M  V30 3451 H 550.355 -6.10356 5.41441 0
M  V30 3452 P 554.317 -7.20834 5.23717 0
M  V30 3453 O 554.537 -8.66104 5.38572 0
M  V30 3454 O 555.107 -6.33544 6.1349 0
M  V30 3455 O 554.567 -6.7751 3.72168 0
M  V30 3456 C 553.627 -7.20825 2.7076 0
M  V30 3457 C 554.357 -7.45864 1.40599 0
M  V30 3458 O 554.567 -6.17651 0.734225 0
M  V30 3459 C 555.757 -8.05808 1.51899 0
M  V30 3460 O 556.147 -8.74358 0.335205 0
M  V30 3461 C 556.637 -6.83093 1.70294 0
M  V30 3462 C 555.927 -5.79992 0.836974 0
M  V30 3463 N 555.977 -4.41864 1.38293 0
M  V30 3464 H 553.138 -8.13644 3.0377 0
M  V30 3465 H 552.868 -6.42788 2.55485 0
M  V30 3466 H 553.735 -8.12039 0.792769 0
M  V30 3467 P 557.697 -8.91 -3.54097e-12 0
M  V30 3468 O 557.917 -10.1726 -0.733694 0
M  V30 3469 O 558.487 -8.73148 1.23936 0
M  V30 3470 O 557.947 -7.66872 -0.971405 0
M  V30 3471 C 557.007 -7.42309 -2.04641 0
M  V30 3472 C 557.737 -6.86059 -3.24661 0
M  V30 3473 O 557.947 -5.42847 -3.03646 0
M  V30 3474 C 559.137 -7.41196 -3.50753 0
M  V30 3475 O 559.527 -7.27073 -4.86816 0
M  V30 3476 C 560.017 -6.5273 -2.63741 0
M  V30 3477 C 559.307 -5.1842 -2.73198 0
M  V30 3478 N 559.357 -4.38762 -1.4784 0
M  V30 3479 H 556.518 -8.36803 -2.32493 0
M  V30 3480 H 556.248 -6.70197 -1.71129 0
M  V30 3481 H 557.115 -7.03551 -4.13168 0
M  V30 3482 P 561.077 -7.20834 -5.23717 0
M  V30 3483 O 561.297 -7.79853 -6.57286 0
M  V30 3484 O 561.867 -7.79239 -4.12957 0
M  V30 3485 O 561.327 -5.63315 -5.29344 0
M  V30 3486 C 560.387 -4.80255 -6.01876 0
M  V30 3487 C 561.117 -3.64202 -6.65911 0
M  V30 3488 O 561.327 -2.60694 -5.64732 0
M  V30 3489 C 562.517 -3.93473 -7.1943 0
M  V30 3490 O 562.907 -3.02071 -8.21205 0
M  V30 3491 C 563.397 -3.73047 -5.97036 0
M  V30 3492 C 562.687 -2.58828 -5.25741 0
M  V30 3493 N 562.737 -2.68068 -3.77503 0
M  V30 3494 H 559.898 -5.40332 -6.79951 0
M  V30 3495 H 559.628 -4.41613 -5.32378 0
M  V30 3496 H 560.495 -3.26331 -7.47797 0
M  V30 3497 P 564.457 -2.75334 -8.47391 0
M  V30 3498 O 564.677 -2.44619 -9.90336 0
M  V30 3499 O 565.247 -3.87776 -7.92294 0
M  V30 3500 O 564.707 -1.4459 -7.59357 0
M  V30 3501 C 563.767 -0.347653 -7.69315 0
M  V30 3502 C 564.497 0.96767 -7.52806 0
M  V30 3503 O 564.707 1.21055 -6.10208 0
M  V30 3504 C 565.897 1.04557 -8.13408 0
M  V30 3505 O 566.287 2.38311 -8.41922 0
M  V30 3506 C 566.777 0.491279 -7.02284 0
M  V30 3507 C 566.067 0.996264 -5.77469 0
M  V30 3508 N 566.117 0.0501916 -4.62973 0
M  V30 3509 C 566.037 -1.31969 -4.65661 0
M  V30 3510 N 566.107 -1.86649 -3.48119 0
M  V30 3511 C 566.257 -0.792089 -2.62406 0
M  V30 3512 C 566.387 -0.705684 -1.2207 0
M  V30 3513 N 566.397 -1.76207 -0.413762 0
M  V30 3514 N 566.507 0.518981 -0.685754 0
M  V30 3515 C 566.497 1.57595 -1.49174 0
M  V30 3516 N 566.377 1.62909 -2.80066 0
M  V30 3517 C 566.257 0.388195 -3.3073 0
M  V30 3518 H 563.279 -0.374765 -8.67791 0
M  V30 3519 H 563.007 -0.443613 -6.90476 0
M  V30 3520 H 563.875 1.75559 -7.96891 0
M  V30 3521 H 566.53 1.94563 -5.46818 0
M  V30 3522 H 566.81 -0.608651 -7.04676 0
M  V30 3523 H 567.801 0.889796 -7.09039 0
M  V30 3524 H 565.967 0.433128 -9.04664 0
M  V30 3525 H 565.926 -1.89246 -5.57664 0
M  V30 3526 H 566.307 -2.71005 -0.804694 0
M  V30 3527 H 566.496 -1.63189 0.603768 0
M  V30 3528 H 566.604 2.53475 -0.997614 0
M  V30 3529 P 567.837 2.75334 -8.47391 0
M  V30 3530 O 568.057 3.84128 -9.44797 0
M  V30 3531 O 568.627 1.51947 -8.68712 0
M  V30 3532 O 568.087 3.29363 -6.99321 0
M  V30 3533 C 567.147 4.24011 -6.4274 0
M  V30 3534 C 567.877 5.20775 -5.52155 0
M  V30 3535 O 568.087 4.56534 -4.22446 0
M  V30 3536 C 569.277 5.62629 -5.96531 0
M  V30 3537 O 569.667 6.87667 -5.41053 0
M  V30 3538 C 570.157 4.52537 -5.39283 0
M  V30 3539 C 569.447 4.20027 -4.08623 0
M  V30 3540 N 569.497 2.76189 -3.71603 0
M  V30 3541 H 566.658 4.797 -7.24003 0
M  V30 3542 H 566.388 3.69856 -5.84513 0
M  V30 3543 H 567.255 6.10356 -5.41441 0
M  V30 3544 P 571.217 7.20834 -5.23717 0
M  V30 3545 O 571.437 8.66104 -5.38572 0
M  V30 3546 O 572.007 6.33544 -6.1349 0
M  V30 3547 O 571.467 6.7751 -3.72168 0
M  V30 3548 C 570.527 7.20825 -2.7076 0
M  V30 3549 C 571.257 7.45864 -1.40599 0
M  V30 3550 O 571.467 6.17651 -0.734225 0
M  V30 3551 C 572.657 8.05808 -1.51899 0
M  V30 3552 O 573.047 8.74358 -0.335205 0
M  V30 3553 C 573.537 6.83093 -1.70294 0
M  V30 3554 C 572.827 5.79992 -0.836974 0
M  V30 3555 N 572.877 4.41864 -1.38293 0
M  V30 3556 H 570.038 8.13644 -3.0377 0
M  V30 3557 H 569.768 6.42788 -2.55485 0
M  V30 3558 H 570.635 8.12039 -0.792769 0
M  V30 3559 P 574.597 8.91 3.69815e-12 0
M  V30 3560 O 574.817 10.1726 0.733694 0
M  V30 3561 O 575.387 8.73148 -1.23936 0
M  V30 3562 O 574.847 7.66872 0.971405 0
M  V30 3563 C 573.907 7.42309 2.04641 0
M  V30 3564 C 574.637 6.86059 3.24661 0
M  V30 3565 O 574.847 5.42847 3.03646 0
M  V30 3566 C 576.037 7.41196 3.50753 0
M  V30 3567 O 576.427 7.27073 4.86816 0
M  V30 3568 C 576.917 6.5273 2.63741 0
M  V30 3569 C 576.207 5.1842 2.73198 0
M  V30 3570 N 576.257 4.38762 1.4784 0
M  V30 3571 H 573.418 8.36803 2.32493 0
M  V30 3572 H 573.148 6.70197 1.71129 0
M  V30 3573 H 574.015 7.03551 4.13168 0
M  V30 3574 P 577.977 7.20834 5.23717 0
M  V30 3575 O 578.197 7.79853 6.57286 0
M  V30 3576 O 578.767 7.79239 4.12957 0
M  V30 3577 O 578.227 5.63315 5.29344 0
M  V30 3578 C 577.287 4.80255 6.01876 0
M  V30 3579 C 578.017 3.64202 6.65911 0
M  V30 3580 O 578.227 2.60694 5.64732 0
M  V30 3581 C 579.417 3.93473 7.1943 0
M  V30 3582 O 579.807 3.02071 8.21205 0
M  V30 3583 C 580.297 3.73047 5.97036 0
M  V30 3584 C 579.587 2.58828 5.25741 0
M  V30 3585 N 579.637 2.68068 3.77503 0
M  V30 3586 C 579.557 3.79715 2.96723 0
M  V30 3587 N 579.637 3.5377 1.68852 0
M  V30 3588 C 579.777 2.15054 1.63254 0
M  V30 3589 C 579.907 1.28964 0.518571 0
M  V30 3590 N 580.027 -0.0538097 0.918425 0
M  V30 3591 C 580.027 -0.494275 2.22578 0
M  V30 3592 N 580.157 -1.81086 2.40434 0
M  V30 3593 N 579.897 0.313645 3.27502 0
M  V30 3594 C 579.777 1.61829 2.91033 0
M  V30 3595 H 576.798 5.40332 6.79951 0
M  V30 3596 H 576.528 4.41613 5.32378 0
M  V30 3597 H 577.395 3.26331 7.47797 0
M  V30 3598 P 581.357 2.75334 8.47391 0
M  V30 3599 O 581.577 2.44571 9.90142 0
M  V30 3600 O 582.147 3.87688 7.92115 0
M  V30 3601 O 581.607 1.4459 7.59357 0
M  V30 3602 C 580.667 0.347608 7.69215 0
M  V30 3603 C 581.397 -0.96767 7.52806 0
M  V30 3604 O 581.607 -1.21036 6.1011 0
M  V30 3605 C 582.797 -1.04544 8.13308 0
M  V30 3606 O 583.187 -2.38311 8.41922 0
M  V30 3607 C 583.677 -0.491279 7.02284 0
M  V30 3608 C 582.967 -0.996264 5.77469 0
M  V30 3609 N 583.017 -0.0501916 4.62973 0
M  V30 3610 C 582.937 1.32786 4.63244 0
M  V30 3611 N 583.017 1.86957 3.44545 0
M  V30 3612 C 583.157 0.780241 2.58481 0
M  V30 3613 C 583.287 0.738536 1.17757 0
M  V30 3614 O 583.307 1.66794 0.372349 0
M  V30 3615 N 583.407 -0.58337 0.711393 0
M  V30 3616 C 583.407 -1.70816 1.51017 0
M  V30 3617 N 583.537 -2.87826 0.880757 0
M  V30 3618 N 583.277 -1.67126 2.8339 0
M  V30 3619 C 583.157 -0.401421 3.30572 0
M  V30 3620 H 580.178 0.374722 8.67691 0
M  V30 3621 H 579.908 0.443485 6.90277 0
M  V30 3622 H 580.775 -1.75537 7.96793 0
M  V30 3623 H 583.43 -1.95076 5.46529 0
M  V30 3624 H 583.709 0.608565 7.04577 0
M  V30 3625 H 584.701 -0.889672 7.08939 0
M  V30 3626 H 582.867 -0.43308 9.04564 0
M  V30 3627 H 582.818 1.91249 5.54442 0
M  V30 3628 H 583.5 -0.718054 -0.275244 0
M  V30 3629 H 583.537 -3.75721 1.41832 0
M  V30 3630 H 583.638 -2.90436 -0.145468 0
M  V30 3631 P 584.737 -2.75334 8.47391 0
M  V30 3632 O 584.957 -3.84166 9.4489 0
M  V30 3633 O 585.527 -1.51964 8.6881 0
M  V30 3634 O 584.987 -3.29363 6.99321 0
M  V30 3635 C 584.047 -4.23956 6.42656 0
M  V30 3636 C 584.777 -5.20775 5.52155 0
M  V30 3637 O 584.987 -4.56534 4.22446 0
M  V30 3638 C 586.177 -5.62629 5.96531 0
M  V30 3639 O 586.567 -6.87667 5.41053 0
M  V30 3640 C 587.057 -4.52537 5.39283 0
M  V30 3641 C 586.347 -4.20027 4.08623 0
M  V30 3642 N 586.397 -2.7613 3.71522 0
M  V30 3643 C 586.547 -2.45612 2.37989 0
M  V30 3644 O 586.637 -3.30919 1.51621 0
M  V30 3645 N 586.587 -1.10684 2.08435 0
M  V30 3646 C 586.497 -0.0690084 2.9792 0
M  V30 3647 O 586.547 1.10553 2.59426 0
M  V30 3648 C 586.347 -0.481522 4.35345 0
M  V30 3649 C 586.237 0.618778 5.36443 0
M  V30 3650 C 586.297 -1.78906 4.67968 0
M  V30 3651 H 583.557 -4.797 7.24003 0
M  V30 3652 H 583.288 -3.69802 5.84429 0
M  V30 3653 H 584.155 -6.10356 5.41441 0
M  V30 3654 H 586.81 -4.78651 3.27911 0
M  V30 3655 H 587.089 -3.64957 6.05871 0
M  V30 3656 H 588.081 -4.8868 5.2125 0
M  V30 3657 H 586.247 -5.66726 7.06352 0
M  V30 3658 H 586.176 -2.07737 5.72367 0
M  V30 3659 H 587.206 0.754375 5.86871 0
M  V30 3660 H 585.469 0.359721 6.10641 0
M  V30 3661 H 585.957 1.55533 4.8581 0
M  V30 3662 H 586.693 -0.862651 1.12037 0
M  V30 3663 P 588.117 -7.20834 5.23717 0
M  V30 3664 O 588.337 -8.66104 5.38572 0
M  V30 3665 O 588.907 -6.33544 6.1349 0
M  V30 3666 O 588.367 -6.7751 3.72168 0
M  V30 3667 C 587.427 -7.20825 2.7076 0
M  V30 3668 C 588.157 -7.45864 1.40599 0
M  V30 3669 O 588.367 -6.17651 0.734225 0
M  V30 3670 C 589.557 -8.05808 1.51899 0
M  V30 3671 O 589.947 -8.74358 0.335205 0
M  V30 3672 C 590.437 -6.83093 1.70294 0
M  V30 3673 C 589.727 -5.79992 0.836974 0
M  V30 3674 N 589.777 -4.41864 1.38293 0
M  V30 3675 H 586.938 -8.13644 3.0377 0
M  V30 3676 H 586.668 -6.42788 2.55485 0
M  V30 3677 H 587.535 -8.12039 0.792769 0
M  V30 3678 P 591.496 -8.91 -3.85533e-12 0
M  V30 3679 O 591.716 -10.1726 -0.733694 0
M  V30 3680 O 592.286 -8.73148 1.23936 0
M  V30 3681 O 591.746 -7.66872 -0.971405 0
M  V30 3682 C 590.806 -7.42309 -2.04641 0
M  V30 3683 C 591.536 -6.86059 -3.24661 0
M  V30 3684 O 591.746 -5.42847 -3.03646 0
M  V30 3685 C 592.937 -7.41196 -3.50753 0
M  V30 3686 O 593.327 -7.27073 -4.86816 0
M  V30 3687 C 593.817 -6.5273 -2.63741 0
M  V30 3688 C 593.106 -5.1842 -2.73198 0
M  V30 3689 N 593.156 -4.38762 -1.4784 0
M  V30 3690 H 590.317 -8.36803 -2.32493 0
M  V30 3691 H 590.048 -6.70197 -1.71129 0
M  V30 3692 H 590.914 -7.03551 -4.13168 0
M  V30 3693 P 594.876 -7.20834 -5.23717 0
M  V30 3694 O 595.096 -7.79853 -6.57286 0
M  V30 3695 O 595.666 -7.79239 -4.12957 0
M  V30 3696 O 595.126 -5.63315 -5.29344 0
M  V30 3697 C 594.186 -4.80255 -6.01876 0
M  V30 3698 C 594.916 -3.64202 -6.65911 0
M  V30 3699 O 595.126 -2.60694 -5.64732 0
M  V30 3700 C 596.316 -3.93473 -7.1943 0
M  V30 3701 O 596.706 -3.02071 -8.21205 0
M  V30 3702 C 597.196 -3.73047 -5.97036 0
M  V30 3703 C 596.486 -2.58828 -5.25741 0
M  V30 3704 N 596.536 -2.68068 -3.77503 0
M  V30 3705 H 593.697 -5.40332 -6.79951 0
M  V30 3706 H 593.427 -4.41613 -5.32378 0
M  V30 3707 H 594.294 -3.26331 -7.47797 0
M  V30 3708 P 598.256 -2.75334 -8.47391 0
M  V30 3709 O 598.476 -2.44571 -9.90142 0
M  V30 3710 O 599.046 -3.87688 -7.92115 0
M  V30 3711 O 598.506 -1.4459 -7.59357 0
M  V30 3712 C 597.566 -0.347608 -7.69215 0
M  V30 3713 C 598.296 0.96767 -7.52806 0
M  V30 3714 O 598.506 1.21036 -6.1011 0
M  V30 3715 C 599.696 1.04544 -8.13308 0
M  V30 3716 O 600.086 2.38311 -8.41922 0
M  V30 3717 C 600.576 0.491279 -7.02284 0
M  V30 3718 C 599.866 0.996264 -5.77469 0
M  V30 3719 N 599.916 0.0501916 -4.62973 0
M  V30 3720 C 599.836 -1.32786 -4.63244 0
M  V30 3721 N 599.916 -1.86957 -3.44545 0
M  V30 3722 C 600.056 -0.780241 -2.58481 0
M  V30 3723 C 600.186 -0.738536 -1.17757 0
M  V30 3724 N 600.306 0.58337 -0.711393 0
M  V30 3725 C 600.306 1.70816 -1.51017 0
M  V30 3726 N 600.436 2.87826 -0.880757 0
M  V30 3727 N 600.176 1.67126 -2.8339 0
M  V30 3728 C 600.056 0.401421 -3.30572 0
M  V30 3729 H 597.077 -0.374722 -8.67691 0
M  V30 3730 H 596.807 -0.443485 -6.90277 0
M  V30 3731 H 597.674 1.75537 -7.96793 0
M  V30 3732 P 601.636 2.75334 -8.47391 0
M  V30 3733 O 601.856 3.84128 -9.44797 0
M  V30 3734 O 602.426 1.51947 -8.68712 0
M  V30 3735 O 601.886 3.29363 -6.99321 0
M  V30 3736 C 600.946 4.24011 -6.4274 0
M  V30 3737 C 601.676 5.20775 -5.52155 0
M  V30 3738 O 601.886 4.56534 -4.22446 0
M  V30 3739 C 603.076 5.62629 -5.96531 0
M  V30 3740 O 603.466 6.87667 -5.41053 0
M  V30 3741 C 603.956 4.52537 -5.39283 0
M  V30 3742 C 603.246 4.20027 -4.08623 0
M  V30 3743 N 603.296 2.76189 -3.71603 0
M  V30 3744 H 600.457 4.797 -7.24003 0
M  V30 3745 H 600.187 3.69856 -5.84513 0
M  V30 3746 H 601.054 6.10356 -5.41441 0
M  V30 3747 P 605.016 7.20834 -5.23717 0
M  V30 3748 O 605.236 8.66104 -5.38572 0
M  V30 3749 O 605.806 6.33544 -6.1349 0
M  V30 3750 O 605.266 6.7751 -3.72168 0
M  V30 3751 C 604.326 7.20825 -2.7076 0
M  V30 3752 C 605.056 7.45864 -1.40599 0
M  V30 3753 O 605.266 6.17651 -0.734225 0
M  V30 3754 C 606.456 8.05808 -1.51899 0
M  V30 3755 O 606.846 8.74358 -0.335205 0
M  V30 3756 C 607.336 6.83093 -1.70294 0
M  V30 3757 C 606.626 5.79992 -0.836974 0
M  V30 3758 N 606.676 4.41864 -1.38293 0
M  V30 3759 H 603.837 8.13644 -3.0377 0
M  V30 3760 H 603.567 6.42788 -2.55485 0
M  V30 3761 H 604.434 8.12039 -0.792769 0
M  V30 3762 P 608.396 8.91 4.01252e-12 0
M  V30 3763 O 608.616 10.1726 0.733694 0
M  V30 3764 O 609.186 8.73148 -1.23936 0
M  V30 3765 O 608.646 7.66872 0.971405 0
M  V30 3766 C 607.706 7.42309 2.04641 0
M  V30 3767 C 608.436 6.86059 3.24661 0
M  V30 3768 O 608.646 5.42847 3.03646 0
M  V30 3769 C 609.836 7.41196 3.50753 0
M  V30 3770 O 610.226 7.27073 4.86816 0
M  V30 3771 C 610.716 6.5273 2.63741 0
M  V30 3772 C 610.006 5.1842 2.73198 0
M  V30 3773 N 610.056 4.38762 1.4784 0
M  V30 3774 H 607.217 8.36803 2.32493 0
M  V30 3775 H 606.947 6.70197 1.71129 0
M  V30 3776 H 607.814 7.03551 4.13168 0
M  V30 3777 P 611.776 7.20834 5.23717 0
M  V30 3778 O 611.996 7.7993 6.57351 0
M  V30 3779 O 612.566 7.79328 4.13004 0
M  V30 3780 O 612.026 5.63315 5.29344 0
M  V30 3781 C 611.086 4.80193 6.01798 0
M  V30 3782 C 611.816 3.64202 6.65911 0
M  V30 3783 O 612.026 2.60694 5.64732 0
M  V30 3784 C 613.216 3.93473 7.1943 0
M  V30 3785 O 613.606 3.02071 8.21205 0
M  V30 3786 C 614.096 3.73047 5.97036 0
M  V30 3787 C 613.386 2.58828 5.25741 0
M  V30 3788 N 613.436 2.6801 3.77422 0
M  V30 3789 C 613.586 1.50443 3.07133 0
M  V30 3790 O 613.676 0.419406 3.61576 0
M  V30 3791 N 613.626 1.6403 1.69677 0
M  V30 3792 C 613.536 2.81206 0.986255 0
M  V30 3793 O 613.586 2.80892 -0.249754 0
M  V30 3794 C 613.386 3.99158 1.80325 0
M  V30 3795 C 613.276 5.29309 1.06921 0
M  V30 3796 C 613.336 3.89779 3.1476 0
M  V30 3797 H 610.596 5.40332 6.79951 0
M  V30 3798 H 610.327 4.41549 5.32301 0
M  V30 3799 H 611.194 3.26331 7.47797 0
M  V30 3800 H 613.849 1.6395 5.56554 0
M  V30 3801 H 614.128 4.63439 5.3432 0
M  V30 3802 H 615.12 3.44728 6.25838 0
M  V30 3803 H 613.286 4.96652 7.57263 0
M  V30 3804 H 613.215 4.80159 3.74441 0
M  V30 3805 H 614.245 5.81459 1.09608 0
M  V30 3806 H 612.508 5.9187 1.54487 0
M  V30 3807 H 612.996 5.10095 0.0220288 0
M  V30 3808 H 613.732 0.798962 1.16664 0
M  V30 3809 P 615.156 2.75334 8.47391 0
M  V30 3810 O 615.376 2.44595 9.90239 0
M  V30 3811 O 615.946 3.87732 7.92204 0
M  V30 3812 O 615.406 1.4459 7.59357 0
M  V30 3813 C 614.466 0.347563 7.69115 0
M  V30 3814 C 615.196 -0.96767 7.52806 0
M  V30 3815 O 615.406 -1.21036 6.1011 0
M  V30 3816 C 616.596 -1.04544 8.13308 0
M  V30 3817 O 616.986 -2.38311 8.41922 0
M  V30 3818 C 617.476 -0.491279 7.02284 0
M  V30 3819 C 616.766 -0.996264 5.77469 0
M  V30 3820 N 616.816 -0.0501808 4.62873 0
M  V30 3821 C 616.966 -0.588177 3.36904 0
M  V30 3822 O 617.056 -1.78598 3.17173 0
M  V30 3823 N 617.006 0.329694 2.33686 0
M  V30 3824 C 616.916 1.6953 2.45079 0
M  V30 3825 O 616.966 2.41926 1.44899 0
M  V30 3826 C 616.766 2.16933 3.80505 0
M  V30 3827 C 616.656 3.65373 3.97621 0
M  V30 3828 C 616.716 1.30326 4.83752 0
M  V30 3829 H 613.976 0.374722 8.67691 0
M  V30 3830 H 613.707 0.443421 6.90177 0
M  V30 3831 H 614.574 -1.75537 7.96793 0
M  V30 3832 H 617.229 -1.94496 5.46629 0
M  V30 3833 H 617.508 0.608651 7.04676 0
M  V30 3834 H 618.5 -0.889672 7.08939 0
M  V30 3835 H 616.666 -0.43308 9.04564 0
M  V30 3836 H 616.595 1.68366 5.8516 0
M  V30 3837 H 617.625 4.05985 4.30448 0
M  V30 3838 H 615.888 3.88028 4.72875 0
M  V30 3839 H 616.376 4.11381 3.01609 0
M  V30 3840 H 617.112 -0.0393617 1.41345 0
M  V30 3841 P 618.536 -2.75334 8.47391 0
M  V30 3842 O 618.756 -3.84128 9.44797 0
M  V30 3843 O 619.326 -1.51947 8.68712 0
M  V30 3844 O 618.786 -3.29363 6.99321 0
M  V30 3845 C 617.846 -4.24011 6.4274 0
M  V30 3846 C 618.576 -5.20775 5.52155 0
M  V30 3847 O 618.786 -4.56534 4.22446 0
M  V30 3848 C 619.976 -5.62629 5.96531 0
M  V30 3849 O 620.366 -6.87667 5.41053 0
M  V30 3850 C 620.856 -4.52537 5.39283 0
M  V30 3851 C 620.146 -4.20027 4.08623 0
M  V30 3852 N 620.196 -2.76189 3.71603 0
M  V30 3853 H 617.357 -4.797 7.24003 0
M  V30 3854 H 617.087 -3.69856 5.84513 0
M  V30 3855 H 617.954 -6.10356 5.41441 0
M  V30 3856 P 621.916 -7.20834 5.23717 0
M  V30 3857 O 622.136 -8.66104 5.38572 0
M  V30 3858 O 622.706 -6.33544 6.1349 0
M  V30 3859 O 622.166 -6.7751 3.72168 0
M  V30 3860 C 621.226 -7.20825 2.7076 0
M  V30 3861 C 621.956 -7.45864 1.40599 0
M  V30 3862 O 622.166 -6.17651 0.734225 0
M  V30 3863 C 623.356 -8.05808 1.51899 0
M  V30 3864 O 623.746 -8.74358 0.335205 0
M  V30 3865 C 624.236 -6.83093 1.70294 0
M  V30 3866 C 623.526 -5.79992 0.836974 0
M  V30 3867 N 623.576 -4.41864 1.38293 0
M  V30 3868 C 623.496 -3.99538 2.69438 0
M  V30 3869 N 623.576 -2.69909 2.84277 0
M  V30 3870 C 623.716 -2.21719 1.5408 0
M  V30 3871 C 623.846 -0.891712 1.06628 0
M  V30 3872 O 623.866 0.161298 1.70137 0
M  V30 3873 N 623.966 -0.856846 -0.334985 0
M  V30 3874 C 623.966 -1.9641 -1.15789 0
M  V30 3875 N 624.096 -1.72708 -2.46522 0
M  V30 3876 N 623.836 -3.21165 -0.713741 0
M  V30 3877 C 623.716 -3.26797 0.639748 0
M  V30 3878 H 620.737 -8.13644 3.0377 0
M  V30 3879 H 620.467 -6.42788 2.55485 0
M  V30 3880 H 621.334 -8.12039 0.792769 0
M  V30 3881 H 623.989 -5.80061 -0.166416 0
M  V30 3882 H 624.268 -6.51287 2.75604 0
M  V30 3883 H 625.26 -7.01734 1.34462 0
M  V30 3884 H 623.426 -8.73674 2.38337 0
M  V30 3885 H 623.377 -4.68207 3.53221 0
M  V30 3886 H 624.059 0.0398818 -0.767965 0
M  V30 3887 H 624.096 -2.50995 -3.13503 0
M  V30 3888 H 624.197 -0.759148 -2.80716 0
M  V30 3889 P 625.296 -8.91 -4.1697e-12 0
M  V30 3890 O 625.516 -10.1746 -0.733838 0
M  V30 3891 O 626.086 -8.73346 1.23964 0
M  V30 3892 O 625.546 -7.66872 -0.971405 0
M  V30 3893 C 624.606 -7.42405 -2.04668 0
M  V30 3894 C 625.336 -6.86059 -3.24661 0
M  V30 3895 O 625.546 -5.42934 -3.03695 0
M  V30 3896 C 626.736 -7.41287 -3.50796 0
M  V30 3897 O 627.126 -7.27073 -4.86816 0
M  V30 3898 C 627.616 -6.5273 -2.63741 0
M  V30 3899 C 626.906 -5.1842 -2.73198 0
M  V30 3900 N 626.956 -4.38762 -1.4784 0
M  V30 3901 C 626.876 -4.83651 -0.183876 0
M  V30 3902 N 626.946 -3.88759 0.699393 0
M  V30 3903 C 627.096 -2.7404 -0.0575568 0
M  V30 3904 C 627.226 -1.37902 0.293928 0
M  V30 3905 N 627.236 -0.938021 1.54797 0
M  V30 3906 N 627.346 -0.491817 -0.70549 0
M  V30 3907 C 627.336 -0.931735 -1.95979 0
M  V30 3908 N 627.216 -2.16017 -2.41481 0
M  V30 3909 C 627.096 -3.02547 -1.39121 0
M  V30 3910 H 624.118 -8.36899 -2.3252 0
M  V30 3911 H 623.846 -6.70391 -1.71179 0
M  V30 3912 H 624.714 -7.03638 -4.13219 0
M  V30 3913 H 627.369 -4.59931 -3.54016 0
M  V30 3914 H 627.649 -6.88995 -1.59871 0
M  V30 3915 H 628.64 -6.4684 -3.0373 0
M  V30 3916 H 626.806 -8.47002 -3.20749 0
M  V30 3917 H 626.765 -5.8885 0.0765548 0
M  V30 3918 H 627.146 -1.60276 2.32875 0
M  V30 3919 H 627.335 0.0699355 1.73859 0
M  V30 3920 H 627.443 -0.165507 -2.71897 0
M  V30 3921 P 628.676 -7.20834 -5.23717 0
M  V30 3922 O 628.896 -7.7993 -6.57351 0
M  V30 3923 O 629.466 -7.79328 -4.13004 0
M  V30 3924 O 628.926 -5.63315 -5.29344 0
M  V30 3925 C 627.986 -4.80193 -6.01798 0
M  V30 3926 C 628.716 -3.64202 -6.65911 0
M  V30 3927 O 628.926 -2.60694 -5.64732 0
M  V30 3928 C 630.116 -3.93473 -7.1943 0
M  V30 3929 O 630.506 -3.02071 -8.21205 0
M  V30 3930 C 630.996 -3.73047 -5.97036 0
M  V30 3931 C 630.286 -2.58828 -5.25741 0
M  V30 3932 N 630.336 -2.6801 -3.77422 0
M  V30 3933 C 630.486 -1.50443 -3.07133 0
M  V30 3934 O 630.576 -0.419406 -3.61576 0
M  V30 3935 N 630.526 -1.6403 -1.69677 0
M  V30 3936 C 630.436 -2.81206 -0.986255 0
M  V30 3937 C 630.286 -3.99158 -1.80325 0
M  V30 3938 C 630.236 -3.89779 -3.1476 0
M  V30 3939 H 627.496 -5.40332 -6.79951 0
M  V30 3940 H 627.227 -4.41549 -5.32301 0
M  V30 3941 H 628.094 -3.26331 -7.47797 0
M  V30 3942 H 630.749 -1.6395 -5.56554 0
M  V30 3943 H 631.028 -4.63439 -5.3432 0
M  V30 3944 H 632.02 -3.44728 -6.25838 0
M  V30 3945 H 630.186 -4.96652 -7.57263 0
M  V30 3946 H 630.115 -4.80159 -3.74441 0
M  V30 3947 P 632.056 -2.75334 -8.47391 0
M  V30 3948 O 632.276 -2.44595 -9.90239 0
M  V30 3949 O 632.846 -3.87732 -7.92204 0
M  V30 3950 O 632.306 -1.4459 -7.59357 0
M  V30 3951 C 631.366 -0.347608 -7.69215 0
M  V30 3952 C 632.096 0.96767 -7.52806 0
M  V30 3953 O 632.306 1.21036 -6.1011 0
M  V30 3954 C 633.496 1.04544 -8.13308 0
M  V30 3955 O 633.886 2.38311 -8.41922 0
M  V30 3956 C 634.376 0.491279 -7.02284 0
M  V30 3957 C 633.666 0.996264 -5.77469 0
M  V30 3958 N 633.716 0.0501808 -4.62873 0
M  V30 3959 C 633.866 0.578037 -3.3505 0
M  V30 3960 O 633.956 1.8073 -3.21711 0
M  V30 3961 N 633.916 -0.468541 -2.263 0
M  V30 3962 C 633.816 -1.59186 -2.47176 0
M  V30 3963 N 633.866 -2.37626 -1.40392 0
M  V30 3964 C 633.666 -2.16203 -3.77467 0
M  V30 3965 C 633.616 -1.29324 -4.8195 0
M  V30 3966 H 630.876 -0.374679 -8.67591 0
M  V30 3967 H 630.607 -0.443421 -6.90177 0
M  V30 3968 H 631.474 1.75559 -7.96891 0
M  V30 3969 H 634.129 1.94529 -5.46723 0
M  V30 3970 H 634.408 -0.608651 -7.04676 0
M  V30 3971 H 635.4 0.889672 -7.08939 0
M  V30 3972 H 633.566 0.43308 -9.04564 0
M  V30 3973 H 633.494 -1.67758 -5.83046 0
M  V30 3974 H 633.596 -3.23869 -3.92281 0
M  V30 3975 H 633.984 -1.96317 -0.467202 0
M  V30 3976 H 633.787 -3.39693 -1.51142 0
M  V30 3977 P 635.436 2.75334 -8.47391 0
M  V30 3978 O 635.656 3.84128 -9.44797 0
M  V30 3979 O 636.226 1.51947 -8.68712 0
M  V30 3980 O 635.686 3.29363 -6.99321 0
M  V30 3981 C 634.746 4.24011 -6.4274 0
M  V30 3982 C 635.476 5.20775 -5.52155 0
M  V30 3983 O 635.686 4.56534 -4.22446 0
M  V30 3984 C 636.876 5.62629 -5.96531 0
M  V30 3985 O 637.266 6.87667 -5.41053 0
M  V30 3986 C 637.756 4.52537 -5.39283 0
M  V30 3987 C 637.046 4.20027 -4.08623 0
M  V30 3988 N 637.096 2.76189 -3.71603 0
M  V30 3989 H 634.257 4.797 -7.24003 0
M  V30 3990 H 633.987 3.69856 -5.84513 0
M  V30 3991 H 634.854 6.10356 -5.41441 0
M  V30 3992 P 638.816 7.20834 -5.23717 0
M  V30 3993 O 639.036 8.66104 -5.38572 0
M  V30 3994 O 639.606 6.33544 -6.1349 0
M  V30 3995 O 639.066 6.7751 -3.72168 0
M  V30 3996 C 638.126 7.20825 -2.7076 0
M  V30 3997 C 638.856 7.45864 -1.40599 0
M  V30 3998 O 639.066 6.17651 -0.734225 0
M  V30 3999 C 640.256 8.05808 -1.51899 0
M  V30 4000 O 640.646 8.74358 -0.335205 0
M  V30 4001 C 641.136 6.83093 -1.70294 0
M  V30 4002 C 640.426 5.79992 -0.836974 0
M  V30 4003 N 640.476 4.41864 -1.38293 0
M  V30 4004 H 637.637 8.13644 -3.0377 0
M  V30 4005 H 637.367 6.42788 -2.55485 0
M  V30 4006 H 638.234 8.12039 -0.792769 0
M  V30 4007 P 642.196 8.91 4.32688e-12 0
M  V30 4008 O 642.416 10.1726 0.733694 0
M  V30 4009 O 642.986 8.73148 -1.23936 0
M  V30 4010 O 642.446 7.66872 0.971405 0
M  V30 4011 C 641.506 7.42309 2.04641 0
M  V30 4012 C 642.236 6.86059 3.24661 0
M  V30 4013 O 642.446 5.42847 3.03646 0
M  V30 4014 C 643.636 7.41196 3.50753 0
M  V30 4015 O 644.026 7.27073 4.86816 0
M  V30 4016 C 644.516 6.5273 2.63741 0
M  V30 4017 C 643.806 5.1842 2.73198 0
M  V30 4018 N 643.856 4.38762 1.4784 0
M  V30 4019 H 641.017 8.36803 2.32493 0
M  V30 4020 H 640.747 6.70197 1.71129 0
M  V30 4021 H 641.614 7.03551 4.13168 0
M  V30 4022 P 645.576 7.20834 5.23717 0
M  V30 4023 O 645.796 7.79853 6.57286 0
M  V30 4024 O 646.366 7.79239 4.12957 0
M  V30 4025 O 645.826 5.63315 5.29344 0
M  V30 4026 C 644.886 4.80255 6.01876 0
M  V30 4027 C 645.616 3.64202 6.65911 0
M  V30 4028 O 645.826 2.60694 5.64732 0
M  V30 4029 C 647.016 3.93473 7.1943 0
M  V30 4030 O 647.406 3.02071 8.21205 0
M  V30 4031 C 647.896 3.73047 5.97036 0
M  V30 4032 C 647.186 2.58828 5.25741 0
M  V30 4033 N 647.236 2.68068 3.77503 0
M  V30 4034 H 644.397 5.40332 6.79951 0
M  V30 4035 H 644.127 4.41613 5.32378 0
M  V30 4036 H 644.994 3.26331 7.47797 0
M  V30 4037 P 648.956 2.75334 8.47391 0
M  V30 4038 O 649.176 2.44571 9.90142 0
M  V30 4039 O 649.746 3.87688 7.92115 0
M  V30 4040 O 649.206 1.4459 7.59357 0
M  V30 4041 C 648.266 0.347608 7.69215 0
M  V30 4042 C 648.996 -0.96767 7.52806 0
M  V30 4043 O 649.206 -1.21036 6.1011 0
M  V30 4044 C 650.396 -1.04544 8.13308 0
M  V30 4045 O 650.786 -2.38311 8.41922 0
M  V30 4046 C 651.276 -0.491279 7.02284 0
M  V30 4047 C 650.566 -0.996264 5.77469 0
M  V30 4048 N 650.616 -0.0501916 4.62973 0
M  V30 4049 H 647.777 0.374722 8.67691 0
M  V30 4050 H 647.507 0.443485 6.90277 0
M  V30 4051 H 648.374 -1.75537 7.96793 0
M  V30 4052 P 652.336 -2.75334 8.47391 0
M  V30 4053 O 652.556 -3.84128 9.44797 0
M  V30 4054 O 653.126 -1.51947 8.68712 0
M  V30 4055 O 652.586 -3.29363 6.99321 0
M  V30 4056 C 651.646 -4.24011 6.4274 0
M  V30 4057 C 652.376 -5.20775 5.52155 0
M  V30 4058 O 652.586 -4.56534 4.22446 0
M  V30 4059 C 653.776 -5.62629 5.96531 0
M  V30 4060 O 654.166 -6.87667 5.41053 0
M  V30 4061 C 654.656 -4.52537 5.39283 0
M  V30 4062 C 653.946 -4.20027 4.08623 0
M  V30 4063 N 653.996 -2.76189 3.71603 0
M  V30 4064 H 651.157 -4.797 7.24003 0
M  V30 4065 H 650.887 -3.69856 5.84513 0
M  V30 4066 H 651.754 -6.10356 5.41441 0
M  V30 4067 P 655.716 -7.20834 5.23717 0
M  V30 4068 O 655.936 -8.66104 5.38572 0
M  V30 4069 O 656.506 -6.33544 6.1349 0
M  V30 4070 O 655.966 -6.7751 3.72168 0
M  V30 4071 C 655.026 -7.20825 2.7076 0
M  V30 4072 C 655.756 -7.45864 1.40599 0
M  V30 4073 O 655.966 -6.17651 0.734225 0
M  V30 4074 C 657.156 -8.05808 1.51899 0
M  V30 4075 O 657.546 -8.74358 0.335205 0
M  V30 4076 C 658.036 -6.83093 1.70294 0
M  V30 4077 C 657.326 -5.79992 0.836974 0
M  V30 4078 N 657.376 -4.41864 1.38293 0
M  V30 4079 H 654.537 -8.13644 3.0377 0
M  V30 4080 H 654.267 -6.42788 2.55485 0
M  V30 4081 H 655.134 -8.12039 0.792769 0
M  V30 4082 P 659.096 -8.91 -4.48406e-12 0
M  V30 4083 O 659.316 -10.1726 -0.733694 0
M  V30 4084 O 659.886 -8.73148 1.23936 0
M  V30 4085 O 659.346 -7.66872 -0.971405 0
M  V30 4086 C 658.406 -7.42309 -2.04641 0
M  V30 4087 C 659.136 -6.86059 -3.24661 0
M  V30 4088 O 659.346 -5.42847 -3.03646 0
M  V30 4089 C 660.536 -7.41196 -3.50753 0
M  V30 4090 O 660.926 -7.27073 -4.86816 0
M  V30 4091 C 661.416 -6.5273 -2.63741 0
M  V30 4092 C 660.706 -5.1842 -2.73198 0
M  V30 4093 N 660.756 -4.38762 -1.4784 0
M  V30 4094 H 657.917 -8.36803 -2.32493 0
M  V30 4095 H 657.647 -6.70197 -1.71129 0
M  V30 4096 H 658.514 -7.03551 -4.13168 0
M  V30 4097 P 662.476 -7.20834 -5.23717 0
M  V30 4098 O 662.696 -7.80006 -6.57415 0
M  V30 4099 O 663.266 -7.79416 -4.13051 0
M  V30 4100 O 662.726 -5.63315 -5.29344 0
M  V30 4101 C 661.786 -4.80318 -6.01954 0
M  V30 4102 C 662.516 -3.64202 -6.65911 0
M  V30 4103 O 662.726 -2.60736 -5.64823 0
M  V30 4104 C 663.916 -3.93521 -7.19518 0
M  V30 4105 O 664.306 -3.02071 -8.21205 0
M  V30 4106 C 664.796 -3.73047 -5.97036 0
M  V30 4107 C 664.086 -2.58828 -5.25741 0
M  V30 4108 N 664.136 -2.68068 -3.77503 0
M  V30 4109 C 664.056 -3.80474 -2.99159 0
M  V30 4110 N 664.126 -3.55622 -1.71925 0
M  V30 4111 C 664.276 -2.1832 -1.65733 0
M  V30 4112 C 664.406 -1.28842 -0.572777 0
M  V30 4113 N 664.416 -1.66875 0.70098 0
M  V30 4114 N 664.526 0.016788 -0.859836 0
M  V30 4115 C 664.516 0.398145 -2.13316 0
M  V30 4116 N 664.396 -0.328224 -3.22333 0
M  V30 4117 C 664.276 -1.62992 -2.90383 0
M  V30 4118 H 661.298 -5.40394 -6.8003 0
M  V30 4119 H 661.026 -4.41741 -5.32532 0
M  V30 4120 H 661.894 -3.26371 -7.47889 0
M  V30 4121 H 664.549 -1.64007 -5.56746 0
M  V30 4122 H 664.829 -4.63439 -5.3432 0
M  V30 4123 H 665.82 -3.44776 -6.25925 0
M  V30 4124 H 663.986 -4.96707 -7.57347 0
M  V30 4125 H 663.945 -4.8089 -3.39924 0
M  V30 4126 H 664.326 -2.66547 0.941919 0
M  V30 4127 H 664.515 -0.965341 1.44766 0
M  V30 4128 H 664.623 1.46427 -2.29697 0
M  V30 4129 P 665.856 -2.75334 -8.47391 0
M  V30 4130 O 666.076 -2.44571 -9.90142 0
M  V30 4131 O 666.646 -3.87688 -7.92115 0
M  V30 4132 O 666.106 -1.4459 -7.59357 0
M  V30 4133 C 665.166 -0.347608 -7.69215 0
M  V30 4134 C 665.896 0.96767 -7.52806 0
M  V30 4135 O 666.106 1.21036 -6.1011 0
M  V30 4136 C 667.296 1.04544 -8.13308 0
M  V30 4137 O 667.686 2.38311 -8.41922 0
M  V30 4138 C 668.176 0.491279 -7.02284 0
M  V30 4139 C 667.466 0.996264 -5.77469 0
M  V30 4140 N 667.516 0.0501916 -4.62973 0
M  V30 4141 H 664.677 -0.374722 -8.67691 0
M  V30 4142 H 664.407 -0.443485 -6.90277 0
M  V30 4143 H 665.274 1.75537 -7.96793 0
M  V30 4144 P 669.236 2.75334 -8.47391 0
M  V30 4145 O 669.456 3.84128 -9.44797 0
M  V30 4146 O 670.026 1.51947 -8.68712 0
M  V30 4147 O 669.486 3.29363 -6.99321 0
M  V30 4148 C 668.546 4.24011 -6.4274 0
M  V30 4149 C 669.276 5.20775 -5.52155 0
M  V30 4150 O 669.486 4.56534 -4.22446 0
M  V30 4151 C 670.676 5.62629 -5.96531 0
M  V30 4152 O 671.066 6.87667 -5.41053 0
M  V30 4153 C 671.556 4.52537 -5.39283 0
M  V30 4154 C 670.846 4.20027 -4.08623 0
M  V30 4155 N 670.896 2.76189 -3.71603 0
M  V30 4156 C 670.816 1.64862 -4.52822 0
M  V30 4157 N 670.896 0.512671 -3.88633 0
M  V30 4158 C 671.036 0.888083 -2.54977 0
M  V30 4159 C 671.166 0.094668 -1.38677 0
M  V30 4160 O 671.186 -1.13053 -1.28163 0
M  V30 4161 N 671.286 0.890102 -0.232633 0
M  V30 4162 C 671.286 2.26958 -0.21772 0
M  V30 4163 N 671.416 2.84626 0.97925 0
M  V30 4164 N 671.156 3.0178 -1.31033 0
M  V30 4165 C 671.036 2.26781 -2.43843 0
M  V30 4166 H 668.057 4.797 -7.24003 0
M  V30 4167 H 667.787 3.69856 -5.84513 0
M  V30 4168 H 668.654 6.10356 -5.41441 0
M  V30 4169 H 671.309 4.79061 -3.27488 0
M  V30 4170 H 671.588 3.64906 -6.05785 0
M  V30 4171 H 672.58 4.8868 -5.2125 0
M  V30 4172 H 670.746 5.66726 -7.06352 0
M  V30 4173 H 670.697 1.71169 -5.60966 0
M  V30 4174 H 671.379 0.419134 0.644739 0
M  V30 4175 H 671.416 3.87332 1.06098 0
M  V30 4176 H 671.517 2.26417 1.82483 0
M  V30 4177 P 672.616 7.20834 -5.23717 0
M  V30 4178 O 672.836 8.66104 -5.38572 0
M  V30 4179 O 673.406 6.33544 -6.1349 0
M  V30 4180 O 672.866 6.7751 -3.72168 0
M  V30 4181 C 671.926 7.20825 -2.7076 0
M  V30 4182 C 672.656 7.45864 -1.40599 0
M  V30 4183 O 672.866 6.17651 -0.734225 0
M  V30 4184 C 674.056 8.05808 -1.51899 0
M  V30 4185 O 674.446 8.74358 -0.335205 0
M  V30 4186 C 674.936 6.83093 -1.70294 0
M  V30 4187 C 674.226 5.79992 -0.836974 0
M  V30 4188 N 674.276 4.41864 -1.38293 0
M  V30 4189 H 671.437 8.13644 -3.0377 0
M  V30 4190 H 671.167 6.42788 -2.55485 0
M  V30 4191 H 672.034 8.12039 -0.792769 0
M  V30 4192 P 675.996 8.91 4.64125e-12 0
M  V30 4193 O 676.216 10.1726 0.733694 0
M  V30 4194 O 676.786 8.73148 -1.23936 0
M  V30 4195 O 676.246 7.66872 0.971405 0
M  V30 4196 C 675.306 7.42309 2.04641 0
M  V30 4197 C 676.036 6.86059 3.24661 0
M  V30 4198 O 676.246 5.42847 3.03646 0
M  V30 4199 C 677.436 7.41196 3.50753 0
M  V30 4200 O 677.826 7.27073 4.86816 0
M  V30 4201 C 678.316 6.5273 2.63741 0
M  V30 4202 C 677.606 5.1842 2.73198 0
M  V30 4203 N 677.656 4.38762 1.4784 0
M  V30 4204 H 674.817 8.36803 2.32493 0
M  V30 4205 H 674.547 6.70197 1.71129 0
M  V30 4206 H 675.414 7.03551 4.13168 0
M  V30 4207 P 679.376 7.20834 5.23717 0
M  V30 4208 O 679.596 7.79853 6.57286 0
M  V30 4209 O 680.166 7.79239 4.12957 0
M  V30 4210 O 679.626 5.63315 5.29344 0
M  V30 4211 C 678.686 4.80255 6.01876 0
M  V30 4212 C 679.416 3.64202 6.65911 0
M  V30 4213 O 679.626 2.60694 5.64732 0
M  V30 4214 C 680.816 3.93473 7.1943 0
M  V30 4215 O 681.206 3.02071 8.21205 0
M  V30 4216 C 681.696 3.73047 5.97036 0
M  V30 4217 C 680.986 2.58828 5.25741 0
M  V30 4218 N 681.036 2.68068 3.77503 0
M  V30 4219 H 678.197 5.40332 6.79951 0
M  V30 4220 H 677.927 4.41613 5.32378 0
M  V30 4221 H 678.794 3.26331 7.47797 0
M  V30 4222 P 682.756 2.75334 8.47391 0
M  V30 4223 O 682.976 2.44571 9.90142 0
M  V30 4224 O 683.546 3.87688 7.92115 0
M  V30 4225 O 683.006 1.4459 7.59357 0
M  V30 4226 C 682.066 0.347608 7.69215 0
M  V30 4227 C 682.796 -0.96767 7.52806 0
M  V30 4228 O 683.006 -1.21036 6.1011 0
M  V30 4229 C 684.196 -1.04544 8.13308 0
M  V30 4230 O 684.586 -2.38311 8.41922 0
M  V30 4231 C 685.076 -0.491279 7.02284 0
M  V30 4232 C 684.366 -0.996264 5.77469 0
M  V30 4233 N 684.416 -0.0501916 4.62973 0
M  V30 4234 H 681.577 0.374722 8.67691 0
M  V30 4235 H 681.307 0.443485 6.90277 0
M  V30 4236 H 682.174 -1.75537 7.96793 0
M  V30 4237 P 686.136 -2.75334 8.47391 0
M  V30 4238 O 686.356 -3.84204 9.44982 0
M  V30 4239 O 686.926 -1.51982 8.68909 0
M  V30 4240 O 686.386 -3.29363 6.99321 0
M  V30 4241 C 685.446 -4.24066 6.42823 0
M  V30 4242 C 686.176 -5.20775 5.52155 0
M  V30 4243 O 686.386 -4.56607 4.22514 0
M  V30 4244 C 687.576 -5.62697 5.96604 0
M  V30 4245 O 687.966 -6.87667 5.41053 0
M  V30 4246 C 688.456 -4.52537 5.39283 0
M  V30 4247 C 687.746 -4.20027 4.08623 0
M  V30 4248 N 687.796 -2.76189 3.71603 0
M  V30 4249 H 684.958 -4.79756 7.24086 0
M  V30 4250 H 684.686 -3.69963 5.84682 0
M  V30 4251 H 685.554 -6.10431 5.41508 0
M  V30 4252 H 688.209 -4.78816 3.28024 0
M  V30 4253 H 688.489 -3.64957 6.05871 0
M  V30 4254 H 689.48 -4.88748 5.21323 0
M  V30 4255 H 687.646 -5.66789 7.0643 0
M  V30 4256 P 689.516 -7.20834 5.23717 0
M  V30 4257 O 689.736 -8.66189 5.38625 0
M  V30 4258 O 690.306 -6.33615 6.1356 0
M  V30 4259 O 689.766 -6.7751 3.72168 0
M  V30 4260 C 688.826 -7.20732 2.70725 0
M  V30 4261 C 689.556 -7.45864 1.40599 0
M  V30 4262 O 689.766 -6.17651 0.734225 0
M  V30 4263 C 690.956 -8.05808 1.51899 0
M  V30 4264 O 691.346 -8.74358 0.335205 0
M  V30 4265 C 691.836 -6.83093 1.70294 0
M  V30 4266 C 691.126 -5.79992 0.836974 0
M  V30 4267 N 691.176 -4.41769 1.38263 0
M  V30 4268 C 691.326 -3.38591 0.481702 0
M  V30 4269 O 691.416 -3.56839 -0.718452 0
M  V30 4270 N 691.366 -2.1206 1.03569 0
M  V30 4271 C 691.276 -1.80696 2.36966 0
M  V30 4272 C 691.126 -2.94845 3.23898 0
M  V30 4273 C 691.076 -4.19803 2.73435 0
M  V30 4274 H 688.336 -8.13644 3.0377 0
M  V30 4275 H 688.067 -6.42695 2.55448 0
M  V30 4276 H 688.934 -8.12039 0.792769 0
M  V30 4277 H 691.589 -5.79978 -0.160587 0
M  V30 4278 H 691.868 -6.51379 2.75643 0
M  V30 4279 H 692.86 -7.01734 1.34462 0
M  V30 4280 H 691.026 -8.73674 2.38337 0
M  V30 4281 H 690.955 -5.04492 3.4095 0
M  V30 4282 P 692.896 -8.91 -4.67181e-12 0
M  V30 4283 O 693.116 -10.1726 -0.733694 0
M  V30 4284 O 693.686 -8.73148 1.23936 0
M  V30 4285 O 693.146 -7.66872 -0.971405 0
M  V30 4286 C 692.206 -7.42309 -2.04641 0
M  V30 4287 C 692.936 -6.86059 -3.24661 0
M  V30 4288 O 693.146 -5.42847 -3.03646 0
M  V30 4289 C 694.336 -7.41196 -3.50753 0
M  V30 4290 O 694.726 -7.27073 -4.86816 0
M  V30 4291 C 695.216 -6.5273 -2.63741 0
M  V30 4292 C 694.506 -5.1842 -2.73198 0
M  V30 4293 N 694.556 -4.38762 -1.4784 0
M  V30 4294 H 691.717 -8.36803 -2.32493 0
M  V30 4295 H 691.447 -6.70197 -1.71129 0
M  V30 4296 H 692.314 -7.03551 -4.13168 0
M  V30 4297 P 696.276 -7.20834 -5.23717 0
M  V30 4298 O 696.496 -7.79853 -6.57286 0
M  V30 4299 O 697.066 -7.79239 -4.12957 0
M  V30 4300 O 696.526 -5.63315 -5.29344 0
M  V30 4301 C 695.586 -4.80255 -6.01876 0
M  V30 4302 C 696.316 -3.64202 -6.65911 0
M  V30 4303 O 696.526 -2.60694 -5.64732 0
M  V30 4304 C 697.716 -3.93473 -7.1943 0
M  V30 4305 O 698.106 -3.02071 -8.21205 0
M  V30 4306 C 698.596 -3.73047 -5.97036 0
M  V30 4307 C 697.886 -2.58828 -5.25741 0
M  V30 4308 N 697.936 -2.68068 -3.77503 0
M  V30 4309 H 695.097 -5.40332 -6.79951 0
M  V30 4310 H 694.827 -4.41613 -5.32378 0
M  V30 4311 H 695.694 -3.26331 -7.47797 0
M  V30 4312 P 699.656 -2.75334 -8.47391 0
M  V30 4313 O 699.876 -2.44571 -9.90142 0
M  V30 4314 O 700.446 -3.87688 -7.92115 0
M  V30 4315 O 699.906 -1.4459 -7.59357 0
M  V30 4316 C 698.966 -0.347608 -7.69215 0
M  V30 4317 C 699.696 0.96767 -7.52806 0
M  V30 4318 O 699.906 1.21036 -6.1011 0
M  V30 4319 C 701.096 1.04544 -8.13308 0
M  V30 4320 O 701.486 2.38311 -8.41922 0
M  V30 4321 C 701.976 0.491279 -7.02284 0
M  V30 4322 C 701.266 0.996264 -5.77469 0
M  V30 4323 N 701.316 0.0501916 -4.62973 0
M  V30 4324 C 701.236 -1.32786 -4.63244 0
M  V30 4325 N 701.316 -1.86957 -3.44545 0
M  V30 4326 C 701.456 -0.780241 -2.58481 0
M  V30 4327 C 701.586 -0.738536 -1.17757 0
M  V30 4328 N 701.706 0.58337 -0.711393 0
M  V30 4329 C 701.706 1.70816 -1.51017 0
M  V30 4330 N 701.836 2.87826 -0.880757 0
M  V30 4331 N 701.576 1.67126 -2.8339 0
M  V30 4332 C 701.456 0.401421 -3.30572 0
M  V30 4333 H 698.477 -0.374722 -8.67691 0
M  V30 4334 H 698.207 -0.443485 -6.90277 0
M  V30 4335 H 699.074 1.75537 -7.96793 0
M  V30 4336 P 703.036 2.75334 -8.47391 0
M  V30 4337 O 703.256 3.84128 -9.44797 0
M  V30 4338 O 703.826 1.51947 -8.68712 0
M  V30 4339 O 703.286 3.29363 -6.99321 0
M  V30 4340 C 702.346 4.24011 -6.4274 0
M  V30 4341 C 703.076 5.20775 -5.52155 0
M  V30 4342 O 703.286 4.56534 -4.22446 0
M  V30 4343 C 704.476 5.62629 -5.96531 0
M  V30 4344 O 704.866 6.87667 -5.41053 0
M  V30 4345 C 705.356 4.52537 -5.39283 0
M  V30 4346 C 704.646 4.20027 -4.08623 0
M  V30 4347 N 704.696 2.76189 -3.71603 0
M  V30 4348 H 701.857 4.797 -7.24003 0
M  V30 4349 H 701.587 3.69856 -5.84513 0
M  V30 4350 H 702.454 6.10356 -5.41441 0
M  V30 4351 P 706.416 7.20834 -5.23717 0
M  V30 4352 O 706.636 8.66104 -5.38572 0
M  V30 4353 O 707.206 6.33544 -6.1349 0
M  V30 4354 O 706.666 6.7751 -3.72168 0
M  V30 4355 C 705.726 7.20825 -2.7076 0
M  V30 4356 C 706.456 7.45864 -1.40599 0
M  V30 4357 O 706.666 6.17651 -0.734225 0
M  V30 4358 C 707.856 8.05808 -1.51899 0
M  V30 4359 O 708.246 8.74358 -0.335205 0
M  V30 4360 C 708.736 6.83093 -1.70294 0
M  V30 4361 C 708.026 5.79992 -0.836974 0
M  V30 4362 N 708.076 4.41864 -1.38293 0
M  V30 4363 H 705.237 8.13644 -3.0377 0
M  V30 4364 H 704.967 6.42788 -2.55485 0
M  V30 4365 H 705.834 8.12039 -0.792769 0
M  V30 4366 P 709.796 8.91 4.82899e-12 0
M  V30 4367 O 710.016 10.1726 0.733694 0
M  V30 4368 O 710.586 8.73148 -1.23936 0
M  V30 4369 O 710.046 7.66872 0.971405 0
M  V30 4370 C 709.106 7.42309 2.04641 0
M  V30 4371 C 709.836 6.86059 3.24661 0
M  V30 4372 O 710.046 5.42847 3.03646 0
M  V30 4373 C 711.236 7.41196 3.50753 0
M  V30 4374 O 711.626 7.27073 4.86816 0
M  V30 4375 C 712.116 6.5273 2.63741 0
M  V30 4376 C 711.406 5.1842 2.73198 0
M  V30 4377 N 711.456 4.38762 1.4784 0
M  V30 4378 H 708.617 8.36803 2.32493 0
M  V30 4379 H 708.347 6.70197 1.71129 0
M  V30 4380 H 709.214 7.03551 4.13168 0
M  V30 4381 P 713.176 7.20834 5.23717 0
M  V30 4382 O 713.396 7.79853 6.57286 0
M  V30 4383 O 713.966 7.79239 4.12957 0
M  V30 4384 O 713.426 5.63315 5.29344 0
M  V30 4385 C 712.486 4.80255 6.01876 0
M  V30 4386 C 713.216 3.64202 6.65911 0
M  V30 4387 O 713.426 2.60694 5.64732 0
M  V30 4388 C 714.616 3.93473 7.1943 0
M  V30 4389 O 715.006 3.02071 8.21205 0
M  V30 4390 C 715.496 3.73047 5.97036 0
M  V30 4391 C 714.786 2.58828 5.25741 0
M  V30 4392 N 714.836 2.68068 3.77503 0
M  V30 4393 H 711.997 5.40332 6.79951 0
M  V30 4394 H 711.727 4.41613 5.32378 0
M  V30 4395 H 712.594 3.26331 7.47797 0
M  V30 4396 P 716.556 2.75334 8.47391 0
M  V30 4397 O 716.776 2.44571 9.90142 0
M  V30 4398 O 717.346 3.87688 7.92115 0
M  V30 4399 O 716.806 1.4459 7.59357 0
M  V30 4400 C 715.866 0.347608 7.69215 0
M  V30 4401 C 716.596 -0.96767 7.52806 0
M  V30 4402 O 716.806 -1.21036 6.1011 0
M  V30 4403 C 717.996 -1.04544 8.13308 0
M  V30 4404 O 718.386 -2.38311 8.41922 0
M  V30 4405 C 718.876 -0.491279 7.02284 0
M  V30 4406 C 718.166 -0.996264 5.77469 0
M  V30 4407 N 718.216 -0.0501916 4.62973 0
M  V30 4408 C 718.136 1.32786 4.63244 0
M  V30 4409 N 718.216 1.86957 3.44545 0
M  V30 4410 C 718.356 0.780241 2.58481 0
M  V30 4411 C 718.486 0.738536 1.17757 0
M  V30 4412 O 718.506 1.66794 0.372349 0
M  V30 4413 N 718.606 -0.58337 0.711393 0
M  V30 4414 C 718.606 -1.70816 1.51017 0
M  V30 4415 N 718.736 -2.87826 0.880757 0
M  V30 4416 N 718.476 -1.67126 2.8339 0
M  V30 4417 C 718.356 -0.401421 3.30572 0
M  V30 4418 H 715.377 0.374722 8.67691 0
M  V30 4419 H 715.107 0.443485 6.90277 0
M  V30 4420 H 715.974 -1.75537 7.96793 0
M  V30 4421 H 718.629 -1.95076 5.46529 0
M  V30 4422 H 718.908 0.608565 7.04577 0
M  V30 4423 H 719.9 -0.889672 7.08939 0
M  V30 4424 H 718.066 -0.43308 9.04564 0
M  V30 4425 H 718.017 1.91249 5.54442 0
M  V30 4426 H 718.699 -0.718054 -0.275244 0
M  V30 4427 H 718.736 -3.75721 1.41832 0
M  V30 4428 H 718.837 -2.90436 -0.145468 0
M  V30 4429 P 719.936 -2.75334 8.47391 0
M  V30 4430 O 720.156 -3.84128 9.44797 0
M  V30 4431 O 720.726 -1.51947 8.68712 0
M  V30 4432 O 720.186 -3.29363 6.99321 0
M  V30 4433 C 719.246 -4.24011 6.4274 0
M  V30 4434 C 719.976 -5.20775 5.52155 0
M  V30 4435 O 720.186 -4.56534 4.22446 0
M  V30 4436 C 721.376 -5.62629 5.96531 0
M  V30 4437 O 721.766 -6.87667 5.41053 0
M  V30 4438 C 722.256 -4.52537 5.39283 0
M  V30 4439 C 721.546 -4.20027 4.08623 0
M  V30 4440 N 721.596 -2.76189 3.71603 0
M  V30 4441 C 721.516 -1.64862 4.52822 0
M  V30 4442 N 721.596 -0.512671 3.88633 0
M  V30 4443 C 721.736 -0.888083 2.54977 0
M  V30 4444 C 721.866 -0.094668 1.38677 0
M  V30 4445 O 721.886 1.13053 1.28163 0
M  V30 4446 N 721.986 -0.890102 0.232633 0
M  V30 4447 C 721.986 -2.26958 0.21772 0
M  V30 4448 N 722.116 -2.84626 -0.97925 0
M  V30 4449 N 721.856 -3.0178 1.31033 0
M  V30 4450 C 721.736 -2.26781 2.43843 0
M  V30 4451 H 718.757 -4.797 7.24003 0
M  V30 4452 H 718.487 -3.69856 5.84513 0
M  V30 4453 H 719.354 -6.10356 5.41441 0
M  V30 4454 H 722.009 -4.79061 3.27488 0
M  V30 4455 H 722.288 -3.64906 6.05785 0
M  V30 4456 H 723.28 -4.8868 5.2125 0
M  V30 4457 H 721.446 -5.66726 7.06352 0
M  V30 4458 H 721.397 -1.71169 5.60966 0
M  V30 4459 H 722.079 -0.419134 -0.644739 0
M  V30 4460 H 722.116 -3.87332 -1.06098 0
M  V30 4461 H 722.217 -2.26417 -1.82483 0
M  V30 4462 P 723.316 -7.20834 5.23717 0
M  V30 4463 O 723.536 -8.66104 5.38572 0
M  V30 4464 O 724.106 -6.33544 6.1349 0
M  V30 4465 O 723.566 -6.7751 3.72168 0
M  V30 4466 C 722.626 -7.20825 2.7076 0
M  V30 4467 C 723.356 -7.45864 1.40599 0
M  V30 4468 O 723.566 -6.17651 0.734225 0
M  V30 4469 C 724.756 -8.05808 1.51899 0
M  V30 4470 O 725.146 -8.74358 0.335205 0
M  V30 4471 C 725.636 -6.83093 1.70294 0
M  V30 4472 C 724.926 -5.79992 0.836974 0
M  V30 4473 N 724.976 -4.41864 1.38293 0
M  V30 4474 H 722.137 -8.13644 3.0377 0
M  V30 4475 H 721.867 -6.42788 2.55485 0
M  V30 4476 H 722.734 -8.12039 0.792769 0
M  V30 4477 P 726.696 -8.91 -4.98617e-12 0
M  V30 4478 O 726.916 -10.1736 -0.733766 0
M  V30 4479 O 727.486 -8.73247 1.2395 0
M  V30 4480 O 726.946 -7.66872 -0.971405 0
M  V30 4481 C 726.006 -7.42212 -2.04614 0
M  V30 4482 C 726.736 -6.86059 -3.24661 0
M  V30 4483 O 726.946 -5.42847 -3.03646 0
M  V30 4484 C 728.136 -7.41196 -3.50753 0
M  V30 4485 O 728.526 -7.27073 -4.86816 0
M  V30 4486 C 729.016 -6.5273 -2.63741 0
M  V30 4487 C 728.306 -5.1842 -2.73198 0
M  V30 4488 N 728.356 -4.38668 -1.47808 0
M  V30 4489 C 728.506 -3.02239 -1.60048 0
M  V30 4490 O 728.596 -2.46459 -2.67869 0
M  V30 4491 N 728.546 -2.32436 -0.408571 0
M  V30 4492 C 728.456 -2.85471 0.854993 0
M  V30 4493 C 728.306 -4.28918 0.887335 0
M  V30 4494 C 728.256 -5.00349 -0.255399 0
M  V30 4495 H 725.516 -8.36803 -2.32493 0
M  V30 4496 H 725.247 -6.701 -1.71105 0
M  V30 4497 H 726.114 -7.03551 -4.13168 0
M  V30 4498 H 728.769 -4.59773 -3.53894 0
M  V30 4499 H 729.048 -6.88995 -1.59871 0
M  V30 4500 H 730.04 -6.46749 -3.03687 0
M  V30 4501 H 728.206 -8.46908 -3.20714 0
M  V30 4502 H 728.135 -6.08548 -0.206986 0
M  V30 4503 P 730.076 -7.20834 -5.23717 0
M  V30 4504 O 730.296 -7.79853 -6.57286 0
M  V30 4505 O 730.866 -7.79239 -4.12957 0
M  V30 4506 O 730.326 -5.63315 -5.29344 0
M  V30 4507 C 729.386 -4.80255 -6.01876 0
M  V30 4508 C 730.116 -3.64202 -6.65911 0
M  V30 4509 O 730.326 -2.60694 -5.64732 0
M  V30 4510 C 731.516 -3.93473 -7.1943 0
M  V30 4511 O 731.906 -3.02071 -8.21205 0
M  V30 4512 C 732.396 -3.73047 -5.97036 0
M  V30 4513 C 731.686 -2.58828 -5.25741 0
M  V30 4514 N 731.736 -2.68068 -3.77503 0
M  V30 4515 H 728.897 -5.40332 -6.79951 0
M  V30 4516 H 728.627 -4.41613 -5.32378 0
M  V30 4517 H 729.494 -3.26331 -7.47797 0
M  V30 4518 P 733.456 -2.75334 -8.47391 0
M  V30 4519 O 733.676 -2.44595 -9.90239 0
M  V30 4520 O 734.246 -3.87732 -7.92204 0
M  V30 4521 O 733.706 -1.4459 -7.59357 0
M  V30 4522 C 732.766 -0.347563 -7.69115 0
M  V30 4523 C 733.496 0.96767 -7.52806 0
M  V30 4524 O 733.706 1.21036 -6.1011 0
M  V30 4525 C 734.896 1.04544 -8.13308 0
M  V30 4526 O 735.286 2.38311 -8.41922 0
M  V30 4527 C 735.776 0.491279 -7.02284 0
M  V30 4528 C 735.066 0.996264 -5.77469 0
M  V30 4529 N 735.116 0.0501808 -4.62873 0
M  V30 4530 C 735.266 0.588177 -3.36904 0
M  V30 4531 O 735.356 1.78598 -3.17173 0
M  V30 4532 N 735.306 -0.329694 -2.33686 0
M  V30 4533 C 735.216 -1.6953 -2.45079 0
M  V30 4534 O 735.266 -2.41926 -1.44899 0
M  V30 4535 C 735.066 -2.16933 -3.80505 0
M  V30 4536 C 734.956 -3.65373 -3.97621 0
M  V30 4537 C 735.016 -1.30326 -4.83752 0
M  V30 4538 H 732.276 -0.374722 -8.67691 0
M  V30 4539 H 732.007 -0.443421 -6.90177 0
M  V30 4540 H 732.874 1.75537 -7.96793 0
M  V30 4541 H 735.529 1.94496 -5.46629 0
M  V30 4542 H 735.808 -0.608651 -7.04676 0
M  V30 4543 H 736.8 0.889672 -7.08939 0
M  V30 4544 H 734.966 0.43308 -9.04564 0
M  V30 4545 H 734.895 -1.68366 -5.8516 0
M  V30 4546 H 735.925 -4.05985 -4.30448 0
M  V30 4547 H 734.188 -3.88028 -4.72875 0
M  V30 4548 H 734.676 -4.11381 -3.01609 0
M  V30 4549 H 735.412 0.0393617 -1.41345 0
M  V30 4550 P 736.836 2.75334 -8.47391 0
M  V30 4551 O 737.056 3.84128 -9.44797 0
M  V30 4552 O 737.626 1.51947 -8.68712 0
M  V30 4553 O 737.086 3.29363 -6.99321 0
M  V30 4554 C 736.146 4.24011 -6.4274 0
M  V30 4555 C 736.876 5.20775 -5.52155 0
M  V30 4556 O 737.086 4.56534 -4.22446 0
M  V30 4557 C 738.276 5.62629 -5.96531 0
M  V30 4558 O 738.666 6.87667 -5.41053 0
M  V30 4559 C 739.156 4.52537 -5.39283 0
M  V30 4560 C 738.446 4.20027 -4.08623 0
M  V30 4561 N 738.496 2.76189 -3.71603 0
M  V30 4562 H 735.657 4.797 -7.24003 0
M  V30 4563 H 735.387 3.69856 -5.84513 0
M  V30 4564 H 736.254 6.10356 -5.41441 0
M  V30 4565 P 740.216 7.20834 -5.23717 0
M  V30 4566 O 740.436 8.66104 -5.38572 0
M  V30 4567 O 741.006 6.33544 -6.1349 0
M  V30 4568 O 740.466 6.7751 -3.72168 0
M  V30 4569 C 739.526 7.20825 -2.7076 0
M  V30 4570 C 740.256 7.45864 -1.40599 0
M  V30 4571 O 740.466 6.17651 -0.734225 0
M  V30 4572 C 741.656 8.05808 -1.51899 0
M  V30 4573 O 742.046 8.74358 -0.335205 0
M  V30 4574 C 742.536 6.83093 -1.70294 0
M  V30 4575 C 741.826 5.79992 -0.836974 0
M  V30 4576 N 741.876 4.41864 -1.38293 0
M  V30 4577 C 741.796 3.99538 -2.69438 0
M  V30 4578 N 741.876 2.69909 -2.84277 0
M  V30 4579 C 742.016 2.21719 -1.5408 0
M  V30 4580 C 742.146 0.891712 -1.06628 0
M  V30 4581 N 742.266 0.856846 0.334985 0
M  V30 4582 C 742.266 1.9641 1.15789 0
M  V30 4583 N 742.396 1.72708 2.46522 0
M  V30 4584 N 742.136 3.21165 0.713741 0
M  V30 4585 C 742.016 3.26797 -0.639748 0
M  V30 4586 H 739.037 8.13644 -3.0377 0
M  V30 4587 H 738.767 6.42788 -2.55485 0
M  V30 4588 H 739.634 8.12039 -0.792769 0
M  V30 4589 P 743.596 8.91 5.14336e-12 0
M  V30 4590 O 743.816 10.1736 0.733766 0
M  V30 4591 O 744.386 8.73247 -1.2395 0
M  V30 4592 O 743.846 7.66872 0.971405 0
M  V30 4593 C 742.906 7.42212 2.04614 0
M  V30 4594 C 743.636 6.86059 3.24661 0
M  V30 4595 O 743.846 5.42847 3.03646 0
M  V30 4596 C 745.036 7.41196 3.50753 0
M  V30 4597 O 745.426 7.27073 4.86816 0
M  V30 4598 C 745.916 6.5273 2.63741 0
M  V30 4599 C 745.206 5.1842 2.73198 0
M  V30 4600 N 745.256 4.38668 1.47808 0
M  V30 4601 C 745.406 3.02239 1.60048 0
M  V30 4602 O 745.496 2.46459 2.67869 0
M  V30 4603 N 745.446 2.32436 0.408571 0
M  V30 4604 C 745.356 2.85471 -0.854993 0
M  V30 4605 O 745.406 2.12566 -1.8531 0
M  V30 4606 C 745.206 4.28918 -0.887335 0
M  V30 4607 C 745.096 4.91066 -2.24619 0
M  V30 4608 C 745.156 5.00349 0.255399 0
M  V30 4609 H 742.416 8.36803 2.32493 0
M  V30 4610 H 742.147 6.701 1.71105 0
M  V30 4611 H 743.014 7.03551 4.13168 0
M  V30 4612 H 745.669 4.59773 3.53894 0
M  V30 4613 H 745.948 6.88995 1.59871 0
M  V30 4614 H 746.94 6.46749 3.03687 0
M  V30 4615 H 745.106 8.46908 3.20714 0
M  V30 4616 H 745.035 6.08548 0.206986 0
M  V30 4617 H 746.065 5.34836 -2.53099 0
M  V30 4618 H 744.328 5.69638 -2.2291 0
M  V30 4619 H 744.816 4.13971 -2.98044 0
M  V30 4620 H 745.552 1.33211 0.474216 0
M  V30 4621 P 746.976 7.20834 5.23717 0
M  V30 4622 O 747.196 7.79853 6.57286 0
M  V30 4623 O 747.766 7.79239 4.12957 0
M  V30 4624 O 747.226 5.63315 5.29344 0
M  V30 4625 C 746.286 4.80255 6.01876 0
M  V30 4626 C 747.016 3.64202 6.65911 0
M  V30 4627 O 747.226 2.60694 5.64732 0
M  V30 4628 C 748.416 3.93473 7.1943 0
M  V30 4629 O 748.806 3.02071 8.21205 0
M  V30 4630 C 749.296 3.73047 5.97036 0
M  V30 4631 C 748.586 2.58828 5.25741 0
M  V30 4632 N 748.636 2.68068 3.77503 0
M  V30 4633 H 745.797 5.40332 6.79951 0
M  V30 4634 H 745.527 4.41613 5.32378 0
M  V30 4635 H 746.394 3.26331 7.47797 0
M  V30 4636 P 750.356 2.75334 8.47391 0
M  V30 4637 O 750.576 2.44571 9.90142 0
M  V30 4638 O 751.146 3.87688 7.92115 0
M  V30 4639 O 750.606 1.4459 7.59357 0
M  V30 4640 C 749.666 0.347608 7.69215 0
M  V30 4641 C 750.396 -0.96767 7.52806 0
M  V30 4642 O 750.606 -1.21036 6.1011 0
M  V30 4643 C 751.796 -1.04544 8.13308 0
M  V30 4644 O 752.186 -2.38311 8.41922 0
M  V30 4645 C 752.676 -0.491279 7.02284 0
M  V30 4646 C 751.966 -0.996264 5.77469 0
M  V30 4647 N 752.016 -0.0501916 4.62973 0
M  V30 4648 H 749.177 0.374722 8.67691 0
M  V30 4649 H 748.907 0.443485 6.90277 0
M  V30 4650 H 749.774 -1.75537 7.96793 0
M  V30 4651 P 753.736 -2.75334 8.47391 0
M  V30 4652 O 753.956 -3.84128 9.44797 0
M  V30 4653 O 754.526 -1.51947 8.68712 0
M  V30 4654 O 753.986 -3.29363 6.99321 0
M  V30 4655 C 753.046 -4.24011 6.4274 0
M  V30 4656 C 753.776 -5.20775 5.52155 0
M  V30 4657 O 753.986 -4.56534 4.22446 0
M  V30 4658 C 755.176 -5.62629 5.96531 0
M  V30 4659 O 755.566 -6.87667 5.41053 0
M  V30 4660 C 756.056 -4.52537 5.39283 0
M  V30 4661 C 755.346 -4.20027 4.08623 0
M  V30 4662 N 755.396 -2.76189 3.71603 0
M  V30 4663 H 752.557 -4.797 7.24003 0
M  V30 4664 H 752.287 -3.69856 5.84513 0
M  V30 4665 H 753.154 -6.10356 5.41441 0
M  V30 4666 P 757.116 -7.20834 5.23717 0
M  V30 4667 O 757.336 -8.66104 5.38572 0
M  V30 4668 O 757.906 -6.33544 6.1349 0
M  V30 4669 O 757.366 -6.7751 3.72168 0
M  V30 4670 C 756.426 -7.20825 2.7076 0
M  V30 4671 C 757.156 -7.45864 1.40599 0
M  V30 4672 O 757.366 -6.17651 0.734225 0
M  V30 4673 C 758.556 -8.05808 1.51899 0
M  V30 4674 O 758.946 -8.74358 0.335205 0
M  V30 4675 C 759.436 -6.83093 1.70294 0
M  V30 4676 C 758.726 -5.79992 0.836974 0
M  V30 4677 N 758.776 -4.41864 1.38293 0
M  V30 4678 H 755.937 -8.13644 3.0377 0
M  V30 4679 H 755.667 -6.42788 2.55485 0
M  V30 4680 H 756.534 -8.12039 0.792769 0
M  V30 4681 P 760.496 -8.91 -5.30054e-12 0
M  V30 4682 O 760.716 -10.1726 -0.733694 0
M  V30 4683 O 761.286 -8.73148 1.23936 0
M  V30 4684 O 760.746 -7.66872 -0.971405 0
M  V30 4685 C 759.806 -7.42309 -2.04641 0
M  V30 4686 C 760.536 -6.86059 -3.24661 0
M  V30 4687 O 760.746 -5.42847 -3.03646 0
M  V30 4688 C 761.936 -7.41196 -3.50753 0
M  V30 4689 O 762.326 -7.27073 -4.86816 0
M  V30 4690 C 762.816 -6.5273 -2.63741 0
M  V30 4691 C 762.106 -5.1842 -2.73198 0
M  V30 4692 N 762.156 -4.38762 -1.4784 0
M  V30 4693 H 759.317 -8.36803 -2.32493 0
M  V30 4694 H 759.047 -6.70197 -1.71129 0
M  V30 4695 H 759.914 -7.03551 -4.13168 0
M  V30 4696 P 763.875 -7.20834 -5.23717 0
M  V30 4697 O 764.095 -7.79853 -6.57286 0
M  V30 4698 O 764.665 -7.79239 -4.12957 0
M  V30 4699 O 764.125 -5.63315 -5.29344 0
M  V30 4700 C 763.185 -4.80255 -6.01876 0
M  V30 4701 C 763.915 -3.64202 -6.65911 0
M  V30 4702 O 764.125 -2.60694 -5.64732 0
M  V30 4703 C 765.315 -3.93473 -7.1943 0
M  V30 4704 O 765.705 -3.02071 -8.21205 0
M  V30 4705 C 766.195 -3.73047 -5.97036 0
M  V30 4706 C 765.485 -2.58828 -5.25741 0
M  V30 4707 N 765.535 -2.68068 -3.77503 0
M  V30 4708 H 762.696 -5.40332 -6.79951 0
M  V30 4709 H 762.426 -4.41613 -5.32378 0
M  V30 4710 H 763.293 -3.26331 -7.47797 0
M  V30 4711 P 767.255 -2.75334 -8.47391 0
M  V30 4712 O 767.475 -2.44571 -9.90142 0
M  V30 4713 O 768.045 -3.87688 -7.92115 0
M  V30 4714 O 767.505 -1.4459 -7.59357 0
M  V30 4715 C 766.565 -0.347608 -7.69215 0
M  V30 4716 C 767.295 0.96767 -7.52806 0
M  V30 4717 O 767.505 1.21036 -6.1011 0
M  V30 4718 C 768.695 1.04544 -8.13308 0
M  V30 4719 O 769.085 2.38311 -8.41922 0
M  V30 4720 C 769.575 0.491279 -7.02284 0
M  V30 4721 C 768.865 0.996264 -5.77469 0
M  V30 4722 N 768.915 0.0501916 -4.62973 0
M  V30 4723 H 766.076 -0.374722 -8.67691 0
M  V30 4724 H 765.806 -0.443485 -6.90277 0
M  V30 4725 H 766.673 1.75537 -7.96793 0
M  V30 4726 P 770.635 2.75334 -8.47391 0
M  V30 4727 O 770.855 3.84128 -9.44797 0
M  V30 4728 O 771.425 1.51947 -8.68712 0
M  V30 4729 O 770.885 3.29363 -6.99321 0
M  V30 4730 C 769.945 4.24011 -6.4274 0
M  V30 4731 C 770.675 5.20775 -5.52155 0
M  V30 4732 O 770.885 4.56534 -4.22446 0
M  V30 4733 C 772.075 5.62629 -5.96531 0
M  V30 4734 O 772.465 6.87667 -5.41053 0
M  V30 4735 C 772.955 4.52537 -5.39283 0
M  V30 4736 C 772.245 4.20027 -4.08623 0
M  V30 4737 N 772.295 2.76189 -3.71603 0
M  V30 4738 H 769.456 4.797 -7.24003 0
M  V30 4739 H 769.186 3.69856 -5.84513 0
M  V30 4740 H 770.053 6.10356 -5.41441 0
M  V30 4741 P 774.015 7.20834 -5.23717 0
M  V30 4742 O 774.235 8.66104 -5.38572 0
M  V30 4743 O 774.805 6.33544 -6.1349 0
M  V30 4744 O 774.265 6.7751 -3.72168 0
M  V30 4745 C 773.325 7.20825 -2.7076 0
M  V30 4746 C 774.055 7.45864 -1.40599 0
M  V30 4747 O 774.265 6.17651 -0.734225 0
M  V30 4748 C 775.455 8.05808 -1.51899 0
M  V30 4749 O 775.845 8.74358 -0.335205 0
M  V30 4750 C 776.335 6.83093 -1.70294 0
M  V30 4751 C 775.625 5.79992 -0.836974 0
M  V30 4752 N 775.675 4.41864 -1.38293 0
M  V30 4753 H 772.836 8.13644 -3.0377 0
M  V30 4754 H 772.566 6.42788 -2.55485 0
M  V30 4755 H 773.433 8.12039 -0.792769 0
M  V30 4756 P 777.395 8.91 5.45772e-12 0
M  V30 4757 O 777.615 10.1746 0.733838 0
M  V30 4758 O 778.185 8.73346 -1.23964 0
M  V30 4759 O 777.645 7.66872 0.971405 0
M  V30 4760 C 776.705 7.42405 2.04668 0
M  V30 4761 C 777.435 6.86059 3.24661 0
M  V30 4762 O 777.645 5.42934 3.03695 0
M  V30 4763 C 778.835 7.41287 3.50796 0
M  V30 4764 O 779.225 7.27073 4.86816 0
M  V30 4765 C 779.715 6.5273 2.63741 0
M  V30 4766 C 779.005 5.1842 2.73198 0
M  V30 4767 N 779.055 4.38762 1.4784 0
M  V30 4768 C 778.975 4.83651 0.183876 0
M  V30 4769 N 779.045 3.88759 -0.699393 0
M  V30 4770 C 779.195 2.7404 0.0575568 0
M  V30 4771 C 779.325 1.37902 -0.293928 0
M  V30 4772 N 779.335 0.938021 -1.54797 0
M  V30 4773 N 779.445 0.491817 0.70549 0
M  V30 4774 C 779.435 0.931735 1.95979 0
M  V30 4775 N 779.315 2.16017 2.41481 0
M  V30 4776 C 779.195 3.02547 1.39121 0
M  V30 4777 H 776.217 8.36899 2.3252 0
M  V30 4778 H 775.945 6.70391 1.71179 0
M  V30 4779 H 776.813 7.03638 4.13219 0
M  V30 4780 H 779.468 4.59931 3.54016 0
M  V30 4781 H 779.748 6.88995 1.59871 0
M  V30 4782 H 780.739 6.4684 3.0373 0
M  V30 4783 H 778.905 8.47002 3.20749 0
M  V30 4784 H 778.864 5.8885 -0.0765548 0
M  V30 4785 H 779.245 1.60276 -2.32875 0
M  V30 4786 H 779.434 -0.0699355 -1.73859 0
M  V30 4787 H 779.542 0.165507 2.71897 0
M  V30 4788 P 780.775 7.20834 5.23717 0
M  V30 4789 O 780.995 7.7993 6.57351 0
M  V30 4790 O 781.565 7.79328 4.13004 0
M  V30 4791 O 781.025 5.63315 5.29344 0
M  V30 4792 C 780.085 4.80193 6.01798 0
M  V30 4793 C 780.815 3.64202 6.65911 0
M  V30 4794 O 781.025 2.60694 5.64732 0
M  V30 4795 C 782.215 3.93473 7.1943 0
M  V30 4796 O 782.605 3.02071 8.21205 0
M  V30 4797 C 783.095 3.73047 5.97036 0
M  V30 4798 C 782.385 2.58828 5.25741 0
M  V30 4799 N 782.435 2.6801 3.77422 0
M  V30 4800 C 782.585 1.50443 3.07133 0
M  V30 4801 O 782.675 0.419406 3.61576 0
M  V30 4802 N 782.625 1.6403 1.69677 0
M  V30 4803 C 782.535 2.81206 0.986255 0
M  V30 4804 C 782.385 3.99158 1.80325 0
M  V30 4805 C 782.335 3.89779 3.1476 0
M  V30 4806 H 779.595 5.40332 6.79951 0
M  V30 4807 H 779.326 4.41549 5.32301 0
M  V30 4808 H 780.193 3.26331 7.47797 0
M  V30 4809 H 782.848 1.6395 5.56554 0
M  V30 4810 H 783.127 4.63439 5.3432 0
M  V30 4811 H 784.119 3.44728 6.25838 0
M  V30 4812 H 782.285 4.96652 7.57263 0
M  V30 4813 H 782.214 4.80159 3.74441 0
M  V30 4814 P 784.155 2.75334 8.47391 0
M  V30 4815 O 784.375 2.44595 9.90239 0
M  V30 4816 O 784.945 3.87732 7.92204 0
M  V30 4817 O 784.405 1.4459 7.59357 0
M  V30 4818 C 783.465 0.347563 7.69115 0
M  V30 4819 C 784.195 -0.96767 7.52806 0
M  V30 4820 O 784.405 -1.21036 6.1011 0
M  V30 4821 C 785.595 -1.04544 8.13308 0
M  V30 4822 O 785.985 -2.38311 8.41922 0
M  V30 4823 C 786.475 -0.491279 7.02284 0
M  V30 4824 C 785.765 -0.996264 5.77469 0
M  V30 4825 N 785.815 -0.0501808 4.62873 0
M  V30 4826 C 785.965 -0.588177 3.36904 0
M  V30 4827 O 786.055 -1.78598 3.17173 0
M  V30 4828 N 786.005 0.329694 2.33686 0
M  V30 4829 C 785.915 1.6953 2.45079 0
M  V30 4830 C 785.765 2.16933 3.80505 0
M  V30 4831 C 785.715 1.30326 4.83752 0
M  V30 4832 H 782.975 0.374722 8.67691 0
M  V30 4833 H 782.706 0.443421 6.90177 0
M  V30 4834 H 783.573 -1.75537 7.96793 0
M  V30 4835 H 786.228 -1.94496 5.46629 0
M  V30 4836 H 786.507 0.608651 7.04676 0
M  V30 4837 H 787.499 -0.889672 7.08939 0
M  V30 4838 H 785.665 -0.43308 9.04564 0
M  V30 4839 H 785.594 1.68366 5.8516 0
M  V30 4840 P 787.535 -2.75334 8.47391 0
M  V30 4841 O 787.755 -3.84128 9.44797 0
M  V30 4842 O 788.325 -1.51947 8.68712 0
M  V30 4843 O 787.785 -3.29363 6.99321 0
M  V30 4844 C 786.845 -4.24011 6.4274 0
M  V30 4845 C 787.575 -5.20775 5.52155 0
M  V30 4846 O 787.785 -4.56534 4.22446 0
M  V30 4847 C 788.975 -5.62629 5.96531 0
M  V30 4848 O 789.365 -6.87667 5.41053 0
M  V30 4849 C 789.855 -4.52537 5.39283 0
M  V30 4850 C 789.145 -4.20027 4.08623 0
M  V30 4851 N 789.195 -2.76189 3.71603 0
M  V30 4852 H 786.356 -4.797 7.24003 0
M  V30 4853 H 786.086 -3.69856 5.84513 0
M  V30 4854 H 786.953 -6.10356 5.41441 0
M  V30 4855 P 790.915 -7.20834 5.23717 0
M  V30 4856 O 791.135 -8.66104 5.38572 0
M  V30 4857 O 791.705 -6.33544 6.1349 0
M  V30 4858 O 791.165 -6.7751 3.72168 0
M  V30 4859 C 790.225 -7.20825 2.7076 0
M  V30 4860 C 790.955 -7.45864 1.40599 0
M  V30 4861 O 791.165 -6.17651 0.734225 0
M  V30 4862 C 792.355 -8.05808 1.51899 0
M  V30 4863 O 792.745 -8.74358 0.335205 0
M  V30 4864 C 793.235 -6.83093 1.70294 0
M  V30 4865 C 792.525 -5.79992 0.836974 0
M  V30 4866 N 792.575 -4.41864 1.38293 0
M  V30 4867 H 789.736 -8.13644 3.0377 0
M  V30 4868 H 789.466 -6.42788 2.55485 0
M  V30 4869 H 790.333 -8.12039 0.792769 0
M  V30 4870 P 794.295 -8.91 -5.6149e-12 0
M  V30 4871 O 794.515 -10.1746 -0.733838 0
M  V30 4872 O 795.085 -8.73346 1.23964 0
M  V30 4873 O 794.545 -7.66872 -0.971405 0
M  V30 4874 C 793.605 -7.42405 -2.04668 0
M  V30 4875 C 794.335 -6.86059 -3.24661 0
M  V30 4876 O 794.545 -5.42934 -3.03695 0
M  V30 4877 C 795.735 -7.41287 -3.50796 0
M  V30 4878 O 796.125 -7.27073 -4.86816 0
M  V30 4879 C 796.615 -6.5273 -2.63741 0
M  V30 4880 C 795.905 -5.1842 -2.73198 0
M  V30 4881 N 795.955 -4.38762 -1.4784 0
M  V30 4882 H 793.117 -8.36899 -2.3252 0
M  V30 4883 H 792.845 -6.70391 -1.71179 0
M  V30 4884 H 793.713 -7.03638 -4.13219 0
M  V30 4885 H 796.368 -4.59931 -3.54016 0
M  V30 4886 H 796.648 -6.88995 -1.59871 0
M  V30 4887 H 797.639 -6.4684 -3.0373 0
M  V30 4888 H 795.805 -8.47002 -3.20749 0
M  V30 4889 P 797.675 -7.20834 -5.23717 0
M  V30 4890 O 797.895 -7.80006 -6.57415 0
M  V30 4891 O 798.465 -7.79416 -4.13051 0
M  V30 4892 O 797.925 -5.63315 -5.29344 0
M  V30 4893 C 796.985 -4.80318 -6.01954 0
M  V30 4894 C 797.715 -3.64202 -6.65911 0
M  V30 4895 O 797.925 -2.60736 -5.64823 0
M  V30 4896 C 799.115 -3.93521 -7.19518 0
M  V30 4897 O 799.505 -3.02071 -8.21205 0
M  V30 4898 C 799.995 -3.73047 -5.97036 0
M  V30 4899 C 799.285 -2.58828 -5.25741 0
M  V30 4900 N 799.335 -2.68068 -3.77503 0
M  V30 4901 C 799.255 -3.80474 -2.99159 0
M  V30 4902 N 799.325 -3.55622 -1.71925 0
M  V30 4903 C 799.475 -2.1832 -1.65733 0
M  V30 4904 C 799.605 -1.28842 -0.572777 0
M  V30 4905 N 799.615 -1.66875 0.70098 0
M  V30 4906 N 799.725 0.016788 -0.859836 0
M  V30 4907 C 799.715 0.398145 -2.13316 0
M  V30 4908 N 799.595 -0.328224 -3.22333 0
M  V30 4909 C 799.475 -1.62992 -2.90383 0
M  V30 4910 H 796.497 -5.40394 -6.8003 0
M  V30 4911 H 796.225 -4.41741 -5.32532 0
M  V30 4912 H 797.093 -3.26371 -7.47889 0
M  V30 4913 H 799.748 -1.64007 -5.56746 0
M  V30 4914 H 800.028 -4.63439 -5.3432 0
M  V30 4915 H 801.019 -3.44776 -6.25925 0
M  V30 4916 H 799.185 -4.96707 -7.57347 0
M  V30 4917 H 799.144 -4.8089 -3.39924 0
M  V30 4918 H 799.525 -2.66547 0.941919 0
M  V30 4919 H 799.714 -0.965341 1.44766 0
M  V30 4920 H 799.822 1.46427 -2.29697 0
M  V30 4921 P 801.055 -2.75334 -8.47391 0
M  V30 4922 O 801.275 -2.44571 -9.90142 0
M  V30 4923 O 801.845 -3.87688 -7.92115 0
M  V30 4924 O 801.305 -1.4459 -7.59357 0
M  V30 4925 C 800.365 -0.347608 -7.69215 0
M  V30 4926 C 801.095 0.96767 -7.52806 0
M  V30 4927 O 801.305 1.21036 -6.1011 0
M  V30 4928 C 802.495 1.04544 -8.13308 0
M  V30 4929 O 802.885 2.38311 -8.41922 0
M  V30 4930 C 803.375 0.491279 -7.02284 0
M  V30 4931 C 802.665 0.996264 -5.77469 0
M  V30 4932 N 802.715 0.0501916 -4.62973 0
M  V30 4933 H 799.876 -0.374722 -8.67691 0
M  V30 4934 H 799.606 -0.443485 -6.90277 0
M  V30 4935 H 800.473 1.75537 -7.96793 0
M  V30 4936 P 804.435 2.75334 -8.47391 0
M  V30 4937 O 804.655 3.84128 -9.44797 0
M  V30 4938 O 805.225 1.51947 -8.68712 0
M  V30 4939 O 804.685 3.29363 -6.99321 0
M  V30 4940 C 803.745 4.24011 -6.4274 0
M  V30 4941 C 804.475 5.20775 -5.52155 0
M  V30 4942 O 804.685 4.56534 -4.22446 0
M  V30 4943 C 805.875 5.62629 -5.96531 0
M  V30 4944 O 806.265 6.87667 -5.41053 0
M  V30 4945 C 806.755 4.52537 -5.39283 0
M  V30 4946 C 806.045 4.20027 -4.08623 0
M  V30 4947 N 806.095 2.76189 -3.71603 0
M  V30 4948 C 806.015 1.64862 -4.52822 0
M  V30 4949 N 806.095 0.512671 -3.88633 0
M  V30 4950 C 806.235 0.888083 -2.54977 0
M  V30 4951 C 806.365 0.094668 -1.38677 0
M  V30 4952 O 806.385 -1.13053 -1.28163 0
M  V30 4953 N 806.485 0.890102 -0.232633 0
M  V30 4954 C 806.485 2.26958 -0.21772 0
M  V30 4955 N 806.615 2.84626 0.97925 0
M  V30 4956 N 806.355 3.0178 -1.31033 0
M  V30 4957 C 806.235 2.26781 -2.43843 0
M  V30 4958 H 803.256 4.797 -7.24003 0
M  V30 4959 H 802.986 3.69856 -5.84513 0
M  V30 4960 H 803.853 6.10356 -5.41441 0
M  V30 4961 H 806.508 4.79061 -3.27488 0
M  V30 4962 H 806.787 3.64906 -6.05785 0
M  V30 4963 H 807.779 4.8868 -5.2125 0
M  V30 4964 H 805.945 5.66726 -7.06352 0
M  V30 4965 H 805.896 1.71169 -5.60966 0
M  V30 4966 H 806.578 0.419134 0.644739 0
M  V30 4967 H 806.615 3.87332 1.06098 0
M  V30 4968 H 806.716 2.26417 1.82483 0
M  V30 4969 P 807.815 7.20834 -5.23717 0
M  V30 4970 O 808.035 8.66104 -5.38572 0
M  V30 4971 O 808.605 6.33544 -6.1349 0
M  V30 4972 O 808.065 6.7751 -3.72168 0
M  V30 4973 C 807.125 7.20825 -2.7076 0
M  V30 4974 C 807.855 7.45864 -1.40599 0
M  V30 4975 O 808.065 6.17651 -0.734225 0
M  V30 4976 C 809.255 8.05808 -1.51899 0
M  V30 4977 O 809.645 8.74358 -0.335205 0
M  V30 4978 C 810.135 6.83093 -1.70294 0
M  V30 4979 C 809.425 5.79992 -0.836974 0
M  V30 4980 N 809.475 4.41864 -1.38293 0
M  V30 4981 H 806.636 8.13644 -3.0377 0
M  V30 4982 H 806.366 6.42788 -2.55485 0
M  V30 4983 H 807.233 8.12039 -0.792769 0
M  V30 4984 P 811.195 8.91 5.77209e-12 0
M  V30 4985 O 811.415 10.1736 0.733766 0
M  V30 4986 O 811.985 8.73247 -1.2395 0
M  V30 4987 O 811.445 7.66872 0.971405 0
M  V30 4988 C 810.505 7.42309 2.04641 0
M  V30 4989 C 811.235 6.86059 3.24661 0
M  V30 4990 O 811.445 5.42847 3.03646 0
M  V30 4991 C 812.635 7.41196 3.50753 0
M  V30 4992 O 813.025 7.27073 4.86816 0
M  V30 4993 C 813.515 6.5273 2.63741 0
M  V30 4994 C 812.805 5.1842 2.73198 0
M  V30 4995 N 812.855 4.38668 1.47808 0
M  V30 4996 C 813.005 3.00789 1.58511 0
M  V30 4997 O 813.095 2.50116 2.71298 0
M  V30 4998 N 813.055 2.29703 0.253698 0
M  V30 4999 C 812.955 2.84269 -0.750133 0
M  V30 5000 N 813.005 2.06951 -1.82612 0
M  V30 5001 C 812.805 4.25803 -0.889776 0
M  V30 5002 C 812.755 4.98326 0.259363 0
M  V30 5003 H 810.015 8.36707 2.32466 0
M  V30 5004 H 809.746 6.701 1.71105 0
M  V30 5005 H 810.613 7.03638 4.13219 0
M  V30 5006 H 813.268 4.59852 3.53955 0
M  V30 5007 H 813.547 6.88995 1.59871 0
M  V30 5008 H 814.539 6.46749 3.03687 0
M  V30 5009 H 812.705 8.46908 3.20714 0
M  V30 5010 H 812.633 6.06349 0.206238 0
M  V30 5011 H 812.735 4.73163 -1.86796 0
M  V30 5012 H 813.123 1.05099 -1.72271 0
M  V30 5013 H 812.926 2.48716 -2.76361 0
M  V30 5014 P 814.575 7.20834 5.23717 0
M  V30 5015 O 814.795 7.80006 6.57415 0
M  V30 5016 O 815.365 7.79416 4.13051 0
M  V30 5017 O 814.825 5.63315 5.29344 0
M  V30 5018 C 813.885 4.80318 6.01954 0
M  V30 5019 C 814.615 3.64202 6.65911 0
M  V30 5020 O 814.825 2.60736 5.64823 0
M  V30 5021 C 816.015 3.93521 7.19518 0
M  V30 5022 O 816.405 3.02071 8.21205 0
M  V30 5023 C 816.895 3.73047 5.97036 0
M  V30 5024 C 816.185 2.58828 5.25741 0
M  V30 5025 N 816.235 2.68068 3.77503 0
M  V30 5026 H 813.397 5.40394 6.8003 0
M  V30 5027 H 813.125 4.41741 5.32532 0
M  V30 5028 H 813.993 3.26371 7.47889 0
M  V30 5029 H 816.648 1.64007 5.56746 0
M  V30 5030 H 816.928 4.63439 5.3432 0
M  V30 5031 H 817.919 3.44776 6.25925 0
M  V30 5032 H 816.085 4.96707 7.57347 0
M  V30 5033 P 817.955 2.75334 8.47391 0
M  V30 5034 O 818.175 2.44571 9.90142 0
M  V30 5035 O 818.745 3.87688 7.92115 0
M  V30 5036 O 818.205 1.4459 7.59357 0
M  V30 5037 C 817.265 0.347608 7.69215 0
M  V30 5038 C 817.995 -0.96767 7.52806 0
M  V30 5039 O 818.205 -1.21036 6.1011 0
M  V30 5040 C 819.395 -1.04544 8.13308 0
M  V30 5041 O 819.785 -2.38311 8.41922 0
M  V30 5042 C 820.275 -0.491279 7.02284 0
M  V30 5043 C 819.565 -0.996264 5.77469 0
M  V30 5044 N 819.615 -0.0501916 4.62973 0
M  V30 5045 C 819.535 1.32786 4.63244 0
M  V30 5046 N 819.615 1.86957 3.44545 0
M  V30 5047 C 819.755 0.780241 2.58481 0
M  V30 5048 C 819.885 0.738536 1.17757 0
M  V30 5049 N 820.005 -0.58337 0.711393 0
M  V30 5050 C 820.005 -1.70816 1.51017 0
M  V30 5051 N 820.135 -2.87826 0.880757 0
M  V30 5052 N 819.875 -1.67126 2.8339 0
M  V30 5053 C 819.755 -0.401421 3.30572 0
M  V30 5054 H 816.776 0.374722 8.67691 0
M  V30 5055 H 816.506 0.443485 6.90277 0
M  V30 5056 H 817.373 -1.75537 7.96793 0
M  V30 5057 P 821.335 -2.75334 8.47391 0
M  V30 5058 O 821.555 -3.84128 9.44797 0
M  V30 5059 O 822.125 -1.51947 8.68712 0
M  V30 5060 O 821.585 -3.29363 6.99321 0
M  V30 5061 C 820.645 -4.24011 6.4274 0
M  V30 5062 C 821.375 -5.20775 5.52155 0
M  V30 5063 O 821.585 -4.56534 4.22446 0
M  V30 5064 C 822.775 -5.62629 5.96531 0
M  V30 5065 O 823.165 -6.87667 5.41053 0
M  V30 5066 C 823.655 -4.52537 5.39283 0
M  V30 5067 C 822.945 -4.20027 4.08623 0
M  V30 5068 N 822.995 -2.76189 3.71603 0
M  V30 5069 H 820.156 -4.797 7.24003 0
M  V30 5070 H 819.886 -3.69856 5.84513 0
M  V30 5071 H 820.753 -6.10356 5.41441 0
M  V30 5072 P 824.715 -7.20834 5.23717 0
M  V30 5073 O 824.935 -8.66189 5.38625 0
M  V30 5074 O 825.505 -6.33615 6.1356 0
M  V30 5075 O 824.965 -6.7751 3.72168 0
M  V30 5076 C 824.025 -7.20732 2.70725 0
M  V30 5077 C 824.755 -7.45864 1.40599 0
M  V30 5078 O 824.965 -6.17651 0.734225 0
M  V30 5079 C 826.155 -8.05808 1.51899 0
M  V30 5080 O 826.545 -8.74358 0.335205 0
M  V30 5081 C 827.035 -6.83093 1.70294 0
M  V30 5082 C 826.325 -5.79992 0.836974 0
M  V30 5083 N 826.375 -4.41769 1.38263 0
M  V30 5084 C 826.525 -3.38591 0.481702 0
M  V30 5085 O 826.615 -3.56839 -0.718452 0
M  V30 5086 N 826.565 -2.1206 1.03569 0
M  V30 5087 C 826.475 -1.80696 2.36966 0
M  V30 5088 O 826.525 -0.630473 2.74862 0
M  V30 5089 C 826.325 -2.94845 3.23898 0
M  V30 5090 C 826.215 -2.65253 4.70362 0
M  V30 5091 C 826.275 -4.19803 2.73435 0
M  V30 5092 H 823.535 -8.13644 3.0377 0
M  V30 5093 H 823.266 -6.42695 2.55448 0
M  V30 5094 H 824.133 -8.12039 0.792769 0
M  V30 5095 H 826.788 -5.79978 -0.160587 0
M  V30 5096 H 827.067 -6.51379 2.75643 0
M  V30 5097 H 828.059 -7.01734 1.34462 0
M  V30 5098 H 826.225 -8.73674 2.38337 0
M  V30 5099 H 826.154 -5.04492 3.4095 0
M  V30 5100 H 827.184 -2.83924 5.1913 0
M  V30 5101 H 825.447 -3.29824 5.15163 0
M  V30 5102 H 825.935 -1.59723 4.84449 0
M  V30 5103 H 826.671 -1.35644 0.399345 0
M  V30 5104 P 828.095 -8.91 -5.92927e-12 0
M  V30 5105 O 828.315 -10.1736 -0.733766 0
M  V30 5106 O 828.885 -8.73247 1.2395 0
M  V30 5107 O 828.345 -7.66872 -0.971405 0
M  V30 5108 C 827.405 -7.42212 -2.04614 0
M  V30 5109 C 828.135 -6.86059 -3.24661 0
M  V30 5110 O 828.345 -5.42847 -3.03646 0
M  V30 5111 C 829.535 -7.41196 -3.50753 0
M  V30 5112 O 829.925 -7.27073 -4.86816 0
M  V30 5113 C 830.415 -6.5273 -2.63741 0
M  V30 5114 C 829.705 -5.1842 -2.73198 0
M  V30 5115 N 829.755 -4.38668 -1.47808 0
M  V30 5116 C 829.905 -3.02239 -1.60048 0
M  V30 5117 O 829.995 -2.46459 -2.67869 0
M  V30 5118 N 829.945 -2.32436 -0.408571 0
M  V30 5119 C 829.855 -2.85471 0.854993 0
M  V30 5120 O 829.905 -2.12566 1.8531 0
M  V30 5121 C 829.705 -4.28918 0.887335 0
M  V30 5122 C 829.595 -4.91066 2.24619 0
M  V30 5123 C 829.655 -5.00349 -0.255399 0
M  V30 5124 H 826.915 -8.36803 -2.32493 0
M  V30 5125 H 826.646 -6.701 -1.71105 0
M  V30 5126 H 827.513 -7.03551 -4.13168 0
M  V30 5127 H 830.168 -4.59773 -3.53894 0
M  V30 5128 H 830.447 -6.88995 -1.59871 0
M  V30 5129 H 831.439 -6.46749 -3.03687 0
M  V30 5130 H 829.605 -8.46908 -3.20714 0
M  V30 5131 H 829.534 -6.08548 -0.206986 0
M  V30 5132 H 830.564 -5.34836 2.53099 0
M  V30 5133 H 828.827 -5.69638 2.2291 0
M  V30 5134 H 829.315 -4.13971 2.98044 0
M  V30 5135 H 830.051 -1.33211 -0.474216 0
M  V30 5136 P 831.475 -7.20834 -5.23717 0
M  V30 5137 O 831.695 -7.79853 -6.57286 0
M  V30 5138 O 832.265 -7.79239 -4.12957 0
M  V30 5139 O 831.725 -5.63315 -5.29344 0
M  V30 5140 C 830.785 -4.80255 -6.01876 0
M  V30 5141 C 831.515 -3.64202 -6.65911 0
M  V30 5142 O 831.725 -2.60694 -5.64732 0
M  V30 5143 C 832.915 -3.93473 -7.1943 0
M  V30 5144 O 833.305 -3.02071 -8.21205 0
M  V30 5145 C 833.795 -3.73047 -5.97036 0
M  V30 5146 C 833.085 -2.58828 -5.25741 0
M  V30 5147 N 833.135 -2.68068 -3.77503 0
M  V30 5148 H 830.296 -5.40332 -6.79951 0
M  V30 5149 H 830.026 -4.41613 -5.32378 0
M  V30 5150 H 830.893 -3.26331 -7.47797 0
M  V30 5151 P 834.855 -2.75334 -8.47391 0
M  V30 5152 O 835.075 -2.44595 -9.90239 0
M  V30 5153 O 835.645 -3.87732 -7.92204 0
M  V30 5154 O 835.105 -1.4459 -7.59357 0
M  V30 5155 C 834.165 -0.347608 -7.69215 0
M  V30 5156 C 834.895 0.96767 -7.52806 0
M  V30 5157 O 835.105 1.21036 -6.1011 0
M  V30 5158 C 836.295 1.04544 -8.13308 0
M  V30 5159 O 836.685 2.38311 -8.41922 0
M  V30 5160 C 837.175 0.491279 -7.02284 0
M  V30 5161 C 836.465 0.996264 -5.77469 0
M  V30 5162 N 836.515 0.0501808 -4.62873 0
M  V30 5163 C 836.665 0.578037 -3.3505 0
M  V30 5164 O 836.755 1.8073 -3.21711 0
M  V30 5165 N 836.715 -0.468541 -2.263 0
M  V30 5166 C 836.615 -1.59186 -2.47176 0
M  V30 5167 N 836.665 -2.37626 -1.40392 0
M  V30 5168 C 836.465 -2.16203 -3.77467 0
M  V30 5169 C 836.415 -1.29324 -4.8195 0
M  V30 5170 H 833.675 -0.374679 -8.67591 0
M  V30 5171 H 833.406 -0.443421 -6.90177 0
M  V30 5172 H 834.273 1.75559 -7.96891 0
M  V30 5173 H 836.928 1.94529 -5.46723 0
M  V30 5174 H 837.207 -0.608651 -7.04676 0
M  V30 5175 H 838.199 0.889672 -7.08939 0
M  V30 5176 H 836.365 0.43308 -9.04564 0
M  V30 5177 H 836.293 -1.67758 -5.83046 0
M  V30 5178 H 836.395 -3.23869 -3.92281 0
M  V30 5179 H 836.783 -1.96317 -0.467202 0
M  V30 5180 H 836.586 -3.39693 -1.51142 0
M  V30 5181 P 838.235 2.75334 -8.47391 0
M  V30 5182 O 838.455 3.84128 -9.44797 0
M  V30 5183 O 839.025 1.51947 -8.68712 0
M  V30 5184 O 838.485 3.29363 -6.99321 0
M  V30 5185 C 837.545 4.24011 -6.4274 0
M  V30 5186 C 838.275 5.20775 -5.52155 0
M  V30 5187 O 838.485 4.56534 -4.22446 0
M  V30 5188 C 839.675 5.62629 -5.96531 0
M  V30 5189 O 840.065 6.87667 -5.41053 0
M  V30 5190 C 840.555 4.52537 -5.39283 0
M  V30 5191 C 839.845 4.20027 -4.08623 0
M  V30 5192 N 839.895 2.76189 -3.71603 0
M  V30 5193 H 837.056 4.797 -7.24003 0
M  V30 5194 H 836.786 3.69856 -5.84513 0
M  V30 5195 H 837.653 6.10356 -5.41441 0
M  V30 5196 P 841.615 7.20834 -5.23717 0
M  V30 5197 O 841.835 8.66189 -5.38625 0
M  V30 5198 O 842.405 6.33615 -6.1356 0
M  V30 5199 O 841.865 6.7751 -3.72168 0
M  V30 5200 C 840.925 7.20732 -2.70725 0
M  V30 5201 C 841.655 7.45864 -1.40599 0
M  V30 5202 O 841.865 6.17651 -0.734225 0
M  V30 5203 C 843.055 8.05808 -1.51899 0
M  V30 5204 O 843.445 8.74358 -0.335205 0
M  V30 5205 C 843.935 6.83093 -1.70294 0
M  V30 5206 C 843.225 5.79992 -0.836974 0
M  V30 5207 N 843.275 4.41769 -1.38263 0
M  V30 5208 C 843.425 3.38591 -0.481702 0
M  V30 5209 O 843.515 3.56839 0.718452 0
M  V30 5210 N 843.465 2.1206 -1.03569 0
M  V30 5211 C 843.375 1.80696 -2.36966 0
M  V30 5212 O 843.425 0.630473 -2.74862 0
M  V30 5213 C 843.225 2.94845 -3.23898 0
M  V30 5214 C 843.115 2.65253 -4.70362 0
M  V30 5215 C 843.175 4.19803 -2.73435 0
M  V30 5216 H 840.435 8.13644 -3.0377 0
M  V30 5217 H 840.166 6.42695 -2.55448 0
M  V30 5218 H 841.033 8.12039 -0.792769 0
M  V30 5219 H 843.688 5.79978 0.160587 0
M  V30 5220 H 843.967 6.51379 -2.75643 0
M  V30 5221 H 844.959 7.01734 -1.34462 0
M  V30 5222 H 843.125 8.73674 -2.38337 0
M  V30 5223 H 843.054 5.04492 -3.4095 0
M  V30 5224 H 844.084 2.83924 -5.1913 0
M  V30 5225 H 842.347 3.29824 -5.15163 0
M  V30 5226 H 842.835 1.59723 -4.84449 0
M  V30 5227 H 843.571 1.35644 -0.399345 0
M  V30 5228 P 844.995 8.91 6.08645e-12 0
M  V30 5229 O 845.215 10.1726 0.733694 0
M  V30 5230 O 845.785 8.73148 -1.23936 0
M  V30 5231 O 845.245 7.66872 0.971405 0
M  V30 5232 C 844.305 7.42309 2.04641 0
M  V30 5233 C 845.035 6.86059 3.24661 0
M  V30 5234 O 845.245 5.42847 3.03646 0
M  V30 5235 C 846.435 7.41196 3.50753 0
M  V30 5236 O 846.825 7.27073 4.86816 0
M  V30 5237 C 847.315 6.5273 2.63741 0
M  V30 5238 C 846.605 5.1842 2.73198 0
M  V30 5239 N 846.655 4.38762 1.4784 0
M  V30 5240 H 843.816 8.36803 2.32493 0
M  V30 5241 H 843.546 6.70197 1.71129 0
M  V30 5242 H 844.413 7.03551 4.13168 0
M  V30 5243 P 848.375 7.20834 5.23717 0
M  V30 5244 O 848.595 7.79853 6.57286 0
M  V30 5245 O 849.165 7.79239 4.12957 0
M  V30 5246 O 848.625 5.63315 5.29344 0
M  V30 5247 C 847.685 4.80255 6.01876 0
M  V30 5248 C 848.415 3.64202 6.65911 0
M  V30 5249 O 848.625 2.60694 5.64732 0
M  V30 5250 C 849.815 3.93473 7.1943 0
M  V30 5251 O 850.205 3.02071 8.21205 0
M  V30 5252 C 850.695 3.73047 5.97036 0
M  V30 5253 C 849.985 2.58828 5.25741 0
M  V30 5254 N 850.035 2.68068 3.77503 0
M  V30 5255 H 847.196 5.40332 6.79951 0
M  V30 5256 H 846.926 4.41613 5.32378 0
M  V30 5257 H 847.793 3.26331 7.47797 0
M  V30 5258 P 851.755 2.75334 8.47391 0
M  V30 5259 O 851.975 2.44571 9.90142 0
M  V30 5260 O 852.545 3.87688 7.92115 0
M  V30 5261 O 852.005 1.4459 7.59357 0
M  V30 5262 C 851.065 0.347608 7.69215 0
M  V30 5263 C 851.795 -0.96767 7.52806 0
M  V30 5264 O 852.005 -1.21036 6.1011 0
M  V30 5265 C 853.195 -1.04544 8.13308 0
M  V30 5266 O 853.585 -2.38311 8.41922 0
M  V30 5267 C 854.075 -0.491279 7.02284 0
M  V30 5268 C 853.365 -0.996264 5.77469 0
M  V30 5269 N 853.415 -0.0501916 4.62973 0
M  V30 5270 H 850.576 0.374722 8.67691 0
M  V30 5271 H 850.306 0.443485 6.90277 0
M  V30 5272 H 851.173 -1.75537 7.96793 0
M  V30 5273 P 855.135 -2.75334 8.47391 0
M  V30 5274 O 855.355 -3.84128 9.44797 0
M  V30 5275 O 855.925 -1.51947 8.68712 0
M  V30 5276 O 855.385 -3.29363 6.99321 0
M  V30 5277 C 854.445 -4.24011 6.4274 0
M  V30 5278 C 855.175 -5.20775 5.52155 0
M  V30 5279 O 855.385 -4.56534 4.22446 0
M  V30 5280 C 856.575 -5.62629 5.96531 0
M  V30 5281 O 856.965 -6.87667 5.41053 0
M  V30 5282 C 857.455 -4.52537 5.39283 0
M  V30 5283 C 856.745 -4.20027 4.08623 0
M  V30 5284 N 856.795 -2.76189 3.71603 0
M  V30 5285 H 853.956 -4.797 7.24003 0
M  V30 5286 H 853.686 -3.69856 5.84513 0
M  V30 5287 H 854.553 -6.10356 5.41441 0
M  V30 5288 P 858.515 -7.20834 5.23717 0
M  V30 5289 O 858.735 -8.66189 5.38625 0
M  V30 5290 O 859.305 -6.33615 6.1356 0
M  V30 5291 O 858.765 -6.7751 3.72168 0
M  V30 5292 C 857.825 -7.20732 2.70725 0
M  V30 5293 C 858.555 -7.45864 1.40599 0
M  V30 5294 O 858.765 -6.17651 0.734225 0
M  V30 5295 C 859.955 -8.05808 1.51899 0
M  V30 5296 O 860.345 -8.74358 0.335205 0
M  V30 5297 C 860.835 -6.83093 1.70294 0
M  V30 5298 C 860.125 -5.79992 0.836974 0
M  V30 5299 N 860.175 -4.41769 1.38263 0
M  V30 5300 C 860.325 -3.38591 0.481702 0
M  V30 5301 O 860.415 -3.56839 -0.718452 0
M  V30 5302 N 860.365 -2.1206 1.03569 0
M  V30 5303 C 860.275 -1.80696 2.36966 0
M  V30 5304 O 860.325 -0.630473 2.74862 0
M  V30 5305 C 860.125 -2.94845 3.23898 0
M  V30 5306 C 860.015 -2.65253 4.70362 0
M  V30 5307 C 860.075 -4.19803 2.73435 0
M  V30 5308 H 857.335 -8.13644 3.0377 0
M  V30 5309 H 857.066 -6.42695 2.55448 0
M  V30 5310 H 857.933 -8.12039 0.792769 0
M  V30 5311 H 860.588 -5.79978 -0.160587 0
M  V30 5312 H 860.867 -6.51379 2.75643 0
M  V30 5313 H 861.859 -7.01734 1.34462 0
M  V30 5314 H 860.025 -8.73674 2.38337 0
M  V30 5315 H 859.954 -5.04492 3.4095 0
M  V30 5316 H 860.984 -2.83924 5.1913 0
M  V30 5317 H 859.247 -3.29824 5.15163 0
M  V30 5318 H 859.735 -1.59723 4.84449 0
M  V30 5319 H 860.471 -1.35644 0.399345 0
M  V30 5320 P 861.895 -8.91 -6.24363e-12 0
M  V30 5321 O 862.115 -10.1726 -0.733694 0
M  V30 5322 O 862.685 -8.73148 1.23936 0
M  V30 5323 O 862.145 -7.66872 -0.971405 0
M  V30 5324 C 861.205 -7.42309 -2.04641 0
M  V30 5325 C 861.935 -6.86059 -3.24661 0
M  V30 5326 O 862.145 -5.42847 -3.03646 0
M  V30 5327 C 863.335 -7.41196 -3.50753 0
M  V30 5328 O 863.725 -7.27073 -4.86816 0
M  V30 5329 C 864.215 -6.5273 -2.63741 0
M  V30 5330 C 863.505 -5.1842 -2.73198 0
M  V30 5331 N 863.555 -4.38762 -1.4784 0
M  V30 5332 H 860.716 -8.36803 -2.32493 0
M  V30 5333 H 860.446 -6.70197 -1.71129 0
M  V30 5334 H 861.313 -7.03551 -4.13168 0
M  V30 5335 P 865.275 -7.20834 -5.23717 0
M  V30 5336 O 865.495 -7.79853 -6.57286 0
M  V30 5337 O 866.065 -7.79239 -4.12957 0
M  V30 5338 O 865.525 -5.63315 -5.29344 0
M  V30 5339 C 864.585 -4.80255 -6.01876 0
M  V30 5340 C 865.315 -3.64202 -6.65911 0
M  V30 5341 O 865.525 -2.60694 -5.64732 0
M  V30 5342 C 866.715 -3.93473 -7.1943 0
M  V30 5343 O 867.105 -3.02071 -8.21205 0
M  V30 5344 C 867.595 -3.73047 -5.97036 0
M  V30 5345 C 866.885 -2.58828 -5.25741 0
M  V30 5346 N 866.935 -2.68068 -3.77503 0
M  V30 5347 C 866.855 -3.79715 -2.96723 0
M  V30 5348 N 866.935 -3.5377 -1.68852 0
M  V30 5349 C 867.075 -2.15054 -1.63254 0
M  V30 5350 C 867.205 -1.28964 -0.518571 0
M  V30 5351 O 867.225 -1.56826 0.679156 0
M  V30 5352 N 867.325 0.0538097 -0.918425 0
M  V30 5353 C 867.325 0.494275 -2.22578 0
M  V30 5354 N 867.455 1.81086 -2.40434 0
M  V30 5355 N 867.195 -0.313645 -3.27502 0
M  V30 5356 C 867.075 -1.61829 -2.91033 0
M  V30 5357 H 864.096 -5.40332 -6.79951 0
M  V30 5358 H 863.826 -4.41613 -5.32378 0
M  V30 5359 H 864.693 -3.26331 -7.47797 0
M  V30 5360 H 867.348 -1.63422 -5.56814 0
M  V30 5361 H 867.627 -4.63374 -5.34244 0
M  V30 5362 H 868.619 -3.44728 -6.25838 0
M  V30 5363 H 866.785 -4.96652 -7.57263 0
M  V30 5364 H 866.736 -4.80617 -3.3614 0
M  V30 5365 H 867.418 0.742702 -0.199384 0
M  V30 5366 H 867.455 2.20598 -3.35588 0
M  V30 5367 H 867.556 2.43518 -1.58945 0
M  V30 5368 P 868.655 -2.75334 -8.47391 0
M  V30 5369 O 868.875 -2.44571 -9.90142 0
M  V30 5370 O 869.445 -3.87688 -7.92115 0
M  V30 5371 O 868.905 -1.4459 -7.59357 0
M  V30 5372 C 867.965 -0.347608 -7.69215 0
M  V30 5373 C 868.695 0.96767 -7.52806 0
M  V30 5374 O 868.905 1.21036 -6.1011 0
M  V30 5375 C 870.095 1.04544 -8.13308 0
M  V30 5376 O 870.485 2.38311 -8.41922 0
M  V30 5377 C 870.975 0.491279 -7.02284 0
M  V30 5378 C 870.265 0.996264 -5.77469 0
M  V30 5379 N 870.315 0.0501916 -4.62973 0
M  V30 5380 H 867.476 -0.374722 -8.67691 0
M  V30 5381 H 867.206 -0.443485 -6.90277 0
M  V30 5382 H 868.073 1.75537 -7.96793 0
M  V30 5383 P 872.035 2.75334 -8.47391 0
M  V30 5384 O 872.255 3.84204 -9.44982 0
M  V30 5385 O 872.825 1.51982 -8.68909 0
M  V30 5386 O 872.285 3.29363 -6.99321 0
M  V30 5387 C 871.345 4.24066 -6.42823 0
M  V30 5388 C 872.075 5.20775 -5.52155 0
M  V30 5389 O 872.285 4.56607 -4.22514 0
M  V30 5390 C 873.475 5.62697 -5.96604 0
M  V30 5391 O 873.865 6.87667 -5.41053 0
M  V30 5392 C 874.355 4.52537 -5.39283 0
M  V30 5393 C 873.645 4.20027 -4.08623 0
M  V30 5394 N 873.695 2.76189 -3.71603 0
M  V30 5395 C 873.615 1.66944 -4.54297 0
M  V30 5396 N 873.685 0.536169 -3.91344 0
M  V30 5397 C 873.835 0.901569 -2.58849 0
M  V30 5398 C 873.965 0.146599 -1.40236 0
M  V30 5399 N 873.975 -1.18234 -1.37046 0
M  V30 5400 N 874.085 0.822941 -0.249738 0
M  V30 5401 C 874.075 2.15179 -0.280525 0
M  V30 5402 N 873.955 2.96414 -1.30822 0
M  V30 5403 C 873.835 2.25804 -2.44748 0
M  V30 5404 H 870.857 4.79756 -7.24086 0
M  V30 5405 H 870.585 3.69963 -5.84682 0
M  V30 5406 H 871.453 6.10431 -5.41508 0
M  V30 5407 H 874.108 4.78816 -3.28024 0
M  V30 5408 H 874.388 3.64957 -6.05871 0
M  V30 5409 H 875.379 4.88748 -5.21323 0
M  V30 5410 H 873.545 5.66789 -7.0643 0
M  V30 5411 H 873.504 1.74684 -5.62396 0
M  V30 5412 H 873.885 -1.71949 -2.24394 0
M  V30 5413 H 874.074 -1.67511 -0.470742 0
M  V30 5414 H 874.182 2.63704 0.6828 0
M  V30 5415 P 875.415 7.20834 -5.23717 0
M  V30 5416 O 875.635 8.66104 -5.38572 0
M  V30 5417 O 876.205 6.33544 -6.1349 0
M  V30 5418 O 875.665 6.7751 -3.72168 0
M  V30 5419 C 874.725 7.20825 -2.7076 0
M  V30 5420 C 875.455 7.45864 -1.40599 0
M  V30 5421 O 875.665 6.17651 -0.734225 0
M  V30 5422 C 876.855 8.05808 -1.51899 0
M  V30 5423 O 877.245 8.74358 -0.335205 0
M  V30 5424 C 877.735 6.83093 -1.70294 0
M  V30 5425 C 877.025 5.79992 -0.836974 0
M  V30 5426 N 877.075 4.41864 -1.38293 0
M  V30 5427 H 874.236 8.13644 -3.0377 0
M  V30 5428 H 873.966 6.42788 -2.55485 0
M  V30 5429 H 874.833 8.12039 -0.792769 0
M  V30 5430 P 878.795 8.91 6.40081e-12 0
M  V30 5431 O 879.015 10.1726 0.733694 0
M  V30 5432 O 879.585 8.73148 -1.23936 0
M  V30 5433 O 879.045 7.66872 0.971405 0
M  V30 5434 C 878.105 7.42309 2.04641 0
M  V30 5435 C 878.835 6.86059 3.24661 0
M  V30 5436 O 879.045 5.42847 3.03646 0
M  V30 5437 C 880.235 7.41196 3.50753 0
M  V30 5438 O 880.625 7.27073 4.86816 0
M  V30 5439 C 881.115 6.5273 2.63741 0
M  V30 5440 C 880.405 5.1842 2.73198 0
M  V30 5441 N 880.455 4.38762 1.4784 0
M  V30 5442 H 877.616 8.36803 2.32493 0
M  V30 5443 H 877.346 6.70197 1.71129 0
M  V30 5444 H 878.213 7.03551 4.13168 0
M  V30 5445 P 882.175 7.20834 5.23717 0
M  V30 5446 O 882.395 7.80006 6.57415 0
M  V30 5447 O 882.965 7.79416 4.13051 0
M  V30 5448 O 882.425 5.63315 5.29344 0
M  V30 5449 C 881.485 4.80318 6.01954 0
M  V30 5450 C 882.215 3.64202 6.65911 0
M  V30 5451 O 882.425 2.60736 5.64823 0
M  V30 5452 C 883.615 3.93521 7.19518 0
M  V30 5453 O 884.005 3.02071 8.21205 0
M  V30 5454 C 884.495 3.73047 5.97036 0
M  V30 5455 C 883.785 2.58828 5.25741 0
M  V30 5456 N 883.835 2.68068 3.77503 0
M  V30 5457 C 883.755 3.80474 2.99159 0
M  V30 5458 N 883.825 3.55622 1.71925 0
M  V30 5459 C 883.975 2.1832 1.65733 0
M  V30 5460 C 884.105 1.28842 0.572777 0
M  V30 5461 N 884.115 1.66875 -0.70098 0
M  V30 5462 N 884.225 -0.016788 0.859836 0
M  V30 5463 C 884.215 -0.398145 2.13316 0
M  V30 5464 N 884.095 0.328224 3.22333 0
M  V30 5465 C 883.975 1.62992 2.90383 0
M  V30 5466 H 880.997 5.40394 6.8003 0
M  V30 5467 H 880.725 4.41741 5.32532 0
M  V30 5468 H 881.593 3.26371 7.47889 0
M  V30 5469 H 884.248 1.64007 5.56746 0
M  V30 5470 H 884.528 4.63439 5.3432 0
M  V30 5471 H 885.519 3.44776 6.25925 0
M  V30 5472 H 883.685 4.96707 7.57347 0
M  V30 5473 H 883.644 4.8089 3.39924 0
M  V30 5474 H 884.025 2.66547 -0.941919 0
M  V30 5475 H 884.214 0.965341 -1.44766 0
M  V30 5476 H 884.322 -1.46427 2.29697 0
M  V30 5477 P 885.555 2.75334 8.47391 0
M  V30 5478 O 885.775 2.44619 9.90336 0
M  V30 5479 O 886.345 3.87776 7.92294 0
M  V30 5480 O 885.805 1.4459 7.59357 0
M  V30 5481 C 884.865 0.347653 7.69315 0
M  V30 5482 C 885.595 -0.96767 7.52806 0
M  V30 5483 O 885.805 -1.21055 6.10208 0
M  V30 5484 C 886.995 -1.04557 8.13408 0
M  V30 5485 O 887.385 -2.38311 8.41922 0
M  V30 5486 C 887.875 -0.491279 7.02284 0
M  V30 5487 C 887.165 -0.996264 5.77469 0
M  V30 5488 N 887.215 -0.0501916 4.62973 0
M  V30 5489 H 884.377 0.374765 8.67791 0
M  V30 5490 H 884.105 0.443613 6.90476 0
M  V30 5491 H 884.973 -1.75559 7.96891 0
M  V30 5492 H 887.628 -1.94563 5.46818 0
M  V30 5493 H 887.908 0.608651 7.04676 0
M  V30 5494 H 888.899 -0.889796 7.09039 0
M  V30 5495 H 887.065 -0.433128 9.04664 0
M  V30 5496 P 888.935 -2.75334 8.47391 0
M  V30 5497 O 889.155 -3.84128 9.44797 0
M  V30 5498 O 889.725 -1.51947 8.68712 0
M  V30 5499 O 889.185 -3.29363 6.99321 0
M  V30 5500 C 888.245 -4.24011 6.4274 0
M  V30 5501 C 888.975 -5.20775 5.52155 0
M  V30 5502 O 889.185 -4.56534 4.22446 0
M  V30 5503 C 890.375 -5.62629 5.96531 0
M  V30 5504 O 890.765 -6.87667 5.41053 0
M  V30 5505 C 891.255 -4.52537 5.39283 0
M  V30 5506 C 890.545 -4.20027 4.08623 0
M  V30 5507 N 890.595 -2.76189 3.71603 0
M  V30 5508 H 887.756 -4.797 7.24003 0
M  V30 5509 H 887.486 -3.69856 5.84513 0
M  V30 5510 H 888.353 -6.10356 5.41441 0
M  V30 5511 P 892.315 -7.20834 5.23717 0
M  V30 5512 O 892.535 -8.66104 5.38572 0
M  V30 5513 O 893.105 -6.33544 6.1349 0
M  V30 5514 O 892.565 -6.7751 3.72168 0
M  V30 5515 C 891.625 -7.20825 2.7076 0
M  V30 5516 C 892.355 -7.45864 1.40599 0
M  V30 5517 O 892.565 -6.17651 0.734225 0
M  V30 5518 C 893.755 -8.05808 1.51899 0
M  V30 5519 O 894.145 -8.74358 0.335205 0
M  V30 5520 C 894.635 -6.83093 1.70294 0
M  V30 5521 C 893.925 -5.79992 0.836974 0
M  V30 5522 N 893.975 -4.41864 1.38293 0
M  V30 5523 H 891.136 -8.13644 3.0377 0
M  V30 5524 H 890.866 -6.42788 2.55485 0
M  V30 5525 H 891.733 -8.12039 0.792769 0
M  V30 5526 P 895.695 -8.91 -6.558e-12 0
M  V30 5527 O 895.915 -10.1726 -0.733694 0
M  V30 5528 O 896.485 -8.73148 1.23936 0
M  V30 5529 O 895.945 -7.66872 -0.971405 0
M  V30 5530 C 895.005 -7.42309 -2.04641 0
M  V30 5531 C 895.735 -6.86059 -3.24661 0
M  V30 5532 O 895.945 -5.42847 -3.03646 0
M  V30 5533 C 897.135 -7.41196 -3.50753 0
M  V30 5534 O 897.525 -7.27073 -4.86816 0
M  V30 5535 C 898.015 -6.5273 -2.63741 0
M  V30 5536 C 897.305 -5.1842 -2.73198 0
M  V30 5537 N 897.355 -4.38762 -1.4784 0
M  V30 5538 H 894.516 -8.36803 -2.32493 0
M  V30 5539 H 894.246 -6.70197 -1.71129 0
M  V30 5540 H 895.113 -7.03551 -4.13168 0
M  V30 5541 P 899.075 -7.20834 -5.23717 0
M  V30 5542 O 899.295 -7.79853 -6.57286 0
M  V30 5543 O 899.865 -7.79239 -4.12957 0
M  V30 5544 O 899.325 -5.63315 -5.29344 0
M  V30 5545 C 898.385 -4.80255 -6.01876 0
M  V30 5546 C 899.115 -3.64202 -6.65911 0
M  V30 5547 O 899.325 -2.60694 -5.64732 0
M  V30 5548 C 900.515 -3.93473 -7.1943 0
M  V30 5549 O 900.905 -3.02071 -8.21205 0
M  V30 5550 C 901.395 -3.73047 -5.97036 0
M  V30 5551 C 900.685 -2.58828 -5.25741 0
M  V30 5552 N 900.735 -2.68068 -3.77503 0
M  V30 5553 C 900.655 -3.79715 -2.96723 0
M  V30 5554 N 900.735 -3.5377 -1.68852 0
M  V30 5555 C 900.875 -2.15054 -1.63254 0
M  V30 5556 C 901.005 -1.28964 -0.518571 0
M  V30 5557 N 901.125 0.0538097 -0.918425 0
M  V30 5558 C 901.125 0.494275 -2.22578 0
M  V30 5559 N 901.255 1.81086 -2.40434 0
M  V30 5560 N 900.995 -0.313645 -3.27502 0
M  V30 5561 C 900.875 -1.61829 -2.91033 0
M  V30 5562 H 897.896 -5.40332 -6.79951 0
M  V30 5563 H 897.626 -4.41613 -5.32378 0
M  V30 5564 H 898.493 -3.26331 -7.47797 0
M  V30 5565 P 902.455 -2.75334 -8.47391 0
M  V30 5566 O 902.675 -2.44571 -9.90142 0
M  V30 5567 O 903.245 -3.87688 -7.92115 0
M  V30 5568 O 902.705 -1.4459 -7.59357 0
M  V30 5569 C 901.765 -0.347608 -7.69215 0
M  V30 5570 C 902.495 0.96767 -7.52806 0
M  V30 5571 O 902.705 1.21036 -6.1011 0
M  V30 5572 C 903.895 1.04544 -8.13308 0
M  V30 5573 O 904.285 2.38311 -8.41922 0
M  V30 5574 C 904.775 0.491279 -7.02284 0
M  V30 5575 C 904.065 0.996264 -5.77469 0
M  V30 5576 N 904.115 0.0501916 -4.62973 0
M  V30 5577 H 901.276 -0.374722 -8.67691 0
M  V30 5578 H 901.006 -0.443485 -6.90277 0
M  V30 5579 H 901.873 1.75537 -7.96793 0
M  V30 5580 P 905.835 2.75334 -8.47391 0
M  V30 5581 O 906.055 3.84128 -9.44797 0
M  V30 5582 O 906.625 1.51947 -8.68712 0
M  V30 5583 O 906.085 3.29363 -6.99321 0
M  V30 5584 C 905.145 4.24011 -6.4274 0
M  V30 5585 C 905.875 5.20775 -5.52155 0
M  V30 5586 O 906.085 4.56534 -4.22446 0
M  V30 5587 C 907.275 5.62629 -5.96531 0
M  V30 5588 O 907.665 6.87667 -5.41053 0
M  V30 5589 C 908.155 4.52537 -5.39283 0
M  V30 5590 C 907.445 4.20027 -4.08623 0
M  V30 5591 N 907.495 2.76189 -3.71603 0
M  V30 5592 H 904.656 4.797 -7.24003 0
M  V30 5593 H 904.386 3.69856 -5.84513 0
M  V30 5594 H 905.253 6.10356 -5.41441 0
M  V30 5595 P 909.215 7.20834 -5.23717 0
M  V30 5596 O 909.435 8.66104 -5.38572 0
M  V30 5597 O 910.005 6.33544 -6.1349 0
M  V30 5598 O 909.465 6.7751 -3.72168 0
M  V30 5599 C 908.525 7.20825 -2.7076 0
M  V30 5600 C 909.255 7.45864 -1.40599 0
M  V30 5601 O 909.465 6.17651 -0.734225 0
M  V30 5602 C 910.655 8.05808 -1.51899 0
M  V30 5603 O 911.045 8.74358 -0.335205 0
M  V30 5604 C 911.535 6.83093 -1.70294 0
M  V30 5605 C 910.825 5.79992 -0.836974 0
M  V30 5606 N 910.875 4.41864 -1.38293 0
M  V30 5607 H 908.036 8.13644 -3.0377 0
M  V30 5608 H 907.766 6.42788 -2.55485 0
M  V30 5609 H 908.633 8.12039 -0.792769 0
M  V30 5610 P 912.595 8.91 6.71518e-12 0
M  V30 5611 O 912.815 10.1726 0.733694 0
M  V30 5612 O 913.385 8.73148 -1.23936 0
M  V30 5613 O 912.845 7.66872 0.971405 0
M  V30 5614 C 911.905 7.42309 2.04641 0
M  V30 5615 C 912.635 6.86059 3.24661 0
M  V30 5616 O 912.845 5.42847 3.03646 0
M  V30 5617 C 914.035 7.41196 3.50753 0
M  V30 5618 O 914.425 7.27073 4.86816 0
M  V30 5619 C 914.915 6.5273 2.63741 0
M  V30 5620 C 914.205 5.1842 2.73198 0
M  V30 5621 N 914.255 4.38762 1.4784 0
M  V30 5622 C 914.175 4.81605 0.168631 0
M  V30 5623 N 914.255 3.85454 -0.713363 0
M  V30 5624 C 914.395 2.6994 0.0566958 0
M  V30 5625 C 914.525 1.34815 -0.338502 0
M  V30 5626 N 914.645 0.496304 0.77465 0
M  V30 5627 C 914.645 0.908403 2.09122 0
M  V30 5628 N 914.775 -0.0517805 3.00955 0
M  V30 5629 N 914.515 2.17875 2.46519 0
M  V30 5630 C 914.395 3.01988 1.4033 0
M  V30 5631 H 911.416 8.36803 2.32493 0
M  V30 5632 H 911.146 6.70197 1.71129 0
M  V30 5633 H 912.013 7.03551 4.13168 0
M  V30 5634 P 915.975 7.20834 5.23717 0
M  V30 5635 O 916.195 7.79853 6.57286 0
M  V30 5636 O 916.765 7.79239 4.12957 0
M  V30 5637 O 916.225 5.63315 5.29344 0
M  V30 5638 C 915.285 4.80255 6.01876 0
M  V30 5639 C 916.015 3.64202 6.65911 0
M  V30 5640 O 916.225 2.60694 5.64732 0
M  V30 5641 C 917.415 3.93473 7.1943 0
M  V30 5642 O 917.805 3.02071 8.21205 0
M  V30 5643 C 918.295 3.73047 5.97036 0
M  V30 5644 C 917.585 2.58828 5.25741 0
M  V30 5645 N 917.635 2.68068 3.77503 0
M  V30 5646 H 914.796 5.40332 6.79951 0
M  V30 5647 H 914.526 4.41613 5.32378 0
M  V30 5648 H 915.393 3.26331 7.47797 0
M  V30 5649 P 919.355 2.75334 8.47391 0
M  V30 5650 O 919.575 2.44571 9.90142 0
M  V30 5651 O 920.145 3.87688 7.92115 0
M  V30 5652 O 919.605 1.4459 7.59357 0
M  V30 5653 C 918.665 0.347608 7.69215 0
M  V30 5654 C 919.395 -0.96767 7.52806 0
M  V30 5655 O 919.605 -1.21036 6.1011 0
M  V30 5656 C 920.795 -1.04544 8.13308 0
M  V30 5657 O 921.185 -2.38311 8.41922 0
M  V30 5658 C 921.675 -0.491279 7.02284 0
M  V30 5659 C 920.965 -0.996264 5.77469 0
M  V30 5660 N 921.015 -0.0501916 4.62973 0
M  V30 5661 H 918.176 0.374722 8.67691 0
M  V30 5662 H 917.906 0.443485 6.90277 0
M  V30 5663 H 918.773 -1.75537 7.96793 0
M  V30 5664 P 922.735 -2.75334 8.47391 0
M  V30 5665 O 922.955 -3.84128 9.44797 0
M  V30 5666 O 923.525 -1.51947 8.68712 0
M  V30 5667 O 922.985 -3.29363 6.99321 0
M  V30 5668 C 922.045 -4.24011 6.4274 0
M  V30 5669 C 922.775 -5.20775 5.52155 0
M  V30 5670 O 922.985 -4.56534 4.22446 0
M  V30 5671 C 924.175 -5.62629 5.96531 0
M  V30 5672 O 924.565 -6.87667 5.41053 0
M  V30 5673 C 925.055 -4.52537 5.39283 0
M  V30 5674 C 924.345 -4.20027 4.08623 0
M  V30 5675 N 924.395 -2.76189 3.71603 0
M  V30 5676 H 921.556 -4.797 7.24003 0
M  V30 5677 H 921.286 -3.69856 5.84513 0
M  V30 5678 H 922.153 -6.10356 5.41441 0
M  V30 5679 P 926.115 -7.20834 5.23717 0
M  V30 5680 O 926.335 -8.66104 5.38572 0
M  V30 5681 O 926.905 -6.33544 6.1349 0
M  V30 5682 O 926.365 -6.7751 3.72168 0
M  V30 5683 C 925.425 -7.20825 2.7076 0
M  V30 5684 C 926.155 -7.45864 1.40599 0
M  V30 5685 O 926.365 -6.17651 0.734225 0
M  V30 5686 C 927.555 -8.05808 1.51899 0
M  V30 5687 O 927.945 -8.74358 0.335205 0
M  V30 5688 C 928.435 -6.83093 1.70294 0
M  V30 5689 C 927.725 -5.79992 0.836974 0
M  V30 5690 N 927.775 -4.41864 1.38293 0
M  V30 5691 H 924.936 -8.13644 3.0377 0
M  V30 5692 H 924.666 -6.42788 2.55485 0
M  V30 5693 H 925.533 -8.12039 0.792769 0
M  V30 5694 P 929.495 -8.91 -6.87236e-12 0
M  V30 5695 O 929.715 -10.1726 -0.733694 0
M  V30 5696 O 930.285 -8.73148 1.23936 0
M  V30 5697 O 929.745 -7.66872 -0.971405 0
M  V30 5698 C 928.805 -7.42309 -2.04641 0
M  V30 5699 C 929.535 -6.86059 -3.24661 0
M  V30 5700 O 929.745 -5.42847 -3.03646 0
M  V30 5701 C 930.935 -7.41196 -3.50753 0
M  V30 5702 O 931.325 -7.27073 -4.86816 0
M  V30 5703 C 931.815 -6.5273 -2.63741 0
M  V30 5704 C 931.105 -5.1842 -2.73198 0
M  V30 5705 N 931.155 -4.38762 -1.4784 0
M  V30 5706 H 928.316 -8.36803 -2.32493 0
M  V30 5707 H 928.046 -6.70197 -1.71129 0
M  V30 5708 H 928.913 -7.03551 -4.13168 0
M  V30 5709 P 932.874 -7.20834 -5.23717 0
M  V30 5710 O 933.094 -7.79853 -6.57286 0
M  V30 5711 O 933.664 -7.79239 -4.12957 0
M  V30 5712 O 933.124 -5.63315 -5.29344 0
M  V30 5713 C 932.184 -4.80255 -6.01876 0
M  V30 5714 C 932.914 -3.64202 -6.65911 0
M  V30 5715 O 933.124 -2.60694 -5.64732 0
M  V30 5716 C 934.314 -3.93473 -7.1943 0
M  V30 5717 O 934.704 -3.02071 -8.21205 0
M  V30 5718 C 935.194 -3.73047 -5.97036 0
M  V30 5719 C 934.484 -2.58828 -5.25741 0
M  V30 5720 N 934.534 -2.68068 -3.77503 0
M  V30 5721 C 934.454 -3.79715 -2.96723 0
M  V30 5722 N 934.534 -3.5377 -1.68852 0
M  V30 5723 C 934.674 -2.15054 -1.63254 0
M  V30 5724 C 934.804 -1.28964 -0.518571 0
M  V30 5725 O 934.824 -1.56826 0.679156 0
M  V30 5726 N 934.924 0.0538097 -0.918425 0
M  V30 5727 C 934.924 0.494275 -2.22578 0
M  V30 5728 N 935.054 1.81086 -2.40434 0
M  V30 5729 N 934.794 -0.313645 -3.27502 0
M  V30 5730 C 934.674 -1.61829 -2.91033 0
M  V30 5731 H 931.695 -5.40332 -6.79951 0
M  V30 5732 H 931.425 -4.41613 -5.32378 0
M  V30 5733 H 932.292 -3.26331 -7.47797 0
M  V30 5734 H 934.947 -1.63422 -5.56814 0
M  V30 5735 H 935.226 -4.63374 -5.34244 0
M  V30 5736 H 936.218 -3.44728 -6.25838 0
M  V30 5737 H 934.384 -4.96652 -7.57263 0
M  V30 5738 H 934.335 -4.80617 -3.3614 0
M  V30 5739 H 935.017 0.742702 -0.199384 0
M  V30 5740 H 935.054 2.20598 -3.35588 0
M  V30 5741 H 935.155 2.43518 -1.58945 0
M  V30 5742 P 936.254 -2.75334 -8.47391 0
M  V30 5743 O 936.474 -2.44571 -9.90142 0
M  V30 5744 O 937.044 -3.87688 -7.92115 0
M  V30 5745 O 936.504 -1.4459 -7.59357 0
M  V30 5746 C 935.564 -0.347608 -7.69215 0
M  V30 5747 C 936.294 0.96767 -7.52806 0
M  V30 5748 O 936.504 1.21036 -6.1011 0
M  V30 5749 C 937.694 1.04544 -8.13308 0
M  V30 5750 O 938.084 2.38311 -8.41922 0
M  V30 5751 C 938.574 0.491279 -7.02284 0
M  V30 5752 C 937.864 0.996264 -5.77469 0
M  V30 5753 N 937.914 0.0501916 -4.62973 0
M  V30 5754 H 935.075 -0.374722 -8.67691 0
M  V30 5755 H 934.805 -0.443485 -6.90277 0
M  V30 5756 H 935.672 1.75537 -7.96793 0
M  V30 5757 P 939.634 2.75334 -8.47391 0
M  V30 5758 O 939.854 3.84128 -9.44797 0
M  V30 5759 O 940.424 1.51947 -8.68712 0
M  V30 5760 O 939.884 3.29363 -6.99321 0
M  V30 5761 C 938.944 4.24011 -6.4274 0
M  V30 5762 C 939.674 5.20775 -5.52155 0
M  V30 5763 O 939.884 4.56534 -4.22446 0
M  V30 5764 C 941.074 5.62629 -5.96531 0
M  V30 5765 O 941.464 6.87667 -5.41053 0
M  V30 5766 C 941.954 4.52537 -5.39283 0
M  V30 5767 C 941.244 4.20027 -4.08623 0
M  V30 5768 N 941.294 2.76189 -3.71603 0
M  V30 5769 C 941.214 1.64862 -4.52822 0
M  V30 5770 N 941.294 0.512671 -3.88633 0
M  V30 5771 C 941.434 0.888083 -2.54977 0
M  V30 5772 C 941.564 0.094668 -1.38677 0
M  V30 5773 O 941.584 -1.13053 -1.28163 0
M  V30 5774 N 941.684 0.890102 -0.232633 0
M  V30 5775 C 941.684 2.26958 -0.21772 0
M  V30 5776 N 941.814 2.84626 0.97925 0
M  V30 5777 N 941.554 3.0178 -1.31033 0
M  V30 5778 C 941.434 2.26781 -2.43843 0
M  V30 5779 H 938.455 4.797 -7.24003 0
M  V30 5780 H 938.185 3.69856 -5.84513 0
M  V30 5781 H 939.052 6.10356 -5.41441 0
M  V30 5782 H 941.707 4.79061 -3.27488 0
M  V30 5783 H 941.986 3.64906 -6.05785 0
M  V30 5784 H 942.978 4.8868 -5.2125 0
M  V30 5785 H 941.144 5.66726 -7.06352 0
M  V30 5786 H 941.095 1.71169 -5.60966 0
M  V30 5787 H 941.777 0.419134 0.644739 0
M  V30 5788 H 941.814 3.87332 1.06098 0
M  V30 5789 H 941.915 2.26417 1.82483 0
M  V30 5790 P 943.014 7.20834 -5.23717 0
M  V30 5791 O 943.234 8.66189 -5.38625 0
M  V30 5792 O 943.804 6.33615 -6.1356 0
M  V30 5793 O 943.264 6.7751 -3.72168 0
M  V30 5794 C 942.324 7.20825 -2.7076 0
M  V30 5795 C 943.054 7.45864 -1.40599 0
M  V30 5796 O 943.264 6.17651 -0.734225 0
M  V30 5797 C 944.454 8.05808 -1.51899 0
M  V30 5798 O 944.844 8.74358 -0.335205 0
M  V30 5799 C 945.334 6.83093 -1.70294 0
M  V30 5800 C 944.624 5.79992 -0.836974 0
M  V30 5801 N 944.674 4.41769 -1.38263 0
M  V30 5802 C 944.824 3.36514 -0.485617 0
M  V30 5803 O 944.914 3.61814 0.724703 0
M  V30 5804 N 944.874 2.00746 -1.14492 0
M  V30 5805 C 944.774 1.85887 -2.27776 0
M  V30 5806 N 944.824 0.600907 -2.69379 0
M  V30 5807 C 944.624 2.92182 -3.22265 0
M  V30 5808 C 944.574 4.18399 -2.71925 0
M  V30 5809 H 941.834 8.1355 -3.03735 0
M  V30 5810 H 941.565 6.42695 -2.55448 0
M  V30 5811 H 942.432 8.12139 -0.792866 0
M  V30 5812 H 945.087 5.80078 0.160615 0
M  V30 5813 H 945.366 6.51379 -2.75643 0
M  V30 5814 H 946.358 7.01734 -1.34462 0
M  V30 5815 H 944.524 8.73674 -2.38337 0
M  V30 5816 H 944.452 5.02669 -3.39718 0
M  V30 5817 H 944.554 2.73001 -4.29239 0
M  V30 5818 H 944.942 -0.162318 -2.01146 0
M  V30 5819 H 944.745 0.387742 -3.69773 0
M  V30 5820 P 946.394 8.91 7.02954e-12 0
M  V30 5821 O 946.614 10.1726 0.733694 0
M  V30 5822 O 947.184 8.73148 -1.23936 0
M  V30 5823 O 946.644 7.66872 0.971405 0
M  V30 5824 C 945.704 7.42309 2.04641 0
M  V30 5825 C 946.434 6.86059 3.24661 0
M  V30 5826 O 946.644 5.42847 3.03646 0
M  V30 5827 C 947.834 7.41196 3.50753 0
M  V30 5828 O 948.224 7.27073 4.86816 0
M  V30 5829 C 948.714 6.5273 2.63741 0
M  V30 5830 C 948.004 5.1842 2.73198 0
M  V30 5831 N 948.054 4.38762 1.4784 0
M  V30 5832 H 945.215 8.36803 2.32493 0
M  V30 5833 H 944.945 6.70197 1.71129 0
M  V30 5834 H 945.812 7.03551 4.13168 0
M  V30 5835 P 949.774 7.20834 5.23717 0
M  V30 5836 O 949.994 7.79853 6.57286 0
M  V30 5837 O 950.564 7.79239 4.12957 0
M  V30 5838 O 950.024 5.63315 5.29344 0
M  V30 5839 C 949.084 4.80255 6.01876 0
M  V30 5840 C 949.814 3.64202 6.65911 0
M  V30 5841 O 950.024 2.60694 5.64732 0
M  V30 5842 C 951.214 3.93473 7.1943 0
M  V30 5843 O 951.604 3.02071 8.21205 0
M  V30 5844 C 952.094 3.73047 5.97036 0
M  V30 5845 C 951.384 2.58828 5.25741 0
M  V30 5846 N 951.434 2.68068 3.77503 0
M  V30 5847 C 951.354 3.79715 2.96723 0
M  V30 5848 N 951.434 3.5377 1.68852 0
M  V30 5849 C 951.574 2.15054 1.63254 0
M  V30 5850 C 951.704 1.28964 0.518571 0
M  V30 5851 O 951.724 1.56826 -0.679156 0
M  V30 5852 N 951.824 -0.0538097 0.918425 0
M  V30 5853 C 951.824 -0.494275 2.22578 0
M  V30 5854 N 951.954 -1.81086 2.40434 0
M  V30 5855 N 951.694 0.313645 3.27502 0
M  V30 5856 C 951.574 1.61829 2.91033 0
M  V30 5857 H 948.595 5.40332 6.79951 0
M  V30 5858 H 948.325 4.41613 5.32378 0
M  V30 5859 H 949.192 3.26331 7.47797 0
M  V30 5860 H 951.847 1.63422 5.56814 0
M  V30 5861 H 952.126 4.63374 5.34244 0
M  V30 5862 H 953.118 3.44728 6.25838 0
M  V30 5863 H 951.284 4.96652 7.57263 0
M  V30 5864 H 951.235 4.80617 3.3614 0
M  V30 5865 H 951.917 -0.742702 0.199384 0
M  V30 5866 H 951.954 -2.20598 3.35588 0
M  V30 5867 H 952.055 -2.43518 1.58945 0
M  V30 5868 P 953.154 2.75334 8.47391 0
M  V30 5869 O 953.374 2.44571 9.90142 0
M  V30 5870 O 953.944 3.87688 7.92115 0
M  V30 5871 O 953.404 1.4459 7.59357 0
M  V30 5872 C 952.464 0.347608 7.69215 0
M  V30 5873 C 953.194 -0.96767 7.52806 0
M  V30 5874 O 953.404 -1.21036 6.1011 0
M  V30 5875 C 954.594 -1.04544 8.13308 0
M  V30 5876 O 954.984 -2.38311 8.41922 0
M  V30 5877 C 955.474 -0.491279 7.02284 0
M  V30 5878 C 954.764 -0.996264 5.77469 0
M  V30 5879 N 954.814 -0.0501916 4.62973 0
M  V30 5880 H 951.975 0.374722 8.67691 0
M  V30 5881 H 951.705 0.443485 6.90277 0
M  V30 5882 H 952.572 -1.75537 7.96793 0
M  V30 5883 P 956.534 -2.75334 8.47391 0
M  V30 5884 O 956.754 -3.84128 9.44797 0
M  V30 5885 O 957.324 -1.51947 8.68712 0
M  V30 5886 O 956.784 -3.29363 6.99321 0
M  V30 5887 C 955.844 -4.24011 6.4274 0
M  V30 5888 C 956.574 -5.20775 5.52155 0
M  V30 5889 O 956.784 -4.56534 4.22446 0
M  V30 5890 C 957.974 -5.62629 5.96531 0
M  V30 5891 O 958.364 -6.87667 5.41053 0
M  V30 5892 C 958.854 -4.52537 5.39283 0
M  V30 5893 C 958.144 -4.20027 4.08623 0
M  V30 5894 N 958.194 -2.76189 3.71603 0
M  V30 5895 H 955.355 -4.797 7.24003 0
M  V30 5896 H 955.085 -3.69856 5.84513 0
M  V30 5897 H 955.952 -6.10356 5.41441 0
M  V30 5898 P 959.914 -7.20834 5.23717 0
M  V30 5899 O 960.134 -8.66274 5.38678 0
M  V30 5900 O 960.704 -6.33687 6.13629 0
M  V30 5901 O 960.164 -6.7751 3.72168 0
M  V30 5902 C 959.224 -7.20919 2.70795 0
M  V30 5903 C 959.954 -7.45864 1.40599 0
M  V30 5904 O 960.164 -6.17751 0.734343 0
M  V30 5905 C 961.354 -8.05906 1.51917 0
M  V30 5906 O 961.744 -8.74358 0.335205 0
M  V30 5907 C 962.234 -6.83093 1.70294 0
M  V30 5908 C 961.524 -5.79992 0.836974 0
M  V30 5909 N 961.574 -4.41864 1.38293 0
M  V30 5910 H 958.736 -8.13738 3.03804 0
M  V30 5911 H 958.464 -6.42974 2.55559 0
M  V30 5912 H 959.332 -8.12139 0.792866 0
M  V30 5913 H 961.987 -5.80178 -0.160643 0
M  V30 5914 H 962.267 -6.51379 2.75643 0
M  V30 5915 H 963.258 -7.01832 1.3448 0
M  V30 5916 H 961.424 -8.73771 2.38364 0
M  V30 5917 P 963.294 -8.91 -7.18673e-12 0
M  V30 5918 O 963.514 -10.1746 -0.733838 0
M  V30 5919 O 964.084 -8.73346 1.23964 0
M  V30 5920 O 963.544 -7.66872 -0.971405 0
M  V30 5921 C 962.604 -7.42405 -2.04668 0
M  V30 5922 C 963.334 -6.86059 -3.24661 0
M  V30 5923 O 963.544 -5.42934 -3.03695 0
M  V30 5924 C 964.734 -7.41287 -3.50796 0
M  V30 5925 O 965.124 -7.27073 -4.86816 0
M  V30 5926 C 965.614 -6.5273 -2.63741 0
M  V30 5927 C 964.904 -5.1842 -2.73198 0
M  V30 5928 N 964.954 -4.38762 -1.4784 0
M  V30 5929 H 962.116 -8.36899 -2.3252 0
M  V30 5930 H 961.844 -6.70391 -1.71179 0
M  V30 5931 H 962.712 -7.03638 -4.13219 0
M  V30 5932 H 965.367 -4.59931 -3.54016 0
M  V30 5933 H 965.647 -6.88995 -1.59871 0
M  V30 5934 H 966.638 -6.4684 -3.0373 0
M  V30 5935 H 964.804 -8.47002 -3.20749 0
M  V30 5936 P 966.674 -7.20834 -5.23717 0
M  V30 5937 O 966.894 -7.79853 -6.57286 0
M  V30 5938 O 967.464 -7.79239 -4.12957 0
M  V30 5939 O 966.924 -5.63315 -5.29344 0
M  V30 5940 C 965.984 -4.80255 -6.01876 0
M  V30 5941 C 966.714 -3.64202 -6.65911 0
M  V30 5942 O 966.924 -2.60694 -5.64732 0
M  V30 5943 C 968.114 -3.93473 -7.1943 0
M  V30 5944 O 968.504 -3.02071 -8.21205 0
M  V30 5945 C 968.994 -3.73047 -5.97036 0
M  V30 5946 C 968.284 -2.58828 -5.25741 0
M  V30 5947 N 968.334 -2.68068 -3.77503 0
M  V30 5948 C 968.254 -3.79715 -2.96723 0
M  V30 5949 N 968.334 -3.5377 -1.68852 0
M  V30 5950 C 968.474 -2.15054 -1.63254 0
M  V30 5951 C 968.604 -1.28964 -0.518571 0
M  V30 5952 O 968.624 -1.56826 0.679156 0
M  V30 5953 N 968.724 0.0538097 -0.918425 0
M  V30 5954 C 968.724 0.494275 -2.22578 0
M  V30 5955 N 968.854 1.81086 -2.40434 0
M  V30 5956 N 968.594 -0.313645 -3.27502 0
M  V30 5957 C 968.474 -1.61829 -2.91033 0
M  V30 5958 H 965.495 -5.40332 -6.79951 0
M  V30 5959 H 965.225 -4.41613 -5.32378 0
M  V30 5960 H 966.092 -3.26331 -7.47797 0
M  V30 5961 H 968.747 -1.63422 -5.56814 0
M  V30 5962 H 969.026 -4.63374 -5.34244 0
M  V30 5963 H 970.018 -3.44728 -6.25838 0
M  V30 5964 H 968.184 -4.96652 -7.57263 0
M  V30 5965 H 968.135 -4.80617 -3.3614 0
M  V30 5966 H 968.817 0.742702 -0.199384 0
M  V30 5967 H 968.854 2.20598 -3.35588 0
M  V30 5968 H 968.955 2.43518 -1.58945 0
M  V30 5969 P 970.054 -2.75334 -8.47391 0
M  V30 5970 O 970.274 -2.44595 -9.90239 0
M  V30 5971 O 970.844 -3.87732 -7.92204 0
M  V30 5972 O 970.304 -1.4459 -7.59357 0
M  V30 5973 C 969.364 -0.347563 -7.69115 0
M  V30 5974 C 970.094 0.96767 -7.52806 0
M  V30 5975 O 970.304 1.21036 -6.1011 0
M  V30 5976 C 971.494 1.04544 -8.13308 0
M  V30 5977 O 971.884 2.38311 -8.41922 0
M  V30 5978 C 972.374 0.491279 -7.02284 0
M  V30 5979 C 971.664 0.996264 -5.77469 0
M  V30 5980 N 971.714 0.0501808 -4.62873 0
M  V30 5981 C 971.864 0.588177 -3.36904 0
M  V30 5982 O 971.954 1.78598 -3.17173 0
M  V30 5983 N 971.904 -0.329694 -2.33686 0
M  V30 5984 C 971.814 -1.6953 -2.45079 0
M  V30 5985 O 971.864 -2.41926 -1.44899 0
M  V30 5986 C 971.664 -2.16933 -3.80505 0
M  V30 5987 C 971.554 -3.65373 -3.97621 0
M  V30 5988 C 971.614 -1.30326 -4.83752 0
M  V30 5989 H 968.874 -0.374722 -8.67691 0
M  V30 5990 H 968.605 -0.443421 -6.90177 0
M  V30 5991 H 969.472 1.75537 -7.96793 0
M  V30 5992 H 972.127 1.94496 -5.46629 0
M  V30 5993 H 972.406 -0.608651 -7.04676 0
M  V30 5994 H 973.398 0.889672 -7.08939 0
M  V30 5995 H 971.564 0.43308 -9.04564 0
M  V30 5996 H 971.493 -1.68366 -5.8516 0
M  V30 5997 H 972.523 -4.05985 -4.30448 0
M  V30 5998 H 970.786 -3.88028 -4.72875 0
M  V30 5999 H 971.274 -4.11381 -3.01609 0
M  V30 6000 H 972.01 0.0393617 -1.41345 0
M  V30 6001 P 973.434 2.75334 -8.47391 0
M  V30 6002 O 973.654 3.84204 -9.44982 0
M  V30 6003 O 974.224 1.51982 -8.68909 0
M  V30 6004 O 973.684 3.29363 -6.99321 0
M  V30 6005 C 972.744 4.24066 -6.42823 0
M  V30 6006 C 973.474 5.20775 -5.52155 0
M  V30 6007 O 973.684 4.56607 -4.22514 0
M  V30 6008 C 974.874 5.62697 -5.96604 0
M  V30 6009 O 975.264 6.87667 -5.41053 0
M  V30 6010 C 975.754 4.52537 -5.39283 0
M  V30 6011 C 975.044 4.20027 -4.08623 0
M  V30 6012 N 975.094 2.76189 -3.71603 0
M  V30 6013 H 972.256 4.79756 -7.24086 0
M  V30 6014 H 971.984 3.69963 -5.84682 0
M  V30 6015 H 972.852 6.10431 -5.41508 0
M  V30 6016 H 975.507 4.78816 -3.28024 0
M  V30 6017 H 975.787 3.64957 -6.05871 0
M  V30 6018 H 976.778 4.88748 -5.21323 0
M  V30 6019 H 974.944 5.66789 -7.0643 0
M  V30 6020 P 976.814 7.20834 -5.23717 0
M  V30 6021 O 977.034 8.66104 -5.38572 0
M  V30 6022 O 977.604 6.33544 -6.1349 0
M  V30 6023 O 977.064 6.7751 -3.72168 0
M  V30 6024 C 976.124 7.20825 -2.7076 0
M  V30 6025 C 976.854 7.45864 -1.40599 0
M  V30 6026 O 977.064 6.17651 -0.734225 0
M  V30 6027 C 978.254 8.05808 -1.51899 0
M  V30 6028 O 978.644 8.74358 -0.335205 0
M  V30 6029 C 979.134 6.83093 -1.70294 0
M  V30 6030 C 978.424 5.79992 -0.836974 0
M  V30 6031 N 978.474 4.41864 -1.38293 0
M  V30 6032 H 975.635 8.13644 -3.0377 0
M  V30 6033 H 975.365 6.42788 -2.55485 0
M  V30 6034 H 976.232 8.12039 -0.792769 0
M  V30 6035 P 980.194 8.91 7.34391e-12 0
M  V30 6036 O 980.414 10.1726 0.733694 0
M  V30 6037 O 980.984 8.73148 -1.23936 0
M  V30 6038 O 980.444 7.66872 0.971405 0
M  V30 6039 C 979.504 7.42309 2.04641 0
M  V30 6040 C 980.234 6.86059 3.24661 0
M  V30 6041 O 980.444 5.42847 3.03646 0
M  V30 6042 C 981.634 7.41196 3.50753 0
M  V30 6043 O 982.024 7.27073 4.86816 0
M  V30 6044 C 982.514 6.5273 2.63741 0
M  V30 6045 C 981.804 5.1842 2.73198 0
M  V30 6046 N 981.854 4.38762 1.4784 0
M  V30 6047 C 981.774 4.81605 0.168631 0
M  V30 6048 N 981.854 3.85454 -0.713363 0
M  V30 6049 C 981.994 2.6994 0.0566958 0
M  V30 6050 C 982.124 1.34815 -0.338502 0
M  V30 6051 O 982.144 0.869548 -1.47125 0
M  V30 6052 N 982.244 0.496304 0.77465 0
M  V30 6053 C 982.244 0.908403 2.09122 0
M  V30 6054 N 982.374 -0.0517805 3.00955 0
M  V30 6055 N 982.114 2.17875 2.46519 0
M  V30 6056 C 981.994 3.01988 1.4033 0
M  V30 6057 H 979.015 8.36803 2.32493 0
M  V30 6058 H 978.745 6.70197 1.71129 0
M  V30 6059 H 979.612 7.03551 4.13168 0
M  V30 6060 H 982.267 4.59498 3.54415 0
M  V30 6061 H 982.546 6.88898 1.59848 0
M  V30 6062 H 983.538 6.46749 3.03687 0
M  V30 6063 H 981.704 8.46908 3.20714 0
M  V30 6064 H 981.655 5.86405 -0.105564 0
M  V30 6065 H 982.337 -0.483664 0.597855 0
M  V30 6066 H 982.374 0.187865 4.0116 0
M  V30 6067 H 982.475 -1.03585 2.71726 0
M  V30 6068 P 983.574 7.20834 5.23717 0
M  V30 6069 O 983.794 7.7993 6.57351 0
M  V30 6070 O 984.364 7.79328 4.13004 0
M  V30 6071 O 983.824 5.63315 5.29344 0
M  V30 6072 C 982.884 4.80193 6.01798 0
M  V30 6073 C 983.614 3.64202 6.65911 0
M  V30 6074 O 983.824 2.60694 5.64732 0
M  V30 6075 C 985.014 3.93473 7.1943 0
M  V30 6076 O 985.404 3.02071 8.21205 0
M  V30 6077 C 985.894 3.73047 5.97036 0
M  V30 6078 C 985.184 2.58828 5.25741 0
M  V30 6079 N 985.234 2.6801 3.77422 0
M  V30 6080 C 985.384 1.50443 3.07133 0
M  V30 6081 O 985.474 0.419406 3.61576 0
M  V30 6082 N 985.424 1.6403 1.69677 0
M  V30 6083 C 985.334 2.81206 0.986255 0
M  V30 6084 O 985.384 2.80892 -0.249754 0
M  V30 6085 C 985.184 3.99158 1.80325 0
M  V30 6086 C 985.074 5.29309 1.06921 0
M  V30 6087 C 985.134 3.89779 3.1476 0
M  V30 6088 H 982.394 5.40332 6.79951 0
M  V30 6089 H 982.125 4.41549 5.32301 0
M  V30 6090 H 982.992 3.26331 7.47797 0
M  V30 6091 H 985.647 1.6395 5.56554 0
M  V30 6092 H 985.926 4.63439 5.3432 0
M  V30 6093 H 986.918 3.44728 6.25838 0
M  V30 6094 H 985.084 4.96652 7.57263 0
M  V30 6095 H 985.013 4.80159 3.74441 0
M  V30 6096 H 986.043 5.81459 1.09608 0
M  V30 6097 H 984.306 5.9187 1.54487 0
M  V30 6098 H 984.794 5.10095 0.0220288 0
M  V30 6099 H 985.53 0.798962 1.16664 0
M  V30 6100 P 986.954 2.75334 8.47391 0
M  V30 6101 O 987.174 2.44595 9.90239 0
M  V30 6102 O 987.744 3.87732 7.92204 0
M  V30 6103 O 987.204 1.4459 7.59357 0
M  V30 6104 C 986.264 0.347563 7.69115 0
M  V30 6105 C 986.994 -0.96767 7.52806 0
M  V30 6106 O 987.204 -1.21036 6.1011 0
M  V30 6107 C 988.394 -1.04544 8.13308 0
M  V30 6108 O 988.784 -2.38311 8.41922 0
M  V30 6109 C 989.274 -0.491279 7.02284 0
M  V30 6110 C 988.564 -0.996264 5.77469 0
M  V30 6111 N 988.614 -0.0501808 4.62873 0
M  V30 6112 C 988.764 -0.588177 3.36904 0
M  V30 6113 O 988.854 -1.78598 3.17173 0
M  V30 6114 N 988.804 0.329694 2.33686 0
M  V30 6115 C 988.714 1.6953 2.45079 0
M  V30 6116 O 988.764 2.41926 1.44899 0
M  V30 6117 C 988.564 2.16933 3.80505 0
M  V30 6118 C 988.454 3.65373 3.97621 0
M  V30 6119 C 988.514 1.30326 4.83752 0
M  V30 6120 H 985.774 0.374722 8.67691 0
M  V30 6121 H 985.505 0.443421 6.90177 0
M  V30 6122 H 986.372 -1.75537 7.96793 0
M  V30 6123 H 989.027 -1.94496 5.46629 0
M  V30 6124 H 989.306 0.608651 7.04676 0
M  V30 6125 H 990.298 -0.889672 7.08939 0
M  V30 6126 H 988.464 -0.43308 9.04564 0
M  V30 6127 H 988.393 1.68366 5.8516 0
M  V30 6128 H 989.423 4.05985 4.30448 0
M  V30 6129 H 987.686 3.88028 4.72875 0
M  V30 6130 H 988.174 4.11381 3.01609 0
M  V30 6131 H 988.91 -0.0393617 1.41345 0
M  V30 6132 P 990.334 -2.75334 8.47391 0
M  V30 6133 O 990.554 -3.84128 9.44797 0
M  V30 6134 O 991.124 -1.51947 8.68712 0
M  V30 6135 O 990.584 -3.29363 6.99321 0
M  V30 6136 C 989.644 -4.24011 6.4274 0
M  V30 6137 C 990.374 -5.20775 5.52155 0
M  V30 6138 O 990.584 -4.56534 4.22446 0
M  V30 6139 C 991.774 -5.62629 5.96531 0
M  V30 6140 O 992.164 -6.87667 5.41053 0
M  V30 6141 C 992.654 -4.52537 5.39283 0
M  V30 6142 C 991.944 -4.20027 4.08623 0
M  V30 6143 N 991.994 -2.76189 3.71603 0
M  V30 6144 C 991.914 -1.64862 4.52822 0
M  V30 6145 N 991.994 -0.512671 3.88633 0
M  V30 6146 C 992.134 -0.888083 2.54977 0
M  V30 6147 C 992.264 -0.094668 1.38677 0
M  V30 6148 N 992.384 -0.890102 0.232633 0
M  V30 6149 C 992.384 -2.26958 0.21772 0
M  V30 6150 N 992.514 -2.84626 -0.97925 0
M  V30 6151 N 992.254 -3.0178 1.31033 0
M  V30 6152 C 992.134 -2.26781 2.43843 0
M  V30 6153 H 989.155 -4.797 7.24003 0
M  V30 6154 H 988.885 -3.69856 5.84513 0
M  V30 6155 H 989.752 -6.10356 5.41441 0
M  V30 6156 P 993.714 -7.20834 5.23717 0
M  V30 6157 O 993.934 -8.66104 5.38572 0
M  V30 6158 O 994.504 -6.33544 6.1349 0
M  V30 6159 O 993.964 -6.7751 3.72168 0
M  V30 6160 C 993.024 -7.20825 2.7076 0
M  V30 6161 C 993.754 -7.45864 1.40599 0
M  V30 6162 O 993.964 -6.17651 0.734225 0
M  V30 6163 C 995.154 -8.05808 1.51899 0
M  V30 6164 O 995.544 -8.74358 0.335205 0
M  V30 6165 C 996.034 -6.83093 1.70294 0
M  V30 6166 C 995.324 -5.79992 0.836974 0
M  V30 6167 N 995.374 -4.41864 1.38293 0
M  V30 6168 H 992.535 -8.13644 3.0377 0
M  V30 6169 H 992.265 -6.42788 2.55485 0
M  V30 6170 H 993.132 -8.12039 0.792769 0
M  V30 6171 P 997.094 -8.91 -7.50109e-12 0
M  V30 6172 O 997.314 -10.1746 -0.733838 0
M  V30 6173 O 997.884 -8.73346 1.23964 0
M  V30 6174 O 997.344 -7.66872 -0.971405 0
M  V30 6175 C 996.404 -7.42405 -2.04668 0
M  V30 6176 C 997.134 -6.86059 -3.24661 0
M  V30 6177 O 997.344 -5.42934 -3.03695 0
M  V30 6178 C 998.534 -7.41287 -3.50796 0
M  V30 6179 O 998.924 -7.27073 -4.86816 0
M  V30 6180 C 999.414 -6.5273 -2.63741 0
M  V30 6181 C 998.704 -5.1842 -2.73198 0
M  V30 6182 N 998.754 -4.38762 -1.4784 0
M  V30 6183 C 998.674 -4.83651 -0.183876 0
M  V30 6184 N 998.744 -3.88759 0.699393 0
M  V30 6185 C 998.894 -2.7404 -0.0575568 0
M  V30 6186 C 999.024 -1.37902 0.293928 0
M  V30 6187 N 999.034 -0.938021 1.54797 0
M  V30 6188 N 999.144 -0.491817 -0.70549 0
M  V30 6189 C 999.134 -0.931735 -1.95979 0
M  V30 6190 N 999.014 -2.16017 -2.41481 0
M  V30 6191 C 998.894 -3.02547 -1.39121 0
M  V30 6192 H 995.916 -8.36899 -2.3252 0
M  V30 6193 H 995.644 -6.70391 -1.71179 0
M  V30 6194 H 996.512 -7.03638 -4.13219 0
M  V30 6195 H 999.167 -4.59931 -3.54016 0
M  V30 6196 H 999.447 -6.88995 -1.59871 0
M  V30 6197 H 1000.44 -6.4684 -3.0373 0
M  V30 6198 H 998.604 -8.47002 -3.20749 0
M  V30 6199 H 998.563 -5.8885 0.0765548 0
M  V30 6200 H 998.944 -1.60276 2.32875 0
M  V30 6201 H 999.133 0.0699355 1.73859 0
M  V30 6202 H 999.241 -0.165507 -2.71897 0
M  V30 6203 P 1000.47 -7.20834 -5.23717 0
M  V30 6204 O 1000.69 -7.79853 -6.57286 0
M  V30 6205 O 1001.26 -7.79239 -4.12957 0
M  V30 6206 O 1000.72 -5.63315 -5.29344 0
M  V30 6207 C 999.784 -4.80255 -6.01876 0
M  V30 6208 C 1000.51 -3.64202 -6.65911 0
M  V30 6209 O 1000.72 -2.60694 -5.64732 0
M  V30 6210 C 1001.91 -3.93473 -7.1943 0
M  V30 6211 O 1002.3 -3.02071 -8.21205 0
M  V30 6212 C 1002.79 -3.73047 -5.97036 0
M  V30 6213 C 1002.08 -2.58828 -5.25741 0
M  V30 6214 N 1002.13 -2.68068 -3.77503 0
M  V30 6215 H 999.295 -5.40332 -6.79951 0
M  V30 6216 H 999.025 -4.41613 -5.32378 0
M  V30 6217 H 999.892 -3.26331 -7.47797 0
M  V30 6218 P 1003.85 -2.75334 -8.47391 0
M  V30 6219 O 1004.07 -2.44571 -9.90142 0
M  V30 6220 O 1004.64 -3.87688 -7.92115 0
M  V30 6221 O 1004.1 -1.4459 -7.59357 0
M  V30 6222 C 1003.16 -0.347608 -7.69215 0
M  V30 6223 C 1003.89 0.96767 -7.52806 0
M  V30 6224 O 1004.1 1.21036 -6.1011 0
M  V30 6225 C 1005.29 1.04544 -8.13308 0
M  V30 6226 O 1005.68 2.38311 -8.41922 0
M  V30 6227 C 1006.17 0.491279 -7.02284 0
M  V30 6228 C 1005.46 0.996264 -5.77469 0
M  V30 6229 N 1005.51 0.0501916 -4.62973 0
M  V30 6230 H 1002.68 -0.374722 -8.67691 0
M  V30 6231 H 1002.41 -0.443485 -6.90277 0
M  V30 6232 H 1003.27 1.75537 -7.96793 0
M  V30 6233 P 1007.23 2.75334 -8.47391 0
M  V30 6234 O 1007.45 3.84166 -9.4489 0
M  V30 6235 O 1008.02 1.51964 -8.6881 0
M  V30 6236 O 1007.48 3.29363 -6.99321 0
M  V30 6237 C 1006.54 4.23956 -6.42656 0
M  V30 6238 C 1007.27 5.20775 -5.52155 0
M  V30 6239 O 1007.48 4.56534 -4.22446 0
M  V30 6240 C 1008.67 5.62629 -5.96531 0
M  V30 6241 O 1009.06 6.87667 -5.41053 0
M  V30 6242 C 1009.55 4.52537 -5.39283 0
M  V30 6243 C 1008.84 4.20027 -4.08623 0
M  V30 6244 N 1008.89 2.7613 -3.71522 0
M  V30 6245 C 1009.04 2.45612 -2.37989 0
M  V30 6246 O 1009.13 3.30919 -1.51621 0
M  V30 6247 N 1009.08 1.10684 -2.08435 0
M  V30 6248 C 1008.99 0.0690084 -2.9792 0
M  V30 6249 O 1009.04 -1.10553 -2.59426 0
M  V30 6250 C 1008.84 0.481522 -4.35345 0
M  V30 6251 C 1008.73 -0.618778 -5.36443 0
M  V30 6252 C 1008.79 1.78906 -4.67968 0
M  V30 6253 H 1006.05 4.797 -7.24003 0
M  V30 6254 H 1005.79 3.69802 -5.84429 0
M  V30 6255 H 1006.65 6.10356 -5.41441 0
M  V30 6256 H 1009.31 4.78651 -3.27911 0
M  V30 6257 H 1009.59 3.64957 -6.05871 0
M  V30 6258 H 1010.58 4.8868 -5.2125 0
M  V30 6259 H 1008.74 5.66726 -7.06352 0
M  V30 6260 H 1008.67 2.07737 -5.72367 0
M  V30 6261 H 1009.7 -0.754375 -5.86871 0
M  V30 6262 H 1007.97 -0.359721 -6.10641 0
M  V30 6263 H 1008.45 -1.55533 -4.8581 0
M  V30 6264 H 1009.19 0.862651 -1.12037 0
M  V30 6265 P 1010.61 7.20834 -5.23717 0
M  V30 6266 O 1010.83 8.66104 -5.38572 0
M  V30 6267 O 1011.4 6.33544 -6.1349 0
M  V30 6268 O 1010.86 6.7751 -3.72168 0
M  V30 6269 C 1009.92 7.20825 -2.7076 0
M  V30 6270 C 1010.65 7.45864 -1.40599 0
M  V30 6271 O 1010.86 6.17651 -0.734225 0
M  V30 6272 C 1012.05 8.05808 -1.51899 0
M  V30 6273 O 1012.44 8.74358 -0.335205 0
M  V30 6274 C 1012.93 6.83093 -1.70294 0
M  V30 6275 C 1012.22 5.79992 -0.836974 0
M  V30 6276 N 1012.27 4.41864 -1.38293 0
M  V30 6277 H 1009.44 8.13644 -3.0377 0
M  V30 6278 H 1009.17 6.42788 -2.55485 0
M  V30 6279 H 1010.03 8.12039 -0.792769 0
M  V30 6280 P 1013.99 8.91 7.65827e-12 0
M  V30 6281 O 1014.21 10.1726 0.733694 0
M  V30 6282 O 1014.78 8.73148 -1.23936 0
M  V30 6283 O 1014.24 7.66872 0.971405 0
M  V30 6284 C 1013.3 7.42309 2.04641 0
M  V30 6285 C 1014.03 6.86059 3.24661 0
M  V30 6286 O 1014.24 5.42847 3.03646 0
M  V30 6287 C 1015.43 7.41196 3.50753 0
M  V30 6288 O 1015.82 7.27073 4.86816 0
M  V30 6289 C 1016.31 6.5273 2.63741 0
M  V30 6290 C 1015.6 5.1842 2.73198 0
M  V30 6291 N 1015.65 4.38762 1.4784 0
M  V30 6292 H 1012.82 8.36803 2.32493 0
M  V30 6293 H 1012.55 6.70197 1.71129 0
M  V30 6294 H 1013.41 7.03551 4.13168 0
M  V30 6295 P 1017.37 7.20834 5.23717 0
M  V30 6296 O 1017.59 7.79853 6.57286 0
M  V30 6297 O 1018.16 7.79239 4.12957 0
M  V30 6298 O 1017.62 5.63315 5.29344 0
M  V30 6299 C 1016.68 4.80255 6.01876 0
M  V30 6300 C 1017.41 3.64202 6.65911 0
M  V30 6301 O 1017.62 2.60694 5.64732 0
M  V30 6302 C 1018.81 3.93473 7.1943 0
M  V30 6303 O 1019.2 3.02071 8.21205 0
M  V30 6304 C 1019.69 3.73047 5.97036 0
M  V30 6305 C 1018.98 2.58828 5.25741 0
M  V30 6306 N 1019.03 2.68068 3.77503 0
M  V30 6307 H 1016.19 5.40332 6.79951 0
M  V30 6308 H 1015.92 4.41613 5.32378 0
M  V30 6309 H 1016.79 3.26331 7.47797 0
M  V30 6310 P 1020.75 2.75334 8.47391 0
M  V30 6311 O 1020.97 2.44571 9.90142 0
M  V30 6312 O 1021.54 3.87688 7.92115 0
M  V30 6313 O 1021 1.4459 7.59357 0
M  V30 6314 C 1020.06 0.347608 7.69215 0
M  V30 6315 C 1020.79 -0.96767 7.52806 0
M  V30 6316 O 1021 -1.21036 6.1011 0
M  V30 6317 C 1022.19 -1.04544 8.13308 0
M  V30 6318 O 1022.58 -2.38311 8.41922 0
M  V30 6319 C 1023.07 -0.491279 7.02284 0
M  V30 6320 C 1022.36 -0.996264 5.77469 0
M  V30 6321 N 1022.41 -0.0501916 4.62973 0
M  V30 6322 C 1022.33 1.32786 4.63244 0
M  V30 6323 N 1022.41 1.86957 3.44545 0
M  V30 6324 C 1022.55 0.780241 2.58481 0
M  V30 6325 C 1022.68 0.738536 1.17757 0
M  V30 6326 O 1022.7 1.66794 0.372349 0
M  V30 6327 N 1022.8 -0.58337 0.711393 0
M  V30 6328 C 1022.8 -1.70816 1.51017 0
M  V30 6329 N 1022.93 -2.87826 0.880757 0
M  V30 6330 N 1022.67 -1.67126 2.8339 0
M  V30 6331 C 1022.55 -0.401421 3.30572 0
M  V30 6332 H 1019.57 0.374722 8.67691 0
M  V30 6333 H 1019.3 0.443485 6.90277 0
M  V30 6334 H 1020.17 -1.75537 7.96793 0
M  V30 6335 H 1022.83 -1.95076 5.46529 0
M  V30 6336 H 1023.11 0.608565 7.04577 0
M  V30 6337 H 1024.1 -0.889672 7.08939 0
M  V30 6338 H 1022.26 -0.43308 9.04564 0
M  V30 6339 H 1022.21 1.91249 5.54442 0
M  V30 6340 H 1022.9 -0.718054 -0.275244 0
M  V30 6341 H 1022.93 -3.75721 1.41832 0
M  V30 6342 H 1023.03 -2.90436 -0.145468 0
M  V30 6343 P 1024.13 -2.75334 8.47391 0
M  V30 6344 O 1024.35 -3.84166 9.4489 0
M  V30 6345 O 1024.92 -1.51964 8.6881 0
M  V30 6346 O 1024.38 -3.29363 6.99321 0
M  V30 6347 C 1023.44 -4.23956 6.42656 0
M  V30 6348 C 1024.17 -5.20775 5.52155 0
M  V30 6349 O 1024.38 -4.56534 4.22446 0
M  V30 6350 C 1025.57 -5.62629 5.96531 0
M  V30 6351 O 1025.96 -6.87667 5.41053 0
M  V30 6352 C 1026.45 -4.52537 5.39283 0
M  V30 6353 C 1025.74 -4.20027 4.08623 0
M  V30 6354 N 1025.79 -2.7613 3.71522 0
M  V30 6355 C 1025.94 -2.45612 2.37989 0
M  V30 6356 O 1026.03 -3.30919 1.51621 0
M  V30 6357 N 1025.98 -1.10684 2.08435 0
M  V30 6358 C 1025.89 -0.0690084 2.9792 0
M  V30 6359 O 1025.94 1.10553 2.59426 0
M  V30 6360 C 1025.74 -0.481522 4.35345 0
M  V30 6361 C 1025.63 0.618778 5.36443 0
M  V30 6362 C 1025.69 -1.78906 4.67968 0
M  V30 6363 H 1022.95 -4.797 7.24003 0
M  V30 6364 H 1022.68 -3.69802 5.84429 0
M  V30 6365 H 1023.55 -6.10356 5.41441 0
M  V30 6366 H 1026.21 -4.78651 3.27911 0
M  V30 6367 H 1026.49 -3.64957 6.05871 0
M  V30 6368 H 1027.48 -4.8868 5.2125 0
M  V30 6369 H 1025.64 -5.66726 7.06352 0
M  V30 6370 H 1025.57 -2.07737 5.72367 0
M  V30 6371 H 1026.6 0.754375 5.86871 0
M  V30 6372 H 1024.87 0.359721 6.10641 0
M  V30 6373 H 1025.35 1.55533 4.8581 0
M  V30 6374 H 1026.09 -0.862651 1.12037 0
M  V30 6375 P 1027.51 -7.20834 5.23717 0
M  V30 6376 O 1027.73 -8.66274 5.38678 0
M  V30 6377 O 1028.3 -6.33687 6.13629 0
M  V30 6378 O 1027.76 -6.7751 3.72168 0
M  V30 6379 C 1026.82 -7.20919 2.70795 0
M  V30 6380 C 1027.55 -7.45864 1.40599 0
M  V30 6381 O 1027.76 -6.17751 0.734343 0
M  V30 6382 C 1028.95 -8.05906 1.51917 0
M  V30 6383 O 1029.34 -8.74358 0.335205 0
M  V30 6384 C 1029.83 -6.83093 1.70294 0
M  V30 6385 C 1029.12 -5.79992 0.836974 0
M  V30 6386 N 1029.17 -4.41864 1.38293 0
M  V30 6387 H 1026.34 -8.13738 3.03804 0
M  V30 6388 H 1026.06 -6.42974 2.55559 0
M  V30 6389 H 1026.93 -8.12139 0.792866 0
M  V30 6390 H 1029.59 -5.80178 -0.160643 0
M  V30 6391 H 1029.87 -6.51379 2.75643 0
M  V30 6392 H 1030.86 -7.01832 1.3448 0
M  V30 6393 H 1029.02 -8.73771 2.38364 0
M  V30 6394 P 1030.89 -8.91 -7.81545e-12 0
M  V30 6395 O 1031.11 -10.1726 -0.733694 0
M  V30 6396 O 1031.68 -8.73148 1.23936 0
M  V30 6397 O 1031.14 -7.66872 -0.971405 0
M  V30 6398 C 1030.2 -7.42309 -2.04641 0
M  V30 6399 C 1030.93 -6.86059 -3.24661 0
M  V30 6400 O 1031.14 -5.42847 -3.03646 0
M  V30 6401 C 1032.33 -7.41196 -3.50753 0
M  V30 6402 O 1032.72 -7.27073 -4.86816 0
M  V30 6403 C 1033.21 -6.5273 -2.63741 0
M  V30 6404 C 1032.5 -5.1842 -2.73198 0
M  V30 6405 N 1032.55 -4.38762 -1.4784 0
M  V30 6406 H 1029.71 -8.36803 -2.32493 0
M  V30 6407 H 1029.44 -6.70197 -1.71129 0
M  V30 6408 H 1030.31 -7.03551 -4.13168 0
M  V30 6409 P 1034.27 -7.20834 -5.23717 0
M  V30 6410 O 1034.49 -7.79853 -6.57286 0
M  V30 6411 O 1035.06 -7.79239 -4.12957 0
M  V30 6412 O 1034.52 -5.63315 -5.29344 0
M  V30 6413 C 1033.58 -4.80255 -6.01876 0
M  V30 6414 C 1034.31 -3.64202 -6.65911 0
M  V30 6415 O 1034.52 -2.60694 -5.64732 0
M  V30 6416 C 1035.71 -3.93473 -7.1943 0
M  V30 6417 O 1036.1 -3.02071 -8.21205 0
M  V30 6418 C 1036.59 -3.73047 -5.97036 0
M  V30 6419 C 1035.88 -2.58828 -5.25741 0
M  V30 6420 N 1035.93 -2.68068 -3.77503 0
M  V30 6421 H 1033.09 -5.40332 -6.79951 0
M  V30 6422 H 1032.82 -4.41613 -5.32378 0
M  V30 6423 H 1033.69 -3.26331 -7.47797 0
M  V30 6424 P 1037.65 -2.75334 -8.47391 0
M  V30 6425 O 1037.87 -2.44571 -9.90142 0
M  V30 6426 O 1038.44 -3.87688 -7.92115 0
M  V30 6427 O 1037.9 -1.4459 -7.59357 0
M  V30 6428 C 1036.96 -0.347608 -7.69215 0
M  V30 6429 C 1037.69 0.96767 -7.52806 0
M  V30 6430 O 1037.9 1.21036 -6.1011 0
M  V30 6431 C 1039.09 1.04544 -8.13308 0
M  V30 6432 O 1039.48 2.38311 -8.41922 0
M  V30 6433 C 1039.97 0.491279 -7.02284 0
M  V30 6434 C 1039.26 0.996264 -5.77469 0
M  V30 6435 N 1039.31 0.0501916 -4.62973 0
M  V30 6436 H 1036.47 -0.374722 -8.67691 0
M  V30 6437 H 1036.2 -0.443485 -6.90277 0
M  V30 6438 H 1037.07 1.75537 -7.96793 0
M  V30 6439 P 1041.03 2.75334 -8.47391 0
M  V30 6440 O 1041.25 3.84204 -9.44982 0
M  V30 6441 O 1041.82 1.51982 -8.68909 0
M  V30 6442 O 1041.28 3.29363 -6.99321 0
M  V30 6443 C 1040.34 4.24066 -6.42823 0
M  V30 6444 C 1041.07 5.20775 -5.52155 0
M  V30 6445 O 1041.28 4.56607 -4.22514 0
M  V30 6446 C 1042.47 5.62697 -5.96604 0
M  V30 6447 O 1042.86 6.87667 -5.41053 0
M  V30 6448 C 1043.35 4.52537 -5.39283 0
M  V30 6449 C 1042.64 4.20027 -4.08623 0
M  V30 6450 N 1042.69 2.76189 -3.71603 0
M  V30 6451 C 1042.61 1.66944 -4.54297 0
M  V30 6452 N 1042.68 0.536169 -3.91344 0
M  V30 6453 C 1042.83 0.901569 -2.58849 0
M  V30 6454 C 1042.96 0.146599 -1.40236 0
M  V30 6455 N 1042.97 -1.18234 -1.37046 0
M  V30 6456 N 1043.08 0.822941 -0.249738 0
M  V30 6457 C 1043.07 2.15179 -0.280525 0
M  V30 6458 N 1042.95 2.96414 -1.30822 0
M  V30 6459 C 1042.83 2.25804 -2.44748 0
M  V30 6460 H 1039.86 4.79756 -7.24086 0
M  V30 6461 H 1039.58 3.69963 -5.84682 0
M  V30 6462 H 1040.45 6.10431 -5.41508 0
M  V30 6463 H 1043.11 4.78816 -3.28024 0
M  V30 6464 H 1043.39 3.64957 -6.05871 0
M  V30 6465 H 1044.38 4.88748 -5.21323 0
M  V30 6466 H 1042.54 5.66789 -7.0643 0
M  V30 6467 H 1042.5 1.74684 -5.62396 0
M  V30 6468 H 1042.88 -1.71949 -2.24394 0
M  V30 6469 H 1043.07 -1.67511 -0.470742 0
M  V30 6470 H 1043.18 2.63704 0.6828 0
M  V30 6471 P 1044.41 7.20834 -5.23717 0
M  V30 6472 O 1044.63 8.66104 -5.38572 0
M  V30 6473 O 1045.2 6.33544 -6.1349 0
M  V30 6474 O 1044.66 6.7751 -3.72168 0
M  V30 6475 C 1043.72 7.20825 -2.7076 0
M  V30 6476 C 1044.45 7.45864 -1.40599 0
M  V30 6477 O 1044.66 6.17651 -0.734225 0
M  V30 6478 C 1045.85 8.05808 -1.51899 0
M  V30 6479 O 1046.24 8.74358 -0.335205 0
M  V30 6480 C 1046.73 6.83093 -1.70294 0
M  V30 6481 C 1046.02 5.79992 -0.836974 0
M  V30 6482 N 1046.07 4.41864 -1.38293 0
M  V30 6483 H 1043.23 8.13644 -3.0377 0
M  V30 6484 H 1042.96 6.42788 -2.55485 0
M  V30 6485 H 1043.83 8.12039 -0.792769 0
M  V30 6486 P 1047.79 8.91 7.97264e-12 0
M  V30 6487 O 1048.01 10.1726 0.733694 0
M  V30 6488 O 1048.58 8.73148 -1.23936 0
M  V30 6489 O 1048.04 7.66872 0.971405 0
M  V30 6490 C 1047.1 7.42309 2.04641 0
M  V30 6491 C 1047.83 6.86059 3.24661 0
M  V30 6492 O 1048.04 5.42847 3.03646 0
M  V30 6493 C 1049.23 7.41196 3.50753 0
M  V30 6494 O 1049.62 7.27073 4.86816 0
M  V30 6495 C 1050.11 6.5273 2.63741 0
M  V30 6496 C 1049.4 5.1842 2.73198 0
M  V30 6497 N 1049.45 4.38762 1.4784 0
M  V30 6498 H 1046.61 8.36803 2.32493 0
M  V30 6499 H 1046.34 6.70197 1.71129 0
M  V30 6500 H 1047.21 7.03551 4.13168 0
M  V30 6501 P 1051.17 7.20834 5.23717 0
M  V30 6502 O 1051.39 7.79853 6.57286 0
M  V30 6503 O 1051.96 7.79239 4.12957 0
M  V30 6504 O 1051.42 5.63315 5.29344 0
M  V30 6505 C 1050.48 4.80255 6.01876 0
M  V30 6506 C 1051.21 3.64202 6.65911 0
M  V30 6507 O 1051.42 2.60694 5.64732 0
M  V30 6508 C 1052.61 3.93473 7.1943 0
M  V30 6509 O 1053 3.02071 8.21205 0
M  V30 6510 C 1053.49 3.73047 5.97036 0
M  V30 6511 C 1052.78 2.58828 5.25741 0
M  V30 6512 N 1052.83 2.68068 3.77503 0
M  V30 6513 H 1049.99 5.40332 6.79951 0
M  V30 6514 H 1049.72 4.41613 5.32378 0
M  V30 6515 H 1050.59 3.26331 7.47797 0
M  V30 6516 P 1054.55 2.75334 8.47391 0
M  V30 6517 O 1054.77 2.44571 9.90142 0
M  V30 6518 O 1055.34 3.87688 7.92115 0
M  V30 6519 O 1054.8 1.4459 7.59357 0
M  V30 6520 C 1053.86 0.347608 7.69215 0
M  V30 6521 C 1054.59 -0.96767 7.52806 0
M  V30 6522 O 1054.8 -1.21036 6.1011 0
M  V30 6523 C 1055.99 -1.04544 8.13308 0
M  V30 6524 O 1056.38 -2.38311 8.41922 0
M  V30 6525 C 1056.87 -0.491279 7.02284 0
M  V30 6526 C 1056.16 -0.996264 5.77469 0
M  V30 6527 N 1056.21 -0.0501916 4.62973 0
M  V30 6528 H 1053.37 0.374722 8.67691 0
M  V30 6529 H 1053.1 0.443485 6.90277 0
M  V30 6530 H 1053.97 -1.75537 7.96793 0
M  V30 6531 P 1057.93 -2.75334 8.47391 0
M  V30 6532 O 1058.15 -3.84204 9.44982 0
M  V30 6533 O 1058.72 -1.51982 8.68909 0
M  V30 6534 O 1058.18 -3.29363 6.99321 0
M  V30 6535 C 1057.24 -4.24066 6.42823 0
M  V30 6536 C 1057.97 -5.20775 5.52155 0
M  V30 6537 O 1058.18 -4.56607 4.22514 0
M  V30 6538 C 1059.37 -5.62697 5.96604 0
M  V30 6539 O 1059.76 -6.87667 5.41053 0
M  V30 6540 C 1060.25 -4.52537 5.39283 0
M  V30 6541 C 1059.54 -4.20027 4.08623 0
M  V30 6542 N 1059.59 -2.76189 3.71603 0
M  V30 6543 C 1059.51 -1.66944 4.54297 0
M  V30 6544 N 1059.58 -0.536169 3.91344 0
M  V30 6545 C 1059.73 -0.901569 2.58849 0
M  V30 6546 C 1059.86 -0.146599 1.40236 0
M  V30 6547 N 1059.87 1.18234 1.37046 0
M  V30 6548 N 1059.98 -0.822941 0.249738 0
M  V30 6549 C 1059.97 -2.15179 0.280525 0
M  V30 6550 N 1059.85 -2.96414 1.30822 0
M  V30 6551 C 1059.73 -2.25804 2.44748 0
M  V30 6552 H 1056.76 -4.79756 7.24086 0
M  V30 6553 H 1056.48 -3.69963 5.84682 0
M  V30 6554 H 1057.35 -6.10431 5.41508 0
M  V30 6555 H 1060.01 -4.78816 3.28024 0
M  V30 6556 H 1060.29 -3.64957 6.05871 0
M  V30 6557 H 1061.28 -4.88748 5.21323 0
M  V30 6558 H 1059.44 -5.66789 7.0643 0
M  V30 6559 H 1059.4 -1.74684 5.62396 0
M  V30 6560 H 1059.78 1.71949 2.24394 0
M  V30 6561 H 1059.97 1.67511 0.470742 0
M  V30 6562 H 1060.08 -2.63704 -0.6828 0
M  V30 6563 P 1061.31 -7.20834 5.23717 0
M  V30 6564 O 1061.53 -8.66104 5.38572 0
M  V30 6565 O 1062.1 -6.33544 6.1349 0
M  V30 6566 O 1061.56 -6.7751 3.72168 0
M  V30 6567 C 1060.62 -7.20825 2.7076 0
M  V30 6568 C 1061.35 -7.45864 1.40599 0
M  V30 6569 O 1061.56 -6.17651 0.734225 0
M  V30 6570 C 1062.75 -8.05808 1.51899 0
M  V30 6571 O 1063.14 -8.74358 0.335205 0
M  V30 6572 C 1063.63 -6.83093 1.70294 0
M  V30 6573 C 1062.92 -5.79992 0.836974 0
M  V30 6574 N 1062.97 -4.41864 1.38293 0
M  V30 6575 H 1060.13 -8.13644 3.0377 0
M  V30 6576 H 1059.86 -6.42788 2.55485 0
M  V30 6577 H 1060.73 -8.12039 0.792769 0
M  V30 6578 P 1064.69 -8.91 -8.12982e-12 0
M  V30 6579 O 1064.91 -10.1726 -0.733694 0
M  V30 6580 O 1065.48 -8.73148 1.23936 0
M  V30 6581 O 1064.94 -7.66872 -0.971405 0
M  V30 6582 C 1064 -7.42309 -2.04641 0
M  V30 6583 C 1064.73 -6.86059 -3.24661 0
M  V30 6584 O 1064.94 -5.42847 -3.03646 0
M  V30 6585 C 1066.13 -7.41196 -3.50753 0
M  V30 6586 O 1066.52 -7.27073 -4.86816 0
M  V30 6587 C 1067.01 -6.5273 -2.63741 0
M  V30 6588 C 1066.3 -5.1842 -2.73198 0
M  V30 6589 N 1066.35 -4.38762 -1.4784 0
M  V30 6590 H 1063.51 -8.36803 -2.32493 0
M  V30 6591 H 1063.24 -6.70197 -1.71129 0
M  V30 6592 H 1064.11 -7.03551 -4.13168 0
M  V30 6593 P 1068.07 -7.20834 -5.23717 0
M  V30 6594 O 1068.29 -7.80006 -6.57415 0
M  V30 6595 O 1068.86 -7.79416 -4.13051 0
M  V30 6596 O 1068.32 -5.63315 -5.29344 0
M  V30 6597 C 1067.38 -4.80318 -6.01954 0
M  V30 6598 C 1068.11 -3.64202 -6.65911 0
M  V30 6599 O 1068.32 -2.60736 -5.64823 0
M  V30 6600 C 1069.51 -3.93521 -7.19518 0
M  V30 6601 O 1069.9 -3.02071 -8.21205 0
M  V30 6602 C 1070.39 -3.73047 -5.97036 0
M  V30 6603 C 1069.68 -2.58828 -5.25741 0
M  V30 6604 N 1069.73 -2.68068 -3.77503 0
M  V30 6605 H 1066.9 -5.40394 -6.8003 0
M  V30 6606 H 1066.62 -4.41741 -5.32532 0
M  V30 6607 H 1067.49 -3.26371 -7.47889 0
M  V30 6608 H 1070.15 -1.64007 -5.56746 0
M  V30 6609 H 1070.43 -4.63439 -5.3432 0
M  V30 6610 H 1071.42 -3.44776 -6.25925 0
M  V30 6611 H 1069.58 -4.96707 -7.57347 0
M  V30 6612 P 1071.45 -2.75334 -8.47391 0
M  V30 6613 O 1071.67 -2.44571 -9.90142 0
M  V30 6614 O 1072.24 -3.87688 -7.92115 0
M  V30 6615 O 1071.7 -1.4459 -7.59357 0
M  V30 6616 C 1070.76 -0.347608 -7.69215 0
M  V30 6617 C 1071.49 0.96767 -7.52806 0
M  V30 6618 O 1071.7 1.21036 -6.1011 0
M  V30 6619 C 1072.89 1.04544 -8.13308 0
M  V30 6620 O 1073.28 2.38311 -8.41922 0
M  V30 6621 C 1073.77 0.491279 -7.02284 0
M  V30 6622 C 1073.06 0.996264 -5.77469 0
M  V30 6623 N 1073.11 0.0501916 -4.62973 0
M  V30 6624 H 1070.27 -0.374722 -8.67691 0
M  V30 6625 H 1070 -0.443485 -6.90277 0
M  V30 6626 H 1070.87 1.75537 -7.96793 0
M  V30 6627 P 1074.83 2.75334 -8.47391 0
M  V30 6628 O 1075.05 3.84128 -9.44797 0
M  V30 6629 O 1075.62 1.51947 -8.68712 0
M  V30 6630 O 1075.08 3.29363 -6.99321 0
M  V30 6631 C 1074.14 4.24011 -6.4274 0
M  V30 6632 C 1074.87 5.20775 -5.52155 0
M  V30 6633 O 1075.08 4.56534 -4.22446 0
M  V30 6634 C 1076.27 5.62629 -5.96531 0
M  V30 6635 O 1076.66 6.87667 -5.41053 0
M  V30 6636 C 1077.15 4.52537 -5.39283 0
M  V30 6637 C 1076.44 4.20027 -4.08623 0
M  V30 6638 N 1076.49 2.76189 -3.71603 0
M  V30 6639 H 1073.65 4.797 -7.24003 0
M  V30 6640 H 1073.38 3.69856 -5.84513 0
M  V30 6641 H 1074.25 6.10356 -5.41441 0
M  V30 6642 P 1078.21 7.20834 -5.23717 0
M  V30 6643 O 1078.43 8.66104 -5.38572 0
M  V30 6644 O 1079 6.33544 -6.1349 0
M  V30 6645 O 1078.46 6.7751 -3.72168 0
M  V30 6646 C 1077.52 7.20825 -2.7076 0
M  V30 6647 C 1078.25 7.45864 -1.40599 0
M  V30 6648 O 1078.46 6.17651 -0.734225 0
M  V30 6649 C 1079.65 8.05808 -1.51899 0
M  V30 6650 O 1080.04 8.74358 -0.335205 0
M  V30 6651 C 1080.53 6.83093 -1.70294 0
M  V30 6652 C 1079.82 5.79992 -0.836974 0
M  V30 6653 N 1079.87 4.41864 -1.38293 0
M  V30 6654 H 1077.03 8.13644 -3.0377 0
M  V30 6655 H 1076.76 6.42788 -2.55485 0
M  V30 6656 H 1077.63 8.12039 -0.792769 0
M  V30 6657 P 1081.59 8.91 8.287e-12 0
M  V30 6658 O 1081.81 10.1726 0.733694 0
M  V30 6659 O 1082.38 8.73148 -1.23936 0
M  V30 6660 O 1081.84 7.66872 0.971405 0
M  V30 6661 C 1080.9 7.42309 2.04641 0
M  V30 6662 C 1081.63 6.86059 3.24661 0
M  V30 6663 O 1081.84 5.42847 3.03646 0
M  V30 6664 C 1083.03 7.41196 3.50753 0
M  V30 6665 O 1083.42 7.27073 4.86816 0
M  V30 6666 C 1083.91 6.5273 2.63741 0
M  V30 6667 C 1083.2 5.1842 2.73198 0
M  V30 6668 N 1083.25 4.38762 1.4784 0
M  V30 6669 C 1083.17 4.81605 0.168631 0
M  V30 6670 N 1083.25 3.85454 -0.713363 0
M  V30 6671 C 1083.39 2.6994 0.0566958 0
M  V30 6672 C 1083.52 1.34815 -0.338502 0
M  V30 6673 N 1083.64 0.496304 0.77465 0
M  V30 6674 C 1083.64 0.908403 2.09122 0
M  V30 6675 N 1083.77 -0.0517805 3.00955 0
M  V30 6676 N 1083.51 2.17875 2.46519 0
M  V30 6677 C 1083.39 3.01988 1.4033 0
M  V30 6678 H 1080.41 8.36803 2.32493 0
M  V30 6679 H 1080.14 6.70197 1.71129 0
M  V30 6680 H 1081.01 7.03551 4.13168 0
M  V30 6681 P 1084.97 7.20834 5.23717 0
M  V30 6682 O 1085.19 7.80006 6.57415 0
M  V30 6683 O 1085.76 7.79416 4.13051 0
M  V30 6684 O 1085.22 5.63315 5.29344 0
M  V30 6685 C 1084.28 4.80318 6.01954 0
M  V30 6686 C 1085.01 3.64202 6.65911 0
M  V30 6687 O 1085.22 2.60736 5.64823 0
M  V30 6688 C 1086.41 3.93521 7.19518 0
M  V30 6689 O 1086.8 3.02071 8.21205 0
M  V30 6690 C 1087.29 3.73047 5.97036 0
M  V30 6691 C 1086.58 2.58828 5.25741 0
M  V30 6692 N 1086.63 2.68068 3.77503 0
M  V30 6693 H 1083.8 5.40394 6.8003 0
M  V30 6694 H 1083.52 4.41741 5.32532 0
M  V30 6695 H 1084.39 3.26371 7.47889 0
M  V30 6696 H 1087.05 1.64007 5.56746 0
M  V30 6697 H 1087.33 4.63439 5.3432 0
M  V30 6698 H 1088.32 3.44776 6.25925 0
M  V30 6699 H 1086.48 4.96707 7.57347 0
M  V30 6700 P 1088.35 2.75334 8.47391 0
M  V30 6701 O 1088.57 2.44571 9.90142 0
M  V30 6702 O 1089.14 3.87688 7.92115 0
M  V30 6703 O 1088.6 1.4459 7.59357 0
M  V30 6704 C 1087.66 0.347608 7.69215 0
M  V30 6705 C 1088.39 -0.96767 7.52806 0
M  V30 6706 O 1088.6 -1.21036 6.1011 0
M  V30 6707 C 1089.79 -1.04544 8.13308 0
M  V30 6708 O 1090.18 -2.38311 8.41922 0
M  V30 6709 C 1090.67 -0.491279 7.02284 0
M  V30 6710 C 1089.96 -0.996264 5.77469 0
M  V30 6711 N 1090.01 -0.0501916 4.62973 0
M  V30 6712 H 1087.17 0.374722 8.67691 0
M  V30 6713 H 1086.9 0.443485 6.90277 0
M  V30 6714 H 1087.77 -1.75537 7.96793 0
M  V30 6715 P 1091.73 -2.75334 8.47391 0
M  V30 6716 O 1091.95 -3.84128 9.44797 0
M  V30 6717 O 1092.52 -1.51947 8.68712 0
M  V30 6718 O 1091.98 -3.29363 6.99321 0
M  V30 6719 C 1091.04 -4.24011 6.4274 0
M  V30 6720 C 1091.77 -5.20775 5.52155 0
M  V30 6721 O 1091.98 -4.56534 4.22446 0
M  V30 6722 C 1093.17 -5.62629 5.96531 0
M  V30 6723 O 1093.56 -6.87667 5.41053 0
M  V30 6724 C 1094.05 -4.52537 5.39283 0
M  V30 6725 C 1093.34 -4.20027 4.08623 0
M  V30 6726 N 1093.39 -2.76189 3.71603 0
M  V30 6727 H 1090.55 -4.797 7.24003 0
M  V30 6728 H 1090.28 -3.69856 5.84513 0
M  V30 6729 H 1091.15 -6.10356 5.41441 0
M  V30 6730 P 1095.11 -7.20834 5.23717 0
M  V30 6731 O 1095.33 -8.66104 5.38572 0
M  V30 6732 O 1095.9 -6.33544 6.1349 0
M  V30 6733 O 1095.36 -6.7751 3.72168 0
M  V30 6734 C 1094.42 -7.20825 2.7076 0
M  V30 6735 C 1095.15 -7.45864 1.40599 0
M  V30 6736 O 1095.36 -6.17651 0.734225 0
M  V30 6737 C 1096.55 -8.05808 1.51899 0
M  V30 6738 O 1096.94 -8.74358 0.335205 0
M  V30 6739 C 1097.43 -6.83093 1.70294 0
M  V30 6740 C 1096.72 -5.79992 0.836974 0
M  V30 6741 N 1096.77 -4.41864 1.38293 0
M  V30 6742 H 1093.93 -8.13644 3.0377 0
M  V30 6743 H 1093.66 -6.42788 2.55485 0
M  V30 6744 H 1094.53 -8.12039 0.792769 0
M  V30 6745 P 1098.49 -8.91 -8.44418e-12 0
M  V30 6746 O 1098.71 -10.1726 -0.733694 0
M  V30 6747 O 1099.28 -8.73148 1.23936 0
M  V30 6748 O 1098.74 -7.66872 -0.971405 0
M  V30 6749 C 1097.8 -7.42309 -2.04641 0
M  V30 6750 C 1098.53 -6.86059 -3.24661 0
M  V30 6751 O 1098.74 -5.42847 -3.03646 0
M  V30 6752 C 1099.93 -7.41196 -3.50753 0
M  V30 6753 O 1100.32 -7.27073 -4.86816 0
M  V30 6754 C 1100.81 -6.5273 -2.63741 0
M  V30 6755 C 1100.1 -5.1842 -2.73198 0
M  V30 6756 N 1100.15 -4.38762 -1.4784 0
M  V30 6757 H 1097.31 -8.36803 -2.32493 0
M  V30 6758 H 1097.04 -6.70197 -1.71129 0
M  V30 6759 H 1097.91 -7.03551 -4.13168 0
M  V30 6760 P 1101.87 -7.20834 -5.23717 0
M  V30 6761 O 1102.09 -7.79853 -6.57286 0
M  V30 6762 O 1102.66 -7.79239 -4.12957 0
M  V30 6763 O 1102.12 -5.63315 -5.29344 0
M  V30 6764 C 1101.18 -4.80255 -6.01876 0
M  V30 6765 C 1101.91 -3.64202 -6.65911 0
M  V30 6766 O 1102.12 -2.60694 -5.64732 0
M  V30 6767 C 1103.31 -3.93473 -7.1943 0
M  V30 6768 O 1103.7 -3.02071 -8.21205 0
M  V30 6769 C 1104.19 -3.73047 -5.97036 0
M  V30 6770 C 1103.48 -2.58828 -5.25741 0
M  V30 6771 N 1103.53 -2.68068 -3.77503 0
M  V30 6772 H 1100.69 -5.40332 -6.79951 0
M  V30 6773 H 1100.42 -4.41613 -5.32378 0
M  V30 6774 H 1101.29 -3.26331 -7.47797 0
M  V30 6775 P 1105.25 -2.75334 -8.47391 0
M  V30 6776 O 1105.47 -2.44571 -9.90142 0
M  V30 6777 O 1106.04 -3.87688 -7.92115 0
M  V30 6778 O 1105.5 -1.4459 -7.59357 0
M  V30 6779 C 1104.56 -0.347608 -7.69215 0
M  V30 6780 C 1105.29 0.96767 -7.52806 0
M  V30 6781 O 1105.5 1.21036 -6.1011 0
M  V30 6782 C 1106.69 1.04544 -8.13308 0
M  V30 6783 O 1107.08 2.38311 -8.41922 0
M  V30 6784 C 1107.57 0.491279 -7.02284 0
M  V30 6785 C 1106.86 0.996264 -5.77469 0
M  V30 6786 N 1106.91 0.0501916 -4.62973 0
M  V30 6787 H 1104.07 -0.374722 -8.67691 0
M  V30 6788 H 1103.8 -0.443485 -6.90277 0
M  V30 6789 H 1104.67 1.75537 -7.96793 0
M  V30 6790 P 1108.63 2.75334 -8.47391 0
M  V30 6791 O 1108.85 3.84166 -9.4489 0
M  V30 6792 O 1109.42 1.51964 -8.6881 0
M  V30 6793 O 1108.88 3.29363 -6.99321 0
M  V30 6794 C 1107.94 4.23956 -6.42656 0
M  V30 6795 C 1108.67 5.20775 -5.52155 0
M  V30 6796 O 1108.88 4.56534 -4.22446 0
M  V30 6797 C 1110.07 5.62629 -5.96531 0
M  V30 6798 O 1110.46 6.87667 -5.41053 0
M  V30 6799 C 1110.95 4.52537 -5.39283 0
M  V30 6800 C 1110.24 4.20027 -4.08623 0
M  V30 6801 N 1110.29 2.7613 -3.71522 0
M  V30 6802 C 1110.44 2.45612 -2.37989 0
M  V30 6803 O 1110.53 3.30919 -1.51621 0
M  V30 6804 N 1110.48 1.10684 -2.08435 0
M  V30 6805 C 1110.39 0.0690084 -2.9792 0
M  V30 6806 C 1110.24 0.481522 -4.35345 0
M  V30 6807 C 1110.19 1.78906 -4.67968 0
M  V30 6808 H 1107.45 4.797 -7.24003 0
M  V30 6809 H 1107.18 3.69802 -5.84429 0
M  V30 6810 H 1108.05 6.10356 -5.41441 0
M  V30 6811 H 1110.71 4.78651 -3.27911 0
M  V30 6812 H 1110.99 3.64957 -6.05871 0
M  V30 6813 H 1111.98 4.8868 -5.2125 0
M  V30 6814 H 1110.14 5.66726 -7.06352 0
M  V30 6815 H 1110.07 2.07737 -5.72367 0
M  V30 6816 P 1112.01 7.20834 -5.23717 0
M  V30 6817 O 1112.23 8.66274 -5.38678 0
M  V30 6818 O 1112.8 6.33687 -6.13629 0
M  V30 6819 O 1112.26 6.7751 -3.72168 0
M  V30 6820 C 1111.32 7.20919 -2.70795 0
M  V30 6821 C 1112.05 7.45864 -1.40599 0
M  V30 6822 O 1112.26 6.17751 -0.734343 0
M  V30 6823 C 1113.45 8.05906 -1.51917 0
M  V30 6824 O 1113.84 8.74358 -0.335205 0
M  V30 6825 C 1114.33 6.83093 -1.70294 0
M  V30 6826 C 1113.62 5.79992 -0.836974 0
M  V30 6827 N 1113.67 4.41864 -1.38293 0
M  V30 6828 C 1113.59 4.02089 -2.69407 0
M  V30 6829 N 1113.66 2.73403 -2.85089 0
M  V30 6830 C 1113.81 2.25086 -1.5642 0
M  V30 6831 C 1113.94 0.942887 -1.04836 0
M  V30 6832 N 1113.95 -0.150999 -1.80369 0
M  V30 6833 N 1114.06 0.812565 0.28167 0
M  V30 6834 C 1114.05 1.90572 1.03784 0
M  V30 6835 N 1113.93 3.167 0.683905 0
M  V30 6836 C 1113.81 3.26538 -0.652815 0
M  V30 6837 H 1110.84 8.13738 -3.03804 0
M  V30 6838 H 1110.56 6.42974 -2.55559 0
M  V30 6839 H 1111.43 8.12139 -0.792866 0
M  V30 6840 H 1114.09 5.80178 0.160643 0
M  V30 6841 H 1114.37 6.51379 -2.75643 0
M  V30 6842 H 1115.36 7.01832 -1.3448 0
M  V30 6843 H 1113.52 8.73771 -2.38364 0
M  V30 6844 H 1113.48 4.7189 -3.52311 0
M  V30 6845 H 1113.86 -0.0721434 -2.82608 0
M  V30 6846 H 1114.05 -1.0785 -1.36544 0
M  V30 6847 H 1114.16 1.73207 2.10241 0
M  V30 6848 P 1115.39 8.91 8.60137e-12 0
M  V30 6849 O 1115.61 10.1726 0.733694 0
M  V30 6850 O 1116.18 8.73148 -1.23936 0
M  V30 6851 O 1115.64 7.66872 0.971405 0
M  V30 6852 C 1114.7 7.42309 2.04641 0
M  V30 6853 C 1115.43 6.86059 3.24661 0
M  V30 6854 O 1115.64 5.42847 3.03646 0
M  V30 6855 C 1116.83 7.41196 3.50753 0
M  V30 6856 O 1117.22 7.27073 4.86816 0
M  V30 6857 C 1117.71 6.5273 2.63741 0
M  V30 6858 C 1117 5.1842 2.73198 0
M  V30 6859 N 1117.05 4.38762 1.4784 0
M  V30 6860 H 1114.21 8.36803 2.32493 0
M  V30 6861 H 1113.94 6.70197 1.71129 0
M  V30 6862 H 1114.81 7.03551 4.13168 0
M  V30 6863 P 1118.77 7.20834 5.23717 0
M  V30 6864 O 1118.99 7.79853 6.57286 0
M  V30 6865 O 1119.56 7.79239 4.12957 0
M  V30 6866 O 1119.02 5.63315 5.29344 0
M  V30 6867 C 1118.08 4.80255 6.01876 0
M  V30 6868 C 1118.81 3.64202 6.65911 0
M  V30 6869 O 1119.02 2.60694 5.64732 0
M  V30 6870 C 1120.21 3.93473 7.1943 0
M  V30 6871 O 1120.6 3.02071 8.21205 0
M  V30 6872 C 1121.09 3.73047 5.97036 0
M  V30 6873 C 1120.38 2.58828 5.25741 0
M  V30 6874 N 1120.43 2.68068 3.77503 0
M  V30 6875 H 1117.59 5.40332 6.79951 0
M  V30 6876 H 1117.32 4.41613 5.32378 0
M  V30 6877 H 1118.19 3.26331 7.47797 0
M  V30 6878 P 1122.15 2.75334 8.47391 0
M  V30 6879 O 1122.37 2.44571 9.90142 0
M  V30 6880 O 1122.94 3.87688 7.92115 0
M  V30 6881 O 1122.4 1.4459 7.59357 0
M  V30 6882 C 1121.46 0.347608 7.69215 0
M  V30 6883 C 1122.19 -0.96767 7.52806 0
M  V30 6884 O 1122.4 -1.21036 6.1011 0
M  V30 6885 C 1123.59 -1.04544 8.13308 0
M  V30 6886 O 1123.98 -2.38311 8.41922 0
M  V30 6887 C 1124.47 -0.491279 7.02284 0
M  V30 6888 C 1123.76 -0.996264 5.77469 0
M  V30 6889 N 1123.81 -0.0501916 4.62973 0
M  V30 6890 H 1120.97 0.374722 8.67691 0
M  V30 6891 H 1120.7 0.443485 6.90277 0
M  V30 6892 H 1121.57 -1.75537 7.96793 0
M  V30 6893 P 1125.53 -2.75334 8.47391 0
M  V30 6894 O 1125.75 -3.84128 9.44797 0
M  V30 6895 O 1126.32 -1.51947 8.68712 0
M  V30 6896 O 1125.78 -3.29363 6.99321 0
M  V30 6897 C 1124.84 -4.24011 6.4274 0
M  V30 6898 C 1125.57 -5.20775 5.52155 0
M  V30 6899 O 1125.78 -4.56534 4.22446 0
M  V30 6900 C 1126.97 -5.62629 5.96531 0
M  V30 6901 O 1127.36 -6.87667 5.41053 0
M  V30 6902 C 1127.85 -4.52537 5.39283 0
M  V30 6903 C 1127.14 -4.20027 4.08623 0
M  V30 6904 N 1127.19 -2.76189 3.71603 0
M  V30 6905 H 1124.35 -4.797 7.24003 0
M  V30 6906 H 1124.08 -3.69856 5.84513 0
M  V30 6907 H 1124.95 -6.10356 5.41441 0
M  V30 6908 P 1128.91 -7.20834 5.23717 0
M  V30 6909 O 1129.13 -8.66104 5.38572 0
M  V30 6910 O 1129.7 -6.33544 6.1349 0
M  V30 6911 O 1129.16 -6.7751 3.72168 0
M  V30 6912 C 1128.22 -7.20825 2.7076 0
M  V30 6913 C 1128.95 -7.45864 1.40599 0
M  V30 6914 O 1129.16 -6.17651 0.734225 0
M  V30 6915 C 1130.35 -8.05808 1.51899 0
M  V30 6916 O 1130.74 -8.74358 0.335205 0
M  V30 6917 C 1131.23 -6.83093 1.70294 0
M  V30 6918 C 1130.52 -5.79992 0.836974 0
M  V30 6919 N 1130.57 -4.41864 1.38293 0
M  V30 6920 H 1127.73 -8.13644 3.0377 0
M  V30 6921 H 1127.46 -6.42788 2.55485 0
M  V30 6922 H 1128.33 -8.12039 0.792769 0
M  V30 6923 P 1132.29 -8.91 -8.75855e-12 0
M  V30 6924 O 1132.51 -10.1726 -0.733694 0
M  V30 6925 O 1133.08 -8.73148 1.23936 0
M  V30 6926 O 1132.54 -7.66872 -0.971405 0
M  V30 6927 C 1131.6 -7.42309 -2.04641 0
M  V30 6928 C 1132.33 -6.86059 -3.24661 0
M  V30 6929 O 1132.54 -5.42847 -3.03646 0
M  V30 6930 C 1133.73 -7.41196 -3.50753 0
M  V30 6931 O 1134.12 -7.27073 -4.86816 0
M  V30 6932 C 1134.61 -6.5273 -2.63741 0
M  V30 6933 C 1133.9 -5.1842 -2.73198 0
M  V30 6934 N 1133.95 -4.38762 -1.4784 0
M  V30 6935 H 1131.11 -8.36803 -2.32493 0
M  V30 6936 H 1130.84 -6.70197 -1.71129 0
M  V30 6937 H 1131.71 -7.03551 -4.13168 0
M  V30 6938 P 1135.67 -7.20834 -5.23717 0
M  V30 6939 O 1135.89 -7.79853 -6.57286 0
M  V30 6940 O 1136.46 -7.79239 -4.12957 0
M  V30 6941 O 1135.92 -5.63315 -5.29344 0
M  V30 6942 C 1134.98 -4.80255 -6.01876 0
M  V30 6943 C 1135.71 -3.64202 -6.65911 0
M  V30 6944 O 1135.92 -2.60694 -5.64732 0
M  V30 6945 C 1137.11 -3.93473 -7.1943 0
M  V30 6946 O 1137.5 -3.02071 -8.21205 0
M  V30 6947 C 1137.99 -3.73047 -5.97036 0
M  V30 6948 C 1137.28 -2.58828 -5.25741 0
M  V30 6949 N 1137.33 -2.68068 -3.77503 0
M  V30 6950 H 1134.49 -5.40332 -6.79951 0
M  V30 6951 H 1134.22 -4.41613 -5.32378 0
M  V30 6952 H 1135.09 -3.26331 -7.47797 0
M  V30 6953 P 1139.05 -2.75334 -8.47391 0
M  V30 6954 O 1139.27 -2.44595 -9.90239 0
M  V30 6955 O 1139.84 -3.87732 -7.92204 0
M  V30 6956 O 1139.3 -1.4459 -7.59357 0
M  V30 6957 C 1138.36 -0.347563 -7.69115 0
M  V30 6958 C 1139.09 0.96767 -7.52806 0
M  V30 6959 O 1139.3 1.21036 -6.1011 0
M  V30 6960 C 1140.49 1.04544 -8.13308 0
M  V30 6961 O 1140.88 2.38311 -8.41922 0
M  V30 6962 C 1141.37 0.491279 -7.02284 0
M  V30 6963 C 1140.66 0.996264 -5.77469 0
M  V30 6964 N 1140.71 0.0501808 -4.62873 0
M  V30 6965 C 1140.86 0.588177 -3.36904 0
M  V30 6966 O 1140.95 1.78598 -3.17173 0
M  V30 6967 N 1140.9 -0.329694 -2.33686 0
M  V30 6968 C 1140.81 -1.6953 -2.45079 0
M  V30 6969 C 1140.66 -2.16933 -3.80505 0
M  V30 6970 C 1140.61 -1.30326 -4.83752 0
M  V30 6971 H 1137.87 -0.374722 -8.67691 0
M  V30 6972 H 1137.6 -0.443421 -6.90177 0
M  V30 6973 H 1138.47 1.75537 -7.96793 0
M  V30 6974 H 1141.13 1.94496 -5.46629 0
M  V30 6975 H 1141.41 -0.608651 -7.04676 0
M  V30 6976 H 1142.4 0.889672 -7.08939 0
M  V30 6977 H 1140.56 0.43308 -9.04564 0
M  V30 6978 H 1140.49 -1.68366 -5.8516 0
M  V30 6979 P 1142.43 2.75334 -8.47391 0
M  V30 6980 O 1142.65 3.84128 -9.44797 0
M  V30 6981 O 1143.22 1.51947 -8.68712 0
M  V30 6982 O 1142.68 3.29363 -6.99321 0
M  V30 6983 C 1141.74 4.24011 -6.4274 0
M  V30 6984 C 1142.47 5.20775 -5.52155 0
M  V30 6985 O 1142.68 4.56534 -4.22446 0
M  V30 6986 C 1143.87 5.62629 -5.96531 0
M  V30 6987 O 1144.26 6.87667 -5.41053 0
M  V30 6988 C 1144.75 4.52537 -5.39283 0
M  V30 6989 C 1144.04 4.20027 -4.08623 0
M  V30 6990 N 1144.09 2.76189 -3.71603 0
M  V30 6991 H 1141.25 4.797 -7.24003 0
M  V30 6992 H 1140.98 3.69856 -5.84513 0
M  V30 6993 H 1141.85 6.10356 -5.41441 0
M  V30 6994 P 1145.81 7.20834 -5.23717 0
M  V30 6995 O 1146.03 8.66104 -5.38572 0
M  V30 6996 O 1146.6 6.33544 -6.1349 0
M  V30 6997 O 1146.06 6.7751 -3.72168 0
M  V30 6998 C 1145.12 7.20825 -2.7076 0
M  V30 6999 C 1145.85 7.45864 -1.40599 0
M  V30 7000 O 1146.06 6.17651 -0.734225 0
M  V30 7001 C 1147.25 8.05808 -1.51899 0
M  V30 7002 O 1147.64 8.74358 -0.335205 0
M  V30 7003 C 1148.13 6.83093 -1.70294 0
M  V30 7004 C 1147.42 5.79992 -0.836974 0
M  V30 7005 N 1147.47 4.41864 -1.38293 0
M  V30 7006 H 1144.63 8.13644 -3.0377 0
M  V30 7007 H 1144.36 6.42788 -2.55485 0
M  V30 7008 H 1145.23 8.12039 -0.792769 0
M  V30 7009 P 1149.19 8.91 8.91573e-12 0
M  V30 7010 O 1149.41 10.1736 0.733766 0
M  V30 7011 O 1149.98 8.73247 -1.2395 0
M  V30 7012 O 1149.44 7.66872 0.971405 0
M  V30 7013 C 1148.5 7.42212 2.04614 0
M  V30 7014 C 1149.23 6.86059 3.24661 0
M  V30 7015 O 1149.44 5.42847 3.03646 0
M  V30 7016 C 1150.63 7.41196 3.50753 0
M  V30 7017 O 1151.02 7.27073 4.86816 0
M  V30 7018 C 1151.51 6.5273 2.63741 0
M  V30 7019 C 1150.8 5.1842 2.73198 0
M  V30 7020 N 1150.85 4.38668 1.47808 0
M  V30 7021 C 1151 3.02239 1.60048 0
M  V30 7022 O 1151.09 2.46459 2.67869 0
M  V30 7023 N 1151.04 2.32436 0.408571 0
M  V30 7024 C 1150.95 2.85471 -0.854993 0
M  V30 7025 O 1151 2.12566 -1.8531 0
M  V30 7026 C 1150.8 4.28918 -0.887335 0
M  V30 7027 C 1150.69 4.91066 -2.24619 0
M  V30 7028 C 1150.75 5.00349 0.255399 0
M  V30 7029 H 1148.01 8.36803 2.32493 0
M  V30 7030 H 1147.74 6.701 1.71105 0
M  V30 7031 H 1148.61 7.03551 4.13168 0
M  V30 7032 H 1151.27 4.59773 3.53894 0
M  V30 7033 H 1151.55 6.88995 1.59871 0
M  V30 7034 H 1152.54 6.46749 3.03687 0
M  V30 7035 H 1150.7 8.46908 3.20714 0
M  V30 7036 H 1150.63 6.08548 0.206986 0
M  V30 7037 H 1151.66 5.34836 -2.53099 0
M  V30 7038 H 1149.93 5.69638 -2.2291 0
M  V30 7039 H 1150.41 4.13971 -2.98044 0
M  V30 7040 H 1151.15 1.33211 0.474216 0
M  V30 7041 P 1152.57 7.20834 5.23717 0
M  V30 7042 O 1152.79 7.79853 6.57286 0
M  V30 7043 O 1153.36 7.79239 4.12957 0
M  V30 7044 O 1152.82 5.63315 5.29344 0
M  V30 7045 C 1151.88 4.80255 6.01876 0
M  V30 7046 C 1152.61 3.64202 6.65911 0
M  V30 7047 O 1152.82 2.60694 5.64732 0
M  V30 7048 C 1154.01 3.93473 7.1943 0
M  V30 7049 O 1154.4 3.02071 8.21205 0
M  V30 7050 C 1154.89 3.73047 5.97036 0
M  V30 7051 C 1154.18 2.58828 5.25741 0
M  V30 7052 N 1154.23 2.68068 3.77503 0
M  V30 7053 H 1151.39 5.40332 6.79951 0
M  V30 7054 H 1151.12 4.41613 5.32378 0
M  V30 7055 H 1151.99 3.26331 7.47797 0
M  V30 7056 P 1155.95 2.75334 8.47391 0
M  V30 7057 O 1156.17 2.44595 9.90239 0
M  V30 7058 O 1156.74 3.87732 7.92204 0
M  V30 7059 O 1156.2 1.4459 7.59357 0
M  V30 7060 C 1155.26 0.347563 7.69115 0
M  V30 7061 C 1155.99 -0.96767 7.52806 0
M  V30 7062 O 1156.2 -1.21036 6.1011 0
M  V30 7063 C 1157.39 -1.04544 8.13308 0
M  V30 7064 O 1157.78 -2.38311 8.41922 0
M  V30 7065 C 1158.27 -0.491279 7.02284 0
M  V30 7066 C 1157.56 -0.996264 5.77469 0
M  V30 7067 N 1157.61 -0.0501808 4.62873 0
M  V30 7068 C 1157.76 -0.588177 3.36904 0
M  V30 7069 O 1157.85 -1.78598 3.17173 0
M  V30 7070 N 1157.8 0.329694 2.33686 0
M  V30 7071 C 1157.71 1.6953 2.45079 0
M  V30 7072 C 1157.56 2.16933 3.80505 0
M  V30 7073 C 1157.51 1.30326 4.83752 0
M  V30 7074 H 1154.77 0.374722 8.67691 0
M  V30 7075 H 1154.5 0.443421 6.90177 0
M  V30 7076 H 1155.37 -1.75537 7.96793 0
M  V30 7077 H 1158.03 -1.94496 5.46629 0
M  V30 7078 H 1158.31 0.608651 7.04676 0
M  V30 7079 H 1159.3 -0.889672 7.08939 0
M  V30 7080 H 1157.46 -0.43308 9.04564 0
M  V30 7081 H 1157.39 1.68366 5.8516 0
M  V30 7082 P 1159.33 -2.75334 8.47391 0
M  V30 7083 O 1159.55 -3.84204 9.44982 0
M  V30 7084 O 1160.12 -1.51982 8.68909 0
M  V30 7085 O 1159.58 -3.29363 6.99321 0
M  V30 7086 C 1158.64 -4.24066 6.42823 0
M  V30 7087 C 1159.37 -5.20775 5.52155 0
M  V30 7088 O 1159.58 -4.56607 4.22514 0
M  V30 7089 C 1160.77 -5.62697 5.96604 0
M  V30 7090 O 1161.16 -6.87667 5.41053 0
M  V30 7091 C 1161.65 -4.52537 5.39283 0
M  V30 7092 C 1160.94 -4.20027 4.08623 0
M  V30 7093 N 1160.99 -2.76189 3.71603 0
M  V30 7094 H 1158.16 -4.79756 7.24086 0
M  V30 7095 H 1157.88 -3.69963 5.84682 0
M  V30 7096 H 1158.75 -6.10431 5.41508 0
M  V30 7097 H 1161.41 -4.78816 3.28024 0
M  V30 7098 H 1161.69 -3.64957 6.05871 0
M  V30 7099 H 1162.68 -4.88748 5.21323 0
M  V30 7100 H 1160.84 -5.66789 7.0643 0
M  V30 7101 P 1162.71 -7.20834 5.23717 0
M  V30 7102 O 1162.93 -8.66104 5.38572 0
M  V30 7103 O 1163.5 -6.33544 6.1349 0
M  V30 7104 O 1162.96 -6.7751 3.72168 0
M  V30 7105 C 1162.02 -7.20825 2.7076 0
M  V30 7106 C 1162.75 -7.45864 1.40599 0
M  V30 7107 O 1162.96 -6.17651 0.734225 0
M  V30 7108 C 1164.15 -8.05808 1.51899 0
M  V30 7109 O 1164.54 -8.74358 0.335205 0
M  V30 7110 C 1165.03 -6.83093 1.70294 0
M  V30 7111 C 1164.32 -5.79992 0.836974 0
M  V30 7112 N 1164.37 -4.41864 1.38293 0
M  V30 7113 H 1161.53 -8.13644 3.0377 0
M  V30 7114 H 1161.26 -6.42788 2.55485 0
M  V30 7115 H 1162.13 -8.12039 0.792769 0
M  V30 7116 P 1166.09 -8.91 -9.07291e-12 0
M  V30 7117 O 1166.31 -10.1726 -0.733694 0
M  V30 7118 O 1166.88 -8.73148 1.23936 0
M  V30 7119 O 1166.34 -7.66872 -0.971405 0
M  V30 7120 C 1165.4 -7.42309 -2.04641 0
M  V30 7121 C 1166.13 -6.86059 -3.24661 0
M  V30 7122 O 1166.34 -5.42847 -3.03646 0
M  V30 7123 C 1167.53 -7.41196 -3.50753 0
M  V30 7124 O 1167.92 -7.27073 -4.86816 0
M  V30 7125 C 1168.41 -6.5273 -2.63741 0
M  V30 7126 C 1167.7 -5.1842 -2.73198 0
M  V30 7127 N 1167.75 -4.38762 -1.4784 0
M  V30 7128 H 1164.91 -8.36803 -2.32493 0
M  V30 7129 H 1164.64 -6.70197 -1.71129 0
M  V30 7130 H 1165.51 -7.03551 -4.13168 0
M  V30 7131 P 1169.47 -7.20834 -5.23717 0
M  V30 7132 O 1169.69 -7.79853 -6.57286 0
M  V30 7133 O 1170.26 -7.79239 -4.12957 0
M  V30 7134 O 1169.72 -5.63315 -5.29344 0
M  V30 7135 C 1168.78 -4.80255 -6.01876 0
M  V30 7136 C 1169.51 -3.64202 -6.65911 0
M  V30 7137 O 1169.72 -2.60694 -5.64732 0
M  V30 7138 C 1170.91 -3.93473 -7.1943 0
M  V30 7139 O 1171.3 -3.02071 -8.21205 0
M  V30 7140 C 1171.79 -3.73047 -5.97036 0
M  V30 7141 C 1171.08 -2.58828 -5.25741 0
M  V30 7142 N 1171.13 -2.68068 -3.77503 0
M  V30 7143 C 1171.05 -3.79715 -2.96723 0
M  V30 7144 N 1171.13 -3.5377 -1.68852 0
M  V30 7145 C 1171.27 -2.15054 -1.63254 0
M  V30 7146 C 1171.4 -1.28964 -0.518571 0
M  V30 7147 O 1171.42 -1.56826 0.679156 0
M  V30 7148 N 1171.52 0.0538097 -0.918425 0
M  V30 7149 C 1171.52 0.494275 -2.22578 0
M  V30 7150 N 1171.65 1.81086 -2.40434 0
M  V30 7151 N 1171.39 -0.313645 -3.27502 0
M  V30 7152 C 1171.27 -1.61829 -2.91033 0
M  V30 7153 H 1168.29 -5.40332 -6.79951 0
M  V30 7154 H 1168.02 -4.41613 -5.32378 0
M  V30 7155 H 1168.89 -3.26331 -7.47797 0
M  V30 7156 H 1171.55 -1.63422 -5.56814 0
M  V30 7157 H 1171.83 -4.63374 -5.34244 0
M  V30 7158 H 1172.82 -3.44728 -6.25838 0
M  V30 7159 H 1170.98 -4.96652 -7.57263 0
M  V30 7160 H 1170.93 -4.80617 -3.3614 0
M  V30 7161 H 1171.62 0.742702 -0.199384 0
M  V30 7162 H 1171.65 2.20598 -3.35588 0
M  V30 7163 H 1171.75 2.43518 -1.58945 0
M  V30 7164 P 1172.85 -2.75334 -8.47391 0
M  V30 7165 O 1173.07 -2.44571 -9.90142 0
M  V30 7166 O 1173.64 -3.87688 -7.92115 0
M  V30 7167 O 1173.1 -1.4459 -7.59357 0
M  V30 7168 C 1172.16 -0.347608 -7.69215 0
M  V30 7169 C 1172.89 0.96767 -7.52806 0
M  V30 7170 O 1173.1 1.21036 -6.1011 0
M  V30 7171 C 1174.29 1.04544 -8.13308 0
M  V30 7172 O 1174.68 2.38311 -8.41922 0
M  V30 7173 C 1175.17 0.491279 -7.02284 0
M  V30 7174 C 1174.46 0.996264 -5.77469 0
M  V30 7175 N 1174.51 0.0501916 -4.62973 0
M  V30 7176 H 1171.67 -0.374722 -8.67691 0
M  V30 7177 H 1171.4 -0.443485 -6.90277 0
M  V30 7178 H 1172.27 1.75537 -7.96793 0
M  V30 7179 P 1176.23 2.75334 -8.47391 0
M  V30 7180 O 1176.45 3.84128 -9.44797 0
M  V30 7181 O 1177.02 1.51947 -8.68712 0
M  V30 7182 O 1176.48 3.29363 -6.99321 0
M  V30 7183 C 1175.54 4.24011 -6.4274 0
M  V30 7184 C 1176.27 5.20775 -5.52155 0
M  V30 7185 O 1176.48 4.56534 -4.22446 0
M  V30 7186 C 1177.67 5.62629 -5.96531 0
M  V30 7187 O 1178.06 6.87667 -5.41053 0
M  V30 7188 C 1178.55 4.52537 -5.39283 0
M  V30 7189 C 1177.84 4.20027 -4.08623 0
M  V30 7190 N 1177.89 2.76189 -3.71603 0
M  V30 7191 H 1175.05 4.797 -7.24003 0
M  V30 7192 H 1174.78 3.69856 -5.84513 0
M  V30 7193 H 1175.65 6.10356 -5.41441 0
M  V30 7194 P 1179.61 7.20834 -5.23717 0
M  V30 7195 O 1179.83 8.66104 -5.38572 0
M  V30 7196 O 1180.4 6.33544 -6.1349 0
M  V30 7197 O 1179.86 6.7751 -3.72168 0
M  V30 7198 C 1178.92 7.20825 -2.7076 0
M  V30 7199 C 1179.65 7.45864 -1.40599 0
M  V30 7200 O 1179.86 6.17651 -0.734225 0
M  V30 7201 C 1181.05 8.05808 -1.51899 0
M  V30 7202 O 1181.44 8.74358 -0.335205 0
M  V30 7203 C 1181.93 6.83093 -1.70294 0
M  V30 7204 C 1181.22 5.79992 -0.836974 0
M  V30 7205 N 1181.27 4.41864 -1.38293 0
M  V30 7206 H 1178.43 8.13644 -3.0377 0
M  V30 7207 H 1178.16 6.42788 -2.55485 0
M  V30 7208 H 1179.03 8.12039 -0.792769 0
M  V30 7209 P 1182.99 8.91 9.23009e-12 0
M  V30 7210 O 1183.21 10.1726 0.733694 0
M  V30 7211 O 1183.78 8.73148 -1.23936 0
M  V30 7212 O 1183.24 7.66872 0.971405 0
M  V30 7213 C 1182.3 7.42309 2.04641 0
M  V30 7214 C 1183.03 6.86059 3.24661 0
M  V30 7215 O 1183.24 5.42847 3.03646 0
M  V30 7216 C 1184.43 7.41196 3.50753 0
M  V30 7217 O 1184.82 7.27073 4.86816 0
M  V30 7218 C 1185.31 6.5273 2.63741 0
M  V30 7219 C 1184.6 5.1842 2.73198 0
M  V30 7220 N 1184.65 4.38762 1.4784 0
M  V30 7221 H 1181.81 8.36803 2.32493 0
M  V30 7222 H 1181.54 6.70197 1.71129 0
M  V30 7223 H 1182.41 7.03551 4.13168 0
M  V30 7224 P 1186.37 7.20834 5.23717 0
M  V30 7225 O 1186.59 7.79853 6.57286 0
M  V30 7226 O 1187.16 7.79239 4.12957 0
M  V30 7227 O 1186.62 5.63315 5.29344 0
M  V30 7228 C 1185.68 4.80255 6.01876 0
M  V30 7229 C 1186.41 3.64202 6.65911 0
M  V30 7230 O 1186.62 2.60694 5.64732 0
M  V30 7231 C 1187.81 3.93473 7.1943 0
M  V30 7232 O 1188.2 3.02071 8.21205 0
M  V30 7233 C 1188.69 3.73047 5.97036 0
M  V30 7234 C 1187.98 2.58828 5.25741 0
M  V30 7235 N 1188.03 2.68068 3.77503 0
M  V30 7236 H 1185.19 5.40332 6.79951 0
M  V30 7237 H 1184.92 4.41613 5.32378 0
M  V30 7238 H 1185.79 3.26331 7.47797 0
M  V30 7239 P 1189.75 2.75334 8.47391 0
M  V30 7240 O 1189.97 2.44571 9.90142 0
M  V30 7241 O 1190.54 3.87688 7.92115 0
M  V30 7242 O 1190 1.4459 7.59357 0
M  V30 7243 C 1189.06 0.347608 7.69215 0
M  V30 7244 C 1189.79 -0.96767 7.52806 0
M  V30 7245 O 1190 -1.21036 6.1011 0
M  V30 7246 C 1191.19 -1.04544 8.13308 0
M  V30 7247 O 1191.58 -2.38311 8.41922 0
M  V30 7248 C 1192.07 -0.491279 7.02284 0
M  V30 7249 C 1191.36 -0.996264 5.77469 0
M  V30 7250 N 1191.41 -0.0501916 4.62973 0
M  V30 7251 H 1188.57 0.374722 8.67691 0
M  V30 7252 H 1188.3 0.443485 6.90277 0
M  V30 7253 H 1189.17 -1.75537 7.96793 0
M  V30 7254 P 1193.13 -2.75334 8.47391 0
M  V30 7255 O 1193.35 -3.84128 9.44797 0
M  V30 7256 O 1193.92 -1.51947 8.68712 0
M  V30 7257 O 1193.38 -3.29363 6.99321 0
M  V30 7258 C 1192.44 -4.24011 6.4274 0
M  V30 7259 C 1193.17 -5.20775 5.52155 0
M  V30 7260 O 1193.38 -4.56534 4.22446 0
M  V30 7261 C 1194.57 -5.62629 5.96531 0
M  V30 7262 O 1194.96 -6.87667 5.41053 0
M  V30 7263 C 1195.45 -4.52537 5.39283 0
M  V30 7264 C 1194.74 -4.20027 4.08623 0
M  V30 7265 N 1194.79 -2.76189 3.71603 0
M  V30 7266 H 1191.95 -4.797 7.24003 0
M  V30 7267 H 1191.68 -3.69856 5.84513 0
M  V30 7268 H 1192.55 -6.10356 5.41441 0
M  V30 7269 P 1196.51 -7.20834 5.23717 0
M  V30 7270 O 1196.73 -8.66104 5.38572 0
M  V30 7271 O 1197.3 -6.33544 6.1349 0
M  V30 7272 O 1196.76 -6.7751 3.72168 0
M  V30 7273 C 1195.82 -7.20825 2.7076 0
M  V30 7274 C 1196.55 -7.45864 1.40599 0
M  V30 7275 O 1196.76 -6.17651 0.734225 0
M  V30 7276 C 1197.95 -8.05808 1.51899 0
M  V30 7277 O 1198.34 -8.74358 0.335205 0
M  V30 7278 C 1198.83 -6.83093 1.70294 0
M  V30 7279 C 1198.12 -5.79992 0.836974 0
M  V30 7280 N 1198.17 -4.41864 1.38293 0
M  V30 7281 C 1198.09 -3.99538 2.69438 0
M  V30 7282 N 1198.17 -2.69909 2.84277 0
M  V30 7283 C 1198.31 -2.21719 1.5408 0
M  V30 7284 C 1198.44 -0.891712 1.06628 0
M  V30 7285 O 1198.46 0.161298 1.70137 0
M  V30 7286 N 1198.56 -0.856846 -0.334985 0
M  V30 7287 C 1198.56 -1.9641 -1.15789 0
M  V30 7288 N 1198.69 -1.72708 -2.46522 0
M  V30 7289 N 1198.43 -3.21165 -0.713741 0
M  V30 7290 C 1198.31 -3.26797 0.639748 0
M  V30 7291 H 1195.33 -8.13644 3.0377 0
M  V30 7292 H 1195.06 -6.42788 2.55485 0
M  V30 7293 H 1195.93 -8.12039 0.792769 0
M  V30 7294 H 1198.59 -5.80061 -0.166416 0
M  V30 7295 H 1198.86 -6.51287 2.75604 0
M  V30 7296 H 1199.86 -7.01734 1.34462 0
M  V30 7297 H 1198.02 -8.73674 2.38337 0
M  V30 7298 H 1197.97 -4.68207 3.53221 0
M  V30 7299 H 1198.66 0.0398818 -0.767965 0
M  V30 7300 H 1198.69 -2.50995 -3.13503 0
M  V30 7301 H 1198.79 -0.759148 -2.80716 0
M  V30 7302 P 1199.89 -8.91 -9.38728e-12 0
M  V30 7303 O 1200.11 -10.1726 -0.733694 0
M  V30 7304 O 1200.68 -8.73148 1.23936 0
M  V30 7305 O 1200.14 -7.66872 -0.971405 0
M  V30 7306 C 1199.2 -7.42309 -2.04641 0
M  V30 7307 C 1199.93 -6.86059 -3.24661 0
M  V30 7308 O 1200.14 -5.42847 -3.03646 0
M  V30 7309 C 1201.33 -7.41196 -3.50753 0
M  V30 7310 O 1201.72 -7.27073 -4.86816 0
M  V30 7311 C 1202.21 -6.5273 -2.63741 0
M  V30 7312 C 1201.5 -5.1842 -2.73198 0
M  V30 7313 N 1201.55 -4.38762 -1.4784 0
M  V30 7314 H 1198.71 -8.36803 -2.32493 0
M  V30 7315 H 1198.44 -6.70197 -1.71129 0
M  V30 7316 H 1199.31 -7.03551 -4.13168 0
M  V30 7317 P 1203.27 -7.20834 -5.23717 0
M  V30 7318 O 1203.49 -7.7993 -6.57351 0
M  V30 7319 O 1204.06 -7.79328 -4.13004 0
M  V30 7320 O 1203.52 -5.63315 -5.29344 0
M  V30 7321 C 1202.58 -4.80193 -6.01798 0
M  V30 7322 C 1203.31 -3.64202 -6.65911 0
M  V30 7323 O 1203.52 -2.60694 -5.64732 0
M  V30 7324 C 1204.71 -3.93473 -7.1943 0
M  V30 7325 O 1205.1 -3.02071 -8.21205 0
M  V30 7326 C 1205.59 -3.73047 -5.97036 0
M  V30 7327 C 1204.88 -2.58828 -5.25741 0
M  V30 7328 N 1204.93 -2.6801 -3.77422 0
M  V30 7329 C 1205.08 -1.50443 -3.07133 0
M  V30 7330 O 1205.17 -0.419406 -3.61576 0
M  V30 7331 N 1205.12 -1.6403 -1.69677 0
M  V30 7332 C 1205.03 -2.81206 -0.986255 0
M  V30 7333 O 1205.08 -2.80892 0.249754 0
M  V30 7334 C 1204.88 -3.99158 -1.80325 0
M  V30 7335 C 1204.77 -5.29309 -1.06921 0
M  V30 7336 C 1204.83 -3.89779 -3.1476 0
M  V30 7337 H 1202.09 -5.40332 -6.79951 0
M  V30 7338 H 1201.82 -4.41549 -5.32301 0
M  V30 7339 H 1202.69 -3.26331 -7.47797 0
M  V30 7340 H 1205.35 -1.6395 -5.56554 0
M  V30 7341 H 1205.62 -4.63439 -5.3432 0
M  V30 7342 H 1206.62 -3.44728 -6.25838 0
M  V30 7343 H 1204.78 -4.96652 -7.57263 0
M  V30 7344 H 1204.71 -4.80159 -3.74441 0
M  V30 7345 H 1205.74 -5.81459 -1.09608 0
M  V30 7346 H 1204 -5.9187 -1.54487 0
M  V30 7347 H 1204.49 -5.10095 -0.0220288 0
M  V30 7348 H 1205.23 -0.798962 -1.16664 0
M  V30 7349 P 1206.65 -2.75334 -8.47391 0
M  V30 7350 O 1206.87 -2.44571 -9.90142 0
M  V30 7351 O 1207.44 -3.87688 -7.92115 0
M  V30 7352 O 1206.9 -1.4459 -7.59357 0
M  V30 7353 C 1205.96 -0.347608 -7.69215 0
M  V30 7354 C 1206.69 0.96767 -7.52806 0
M  V30 7355 O 1206.9 1.21036 -6.1011 0
M  V30 7356 C 1208.09 1.04544 -8.13308 0
M  V30 7357 O 1208.48 2.38311 -8.41922 0
M  V30 7358 C 1208.97 0.491279 -7.02284 0
M  V30 7359 C 1208.26 0.996264 -5.77469 0
M  V30 7360 N 1208.31 0.0501916 -4.62973 0
M  V30 7361 C 1208.23 -1.32786 -4.63244 0
M  V30 7362 N 1208.31 -1.86957 -3.44545 0
M  V30 7363 C 1208.45 -0.780241 -2.58481 0
M  V30 7364 C 1208.58 -0.738536 -1.17757 0
M  V30 7365 O 1208.6 -1.66794 -0.372349 0
M  V30 7366 N 1208.7 0.58337 -0.711393 0
M  V30 7367 C 1208.7 1.70816 -1.51017 0
M  V30 7368 N 1208.83 2.87826 -0.880757 0
M  V30 7369 N 1208.57 1.67126 -2.8339 0
M  V30 7370 C 1208.45 0.401421 -3.30572 0
M  V30 7371 H 1205.47 -0.374722 -8.67691 0
M  V30 7372 H 1205.2 -0.443485 -6.90277 0
M  V30 7373 H 1206.07 1.75537 -7.96793 0
M  V30 7374 H 1208.73 1.95076 -5.46529 0
M  V30 7375 H 1209 -0.608565 -7.04577 0
M  V30 7376 H 1210 0.889672 -7.08939 0
M  V30 7377 H 1208.16 0.43308 -9.04564 0
M  V30 7378 H 1208.11 -1.91249 -5.54442 0
M  V30 7379 H 1208.8 0.718054 0.275244 0
M  V30 7380 H 1208.83 3.75721 -1.41832 0
M  V30 7381 H 1208.93 2.90436 0.145468 0
M  V30 7382 P 1210.03 2.75334 -8.47391 0
M  V30 7383 O 1210.25 3.84128 -9.44797 0
M  V30 7384 O 1210.82 1.51947 -8.68712 0
M  V30 7385 O 1210.28 3.29363 -6.99321 0
M  V30 7386 C 1209.34 4.24011 -6.4274 0
M  V30 7387 C 1210.07 5.20775 -5.52155 0
M  V30 7388 O 1210.28 4.56534 -4.22446 0
M  V30 7389 C 1211.47 5.62629 -5.96531 0
M  V30 7390 O 1211.86 6.87667 -5.41053 0
M  V30 7391 C 1212.35 4.52537 -5.39283 0
M  V30 7392 C 1211.64 4.20027 -4.08623 0
M  V30 7393 N 1211.69 2.76189 -3.71603 0
M  V30 7394 H 1208.85 4.797 -7.24003 0
M  V30 7395 H 1208.58 3.69856 -5.84513 0
M  V30 7396 H 1209.45 6.10356 -5.41441 0
M  V30 7397 P 1213.41 7.20834 -5.23717 0
M  V30 7398 O 1213.63 8.66189 -5.38625 0
M  V30 7399 O 1214.2 6.33615 -6.1356 0
M  V30 7400 O 1213.66 6.7751 -3.72168 0
M  V30 7401 C 1212.72 7.20732 -2.70725 0
M  V30 7402 C 1213.45 7.45864 -1.40599 0
M  V30 7403 O 1213.66 6.17651 -0.734225 0
M  V30 7404 C 1214.85 8.05808 -1.51899 0
M  V30 7405 O 1215.24 8.74358 -0.335205 0
M  V30 7406 C 1215.73 6.83093 -1.70294 0
M  V30 7407 C 1215.02 5.79992 -0.836974 0
M  V30 7408 N 1215.07 4.41769 -1.38263 0
M  V30 7409 C 1215.22 3.38591 -0.481702 0
M  V30 7410 O 1215.31 3.56839 0.718452 0
M  V30 7411 N 1215.26 2.1206 -1.03569 0
M  V30 7412 C 1215.17 1.80696 -2.36966 0
M  V30 7413 C 1215.02 2.94845 -3.23898 0
M  V30 7414 C 1214.97 4.19803 -2.73435 0
M  V30 7415 H 1212.23 8.13644 -3.0377 0
M  V30 7416 H 1211.96 6.42695 -2.55448 0
M  V30 7417 H 1212.83 8.12039 -0.792769 0
M  V30 7418 H 1215.49 5.79978 0.160587 0
M  V30 7419 H 1215.76 6.51379 -2.75643 0
M  V30 7420 H 1216.76 7.01734 -1.34462 0
M  V30 7421 H 1214.92 8.73674 -2.38337 0
M  V30 7422 H 1214.85 5.04492 -3.4095 0
M  V30 7423 P 1216.79 8.91 9.54446e-12 0
M  V30 7424 O 1217.01 10.1726 0.733694 0
M  V30 7425 O 1217.58 8.73148 -1.23936 0
M  V30 7426 O 1217.04 7.66872 0.971405 0
M  V30 7427 C 1216.1 7.42309 2.04641 0
M  V30 7428 C 1216.83 6.86059 3.24661 0
M  V30 7429 O 1217.04 5.42847 3.03646 0
M  V30 7430 C 1218.23 7.41196 3.50753 0
M  V30 7431 O 1218.62 7.27073 4.86816 0
M  V30 7432 C 1219.11 6.5273 2.63741 0
M  V30 7433 C 1218.4 5.1842 2.73198 0
M  V30 7434 N 1218.45 4.38762 1.4784 0
M  V30 7435 H 1215.61 8.36803 2.32493 0
M  V30 7436 H 1215.34 6.70197 1.71129 0
M  V30 7437 H 1216.21 7.03551 4.13168 0
M  V30 7438 P 1220.17 7.20834 5.23717 0
M  V30 7439 O 1220.39 7.79853 6.57286 0
M  V30 7440 O 1220.96 7.79239 4.12957 0
M  V30 7441 O 1220.42 5.63315 5.29344 0
M  V30 7442 C 1219.48 4.80255 6.01876 0
M  V30 7443 C 1220.21 3.64202 6.65911 0
M  V30 7444 O 1220.42 2.60694 5.64732 0
M  V30 7445 C 1221.61 3.93473 7.1943 0
M  V30 7446 O 1222 3.02071 8.21205 0
M  V30 7447 C 1222.49 3.73047 5.97036 0
M  V30 7448 C 1221.78 2.58828 5.25741 0
M  V30 7449 N 1221.83 2.68068 3.77503 0
M  V30 7450 C 1221.75 3.79715 2.96723 0
M  V30 7451 N 1221.83 3.5377 1.68852 0
M  V30 7452 C 1221.97 2.15054 1.63254 0
M  V30 7453 C 1222.1 1.28964 0.518571 0
M  V30 7454 N 1222.22 -0.0538097 0.918425 0
M  V30 7455 C 1222.22 -0.494275 2.22578 0
M  V30 7456 N 1222.35 -1.81086 2.40434 0
M  V30 7457 N 1222.09 0.313645 3.27502 0
M  V30 7458 C 1221.97 1.61829 2.91033 0
M  V30 7459 H 1218.99 5.40332 6.79951 0
M  V30 7460 H 1218.72 4.41613 5.32378 0
M  V30 7461 H 1219.59 3.26331 7.47797 0
M  V30 7462 P 1223.55 2.75334 8.47391 0
M  V30 7463 O 1223.77 2.44571 9.90142 0
M  V30 7464 O 1224.34 3.87688 7.92115 0
M  V30 7465 O 1223.8 1.4459 7.59357 0
M  V30 7466 C 1222.86 0.347608 7.69215 0
M  V30 7467 C 1223.59 -0.96767 7.52806 0
M  V30 7468 O 1223.8 -1.21036 6.1011 0
M  V30 7469 C 1224.99 -1.04544 8.13308 0
M  V30 7470 O 1225.38 -2.38311 8.41922 0
M  V30 7471 C 1225.87 -0.491279 7.02284 0
M  V30 7472 C 1225.16 -0.996264 5.77469 0
M  V30 7473 N 1225.21 -0.0501916 4.62973 0
M  V30 7474 H 1222.37 0.374722 8.67691 0
M  V30 7475 H 1222.1 0.443485 6.90277 0
M  V30 7476 H 1222.97 -1.75537 7.96793 0
M  V30 7477 P 1226.93 -2.75334 8.47391 0
M  V30 7478 O 1227.15 -3.84128 9.44797 0
M  V30 7479 O 1227.72 -1.51947 8.68712 0
M  V30 7480 O 1227.18 -3.29363 6.99321 0
M  V30 7481 C 1226.24 -4.24011 6.4274 0
M  V30 7482 C 1226.97 -5.20775 5.52155 0
M  V30 7483 O 1227.18 -4.56534 4.22446 0
M  V30 7484 C 1228.37 -5.62629 5.96531 0
M  V30 7485 O 1228.76 -6.87667 5.41053 0
M  V30 7486 C 1229.25 -4.52537 5.39283 0
M  V30 7487 C 1228.54 -4.20027 4.08623 0
M  V30 7488 N 1228.59 -2.76189 3.71603 0
M  V30 7489 H 1225.75 -4.797 7.24003 0
M  V30 7490 H 1225.48 -3.69856 5.84513 0
M  V30 7491 H 1226.35 -6.10356 5.41441 0
M  V30 7492 P 1230.31 -7.20834 5.23717 0
M  V30 7493 O 1230.53 -8.66104 5.38572 0
M  V30 7494 O 1231.1 -6.33544 6.1349 0
M  V30 7495 O 1230.56 -6.7751 3.72168 0
M  V30 7496 C 1229.62 -7.20825 2.7076 0
M  V30 7497 C 1230.35 -7.45864 1.40599 0
M  V30 7498 O 1230.56 -6.17651 0.734225 0
M  V30 7499 C 1231.75 -8.05808 1.51899 0
M  V30 7500 O 1232.14 -8.74358 0.335205 0
M  V30 7501 C 1232.63 -6.83093 1.70294 0
M  V30 7502 C 1231.92 -5.79992 0.836974 0
M  V30 7503 N 1231.97 -4.41864 1.38293 0
M  V30 7504 H 1229.13 -8.13644 3.0377 0
M  V30 7505 H 1228.86 -6.42788 2.55485 0
M  V30 7506 H 1229.73 -8.12039 0.792769 0
M  V30 7507 P 1233.69 -8.91 -9.70164e-12 0
M  V30 7508 O 1233.91 -10.1726 -0.733694 0
M  V30 7509 O 1234.48 -8.73148 1.23936 0
M  V30 7510 O 1233.94 -7.66872 -0.971405 0
M  V30 7511 C 1233 -7.42309 -2.04641 0
M  V30 7512 C 1233.73 -6.86059 -3.24661 0
M  V30 7513 O 1233.94 -5.42847 -3.03646 0
M  V30 7514 C 1235.13 -7.41196 -3.50753 0
M  V30 7515 O 1235.52 -7.27073 -4.86816 0
M  V30 7516 C 1236.01 -6.5273 -2.63741 0
M  V30 7517 C 1235.3 -5.1842 -2.73198 0
M  V30 7518 N 1235.35 -4.38762 -1.4784 0
M  V30 7519 H 1232.51 -8.36803 -2.32493 0
M  V30 7520 H 1232.24 -6.70197 -1.71129 0
M  V30 7521 H 1233.11 -7.03551 -4.13168 0
M  V30 7522 P 1237.07 -7.20834 -5.23717 0
M  V30 7523 O 1237.29 -7.79853 -6.57286 0
M  V30 7524 O 1237.86 -7.79239 -4.12957 0
M  V30 7525 O 1237.32 -5.63315 -5.29344 0
M  V30 7526 C 1236.38 -4.80255 -6.01876 0
M  V30 7527 C 1237.11 -3.64202 -6.65911 0
M  V30 7528 O 1237.32 -2.60694 -5.64732 0
M  V30 7529 C 1238.51 -3.93473 -7.1943 0
M  V30 7530 O 1238.9 -3.02071 -8.21205 0
M  V30 7531 C 1239.39 -3.73047 -5.97036 0
M  V30 7532 C 1238.68 -2.58828 -5.25741 0
M  V30 7533 N 1238.73 -2.68068 -3.77503 0
M  V30 7534 H 1235.89 -5.40332 -6.79951 0
M  V30 7535 H 1235.62 -4.41613 -5.32378 0
M  V30 7536 H 1236.49 -3.26331 -7.47797 0
M  V30 7537 P 1240.45 -2.75334 -8.47391 0
M  V30 7538 O 1240.67 -2.44571 -9.90142 0
M  V30 7539 O 1241.24 -3.87688 -7.92115 0
M  V30 7540 O 1240.7 -1.4459 -7.59357 0
M  V30 7541 C 1239.76 -0.347608 -7.69215 0
M  V30 7542 C 1240.49 0.96767 -7.52806 0
M  V30 7543 O 1240.7 1.21036 -6.1011 0
M  V30 7544 C 1241.89 1.04544 -8.13308 0
M  V30 7545 O 1242.28 2.38311 -8.41922 0
M  V30 7546 C 1242.77 0.491279 -7.02284 0
M  V30 7547 C 1242.06 0.996264 -5.77469 0
M  V30 7548 N 1242.11 0.0501916 -4.62973 0
M  V30 7549 H 1239.27 -0.374722 -8.67691 0
M  V30 7550 H 1239 -0.443485 -6.90277 0
M  V30 7551 H 1239.87 1.75537 -7.96793 0
M  V30 7552 P 1243.83 2.75334 -8.47391 0
M  V30 7553 O 1244.05 3.84204 -9.44982 0
M  V30 7554 O 1244.62 1.51982 -8.68909 0
M  V30 7555 O 1244.08 3.29363 -6.99321 0
M  V30 7556 C 1243.14 4.24066 -6.42823 0
M  V30 7557 C 1243.87 5.20775 -5.52155 0
M  V30 7558 O 1244.08 4.56607 -4.22514 0
M  V30 7559 C 1245.27 5.62697 -5.96604 0
M  V30 7560 O 1245.66 6.87667 -5.41053 0
M  V30 7561 C 1246.15 4.52537 -5.39283 0
M  V30 7562 C 1245.44 4.20027 -4.08623 0
M  V30 7563 N 1245.49 2.76189 -3.71603 0
M  V30 7564 H 1242.65 4.79756 -7.24086 0
M  V30 7565 H 1242.38 3.69963 -5.84682 0
M  V30 7566 H 1243.25 6.10431 -5.41508 0
M  V30 7567 H 1245.91 4.78816 -3.28024 0
M  V30 7568 H 1246.19 3.64957 -6.05871 0
M  V30 7569 H 1247.18 4.88748 -5.21323 0
M  V30 7570 H 1245.34 5.66789 -7.0643 0
M  V30 7571 P 1247.21 7.20834 -5.23717 0
M  V30 7572 O 1247.43 8.66274 -5.38678 0
M  V30 7573 O 1248 6.33687 -6.13629 0
M  V30 7574 O 1247.46 6.7751 -3.72168 0
M  V30 7575 C 1246.52 7.20919 -2.70795 0
M  V30 7576 C 1247.25 7.45864 -1.40599 0
M  V30 7577 O 1247.46 6.17751 -0.734343 0
M  V30 7578 C 1248.65 8.05906 -1.51917 0
M  V30 7579 O 1249.04 8.74358 -0.335205 0
M  V30 7580 C 1249.53 6.83093 -1.70294 0
M  V30 7581 C 1248.82 5.79992 -0.836974 0
M  V30 7582 N 1248.87 4.41864 -1.38293 0
M  V30 7583 C 1248.79 4.02089 -2.69407 0
M  V30 7584 N 1248.86 2.73403 -2.85089 0
M  V30 7585 C 1249.01 2.25086 -1.5642 0
M  V30 7586 C 1249.14 0.942887 -1.04836 0
M  V30 7587 N 1249.15 -0.150999 -1.80369 0
M  V30 7588 N 1249.26 0.812565 0.28167 0
M  V30 7589 C 1249.25 1.90572 1.03784 0
M  V30 7590 N 1249.13 3.167 0.683905 0
M  V30 7591 C 1249.01 3.26538 -0.652815 0
M  V30 7592 H 1246.03 8.13738 -3.03804 0
M  V30 7593 H 1245.76 6.42974 -2.55559 0
M  V30 7594 H 1246.63 8.12139 -0.792866 0
M  V30 7595 H 1249.29 5.80178 0.160643 0
M  V30 7596 H 1249.57 6.51379 -2.75643 0
M  V30 7597 H 1250.56 7.01832 -1.3448 0
M  V30 7598 H 1248.72 8.73771 -2.38364 0
M  V30 7599 H 1248.68 4.7189 -3.52311 0
M  V30 7600 H 1249.06 -0.0721434 -2.82608 0
M  V30 7601 H 1249.25 -1.0785 -1.36544 0
M  V30 7602 H 1249.36 1.73207 2.10241 0
M  V30 7603 P 1250.59 8.91 9.85882e-12 0
M  V30 7604 O 1250.81 10.1746 0.733838 0
M  V30 7605 O 1251.38 8.73346 -1.23964 0
M  V30 7606 O 1250.84 7.66872 0.971405 0
M  V30 7607 C 1249.9 7.42405 2.04668 0
M  V30 7608 C 1250.63 6.86059 3.24661 0
M  V30 7609 O 1250.84 5.42934 3.03695 0
M  V30 7610 C 1252.03 7.41287 3.50796 0
M  V30 7611 O 1252.42 7.27073 4.86816 0
M  V30 7612 C 1252.91 6.5273 2.63741 0
M  V30 7613 C 1252.2 5.1842 2.73198 0
M  V30 7614 N 1252.25 4.38762 1.4784 0
M  V30 7615 C 1252.17 4.83651 0.183876 0
M  V30 7616 N 1252.24 3.88759 -0.699393 0
M  V30 7617 C 1252.39 2.7404 0.0575568 0
M  V30 7618 C 1252.52 1.37902 -0.293928 0
M  V30 7619 N 1252.53 0.938021 -1.54797 0
M  V30 7620 N 1252.64 0.491817 0.70549 0
M  V30 7621 C 1252.63 0.931735 1.95979 0
M  V30 7622 N 1252.51 2.16017 2.41481 0
M  V30 7623 C 1252.39 3.02547 1.39121 0
M  V30 7624 H 1249.41 8.36899 2.3252 0
M  V30 7625 H 1249.14 6.70391 1.71179 0
M  V30 7626 H 1250.01 7.03638 4.13219 0
M  V30 7627 H 1252.67 4.59931 3.54016 0
M  V30 7628 H 1252.95 6.88995 1.59871 0
M  V30 7629 H 1253.94 6.4684 3.0373 0
M  V30 7630 H 1252.1 8.47002 3.20749 0
M  V30 7631 H 1252.06 5.8885 -0.0765548 0
M  V30 7632 H 1252.44 1.60276 -2.32875 0
M  V30 7633 H 1252.63 -0.0699355 -1.73859 0
M  V30 7634 H 1252.74 0.165507 2.71897 0
M  V30 7635 P 1253.97 7.20834 5.23717 0
M  V30 7636 O 1254.19 7.79853 6.57286 0
M  V30 7637 O 1254.76 7.79239 4.12957 0
M  V30 7638 O 1254.22 5.63315 5.29344 0
M  V30 7639 C 1253.28 4.80255 6.01876 0
M  V30 7640 C 1254.01 3.64202 6.65911 0
M  V30 7641 O 1254.22 2.60694 5.64732 0
M  V30 7642 C 1255.41 3.93473 7.1943 0
M  V30 7643 O 1255.8 3.02071 8.21205 0
M  V30 7644 C 1256.29 3.73047 5.97036 0
M  V30 7645 C 1255.58 2.58828 5.25741 0
M  V30 7646 N 1255.63 2.68068 3.77503 0
M  V30 7647 H 1252.79 5.40332 6.79951 0
M  V30 7648 H 1252.52 4.41613 5.32378 0
M  V30 7649 H 1253.39 3.26331 7.47797 0
M  V30 7650 P 1257.35 2.75334 8.47391 0
M  V30 7651 O 1257.57 2.44571 9.90142 0
M  V30 7652 O 1258.14 3.87688 7.92115 0
M  V30 7653 O 1257.6 1.4459 7.59357 0
M  V30 7654 C 1256.66 0.347608 7.69215 0
M  V30 7655 C 1257.39 -0.96767 7.52806 0
M  V30 7656 O 1257.6 -1.21036 6.1011 0
M  V30 7657 C 1258.79 -1.04544 8.13308 0
M  V30 7658 O 1259.18 -2.38311 8.41922 0
M  V30 7659 C 1259.67 -0.491279 7.02284 0
M  V30 7660 C 1258.96 -0.996264 5.77469 0
M  V30 7661 N 1259.01 -0.0501916 4.62973 0
M  V30 7662 H 1256.17 0.374722 8.67691 0
M  V30 7663 H 1255.9 0.443485 6.90277 0
M  V30 7664 H 1256.77 -1.75537 7.96793 0
M  V30 7665 P 1260.73 -2.75334 8.47391 0
M  V30 7666 O 1260.95 -3.84204 9.44982 0
M  V30 7667 O 1261.52 -1.51982 8.68909 0
M  V30 7668 O 1260.98 -3.29363 6.99321 0
M  V30 7669 C 1260.04 -4.24066 6.42823 0
M  V30 7670 C 1260.77 -5.20775 5.52155 0
M  V30 7671 O 1260.98 -4.56607 4.22514 0
M  V30 7672 C 1262.17 -5.62697 5.96604 0
M  V30 7673 O 1262.56 -6.87667 5.41053 0
M  V30 7674 C 1263.05 -4.52537 5.39283 0
M  V30 7675 C 1262.34 -4.20027 4.08623 0
M  V30 7676 N 1262.39 -2.76189 3.71603 0
M  V30 7677 C 1262.31 -1.66944 4.54297 0
M  V30 7678 N 1262.38 -0.536169 3.91344 0
M  V30 7679 C 1262.53 -0.901569 2.58849 0
M  V30 7680 C 1262.66 -0.146599 1.40236 0
M  V30 7681 N 1262.67 1.18234 1.37046 0
M  V30 7682 N 1262.78 -0.822941 0.249738 0
M  V30 7683 C 1262.77 -2.15179 0.280525 0
M  V30 7684 N 1262.65 -2.96414 1.30822 0
M  V30 7685 C 1262.53 -2.25804 2.44748 0
M  V30 7686 H 1259.55 -4.79756 7.24086 0
M  V30 7687 H 1259.28 -3.69963 5.84682 0
M  V30 7688 H 1260.15 -6.10431 5.41508 0
M  V30 7689 H 1262.81 -4.78816 3.28024 0
M  V30 7690 H 1263.09 -3.64957 6.05871 0
M  V30 7691 H 1264.08 -4.88748 5.21323 0
M  V30 7692 H 1262.24 -5.66789 7.0643 0
M  V30 7693 H 1262.2 -1.74684 5.62396 0
M  V30 7694 H 1262.58 1.71949 2.24394 0
M  V30 7695 H 1262.77 1.67511 0.470742 0
M  V30 7696 H 1262.88 -2.63704 -0.6828 0
M  V30 7697 P 1264.11 -7.20834 5.23717 0
M  V30 7698 O 1264.33 -8.66104 5.38572 0
M  V30 7699 O 1264.9 -6.33544 6.1349 0
M  V30 7700 O 1264.36 -6.7751 3.72168 0
M  V30 7701 C 1263.42 -7.20825 2.7076 0
M  V30 7702 C 1264.15 -7.45864 1.40599 0
M  V30 7703 O 1264.36 -6.17651 0.734225 0
M  V30 7704 C 1265.55 -8.05808 1.51899 0
M  V30 7705 O 1265.94 -8.74358 0.335205 0
M  V30 7706 C 1266.43 -6.83093 1.70294 0
M  V30 7707 C 1265.72 -5.79992 0.836974 0
M  V30 7708 N 1265.77 -4.41864 1.38293 0
M  V30 7709 H 1262.93 -8.13644 3.0377 0
M  V30 7710 H 1262.66 -6.42788 2.55485 0
M  V30 7711 H 1263.53 -8.12039 0.792769 0
M  V30 7712 P 1267.49 -8.91 -1.0016e-11 0
M  V30 7713 O 1267.71 -10.1726 -0.733694 0
M  V30 7714 O 1268.28 -8.73148 1.23936 0
M  V30 7715 O 1267.74 -7.66872 -0.971405 0
M  V30 7716 C 1266.8 -7.42309 -2.04641 0
M  V30 7717 C 1267.53 -6.86059 -3.24661 0
M  V30 7718 O 1267.74 -5.42847 -3.03646 0
M  V30 7719 C 1268.93 -7.41196 -3.50753 0
M  V30 7720 O 1269.32 -7.27073 -4.86816 0
M  V30 7721 C 1269.81 -6.5273 -2.63741 0
M  V30 7722 C 1269.1 -5.1842 -2.73198 0
M  V30 7723 N 1269.15 -4.38762 -1.4784 0
M  V30 7724 C 1269.07 -4.81605 -0.168631 0
M  V30 7725 N 1269.15 -3.85454 0.713363 0
M  V30 7726 C 1269.29 -2.6994 -0.0566958 0
M  V30 7727 C 1269.42 -1.34815 0.338502 0
M  V30 7728 O 1269.44 -0.869548 1.47125 0
M  V30 7729 N 1269.54 -0.496304 -0.77465 0
M  V30 7730 C 1269.54 -0.908403 -2.09122 0
M  V30 7731 N 1269.67 0.0517805 -3.00955 0
M  V30 7732 N 1269.41 -2.17875 -2.46519 0
M  V30 7733 C 1269.29 -3.01988 -1.4033 0
M  V30 7734 H 1266.31 -8.36803 -2.32493 0
M  V30 7735 H 1266.04 -6.70197 -1.71129 0
M  V30 7736 H 1266.91 -7.03551 -4.13168 0
M  V30 7737 H 1269.57 -4.59498 -3.54415 0
M  V30 7738 H 1269.84 -6.88898 -1.59848 0
M  V30 7739 H 1270.84 -6.46749 -3.03687 0
M  V30 7740 H 1269 -8.46908 -3.20714 0
M  V30 7741 H 1268.95 -5.86405 0.105564 0
M  V30 7742 H 1269.64 0.483664 -0.597855 0
M  V30 7743 H 1269.67 -0.187865 -4.0116 0
M  V30 7744 H 1269.77 1.03585 -2.71726 0
M  V30 7745 P 1270.87 -7.20834 -5.23717 0
M  V30 7746 O 1271.09 -7.80006 -6.57415 0
M  V30 7747 O 1271.66 -7.79416 -4.13051 0
M  V30 7748 O 1271.12 -5.63315 -5.29344 0
M  V30 7749 C 1270.18 -4.80318 -6.01954 0
M  V30 7750 C 1270.91 -3.64202 -6.65911 0
M  V30 7751 O 1271.12 -2.60736 -5.64823 0
M  V30 7752 C 1272.31 -3.93521 -7.19518 0
M  V30 7753 O 1272.7 -3.02071 -8.21205 0
M  V30 7754 C 1273.19 -3.73047 -5.97036 0
M  V30 7755 C 1272.48 -2.58828 -5.25741 0
M  V30 7756 N 1272.53 -2.68068 -3.77503 0
M  V30 7757 H 1269.69 -5.40394 -6.8003 0
M  V30 7758 H 1269.42 -4.41741 -5.32532 0
M  V30 7759 H 1270.29 -3.26371 -7.47889 0
M  V30 7760 H 1272.95 -1.64007 -5.56746 0
M  V30 7761 H 1273.23 -4.63439 -5.3432 0
M  V30 7762 H 1274.22 -3.44776 -6.25925 0
M  V30 7763 H 1272.38 -4.96707 -7.57347 0
M  V30 7764 P 1274.25 -2.75334 -8.47391 0
M  V30 7765 O 1274.47 -2.44619 -9.90336 0
M  V30 7766 O 1275.04 -3.87776 -7.92294 0
M  V30 7767 O 1274.5 -1.4459 -7.59357 0
M  V30 7768 C 1273.56 -0.347653 -7.69315 0
M  V30 7769 C 1274.29 0.96767 -7.52806 0
M  V30 7770 O 1274.5 1.21055 -6.10208 0
M  V30 7771 C 1275.69 1.04557 -8.13408 0
M  V30 7772 O 1276.08 2.38311 -8.41922 0
M  V30 7773 C 1276.57 0.491279 -7.02284 0
M  V30 7774 C 1275.86 0.996264 -5.77469 0
M  V30 7775 N 1275.91 0.0501916 -4.62973 0
M  V30 7776 C 1275.83 -1.31969 -4.65661 0
M  V30 7777 N 1275.9 -1.86649 -3.48119 0
M  V30 7778 C 1276.05 -0.792089 -2.62406 0
M  V30 7779 C 1276.18 -0.705684 -1.2207 0
M  V30 7780 N 1276.19 -1.76207 -0.413762 0
M  V30 7781 N 1276.3 0.518981 -0.685754 0
M  V30 7782 C 1276.29 1.57595 -1.49174 0
M  V30 7783 N 1276.17 1.62909 -2.80066 0
M  V30 7784 C 1276.05 0.388195 -3.3073 0
M  V30 7785 H 1273.07 -0.374765 -8.67791 0
M  V30 7786 H 1272.8 -0.443613 -6.90476 0
M  V30 7787 H 1273.67 1.75559 -7.96891 0
M  V30 7788 H 1276.33 1.94563 -5.46818 0
M  V30 7789 H 1276.61 -0.608651 -7.04676 0
M  V30 7790 H 1277.6 0.889796 -7.09039 0
M  V30 7791 H 1275.76 0.433128 -9.04664 0
M  V30 7792 H 1275.72 -1.89246 -5.57664 0
M  V30 7793 H 1276.1 -2.71005 -0.804694 0
M  V30 7794 H 1276.29 -1.63189 0.603768 0
M  V30 7795 H 1276.4 2.53475 -0.997614 0
M  V30 7796 P 1277.63 2.75334 -8.47391 0
M  V30 7797 O 1277.85 3.84166 -9.4489 0
M  V30 7798 O 1278.42 1.51964 -8.6881 0
M  V30 7799 O 1277.88 3.29363 -6.99321 0
M  V30 7800 C 1276.94 4.23956 -6.42656 0
M  V30 7801 C 1277.67 5.20775 -5.52155 0
M  V30 7802 O 1277.88 4.56534 -4.22446 0
M  V30 7803 C 1279.07 5.62629 -5.96531 0
M  V30 7804 O 1279.46 6.87667 -5.41053 0
M  V30 7805 C 1279.95 4.52537 -5.39283 0
M  V30 7806 C 1279.24 4.20027 -4.08623 0
M  V30 7807 N 1279.29 2.7613 -3.71522 0
M  V30 7808 C 1279.44 2.45612 -2.37989 0
M  V30 7809 O 1279.53 3.30919 -1.51621 0
M  V30 7810 N 1279.48 1.10684 -2.08435 0
M  V30 7811 C 1279.39 0.0690084 -2.9792 0
M  V30 7812 C 1279.24 0.481522 -4.35345 0
M  V30 7813 C 1279.19 1.78906 -4.67968 0
M  V30 7814 H 1276.45 4.797 -7.24003 0
M  V30 7815 H 1276.18 3.69802 -5.84429 0
M  V30 7816 H 1277.05 6.10356 -5.41441 0
M  V30 7817 H 1279.71 4.78651 -3.27911 0
M  V30 7818 H 1279.98 3.64957 -6.05871 0
M  V30 7819 H 1280.98 4.8868 -5.2125 0
M  V30 7820 H 1279.14 5.66726 -7.06352 0
M  V30 7821 H 1279.07 2.07737 -5.72367 0
M  V30 7822 P 1281.01 7.20834 -5.23717 0
M  V30 7823 O 1281.23 8.66104 -5.38572 0
M  V30 7824 O 1281.8 6.33544 -6.1349 0
M  V30 7825 O 1281.26 6.7751 -3.72168 0
M  V30 7826 C 1280.32 7.20825 -2.7076 0
M  V30 7827 C 1281.05 7.45864 -1.40599 0
M  V30 7828 O 1281.26 6.17651 -0.734225 0
M  V30 7829 C 1282.45 8.05808 -1.51899 0
M  V30 7830 O 1282.84 8.74358 -0.335205 0
M  V30 7831 C 1283.33 6.83093 -1.70294 0
M  V30 7832 C 1282.62 5.79992 -0.836974 0
M  V30 7833 N 1282.67 4.41864 -1.38293 0
M  V30 7834 H 1279.83 8.13644 -3.0377 0
M  V30 7835 H 1279.56 6.42788 -2.55485 0
M  V30 7836 H 1280.43 8.12039 -0.792769 0
M  V30 7837 P 1284.39 8.91 1.01732e-11 0
M  V30 7838 O 1284.61 10.1726 0.733694 0
M  V30 7839 O 1285.18 8.73148 -1.23936 0
M  V30 7840 O 1284.64 7.66872 0.971405 0
M  V30 7841 C 1283.7 7.42309 2.04641 0
M  V30 7842 C 1284.43 6.86059 3.24661 0
M  V30 7843 O 1284.64 5.42847 3.03646 0
M  V30 7844 C 1285.83 7.41196 3.50753 0
M  V30 7845 O 1286.22 7.27073 4.86816 0
M  V30 7846 C 1286.71 6.5273 2.63741 0
M  V30 7847 C 1286 5.1842 2.73198 0
M  V30 7848 N 1286.05 4.38762 1.4784 0
M  V30 7849 H 1283.21 8.36803 2.32493 0
M  V30 7850 H 1282.94 6.70197 1.71129 0
M  V30 7851 H 1283.81 7.03551 4.13168 0
M  V30 7852 P 1287.77 7.20834 5.23717 0
M  V30 7853 O 1287.99 7.79853 6.57286 0
M  V30 7854 O 1288.56 7.79239 4.12957 0
M  V30 7855 O 1288.02 5.63315 5.29344 0
M  V30 7856 C 1287.08 4.80255 6.01876 0
M  V30 7857 C 1287.81 3.64202 6.65911 0
M  V30 7858 O 1288.02 2.60694 5.64732 0
M  V30 7859 C 1289.21 3.93473 7.1943 0
M  V30 7860 O 1289.6 3.02071 8.21205 0
M  V30 7861 C 1290.09 3.73047 5.97036 0
M  V30 7862 C 1289.38 2.58828 5.25741 0
M  V30 7863 N 1289.43 2.68068 3.77503 0
M  V30 7864 C 1289.35 3.79715 2.96723 0
M  V30 7865 N 1289.43 3.5377 1.68852 0
M  V30 7866 C 1289.57 2.15054 1.63254 0
M  V30 7867 C 1289.7 1.28964 0.518571 0
M  V30 7868 N 1289.82 -0.0538097 0.918425 0
M  V30 7869 C 1289.82 -0.494275 2.22578 0
M  V30 7870 N 1289.95 -1.81086 2.40434 0
M  V30 7871 N 1289.69 0.313645 3.27502 0
M  V30 7872 C 1289.57 1.61829 2.91033 0
M  V30 7873 H 1286.59 5.40332 6.79951 0
M  V30 7874 H 1286.32 4.41613 5.32378 0
M  V30 7875 H 1287.19 3.26331 7.47797 0
M  V30 7876 P 1291.15 2.75334 8.47391 0
M  V30 7877 O 1291.37 2.44619 9.90336 0
M  V30 7878 O 1291.94 3.87776 7.92294 0
M  V30 7879 O 1291.4 1.4459 7.59357 0
M  V30 7880 C 1290.46 0.347653 7.69315 0
M  V30 7881 C 1291.19 -0.96767 7.52806 0
M  V30 7882 O 1291.4 -1.21055 6.10208 0
M  V30 7883 C 1292.59 -1.04557 8.13408 0
M  V30 7884 O 1292.98 -2.38311 8.41922 0
M  V30 7885 C 1293.47 -0.491279 7.02284 0
M  V30 7886 C 1292.76 -0.996264 5.77469 0
M  V30 7887 N 1292.81 -0.0501916 4.62973 0
M  V30 7888 H 1289.97 0.374765 8.67791 0
M  V30 7889 H 1289.7 0.443613 6.90476 0
M  V30 7890 H 1290.57 -1.75559 7.96891 0
M  V30 7891 H 1293.23 -1.94563 5.46818 0
M  V30 7892 H 1293.51 0.608651 7.04676 0
M  V30 7893 H 1294.5 -0.889796 7.09039 0
M  V30 7894 H 1292.66 -0.433128 9.04664 0
M  V30 7895 P 1294.53 -2.75334 8.47391 0
M  V30 7896 O 1294.75 -3.84128 9.44797 0
M  V30 7897 O 1295.32 -1.51947 8.68712 0
M  V30 7898 O 1294.78 -3.29363 6.99321 0
M  V30 7899 C 1293.84 -4.24011 6.4274 0
M  V30 7900 C 1294.57 -5.20775 5.52155 0
M  V30 7901 O 1294.78 -4.56534 4.22446 0
M  V30 7902 C 1295.97 -5.62629 5.96531 0
M  V30 7903 O 1296.36 -6.87667 5.41053 0
M  V30 7904 C 1296.85 -4.52537 5.39283 0
M  V30 7905 C 1296.14 -4.20027 4.08623 0
M  V30 7906 N 1296.19 -2.76189 3.71603 0
M  V30 7907 H 1293.35 -4.797 7.24003 0
M  V30 7908 H 1293.08 -3.69856 5.84513 0
M  V30 7909 H 1293.95 -6.10356 5.41441 0
M  V30 7910 P 1297.91 -7.20834 5.23717 0
M  V30 7911 O 1298.13 -8.66189 5.38625 0
M  V30 7912 O 1298.7 -6.33615 6.1356 0
M  V30 7913 O 1298.16 -6.7751 3.72168 0
M  V30 7914 C 1297.22 -7.20732 2.70725 0
M  V30 7915 C 1297.95 -7.45864 1.40599 0
M  V30 7916 O 1298.16 -6.17651 0.734225 0
M  V30 7917 C 1299.35 -8.05808 1.51899 0
M  V30 7918 O 1299.74 -8.74358 0.335205 0
M  V30 7919 C 1300.23 -6.83093 1.70294 0
M  V30 7920 C 1299.52 -5.79992 0.836974 0
M  V30 7921 N 1299.57 -4.41769 1.38263 0
M  V30 7922 C 1299.72 -3.38591 0.481702 0
M  V30 7923 O 1299.81 -3.56839 -0.718452 0
M  V30 7924 N 1299.76 -2.1206 1.03569 0
M  V30 7925 C 1299.67 -1.80696 2.36966 0
M  V30 7926 C 1299.52 -2.94845 3.23898 0
M  V30 7927 C 1299.47 -4.19803 2.73435 0
M  V30 7928 H 1296.73 -8.13644 3.0377 0
M  V30 7929 H 1296.46 -6.42695 2.55448 0
M  V30 7930 H 1297.33 -8.12039 0.792769 0
M  V30 7931 H 1299.99 -5.79978 -0.160587 0
M  V30 7932 H 1300.26 -6.51379 2.75643 0
M  V30 7933 H 1301.26 -7.01734 1.34462 0
M  V30 7934 H 1299.42 -8.73674 2.38337 0
M  V30 7935 H 1299.35 -5.04492 3.4095 0
M  V30 7936 P 1301.29 -8.91 -1.03304e-11 0
M  V30 7937 O 1301.51 -10.1726 -0.733694 0
M  V30 7938 O 1302.08 -8.73148 1.23936 0
M  V30 7939 O 1301.54 -7.66872 -0.971405 0
M  V30 7940 C 1300.6 -7.42309 -2.04641 0
M  V30 7941 C 1301.33 -6.86059 -3.24661 0
M  V30 7942 O 1301.54 -5.42847 -3.03646 0
M  V30 7943 C 1302.73 -7.41196 -3.50753 0
M  V30 7944 O 1303.12 -7.27073 -4.86816 0
M  V30 7945 C 1303.61 -6.5273 -2.63741 0
M  V30 7946 C 1302.9 -5.1842 -2.73198 0
M  V30 7947 N 1302.95 -4.38762 -1.4784 0
M  V30 7948 H 1300.11 -8.36803 -2.32493 0
M  V30 7949 H 1299.84 -6.70197 -1.71129 0
M  V30 7950 H 1300.71 -7.03551 -4.13168 0
M  V30 7951 P 1304.67 -7.20834 -5.23717 0
M  V30 7952 O 1304.89 -7.80006 -6.57415 0
M  V30 7953 O 1305.46 -7.79416 -4.13051 0
M  V30 7954 O 1304.92 -5.63315 -5.29344 0
M  V30 7955 C 1303.98 -4.80318 -6.01954 0
M  V30 7956 C 1304.71 -3.64202 -6.65911 0
M  V30 7957 O 1304.92 -2.60736 -5.64823 0
M  V30 7958 C 1306.11 -3.93521 -7.19518 0
M  V30 7959 O 1306.5 -3.02071 -8.21205 0
M  V30 7960 C 1306.99 -3.73047 -5.97036 0
M  V30 7961 C 1306.28 -2.58828 -5.25741 0
M  V30 7962 N 1306.33 -2.68068 -3.77503 0
M  V30 7963 H 1303.49 -5.40394 -6.8003 0
M  V30 7964 H 1303.22 -4.41741 -5.32532 0
M  V30 7965 H 1304.09 -3.26371 -7.47889 0
M  V30 7966 H 1306.75 -1.64007 -5.56746 0
M  V30 7967 H 1307.03 -4.63439 -5.3432 0
M  V30 7968 H 1308.02 -3.44776 -6.25925 0
M  V30 7969 H 1306.18 -4.96707 -7.57347 0
M  V30 7970 P 1308.05 -2.75334 -8.47391 0
M  V30 7971 O 1308.27 -2.44571 -9.90142 0
M  V30 7972 O 1308.84 -3.87688 -7.92115 0
M  V30 7973 O 1308.3 -1.4459 -7.59357 0
M  V30 7974 C 1307.36 -0.347608 -7.69215 0
M  V30 7975 C 1308.09 0.96767 -7.52806 0
M  V30 7976 O 1308.3 1.21036 -6.1011 0
M  V30 7977 C 1309.49 1.04544 -8.13308 0
M  V30 7978 O 1309.88 2.38311 -8.41922 0
M  V30 7979 C 1310.37 0.491279 -7.02284 0
M  V30 7980 C 1309.66 0.996264 -5.77469 0
M  V30 7981 N 1309.71 0.0501916 -4.62973 0
M  V30 7982 C 1309.63 -1.32786 -4.63244 0
M  V30 7983 N 1309.71 -1.86957 -3.44545 0
M  V30 7984 C 1309.85 -0.780241 -2.58481 0
M  V30 7985 C 1309.98 -0.738536 -1.17757 0
M  V30 7986 N 1310.1 0.58337 -0.711393 0
M  V30 7987 C 1310.1 1.70816 -1.51017 0
M  V30 7988 N 1310.23 2.87826 -0.880757 0
M  V30 7989 N 1309.97 1.67126 -2.8339 0
M  V30 7990 C 1309.85 0.401421 -3.30572 0
M  V30 7991 H 1306.87 -0.374722 -8.67691 0
M  V30 7992 H 1306.6 -0.443485 -6.90277 0
M  V30 7993 H 1307.47 1.75537 -7.96793 0
M  V30 7994 P 1311.43 2.75334 -8.47391 0
M  V30 7995 O 1311.65 3.84128 -9.44797 0
M  V30 7996 O 1312.22 1.51947 -8.68712 0
M  V30 7997 O 1311.68 3.29363 -6.99321 0
M  V30 7998 C 1310.74 4.24011 -6.4274 0
M  V30 7999 C 1311.47 5.20775 -5.52155 0
M  V30 8000 O 1311.68 4.56534 -4.22446 0
M  V30 8001 C 1312.87 5.62629 -5.96531 0
M  V30 8002 O 1313.26 6.87667 -5.41053 0
M  V30 8003 C 1313.75 4.52537 -5.39283 0
M  V30 8004 C 1313.04 4.20027 -4.08623 0
M  V30 8005 N 1313.09 2.76189 -3.71603 0
M  V30 8006 H 1310.25 4.797 -7.24003 0
M  V30 8007 H 1309.98 3.69856 -5.84513 0
M  V30 8008 H 1310.85 6.10356 -5.41441 0
M  V30 8009 P 1314.81 7.20834 -5.23717 0
M  V30 8010 O 1315.03 8.66104 -5.38572 0
M  V30 8011 O 1315.6 6.33544 -6.1349 0
M  V30 8012 O 1315.06 6.7751 -3.72168 0
M  V30 8013 C 1314.12 7.20825 -2.7076 0
M  V30 8014 C 1314.85 7.45864 -1.40599 0
M  V30 8015 O 1315.06 6.17651 -0.734225 0
M  V30 8016 C 1316.25 8.05808 -1.51899 0
M  V30 8017 O 1316.64 8.74358 -0.335205 0
M  V30 8018 C 1317.13 6.83093 -1.70294 0
M  V30 8019 C 1316.42 5.79992 -0.836974 0
M  V30 8020 N 1316.47 4.41864 -1.38293 0
M  V30 8021 H 1313.63 8.13644 -3.0377 0
M  V30 8022 H 1313.36 6.42788 -2.55485 0
M  V30 8023 H 1314.23 8.12039 -0.792769 0
M  V30 8024 P 1318.19 8.91 1.04876e-11 0
M  V30 8025 O 1318.41 10.1726 0.733694 0
M  V30 8026 O 1318.98 8.73148 -1.23936 0
M  V30 8027 O 1318.44 7.66872 0.971405 0
M  V30 8028 C 1317.5 7.42309 2.04641 0
M  V30 8029 C 1318.23 6.86059 3.24661 0
M  V30 8030 O 1318.44 5.42847 3.03646 0
M  V30 8031 C 1319.63 7.41196 3.50753 0
M  V30 8032 O 1320.02 7.27073 4.86816 0
M  V30 8033 C 1320.51 6.5273 2.63741 0
M  V30 8034 C 1319.8 5.1842 2.73198 0
M  V30 8035 N 1319.85 4.38762 1.4784 0
M  V30 8036 C 1319.77 4.81605 0.168631 0
M  V30 8037 N 1319.85 3.85454 -0.713363 0
M  V30 8038 C 1319.99 2.6994 0.0566958 0
M  V30 8039 C 1320.12 1.34815 -0.338502 0
M  V30 8040 N 1320.24 0.496304 0.77465 0
M  V30 8041 C 1320.24 0.908403 2.09122 0
M  V30 8042 N 1320.37 -0.0517805 3.00955 0
M  V30 8043 N 1320.11 2.17875 2.46519 0
M  V30 8044 C 1319.99 3.01988 1.4033 0
M  V30 8045 H 1317.01 8.36803 2.32493 0
M  V30 8046 H 1316.74 6.70197 1.71129 0
M  V30 8047 H 1317.61 7.03551 4.13168 0
M  V30 8048 P 1321.57 7.20834 5.23717 0
M  V30 8049 O 1321.79 7.80006 6.57415 0
M  V30 8050 O 1322.36 7.79416 4.13051 0
M  V30 8051 O 1321.82 5.63315 5.29344 0
M  V30 8052 C 1320.88 4.80318 6.01954 0
M  V30 8053 C 1321.61 3.64202 6.65911 0
M  V30 8054 O 1321.82 2.60736 5.64823 0
M  V30 8055 C 1323.01 3.93521 7.19518 0
M  V30 8056 O 1323.4 3.02071 8.21205 0
M  V30 8057 C 1323.89 3.73047 5.97036 0
M  V30 8058 C 1323.18 2.58828 5.25741 0
M  V30 8059 N 1323.23 2.68068 3.77503 0
M  V30 8060 C 1323.15 3.80474 2.99159 0
M  V30 8061 N 1323.22 3.55622 1.71925 0
M  V30 8062 C 1323.37 2.1832 1.65733 0
M  V30 8063 C 1323.5 1.28842 0.572777 0
M  V30 8064 N 1323.51 1.66875 -0.70098 0
M  V30 8065 N 1323.62 -0.016788 0.859836 0
M  V30 8066 C 1323.61 -0.398145 2.13316 0
M  V30 8067 N 1323.49 0.328224 3.22333 0
M  V30 8068 C 1323.37 1.62992 2.90383 0
M  V30 8069 H 1320.39 5.40394 6.8003 0
M  V30 8070 H 1320.12 4.41741 5.32532 0
M  V30 8071 H 1320.99 3.26371 7.47889 0
M  V30 8072 H 1323.65 1.64007 5.56746 0
M  V30 8073 H 1323.93 4.63439 5.3432 0
M  V30 8074 H 1324.92 3.44776 6.25925 0
M  V30 8075 H 1323.08 4.96707 7.57347 0
M  V30 8076 H 1323.04 4.8089 3.39924 0
M  V30 8077 H 1323.42 2.66547 -0.941919 0
M  V30 8078 H 1323.61 0.965341 -1.44766 0
M  V30 8079 H 1323.72 -1.46427 2.29697 0
M  V30 8080 P 1324.95 2.75334 8.47391 0
M  V30 8081 O 1325.17 2.44619 9.90336 0
M  V30 8082 O 1325.74 3.87776 7.92294 0
M  V30 8083 O 1325.2 1.4459 7.59357 0
M  V30 8084 C 1324.26 0.347653 7.69315 0
M  V30 8085 C 1324.99 -0.96767 7.52806 0
M  V30 8086 O 1325.2 -1.21055 6.10208 0
M  V30 8087 C 1326.39 -1.04557 8.13408 0
M  V30 8088 O 1326.78 -2.38311 8.41922 0
M  V30 8089 C 1327.27 -0.491279 7.02284 0
M  V30 8090 C 1326.56 -0.996264 5.77469 0
M  V30 8091 N 1326.61 -0.0501916 4.62973 0
M  V30 8092 C 1326.53 1.31969 4.65661 0
M  V30 8093 N 1326.6 1.86649 3.48119 0
M  V30 8094 C 1326.75 0.792089 2.62406 0
M  V30 8095 C 1326.88 0.705684 1.2207 0
M  V30 8096 N 1326.89 1.76207 0.413762 0
M  V30 8097 N 1327 -0.518981 0.685754 0
M  V30 8098 C 1326.99 -1.57595 1.49174 0
M  V30 8099 N 1326.87 -1.62909 2.80066 0
M  V30 8100 C 1326.75 -0.388195 3.3073 0
M  V30 8101 H 1323.77 0.374765 8.67791 0
M  V30 8102 H 1323.5 0.443613 6.90476 0
M  V30 8103 H 1324.37 -1.75559 7.96891 0
M  V30 8104 H 1327.03 -1.94563 5.46818 0
M  V30 8105 H 1327.31 0.608651 7.04676 0
M  V30 8106 H 1328.3 -0.889796 7.09039 0
M  V30 8107 H 1326.46 -0.433128 9.04664 0
M  V30 8108 H 1326.42 1.89246 5.57664 0
M  V30 8109 H 1326.8 2.71005 0.804694 0
M  V30 8110 H 1326.99 1.63189 -0.603768 0
M  V30 8111 H 1327.1 -2.53475 0.997614 0
M  V30 8112 P 1328.33 -2.75334 8.47391 0
M  V30 8113 O 1328.55 -3.84128 9.44797 0
M  V30 8114 O 1329.12 -1.51947 8.68712 0
M  V30 8115 O 1328.58 -3.29363 6.99321 0
M  V30 8116 C 1327.64 -4.24011 6.4274 0
M  V30 8117 C 1328.37 -5.20775 5.52155 0
M  V30 8118 O 1328.58 -4.56534 4.22446 0
M  V30 8119 C 1329.77 -5.62629 5.96531 0
M  V30 8120 O 1330.16 -6.87667 5.41053 0
M  V30 8121 C 1330.65 -4.52537 5.39283 0
M  V30 8122 C 1329.94 -4.20027 4.08623 0
M  V30 8123 N 1329.99 -2.76189 3.71603 0
M  V30 8124 H 1327.15 -4.797 7.24003 0
M  V30 8125 H 1326.88 -3.69856 5.84513 0
M  V30 8126 H 1327.75 -6.10356 5.41441 0
M  V30 8127 P 1331.71 -7.20834 5.23717 0
M  V30 8128 O 1331.93 -8.66104 5.38572 0
M  V30 8129 O 1332.5 -6.33544 6.1349 0
M  V30 8130 O 1331.96 -6.7751 3.72168 0
M  V30 8131 C 1331.02 -7.20825 2.7076 0
M  V30 8132 C 1331.75 -7.45864 1.40599 0
M  V30 8133 O 1331.96 -6.17651 0.734225 0
M  V30 8134 C 1333.15 -8.05808 1.51899 0
M  V30 8135 O 1333.54 -8.74358 0.335205 0
M  V30 8136 C 1334.03 -6.83093 1.70294 0
M  V30 8137 C 1333.32 -5.79992 0.836974 0
M  V30 8138 N 1333.37 -4.41864 1.38293 0
M  V30 8139 H 1330.53 -8.13644 3.0377 0
M  V30 8140 H 1330.26 -6.42788 2.55485 0
M  V30 8141 H 1331.13 -8.12039 0.792769 0
M  V30 8142 P 1335.09 -8.91 -1.06447e-11 0
M  V30 8143 O 1335.31 -10.1726 -0.733694 0
M  V30 8144 O 1335.88 -8.73148 1.23936 0
M  V30 8145 O 1335.34 -7.66872 -0.971405 0
M  V30 8146 C 1334.4 -7.42309 -2.04641 0
M  V30 8147 C 1335.13 -6.86059 -3.24661 0
M  V30 8148 O 1335.34 -5.42847 -3.03646 0
M  V30 8149 C 1336.53 -7.41196 -3.50753 0
M  V30 8150 O 1336.92 -7.27073 -4.86816 0
M  V30 8151 C 1337.41 -6.5273 -2.63741 0
M  V30 8152 C 1336.7 -5.1842 -2.73198 0
M  V30 8153 N 1336.75 -4.38762 -1.4784 0
M  V30 8154 H 1333.91 -8.36803 -2.32493 0
M  V30 8155 H 1333.64 -6.70197 -1.71129 0
M  V30 8156 H 1334.51 -7.03551 -4.13168 0
M  V30 8157 P 1338.47 -7.20834 -5.23717 0
M  V30 8158 O 1338.69 -7.79853 -6.57286 0
M  V30 8159 O 1339.26 -7.79239 -4.12957 0
M  V30 8160 O 1338.72 -5.63315 -5.29344 0
M  V30 8161 C 1337.78 -4.80255 -6.01876 0
M  V30 8162 C 1338.51 -3.64202 -6.65911 0
M  V30 8163 O 1338.72 -2.60694 -5.64732 0
M  V30 8164 C 1339.91 -3.93473 -7.1943 0
M  V30 8165 O 1340.3 -3.02071 -8.21205 0
M  V30 8166 C 1340.79 -3.73047 -5.97036 0
M  V30 8167 C 1340.08 -2.58828 -5.25741 0
M  V30 8168 N 1340.13 -2.68068 -3.77503 0
M  V30 8169 H 1337.29 -5.40332 -6.79951 0
M  V30 8170 H 1337.02 -4.41613 -5.32378 0
M  V30 8171 H 1337.89 -3.26331 -7.47797 0
M  V30 8172 P 1341.85 -2.75334 -8.47391 0
M  V30 8173 O 1342.07 -2.44571 -9.90142 0
M  V30 8174 O 1342.64 -3.87688 -7.92115 0
M  V30 8175 O 1342.1 -1.4459 -7.59357 0
M  V30 8176 C 1341.16 -0.347608 -7.69215 0
M  V30 8177 C 1341.89 0.96767 -7.52806 0
M  V30 8178 O 1342.1 1.21036 -6.1011 0
M  V30 8179 C 1343.29 1.04544 -8.13308 0
M  V30 8180 O 1343.68 2.38311 -8.41922 0
M  V30 8181 C 1344.17 0.491279 -7.02284 0
M  V30 8182 C 1343.46 0.996264 -5.77469 0
M  V30 8183 N 1343.51 0.0501916 -4.62973 0
M  V30 8184 C 1343.43 -1.32786 -4.63244 0
M  V30 8185 N 1343.51 -1.86957 -3.44545 0
M  V30 8186 C 1343.65 -0.780241 -2.58481 0
M  V30 8187 C 1343.78 -0.738536 -1.17757 0
M  V30 8188 O 1343.8 -1.66794 -0.372349 0
M  V30 8189 N 1343.9 0.58337 -0.711393 0
M  V30 8190 C 1343.9 1.70816 -1.51017 0
M  V30 8191 N 1344.03 2.87826 -0.880757 0
M  V30 8192 N 1343.77 1.67126 -2.8339 0
M  V30 8193 C 1343.65 0.401421 -3.30572 0
M  V30 8194 H 1340.67 -0.374722 -8.67691 0
M  V30 8195 H 1340.4 -0.443485 -6.90277 0
M  V30 8196 H 1341.27 1.75537 -7.96793 0
M  V30 8197 H 1343.93 1.95076 -5.46529 0
M  V30 8198 H 1344.2 -0.608565 -7.04577 0
M  V30 8199 H 1345.2 0.889672 -7.08939 0
M  V30 8200 H 1343.36 0.43308 -9.04564 0
M  V30 8201 H 1343.31 -1.91249 -5.54442 0
M  V30 8202 H 1344 0.718054 0.275244 0
M  V30 8203 H 1344.03 3.75721 -1.41832 0
M  V30 8204 H 1344.13 2.90436 0.145468 0
M  V30 8205 P 1345.23 2.75334 -8.47391 0
M  V30 8206 O 1345.45 3.84128 -9.44797 0
M  V30 8207 O 1346.02 1.51947 -8.68712 0
M  V30 8208 O 1345.48 3.29363 -6.99321 0
M  V30 8209 C 1344.54 4.24011 -6.4274 0
M  V30 8210 C 1345.27 5.20775 -5.52155 0
M  V30 8211 O 1345.48 4.56534 -4.22446 0
M  V30 8212 C 1346.67 5.62629 -5.96531 0
M  V30 8213 O 1347.06 6.87667 -5.41053 0
M  V30 8214 C 1347.55 4.52537 -5.39283 0
M  V30 8215 C 1346.84 4.20027 -4.08623 0
M  V30 8216 N 1346.89 2.76189 -3.71603 0
M  V30 8217 H 1344.05 4.797 -7.24003 0
M  V30 8218 H 1343.78 3.69856 -5.84513 0
M  V30 8219 H 1344.65 6.10356 -5.41441 0
M  V30 8220 P 1348.61 7.20834 -5.23717 0
M  V30 8221 O 1348.83 8.66104 -5.38572 0
M  V30 8222 O 1349.4 6.33544 -6.1349 0
M  V30 8223 O 1348.86 6.7751 -3.72168 0
M  V30 8224 C 1347.92 7.20825 -2.7076 0
M  V30 8225 C 1348.65 7.45864 -1.40599 0
M  V30 8226 O 1348.86 6.17651 -0.734225 0
M  V30 8227 C 1350.05 8.05808 -1.51899 0
M  V30 8228 O 1350.44 8.74358 -0.335205 0
M  V30 8229 C 1350.93 6.83093 -1.70294 0
M  V30 8230 C 1350.22 5.79992 -0.836974 0
M  V30 8231 N 1350.27 4.41864 -1.38293 0
M  V30 8232 H 1347.43 8.13644 -3.0377 0
M  V30 8233 H 1347.16 6.42788 -2.55485 0
M  V30 8234 H 1348.03 8.12039 -0.792769 0
M  V30 8235 P 1351.99 8.91 1.08019e-11 0
M  V30 8236 O 1352.21 10.1726 0.733694 0
M  V30 8237 O 1352.78 8.73148 -1.23936 0
M  V30 8238 O 1352.24 7.66872 0.971405 0
M  V30 8239 C 1351.3 7.42309 2.04641 0
M  V30 8240 C 1352.03 6.86059 3.24661 0
M  V30 8241 O 1352.24 5.42847 3.03646 0
M  V30 8242 C 1353.43 7.41196 3.50753 0
M  V30 8243 O 1353.82 7.27073 4.86816 0
M  V30 8244 C 1354.31 6.5273 2.63741 0
M  V30 8245 C 1353.6 5.1842 2.73198 0
M  V30 8246 N 1353.65 4.38762 1.4784 0
M  V30 8247 H 1350.81 8.36803 2.32493 0
M  V30 8248 H 1350.54 6.70197 1.71129 0
M  V30 8249 H 1351.41 7.03551 4.13168 0
M  V30 8250 P 1355.37 7.20834 5.23717 0
M  V30 8251 O 1355.59 7.79853 6.57286 0
M  V30 8252 O 1356.16 7.79239 4.12957 0
M  V30 8253 O 1355.62 5.63315 5.29344 0
M  V30 8254 C 1354.68 4.80255 6.01876 0
M  V30 8255 C 1355.41 3.64202 6.65911 0
M  V30 8256 O 1355.62 2.60694 5.64732 0
M  V30 8257 C 1356.81 3.93473 7.1943 0
M  V30 8258 O 1357.2 3.02071 8.21205 0
M  V30 8259 C 1357.69 3.73047 5.97036 0
M  V30 8260 C 1356.98 2.58828 5.25741 0
M  V30 8261 N 1357.03 2.68068 3.77503 0
M  V30 8262 H 1354.19 5.40332 6.79951 0
M  V30 8263 H 1353.92 4.41613 5.32378 0
M  V30 8264 H 1354.79 3.26331 7.47797 0
M  V30 8265 P 1358.75 2.75334 8.47391 0
M  V30 8266 O 1358.97 2.44595 9.90239 0
M  V30 8267 O 1359.54 3.87732 7.92204 0
M  V30 8268 O 1359 1.4459 7.59357 0
M  V30 8269 C 1358.06 0.347608 7.69215 0
M  V30 8270 C 1358.79 -0.96767 7.52806 0
M  V30 8271 O 1359 -1.21036 6.1011 0
M  V30 8272 C 1360.19 -1.04544 8.13308 0
M  V30 8273 O 1360.58 -2.38311 8.41922 0
M  V30 8274 C 1361.07 -0.491279 7.02284 0
M  V30 8275 C 1360.36 -0.996264 5.77469 0
M  V30 8276 N 1360.41 -0.0501808 4.62873 0
M  V30 8277 C 1360.56 -0.578037 3.3505 0
M  V30 8278 O 1360.65 -1.8073 3.21711 0
M  V30 8279 N 1360.61 0.468541 2.263 0
M  V30 8280 C 1360.51 1.59186 2.47176 0
M  V30 8281 N 1360.56 2.37626 1.40392 0
M  V30 8282 C 1360.36 2.16203 3.77467 0
M  V30 8283 C 1360.31 1.29324 4.8195 0
M  V30 8284 H 1357.57 0.374679 8.67591 0
M  V30 8285 H 1357.3 0.443421 6.90177 0
M  V30 8286 H 1358.17 -1.75559 7.96891 0
M  V30 8287 H 1360.82 -1.94529 5.46723 0
M  V30 8288 H 1361.1 0.608651 7.04676 0
M  V30 8289 H 1362.1 -0.889672 7.08939 0
M  V30 8290 H 1360.26 -0.43308 9.04564 0
M  V30 8291 H 1360.19 1.67758 5.83046 0
M  V30 8292 H 1360.29 3.23869 3.92281 0
M  V30 8293 H 1360.68 1.96317 0.467202 0
M  V30 8294 H 1360.48 3.39693 1.51142 0
M  V30 8295 P 1362.13 -2.75334 8.47391 0
M  V30 8296 O 1362.35 -3.84128 9.44797 0
M  V30 8297 O 1362.92 -1.51947 8.68712 0
M  V30 8298 O 1362.38 -3.29363 6.99321 0
M  V30 8299 C 1361.44 -4.24011 6.4274 0
M  V30 8300 C 1362.17 -5.20775 5.52155 0
M  V30 8301 O 1362.38 -4.56534 4.22446 0
M  V30 8302 C 1363.57 -5.62629 5.96531 0
M  V30 8303 O 1363.96 -6.87667 5.41053 0
M  V30 8304 C 1364.45 -4.52537 5.39283 0
M  V30 8305 C 1363.74 -4.20027 4.08623 0
M  V30 8306 N 1363.79 -2.76189 3.71603 0
M  V30 8307 H 1360.95 -4.797 7.24003 0
M  V30 8308 H 1360.68 -3.69856 5.84513 0
M  V30 8309 H 1361.55 -6.10356 5.41441 0
M  V30 8310 P 1365.51 -7.20834 5.23717 0
M  V30 8311 O 1365.73 -8.66104 5.38572 0
M  V30 8312 O 1366.3 -6.33544 6.1349 0
M  V30 8313 O 1365.76 -6.7751 3.72168 0
M  V30 8314 C 1364.82 -7.20825 2.7076 0
M  V30 8315 C 1365.55 -7.45864 1.40599 0
M  V30 8316 O 1365.76 -6.17651 0.734225 0
M  V30 8317 C 1366.95 -8.05808 1.51899 0
M  V30 8318 O 1367.34 -8.74358 0.335205 0
M  V30 8319 C 1367.83 -6.83093 1.70294 0
M  V30 8320 C 1367.12 -5.79992 0.836974 0
M  V30 8321 N 1367.17 -4.41864 1.38293 0
M  V30 8322 H 1364.33 -8.13644 3.0377 0
M  V30 8323 H 1364.06 -6.42788 2.55485 0
M  V30 8324 H 1364.93 -8.12039 0.792769 0
M  V30 8325 P 1368.89 -8.91 -1.09591e-11 0
M  V30 8326 O 1369.11 -10.1746 -0.733838 0
M  V30 8327 O 1369.68 -8.73346 1.23964 0
M  V30 8328 O 1369.14 -7.66872 -0.971405 0
M  V30 8329 C 1368.2 -7.42405 -2.04668 0
M  V30 8330 C 1368.93 -6.86059 -3.24661 0
M  V30 8331 O 1369.14 -5.42934 -3.03695 0
M  V30 8332 C 1370.33 -7.41287 -3.50796 0
M  V30 8333 O 1370.72 -7.27073 -4.86816 0
M  V30 8334 C 1371.21 -6.5273 -2.63741 0
M  V30 8335 C 1370.5 -5.1842 -2.73198 0
M  V30 8336 N 1370.55 -4.38762 -1.4784 0
M  V30 8337 C 1370.47 -4.83651 -0.183876 0
M  V30 8338 N 1370.54 -3.88759 0.699393 0
M  V30 8339 C 1370.69 -2.7404 -0.0575568 0
M  V30 8340 C 1370.82 -1.37902 0.293928 0
M  V30 8341 N 1370.83 -0.938021 1.54797 0
M  V30 8342 N 1370.94 -0.491817 -0.70549 0
M  V30 8343 C 1370.93 -0.931735 -1.95979 0
M  V30 8344 N 1370.81 -2.16017 -2.41481 0
M  V30 8345 C 1370.69 -3.02547 -1.39121 0
M  V30 8346 H 1367.71 -8.36899 -2.3252 0
M  V30 8347 H 1367.44 -6.70391 -1.71179 0
M  V30 8348 H 1368.31 -7.03638 -4.13219 0
M  V30 8349 H 1370.96 -4.59931 -3.54016 0
M  V30 8350 H 1371.24 -6.88995 -1.59871 0
M  V30 8351 H 1372.24 -6.4684 -3.0373 0
M  V30 8352 H 1370.4 -8.47002 -3.20749 0
M  V30 8353 H 1370.36 -5.8885 0.0765548 0
M  V30 8354 H 1370.74 -1.60276 2.32875 0
M  V30 8355 H 1370.93 0.0699355 1.73859 0
M  V30 8356 H 1371.04 -0.165507 -2.71897 0
M  V30 8357 P 1372.27 -7.20834 -5.23717 0
M  V30 8358 O 1372.49 -7.79853 -6.57286 0
M  V30 8359 O 1373.06 -7.79239 -4.12957 0
M  V30 8360 O 1372.52 -5.63315 -5.29344 0
M  V30 8361 C 1371.58 -4.80255 -6.01876 0
M  V30 8362 C 1372.31 -3.64202 -6.65911 0
M  V30 8363 O 1372.52 -2.60694 -5.64732 0
M  V30 8364 C 1373.71 -3.93473 -7.1943 0
M  V30 8365 O 1374.1 -3.02071 -8.21205 0
M  V30 8366 C 1374.59 -3.73047 -5.97036 0
M  V30 8367 C 1373.88 -2.58828 -5.25741 0
M  V30 8368 N 1373.93 -2.68068 -3.77503 0
M  V30 8369 H 1371.09 -5.40332 -6.79951 0
M  V30 8370 H 1370.82 -4.41613 -5.32378 0
M  V30 8371 H 1371.69 -3.26331 -7.47797 0
M  V30 8372 P 1375.65 -2.75334 -8.47391 0
M  V30 8373 O 1375.87 -2.44571 -9.90142 0
M  V30 8374 O 1376.44 -3.87688 -7.92115 0
M  V30 8375 O 1375.9 -1.4459 -7.59357 0
M  V30 8376 C 1374.96 -0.347608 -7.69215 0
M  V30 8377 C 1375.69 0.96767 -7.52806 0
M  V30 8378 O 1375.9 1.21036 -6.1011 0
M  V30 8379 C 1377.09 1.04544 -8.13308 0
M  V30 8380 O 1377.48 2.38311 -8.41922 0
M  V30 8381 C 1377.97 0.491279 -7.02284 0
M  V30 8382 C 1377.26 0.996264 -5.77469 0
M  V30 8383 N 1377.31 0.0501916 -4.62973 0
M  V30 8384 H 1374.47 -0.374722 -8.67691 0
M  V30 8385 H 1374.2 -0.443485 -6.90277 0
M  V30 8386 H 1375.07 1.75537 -7.96793 0
M  V30 8387 P 1379.03 2.75334 -8.47391 0
M  V30 8388 O 1379.25 3.84128 -9.44797 0
M  V30 8389 O 1379.82 1.51947 -8.68712 0
M  V30 8390 O 1379.28 3.29363 -6.99321 0
M  V30 8391 C 1378.34 4.24011 -6.4274 0
M  V30 8392 C 1379.07 5.20775 -5.52155 0
M  V30 8393 O 1379.28 4.56534 -4.22446 0
M  V30 8394 C 1380.47 5.62629 -5.96531 0
M  V30 8395 O 1380.86 6.87667 -5.41053 0
M  V30 8396 C 1381.35 4.52537 -5.39283 0
M  V30 8397 C 1380.64 4.20027 -4.08623 0
M  V30 8398 N 1380.69 2.76189 -3.71603 0
M  V30 8399 C 1380.61 1.64862 -4.52822 0
M  V30 8400 N 1380.69 0.512671 -3.88633 0
M  V30 8401 C 1380.83 0.888083 -2.54977 0
M  V30 8402 C 1380.96 0.094668 -1.38677 0
M  V30 8403 O 1380.98 -1.13053 -1.28163 0
M  V30 8404 N 1381.08 0.890102 -0.232633 0
M  V30 8405 C 1381.08 2.26958 -0.21772 0
M  V30 8406 N 1381.21 2.84626 0.97925 0
M  V30 8407 N 1380.95 3.0178 -1.31033 0
M  V30 8408 C 1380.83 2.26781 -2.43843 0
M  V30 8409 H 1377.85 4.797 -7.24003 0
M  V30 8410 H 1377.58 3.69856 -5.84513 0
M  V30 8411 H 1378.45 6.10356 -5.41441 0
M  V30 8412 H 1381.1 4.79061 -3.27488 0
M  V30 8413 H 1381.38 3.64906 -6.05785 0
M  V30 8414 H 1382.38 4.8868 -5.2125 0
M  V30 8415 H 1380.54 5.66726 -7.06352 0
M  V30 8416 H 1380.49 1.71169 -5.60966 0
M  V30 8417 H 1381.17 0.419134 0.644739 0
M  V30 8418 H 1381.21 3.87332 1.06098 0
M  V30 8419 H 1381.31 2.26417 1.82483 0
M  V30 8420 P 1382.41 7.20834 -5.23717 0
M  V30 8421 O 1382.63 8.66104 -5.38572 0
M  V30 8422 O 1383.2 6.33544 -6.1349 0
M  V30 8423 O 1382.66 6.7751 -3.72168 0
M  V30 8424 C 1381.72 7.20825 -2.7076 0
M  V30 8425 C 1382.45 7.45864 -1.40599 0
M  V30 8426 O 1382.66 6.17651 -0.734225 0
M  V30 8427 C 1383.85 8.05808 -1.51899 0
M  V30 8428 O 1384.24 8.74358 -0.335205 0
M  V30 8429 C 1384.73 6.83093 -1.70294 0
M  V30 8430 C 1384.02 5.79992 -0.836974 0
M  V30 8431 N 1384.07 4.41864 -1.38293 0
M  V30 8432 H 1381.23 8.13644 -3.0377 0
M  V30 8433 H 1380.96 6.42788 -2.55485 0
M  V30 8434 H 1381.83 8.12039 -0.792769 0
M  V30 8435 P 1385.79 8.91 1.03566e-11 0
M  V30 8436 O 1386.01 10.1746 0.733838 0
M  V30 8437 O 1386.58 8.73346 -1.23964 0
M  V30 8438 O 1386.04 7.66872 0.971405 0
M  V30 8439 C 1385.1 7.42405 2.04668 0
M  V30 8440 C 1385.83 6.86059 3.24661 0
M  V30 8441 O 1386.04 5.42934 3.03695 0
M  V30 8442 C 1387.23 7.41287 3.50796 0
M  V30 8443 O 1387.62 7.27073 4.86816 0
M  V30 8444 C 1388.11 6.5273 2.63741 0
M  V30 8445 C 1387.4 5.1842 2.73198 0
M  V30 8446 N 1387.45 4.38762 1.4784 0
M  V30 8447 C 1387.37 4.83651 0.183876 0
M  V30 8448 N 1387.44 3.88759 -0.699393 0
M  V30 8449 C 1387.59 2.7404 0.0575568 0
M  V30 8450 C 1387.72 1.37902 -0.293928 0
M  V30 8451 N 1387.73 0.938021 -1.54797 0
M  V30 8452 N 1387.84 0.491817 0.70549 0
M  V30 8453 C 1387.83 0.931735 1.95979 0
M  V30 8454 N 1387.71 2.16017 2.41481 0
M  V30 8455 C 1387.59 3.02547 1.39121 0
M  V30 8456 H 1384.61 8.36899 2.3252 0
M  V30 8457 H 1384.34 6.70391 1.71179 0
M  V30 8458 H 1385.21 7.03638 4.13219 0
M  V30 8459 H 1387.86 4.59931 3.54016 0
M  V30 8460 H 1388.14 6.88995 1.59871 0
M  V30 8461 H 1389.14 6.4684 3.0373 0
M  V30 8462 H 1387.3 8.47002 3.20749 0
M  V30 8463 H 1387.26 5.8885 -0.0765548 0
M  V30 8464 H 1387.64 1.60276 -2.32875 0
M  V30 8465 H 1387.83 -0.0699355 -1.73859 0
M  V30 8466 H 1387.94 0.165507 2.71897 0
M  V30 8467 P 1389.17 7.20834 5.23717 0
M  V30 8468 O 1389.39 7.79853 6.57286 0
M  V30 8469 O 1389.96 7.79239 4.12957 0
M  V30 8470 O 1389.42 5.63315 5.29344 0
M  V30 8471 C 1388.48 4.80255 6.01876 0
M  V30 8472 C 1389.21 3.64202 6.65911 0
M  V30 8473 O 1389.42 2.60694 5.64732 0
M  V30 8474 C 1390.61 3.93473 7.1943 0
M  V30 8475 O 1391 3.02071 8.21205 0
M  V30 8476 C 1391.49 3.73047 5.97036 0
M  V30 8477 C 1390.78 2.58828 5.25741 0
M  V30 8478 N 1390.83 2.68068 3.77503 0
M  V30 8479 C 1390.75 3.79715 2.96723 0
M  V30 8480 N 1390.83 3.5377 1.68852 0
M  V30 8481 C 1390.97 2.15054 1.63254 0
M  V30 8482 C 1391.1 1.28964 0.518571 0
M  V30 8483 N 1391.22 -0.0538097 0.918425 0
M  V30 8484 C 1391.22 -0.494275 2.22578 0
M  V30 8485 N 1391.35 -1.81086 2.40434 0
M  V30 8486 N 1391.09 0.313645 3.27502 0
M  V30 8487 C 1390.97 1.61829 2.91033 0
M  V30 8488 H 1387.99 5.40332 6.79951 0
M  V30 8489 H 1387.72 4.41613 5.32378 0
M  V30 8490 H 1388.59 3.26331 7.47797 0
M  V30 8491 P 1392.55 2.75334 8.47391 0
M  V30 8492 O 1392.77 2.44571 9.90142 0
M  V30 8493 O 1393.34 3.87688 7.92115 0
M  V30 8494 O 1392.8 1.4459 7.59357 0
M  V30 8495 C 1391.86 0.347608 7.69215 0
M  V30 8496 C 1392.59 -0.96767 7.52806 0
M  V30 8497 O 1392.8 -1.21036 6.1011 0
M  V30 8498 C 1393.99 -1.04544 8.13308 0
M  V30 8499 O 1394.38 -2.38311 8.41922 0
M  V30 8500 C 1394.87 -0.491279 7.02284 0
M  V30 8501 C 1394.16 -0.996264 5.77469 0
M  V30 8502 N 1394.21 -0.0501916 4.62973 0
M  V30 8503 H 1391.37 0.374722 8.67691 0
M  V30 8504 H 1391.1 0.443485 6.90277 0
M  V30 8505 H 1391.97 -1.75537 7.96793 0
M  V30 8506 P 1395.93 -2.75334 8.47391 0
M  V30 8507 O 1396.15 -3.84128 9.44797 0
M  V30 8508 O 1396.72 -1.51947 8.68712 0
M  V30 8509 O 1396.18 -3.29363 6.99321 0
M  V30 8510 C 1395.24 -4.24011 6.4274 0
M  V30 8511 C 1395.97 -5.20775 5.52155 0
M  V30 8512 O 1396.18 -4.56534 4.22446 0
M  V30 8513 C 1397.37 -5.62629 5.96531 0
M  V30 8514 O 1397.76 -6.87667 5.41053 0
M  V30 8515 C 1398.25 -4.52537 5.39283 0
M  V30 8516 C 1397.54 -4.20027 4.08623 0
M  V30 8517 N 1397.59 -2.76189 3.71603 0
M  V30 8518 H 1394.75 -4.797 7.24003 0
M  V30 8519 H 1394.48 -3.69856 5.84513 0
M  V30 8520 H 1395.35 -6.10356 5.41441 0
M  V30 8521 P 1399.31 -7.20834 5.23717 0
M  V30 8522 O 1399.53 -8.66104 5.38572 0
M  V30 8523 O 1400.1 -6.33544 6.1349 0
M  V30 8524 O 1399.56 -6.7751 3.72168 0
M  V30 8525 C 1398.62 -7.20825 2.7076 0
M  V30 8526 C 1399.35 -7.45864 1.40599 0
M  V30 8527 O 1399.56 -6.17651 0.734225 0
M  V30 8528 C 1400.75 -8.05808 1.51899 0
M  V30 8529 O 1401.14 -8.74358 0.335205 0
M  V30 8530 C 1401.63 -6.83093 1.70294 0
M  V30 8531 C 1400.92 -5.79992 0.836974 0
M  V30 8532 N 1400.97 -4.41864 1.38293 0
M  V30 8533 H 1398.13 -8.13644 3.0377 0
M  V30 8534 H 1397.86 -6.42788 2.55485 0
M  V30 8535 H 1398.73 -8.12039 0.792769 0
M  V30 8536 P 1402.69 -8.91 -9.24756e-12 0
M  V30 8537 O 1402.91 -10.1726 -0.733694 0
M  V30 8538 O 1403.48 -8.73148 1.23936 0
M  V30 8539 O 1402.94 -7.66872 -0.971405 0
M  V30 8540 C 1402 -7.42309 -2.04641 0
M  V30 8541 C 1402.73 -6.86059 -3.24661 0
M  V30 8542 O 1402.94 -5.42847 -3.03646 0
M  V30 8543 C 1404.13 -7.41196 -3.50753 0
M  V30 8544 O 1404.52 -7.27073 -4.86816 0
M  V30 8545 C 1405.01 -6.5273 -2.63741 0
M  V30 8546 C 1404.3 -5.1842 -2.73198 0
M  V30 8547 N 1404.35 -4.38762 -1.4784 0
M  V30 8548 H 1401.51 -8.36803 -2.32493 0
M  V30 8549 H 1401.24 -6.70197 -1.71129 0
M  V30 8550 H 1402.11 -7.03551 -4.13168 0
M  V30 8551 P 1406.07 -7.20834 -5.23717 0
M  V30 8552 O 1406.29 -7.79853 -6.57286 0
M  V30 8553 O 1406.86 -7.79239 -4.12957 0
M  V30 8554 O 1406.32 -5.63315 -5.29344 0
M  V30 8555 C 1405.38 -4.80255 -6.01876 0
M  V30 8556 C 1406.11 -3.64202 -6.65911 0
M  V30 8557 O 1406.32 -2.60694 -5.64732 0
M  V30 8558 C 1407.51 -3.93473 -7.1943 0
M  V30 8559 O 1407.9 -3.02071 -8.21205 0
M  V30 8560 C 1408.39 -3.73047 -5.97036 0
M  V30 8561 C 1407.68 -2.58828 -5.25741 0
M  V30 8562 N 1407.73 -2.68068 -3.77503 0
M  V30 8563 H 1404.89 -5.40332 -6.79951 0
M  V30 8564 H 1404.62 -4.41613 -5.32378 0
M  V30 8565 H 1405.49 -3.26331 -7.47797 0
M  V30 8566 P 1409.45 -2.75334 -8.47391 0
M  V30 8567 O 1409.67 -2.44571 -9.90142 0
M  V30 8568 O 1410.24 -3.87688 -7.92115 0
M  V30 8569 O 1409.7 -1.4459 -7.59357 0
M  V30 8570 C 1408.76 -0.347608 -7.69215 0
M  V30 8571 C 1409.49 0.96767 -7.52806 0
M  V30 8572 O 1409.7 1.21036 -6.1011 0
M  V30 8573 C 1410.89 1.04544 -8.13308 0
M  V30 8574 O 1411.28 2.38311 -8.41922 0
M  V30 8575 C 1411.77 0.491279 -7.02284 0
M  V30 8576 C 1411.06 0.996264 -5.77469 0
M  V30 8577 N 1411.11 0.0501916 -4.62973 0
M  V30 8578 H 1408.27 -0.374722 -8.67691 0
M  V30 8579 H 1408 -0.443485 -6.90277 0
M  V30 8580 H 1408.87 1.75537 -7.96793 0
M  V30 8581 P 1412.83 2.75334 -8.47391 0
M  V30 8582 O 1413.05 3.84166 -9.4489 0
M  V30 8583 O 1413.62 1.51964 -8.6881 0
M  V30 8584 O 1413.08 3.29363 -6.99321 0
M  V30 8585 C 1412.14 4.23956 -6.42656 0
M  V30 8586 C 1412.87 5.20775 -5.52155 0
M  V30 8587 O 1413.08 4.56534 -4.22446 0
M  V30 8588 C 1414.27 5.62629 -5.96531 0
M  V30 8589 O 1414.66 6.87667 -5.41053 0
M  V30 8590 C 1415.15 4.52537 -5.39283 0
M  V30 8591 C 1414.44 4.20027 -4.08623 0
M  V30 8592 N 1414.49 2.7613 -3.71522 0
M  V30 8593 C 1414.64 2.45612 -2.37989 0
M  V30 8594 O 1414.73 3.30919 -1.51621 0
M  V30 8595 N 1414.68 1.10684 -2.08435 0
M  V30 8596 C 1414.59 0.0690084 -2.9792 0
M  V30 8597 C 1414.44 0.481522 -4.35345 0
M  V30 8598 C 1414.39 1.78906 -4.67968 0
M  V30 8599 H 1411.65 4.797 -7.24003 0
M  V30 8600 H 1411.38 3.69802 -5.84429 0
M  V30 8601 H 1412.25 6.10356 -5.41441 0
M  V30 8602 H 1414.9 4.78651 -3.27911 0
M  V30 8603 H 1415.18 3.64957 -6.05871 0
M  V30 8604 H 1416.18 4.8868 -5.2125 0
M  V30 8605 H 1414.34 5.66726 -7.06352 0
M  V30 8606 H 1414.27 2.07737 -5.72367 0
M  V30 8607 P 1416.21 7.20834 -5.23717 0
M  V30 8608 O 1416.43 8.66189 -5.38625 0
M  V30 8609 O 1417 6.33615 -6.1356 0
M  V30 8610 O 1416.46 6.7751 -3.72168 0
M  V30 8611 C 1415.52 7.20732 -2.70725 0
M  V30 8612 C 1416.25 7.45864 -1.40599 0
M  V30 8613 O 1416.46 6.17651 -0.734225 0
M  V30 8614 C 1417.65 8.05808 -1.51899 0
M  V30 8615 O 1418.04 8.74358 -0.335205 0
M  V30 8616 C 1418.53 6.83093 -1.70294 0
M  V30 8617 C 1417.82 5.79992 -0.836974 0
M  V30 8618 N 1417.87 4.41769 -1.38263 0
M  V30 8619 C 1418.02 3.38591 -0.481702 0
M  V30 8620 O 1418.11 3.56839 0.718452 0
M  V30 8621 N 1418.06 2.1206 -1.03569 0
M  V30 8622 C 1417.97 1.80696 -2.36966 0
M  V30 8623 O 1418.02 0.630473 -2.74862 0
M  V30 8624 C 1417.82 2.94845 -3.23898 0
M  V30 8625 C 1417.71 2.65253 -4.70362 0
M  V30 8626 C 1417.77 4.19803 -2.73435 0
M  V30 8627 H 1415.03 8.13644 -3.0377 0
M  V30 8628 H 1414.76 6.42695 -2.55448 0
M  V30 8629 H 1415.63 8.12039 -0.792769 0
M  V30 8630 H 1418.28 5.79978 0.160587 0
M  V30 8631 H 1418.56 6.51379 -2.75643 0
M  V30 8632 H 1419.56 7.01734 -1.34462 0
M  V30 8633 H 1417.72 8.73674 -2.38337 0
M  V30 8634 H 1417.65 5.04492 -3.4095 0
M  V30 8635 H 1418.68 2.83924 -5.1913 0
M  V30 8636 H 1416.94 3.29824 -5.15163 0
M  V30 8637 H 1417.43 1.59723 -4.84449 0
M  V30 8638 H 1418.17 1.35644 -0.399345 0
M  V30 8639 P 1419.59 8.91 8.13856e-12 0
M  V30 8640 O 1419.81 10.1746 0.733838 0
M  V30 8641 O 1420.38 8.73346 -1.23964 0
M  V30 8642 O 1419.84 7.66872 0.971405 0
M  V30 8643 C 1418.9 7.42405 2.04668 0
M  V30 8644 C 1419.63 6.86059 3.24661 0
M  V30 8645 O 1419.84 5.42934 3.03695 0
M  V30 8646 C 1421.03 7.41287 3.50796 0
M  V30 8647 O 1421.42 7.27073 4.86816 0
M  V30 8648 C 1421.91 6.5273 2.63741 0
M  V30 8649 C 1421.2 5.1842 2.73198 0
M  V30 8650 N 1421.25 4.38762 1.4784 0
M  V30 8651 C 1421.17 4.83651 0.183876 0
M  V30 8652 N 1421.24 3.88759 -0.699393 0
M  V30 8653 C 1421.39 2.7404 0.0575568 0
M  V30 8654 C 1421.52 1.37902 -0.293928 0
M  V30 8655 N 1421.53 0.938021 -1.54797 0
M  V30 8656 N 1421.64 0.491817 0.70549 0
M  V30 8657 C 1421.63 0.931735 1.95979 0
M  V30 8658 N 1421.51 2.16017 2.41481 0
M  V30 8659 C 1421.39 3.02547 1.39121 0
M  V30 8660 H 1418.41 8.36899 2.3252 0
M  V30 8661 H 1418.14 6.70391 1.71179 0
M  V30 8662 H 1419.01 7.03638 4.13219 0
M  V30 8663 H 1421.66 4.59931 3.54016 0
M  V30 8664 H 1421.94 6.88995 1.59871 0
M  V30 8665 H 1422.94 6.4684 3.0373 0
M  V30 8666 H 1421.1 8.47002 3.20749 0
M  V30 8667 H 1421.06 5.8885 -0.0765548 0
M  V30 8668 H 1421.44 1.60276 -2.32875 0
M  V30 8669 H 1421.63 -0.0699355 -1.73859 0
M  V30 8670 H 1421.74 0.165507 2.71897 0
M  V30 8671 P 1422.97 7.20834 5.23717 0
M  V30 8672 O 1423.19 7.79853 6.57286 0
M  V30 8673 O 1423.76 7.79239 4.12957 0
M  V30 8674 O 1423.22 5.63315 5.29344 0
M  V30 8675 C 1422.28 4.80255 6.01876 0
M  V30 8676 C 1423.01 3.64202 6.65911 0
M  V30 8677 O 1423.22 2.60694 5.64732 0
M  V30 8678 C 1424.41 3.93473 7.1943 0
M  V30 8679 O 1424.8 3.02071 8.21205 0
M  V30 8680 C 1425.29 3.73047 5.97036 0
M  V30 8681 C 1424.58 2.58828 5.25741 0
M  V30 8682 N 1424.63 2.68068 3.77503 0
M  V30 8683 C 1424.55 3.79715 2.96723 0
M  V30 8684 N 1424.63 3.5377 1.68852 0
M  V30 8685 C 1424.77 2.15054 1.63254 0
M  V30 8686 C 1424.9 1.28964 0.518571 0
M  V30 8687 N 1425.02 -0.0538097 0.918425 0
M  V30 8688 C 1425.02 -0.494275 2.22578 0
M  V30 8689 N 1425.15 -1.81086 2.40434 0
M  V30 8690 N 1424.89 0.313645 3.27502 0
M  V30 8691 C 1424.77 1.61829 2.91033 0
M  V30 8692 H 1421.79 5.40332 6.79951 0
M  V30 8693 H 1421.52 4.41613 5.32378 0
M  V30 8694 H 1422.39 3.26331 7.47797 0
M  V30 8695 P 1426.35 2.75334 8.47391 0
M  V30 8696 O 1426.57 2.44571 9.90142 0
M  V30 8697 O 1427.14 3.87688 7.92115 0
M  V30 8698 O 1426.6 1.4459 7.59357 0
M  V30 8699 C 1425.66 0.347608 7.69215 0
M  V30 8700 C 1426.39 -0.96767 7.52806 0
M  V30 8701 O 1426.6 -1.21036 6.1011 0
M  V30 8702 C 1427.79 -1.04544 8.13308 0
M  V30 8703 O 1428.18 -2.38311 8.41922 0
M  V30 8704 C 1428.67 -0.491279 7.02284 0
M  V30 8705 C 1427.96 -0.996264 5.77469 0
M  V30 8706 N 1428.01 -0.0501916 4.62973 0
M  V30 8707 H 1425.17 0.374722 8.67691 0
M  V30 8708 H 1424.9 0.443485 6.90277 0
M  V30 8709 H 1425.77 -1.75537 7.96793 0
M  V30 8710 P 1429.73 -2.75334 8.47391 0
M  V30 8711 O 1429.95 -3.84128 9.44797 0
M  V30 8712 O 1430.52 -1.51947 8.68712 0
M  V30 8713 O 1429.98 -3.29363 6.99321 0
M  V30 8714 C 1429.04 -4.24011 6.4274 0
M  V30 8715 C 1429.77 -5.20775 5.52155 0
M  V30 8716 O 1429.98 -4.56534 4.22446 0
M  V30 8717 C 1431.17 -5.62629 5.96531 0
M  V30 8718 O 1431.56 -6.87667 5.41053 0
M  V30 8719 C 1432.05 -4.52537 5.39283 0
M  V30 8720 C 1431.34 -4.20027 4.08623 0
M  V30 8721 N 1431.39 -2.76189 3.71603 0
M  V30 8722 C 1431.31 -1.64862 4.52822 0
M  V30 8723 N 1431.39 -0.512671 3.88633 0
M  V30 8724 C 1431.53 -0.888083 2.54977 0
M  V30 8725 C 1431.66 -0.094668 1.38677 0
M  V30 8726 O 1431.68 1.13053 1.28163 0
M  V30 8727 N 1431.78 -0.890102 0.232633 0
M  V30 8728 C 1431.78 -2.26958 0.21772 0
M  V30 8729 N 1431.91 -2.84626 -0.97925 0
M  V30 8730 N 1431.65 -3.0178 1.31033 0
M  V30 8731 C 1431.53 -2.26781 2.43843 0
M  V30 8732 H 1428.55 -4.797 7.24003 0
M  V30 8733 H 1428.28 -3.69856 5.84513 0
M  V30 8734 H 1429.15 -6.10356 5.41441 0
M  V30 8735 H 1431.8 -4.79061 3.27488 0
M  V30 8736 H 1432.08 -3.64906 6.05785 0
M  V30 8737 H 1433.08 -4.8868 5.2125 0
M  V30 8738 H 1431.24 -5.66726 7.06352 0
M  V30 8739 H 1431.19 -1.71169 5.60966 0
M  V30 8740 H 1431.87 -0.419134 -0.644739 0
M  V30 8741 H 1431.91 -3.87332 -1.06098 0
M  V30 8742 H 1432.01 -2.26417 -1.82483 0
M  V30 8743 P 1433.11 -7.20834 5.23717 0
M  V30 8744 O 1433.33 -8.66274 5.38678 0
M  V30 8745 O 1433.9 -6.33687 6.13629 0
M  V30 8746 O 1433.36 -6.7751 3.72168 0
M  V30 8747 C 1432.42 -7.20919 2.70795 0
M  V30 8748 C 1433.15 -7.45864 1.40599 0
M  V30 8749 O 1433.36 -6.17751 0.734343 0
M  V30 8750 C 1434.55 -8.05906 1.51917 0
M  V30 8751 O 1434.94 -8.74358 0.335205 0
M  V30 8752 C 1435.43 -6.83093 1.70294 0
M  V30 8753 C 1434.72 -5.79992 0.836974 0
M  V30 8754 N 1434.77 -4.41864 1.38293 0
M  V30 8755 C 1434.69 -4.02089 2.69407 0
M  V30 8756 N 1434.76 -2.73403 2.85089 0
M  V30 8757 C 1434.91 -2.25086 1.5642 0
M  V30 8758 C 1435.04 -0.942887 1.04836 0
M  V30 8759 N 1435.05 0.150999 1.80369 0
M  V30 8760 N 1435.16 -0.812565 -0.28167 0
M  V30 8761 C 1435.15 -1.90572 -1.03784 0
M  V30 8762 N 1435.03 -3.167 -0.683905 0
M  V30 8763 C 1434.91 -3.26538 0.652815 0
M  V30 8764 H 1431.93 -8.13738 3.03804 0
M  V30 8765 H 1431.66 -6.42974 2.55559 0
M  V30 8766 H 1432.53 -8.12139 0.792866 0
M  V30 8767 H 1435.18 -5.80178 -0.160643 0
M  V30 8768 H 1435.46 -6.51379 2.75643 0
M  V30 8769 H 1436.46 -7.01832 1.3448 0
M  V30 8770 H 1434.62 -8.73771 2.38364 0
M  V30 8771 H 1434.58 -4.7189 3.52311 0
M  V30 8772 H 1434.96 0.0721434 2.82608 0
M  V30 8773 H 1435.15 1.0785 1.36544 0
M  V30 8774 H 1435.26 -1.73207 -2.10241 0
M  V30 8775 P 1436.49 -8.91 -7.02955e-12 0
M  V30 8776 O 1436.71 -10.1726 -0.733694 0
M  V30 8777 O 1437.28 -8.73148 1.23936 0
M  V30 8778 O 1436.74 -7.66872 -0.971405 0
M  V30 8779 C 1435.8 -7.42309 -2.04641 0
M  V30 8780 C 1436.53 -6.86059 -3.24661 0
M  V30 8781 O 1436.74 -5.42847 -3.03646 0
M  V30 8782 C 1437.93 -7.41196 -3.50753 0
M  V30 8783 O 1438.32 -7.27073 -4.86816 0
M  V30 8784 C 1438.81 -6.5273 -2.63741 0
M  V30 8785 C 1438.1 -5.1842 -2.73198 0
M  V30 8786 N 1438.15 -4.38762 -1.4784 0
M  V30 8787 H 1435.31 -8.36803 -2.32493 0
M  V30 8788 H 1435.04 -6.70197 -1.71129 0
M  V30 8789 H 1435.91 -7.03551 -4.13168 0
M  V30 8790 P 1439.87 -7.20834 -5.23717 0
M  V30 8791 O 1440.09 -7.79853 -6.57286 0
M  V30 8792 O 1440.66 -7.79239 -4.12957 0
M  V30 8793 O 1440.12 -5.63315 -5.29344 0
M  V30 8794 C 1439.18 -4.80255 -6.01876 0
M  V30 8795 C 1439.91 -3.64202 -6.65911 0
M  V30 8796 O 1440.12 -2.60694 -5.64732 0
M  V30 8797 C 1441.31 -3.93473 -7.1943 0
M  V30 8798 O 1441.7 -3.02071 -8.21205 0
M  V30 8799 C 1442.19 -3.73047 -5.97036 0
M  V30 8800 C 1441.48 -2.58828 -5.25741 0
M  V30 8801 N 1441.53 -2.68068 -3.77503 0
M  V30 8802 H 1438.69 -5.40332 -6.79951 0
M  V30 8803 H 1438.42 -4.41613 -5.32378 0
M  V30 8804 H 1439.29 -3.26331 -7.47797 0
M  V30 8805 P 1443.25 -2.75334 -8.47391 0
M  V30 8806 O 1443.47 -2.44571 -9.90142 0
M  V30 8807 O 1444.04 -3.87688 -7.92115 0
M  V30 8808 O 1443.5 -1.4459 -7.59357 0
M  V30 8809 C 1442.56 -0.347608 -7.69215 0
M  V30 8810 C 1443.29 0.96767 -7.52806 0
M  V30 8811 O 1443.5 1.21036 -6.1011 0
M  V30 8812 C 1444.69 1.04544 -8.13308 0
M  V30 8813 O 1445.08 2.38311 -8.41922 0
M  V30 8814 C 1445.57 0.491279 -7.02284 0
M  V30 8815 C 1444.86 0.996264 -5.77469 0
M  V30 8816 N 1444.91 0.0501916 -4.62973 0
M  V30 8817 H 1442.07 -0.374722 -8.67691 0
M  V30 8818 H 1441.8 -0.443485 -6.90277 0
M  V30 8819 H 1442.67 1.75537 -7.96793 0
M  V30 8820 P 1446.63 2.75334 -8.47391 0
M  V30 8821 O 1446.85 3.84128 -9.44797 0
M  V30 8822 O 1447.42 1.51947 -8.68712 0
M  V30 8823 O 1446.88 3.29363 -6.99321 0
M  V30 8824 C 1445.94 4.24011 -6.4274 0
M  V30 8825 C 1446.67 5.20775 -5.52155 0
M  V30 8826 O 1446.88 4.56534 -4.22446 0
M  V30 8827 C 1448.07 5.62629 -5.96531 0
M  V30 8828 O 1448.46 6.87667 -5.41053 0
M  V30 8829 C 1448.95 4.52537 -5.39283 0
M  V30 8830 C 1448.24 4.20027 -4.08623 0
M  V30 8831 N 1448.29 2.76189 -3.71603 0
M  V30 8832 H 1445.45 4.797 -7.24003 0
M  V30 8833 H 1445.18 3.69856 -5.84513 0
M  V30 8834 H 1446.05 6.10356 -5.41441 0
M  V30 8835 P 1450.01 7.20834 -5.23717 0
M  V30 8836 O 1450.23 8.66104 -5.38572 0
M  V30 8837 O 1450.8 6.33544 -6.1349 0
M  V30 8838 O 1450.26 6.7751 -3.72168 0
M  V30 8839 C 1449.32 7.20825 -2.7076 0
M  V30 8840 C 1450.05 7.45864 -1.40599 0
M  V30 8841 O 1450.26 6.17651 -0.734225 0
M  V30 8842 C 1451.45 8.05808 -1.51899 0
M  V30 8843 O 1451.84 8.74358 -0.335205 0
M  V30 8844 C 1452.33 6.83093 -1.70294 0
M  V30 8845 C 1451.62 5.79992 -0.836974 0
M  V30 8846 N 1451.67 4.41864 -1.38293 0
M  V30 8847 H 1448.83 8.13644 -3.0377 0
M  V30 8848 H 1448.56 6.42788 -2.55485 0
M  V30 8849 H 1449.43 8.12039 -0.792769 0
M  V30 8850 P 1453.39 8.91 5.92055e-12 0
M  V30 8851 O 1453.61 10.1746 0.733838 0
M  V30 8852 O 1454.18 8.73346 -1.23964 0
M  V30 8853 O 1453.64 7.66872 0.971405 0
M  V30 8854 C 1452.7 7.42405 2.04668 0
M  V30 8855 C 1453.43 6.86059 3.24661 0
M  V30 8856 O 1453.64 5.42934 3.03695 0
M  V30 8857 C 1454.83 7.41287 3.50796 0
M  V30 8858 O 1455.22 7.27073 4.86816 0
M  V30 8859 C 1455.71 6.5273 2.63741 0
M  V30 8860 C 1455 5.1842 2.73198 0
M  V30 8861 N 1455.05 4.38762 1.4784 0
M  V30 8862 H 1452.21 8.36899 2.3252 0
M  V30 8863 H 1451.94 6.70391 1.71179 0
M  V30 8864 H 1452.81 7.03638 4.13219 0
M  V30 8865 H 1455.46 4.59931 3.54016 0
M  V30 8866 H 1455.74 6.88995 1.59871 0
M  V30 8867 H 1456.74 6.4684 3.0373 0
M  V30 8868 H 1454.9 8.47002 3.20749 0
M  V30 8869 P 1456.77 7.20834 5.23717 0
M  V30 8870 O 1456.99 7.7993 6.57351 0
M  V30 8871 O 1457.56 7.79328 4.13004 0
M  V30 8872 O 1457.02 5.63315 5.29344 0
M  V30 8873 C 1456.08 4.80193 6.01798 0
M  V30 8874 C 1456.81 3.64202 6.65911 0
M  V30 8875 O 1457.02 2.60694 5.64732 0
M  V30 8876 C 1458.21 3.93473 7.1943 0
M  V30 8877 O 1458.6 3.02071 8.21205 0
M  V30 8878 C 1459.09 3.73047 5.97036 0
M  V30 8879 C 1458.38 2.58828 5.25741 0
M  V30 8880 N 1458.43 2.6801 3.77422 0
M  V30 8881 C 1458.58 1.50443 3.07133 0
M  V30 8882 O 1458.67 0.419406 3.61576 0
M  V30 8883 N 1458.62 1.6403 1.69677 0
M  V30 8884 C 1458.53 2.81206 0.986255 0
M  V30 8885 O 1458.58 2.80892 -0.249754 0
M  V30 8886 C 1458.38 3.99158 1.80325 0
M  V30 8887 C 1458.27 5.29309 1.06921 0
M  V30 8888 C 1458.33 3.89779 3.1476 0
M  V30 8889 H 1455.59 5.40332 6.79951 0
M  V30 8890 H 1455.32 4.41549 5.32301 0
M  V30 8891 H 1456.19 3.26331 7.47797 0
M  V30 8892 H 1458.84 1.6395 5.56554 0
M  V30 8893 H 1459.12 4.63439 5.3432 0
M  V30 8894 H 1460.12 3.44728 6.25838 0
M  V30 8895 H 1458.28 4.96652 7.57263 0
M  V30 8896 H 1458.21 4.80159 3.74441 0
M  V30 8897 H 1459.24 5.81459 1.09608 0
M  V30 8898 H 1457.5 5.9187 1.54487 0
M  V30 8899 H 1457.99 5.10095 0.0220288 0
M  V30 8900 H 1458.73 0.798962 1.16664 0
M  V30 8901 P 1460.15 2.75334 8.47391 0
M  V30 8902 O 1460.37 2.44619 9.90336 0
M  V30 8903 O 1460.94 3.87776 7.92294 0
M  V30 8904 O 1460.4 1.4459 7.59357 0
M  V30 8905 C 1459.46 0.347653 7.69315 0
M  V30 8906 C 1460.19 -0.96767 7.52806 0
M  V30 8907 O 1460.4 -1.21055 6.10208 0
M  V30 8908 C 1461.59 -1.04557 8.13408 0
M  V30 8909 O 1461.98 -2.38311 8.41922 0
M  V30 8910 C 1462.47 -0.491279 7.02284 0
M  V30 8911 C 1461.76 -0.996264 5.77469 0
M  V30 8912 N 1461.81 -0.0501916 4.62973 0
M  V30 8913 C 1461.73 1.31969 4.65661 0
M  V30 8914 N 1461.8 1.86649 3.48119 0
M  V30 8915 C 1461.95 0.792089 2.62406 0
M  V30 8916 C 1462.08 0.705684 1.2207 0
M  V30 8917 N 1462.09 1.76207 0.413762 0
M  V30 8918 N 1462.2 -0.518981 0.685754 0
M  V30 8919 C 1462.19 -1.57595 1.49174 0
M  V30 8920 N 1462.07 -1.62909 2.80066 0
M  V30 8921 C 1461.95 -0.388195 3.3073 0
M  V30 8922 H 1458.97 0.374765 8.67791 0
M  V30 8923 H 1458.7 0.443613 6.90476 0
M  V30 8924 H 1459.57 -1.75559 7.96891 0
M  V30 8925 H 1462.22 -1.94563 5.46818 0
M  V30 8926 H 1462.5 0.608651 7.04676 0
M  V30 8927 H 1463.5 -0.889796 7.09039 0
M  V30 8928 H 1461.66 -0.433128 9.04664 0
M  V30 8929 H 1461.62 1.89246 5.57664 0
M  V30 8930 H 1462 2.71005 0.804694 0
M  V30 8931 H 1462.19 1.63189 -0.603768 0
M  V30 8932 H 1462.3 -2.53475 0.997614 0
M  V30 8933 P 1463.53 -2.75334 8.47391 0
M  V30 8934 O 1463.75 -3.84128 9.44797 0
M  V30 8935 O 1464.32 -1.51947 8.68712 0
M  V30 8936 O 1463.78 -3.29363 6.99321 0
M  V30 8937 C 1462.84 -4.24011 6.4274 0
M  V30 8938 C 1463.57 -5.20775 5.52155 0
M  V30 8939 O 1463.78 -4.56534 4.22446 0
M  V30 8940 C 1464.97 -5.62629 5.96531 0
M  V30 8941 O 1465.36 -6.87667 5.41053 0
M  V30 8942 C 1465.85 -4.52537 5.39283 0
M  V30 8943 C 1465.14 -4.20027 4.08623 0
M  V30 8944 N 1465.19 -2.76189 3.71603 0
M  V30 8945 H 1462.35 -4.797 7.24003 0
M  V30 8946 H 1462.08 -3.69856 5.84513 0
M  V30 8947 H 1462.95 -6.10356 5.41441 0
M  V30 8948 P 1466.91 -7.20834 5.23717 0
M  V30 8949 O 1467.13 -8.66104 5.38572 0
M  V30 8950 O 1467.7 -6.33544 6.1349 0
M  V30 8951 O 1467.16 -6.7751 3.72168 0
M  V30 8952 C 1466.22 -7.20825 2.7076 0
M  V30 8953 C 1466.95 -7.45864 1.40599 0
M  V30 8954 O 1467.16 -6.17651 0.734225 0
M  V30 8955 C 1468.35 -8.05808 1.51899 0
M  V30 8956 O 1468.74 -8.74358 0.335205 0
M  V30 8957 C 1469.23 -6.83093 1.70294 0
M  V30 8958 C 1468.52 -5.79992 0.836974 0
M  V30 8959 N 1468.57 -4.41864 1.38293 0
M  V30 8960 H 1465.73 -8.13644 3.0377 0
M  V30 8961 H 1465.46 -6.42788 2.55485 0
M  V30 8962 H 1466.33 -8.12039 0.792769 0
M  V30 8963 P 1470.29 -8.91 -4.81154e-12 0
M  V30 8964 O 1470.51 -10.1746 -0.733838 0
M  V30 8965 O 1471.08 -8.73346 1.23964 0
M  V30 8966 O 1470.54 -7.66872 -0.971405 0
M  V30 8967 C 1469.6 -7.42405 -2.04668 0
M  V30 8968 C 1470.33 -6.86059 -3.24661 0
M  V30 8969 O 1470.54 -5.42934 -3.03695 0
M  V30 8970 C 1471.73 -7.41287 -3.50796 0
M  V30 8971 O 1472.12 -7.27073 -4.86816 0
M  V30 8972 C 1472.61 -6.5273 -2.63741 0
M  V30 8973 C 1471.9 -5.1842 -2.73198 0
M  V30 8974 N 1471.95 -4.38762 -1.4784 0
M  V30 8975 C 1471.87 -4.83651 -0.183876 0
M  V30 8976 N 1471.94 -3.88759 0.699393 0
M  V30 8977 C 1472.09 -2.7404 -0.0575568 0
M  V30 8978 C 1472.22 -1.37902 0.293928 0
M  V30 8979 N 1472.23 -0.938021 1.54797 0
M  V30 8980 N 1472.34 -0.491817 -0.70549 0
M  V30 8981 C 1472.33 -0.931735 -1.95979 0
M  V30 8982 N 1472.21 -2.16017 -2.41481 0
M  V30 8983 C 1472.09 -3.02547 -1.39121 0
M  V30 8984 H 1469.11 -8.36899 -2.3252 0
M  V30 8985 H 1468.84 -6.70391 -1.71179 0
M  V30 8986 H 1469.71 -7.03638 -4.13219 0
M  V30 8987 H 1472.36 -4.59931 -3.54016 0
M  V30 8988 H 1472.64 -6.88995 -1.59871 0
M  V30 8989 H 1473.64 -6.4684 -3.0373 0
M  V30 8990 H 1471.8 -8.47002 -3.20749 0
M  V30 8991 H 1471.76 -5.8885 0.0765548 0
M  V30 8992 H 1472.14 -1.60276 2.32875 0
M  V30 8993 H 1472.33 0.0699355 1.73859 0
M  V30 8994 H 1472.44 -0.165507 -2.71897 0
M  V30 8995 P 1473.67 -7.20834 -5.23717 0
M  V30 8996 O 1473.89 -7.80006 -6.57415 0
M  V30 8997 O 1474.46 -7.79416 -4.13051 0
M  V30 8998 O 1473.92 -5.63315 -5.29344 0
M  V30 8999 C 1472.98 -4.80318 -6.01954 0
M  V30 9000 C 1473.71 -3.64202 -6.65911 0
M  V30 9001 O 1473.92 -2.60736 -5.64823 0
M  V30 9002 C 1475.11 -3.93521 -7.19518 0
M  V30 9003 O 1475.5 -3.02071 -8.21205 0
M  V30 9004 C 1475.99 -3.73047 -5.97036 0
M  V30 9005 C 1475.28 -2.58828 -5.25741 0
M  V30 9006 N 1475.33 -2.68068 -3.77503 0
M  V30 9007 C 1475.25 -3.80474 -2.99159 0
M  V30 9008 N 1475.32 -3.55622 -1.71925 0
M  V30 9009 C 1475.47 -2.1832 -1.65733 0
M  V30 9010 C 1475.6 -1.28842 -0.572777 0
M  V30 9011 N 1475.61 -1.66875 0.70098 0
M  V30 9012 N 1475.72 0.016788 -0.859836 0
M  V30 9013 C 1475.71 0.398145 -2.13316 0
M  V30 9014 N 1475.59 -0.328224 -3.22333 0
M  V30 9015 C 1475.47 -1.62992 -2.90383 0
M  V30 9016 H 1472.49 -5.40394 -6.8003 0
M  V30 9017 H 1472.22 -4.41741 -5.32532 0
M  V30 9018 H 1473.09 -3.26371 -7.47889 0
M  V30 9019 H 1475.74 -1.64007 -5.56746 0
M  V30 9020 H 1476.02 -4.63439 -5.3432 0
M  V30 9021 H 1477.02 -3.44776 -6.25925 0
M  V30 9022 H 1475.18 -4.96707 -7.57347 0
M  V30 9023 H 1475.14 -4.8089 -3.39924 0
M  V30 9024 H 1475.52 -2.66547 0.941919 0
M  V30 9025 H 1475.71 -0.965341 1.44766 0
M  V30 9026 H 1475.82 1.46427 -2.29697 0
M  V30 9027 P 1477.05 -2.75334 -8.47391 0
M  V30 9028 O 1477.27 -2.44571 -9.90142 0
M  V30 9029 O 1477.84 -3.87688 -7.92115 0
M  V30 9030 O 1477.3 -1.4459 -7.59357 0
M  V30 9031 C 1476.36 -0.347608 -7.69215 0
M  V30 9032 C 1477.09 0.96767 -7.52806 0
M  V30 9033 O 1477.3 1.21036 -6.1011 0
M  V30 9034 C 1478.49 1.04544 -8.13308 0
M  V30 9035 O 1478.88 2.38311 -8.41922 0
M  V30 9036 C 1479.37 0.491279 -7.02284 0
M  V30 9037 C 1478.66 0.996264 -5.77469 0
M  V30 9038 N 1478.71 0.0501916 -4.62973 0
M  V30 9039 H 1475.87 -0.374722 -8.67691 0
M  V30 9040 H 1475.6 -0.443485 -6.90277 0
M  V30 9041 H 1476.47 1.75537 -7.96793 0
M  V30 9042 P 1480.43 2.75334 -8.47391 0
M  V30 9043 O 1480.65 3.84166 -9.4489 0
M  V30 9044 O 1481.22 1.51964 -8.6881 0
M  V30 9045 O 1480.68 3.29363 -6.99321 0
M  V30 9046 C 1479.74 4.23956 -6.42656 0
M  V30 9047 C 1480.47 5.20775 -5.52155 0
M  V30 9048 O 1480.68 4.56534 -4.22446 0
M  V30 9049 C 1481.87 5.62629 -5.96531 0
M  V30 9050 O 1482.26 6.87667 -5.41053 0
M  V30 9051 C 1482.75 4.52537 -5.39283 0
M  V30 9052 C 1482.04 4.20027 -4.08623 0
M  V30 9053 N 1482.09 2.7613 -3.71522 0
M  V30 9054 C 1482.24 2.45612 -2.37989 0
M  V30 9055 O 1482.33 3.30919 -1.51621 0
M  V30 9056 N 1482.28 1.10684 -2.08435 0
M  V30 9057 C 1482.19 0.0690084 -2.9792 0
M  V30 9058 C 1482.04 0.481522 -4.35345 0
M  V30 9059 C 1481.99 1.78906 -4.67968 0
M  V30 9060 H 1479.25 4.797 -7.24003 0
M  V30 9061 H 1478.98 3.69802 -5.84429 0
M  V30 9062 H 1479.85 6.10356 -5.41441 0
M  V30 9063 H 1482.5 4.78651 -3.27911 0
M  V30 9064 H 1482.78 3.64957 -6.05871 0
M  V30 9065 H 1483.78 4.8868 -5.2125 0
M  V30 9066 H 1481.94 5.66726 -7.06352 0
M  V30 9067 H 1481.87 2.07737 -5.72367 0
M  V30 9068 P 1483.81 7.20834 -5.23717 0
M  V30 9069 O 1484.03 8.66104 -5.38572 0
M  V30 9070 O 1484.6 6.33544 -6.1349 0
M  V30 9071 O 1484.06 6.7751 -3.72168 0
M  V30 9072 C 1483.12 7.20825 -2.7076 0
M  V30 9073 C 1483.85 7.45864 -1.40599 0
M  V30 9074 O 1484.06 6.17651 -0.734225 0
M  V30 9075 C 1485.25 8.05808 -1.51899 0
M  V30 9076 O 1485.64 8.74358 -0.335205 0
M  V30 9077 C 1486.13 6.83093 -1.70294 0
M  V30 9078 C 1485.42 5.79992 -0.836974 0
M  V30 9079 N 1485.47 4.41864 -1.38293 0
M  V30 9080 C 1485.39 3.99538 -2.69438 0
M  V30 9081 N 1485.47 2.69909 -2.84277 0
M  V30 9082 C 1485.61 2.21719 -1.5408 0
M  V30 9083 C 1485.74 0.891712 -1.06628 0
M  V30 9084 O 1485.76 -0.161298 -1.70137 0
M  V30 9085 N 1485.86 0.856846 0.334985 0
M  V30 9086 C 1485.86 1.9641 1.15789 0
M  V30 9087 N 1485.99 1.72708 2.46522 0
M  V30 9088 N 1485.73 3.21165 0.713741 0
M  V30 9089 C 1485.61 3.26797 -0.639748 0
M  V30 9090 H 1482.63 8.13644 -3.0377 0
M  V30 9091 H 1482.36 6.42788 -2.55485 0
M  V30 9092 H 1483.23 8.12039 -0.792769 0
M  V30 9093 H 1485.88 5.80061 0.166416 0
M  V30 9094 H 1486.16 6.51287 -2.75604 0
M  V30 9095 H 1487.16 7.01734 -1.34462 0
M  V30 9096 H 1485.32 8.73674 -2.38337 0
M  V30 9097 H 1485.27 4.68207 -3.53221 0
M  V30 9098 H 1485.95 -0.0398818 0.767965 0
M  V30 9099 H 1485.99 2.50995 3.13503 0
M  V30 9100 H 1486.09 0.759148 2.80716 0
M  V30 9101 P 1487.19 8.91 3.70254e-12 0
M  V30 9102 O 1487.41 10.1726 0.733694 0
M  V30 9103 O 1487.98 8.73148 -1.23936 0
M  V30 9104 O 1487.44 7.66872 0.971405 0
M  V30 9105 C 1486.5 7.42309 2.04641 0
M  V30 9106 C 1487.23 6.86059 3.24661 0
M  V30 9107 O 1487.44 5.42847 3.03646 0
M  V30 9108 C 1488.63 7.41196 3.50753 0
M  V30 9109 O 1489.02 7.27073 4.86816 0
M  V30 9110 C 1489.51 6.5273 2.63741 0
M  V30 9111 C 1488.8 5.1842 2.73198 0
M  V30 9112 N 1488.85 4.38762 1.4784 0
M  V30 9113 C 1488.77 4.81605 0.168631 0
M  V30 9114 N 1488.85 3.85454 -0.713363 0
M  V30 9115 C 1488.99 2.6994 0.0566958 0
M  V30 9116 C 1489.12 1.34815 -0.338502 0
M  V30 9117 N 1489.24 0.496304 0.77465 0
M  V30 9118 C 1489.24 0.908403 2.09122 0
M  V30 9119 N 1489.37 -0.0517805 3.00955 0
M  V30 9120 N 1489.11 2.17875 2.46519 0
M  V30 9121 C 1488.99 3.01988 1.4033 0
M  V30 9122 H 1486.01 8.36803 2.32493 0
M  V30 9123 H 1485.74 6.70197 1.71129 0
M  V30 9124 H 1486.61 7.03551 4.13168 0
M  V30 9125 P 1490.57 7.20834 5.23717 0
M  V30 9126 O 1490.79 7.79853 6.57286 0
M  V30 9127 O 1491.36 7.79239 4.12957 0
M  V30 9128 O 1490.82 5.63315 5.29344 0
M  V30 9129 C 1489.88 4.80255 6.01876 0
M  V30 9130 C 1490.61 3.64202 6.65911 0
M  V30 9131 O 1490.82 2.60694 5.64732 0
M  V30 9132 C 1492.01 3.93473 7.1943 0
M  V30 9133 O 1492.4 3.02071 8.21205 0
M  V30 9134 C 1492.89 3.73047 5.97036 0
M  V30 9135 C 1492.18 2.58828 5.25741 0
M  V30 9136 N 1492.23 2.68068 3.77503 0
M  V30 9137 H 1489.39 5.40332 6.79951 0
M  V30 9138 H 1489.12 4.41613 5.32378 0
M  V30 9139 H 1489.99 3.26331 7.47797 0
M  V30 9140 P 1493.95 2.75334 8.47391 0
M  V30 9141 O 1494.17 2.44595 9.90239 0
M  V30 9142 O 1494.74 3.87732 7.92204 0
M  V30 9143 O 1494.2 1.4459 7.59357 0
M  V30 9144 C 1493.26 0.347563 7.69115 0
M  V30 9145 C 1493.99 -0.96767 7.52806 0
M  V30 9146 O 1494.2 -1.21036 6.1011 0
M  V30 9147 C 1495.39 -1.04544 8.13308 0
M  V30 9148 O 1495.78 -2.38311 8.41922 0
M  V30 9149 C 1496.27 -0.491279 7.02284 0
M  V30 9150 C 1495.56 -0.996264 5.77469 0
M  V30 9151 N 1495.61 -0.0501808 4.62873 0
M  V30 9152 C 1495.76 -0.588177 3.36904 0
M  V30 9153 O 1495.85 -1.78598 3.17173 0
M  V30 9154 N 1495.8 0.329694 2.33686 0
M  V30 9155 C 1495.71 1.6953 2.45079 0
M  V30 9156 O 1495.76 2.41926 1.44899 0
M  V30 9157 C 1495.56 2.16933 3.80505 0
M  V30 9158 C 1495.45 3.65373 3.97621 0
M  V30 9159 C 1495.51 1.30326 4.83752 0
M  V30 9160 H 1492.77 0.374722 8.67691 0
M  V30 9161 H 1492.5 0.443421 6.90177 0
M  V30 9162 H 1493.37 -1.75537 7.96793 0
M  V30 9163 H 1496.02 -1.94496 5.46629 0
M  V30 9164 H 1496.3 0.608651 7.04676 0
M  V30 9165 H 1497.3 -0.889672 7.08939 0
M  V30 9166 H 1495.46 -0.43308 9.04564 0
M  V30 9167 H 1495.39 1.68366 5.8516 0
M  V30 9168 H 1496.42 4.05985 4.30448 0
M  V30 9169 H 1494.68 3.88028 4.72875 0
M  V30 9170 H 1495.17 4.11381 3.01609 0
M  V30 9171 H 1495.91 -0.0393617 1.41345 0
M  V30 9172 P 1497.33 -2.75334 8.47391 0
M  V30 9173 O 1497.55 -3.84128 9.44797 0
M  V30 9174 O 1498.12 -1.51947 8.68712 0
M  V30 9175 O 1497.58 -3.29363 6.99321 0
M  V30 9176 C 1496.64 -4.24011 6.4274 0
M  V30 9177 C 1497.37 -5.20775 5.52155 0
M  V30 9178 O 1497.58 -4.56534 4.22446 0
M  V30 9179 C 1498.77 -5.62629 5.96531 0
M  V30 9180 O 1499.16 -6.87667 5.41053 0
M  V30 9181 C 1499.65 -4.52537 5.39283 0
M  V30 9182 C 1498.94 -4.20027 4.08623 0
M  V30 9183 N 1498.99 -2.76189 3.71603 0
M  V30 9184 H 1496.15 -4.797 7.24003 0
M  V30 9185 H 1495.88 -3.69856 5.84513 0
M  V30 9186 H 1496.75 -6.10356 5.41441 0
M  V30 9187 P 1500.71 -7.20834 5.23717 0
M  V30 9188 O 1500.93 -8.66104 5.38572 0
M  V30 9189 O 1501.5 -6.33544 6.1349 0
M  V30 9190 O 1500.96 -6.7751 3.72168 0
M  V30 9191 C 1500.02 -7.20825 2.7076 0
M  V30 9192 C 1500.75 -7.45864 1.40599 0
M  V30 9193 O 1500.96 -6.17651 0.734225 0
M  V30 9194 C 1502.15 -8.05808 1.51899 0
M  V30 9195 O 1502.54 -8.74358 0.335205 0
M  V30 9196 C 1503.03 -6.83093 1.70294 0
M  V30 9197 C 1502.32 -5.79992 0.836974 0
M  V30 9198 N 1502.37 -4.41864 1.38293 0
M  V30 9199 H 1499.53 -8.13644 3.0377 0
M  V30 9200 H 1499.26 -6.42788 2.55485 0
M  V30 9201 H 1500.13 -8.12039 0.792769 0
M  V30 9202 P 1504.09 -8.91 -2.59353e-12 0
M  V30 9203 O 1504.31 -10.1726 -0.733694 0
M  V30 9204 O 1504.88 -8.73148 1.23936 0
M  V30 9205 O 1504.34 -7.66872 -0.971405 0
M  V30 9206 C 1503.4 -7.42309 -2.04641 0
M  V30 9207 C 1504.13 -6.86059 -3.24661 0
M  V30 9208 O 1504.34 -5.42847 -3.03646 0
M  V30 9209 C 1505.53 -7.41196 -3.50753 0
M  V30 9210 O 1505.92 -7.27073 -4.86816 0
M  V30 9211 C 1506.41 -6.5273 -2.63741 0
M  V30 9212 C 1505.7 -5.1842 -2.73198 0
M  V30 9213 N 1505.75 -4.38762 -1.4784 0
M  V30 9214 H 1502.91 -8.36803 -2.32493 0
M  V30 9215 H 1502.64 -6.70197 -1.71129 0
M  V30 9216 H 1503.51 -7.03551 -4.13168 0
M  V30 9217 P 1507.47 -7.20834 -5.23717 0
M  V30 9218 O 1507.69 -7.79853 -6.57286 0
M  V30 9219 O 1508.26 -7.79239 -4.12957 0
M  V30 9220 O 1507.72 -5.63315 -5.29344 0
M  V30 9221 C 1506.78 -4.80255 -6.01876 0
M  V30 9222 C 1507.51 -3.64202 -6.65911 0
M  V30 9223 O 1507.72 -2.60694 -5.64732 0
M  V30 9224 C 1508.91 -3.93473 -7.1943 0
M  V30 9225 O 1509.3 -3.02071 -8.21205 0
M  V30 9226 C 1509.79 -3.73047 -5.97036 0
M  V30 9227 C 1509.08 -2.58828 -5.25741 0
M  V30 9228 N 1509.13 -2.68068 -3.77503 0
M  V30 9229 H 1506.29 -5.40332 -6.79951 0
M  V30 9230 H 1506.02 -4.41613 -5.32378 0
M  V30 9231 H 1506.89 -3.26331 -7.47797 0
M  V30 9232 P 1510.85 -2.75334 -8.47391 0
M  V30 9233 O 1511.07 -2.44571 -9.90142 0
M  V30 9234 O 1511.64 -3.87688 -7.92115 0
M  V30 9235 O 1511.1 -1.4459 -7.59357 0
M  V30 9236 C 1510.16 -0.347608 -7.69215 0
M  V30 9237 C 1510.89 0.96767 -7.52806 0
M  V30 9238 O 1511.1 1.21036 -6.1011 0
M  V30 9239 C 1512.29 1.04544 -8.13308 0
M  V30 9240 O 1512.68 2.38311 -8.41922 0
M  V30 9241 C 1513.17 0.491279 -7.02284 0
M  V30 9242 C 1512.46 0.996264 -5.77469 0
M  V30 9243 N 1512.51 0.0501916 -4.62973 0
M  V30 9244 H 1509.67 -0.374722 -8.67691 0
M  V30 9245 H 1509.4 -0.443485 -6.90277 0
M  V30 9246 H 1510.27 1.75537 -7.96793 0
M  V30 9247 P 1514.23 2.75334 -8.47391 0
M  V30 9248 O 1514.45 3.84204 -9.44982 0
M  V30 9249 O 1515.02 1.51982 -8.68909 0
M  V30 9250 O 1514.48 3.29363 -6.99321 0
M  V30 9251 C 1513.54 4.24066 -6.42823 0
M  V30 9252 C 1514.27 5.20775 -5.52155 0
M  V30 9253 O 1514.48 4.56607 -4.22514 0
M  V30 9254 C 1515.67 5.62697 -5.96604 0
M  V30 9255 O 1516.06 6.87667 -5.41053 0
M  V30 9256 C 1516.55 4.52537 -5.39283 0
M  V30 9257 C 1515.84 4.20027 -4.08623 0
M  V30 9258 N 1515.89 2.76189 -3.71603 0
M  V30 9259 H 1513.05 4.79756 -7.24086 0
M  V30 9260 H 1512.78 3.69963 -5.84682 0
M  V30 9261 H 1513.65 6.10431 -5.41508 0
M  V30 9262 H 1516.3 4.78816 -3.28024 0
M  V30 9263 H 1516.58 3.64957 -6.05871 0
M  V30 9264 H 1517.58 4.88748 -5.21323 0
M  V30 9265 H 1515.74 5.66789 -7.0643 0
M  V30 9266 P 1517.61 7.20834 -5.23717 0
M  V30 9267 O 1517.83 8.66104 -5.38572 0
M  V30 9268 O 1518.4 6.33544 -6.1349 0
M  V30 9269 O 1517.86 6.7751 -3.72168 0
M  V30 9270 C 1516.92 7.20825 -2.7076 0
M  V30 9271 C 1517.65 7.45864 -1.40599 0
M  V30 9272 O 1517.86 6.17651 -0.734225 0
M  V30 9273 C 1519.05 8.05808 -1.51899 0
M  V30 9274 O 1519.44 8.74358 -0.335205 0
M  V30 9275 C 1519.93 6.83093 -1.70294 0
M  V30 9276 C 1519.22 5.79992 -0.836974 0
M  V30 9277 N 1519.27 4.41864 -1.38293 0
M  V30 9278 H 1516.43 8.13644 -3.0377 0
M  V30 9279 H 1516.16 6.42788 -2.55485 0
M  V30 9280 H 1517.03 8.12039 -0.792769 0
M  V30 9281 P 1520.99 8.91 1.48453e-12 0
M  V30 9282 O 1521.21 10.1726 0.733694 0
M  V30 9283 O 1521.78 8.73148 -1.23936 0
M  V30 9284 O 1521.24 7.66872 0.971405 0
M  V30 9285 C 1520.3 7.42309 2.04641 0
M  V30 9286 C 1521.03 6.86059 3.24661 0
M  V30 9287 O 1521.24 5.42847 3.03646 0
M  V30 9288 C 1522.43 7.41196 3.50753 0
M  V30 9289 O 1522.82 7.27073 4.86816 0
M  V30 9290 C 1523.31 6.5273 2.63741 0
M  V30 9291 C 1522.6 5.1842 2.73198 0
M  V30 9292 N 1522.65 4.38762 1.4784 0
M  V30 9293 H 1519.81 8.36803 2.32493 0
M  V30 9294 H 1519.54 6.70197 1.71129 0
M  V30 9295 H 1520.41 7.03551 4.13168 0
M  V30 9296 P 1524.37 7.20834 5.23717 0
M  V30 9297 O 1524.59 7.79853 6.57286 0
M  V30 9298 O 1525.16 7.79239 4.12957 0
M  V30 9299 O 1524.62 5.63315 5.29344 0
M  V30 9300 C 1523.68 4.80255 6.01876 0
M  V30 9301 C 1524.41 3.64202 6.65911 0
M  V30 9302 O 1524.62 2.60694 5.64732 0
M  V30 9303 C 1525.81 3.93473 7.1943 0
M  V30 9304 O 1526.2 3.02071 8.21205 0
M  V30 9305 C 1526.69 3.73047 5.97036 0
M  V30 9306 C 1525.98 2.58828 5.25741 0
M  V30 9307 N 1526.03 2.68068 3.77503 0
M  V30 9308 C 1525.95 3.79715 2.96723 0
M  V30 9309 N 1526.03 3.5377 1.68852 0
M  V30 9310 C 1526.17 2.15054 1.63254 0
M  V30 9311 C 1526.3 1.28964 0.518571 0
M  V30 9312 O 1526.32 1.56826 -0.679156 0
M  V30 9313 N 1526.42 -0.0538097 0.918425 0
M  V30 9314 C 1526.42 -0.494275 2.22578 0
M  V30 9315 N 1526.55 -1.81086 2.40434 0
M  V30 9316 N 1526.29 0.313645 3.27502 0
M  V30 9317 C 1526.17 1.61829 2.91033 0
M  V30 9318 H 1523.19 5.40332 6.79951 0
M  V30 9319 H 1522.92 4.41613 5.32378 0
M  V30 9320 H 1523.79 3.26331 7.47797 0
M  V30 9321 H 1526.44 1.63422 5.56814 0
M  V30 9322 H 1526.72 4.63374 5.34244 0
M  V30 9323 H 1527.71 3.44728 6.25838 0
M  V30 9324 H 1525.88 4.96652 7.57263 0
M  V30 9325 H 1525.83 4.80617 3.3614 0
M  V30 9326 H 1526.51 -0.742702 0.199384 0
M  V30 9327 H 1526.55 -2.20598 3.35588 0
M  V30 9328 H 1526.65 -2.43518 1.58945 0
M  V30 9329 P 1527.75 2.75334 8.47391 0
M  V30 9330 O 1527.97 2.44571 9.90142 0
M  V30 9331 O 1528.54 3.87688 7.92115 0
M  V30 9332 O 1528 1.4459 7.59357 0
M  V30 9333 C 1527.06 0.347608 7.69215 0
M  V30 9334 C 1527.79 -0.96767 7.52806 0
M  V30 9335 O 1528 -1.21036 6.1011 0
M  V30 9336 C 1529.19 -1.04544 8.13308 0
M  V30 9337 O 1529.58 -2.38311 8.41922 0
M  V30 9338 C 1530.07 -0.491279 7.02284 0
M  V30 9339 C 1529.36 -0.996264 5.77469 0
M  V30 9340 N 1529.41 -0.0501916 4.62973 0
M  V30 9341 H 1526.57 0.374722 8.67691 0
M  V30 9342 H 1526.3 0.443485 6.90277 0
M  V30 9343 H 1527.17 -1.75537 7.96793 0
M  V30 9344 P 1531.13 -2.75334 8.47391 0
M  V30 9345 O 1531.35 -3.84128 9.44797 0
M  V30 9346 O 1531.92 -1.51947 8.68712 0
M  V30 9347 O 1531.38 -3.29363 6.99321 0
M  V30 9348 C 1530.44 -4.24011 6.4274 0
M  V30 9349 C 1531.17 -5.20775 5.52155 0
M  V30 9350 O 1531.38 -4.56534 4.22446 0
M  V30 9351 C 1532.57 -5.62629 5.96531 0
M  V30 9352 O 1532.96 -6.87667 5.41053 0
M  V30 9353 C 1533.45 -4.52537 5.39283 0
M  V30 9354 C 1532.74 -4.20027 4.08623 0
M  V30 9355 N 1532.79 -2.76189 3.71603 0
M  V30 9356 H 1529.95 -4.797 7.24003 0
M  V30 9357 H 1529.68 -3.69856 5.84513 0
M  V30 9358 H 1530.55 -6.10356 5.41441 0
M  V30 9359 P 1534.51 -7.20834 5.23717 0
M  V30 9360 O 1534.73 -8.66104 5.38572 0
M  V30 9361 O 1535.3 -6.33544 6.1349 0
M  V30 9362 O 1534.76 -6.7751 3.72168 0
M  V30 9363 C 1533.82 -7.20825 2.7076 0
M  V30 9364 C 1534.55 -7.45864 1.40599 0
M  V30 9365 O 1534.76 -6.17651 0.734225 0
M  V30 9366 C 1535.95 -8.05808 1.51899 0
M  V30 9367 O 1536.34 -8.74358 0.335205 0
M  V30 9368 C 1536.83 -6.83093 1.70294 0
M  V30 9369 C 1536.12 -5.79992 0.836974 0
M  V30 9370 N 1536.17 -4.41864 1.38293 0
M  V30 9371 H 1533.33 -8.13644 3.0377 0
M  V30 9372 H 1533.06 -6.42788 2.55485 0
M  V30 9373 H 1533.93 -8.12039 0.792769 0
M  V30 9374 P 1537.89 -8.91 -3.75525e-13 0
M  V30 9375 O 1538.11 -10.1736 -0.733766 0
M  V30 9376 O 1538.68 -8.73247 1.2395 0
M  V30 9377 O 1538.14 -7.66872 -0.971405 0
M  V30 9378 C 1537.2 -7.42212 -2.04614 0
M  V30 9379 C 1537.93 -6.86059 -3.24661 0
M  V30 9380 O 1538.14 -5.42847 -3.03646 0
M  V30 9381 C 1539.33 -7.41196 -3.50753 0
M  V30 9382 O 1539.72 -7.27073 -4.86816 0
M  V30 9383 C 1540.21 -6.5273 -2.63741 0
M  V30 9384 C 1539.5 -5.1842 -2.73198 0
M  V30 9385 N 1539.55 -4.38668 -1.47808 0
M  V30 9386 C 1539.7 -3.02239 -1.60048 0
M  V30 9387 O 1539.79 -2.46459 -2.67869 0
M  V30 9388 N 1539.74 -2.32436 -0.408571 0
M  V30 9389 C 1539.65 -2.85471 0.854993 0
M  V30 9390 O 1539.7 -2.12566 1.8531 0
M  V30 9391 C 1539.5 -4.28918 0.887335 0
M  V30 9392 C 1539.39 -4.91066 2.24619 0
M  V30 9393 C 1539.45 -5.00349 -0.255399 0
M  V30 9394 H 1536.71 -8.36803 -2.32493 0
M  V30 9395 H 1536.44 -6.701 -1.71105 0
M  V30 9396 H 1537.31 -7.03551 -4.13168 0
M  V30 9397 H 1539.96 -4.59773 -3.53894 0
M  V30 9398 H 1540.24 -6.88995 -1.59871 0
M  V30 9399 H 1541.23 -6.46749 -3.03687 0
M  V30 9400 H 1539.4 -8.46908 -3.20714 0
M  V30 9401 H 1539.33 -6.08548 -0.206986 0
M  V30 9402 H 1540.36 -5.34836 2.53099 0
M  V30 9403 H 1538.62 -5.69638 2.2291 0
M  V30 9404 H 1539.11 -4.13971 2.98044 0
M  V30 9405 H 1539.85 -1.33211 -0.474216 0
M  V30 9406 P 1541.27 -7.20834 -5.23717 0
M  V30 9407 O 1541.49 -7.79853 -6.57286 0
M  V30 9408 O 1542.06 -7.79239 -4.12957 0
M  V30 9409 O 1541.52 -5.63315 -5.29344 0
M  V30 9410 C 1540.58 -4.80255 -6.01876 0
M  V30 9411 C 1541.31 -3.64202 -6.65911 0
M  V30 9412 O 1541.52 -2.60694 -5.64732 0
M  V30 9413 C 1542.71 -3.93473 -7.1943 0
M  V30 9414 O 1543.1 -3.02071 -8.21205 0
M  V30 9415 C 1543.59 -3.73047 -5.97036 0
M  V30 9416 C 1542.88 -2.58828 -5.25741 0
M  V30 9417 N 1542.93 -2.68068 -3.77503 0
M  V30 9418 H 1540.09 -5.40332 -6.79951 0
M  V30 9419 H 1539.82 -4.41613 -5.32378 0
M  V30 9420 H 1540.69 -3.26331 -7.47797 0
M  V30 9421 P 1544.65 -2.75334 -8.47391 0
M  V30 9422 O 1544.87 -2.44571 -9.90142 0
M  V30 9423 O 1545.44 -3.87688 -7.92115 0
M  V30 9424 O 1544.9 -1.4459 -7.59357 0
M  V30 9425 C 1543.96 -0.347608 -7.69215 0
M  V30 9426 C 1544.69 0.96767 -7.52806 0
M  V30 9427 O 1544.9 1.21036 -6.1011 0
M  V30 9428 C 1546.09 1.04544 -8.13308 0
M  V30 9429 O 1546.48 2.38311 -8.41922 0
M  V30 9430 C 1546.97 0.491279 -7.02284 0
M  V30 9431 C 1546.26 0.996264 -5.77469 0
M  V30 9432 N 1546.31 0.0501916 -4.62973 0
M  V30 9433 H 1543.47 -0.374722 -8.67691 0
M  V30 9434 H 1543.2 -0.443485 -6.90277 0
M  V30 9435 H 1544.07 1.75537 -7.96793 0
M  V30 9436 P 1548.03 2.75334 -8.47391 0
M  V30 9437 O 1548.25 3.84166 -9.4489 0
M  V30 9438 O 1548.82 1.51964 -8.6881 0
M  V30 9439 O 1548.28 3.29363 -6.99321 0
M  V30 9440 C 1547.34 4.23956 -6.42656 0
M  V30 9441 C 1548.07 5.20775 -5.52155 0
M  V30 9442 O 1548.28 4.56534 -4.22446 0
M  V30 9443 C 1549.47 5.62629 -5.96531 0
M  V30 9444 O 1549.86 6.87667 -5.41053 0
M  V30 9445 C 1550.35 4.52537 -5.39283 0
M  V30 9446 C 1549.64 4.20027 -4.08623 0
M  V30 9447 N 1549.69 2.7613 -3.71522 0
M  V30 9448 C 1549.84 2.45612 -2.37989 0
M  V30 9449 O 1549.93 3.30919 -1.51621 0
M  V30 9450 N 1549.88 1.10684 -2.08435 0
M  V30 9451 C 1549.79 0.0690084 -2.9792 0
M  V30 9452 O 1549.84 -1.10553 -2.59426 0
M  V30 9453 C 1549.64 0.481522 -4.35345 0
M  V30 9454 C 1549.53 -0.618778 -5.36443 0
M  V30 9455 C 1549.59 1.78906 -4.67968 0
M  V30 9456 H 1546.85 4.797 -7.24003 0
M  V30 9457 H 1546.58 3.69802 -5.84429 0
M  V30 9458 H 1547.45 6.10356 -5.41441 0
M  V30 9459 H 1550.1 4.78651 -3.27911 0
M  V30 9460 H 1550.38 3.64957 -6.05871 0
M  V30 9461 H 1551.37 4.8868 -5.2125 0
M  V30 9462 H 1549.54 5.66726 -7.06352 0
M  V30 9463 H 1549.47 2.07737 -5.72367 0
M  V30 9464 H 1550.5 -0.754375 -5.86871 0
M  V30 9465 H 1548.76 -0.359721 -6.10641 0
M  V30 9466 H 1549.25 -1.55533 -4.8581 0
M  V30 9467 H 1549.99 0.862651 -1.12037 0
M  V30 9468 P 1551.41 7.20834 -5.23717 0
M  V30 9469 O 1551.63 8.66189 -5.38625 0
M  V30 9470 O 1552.2 6.33615 -6.1356 0
M  V30 9471 O 1551.66 6.7751 -3.72168 0
M  V30 9472 C 1550.72 7.20732 -2.70725 0
M  V30 9473 C 1551.45 7.45864 -1.40599 0
M  V30 9474 O 1551.66 6.17651 -0.734225 0
M  V30 9475 C 1552.85 8.05808 -1.51899 0
M  V30 9476 O 1553.24 8.74358 -0.335205 0
M  V30 9477 C 1553.73 6.83093 -1.70294 0
M  V30 9478 C 1553.02 5.79992 -0.836974 0
M  V30 9479 N 1553.07 4.41769 -1.38263 0
M  V30 9480 C 1553.22 3.38591 -0.481702 0
M  V30 9481 O 1553.31 3.56839 0.718452 0
M  V30 9482 N 1553.26 2.1206 -1.03569 0
M  V30 9483 C 1553.17 1.80696 -2.36966 0
M  V30 9484 O 1553.22 0.630473 -2.74862 0
M  V30 9485 C 1553.02 2.94845 -3.23898 0
M  V30 9486 C 1552.91 2.65253 -4.70362 0
M  V30 9487 C 1552.97 4.19803 -2.73435 0
M  V30 9488 H 1550.23 8.13644 -3.0377 0
M  V30 9489 H 1549.96 6.42695 -2.55448 0
M  V30 9490 H 1550.83 8.12039 -0.792769 0
M  V30 9491 H 1553.48 5.79978 0.160587 0
M  V30 9492 H 1553.76 6.51379 -2.75643 0
M  V30 9493 H 1554.75 7.01734 -1.34462 0
M  V30 9494 H 1552.92 8.73674 -2.38337 0
M  V30 9495 H 1552.85 5.04492 -3.4095 0
M  V30 9496 H 1553.88 2.83924 -5.1913 0
M  V30 9497 H 1552.14 3.29824 -5.15163 0
M  V30 9498 H 1552.63 1.59723 -4.84449 0
M  V30 9499 H 1553.37 1.35644 -0.399345 0
M  V30 9500 P 1554.79 8.91 -7.3348e-13 0
M  V30 9501 O 1555.01 10.1726 0.733694 0
M  V30 9502 O 1555.58 8.73148 -1.23936 0
M  V30 9503 O 1555.04 7.66872 0.971405 0
M  V30 9504 C 1554.1 7.42309 2.04641 0
M  V30 9505 C 1554.83 6.86059 3.24661 0
M  V30 9506 O 1555.04 5.42847 3.03646 0
M  V30 9507 C 1556.23 7.41196 3.50753 0
M  V30 9508 O 1556.62 7.27073 4.86816 0
M  V30 9509 C 1557.11 6.5273 2.63741 0
M  V30 9510 C 1556.4 5.1842 2.73198 0
M  V30 9511 N 1556.45 4.38762 1.4784 0
M  V30 9512 H 1553.61 8.36803 2.32493 0
M  V30 9513 H 1553.34 6.70197 1.71129 0
M  V30 9514 H 1554.21 7.03551 4.13168 0
M  V30 9515 P 1558.17 7.20834 5.23717 0
M  V30 9516 O 1558.39 7.79853 6.57286 0
M  V30 9517 O 1558.96 7.79239 4.12957 0
M  V30 9518 O 1558.42 5.63315 5.29344 0
M  V30 9519 C 1557.48 4.80255 6.01876 0
M  V30 9520 C 1558.21 3.64202 6.65911 0
M  V30 9521 O 1558.42 2.60694 5.64732 0
M  V30 9522 C 1559.61 3.93473 7.1943 0
M  V30 9523 O 1560 3.02071 8.21205 0
M  V30 9524 C 1560.49 3.73047 5.97036 0
M  V30 9525 C 1559.78 2.58828 5.25741 0
M  V30 9526 N 1559.83 2.68068 3.77503 0
M  V30 9527 C 1559.75 3.79715 2.96723 0
M  V30 9528 N 1559.83 3.5377 1.68852 0
M  V30 9529 C 1559.97 2.15054 1.63254 0
M  V30 9530 C 1560.1 1.28964 0.518571 0
M  V30 9531 O 1560.12 1.56826 -0.679156 0
M  V30 9532 N 1560.22 -0.0538097 0.918425 0
M  V30 9533 C 1560.22 -0.494275 2.22578 0
M  V30 9534 N 1560.35 -1.81086 2.40434 0
M  V30 9535 N 1560.09 0.313645 3.27502 0
M  V30 9536 C 1559.97 1.61829 2.91033 0
M  V30 9537 H 1556.99 5.40332 6.79951 0
M  V30 9538 H 1556.72 4.41613 5.32378 0
M  V30 9539 H 1557.59 3.26331 7.47797 0
M  V30 9540 H 1560.24 1.63422 5.56814 0
M  V30 9541 H 1560.52 4.63374 5.34244 0
M  V30 9542 H 1561.51 3.44728 6.25838 0
M  V30 9543 H 1559.68 4.96652 7.57263 0
M  V30 9544 H 1559.63 4.80617 3.3614 0
M  V30 9545 H 1560.31 -0.742702 0.199384 0
M  V30 9546 H 1560.35 -2.20598 3.35588 0
M  V30 9547 H 1560.45 -2.43518 1.58945 0
M  V30 9548 P 1561.55 2.75334 8.47391 0
M  V30 9549 O 1561.77 2.44571 9.90142 0
M  V30 9550 O 1562.34 3.87688 7.92115 0
M  V30 9551 O 1561.8 1.4459 7.59357 0
M  V30 9552 C 1560.86 0.347608 7.69215 0
M  V30 9553 C 1561.59 -0.96767 7.52806 0
M  V30 9554 O 1561.8 -1.21036 6.1011 0
M  V30 9555 C 1562.99 -1.04544 8.13308 0
M  V30 9556 O 1563.38 -2.38311 8.41922 0
M  V30 9557 C 1563.87 -0.491279 7.02284 0
M  V30 9558 C 1563.16 -0.996264 5.77469 0
M  V30 9559 N 1563.21 -0.0501916 4.62973 0
M  V30 9560 C 1563.13 1.32786 4.63244 0
M  V30 9561 N 1563.21 1.86957 3.44545 0
M  V30 9562 C 1563.35 0.780241 2.58481 0
M  V30 9563 C 1563.48 0.738536 1.17757 0
M  V30 9564 N 1563.6 -0.58337 0.711393 0
M  V30 9565 C 1563.6 -1.70816 1.51017 0
M  V30 9566 N 1563.73 -2.87826 0.880757 0
M  V30 9567 N 1563.47 -1.67126 2.8339 0
M  V30 9568 C 1563.35 -0.401421 3.30572 0
M  V30 9569 H 1560.37 0.374722 8.67691 0
M  V30 9570 H 1560.1 0.443485 6.90277 0
M  V30 9571 H 1560.97 -1.75537 7.96793 0
M  V30 9572 P 1564.93 -2.75334 8.47391 0
M  V30 9573 O 1565.15 -3.84128 9.44797 0
M  V30 9574 O 1565.72 -1.51947 8.68712 0
M  V30 9575 O 1565.18 -3.29363 6.99321 0
M  V30 9576 C 1564.24 -4.24011 6.4274 0
M  V30 9577 C 1564.97 -5.20775 5.52155 0
M  V30 9578 O 1565.18 -4.56534 4.22446 0
M  V30 9579 C 1566.37 -5.62629 5.96531 0
M  V30 9580 O 1566.76 -6.87667 5.41053 0
M  V30 9581 C 1567.25 -4.52537 5.39283 0
M  V30 9582 C 1566.54 -4.20027 4.08623 0
M  V30 9583 N 1566.59 -2.76189 3.71603 0
M  V30 9584 H 1563.75 -4.797 7.24003 0
M  V30 9585 H 1563.48 -3.69856 5.84513 0
M  V30 9586 H 1564.35 -6.10356 5.41441 0
M  V30 9587 P 1568.31 -7.20834 5.23717 0
M  V30 9588 O 1568.53 -8.66104 5.38572 0
M  V30 9589 O 1569.1 -6.33544 6.1349 0
M  V30 9590 O 1568.56 -6.7751 3.72168 0
M  V30 9591 C 1567.62 -7.20825 2.7076 0
M  V30 9592 C 1568.35 -7.45864 1.40599 0
M  V30 9593 O 1568.56 -6.17651 0.734225 0
M  V30 9594 C 1569.75 -8.05808 1.51899 0
M  V30 9595 O 1570.14 -8.74358 0.335205 0
M  V30 9596 C 1570.63 -6.83093 1.70294 0
M  V30 9597 C 1569.92 -5.79992 0.836974 0
M  V30 9598 N 1569.97 -4.41864 1.38293 0
M  V30 9599 H 1567.13 -8.13644 3.0377 0
M  V30 9600 H 1566.86 -6.42788 2.55485 0
M  V30 9601 H 1567.73 -8.12039 0.792769 0
M  V30 9602 P 1571.69 -8.91 1.84249e-12 0
M  V30 9603 O 1571.91 -10.1736 -0.733766 0
M  V30 9604 O 1572.48 -8.73247 1.2395 0
M  V30 9605 O 1571.94 -7.66872 -0.971405 0
M  V30 9606 C 1571 -7.42212 -2.04614 0
M  V30 9607 C 1571.73 -6.86059 -3.24661 0
M  V30 9608 O 1571.94 -5.42847 -3.03646 0
M  V30 9609 C 1573.13 -7.41196 -3.50753 0
M  V30 9610 O 1573.52 -7.27073 -4.86816 0
M  V30 9611 C 1574.01 -6.5273 -2.63741 0
M  V30 9612 C 1573.3 -5.1842 -2.73198 0
M  V30 9613 N 1573.35 -4.38668 -1.47808 0
M  V30 9614 C 1573.5 -3.02239 -1.60048 0
M  V30 9615 O 1573.59 -2.46459 -2.67869 0
M  V30 9616 N 1573.54 -2.32436 -0.408571 0
M  V30 9617 C 1573.45 -2.85471 0.854993 0
M  V30 9618 C 1573.3 -4.28918 0.887335 0
M  V30 9619 C 1573.25 -5.00349 -0.255399 0
M  V30 9620 H 1570.51 -8.36803 -2.32493 0
M  V30 9621 H 1570.24 -6.701 -1.71105 0
M  V30 9622 H 1571.11 -7.03551 -4.13168 0
M  V30 9623 H 1573.76 -4.59773 -3.53894 0
M  V30 9624 H 1574.04 -6.88995 -1.59871 0
M  V30 9625 H 1575.03 -6.46749 -3.03687 0
M  V30 9626 H 1573.2 -8.46908 -3.20714 0
M  V30 9627 H 1573.13 -6.08548 -0.206986 0
M  V30 9628 P 1575.07 -7.20834 -5.23717 0
M  V30 9629 O 1575.29 -7.79853 -6.57286 0
M  V30 9630 O 1575.86 -7.79239 -4.12957 0
M  V30 9631 O 1575.32 -5.63315 -5.29344 0
M  V30 9632 C 1574.38 -4.80255 -6.01876 0
M  V30 9633 C 1575.11 -3.64202 -6.65911 0
M  V30 9634 O 1575.32 -2.60694 -5.64732 0
M  V30 9635 C 1576.51 -3.93473 -7.1943 0
M  V30 9636 O 1576.9 -3.02071 -8.21205 0
M  V30 9637 C 1577.39 -3.73047 -5.97036 0
M  V30 9638 C 1576.68 -2.58828 -5.25741 0
M  V30 9639 N 1576.73 -2.68068 -3.77503 0
M  V30 9640 H 1573.89 -5.40332 -6.79951 0
M  V30 9641 H 1573.62 -4.41613 -5.32378 0
M  V30 9642 H 1574.49 -3.26331 -7.47797 0
M  V30 9643 P 1578.45 -2.75334 -8.47391 0
M  V30 9644 O 1578.67 -2.44571 -9.90142 0
M  V30 9645 O 1579.24 -3.87688 -7.92115 0
M  V30 9646 O 1578.7 -1.4459 -7.59357 0
M  V30 9647 C 1577.76 -0.347608 -7.69215 0
M  V30 9648 C 1578.49 0.96767 -7.52806 0
M  V30 9649 O 1578.7 1.21036 -6.1011 0
M  V30 9650 C 1579.89 1.04544 -8.13308 0
M  V30 9651 O 1580.28 2.38311 -8.41922 0
M  V30 9652 C 1580.77 0.491279 -7.02284 0
M  V30 9653 C 1580.06 0.996264 -5.77469 0
M  V30 9654 N 1580.11 0.0501916 -4.62973 0
M  V30 9655 C 1580.03 -1.32786 -4.63244 0
M  V30 9656 N 1580.11 -1.86957 -3.44545 0
M  V30 9657 C 1580.25 -0.780241 -2.58481 0
M  V30 9658 C 1580.38 -0.738536 -1.17757 0
M  V30 9659 O 1580.4 -1.66794 -0.372349 0
M  V30 9660 N 1580.5 0.58337 -0.711393 0
M  V30 9661 C 1580.5 1.70816 -1.51017 0
M  V30 9662 N 1580.63 2.87826 -0.880757 0
M  V30 9663 N 1580.37 1.67126 -2.8339 0
M  V30 9664 C 1580.25 0.401421 -3.30572 0
M  V30 9665 H 1577.27 -0.374722 -8.67691 0
M  V30 9666 H 1577 -0.443485 -6.90277 0
M  V30 9667 H 1577.87 1.75537 -7.96793 0
M  V30 9668 H 1580.52 1.95076 -5.46529 0
M  V30 9669 H 1580.8 -0.608565 -7.04577 0
M  V30 9670 H 1581.79 0.889672 -7.08939 0
M  V30 9671 H 1579.96 0.43308 -9.04564 0
M  V30 9672 H 1579.91 -1.91249 -5.54442 0
M  V30 9673 H 1580.59 0.718054 0.275244 0
M  V30 9674 H 1580.63 3.75721 -1.41832 0
M  V30 9675 H 1580.73 2.90436 0.145468 0
M  V30 9676 P 1581.83 2.75334 -8.47391 0
M  V30 9677 O 1582.05 3.84204 -9.44982 0
M  V30 9678 O 1582.62 1.51982 -8.68909 0
M  V30 9679 O 1582.08 3.29363 -6.99321 0
M  V30 9680 C 1581.14 4.24066 -6.42823 0
M  V30 9681 C 1581.87 5.20775 -5.52155 0
M  V30 9682 O 1582.08 4.56607 -4.22514 0
M  V30 9683 C 1583.27 5.62697 -5.96604 0
M  V30 9684 O 1583.66 6.87667 -5.41053 0
M  V30 9685 C 1584.15 4.52537 -5.39283 0
M  V30 9686 C 1583.44 4.20027 -4.08623 0
M  V30 9687 N 1583.49 2.76189 -3.71603 0
M  V30 9688 H 1580.65 4.79756 -7.24086 0
M  V30 9689 H 1580.38 3.69963 -5.84682 0
M  V30 9690 H 1581.25 6.10431 -5.41508 0
M  V30 9691 H 1583.9 4.78816 -3.28024 0
M  V30 9692 H 1584.18 3.64957 -6.05871 0
M  V30 9693 H 1585.17 4.88748 -5.21323 0
M  V30 9694 H 1583.34 5.66789 -7.0643 0
M  V30 9695 P 1585.21 7.20834 -5.23717 0
M  V30 9696 O 1585.43 8.66104 -5.38572 0
M  V30 9697 O 1586 6.33544 -6.1349 0
M  V30 9698 O 1585.46 6.7751 -3.72168 0
M  V30 9699 C 1584.52 7.20825 -2.7076 0
M  V30 9700 C 1585.25 7.45864 -1.40599 0
M  V30 9701 O 1585.46 6.17651 -0.734225 0
M  V30 9702 C 1586.65 8.05808 -1.51899 0
M  V30 9703 O 1587.04 8.74358 -0.335205 0
M  V30 9704 C 1587.53 6.83093 -1.70294 0
M  V30 9705 C 1586.82 5.79992 -0.836974 0
M  V30 9706 N 1586.87 4.41864 -1.38293 0
M  V30 9707 H 1584.03 8.13644 -3.0377 0
M  V30 9708 H 1583.76 6.42788 -2.55485 0
M  V30 9709 H 1584.63 8.12039 -0.792769 0
M  V30 9710 P 1588.59 8.91 -2.95149e-12 0
M  V30 9711 O 1588.81 10.1726 0.733694 0
M  V30 9712 O 1589.38 8.73148 -1.23936 0
M  V30 9713 O 1588.84 7.66872 0.971405 0
M  V30 9714 C 1587.9 7.42309 2.04641 0
M  V30 9715 C 1588.63 6.86059 3.24661 0
M  V30 9716 O 1588.84 5.42847 3.03646 0
M  V30 9717 C 1590.03 7.41196 3.50753 0
M  V30 9718 O 1590.42 7.27073 4.86816 0
M  V30 9719 C 1590.91 6.5273 2.63741 0
M  V30 9720 C 1590.2 5.1842 2.73198 0
M  V30 9721 N 1590.25 4.38762 1.4784 0
M  V30 9722 H 1587.41 8.36803 2.32493 0
M  V30 9723 H 1587.14 6.70197 1.71129 0
M  V30 9724 H 1588.01 7.03551 4.13168 0
M  V30 9725 P 1591.97 7.20834 5.23717 0
M  V30 9726 O 1592.19 7.79853 6.57286 0
M  V30 9727 O 1592.76 7.79239 4.12957 0
M  V30 9728 O 1592.22 5.63315 5.29344 0
M  V30 9729 C 1591.28 4.80255 6.01876 0
M  V30 9730 C 1592.01 3.64202 6.65911 0
M  V30 9731 O 1592.22 2.60694 5.64732 0
M  V30 9732 C 1593.41 3.93473 7.1943 0
M  V30 9733 O 1593.8 3.02071 8.21205 0
M  V30 9734 C 1594.29 3.73047 5.97036 0
M  V30 9735 C 1593.58 2.58828 5.25741 0
M  V30 9736 N 1593.63 2.68068 3.77503 0
M  V30 9737 C 1593.55 3.79715 2.96723 0
M  V30 9738 N 1593.63 3.5377 1.68852 0
M  V30 9739 C 1593.77 2.15054 1.63254 0
M  V30 9740 C 1593.9 1.28964 0.518571 0
M  V30 9741 N 1594.02 -0.0538097 0.918425 0
M  V30 9742 C 1594.02 -0.494275 2.22578 0
M  V30 9743 N 1594.15 -1.81086 2.40434 0
M  V30 9744 N 1593.89 0.313645 3.27502 0
M  V30 9745 C 1593.77 1.61829 2.91033 0
M  V30 9746 H 1590.79 5.40332 6.79951 0
M  V30 9747 H 1590.52 4.41613 5.32378 0
M  V30 9748 H 1591.39 3.26331 7.47797 0
M  V30 9749 P 1595.35 2.75334 8.47391 0
M  V30 9750 O 1595.57 2.44571 9.90142 0
M  V30 9751 O 1596.14 3.87688 7.92115 0
M  V30 9752 O 1595.6 1.4459 7.59357 0
M  V30 9753 C 1594.66 0.347608 7.69215 0
M  V30 9754 C 1595.39 -0.96767 7.52806 0
M  V30 9755 O 1595.6 -1.21036 6.1011 0
M  V30 9756 C 1596.79 -1.04544 8.13308 0
M  V30 9757 O 1597.18 -2.38311 8.41922 0
M  V30 9758 C 1597.67 -0.491279 7.02284 0
M  V30 9759 C 1596.96 -0.996264 5.77469 0
M  V30 9760 N 1597.01 -0.0501916 4.62973 0
M  V30 9761 H 1594.17 0.374722 8.67691 0
M  V30 9762 H 1593.9 0.443485 6.90277 0
M  V30 9763 H 1594.77 -1.75537 7.96793 0
M  V30 9764 P 1598.73 -2.75334 8.47391 0
M  V30 9765 O 1598.95 -3.84128 9.44797 0
M  V30 9766 O 1599.52 -1.51947 8.68712 0
M  V30 9767 O 1598.98 -3.29363 6.99321 0
M  V30 9768 C 1598.04 -4.24011 6.4274 0
M  V30 9769 C 1598.77 -5.20775 5.52155 0
M  V30 9770 O 1598.98 -4.56534 4.22446 0
M  V30 9771 C 1600.17 -5.62629 5.96531 0
M  V30 9772 O 1600.56 -6.87667 5.41053 0
M  V30 9773 C 1601.05 -4.52537 5.39283 0
M  V30 9774 C 1600.34 -4.20027 4.08623 0
M  V30 9775 N 1600.39 -2.76189 3.71603 0
M  V30 9776 H 1597.55 -4.797 7.24003 0
M  V30 9777 H 1597.28 -3.69856 5.84513 0
M  V30 9778 H 1598.15 -6.10356 5.41441 0
M  V30 9779 P 1602.11 -7.20834 5.23717 0
M  V30 9780 O 1602.33 -8.66104 5.38572 0
M  V30 9781 O 1602.9 -6.33544 6.1349 0
M  V30 9782 O 1602.36 -6.7751 3.72168 0
M  V30 9783 C 1601.42 -7.20825 2.7076 0
M  V30 9784 C 1602.15 -7.45864 1.40599 0
M  V30 9785 O 1602.36 -6.17651 0.734225 0
M  V30 9786 C 1603.55 -8.05808 1.51899 0
M  V30 9787 O 1603.94 -8.74358 0.335205 0
M  V30 9788 C 1604.43 -6.83093 1.70294 0
M  V30 9789 C 1603.72 -5.79992 0.836974 0
M  V30 9790 N 1603.77 -4.41864 1.38293 0
M  V30 9791 H 1600.93 -8.13644 3.0377 0
M  V30 9792 H 1600.66 -6.42788 2.55485 0
M  V30 9793 H 1601.53 -8.12039 0.792769 0
M  V30 9794 P 1605.49 -8.91 4.0605e-12 0
M  V30 9795 O 1605.71 -10.1726 -0.733694 0
M  V30 9796 O 1606.28 -8.73148 1.23936 0
M  V30 9797 O 1605.74 -7.66872 -0.971405 0
M  V30 9798 C 1604.8 -7.42309 -2.04641 0
M  V30 9799 C 1605.53 -6.86059 -3.24661 0
M  V30 9800 O 1605.74 -5.42847 -3.03646 0
M  V30 9801 C 1606.93 -7.41196 -3.50753 0
M  V30 9802 O 1607.32 -7.27073 -4.86816 0
M  V30 9803 C 1607.81 -6.5273 -2.63741 0
M  V30 9804 C 1607.1 -5.1842 -2.73198 0
M  V30 9805 N 1607.15 -4.38762 -1.4784 0
M  V30 9806 H 1604.31 -8.36803 -2.32493 0
M  V30 9807 H 1604.04 -6.70197 -1.71129 0
M  V30 9808 H 1604.91 -7.03551 -4.13168 0
M  V30 9809 P 1608.87 -7.20834 -5.23717 0
M  V30 9810 O 1609.09 -7.79853 -6.57286 0
M  V30 9811 O 1609.66 -7.79239 -4.12957 0
M  V30 9812 O 1609.12 -5.63315 -5.29344 0
M  V30 9813 C 1608.18 -4.80255 -6.01876 0
M  V30 9814 C 1608.91 -3.64202 -6.65911 0
M  V30 9815 O 1609.12 -2.60694 -5.64732 0
M  V30 9816 C 1610.31 -3.93473 -7.1943 0
M  V30 9817 O 1610.7 -3.02071 -8.21205 0
M  V30 9818 C 1611.19 -3.73047 -5.97036 0
M  V30 9819 C 1610.48 -2.58828 -5.25741 0
M  V30 9820 N 1610.53 -2.68068 -3.77503 0
M  V30 9821 H 1607.69 -5.40332 -6.79951 0
M  V30 9822 H 1607.42 -4.41613 -5.32378 0
M  V30 9823 H 1608.29 -3.26331 -7.47797 0
M  V30 9824 P 1612.25 -2.75334 -8.47391 0
M  V30 9825 O 1612.47 -2.44571 -9.90142 0
M  V30 9826 O 1613.04 -3.87688 -7.92115 0
M  V30 9827 O 1612.5 -1.4459 -7.59357 0
M  V30 9828 C 1611.56 -0.347608 -7.69215 0
M  V30 9829 C 1612.29 0.96767 -7.52806 0
M  V30 9830 O 1612.5 1.21036 -6.1011 0
M  V30 9831 C 1613.69 1.04544 -8.13308 0
M  V30 9832 O 1614.08 2.38311 -8.41922 0
M  V30 9833 C 1614.57 0.491279 -7.02284 0
M  V30 9834 C 1613.86 0.996264 -5.77469 0
M  V30 9835 N 1613.91 0.0501916 -4.62973 0
M  V30 9836 H 1611.07 -0.374722 -8.67691 0
M  V30 9837 H 1610.8 -0.443485 -6.90277 0
M  V30 9838 H 1611.67 1.75537 -7.96793 0
M  V30 9839 P 1615.63 2.75334 -8.47391 0
M  V30 9840 O 1615.85 3.84128 -9.44797 0
M  V30 9841 O 1616.42 1.51947 -8.68712 0
M  V30 9842 O 1615.88 3.29363 -6.99321 0
M  V30 9843 C 1614.94 4.24011 -6.4274 0
M  V30 9844 C 1615.67 5.20775 -5.52155 0
M  V30 9845 O 1615.88 4.56534 -4.22446 0
M  V30 9846 C 1617.07 5.62629 -5.96531 0
M  V30 9847 O 1617.46 6.87667 -5.41053 0
M  V30 9848 C 1617.95 4.52537 -5.39283 0
M  V30 9849 C 1617.24 4.20027 -4.08623 0
M  V30 9850 N 1617.29 2.76189 -3.71603 0
M  V30 9851 H 1614.45 4.797 -7.24003 0
M  V30 9852 H 1614.18 3.69856 -5.84513 0
M  V30 9853 H 1615.05 6.10356 -5.41441 0
M  V30 9854 P 1619.01 7.20834 -5.23717 0
M  V30 9855 O 1619.23 8.66104 -5.38572 0
M  V30 9856 O 1619.8 6.33544 -6.1349 0
M  V30 9857 O 1619.26 6.7751 -3.72168 0
M  V30 9858 C 1618.32 7.20825 -2.7076 0
M  V30 9859 C 1619.05 7.45864 -1.40599 0
M  V30 9860 O 1619.26 6.17651 -0.734225 0
M  V30 9861 C 1620.45 8.05808 -1.51899 0
M  V30 9862 O 1620.84 8.74358 -0.335205 0
M  V30 9863 C 1621.33 6.83093 -1.70294 0
M  V30 9864 C 1620.62 5.79992 -0.836974 0
M  V30 9865 N 1620.67 4.41864 -1.38293 0
M  V30 9866 C 1620.59 3.99538 -2.69438 0
M  V30 9867 N 1620.67 2.69909 -2.84277 0
M  V30 9868 C 1620.81 2.21719 -1.5408 0
M  V30 9869 C 1620.94 0.891712 -1.06628 0
M  V30 9870 N 1621.06 0.856846 0.334985 0
M  V30 9871 C 1621.06 1.9641 1.15789 0
M  V30 9872 N 1621.19 1.72708 2.46522 0
M  V30 9873 N 1620.93 3.21165 0.713741 0
M  V30 9874 C 1620.81 3.26797 -0.639748 0
M  V30 9875 H 1617.83 8.13644 -3.0377 0
M  V30 9876 H 1617.56 6.42788 -2.55485 0
M  V30 9877 H 1618.43 8.12039 -0.792769 0
M  V30 9878 P 1622.39 8.91 -5.1695e-12 0
M  V30 9879 O 1622.61 10.1726 0.733694 0
M  V30 9880 O 1623.18 8.73148 -1.23936 0
M  V30 9881 O 1622.64 7.66872 0.971405 0
M  V30 9882 C 1621.7 7.42309 2.04641 0
M  V30 9883 C 1622.43 6.86059 3.24661 0
M  V30 9884 O 1622.64 5.42847 3.03646 0
M  V30 9885 C 1623.83 7.41196 3.50753 0
M  V30 9886 O 1624.22 7.27073 4.86816 0
M  V30 9887 C 1624.71 6.5273 2.63741 0
M  V30 9888 C 1624 5.1842 2.73198 0
M  V30 9889 N 1624.05 4.38762 1.4784 0
M  V30 9890 C 1623.97 4.81605 0.168631 0
M  V30 9891 N 1624.05 3.85454 -0.713363 0
M  V30 9892 C 1624.19 2.6994 0.0566958 0
M  V30 9893 C 1624.32 1.34815 -0.338502 0
M  V30 9894 O 1624.34 0.869548 -1.47125 0
M  V30 9895 N 1624.44 0.496304 0.77465 0
M  V30 9896 C 1624.44 0.908403 2.09122 0
M  V30 9897 N 1624.57 -0.0517805 3.00955 0
M  V30 9898 N 1624.31 2.17875 2.46519 0
M  V30 9899 C 1624.19 3.01988 1.4033 0
M  V30 9900 H 1621.21 8.36803 2.32493 0
M  V30 9901 H 1620.94 6.70197 1.71129 0
M  V30 9902 H 1621.81 7.03551 4.13168 0
M  V30 9903 H 1624.46 4.59498 3.54415 0
M  V30 9904 H 1624.74 6.88898 1.59848 0
M  V30 9905 H 1625.73 6.46749 3.03687 0
M  V30 9906 H 1623.9 8.46908 3.20714 0
M  V30 9907 H 1623.85 5.86405 -0.105564 0
M  V30 9908 H 1624.53 -0.483664 0.597855 0
M  V30 9909 H 1624.57 0.187865 4.0116 0
M  V30 9910 H 1624.67 -1.03585 2.71726 0
M  V30 9911 P 1625.77 7.20834 5.23717 0
M  V30 9912 O 1625.99 7.7993 6.57351 0
M  V30 9913 O 1626.56 7.79328 4.13004 0
M  V30 9914 O 1626.02 5.63315 5.29344 0
M  V30 9915 C 1625.08 4.80193 6.01798 0
M  V30 9916 C 1625.81 3.64202 6.65911 0
M  V30 9917 O 1626.02 2.60694 5.64732 0
M  V30 9918 C 1627.21 3.93473 7.1943 0
M  V30 9919 O 1627.6 3.02071 8.21205 0
M  V30 9920 C 1628.09 3.73047 5.97036 0
M  V30 9921 C 1627.38 2.58828 5.25741 0
M  V30 9922 N 1627.43 2.6801 3.77422 0
M  V30 9923 C 1627.58 1.50443 3.07133 0
M  V30 9924 O 1627.67 0.419406 3.61576 0
M  V30 9925 N 1627.62 1.6403 1.69677 0
M  V30 9926 C 1627.53 2.81206 0.986255 0
M  V30 9927 C 1627.38 3.99158 1.80325 0
M  V30 9928 C 1627.33 3.89779 3.1476 0
M  V30 9929 H 1624.59 5.40332 6.79951 0
M  V30 9930 H 1624.32 4.41549 5.32301 0
M  V30 9931 H 1625.19 3.26331 7.47797 0
M  V30 9932 H 1627.84 1.6395 5.56554 0
M  V30 9933 H 1628.12 4.63439 5.3432 0
M  V30 9934 H 1629.11 3.44728 6.25838 0
M  V30 9935 H 1627.28 4.96652 7.57263 0
M  V30 9936 H 1627.21 4.80159 3.74441 0
M  V30 9937 P 1629.15 2.75334 8.47391 0
M  V30 9938 O 1629.37 2.44571 9.90142 0
M  V30 9939 O 1629.94 3.87688 7.92115 0
M  V30 9940 O 1629.4 1.4459 7.59357 0
M  V30 9941 C 1628.46 0.347608 7.69215 0
M  V30 9942 C 1629.19 -0.96767 7.52806 0
M  V30 9943 O 1629.4 -1.21036 6.1011 0
M  V30 9944 C 1630.59 -1.04544 8.13308 0
M  V30 9945 O 1630.98 -2.38311 8.41922 0
M  V30 9946 C 1631.47 -0.491279 7.02284 0
M  V30 9947 C 1630.76 -0.996264 5.77469 0
M  V30 9948 N 1630.81 -0.0501916 4.62973 0
M  V30 9949 C 1630.73 1.32786 4.63244 0
M  V30 9950 N 1630.81 1.86957 3.44545 0
M  V30 9951 C 1630.95 0.780241 2.58481 0
M  V30 9952 C 1631.08 0.738536 1.17757 0
M  V30 9953 N 1631.2 -0.58337 0.711393 0
M  V30 9954 C 1631.2 -1.70816 1.51017 0
M  V30 9955 N 1631.33 -2.87826 0.880757 0
M  V30 9956 N 1631.07 -1.67126 2.8339 0
M  V30 9957 C 1630.95 -0.401421 3.30572 0
M  V30 9958 H 1627.97 0.374722 8.67691 0
M  V30 9959 H 1627.7 0.443485 6.90277 0
M  V30 9960 H 1628.57 -1.75537 7.96793 0
M  V30 9961 P 1632.53 -2.75334 8.47391 0
M  V30 9962 O 1632.75 -3.84204 9.44982 0
M  V30 9963 O 1633.32 -1.51982 8.68909 0
M  V30 9964 O 1632.78 -3.29363 6.99321 0
M  V30 9965 C 1631.84 -4.24066 6.42823 0
M  V30 9966 C 1632.57 -5.20775 5.52155 0
M  V30 9967 O 1632.78 -4.56607 4.22514 0
M  V30 9968 C 1633.97 -5.62697 5.96604 0
M  V30 9969 O 1634.36 -6.87667 5.41053 0
M  V30 9970 C 1634.85 -4.52537 5.39283 0
M  V30 9971 C 1634.14 -4.20027 4.08623 0
M  V30 9972 N 1634.19 -2.76189 3.71603 0
M  V30 9973 H 1631.35 -4.79756 7.24086 0
M  V30 9974 H 1631.08 -3.69963 5.84682 0
M  V30 9975 H 1631.95 -6.10431 5.41508 0
M  V30 9976 H 1634.6 -4.78816 3.28024 0
M  V30 9977 H 1634.88 -3.64957 6.05871 0
M  V30 9978 H 1635.87 -4.88748 5.21323 0
M  V30 9979 H 1634.04 -5.66789 7.0643 0
M  V30 9980 P 1635.91 -7.20834 5.23717 0
M  V30 9981 O 1636.13 -8.66104 5.38572 0
M  V30 9982 O 1636.7 -6.33544 6.1349 0
M  V30 9983 O 1636.16 -6.7751 3.72168 0
M  V30 9984 C 1635.22 -7.20825 2.7076 0
M  V30 9985 C 1635.95 -7.45864 1.40599 0
M  V30 9986 O 1636.16 -6.17651 0.734225 0
M  V30 9987 C 1637.35 -8.05808 1.51899 0
M  V30 9988 O 1637.74 -8.74358 0.335205 0
M  V30 9989 C 1638.23 -6.83093 1.70294 0
M  V30 9990 C 1637.52 -5.79992 0.836974 0
M  V30 9991 N 1637.57 -4.41864 1.38293 0
M  V30 9992 H 1634.73 -8.13644 3.0377 0
M  V30 9993 H 1634.46 -6.42788 2.55485 0
M  V30 9994 H 1635.33 -8.12039 0.792769 0
M  V30 9995 P 1639.29 -8.91 6.2785e-12 0
M  V30 9996 O 1639.51 -10.1736 -0.733766 0
M  V30 9997 O 1640.08 -8.73247 1.2395 0
M  V30 9998 O 1639.54 -7.66872 -0.971405 0
M  V30 9999 C 1638.6 -7.42309 -2.04641 0
M  V30 10000 C 1639.33 -6.86059 -3.24661 0
M  V30 10001 O 1639.54 -5.42847 -3.03646 0
M  V30 10002 C 1640.73 -7.41196 -3.50753 0
M  V30 10003 O 1641.12 -7.27073 -4.86816 0
M  V30 10004 C 1641.61 -6.5273 -2.63741 0
M  V30 10005 C 1640.9 -5.1842 -2.73198 0
M  V30 10006 N 1640.95 -4.38668 -1.47808 0
M  V30 10007 C 1641.1 -3.00789 -1.58511 0
M  V30 10008 O 1641.19 -2.50116 -2.71298 0
M  V30 10009 N 1641.15 -2.29703 -0.253698 0
M  V30 10010 C 1641.05 -2.84269 0.750133 0
M  V30 10011 N 1641.1 -2.06951 1.82612 0
M  V30 10012 C 1640.9 -4.25803 0.889776 0
M  V30 10013 C 1640.85 -4.98326 -0.259363 0
M  V30 10014 H 1638.11 -8.36707 -2.32466 0
M  V30 10015 H 1637.84 -6.701 -1.71105 0
M  V30 10016 H 1638.71 -7.03638 -4.13219 0
M  V30 10017 H 1641.36 -4.59852 -3.53955 0
M  V30 10018 H 1641.64 -6.88995 -1.59871 0
M  V30 10019 H 1642.63 -6.46749 -3.03687 0
M  V30 10020 H 1640.8 -8.46908 -3.20714 0
M  V30 10021 H 1640.73 -6.06349 -0.206238 0
M  V30 10022 H 1640.83 -4.73163 1.86796 0
M  V30 10023 H 1641.22 -1.05099 1.72271 0
M  V30 10024 H 1641.02 -2.48716 2.76361 0
M  V30 10025 P 1642.67 -7.20834 -5.23717 0
M  V30 10026 O 1642.89 -7.79853 -6.57286 0
M  V30 10027 O 1643.46 -7.79239 -4.12957 0
M  V30 10028 O 1642.92 -5.63315 -5.29344 0
M  V30 10029 C 1641.98 -4.80255 -6.01876 0
M  V30 10030 C 1642.71 -3.64202 -6.65911 0
M  V30 10031 O 1642.92 -2.60694 -5.64732 0
M  V30 10032 C 1644.11 -3.93473 -7.1943 0
M  V30 10033 O 1644.5 -3.02071 -8.21205 0
M  V30 10034 C 1644.99 -3.73047 -5.97036 0
M  V30 10035 C 1644.28 -2.58828 -5.25741 0
M  V30 10036 N 1644.33 -2.68068 -3.77503 0
M  V30 10037 H 1641.49 -5.40332 -6.79951 0
M  V30 10038 H 1641.22 -4.41613 -5.32378 0
M  V30 10039 H 1642.09 -3.26331 -7.47797 0
M  V30 10040 P 1646.05 -2.75334 -8.47391 0
M  V30 10041 O 1646.27 -2.44571 -9.90142 0
M  V30 10042 O 1646.84 -3.87688 -7.92115 0
M  V30 10043 O 1646.3 -1.4459 -7.59357 0
M  V30 10044 C 1645.36 -0.347608 -7.69215 0
M  V30 10045 C 1646.09 0.96767 -7.52806 0
M  V30 10046 O 1646.3 1.21036 -6.1011 0
M  V30 10047 C 1647.49 1.04544 -8.13308 0
M  V30 10048 O 1647.88 2.38311 -8.41922 0
M  V30 10049 C 1648.37 0.491279 -7.02284 0
M  V30 10050 C 1647.66 0.996264 -5.77469 0
M  V30 10051 N 1647.71 0.0501916 -4.62973 0
M  V30 10052 H 1644.87 -0.374722 -8.67691 0
M  V30 10053 H 1644.6 -0.443485 -6.90277 0
M  V30 10054 H 1645.47 1.75537 -7.96793 0
M  V30 10055 P 1649.43 2.75334 -8.47391 0
M  V30 10056 O 1649.65 3.84128 -9.44797 0
M  V30 10057 O 1650.22 1.51947 -8.68712 0
M  V30 10058 O 1649.68 3.29363 -6.99321 0
M  V30 10059 C 1648.74 4.24011 -6.4274 0
M  V30 10060 C 1649.47 5.20775 -5.52155 0
M  V30 10061 O 1649.68 4.56534 -4.22446 0
M  V30 10062 C 1650.87 5.62629 -5.96531 0
M  V30 10063 O 1651.26 6.87667 -5.41053 0
M  V30 10064 C 1651.75 4.52537 -5.39283 0
M  V30 10065 C 1651.04 4.20027 -4.08623 0
M  V30 10066 N 1651.09 2.76189 -3.71603 0
M  V30 10067 H 1648.25 4.797 -7.24003 0
M  V30 10068 H 1647.98 3.69856 -5.84513 0
M  V30 10069 H 1648.85 6.10356 -5.41441 0
M  V30 10070 P 1652.81 7.20834 -5.23717 0
M  V30 10071 O 1653.03 8.66189 -5.38625 0
M  V30 10072 O 1653.6 6.33615 -6.1356 0
M  V30 10073 O 1653.06 6.7751 -3.72168 0
M  V30 10074 C 1652.12 7.20825 -2.7076 0
M  V30 10075 C 1652.85 7.45864 -1.40599 0
M  V30 10076 O 1653.06 6.17651 -0.734225 0
M  V30 10077 C 1654.25 8.05808 -1.51899 0
M  V30 10078 O 1654.64 8.74358 -0.335205 0
M  V30 10079 C 1655.13 6.83093 -1.70294 0
M  V30 10080 C 1654.42 5.79992 -0.836974 0
M  V30 10081 N 1654.47 4.41769 -1.38263 0
M  V30 10082 C 1654.62 3.36514 -0.485617 0
M  V30 10083 O 1654.71 3.61814 0.724703 0
M  V30 10084 N 1654.67 2.00746 -1.14492 0
M  V30 10085 C 1654.57 1.85887 -2.27776 0
M  V30 10086 N 1654.62 0.600907 -2.69379 0
M  V30 10087 C 1654.42 2.92182 -3.22265 0
M  V30 10088 C 1654.37 4.18399 -2.71925 0
M  V30 10089 H 1651.63 8.1355 -3.03735 0
M  V30 10090 H 1651.36 6.42695 -2.55448 0
M  V30 10091 H 1652.23 8.12139 -0.792866 0
M  V30 10092 H 1654.88 5.80078 0.160615 0
M  V30 10093 H 1655.16 6.51379 -2.75643 0
M  V30 10094 H 1656.15 7.01734 -1.34462 0
M  V30 10095 H 1654.32 8.73674 -2.38337 0
M  V30 10096 H 1654.25 5.02669 -3.39718 0
M  V30 10097 H 1654.35 2.73001 -4.29239 0
M  V30 10098 H 1654.74 -0.162318 -2.01146 0
M  V30 10099 H 1654.54 0.387742 -3.69773 0
M  V30 10100 P 1656.19 8.91 -7.38751e-12 0
M  V30 10101 O 1656.41 10.1726 0.733694 0
M  V30 10102 O 1656.98 8.73148 -1.23936 0
M  V30 10103 O 1656.44 7.66872 0.971405 0
M  V30 10104 C 1655.5 7.42309 2.04641 0
M  V30 10105 C 1656.23 6.86059 3.24661 0
M  V30 10106 O 1656.44 5.42847 3.03646 0
M  V30 10107 C 1657.63 7.41196 3.50753 0
M  V30 10108 O 1658.02 7.27073 4.86816 0
M  V30 10109 C 1658.51 6.5273 2.63741 0
M  V30 10110 C 1657.8 5.1842 2.73198 0
M  V30 10111 N 1657.85 4.38762 1.4784 0
M  V30 10112 H 1655.01 8.36803 2.32493 0
M  V30 10113 H 1654.74 6.70197 1.71129 0
M  V30 10114 H 1655.61 7.03551 4.13168 0
M  V30 10115 P 1659.57 7.20834 5.23717 0
M  V30 10116 O 1659.79 7.79853 6.57286 0
M  V30 10117 O 1660.36 7.79239 4.12957 0
M  V30 10118 O 1659.82 5.63315 5.29344 0
M  V30 10119 C 1658.88 4.80255 6.01876 0
M  V30 10120 C 1659.61 3.64202 6.65911 0
M  V30 10121 O 1659.82 2.60694 5.64732 0
M  V30 10122 C 1661.01 3.93473 7.1943 0
M  V30 10123 O 1661.4 3.02071 8.21205 0
M  V30 10124 C 1661.89 3.73047 5.97036 0
M  V30 10125 C 1661.18 2.58828 5.25741 0
M  V30 10126 N 1661.23 2.68068 3.77503 0
M  V30 10127 H 1658.39 5.40332 6.79951 0
M  V30 10128 H 1658.12 4.41613 5.32378 0
M  V30 10129 H 1658.99 3.26331 7.47797 0
M  V30 10130 P 1662.95 2.75334 8.47391 0
M  V30 10131 O 1663.17 2.44571 9.90142 0
M  V30 10132 O 1663.74 3.87688 7.92115 0
M  V30 10133 O 1663.2 1.4459 7.59357 0
M  V30 10134 C 1662.26 0.347608 7.69215 0
M  V30 10135 C 1662.99 -0.96767 7.52806 0
M  V30 10136 O 1663.2 -1.21036 6.1011 0
M  V30 10137 C 1664.39 -1.04544 8.13308 0
M  V30 10138 O 1664.78 -2.38311 8.41922 0
M  V30 10139 C 1665.27 -0.491279 7.02284 0
M  V30 10140 C 1664.56 -0.996264 5.77469 0
M  V30 10141 N 1664.61 -0.0501916 4.62973 0
M  V30 10142 H 1661.77 0.374722 8.67691 0
M  V30 10143 H 1661.5 0.443485 6.90277 0
M  V30 10144 H 1662.37 -1.75537 7.96793 0
M  V30 10145 P 1666.33 -2.75334 8.47391 0
M  V30 10146 O 1666.55 -3.84128 9.44797 0
M  V30 10147 O 1667.12 -1.51947 8.68712 0
M  V30 10148 O 1666.58 -3.29363 6.99321 0
M  V30 10149 C 1665.64 -4.24011 6.4274 0
M  V30 10150 C 1666.37 -5.20775 5.52155 0
M  V30 10151 O 1666.58 -4.56534 4.22446 0
M  V30 10152 C 1667.77 -5.62629 5.96531 0
M  V30 10153 O 1668.16 -6.87667 5.41053 0
M  V30 10154 C 1668.65 -4.52537 5.39283 0
M  V30 10155 C 1667.94 -4.20027 4.08623 0
M  V30 10156 N 1667.99 -2.76189 3.71603 0
M  V30 10157 H 1665.15 -4.797 7.24003 0
M  V30 10158 H 1664.88 -3.69856 5.84513 0
M  V30 10159 H 1665.75 -6.10356 5.41441 0
M  V30 10160 P 1669.71 -7.20834 5.23717 0
M  V30 10161 O 1669.93 -8.66274 5.38678 0
M  V30 10162 O 1670.5 -6.33687 6.13629 0
M  V30 10163 O 1669.96 -6.7751 3.72168 0
M  V30 10164 C 1669.02 -7.20919 2.70795 0
M  V30 10165 C 1669.75 -7.45864 1.40599 0
M  V30 10166 O 1669.96 -6.17751 0.734343 0
M  V30 10167 C 1671.15 -8.05906 1.51917 0
M  V30 10168 O 1671.54 -8.74358 0.335205 0
M  V30 10169 C 1672.03 -6.83093 1.70294 0
M  V30 10170 C 1671.32 -5.79992 0.836974 0
M  V30 10171 N 1671.37 -4.41864 1.38293 0
M  V30 10172 H 1668.53 -8.13738 3.03804 0
M  V30 10173 H 1668.26 -6.42974 2.55559 0
M  V30 10174 H 1669.13 -8.12139 0.792866 0
M  V30 10175 H 1671.78 -5.80178 -0.160643 0
M  V30 10176 H 1672.06 -6.51379 2.75643 0
M  V30 10177 H 1673.05 -7.01832 1.3448 0
M  V30 10178 H 1671.22 -8.73771 2.38364 0
M  V30 10179 P 1673.09 -8.91 8.49651e-12 0
M  V30 10180 O 1673.31 -10.1726 -0.733694 0
M  V30 10181 O 1673.88 -8.73148 1.23936 0
M  V30 10182 O 1673.34 -7.66872 -0.971405 0
M  V30 10183 C 1672.4 -7.42309 -2.04641 0
M  V30 10184 C 1673.13 -6.86059 -3.24661 0
M  V30 10185 O 1673.34 -5.42847 -3.03646 0
M  V30 10186 C 1674.53 -7.41196 -3.50753 0
M  V30 10187 O 1674.92 -7.27073 -4.86816 0
M  V30 10188 C 1675.41 -6.5273 -2.63741 0
M  V30 10189 C 1674.7 -5.1842 -2.73198 0
M  V30 10190 N 1674.75 -4.38762 -1.4784 0
M  V30 10191 H 1671.91 -8.36803 -2.32493 0
M  V30 10192 H 1671.64 -6.70197 -1.71129 0
M  V30 10193 H 1672.51 -7.03551 -4.13168 0
M  V30 10194 P 1676.47 -7.20834 -5.23717 0
M  V30 10195 O 1676.69 -7.79853 -6.57286 0
M  V30 10196 O 1677.26 -7.79239 -4.12957 0
M  V30 10197 O 1676.72 -5.63315 -5.29344 0
M  V30 10198 C 1675.78 -4.80255 -6.01876 0
M  V30 10199 C 1676.51 -3.64202 -6.65911 0
M  V30 10200 O 1676.72 -2.60694 -5.64732 0
M  V30 10201 C 1677.91 -3.93473 -7.1943 0
M  V30 10202 O 1678.3 -3.02071 -8.21205 0
M  V30 10203 C 1678.79 -3.73047 -5.97036 0
M  V30 10204 C 1678.08 -2.58828 -5.25741 0
M  V30 10205 N 1678.13 -2.68068 -3.77503 0
M  V30 10206 H 1675.29 -5.40332 -6.79951 0
M  V30 10207 H 1675.02 -4.41613 -5.32378 0
M  V30 10208 H 1675.89 -3.26331 -7.47797 0
M  V30 10209 P 1679.85 -2.75334 -8.47391 0
M  V30 10210 O 1680.07 -2.44619 -9.90336 0
M  V30 10211 O 1680.64 -3.87776 -7.92294 0
M  V30 10212 O 1680.1 -1.4459 -7.59357 0
M  V30 10213 C 1679.16 -0.347653 -7.69315 0
M  V30 10214 C 1679.89 0.96767 -7.52806 0
M  V30 10215 O 1680.1 1.21055 -6.10208 0
M  V30 10216 C 1681.29 1.04557 -8.13408 0
M  V30 10217 O 1681.68 2.38311 -8.41922 0
M  V30 10218 C 1682.17 0.491279 -7.02284 0
M  V30 10219 C 1681.46 0.996264 -5.77469 0
M  V30 10220 N 1681.51 0.0501916 -4.62973 0
M  V30 10221 H 1678.67 -0.374765 -8.67791 0
M  V30 10222 H 1678.4 -0.443613 -6.90476 0
M  V30 10223 H 1679.27 1.75559 -7.96891 0
M  V30 10224 H 1681.92 1.94563 -5.46818 0
M  V30 10225 H 1682.2 -0.608651 -7.04676 0
M  V30 10226 H 1683.19 0.889796 -7.09039 0
M  V30 10227 H 1681.36 0.433128 -9.04664 0
M  V30 10228 P 1683.23 2.75334 -8.47391 0
M  V30 10229 O 1683.45 3.84166 -9.4489 0
M  V30 10230 O 1684.02 1.51964 -8.6881 0
M  V30 10231 O 1683.48 3.29363 -6.99321 0
M  V30 10232 C 1682.54 4.24011 -6.4274 0
M  V30 10233 C 1683.27 5.20775 -5.52155 0
M  V30 10234 O 1683.48 4.56534 -4.22446 0
M  V30 10235 C 1684.67 5.62629 -5.96531 0
M  V30 10236 O 1685.06 6.87667 -5.41053 0
M  V30 10237 C 1685.55 4.52537 -5.39283 0
M  V30 10238 C 1684.84 4.20027 -4.08623 0
M  V30 10239 N 1684.89 2.7613 -3.71522 0
M  V30 10240 C 1685.04 2.43702 -2.37085 0
M  V30 10241 O 1685.13 3.3531 -1.54039 0
M  V30 10242 N 1685.09 0.951103 -2.10621 0
M  V30 10243 C 1684.99 0.165021 -2.93537 0
M  V30 10244 N 1685.04 -1.09723 -2.53253 0
M  V30 10245 C 1684.84 0.469576 -4.32458 0
M  V30 10246 C 1684.79 1.78658 -4.65921 0
M  V30 10247 H 1682.05 4.79645 -7.23919 0
M  V30 10248 H 1681.78 3.69802 -5.84429 0
M  V30 10249 H 1682.65 6.10431 -5.41508 0
M  V30 10250 H 1685.3 4.78733 -3.27967 0
M  V30 10251 H 1685.58 3.64957 -6.05871 0
M  V30 10252 H 1686.57 4.8868 -5.2125 0
M  V30 10253 H 1684.74 5.66726 -7.06352 0
M  V30 10254 H 1684.67 2.06987 -5.70299 0
M  V30 10255 H 1684.77 -0.314383 -5.07728 0
M  V30 10256 H 1685.16 -1.31363 -1.5319 0
M  V30 10257 H 1684.96 -1.85978 -3.21943 0
M  V30 10258 P 1686.61 7.20834 -5.23717 0
M  V30 10259 O 1686.83 8.66104 -5.38572 0
M  V30 10260 O 1687.4 6.33544 -6.1349 0
M  V30 10261 O 1686.86 6.7751 -3.72168 0
M  V30 10262 C 1685.92 7.20825 -2.7076 0
M  V30 10263 C 1686.65 7.45864 -1.40599 0
M  V30 10264 O 1686.86 6.17651 -0.734225 0
M  V30 10265 C 1688.05 8.05808 -1.51899 0
M  V30 10266 O 1688.44 8.74358 -0.335205 0
M  V30 10267 C 1688.93 6.83093 -1.70294 0
M  V30 10268 C 1688.22 5.79992 -0.836974 0
M  V30 10269 N 1688.27 4.41864 -1.38293 0
M  V30 10270 H 1685.43 8.13644 -3.0377 0
M  V30 10271 H 1685.16 6.42788 -2.55485 0
M  V30 10272 H 1686.03 8.12039 -0.792769 0
M  V30 10273 P 1689.99 8.91 -9.60552e-12 0
M  V30 10274 O 1690.21 10.1736 0.733766 0
M  V30 10275 O 1690.78 8.73247 -1.2395 0
M  V30 10276 O 1690.24 7.66872 0.971405 0
M  V30 10277 C 1689.3 7.42309 2.04641 0
M  V30 10278 C 1690.03 6.86059 3.24661 0
M  V30 10279 O 1690.24 5.42847 3.03646 0
M  V30 10280 C 1691.43 7.41196 3.50753 0
M  V30 10281 O 1691.82 7.27073 4.86816 0
M  V30 10282 C 1692.31 6.5273 2.63741 0
M  V30 10283 C 1691.6 5.1842 2.73198 0
M  V30 10284 N 1691.65 4.38668 1.47808 0
M  V30 10285 C 1691.8 3.00789 1.58511 0
M  V30 10286 O 1691.89 2.50116 2.71298 0
M  V30 10287 N 1691.85 2.29703 0.253698 0
M  V30 10288 C 1691.75 2.84269 -0.750133 0
M  V30 10289 N 1691.8 2.06951 -1.82612 0
M  V30 10290 C 1691.6 4.25803 -0.889776 0
M  V30 10291 C 1691.55 4.98326 0.259363 0
M  V30 10292 H 1688.81 8.36707 2.32466 0
M  V30 10293 H 1688.54 6.701 1.71105 0
M  V30 10294 H 1689.41 7.03638 4.13219 0
M  V30 10295 H 1692.06 4.59852 3.53955 0
M  V30 10296 H 1692.34 6.88995 1.59871 0
M  V30 10297 H 1693.33 6.46749 3.03687 0
M  V30 10298 H 1691.5 8.46908 3.20714 0
M  V30 10299 H 1691.43 6.06349 0.206238 0
M  V30 10300 H 1691.53 4.73163 -1.86796 0
M  V30 10301 H 1691.92 1.05099 -1.72271 0
M  V30 10302 H 1691.72 2.48716 -2.76361 0
M  V30 10303 P 1693.37 7.20834 5.23717 0
M  V30 10304 O 1693.59 7.80006 6.57415 0
M  V30 10305 O 1694.16 7.79416 4.13051 0
M  V30 10306 O 1693.62 5.63315 5.29344 0
M  V30 10307 C 1692.68 4.80318 6.01954 0
M  V30 10308 C 1693.41 3.64202 6.65911 0
M  V30 10309 O 1693.62 2.60736 5.64823 0
M  V30 10310 C 1694.81 3.93521 7.19518 0
M  V30 10311 O 1695.2 3.02071 8.21205 0
M  V30 10312 C 1695.69 3.73047 5.97036 0
M  V30 10313 C 1694.98 2.58828 5.25741 0
M  V30 10314 N 1695.03 2.68068 3.77503 0
M  V30 10315 H 1692.19 5.40394 6.8003 0
M  V30 10316 H 1691.92 4.41741 5.32532 0
M  V30 10317 H 1692.79 3.26371 7.47889 0
M  V30 10318 H 1695.44 1.64007 5.56746 0
M  V30 10319 H 1695.72 4.63439 5.3432 0
M  V30 10320 H 1696.71 3.44776 6.25925 0
M  V30 10321 H 1694.88 4.96707 7.57347 0
M  V30 10322 P 1696.75 2.75334 8.47391 0
M  V30 10323 O 1696.97 2.44571 9.90142 0
M  V30 10324 O 1697.54 3.87688 7.92115 0
M  V30 10325 O 1697 1.4459 7.59357 0
M  V30 10326 C 1696.06 0.347608 7.69215 0
M  V30 10327 C 1696.79 -0.96767 7.52806 0
M  V30 10328 O 1697 -1.21036 6.1011 0
M  V30 10329 C 1698.19 -1.04544 8.13308 0
M  V30 10330 O 1698.58 -2.38311 8.41922 0
M  V30 10331 C 1699.07 -0.491279 7.02284 0
M  V30 10332 C 1698.36 -0.996264 5.77469 0
M  V30 10333 N 1698.41 -0.0501916 4.62973 0
M  V30 10334 C 1698.33 1.32786 4.63244 0
M  V30 10335 N 1698.41 1.86957 3.44545 0
M  V30 10336 C 1698.55 0.780241 2.58481 0
M  V30 10337 C 1698.68 0.738536 1.17757 0
M  V30 10338 N 1698.8 -0.58337 0.711393 0
M  V30 10339 C 1698.8 -1.70816 1.51017 0
M  V30 10340 N 1698.93 -2.87826 0.880757 0
M  V30 10341 N 1698.67 -1.67126 2.8339 0
M  V30 10342 C 1698.55 -0.401421 3.30572 0
M  V30 10343 H 1695.57 0.374722 8.67691 0
M  V30 10344 H 1695.3 0.443485 6.90277 0
M  V30 10345 H 1696.17 -1.75537 7.96793 0
M  V30 10346 P 1700.13 -2.75334 8.47391 0
M  V30 10347 O 1700.35 -3.84128 9.44797 0
M  V30 10348 O 1700.92 -1.51947 8.68712 0
M  V30 10349 O 1700.38 -3.29363 6.99321 0
M  V30 10350 C 1699.44 -4.24011 6.4274 0
M  V30 10351 C 1700.17 -5.20775 5.52155 0
M  V30 10352 O 1700.38 -4.56534 4.22446 0
M  V30 10353 C 1701.57 -5.62629 5.96531 0
M  V30 10354 O 1701.96 -6.87667 5.41053 0
M  V30 10355 C 1702.45 -4.52537 5.39283 0
M  V30 10356 C 1701.74 -4.20027 4.08623 0
M  V30 10357 N 1701.79 -2.76189 3.71603 0
M  V30 10358 H 1698.95 -4.797 7.24003 0
M  V30 10359 H 1698.68 -3.69856 5.84513 0
M  V30 10360 H 1699.55 -6.10356 5.41441 0
M  V30 10361 P 1703.51 -7.20834 5.23717 0
M  V30 10362 O 1703.73 -8.66104 5.38572 0
M  V30 10363 O 1704.3 -6.33544 6.1349 0
M  V30 10364 O 1703.76 -6.7751 3.72168 0
M  V30 10365 C 1702.82 -7.20825 2.7076 0
M  V30 10366 C 1703.55 -7.45864 1.40599 0
M  V30 10367 O 1703.76 -6.17651 0.734225 0
M  V30 10368 C 1704.95 -8.05808 1.51899 0
M  V30 10369 O 1705.34 -8.74358 0.335205 0
M  V30 10370 C 1705.83 -6.83093 1.70294 0
M  V30 10371 C 1705.12 -5.79992 0.836974 0
M  V30 10372 N 1705.17 -4.41864 1.38293 0
M  V30 10373 H 1702.33 -8.13644 3.0377 0
M  V30 10374 H 1702.06 -6.42788 2.55485 0
M  V30 10375 H 1702.93 -8.12039 0.792769 0
M  V30 10376 P 1706.89 -8.91 1.07145e-11 0
M  V30 10377 O 1707.11 -10.1726 -0.733694 0
M  V30 10378 O 1707.68 -8.73148 1.23936 0
M  V30 10379 O 1707.14 -7.66872 -0.971405 0
M  V30 10380 C 1706.2 -7.42309 -2.04641 0
M  V30 10381 C 1706.93 -6.86059 -3.24661 0
M  V30 10382 O 1707.14 -5.42847 -3.03646 0
M  V30 10383 C 1708.33 -7.41196 -3.50753 0
M  V30 10384 O 1708.72 -7.27073 -4.86816 0
M  V30 10385 C 1709.21 -6.5273 -2.63741 0
M  V30 10386 C 1708.5 -5.1842 -2.73198 0
M  V30 10387 N 1708.55 -4.38762 -1.4784 0
M  V30 10388 H 1705.71 -8.36803 -2.32493 0
M  V30 10389 H 1705.44 -6.70197 -1.71129 0
M  V30 10390 H 1706.31 -7.03551 -4.13168 0
M  V30 10391 P 1710.27 -7.20834 -5.23717 0
M  V30 10392 O 1710.49 -7.79853 -6.57286 0
M  V30 10393 O 1711.06 -7.79239 -4.12957 0
M  V30 10394 O 1710.52 -5.63315 -5.29344 0
M  V30 10395 C 1709.58 -4.80255 -6.01876 0
M  V30 10396 C 1710.31 -3.64202 -6.65911 0
M  V30 10397 O 1710.52 -2.60694 -5.64732 0
M  V30 10398 C 1711.71 -3.93473 -7.1943 0
M  V30 10399 O 1712.1 -3.02071 -8.21205 0
M  V30 10400 C 1712.59 -3.73047 -5.97036 0
M  V30 10401 C 1711.88 -2.58828 -5.25741 0
M  V30 10402 N 1711.93 -2.68068 -3.77503 0
M  V30 10403 H 1709.09 -5.40332 -6.79951 0
M  V30 10404 H 1708.82 -4.41613 -5.32378 0
M  V30 10405 H 1709.69 -3.26331 -7.47797 0
M  V30 10406 P 1713.65 -2.75334 -8.47391 0
M  V30 10407 O 1713.87 -2.44571 -9.90142 0
M  V30 10408 O 1714.44 -3.87688 -7.92115 0
M  V30 10409 O 1713.9 -1.4459 -7.59357 0
M  V30 10410 C 1712.96 -0.347608 -7.69215 0
M  V30 10411 C 1713.69 0.96767 -7.52806 0
M  V30 10412 O 1713.9 1.21036 -6.1011 0
M  V30 10413 C 1715.09 1.04544 -8.13308 0
M  V30 10414 O 1715.48 2.38311 -8.41922 0
M  V30 10415 C 1715.97 0.491279 -7.02284 0
M  V30 10416 C 1715.26 0.996264 -5.77469 0
M  V30 10417 N 1715.31 0.0501916 -4.62973 0
M  V30 10418 H 1712.47 -0.374722 -8.67691 0
M  V30 10419 H 1712.2 -0.443485 -6.90277 0
M  V30 10420 H 1713.07 1.75537 -7.96793 0
M  V30 10421 P 1717.03 2.75334 -8.47391 0
M  V30 10422 O 1717.25 3.84128 -9.44797 0
M  V30 10423 O 1717.82 1.51947 -8.68712 0
M  V30 10424 O 1717.28 3.29363 -6.99321 0
M  V30 10425 C 1716.34 4.24011 -6.4274 0
M  V30 10426 C 1717.07 5.20775 -5.52155 0
M  V30 10427 O 1717.28 4.56534 -4.22446 0
M  V30 10428 C 1718.47 5.62629 -5.96531 0
M  V30 10429 O 1718.86 6.87667 -5.41053 0
M  V30 10430 C 1719.35 4.52537 -5.39283 0
M  V30 10431 C 1718.64 4.20027 -4.08623 0
M  V30 10432 N 1718.69 2.76189 -3.71603 0
M  V30 10433 C 1718.61 1.64862 -4.52822 0
M  V30 10434 N 1718.69 0.512671 -3.88633 0
M  V30 10435 C 1718.83 0.888083 -2.54977 0
M  V30 10436 C 1718.96 0.094668 -1.38677 0
M  V30 10437 N 1719.08 0.890102 -0.232633 0
M  V30 10438 C 1719.08 2.26958 -0.21772 0
M  V30 10439 N 1719.21 2.84626 0.97925 0
M  V30 10440 N 1718.95 3.0178 -1.31033 0
M  V30 10441 C 1718.83 2.26781 -2.43843 0
M  V30 10442 H 1715.85 4.797 -7.24003 0
M  V30 10443 H 1715.58 3.69856 -5.84513 0
M  V30 10444 H 1716.45 6.10356 -5.41441 0
M  V30 10445 P 1720.41 7.20834 -5.23717 0
M  V30 10446 O 1720.63 8.66104 -5.38572 0
M  V30 10447 O 1721.2 6.33544 -6.1349 0
M  V30 10448 O 1720.66 6.7751 -3.72168 0
M  V30 10449 C 1719.72 7.20825 -2.7076 0
M  V30 10450 C 1720.45 7.45864 -1.40599 0
M  V30 10451 O 1720.66 6.17651 -0.734225 0
M  V30 10452 C 1721.85 8.05808 -1.51899 0
M  V30 10453 O 1722.24 8.74358 -0.335205 0
M  V30 10454 C 1722.73 6.83093 -1.70294 0
M  V30 10455 C 1722.02 5.79992 -0.836974 0
M  V30 10456 N 1722.07 4.41864 -1.38293 0
M  V30 10457 H 1719.23 8.13644 -3.0377 0
M  V30 10458 H 1718.96 6.42788 -2.55485 0
M  V30 10459 H 1719.83 8.12039 -0.792769 0
M  V30 10460 P 1723.79 8.91 -1.18235e-11 0
M  V30 10461 O 1724.01 10.1736 0.733766 0
M  V30 10462 O 1724.58 8.73247 -1.2395 0
M  V30 10463 O 1724.04 7.66872 0.971405 0
M  V30 10464 C 1723.1 7.42212 2.04614 0
M  V30 10465 C 1723.83 6.86059 3.24661 0
M  V30 10466 O 1724.04 5.42847 3.03646 0
M  V30 10467 C 1725.23 7.41196 3.50753 0
M  V30 10468 O 1725.62 7.27073 4.86816 0
M  V30 10469 C 1726.11 6.5273 2.63741 0
M  V30 10470 C 1725.4 5.1842 2.73198 0
M  V30 10471 N 1725.45 4.38668 1.47808 0
M  V30 10472 C 1725.6 3.02239 1.60048 0
M  V30 10473 O 1725.69 2.46459 2.67869 0
M  V30 10474 N 1725.64 2.32436 0.408571 0
M  V30 10475 C 1725.55 2.85471 -0.854993 0
M  V30 10476 O 1725.6 2.12566 -1.8531 0
M  V30 10477 C 1725.4 4.28918 -0.887335 0
M  V30 10478 C 1725.29 4.91066 -2.24619 0
M  V30 10479 C 1725.35 5.00349 0.255399 0
M  V30 10480 H 1722.61 8.36803 2.32493 0
M  V30 10481 H 1722.34 6.701 1.71105 0
M  V30 10482 H 1723.21 7.03551 4.13168 0
M  V30 10483 H 1725.86 4.59773 3.53894 0
M  V30 10484 H 1726.14 6.88995 1.59871 0
M  V30 10485 H 1727.13 6.46749 3.03687 0
M  V30 10486 H 1725.3 8.46908 3.20714 0
M  V30 10487 H 1725.23 6.08548 0.206986 0
M  V30 10488 H 1726.26 5.34836 -2.53099 0
M  V30 10489 H 1724.52 5.69638 -2.2291 0
M  V30 10490 H 1725.01 4.13971 -2.98044 0
M  V30 10491 H 1725.75 1.33211 0.474216 0
M  V30 10492 P 1727.17 7.20834 5.23717 0
M  V30 10493 O 1727.39 7.79853 6.57286 0
M  V30 10494 O 1727.96 7.79239 4.12957 0
M  V30 10495 O 1727.42 5.63315 5.29344 0
M  V30 10496 C 1726.48 4.80255 6.01876 0
M  V30 10497 C 1727.21 3.64202 6.65911 0
M  V30 10498 O 1727.42 2.60694 5.64732 0
M  V30 10499 C 1728.61 3.93473 7.1943 0
M  V30 10500 O 1729 3.02071 8.21205 0
M  V30 10501 C 1729.49 3.73047 5.97036 0
M  V30 10502 C 1728.78 2.58828 5.25741 0
M  V30 10503 N 1728.83 2.68068 3.77503 0
M  V30 10504 H 1725.99 5.40332 6.79951 0
M  V30 10505 H 1725.72 4.41613 5.32378 0
M  V30 10506 H 1726.59 3.26331 7.47797 0
M  V30 10507 P 1730.55 2.75334 8.47391 0
M  V30 10508 O 1730.77 2.44571 9.90142 0
M  V30 10509 O 1731.34 3.87688 7.92115 0
M  V30 10510 O 1730.8 1.4459 7.59357 0
M  V30 10511 C 1729.86 0.347608 7.69215 0
M  V30 10512 C 1730.59 -0.96767 7.52806 0
M  V30 10513 O 1730.8 -1.21036 6.1011 0
M  V30 10514 C 1731.99 -1.04544 8.13308 0
M  V30 10515 O 1732.38 -2.38311 8.41922 0
M  V30 10516 C 1732.87 -0.491279 7.02284 0
M  V30 10517 C 1732.16 -0.996264 5.77469 0
M  V30 10518 N 1732.21 -0.0501916 4.62973 0
M  V30 10519 H 1729.37 0.374722 8.67691 0
M  V30 10520 H 1729.1 0.443485 6.90277 0
M  V30 10521 H 1729.97 -1.75537 7.96793 0
M  V30 10522 P 1733.93 -2.75334 8.47391 0
M  V30 10523 O 1734.15 -3.84166 9.4489 0
M  V30 10524 O 1734.72 -1.51964 8.6881 0
M  V30 10525 O 1734.18 -3.29363 6.99321 0
M  V30 10526 C 1733.24 -4.23956 6.42656 0
M  V30 10527 C 1733.97 -5.20775 5.52155 0
M  V30 10528 O 1734.18 -4.56534 4.22446 0
M  V30 10529 C 1735.37 -5.62629 5.96531 0
M  V30 10530 O 1735.76 -6.87667 5.41053 0
M  V30 10531 C 1736.25 -4.52537 5.39283 0
M  V30 10532 C 1735.54 -4.20027 4.08623 0
M  V30 10533 N 1735.59 -2.7613 3.71522 0
M  V30 10534 C 1735.74 -2.45612 2.37989 0
M  V30 10535 O 1735.83 -3.30919 1.51621 0
M  V30 10536 N 1735.78 -1.10684 2.08435 0
M  V30 10537 C 1735.69 -0.0690084 2.9792 0
M  V30 10538 C 1735.54 -0.481522 4.35345 0
M  V30 10539 C 1735.49 -1.78906 4.67968 0
M  V30 10540 H 1732.75 -4.797 7.24003 0
M  V30 10541 H 1732.48 -3.69802 5.84429 0
M  V30 10542 H 1733.35 -6.10356 5.41441 0
M  V30 10543 H 1736 -4.78651 3.27911 0
M  V30 10544 H 1736.28 -3.64957 6.05871 0
M  V30 10545 H 1737.27 -4.8868 5.2125 0
M  V30 10546 H 1735.44 -5.66726 7.06352 0
M  V30 10547 H 1735.37 -2.07737 5.72367 0
M  V30 10548 P 1737.31 -7.20834 5.23717 0
M  V30 10549 O 1737.53 -8.66104 5.38572 0
M  V30 10550 O 1738.1 -6.33544 6.1349 0
M  V30 10551 O 1737.56 -6.7751 3.72168 0
M  V30 10552 C 1736.62 -7.20825 2.7076 0
M  V30 10553 C 1737.35 -7.45864 1.40599 0
M  V30 10554 O 1737.56 -6.17651 0.734225 0
M  V30 10555 C 1738.75 -8.05808 1.51899 0
M  V30 10556 O 1739.14 -8.74358 0.335205 0
M  V30 10557 C 1739.63 -6.83093 1.70294 0
M  V30 10558 C 1738.92 -5.79992 0.836974 0
M  V30 10559 N 1738.97 -4.41864 1.38293 0
M  V30 10560 H 1736.13 -8.13644 3.0377 0
M  V30 10561 H 1735.86 -6.42788 2.55485 0
M  V30 10562 H 1736.73 -8.12039 0.792769 0
M  V30 10563 P 1740.69 -8.91 1.29325e-11 0
M  V30 10564 O 1740.91 -10.1726 -0.733694 0
M  V30 10565 O 1741.48 -8.73148 1.23936 0
M  V30 10566 O 1740.94 -7.66872 -0.971405 0
M  V30 10567 C 1740 -7.42309 -2.04641 0
M  V30 10568 C 1740.73 -6.86059 -3.24661 0
M  V30 10569 O 1740.94 -5.42847 -3.03646 0
M  V30 10570 C 1742.13 -7.41196 -3.50753 0
M  V30 10571 O 1742.52 -7.27073 -4.86816 0
M  V30 10572 C 1743.01 -6.5273 -2.63741 0
M  V30 10573 C 1742.3 -5.1842 -2.73198 0
M  V30 10574 N 1742.35 -4.38762 -1.4784 0
M  V30 10575 H 1739.51 -8.36803 -2.32493 0
M  V30 10576 H 1739.24 -6.70197 -1.71129 0
M  V30 10577 H 1740.11 -7.03551 -4.13168 0
M  V30 10578 P 1744.07 -7.20834 -5.23717 0
M  V30 10579 O 1744.29 -7.80006 -6.57415 0
M  V30 10580 O 1744.86 -7.79416 -4.13051 0
M  V30 10581 O 1744.32 -5.63315 -5.29344 0
M  V30 10582 C 1743.38 -4.80318 -6.01954 0
M  V30 10583 C 1744.11 -3.64202 -6.65911 0
M  V30 10584 O 1744.32 -2.60736 -5.64823 0
M  V30 10585 C 1745.51 -3.93521 -7.19518 0
M  V30 10586 O 1745.9 -3.02071 -8.21205 0
M  V30 10587 C 1746.39 -3.73047 -5.97036 0
M  V30 10588 C 1745.68 -2.58828 -5.25741 0
M  V30 10589 N 1745.73 -2.68068 -3.77503 0
M  V30 10590 C 1745.65 -3.80474 -2.99159 0
M  V30 10591 N 1745.72 -3.55622 -1.71925 0
M  V30 10592 C 1745.87 -2.1832 -1.65733 0
M  V30 10593 C 1746 -1.28842 -0.572777 0
M  V30 10594 N 1746.01 -1.66875 0.70098 0
M  V30 10595 N 1746.12 0.016788 -0.859836 0
M  V30 10596 C 1746.11 0.398145 -2.13316 0
M  V30 10597 N 1745.99 -0.328224 -3.22333 0
M  V30 10598 C 1745.87 -1.62992 -2.90383 0
M  V30 10599 H 1742.89 -5.40394 -6.8003 0
M  V30 10600 H 1742.62 -4.41741 -5.32532 0
M  V30 10601 H 1743.49 -3.26371 -7.47889 0
M  V30 10602 H 1746.14 -1.64007 -5.56746 0
M  V30 10603 H 1746.42 -4.63439 -5.3432 0
M  V30 10604 H 1747.41 -3.44776 -6.25925 0
M  V30 10605 H 1745.58 -4.96707 -7.57347 0
M  V30 10606 H 1745.54 -4.8089 -3.39924 0
M  V30 10607 H 1745.92 -2.66547 0.941919 0
M  V30 10608 H 1746.11 -0.965341 1.44766 0
M  V30 10609 H 1746.22 1.46427 -2.29697 0
M  V30 10610 P 1747.45 -2.75334 -8.47391 0
M  V30 10611 O 1747.67 -2.44571 -9.90142 0
M  V30 10612 O 1748.24 -3.87688 -7.92115 0
M  V30 10613 O 1747.7 -1.4459 -7.59357 0
M  V30 10614 C 1746.76 -0.347608 -7.69215 0
M  V30 10615 C 1747.49 0.96767 -7.52806 0
M  V30 10616 O 1747.7 1.21036 -6.1011 0
M  V30 10617 C 1748.89 1.04544 -8.13308 0
M  V30 10618 O 1749.28 2.38311 -8.41922 0
M  V30 10619 C 1749.77 0.491279 -7.02284 0
M  V30 10620 C 1749.06 0.996264 -5.77469 0
M  V30 10621 N 1749.11 0.0501916 -4.62973 0
M  V30 10622 H 1746.27 -0.374722 -8.67691 0
M  V30 10623 H 1746 -0.443485 -6.90277 0
M  V30 10624 H 1746.87 1.75537 -7.96793 0
M  V30 10625 P 1750.83 2.75334 -8.47391 0
M  V30 10626 O 1751.05 3.84128 -9.44797 0
M  V30 10627 O 1751.62 1.51947 -8.68712 0
M  V30 10628 O 1751.08 3.29363 -6.99321 0
M  V30 10629 C 1750.14 4.24011 -6.4274 0
M  V30 10630 C 1750.87 5.20775 -5.52155 0
M  V30 10631 O 1751.08 4.56534 -4.22446 0
M  V30 10632 C 1752.27 5.62629 -5.96531 0
M  V30 10633 O 1752.66 6.87667 -5.41053 0
M  V30 10634 C 1753.15 4.52537 -5.39283 0
M  V30 10635 C 1752.44 4.20027 -4.08623 0
M  V30 10636 N 1752.49 2.76189 -3.71603 0
M  V30 10637 H 1749.65 4.797 -7.24003 0
M  V30 10638 H 1749.38 3.69856 -5.84513 0
M  V30 10639 H 1750.25 6.10356 -5.41441 0
M  V30 10640 P 1754.21 7.20834 -5.23717 0
M  V30 10641 O 1754.43 8.66104 -5.38572 0
M  V30 10642 O 1755 6.33544 -6.1349 0
M  V30 10643 O 1754.46 6.7751 -3.72168 0
M  V30 10644 C 1753.52 7.20825 -2.7076 0
M  V30 10645 C 1754.25 7.45864 -1.40599 0
M  V30 10646 O 1754.46 6.17651 -0.734225 0
M  V30 10647 C 1755.65 8.05808 -1.51899 0
M  V30 10648 O 1756.04 8.74358 -0.335205 0
M  V30 10649 C 1756.53 6.83093 -1.70294 0
M  V30 10650 C 1755.82 5.79992 -0.836974 0
M  V30 10651 N 1755.87 4.41864 -1.38293 0
M  V30 10652 H 1753.03 8.13644 -3.0377 0
M  V30 10653 H 1752.76 6.42788 -2.55485 0
M  V30 10654 H 1753.63 8.12039 -0.792769 0
M  V30 10655 P 1757.59 8.91 -1.40415e-11 0
M  V30 10656 O 1757.81 10.1726 0.733694 0
M  V30 10657 O 1758.38 8.73148 -1.23936 0
M  V30 10658 O 1757.84 7.66872 0.971405 0
M  V30 10659 C 1756.9 7.42309 2.04641 0
M  V30 10660 C 1757.63 6.86059 3.24661 0
M  V30 10661 O 1757.84 5.42847 3.03646 0
M  V30 10662 C 1759.03 7.41196 3.50753 0
M  V30 10663 O 1759.42 7.27073 4.86816 0
M  V30 10664 C 1759.91 6.5273 2.63741 0
M  V30 10665 C 1759.2 5.1842 2.73198 0
M  V30 10666 N 1759.25 4.38762 1.4784 0
M  V30 10667 H 1756.41 8.36803 2.32493 0
M  V30 10668 H 1756.14 6.70197 1.71129 0
M  V30 10669 H 1757.01 7.03551 4.13168 0
M  V30 10670 P 1760.97 7.20834 5.23717 0
M  V30 10671 O 1761.19 7.7993 6.57351 0
M  V30 10672 O 1761.76 7.79328 4.13004 0
M  V30 10673 O 1761.22 5.63315 5.29344 0
M  V30 10674 C 1760.28 4.80193 6.01798 0
M  V30 10675 C 1761.01 3.64202 6.65911 0
M  V30 10676 O 1761.22 2.60694 5.64732 0
M  V30 10677 C 1762.41 3.93473 7.1943 0
M  V30 10678 O 1762.8 3.02071 8.21205 0
M  V30 10679 C 1763.29 3.73047 5.97036 0
M  V30 10680 C 1762.58 2.58828 5.25741 0
M  V30 10681 N 1762.63 2.6801 3.77422 0
M  V30 10682 C 1762.78 1.50443 3.07133 0
M  V30 10683 O 1762.87 0.419406 3.61576 0
M  V30 10684 N 1762.82 1.6403 1.69677 0
M  V30 10685 C 1762.73 2.81206 0.986255 0
M  V30 10686 C 1762.58 3.99158 1.80325 0
M  V30 10687 C 1762.53 3.89779 3.1476 0
M  V30 10688 H 1759.79 5.40332 6.79951 0
M  V30 10689 H 1759.52 4.41549 5.32301 0
M  V30 10690 H 1760.39 3.26331 7.47797 0
M  V30 10691 H 1763.04 1.6395 5.56554 0
M  V30 10692 H 1763.32 4.63439 5.3432 0
M  V30 10693 H 1764.31 3.44728 6.25838 0
M  V30 10694 H 1762.48 4.96652 7.57263 0
M  V30 10695 H 1762.41 4.80159 3.74441 0
M  V30 10696 P 1764.35 2.75334 8.47391 0
M  V30 10697 O 1764.57 2.44571 9.90142 0
M  V30 10698 O 1765.14 3.87688 7.92115 0
M  V30 10699 O 1764.6 1.4459 7.59357 0
M  V30 10700 C 1763.66 0.347608 7.69215 0
M  V30 10701 C 1764.39 -0.96767 7.52806 0
M  V30 10702 O 1764.6 -1.21036 6.1011 0
M  V30 10703 C 1765.79 -1.04544 8.13308 0
M  V30 10704 O 1766.18 -2.38311 8.41922 0
M  V30 10705 C 1766.67 -0.491279 7.02284 0
M  V30 10706 C 1765.96 -0.996264 5.77469 0
M  V30 10707 N 1766.01 -0.0501916 4.62973 0
M  V30 10708 H 1763.17 0.374722 8.67691 0
M  V30 10709 H 1762.9 0.443485 6.90277 0
M  V30 10710 H 1763.77 -1.75537 7.96793 0
M  V30 10711 P 1767.73 -2.75334 8.47391 0
M  V30 10712 O 1767.95 -3.84166 9.4489 0
M  V30 10713 O 1768.52 -1.51964 8.6881 0
M  V30 10714 O 1767.98 -3.29363 6.99321 0
M  V30 10715 C 1767.04 -4.23956 6.42656 0
M  V30 10716 C 1767.77 -5.20775 5.52155 0
M  V30 10717 O 1767.98 -4.56534 4.22446 0
M  V30 10718 C 1769.17 -5.62629 5.96531 0
M  V30 10719 O 1769.56 -6.87667 5.41053 0
M  V30 10720 C 1770.05 -4.52537 5.39283 0
M  V30 10721 C 1769.34 -4.20027 4.08623 0
M  V30 10722 N 1769.39 -2.7613 3.71522 0
M  V30 10723 C 1769.54 -2.45612 2.37989 0
M  V30 10724 O 1769.63 -3.30919 1.51621 0
M  V30 10725 N 1769.58 -1.10684 2.08435 0
M  V30 10726 C 1769.49 -0.0690084 2.9792 0
M  V30 10727 O 1769.54 1.10553 2.59426 0
M  V30 10728 C 1769.34 -0.481522 4.35345 0
M  V30 10729 C 1769.23 0.618778 5.36443 0
M  V30 10730 C 1769.29 -1.78906 4.67968 0
M  V30 10731 H 1766.55 -4.797 7.24003 0
M  V30 10732 H 1766.28 -3.69802 5.84429 0
M  V30 10733 H 1767.15 -6.10356 5.41441 0
M  V30 10734 H 1769.8 -4.78651 3.27911 0
M  V30 10735 H 1770.08 -3.64957 6.05871 0
M  V30 10736 H 1771.07 -4.8868 5.2125 0
M  V30 10737 H 1769.24 -5.66726 7.06352 0
M  V30 10738 H 1769.17 -2.07737 5.72367 0
M  V30 10739 H 1770.2 0.754375 5.86871 0
M  V30 10740 H 1768.46 0.359721 6.10641 0
M  V30 10741 H 1768.95 1.55533 4.8581 0
M  V30 10742 H 1769.69 -0.862651 1.12037 0
M  V30 10743 P 1771.11 -7.20834 5.23717 0
M  V30 10744 O 1771.33 -8.66104 5.38572 0
M  V30 10745 O 1771.9 -6.33544 6.1349 0
M  V30 10746 O 1771.36 -6.7751 3.72168 0
M  V30 10747 C 1770.42 -7.20825 2.7076 0
M  V30 10748 C 1771.15 -7.45864 1.40599 0
M  V30 10749 O 1771.36 -6.17651 0.734225 0
M  V30 10750 C 1772.55 -8.05808 1.51899 0
M  V30 10751 O 1772.94 -8.74358 0.335205 0
M  V30 10752 C 1773.43 -6.83093 1.70294 0
M  V30 10753 C 1772.72 -5.79992 0.836974 0
M  V30 10754 N 1772.77 -4.41864 1.38293 0
M  V30 10755 H 1769.93 -8.13644 3.0377 0
M  V30 10756 H 1769.66 -6.42788 2.55485 0
M  V30 10757 H 1770.53 -8.12039 0.792769 0
M  V30 10758 P 1774.49 -8.91 1.51505e-11 0
M  V30 10759 O 1774.71 -10.1736 -0.733766 0
M  V30 10760 O 1775.28 -8.73247 1.2395 0
M  V30 10761 O 1774.74 -7.66872 -0.971405 0
M  V30 10762 C 1773.8 -7.42212 -2.04614 0
M  V30 10763 C 1774.53 -6.86059 -3.24661 0
M  V30 10764 O 1774.74 -5.42847 -3.03646 0
M  V30 10765 C 1775.93 -7.41196 -3.50753 0
M  V30 10766 O 1776.32 -7.27073 -4.86816 0
M  V30 10767 C 1776.81 -6.5273 -2.63741 0
M  V30 10768 C 1776.1 -5.1842 -2.73198 0
M  V30 10769 N 1776.15 -4.38668 -1.47808 0
M  V30 10770 C 1776.3 -3.02239 -1.60048 0
M  V30 10771 O 1776.39 -2.46459 -2.67869 0
M  V30 10772 N 1776.34 -2.32436 -0.408571 0
M  V30 10773 C 1776.25 -2.85471 0.854993 0
M  V30 10774 O 1776.3 -2.12566 1.8531 0
M  V30 10775 C 1776.1 -4.28918 0.887335 0
M  V30 10776 C 1775.99 -4.91066 2.24619 0
M  V30 10777 C 1776.05 -5.00349 -0.255399 0
M  V30 10778 H 1773.31 -8.36803 -2.32493 0
M  V30 10779 H 1773.04 -6.701 -1.71105 0
M  V30 10780 H 1773.91 -7.03551 -4.13168 0
M  V30 10781 H 1776.56 -4.59773 -3.53894 0
M  V30 10782 H 1776.84 -6.88995 -1.59871 0
M  V30 10783 H 1777.83 -6.46749 -3.03687 0
M  V30 10784 H 1776 -8.46908 -3.20714 0
M  V30 10785 H 1775.93 -6.08548 -0.206986 0
M  V30 10786 H 1776.96 -5.34836 2.53099 0
M  V30 10787 H 1775.22 -5.69638 2.2291 0
M  V30 10788 H 1775.71 -4.13971 2.98044 0
M  V30 10789 H 1776.45 -1.33211 -0.474216 0
M  V30 10790 P 1777.87 -7.20834 -5.23717 0
M  V30 10791 O 1778.09 -7.79853 -6.57286 0
M  V30 10792 O 1778.66 -7.79239 -4.12957 0
M  V30 10793 O 1778.12 -5.63315 -5.29344 0
M  V30 10794 C 1777.18 -4.80255 -6.01876 0
M  V30 10795 C 1777.91 -3.64202 -6.65911 0
M  V30 10796 O 1778.12 -2.60694 -5.64732 0
M  V30 10797 C 1779.31 -3.93473 -7.1943 0
M  V30 10798 O 1779.7 -3.02071 -8.21205 0
M  V30 10799 C 1780.19 -3.73047 -5.97036 0
M  V30 10800 C 1779.48 -2.58828 -5.25741 0
M  V30 10801 N 1779.53 -2.68068 -3.77503 0
M  V30 10802 H 1776.69 -5.40332 -6.79951 0
M  V30 10803 H 1776.42 -4.41613 -5.32378 0
M  V30 10804 H 1777.29 -3.26331 -7.47797 0
M  V30 10805 P 1781.25 -2.75334 -8.47391 0
M  V30 10806 O 1781.47 -2.44571 -9.90142 0
M  V30 10807 O 1782.04 -3.87688 -7.92115 0
M  V30 10808 O 1781.5 -1.4459 -7.59357 0
M  V30 10809 C 1780.56 -0.347608 -7.69215 0
M  V30 10810 C 1781.29 0.96767 -7.52806 0
M  V30 10811 O 1781.5 1.21036 -6.1011 0
M  V30 10812 C 1782.69 1.04544 -8.13308 0
M  V30 10813 O 1783.08 2.38311 -8.41922 0
M  V30 10814 C 1783.57 0.491279 -7.02284 0
M  V30 10815 C 1782.86 0.996264 -5.77469 0
M  V30 10816 N 1782.91 0.0501916 -4.62973 0
M  V30 10817 H 1780.07 -0.374722 -8.67691 0
M  V30 10818 H 1779.8 -0.443485 -6.90277 0
M  V30 10819 H 1780.67 1.75537 -7.96793 0
M  V30 10820 P 1784.63 2.75334 -8.47391 0
M  V30 10821 O 1784.85 3.84128 -9.44797 0
M  V30 10822 O 1785.42 1.51947 -8.68712 0
M  V30 10823 O 1784.88 3.29363 -6.99321 0
M  V30 10824 C 1783.94 4.24011 -6.4274 0
M  V30 10825 C 1784.67 5.20775 -5.52155 0
M  V30 10826 O 1784.88 4.56534 -4.22446 0
M  V30 10827 C 1786.07 5.62629 -5.96531 0
M  V30 10828 O 1786.46 6.87667 -5.41053 0
M  V30 10829 C 1786.95 4.52537 -5.39283 0
M  V30 10830 C 1786.24 4.20027 -4.08623 0
M  V30 10831 N 1786.29 2.76189 -3.71603 0
M  V30 10832 H 1783.45 4.797 -7.24003 0
M  V30 10833 H 1783.18 3.69856 -5.84513 0
M  V30 10834 H 1784.05 6.10356 -5.41441 0
M  V30 10835 P 1788.01 7.20834 -5.23717 0
M  V30 10836 O 1788.23 8.66189 -5.38625 0
M  V30 10837 O 1788.8 6.33615 -6.1356 0
M  V30 10838 O 1788.26 6.7751 -3.72168 0
M  V30 10839 C 1787.32 7.20732 -2.70725 0
M  V30 10840 C 1788.05 7.45864 -1.40599 0
M  V30 10841 O 1788.26 6.17651 -0.734225 0
M  V30 10842 C 1789.45 8.05808 -1.51899 0
M  V30 10843 O 1789.84 8.74358 -0.335205 0
M  V30 10844 C 1790.33 6.83093 -1.70294 0
M  V30 10845 C 1789.62 5.79992 -0.836974 0
M  V30 10846 N 1789.67 4.41769 -1.38263 0
M  V30 10847 C 1789.82 3.38591 -0.481702 0
M  V30 10848 O 1789.91 3.56839 0.718452 0
M  V30 10849 N 1789.86 2.1206 -1.03569 0
M  V30 10850 C 1789.77 1.80696 -2.36966 0
M  V30 10851 C 1789.62 2.94845 -3.23898 0
M  V30 10852 C 1789.57 4.19803 -2.73435 0
M  V30 10853 H 1786.83 8.13644 -3.0377 0
M  V30 10854 H 1786.56 6.42695 -2.55448 0
M  V30 10855 H 1787.43 8.12039 -0.792769 0
M  V30 10856 H 1790.08 5.79978 0.160587 0
M  V30 10857 H 1790.36 6.51379 -2.75643 0
M  V30 10858 H 1791.35 7.01734 -1.34462 0
M  V30 10859 H 1789.52 8.73674 -2.38337 0
M  V30 10860 H 1789.45 5.04492 -3.4095 0
M  V30 10861 P 1791.39 8.91 -1.62595e-11 0
M  V30 10862 O 1791.61 10.1726 0.733694 0
M  V30 10863 O 1792.18 8.73148 -1.23936 0
M  V30 10864 O 1791.64 7.66872 0.971405 0
M  V30 10865 C 1790.7 7.42309 2.04641 0
M  V30 10866 C 1791.43 6.86059 3.24661 0
M  V30 10867 O 1791.64 5.42847 3.03646 0
M  V30 10868 C 1792.83 7.41196 3.50753 0
M  V30 10869 O 1793.22 7.27073 4.86816 0
M  V30 10870 C 1793.71 6.5273 2.63741 0
M  V30 10871 C 1793 5.1842 2.73198 0
M  V30 10872 N 1793.05 4.38762 1.4784 0
M  V30 10873 H 1790.21 8.36803 2.32493 0
M  V30 10874 H 1789.94 6.70197 1.71129 0
M  V30 10875 H 1790.81 7.03551 4.13168 0
M  V30 10876 P 1794.77 7.20834 5.23717 0
M  V30 10877 O 1794.99 7.79853 6.57286 0
M  V30 10878 O 1795.56 7.79239 4.12957 0
M  V30 10879 O 1795.02 5.63315 5.29344 0
M  V30 10880 C 1794.08 4.80255 6.01876 0
M  V30 10881 C 1794.81 3.64202 6.65911 0
M  V30 10882 O 1795.02 2.60694 5.64732 0
M  V30 10883 C 1796.21 3.93473 7.1943 0
M  V30 10884 O 1796.6 3.02071 8.21205 0
M  V30 10885 C 1797.09 3.73047 5.97036 0
M  V30 10886 C 1796.38 2.58828 5.25741 0
M  V30 10887 N 1796.43 2.68068 3.77503 0
M  V30 10888 H 1793.59 5.40332 6.79951 0
M  V30 10889 H 1793.32 4.41613 5.32378 0
M  V30 10890 H 1794.19 3.26331 7.47797 0
M  V30 10891 P 1798.15 2.75334 8.47391 0
M  V30 10892 O 1798.37 2.44571 9.90142 0
M  V30 10893 O 1798.94 3.87688 7.92115 0
M  V30 10894 O 1798.4 1.4459 7.59357 0
M  V30 10895 C 1797.46 0.347608 7.69215 0
M  V30 10896 C 1798.19 -0.96767 7.52806 0
M  V30 10897 O 1798.4 -1.21036 6.1011 0
M  V30 10898 C 1799.59 -1.04544 8.13308 0
M  V30 10899 O 1799.98 -2.38311 8.41922 0
M  V30 10900 C 1800.47 -0.491279 7.02284 0
M  V30 10901 C 1799.76 -0.996264 5.77469 0
M  V30 10902 N 1799.81 -0.0501916 4.62973 0
M  V30 10903 C 1799.73 1.32786 4.63244 0
M  V30 10904 N 1799.81 1.86957 3.44545 0
M  V30 10905 C 1799.95 0.780241 2.58481 0
M  V30 10906 C 1800.08 0.738536 1.17757 0
M  V30 10907 O 1800.1 1.66794 0.372349 0
M  V30 10908 N 1800.2 -0.58337 0.711393 0
M  V30 10909 C 1800.2 -1.70816 1.51017 0
M  V30 10910 N 1800.33 -2.87826 0.880757 0
M  V30 10911 N 1800.07 -1.67126 2.8339 0
M  V30 10912 C 1799.95 -0.401421 3.30572 0
M  V30 10913 H 1796.97 0.374722 8.67691 0
M  V30 10914 H 1796.7 0.443485 6.90277 0
M  V30 10915 H 1797.57 -1.75537 7.96793 0
M  V30 10916 H 1800.22 -1.95076 5.46529 0
M  V30 10917 H 1800.5 0.608565 7.04577 0
M  V30 10918 H 1801.49 -0.889672 7.08939 0
M  V30 10919 H 1799.66 -0.43308 9.04564 0
M  V30 10920 H 1799.61 1.91249 5.54442 0
M  V30 10921 H 1800.29 -0.718054 -0.275244 0
M  V30 10922 H 1800.33 -3.75721 1.41832 0
M  V30 10923 H 1800.43 -2.90436 -0.145468 0
M  V30 10924 P 1801.53 -2.75334 8.47391 0
M  V30 10925 O 1801.75 -3.84128 9.44797 0
M  V30 10926 O 1802.32 -1.51947 8.68712 0
M  V30 10927 O 1801.78 -3.29363 6.99321 0
M  V30 10928 C 1800.84 -4.24011 6.4274 0
M  V30 10929 C 1801.57 -5.20775 5.52155 0
M  V30 10930 O 1801.78 -4.56534 4.22446 0
M  V30 10931 C 1802.97 -5.62629 5.96531 0
M  V30 10932 O 1803.36 -6.87667 5.41053 0
M  V30 10933 C 1803.85 -4.52537 5.39283 0
M  V30 10934 C 1803.14 -4.20027 4.08623 0
M  V30 10935 N 1803.19 -2.76189 3.71603 0
M  V30 10936 H 1800.35 -4.797 7.24003 0
M  V30 10937 H 1800.08 -3.69856 5.84513 0
M  V30 10938 H 1800.95 -6.10356 5.41441 0
M  V30 10939 P 1804.91 -7.20834 5.23717 0
M  V30 10940 O 1805.13 -8.66104 5.38572 0
M  V30 10941 O 1805.7 -6.33544 6.1349 0
M  V30 10942 O 1805.16 -6.7751 3.72168 0
M  V30 10943 C 1804.22 -7.20825 2.7076 0
M  V30 10944 C 1804.95 -7.45864 1.40599 0
M  V30 10945 O 1805.16 -6.17651 0.734225 0
M  V30 10946 C 1806.35 -8.05808 1.51899 0
M  V30 10947 O 1806.74 -8.74358 0.335205 0
M  V30 10948 C 1807.23 -6.83093 1.70294 0
M  V30 10949 C 1806.52 -5.79992 0.836974 0
M  V30 10950 N 1806.57 -4.41864 1.38293 0
M  V30 10951 H 1803.73 -8.13644 3.0377 0
M  V30 10952 H 1803.46 -6.42788 2.55485 0
M  V30 10953 H 1804.33 -8.12039 0.792769 0
M  V30 10954 P 1808.29 -8.91 1.73686e-11 0
M  V30 10955 O 1808.51 -10.1726 -0.733694 0
M  V30 10956 O 1809.08 -8.73148 1.23936 0
M  V30 10957 O 1808.54 -7.66872 -0.971405 0
M  V30 10958 C 1807.6 -7.42309 -2.04641 0
M  V30 10959 C 1808.33 -6.86059 -3.24661 0
M  V30 10960 O 1808.54 -5.42847 -3.03646 0
M  V30 10961 C 1809.73 -7.41196 -3.50753 0
M  V30 10962 O 1810.12 -7.27073 -4.86816 0
M  V30 10963 C 1810.61 -6.5273 -2.63741 0
M  V30 10964 C 1809.9 -5.1842 -2.73198 0
M  V30 10965 N 1809.95 -4.38762 -1.4784 0
M  V30 10966 H 1807.11 -8.36803 -2.32493 0
M  V30 10967 H 1806.84 -6.70197 -1.71129 0
M  V30 10968 H 1807.71 -7.03551 -4.13168 0
M  V30 10969 H 1809.99 -6.36132 -5.14416 0
M  V30 10970 H 1814.01 9.0732 2.85239 0
M  V30 10971 O 1813.89 8.67639 2.00036 0
M  V30 10972 P 1812.45 8.7635 1.60911 0
M  V30 10973 O 1812.23 10.1388 1.11561 0
M  V30 10974 O 1811.66 8.36503 2.79617 0
M  V30 10975 O 1812.2 7.71806 0.42951 0
M  V30 10976 C 1813.14 7.67148 -0.673689 0
M  V30 10977 C 1812.41 7.33374 -1.95559 0
M  V30 10978 O 1812.2 5.88721 -2.00726 0
M  V30 10979 C 1811.01 7.92526 -2.10483 0
M  V30 10980 O 1810.62 8.02971 -3.47653 0
M  V30 10981 C 1810.13 6.89602 -1.41652 0
M  V30 10982 C 1810.84 5.59201 -1.75185 0
M  V30 10983 N 1810.79 4.58235 -0.662552 0
M  V30 10984 H 1813.63 8.65116 -0.777161 0
M  V30 10985 H 1813.9 6.90173 -0.474152 0
M  V30 10986 H 1813.03 7.66548 -2.79458 0
M  V30 10987 P 1809.07 8.03563 -3.84925 0
M  V30 10988 O 1808.85 8.85821 -5.0569 0
M  V30 10989 O 1808.28 8.41101 -2.65469 0
M  V30 10990 O 1808.82 6.4965 -4.18908 0
M  V30 10991 C 1809.76 5.81037 -5.05421 0
M  V30 10992 C 1809.03 4.78366 -5.89277 0
M  V30 10993 O 1808.82 3.58302 -5.08433 0
M  V30 10994 C 1807.63 5.17448 -6.36119 0
M  V30 10995 O 1807.24 4.45271 -7.53232 0
M  V30 10996 C 1806.75 4.74639 -5.19936 0
M  V30 10997 C 1807.46 3.49432 -4.70418 0
M  V30 10998 N 1807.41 3.31776 -3.22945 0
M  V30 10999 H 1810.25 6.54213 -5.71376 0
M  V30 11000 H 1810.52 5.30492 -4.44033 0
M  V30 11001 H 1809.65 4.55889 -6.76652 0
M  V30 11002 P 1805.69 4.23843 -7.83734 0
M  V30 11003 O 1805.47 4.19407 -9.29784 0
M  V30 11004 O 1804.9 5.24426 -7.09156 0
M  V30 11005 O 1805.44 2.7935 -7.20758 0
M  V30 11006 C 1806.38 1.7299 -7.50419 0
M  V30 11007 C 1805.65 0.406376 -7.57911 0
M  V30 11008 O 1805.44 -0.0897726 -6.21935 0
M  V30 11009 C 1804.25 0.447224 -8.1878 0
M  V30 11010 O 1803.86 -0.825065 -8.71101 0
M  V30 11011 C 1803.37 0.783801 -6.99623 0
M  V30 11012 C 1804.08 0.0619192 -5.85967 0
M  V30 11013 N 1804.03 0.7859 -4.56281 0
M  V30 11014 H 1806.87 1.93423 -8.4679 0
M  V30 11015 H 1807.14 1.68181 -6.71046 0
M  V30 11016 H 1806.27 -0.289041 -8.15388 0
M  V30 11017 P 1802.31 -1.17771 -8.83182 0
M  V30 11018 O 1802.09 -2.07206 -9.98732 0
M  V30 11019 O 1801.52 0.0743816 -8.81969 0
M  V30 11020 O 1802.06 -1.97678 -7.474 0
M  V30 11021 C 1803 -3.01133 -7.08783 0
M  V30 11022 C 1802.27 -4.1203 -6.37546 0
M  V30 11023 O 1802.06 -3.72887 -4.9796 0
M  V30 11024 C 1800.87 -4.45085 -6.88694 0
M  V30 11025 O 1800.48 -5.78836 -6.56315 0
M  V30 11026 C 1799.99 -3.47817 -6.12078 0
M  V30 11027 C 1800.7 -3.39414 -4.77697 0
M  V30 11028 N 1800.65 -2.04615 -4.15333 0
M  V30 11029 C 1800.5 -1.96929 -2.77162 0
M  V30 11030 O 1800.41 -3.02017 -2.12006 0
M  V30 11031 N 1800.45 -0.55485 -2.24237 0
M  V30 11032 C 1800.55 0.367808 -2.9169 0
M  V30 11033 N 1800.5 1.53426 -2.29427 0
M  V30 11034 C 1800.7 0.319148 -4.33828 0
M  V30 11035 C 1800.75 -0.920672 -4.90433 0
M  V30 11036 H 1803.49 -3.41209 -7.98667 0
M  V30 11037 H 1803.76 -2.5837 -6.41742 0
M  V30 11038 H 1802.89 -5.02718 -6.42752 0
M  V30 11039 H 1800.24 -4.11779 -4.09026 0
M  V30 11040 H 1799.96 -2.49661 -6.61772 0
M  V30 11041 H 1798.97 -3.86674 -6.00946 0
M  V30 11042 H 1800.8 -4.29991 -7.97006 0
M  V30 11043 H 1800.87 -1.00589 -5.98303 0
M  V30 11044 H 1800.77 1.22639 -4.93799 0
M  V30 11045 H 1800.38 1.56819 -1.27167 0
M  V30 11046 H 1800.58 2.41062 -2.83063 0
M  V30 11047 P 1798.93 -6.144 -6.45285 0
M  V30 11048 O 1798.71 -7.54673 -6.86199 0
M  V30 11049 O 1798.14 -5.12391 -7.179 0
M  V30 11050 O 1798.68 -5.99158 -4.88404 0
M  V30 11051 C 1799.62 -6.60234 -3.96415 0
M  V30 11052 C 1798.89 -7.08259 -2.72856 0
M  V30 11053 O 1798.68 -5.9427 -1.83651 0
M  V30 11054 C 1797.49 -7.64886 -2.9555 0
M  V30 11055 O 1797.1 -8.53963 -1.90717 0
M  V30 11056 C 1796.61 -6.4116 -2.90739 0
M  V30 11057 C 1797.32 -5.55375 -1.86963 0
M  V30 11058 N 1797.27 -4.09664 -2.15742 0
M  V30 11059 H 1800.11 -7.45574 -4.45629 0
M  V30 11060 H 1800.38 -5.86232 -3.67314 0
M  V30 11061 H 1799.51 -7.84412 -2.24479 0
M  V30 11062 P 1795.55 -8.7635 -1.60911 0
M  V30 11063 O 1795.33 -10.1388 -1.11561 0
M  V30 11064 O 1794.76 -8.36503 -2.79617 0
M  V30 11065 O 1795.3 -7.71806 -0.42951 0
M  V30 11066 C 1796.24 -7.67148 0.673689 0
M  V30 11067 C 1795.51 -7.33374 1.95559 0
M  V30 11068 O 1795.3 -5.88721 2.00726 0
M  V30 11069 C 1794.11 -7.92526 2.10483 0
M  V30 11070 O 1793.72 -8.02971 3.47653 0
M  V30 11071 C 1793.23 -6.89602 1.41652 0
M  V30 11072 C 1793.94 -5.59201 1.75185 0
M  V30 11073 N 1793.89 -4.58235 0.662552 0
M  V30 11074 H 1796.73 -8.65116 0.777161 0
M  V30 11075 H 1797 -6.90173 0.474152 0
M  V30 11076 H 1796.13 -7.66548 2.79458 0
M  V30 11077 P 1792.17 -8.03563 3.84925 0
M  V30 11078 O 1791.95 -8.85821 5.0569 0
M  V30 11079 O 1791.38 -8.41101 2.65469 0
M  V30 11080 O 1791.92 -6.4965 4.18908 0
M  V30 11081 C 1792.86 -5.81037 5.05421 0
M  V30 11082 C 1792.13 -4.78366 5.89277 0
M  V30 11083 O 1791.92 -3.58302 5.08433 0
M  V30 11084 C 1790.73 -5.17448 6.36119 0
M  V30 11085 O 1790.34 -4.45271 7.53232 0
M  V30 11086 C 1789.85 -4.74639 5.19936 0
M  V30 11087 C 1790.56 -3.49432 4.70418 0
M  V30 11088 N 1790.51 -3.31776 3.22945 0
M  V30 11089 C 1790.59 -4.27147 2.23315 0
M  V30 11090 N 1790.51 -3.78447 1.02186 0
M  V30 11091 C 1790.37 -2.41001 1.21732 0
M  V30 11092 C 1790.24 -1.36111 0.27694 0
M  V30 11093 N 1790.12 -0.113683 0.912949 0
M  V30 11094 C 1790.12 0.0846396 2.27943 0
M  V30 11095 N 1789.99 1.34737 2.6916 0
M  V30 11096 N 1790.25 -0.902521 3.16379 0
M  V30 11097 C 1790.37 -2.11937 2.56849 0
M  V30 11098 H 1793.35 -6.54213 5.71376 0
M  V30 11099 H 1793.62 -5.30492 4.44033 0
M  V30 11100 H 1792.75 -4.55889 6.76652 0
M  V30 11101 P 1788.79 -4.23843 7.83734 0
M  V30 11102 O 1788.57 -4.19407 9.29784 0
M  V30 11103 O 1788 -5.24426 7.09156 0
M  V30 11104 O 1788.54 -2.7935 7.20758 0
M  V30 11105 C 1789.48 -1.7299 7.50419 0
M  V30 11106 C 1788.75 -0.406376 7.57911 0
M  V30 11107 O 1788.54 0.0897726 6.21935 0
M  V30 11108 C 1787.35 -0.447224 8.1878 0
M  V30 11109 O 1786.96 0.825065 8.71101 0
M  V30 11110 C 1786.47 -0.783801 6.99623 0
M  V30 11111 C 1787.18 -0.0619192 5.85967 0
M  V30 11112 N 1787.13 -0.7859 4.56281 0
M  V30 11113 H 1789.97 -1.93423 8.4679 0
M  V30 11114 H 1790.24 -1.68181 6.71046 0
M  V30 11115 H 1789.37 0.289041 8.15388 0
M  V30 11116 P 1785.41 1.17771 8.83182 0
M  V30 11117 O 1785.19 2.07206 9.98732 0
M  V30 11118 O 1784.62 -0.0743816 8.81969 0
M  V30 11119 O 1785.16 1.97652 7.47304 0
M  V30 11120 C 1786.1 3.01133 7.08783 0
M  V30 11121 C 1785.37 4.12613 6.37049 0
M  V30 11122 O 1785.16 3.72827 4.97879 0
M  V30 11123 C 1783.97 4.45085 6.88694 0
M  V30 11124 O 1783.58 5.7877 6.5624 0
M  V30 11125 C 1783.09 3.47817 6.12078 0
M  V30 11126 C 1783.8 3.39414 4.77697 0
M  V30 11127 N 1783.75 2.04615 4.15333 0
M  V30 11128 H 1786.59 3.41248 7.98759 0
M  V30 11129 H 1786.86 2.5837 6.41742 0
M  V30 11130 H 1785.99 5.02657 6.42673 0
M  V30 11131 P 1782.03 6.144 6.45285 0
M  V30 11132 O 1781.81 7.54673 6.86199 0
M  V30 11133 O 1781.24 5.12391 7.179 0
M  V30 11134 O 1781.78 5.99158 4.88404 0
M  V30 11135 C 1782.72 6.60234 3.96415 0
M  V30 11136 C 1781.99 7.08259 2.72856 0
M  V30 11137 O 1781.78 5.9427 1.83651 0
M  V30 11138 C 1780.59 7.64886 2.9555 0
M  V30 11139 O 1780.2 8.53963 1.90717 0
M  V30 11140 C 1779.71 6.4116 2.90739 0
M  V30 11141 C 1780.42 5.55375 1.86963 0
M  V30 11142 N 1780.37 4.09664 2.15742 0
M  V30 11143 H 1783.21 7.45574 4.45629 0
M  V30 11144 H 1783.48 5.86232 3.67314 0
M  V30 11145 H 1782.61 7.84412 2.24479 0
M  V30 11146 P 1778.65 8.7635 1.60911 0
M  V30 11147 O 1778.43 10.1388 1.11561 0
M  V30 11148 O 1777.86 8.36503 2.79617 0
M  V30 11149 O 1778.4 7.71806 0.42951 0
M  V30 11150 C 1779.34 7.67148 -0.673689 0
M  V30 11151 C 1778.61 7.33374 -1.95559 0
M  V30 11152 O 1778.4 5.88721 -2.00726 0
M  V30 11153 C 1777.21 7.92526 -2.10483 0
M  V30 11154 O 1776.82 8.02971 -3.47653 0
M  V30 11155 C 1776.33 6.89602 -1.41652 0
M  V30 11156 C 1777.04 5.59201 -1.75185 0
M  V30 11157 N 1776.99 4.58301 -0.657969 0
M  V30 11158 C 1777.07 4.79019 0.692603 0
M  V30 11159 N 1777 3.69736 1.38998 0
M  V30 11160 C 1776.85 2.70474 0.438135 0
M  V30 11161 C 1776.72 1.30327 0.538142 0
M  V30 11162 N 1776.71 0.64304 1.69192 0
M  V30 11163 N 1776.6 0.611027 -0.605183 0
M  V30 11164 C 1776.61 1.27002 -1.75953 0
M  V30 11165 N 1776.73 2.56038 -1.98546 0
M  V30 11166 C 1776.85 3.22681 -0.822541 0
M  V30 11167 H 1779.83 8.65116 -0.777161 0
M  V30 11168 H 1780.1 6.9022 -0.46725 0
M  V30 11169 H 1779.23 7.66548 -2.79458 0
M  V30 11170 H 1776.58 5.16165 -2.65183 0
M  V30 11171 H 1776.3 7.06433 -0.329384 0
M  V30 11172 H 1775.31 6.90926 -1.82021 0
M  V30 11173 H 1777.14 8.90873 -1.62657 0
M  V30 11174 H 1777.18 5.77785 1.13874 0
M  V30 11175 H 1776.8 1.15585 2.57991 0
M  V30 11176 H 1776.61 -0.382989 1.69835 0
M  V30 11177 H 1776.5 0.653331 -2.64449 0
M  V30 11178 P 1775.27 8.03563 -3.84925 0
M  V30 11179 O 1775.05 8.85821 -5.0569 0
M  V30 11180 O 1774.48 8.41101 -2.65469 0
M  V30 11181 O 1775.02 6.4965 -4.18908 0
M  V30 11182 C 1775.96 5.81037 -5.05421 0
M  V30 11183 C 1775.23 4.78366 -5.89277 0
M  V30 11184 O 1775.02 3.58302 -5.08433 0
M  V30 11185 C 1773.83 5.17448 -6.36119 0
M  V30 11186 O 1773.44 4.45271 -7.53232 0
M  V30 11187 C 1772.95 4.74639 -5.19936 0
M  V30 11188 C 1773.66 3.49432 -4.70418 0
M  V30 11189 N 1773.61 3.32099 -3.22613 0
M  V30 11190 H 1776.45 6.54213 -5.71376 0
M  V30 11191 H 1776.72 5.30936 -4.43503 0
M  V30 11192 H 1775.85 4.55889 -6.76652 0
M  V30 11193 H 1773.2 2.61715 -5.17932 0
M  V30 11194 H 1772.92 5.52155 -4.41878 0
M  V30 11195 H 1771.93 4.51981 -5.53374 0
M  V30 11196 H 1773.76 6.25124 -6.55234 0
M  V30 11197 P 1771.89 4.23843 -7.83734 0
M  V30 11198 O 1771.67 4.19407 -9.29784 0
M  V30 11199 O 1771.1 5.24426 -7.09156 0
M  V30 11200 O 1771.64 2.7935 -7.20758 0
M  V30 11201 C 1772.58 1.7299 -7.50419 0
M  V30 11202 C 1771.85 0.406376 -7.57911 0
M  V30 11203 O 1771.64 -0.0897726 -6.21935 0
M  V30 11204 C 1770.45 0.447224 -8.1878 0
M  V30 11205 O 1770.06 -0.825065 -8.71101 0
M  V30 11206 C 1769.57 0.783801 -6.99623 0
M  V30 11207 C 1770.28 0.0619192 -5.85967 0
M  V30 11208 N 1770.23 0.790462 -4.56202 0
M  V30 11209 C 1770.31 2.13895 -4.34171 0
M  V30 11210 N 1770.24 2.46449 -3.08687 0
M  V30 11211 C 1770.09 1.2525 -2.43697 0
M  V30 11212 C 1769.96 0.914535 -1.07318 0
M  V30 11213 N 1769.95 1.80782 -0.0887348 0
M  V30 11214 N 1769.84 -0.386745 -0.768133 0
M  V30 11215 C 1769.85 -1.28096 -1.75159 0
M  V30 11216 N 1769.97 -1.09708 -3.04861 0
M  V30 11217 C 1770.09 0.214857 -3.32306 0
M  V30 11218 H 1773.07 1.93423 -8.4679 0
M  V30 11219 H 1773.34 1.68852 -6.70877 0
M  V30 11220 H 1772.47 -0.289041 -8.15388 0
M  V30 11221 H 1769.82 -0.927006 -5.72848 0
M  V30 11222 H 1769.54 1.86973 -6.82036 0
M  V30 11223 H 1768.55 0.403953 -7.13357 0
M  V30 11224 H 1770.38 1.20599 -8.97534 0
M  V30 11225 H 1770.42 2.86846 -5.14318 0
M  V30 11226 H 1770.04 2.81082 -0.302037 0
M  V30 11227 H 1769.85 1.49688 0.889064 0
M  V30 11228 H 1769.74 -2.31317 -1.43855 0
M  V30 11229 P 1768.51 -1.17771 -8.83182 0
M  V30 11230 O 1768.29 -2.07206 -9.98732 0
M  V30 11231 O 1767.72 0.0743816 -8.81969 0
M  V30 11232 O 1768.26 -1.97652 -7.47304 0
M  V30 11233 C 1769.2 -3.01133 -7.08783 0
M  V30 11234 C 1768.47 -4.12613 -6.37049 0
M  V30 11235 O 1768.26 -3.72827 -4.97879 0
M  V30 11236 C 1767.07 -4.45085 -6.88694 0
M  V30 11237 O 1766.68 -5.7877 -6.5624 0
M  V30 11238 C 1766.19 -3.47817 -6.12078 0
M  V30 11239 C 1766.9 -3.39414 -4.77697 0
M  V30 11240 N 1766.85 -2.04615 -4.15333 0
M  V30 11241 H 1769.69 -3.41248 -7.98759 0
M  V30 11242 H 1769.96 -2.5837 -6.41742 0
M  V30 11243 H 1769.09 -5.02657 -6.42673 0
M  V30 11244 P 1765.13 -6.144 -6.45285 0
M  V30 11245 O 1764.91 -7.54673 -6.86199 0
M  V30 11246 O 1764.34 -5.12391 -7.179 0
M  V30 11247 O 1764.88 -5.99158 -4.88404 0
M  V30 11248 C 1765.82 -6.60234 -3.96415 0
M  V30 11249 C 1765.09 -7.08259 -2.72856 0
M  V30 11250 O 1764.88 -5.9427 -1.83651 0
M  V30 11251 C 1763.69 -7.64886 -2.9555 0
M  V30 11252 O 1763.3 -8.53963 -1.90717 0
M  V30 11253 C 1762.81 -6.4116 -2.90739 0
M  V30 11254 C 1763.52 -5.55375 -1.86963 0
M  V30 11255 N 1763.47 -4.09664 -2.15742 0
M  V30 11256 C 1763.55 -3.44381 -3.37233 0
M  V30 11257 N 1763.47 -2.14131 -3.28347 0
M  V30 11258 C 1763.33 -1.90247 -1.91588 0
M  V30 11259 C 1763.2 -0.683992 -1.20892 0
M  V30 11260 N 1763.08 -0.903396 0.173998 0
M  V30 11261 C 1763.08 -2.14171 0.784879 0
M  V30 11262 N 1762.95 -2.1435 2.11317 0
M  V30 11263 N 1763.21 -3.28784 0.119316 0
M  V30 11264 C 1763.33 -3.0977 -1.22194 0
M  V30 11265 H 1766.31 -7.45574 -4.45629 0
M  V30 11266 H 1766.58 -5.86232 -3.67314 0
M  V30 11267 H 1765.71 -7.84412 -2.24479 0
M  V30 11268 P 1761.75 -8.7635 -1.60911 0
M  V30 11269 O 1761.53 -10.1388 -1.11561 0
M  V30 11270 O 1760.96 -8.36503 -2.79617 0
M  V30 11271 O 1761.5 -7.71806 -0.42951 0
M  V30 11272 C 1762.44 -7.67148 0.673689 0
M  V30 11273 C 1761.71 -7.33374 1.95559 0
M  V30 11274 O 1761.5 -5.88721 2.00726 0
M  V30 11275 C 1760.31 -7.92526 2.10483 0
M  V30 11276 O 1759.92 -8.02971 3.47653 0
M  V30 11277 C 1759.43 -6.89602 1.41652 0
M  V30 11278 C 1760.14 -5.59201 1.75185 0
M  V30 11279 N 1760.09 -4.58301 0.657969 0
M  V30 11280 H 1762.93 -8.65116 0.777161 0
M  V30 11281 H 1763.2 -6.9022 0.46725 0
M  V30 11282 H 1762.33 -7.66548 2.79458 0
M  V30 11283 H 1759.68 -5.16165 2.65183 0
M  V30 11284 H 1759.4 -7.06433 0.329384 0
M  V30 11285 H 1758.41 -6.90926 1.82021 0
M  V30 11286 H 1760.24 -8.90873 1.62657 0
M  V30 11287 P 1758.37 -8.03563 3.84925 0
M  V30 11288 O 1758.15 -8.85821 5.0569 0
M  V30 11289 O 1757.58 -8.41101 2.65469 0
M  V30 11290 O 1758.12 -6.4965 4.18908 0
M  V30 11291 C 1759.06 -5.81037 5.05421 0
M  V30 11292 C 1758.33 -4.78366 5.89277 0
M  V30 11293 O 1758.12 -3.58302 5.08433 0
M  V30 11294 C 1756.93 -5.17448 6.36119 0
M  V30 11295 O 1756.54 -4.45271 7.53232 0
M  V30 11296 C 1756.05 -4.74639 5.19936 0
M  V30 11297 C 1756.76 -3.49432 4.70418 0
M  V30 11298 N 1756.71 -3.31776 3.22945 0
M  V30 11299 H 1759.55 -6.54213 5.71376 0
M  V30 11300 H 1759.82 -5.30492 4.44033 0
M  V30 11301 H 1758.95 -4.55889 6.76652 0
M  V30 11302 P 1754.99 -4.23843 7.83734 0
M  V30 11303 O 1754.77 -4.19407 9.29784 0
M  V30 11304 O 1754.2 -5.24426 7.09156 0
M  V30 11305 O 1754.74 -2.7935 7.20758 0
M  V30 11306 C 1755.68 -1.7299 7.50419 0
M  V30 11307 C 1754.95 -0.406376 7.57911 0
M  V30 11308 O 1754.74 0.0897726 6.21935 0
M  V30 11309 C 1753.55 -0.447224 8.1878 0
M  V30 11310 O 1753.16 0.825065 8.71101 0
M  V30 11311 C 1752.67 -0.783801 6.99623 0
M  V30 11312 C 1753.38 -0.0619192 5.85967 0
M  V30 11313 N 1753.33 -0.7859 4.56281 0
M  V30 11314 H 1756.17 -1.93423 8.4679 0
M  V30 11315 H 1756.44 -1.68181 6.71046 0
M  V30 11316 H 1755.57 0.289041 8.15388 0
M  V30 11317 P 1751.61 1.17771 8.83182 0
M  V30 11318 O 1751.39 2.07206 9.98732 0
M  V30 11319 O 1750.82 -0.0743816 8.81969 0
M  V30 11320 O 1751.36 1.97652 7.47304 0
M  V30 11321 C 1752.3 3.01133 7.08783 0
M  V30 11322 C 1751.57 4.12613 6.37049 0
M  V30 11323 O 1751.36 3.72827 4.97879 0
M  V30 11324 C 1750.17 4.45085 6.88694 0
M  V30 11325 O 1749.78 5.7877 6.5624 0
M  V30 11326 C 1749.29 3.47817 6.12078 0
M  V30 11327 C 1750 3.39414 4.77697 0
M  V30 11328 N 1749.95 2.04615 4.15333 0
M  V30 11329 H 1752.79 3.41248 7.98759 0
M  V30 11330 H 1753.06 2.5837 6.41742 0
M  V30 11331 H 1752.19 5.02657 6.42673 0
M  V30 11332 P 1748.23 6.144 6.45285 0
M  V30 11333 O 1748.01 7.54673 6.86199 0
M  V30 11334 O 1747.44 5.12391 7.179 0
M  V30 11335 O 1747.98 5.99158 4.88404 0
M  V30 11336 C 1748.92 6.60062 3.96313 0
M  V30 11337 C 1748.19 7.08259 2.72856 0
M  V30 11338 O 1747.98 5.9427 1.83651 0
M  V30 11339 C 1746.79 7.65087 2.94749 0
M  V30 11340 O 1746.4 8.53963 1.90717 0
M  V30 11341 C 1745.91 6.41069 2.90698 0
M  V30 11342 C 1746.62 5.5528 1.86931 0
M  V30 11343 N 1746.57 4.09575 2.15696 0
M  V30 11344 C 1746.42 3.24249 1.08435 0
M  V30 11345 O 1746.33 3.63946 -0.0628747 0
M  V30 11346 N 1746.38 1.90009 1.39973 0
M  V30 11347 C 1746.47 1.34884 2.65614 0
M  V30 11348 O 1746.42 0.123716 2.81728 0
M  V30 11349 C 1746.62 2.3145 3.71736 0
M  V30 11350 C 1746.73 1.75913 5.10438 0
M  V30 11351 C 1746.67 3.63518 3.44754 0
M  V30 11352 H 1749.41 7.45402 4.45526 0
M  V30 11353 H 1749.68 5.86062 3.67208 0
M  V30 11354 H 1748.81 7.84412 2.24479 0
M  V30 11355 H 1746.16 5.73358 0.888409 0
M  V30 11356 H 1745.88 5.90877 3.88583 0
M  V30 11357 H 1744.89 6.65867 2.58821 0
M  V30 11358 H 1746.72 8.16248 3.92006 0
M  V30 11359 H 1746.79 4.34551 4.26383 0
M  V30 11360 H 1745.76 1.85471 5.61775 0
M  V30 11361 H 1747.5 2.31364 5.66257 0
M  V30 11362 H 1747.01 0.695936 5.05229 0
M  V30 11363 H 1746.27 1.26277 0.63625 0
M  V30 11364 P 1744.85 8.7635 1.60911 0
M  V30 11365 O 1744.63 10.1388 1.11561 0
M  V30 11366 O 1744.06 8.36503 2.79617 0
M  V30 11367 O 1744.6 7.71806 0.42951 0
M  V30 11368 C 1745.54 7.67148 -0.673689 0
M  V30 11369 C 1744.81 7.33374 -1.95559 0
M  V30 11370 O 1744.6 5.88721 -2.00726 0
M  V30 11371 C 1743.41 7.92526 -2.10483 0
M  V30 11372 O 1743.02 8.02971 -3.47653 0
M  V30 11373 C 1742.53 6.89602 -1.41652 0
M  V30 11374 C 1743.24 5.59201 -1.75185 0
M  V30 11375 N 1743.19 4.58235 -0.662552 0
M  V30 11376 H 1746.03 8.65116 -0.777161 0
M  V30 11377 H 1746.3 6.90173 -0.474152 0
M  V30 11378 H 1745.43 7.66548 -2.79458 0
M  V30 11379 P 1741.47 8.03563 -3.84925 0
M  V30 11380 O 1741.25 8.85821 -5.0569 0
M  V30 11381 O 1740.68 8.41101 -2.65469 0
M  V30 11382 O 1741.22 6.4965 -4.18908 0
M  V30 11383 C 1742.16 5.81037 -5.05421 0
M  V30 11384 C 1741.43 4.78366 -5.89277 0
M  V30 11385 O 1741.22 3.58302 -5.08433 0
M  V30 11386 C 1740.03 5.17448 -6.36119 0
M  V30 11387 O 1739.64 4.45271 -7.53232 0
M  V30 11388 C 1739.15 4.74639 -5.19936 0
M  V30 11389 C 1739.86 3.49432 -4.70418 0
M  V30 11390 N 1739.81 3.31776 -3.22945 0
M  V30 11391 H 1742.65 6.54213 -5.71376 0
M  V30 11392 H 1742.92 5.30492 -4.44033 0
M  V30 11393 H 1742.05 4.55889 -6.76652 0
M  V30 11394 P 1738.09 4.23843 -7.83734 0
M  V30 11395 O 1737.87 4.19407 -9.29784 0
M  V30 11396 O 1737.3 5.24426 -7.09156 0
M  V30 11397 O 1737.84 2.7935 -7.20758 0
M  V30 11398 C 1738.78 1.7299 -7.50419 0
M  V30 11399 C 1738.05 0.406376 -7.57911 0
M  V30 11400 O 1737.84 -0.0897726 -6.21935 0
M  V30 11401 C 1736.65 0.447224 -8.1878 0
M  V30 11402 O 1736.26 -0.825065 -8.71101 0
M  V30 11403 C 1735.77 0.783801 -6.99623 0
M  V30 11404 C 1736.48 0.0619192 -5.85967 0
M  V30 11405 N 1736.43 0.7859 -4.56281 0
M  V30 11406 C 1736.51 2.14308 -4.31736 0
M  V30 11407 N 1736.43 2.46106 -3.05116 0
M  V30 11408 C 1736.29 1.23422 -2.4014 0
M  V30 11409 C 1736.16 0.938381 -1.02409 0
M  V30 11410 N 1736.04 -0.444647 -0.805413 0
M  V30 11411 C 1736.04 -1.40829 -1.79435 0
M  V30 11412 N 1735.91 -2.67213 -1.38558 0
M  V30 11413 N 1736.17 -1.12947 -3.09005 0
M  V30 11414 C 1736.29 0.204887 -3.32369 0
M  V30 11415 H 1739.27 1.93423 -8.4679 0
M  V30 11416 H 1739.54 1.68181 -6.71046 0
M  V30 11417 H 1738.67 -0.289041 -8.15388 0
M  V30 11418 P 1734.71 -1.17771 -8.83182 0
M  V30 11419 O 1734.49 -2.07206 -9.98732 0
M  V30 11420 O 1733.92 0.0743816 -8.81969 0
M  V30 11421 O 1734.46 -1.97652 -7.47304 0
M  V30 11422 C 1735.4 -3.01133 -7.08783 0
M  V30 11423 C 1734.67 -4.12613 -6.37049 0
M  V30 11424 O 1734.46 -3.72827 -4.97879 0
M  V30 11425 C 1733.27 -4.45085 -6.88694 0
M  V30 11426 O 1732.88 -5.7877 -6.5624 0
M  V30 11427 C 1732.39 -3.47817 -6.12078 0
M  V30 11428 C 1733.1 -3.39414 -4.77697 0
M  V30 11429 N 1733.05 -2.04615 -4.15333 0
M  V30 11430 H 1735.89 -3.41248 -7.98759 0
M  V30 11431 H 1736.16 -2.5837 -6.41742 0
M  V30 11432 H 1735.29 -5.02657 -6.42673 0
M  V30 11433 P 1731.33 -6.144 -6.45285 0
M  V30 11434 O 1731.11 -7.54673 -6.86199 0
M  V30 11435 O 1730.54 -5.12391 -7.179 0
M  V30 11436 O 1731.08 -5.99158 -4.88404 0
M  V30 11437 C 1732.02 -6.60234 -3.96415 0
M  V30 11438 C 1731.29 -7.08259 -2.72856 0
M  V30 11439 O 1731.08 -5.9427 -1.83651 0
M  V30 11440 C 1729.89 -7.64886 -2.9555 0
M  V30 11441 O 1729.5 -8.53963 -1.90717 0
M  V30 11442 C 1729.01 -6.4116 -2.90739 0
M  V30 11443 C 1729.72 -5.55375 -1.86963 0
M  V30 11444 N 1729.67 -4.09664 -2.15742 0
M  V30 11445 H 1732.51 -7.45574 -4.45629 0
M  V30 11446 H 1732.78 -5.86232 -3.67314 0
M  V30 11447 H 1731.91 -7.84412 -2.24479 0
M  V30 11448 P 1727.95 -8.7635 -1.60911 0
M  V30 11449 O 1727.73 -10.1388 -1.11561 0
M  V30 11450 O 1727.16 -8.36503 -2.79617 0
M  V30 11451 O 1727.7 -7.71806 -0.42951 0
M  V30 11452 C 1728.64 -7.67148 0.673689 0
M  V30 11453 C 1727.91 -7.33374 1.95559 0
M  V30 11454 O 1727.7 -5.88721 2.00726 0
M  V30 11455 C 1726.51 -7.92526 2.10483 0
M  V30 11456 O 1726.12 -8.02971 3.47653 0
M  V30 11457 C 1725.63 -6.89602 1.41652 0
M  V30 11458 C 1726.34 -5.59201 1.75185 0
M  V30 11459 N 1726.29 -4.58301 0.657969 0
M  V30 11460 C 1726.37 -4.79019 -0.692603 0
M  V30 11461 N 1726.3 -3.69736 -1.38998 0
M  V30 11462 C 1726.15 -2.70474 -0.438135 0
M  V30 11463 C 1726.02 -1.30327 -0.538142 0
M  V30 11464 N 1726.01 -0.64304 -1.69192 0
M  V30 11465 N 1725.9 -0.611027 0.605183 0
M  V30 11466 C 1725.91 -1.27002 1.75953 0
M  V30 11467 N 1726.03 -2.56038 1.98546 0
M  V30 11468 C 1726.15 -3.22681 0.822541 0
M  V30 11469 H 1729.13 -8.65116 0.777161 0
M  V30 11470 H 1729.4 -6.9022 0.46725 0
M  V30 11471 H 1728.53 -7.66548 2.79458 0
M  V30 11472 H 1725.88 -5.16165 2.65183 0
M  V30 11473 H 1725.6 -7.06433 0.329384 0
M  V30 11474 H 1724.61 -6.90926 1.82021 0
M  V30 11475 H 1726.44 -8.90873 1.62657 0
M  V30 11476 H 1726.48 -5.77785 -1.13874 0
M  V30 11477 H 1726.1 -1.15585 -2.57991 0
M  V30 11478 H 1725.91 0.382989 -1.69835 0
M  V30 11479 H 1725.8 -0.653331 2.64449 0
M  V30 11480 P 1724.57 -8.03563 3.84925 0
M  V30 11481 O 1724.35 -8.85821 5.0569 0
M  V30 11482 O 1723.78 -8.41101 2.65469 0
M  V30 11483 O 1724.32 -6.4965 4.18908 0
M  V30 11484 C 1725.26 -5.81037 5.05421 0
M  V30 11485 C 1724.53 -4.78366 5.89277 0
M  V30 11486 O 1724.32 -3.58302 5.08433 0
M  V30 11487 C 1723.13 -5.17448 6.36119 0
M  V30 11488 O 1722.74 -4.45271 7.53232 0
M  V30 11489 C 1722.25 -4.74639 5.19936 0
M  V30 11490 C 1722.96 -3.49432 4.70418 0
M  V30 11491 N 1722.91 -3.31776 3.22945 0
M  V30 11492 H 1725.75 -6.54213 5.71376 0
M  V30 11493 H 1726.02 -5.30492 4.44033 0
M  V30 11494 H 1725.15 -4.55889 6.76652 0
M  V30 11495 P 1721.19 -4.23843 7.83734 0
M  V30 11496 O 1720.97 -4.19407 9.29784 0
M  V30 11497 O 1720.4 -5.24426 7.09156 0
M  V30 11498 O 1720.94 -2.7935 7.20758 0
M  V30 11499 C 1721.88 -1.72945 7.50224 0
M  V30 11500 C 1721.15 -0.406376 7.57911 0
M  V30 11501 O 1720.94 0.0897726 6.21935 0
M  V30 11502 C 1719.75 -0.438983 8.18724 0
M  V30 11503 O 1719.36 0.825065 8.71101 0
M  V30 11504 C 1718.87 -0.783689 6.99524 0
M  V30 11505 C 1719.58 -0.0619086 5.85867 0
M  V30 11506 N 1719.53 -0.78573 4.56183 0
M  V30 11507 C 1719.38 -0.0292889 3.41887 0
M  V30 11508 O 1719.29 1.18445 3.4419 0
M  V30 11509 N 1719.34 -0.744061 2.23964 0
M  V30 11510 C 1719.43 -2.10932 2.10362 0
M  V30 11511 C 1719.58 -2.8202 3.34994 0
M  V30 11512 C 1719.63 -2.15547 4.52261 0
M  V30 11513 H 1722.37 -1.93379 8.46595 0
M  V30 11514 H 1722.64 -1.68132 6.70852 0
M  V30 11515 H 1721.77 0.289041 8.15388 0
M  V30 11516 H 1719.12 0.926847 5.72749 0
M  V30 11517 H 1718.84 -1.86973 6.82036 0
M  V30 11518 H 1717.85 -0.403896 7.13257 0
M  V30 11519 H 1719.68 -1.20585 8.97435 0
M  V30 11520 H 1719.75 -2.71231 5.45042 0
M  V30 11521 P 1717.81 1.17771 8.83182 0
M  V30 11522 O 1717.59 2.07206 9.98732 0
M  V30 11523 O 1717.02 -0.0743816 8.81969 0
M  V30 11524 O 1717.56 1.97652 7.47304 0
M  V30 11525 C 1718.5 3.01133 7.08783 0
M  V30 11526 C 1717.77 4.12613 6.37049 0
M  V30 11527 O 1717.56 3.72827 4.97879 0
M  V30 11528 C 1716.37 4.45085 6.88694 0
M  V30 11529 O 1715.98 5.7877 6.5624 0
M  V30 11530 C 1715.49 3.47817 6.12078 0
M  V30 11531 C 1716.2 3.39414 4.77697 0
M  V30 11532 N 1716.15 2.04615 4.15333 0
M  V30 11533 H 1718.99 3.41248 7.98759 0
M  V30 11534 H 1719.26 2.5837 6.41742 0
M  V30 11535 H 1718.39 5.02657 6.42673 0
M  V30 11536 P 1714.43 6.144 6.45285 0
M  V30 11537 O 1714.21 7.54673 6.86199 0
M  V30 11538 O 1713.64 5.12391 7.179 0
M  V30 11539 O 1714.18 5.99158 4.88404 0
M  V30 11540 C 1715.12 6.60234 3.96415 0
M  V30 11541 C 1714.39 7.08259 2.72856 0
M  V30 11542 O 1714.18 5.9427 1.83651 0
M  V30 11543 C 1712.99 7.64886 2.9555 0
M  V30 11544 O 1712.6 8.53963 1.90717 0
M  V30 11545 C 1712.11 6.4116 2.90739 0
M  V30 11546 C 1712.82 5.55375 1.86963 0
M  V30 11547 N 1712.77 4.09664 2.15742 0
M  V30 11548 H 1715.61 7.45574 4.45629 0
M  V30 11549 H 1715.88 5.86232 3.67314 0
M  V30 11550 H 1715.01 7.84412 2.24479 0
M  V30 11551 P 1711.05 8.7635 1.60911 0
M  V30 11552 O 1710.83 10.1388 1.11561 0
M  V30 11553 O 1710.26 8.36503 2.79617 0
M  V30 11554 O 1710.8 7.71806 0.42951 0
M  V30 11555 C 1711.74 7.67148 -0.673689 0
M  V30 11556 C 1711.01 7.33374 -1.95559 0
M  V30 11557 O 1710.8 5.88721 -2.00726 0
M  V30 11558 C 1709.61 7.92526 -2.10483 0
M  V30 11559 O 1709.22 8.02971 -3.47653 0
M  V30 11560 C 1708.73 6.89602 -1.41652 0
M  V30 11561 C 1709.44 5.59201 -1.75185 0
M  V30 11562 N 1709.39 4.58235 -0.662552 0
M  V30 11563 H 1712.23 8.65116 -0.777161 0
M  V30 11564 H 1712.5 6.90173 -0.474152 0
M  V30 11565 H 1711.63 7.66548 -2.79458 0
M  V30 11566 P 1707.67 8.03563 -3.84925 0
M  V30 11567 O 1707.45 8.85821 -5.0569 0
M  V30 11568 O 1706.88 8.41101 -2.65469 0
M  V30 11569 O 1707.42 6.4965 -4.18908 0
M  V30 11570 C 1708.36 5.81037 -5.05421 0
M  V30 11571 C 1707.63 4.78366 -5.89277 0
M  V30 11572 O 1707.42 3.58302 -5.08433 0
M  V30 11573 C 1706.23 5.17448 -6.36119 0
M  V30 11574 O 1705.84 4.45271 -7.53232 0
M  V30 11575 C 1705.35 4.74639 -5.19936 0
M  V30 11576 C 1706.06 3.49432 -4.70418 0
M  V30 11577 N 1706.01 3.31776 -3.22945 0
M  V30 11578 H 1708.85 6.54213 -5.71376 0
M  V30 11579 H 1709.12 5.30492 -4.44033 0
M  V30 11580 H 1708.25 4.55889 -6.76652 0
M  V30 11581 P 1704.29 4.23843 -7.83734 0
M  V30 11582 O 1704.07 4.19407 -9.29784 0
M  V30 11583 O 1703.5 5.24426 -7.09156 0
M  V30 11584 O 1704.04 2.7935 -7.20758 0
M  V30 11585 C 1704.98 1.7299 -7.50419 0
M  V30 11586 C 1704.25 0.406376 -7.57911 0
M  V30 11587 O 1704.04 -0.0897726 -6.21935 0
M  V30 11588 C 1702.85 0.447224 -8.1878 0
M  V30 11589 O 1702.46 -0.825065 -8.71101 0
M  V30 11590 C 1701.97 0.783801 -6.99623 0
M  V30 11591 C 1702.68 0.0619192 -5.85967 0
M  V30 11592 N 1702.63 0.790462 -4.56202 0
M  V30 11593 H 1705.47 1.93423 -8.4679 0
M  V30 11594 H 1705.74 1.68852 -6.70877 0
M  V30 11595 H 1704.87 -0.289041 -8.15388 0
M  V30 11596 H 1702.22 -0.927006 -5.72848 0
M  V30 11597 H 1701.94 1.86973 -6.82036 0
M  V30 11598 H 1700.95 0.403953 -7.13357 0
M  V30 11599 H 1702.78 1.20599 -8.97534 0
M  V30 11600 P 1700.91 -1.17771 -8.83182 0
M  V30 11601 O 1700.69 -2.07206 -9.98732 0
M  V30 11602 O 1700.12 0.0743816 -8.81969 0
M  V30 11603 O 1700.66 -1.97652 -7.47304 0
M  V30 11604 C 1701.6 -3.01055 -7.08599 0
M  V30 11605 C 1700.87 -4.12613 -6.37049 0
M  V30 11606 O 1700.66 -3.72827 -4.97879 0
M  V30 11607 C 1699.47 -4.45719 -6.88164 0
M  V30 11608 O 1699.08 -5.7877 -6.5624 0
M  V30 11609 C 1698.59 -3.47768 -6.11991 0
M  V30 11610 C 1699.3 -3.39356 -4.77615 0
M  V30 11611 N 1699.25 -2.04571 -4.15244 0
M  V30 11612 C 1699.1 -1.98587 -2.78314 0
M  V30 11613 O 1699.01 -2.98134 -2.08835 0
M  V30 11614 N 1699.06 -0.714467 -2.24925 0
M  V30 11615 C 1699.15 0.470001 -2.94169 0
M  V30 11616 C 1699.3 0.312541 -4.36783 0
M  V30 11617 C 1699.35 -0.914512 -4.92583 0
M  V30 11618 H 1702.09 -3.41169 -7.98575 0
M  V30 11619 H 1702.36 -2.58295 -6.41556 0
M  V30 11620 H 1701.49 -5.02657 -6.42673 0
M  V30 11621 H 1698.84 -4.11637 -4.08885 0
M  V30 11622 H 1698.56 -2.49626 -6.61679 0
M  V30 11623 H 1697.57 -3.86566 -6.00778 0
M  V30 11624 H 1699.4 -4.29943 -7.96918 0
M  V30 11625 H 1699.47 -1.00937 -6.00374 0
M  V30 11626 P 1697.53 -6.144 -6.45285 0
M  V30 11627 O 1697.31 -7.54673 -6.86199 0
M  V30 11628 O 1696.74 -5.12391 -7.179 0
M  V30 11629 O 1697.28 -5.99158 -4.88404 0
M  V30 11630 C 1698.22 -6.60234 -3.96415 0
M  V30 11631 C 1697.49 -7.08259 -2.72856 0
M  V30 11632 O 1697.28 -5.9427 -1.83651 0
M  V30 11633 C 1696.09 -7.64886 -2.9555 0
M  V30 11634 O 1695.7 -8.53963 -1.90717 0
M  V30 11635 C 1695.21 -6.4116 -2.90739 0
M  V30 11636 C 1695.92 -5.55375 -1.86963 0
M  V30 11637 N 1695.87 -4.09664 -2.15742 0
M  V30 11638 H 1698.71 -7.45574 -4.45629 0
M  V30 11639 H 1698.98 -5.86232 -3.67314 0
M  V30 11640 H 1698.11 -7.84412 -2.24479 0
M  V30 11641 P 1694.15 -8.7635 -1.60911 0
M  V30 11642 O 1693.93 -10.1388 -1.11561 0
M  V30 11643 O 1693.36 -8.36503 -2.79617 0
M  V30 11644 O 1693.9 -7.71806 -0.42951 0
M  V30 11645 C 1694.84 -7.67148 0.673689 0
M  V30 11646 C 1694.11 -7.33374 1.95559 0
M  V30 11647 O 1693.9 -5.88721 2.00726 0
M  V30 11648 C 1692.71 -7.92526 2.10483 0
M  V30 11649 O 1692.32 -8.02971 3.47653 0
M  V30 11650 C 1691.83 -6.89602 1.41652 0
M  V30 11651 C 1692.54 -5.59201 1.75185 0
M  V30 11652 N 1692.49 -4.58235 0.662552 0
M  V30 11653 C 1692.57 -4.7683 -0.704049 0
M  V30 11654 N 1692.49 -3.66233 -1.39775 0
M  V30 11655 C 1692.35 -2.66526 -0.431739 0
M  V30 11656 C 1692.22 -1.26394 -0.575992 0
M  V30 11657 O 1692.2 -0.589894 -1.60503 0
M  V30 11658 N 1692.1 -0.62859 0.67177 0
M  V30 11659 C 1692.1 -1.27134 1.89385 0
M  V30 11660 N 1691.97 -0.492035 2.96951 0
M  V30 11661 N 1692.23 -2.58978 2.02907 0
M  V30 11662 C 1692.35 -3.22433 0.832218 0
M  V30 11663 H 1695.33 -8.65116 0.777161 0
M  V30 11664 H 1695.6 -6.90173 0.474152 0
M  V30 11665 H 1694.73 -7.66548 2.79458 0
M  V30 11666 H 1692.08 -5.16254 2.65229 0
M  V30 11667 H 1691.8 -7.06532 0.329431 0
M  V30 11668 H 1690.81 -6.91023 1.82047 0
M  V30 11669 H 1692.64 -8.90971 1.62675 0
M  V30 11670 H 1692.69 -5.74954 -1.16305 0
M  V30 11671 H 1692.01 0.366713 0.674793 0
M  V30 11672 H 1691.97 -0.908532 3.91188 0
M  V30 11673 H 1691.87 0.528253 2.85758 0
M  V30 11674 P 1690.77 -8.03563 3.84925 0
M  V30 11675 O 1690.55 -8.85821 5.0569 0
M  V30 11676 O 1689.98 -8.41101 2.65469 0
M  V30 11677 O 1690.52 -6.4965 4.18908 0
M  V30 11678 C 1691.46 -5.81037 5.05421 0
M  V30 11679 C 1690.73 -4.78366 5.89277 0
M  V30 11680 O 1690.52 -3.58302 5.08433 0
M  V30 11681 C 1689.33 -5.17448 6.36119 0
M  V30 11682 O 1688.94 -4.45271 7.53232 0
M  V30 11683 C 1688.45 -4.74639 5.19936 0
M  V30 11684 C 1689.16 -3.49432 4.70418 0
M  V30 11685 N 1689.11 -3.31776 3.22945 0
M  V30 11686 H 1691.95 -6.54213 5.71376 0
M  V30 11687 H 1692.22 -5.30492 4.44033 0
M  V30 11688 H 1691.35 -4.55889 6.76652 0
M  V30 11689 P 1687.39 -4.23843 7.83734 0
M  V30 11690 O 1687.17 -4.19407 9.29784 0
M  V30 11691 O 1686.6 -5.24426 7.09156 0
M  V30 11692 O 1687.14 -2.7935 7.20758 0
M  V30 11693 C 1688.08 -1.7299 7.50419 0
M  V30 11694 C 1687.35 -0.406376 7.57911 0
M  V30 11695 O 1687.14 0.0897726 6.21935 0
M  V30 11696 C 1685.95 -0.447224 8.1878 0
M  V30 11697 O 1685.56 0.825065 8.71101 0
M  V30 11698 C 1685.07 -0.783801 6.99623 0
M  V30 11699 C 1685.78 -0.0619192 5.85967 0
M  V30 11700 N 1685.73 -0.7859 4.56281 0
M  V30 11701 C 1685.81 -2.14308 4.31736 0
M  V30 11702 N 1685.73 -2.46106 3.05116 0
M  V30 11703 C 1685.59 -1.23422 2.4014 0
M  V30 11704 C 1685.46 -0.938381 1.02409 0
M  V30 11705 O 1685.44 -1.70876 0.0650402 0
M  V30 11706 N 1685.34 0.444647 0.805413 0
M  V30 11707 C 1685.34 1.40829 1.79435 0
M  V30 11708 N 1685.21 2.67213 1.38558 0
M  V30 11709 N 1685.47 1.12947 3.09005 0
M  V30 11710 C 1685.59 -0.204887 3.32369 0
M  V30 11711 H 1688.57 -1.93423 8.4679 0
M  V30 11712 H 1688.84 -1.68181 6.71046 0
M  V30 11713 H 1687.97 0.289041 8.15388 0
M  V30 11714 H 1685.32 0.927166 5.72947 0
M  V30 11715 H 1685.04 -1.87 6.82132 0
M  V30 11716 H 1684.05 -0.404009 7.13457 0
M  V30 11717 H 1685.88 -1.20612 8.97633 0
M  V30 11718 H 1685.93 -2.88284 5.10874 0
M  V30 11719 H 1685.25 0.755087 -0.140242 0
M  V30 11720 H 1685.21 3.43967 2.0729 0
M  V30 11721 H 1685.11 2.88096 0.380644 0
M  V30 11722 P 1684.01 1.17771 8.83182 0
M  V30 11723 O 1683.79 2.07206 9.98732 0
M  V30 11724 O 1683.22 -0.0743816 8.81969 0
M  V30 11725 O 1683.76 1.97652 7.47304 0
M  V30 11726 C 1684.7 3.01133 7.08783 0
M  V30 11727 C 1683.97 4.12613 6.37049 0
M  V30 11728 O 1683.76 3.72827 4.97879 0
M  V30 11729 C 1682.57 4.45085 6.88694 0
M  V30 11730 O 1682.18 5.7877 6.5624 0
M  V30 11731 C 1681.69 3.47817 6.12078 0
M  V30 11732 C 1682.4 3.39414 4.77697 0
M  V30 11733 N 1682.35 2.04615 4.15333 0
M  V30 11734 H 1685.19 3.41248 7.98759 0
M  V30 11735 H 1685.46 2.5837 6.41742 0
M  V30 11736 H 1684.59 5.02657 6.42673 0
M  V30 11737 P 1680.63 6.144 6.45285 0
M  V30 11738 O 1680.41 7.54673 6.86199 0
M  V30 11739 O 1679.84 5.12391 7.179 0
M  V30 11740 O 1680.38 5.99158 4.88404 0
M  V30 11741 C 1681.32 6.60234 3.96415 0
M  V30 11742 C 1680.59 7.08259 2.72856 0
M  V30 11743 O 1680.38 5.9427 1.83651 0
M  V30 11744 C 1679.19 7.64886 2.9555 0
M  V30 11745 O 1678.8 8.53963 1.90717 0
M  V30 11746 C 1678.31 6.4116 2.90739 0
M  V30 11747 C 1679.02 5.55375 1.86963 0
M  V30 11748 N 1678.97 4.09664 2.15742 0
M  V30 11749 H 1681.81 7.45574 4.45629 0
M  V30 11750 H 1682.08 5.86232 3.67314 0
M  V30 11751 H 1681.21 7.84412 2.24479 0
M  V30 11752 P 1677.25 8.7635 1.60911 0
M  V30 11753 O 1677.03 10.1388 1.11561 0
M  V30 11754 O 1676.46 8.36503 2.79617 0
M  V30 11755 O 1677 7.71806 0.42951 0
M  V30 11756 C 1677.94 7.67148 -0.673689 0
M  V30 11757 C 1677.21 7.33374 -1.95559 0
M  V30 11758 O 1677 5.88721 -2.00726 0
M  V30 11759 C 1675.81 7.92526 -2.10483 0
M  V30 11760 O 1675.42 8.02971 -3.47653 0
M  V30 11761 C 1674.93 6.89602 -1.41652 0
M  V30 11762 C 1675.64 5.59201 -1.75185 0
M  V30 11763 N 1675.59 4.58301 -0.657969 0
M  V30 11764 H 1678.43 8.65116 -0.777161 0
M  V30 11765 H 1678.7 6.9022 -0.46725 0
M  V30 11766 H 1677.83 7.66548 -2.79458 0
M  V30 11767 H 1675.18 5.16165 -2.65183 0
M  V30 11768 H 1674.9 7.06433 -0.329384 0
M  V30 11769 H 1673.91 6.90926 -1.82021 0
M  V30 11770 H 1675.74 8.90873 -1.62657 0
M  V30 11771 P 1673.87 8.03563 -3.84925 0
M  V30 11772 O 1673.65 8.85821 -5.0569 0
M  V30 11773 O 1673.08 8.41101 -2.65469 0
M  V30 11774 O 1673.62 6.4965 -4.18908 0
M  V30 11775 C 1674.56 5.81037 -5.05421 0
M  V30 11776 C 1673.83 4.78366 -5.89277 0
M  V30 11777 O 1673.62 3.58302 -5.08433 0
M  V30 11778 C 1672.43 5.17448 -6.36119 0
M  V30 11779 O 1672.04 4.45271 -7.53232 0
M  V30 11780 C 1671.55 4.74639 -5.19936 0
M  V30 11781 C 1672.26 3.49432 -4.70418 0
M  V30 11782 N 1672.21 3.31776 -3.22945 0
M  V30 11783 H 1675.05 6.54213 -5.71376 0
M  V30 11784 H 1675.32 5.30492 -4.44033 0
M  V30 11785 H 1674.45 4.55889 -6.76652 0
M  V30 11786 P 1670.49 4.23843 -7.83734 0
M  V30 11787 O 1670.27 4.19407 -9.29784 0
M  V30 11788 O 1669.7 5.24426 -7.09156 0
M  V30 11789 O 1670.24 2.7935 -7.20758 0
M  V30 11790 C 1671.18 1.7299 -7.50419 0
M  V30 11791 C 1670.45 0.406376 -7.57911 0
M  V30 11792 O 1670.24 -0.0897726 -6.21935 0
M  V30 11793 C 1669.05 0.447224 -8.1878 0
M  V30 11794 O 1668.66 -0.825065 -8.71101 0
M  V30 11795 C 1668.17 0.783801 -6.99623 0
M  V30 11796 C 1668.88 0.0619192 -5.85967 0
M  V30 11797 N 1668.83 0.7859 -4.56281 0
M  V30 11798 H 1671.67 1.93423 -8.4679 0
M  V30 11799 H 1671.94 1.68181 -6.71046 0
M  V30 11800 H 1671.07 -0.289041 -8.15388 0
M  V30 11801 P 1667.11 -1.17771 -8.83182 0
M  V30 11802 O 1666.89 -2.07206 -9.98732 0
M  V30 11803 O 1666.32 0.0743816 -8.81969 0
M  V30 11804 O 1666.86 -1.97652 -7.47304 0
M  V30 11805 C 1667.8 -3.01133 -7.08783 0
M  V30 11806 C 1667.07 -4.12613 -6.37049 0
M  V30 11807 O 1666.86 -3.72827 -4.97879 0
M  V30 11808 C 1665.67 -4.45085 -6.88694 0
M  V30 11809 O 1665.28 -5.7877 -6.5624 0
M  V30 11810 C 1664.79 -3.47817 -6.12078 0
M  V30 11811 C 1665.5 -3.39414 -4.77697 0
M  V30 11812 N 1665.45 -2.04199 -4.15538 0
M  V30 11813 H 1668.29 -3.41248 -7.98759 0
M  V30 11814 H 1668.56 -2.57728 -6.42 0
M  V30 11815 H 1667.69 -5.02657 -6.42673 0
M  V30 11816 H 1665.04 -4.11708 -4.08956 0
M  V30 11817 H 1664.76 -2.49626 -6.61679 0
M  V30 11818 H 1663.77 -3.8662 -6.00862 0
M  V30 11819 H 1665.6 -4.29991 -7.97006 0
M  V30 11820 P 1663.73 -6.144 -6.45285 0
M  V30 11821 O 1663.51 -7.54673 -6.86199 0
M  V30 11822 O 1662.94 -5.12391 -7.179 0
M  V30 11823 O 1663.48 -5.99158 -4.88404 0
M  V30 11824 C 1664.42 -6.60234 -3.96415 0
M  V30 11825 C 1663.69 -7.08259 -2.72856 0
M  V30 11826 O 1663.48 -5.9427 -1.83651 0
M  V30 11827 C 1662.29 -7.64886 -2.9555 0
M  V30 11828 O 1661.9 -8.53963 -1.90717 0
M  V30 11829 C 1661.41 -6.4116 -2.90739 0
M  V30 11830 C 1662.12 -5.55375 -1.86963 0
M  V30 11831 N 1662.07 -4.09664 -2.15742 0
M  V30 11832 H 1664.91 -7.45574 -4.45629 0
M  V30 11833 H 1665.18 -5.86232 -3.67314 0
M  V30 11834 H 1664.31 -7.84412 -2.24479 0
M  V30 11835 P 1660.35 -8.7635 -1.60911 0
M  V30 11836 O 1660.13 -10.1388 -1.11561 0
M  V30 11837 O 1659.56 -8.36503 -2.79617 0
M  V30 11838 O 1660.1 -7.71806 -0.42951 0
M  V30 11839 C 1661.04 -7.67148 0.673689 0
M  V30 11840 C 1660.31 -7.33374 1.95559 0
M  V30 11841 O 1660.1 -5.88721 2.00726 0
M  V30 11842 C 1658.91 -7.92526 2.10483 0
M  V30 11843 O 1658.52 -8.02971 3.47653 0
M  V30 11844 C 1658.03 -6.89602 1.41652 0
M  V30 11845 C 1658.74 -5.59201 1.75185 0
M  V30 11846 N 1658.69 -4.58235 0.662552 0
M  V30 11847 H 1661.53 -8.65116 0.777161 0
M  V30 11848 H 1661.8 -6.90173 0.474152 0
M  V30 11849 H 1660.93 -7.66548 2.79458 0
M  V30 11850 P 1656.97 -8.03563 3.84925 0
M  V30 11851 O 1656.75 -8.85821 5.0569 0
M  V30 11852 O 1656.18 -8.41101 2.65469 0
M  V30 11853 O 1656.72 -6.4965 4.18908 0
M  V30 11854 C 1657.66 -5.81037 5.05421 0
M  V30 11855 C 1656.93 -4.78366 5.89277 0
M  V30 11856 O 1656.72 -3.58302 5.08433 0
M  V30 11857 C 1655.53 -5.17448 6.36119 0
M  V30 11858 O 1655.14 -4.45271 7.53232 0
M  V30 11859 C 1654.65 -4.74639 5.19936 0
M  V30 11860 C 1655.36 -3.49432 4.70418 0
M  V30 11861 N 1655.31 -3.31776 3.22945 0
M  V30 11862 C 1655.39 -4.27147 2.23315 0
M  V30 11863 N 1655.31 -3.78447 1.02186 0
M  V30 11864 C 1655.17 -2.41001 1.21732 0
M  V30 11865 C 1655.04 -1.36111 0.27694 0
M  V30 11866 O 1655.02 -1.42065 -0.951767 0
M  V30 11867 N 1654.92 -0.113683 0.912949 0
M  V30 11868 C 1654.92 0.0846396 2.27943 0
M  V30 11869 N 1654.79 1.34737 2.6916 0
M  V30 11870 N 1655.05 -0.902521 3.16379 0
M  V30 11871 C 1655.17 -2.11937 2.56849 0
M  V30 11872 H 1658.15 -6.54213 5.71376 0
M  V30 11873 H 1658.42 -5.30492 4.44033 0
M  V30 11874 H 1657.55 -4.55889 6.76652 0
M  V30 11875 H 1654.9 -2.6176 5.18021 0
M  V30 11876 H 1654.62 -5.52233 4.41941 0
M  V30 11877 H 1653.63 -4.52045 5.53452 0
M  V30 11878 H 1655.46 -6.25193 6.55307 0
M  V30 11879 H 1655.51 -5.3351 2.43857 0
M  V30 11880 H 1654.83 0.69331 0.330371 0
M  V30 11881 H 1654.79 1.56433 3.6988 0
M  V30 11882 H 1654.69 2.10701 2.00133 0
M  V30 11883 P 1653.59 -4.23843 7.83734 0
M  V30 11884 O 1653.37 -4.19407 9.29784 0
M  V30 11885 O 1652.8 -5.24426 7.09156 0
M  V30 11886 O 1653.34 -2.7935 7.20758 0
M  V30 11887 C 1654.28 -1.7299 7.50419 0
M  V30 11888 C 1653.55 -0.406376 7.57911 0
M  V30 11889 O 1653.34 0.0897726 6.21935 0
M  V30 11890 C 1652.15 -0.447224 8.1878 0
M  V30 11891 O 1651.76 0.825065 8.71101 0
M  V30 11892 C 1651.27 -0.783801 6.99623 0
M  V30 11893 C 1651.98 -0.0619192 5.85967 0
M  V30 11894 N 1651.93 -0.7859 4.56281 0
M  V30 11895 H 1654.77 -1.93423 8.4679 0
M  V30 11896 H 1655.04 -1.68181 6.71046 0
M  V30 11897 H 1654.17 0.289041 8.15388 0
M  V30 11898 P 1650.21 1.17771 8.83182 0
M  V30 11899 O 1649.99 2.07206 9.98732 0
M  V30 11900 O 1649.42 -0.0743816 8.81969 0
M  V30 11901 O 1649.96 1.97652 7.47304 0
M  V30 11902 C 1650.9 3.01133 7.08783 0
M  V30 11903 C 1650.17 4.12613 6.37049 0
M  V30 11904 O 1649.96 3.72827 4.97879 0
M  V30 11905 C 1648.77 4.45085 6.88694 0
M  V30 11906 O 1648.38 5.7877 6.5624 0
M  V30 11907 C 1647.89 3.47817 6.12078 0
M  V30 11908 C 1648.6 3.39414 4.77697 0
M  V30 11909 N 1648.55 2.04615 4.15333 0
M  V30 11910 H 1651.39 3.41248 7.98759 0
M  V30 11911 H 1651.66 2.5837 6.41742 0
M  V30 11912 H 1650.79 5.02657 6.42673 0
M  V30 11913 P 1646.83 6.144 6.45285 0
M  V30 11914 O 1646.61 7.54673 6.86199 0
M  V30 11915 O 1646.04 5.12391 7.179 0
M  V30 11916 O 1646.58 5.99158 4.88404 0
M  V30 11917 C 1647.52 6.60234 3.96415 0
M  V30 11918 C 1646.79 7.08259 2.72856 0
M  V30 11919 O 1646.58 5.9427 1.83651 0
M  V30 11920 C 1645.39 7.64886 2.9555 0
M  V30 11921 O 1645 8.53963 1.90717 0
M  V30 11922 C 1644.51 6.4116 2.90739 0
M  V30 11923 C 1645.22 5.55375 1.86963 0
M  V30 11924 N 1645.17 4.09664 2.15742 0
M  V30 11925 H 1648.01 7.45574 4.45629 0
M  V30 11926 H 1648.28 5.86232 3.67314 0
M  V30 11927 H 1647.41 7.84412 2.24479 0
M  V30 11928 P 1643.45 8.7635 1.60911 0
M  V30 11929 O 1643.23 10.1388 1.11561 0
M  V30 11930 O 1642.66 8.36503 2.79617 0
M  V30 11931 O 1643.2 7.71806 0.42951 0
M  V30 11932 C 1644.14 7.67148 -0.673689 0
M  V30 11933 C 1643.41 7.33374 -1.95559 0
M  V30 11934 O 1643.2 5.88721 -2.00726 0
M  V30 11935 C 1642.01 7.92526 -2.10483 0
M  V30 11936 O 1641.62 8.02971 -3.47653 0
M  V30 11937 C 1641.13 6.89602 -1.41652 0
M  V30 11938 C 1641.84 5.59201 -1.75185 0
M  V30 11939 N 1641.79 4.58235 -0.662552 0
M  V30 11940 C 1641.87 4.7683 0.704049 0
M  V30 11941 N 1641.79 3.66233 1.39775 0
M  V30 11942 C 1641.65 2.66526 0.431739 0
M  V30 11943 C 1641.52 1.26394 0.575992 0
M  V30 11944 O 1641.5 0.589894 1.60503 0
M  V30 11945 N 1641.4 0.62859 -0.67177 0
M  V30 11946 C 1641.4 1.27134 -1.89385 0
M  V30 11947 N 1641.27 0.492035 -2.96951 0
M  V30 11948 N 1641.53 2.58978 -2.02907 0
M  V30 11949 C 1641.65 3.22433 -0.832218 0
M  V30 11950 H 1644.63 8.65116 -0.777161 0
M  V30 11951 H 1644.9 6.90173 -0.474152 0
M  V30 11952 H 1644.03 7.66548 -2.79458 0
M  V30 11953 H 1641.38 5.16254 -2.65229 0
M  V30 11954 H 1641.1 7.06532 -0.329431 0
M  V30 11955 H 1640.11 6.91023 -1.82047 0
M  V30 11956 H 1641.94 8.90971 -1.62675 0
M  V30 11957 H 1641.99 5.74954 1.16305 0
M  V30 11958 H 1641.31 -0.366713 -0.674793 0
M  V30 11959 H 1641.27 0.908532 -3.91188 0
M  V30 11960 H 1641.17 -0.528253 -2.85758 0
M  V30 11961 P 1640.07 8.03563 -3.84925 0
M  V30 11962 O 1639.85 8.85821 -5.0569 0
M  V30 11963 O 1639.28 8.41101 -2.65469 0
M  V30 11964 O 1639.82 6.4965 -4.18908 0
M  V30 11965 C 1640.76 5.81037 -5.05421 0
M  V30 11966 C 1640.03 4.78366 -5.89277 0
M  V30 11967 O 1639.82 3.58302 -5.08433 0
M  V30 11968 C 1638.63 5.17448 -6.36119 0
M  V30 11969 O 1638.24 4.45271 -7.53232 0
M  V30 11970 C 1637.75 4.74639 -5.19936 0
M  V30 11971 C 1638.46 3.49432 -4.70418 0
M  V30 11972 N 1638.41 3.31776 -3.22945 0
M  V30 11973 H 1641.25 6.54213 -5.71376 0
M  V30 11974 H 1641.52 5.30492 -4.44033 0
M  V30 11975 H 1640.65 4.55889 -6.76652 0
M  V30 11976 P 1636.69 4.23843 -7.83734 0
M  V30 11977 O 1636.47 4.19407 -9.29784 0
M  V30 11978 O 1635.9 5.24426 -7.09156 0
M  V30 11979 O 1636.44 2.7935 -7.20758 0
M  V30 11980 C 1637.38 1.7299 -7.50419 0
M  V30 11981 C 1636.65 0.406376 -7.57911 0
M  V30 11982 O 1636.44 -0.0897726 -6.21935 0
M  V30 11983 C 1635.25 0.447224 -8.1878 0
M  V30 11984 O 1634.86 -0.825065 -8.71101 0
M  V30 11985 C 1634.37 0.783801 -6.99623 0
M  V30 11986 C 1635.08 0.0619192 -5.85967 0
M  V30 11987 N 1635.03 0.7859 -4.56281 0
M  V30 11988 H 1637.87 1.93423 -8.4679 0
M  V30 11989 H 1638.14 1.68181 -6.71046 0
M  V30 11990 H 1637.27 -0.289041 -8.15388 0
M  V30 11991 P 1633.31 -1.17771 -8.83182 0
M  V30 11992 O 1633.09 -2.07206 -9.98732 0
M  V30 11993 O 1632.52 0.0743816 -8.81969 0
M  V30 11994 O 1633.06 -1.97652 -7.47304 0
M  V30 11995 C 1634 -3.01055 -7.08599 0
M  V30 11996 C 1633.27 -4.12613 -6.37049 0
M  V30 11997 O 1633.06 -3.72827 -4.97879 0
M  V30 11998 C 1631.87 -4.45719 -6.88164 0
M  V30 11999 O 1631.48 -5.7877 -6.5624 0
M  V30 12000 C 1630.99 -3.47768 -6.11991 0
M  V30 12001 C 1631.7 -3.39356 -4.77615 0
M  V30 12002 N 1631.65 -2.04571 -4.15244 0
M  V30 12003 C 1631.5 -1.98587 -2.78314 0
M  V30 12004 O 1631.41 -2.98134 -2.08835 0
M  V30 12005 N 1631.46 -0.714467 -2.24925 0
M  V30 12006 C 1631.55 0.470001 -2.94169 0
M  V30 12007 C 1631.7 0.312541 -4.36783 0
M  V30 12008 C 1631.75 -0.914512 -4.92583 0
M  V30 12009 H 1634.49 -3.41169 -7.98575 0
M  V30 12010 H 1634.76 -2.58295 -6.41556 0
M  V30 12011 H 1633.89 -5.02657 -6.42673 0
M  V30 12012 H 1631.24 -4.11637 -4.08885 0
M  V30 12013 H 1630.96 -2.49626 -6.61679 0
M  V30 12014 H 1629.97 -3.86566 -6.00778 0
M  V30 12015 H 1631.8 -4.29943 -7.96918 0
M  V30 12016 H 1631.87 -1.00937 -6.00374 0
M  V30 12017 P 1629.93 -6.144 -6.45285 0
M  V30 12018 O 1629.71 -7.54673 -6.86199 0
M  V30 12019 O 1629.14 -5.12391 -7.179 0
M  V30 12020 O 1629.68 -5.99158 -4.88404 0
M  V30 12021 C 1630.62 -6.60234 -3.96415 0
M  V30 12022 C 1629.89 -7.08259 -2.72856 0
M  V30 12023 O 1629.68 -5.9427 -1.83651 0
M  V30 12024 C 1628.49 -7.64886 -2.9555 0
M  V30 12025 O 1628.1 -8.53963 -1.90717 0
M  V30 12026 C 1627.61 -6.4116 -2.90739 0
M  V30 12027 C 1628.32 -5.55375 -1.86963 0
M  V30 12028 N 1628.27 -4.09664 -2.15742 0
M  V30 12029 C 1628.35 -3.44381 -3.37233 0
M  V30 12030 N 1628.27 -2.14131 -3.28347 0
M  V30 12031 C 1628.13 -1.90247 -1.91588 0
M  V30 12032 C 1628 -0.683992 -1.20892 0
M  V30 12033 N 1627.88 -0.903396 0.173998 0
M  V30 12034 C 1627.88 -2.14171 0.784879 0
M  V30 12035 N 1627.75 -2.1435 2.11317 0
M  V30 12036 N 1628.01 -3.28784 0.119316 0
M  V30 12037 C 1628.13 -3.0977 -1.22194 0
M  V30 12038 H 1631.11 -7.45574 -4.45629 0
M  V30 12039 H 1631.38 -5.86232 -3.67314 0
M  V30 12040 H 1630.51 -7.84412 -2.24479 0
M  V30 12041 P 1626.55 -8.7635 -1.60911 0
M  V30 12042 O 1626.33 -10.1388 -1.11561 0
M  V30 12043 O 1625.76 -8.36503 -2.79617 0
M  V30 12044 O 1626.3 -7.71906 -0.429565 0
M  V30 12045 C 1627.24 -7.67148 0.673689 0
M  V30 12046 C 1626.51 -7.33666 1.94851 0
M  V30 12047 O 1626.3 -5.88816 2.00759 0
M  V30 12048 C 1625.11 -7.92526 2.10483 0
M  V30 12049 O 1624.72 -8.03063 3.47693 0
M  V30 12050 C 1624.23 -6.89602 1.41652 0
M  V30 12051 C 1624.94 -5.59201 1.75185 0
M  V30 12052 N 1624.89 -4.58235 0.662552 0
M  V30 12053 C 1624.74 -3.24451 1.01643 0
M  V30 12054 O 1624.65 -2.94958 2.21722 0
M  V30 12055 N 1624.69 -2.30408 -0.165238 0
M  V30 12056 C 1624.79 -2.66048 -1.25118 0
M  V30 12057 N 1624.74 -1.70787 -2.16813 0
M  V30 12058 C 1624.94 -4.02732 -1.64413 0
M  V30 12059 C 1624.99 -4.9488 -0.63991 0
M  V30 12060 H 1627.73 -8.65017 0.777072 0
M  V30 12061 H 1628 -6.90173 0.474152 0
M  V30 12062 H 1627.13 -7.66642 2.79492 0
M  V30 12063 H 1624.48 -5.16254 2.65229 0
M  V30 12064 H 1624.2 -7.06532 0.329431 0
M  V30 12065 H 1623.21 -6.91023 1.82047 0
M  V30 12066 H 1625.04 -8.90873 1.62657 0
M  V30 12067 H 1625.11 -6.00104 -0.892197 0
M  V30 12068 H 1625.01 -4.31733 -2.69229 0
M  V30 12069 H 1624.62 -0.724835 -1.8844 0
M  V30 12070 H 1624.82 -1.94716 -3.16734 0
M  V30 12071 P 1623.17 -8.03563 3.84925 0
M  V30 12072 O 1622.95 -8.85821 5.0569 0
M  V30 12073 O 1622.38 -8.41101 2.65469 0
M  V30 12074 O 1622.92 -6.4965 4.18908 0
M  V30 12075 C 1623.86 -5.80886 5.05289 0
M  V30 12076 C 1623.13 -4.78366 5.89277 0
M  V30 12077 O 1622.92 -3.58302 5.08433 0
M  V30 12078 C 1621.73 -5.16748 6.36559 0
M  V30 12079 O 1621.34 -4.45271 7.53232 0
M  V30 12080 C 1620.85 -4.74572 5.19863 0
M  V30 12081 C 1621.56 -3.49373 4.70338 0
M  V30 12082 N 1621.51 -3.31704 3.22876 0
M  V30 12083 C 1621.36 -2.03326 2.74871 0
M  V30 12084 O 1621.27 -1.06486 3.48076 0
M  V30 12085 N 1621.32 -1.91838 1.37456 0
M  V30 12086 C 1621.41 -2.94295 0.462035 0
M  V30 12087 C 1621.56 -4.25064 1.05249 0
M  V30 12088 C 1621.61 -4.40214 2.39192 0
M  V30 12089 H 1624.35 -6.54063 5.71245 0
M  V30 12090 H 1624.62 -5.30339 4.43905 0
M  V30 12091 H 1623.75 -4.55889 6.76652 0
M  V30 12092 H 1621.1 -2.6167 5.17842 0
M  V30 12093 H 1620.82 -5.52155 4.41878 0
M  V30 12094 H 1619.83 -4.51918 5.53297 0
M  V30 12095 H 1621.66 -6.25055 6.55162 0
M  V30 12096 H 1621.73 -5.39798 2.81523 0
M  V30 12097 P 1619.79 -4.23843 7.83734 0
M  V30 12098 O 1619.57 -4.19407 9.29784 0
M  V30 12099 O 1619 -5.24426 7.09156 0
M  V30 12100 O 1619.54 -2.7935 7.20758 0
M  V30 12101 C 1620.48 -1.7299 7.50419 0
M  V30 12102 C 1619.75 -0.406376 7.57911 0
M  V30 12103 O 1619.54 0.0897726 6.21935 0
M  V30 12104 C 1618.35 -0.447224 8.1878 0
M  V30 12105 O 1617.96 0.825065 8.71101 0
M  V30 12106 C 1617.47 -0.783801 6.99623 0
M  V30 12107 C 1618.18 -0.0619192 5.85967 0
M  V30 12108 N 1618.13 -0.7859 4.56281 0
M  V30 12109 H 1620.97 -1.93423 8.4679 0
M  V30 12110 H 1621.24 -1.68181 6.71046 0
M  V30 12111 H 1620.37 0.289041 8.15388 0
M  V30 12112 P 1616.41 1.17771 8.83182 0
M  V30 12113 O 1616.19 2.07206 9.98732 0
M  V30 12114 O 1615.62 -0.0743816 8.81969 0
M  V30 12115 O 1616.16 1.97652 7.47304 0
M  V30 12116 C 1617.1 3.01133 7.08783 0
M  V30 12117 C 1616.37 4.12613 6.37049 0
M  V30 12118 O 1616.16 3.72827 4.97879 0
M  V30 12119 C 1614.97 4.45085 6.88694 0
M  V30 12120 O 1614.58 5.7877 6.5624 0
M  V30 12121 C 1614.09 3.47817 6.12078 0
M  V30 12122 C 1614.8 3.39414 4.77697 0
M  V30 12123 N 1614.75 2.04615 4.15333 0
M  V30 12124 H 1617.59 3.41248 7.98759 0
M  V30 12125 H 1617.86 2.5837 6.41742 0
M  V30 12126 H 1616.99 5.02657 6.42673 0
M  V30 12127 P 1613.03 6.144 6.45285 0
M  V30 12128 O 1612.81 7.54673 6.86199 0
M  V30 12129 O 1612.24 5.12391 7.179 0
M  V30 12130 O 1612.78 5.99158 4.88404 0
M  V30 12131 C 1613.72 6.60234 3.96415 0
M  V30 12132 C 1612.99 7.08259 2.72856 0
M  V30 12133 O 1612.78 5.9427 1.83651 0
M  V30 12134 C 1611.59 7.64886 2.9555 0
M  V30 12135 O 1611.2 8.53963 1.90717 0
M  V30 12136 C 1610.71 6.4116 2.90739 0
M  V30 12137 C 1611.42 5.55375 1.86963 0
M  V30 12138 N 1611.37 4.09664 2.15742 0
M  V30 12139 H 1614.21 7.45574 4.45629 0
M  V30 12140 H 1614.48 5.86232 3.67314 0
M  V30 12141 H 1613.61 7.84412 2.24479 0
M  V30 12142 P 1609.65 8.7635 1.60911 0
M  V30 12143 O 1609.43 10.1388 1.11561 0
M  V30 12144 O 1608.86 8.36503 2.79617 0
M  V30 12145 O 1609.4 7.71806 0.42951 0
M  V30 12146 C 1610.34 7.67148 -0.673689 0
M  V30 12147 C 1609.61 7.33374 -1.95559 0
M  V30 12148 O 1609.4 5.88721 -2.00726 0
M  V30 12149 C 1608.21 7.92526 -2.10483 0
M  V30 12150 O 1607.82 8.02971 -3.47653 0
M  V30 12151 C 1607.33 6.89602 -1.41652 0
M  V30 12152 C 1608.04 5.59201 -1.75185 0
M  V30 12153 N 1607.99 4.58301 -0.657969 0
M  V30 12154 H 1610.83 8.65116 -0.777161 0
M  V30 12155 H 1611.1 6.9022 -0.46725 0
M  V30 12156 H 1610.23 7.66548 -2.79458 0
M  V30 12157 H 1607.58 5.16165 -2.65183 0
M  V30 12158 H 1607.3 7.06433 -0.329384 0
M  V30 12159 H 1606.31 6.90926 -1.82021 0
M  V30 12160 H 1608.14 8.90873 -1.62657 0
M  V30 12161 P 1606.27 8.03563 -3.84925 0
M  V30 12162 O 1606.05 8.85821 -5.0569 0
M  V30 12163 O 1605.48 8.41101 -2.65469 0
M  V30 12164 O 1606.02 6.4965 -4.18908 0
M  V30 12165 C 1606.96 5.81037 -5.05421 0
M  V30 12166 C 1606.23 4.78366 -5.89277 0
M  V30 12167 O 1606.02 3.58302 -5.08433 0
M  V30 12168 C 1604.83 5.17448 -6.36119 0
M  V30 12169 O 1604.44 4.45271 -7.53232 0
M  V30 12170 C 1603.95 4.74639 -5.19936 0
M  V30 12171 C 1604.66 3.49432 -4.70418 0
M  V30 12172 N 1604.61 3.31776 -3.22945 0
M  V30 12173 H 1607.45 6.54213 -5.71376 0
M  V30 12174 H 1607.72 5.30492 -4.44033 0
M  V30 12175 H 1606.85 4.55889 -6.76652 0
M  V30 12176 P 1602.89 4.23843 -7.83734 0
M  V30 12177 O 1602.67 4.19407 -9.29784 0
M  V30 12178 O 1602.1 5.24426 -7.09156 0
M  V30 12179 O 1602.64 2.7935 -7.20758 0
M  V30 12180 C 1603.58 1.7299 -7.50419 0
M  V30 12181 C 1602.85 0.406376 -7.57911 0
M  V30 12182 O 1602.64 -0.0897726 -6.21935 0
M  V30 12183 C 1601.45 0.447224 -8.1878 0
M  V30 12184 O 1601.06 -0.825065 -8.71101 0
M  V30 12185 C 1600.57 0.783801 -6.99623 0
M  V30 12186 C 1601.28 0.0619192 -5.85967 0
M  V30 12187 N 1601.23 0.7859 -4.56281 0
M  V30 12188 H 1604.07 1.93423 -8.4679 0
M  V30 12189 H 1604.34 1.68181 -6.71046 0
M  V30 12190 H 1603.47 -0.289041 -8.15388 0
M  V30 12191 P 1599.51 -1.17771 -8.83182 0
M  V30 12192 O 1599.29 -2.07206 -9.98732 0
M  V30 12193 O 1598.72 0.0743816 -8.81969 0
M  V30 12194 O 1599.26 -1.97652 -7.47304 0
M  V30 12195 C 1600.2 -3.01133 -7.08783 0
M  V30 12196 C 1599.47 -4.12613 -6.37049 0
M  V30 12197 O 1599.26 -3.72827 -4.97879 0
M  V30 12198 C 1598.07 -4.45085 -6.88694 0
M  V30 12199 O 1597.68 -5.7877 -6.5624 0
M  V30 12200 C 1597.19 -3.47817 -6.12078 0
M  V30 12201 C 1597.9 -3.39414 -4.77697 0
M  V30 12202 N 1597.85 -2.04615 -4.15333 0
M  V30 12203 H 1600.69 -3.41248 -7.98759 0
M  V30 12204 H 1600.96 -2.5837 -6.41742 0
M  V30 12205 H 1600.09 -5.02657 -6.42673 0
M  V30 12206 P 1596.13 -6.144 -6.45285 0
M  V30 12207 O 1595.91 -7.54673 -6.86199 0
M  V30 12208 O 1595.34 -5.12391 -7.179 0
M  V30 12209 O 1595.88 -5.99158 -4.88404 0
M  V30 12210 C 1596.82 -6.60062 -3.96313 0
M  V30 12211 C 1596.09 -7.08259 -2.72856 0
M  V30 12212 O 1595.88 -5.9427 -1.83651 0
M  V30 12213 C 1594.69 -7.65087 -2.94749 0
M  V30 12214 O 1594.3 -8.53963 -1.90717 0
M  V30 12215 C 1593.81 -6.41069 -2.90698 0
M  V30 12216 C 1594.52 -5.5528 -1.86931 0
M  V30 12217 N 1594.47 -4.09575 -2.15696 0
M  V30 12218 C 1594.32 -3.24249 -1.08435 0
M  V30 12219 O 1594.23 -3.63946 0.0628747 0
M  V30 12220 N 1594.28 -1.90009 -1.39973 0
M  V30 12221 C 1594.37 -1.34884 -2.65614 0
M  V30 12222 C 1594.52 -2.3145 -3.71736 0
M  V30 12223 C 1594.57 -3.63518 -3.44754 0
M  V30 12224 H 1597.31 -7.45402 -4.45526 0
M  V30 12225 H 1597.58 -5.86062 -3.67208 0
M  V30 12226 H 1596.71 -7.84412 -2.24479 0
M  V30 12227 H 1594.06 -5.73358 -0.888409 0
M  V30 12228 H 1593.78 -5.90877 -3.88583 0
M  V30 12229 H 1592.79 -6.65867 -2.58821 0
M  V30 12230 H 1594.62 -8.16248 -3.92006 0
M  V30 12231 H 1594.69 -4.34551 -4.26383 0
M  V30 12232 P 1592.75 -8.7635 -1.60911 0
M  V30 12233 O 1592.53 -10.1388 -1.11561 0
M  V30 12234 O 1591.96 -8.36503 -2.79617 0
M  V30 12235 O 1592.5 -7.71806 -0.42951 0
M  V30 12236 C 1593.44 -7.67148 0.673689 0
M  V30 12237 C 1592.71 -7.33374 1.95559 0
M  V30 12238 O 1592.5 -5.88721 2.00726 0
M  V30 12239 C 1591.31 -7.92526 2.10483 0
M  V30 12240 O 1590.92 -8.02971 3.47653 0
M  V30 12241 C 1590.43 -6.89602 1.41652 0
M  V30 12242 C 1591.14 -5.59201 1.75185 0
M  V30 12243 N 1591.09 -4.58235 0.662552 0
M  V30 12244 H 1593.93 -8.65116 0.777161 0
M  V30 12245 H 1594.2 -6.90173 0.474152 0
M  V30 12246 H 1593.33 -7.66548 2.79458 0
M  V30 12247 P 1589.37 -8.03563 3.84925 0
M  V30 12248 O 1589.15 -8.85821 5.0569 0
M  V30 12249 O 1588.58 -8.41101 2.65469 0
M  V30 12250 O 1589.12 -6.4965 4.18908 0
M  V30 12251 C 1590.06 -5.81037 5.05421 0
M  V30 12252 C 1589.33 -4.78366 5.89277 0
M  V30 12253 O 1589.12 -3.58302 5.08433 0
M  V30 12254 C 1587.93 -5.17448 6.36119 0
M  V30 12255 O 1587.54 -4.45271 7.53232 0
M  V30 12256 C 1587.05 -4.74639 5.19936 0
M  V30 12257 C 1587.76 -3.49432 4.70418 0
M  V30 12258 N 1587.71 -3.31776 3.22945 0
M  V30 12259 H 1590.55 -6.54213 5.71376 0
M  V30 12260 H 1590.82 -5.30492 4.44033 0
M  V30 12261 H 1589.95 -4.55889 6.76652 0
M  V30 12262 P 1585.99 -4.23843 7.83734 0
M  V30 12263 O 1585.77 -4.19407 9.29784 0
M  V30 12264 O 1585.2 -5.24426 7.09156 0
M  V30 12265 O 1585.74 -2.7935 7.20758 0
M  V30 12266 C 1586.68 -1.7299 7.50419 0
M  V30 12267 C 1585.95 -0.406376 7.57911 0
M  V30 12268 O 1585.74 0.0897726 6.21935 0
M  V30 12269 C 1584.55 -0.447224 8.1878 0
M  V30 12270 O 1584.16 0.825065 8.71101 0
M  V30 12271 C 1583.67 -0.783801 6.99623 0
M  V30 12272 C 1584.38 -0.0619192 5.85967 0
M  V30 12273 N 1584.33 -0.7859 4.56281 0
M  V30 12274 H 1587.17 -1.93423 8.4679 0
M  V30 12275 H 1587.44 -1.68181 6.71046 0
M  V30 12276 H 1586.57 0.289041 8.15388 0
M  V30 12277 P 1582.61 1.17771 8.83182 0
M  V30 12278 O 1582.39 2.07206 9.98732 0
M  V30 12279 O 1581.82 -0.0743816 8.81969 0
M  V30 12280 O 1582.36 1.97678 7.474 0
M  V30 12281 C 1583.3 3.01133 7.08783 0
M  V30 12282 C 1582.57 4.1203 6.37546 0
M  V30 12283 O 1582.36 3.72887 4.9796 0
M  V30 12284 C 1581.17 4.45085 6.88694 0
M  V30 12285 O 1580.78 5.78836 6.56315 0
M  V30 12286 C 1580.29 3.47817 6.12078 0
M  V30 12287 C 1581 3.39414 4.77697 0
M  V30 12288 N 1580.95 2.04615 4.15333 0
M  V30 12289 C 1580.8 1.96929 2.77162 0
M  V30 12290 O 1580.71 3.02017 2.12006 0
M  V30 12291 N 1580.75 0.55485 2.24237 0
M  V30 12292 C 1580.85 -0.367808 2.9169 0
M  V30 12293 N 1580.8 -1.53426 2.29427 0
M  V30 12294 C 1581 -0.319148 4.33828 0
M  V30 12295 C 1581.05 0.920672 4.90433 0
M  V30 12296 H 1583.79 3.41209 7.98667 0
M  V30 12297 H 1584.06 2.5837 6.41742 0
M  V30 12298 H 1583.19 5.02718 6.42752 0
M  V30 12299 H 1580.54 4.11779 4.09026 0
M  V30 12300 H 1580.26 2.49661 6.61772 0
M  V30 12301 H 1579.27 3.86674 6.00946 0
M  V30 12302 H 1581.1 4.29991 7.97006 0
M  V30 12303 H 1581.17 1.00589 5.98303 0
M  V30 12304 H 1581.07 -1.22639 4.93799 0
M  V30 12305 H 1580.68 -1.56819 1.27167 0
M  V30 12306 H 1580.88 -2.41062 2.83063 0
M  V30 12307 P 1579.23 6.144 6.45285 0
M  V30 12308 O 1579.01 7.54673 6.86199 0
M  V30 12309 O 1578.44 5.12391 7.179 0
M  V30 12310 O 1578.98 5.99158 4.88404 0
M  V30 12311 C 1579.92 6.60234 3.96415 0
M  V30 12312 C 1579.19 7.08259 2.72856 0
M  V30 12313 O 1578.98 5.9427 1.83651 0
M  V30 12314 C 1577.79 7.64886 2.9555 0
M  V30 12315 O 1577.4 8.53963 1.90717 0
M  V30 12316 C 1576.91 6.4116 2.90739 0
M  V30 12317 C 1577.62 5.55375 1.86963 0
M  V30 12318 N 1577.57 4.09664 2.15742 0
M  V30 12319 H 1580.41 7.45574 4.45629 0
M  V30 12320 H 1580.68 5.86232 3.67314 0
M  V30 12321 H 1579.81 7.84412 2.24479 0
M  V30 12322 P 1575.85 8.7635 1.60911 0
M  V30 12323 O 1575.63 10.1388 1.11561 0
M  V30 12324 O 1575.06 8.36503 2.79617 0
M  V30 12325 O 1575.6 7.71806 0.42951 0
M  V30 12326 C 1576.54 7.67148 -0.673689 0
M  V30 12327 C 1575.81 7.33374 -1.95559 0
M  V30 12328 O 1575.6 5.88721 -2.00726 0
M  V30 12329 C 1574.41 7.92526 -2.10483 0
M  V30 12330 O 1574.02 8.02971 -3.47653 0
M  V30 12331 C 1573.53 6.89602 -1.41652 0
M  V30 12332 C 1574.24 5.59201 -1.75185 0
M  V30 12333 N 1574.19 4.58235 -0.662552 0
M  V30 12334 C 1574.27 4.7683 0.704049 0
M  V30 12335 N 1574.19 3.66233 1.39775 0
M  V30 12336 C 1574.05 2.66526 0.431739 0
M  V30 12337 C 1573.92 1.26394 0.575992 0
M  V30 12338 N 1573.8 0.62859 -0.67177 0
M  V30 12339 C 1573.8 1.27134 -1.89385 0
M  V30 12340 N 1573.67 0.492035 -2.96951 0
M  V30 12341 N 1573.93 2.58978 -2.02907 0
M  V30 12342 C 1574.05 3.22433 -0.832218 0
M  V30 12343 H 1577.03 8.65116 -0.777161 0
M  V30 12344 H 1577.3 6.90173 -0.474152 0
M  V30 12345 H 1576.43 7.66548 -2.79458 0
M  V30 12346 P 1572.47 8.03563 -3.84925 0
M  V30 12347 O 1572.25 8.85821 -5.0569 0
M  V30 12348 O 1571.68 8.41101 -2.65469 0
M  V30 12349 O 1572.22 6.4965 -4.18908 0
M  V30 12350 C 1573.16 5.81037 -5.05421 0
M  V30 12351 C 1572.43 4.78366 -5.89277 0
M  V30 12352 O 1572.22 3.58302 -5.08433 0
M  V30 12353 C 1571.03 5.17448 -6.36119 0
M  V30 12354 O 1570.64 4.45271 -7.53232 0
M  V30 12355 C 1570.15 4.74639 -5.19936 0
M  V30 12356 C 1570.86 3.49432 -4.70418 0
M  V30 12357 N 1570.81 3.31776 -3.22945 0
M  V30 12358 H 1573.65 6.54213 -5.71376 0
M  V30 12359 H 1573.92 5.30492 -4.44033 0
M  V30 12360 H 1573.05 4.55889 -6.76652 0
M  V30 12361 P 1569.09 4.23843 -7.83734 0
M  V30 12362 O 1568.87 4.19407 -9.29784 0
M  V30 12363 O 1568.3 5.24426 -7.09156 0
M  V30 12364 O 1568.84 2.7935 -7.20758 0
M  V30 12365 C 1569.78 1.7299 -7.50419 0
M  V30 12366 C 1569.05 0.406376 -7.57911 0
M  V30 12367 O 1568.84 -0.0897726 -6.21935 0
M  V30 12368 C 1567.65 0.447224 -8.1878 0
M  V30 12369 O 1567.26 -0.825065 -8.71101 0
M  V30 12370 C 1566.77 0.783801 -6.99623 0
M  V30 12371 C 1567.48 0.0619192 -5.85967 0
M  V30 12372 N 1567.43 0.7859 -4.56281 0
M  V30 12373 H 1570.27 1.93423 -8.4679 0
M  V30 12374 H 1570.54 1.68181 -6.71046 0
M  V30 12375 H 1569.67 -0.289041 -8.15388 0
M  V30 12376 P 1565.71 -1.17771 -8.83182 0
M  V30 12377 O 1565.49 -2.07206 -9.98732 0
M  V30 12378 O 1564.92 0.0743816 -8.81969 0
M  V30 12379 O 1565.46 -1.97652 -7.47304 0
M  V30 12380 C 1566.4 -3.01055 -7.08599 0
M  V30 12381 C 1565.67 -4.12613 -6.37049 0
M  V30 12382 O 1565.46 -3.72827 -4.97879 0
M  V30 12383 C 1564.27 -4.45719 -6.88164 0
M  V30 12384 O 1563.88 -5.7877 -6.5624 0
M  V30 12385 C 1563.39 -3.47768 -6.11991 0
M  V30 12386 C 1564.1 -3.39356 -4.77615 0
M  V30 12387 N 1564.05 -2.04571 -4.15244 0
M  V30 12388 C 1563.9 -1.98587 -2.78314 0
M  V30 12389 O 1563.81 -2.98134 -2.08835 0
M  V30 12390 N 1563.86 -0.714467 -2.24925 0
M  V30 12391 C 1563.95 0.470001 -2.94169 0
M  V30 12392 C 1564.1 0.312541 -4.36783 0
M  V30 12393 C 1564.15 -0.914512 -4.92583 0
M  V30 12394 H 1566.89 -3.41169 -7.98575 0
M  V30 12395 H 1567.16 -2.58295 -6.41556 0
M  V30 12396 H 1566.29 -5.02657 -6.42673 0
M  V30 12397 H 1563.64 -4.11637 -4.08885 0
M  V30 12398 H 1563.36 -2.49626 -6.61679 0
M  V30 12399 H 1562.37 -3.86566 -6.00778 0
M  V30 12400 H 1564.2 -4.29943 -7.96918 0
M  V30 12401 H 1564.27 -1.00937 -6.00374 0
M  V30 12402 P 1562.33 -6.144 -6.45285 0
M  V30 12403 O 1562.11 -7.54673 -6.86199 0
M  V30 12404 O 1561.54 -5.12391 -7.179 0
M  V30 12405 O 1562.08 -5.99236 -4.88467 0
M  V30 12406 C 1563.02 -6.60234 -3.96415 0
M  V30 12407 C 1562.29 -7.08079 -2.736 0
M  V30 12408 O 1562.08 -5.94365 -1.8368 0
M  V30 12409 C 1560.89 -7.64886 -2.9555 0
M  V30 12410 O 1560.5 -8.5406 -1.90739 0
M  V30 12411 C 1560.01 -6.4116 -2.90739 0
M  V30 12412 C 1560.72 -5.55375 -1.86963 0
M  V30 12413 N 1560.67 -4.09664 -2.15742 0
M  V30 12414 C 1560.52 -3.22231 -1.08477 0
M  V30 12415 O 1560.43 -3.68951 0.0600489 0
M  V30 12416 N 1560.47 -1.76692 -1.48799 0
M  V30 12417 C 1560.57 -1.41695 -2.57602 0
M  V30 12418 N 1560.52 -0.107296 -2.75791 0
M  V30 12419 C 1560.72 -2.29178 -3.69733 0
M  V30 12420 C 1560.77 -3.62753 -3.42653 0
M  V30 12421 H 1563.51 -7.45488 -4.45578 0
M  V30 12422 H 1563.78 -5.86232 -3.67314 0
M  V30 12423 H 1562.91 -7.84508 -2.24507 0
M  V30 12424 H 1560.26 -5.73556 -0.888715 0
M  V30 12425 H 1559.98 -5.9096 -3.88638 0
M  V30 12426 H 1558.99 -6.66053 -2.58894 0
M  V30 12427 H 1560.82 -8.16339 -3.92049 0
M  V30 12428 H 1560.89 -4.33052 -4.24913 0
M  V30 12429 H 1560.79 -1.9103 -4.71577 0
M  V30 12430 H 1560.4 0.521221 -1.95056 0
M  V30 12431 H 1560.6 0.286429 -3.70695 0
M  V30 12432 P 1558.95 -8.7635 -1.60911 0
M  V30 12433 O 1558.73 -10.1388 -1.11561 0
M  V30 12434 O 1558.16 -8.36503 -2.79617 0
M  V30 12435 O 1558.7 -7.71806 -0.42951 0
M  V30 12436 C 1559.64 -7.67148 0.673689 0
M  V30 12437 C 1558.91 -7.33374 1.95559 0
M  V30 12438 O 1558.7 -5.88721 2.00726 0
M  V30 12439 C 1557.51 -7.92526 2.10483 0
M  V30 12440 O 1557.12 -8.02971 3.47653 0
M  V30 12441 C 1556.63 -6.89602 1.41652 0
M  V30 12442 C 1557.34 -5.59201 1.75185 0
M  V30 12443 N 1557.29 -4.58301 0.657969 0
M  V30 12444 H 1560.13 -8.65116 0.777161 0
M  V30 12445 H 1560.4 -6.9022 0.46725 0
M  V30 12446 H 1559.53 -7.66548 2.79458 0
M  V30 12447 H 1556.88 -5.16165 2.65183 0
M  V30 12448 H 1556.6 -7.06433 0.329384 0
M  V30 12449 H 1555.61 -6.90926 1.82021 0
M  V30 12450 H 1557.44 -8.90873 1.62657 0
M  V30 12451 P 1555.57 -8.03563 3.84925 0
M  V30 12452 O 1555.35 -8.85821 5.0569 0
M  V30 12453 O 1554.78 -8.41101 2.65469 0
M  V30 12454 O 1555.32 -6.4965 4.18908 0
M  V30 12455 C 1556.26 -5.81037 5.05421 0
M  V30 12456 C 1555.53 -4.78366 5.89277 0
M  V30 12457 O 1555.32 -3.58302 5.08433 0
M  V30 12458 C 1554.13 -5.17448 6.36119 0
M  V30 12459 O 1553.74 -4.45271 7.53232 0
M  V30 12460 C 1553.25 -4.74639 5.19936 0
M  V30 12461 C 1553.96 -3.49432 4.70418 0
M  V30 12462 N 1553.91 -3.32099 3.22613 0
M  V30 12463 C 1553.99 -4.28245 2.25527 0
M  V30 12464 N 1553.92 -3.80823 1.04874 0
M  V30 12465 C 1553.77 -2.44571 1.23535 0
M  V30 12466 C 1553.64 -1.37068 0.330675 0
M  V30 12467 N 1553.63 -1.51472 -0.990824 0
M  V30 12468 N 1553.52 -0.138614 0.848756 0
M  V30 12469 C 1553.53 0.00675923 2.16999 0
M  V30 12470 N 1553.65 -0.904372 3.11122 0
M  V30 12471 C 1553.77 -2.12707 2.56212 0
M  V30 12472 H 1556.75 -6.54213 5.71376 0
M  V30 12473 H 1557.02 -5.30936 4.43503 0
M  V30 12474 H 1556.15 -4.55889 6.76652 0
M  V30 12475 H 1553.5 -2.61715 5.17932 0
M  V30 12476 H 1553.22 -5.52155 4.41878 0
M  V30 12477 H 1552.23 -4.51981 5.53374 0
M  V30 12478 H 1554.06 -6.25124 6.55234 0
M  V30 12479 H 1554.1 -5.34372 2.47488 0
M  V30 12480 H 1553.72 -2.45153 -1.4078 0
M  V30 12481 H 1553.53 -0.688422 -1.59911 0
M  V30 12482 H 1553.42 1.02584 2.52346 0
M  V30 12483 P 1552.19 -4.23843 7.83734 0
M  V30 12484 O 1551.97 -4.19407 9.29784 0
M  V30 12485 O 1551.4 -5.24426 7.09156 0
M  V30 12486 O 1551.94 -2.7935 7.20758 0
M  V30 12487 C 1552.88 -1.7299 7.50419 0
M  V30 12488 C 1552.15 -0.406376 7.57911 0
M  V30 12489 O 1551.94 0.0897726 6.21935 0
M  V30 12490 C 1550.75 -0.447224 8.1878 0
M  V30 12491 O 1550.36 0.825065 8.71101 0
M  V30 12492 C 1549.87 -0.783801 6.99623 0
M  V30 12493 C 1550.58 -0.0619192 5.85967 0
M  V30 12494 N 1550.53 -0.790462 4.56202 0
M  V30 12495 C 1550.61 -2.13895 4.34171 0
M  V30 12496 N 1550.54 -2.46449 3.08687 0
M  V30 12497 C 1550.39 -1.2525 2.43697 0
M  V30 12498 C 1550.26 -0.914535 1.07318 0
M  V30 12499 N 1550.25 -1.80782 0.0887348 0
M  V30 12500 N 1550.14 0.386745 0.768133 0
M  V30 12501 C 1550.15 1.28096 1.75159 0
M  V30 12502 N 1550.27 1.09708 3.04861 0
M  V30 12503 C 1550.39 -0.214857 3.32306 0
M  V30 12504 H 1553.37 -1.93423 8.4679 0
M  V30 12505 H 1553.64 -1.68852 6.70877 0
M  V30 12506 H 1552.77 0.289041 8.15388 0
M  V30 12507 H 1550.12 0.927006 5.72848 0
M  V30 12508 H 1549.84 -1.86973 6.82036 0
M  V30 12509 H 1548.85 -0.403953 7.13357 0
M  V30 12510 H 1550.68 -1.20599 8.97534 0
M  V30 12511 H 1550.72 -2.86846 5.14318 0
M  V30 12512 H 1550.34 -2.81082 0.302037 0
M  V30 12513 H 1550.15 -1.49688 -0.889064 0
M  V30 12514 H 1550.04 2.31317 1.43855 0
M  V30 12515 P 1548.81 1.17771 8.83182 0
M  V30 12516 O 1548.59 2.07206 9.98732 0
M  V30 12517 O 1548.02 -0.0743816 8.81969 0
M  V30 12518 O 1548.56 1.97652 7.47304 0
M  V30 12519 C 1549.5 3.01133 7.08783 0
M  V30 12520 C 1548.77 4.12613 6.37049 0
M  V30 12521 O 1548.56 3.72827 4.97879 0
M  V30 12522 C 1547.37 4.45085 6.88694 0
M  V30 12523 O 1546.98 5.7877 6.5624 0
M  V30 12524 C 1546.49 3.47817 6.12078 0
M  V30 12525 C 1547.2 3.39414 4.77697 0
M  V30 12526 N 1547.15 2.04615 4.15333 0
M  V30 12527 H 1549.99 3.41248 7.98759 0
M  V30 12528 H 1550.26 2.5837 6.41742 0
M  V30 12529 H 1549.39 5.02657 6.42673 0
M  V30 12530 P 1545.43 6.144 6.45285 0
M  V30 12531 O 1545.21 7.54673 6.86199 0
M  V30 12532 O 1544.64 5.12391 7.179 0
M  V30 12533 O 1545.18 5.99158 4.88404 0
M  V30 12534 C 1546.12 6.60234 3.96415 0
M  V30 12535 C 1545.39 7.08259 2.72856 0
M  V30 12536 O 1545.18 5.9427 1.83651 0
M  V30 12537 C 1543.99 7.64886 2.9555 0
M  V30 12538 O 1543.6 8.53963 1.90717 0
M  V30 12539 C 1543.11 6.4116 2.90739 0
M  V30 12540 C 1543.82 5.55375 1.86963 0
M  V30 12541 N 1543.77 4.09664 2.15742 0
M  V30 12542 H 1546.61 7.45574 4.45629 0
M  V30 12543 H 1546.88 5.86232 3.67314 0
M  V30 12544 H 1546.01 7.84412 2.24479 0
M  V30 12545 P 1542.05 8.7635 1.60911 0
M  V30 12546 O 1541.83 10.1388 1.11561 0
M  V30 12547 O 1541.26 8.36503 2.79617 0
M  V30 12548 O 1541.8 7.71806 0.42951 0
M  V30 12549 C 1542.74 7.67148 -0.673689 0
M  V30 12550 C 1542.01 7.33374 -1.95559 0
M  V30 12551 O 1541.8 5.88721 -2.00726 0
M  V30 12552 C 1540.61 7.92526 -2.10483 0
M  V30 12553 O 1540.22 8.02971 -3.47653 0
M  V30 12554 C 1539.73 6.89602 -1.41652 0
M  V30 12555 C 1540.44 5.59201 -1.75185 0
M  V30 12556 N 1540.39 4.58301 -0.657969 0
M  V30 12557 C 1540.47 4.79019 0.692603 0
M  V30 12558 N 1540.4 3.69736 1.38998 0
M  V30 12559 C 1540.25 2.70474 0.438135 0
M  V30 12560 C 1540.12 1.30327 0.538142 0
M  V30 12561 N 1540.11 0.64304 1.69192 0
M  V30 12562 N 1540 0.611027 -0.605183 0
M  V30 12563 C 1540.01 1.27002 -1.75953 0
M  V30 12564 N 1540.13 2.56038 -1.98546 0
M  V30 12565 C 1540.25 3.22681 -0.822541 0
M  V30 12566 H 1543.23 8.65116 -0.777161 0
M  V30 12567 H 1543.5 6.9022 -0.46725 0
M  V30 12568 H 1542.63 7.66548 -2.79458 0
M  V30 12569 H 1539.98 5.16165 -2.65183 0
M  V30 12570 H 1539.7 7.06433 -0.329384 0
M  V30 12571 H 1538.71 6.90926 -1.82021 0
M  V30 12572 H 1540.54 8.90873 -1.62657 0
M  V30 12573 H 1540.58 5.77785 1.13874 0
M  V30 12574 H 1540.2 1.15585 2.57991 0
M  V30 12575 H 1540.01 -0.382989 1.69835 0
M  V30 12576 H 1539.9 0.653331 -2.64449 0
M  V30 12577 P 1538.67 8.03563 -3.84925 0
M  V30 12578 O 1538.45 8.85821 -5.0569 0
M  V30 12579 O 1537.88 8.41101 -2.65469 0
M  V30 12580 O 1538.42 6.4965 -4.18908 0
M  V30 12581 C 1539.36 5.81037 -5.05421 0
M  V30 12582 C 1538.63 4.78366 -5.89277 0
M  V30 12583 O 1538.42 3.58302 -5.08433 0
M  V30 12584 C 1537.23 5.17448 -6.36119 0
M  V30 12585 O 1536.84 4.45271 -7.53232 0
M  V30 12586 C 1536.35 4.74639 -5.19936 0
M  V30 12587 C 1537.06 3.49432 -4.70418 0
M  V30 12588 N 1537.01 3.31776 -3.22945 0
M  V30 12589 H 1539.85 6.54213 -5.71376 0
M  V30 12590 H 1540.12 5.30492 -4.44033 0
M  V30 12591 H 1539.25 4.55889 -6.76652 0
M  V30 12592 P 1535.29 4.23843 -7.83734 0
M  V30 12593 O 1535.07 4.19407 -9.29784 0
M  V30 12594 O 1534.5 5.24426 -7.09156 0
M  V30 12595 O 1535.04 2.7935 -7.20758 0
M  V30 12596 C 1535.98 1.7299 -7.50419 0
M  V30 12597 C 1535.25 0.406376 -7.57911 0
M  V30 12598 O 1535.04 -0.0897726 -6.21935 0
M  V30 12599 C 1533.85 0.447224 -8.1878 0
M  V30 12600 O 1533.46 -0.825065 -8.71101 0
M  V30 12601 C 1532.97 0.783801 -6.99623 0
M  V30 12602 C 1533.68 0.0619192 -5.85967 0
M  V30 12603 N 1533.63 0.7859 -4.56281 0
M  V30 12604 H 1536.47 1.93423 -8.4679 0
M  V30 12605 H 1536.74 1.68181 -6.71046 0
M  V30 12606 H 1535.87 -0.289041 -8.15388 0
M  V30 12607 P 1531.91 -1.17771 -8.83182 0
M  V30 12608 O 1531.69 -2.07206 -9.98732 0
M  V30 12609 O 1531.12 0.0743816 -8.81969 0
M  V30 12610 O 1531.66 -1.97652 -7.47304 0
M  V30 12611 C 1532.6 -3.01133 -7.08783 0
M  V30 12612 C 1531.87 -4.12613 -6.37049 0
M  V30 12613 O 1531.66 -3.72827 -4.97879 0
M  V30 12614 C 1530.47 -4.45085 -6.88694 0
M  V30 12615 O 1530.08 -5.7877 -6.5624 0
M  V30 12616 C 1529.59 -3.47817 -6.12078 0
M  V30 12617 C 1530.3 -3.39414 -4.77697 0
M  V30 12618 N 1530.25 -2.04615 -4.15333 0
M  V30 12619 H 1533.09 -3.41248 -7.98759 0
M  V30 12620 H 1533.36 -2.5837 -6.41742 0
M  V30 12621 H 1532.49 -5.02657 -6.42673 0
M  V30 12622 P 1528.53 -6.144 -6.45285 0
M  V30 12623 O 1528.31 -7.54673 -6.86199 0
M  V30 12624 O 1527.74 -5.12391 -7.179 0
M  V30 12625 O 1528.28 -5.99236 -4.88467 0
M  V30 12626 C 1529.22 -6.60234 -3.96415 0
M  V30 12627 C 1528.49 -7.08079 -2.736 0
M  V30 12628 O 1528.28 -5.94365 -1.8368 0
M  V30 12629 C 1527.09 -7.64886 -2.9555 0
M  V30 12630 O 1526.7 -8.5406 -1.90739 0
M  V30 12631 C 1526.21 -6.4116 -2.90739 0
M  V30 12632 C 1526.92 -5.55375 -1.86963 0
M  V30 12633 N 1526.87 -4.09664 -2.15742 0
M  V30 12634 C 1526.72 -3.22231 -1.08477 0
M  V30 12635 O 1526.63 -3.68951 0.0600489 0
M  V30 12636 N 1526.67 -1.76692 -1.48799 0
M  V30 12637 C 1526.77 -1.41695 -2.57602 0
M  V30 12638 N 1526.72 -0.107296 -2.75791 0
M  V30 12639 C 1526.92 -2.29178 -3.69733 0
M  V30 12640 C 1526.97 -3.62753 -3.42653 0
M  V30 12641 H 1529.71 -7.45488 -4.45578 0
M  V30 12642 H 1529.98 -5.86232 -3.67314 0
M  V30 12643 H 1529.11 -7.84508 -2.24507 0
M  V30 12644 H 1526.46 -5.73556 -0.888715 0
M  V30 12645 H 1526.18 -5.9096 -3.88638 0
M  V30 12646 H 1525.19 -6.66053 -2.58894 0
M  V30 12647 H 1527.02 -8.16339 -3.92049 0
M  V30 12648 H 1527.09 -4.33052 -4.24913 0
M  V30 12649 H 1526.99 -1.9103 -4.71577 0
M  V30 12650 H 1526.6 0.521221 -1.95056 0
M  V30 12651 H 1526.8 0.286429 -3.70695 0
M  V30 12652 P 1525.15 -8.7635 -1.60911 0
M  V30 12653 O 1524.93 -10.1388 -1.11561 0
M  V30 12654 O 1524.36 -8.36503 -2.79617 0
M  V30 12655 O 1524.9 -7.71806 -0.42951 0
M  V30 12656 C 1525.84 -7.67148 0.673689 0
M  V30 12657 C 1525.11 -7.33374 1.95559 0
M  V30 12658 O 1524.9 -5.88721 2.00726 0
M  V30 12659 C 1523.71 -7.92526 2.10483 0
M  V30 12660 O 1523.32 -8.02971 3.47653 0
M  V30 12661 C 1522.83 -6.89602 1.41652 0
M  V30 12662 C 1523.54 -5.59201 1.75185 0
M  V30 12663 N 1523.49 -4.58235 0.662552 0
M  V30 12664 H 1526.33 -8.65116 0.777161 0
M  V30 12665 H 1526.6 -6.90173 0.474152 0
M  V30 12666 H 1525.73 -7.66548 2.79458 0
M  V30 12667 P 1521.77 -8.03563 3.84925 0
M  V30 12668 O 1521.55 -8.85821 5.0569 0
M  V30 12669 O 1520.98 -8.41101 2.65469 0
M  V30 12670 O 1521.52 -6.4965 4.18908 0
M  V30 12671 C 1522.46 -5.81037 5.05421 0
M  V30 12672 C 1521.73 -4.78366 5.89277 0
M  V30 12673 O 1521.52 -3.58302 5.08433 0
M  V30 12674 C 1520.33 -5.17448 6.36119 0
M  V30 12675 O 1519.94 -4.45271 7.53232 0
M  V30 12676 C 1519.45 -4.74639 5.19936 0
M  V30 12677 C 1520.16 -3.49432 4.70418 0
M  V30 12678 N 1520.11 -3.32099 3.22613 0
M  V30 12679 H 1522.95 -6.54213 5.71376 0
M  V30 12680 H 1523.22 -5.30936 4.43503 0
M  V30 12681 H 1522.35 -4.55889 6.76652 0
M  V30 12682 H 1519.7 -2.61715 5.17932 0
M  V30 12683 H 1519.42 -5.52155 4.41878 0
M  V30 12684 H 1518.43 -4.51981 5.53374 0
M  V30 12685 H 1520.26 -6.25124 6.55234 0
M  V30 12686 P 1518.39 -4.23843 7.83734 0
M  V30 12687 O 1518.17 -4.19407 9.29784 0
M  V30 12688 O 1517.6 -5.24426 7.09156 0
M  V30 12689 O 1518.14 -2.7935 7.20758 0
M  V30 12690 C 1519.08 -1.7299 7.50419 0
M  V30 12691 C 1518.35 -0.406376 7.57911 0
M  V30 12692 O 1518.14 0.0897726 6.21935 0
M  V30 12693 C 1516.95 -0.447224 8.1878 0
M  V30 12694 O 1516.56 0.825065 8.71101 0
M  V30 12695 C 1516.07 -0.783801 6.99623 0
M  V30 12696 C 1516.78 -0.0619192 5.85967 0
M  V30 12697 N 1516.73 -0.7859 4.56281 0
M  V30 12698 H 1519.57 -1.93423 8.4679 0
M  V30 12699 H 1519.84 -1.68181 6.71046 0
M  V30 12700 H 1518.97 0.289041 8.15388 0
M  V30 12701 P 1515.01 1.17771 8.83182 0
M  V30 12702 O 1514.79 2.07206 9.98732 0
M  V30 12703 O 1514.22 -0.0743816 8.81969 0
M  V30 12704 O 1514.76 1.97652 7.47304 0
M  V30 12705 C 1515.7 3.01133 7.08783 0
M  V30 12706 C 1514.97 4.12613 6.37049 0
M  V30 12707 O 1514.76 3.72827 4.97879 0
M  V30 12708 C 1513.57 4.45085 6.88694 0
M  V30 12709 O 1513.18 5.7877 6.5624 0
M  V30 12710 C 1512.69 3.47817 6.12078 0
M  V30 12711 C 1513.4 3.39414 4.77697 0
M  V30 12712 N 1513.35 2.04615 4.15333 0
M  V30 12713 H 1516.19 3.41248 7.98759 0
M  V30 12714 H 1516.46 2.5837 6.41742 0
M  V30 12715 H 1515.59 5.02657 6.42673 0
M  V30 12716 P 1511.63 6.144 6.45285 0
M  V30 12717 O 1511.41 7.54673 6.86199 0
M  V30 12718 O 1510.84 5.12391 7.179 0
M  V30 12719 O 1511.38 5.99158 4.88404 0
M  V30 12720 C 1512.32 6.60234 3.96415 0
M  V30 12721 C 1511.59 7.08259 2.72856 0
M  V30 12722 O 1511.38 5.9427 1.83651 0
M  V30 12723 C 1510.19 7.64886 2.9555 0
M  V30 12724 O 1509.8 8.53963 1.90717 0
M  V30 12725 C 1509.31 6.4116 2.90739 0
M  V30 12726 C 1510.02 5.55375 1.86963 0
M  V30 12727 N 1509.97 4.09448 2.16152 0
M  V30 12728 H 1512.81 7.45574 4.45629 0
M  V30 12729 H 1513.08 5.85864 3.679 0
M  V30 12730 H 1512.21 7.84412 2.24479 0
M  V30 12731 H 1509.56 5.73457 0.888562 0
M  V30 12732 H 1509.28 5.90877 3.88583 0
M  V30 12733 H 1508.29 6.6596 2.58858 0
M  V30 12734 H 1510.12 8.16339 3.92049 0
M  V30 12735 P 1508.25 8.7635 1.60911 0
M  V30 12736 O 1508.03 10.1388 1.11561 0
M  V30 12737 O 1507.46 8.36503 2.79617 0
M  V30 12738 O 1508 7.71806 0.42951 0
M  V30 12739 C 1508.94 7.67148 -0.673689 0
M  V30 12740 C 1508.21 7.33374 -1.95559 0
M  V30 12741 O 1508 5.88721 -2.00726 0
M  V30 12742 C 1506.81 7.92526 -2.10483 0
M  V30 12743 O 1506.42 8.02971 -3.47653 0
M  V30 12744 C 1505.93 6.89602 -1.41652 0
M  V30 12745 C 1506.64 5.59201 -1.75185 0
M  V30 12746 N 1506.59 4.58301 -0.657969 0
M  V30 12747 H 1509.43 8.65116 -0.777161 0
M  V30 12748 H 1509.7 6.9022 -0.46725 0
M  V30 12749 H 1508.83 7.66548 -2.79458 0
M  V30 12750 H 1506.18 5.16165 -2.65183 0
M  V30 12751 H 1505.9 7.06433 -0.329384 0
M  V30 12752 H 1504.91 6.90926 -1.82021 0
M  V30 12753 H 1506.74 8.90873 -1.62657 0
M  V30 12754 P 1504.87 8.03563 -3.84925 0
M  V30 12755 O 1504.65 8.85821 -5.0569 0
M  V30 12756 O 1504.08 8.41101 -2.65469 0
M  V30 12757 O 1504.62 6.4965 -4.18908 0
M  V30 12758 C 1505.56 5.81037 -5.05421 0
M  V30 12759 C 1504.83 4.78366 -5.89277 0
M  V30 12760 O 1504.62 3.58302 -5.08433 0
M  V30 12761 C 1503.43 5.17448 -6.36119 0
M  V30 12762 O 1503.04 4.45271 -7.53232 0
M  V30 12763 C 1502.55 4.74639 -5.19936 0
M  V30 12764 C 1503.26 3.49432 -4.70418 0
M  V30 12765 N 1503.21 3.32099 -3.22613 0
M  V30 12766 H 1506.05 6.54213 -5.71376 0
M  V30 12767 H 1506.32 5.30936 -4.43503 0
M  V30 12768 H 1505.45 4.55889 -6.76652 0
M  V30 12769 H 1502.8 2.61715 -5.17932 0
M  V30 12770 H 1502.52 5.52155 -4.41878 0
M  V30 12771 H 1501.53 4.51981 -5.53374 0
M  V30 12772 H 1503.36 6.25124 -6.55234 0
M  V30 12773 P 1501.49 4.23843 -7.83734 0
M  V30 12774 O 1501.27 4.19407 -9.29784 0
M  V30 12775 O 1500.7 5.24426 -7.09156 0
M  V30 12776 O 1501.24 2.7935 -7.20758 0
M  V30 12777 C 1502.18 1.7299 -7.50419 0
M  V30 12778 C 1501.45 0.406376 -7.57911 0
M  V30 12779 O 1501.24 -0.0897726 -6.21935 0
M  V30 12780 C 1500.05 0.447224 -8.1878 0
M  V30 12781 O 1499.66 -0.825065 -8.71101 0
M  V30 12782 C 1499.17 0.783801 -6.99623 0
M  V30 12783 C 1499.88 0.0619192 -5.85967 0
M  V30 12784 N 1499.83 0.7859 -4.56281 0
M  V30 12785 H 1502.67 1.93423 -8.4679 0
M  V30 12786 H 1502.94 1.68181 -6.71046 0
M  V30 12787 H 1502.07 -0.289041 -8.15388 0
M  V30 12788 P 1498.11 -1.17771 -8.83182 0
M  V30 12789 O 1497.89 -2.07206 -9.98732 0
M  V30 12790 O 1497.32 0.0743816 -8.81969 0
M  V30 12791 O 1497.86 -1.97652 -7.47304 0
M  V30 12792 C 1498.8 -3.01133 -7.08783 0
M  V30 12793 C 1498.07 -4.12613 -6.37049 0
M  V30 12794 O 1497.86 -3.72827 -4.97879 0
M  V30 12795 C 1496.67 -4.45085 -6.88694 0
M  V30 12796 O 1496.28 -5.7877 -6.5624 0
M  V30 12797 C 1495.79 -3.47817 -6.12078 0
M  V30 12798 C 1496.5 -3.39414 -4.77697 0
M  V30 12799 N 1496.45 -2.04199 -4.15538 0
M  V30 12800 C 1496.53 -0.821545 -4.76977 0
M  V30 12801 N 1496.46 0.1794 -3.94592 0
M  V30 12802 C 1496.31 -0.419121 -2.70776 0
M  V30 12803 C 1496.18 0.109072 -1.40577 0
M  V30 12804 N 1496.17 1.4104 -1.1344 0
M  V30 12805 N 1496.06 -0.764381 -0.39411 0
M  V30 12806 C 1496.07 -2.06587 -0.664135 0
M  V30 12807 N 1496.19 -2.67948 -1.82153 0
M  V30 12808 C 1496.31 -1.77942 -2.8147 0
M  V30 12809 H 1499.29 -3.41248 -7.98759 0
M  V30 12810 H 1499.56 -2.57728 -6.42 0
M  V30 12811 H 1498.69 -5.02657 -6.42673 0
M  V30 12812 H 1496.04 -4.11708 -4.08956 0
M  V30 12813 H 1495.76 -2.49626 -6.61679 0
M  V30 12814 H 1494.77 -3.8662 -6.00862 0
M  V30 12815 H 1496.6 -4.29991 -7.97006 0
M  V30 12816 H 1496.64 -0.702451 -5.84696 0
M  V30 12817 H 1496.26 2.09647 -1.89651 0
M  V30 12818 H 1496.07 1.73358 -0.160575 0
M  V30 12819 H 1495.97 -2.71695 0.195838 0
M  V30 12820 P 1494.73 -6.144 -6.45285 0
M  V30 12821 O 1494.51 -7.54673 -6.86199 0
M  V30 12822 O 1493.94 -5.12391 -7.179 0
M  V30 12823 O 1494.48 -5.99158 -4.88404 0
M  V30 12824 C 1495.42 -6.60234 -3.96415 0
M  V30 12825 C 1494.69 -7.08259 -2.72856 0
M  V30 12826 O 1494.48 -5.9427 -1.83651 0
M  V30 12827 C 1493.29 -7.64886 -2.9555 0
M  V30 12828 O 1492.9 -8.53963 -1.90717 0
M  V30 12829 C 1492.41 -6.4116 -2.90739 0
M  V30 12830 C 1493.12 -5.55375 -1.86963 0
M  V30 12831 N 1493.07 -4.09664 -2.15742 0
M  V30 12832 H 1495.91 -7.45574 -4.45629 0
M  V30 12833 H 1496.18 -5.86232 -3.67314 0
M  V30 12834 H 1495.31 -7.84412 -2.24479 0
M  V30 12835 P 1491.35 -8.7635 -1.60911 0
M  V30 12836 O 1491.13 -10.1388 -1.11561 0
M  V30 12837 O 1490.56 -8.36503 -2.79617 0
M  V30 12838 O 1491.1 -7.71806 -0.42951 0
M  V30 12839 C 1492.04 -7.66948 0.673514 0
M  V30 12840 C 1491.31 -7.33374 1.95559 0
M  V30 12841 O 1491.1 -5.88721 2.00726 0
M  V30 12842 C 1489.91 -7.92218 2.1125 0
M  V30 12843 O 1489.52 -8.02971 3.47653 0
M  V30 12844 C 1489.03 -6.89504 1.41631 0
M  V30 12845 C 1489.74 -5.59106 1.75155 0
M  V30 12846 N 1489.69 -4.58136 0.662409 0
M  V30 12847 C 1489.54 -3.26059 1.02863 0
M  V30 12848 O 1489.45 -2.90743 2.19009 0
M  V30 12849 N 1489.5 -2.35995 -0.0155585 0
M  V30 12850 C 1489.59 -2.65248 -1.35603 0
M  V30 12851 C 1489.74 -4.05747 -1.64698 0
M  V30 12852 C 1489.79 -4.96734 -0.652411 0
M  V30 12853 H 1492.53 -8.64917 0.776982 0
M  V30 12854 H 1492.8 -6.89974 0.474015 0
M  V30 12855 H 1491.93 -7.66548 2.79458 0
M  V30 12856 H 1489.28 -5.16076 2.65138 0
M  V30 12857 H 1489 -7.06433 0.329384 0
M  V30 12858 H 1488.01 -6.90829 1.81996 0
M  V30 12859 H 1489.84 -8.90774 1.62639 0
M  V30 12860 H 1489.91 -6.02181 -0.895285 0
M  V30 12861 P 1487.97 -8.03563 3.84925 0
M  V30 12862 O 1487.75 -8.85821 5.0569 0
M  V30 12863 O 1487.18 -8.41101 2.65469 0
M  V30 12864 O 1487.72 -6.49734 4.18962 0
M  V30 12865 C 1488.66 -5.81037 5.05421 0
M  V30 12866 C 1487.93 -4.79018 5.88876 0
M  V30 12867 O 1487.72 -3.58359 5.08515 0
M  V30 12868 C 1486.53 -5.17448 6.36119 0
M  V30 12869 O 1486.14 -4.45322 7.53318 0
M  V30 12870 C 1485.65 -4.74639 5.19936 0
M  V30 12871 C 1486.36 -3.49432 4.70418 0
M  V30 12872 N 1486.31 -3.31776 3.22945 0
M  V30 12873 C 1486.16 -2.02742 2.72939 0
M  V30 12874 O 1486.07 -1.08301 3.52749 0
M  V30 12875 N 1486.11 -1.96117 1.22063 0
M  V30 12876 C 1486.21 -2.8878 0.551566 0
M  V30 12877 N 1486.16 -2.65609 -0.750198 0
M  V30 12878 C 1486.36 -4.22457 1.03707 0
M  V30 12879 C 1486.41 -4.37979 2.39113 0
M  V30 12880 H 1489.15 -6.54138 5.7131 0
M  V30 12881 H 1489.42 -5.30492 4.44033 0
M  V30 12882 H 1488.55 -4.55945 6.76735 0
M  V30 12883 H 1485.9 -2.6176 5.18021 0
M  V30 12884 H 1485.62 -5.52233 4.41941 0
M  V30 12885 H 1484.63 -4.52045 5.53452 0
M  V30 12886 H 1486.46 -6.25124 6.55234 0
M  V30 12887 H 1486.53 -5.37936 2.80552 0
M  V30 12888 H 1486.43 -5.07528 0.359553 0
M  V30 12889 H 1486.04 -1.69403 -1.09847 0
M  V30 12890 H 1486.24 -3.43701 -1.41792 0
M  V30 12891 P 1484.59 -4.23843 7.83734 0
M  V30 12892 O 1484.37 -4.19407 9.29784 0
M  V30 12893 O 1483.8 -5.24426 7.09156 0
M  V30 12894 O 1484.34 -2.7935 7.20758 0
M  V30 12895 C 1485.28 -1.7299 7.50419 0
M  V30 12896 C 1484.55 -0.406376 7.57911 0
M  V30 12897 O 1484.34 0.0897726 6.21935 0
M  V30 12898 C 1483.15 -0.447224 8.1878 0
M  V30 12899 O 1482.76 0.825065 8.71101 0
M  V30 12900 C 1482.27 -0.783801 6.99623 0
M  V30 12901 C 1482.98 -0.0619192 5.85967 0
M  V30 12902 N 1482.93 -0.7859 4.56281 0
M  V30 12903 C 1483.01 -2.14308 4.31736 0
M  V30 12904 N 1482.93 -2.46106 3.05116 0
M  V30 12905 C 1482.79 -1.23422 2.4014 0
M  V30 12906 C 1482.66 -0.938381 1.02409 0
M  V30 12907 N 1482.54 0.444647 0.805413 0
M  V30 12908 C 1482.54 1.40829 1.79435 0
M  V30 12909 N 1482.41 2.67213 1.38558 0
M  V30 12910 N 1482.67 1.12947 3.09005 0
M  V30 12911 C 1482.79 -0.204887 3.32369 0
M  V30 12912 H 1485.77 -1.93423 8.4679 0
M  V30 12913 H 1486.04 -1.68181 6.71046 0
M  V30 12914 H 1485.17 0.289041 8.15388 0
M  V30 12915 P 1481.21 1.17771 8.83182 0
M  V30 12916 O 1480.99 2.07206 9.98732 0
M  V30 12917 O 1480.42 -0.0743816 8.81969 0
M  V30 12918 O 1480.96 1.97652 7.47304 0
M  V30 12919 C 1481.9 3.01133 7.08783 0
M  V30 12920 C 1481.17 4.12613 6.37049 0
M  V30 12921 O 1480.96 3.72827 4.97879 0
M  V30 12922 C 1479.77 4.45085 6.88694 0
M  V30 12923 O 1479.38 5.7877 6.5624 0
M  V30 12924 C 1478.89 3.47817 6.12078 0
M  V30 12925 C 1479.6 3.39414 4.77697 0
M  V30 12926 N 1479.55 2.04615 4.15333 0
M  V30 12927 H 1482.39 3.41248 7.98759 0
M  V30 12928 H 1482.66 2.5837 6.41742 0
M  V30 12929 H 1481.79 5.02657 6.42673 0
M  V30 12930 P 1477.83 6.144 6.45285 0
M  V30 12931 O 1477.61 7.54673 6.86199 0
M  V30 12932 O 1477.04 5.12391 7.179 0
M  V30 12933 O 1477.58 5.99158 4.88404 0
M  V30 12934 C 1478.52 6.60062 3.96313 0
M  V30 12935 C 1477.79 7.08259 2.72856 0
M  V30 12936 O 1477.58 5.9427 1.83651 0
M  V30 12937 C 1476.39 7.65087 2.94749 0
M  V30 12938 O 1476 8.53963 1.90717 0
M  V30 12939 C 1475.51 6.41069 2.90698 0
M  V30 12940 C 1476.22 5.5528 1.86931 0
M  V30 12941 N 1476.17 4.09575 2.15696 0
M  V30 12942 C 1476.02 3.24249 1.08435 0
M  V30 12943 O 1475.93 3.63946 -0.0628747 0
M  V30 12944 N 1475.98 1.90009 1.39973 0
M  V30 12945 C 1476.07 1.34884 2.65614 0
M  V30 12946 O 1476.02 0.123716 2.81728 0
M  V30 12947 C 1476.22 2.3145 3.71736 0
M  V30 12948 C 1476.33 1.75913 5.10438 0
M  V30 12949 C 1476.27 3.63518 3.44754 0
M  V30 12950 H 1479.01 7.45402 4.45526 0
M  V30 12951 H 1479.28 5.86062 3.67208 0
M  V30 12952 H 1478.41 7.84412 2.24479 0
M  V30 12953 H 1475.76 5.73358 0.888409 0
M  V30 12954 H 1475.48 5.90877 3.88583 0
M  V30 12955 H 1474.49 6.65867 2.58821 0
M  V30 12956 H 1476.32 8.16248 3.92006 0
M  V30 12957 H 1476.39 4.34551 4.26383 0
M  V30 12958 H 1475.36 1.85471 5.61775 0
M  V30 12959 H 1477.1 2.31364 5.66257 0
M  V30 12960 H 1476.61 0.695936 5.05229 0
M  V30 12961 H 1475.88 1.26277 0.63625 0
M  V30 12962 P 1474.45 8.7635 1.60911 0
M  V30 12963 O 1474.23 10.1388 1.11561 0
M  V30 12964 O 1473.66 8.36503 2.79617 0
M  V30 12965 O 1474.2 7.71806 0.42951 0
M  V30 12966 C 1475.14 7.66948 -0.673514 0
M  V30 12967 C 1474.41 7.33374 -1.95559 0
M  V30 12968 O 1474.2 5.88721 -2.00726 0
M  V30 12969 C 1473.01 7.92218 -2.1125 0
M  V30 12970 O 1472.62 8.02971 -3.47653 0
M  V30 12971 C 1472.13 6.89504 -1.41631 0
M  V30 12972 C 1472.84 5.59106 -1.75155 0
M  V30 12973 N 1472.79 4.58136 -0.662409 0
M  V30 12974 C 1472.64 3.26059 -1.02863 0
M  V30 12975 O 1472.55 2.90743 -2.19009 0
M  V30 12976 N 1472.6 2.35995 0.0155585 0
M  V30 12977 C 1472.69 2.65248 1.35603 0
M  V30 12978 O 1472.64 1.75605 2.20651 0
M  V30 12979 C 1472.84 4.05747 1.64698 0
M  V30 12980 C 1472.95 4.42345 3.09553 0
M  V30 12981 C 1472.89 4.96734 0.652411 0
M  V30 12982 H 1475.63 8.64917 -0.776982 0
M  V30 12983 H 1475.9 6.89974 -0.474015 0
M  V30 12984 H 1475.03 7.66548 -2.79458 0
M  V30 12985 H 1472.38 5.16076 -2.65138 0
M  V30 12986 H 1472.1 7.06433 -0.329384 0
M  V30 12987 H 1471.11 6.90829 -1.81996 0
M  V30 12988 H 1472.94 8.90774 -1.62639 0
M  V30 12989 H 1473.01 6.02181 0.895285 0
M  V30 12990 H 1471.98 4.80252 3.45468 0
M  V30 12991 H 1473.72 5.20015 3.22119 0
M  V30 12992 H 1473.23 3.53269 3.67833 0
M  V30 12993 H 1472.5 1.39558 -0.227499 0
M  V30 12994 P 1471.07 8.03563 -3.84925 0
M  V30 12995 O 1470.85 8.85821 -5.0569 0
M  V30 12996 O 1470.28 8.41101 -2.65469 0
M  V30 12997 O 1470.82 6.4965 -4.18908 0
M  V30 12998 C 1471.76 5.81037 -5.05421 0
M  V30 12999 C 1471.03 4.78366 -5.89277 0
M  V30 13000 O 1470.82 3.58302 -5.08433 0
M  V30 13001 C 1469.63 5.17448 -6.36119 0
M  V30 13002 O 1469.24 4.45271 -7.53232 0
M  V30 13003 C 1468.75 4.74639 -5.19936 0
M  V30 13004 C 1469.46 3.49432 -4.70418 0
M  V30 13005 N 1469.41 3.31776 -3.22945 0
M  V30 13006 H 1472.25 6.54213 -5.71376 0
M  V30 13007 H 1472.52 5.30492 -4.44033 0
M  V30 13008 H 1471.65 4.55889 -6.76652 0
M  V30 13009 P 1467.69 4.23843 -7.83734 0
M  V30 13010 O 1467.47 4.19407 -9.29784 0
M  V30 13011 O 1466.9 5.24426 -7.09156 0
M  V30 13012 O 1467.44 2.7935 -7.20758 0
M  V30 13013 C 1468.38 1.7299 -7.50419 0
M  V30 13014 C 1467.65 0.406376 -7.57911 0
M  V30 13015 O 1467.44 -0.0897726 -6.21935 0
M  V30 13016 C 1466.25 0.447224 -8.1878 0
M  V30 13017 O 1465.86 -0.825065 -8.71101 0
M  V30 13018 C 1465.37 0.783801 -6.99623 0
M  V30 13019 C 1466.08 0.0619192 -5.85967 0
M  V30 13020 N 1466.03 0.7859 -4.56281 0
M  V30 13021 H 1468.87 1.93423 -8.4679 0
M  V30 13022 H 1469.14 1.68181 -6.71046 0
M  V30 13023 H 1468.27 -0.289041 -8.15388 0
M  V30 13024 P 1464.31 -1.17771 -8.83182 0
M  V30 13025 O 1464.09 -2.07206 -9.98732 0
M  V30 13026 O 1463.52 0.0743816 -8.81969 0
M  V30 13027 O 1464.06 -1.97652 -7.47304 0
M  V30 13028 C 1465 -3.01055 -7.08599 0
M  V30 13029 C 1464.27 -4.12613 -6.37049 0
M  V30 13030 O 1464.06 -3.72827 -4.97879 0
M  V30 13031 C 1462.87 -4.45719 -6.88164 0
M  V30 13032 O 1462.48 -5.7877 -6.5624 0
M  V30 13033 C 1461.99 -3.47768 -6.11991 0
M  V30 13034 C 1462.7 -3.39356 -4.77615 0
M  V30 13035 N 1462.65 -2.04571 -4.15244 0
M  V30 13036 C 1462.5 -1.98587 -2.78314 0
M  V30 13037 O 1462.41 -2.98134 -2.08835 0
M  V30 13038 N 1462.46 -0.714467 -2.24925 0
M  V30 13039 C 1462.55 0.470001 -2.94169 0
M  V30 13040 O 1462.5 1.55587 -2.35195 0
M  V30 13041 C 1462.7 0.312541 -4.36783 0
M  V30 13042 C 1462.81 1.57711 -5.16352 0
M  V30 13043 C 1462.75 -0.914512 -4.92583 0
M  V30 13044 H 1465.49 -3.41169 -7.98575 0
M  V30 13045 H 1465.76 -2.58295 -6.41556 0
M  V30 13046 H 1464.89 -5.02657 -6.42673 0
M  V30 13047 H 1462.24 -4.11637 -4.08885 0
M  V30 13048 H 1461.96 -2.49626 -6.61679 0
M  V30 13049 H 1460.97 -3.86566 -6.00778 0
M  V30 13050 H 1462.8 -4.29943 -7.96918 0
M  V30 13051 H 1462.87 -1.00937 -6.00374 0
M  V30 13052 H 1461.84 1.80153 -5.63503 0
M  V30 13053 H 1463.58 1.4566 -5.94104 0
M  V30 13054 H 1463.09 2.40664 -4.49645 0
M  V30 13055 H 1462.36 -0.647622 -1.25697 0
M  V30 13056 P 1460.93 -6.144 -6.45285 0
M  V30 13057 O 1460.71 -7.54673 -6.86199 0
M  V30 13058 O 1460.14 -5.12391 -7.179 0
M  V30 13059 O 1460.68 -5.99158 -4.88404 0
M  V30 13060 C 1461.62 -6.60234 -3.96415 0
M  V30 13061 C 1460.89 -7.08259 -2.72856 0
M  V30 13062 O 1460.68 -5.9427 -1.83651 0
M  V30 13063 C 1459.49 -7.64886 -2.9555 0
M  V30 13064 O 1459.1 -8.53963 -1.90717 0
M  V30 13065 C 1458.61 -6.4116 -2.90739 0
M  V30 13066 C 1459.32 -5.55375 -1.86963 0
M  V30 13067 N 1459.27 -4.09448 -2.16152 0
M  V30 13068 C 1459.35 -3.46824 -3.37593 0
M  V30 13069 N 1459.28 -2.17422 -3.29777 0
M  V30 13070 C 1459.13 -1.93065 -1.94427 0
M  V30 13071 C 1459 -0.738053 -1.20141 0
M  V30 13072 N 1458.99 0.474256 -1.74676 0
M  V30 13073 N 1458.88 -0.850049 0.13045 0
M  V30 13074 C 1458.89 -2.06169 0.676992 0
M  V30 13075 N 1459.01 -3.23842 0.101312 0
M  V30 13076 C 1459.13 -3.09402 -1.23122 0
M  V30 13077 H 1462.11 -7.45574 -4.45629 0
M  V30 13078 H 1462.38 -5.85864 -3.679 0
M  V30 13079 H 1461.51 -7.84412 -2.24479 0
M  V30 13080 H 1458.86 -5.73457 -0.888562 0
M  V30 13081 H 1458.58 -5.90877 -3.88583 0
M  V30 13082 H 1457.59 -6.6596 -2.58858 0
M  V30 13083 H 1459.42 -8.16339 -3.92049 0
M  V30 13084 H 1459.46 -4.00505 -4.3174 0
M  V30 13085 H 1459.08 0.581337 -2.76658 0
M  V30 13086 H 1458.89 1.30811 -1.14888 0
M  V30 13087 H 1458.79 -2.08295 1.75542 0
M  V30 13088 P 1457.55 -8.7635 -1.60911 0
M  V30 13089 O 1457.33 -10.1388 -1.11561 0
M  V30 13090 O 1456.76 -8.36503 -2.79617 0
M  V30 13091 O 1457.3 -7.71806 -0.42951 0
M  V30 13092 C 1458.24 -7.67148 0.673689 0
M  V30 13093 C 1457.51 -7.33374 1.95559 0
M  V30 13094 O 1457.3 -5.88721 2.00726 0
M  V30 13095 C 1456.11 -7.92526 2.10483 0
M  V30 13096 O 1455.72 -8.02971 3.47653 0
M  V30 13097 C 1455.23 -6.89602 1.41652 0
M  V30 13098 C 1455.94 -5.59201 1.75185 0
M  V30 13099 N 1455.89 -4.58235 0.662552 0
M  V30 13100 H 1458.73 -8.65116 0.777161 0
M  V30 13101 H 1459 -6.90173 0.474152 0
M  V30 13102 H 1458.13 -7.66548 2.79458 0
M  V30 13103 P 1454.17 -8.03563 3.84925 0
M  V30 13104 O 1453.95 -8.85821 5.0569 0
M  V30 13105 O 1453.38 -8.41101 2.65469 0
M  V30 13106 O 1453.92 -6.4965 4.18908 0
M  V30 13107 C 1454.86 -5.81037 5.05421 0
M  V30 13108 C 1454.13 -4.78366 5.89277 0
M  V30 13109 O 1453.92 -3.58302 5.08433 0
M  V30 13110 C 1452.73 -5.17448 6.36119 0
M  V30 13111 O 1452.34 -4.45271 7.53232 0
M  V30 13112 C 1451.85 -4.74639 5.19936 0
M  V30 13113 C 1452.56 -3.49432 4.70418 0
M  V30 13114 N 1452.51 -3.32099 3.22613 0
M  V30 13115 H 1455.35 -6.54213 5.71376 0
M  V30 13116 H 1455.62 -5.30936 4.43503 0
M  V30 13117 H 1454.75 -4.55889 6.76652 0
M  V30 13118 H 1452.1 -2.61715 5.17932 0
M  V30 13119 H 1451.82 -5.52155 4.41878 0
M  V30 13120 H 1450.83 -4.51981 5.53374 0
M  V30 13121 H 1452.66 -6.25124 6.55234 0
M  V30 13122 P 1450.79 -4.23843 7.83734 0
M  V30 13123 O 1450.57 -4.19407 9.29784 0
M  V30 13124 O 1450 -5.24426 7.09156 0
M  V30 13125 O 1450.54 -2.7935 7.20758 0
M  V30 13126 C 1451.48 -1.7299 7.50419 0
M  V30 13127 C 1450.75 -0.406376 7.57911 0
M  V30 13128 O 1450.54 0.0897726 6.21935 0
M  V30 13129 C 1449.35 -0.447224 8.1878 0
M  V30 13130 O 1448.96 0.825065 8.71101 0
M  V30 13131 C 1448.47 -0.783801 6.99623 0
M  V30 13132 C 1449.18 -0.0619192 5.85967 0
M  V30 13133 N 1449.13 -0.7859 4.56281 0
M  V30 13134 H 1451.97 -1.93423 8.4679 0
M  V30 13135 H 1452.24 -1.68181 6.71046 0
M  V30 13136 H 1451.37 0.289041 8.15388 0
M  V30 13137 P 1447.41 1.17771 8.83182 0
M  V30 13138 O 1447.19 2.07206 9.98732 0
M  V30 13139 O 1446.62 -0.0743816 8.81969 0
M  V30 13140 O 1447.16 1.97652 7.47304 0
M  V30 13141 C 1448.1 3.01133 7.08783 0
M  V30 13142 C 1447.37 4.12613 6.37049 0
M  V30 13143 O 1447.16 3.72827 4.97879 0
M  V30 13144 C 1445.97 4.45085 6.88694 0
M  V30 13145 O 1445.58 5.7877 6.5624 0
M  V30 13146 C 1445.09 3.47817 6.12078 0
M  V30 13147 C 1445.8 3.39414 4.77697 0
M  V30 13148 N 1445.75 2.04615 4.15333 0
M  V30 13149 H 1448.59 3.41248 7.98759 0
M  V30 13150 H 1448.86 2.5837 6.41742 0
M  V30 13151 H 1447.99 5.02657 6.42673 0
M  V30 13152 P 1444.03 6.144 6.45285 0
M  V30 13153 O 1443.81 7.54673 6.86199 0
M  V30 13154 O 1443.24 5.12391 7.179 0
M  V30 13155 O 1443.78 5.99158 4.88404 0
M  V30 13156 C 1444.72 6.60234 3.96415 0
M  V30 13157 C 1443.99 7.08259 2.72856 0
M  V30 13158 O 1443.78 5.9427 1.83651 0
M  V30 13159 C 1442.59 7.64886 2.9555 0
M  V30 13160 O 1442.2 8.53963 1.90717 0
M  V30 13161 C 1441.71 6.4116 2.90739 0
M  V30 13162 C 1442.42 5.55375 1.86963 0
M  V30 13163 N 1442.37 4.09664 2.15742 0
M  V30 13164 H 1445.21 7.45574 4.45629 0
M  V30 13165 H 1445.48 5.86232 3.67314 0
M  V30 13166 H 1444.61 7.84412 2.24479 0
M  V30 13167 P 1440.65 8.7635 1.60911 0
M  V30 13168 O 1440.43 10.1388 1.11561 0
M  V30 13169 O 1439.86 8.36503 2.79617 0
M  V30 13170 O 1440.4 7.71806 0.42951 0
M  V30 13171 C 1441.34 7.67148 -0.673689 0
M  V30 13172 C 1440.61 7.33374 -1.95559 0
M  V30 13173 O 1440.4 5.88721 -2.00726 0
M  V30 13174 C 1439.21 7.92526 -2.10483 0
M  V30 13175 O 1438.82 8.02971 -3.47653 0
M  V30 13176 C 1438.33 6.89602 -1.41652 0
M  V30 13177 C 1439.04 5.59201 -1.75185 0
M  V30 13178 N 1438.99 4.58301 -0.657969 0
M  V30 13179 H 1441.83 8.65116 -0.777161 0
M  V30 13180 H 1442.1 6.9022 -0.46725 0
M  V30 13181 H 1441.23 7.66548 -2.79458 0
M  V30 13182 H 1438.58 5.16165 -2.65183 0
M  V30 13183 H 1438.3 7.06433 -0.329384 0
M  V30 13184 H 1437.31 6.90926 -1.82021 0
M  V30 13185 H 1439.14 8.90873 -1.62657 0
M  V30 13186 P 1437.27 8.03563 -3.84925 0
M  V30 13187 O 1437.05 8.85821 -5.0569 0
M  V30 13188 O 1436.48 8.41101 -2.65469 0
M  V30 13189 O 1437.02 6.4965 -4.18908 0
M  V30 13190 C 1437.96 5.80886 -5.05289 0
M  V30 13191 C 1437.23 4.78366 -5.89277 0
M  V30 13192 O 1437.02 3.58302 -5.08433 0
M  V30 13193 C 1435.83 5.16748 -6.36559 0
M  V30 13194 O 1435.44 4.45271 -7.53232 0
M  V30 13195 C 1434.95 4.74572 -5.19863 0
M  V30 13196 C 1435.66 3.49373 -4.70338 0
M  V30 13197 N 1435.61 3.31704 -3.22876 0
M  V30 13198 C 1435.46 2.03326 -2.74871 0
M  V30 13199 O 1435.37 1.06486 -3.48076 0
M  V30 13200 N 1435.42 1.91838 -1.37456 0
M  V30 13201 C 1435.51 2.94295 -0.462035 0
M  V30 13202 O 1435.46 2.71763 0.752928 0
M  V30 13203 C 1435.66 4.25064 -1.05249 0
M  V30 13204 C 1435.77 5.39815 -0.095697 0
M  V30 13205 C 1435.71 4.40214 -2.39192 0
M  V30 13206 H 1438.45 6.54063 -5.71245 0
M  V30 13207 H 1438.72 5.30339 -4.43905 0
M  V30 13208 H 1437.85 4.55889 -6.76652 0
M  V30 13209 H 1435.2 2.6167 -5.17842 0
M  V30 13210 H 1434.92 5.52155 -4.41878 0
M  V30 13211 H 1433.93 4.51918 -5.53297 0
M  V30 13212 H 1435.76 6.25055 -6.55162 0
M  V30 13213 H 1435.83 5.39798 -2.81523 0
M  V30 13214 H 1434.8 5.91593 -0.0279582 0
M  V30 13215 H 1436.54 6.10038 -0.450573 0
M  V30 13216 H 1436.05 5.02007 0.89937 0
M  V30 13217 H 1435.32 0.995326 -1.00435 0
M  V30 13218 P 1433.89 4.23843 -7.83734 0
M  V30 13219 O 1433.67 4.19407 -9.29784 0
M  V30 13220 O 1433.1 5.24426 -7.09156 0
M  V30 13221 O 1433.64 2.79386 -7.20852 0
M  V30 13222 C 1434.58 1.7299 -7.50419 0
M  V30 13223 C 1433.85 0.41401 -7.5797 0
M  V30 13224 O 1433.64 -0.089787 -6.22035 0
M  V30 13225 C 1432.45 0.447224 -8.1878 0
M  V30 13226 O 1432.06 -0.825159 -8.71201 0
M  V30 13227 C 1431.57 0.783801 -6.99623 0
M  V30 13228 C 1432.28 0.0619192 -5.85967 0
M  V30 13229 N 1432.23 0.7859 -4.56281 0
M  V30 13230 C 1432.08 0.0359258 -3.39981 0
M  V30 13231 O 1431.99 -1.19723 -3.49038 0
M  V30 13232 N 1432.03 0.869151 -2.14025 0
M  V30 13233 C 1432.13 2.01207 -2.14363 0
M  V30 13234 N 1432.08 2.58978 -0.954287 0
M  V30 13235 C 1432.28 2.80817 -3.32215 0
M  V30 13236 C 1432.33 2.13785 -4.50884 0
M  V30 13237 H 1435.07 1.93401 -8.46693 0
M  V30 13238 H 1435.34 1.68181 -6.71046 0
M  V30 13239 H 1434.47 -0.289076 -8.15488 0
M  V30 13240 H 1431.82 -0.927166 -5.72947 0
M  V30 13241 H 1431.54 1.87 -6.82132 0
M  V30 13242 H 1430.55 0.404009 -7.13457 0
M  V30 13243 H 1432.38 1.20599 -8.97534 0
M  V30 13244 H 1432.45 2.70295 -5.43162 0
M  V30 13245 H 1432.35 3.89465 -3.27406 0
M  V30 13246 H 1431.96 2.01616 -0.107046 0
M  V30 13247 H 1432.16 3.61403 -0.873101 0
M  V30 13248 P 1430.51 -1.17771 -8.83182 0
M  V30 13249 O 1430.29 -2.07206 -9.98732 0
M  V30 13250 O 1429.72 0.0743816 -8.81969 0
M  V30 13251 O 1430.26 -1.97652 -7.47304 0
M  V30 13252 C 1431.2 -3.01133 -7.08783 0
M  V30 13253 C 1430.47 -4.12613 -6.37049 0
M  V30 13254 O 1430.26 -3.72827 -4.97879 0
M  V30 13255 C 1429.07 -4.45085 -6.88694 0
M  V30 13256 O 1428.68 -5.7877 -6.5624 0
M  V30 13257 C 1428.19 -3.47817 -6.12078 0
M  V30 13258 C 1428.9 -3.39414 -4.77697 0
M  V30 13259 N 1428.85 -2.04615 -4.15333 0
M  V30 13260 H 1431.69 -3.41248 -7.98759 0
M  V30 13261 H 1431.96 -2.5837 -6.41742 0
M  V30 13262 H 1431.09 -5.02657 -6.42673 0
M  V30 13263 P 1427.13 -6.144 -6.45285 0
M  V30 13264 O 1426.91 -7.54673 -6.86199 0
M  V30 13265 O 1426.34 -5.12391 -7.179 0
M  V30 13266 O 1426.88 -5.99158 -4.88404 0
M  V30 13267 C 1427.82 -6.60062 -3.96313 0
M  V30 13268 C 1427.09 -7.08259 -2.72856 0
M  V30 13269 O 1426.88 -5.9427 -1.83651 0
M  V30 13270 C 1425.69 -7.65087 -2.94749 0
M  V30 13271 O 1425.3 -8.53963 -1.90717 0
M  V30 13272 C 1424.81 -6.41069 -2.90698 0
M  V30 13273 C 1425.52 -5.5528 -1.86931 0
M  V30 13274 N 1425.47 -4.09575 -2.15696 0
M  V30 13275 C 1425.32 -3.24249 -1.08435 0
M  V30 13276 O 1425.23 -3.63946 0.0628747 0
M  V30 13277 N 1425.28 -1.90009 -1.39973 0
M  V30 13278 C 1425.37 -1.34884 -2.65614 0
M  V30 13279 C 1425.52 -2.3145 -3.71736 0
M  V30 13280 C 1425.57 -3.63518 -3.44754 0
M  V30 13281 H 1428.31 -7.45402 -4.45526 0
M  V30 13282 H 1428.58 -5.86062 -3.67208 0
M  V30 13283 H 1427.71 -7.84412 -2.24479 0
M  V30 13284 H 1425.06 -5.73358 -0.888409 0
M  V30 13285 H 1424.78 -5.90877 -3.88583 0
M  V30 13286 H 1423.79 -6.65867 -2.58821 0
M  V30 13287 H 1425.62 -8.16248 -3.92006 0
M  V30 13288 H 1425.69 -4.34551 -4.26383 0
M  V30 13289 P 1423.75 -8.7635 -1.60911 0
M  V30 13290 O 1423.53 -10.1388 -1.11561 0
M  V30 13291 O 1422.96 -8.36503 -2.79617 0
M  V30 13292 O 1423.5 -7.71806 -0.42951 0
M  V30 13293 C 1424.44 -7.66948 0.673514 0
M  V30 13294 C 1423.71 -7.33374 1.95559 0
M  V30 13295 O 1423.5 -5.88721 2.00726 0
M  V30 13296 C 1422.31 -7.92218 2.1125 0
M  V30 13297 O 1421.92 -8.02971 3.47653 0
M  V30 13298 C 1421.43 -6.89504 1.41631 0
M  V30 13299 C 1422.14 -5.59106 1.75155 0
M  V30 13300 N 1422.09 -4.58136 0.662409 0
M  V30 13301 C 1421.94 -3.26059 1.02863 0
M  V30 13302 O 1421.85 -2.90743 2.19009 0
M  V30 13303 N 1421.9 -2.35995 -0.0155585 0
M  V30 13304 C 1421.99 -2.65248 -1.35603 0
M  V30 13305 O 1421.94 -1.75605 -2.20651 0
M  V30 13306 C 1422.14 -4.05747 -1.64698 0
M  V30 13307 C 1422.25 -4.42345 -3.09553 0
M  V30 13308 C 1422.19 -4.96734 -0.652411 0
M  V30 13309 H 1424.93 -8.64917 0.776982 0
M  V30 13310 H 1425.2 -6.89974 0.474015 0
M  V30 13311 H 1424.33 -7.66548 2.79458 0
M  V30 13312 H 1421.68 -5.16076 2.65138 0
M  V30 13313 H 1421.4 -7.06433 0.329384 0
M  V30 13314 H 1420.41 -6.90829 1.81996 0
M  V30 13315 H 1422.24 -8.90774 1.62639 0
M  V30 13316 H 1422.31 -6.02181 -0.895285 0
M  V30 13317 H 1421.28 -4.80252 -3.45468 0
M  V30 13318 H 1423.02 -5.20015 -3.22119 0
M  V30 13319 H 1422.53 -3.53269 -3.67833 0
M  V30 13320 H 1421.8 -1.39558 0.227499 0
M  V30 13321 P 1420.37 -8.03563 3.84925 0
M  V30 13322 O 1420.15 -8.85821 5.0569 0
M  V30 13323 O 1419.58 -8.41101 2.65469 0
M  V30 13324 O 1420.12 -6.4965 4.18908 0
M  V30 13325 C 1421.06 -5.81037 5.05421 0
M  V30 13326 C 1420.33 -4.78366 5.89277 0
M  V30 13327 O 1420.12 -3.58302 5.08433 0
M  V30 13328 C 1418.93 -5.17448 6.36119 0
M  V30 13329 O 1418.54 -4.45271 7.53232 0
M  V30 13330 C 1418.05 -4.74639 5.19936 0
M  V30 13331 C 1418.76 -3.49432 4.70418 0
M  V30 13332 N 1418.71 -3.32099 3.22613 0
M  V30 13333 C 1418.79 -4.28245 2.25527 0
M  V30 13334 N 1418.72 -3.80823 1.04874 0
M  V30 13335 C 1418.57 -2.44571 1.23535 0
M  V30 13336 C 1418.44 -1.37068 0.330675 0
M  V30 13337 N 1418.43 -1.51472 -0.990824 0
M  V30 13338 N 1418.32 -0.138614 0.848756 0
M  V30 13339 C 1418.33 0.00675923 2.16999 0
M  V30 13340 N 1418.45 -0.904372 3.11122 0
M  V30 13341 C 1418.57 -2.12707 2.56212 0
M  V30 13342 H 1421.55 -6.54213 5.71376 0
M  V30 13343 H 1421.82 -5.30936 4.43503 0
M  V30 13344 H 1420.95 -4.55889 6.76652 0
M  V30 13345 H 1418.3 -2.61715 5.17932 0
M  V30 13346 H 1418.02 -5.52155 4.41878 0
M  V30 13347 H 1417.03 -4.51981 5.53374 0
M  V30 13348 H 1418.86 -6.25124 6.55234 0
M  V30 13349 H 1418.9 -5.34372 2.47488 0
M  V30 13350 H 1418.52 -2.45153 -1.4078 0
M  V30 13351 H 1418.33 -0.688422 -1.59911 0
M  V30 13352 H 1418.23 1.02584 2.52346 0
M  V30 13353 P 1416.99 -4.23843 7.83734 0
M  V30 13354 O 1416.77 -4.19407 9.29784 0
M  V30 13355 O 1416.2 -5.24426 7.09156 0
M  V30 13356 O 1416.74 -2.7935 7.20758 0
M  V30 13357 C 1417.68 -1.7299 7.50419 0
M  V30 13358 C 1416.95 -0.406376 7.57911 0
M  V30 13359 O 1416.74 0.0897726 6.21935 0
M  V30 13360 C 1415.55 -0.447224 8.1878 0
M  V30 13361 O 1415.16 0.825065 8.71101 0
M  V30 13362 C 1414.67 -0.783801 6.99623 0
M  V30 13363 C 1415.38 -0.0619192 5.85967 0
M  V30 13364 N 1415.33 -0.7859 4.56281 0
M  V30 13365 C 1415.41 -2.14308 4.31736 0
M  V30 13366 N 1415.33 -2.46106 3.05116 0
M  V30 13367 C 1415.19 -1.23422 2.4014 0
M  V30 13368 C 1415.06 -0.938381 1.02409 0
M  V30 13369 N 1414.94 0.444647 0.805413 0
M  V30 13370 C 1414.94 1.40829 1.79435 0
M  V30 13371 N 1414.81 2.67213 1.38558 0
M  V30 13372 N 1415.07 1.12947 3.09005 0
M  V30 13373 C 1415.19 -0.204887 3.32369 0
M  V30 13374 H 1418.17 -1.93423 8.4679 0
M  V30 13375 H 1418.44 -1.68181 6.71046 0
M  V30 13376 H 1417.57 0.289041 8.15388 0
M  V30 13377 P 1413.61 1.17771 8.83182 0
M  V30 13378 O 1413.39 2.07206 9.98732 0
M  V30 13379 O 1412.82 -0.0743816 8.81969 0
M  V30 13380 O 1413.36 1.97652 7.47304 0
M  V30 13381 C 1414.3 3.01133 7.08783 0
M  V30 13382 C 1413.57 4.12613 6.37049 0
M  V30 13383 O 1413.36 3.72827 4.97879 0
M  V30 13384 C 1412.17 4.45085 6.88694 0
M  V30 13385 O 1411.78 5.7877 6.5624 0
M  V30 13386 C 1411.29 3.47817 6.12078 0
M  V30 13387 C 1412 3.39414 4.77697 0
M  V30 13388 N 1411.95 2.04615 4.15333 0
M  V30 13389 H 1414.79 3.41248 7.98759 0
M  V30 13390 H 1415.06 2.5837 6.41742 0
M  V30 13391 H 1414.19 5.02657 6.42673 0
M  V30 13392 P 1410.23 6.144 6.45285 0
M  V30 13393 O 1410.01 7.54673 6.86199 0
M  V30 13394 O 1409.44 5.12391 7.179 0
M  V30 13395 O 1409.98 5.99158 4.88404 0
M  V30 13396 C 1410.92 6.60234 3.96415 0
M  V30 13397 C 1410.19 7.08259 2.72856 0
M  V30 13398 O 1409.98 5.9427 1.83651 0
M  V30 13399 C 1408.79 7.64886 2.9555 0
M  V30 13400 O 1408.4 8.53963 1.90717 0
M  V30 13401 C 1407.91 6.4116 2.90739 0
M  V30 13402 C 1408.62 5.55375 1.86963 0
M  V30 13403 N 1408.57 4.09664 2.15742 0
M  V30 13404 H 1411.41 7.45574 4.45629 0
M  V30 13405 H 1411.68 5.86232 3.67314 0
M  V30 13406 H 1410.81 7.84412 2.24479 0
M  V30 13407 P 1406.85 8.7635 1.60911 0
M  V30 13408 O 1406.63 10.1388 1.11561 0
M  V30 13409 O 1406.06 8.36503 2.79617 0
M  V30 13410 O 1406.6 7.71806 0.42951 0
M  V30 13411 C 1407.54 7.67148 -0.673689 0
M  V30 13412 C 1406.81 7.33374 -1.95559 0
M  V30 13413 O 1406.6 5.88721 -2.00726 0
M  V30 13414 C 1405.41 7.92526 -2.10483 0
M  V30 13415 O 1405.02 8.02971 -3.47653 0
M  V30 13416 C 1404.53 6.89602 -1.41652 0
M  V30 13417 C 1405.24 5.59201 -1.75185 0
M  V30 13418 N 1405.19 4.58301 -0.657969 0
M  V30 13419 H 1408.03 8.65116 -0.777161 0
M  V30 13420 H 1408.3 6.9022 -0.46725 0
M  V30 13421 H 1407.43 7.66548 -2.79458 0
M  V30 13422 H 1404.78 5.16165 -2.65183 0
M  V30 13423 H 1404.5 7.06433 -0.329384 0
M  V30 13424 H 1403.51 6.90926 -1.82021 0
M  V30 13425 H 1405.34 8.90873 -1.62657 0
M  V30 13426 P 1403.47 8.03563 -3.84925 0
M  V30 13427 O 1403.25 8.85821 -5.0569 0
M  V30 13428 O 1402.68 8.41101 -2.65469 0
M  V30 13429 O 1403.22 6.4965 -4.18908 0
M  V30 13430 C 1404.16 5.81037 -5.05421 0
M  V30 13431 C 1403.43 4.78366 -5.89277 0
M  V30 13432 O 1403.22 3.58302 -5.08433 0
M  V30 13433 C 1402.03 5.17448 -6.36119 0
M  V30 13434 O 1401.64 4.45271 -7.53232 0
M  V30 13435 C 1401.15 4.74639 -5.19936 0
M  V30 13436 C 1401.86 3.49432 -4.70418 0
M  V30 13437 N 1401.81 3.31776 -3.22945 0
M  V30 13438 H 1404.65 6.54213 -5.71376 0
M  V30 13439 H 1404.92 5.30492 -4.44033 0
M  V30 13440 H 1404.05 4.55889 -6.76652 0
M  V30 13441 P 1400.09 4.23843 -7.83734 0
M  V30 13442 O 1399.87 4.19407 -9.29784 0
M  V30 13443 O 1399.3 5.24426 -7.09156 0
M  V30 13444 O 1399.84 2.7935 -7.20758 0
M  V30 13445 C 1400.78 1.7299 -7.50419 0
M  V30 13446 C 1400.05 0.406376 -7.57911 0
M  V30 13447 O 1399.84 -0.0897726 -6.21935 0
M  V30 13448 C 1398.65 0.447224 -8.1878 0
M  V30 13449 O 1398.26 -0.825065 -8.71101 0
M  V30 13450 C 1397.77 0.783801 -6.99623 0
M  V30 13451 C 1398.48 0.0619192 -5.85967 0
M  V30 13452 N 1398.43 0.7859 -4.56281 0
M  V30 13453 H 1401.27 1.93423 -8.4679 0
M  V30 13454 H 1401.54 1.68181 -6.71046 0
M  V30 13455 H 1400.67 -0.289041 -8.15388 0
M  V30 13456 P 1396.71 -1.17771 -8.83182 0
M  V30 13457 O 1396.49 -2.07206 -9.98732 0
M  V30 13458 O 1395.92 0.0743816 -8.81969 0
M  V30 13459 O 1396.46 -1.97652 -7.47304 0
M  V30 13460 C 1397.4 -3.01133 -7.08783 0
M  V30 13461 C 1396.67 -4.12613 -6.37049 0
M  V30 13462 O 1396.46 -3.72827 -4.97879 0
M  V30 13463 C 1395.27 -4.45085 -6.88694 0
M  V30 13464 O 1394.88 -5.7877 -6.5624 0
M  V30 13465 C 1394.39 -3.47817 -6.12078 0
M  V30 13466 C 1395.1 -3.39414 -4.77697 0
M  V30 13467 N 1395.05 -2.04615 -4.15333 0
M  V30 13468 H 1397.89 -3.41248 -7.98759 0
M  V30 13469 H 1398.16 -2.5837 -6.41742 0
M  V30 13470 H 1397.29 -5.02657 -6.42673 0
M  V30 13471 P 1393.33 -6.144 -6.45285 0
M  V30 13472 O 1393.11 -7.54673 -6.86199 0
M  V30 13473 O 1392.54 -5.12391 -7.179 0
M  V30 13474 O 1393.08 -5.99158 -4.88404 0
M  V30 13475 C 1394.02 -6.60062 -3.96313 0
M  V30 13476 C 1393.29 -7.08259 -2.72856 0
M  V30 13477 O 1393.08 -5.9427 -1.83651 0
M  V30 13478 C 1391.89 -7.65087 -2.94749 0
M  V30 13479 O 1391.5 -8.53963 -1.90717 0
M  V30 13480 C 1391.01 -6.41069 -2.90698 0
M  V30 13481 C 1391.72 -5.5528 -1.86931 0
M  V30 13482 N 1391.67 -4.09575 -2.15696 0
M  V30 13483 C 1391.52 -3.24249 -1.08435 0
M  V30 13484 O 1391.43 -3.63946 0.0628747 0
M  V30 13485 N 1391.48 -1.90009 -1.39973 0
M  V30 13486 C 1391.57 -1.34884 -2.65614 0
M  V30 13487 C 1391.72 -2.3145 -3.71736 0
M  V30 13488 C 1391.77 -3.63518 -3.44754 0
M  V30 13489 H 1394.51 -7.45402 -4.45526 0
M  V30 13490 H 1394.78 -5.86062 -3.67208 0
M  V30 13491 H 1393.91 -7.84412 -2.24479 0
M  V30 13492 H 1391.26 -5.73358 -0.888409 0
M  V30 13493 H 1390.98 -5.90877 -3.88583 0
M  V30 13494 H 1389.99 -6.65867 -2.58821 0
M  V30 13495 H 1391.82 -8.16248 -3.92006 0
M  V30 13496 H 1391.89 -4.34551 -4.26383 0
M  V30 13497 P 1389.95 -8.7635 -1.60911 0
M  V30 13498 O 1389.73 -10.1388 -1.11561 0
M  V30 13499 O 1389.16 -8.36503 -2.79617 0
M  V30 13500 O 1389.7 -7.71806 -0.42951 0
M  V30 13501 C 1390.64 -7.66948 0.673514 0
M  V30 13502 C 1389.91 -7.33374 1.95559 0
M  V30 13503 O 1389.7 -5.88721 2.00726 0
M  V30 13504 C 1388.51 -7.92218 2.1125 0
M  V30 13505 O 1388.12 -8.02971 3.47653 0
M  V30 13506 C 1387.63 -6.89504 1.41631 0
M  V30 13507 C 1388.34 -5.59106 1.75155 0
M  V30 13508 N 1388.29 -4.58136 0.662409 0
M  V30 13509 C 1388.14 -3.26059 1.02863 0
M  V30 13510 O 1388.05 -2.90743 2.19009 0
M  V30 13511 N 1388.1 -2.35995 -0.0155585 0
M  V30 13512 C 1388.19 -2.65248 -1.35603 0
M  V30 13513 O 1388.14 -1.75605 -2.20651 0
M  V30 13514 C 1388.34 -4.05747 -1.64698 0
M  V30 13515 C 1388.45 -4.42345 -3.09553 0
M  V30 13516 C 1388.39 -4.96734 -0.652411 0
M  V30 13517 H 1391.13 -8.64917 0.776982 0
M  V30 13518 H 1391.4 -6.89974 0.474015 0
M  V30 13519 H 1390.53 -7.66548 2.79458 0
M  V30 13520 H 1387.88 -5.16076 2.65138 0
M  V30 13521 H 1387.6 -7.06433 0.329384 0
M  V30 13522 H 1386.61 -6.90829 1.81996 0
M  V30 13523 H 1388.44 -8.90774 1.62639 0
M  V30 13524 H 1388.51 -6.02181 -0.895285 0
M  V30 13525 H 1387.48 -4.80252 -3.45468 0
M  V30 13526 H 1389.22 -5.20015 -3.22119 0
M  V30 13527 H 1388.73 -3.53269 -3.67833 0
M  V30 13528 H 1388 -1.39558 0.227499 0
M  V30 13529 P 1386.57 -8.03563 3.84925 0
M  V30 13530 O 1386.35 -8.85821 5.0569 0
M  V30 13531 O 1385.78 -8.41101 2.65469 0
M  V30 13532 O 1386.32 -6.4965 4.18908 0
M  V30 13533 C 1387.26 -5.81037 5.05421 0
M  V30 13534 C 1386.53 -4.78366 5.89277 0
M  V30 13535 O 1386.32 -3.58302 5.08433 0
M  V30 13536 C 1385.13 -5.17448 6.36119 0
M  V30 13537 O 1384.74 -4.45271 7.53232 0
M  V30 13538 C 1384.25 -4.74639 5.19936 0
M  V30 13539 C 1384.96 -3.49432 4.70418 0
M  V30 13540 N 1384.91 -3.31776 3.22945 0
M  V30 13541 H 1387.75 -6.54213 5.71376 0
M  V30 13542 H 1388.02 -5.30492 4.44033 0
M  V30 13543 H 1387.15 -4.55889 6.76652 0
M  V30 13544 P 1383.19 -4.23843 7.83734 0
M  V30 13545 O 1382.97 -4.19407 9.29784 0
M  V30 13546 O 1382.4 -5.24426 7.09156 0
M  V30 13547 O 1382.94 -2.79386 7.20852 0
M  V30 13548 C 1383.88 -1.7299 7.50419 0
M  V30 13549 C 1383.15 -0.41401 7.5797 0
M  V30 13550 O 1382.94 0.089787 6.22035 0
M  V30 13551 C 1381.75 -0.447224 8.1878 0
M  V30 13552 O 1381.36 0.825159 8.71201 0
M  V30 13553 C 1380.87 -0.783801 6.99623 0
M  V30 13554 C 1381.58 -0.0619192 5.85967 0
M  V30 13555 N 1381.53 -0.7859 4.56281 0
M  V30 13556 C 1381.38 -0.0359258 3.39981 0
M  V30 13557 O 1381.29 1.19723 3.49038 0
M  V30 13558 N 1381.33 -0.869151 2.14025 0
M  V30 13559 C 1381.43 -2.01207 2.14363 0
M  V30 13560 N 1381.38 -2.58978 0.954287 0
M  V30 13561 C 1381.58 -2.80817 3.32215 0
M  V30 13562 C 1381.63 -2.13785 4.50884 0
M  V30 13563 H 1384.37 -1.93401 8.46693 0
M  V30 13564 H 1384.64 -1.68181 6.71046 0
M  V30 13565 H 1383.77 0.289076 8.15488 0
M  V30 13566 H 1381.12 0.927166 5.72947 0
M  V30 13567 H 1380.84 -1.87 6.82132 0
M  V30 13568 H 1379.85 -0.404009 7.13457 0
M  V30 13569 H 1381.68 -1.20599 8.97534 0
M  V30 13570 H 1381.75 -2.70295 5.43162 0
M  V30 13571 H 1381.65 -3.89465 3.27406 0
M  V30 13572 H 1381.26 -2.01616 0.107046 0
M  V30 13573 H 1381.46 -3.61403 0.873101 0
M  V30 13574 P 1379.81 1.17771 8.83182 0
M  V30 13575 O 1379.59 2.07206 9.98732 0
M  V30 13576 O 1379.02 -0.0743816 8.81969 0
M  V30 13577 O 1379.56 1.97652 7.47304 0
M  V30 13578 C 1380.5 3.01133 7.08783 0
M  V30 13579 C 1379.77 4.12613 6.37049 0
M  V30 13580 O 1379.56 3.72827 4.97879 0
M  V30 13581 C 1378.37 4.45085 6.88694 0
M  V30 13582 O 1377.98 5.7877 6.5624 0
M  V30 13583 C 1377.49 3.47817 6.12078 0
M  V30 13584 C 1378.2 3.39414 4.77697 0
M  V30 13585 N 1378.15 2.04615 4.15333 0
M  V30 13586 H 1380.99 3.41248 7.98759 0
M  V30 13587 H 1381.26 2.5837 6.41742 0
M  V30 13588 H 1380.39 5.02657 6.42673 0
M  V30 13589 P 1376.43 6.144 6.45285 0
M  V30 13590 O 1376.21 7.54673 6.86199 0
M  V30 13591 O 1375.64 5.12391 7.179 0
M  V30 13592 O 1376.18 5.99158 4.88404 0
M  V30 13593 C 1377.12 6.60234 3.96415 0
M  V30 13594 C 1376.39 7.08259 2.72856 0
M  V30 13595 O 1376.18 5.9427 1.83651 0
M  V30 13596 C 1374.99 7.64886 2.9555 0
M  V30 13597 O 1374.6 8.53963 1.90717 0
M  V30 13598 C 1374.11 6.4116 2.90739 0
M  V30 13599 C 1374.82 5.55375 1.86963 0
M  V30 13600 N 1374.77 4.09448 2.16152 0
M  V30 13601 H 1377.61 7.45574 4.45629 0
M  V30 13602 H 1377.88 5.85864 3.679 0
M  V30 13603 H 1377.01 7.84412 2.24479 0
M  V30 13604 H 1374.36 5.73457 0.888562 0
M  V30 13605 H 1374.08 5.90877 3.88583 0
M  V30 13606 H 1373.09 6.6596 2.58858 0
M  V30 13607 H 1374.92 8.16339 3.92049 0
M  V30 13608 P 1373.05 8.7635 1.60911 0
M  V30 13609 O 1372.83 10.1388 1.11561 0
M  V30 13610 O 1372.26 8.36503 2.79617 0
M  V30 13611 O 1372.8 7.71806 0.42951 0
M  V30 13612 C 1373.74 7.66948 -0.673514 0
M  V30 13613 C 1373.01 7.33374 -1.95559 0
M  V30 13614 O 1372.8 5.88721 -2.00726 0
M  V30 13615 C 1371.61 7.92218 -2.1125 0
M  V30 13616 O 1371.22 8.02971 -3.47653 0
M  V30 13617 C 1370.73 6.89504 -1.41631 0
M  V30 13618 C 1371.44 5.59106 -1.75155 0
M  V30 13619 N 1371.39 4.58136 -0.662409 0
M  V30 13620 C 1371.24 3.26059 -1.02863 0
M  V30 13621 O 1371.15 2.90743 -2.19009 0
M  V30 13622 N 1371.2 2.35995 0.0155585 0
M  V30 13623 C 1371.29 2.65248 1.35603 0
M  V30 13624 O 1371.24 1.75605 2.20651 0
M  V30 13625 C 1371.44 4.05747 1.64698 0
M  V30 13626 C 1371.55 4.42345 3.09553 0
M  V30 13627 C 1371.49 4.96734 0.652411 0
M  V30 13628 H 1374.23 8.64917 -0.776982 0
M  V30 13629 H 1374.5 6.89974 -0.474015 0
M  V30 13630 H 1373.63 7.66548 -2.79458 0
M  V30 13631 H 1370.98 5.16076 -2.65138 0
M  V30 13632 H 1370.7 7.06433 -0.329384 0
M  V30 13633 H 1369.71 6.90829 -1.81996 0
M  V30 13634 H 1371.54 8.90774 -1.62639 0
M  V30 13635 H 1371.61 6.02181 0.895285 0
M  V30 13636 H 1370.58 4.80252 3.45468 0
M  V30 13637 H 1372.32 5.20015 3.22119 0
M  V30 13638 H 1371.83 3.53269 3.67833 0
M  V30 13639 H 1371.1 1.39558 -0.227499 0
M  V30 13640 P 1369.67 8.03563 -3.84925 0
M  V30 13641 O 1369.45 8.85821 -5.0569 0
M  V30 13642 O 1368.88 8.41101 -2.65469 0
M  V30 13643 O 1369.42 6.4965 -4.18908 0
M  V30 13644 C 1370.36 5.81037 -5.05421 0
M  V30 13645 C 1369.63 4.78366 -5.89277 0
M  V30 13646 O 1369.42 3.58302 -5.08433 0
M  V30 13647 C 1368.23 5.17448 -6.36119 0
M  V30 13648 O 1367.84 4.45271 -7.53232 0
M  V30 13649 C 1367.35 4.74639 -5.19936 0
M  V30 13650 C 1368.06 3.49432 -4.70418 0
M  V30 13651 N 1368.01 3.31776 -3.22945 0
M  V30 13652 H 1370.85 6.54213 -5.71376 0
M  V30 13653 H 1371.12 5.30492 -4.44033 0
M  V30 13654 H 1370.25 4.55889 -6.76652 0
M  V30 13655 P 1366.29 4.23843 -7.83734 0
M  V30 13656 O 1366.07 4.19407 -9.29784 0
M  V30 13657 O 1365.5 5.24426 -7.09156 0
M  V30 13658 O 1366.04 2.7935 -7.20758 0
M  V30 13659 C 1366.98 1.7299 -7.50419 0
M  V30 13660 C 1366.25 0.406376 -7.57911 0
M  V30 13661 O 1366.04 -0.0897726 -6.21935 0
M  V30 13662 C 1364.85 0.447224 -8.1878 0
M  V30 13663 O 1364.46 -0.825065 -8.71101 0
M  V30 13664 C 1363.97 0.783801 -6.99623 0
M  V30 13665 C 1364.68 0.0619192 -5.85967 0
M  V30 13666 N 1364.63 0.790462 -4.56202 0
M  V30 13667 H 1367.47 1.93423 -8.4679 0
M  V30 13668 H 1367.74 1.68852 -6.70877 0
M  V30 13669 H 1366.87 -0.289041 -8.15388 0
M  V30 13670 H 1364.22 -0.927006 -5.72848 0
M  V30 13671 H 1363.94 1.86973 -6.82036 0
M  V30 13672 H 1362.95 0.403953 -7.13357 0
M  V30 13673 H 1364.78 1.20599 -8.97534 0
M  V30 13674 P 1362.91 -1.17771 -8.83182 0
M  V30 13675 O 1362.69 -2.07206 -9.98732 0
M  V30 13676 O 1362.12 0.0743816 -8.81969 0
M  V30 13677 O 1362.66 -1.97652 -7.47304 0
M  V30 13678 C 1363.6 -3.01133 -7.08783 0
M  V30 13679 C 1362.87 -4.12613 -6.37049 0
M  V30 13680 O 1362.66 -3.72827 -4.97879 0
M  V30 13681 C 1361.47 -4.45085 -6.88694 0
M  V30 13682 O 1361.08 -5.7877 -6.5624 0
M  V30 13683 C 1360.59 -3.47817 -6.12078 0
M  V30 13684 C 1361.3 -3.39414 -4.77697 0
M  V30 13685 N 1361.25 -2.04615 -4.15333 0
M  V30 13686 C 1361.33 -0.803897 -4.75249 0
M  V30 13687 N 1361.25 0.197615 -3.91502 0
M  V30 13688 C 1361.11 -0.413002 -2.66823 0
M  V30 13689 C 1360.98 0.157221 -1.38007 0
M  V30 13690 O 1360.96 1.34419 -1.057 0
M  V30 13691 N 1360.86 -0.833136 -0.390236 0
M  V30 13692 C 1360.86 -2.19402 -0.623885 0
M  V30 13693 N 1360.73 -2.97622 0.449677 0
M  V30 13694 N 1360.99 -2.73005 -1.83601 0
M  V30 13695 C 1361.11 -1.78786 -2.80935 0
M  V30 13696 H 1364.09 -3.41248 -7.98759 0
M  V30 13697 H 1364.36 -2.5837 -6.41742 0
M  V30 13698 H 1363.49 -5.02657 -6.42673 0
M  V30 13699 H 1360.84 -4.11779 -4.09026 0
M  V30 13700 H 1360.56 -2.49661 -6.61772 0
M  V30 13701 H 1359.57 -3.86674 -6.00946 0
M  V30 13702 H 1361.4 -4.30038 -7.97094 0
M  V30 13703 H 1361.45 -0.670579 -5.82754 0
M  V30 13704 H 1360.77 -0.528446 0.557287 0
M  V30 13705 H 1360.73 -4.00117 0.344773 0
M  V30 13706 H 1360.63 -2.55448 1.38544 0
M  V30 13707 P 1359.53 -6.144 -6.45285 0
M  V30 13708 O 1359.31 -7.54673 -6.86199 0
M  V30 13709 O 1358.74 -5.12391 -7.179 0
M  V30 13710 O 1359.28 -5.99158 -4.88404 0
M  V30 13711 C 1360.22 -6.60234 -3.96415 0
M  V30 13712 C 1359.49 -7.08259 -2.72856 0
M  V30 13713 O 1359.28 -5.9427 -1.83651 0
M  V30 13714 C 1358.09 -7.64886 -2.9555 0
M  V30 13715 O 1357.7 -8.53963 -1.90717 0
M  V30 13716 C 1357.21 -6.4116 -2.90739 0
M  V30 13717 C 1357.92 -5.55375 -1.86963 0
M  V30 13718 N 1357.87 -4.09664 -2.15742 0
M  V30 13719 H 1360.71 -7.45574 -4.45629 0
M  V30 13720 H 1360.98 -5.86232 -3.67314 0
M  V30 13721 H 1360.11 -7.84412 -2.24479 0
M  V30 13722 P 1356.15 -8.7635 -1.60911 0
M  V30 13723 O 1355.93 -10.1388 -1.11561 0
M  V30 13724 O 1355.36 -8.36503 -2.79617 0
M  V30 13725 O 1355.9 -7.71806 -0.42951 0
M  V30 13726 C 1356.84 -7.67148 0.673689 0
M  V30 13727 C 1356.11 -7.33374 1.95559 0
M  V30 13728 O 1355.9 -5.88721 2.00726 0
M  V30 13729 C 1354.71 -7.92526 2.10483 0
M  V30 13730 O 1354.32 -8.02971 3.47653 0
M  V30 13731 C 1353.83 -6.89602 1.41652 0
M  V30 13732 C 1354.54 -5.59201 1.75185 0
M  V30 13733 N 1354.49 -4.58235 0.662552 0
M  V30 13734 H 1357.33 -8.65116 0.777161 0
M  V30 13735 H 1357.6 -6.90173 0.474152 0
M  V30 13736 H 1356.73 -7.66548 2.79458 0
M  V30 13737 P 1352.77 -8.03563 3.84925 0
M  V30 13738 O 1352.55 -8.85821 5.0569 0
M  V30 13739 O 1351.98 -8.41101 2.65469 0
M  V30 13740 O 1352.52 -6.4965 4.18908 0
M  V30 13741 C 1353.46 -5.81037 5.05421 0
M  V30 13742 C 1352.73 -4.78366 5.89277 0
M  V30 13743 O 1352.52 -3.58302 5.08433 0
M  V30 13744 C 1351.33 -5.17448 6.36119 0
M  V30 13745 O 1350.94 -4.45271 7.53232 0
M  V30 13746 C 1350.45 -4.74639 5.19936 0
M  V30 13747 C 1351.16 -3.49432 4.70418 0
M  V30 13748 N 1351.11 -3.31776 3.22945 0
M  V30 13749 H 1353.95 -6.54213 5.71376 0
M  V30 13750 H 1354.22 -5.30492 4.44033 0
M  V30 13751 H 1353.36 -4.55889 6.76652 0
M  V30 13752 P 1349.39 -4.23843 7.83734 0
M  V30 13753 O 1349.17 -4.19407 9.29784 0
M  V30 13754 O 1348.6 -5.24426 7.09156 0
M  V30 13755 O 1349.14 -2.7935 7.20758 0
M  V30 13756 C 1350.08 -1.7299 7.50419 0
M  V30 13757 C 1349.35 -0.406376 7.57911 0
M  V30 13758 O 1349.14 0.0897726 6.21935 0
M  V30 13759 C 1347.95 -0.447224 8.1878 0
M  V30 13760 O 1347.56 0.825065 8.71101 0
M  V30 13761 C 1347.07 -0.783801 6.99623 0
M  V30 13762 C 1347.78 -0.0619192 5.85967 0
M  V30 13763 N 1347.73 -0.7859 4.56281 0
M  V30 13764 H 1350.57 -1.93423 8.4679 0
M  V30 13765 H 1350.84 -1.68181 6.71046 0
M  V30 13766 H 1349.98 0.289041 8.15388 0
M  V30 13767 P 1346.01 1.17771 8.83182 0
M  V30 13768 O 1345.79 2.07206 9.98732 0
M  V30 13769 O 1345.22 -0.0743816 8.81969 0
M  V30 13770 O 1345.76 1.97678 7.474 0
M  V30 13771 C 1346.7 3.01133 7.08783 0
M  V30 13772 C 1345.97 4.1203 6.37546 0
M  V30 13773 O 1345.76 3.72887 4.9796 0
M  V30 13774 C 1344.57 4.45085 6.88694 0
M  V30 13775 O 1344.18 5.78836 6.56315 0
M  V30 13776 C 1343.69 3.47817 6.12078 0
M  V30 13777 C 1344.4 3.39414 4.77697 0
M  V30 13778 N 1344.35 2.04615 4.15333 0
M  V30 13779 C 1344.2 1.96929 2.77162 0
M  V30 13780 O 1344.11 3.02017 2.12006 0
M  V30 13781 N 1344.15 0.55485 2.24237 0
M  V30 13782 C 1344.25 -0.367808 2.9169 0
M  V30 13783 N 1344.2 -1.53426 2.29427 0
M  V30 13784 C 1344.4 -0.319148 4.33828 0
M  V30 13785 C 1344.45 0.920672 4.90433 0
M  V30 13786 H 1347.19 3.41209 7.98667 0
M  V30 13787 H 1347.46 2.5837 6.41742 0
M  V30 13788 H 1346.6 5.02718 6.42752 0
M  V30 13789 H 1343.94 4.11779 4.09026 0
M  V30 13790 H 1343.66 2.49661 6.61772 0
M  V30 13791 H 1342.67 3.86674 6.00946 0
M  V30 13792 H 1344.5 4.29991 7.97006 0
M  V30 13793 H 1344.58 1.00589 5.98303 0
M  V30 13794 H 1344.47 -1.22639 4.93799 0
M  V30 13795 H 1344.09 -1.56819 1.27167 0
M  V30 13796 H 1344.28 -2.41062 2.83063 0
M  V30 13797 P 1342.63 6.144 6.45285 0
M  V30 13798 O 1342.41 7.54673 6.86199 0
M  V30 13799 O 1341.84 5.12391 7.179 0
M  V30 13800 O 1342.38 5.99158 4.88404 0
M  V30 13801 C 1343.32 6.60234 3.96415 0
M  V30 13802 C 1342.59 7.08259 2.72856 0
M  V30 13803 O 1342.38 5.9427 1.83651 0
M  V30 13804 C 1341.19 7.64886 2.9555 0
M  V30 13805 O 1340.8 8.53963 1.90717 0
M  V30 13806 C 1340.31 6.4116 2.90739 0
M  V30 13807 C 1341.02 5.55375 1.86963 0
M  V30 13808 N 1340.97 4.09664 2.15742 0
M  V30 13809 H 1343.81 7.45574 4.45629 0
M  V30 13810 H 1344.08 5.86232 3.67314 0
M  V30 13811 H 1343.22 7.84412 2.24479 0
M  V30 13812 P 1339.25 8.7635 1.60911 0
M  V30 13813 O 1339.03 10.1388 1.11561 0
M  V30 13814 O 1338.46 8.36503 2.79617 0
M  V30 13815 O 1339 7.71806 0.42951 0
M  V30 13816 C 1339.94 7.67148 -0.673689 0
M  V30 13817 C 1339.21 7.33374 -1.95559 0
M  V30 13818 O 1339 5.88721 -2.00726 0
M  V30 13819 C 1337.81 7.92526 -2.10483 0
M  V30 13820 O 1337.42 8.02971 -3.47653 0
M  V30 13821 C 1336.93 6.89602 -1.41652 0
M  V30 13822 C 1337.64 5.59201 -1.75185 0
M  V30 13823 N 1337.59 4.58235 -0.662552 0
M  V30 13824 H 1340.43 8.65116 -0.777161 0
M  V30 13825 H 1340.7 6.90173 -0.474152 0
M  V30 13826 H 1339.84 7.66548 -2.79458 0
M  V30 13827 P 1335.87 8.03563 -3.84925 0
M  V30 13828 O 1335.65 8.85821 -5.0569 0
M  V30 13829 O 1335.08 8.41101 -2.65469 0
M  V30 13830 O 1335.62 6.4965 -4.18908 0
M  V30 13831 C 1336.56 5.81037 -5.05421 0
M  V30 13832 C 1335.83 4.78366 -5.89277 0
M  V30 13833 O 1335.62 3.58302 -5.08433 0
M  V30 13834 C 1334.43 5.17448 -6.36119 0
M  V30 13835 O 1334.04 4.45271 -7.53232 0
M  V30 13836 C 1333.55 4.74639 -5.19936 0
M  V30 13837 C 1334.26 3.49432 -4.70418 0
M  V30 13838 N 1334.21 3.31776 -3.22945 0
M  V30 13839 H 1337.05 6.54213 -5.71376 0
M  V30 13840 H 1337.32 5.30492 -4.44033 0
M  V30 13841 H 1336.46 4.55889 -6.76652 0
M  V30 13842 P 1332.49 4.23843 -7.83734 0
M  V30 13843 O 1332.27 4.19407 -9.29784 0
M  V30 13844 O 1331.7 5.24426 -7.09156 0
M  V30 13845 O 1332.24 2.7935 -7.20758 0
M  V30 13846 C 1333.18 1.7299 -7.50419 0
M  V30 13847 C 1332.45 0.406376 -7.57911 0
M  V30 13848 O 1332.24 -0.0897726 -6.21935 0
M  V30 13849 C 1331.05 0.447224 -8.1878 0
M  V30 13850 O 1330.66 -0.825065 -8.71101 0
M  V30 13851 C 1330.17 0.783801 -6.99623 0
M  V30 13852 C 1330.88 0.0619192 -5.85967 0
M  V30 13853 N 1330.83 0.7859 -4.56281 0
M  V30 13854 H 1333.67 1.93423 -8.4679 0
M  V30 13855 H 1333.94 1.68181 -6.71046 0
M  V30 13856 H 1333.08 -0.289041 -8.15388 0
M  V30 13857 P 1329.11 -1.17771 -8.83182 0
M  V30 13858 O 1328.89 -2.07206 -9.98732 0
M  V30 13859 O 1328.32 0.0743816 -8.81969 0
M  V30 13860 O 1328.86 -1.97652 -7.47304 0
M  V30 13861 C 1329.8 -3.01055 -7.08599 0
M  V30 13862 C 1329.07 -4.12613 -6.37049 0
M  V30 13863 O 1328.86 -3.72827 -4.97879 0
M  V30 13864 C 1327.67 -4.45719 -6.88164 0
M  V30 13865 O 1327.28 -5.7877 -6.5624 0
M  V30 13866 C 1326.79 -3.47768 -6.11991 0
M  V30 13867 C 1327.5 -3.39356 -4.77615 0
M  V30 13868 N 1327.45 -2.04571 -4.15244 0
M  V30 13869 C 1327.3 -1.98587 -2.78314 0
M  V30 13870 O 1327.21 -2.98134 -2.08835 0
M  V30 13871 N 1327.26 -0.714467 -2.24925 0
M  V30 13872 C 1327.35 0.470001 -2.94169 0
M  V30 13873 O 1327.3 1.55587 -2.35195 0
M  V30 13874 C 1327.5 0.312541 -4.36783 0
M  V30 13875 C 1327.61 1.57711 -5.16352 0
M  V30 13876 C 1327.55 -0.914512 -4.92583 0
M  V30 13877 H 1330.29 -3.41169 -7.98575 0
M  V30 13878 H 1330.56 -2.58295 -6.41556 0
M  V30 13879 H 1329.7 -5.02657 -6.42673 0
M  V30 13880 H 1327.04 -4.11637 -4.08885 0
M  V30 13881 H 1326.76 -2.49626 -6.61679 0
M  V30 13882 H 1325.77 -3.86566 -6.00778 0
M  V30 13883 H 1327.6 -4.29943 -7.96918 0
M  V30 13884 H 1327.67 -1.00937 -6.00374 0
M  V30 13885 H 1326.64 1.80153 -5.63503 0
M  V30 13886 H 1328.38 1.4566 -5.94104 0
M  V30 13887 H 1327.89 2.40664 -4.49645 0
M  V30 13888 H 1327.16 -0.647622 -1.25697 0
M  V30 13889 P 1325.73 -6.144 -6.45285 0
M  V30 13890 O 1325.51 -7.54673 -6.86199 0
M  V30 13891 O 1324.94 -5.12391 -7.179 0
M  V30 13892 O 1325.48 -5.99158 -4.88404 0
M  V30 13893 C 1326.42 -6.60062 -3.96313 0
M  V30 13894 C 1325.69 -7.08259 -2.72856 0
M  V30 13895 O 1325.48 -5.9427 -1.83651 0
M  V30 13896 C 1324.29 -7.65087 -2.94749 0
M  V30 13897 O 1323.9 -8.53963 -1.90717 0
M  V30 13898 C 1323.41 -6.41069 -2.90698 0
M  V30 13899 C 1324.12 -5.5528 -1.86931 0
M  V30 13900 N 1324.07 -4.09575 -2.15696 0
M  V30 13901 C 1323.92 -3.24249 -1.08435 0
M  V30 13902 O 1323.83 -3.63946 0.0628747 0
M  V30 13903 N 1323.88 -1.90009 -1.39973 0
M  V30 13904 C 1323.97 -1.34884 -2.65614 0
M  V30 13905 O 1323.92 -0.123716 -2.81728 0
M  V30 13906 C 1324.12 -2.3145 -3.71736 0
M  V30 13907 C 1324.23 -1.75913 -5.10438 0
M  V30 13908 C 1324.17 -3.63518 -3.44754 0
M  V30 13909 H 1326.91 -7.45402 -4.45526 0
M  V30 13910 H 1327.18 -5.86062 -3.67208 0
M  V30 13911 H 1326.32 -7.84412 -2.24479 0
M  V30 13912 H 1323.66 -5.73358 -0.888409 0
M  V30 13913 H 1323.38 -5.90877 -3.88583 0
M  V30 13914 H 1322.39 -6.65867 -2.58821 0
M  V30 13915 H 1324.22 -8.16248 -3.92006 0
M  V30 13916 H 1324.29 -4.34551 -4.26383 0
M  V30 13917 H 1323.26 -1.85471 -5.61775 0
M  V30 13918 H 1325 -2.31364 -5.66257 0
M  V30 13919 H 1324.51 -0.695936 -5.05229 0
M  V30 13920 H 1323.78 -1.26277 -0.63625 0
M  V30 13921 P 1322.35 -8.7635 -1.60911 0
M  V30 13922 O 1322.13 -10.1388 -1.11561 0
M  V30 13923 O 1321.56 -8.36503 -2.79617 0
M  V30 13924 O 1322.1 -7.71806 -0.42951 0
M  V30 13925 C 1323.04 -7.66948 0.673514 0
M  V30 13926 C 1322.31 -7.33374 1.95559 0
M  V30 13927 O 1322.1 -5.88721 2.00726 0
M  V30 13928 C 1320.91 -7.92218 2.1125 0
M  V30 13929 O 1320.52 -8.02971 3.47653 0
M  V30 13930 C 1320.03 -6.89504 1.41631 0
M  V30 13931 C 1320.74 -5.59106 1.75155 0
M  V30 13932 N 1320.69 -4.58136 0.662409 0
M  V30 13933 C 1320.54 -3.26059 1.02863 0
M  V30 13934 O 1320.45 -2.90743 2.19009 0
M  V30 13935 N 1320.5 -2.35995 -0.0155585 0
M  V30 13936 C 1320.59 -2.65248 -1.35603 0
M  V30 13937 C 1320.74 -4.05747 -1.64698 0
M  V30 13938 C 1320.79 -4.96734 -0.652411 0
M  V30 13939 H 1323.53 -8.64917 0.776982 0
M  V30 13940 H 1323.8 -6.89974 0.474015 0
M  V30 13941 H 1322.94 -7.66548 2.79458 0
M  V30 13942 H 1320.28 -5.16076 2.65138 0
M  V30 13943 H 1320 -7.06433 0.329384 0
M  V30 13944 H 1319.01 -6.90829 1.81996 0
M  V30 13945 H 1320.84 -8.90774 1.62639 0
M  V30 13946 H 1320.91 -6.02181 -0.895285 0
M  V30 13947 P 1318.97 -8.03563 3.84925 0
M  V30 13948 O 1318.75 -8.85821 5.0569 0
M  V30 13949 O 1318.18 -8.41101 2.65469 0
M  V30 13950 O 1318.72 -6.4965 4.18908 0
M  V30 13951 C 1319.66 -5.81037 5.05421 0
M  V30 13952 C 1318.93 -4.78366 5.89277 0
M  V30 13953 O 1318.72 -3.58302 5.08433 0
M  V30 13954 C 1317.53 -5.17448 6.36119 0
M  V30 13955 O 1317.14 -4.45271 7.53232 0
M  V30 13956 C 1316.65 -4.74639 5.19936 0
M  V30 13957 C 1317.36 -3.49432 4.70418 0
M  V30 13958 N 1317.31 -3.31776 3.22945 0
M  V30 13959 H 1320.15 -6.54213 5.71376 0
M  V30 13960 H 1320.42 -5.30492 4.44033 0
M  V30 13961 H 1319.56 -4.55889 6.76652 0
M  V30 13962 P 1315.59 -4.23843 7.83734 0
M  V30 13963 O 1315.37 -4.19407 9.29784 0
M  V30 13964 O 1314.8 -5.24426 7.09156 0
M  V30 13965 O 1315.34 -2.7935 7.20758 0
M  V30 13966 C 1316.28 -1.7299 7.50419 0
M  V30 13967 C 1315.55 -0.406376 7.57911 0
M  V30 13968 O 1315.34 0.0897726 6.21935 0
M  V30 13969 C 1314.15 -0.447224 8.1878 0
M  V30 13970 O 1313.76 0.825065 8.71101 0
M  V30 13971 C 1313.27 -0.783801 6.99623 0
M  V30 13972 C 1313.98 -0.0619192 5.85967 0
M  V30 13973 N 1313.93 -0.790462 4.56202 0
M  V30 13974 H 1316.77 -1.93423 8.4679 0
M  V30 13975 H 1317.04 -1.68852 6.70877 0
M  V30 13976 H 1316.18 0.289041 8.15388 0
M  V30 13977 H 1313.52 0.927006 5.72848 0
M  V30 13978 H 1313.24 -1.86973 6.82036 0
M  V30 13979 H 1312.25 -0.403953 7.13357 0
M  V30 13980 H 1314.08 -1.20599 8.97534 0
M  V30 13981 P 1312.21 1.17771 8.83182 0
M  V30 13982 O 1311.99 2.07206 9.98732 0
M  V30 13983 O 1311.42 -0.0743816 8.81969 0
M  V30 13984 O 1311.96 1.97652 7.47304 0
M  V30 13985 C 1312.9 3.01055 7.08599 0
M  V30 13986 C 1312.17 4.12613 6.37049 0
M  V30 13987 O 1311.96 3.72827 4.97879 0
M  V30 13988 C 1310.77 4.45719 6.88164 0
M  V30 13989 O 1310.38 5.7877 6.5624 0
M  V30 13990 C 1309.89 3.47768 6.11991 0
M  V30 13991 C 1310.6 3.39356 4.77615 0
M  V30 13992 N 1310.55 2.04571 4.15244 0
M  V30 13993 C 1310.4 1.98587 2.78314 0
M  V30 13994 O 1310.31 2.98134 2.08835 0
M  V30 13995 N 1310.36 0.714467 2.24925 0
M  V30 13996 C 1310.45 -0.470001 2.94169 0
M  V30 13997 C 1310.6 -0.312541 4.36783 0
M  V30 13998 C 1310.65 0.914512 4.92583 0
M  V30 13999 H 1313.39 3.41169 7.98575 0
M  V30 14000 H 1313.66 2.58295 6.41556 0
M  V30 14001 H 1312.8 5.02657 6.42673 0
M  V30 14002 H 1310.14 4.11637 4.08885 0
M  V30 14003 H 1309.86 2.49626 6.61679 0
M  V30 14004 H 1308.87 3.86566 6.00778 0
M  V30 14005 H 1310.7 4.29943 7.96918 0
M  V30 14006 H 1310.77 1.00937 6.00374 0
M  V30 14007 P 1308.83 6.144 6.45285 0
M  V30 14008 O 1308.61 7.54673 6.86199 0
M  V30 14009 O 1308.04 5.12391 7.179 0
M  V30 14010 O 1308.58 5.99158 4.88404 0
M  V30 14011 C 1309.52 6.60234 3.96415 0
M  V30 14012 C 1308.79 7.08259 2.72856 0
M  V30 14013 O 1308.58 5.9427 1.83651 0
M  V30 14014 C 1307.39 7.64886 2.9555 0
M  V30 14015 O 1307 8.53963 1.90717 0
M  V30 14016 C 1306.51 6.4116 2.90739 0
M  V30 14017 C 1307.22 5.55375 1.86963 0
M  V30 14018 N 1307.17 4.09664 2.15742 0
M  V30 14019 H 1310.01 7.45574 4.45629 0
M  V30 14020 H 1310.28 5.86232 3.67314 0
M  V30 14021 H 1309.42 7.84412 2.24479 0
M  V30 14022 P 1305.45 8.7635 1.60911 0
M  V30 14023 O 1305.23 10.1388 1.11561 0
M  V30 14024 O 1304.66 8.36503 2.79617 0
M  V30 14025 O 1305.2 7.71806 0.42951 0
M  V30 14026 C 1306.14 7.67148 -0.673689 0
M  V30 14027 C 1305.41 7.33374 -1.95559 0
M  V30 14028 O 1305.2 5.88721 -2.00726 0
M  V30 14029 C 1304.01 7.92526 -2.10483 0
M  V30 14030 O 1303.62 8.02971 -3.47653 0
M  V30 14031 C 1303.13 6.89602 -1.41652 0
M  V30 14032 C 1303.84 5.59201 -1.75185 0
M  V30 14033 N 1303.79 4.58235 -0.662552 0
M  V30 14034 H 1306.63 8.65116 -0.777161 0
M  V30 14035 H 1306.9 6.90173 -0.474152 0
M  V30 14036 H 1306.04 7.66548 -2.79458 0
M  V30 14037 P 1302.07 8.03563 -3.84925 0
M  V30 14038 O 1301.85 8.85821 -5.0569 0
M  V30 14039 O 1301.28 8.41101 -2.65469 0
M  V30 14040 O 1301.82 6.4965 -4.18908 0
M  V30 14041 C 1302.76 5.81037 -5.05421 0
M  V30 14042 C 1302.03 4.78366 -5.89277 0
M  V30 14043 O 1301.82 3.58302 -5.08433 0
M  V30 14044 C 1300.63 5.17448 -6.36119 0
M  V30 14045 O 1300.24 4.45271 -7.53232 0
M  V30 14046 C 1299.75 4.74639 -5.19936 0
M  V30 14047 C 1300.46 3.49432 -4.70418 0
M  V30 14048 N 1300.41 3.31776 -3.22945 0
M  V30 14049 C 1300.49 4.27147 -2.23315 0
M  V30 14050 N 1300.41 3.78447 -1.02186 0
M  V30 14051 C 1300.27 2.41001 -1.21732 0
M  V30 14052 C 1300.14 1.36111 -0.27694 0
M  V30 14053 N 1300.02 0.113683 -0.912949 0
M  V30 14054 C 1300.02 -0.0846396 -2.27943 0
M  V30 14055 N 1299.89 -1.34737 -2.6916 0
M  V30 14056 N 1300.15 0.902521 -3.16379 0
M  V30 14057 C 1300.27 2.11937 -2.56849 0
M  V30 14058 H 1303.25 6.54213 -5.71376 0
M  V30 14059 H 1303.52 5.30492 -4.44033 0
M  V30 14060 H 1302.66 4.55889 -6.76652 0
M  V30 14061 P 1298.69 4.23843 -7.83734 0
M  V30 14062 O 1298.47 4.19407 -9.29784 0
M  V30 14063 O 1297.9 5.24426 -7.09156 0
M  V30 14064 O 1298.44 2.7935 -7.20758 0
M  V30 14065 C 1299.38 1.7299 -7.50419 0
M  V30 14066 C 1298.65 0.406376 -7.57911 0
M  V30 14067 O 1298.44 -0.0897726 -6.21935 0
M  V30 14068 C 1297.25 0.447224 -8.1878 0
M  V30 14069 O 1296.86 -0.825065 -8.71101 0
M  V30 14070 C 1296.37 0.783801 -6.99623 0
M  V30 14071 C 1297.08 0.0619192 -5.85967 0
M  V30 14072 N 1297.03 0.7859 -4.56281 0
M  V30 14073 H 1299.87 1.93423 -8.4679 0
M  V30 14074 H 1300.14 1.68181 -6.71046 0
M  V30 14075 H 1299.28 -0.289041 -8.15388 0
M  V30 14076 P 1295.31 -1.17771 -8.83182 0
M  V30 14077 O 1295.09 -2.07206 -9.98732 0
M  V30 14078 O 1294.52 0.0743816 -8.81969 0
M  V30 14079 O 1295.06 -1.97652 -7.47304 0
M  V30 14080 C 1296 -3.01133 -7.08783 0
M  V30 14081 C 1295.27 -4.12613 -6.37049 0
M  V30 14082 O 1295.06 -3.72827 -4.97879 0
M  V30 14083 C 1293.87 -4.45085 -6.88694 0
M  V30 14084 O 1293.48 -5.7877 -6.5624 0
M  V30 14085 C 1292.99 -3.47817 -6.12078 0
M  V30 14086 C 1293.7 -3.39414 -4.77697 0
M  V30 14087 N 1293.65 -2.04615 -4.15333 0
M  V30 14088 H 1296.49 -3.41248 -7.98759 0
M  V30 14089 H 1296.76 -2.5837 -6.41742 0
M  V30 14090 H 1295.9 -5.02657 -6.42673 0
M  V30 14091 P 1291.93 -6.144 -6.45285 0
M  V30 14092 O 1291.71 -7.54673 -6.86199 0
M  V30 14093 O 1291.14 -5.12391 -7.179 0
M  V30 14094 O 1291.68 -5.99158 -4.88404 0
M  V30 14095 C 1292.62 -6.60062 -3.96313 0
M  V30 14096 C 1291.89 -7.08259 -2.72856 0
M  V30 14097 O 1291.68 -5.9427 -1.83651 0
M  V30 14098 C 1290.49 -7.65087 -2.94749 0
M  V30 14099 O 1290.1 -8.53963 -1.90717 0
M  V30 14100 C 1289.61 -6.41069 -2.90698 0
M  V30 14101 C 1290.32 -5.5528 -1.86931 0
M  V30 14102 N 1290.27 -4.09575 -2.15696 0
M  V30 14103 C 1290.12 -3.24249 -1.08435 0
M  V30 14104 O 1290.03 -3.63946 0.0628747 0
M  V30 14105 N 1290.08 -1.90009 -1.39973 0
M  V30 14106 C 1290.17 -1.34884 -2.65614 0
M  V30 14107 C 1290.32 -2.3145 -3.71736 0
M  V30 14108 C 1290.37 -3.63518 -3.44754 0
M  V30 14109 H 1293.11 -7.45402 -4.45526 0
M  V30 14110 H 1293.38 -5.86062 -3.67208 0
M  V30 14111 H 1292.52 -7.84412 -2.24479 0
M  V30 14112 H 1289.86 -5.73358 -0.888409 0
M  V30 14113 H 1289.58 -5.90877 -3.88583 0
M  V30 14114 H 1288.59 -6.65867 -2.58821 0
M  V30 14115 H 1290.42 -8.16248 -3.92006 0
M  V30 14116 H 1290.49 -4.34551 -4.26383 0
M  V30 14117 P 1288.55 -8.7635 -1.60911 0
M  V30 14118 O 1288.33 -10.1388 -1.11561 0
M  V30 14119 O 1287.76 -8.36503 -2.79617 0
M  V30 14120 O 1288.3 -7.71806 -0.42951 0
M  V30 14121 C 1289.24 -7.67148 0.673689 0
M  V30 14122 C 1288.51 -7.33374 1.95559 0
M  V30 14123 O 1288.3 -5.88721 2.00726 0
M  V30 14124 C 1287.11 -7.92526 2.10483 0
M  V30 14125 O 1286.72 -8.02971 3.47653 0
M  V30 14126 C 1286.23 -6.89602 1.41652 0
M  V30 14127 C 1286.94 -5.59201 1.75185 0
M  V30 14128 N 1286.89 -4.58235 0.662552 0
M  V30 14129 H 1289.73 -8.65116 0.777161 0
M  V30 14130 H 1290 -6.90173 0.474152 0
M  V30 14131 H 1289.14 -7.66548 2.79458 0
M  V30 14132 P 1285.17 -8.03563 3.84925 0
M  V30 14133 O 1284.95 -8.85821 5.0569 0
M  V30 14134 O 1284.38 -8.41101 2.65469 0
M  V30 14135 O 1284.92 -6.4965 4.18908 0
M  V30 14136 C 1285.86 -5.81037 5.05421 0
M  V30 14137 C 1285.13 -4.78366 5.89277 0
M  V30 14138 O 1284.92 -3.58302 5.08433 0
M  V30 14139 C 1283.73 -5.17448 6.36119 0
M  V30 14140 O 1283.34 -4.45271 7.53232 0
M  V30 14141 C 1282.85 -4.74639 5.19936 0
M  V30 14142 C 1283.56 -3.49432 4.70418 0
M  V30 14143 N 1283.51 -3.31776 3.22945 0
M  V30 14144 H 1286.35 -6.54213 5.71376 0
M  V30 14145 H 1286.62 -5.30492 4.44033 0
M  V30 14146 H 1285.76 -4.55889 6.76652 0
M  V30 14147 P 1281.79 -4.23843 7.83734 0
M  V30 14148 O 1281.57 -4.19407 9.29784 0
M  V30 14149 O 1281 -5.24426 7.09156 0
M  V30 14150 O 1281.54 -2.7935 7.20758 0
M  V30 14151 C 1282.48 -1.7299 7.50419 0
M  V30 14152 C 1281.75 -0.406376 7.57911 0
M  V30 14153 O 1281.54 0.0897726 6.21935 0
M  V30 14154 C 1280.35 -0.447224 8.1878 0
M  V30 14155 O 1279.96 0.825065 8.71101 0
M  V30 14156 C 1279.47 -0.783801 6.99623 0
M  V30 14157 C 1280.18 -0.0619192 5.85967 0
M  V30 14158 N 1280.13 -0.7859 4.56281 0
M  V30 14159 C 1280.21 -2.14308 4.31736 0
M  V30 14160 N 1280.13 -2.46106 3.05116 0
M  V30 14161 C 1279.99 -1.23422 2.4014 0
M  V30 14162 C 1279.86 -0.938381 1.02409 0
M  V30 14163 N 1279.74 0.444647 0.805413 0
M  V30 14164 C 1279.74 1.40829 1.79435 0
M  V30 14165 N 1279.61 2.67213 1.38558 0
M  V30 14166 N 1279.87 1.12947 3.09005 0
M  V30 14167 C 1279.99 -0.204887 3.32369 0
M  V30 14168 H 1282.97 -1.93423 8.4679 0
M  V30 14169 H 1283.24 -1.68181 6.71046 0
M  V30 14170 H 1282.38 0.289041 8.15388 0
M  V30 14171 P 1278.41 1.17771 8.83182 0
M  V30 14172 O 1278.19 2.07206 9.98732 0
M  V30 14173 O 1277.62 -0.0743816 8.81969 0
M  V30 14174 O 1278.16 1.97652 7.47304 0
M  V30 14175 C 1279.1 3.01055 7.08599 0
M  V30 14176 C 1278.37 4.12613 6.37049 0
M  V30 14177 O 1278.16 3.72827 4.97879 0
M  V30 14178 C 1276.97 4.45719 6.88164 0
M  V30 14179 O 1276.58 5.7877 6.5624 0
M  V30 14180 C 1276.09 3.47768 6.11991 0
M  V30 14181 C 1276.8 3.39356 4.77615 0
M  V30 14182 N 1276.75 2.04571 4.15244 0
M  V30 14183 C 1276.6 1.98587 2.78314 0
M  V30 14184 O 1276.51 2.98134 2.08835 0
M  V30 14185 N 1276.56 0.714467 2.24925 0
M  V30 14186 C 1276.65 -0.470001 2.94169 0
M  V30 14187 O 1276.6 -1.55587 2.35195 0
M  V30 14188 C 1276.8 -0.312541 4.36783 0
M  V30 14189 C 1276.91 -1.57711 5.16352 0
M  V30 14190 C 1276.85 0.914512 4.92583 0
M  V30 14191 H 1279.59 3.41169 7.98575 0
M  V30 14192 H 1279.86 2.58295 6.41556 0
M  V30 14193 H 1279 5.02657 6.42673 0
M  V30 14194 H 1276.34 4.11637 4.08885 0
M  V30 14195 H 1276.06 2.49626 6.61679 0
M  V30 14196 H 1275.07 3.86566 6.00778 0
M  V30 14197 H 1276.9 4.29943 7.96918 0
M  V30 14198 H 1276.97 1.00937 6.00374 0
M  V30 14199 H 1275.94 -1.80153 5.63503 0
M  V30 14200 H 1277.68 -1.4566 5.94104 0
M  V30 14201 H 1277.19 -2.40664 4.49645 0
M  V30 14202 H 1276.46 0.647622 1.25697 0
M  V30 14203 P 1275.03 6.144 6.45285 0
M  V30 14204 O 1274.81 7.54673 6.86199 0
M  V30 14205 O 1274.24 5.12391 7.179 0
M  V30 14206 O 1274.78 5.99158 4.88404 0
M  V30 14207 C 1275.72 6.60234 3.96415 0
M  V30 14208 C 1274.99 7.08259 2.72856 0
M  V30 14209 O 1274.78 5.9427 1.83651 0
M  V30 14210 C 1273.59 7.64886 2.9555 0
M  V30 14211 O 1273.2 8.53963 1.90717 0
M  V30 14212 C 1272.71 6.4116 2.90739 0
M  V30 14213 C 1273.42 5.55375 1.86963 0
M  V30 14214 N 1273.37 4.09664 2.15742 0
M  V30 14215 H 1276.21 7.45574 4.45629 0
M  V30 14216 H 1276.48 5.86232 3.67314 0
M  V30 14217 H 1275.62 7.84412 2.24479 0
M  V30 14218 P 1271.65 8.7635 1.60911 0
M  V30 14219 O 1271.43 10.1388 1.11561 0
M  V30 14220 O 1270.86 8.36503 2.79617 0
M  V30 14221 O 1271.4 7.71906 0.429565 0
M  V30 14222 C 1272.34 7.67148 -0.673689 0
M  V30 14223 C 1271.61 7.33666 -1.94851 0
M  V30 14224 O 1271.4 5.88816 -2.00759 0
M  V30 14225 C 1270.21 7.92526 -2.10483 0
M  V30 14226 O 1269.82 8.03063 -3.47693 0
M  V30 14227 C 1269.33 6.89602 -1.41652 0
M  V30 14228 C 1270.04 5.59201 -1.75185 0
M  V30 14229 N 1269.99 4.58235 -0.662552 0
M  V30 14230 C 1269.84 3.24451 -1.01643 0
M  V30 14231 O 1269.75 2.94958 -2.21722 0
M  V30 14232 N 1269.79 2.30408 0.165238 0
M  V30 14233 C 1269.89 2.66048 1.25118 0
M  V30 14234 N 1269.84 1.70787 2.16813 0
M  V30 14235 C 1270.04 4.02732 1.64413 0
M  V30 14236 C 1270.09 4.9488 0.63991 0
M  V30 14237 H 1272.83 8.65017 -0.777072 0
M  V30 14238 H 1273.1 6.90173 -0.474152 0
M  V30 14239 H 1272.24 7.66642 -2.79492 0
M  V30 14240 H 1269.58 5.16254 -2.65229 0
M  V30 14241 H 1269.3 7.06532 -0.329431 0
M  V30 14242 H 1268.31 6.91023 -1.82047 0
M  V30 14243 H 1270.14 8.90873 -1.62657 0
M  V30 14244 H 1270.22 6.00104 0.892197 0
M  V30 14245 H 1270.11 4.31733 2.69229 0
M  V30 14246 H 1269.73 0.724835 1.8844 0
M  V30 14247 H 1269.92 1.94716 3.16734 0
M  V30 14248 P 1268.27 8.03563 -3.84925 0
M  V30 14249 O 1268.05 8.85821 -5.0569 0
M  V30 14250 O 1267.48 8.41101 -2.65469 0
M  V30 14251 O 1268.02 6.4965 -4.18908 0
M  V30 14252 C 1268.96 5.81037 -5.05421 0
M  V30 14253 C 1268.23 4.78366 -5.89277 0
M  V30 14254 O 1268.02 3.58302 -5.08433 0
M  V30 14255 C 1266.83 5.17448 -6.36119 0
M  V30 14256 O 1266.44 4.45271 -7.53232 0
M  V30 14257 C 1265.95 4.74639 -5.19936 0
M  V30 14258 C 1266.66 3.49432 -4.70418 0
M  V30 14259 N 1266.61 3.32099 -3.22613 0
M  V30 14260 H 1269.45 6.54213 -5.71376 0
M  V30 14261 H 1269.72 5.30936 -4.43503 0
M  V30 14262 H 1268.86 4.55889 -6.76652 0
M  V30 14263 H 1266.2 2.61715 -5.17932 0
M  V30 14264 H 1265.92 5.52155 -4.41878 0
M  V30 14265 H 1264.93 4.51981 -5.53374 0
M  V30 14266 H 1266.76 6.25124 -6.55234 0
M  V30 14267 P 1264.89 4.23843 -7.83734 0
M  V30 14268 O 1264.67 4.19407 -9.29784 0
M  V30 14269 O 1264.1 5.24426 -7.09156 0
M  V30 14270 O 1264.64 2.7935 -7.20758 0
M  V30 14271 C 1265.58 1.72945 -7.50224 0
M  V30 14272 C 1264.85 0.406376 -7.57911 0
M  V30 14273 O 1264.64 -0.0897726 -6.21935 0
M  V30 14274 C 1263.45 0.438983 -8.18724 0
M  V30 14275 O 1263.06 -0.825065 -8.71101 0
M  V30 14276 C 1262.57 0.783689 -6.99524 0
M  V30 14277 C 1263.28 0.0619086 -5.85867 0
M  V30 14278 N 1263.23 0.78573 -4.56183 0
M  V30 14279 C 1263.08 0.0292889 -3.41887 0
M  V30 14280 O 1262.99 -1.18445 -3.4419 0
M  V30 14281 N 1263.04 0.744061 -2.23964 0
M  V30 14282 C 1263.13 2.10932 -2.10362 0
M  V30 14283 O 1263.08 2.64117 -0.98825 0
M  V30 14284 C 1263.28 2.8202 -3.34994 0
M  V30 14285 C 1263.39 4.31095 -3.25037 0
M  V30 14286 C 1263.33 2.15547 -4.52261 0
M  V30 14287 H 1266.07 1.93379 -8.46595 0
M  V30 14288 H 1266.34 1.68132 -6.70852 0
M  V30 14289 H 1265.48 -0.289041 -8.15388 0
M  V30 14290 H 1262.82 -0.926847 -5.72749 0
M  V30 14291 H 1262.54 1.86973 -6.82036 0
M  V30 14292 H 1261.55 0.403896 -7.13257 0
M  V30 14293 H 1263.38 1.20585 -8.97435 0
M  V30 14294 H 1263.45 2.71231 -5.45042 0
M  V30 14295 H 1262.42 4.76966 -3.49992 0
M  V30 14296 H 1264.16 4.67047 -3.95024 0
M  V30 14297 H 1263.67 4.58996 -2.22312 0
M  V30 14298 H 1262.94 0.214893 -1.39758 0
M  V30 14299 P 1261.51 -1.17771 -8.83182 0
M  V30 14300 O 1261.29 -2.07206 -9.98732 0
M  V30 14301 O 1260.72 0.0743816 -8.81969 0
M  V30 14302 O 1261.26 -1.97652 -7.47304 0
M  V30 14303 C 1262.2 -3.01133 -7.08783 0
M  V30 14304 C 1261.47 -4.12613 -6.37049 0
M  V30 14305 O 1261.26 -3.72827 -4.97879 0
M  V30 14306 C 1260.07 -4.45085 -6.88694 0
M  V30 14307 O 1259.68 -5.7877 -6.5624 0
M  V30 14308 C 1259.19 -3.47817 -6.12078 0
M  V30 14309 C 1259.9 -3.39414 -4.77697 0
M  V30 14310 N 1259.85 -2.04615 -4.15333 0
M  V30 14311 H 1262.69 -3.41248 -7.98759 0
M  V30 14312 H 1262.96 -2.5837 -6.41742 0
M  V30 14313 H 1262.1 -5.02657 -6.42673 0
M  V30 14314 P 1258.13 -6.144 -6.45285 0
M  V30 14315 O 1257.91 -7.54673 -6.86199 0
M  V30 14316 O 1257.34 -5.12391 -7.179 0
M  V30 14317 O 1257.88 -5.99158 -4.88404 0
M  V30 14318 C 1258.82 -6.60234 -3.96415 0
M  V30 14319 C 1258.09 -7.08259 -2.72856 0
M  V30 14320 O 1257.88 -5.9427 -1.83651 0
M  V30 14321 C 1256.69 -7.64886 -2.9555 0
M  V30 14322 O 1256.3 -8.53963 -1.90717 0
M  V30 14323 C 1255.81 -6.4116 -2.90739 0
M  V30 14324 C 1256.52 -5.55375 -1.86963 0
M  V30 14325 N 1256.47 -4.09664 -2.15742 0
M  V30 14326 H 1259.31 -7.45574 -4.45629 0
M  V30 14327 H 1259.58 -5.86232 -3.67314 0
M  V30 14328 H 1258.72 -7.84412 -2.24479 0
M  V30 14329 P 1254.75 -8.7635 -1.60911 0
M  V30 14330 O 1254.53 -10.1388 -1.11561 0
M  V30 14331 O 1253.96 -8.36503 -2.79617 0
M  V30 14332 O 1254.5 -7.71806 -0.42951 0
M  V30 14333 C 1255.44 -7.66948 0.673514 0
M  V30 14334 C 1254.71 -7.33374 1.95559 0
M  V30 14335 O 1254.5 -5.88721 2.00726 0
M  V30 14336 C 1253.31 -7.92218 2.1125 0
M  V30 14337 O 1252.92 -8.02971 3.47653 0
M  V30 14338 C 1252.43 -6.89504 1.41631 0
M  V30 14339 C 1253.14 -5.59106 1.75155 0
M  V30 14340 N 1253.09 -4.58136 0.662409 0
M  V30 14341 C 1252.94 -3.26059 1.02863 0
M  V30 14342 O 1252.85 -2.90743 2.19009 0
M  V30 14343 N 1252.9 -2.35995 -0.0155585 0
M  V30 14344 C 1252.99 -2.65248 -1.35603 0
M  V30 14345 O 1252.94 -1.75605 -2.20651 0
M  V30 14346 C 1253.14 -4.05747 -1.64698 0
M  V30 14347 C 1253.25 -4.42345 -3.09553 0
M  V30 14348 C 1253.19 -4.96734 -0.652411 0
M  V30 14349 H 1255.93 -8.64917 0.776982 0
M  V30 14350 H 1256.2 -6.89974 0.474015 0
M  V30 14351 H 1255.34 -7.66548 2.79458 0
M  V30 14352 H 1252.68 -5.16076 2.65138 0
M  V30 14353 H 1252.4 -7.06433 0.329384 0
M  V30 14354 H 1251.41 -6.90829 1.81996 0
M  V30 14355 H 1253.24 -8.90774 1.62639 0
M  V30 14356 H 1253.31 -6.02181 -0.895285 0
M  V30 14357 H 1252.28 -4.80252 -3.45468 0
M  V30 14358 H 1254.02 -5.20015 -3.22119 0
M  V30 14359 H 1253.53 -3.53269 -3.67833 0
M  V30 14360 H 1252.8 -1.39558 0.227499 0
M  V30 14361 P 1251.37 -8.03563 3.84925 0
M  V30 14362 O 1251.15 -8.85821 5.0569 0
M  V30 14363 O 1250.58 -8.41101 2.65469 0
M  V30 14364 O 1251.12 -6.4965 4.18908 0
M  V30 14365 C 1252.06 -5.80886 5.05289 0
M  V30 14366 C 1251.33 -4.78366 5.89277 0
M  V30 14367 O 1251.12 -3.58302 5.08433 0
M  V30 14368 C 1249.93 -5.16748 6.36559 0
M  V30 14369 O 1249.54 -4.45271 7.53232 0
M  V30 14370 C 1249.05 -4.74572 5.19863 0
M  V30 14371 C 1249.76 -3.49373 4.70338 0
M  V30 14372 N 1249.71 -3.31704 3.22876 0
M  V30 14373 C 1249.56 -2.03326 2.74871 0
M  V30 14374 O 1249.47 -1.06486 3.48076 0
M  V30 14375 N 1249.52 -1.91838 1.37456 0
M  V30 14376 C 1249.61 -2.94295 0.462035 0
M  V30 14377 O 1249.56 -2.71763 -0.752928 0
M  V30 14378 C 1249.76 -4.25064 1.05249 0
M  V30 14379 C 1249.87 -5.39815 0.095697 0
M  V30 14380 C 1249.81 -4.40214 2.39192 0
M  V30 14381 H 1252.55 -6.54063 5.71245 0
M  V30 14382 H 1252.82 -5.30339 4.43905 0
M  V30 14383 H 1251.96 -4.55889 6.76652 0
M  V30 14384 H 1249.3 -2.6167 5.17842 0
M  V30 14385 H 1249.02 -5.52155 4.41878 0
M  V30 14386 H 1248.03 -4.51918 5.53297 0
M  V30 14387 H 1249.86 -6.25055 6.55162 0
M  V30 14388 H 1249.93 -5.39798 2.81523 0
M  V30 14389 H 1248.9 -5.91593 0.0279582 0
M  V30 14390 H 1250.64 -6.10038 0.450573 0
M  V30 14391 H 1250.15 -5.02007 -0.89937 0
M  V30 14392 H 1249.42 -0.995326 1.00435 0
M  V30 14393 P 1247.99 -4.23843 7.83734 0
M  V30 14394 O 1247.77 -4.19407 9.29784 0
M  V30 14395 O 1247.2 -5.24426 7.09156 0
M  V30 14396 O 1247.74 -2.7935 7.20758 0
M  V30 14397 C 1248.68 -1.7299 7.50419 0
M  V30 14398 C 1247.95 -0.406376 7.57911 0
M  V30 14399 O 1247.74 0.0897726 6.21935 0
M  V30 14400 C 1246.55 -0.447224 8.1878 0
M  V30 14401 O 1246.16 0.825065 8.71101 0
M  V30 14402 C 1245.67 -0.783801 6.99623 0
M  V30 14403 C 1246.38 -0.0619192 5.85967 0
M  V30 14404 N 1246.33 -0.7859 4.56281 0
M  V30 14405 H 1249.17 -1.93423 8.4679 0
M  V30 14406 H 1249.44 -1.68181 6.71046 0
M  V30 14407 H 1248.58 0.289041 8.15388 0
M  V30 14408 P 1244.61 1.17771 8.83182 0
M  V30 14409 O 1244.39 2.07206 9.98732 0
M  V30 14410 O 1243.82 -0.0743816 8.81969 0
M  V30 14411 O 1244.36 1.97652 7.47304 0
M  V30 14412 C 1245.3 3.01133 7.08783 0
M  V30 14413 C 1244.57 4.12613 6.37049 0
M  V30 14414 O 1244.36 3.72827 4.97879 0
M  V30 14415 C 1243.17 4.45085 6.88694 0
M  V30 14416 O 1242.78 5.7877 6.5624 0
M  V30 14417 C 1242.29 3.47817 6.12078 0
M  V30 14418 C 1243 3.39414 4.77697 0
M  V30 14419 N 1242.95 2.04199 4.15538 0
M  V30 14420 H 1245.79 3.41248 7.98759 0
M  V30 14421 H 1246.06 2.57728 6.42 0
M  V30 14422 H 1245.2 5.02657 6.42673 0
M  V30 14423 H 1242.54 4.11708 4.08956 0
M  V30 14424 H 1242.26 2.49626 6.61679 0
M  V30 14425 H 1241.27 3.8662 6.00862 0
M  V30 14426 H 1243.1 4.29991 7.97006 0
M  V30 14427 P 1241.23 6.144 6.45285 0
M  V30 14428 O 1241.01 7.54673 6.86199 0
M  V30 14429 O 1240.44 5.12391 7.179 0
M  V30 14430 O 1240.98 5.99158 4.88404 0
M  V30 14431 C 1241.92 6.60234 3.96415 0
M  V30 14432 C 1241.19 7.08259 2.72856 0
M  V30 14433 O 1240.98 5.9427 1.83651 0
M  V30 14434 C 1239.79 7.64886 2.9555 0
M  V30 14435 O 1239.4 8.53963 1.90717 0
M  V30 14436 C 1238.91 6.4116 2.90739 0
M  V30 14437 C 1239.62 5.55375 1.86963 0
M  V30 14438 N 1239.57 4.09664 2.15742 0
M  V30 14439 H 1242.41 7.45574 4.45629 0
M  V30 14440 H 1242.68 5.86232 3.67314 0
M  V30 14441 H 1241.82 7.84412 2.24479 0
M  V30 14442 P 1237.85 8.7635 1.60911 0
M  V30 14443 O 1237.63 10.1388 1.11561 0
M  V30 14444 O 1237.06 8.36503 2.79617 0
M  V30 14445 O 1237.6 7.71806 0.42951 0
M  V30 14446 C 1238.54 7.67148 -0.673689 0
M  V30 14447 C 1237.81 7.33374 -1.95559 0
M  V30 14448 O 1237.6 5.88721 -2.00726 0
M  V30 14449 C 1236.41 7.92526 -2.10483 0
M  V30 14450 O 1236.02 8.02971 -3.47653 0
M  V30 14451 C 1235.53 6.89602 -1.41652 0
M  V30 14452 C 1236.24 5.59201 -1.75185 0
M  V30 14453 N 1236.19 4.58235 -0.662552 0
M  V30 14454 H 1239.03 8.65116 -0.777161 0
M  V30 14455 H 1239.3 6.90173 -0.474152 0
M  V30 14456 H 1238.44 7.66548 -2.79458 0
M  V30 14457 P 1234.47 8.03563 -3.84925 0
M  V30 14458 O 1234.25 8.85821 -5.0569 0
M  V30 14459 O 1233.68 8.41101 -2.65469 0
M  V30 14460 O 1234.22 6.4965 -4.18908 0
M  V30 14461 C 1235.16 5.81037 -5.05421 0
M  V30 14462 C 1234.43 4.78366 -5.89277 0
M  V30 14463 O 1234.22 3.58302 -5.08433 0
M  V30 14464 C 1233.03 5.17448 -6.36119 0
M  V30 14465 O 1232.64 4.45271 -7.53232 0
M  V30 14466 C 1232.15 4.74639 -5.19936 0
M  V30 14467 C 1232.86 3.49432 -4.70418 0
M  V30 14468 N 1232.81 3.31776 -3.22945 0
M  V30 14469 H 1235.65 6.54213 -5.71376 0
M  V30 14470 H 1235.92 5.30492 -4.44033 0
M  V30 14471 H 1235.06 4.55889 -6.76652 0
M  V30 14472 P 1231.09 4.23843 -7.83734 0
M  V30 14473 O 1230.87 4.19407 -9.29784 0
M  V30 14474 O 1230.3 5.24426 -7.09156 0
M  V30 14475 O 1230.84 2.7935 -7.20758 0
M  V30 14476 C 1231.78 1.7299 -7.50419 0
M  V30 14477 C 1231.05 0.406376 -7.57911 0
M  V30 14478 O 1230.84 -0.0897726 -6.21935 0
M  V30 14479 C 1229.65 0.447224 -8.1878 0
M  V30 14480 O 1229.26 -0.825065 -8.71101 0
M  V30 14481 C 1228.77 0.783801 -6.99623 0
M  V30 14482 C 1229.48 0.0619192 -5.85967 0
M  V30 14483 N 1229.43 0.7859 -4.56281 0
M  V30 14484 H 1232.27 1.93423 -8.4679 0
M  V30 14485 H 1232.54 1.68181 -6.71046 0
M  V30 14486 H 1231.68 -0.289041 -8.15388 0
M  V30 14487 P 1227.71 -1.17771 -8.83182 0
M  V30 14488 O 1227.49 -2.07206 -9.98732 0
M  V30 14489 O 1226.92 0.0743816 -8.81969 0
M  V30 14490 O 1227.46 -1.97652 -7.47304 0
M  V30 14491 C 1228.4 -3.01133 -7.08783 0
M  V30 14492 C 1227.67 -4.12613 -6.37049 0
M  V30 14493 O 1227.46 -3.72827 -4.97879 0
M  V30 14494 C 1226.27 -4.45085 -6.88694 0
M  V30 14495 O 1225.88 -5.7877 -6.5624 0
M  V30 14496 C 1225.39 -3.47817 -6.12078 0
M  V30 14497 C 1226.1 -3.39414 -4.77697 0
M  V30 14498 N 1226.05 -2.04615 -4.15333 0
M  V30 14499 H 1228.89 -3.41248 -7.98759 0
M  V30 14500 H 1229.16 -2.5837 -6.41742 0
M  V30 14501 H 1228.3 -5.02657 -6.42673 0
M  V30 14502 P 1224.33 -6.144 -6.45285 0
M  V30 14503 O 1224.11 -7.54673 -6.86199 0
M  V30 14504 O 1223.54 -5.12391 -7.179 0
M  V30 14505 O 1224.08 -5.99158 -4.88404 0
M  V30 14506 C 1225.02 -6.60062 -3.96313 0
M  V30 14507 C 1224.29 -7.08259 -2.72856 0
M  V30 14508 O 1224.08 -5.9427 -1.83651 0
M  V30 14509 C 1222.89 -7.65087 -2.94749 0
M  V30 14510 O 1222.5 -8.53963 -1.90717 0
M  V30 14511 C 1222.01 -6.41069 -2.90698 0
M  V30 14512 C 1222.72 -5.5528 -1.86931 0
M  V30 14513 N 1222.67 -4.09575 -2.15696 0
M  V30 14514 C 1222.52 -3.24249 -1.08435 0
M  V30 14515 O 1222.43 -3.63946 0.0628747 0
M  V30 14516 N 1222.48 -1.90009 -1.39973 0
M  V30 14517 C 1222.57 -1.34884 -2.65614 0
M  V30 14518 C 1222.72 -2.3145 -3.71736 0
M  V30 14519 C 1222.77 -3.63518 -3.44754 0
M  V30 14520 H 1225.51 -7.45402 -4.45526 0
M  V30 14521 H 1225.78 -5.86062 -3.67208 0
M  V30 14522 H 1224.92 -7.84412 -2.24479 0
M  V30 14523 H 1222.26 -5.73358 -0.888409 0
M  V30 14524 H 1221.98 -5.90877 -3.88583 0
M  V30 14525 H 1220.99 -6.65867 -2.58821 0
M  V30 14526 H 1222.82 -8.16248 -3.92006 0
M  V30 14527 H 1222.89 -4.34551 -4.26383 0
M  V30 14528 P 1220.95 -8.7635 -1.60911 0
M  V30 14529 O 1220.73 -10.1388 -1.11561 0
M  V30 14530 O 1220.16 -8.36503 -2.79617 0
M  V30 14531 O 1220.7 -7.71806 -0.42951 0
M  V30 14532 C 1221.64 -7.67148 0.673689 0
M  V30 14533 C 1220.91 -7.33374 1.95559 0
M  V30 14534 O 1220.7 -5.88721 2.00726 0
M  V30 14535 C 1219.51 -7.92526 2.10483 0
M  V30 14536 O 1219.12 -8.02971 3.47653 0
M  V30 14537 C 1218.63 -6.89602 1.41652 0
M  V30 14538 C 1219.34 -5.59201 1.75185 0
M  V30 14539 N 1219.29 -4.58235 0.662552 0
M  V30 14540 H 1222.13 -8.65116 0.777161 0
M  V30 14541 H 1222.4 -6.90173 0.474152 0
M  V30 14542 H 1221.54 -7.66548 2.79458 0
M  V30 14543 P 1217.57 -8.03563 3.84925 0
M  V30 14544 O 1217.35 -8.85821 5.0569 0
M  V30 14545 O 1216.78 -8.41101 2.65469 0
M  V30 14546 O 1217.32 -6.4965 4.18908 0
M  V30 14547 C 1218.26 -5.81037 5.05421 0
M  V30 14548 C 1217.53 -4.78366 5.89277 0
M  V30 14549 O 1217.32 -3.58302 5.08433 0
M  V30 14550 C 1216.13 -5.17448 6.36119 0
M  V30 14551 O 1215.74 -4.45271 7.53232 0
M  V30 14552 C 1215.25 -4.74639 5.19936 0
M  V30 14553 C 1215.96 -3.49432 4.70418 0
M  V30 14554 N 1215.91 -3.31776 3.22945 0
M  V30 14555 C 1215.99 -4.27147 2.23315 0
M  V30 14556 N 1215.91 -3.78447 1.02186 0
M  V30 14557 C 1215.77 -2.41001 1.21732 0
M  V30 14558 C 1215.64 -1.36111 0.27694 0
M  V30 14559 N 1215.52 -0.113683 0.912949 0
M  V30 14560 C 1215.52 0.0846396 2.27943 0
M  V30 14561 N 1215.39 1.34737 2.6916 0
M  V30 14562 N 1215.65 -0.902521 3.16379 0
M  V30 14563 C 1215.77 -2.11937 2.56849 0
M  V30 14564 H 1218.75 -6.54213 5.71376 0
M  V30 14565 H 1219.02 -5.30492 4.44033 0
M  V30 14566 H 1218.16 -4.55889 6.76652 0
M  V30 14567 P 1214.19 -4.23843 7.83734 0
M  V30 14568 O 1213.97 -4.19407 9.29784 0
M  V30 14569 O 1213.4 -5.24426 7.09156 0
M  V30 14570 O 1213.94 -2.7935 7.20758 0
M  V30 14571 C 1214.88 -1.7299 7.50419 0
M  V30 14572 C 1214.15 -0.406376 7.57911 0
M  V30 14573 O 1213.94 0.0897726 6.21935 0
M  V30 14574 C 1212.75 -0.447224 8.1878 0
M  V30 14575 O 1212.36 0.825065 8.71101 0
M  V30 14576 C 1211.87 -0.783801 6.99623 0
M  V30 14577 C 1212.58 -0.0619192 5.85967 0
M  V30 14578 N 1212.53 -0.790462 4.56202 0
M  V30 14579 H 1215.37 -1.93423 8.4679 0
M  V30 14580 H 1215.64 -1.68852 6.70877 0
M  V30 14581 H 1214.78 0.289041 8.15388 0
M  V30 14582 H 1212.12 0.927006 5.72848 0
M  V30 14583 H 1211.84 -1.86973 6.82036 0
M  V30 14584 H 1210.85 -0.403953 7.13357 0
M  V30 14585 H 1212.68 -1.20599 8.97534 0
M  V30 14586 P 1210.81 1.17771 8.83182 0
M  V30 14587 O 1210.59 2.07206 9.98732 0
M  V30 14588 O 1210.02 -0.0743816 8.81969 0
M  V30 14589 O 1210.56 1.97678 7.474 0
M  V30 14590 C 1211.5 3.01133 7.08783 0
M  V30 14591 C 1210.77 4.1203 6.37546 0
M  V30 14592 O 1210.56 3.72887 4.9796 0
M  V30 14593 C 1209.37 4.45085 6.88694 0
M  V30 14594 O 1208.98 5.78836 6.56315 0
M  V30 14595 C 1208.49 3.47817 6.12078 0
M  V30 14596 C 1209.2 3.39414 4.77697 0
M  V30 14597 N 1209.15 2.04615 4.15333 0
M  V30 14598 C 1209 1.96929 2.77162 0
M  V30 14599 O 1208.91 3.02017 2.12006 0
M  V30 14600 N 1208.95 0.55485 2.24237 0
M  V30 14601 C 1209.05 -0.367808 2.9169 0
M  V30 14602 N 1209 -1.53426 2.29427 0
M  V30 14603 C 1209.2 -0.319148 4.33828 0
M  V30 14604 C 1209.25 0.920672 4.90433 0
M  V30 14605 H 1211.99 3.41209 7.98667 0
M  V30 14606 H 1212.26 2.5837 6.41742 0
M  V30 14607 H 1211.4 5.02718 6.42752 0
M  V30 14608 H 1208.74 4.11779 4.09026 0
M  V30 14609 H 1208.46 2.49661 6.61772 0
M  V30 14610 H 1207.47 3.86674 6.00946 0
M  V30 14611 H 1209.3 4.29991 7.97006 0
M  V30 14612 H 1209.38 1.00589 5.98303 0
M  V30 14613 H 1209.27 -1.22639 4.93799 0
M  V30 14614 H 1208.89 -1.56819 1.27167 0
M  V30 14615 H 1209.08 -2.41062 2.83063 0
M  V30 14616 P 1207.43 6.144 6.45285 0
M  V30 14617 O 1207.21 7.54673 6.86199 0
M  V30 14618 O 1206.64 5.12391 7.179 0
M  V30 14619 O 1207.18 5.99158 4.88404 0
M  V30 14620 C 1208.12 6.60234 3.96415 0
M  V30 14621 C 1207.39 7.08259 2.72856 0
M  V30 14622 O 1207.18 5.9427 1.83651 0
M  V30 14623 C 1205.99 7.64886 2.9555 0
M  V30 14624 O 1205.6 8.53963 1.90717 0
M  V30 14625 C 1205.11 6.4116 2.90739 0
M  V30 14626 C 1205.82 5.55375 1.86963 0
M  V30 14627 N 1205.77 4.09448 2.16152 0
M  V30 14628 C 1205.85 3.46824 3.37593 0
M  V30 14629 N 1205.78 2.17422 3.29777 0
M  V30 14630 C 1205.63 1.93065 1.94427 0
M  V30 14631 C 1205.5 0.738053 1.20141 0
M  V30 14632 N 1205.49 -0.474256 1.74676 0
M  V30 14633 N 1205.38 0.850049 -0.13045 0
M  V30 14634 C 1205.39 2.06169 -0.676992 0
M  V30 14635 N 1205.51 3.23842 -0.101312 0
M  V30 14636 C 1205.63 3.09402 1.23122 0
M  V30 14637 H 1208.61 7.45574 4.45629 0
M  V30 14638 H 1208.88 5.85864 3.679 0
M  V30 14639 H 1208.02 7.84412 2.24479 0
M  V30 14640 H 1205.36 5.73457 0.888562 0
M  V30 14641 H 1205.08 5.90877 3.88583 0
M  V30 14642 H 1204.09 6.6596 2.58858 0
M  V30 14643 H 1205.92 8.16339 3.92049 0
M  V30 14644 H 1205.96 4.00505 4.3174 0
M  V30 14645 H 1205.58 -0.581337 2.76658 0
M  V30 14646 H 1205.39 -1.30811 1.14888 0
M  V30 14647 H 1205.29 2.08295 -1.75542 0
M  V30 14648 P 1204.05 8.7635 1.60911 0
M  V30 14649 O 1203.83 10.1388 1.11561 0
M  V30 14650 O 1203.26 8.36503 2.79617 0
M  V30 14651 O 1203.8 7.71806 0.42951 0
M  V30 14652 C 1204.74 7.67148 -0.673689 0
M  V30 14653 C 1204.01 7.33374 -1.95559 0
M  V30 14654 O 1203.8 5.88721 -2.00726 0
M  V30 14655 C 1202.61 7.92526 -2.10483 0
M  V30 14656 O 1202.22 8.02971 -3.47653 0
M  V30 14657 C 1201.73 6.89602 -1.41652 0
M  V30 14658 C 1202.44 5.59201 -1.75185 0
M  V30 14659 N 1202.39 4.58235 -0.662552 0
M  V30 14660 H 1205.23 8.65116 -0.777161 0
M  V30 14661 H 1205.5 6.90173 -0.474152 0
M  V30 14662 H 1204.64 7.66548 -2.79458 0
M  V30 14663 P 1200.67 8.03563 -3.84925 0
M  V30 14664 O 1200.45 8.85821 -5.0569 0
M  V30 14665 O 1199.88 8.41101 -2.65469 0
M  V30 14666 O 1200.42 6.49734 -4.18962 0
M  V30 14667 C 1201.36 5.81037 -5.05421 0
M  V30 14668 C 1200.63 4.79018 -5.88876 0
M  V30 14669 O 1200.42 3.58359 -5.08515 0
M  V30 14670 C 1199.23 5.17448 -6.36119 0
M  V30 14671 O 1198.84 4.45322 -7.53318 0
M  V30 14672 C 1198.35 4.74639 -5.19936 0
M  V30 14673 C 1199.06 3.49432 -4.70418 0
M  V30 14674 N 1199.01 3.31776 -3.22945 0
M  V30 14675 C 1198.86 2.02742 -2.72939 0
M  V30 14676 O 1198.77 1.08301 -3.52749 0
M  V30 14677 N 1198.81 1.96117 -1.22063 0
M  V30 14678 C 1198.91 2.8878 -0.551566 0
M  V30 14679 N 1198.86 2.65609 0.750198 0
M  V30 14680 C 1199.06 4.22457 -1.03707 0
M  V30 14681 C 1199.11 4.37979 -2.39113 0
M  V30 14682 H 1201.85 6.54138 -5.7131 0
M  V30 14683 H 1202.12 5.30492 -4.44033 0
M  V30 14684 H 1201.26 4.55945 -6.76735 0
M  V30 14685 H 1198.6 2.6176 -5.18021 0
M  V30 14686 H 1198.32 5.52233 -4.41941 0
M  V30 14687 H 1197.33 4.52045 -5.53452 0
M  V30 14688 H 1199.16 6.25124 -6.55234 0
M  V30 14689 H 1199.24 5.37936 -2.80552 0
M  V30 14690 H 1199.13 5.07528 -0.359553 0
M  V30 14691 H 1198.75 1.69403 1.09847 0
M  V30 14692 H 1198.94 3.43701 1.41792 0
M  V30 14693 P 1197.29 4.23843 -7.83734 0
M  V30 14694 O 1197.07 4.19407 -9.29784 0
M  V30 14695 O 1196.5 5.24426 -7.09156 0
M  V30 14696 O 1197.04 2.7935 -7.20758 0
M  V30 14697 C 1197.98 1.7299 -7.50419 0
M  V30 14698 C 1197.25 0.406376 -7.57911 0
M  V30 14699 O 1197.04 -0.0897726 -6.21935 0
M  V30 14700 C 1195.85 0.447224 -8.1878 0
M  V30 14701 O 1195.46 -0.825065 -8.71101 0
M  V30 14702 C 1194.97 0.783801 -6.99623 0
M  V30 14703 C 1195.68 0.0619192 -5.85967 0
M  V30 14704 N 1195.63 0.790462 -4.56202 0
M  V30 14705 H 1198.47 1.93423 -8.4679 0
M  V30 14706 H 1198.74 1.68852 -6.70877 0
M  V30 14707 H 1197.88 -0.289041 -8.15388 0
M  V30 14708 H 1195.22 -0.927006 -5.72848 0
M  V30 14709 H 1194.94 1.86973 -6.82036 0
M  V30 14710 H 1193.95 0.403953 -7.13357 0
M  V30 14711 H 1195.78 1.20599 -8.97534 0
M  V30 14712 P 1193.91 -1.17771 -8.83182 0
M  V30 14713 O 1193.69 -2.07206 -9.98732 0
M  V30 14714 O 1193.12 0.0743816 -8.81969 0
M  V30 14715 O 1193.66 -1.97652 -7.47304 0
M  V30 14716 C 1194.6 -3.01133 -7.08783 0
M  V30 14717 C 1193.87 -4.12613 -6.37049 0
M  V30 14718 O 1193.66 -3.72827 -4.97879 0
M  V30 14719 C 1192.47 -4.45085 -6.88694 0
M  V30 14720 O 1192.08 -5.7877 -6.5624 0
M  V30 14721 C 1191.59 -3.47817 -6.12078 0
M  V30 14722 C 1192.3 -3.39414 -4.77697 0
M  V30 14723 N 1192.25 -2.04615 -4.15333 0
M  V30 14724 H 1195.09 -3.41248 -7.98759 0
M  V30 14725 H 1195.36 -2.5837 -6.41742 0
M  V30 14726 H 1194.5 -5.02657 -6.42673 0
M  V30 14727 P 1190.53 -6.144 -6.45285 0
M  V30 14728 O 1190.31 -7.54673 -6.86199 0
M  V30 14729 O 1189.74 -5.12391 -7.179 0
M  V30 14730 O 1190.28 -5.99158 -4.88404 0
M  V30 14731 C 1191.22 -6.60234 -3.96415 0
M  V30 14732 C 1190.49 -7.08259 -2.72856 0
M  V30 14733 O 1190.28 -5.9427 -1.83651 0
M  V30 14734 C 1189.09 -7.64886 -2.9555 0
M  V30 14735 O 1188.7 -8.53963 -1.90717 0
M  V30 14736 C 1188.21 -6.4116 -2.90739 0
M  V30 14737 C 1188.92 -5.55375 -1.86963 0
M  V30 14738 N 1188.87 -4.09664 -2.15742 0
M  V30 14739 H 1191.71 -7.45574 -4.45629 0
M  V30 14740 H 1191.98 -5.86232 -3.67314 0
M  V30 14741 H 1191.12 -7.84412 -2.24479 0
M  V30 14742 P 1187.15 -8.7635 -1.60911 0
M  V30 14743 O 1186.93 -10.1388 -1.11561 0
M  V30 14744 O 1186.36 -8.36503 -2.79617 0
M  V30 14745 O 1186.9 -7.71806 -0.42951 0
M  V30 14746 C 1187.84 -7.67148 0.673689 0
M  V30 14747 C 1187.11 -7.33374 1.95559 0
M  V30 14748 O 1186.9 -5.88721 2.00726 0
M  V30 14749 C 1185.71 -7.92526 2.10483 0
M  V30 14750 O 1185.32 -8.02971 3.47653 0
M  V30 14751 C 1184.83 -6.89602 1.41652 0
M  V30 14752 C 1185.54 -5.59201 1.75185 0
M  V30 14753 N 1185.49 -4.58301 0.657969 0
M  V30 14754 H 1188.33 -8.65116 0.777161 0
M  V30 14755 H 1188.6 -6.9022 0.46725 0
M  V30 14756 H 1187.74 -7.66548 2.79458 0
M  V30 14757 H 1185.08 -5.16165 2.65183 0
M  V30 14758 H 1184.8 -7.06433 0.329384 0
M  V30 14759 H 1183.81 -6.90926 1.82021 0
M  V30 14760 H 1185.64 -8.90873 1.62657 0
M  V30 14761 P 1183.77 -8.03563 3.84925 0
M  V30 14762 O 1183.55 -8.85821 5.0569 0
M  V30 14763 O 1182.98 -8.41101 2.65469 0
M  V30 14764 O 1183.52 -6.4965 4.18908 0
M  V30 14765 C 1184.46 -5.81037 5.05421 0
M  V30 14766 C 1183.73 -4.78366 5.89277 0
M  V30 14767 O 1183.52 -3.58302 5.08433 0
M  V30 14768 C 1182.33 -5.17448 6.36119 0
M  V30 14769 O 1181.94 -4.45271 7.53232 0
M  V30 14770 C 1181.45 -4.74639 5.19936 0
M  V30 14771 C 1182.16 -3.49432 4.70418 0
M  V30 14772 N 1182.11 -3.31776 3.22945 0
M  V30 14773 H 1184.95 -6.54213 5.71376 0
M  V30 14774 H 1185.22 -5.30492 4.44033 0
M  V30 14775 H 1184.36 -4.55889 6.76652 0
M  V30 14776 P 1180.39 -4.23843 7.83734 0
M  V30 14777 O 1180.17 -4.19407 9.29784 0
M  V30 14778 O 1179.6 -5.24426 7.09156 0
M  V30 14779 O 1180.14 -2.7935 7.20758 0
M  V30 14780 C 1181.08 -1.7299 7.50419 0
M  V30 14781 C 1180.35 -0.406376 7.57911 0
M  V30 14782 O 1180.14 0.0897726 6.21935 0
M  V30 14783 C 1178.95 -0.447224 8.1878 0
M  V30 14784 O 1178.56 0.825065 8.71101 0
M  V30 14785 C 1178.07 -0.783801 6.99623 0
M  V30 14786 C 1178.78 -0.0619192 5.85967 0
M  V30 14787 N 1178.73 -0.7859 4.56281 0
M  V30 14788 H 1181.57 -1.93423 8.4679 0
M  V30 14789 H 1181.84 -1.68181 6.71046 0
M  V30 14790 H 1180.98 0.289041 8.15388 0
M  V30 14791 P 1177.01 1.17771 8.83182 0
M  V30 14792 O 1176.79 2.07206 9.98732 0
M  V30 14793 O 1176.22 -0.0743816 8.81969 0
M  V30 14794 O 1176.76 1.97652 7.47304 0
M  V30 14795 C 1177.7 3.01133 7.08783 0
M  V30 14796 C 1176.97 4.12613 6.37049 0
M  V30 14797 O 1176.76 3.72827 4.97879 0
M  V30 14798 C 1175.57 4.45085 6.88694 0
M  V30 14799 O 1175.18 5.7877 6.5624 0
M  V30 14800 C 1174.69 3.47817 6.12078 0
M  V30 14801 C 1175.4 3.39414 4.77697 0
M  V30 14802 N 1175.35 2.04199 4.15538 0
M  V30 14803 H 1178.19 3.41248 7.98759 0
M  V30 14804 H 1178.46 2.57728 6.42 0
M  V30 14805 H 1177.6 5.02657 6.42673 0
M  V30 14806 H 1174.94 4.11708 4.08956 0
M  V30 14807 H 1174.66 2.49626 6.61679 0
M  V30 14808 H 1173.67 3.8662 6.00862 0
M  V30 14809 H 1175.5 4.29991 7.97006 0
M  V30 14810 P 1173.63 6.144 6.45285 0
M  V30 14811 O 1173.41 7.54673 6.86199 0
M  V30 14812 O 1172.84 5.12391 7.179 0
M  V30 14813 O 1173.38 5.99236 4.88467 0
M  V30 14814 C 1174.32 6.60234 3.96415 0
M  V30 14815 C 1173.59 7.08079 2.736 0
M  V30 14816 O 1173.38 5.94365 1.8368 0
M  V30 14817 C 1172.19 7.64886 2.9555 0
M  V30 14818 O 1171.8 8.5406 1.90739 0
M  V30 14819 C 1171.31 6.4116 2.90739 0
M  V30 14820 C 1172.02 5.55375 1.86963 0
M  V30 14821 N 1171.97 4.09664 2.15742 0
M  V30 14822 C 1171.82 3.22231 1.08477 0
M  V30 14823 O 1171.73 3.68951 -0.0600489 0
M  V30 14824 N 1171.77 1.76692 1.48799 0
M  V30 14825 C 1171.87 1.41695 2.57602 0
M  V30 14826 N 1171.82 0.107296 2.75791 0
M  V30 14827 C 1172.02 2.29178 3.69733 0
M  V30 14828 C 1172.07 3.62753 3.42653 0
M  V30 14829 H 1174.81 7.45488 4.45578 0
M  V30 14830 H 1175.08 5.86232 3.67314 0
M  V30 14831 H 1174.22 7.84508 2.24507 0
M  V30 14832 H 1171.56 5.73556 0.888715 0
M  V30 14833 H 1171.28 5.9096 3.88638 0
M  V30 14834 H 1170.29 6.66053 2.58894 0
M  V30 14835 H 1172.12 8.16339 3.92049 0
M  V30 14836 H 1172.2 4.33052 4.24913 0
M  V30 14837 H 1172.09 1.9103 4.71577 0
M  V30 14838 H 1171.71 -0.521221 1.95056 0
M  V30 14839 H 1171.9 -0.286429 3.70695 0
M  V30 14840 P 1170.25 8.7635 1.60911 0
M  V30 14841 O 1170.03 10.1388 1.11561 0
M  V30 14842 O 1169.46 8.36503 2.79617 0
M  V30 14843 O 1170 7.71806 0.42951 0
M  V30 14844 C 1170.94 7.67148 -0.673689 0
M  V30 14845 C 1170.21 7.33374 -1.95559 0
M  V30 14846 O 1170 5.88721 -2.00726 0
M  V30 14847 C 1168.81 7.92526 -2.10483 0
M  V30 14848 O 1168.42 8.02971 -3.47653 0
M  V30 14849 C 1167.93 6.89602 -1.41652 0
M  V30 14850 C 1168.64 5.59201 -1.75185 0
M  V30 14851 N 1168.59 4.58301 -0.657969 0
M  V30 14852 H 1171.43 8.65116 -0.777161 0
M  V30 14853 H 1171.7 6.9022 -0.46725 0
M  V30 14854 H 1170.84 7.66548 -2.79458 0
M  V30 14855 H 1168.18 5.16165 -2.65183 0
M  V30 14856 H 1167.9 7.06433 -0.329384 0
M  V30 14857 H 1166.91 6.90926 -1.82021 0
M  V30 14858 H 1168.74 8.90873 -1.62657 0
M  V30 14859 P 1166.87 8.03563 -3.84925 0
M  V30 14860 O 1166.65 8.85821 -5.0569 0
M  V30 14861 O 1166.08 8.41101 -2.65469 0
M  V30 14862 O 1166.62 6.4965 -4.18908 0
M  V30 14863 C 1167.56 5.81037 -5.05421 0
M  V30 14864 C 1166.83 4.78366 -5.89277 0
M  V30 14865 O 1166.62 3.58302 -5.08433 0
M  V30 14866 C 1165.43 5.17448 -6.36119 0
M  V30 14867 O 1165.04 4.45271 -7.53232 0
M  V30 14868 C 1164.55 4.74639 -5.19936 0
M  V30 14869 C 1165.26 3.49432 -4.70418 0
M  V30 14870 N 1165.21 3.32099 -3.22613 0
M  V30 14871 H 1168.05 6.54213 -5.71376 0
M  V30 14872 H 1168.32 5.30936 -4.43503 0
M  V30 14873 H 1167.46 4.55889 -6.76652 0
M  V30 14874 H 1164.8 2.61715 -5.17932 0
M  V30 14875 H 1164.52 5.52155 -4.41878 0
M  V30 14876 H 1163.53 4.51981 -5.53374 0
M  V30 14877 H 1165.36 6.25124 -6.55234 0
M  V30 14878 P 1163.49 4.23843 -7.83734 0
M  V30 14879 O 1163.27 4.19407 -9.29784 0
M  V30 14880 O 1162.7 5.24426 -7.09156 0
M  V30 14881 O 1163.24 2.7935 -7.20758 0
M  V30 14882 C 1164.18 1.7299 -7.50419 0
M  V30 14883 C 1163.45 0.406376 -7.57911 0
M  V30 14884 O 1163.24 -0.0897726 -6.21935 0
M  V30 14885 C 1162.05 0.447224 -8.1878 0
M  V30 14886 O 1161.66 -0.825065 -8.71101 0
M  V30 14887 C 1161.17 0.783801 -6.99623 0
M  V30 14888 C 1161.88 0.0619192 -5.85967 0
M  V30 14889 N 1161.83 0.7859 -4.56281 0
M  V30 14890 H 1164.67 1.93423 -8.4679 0
M  V30 14891 H 1164.94 1.68181 -6.71046 0
M  V30 14892 H 1164.08 -0.289041 -8.15388 0
M  V30 14893 P 1160.11 -1.17771 -8.83182 0
M  V30 14894 O 1159.89 -2.07206 -9.98732 0
M  V30 14895 O 1159.32 0.0743816 -8.81969 0
M  V30 14896 O 1159.86 -1.97652 -7.47304 0
M  V30 14897 C 1160.8 -3.01133 -7.08783 0
M  V30 14898 C 1160.07 -4.12613 -6.37049 0
M  V30 14899 O 1159.86 -3.72827 -4.97879 0
M  V30 14900 C 1158.67 -4.45085 -6.88694 0
M  V30 14901 O 1158.28 -5.7877 -6.5624 0
M  V30 14902 C 1157.79 -3.47817 -6.12078 0
M  V30 14903 C 1158.5 -3.39414 -4.77697 0
M  V30 14904 N 1158.45 -2.04615 -4.15333 0
M  V30 14905 C 1158.53 -0.803897 -4.75249 0
M  V30 14906 N 1158.45 0.197615 -3.91502 0
M  V30 14907 C 1158.31 -0.413002 -2.66823 0
M  V30 14908 C 1158.18 0.157221 -1.38007 0
M  V30 14909 N 1158.06 -0.833136 -0.390236 0
M  V30 14910 C 1158.06 -2.19402 -0.623885 0
M  V30 14911 N 1157.93 -2.97622 0.449677 0
M  V30 14912 N 1158.19 -2.73005 -1.83601 0
M  V30 14913 C 1158.31 -1.78786 -2.80935 0
M  V30 14914 H 1161.29 -3.41248 -7.98759 0
M  V30 14915 H 1161.56 -2.5837 -6.41742 0
M  V30 14916 H 1160.7 -5.02657 -6.42673 0
M  V30 14917 P 1156.73 -6.144 -6.45285 0
M  V30 14918 O 1156.51 -7.54673 -6.86199 0
M  V30 14919 O 1155.94 -5.12391 -7.179 0
M  V30 14920 O 1156.48 -5.99158 -4.88404 0
M  V30 14921 C 1157.42 -6.60234 -3.96415 0
M  V30 14922 C 1156.69 -7.08259 -2.72856 0
M  V30 14923 O 1156.48 -5.9427 -1.83651 0
M  V30 14924 C 1155.29 -7.64886 -2.9555 0
M  V30 14925 O 1154.9 -8.53963 -1.90717 0
M  V30 14926 C 1154.41 -6.4116 -2.90739 0
M  V30 14927 C 1155.12 -5.55375 -1.86963 0
M  V30 14928 N 1155.07 -4.09664 -2.15742 0
M  V30 14929 H 1157.91 -7.45574 -4.45629 0
M  V30 14930 H 1158.18 -5.86232 -3.67314 0
M  V30 14931 H 1157.32 -7.84412 -2.24479 0
M  V30 14932 P 1153.35 -8.7635 -1.60911 0
M  V30 14933 O 1153.13 -10.1388 -1.11561 0
M  V30 14934 O 1152.56 -8.36503 -2.79617 0
M  V30 14935 O 1153.1 -7.71806 -0.42951 0
M  V30 14936 C 1154.04 -7.67148 0.673689 0
M  V30 14937 C 1153.31 -7.33374 1.95559 0
M  V30 14938 O 1153.1 -5.88721 2.00726 0
M  V30 14939 C 1151.91 -7.92526 2.10483 0
M  V30 14940 O 1151.52 -8.02971 3.47653 0
M  V30 14941 C 1151.03 -6.89602 1.41652 0
M  V30 14942 C 1151.74 -5.59201 1.75185 0
M  V30 14943 N 1151.69 -4.58301 0.657969 0
M  V30 14944 C 1151.77 -4.79019 -0.692603 0
M  V30 14945 N 1151.7 -3.69736 -1.38998 0
M  V30 14946 C 1151.55 -2.70474 -0.438135 0
M  V30 14947 C 1151.42 -1.30327 -0.538142 0
M  V30 14948 N 1151.41 -0.64304 -1.69192 0
M  V30 14949 N 1151.3 -0.611027 0.605183 0
M  V30 14950 C 1151.31 -1.27002 1.75953 0
M  V30 14951 N 1151.43 -2.56038 1.98546 0
M  V30 14952 C 1151.55 -3.22681 0.822541 0
M  V30 14953 H 1154.53 -8.65116 0.777161 0
M  V30 14954 H 1154.8 -6.9022 0.46725 0
M  V30 14955 H 1153.94 -7.66548 2.79458 0
M  V30 14956 H 1151.28 -5.16165 2.65183 0
M  V30 14957 H 1151 -7.06433 0.329384 0
M  V30 14958 H 1150.01 -6.90926 1.82021 0
M  V30 14959 H 1151.84 -8.90873 1.62657 0
M  V30 14960 H 1151.89 -5.77785 -1.13874 0
M  V30 14961 H 1151.5 -1.15585 -2.57991 0
M  V30 14962 H 1151.32 0.382989 -1.69835 0
M  V30 14963 H 1151.21 -0.653331 2.64449 0
M  V30 14964 P 1149.97 -8.03563 3.84925 0
M  V30 14965 O 1149.75 -8.85821 5.0569 0
M  V30 14966 O 1149.18 -8.41101 2.65469 0
M  V30 14967 O 1149.72 -6.4965 4.18908 0
M  V30 14968 C 1150.66 -5.81037 5.05421 0
M  V30 14969 C 1149.93 -4.78366 5.89277 0
M  V30 14970 O 1149.72 -3.58302 5.08433 0
M  V30 14971 C 1148.53 -5.17448 6.36119 0
M  V30 14972 O 1148.14 -4.45271 7.53232 0
M  V30 14973 C 1147.65 -4.74639 5.19936 0
M  V30 14974 C 1148.36 -3.49432 4.70418 0
M  V30 14975 N 1148.31 -3.31776 3.22945 0
M  V30 14976 H 1151.15 -6.54213 5.71376 0
M  V30 14977 H 1151.42 -5.30492 4.44033 0
M  V30 14978 H 1150.56 -4.55889 6.76652 0
M  V30 14979 P 1146.59 -4.23843 7.83734 0
M  V30 14980 O 1146.37 -4.19407 9.29784 0
M  V30 14981 O 1145.8 -5.24426 7.09156 0
M  V30 14982 O 1146.34 -2.7935 7.20758 0
M  V30 14983 C 1147.28 -1.7299 7.50419 0
M  V30 14984 C 1146.55 -0.406376 7.57911 0
M  V30 14985 O 1146.34 0.0897726 6.21935 0
M  V30 14986 C 1145.15 -0.447224 8.1878 0
M  V30 14987 O 1144.76 0.825065 8.71101 0
M  V30 14988 C 1144.27 -0.783801 6.99623 0
M  V30 14989 C 1144.98 -0.0619192 5.85967 0
M  V30 14990 N 1144.93 -0.7859 4.56281 0
M  V30 14991 H 1147.77 -1.93423 8.4679 0
M  V30 14992 H 1148.04 -1.68181 6.71046 0
M  V30 14993 H 1147.18 0.289041 8.15388 0
M  V30 14994 P 1143.21 1.17771 8.83182 0
M  V30 14995 O 1142.99 2.07206 9.98732 0
M  V30 14996 O 1142.42 -0.0743816 8.81969 0
M  V30 14997 O 1142.96 1.97652 7.47304 0
M  V30 14998 C 1143.9 3.01133 7.08783 0
M  V30 14999 C 1143.17 4.12613 6.37049 0
M  V30 15000 O 1142.96 3.72827 4.97879 0
M  V30 15001 C 1141.77 4.45085 6.88694 0
M  V30 15002 O 1141.38 5.7877 6.5624 0
M  V30 15003 C 1140.89 3.47817 6.12078 0
M  V30 15004 C 1141.6 3.39414 4.77697 0
M  V30 15005 N 1141.55 2.04615 4.15333 0
M  V30 15006 C 1141.63 0.803897 4.75249 0
M  V30 15007 N 1141.55 -0.197615 3.91502 0
M  V30 15008 C 1141.41 0.413002 2.66823 0
M  V30 15009 C 1141.28 -0.157221 1.38007 0
M  V30 15010 N 1141.16 0.833136 0.390236 0
M  V30 15011 C 1141.16 2.19402 0.623885 0
M  V30 15012 N 1141.03 2.97622 -0.449677 0
M  V30 15013 N 1141.29 2.73005 1.83601 0
M  V30 15014 C 1141.41 1.78786 2.80935 0
M  V30 15015 H 1144.39 3.41248 7.98759 0
M  V30 15016 H 1144.66 2.5837 6.41742 0
M  V30 15017 H 1143.8 5.02657 6.42673 0
M  V30 15018 P 1139.83 6.144 6.45285 0
M  V30 15019 O 1139.61 7.54673 6.86199 0
M  V30 15020 O 1139.04 5.12391 7.179 0
M  V30 15021 O 1139.58 5.99158 4.88404 0
M  V30 15022 C 1140.52 6.60234 3.96415 0
M  V30 15023 C 1139.79 7.08259 2.72856 0
M  V30 15024 O 1139.58 5.9427 1.83651 0
M  V30 15025 C 1138.39 7.64886 2.9555 0
M  V30 15026 O 1138 8.53963 1.90717 0
M  V30 15027 C 1137.51 6.4116 2.90739 0
M  V30 15028 C 1138.22 5.55375 1.86963 0
M  V30 15029 N 1138.17 4.09664 2.15742 0
M  V30 15030 H 1141.01 7.45574 4.45629 0
M  V30 15031 H 1141.28 5.86232 3.67314 0
M  V30 15032 H 1140.42 7.84412 2.24479 0
M  V30 15033 P 1136.45 8.7635 1.60911 0
M  V30 15034 O 1136.23 10.1388 1.11561 0
M  V30 15035 O 1135.66 8.36503 2.79617 0
M  V30 15036 O 1136.2 7.71806 0.42951 0
M  V30 15037 C 1137.14 7.67148 -0.673689 0
M  V30 15038 C 1136.41 7.33374 -1.95559 0
M  V30 15039 O 1136.2 5.88721 -2.00726 0
M  V30 15040 C 1135.01 7.92526 -2.10483 0
M  V30 15041 O 1134.62 8.02971 -3.47653 0
M  V30 15042 C 1134.13 6.89602 -1.41652 0
M  V30 15043 C 1134.84 5.59201 -1.75185 0
M  V30 15044 N 1134.79 4.58235 -0.662552 0
M  V30 15045 H 1137.63 8.65116 -0.777161 0
M  V30 15046 H 1137.9 6.90173 -0.474152 0
M  V30 15047 H 1137.04 7.66548 -2.79458 0
M  V30 15048 P 1133.07 8.03563 -3.84925 0
M  V30 15049 O 1132.85 8.85821 -5.0569 0
M  V30 15050 O 1132.28 8.41101 -2.65469 0
M  V30 15051 O 1132.82 6.4965 -4.18908 0
M  V30 15052 C 1133.76 5.81037 -5.05421 0
M  V30 15053 C 1133.03 4.78366 -5.89277 0
M  V30 15054 O 1132.82 3.58302 -5.08433 0
M  V30 15055 C 1131.63 5.17448 -6.36119 0
M  V30 15056 O 1131.24 4.45271 -7.53232 0
M  V30 15057 C 1130.75 4.74639 -5.19936 0
M  V30 15058 C 1131.46 3.49432 -4.70418 0
M  V30 15059 N 1131.41 3.31776 -3.22945 0
M  V30 15060 H 1134.25 6.54213 -5.71376 0
M  V30 15061 H 1134.52 5.30492 -4.44033 0
M  V30 15062 H 1133.66 4.55889 -6.76652 0
M  V30 15063 P 1129.69 4.23843 -7.83734 0
M  V30 15064 O 1129.47 4.19407 -9.29784 0
M  V30 15065 O 1128.9 5.24426 -7.09156 0
M  V30 15066 O 1129.44 2.7935 -7.20758 0
M  V30 15067 C 1130.38 1.7299 -7.50419 0
M  V30 15068 C 1129.65 0.406376 -7.57911 0
M  V30 15069 O 1129.44 -0.0897726 -6.21935 0
M  V30 15070 C 1128.25 0.447224 -8.1878 0
M  V30 15071 O 1127.86 -0.825065 -8.71101 0
M  V30 15072 C 1127.37 0.783801 -6.99623 0
M  V30 15073 C 1128.08 0.0619192 -5.85967 0
M  V30 15074 N 1128.03 0.7859 -4.56281 0
M  V30 15075 H 1130.87 1.93423 -8.4679 0
M  V30 15076 H 1131.14 1.68181 -6.71046 0
M  V30 15077 H 1130.28 -0.289041 -8.15388 0
M  V30 15078 P 1126.31 -1.17771 -8.83182 0
M  V30 15079 O 1126.09 -2.07206 -9.98732 0
M  V30 15080 O 1125.52 0.0743816 -8.81969 0
M  V30 15081 O 1126.06 -1.97652 -7.47304 0
M  V30 15082 C 1127 -3.01133 -7.08783 0
M  V30 15083 C 1126.27 -4.12613 -6.37049 0
M  V30 15084 O 1126.06 -3.72827 -4.97879 0
M  V30 15085 C 1124.87 -4.45085 -6.88694 0
M  V30 15086 O 1124.48 -5.7877 -6.5624 0
M  V30 15087 C 1123.99 -3.47817 -6.12078 0
M  V30 15088 C 1124.7 -3.39414 -4.77697 0
M  V30 15089 N 1124.65 -2.04199 -4.15538 0
M  V30 15090 H 1127.49 -3.41248 -7.98759 0
M  V30 15091 H 1127.76 -2.57728 -6.42 0
M  V30 15092 H 1126.9 -5.02657 -6.42673 0
M  V30 15093 H 1124.24 -4.11708 -4.08956 0
M  V30 15094 H 1123.96 -2.49626 -6.61679 0
M  V30 15095 H 1122.97 -3.8662 -6.00862 0
M  V30 15096 H 1124.8 -4.29991 -7.97006 0
M  V30 15097 P 1122.93 -6.144 -6.45285 0
M  V30 15098 O 1122.71 -7.54673 -6.86199 0
M  V30 15099 O 1122.14 -5.12391 -7.179 0
M  V30 15100 O 1122.68 -5.99158 -4.88404 0
M  V30 15101 C 1123.62 -6.60234 -3.96415 0
M  V30 15102 C 1122.89 -7.08259 -2.72856 0
M  V30 15103 O 1122.68 -5.9427 -1.83651 0
M  V30 15104 C 1121.49 -7.64886 -2.9555 0
M  V30 15105 O 1121.1 -8.53963 -1.90717 0
M  V30 15106 C 1120.61 -6.4116 -2.90739 0
M  V30 15107 C 1121.32 -5.55375 -1.86963 0
M  V30 15108 N 1121.27 -4.09664 -2.15742 0
M  V30 15109 H 1124.11 -7.45574 -4.45629 0
M  V30 15110 H 1124.38 -5.86232 -3.67314 0
M  V30 15111 H 1123.52 -7.84412 -2.24479 0
M  V30 15112 P 1119.55 -8.7635 -1.60911 0
M  V30 15113 O 1119.33 -10.1388 -1.11561 0
M  V30 15114 O 1118.76 -8.36503 -2.79617 0
M  V30 15115 O 1119.3 -7.71806 -0.42951 0
M  V30 15116 C 1120.24 -7.67148 0.673689 0
M  V30 15117 C 1119.51 -7.33374 1.95559 0
M  V30 15118 O 1119.3 -5.88721 2.00726 0
M  V30 15119 C 1118.11 -7.92526 2.10483 0
M  V30 15120 O 1117.72 -8.02971 3.47653 0
M  V30 15121 C 1117.23 -6.89602 1.41652 0
M  V30 15122 C 1117.94 -5.59201 1.75185 0
M  V30 15123 N 1117.89 -4.58235 0.662552 0
M  V30 15124 H 1120.73 -8.65116 0.777161 0
M  V30 15125 H 1121 -6.90173 0.474152 0
M  V30 15126 H 1120.14 -7.66548 2.79458 0
M  V30 15127 P 1116.17 -8.03563 3.84925 0
M  V30 15128 O 1115.95 -8.85821 5.0569 0
M  V30 15129 O 1115.38 -8.41101 2.65469 0
M  V30 15130 O 1115.92 -6.4965 4.18908 0
M  V30 15131 C 1116.86 -5.80886 5.05289 0
M  V30 15132 C 1116.13 -4.78366 5.89277 0
M  V30 15133 O 1115.92 -3.58302 5.08433 0
M  V30 15134 C 1114.73 -5.16748 6.36559 0
M  V30 15135 O 1114.34 -4.45271 7.53232 0
M  V30 15136 C 1113.85 -4.74572 5.19863 0
M  V30 15137 C 1114.56 -3.49373 4.70338 0
M  V30 15138 N 1114.51 -3.31704 3.22876 0
M  V30 15139 C 1114.36 -2.03326 2.74871 0
M  V30 15140 O 1114.27 -1.06486 3.48076 0
M  V30 15141 N 1114.32 -1.91838 1.37456 0
M  V30 15142 C 1114.41 -2.94295 0.462035 0
M  V30 15143 O 1114.36 -2.71763 -0.752928 0
M  V30 15144 C 1114.56 -4.25064 1.05249 0
M  V30 15145 C 1114.67 -5.39815 0.095697 0
M  V30 15146 C 1114.61 -4.40214 2.39192 0
M  V30 15147 H 1117.35 -6.54063 5.71245 0
M  V30 15148 H 1117.62 -5.30339 4.43905 0
M  V30 15149 H 1116.76 -4.55889 6.76652 0
M  V30 15150 H 1114.1 -2.6167 5.17842 0
M  V30 15151 H 1113.82 -5.52155 4.41878 0
M  V30 15152 H 1112.83 -4.51918 5.53297 0
M  V30 15153 H 1114.66 -6.25055 6.55162 0
M  V30 15154 H 1114.74 -5.39798 2.81523 0
M  V30 15155 H 1113.71 -5.91593 0.0279582 0
M  V30 15156 H 1115.44 -6.10038 0.450573 0
M  V30 15157 H 1114.95 -5.02007 -0.89937 0
M  V30 15158 H 1114.22 -0.995326 1.00435 0
M  V30 15159 P 1112.79 -4.23843 7.83734 0
M  V30 15160 O 1112.57 -4.19407 9.29784 0
M  V30 15161 O 1112 -5.24426 7.09156 0
M  V30 15162 O 1112.54 -2.7935 7.20758 0
M  V30 15163 C 1113.48 -1.7299 7.50419 0
M  V30 15164 C 1112.75 -0.406376 7.57911 0
M  V30 15165 O 1112.54 0.0897726 6.21935 0
M  V30 15166 C 1111.35 -0.447224 8.1878 0
M  V30 15167 O 1110.96 0.825065 8.71101 0
M  V30 15168 C 1110.47 -0.783801 6.99623 0
M  V30 15169 C 1111.18 -0.0619192 5.85967 0
M  V30 15170 N 1111.13 -0.7859 4.56281 0
M  V30 15171 C 1111.21 -2.14308 4.31736 0
M  V30 15172 N 1111.13 -2.46106 3.05116 0
M  V30 15173 C 1110.99 -1.23422 2.4014 0
M  V30 15174 C 1110.86 -0.938381 1.02409 0
M  V30 15175 N 1110.74 0.444647 0.805413 0
M  V30 15176 C 1110.74 1.40829 1.79435 0
M  V30 15177 N 1110.61 2.67213 1.38558 0
M  V30 15178 N 1110.87 1.12947 3.09005 0
M  V30 15179 C 1110.99 -0.204887 3.32369 0
M  V30 15180 H 1113.97 -1.93423 8.4679 0
M  V30 15181 H 1114.24 -1.68181 6.71046 0
M  V30 15182 H 1113.38 0.289041 8.15388 0
M  V30 15183 P 1109.41 1.17771 8.83182 0
M  V30 15184 O 1109.19 2.07206 9.98732 0
M  V30 15185 O 1108.62 -0.0743816 8.81969 0
M  V30 15186 O 1109.16 1.97652 7.47304 0
M  V30 15187 C 1110.1 3.01133 7.08783 0
M  V30 15188 C 1109.37 4.12613 6.37049 0
M  V30 15189 O 1109.16 3.72827 4.97879 0
M  V30 15190 C 1107.97 4.45085 6.88694 0
M  V30 15191 O 1107.58 5.7877 6.5624 0
M  V30 15192 C 1107.09 3.47817 6.12078 0
M  V30 15193 C 1107.8 3.39414 4.77697 0
M  V30 15194 N 1107.75 2.04615 4.15333 0
M  V30 15195 H 1110.59 3.41248 7.98759 0
M  V30 15196 H 1110.86 2.5837 6.41742 0
M  V30 15197 H 1110 5.02657 6.42673 0
M  V30 15198 P 1106.03 6.144 6.45285 0
M  V30 15199 O 1105.81 7.54673 6.86199 0
M  V30 15200 O 1105.24 5.12391 7.179 0
M  V30 15201 O 1105.78 5.99158 4.88404 0
M  V30 15202 C 1106.72 6.60234 3.96415 0
M  V30 15203 C 1105.99 7.08259 2.72856 0
M  V30 15204 O 1105.78 5.9427 1.83651 0
M  V30 15205 C 1104.59 7.64886 2.9555 0
M  V30 15206 O 1104.2 8.53963 1.90717 0
M  V30 15207 C 1103.71 6.4116 2.90739 0
M  V30 15208 C 1104.42 5.55375 1.86963 0
M  V30 15209 N 1104.37 4.09664 2.15742 0
M  V30 15210 H 1107.21 7.45574 4.45629 0
M  V30 15211 H 1107.48 5.86232 3.67314 0
M  V30 15212 H 1106.62 7.84412 2.24479 0
M  V30 15213 P 1102.65 8.7635 1.60911 0
M  V30 15214 O 1102.43 10.1388 1.11561 0
M  V30 15215 O 1101.86 8.36503 2.79617 0
M  V30 15216 O 1102.4 7.71806 0.42951 0
M  V30 15217 C 1103.34 7.67148 -0.673689 0
M  V30 15218 C 1102.61 7.33374 -1.95559 0
M  V30 15219 O 1102.4 5.88721 -2.00726 0
M  V30 15220 C 1101.21 7.92526 -2.10483 0
M  V30 15221 O 1100.82 8.02971 -3.47653 0
M  V30 15222 C 1100.33 6.89602 -1.41652 0
M  V30 15223 C 1101.04 5.59201 -1.75185 0
M  V30 15224 N 1100.99 4.58235 -0.662552 0
M  V30 15225 H 1103.83 8.65116 -0.777161 0
M  V30 15226 H 1104.1 6.90173 -0.474152 0
M  V30 15227 H 1103.24 7.66548 -2.79458 0
M  V30 15228 P 1099.27 8.03563 -3.84925 0
M  V30 15229 O 1099.05 8.85821 -5.0569 0
M  V30 15230 O 1098.48 8.41101 -2.65469 0
M  V30 15231 O 1099.02 6.4965 -4.18908 0
M  V30 15232 C 1099.96 5.81037 -5.05421 0
M  V30 15233 C 1099.23 4.78366 -5.89277 0
M  V30 15234 O 1099.02 3.58302 -5.08433 0
M  V30 15235 C 1097.83 5.17448 -6.36119 0
M  V30 15236 O 1097.44 4.45271 -7.53232 0
M  V30 15237 C 1096.95 4.74639 -5.19936 0
M  V30 15238 C 1097.66 3.49432 -4.70418 0
M  V30 15239 N 1097.61 3.31776 -3.22945 0
M  V30 15240 H 1100.45 6.54213 -5.71376 0
M  V30 15241 H 1100.72 5.30492 -4.44033 0
M  V30 15242 H 1099.86 4.55889 -6.76652 0
M  V30 15243 P 1095.89 4.23843 -7.83734 0
M  V30 15244 O 1095.67 4.19407 -9.29784 0
M  V30 15245 O 1095.1 5.24426 -7.09156 0
M  V30 15246 O 1095.64 2.7935 -7.20758 0
M  V30 15247 C 1096.58 1.7299 -7.50419 0
M  V30 15248 C 1095.85 0.406376 -7.57911 0
M  V30 15249 O 1095.64 -0.0897726 -6.21935 0
M  V30 15250 C 1094.45 0.447224 -8.1878 0
M  V30 15251 O 1094.06 -0.825065 -8.71101 0
M  V30 15252 C 1093.57 0.783801 -6.99623 0
M  V30 15253 C 1094.28 0.0619192 -5.85967 0
M  V30 15254 N 1094.23 0.790462 -4.56202 0
M  V30 15255 H 1097.07 1.93423 -8.4679 0
M  V30 15256 H 1097.34 1.68852 -6.70877 0
M  V30 15257 H 1096.48 -0.289041 -8.15388 0
M  V30 15258 H 1093.82 -0.927006 -5.72848 0
M  V30 15259 H 1093.54 1.86973 -6.82036 0
M  V30 15260 H 1092.55 0.403953 -7.13357 0
M  V30 15261 H 1094.38 1.20599 -8.97534 0
M  V30 15262 P 1092.51 -1.17771 -8.83182 0
M  V30 15263 O 1092.29 -2.07206 -9.98732 0
M  V30 15264 O 1091.72 0.0743816 -8.81969 0
M  V30 15265 O 1092.26 -1.97652 -7.47304 0
M  V30 15266 C 1093.2 -3.01133 -7.08783 0
M  V30 15267 C 1092.47 -4.12613 -6.37049 0
M  V30 15268 O 1092.26 -3.72827 -4.97879 0
M  V30 15269 C 1091.07 -4.45085 -6.88694 0
M  V30 15270 O 1090.68 -5.7877 -6.5624 0
M  V30 15271 C 1090.19 -3.47817 -6.12078 0
M  V30 15272 C 1090.9 -3.39414 -4.77697 0
M  V30 15273 N 1090.85 -2.04615 -4.15333 0
M  V30 15274 H 1093.69 -3.41248 -7.98759 0
M  V30 15275 H 1093.96 -2.5837 -6.41742 0
M  V30 15276 H 1093.1 -5.02657 -6.42673 0
M  V30 15277 P 1089.13 -6.144 -6.45285 0
M  V30 15278 O 1088.91 -7.54673 -6.86199 0
M  V30 15279 O 1088.34 -5.12391 -7.179 0
M  V30 15280 O 1088.88 -5.99158 -4.88404 0
M  V30 15281 C 1089.82 -6.60234 -3.96415 0
M  V30 15282 C 1089.09 -7.08259 -2.72856 0
M  V30 15283 O 1088.88 -5.9427 -1.83651 0
M  V30 15284 C 1087.69 -7.64886 -2.9555 0
M  V30 15285 O 1087.3 -8.53963 -1.90717 0
M  V30 15286 C 1086.81 -6.4116 -2.90739 0
M  V30 15287 C 1087.52 -5.55375 -1.86963 0
M  V30 15288 N 1087.47 -4.09664 -2.15742 0
M  V30 15289 H 1090.31 -7.45574 -4.45629 0
M  V30 15290 H 1090.58 -5.86232 -3.67314 0
M  V30 15291 H 1089.72 -7.84412 -2.24479 0
M  V30 15292 P 1085.75 -8.7635 -1.60911 0
M  V30 15293 O 1085.53 -10.1388 -1.11561 0
M  V30 15294 O 1084.96 -8.36503 -2.79617 0
M  V30 15295 O 1085.5 -7.71806 -0.42951 0
M  V30 15296 C 1086.44 -7.66948 0.673514 0
M  V30 15297 C 1085.71 -7.33374 1.95559 0
M  V30 15298 O 1085.5 -5.88721 2.00726 0
M  V30 15299 C 1084.31 -7.92218 2.1125 0
M  V30 15300 O 1083.92 -8.02971 3.47653 0
M  V30 15301 C 1083.43 -6.89504 1.41631 0
M  V30 15302 C 1084.14 -5.59106 1.75155 0
M  V30 15303 N 1084.09 -4.58136 0.662409 0
M  V30 15304 C 1083.94 -3.26059 1.02863 0
M  V30 15305 O 1083.85 -2.90743 2.19009 0
M  V30 15306 N 1083.9 -2.35995 -0.0155585 0
M  V30 15307 C 1083.99 -2.65248 -1.35603 0
M  V30 15308 C 1084.14 -4.05747 -1.64698 0
M  V30 15309 C 1084.19 -4.96734 -0.652411 0
M  V30 15310 H 1086.93 -8.64917 0.776982 0
M  V30 15311 H 1087.2 -6.89974 0.474015 0
M  V30 15312 H 1086.34 -7.66548 2.79458 0
M  V30 15313 H 1083.68 -5.16076 2.65138 0
M  V30 15314 H 1083.4 -7.06433 0.329384 0
M  V30 15315 H 1082.41 -6.90829 1.81996 0
M  V30 15316 H 1084.24 -8.90774 1.62639 0
M  V30 15317 H 1084.32 -6.02181 -0.895285 0
M  V30 15318 P 1082.37 -8.03563 3.84925 0
M  V30 15319 O 1082.15 -8.85821 5.0569 0
M  V30 15320 O 1081.58 -8.41101 2.65469 0
M  V30 15321 O 1082.12 -6.4965 4.18908 0
M  V30 15322 C 1083.06 -5.81037 5.05421 0
M  V30 15323 C 1082.33 -4.78366 5.89277 0
M  V30 15324 O 1082.12 -3.58302 5.08433 0
M  V30 15325 C 1080.93 -5.17448 6.36119 0
M  V30 15326 O 1080.54 -4.45271 7.53232 0
M  V30 15327 C 1080.05 -4.74639 5.19936 0
M  V30 15328 C 1080.76 -3.49432 4.70418 0
M  V30 15329 N 1080.71 -3.31776 3.22945 0
M  V30 15330 H 1083.55 -6.54213 5.71376 0
M  V30 15331 H 1083.82 -5.30492 4.44033 0
M  V30 15332 H 1082.96 -4.55889 6.76652 0
M  V30 15333 P 1078.99 -4.23843 7.83734 0
M  V30 15334 O 1078.77 -4.19407 9.29784 0
M  V30 15335 O 1078.2 -5.24426 7.09156 0
M  V30 15336 O 1078.74 -2.7935 7.20758 0
M  V30 15337 C 1079.68 -1.7299 7.50419 0
M  V30 15338 C 1078.95 -0.406376 7.57911 0
M  V30 15339 O 1078.74 0.0897726 6.21935 0
M  V30 15340 C 1077.55 -0.447224 8.1878 0
M  V30 15341 O 1077.16 0.825065 8.71101 0
M  V30 15342 C 1076.67 -0.783801 6.99623 0
M  V30 15343 C 1077.38 -0.0619192 5.85967 0
M  V30 15344 N 1077.33 -0.790462 4.56202 0
M  V30 15345 H 1080.17 -1.93423 8.4679 0
M  V30 15346 H 1080.44 -1.68852 6.70877 0
M  V30 15347 H 1079.58 0.289041 8.15388 0
M  V30 15348 H 1076.92 0.927006 5.72848 0
M  V30 15349 H 1076.64 -1.86973 6.82036 0
M  V30 15350 H 1075.65 -0.403953 7.13357 0
M  V30 15351 H 1077.48 -1.20599 8.97534 0
M  V30 15352 P 1075.61 1.17771 8.83182 0
M  V30 15353 O 1075.39 2.07206 9.98732 0
M  V30 15354 O 1074.82 -0.0743816 8.81969 0
M  V30 15355 O 1075.36 1.97652 7.47304 0
M  V30 15356 C 1076.3 3.01133 7.08783 0
M  V30 15357 C 1075.57 4.12613 6.37049 0
M  V30 15358 O 1075.36 3.72827 4.97879 0
M  V30 15359 C 1074.17 4.45085 6.88694 0
M  V30 15360 O 1073.78 5.7877 6.5624 0
M  V30 15361 C 1073.29 3.47817 6.12078 0
M  V30 15362 C 1074 3.39414 4.77697 0
M  V30 15363 N 1073.95 2.04199 4.15538 0
M  V30 15364 H 1076.79 3.41248 7.98759 0
M  V30 15365 H 1077.06 2.57728 6.42 0
M  V30 15366 H 1076.2 5.02657 6.42673 0
M  V30 15367 H 1073.54 4.11708 4.08956 0
M  V30 15368 H 1073.26 2.49626 6.61679 0
M  V30 15369 H 1072.27 3.8662 6.00862 0
M  V30 15370 H 1074.1 4.29991 7.97006 0
M  V30 15371 P 1072.23 6.144 6.45285 0
M  V30 15372 O 1072.01 7.54673 6.86199 0
M  V30 15373 O 1071.44 5.12391 7.179 0
M  V30 15374 O 1071.98 5.99158 4.88404 0
M  V30 15375 C 1072.92 6.60234 3.96415 0
M  V30 15376 C 1072.19 7.08259 2.72856 0
M  V30 15377 O 1071.98 5.9427 1.83651 0
M  V30 15378 C 1070.79 7.64886 2.9555 0
M  V30 15379 O 1070.4 8.53963 1.90717 0
M  V30 15380 C 1069.91 6.4116 2.90739 0
M  V30 15381 C 1070.62 5.55375 1.86963 0
M  V30 15382 N 1070.57 4.09664 2.15742 0
M  V30 15383 H 1073.41 7.45574 4.45629 0
M  V30 15384 H 1073.68 5.86232 3.67314 0
M  V30 15385 H 1072.82 7.84412 2.24479 0
M  V30 15386 P 1068.85 8.7635 1.60911 0
M  V30 15387 O 1068.63 10.1388 1.11561 0
M  V30 15388 O 1068.06 8.36503 2.79617 0
M  V30 15389 O 1068.6 7.71806 0.42951 0
M  V30 15390 C 1069.54 7.67148 -0.673689 0
M  V30 15391 C 1068.81 7.33374 -1.95559 0
M  V30 15392 O 1068.6 5.88721 -2.00726 0
M  V30 15393 C 1067.41 7.92526 -2.10483 0
M  V30 15394 O 1067.02 8.02971 -3.47653 0
M  V30 15395 C 1066.53 6.89602 -1.41652 0
M  V30 15396 C 1067.24 5.59201 -1.75185 0
M  V30 15397 N 1067.19 4.58235 -0.662552 0
M  V30 15398 H 1070.03 8.65116 -0.777161 0
M  V30 15399 H 1070.3 6.90173 -0.474152 0
M  V30 15400 H 1069.44 7.66548 -2.79458 0
M  V30 15401 P 1065.47 8.03563 -3.84925 0
M  V30 15402 O 1065.25 8.85821 -5.0569 0
M  V30 15403 O 1064.68 8.41101 -2.65469 0
M  V30 15404 O 1065.22 6.4965 -4.18908 0
M  V30 15405 C 1066.16 5.81037 -5.05421 0
M  V30 15406 C 1065.43 4.78366 -5.89277 0
M  V30 15407 O 1065.22 3.58302 -5.08433 0
M  V30 15408 C 1064.03 5.17448 -6.36119 0
M  V30 15409 O 1063.64 4.45271 -7.53232 0
M  V30 15410 C 1063.15 4.74639 -5.19936 0
M  V30 15411 C 1063.86 3.49432 -4.70418 0
M  V30 15412 N 1063.81 3.31776 -3.22945 0
M  V30 15413 H 1066.65 6.54213 -5.71376 0
M  V30 15414 H 1066.92 5.30492 -4.44033 0
M  V30 15415 H 1066.06 4.55889 -6.76652 0
M  V30 15416 P 1062.09 4.23843 -7.83734 0
M  V30 15417 O 1061.87 4.19407 -9.29784 0
M  V30 15418 O 1061.3 5.24426 -7.09156 0
M  V30 15419 O 1061.84 2.7935 -7.20758 0
M  V30 15420 C 1062.78 1.72945 -7.50224 0
M  V30 15421 C 1062.05 0.406376 -7.57911 0
M  V30 15422 O 1061.84 -0.0897726 -6.21935 0
M  V30 15423 C 1060.65 0.438983 -8.18724 0
M  V30 15424 O 1060.26 -0.825065 -8.71101 0
M  V30 15425 C 1059.77 0.783689 -6.99524 0
M  V30 15426 C 1060.48 0.0619086 -5.85867 0
M  V30 15427 N 1060.43 0.78573 -4.56183 0
M  V30 15428 C 1060.28 0.0292889 -3.41887 0
M  V30 15429 O 1060.19 -1.18445 -3.4419 0
M  V30 15430 N 1060.24 0.744061 -2.23964 0
M  V30 15431 C 1060.33 2.10932 -2.10362 0
M  V30 15432 O 1060.28 2.64117 -0.98825 0
M  V30 15433 C 1060.48 2.8202 -3.34994 0
M  V30 15434 C 1060.59 4.31095 -3.25037 0
M  V30 15435 C 1060.53 2.15547 -4.52261 0
M  V30 15436 H 1063.27 1.93379 -8.46595 0
M  V30 15437 H 1063.54 1.68132 -6.70852 0
M  V30 15438 H 1062.68 -0.289041 -8.15388 0
M  V30 15439 H 1060.02 -0.926847 -5.72749 0
M  V30 15440 H 1059.74 1.86973 -6.82036 0
M  V30 15441 H 1058.75 0.403896 -7.13257 0
M  V30 15442 H 1060.58 1.20585 -8.97435 0
M  V30 15443 H 1060.66 2.71231 -5.45042 0
M  V30 15444 H 1059.63 4.76966 -3.49992 0
M  V30 15445 H 1061.36 4.67047 -3.95024 0
M  V30 15446 H 1060.87 4.58996 -2.22312 0
M  V30 15447 H 1060.14 0.214893 -1.39758 0
M  V30 15448 P 1058.71 -1.17771 -8.83182 0
M  V30 15449 O 1058.49 -2.07206 -9.98732 0
M  V30 15450 O 1057.92 0.0743816 -8.81969 0
M  V30 15451 O 1058.46 -1.97652 -7.47304 0
M  V30 15452 C 1059.4 -3.01133 -7.08783 0
M  V30 15453 C 1058.67 -4.12613 -6.37049 0
M  V30 15454 O 1058.46 -3.72827 -4.97879 0
M  V30 15455 C 1057.27 -4.45085 -6.88694 0
M  V30 15456 O 1056.88 -5.7877 -6.5624 0
M  V30 15457 C 1056.39 -3.47817 -6.12078 0
M  V30 15458 C 1057.1 -3.39414 -4.77697 0
M  V30 15459 N 1057.05 -2.04615 -4.15333 0
M  V30 15460 H 1059.89 -3.41248 -7.98759 0
M  V30 15461 H 1060.16 -2.5837 -6.41742 0
M  V30 15462 H 1059.3 -5.02657 -6.42673 0
M  V30 15463 P 1055.33 -6.144 -6.45285 0
M  V30 15464 O 1055.11 -7.54673 -6.86199 0
M  V30 15465 O 1054.54 -5.12391 -7.179 0
M  V30 15466 O 1055.08 -5.99158 -4.88404 0
M  V30 15467 C 1056.02 -6.60234 -3.96415 0
M  V30 15468 C 1055.29 -7.08259 -2.72856 0
M  V30 15469 O 1055.08 -5.9427 -1.83651 0
M  V30 15470 C 1053.89 -7.64886 -2.9555 0
M  V30 15471 O 1053.5 -8.53963 -1.90717 0
M  V30 15472 C 1053.01 -6.4116 -2.90739 0
M  V30 15473 C 1053.72 -5.55375 -1.86963 0
M  V30 15474 N 1053.67 -4.09664 -2.15742 0
M  V30 15475 H 1056.51 -7.45574 -4.45629 0
M  V30 15476 H 1056.78 -5.86232 -3.67314 0
M  V30 15477 H 1055.92 -7.84412 -2.24479 0
M  V30 15478 P 1051.95 -8.7635 -1.60911 0
M  V30 15479 O 1051.73 -10.1388 -1.11561 0
M  V30 15480 O 1051.16 -8.36503 -2.79617 0
M  V30 15481 O 1051.7 -7.71806 -0.42951 0
M  V30 15482 C 1052.64 -7.67148 0.673689 0
M  V30 15483 C 1051.91 -7.33374 1.95559 0
M  V30 15484 O 1051.7 -5.88721 2.00726 0
M  V30 15485 C 1050.51 -7.92526 2.10483 0
M  V30 15486 O 1050.12 -8.02971 3.47653 0
M  V30 15487 C 1049.63 -6.89602 1.41652 0
M  V30 15488 C 1050.34 -5.59201 1.75185 0
M  V30 15489 N 1050.29 -4.58235 0.662552 0
M  V30 15490 H 1053.13 -8.65116 0.777161 0
M  V30 15491 H 1053.4 -6.90173 0.474152 0
M  V30 15492 H 1052.54 -7.66548 2.79458 0
M  V30 15493 P 1048.57 -8.03563 3.84925 0
M  V30 15494 O 1048.35 -8.85821 5.0569 0
M  V30 15495 O 1047.78 -8.41101 2.65469 0
M  V30 15496 O 1048.32 -6.4965 4.18908 0
M  V30 15497 C 1049.26 -5.81037 5.05421 0
M  V30 15498 C 1048.53 -4.78366 5.89277 0
M  V30 15499 O 1048.32 -3.58302 5.08433 0
M  V30 15500 C 1047.13 -5.17448 6.36119 0
M  V30 15501 O 1046.74 -4.45271 7.53232 0
M  V30 15502 C 1046.25 -4.74639 5.19936 0
M  V30 15503 C 1046.96 -3.49432 4.70418 0
M  V30 15504 N 1046.91 -3.31776 3.22945 0
M  V30 15505 H 1049.75 -6.54213 5.71376 0
M  V30 15506 H 1050.02 -5.30492 4.44033 0
M  V30 15507 H 1049.16 -4.55889 6.76652 0
M  V30 15508 P 1045.19 -4.23843 7.83734 0
M  V30 15509 O 1044.97 -4.19407 9.29784 0
M  V30 15510 O 1044.4 -5.24426 7.09156 0
M  V30 15511 O 1044.94 -2.7935 7.20758 0
M  V30 15512 C 1045.88 -1.72945 7.50224 0
M  V30 15513 C 1045.15 -0.406376 7.57911 0
M  V30 15514 O 1044.94 0.0897726 6.21935 0
M  V30 15515 C 1043.75 -0.438983 8.18724 0
M  V30 15516 O 1043.36 0.825065 8.71101 0
M  V30 15517 C 1042.87 -0.783689 6.99524 0
M  V30 15518 C 1043.58 -0.0619086 5.85867 0
M  V30 15519 N 1043.53 -0.78573 4.56183 0
M  V30 15520 C 1043.38 -0.0292889 3.41887 0
M  V30 15521 O 1043.29 1.18445 3.4419 0
M  V30 15522 N 1043.34 -0.744061 2.23964 0
M  V30 15523 C 1043.43 -2.10932 2.10362 0
M  V30 15524 O 1043.38 -2.64117 0.98825 0
M  V30 15525 C 1043.58 -2.8202 3.34994 0
M  V30 15526 C 1043.69 -4.31095 3.25037 0
M  V30 15527 C 1043.63 -2.15547 4.52261 0
M  V30 15528 H 1046.37 -1.93379 8.46595 0
M  V30 15529 H 1046.64 -1.68132 6.70852 0
M  V30 15530 H 1045.78 0.289041 8.15388 0
M  V30 15531 H 1043.12 0.926847 5.72749 0
M  V30 15532 H 1042.84 -1.86973 6.82036 0
M  V30 15533 H 1041.85 -0.403896 7.13257 0
M  V30 15534 H 1043.68 -1.20585 8.97435 0
M  V30 15535 H 1043.76 -2.71231 5.45042 0
M  V30 15536 H 1042.73 -4.76966 3.49992 0
M  V30 15537 H 1044.46 -4.67047 3.95024 0
M  V30 15538 H 1043.97 -4.58996 2.22312 0
M  V30 15539 H 1043.24 -0.214893 1.39758 0
M  V30 15540 P 1041.81 1.17771 8.83182 0
M  V30 15541 O 1041.59 2.07206 9.98732 0
M  V30 15542 O 1041.02 -0.0743816 8.81969 0
M  V30 15543 O 1041.56 1.97652 7.47304 0
M  V30 15544 C 1042.5 3.01133 7.08783 0
M  V30 15545 C 1041.77 4.12613 6.37049 0
M  V30 15546 O 1041.56 3.72827 4.97879 0
M  V30 15547 C 1040.37 4.45085 6.88694 0
M  V30 15548 O 1039.98 5.7877 6.5624 0
M  V30 15549 C 1039.49 3.47817 6.12078 0
M  V30 15550 C 1040.2 3.39414 4.77697 0
M  V30 15551 N 1040.15 2.04615 4.15333 0
M  V30 15552 H 1042.99 3.41248 7.98759 0
M  V30 15553 H 1043.26 2.5837 6.41742 0
M  V30 15554 H 1042.4 5.02657 6.42673 0
M  V30 15555 P 1038.43 6.144 6.45285 0
M  V30 15556 O 1038.21 7.54673 6.86199 0
M  V30 15557 O 1037.64 5.12391 7.179 0
M  V30 15558 O 1038.18 5.99158 4.88404 0
M  V30 15559 C 1039.12 6.60234 3.96415 0
M  V30 15560 C 1038.39 7.08259 2.72856 0
M  V30 15561 O 1038.18 5.9427 1.83651 0
M  V30 15562 C 1036.99 7.64886 2.9555 0
M  V30 15563 O 1036.6 8.53963 1.90717 0
M  V30 15564 C 1036.11 6.4116 2.90739 0
M  V30 15565 C 1036.82 5.55375 1.86963 0
M  V30 15566 N 1036.77 4.09664 2.15742 0
M  V30 15567 H 1039.61 7.45574 4.45629 0
M  V30 15568 H 1039.88 5.86232 3.67314 0
M  V30 15569 H 1039.02 7.84412 2.24479 0
M  V30 15570 P 1035.05 8.7635 1.60911 0
M  V30 15571 O 1034.83 10.1388 1.11561 0
M  V30 15572 O 1034.26 8.36503 2.79617 0
M  V30 15573 O 1034.8 7.71806 0.42951 0
M  V30 15574 C 1035.74 7.67148 -0.673689 0
M  V30 15575 C 1035.01 7.33374 -1.95559 0
M  V30 15576 O 1034.8 5.88721 -2.00726 0
M  V30 15577 C 1033.61 7.92526 -2.10483 0
M  V30 15578 O 1033.22 8.02971 -3.47653 0
M  V30 15579 C 1032.73 6.89602 -1.41652 0
M  V30 15580 C 1033.44 5.59201 -1.75185 0
M  V30 15581 N 1033.39 4.58301 -0.657969 0
M  V30 15582 H 1036.23 8.65116 -0.777161 0
M  V30 15583 H 1036.5 6.9022 -0.46725 0
M  V30 15584 H 1035.64 7.66548 -2.79458 0
M  V30 15585 H 1032.98 5.16165 -2.65183 0
M  V30 15586 H 1032.7 7.06433 -0.329384 0
M  V30 15587 H 1031.71 6.90926 -1.82021 0
M  V30 15588 H 1033.54 8.90873 -1.62657 0
M  V30 15589 P 1031.67 8.03563 -3.84925 0
M  V30 15590 O 1031.45 8.85821 -5.0569 0
M  V30 15591 O 1030.88 8.41101 -2.65469 0
M  V30 15592 O 1031.42 6.4965 -4.18908 0
M  V30 15593 C 1032.36 5.81037 -5.05421 0
M  V30 15594 C 1031.63 4.78366 -5.89277 0
M  V30 15595 O 1031.42 3.58302 -5.08433 0
M  V30 15596 C 1030.23 5.17448 -6.36119 0
M  V30 15597 O 1029.84 4.45271 -7.53232 0
M  V30 15598 C 1029.35 4.74639 -5.19936 0
M  V30 15599 C 1030.06 3.49432 -4.70418 0
M  V30 15600 N 1030.01 3.31776 -3.22945 0
M  V30 15601 H 1032.85 6.54213 -5.71376 0
M  V30 15602 H 1033.12 5.30492 -4.44033 0
M  V30 15603 H 1032.26 4.55889 -6.76652 0
M  V30 15604 P 1028.29 4.23843 -7.83734 0
M  V30 15605 O 1028.07 4.19407 -9.29784 0
M  V30 15606 O 1027.5 5.24426 -7.09156 0
M  V30 15607 O 1028.04 2.7935 -7.20758 0
M  V30 15608 C 1028.98 1.7299 -7.50419 0
M  V30 15609 C 1028.25 0.406376 -7.57911 0
M  V30 15610 O 1028.04 -0.0897726 -6.21935 0
M  V30 15611 C 1026.85 0.447224 -8.1878 0
M  V30 15612 O 1026.46 -0.825065 -8.71101 0
M  V30 15613 C 1025.97 0.783801 -6.99623 0
M  V30 15614 C 1026.68 0.0619192 -5.85967 0
M  V30 15615 N 1026.63 0.790462 -4.56202 0
M  V30 15616 C 1026.71 2.13895 -4.34171 0
M  V30 15617 N 1026.64 2.46449 -3.08687 0
M  V30 15618 C 1026.49 1.2525 -2.43697 0
M  V30 15619 C 1026.36 0.914535 -1.07318 0
M  V30 15620 N 1026.35 1.80782 -0.0887348 0
M  V30 15621 N 1026.24 -0.386745 -0.768133 0
M  V30 15622 C 1026.25 -1.28096 -1.75159 0
M  V30 15623 N 1026.37 -1.09708 -3.04861 0
M  V30 15624 C 1026.49 0.214857 -3.32306 0
M  V30 15625 H 1029.47 1.93423 -8.4679 0
M  V30 15626 H 1029.74 1.68852 -6.70877 0
M  V30 15627 H 1028.88 -0.289041 -8.15388 0
M  V30 15628 H 1026.22 -0.927006 -5.72848 0
M  V30 15629 H 1025.94 1.86973 -6.82036 0
M  V30 15630 H 1024.95 0.403953 -7.13357 0
M  V30 15631 H 1026.78 1.20599 -8.97534 0
M  V30 15632 H 1026.83 2.86846 -5.14318 0
M  V30 15633 H 1026.44 2.81082 -0.302037 0
M  V30 15634 H 1026.26 1.49688 0.889064 0
M  V30 15635 H 1026.15 -2.31317 -1.43855 0
M  V30 15636 P 1024.91 -1.17771 -8.83182 0
M  V30 15637 O 1024.69 -2.07206 -9.98732 0
M  V30 15638 O 1024.12 0.0743816 -8.81969 0
M  V30 15639 O 1024.66 -1.97678 -7.474 0
M  V30 15640 C 1025.6 -3.01133 -7.08783 0
M  V30 15641 C 1024.87 -4.1203 -6.37546 0
M  V30 15642 O 1024.66 -3.72887 -4.9796 0
M  V30 15643 C 1023.47 -4.45085 -6.88694 0
M  V30 15644 O 1023.08 -5.78836 -6.56315 0
M  V30 15645 C 1022.59 -3.47817 -6.12078 0
M  V30 15646 C 1023.3 -3.39414 -4.77697 0
M  V30 15647 N 1023.25 -2.04615 -4.15333 0
M  V30 15648 C 1023.1 -1.96929 -2.77162 0
M  V30 15649 O 1023.01 -3.02017 -2.12006 0
M  V30 15650 N 1023.05 -0.55485 -2.24237 0
M  V30 15651 C 1023.15 0.367808 -2.9169 0
M  V30 15652 N 1023.1 1.53426 -2.29427 0
M  V30 15653 C 1023.3 0.319148 -4.33828 0
M  V30 15654 C 1023.35 -0.920672 -4.90433 0
M  V30 15655 H 1026.09 -3.41209 -7.98667 0
M  V30 15656 H 1026.36 -2.5837 -6.41742 0
M  V30 15657 H 1025.5 -5.02718 -6.42752 0
M  V30 15658 H 1022.84 -4.11779 -4.09026 0
M  V30 15659 H 1022.56 -2.49661 -6.61772 0
M  V30 15660 H 1021.57 -3.86674 -6.00946 0
M  V30 15661 H 1023.4 -4.29991 -7.97006 0
M  V30 15662 H 1023.48 -1.00589 -5.98303 0
M  V30 15663 H 1023.37 1.22639 -4.93799 0
M  V30 15664 H 1022.99 1.56819 -1.27167 0
M  V30 15665 H 1023.18 2.41062 -2.83063 0
M  V30 15666 P 1021.53 -6.144 -6.45285 0
M  V30 15667 O 1021.31 -7.54673 -6.86199 0
M  V30 15668 O 1020.74 -5.12391 -7.179 0
M  V30 15669 O 1021.28 -5.99158 -4.88404 0
M  V30 15670 C 1022.22 -6.60234 -3.96415 0
M  V30 15671 C 1021.49 -7.08259 -2.72856 0
M  V30 15672 O 1021.28 -5.9427 -1.83651 0
M  V30 15673 C 1020.09 -7.64886 -2.9555 0
M  V30 15674 O 1019.7 -8.53963 -1.90717 0
M  V30 15675 C 1019.21 -6.4116 -2.90739 0
M  V30 15676 C 1019.92 -5.55375 -1.86963 0
M  V30 15677 N 1019.87 -4.09664 -2.15742 0
M  V30 15678 H 1022.71 -7.45574 -4.45629 0
M  V30 15679 H 1022.98 -5.86232 -3.67314 0
M  V30 15680 H 1022.12 -7.84412 -2.24479 0
M  V30 15681 P 1018.15 -8.7635 -1.60911 0
M  V30 15682 O 1017.93 -10.1388 -1.11561 0
M  V30 15683 O 1017.36 -8.36503 -2.79617 0
M  V30 15684 O 1017.9 -7.71806 -0.42951 0
M  V30 15685 C 1018.84 -7.67148 0.673689 0
M  V30 15686 C 1018.11 -7.33374 1.95559 0
M  V30 15687 O 1017.9 -5.88721 2.00726 0
M  V30 15688 C 1016.71 -7.92526 2.10483 0
M  V30 15689 O 1016.32 -8.02971 3.47653 0
M  V30 15690 C 1015.83 -6.89602 1.41652 0
M  V30 15691 C 1016.54 -5.59201 1.75185 0
M  V30 15692 N 1016.49 -4.58301 0.657969 0
M  V30 15693 H 1019.33 -8.65116 0.777161 0
M  V30 15694 H 1019.61 -6.9022 0.46725 0
M  V30 15695 H 1018.74 -7.66548 2.79458 0
M  V30 15696 H 1016.08 -5.16165 2.65183 0
M  V30 15697 H 1015.8 -7.06433 0.329384 0
M  V30 15698 H 1014.81 -6.90926 1.82021 0
M  V30 15699 H 1016.65 -8.90873 1.62657 0
M  V30 15700 P 1014.77 -8.03563 3.84925 0
M  V30 15701 O 1014.55 -8.85821 5.0569 0
M  V30 15702 O 1013.98 -8.41101 2.65469 0
M  V30 15703 O 1014.52 -6.4965 4.18908 0
M  V30 15704 C 1015.46 -5.81037 5.05421 0
M  V30 15705 C 1014.73 -4.78366 5.89277 0
M  V30 15706 O 1014.52 -3.58302 5.08433 0
M  V30 15707 C 1013.33 -5.17448 6.36119 0
M  V30 15708 O 1012.94 -4.45271 7.53232 0
M  V30 15709 C 1012.45 -4.74639 5.19936 0
M  V30 15710 C 1013.16 -3.49432 4.70418 0
M  V30 15711 N 1013.11 -3.31776 3.22945 0
M  V30 15712 H 1015.95 -6.54213 5.71376 0
M  V30 15713 H 1016.23 -5.30492 4.44033 0
M  V30 15714 H 1015.36 -4.55889 6.76652 0
M  V30 15715 P 1011.39 -4.23843 7.83734 0
M  V30 15716 O 1011.17 -4.19407 9.29784 0
M  V30 15717 O 1010.6 -5.24426 7.09156 0
M  V30 15718 O 1011.14 -2.7935 7.20758 0
M  V30 15719 C 1012.08 -1.7299 7.50419 0
M  V30 15720 C 1011.35 -0.406376 7.57911 0
M  V30 15721 O 1011.14 0.0897726 6.21935 0
M  V30 15722 C 1009.95 -0.447224 8.1878 0
M  V30 15723 O 1009.56 0.825065 8.71101 0
M  V30 15724 C 1009.07 -0.783801 6.99623 0
M  V30 15725 C 1009.78 -0.0619192 5.85967 0
M  V30 15726 N 1009.73 -0.790462 4.56202 0
M  V30 15727 C 1009.81 -2.13895 4.34171 0
M  V30 15728 N 1009.74 -2.46449 3.08687 0
M  V30 15729 C 1009.59 -1.2525 2.43697 0
M  V30 15730 C 1009.46 -0.914535 1.07318 0
M  V30 15731 N 1009.45 -1.80782 0.0887348 0
M  V30 15732 N 1009.34 0.386745 0.768133 0
M  V30 15733 C 1009.35 1.28096 1.75159 0
M  V30 15734 N 1009.47 1.09708 3.04861 0
M  V30 15735 C 1009.59 -0.214857 3.32306 0
M  V30 15736 H 1012.57 -1.93423 8.4679 0
M  V30 15737 H 1012.85 -1.68852 6.70877 0
M  V30 15738 H 1011.98 0.289041 8.15388 0
M  V30 15739 H 1009.32 0.927006 5.72848 0
M  V30 15740 H 1009.04 -1.86973 6.82036 0
M  V30 15741 H 1008.05 -0.403953 7.13357 0
M  V30 15742 H 1009.89 -1.20599 8.97534 0
M  V30 15743 H 1009.93 -2.86846 5.14318 0
M  V30 15744 H 1009.55 -2.81082 0.302037 0
M  V30 15745 H 1009.36 -1.49688 -0.889064 0
M  V30 15746 H 1009.25 2.31317 1.43855 0
M  V30 15747 P 1008.01 1.17771 8.83182 0
M  V30 15748 O 1007.79 2.07206 9.98732 0
M  V30 15749 O 1007.22 -0.0743816 8.81969 0
M  V30 15750 O 1007.76 1.97652 7.47304 0
M  V30 15751 C 1008.7 3.01133 7.08783 0
M  V30 15752 C 1007.97 4.12613 6.37049 0
M  V30 15753 O 1007.76 3.72827 4.97879 0
M  V30 15754 C 1006.57 4.45085 6.88694 0
M  V30 15755 O 1006.18 5.7877 6.5624 0
M  V30 15756 C 1005.69 3.47817 6.12078 0
M  V30 15757 C 1006.4 3.39414 4.77697 0
M  V30 15758 N 1006.35 2.04199 4.15538 0
M  V30 15759 H 1009.19 3.41248 7.98759 0
M  V30 15760 H 1009.47 2.57728 6.42 0
M  V30 15761 H 1008.6 5.02657 6.42673 0
M  V30 15762 H 1005.94 4.11708 4.08956 0
M  V30 15763 H 1005.66 2.49626 6.61679 0
M  V30 15764 H 1004.67 3.8662 6.00862 0
M  V30 15765 H 1006.51 4.29991 7.97006 0
M  V30 15766 P 1004.63 6.144 6.45285 0
M  V30 15767 O 1004.41 7.54673 6.86199 0
M  V30 15768 O 1003.84 5.12391 7.179 0
M  V30 15769 O 1004.38 5.99158 4.88404 0
M  V30 15770 C 1005.32 6.60234 3.96415 0
M  V30 15771 C 1004.59 7.08259 2.72856 0
M  V30 15772 O 1004.38 5.9427 1.83651 0
M  V30 15773 C 1003.19 7.64886 2.9555 0
M  V30 15774 O 1002.8 8.53963 1.90717 0
M  V30 15775 C 1002.31 6.4116 2.90739 0
M  V30 15776 C 1003.02 5.55375 1.86963 0
M  V30 15777 N 1002.97 4.09664 2.15742 0
M  V30 15778 H 1005.81 7.45574 4.45629 0
M  V30 15779 H 1006.09 5.86232 3.67314 0
M  V30 15780 H 1005.22 7.84412 2.24479 0
M  V30 15781 P 1001.25 8.7635 1.60911 0
M  V30 15782 O 1001.03 10.1388 1.11561 0
M  V30 15783 O 1000.46 8.36503 2.79617 0
M  V30 15784 O 1001 7.71806 0.42951 0
M  V30 15785 C 1001.94 7.66948 -0.673514 0
M  V30 15786 C 1001.21 7.33374 -1.95559 0
M  V30 15787 O 1001 5.88721 -2.00726 0
M  V30 15788 C 999.814 7.92218 -2.1125 0
M  V30 15789 O 999.424 8.02971 -3.47653 0
M  V30 15790 C 998.934 6.89504 -1.41631 0
M  V30 15791 C 999.644 5.59106 -1.75155 0
M  V30 15792 N 999.594 4.58136 -0.662409 0
M  V30 15793 C 999.444 3.26059 -1.02863 0
M  V30 15794 O 999.354 2.90743 -2.19009 0
M  V30 15795 N 999.404 2.35995 0.0155585 0
M  V30 15796 C 999.494 2.65248 1.35603 0
M  V30 15797 O 999.444 1.75605 2.20651 0
M  V30 15798 C 999.644 4.05747 1.64698 0
M  V30 15799 C 999.754 4.42345 3.09553 0
M  V30 15800 C 999.694 4.96734 0.652411 0
M  V30 15801 H 1002.44 8.64917 -0.776982 0
M  V30 15802 H 1002.7 6.89974 -0.474015 0
M  V30 15803 H 1001.84 7.66548 -2.79458 0
M  V30 15804 H 999.182 5.16076 -2.65138 0
M  V30 15805 H 998.903 7.06433 -0.329384 0
M  V30 15806 H 997.911 6.90829 -1.81996 0
M  V30 15807 H 999.745 8.90774 -1.62639 0
M  V30 15808 H 999.816 6.02181 0.895285 0
M  V30 15809 H 998.786 4.80252 3.45468 0
M  V30 15810 H 1000.52 5.20015 3.22119 0
M  V30 15811 H 1000.04 3.53269 3.67833 0
M  V30 15812 H 999.299 1.39558 -0.227499 0
M  V30 15813 P 997.874 8.03563 -3.84925 0
M  V30 15814 O 997.654 8.85821 -5.0569 0
M  V30 15815 O 997.084 8.41101 -2.65469 0
M  V30 15816 O 997.624 6.4965 -4.18908 0
M  V30 15817 C 998.564 5.81037 -5.05421 0
M  V30 15818 C 997.834 4.78366 -5.89277 0
M  V30 15819 O 997.624 3.58302 -5.08433 0
M  V30 15820 C 996.434 5.17448 -6.36119 0
M  V30 15821 O 996.044 4.45271 -7.53232 0
M  V30 15822 C 995.554 4.74639 -5.19936 0
M  V30 15823 C 996.264 3.49432 -4.70418 0
M  V30 15824 N 996.214 3.31776 -3.22945 0
M  V30 15825 H 999.053 6.54213 -5.71376 0
M  V30 15826 H 999.325 5.30492 -4.44033 0
M  V30 15827 H 998.457 4.55889 -6.76652 0
M  V30 15828 P 994.494 4.23843 -7.83734 0
M  V30 15829 O 994.274 4.19407 -9.29784 0
M  V30 15830 O 993.704 5.24426 -7.09156 0
M  V30 15831 O 994.244 2.7935 -7.20758 0
M  V30 15832 C 995.184 1.72945 -7.50224 0
M  V30 15833 C 994.454 0.406376 -7.57911 0
M  V30 15834 O 994.244 -0.0897726 -6.21935 0
M  V30 15835 C 993.054 0.438983 -8.18724 0
M  V30 15836 O 992.664 -0.825065 -8.71101 0
M  V30 15837 C 992.174 0.783689 -6.99524 0
M  V30 15838 C 992.884 0.0619086 -5.85867 0
M  V30 15839 N 992.834 0.78573 -4.56183 0
M  V30 15840 C 992.684 0.0292889 -3.41887 0
M  V30 15841 O 992.594 -1.18445 -3.4419 0
M  V30 15842 N 992.644 0.744061 -2.23964 0
M  V30 15843 C 992.734 2.10932 -2.10362 0
M  V30 15844 C 992.884 2.8202 -3.34994 0
M  V30 15845 C 992.934 2.15547 -4.52261 0
M  V30 15846 H 995.675 1.93379 -8.46595 0
M  V30 15847 H 995.944 1.68132 -6.70852 0
M  V30 15848 H 995.077 -0.289041 -8.15388 0
M  V30 15849 H 992.422 -0.926847 -5.72749 0
M  V30 15850 H 992.143 1.86973 -6.82036 0
M  V30 15851 H 991.151 0.403896 -7.13257 0
M  V30 15852 H 992.985 1.20585 -8.97435 0
M  V30 15853 H 993.056 2.71231 -5.45042 0
M  V30 15854 P 991.114 -1.17771 -8.83182 0
M  V30 15855 O 990.894 -2.07206 -9.98732 0
M  V30 15856 O 990.324 0.0743816 -8.81969 0
M  V30 15857 O 990.864 -1.97652 -7.47304 0
M  V30 15858 C 991.804 -3.01133 -7.08783 0
M  V30 15859 C 991.074 -4.12613 -6.37049 0
M  V30 15860 O 990.864 -3.72827 -4.97879 0
M  V30 15861 C 989.674 -4.45085 -6.88694 0
M  V30 15862 O 989.284 -5.7877 -6.5624 0
M  V30 15863 C 988.794 -3.47817 -6.12078 0
M  V30 15864 C 989.504 -3.39414 -4.77697 0
M  V30 15865 N 989.454 -2.04199 -4.15538 0
M  V30 15866 C 989.534 -0.821545 -4.76977 0
M  V30 15867 N 989.464 0.1794 -3.94592 0
M  V30 15868 C 989.314 -0.419121 -2.70776 0
M  V30 15869 C 989.184 0.109072 -1.40577 0
M  V30 15870 N 989.174 1.4104 -1.1344 0
M  V30 15871 N 989.064 -0.764381 -0.39411 0
M  V30 15872 C 989.074 -2.06587 -0.664135 0
M  V30 15873 N 989.194 -2.67948 -1.82153 0
M  V30 15874 C 989.314 -1.77942 -2.8147 0
M  V30 15875 H 992.293 -3.41248 -7.98759 0
M  V30 15876 H 992.565 -2.57728 -6.42 0
M  V30 15877 H 991.697 -5.02657 -6.42673 0
M  V30 15878 H 989.042 -4.11708 -4.08956 0
M  V30 15879 H 988.762 -2.49626 -6.61679 0
M  V30 15880 H 987.771 -3.8662 -6.00862 0
M  V30 15881 H 989.605 -4.29991 -7.97006 0
M  V30 15882 H 989.646 -0.702451 -5.84696 0
M  V30 15883 H 989.265 2.09647 -1.89651 0
M  V30 15884 H 989.076 1.73358 -0.160575 0
M  V30 15885 H 988.968 -2.71695 0.195838 0
M  V30 15886 P 987.734 -6.144 -6.45285 0
M  V30 15887 O 987.514 -7.54673 -6.86199 0
M  V30 15888 O 986.944 -5.12391 -7.179 0
M  V30 15889 O 987.484 -5.99158 -4.88404 0
M  V30 15890 C 988.424 -6.60234 -3.96415 0
M  V30 15891 C 987.694 -7.08259 -2.72856 0
M  V30 15892 O 987.484 -5.9427 -1.83651 0
M  V30 15893 C 986.294 -7.64886 -2.9555 0
M  V30 15894 O 985.904 -8.53963 -1.90717 0
M  V30 15895 C 985.414 -6.4116 -2.90739 0
M  V30 15896 C 986.124 -5.55375 -1.86963 0
M  V30 15897 N 986.074 -4.09448 -2.16152 0
M  V30 15898 C 986.154 -3.46824 -3.37593 0
M  V30 15899 N 986.084 -2.17422 -3.29777 0
M  V30 15900 C 985.934 -1.93065 -1.94427 0
M  V30 15901 C 985.804 -0.738053 -1.20141 0
M  V30 15902 N 985.794 0.474256 -1.74676 0
M  V30 15903 N 985.684 -0.850049 0.13045 0
M  V30 15904 C 985.694 -2.06169 0.676992 0
M  V30 15905 N 985.814 -3.23842 0.101312 0
M  V30 15906 C 985.934 -3.09402 -1.23122 0
M  V30 15907 H 988.913 -7.45574 -4.45629 0
M  V30 15908 H 989.185 -5.85864 -3.679 0
M  V30 15909 H 988.317 -7.84412 -2.24479 0
M  V30 15910 H 985.662 -5.73457 -0.888562 0
M  V30 15911 H 985.382 -5.90877 -3.88583 0
M  V30 15912 H 984.391 -6.6596 -2.58858 0
M  V30 15913 H 986.225 -8.16339 -3.92049 0
M  V30 15914 H 986.266 -4.00505 -4.3174 0
M  V30 15915 H 985.885 0.581337 -2.76658 0
M  V30 15916 H 985.696 1.30811 -1.14888 0
M  V30 15917 H 985.588 -2.08295 1.75542 0
M  V30 15918 P 984.354 -8.7635 -1.60911 0
M  V30 15919 O 984.134 -10.1388 -1.11561 0
M  V30 15920 O 983.564 -8.36503 -2.79617 0
M  V30 15921 O 984.104 -7.71906 -0.429565 0
M  V30 15922 C 985.044 -7.67148 0.673689 0
M  V30 15923 C 984.314 -7.33666 1.94851 0
M  V30 15924 O 984.104 -5.88816 2.00759 0
M  V30 15925 C 982.914 -7.92526 2.10483 0
M  V30 15926 O 982.524 -8.03063 3.47693 0
M  V30 15927 C 982.034 -6.89602 1.41652 0
M  V30 15928 C 982.744 -5.59201 1.75185 0
M  V30 15929 N 982.694 -4.58235 0.662552 0
M  V30 15930 C 982.544 -3.24451 1.01643 0
M  V30 15931 O 982.454 -2.94958 2.21722 0
M  V30 15932 N 982.494 -2.30408 -0.165238 0
M  V30 15933 C 982.594 -2.66048 -1.25118 0
M  V30 15934 N 982.544 -1.70787 -2.16813 0
M  V30 15935 C 982.744 -4.02732 -1.64413 0
M  V30 15936 C 982.794 -4.9488 -0.63991 0
M  V30 15937 H 985.534 -8.65017 0.777072 0
M  V30 15938 H 985.804 -6.90173 0.474152 0
M  V30 15939 H 984.937 -7.66642 2.79492 0
M  V30 15940 H 982.282 -5.16254 2.65229 0
M  V30 15941 H 982.002 -7.06532 0.329431 0
M  V30 15942 H 981.011 -6.91023 1.82047 0
M  V30 15943 H 982.845 -8.90873 1.62657 0
M  V30 15944 H 982.917 -6.00104 -0.892197 0
M  V30 15945 H 982.815 -4.31733 -2.69229 0
M  V30 15946 H 982.427 -0.724835 -1.8844 0
M  V30 15947 H 982.623 -1.94716 -3.16734 0
M  V30 15948 P 980.974 -8.03563 3.84925 0
M  V30 15949 O 980.754 -8.85821 5.0569 0
M  V30 15950 O 980.184 -8.41101 2.65469 0
M  V30 15951 O 980.724 -6.4965 4.18908 0
M  V30 15952 C 981.664 -5.81037 5.05421 0
M  V30 15953 C 980.934 -4.78366 5.89277 0
M  V30 15954 O 980.724 -3.58302 5.08433 0
M  V30 15955 C 979.534 -5.17448 6.36119 0
M  V30 15956 O 979.144 -4.45271 7.53232 0
M  V30 15957 C 978.654 -4.74639 5.19936 0
M  V30 15958 C 979.364 -3.49432 4.70418 0
M  V30 15959 N 979.314 -3.31776 3.22945 0
M  V30 15960 H 982.153 -6.54213 5.71376 0
M  V30 15961 H 982.425 -5.30492 4.44033 0
M  V30 15962 H 981.557 -4.55889 6.76652 0
M  V30 15963 P 977.594 -4.23843 7.83734 0
M  V30 15964 O 977.374 -4.19407 9.29784 0
M  V30 15965 O 976.804 -5.24426 7.09156 0
M  V30 15966 O 977.344 -2.7935 7.20758 0
M  V30 15967 C 978.284 -1.7299 7.50419 0
M  V30 15968 C 977.554 -0.406376 7.57911 0
M  V30 15969 O 977.344 0.0897726 6.21935 0
M  V30 15970 C 976.154 -0.447224 8.1878 0
M  V30 15971 O 975.764 0.825065 8.71101 0
M  V30 15972 C 975.274 -0.783801 6.99623 0
M  V30 15973 C 975.984 -0.0619192 5.85967 0
M  V30 15974 N 975.934 -0.7859 4.56281 0
M  V30 15975 H 978.773 -1.93423 8.4679 0
M  V30 15976 H 979.045 -1.68181 6.71046 0
M  V30 15977 H 978.177 0.289041 8.15388 0
M  V30 15978 P 974.214 1.17771 8.83182 0
M  V30 15979 O 973.994 2.07206 9.98732 0
M  V30 15980 O 973.424 -0.0743816 8.81969 0
M  V30 15981 O 973.964 1.97652 7.47304 0
M  V30 15982 C 974.904 3.01133 7.08783 0
M  V30 15983 C 974.174 4.12613 6.37049 0
M  V30 15984 O 973.964 3.72827 4.97879 0
M  V30 15985 C 972.774 4.45085 6.88694 0
M  V30 15986 O 972.384 5.7877 6.5624 0
M  V30 15987 C 971.894 3.47817 6.12078 0
M  V30 15988 C 972.604 3.39414 4.77697 0
M  V30 15989 N 972.554 2.04199 4.15538 0
M  V30 15990 C 972.634 0.821545 4.76977 0
M  V30 15991 N 972.564 -0.1794 3.94592 0
M  V30 15992 C 972.414 0.419121 2.70776 0
M  V30 15993 C 972.284 -0.109072 1.40577 0
M  V30 15994 N 972.274 -1.4104 1.1344 0
M  V30 15995 N 972.164 0.764381 0.39411 0
M  V30 15996 C 972.174 2.06587 0.664135 0
M  V30 15997 N 972.294 2.67948 1.82153 0
M  V30 15998 C 972.414 1.77942 2.8147 0
M  V30 15999 H 975.393 3.41248 7.98759 0
M  V30 16000 H 975.665 2.57728 6.42 0
M  V30 16001 H 974.797 5.02657 6.42673 0
M  V30 16002 H 972.142 4.11708 4.08956 0
M  V30 16003 H 971.862 2.49626 6.61679 0
M  V30 16004 H 970.871 3.8662 6.00862 0
M  V30 16005 H 972.705 4.29991 7.97006 0
M  V30 16006 H 972.746 0.702451 5.84696 0
M  V30 16007 H 972.365 -2.09647 1.89651 0
M  V30 16008 H 972.176 -1.73358 0.160575 0
M  V30 16009 H 972.068 2.71695 -0.195838 0
M  V30 16010 P 970.834 6.144 6.45285 0
M  V30 16011 O 970.614 7.54673 6.86199 0
M  V30 16012 O 970.044 5.12391 7.179 0
M  V30 16013 O 970.584 5.99236 4.88467 0
M  V30 16014 C 971.524 6.60234 3.96415 0
M  V30 16015 C 970.794 7.08079 2.736 0
M  V30 16016 O 970.584 5.94365 1.8368 0
M  V30 16017 C 969.394 7.64886 2.9555 0
M  V30 16018 O 969.004 8.5406 1.90739 0
M  V30 16019 C 968.514 6.4116 2.90739 0
M  V30 16020 C 969.224 5.55375 1.86963 0
M  V30 16021 N 969.174 4.09664 2.15742 0
M  V30 16022 C 969.024 3.22231 1.08477 0
M  V30 16023 O 968.934 3.68951 -0.0600489 0
M  V30 16024 N 968.974 1.76692 1.48799 0
M  V30 16025 C 969.074 1.41695 2.57602 0
M  V30 16026 N 969.024 0.107296 2.75791 0
M  V30 16027 C 969.224 2.29178 3.69733 0
M  V30 16028 C 969.274 3.62753 3.42653 0
M  V30 16029 H 972.014 7.45488 4.45578 0
M  V30 16030 H 972.284 5.86232 3.67314 0
M  V30 16031 H 971.417 7.84508 2.24507 0
M  V30 16032 H 968.762 5.73556 0.888715 0
M  V30 16033 H 968.482 5.9096 3.88638 0
M  V30 16034 H 967.491 6.66053 2.58894 0
M  V30 16035 H 969.325 8.16339 3.92049 0
M  V30 16036 H 969.397 4.33052 4.24913 0
M  V30 16037 H 969.295 1.9103 4.71577 0
M  V30 16038 H 968.907 -0.521221 1.95056 0
M  V30 16039 H 969.103 -0.286429 3.70695 0
M  V30 16040 P 967.454 8.7635 1.60911 0
M  V30 16041 O 967.234 10.1388 1.11561 0
M  V30 16042 O 966.664 8.36503 2.79617 0
M  V30 16043 O 967.204 7.71806 0.42951 0
M  V30 16044 C 968.144 7.67148 -0.673689 0
M  V30 16045 C 967.414 7.33374 -1.95559 0
M  V30 16046 O 967.204 5.88721 -2.00726 0
M  V30 16047 C 966.014 7.92526 -2.10483 0
M  V30 16048 O 965.624 8.02971 -3.47653 0
M  V30 16049 C 965.134 6.89602 -1.41652 0
M  V30 16050 C 965.844 5.59201 -1.75185 0
M  V30 16051 N 965.794 4.58235 -0.662552 0
M  V30 16052 H 968.633 8.65116 -0.777161 0
M  V30 16053 H 968.905 6.90173 -0.474152 0
M  V30 16054 H 968.037 7.66548 -2.79458 0
M  V30 16055 P 964.074 8.03563 -3.84925 0
M  V30 16056 O 963.854 8.85821 -5.0569 0
M  V30 16057 O 963.284 8.41101 -2.65469 0
M  V30 16058 O 963.824 6.4965 -4.18908 0
M  V30 16059 C 964.764 5.81037 -5.05421 0
M  V30 16060 C 964.034 4.78366 -5.89277 0
M  V30 16061 O 963.824 3.58302 -5.08433 0
M  V30 16062 C 962.634 5.17448 -6.36119 0
M  V30 16063 O 962.244 4.45271 -7.53232 0
M  V30 16064 C 961.754 4.74639 -5.19936 0
M  V30 16065 C 962.464 3.49432 -4.70418 0
M  V30 16066 N 962.414 3.31776 -3.22945 0
M  V30 16067 H 965.253 6.54213 -5.71376 0
M  V30 16068 H 965.525 5.30492 -4.44033 0
M  V30 16069 H 964.657 4.55889 -6.76652 0
M  V30 16070 P 960.694 4.23843 -7.83734 0
M  V30 16071 O 960.474 4.19407 -9.29784 0
M  V30 16072 O 959.904 5.24426 -7.09156 0
M  V30 16073 O 960.444 2.7935 -7.20758 0
M  V30 16074 C 961.384 1.7299 -7.50419 0
M  V30 16075 C 960.654 0.406376 -7.57911 0
M  V30 16076 O 960.444 -0.0897726 -6.21935 0
M  V30 16077 C 959.254 0.447224 -8.1878 0
M  V30 16078 O 958.864 -0.825065 -8.71101 0
M  V30 16079 C 958.374 0.783801 -6.99623 0
M  V30 16080 C 959.084 0.0619192 -5.85967 0
M  V30 16081 N 959.034 0.7859 -4.56281 0
M  V30 16082 H 961.873 1.93423 -8.4679 0
M  V30 16083 H 962.145 1.68181 -6.71046 0
M  V30 16084 H 961.277 -0.289041 -8.15388 0
M  V30 16085 P 957.314 -1.17771 -8.83182 0
M  V30 16086 O 957.094 -2.07206 -9.98732 0
M  V30 16087 O 956.524 0.0743816 -8.81969 0
M  V30 16088 O 957.064 -1.97652 -7.47304 0
M  V30 16089 C 958.004 -3.01133 -7.08783 0
M  V30 16090 C 957.274 -4.12613 -6.37049 0
M  V30 16091 O 957.064 -3.72827 -4.97879 0
M  V30 16092 C 955.874 -4.45085 -6.88694 0
M  V30 16093 O 955.484 -5.7877 -6.5624 0
M  V30 16094 C 954.994 -3.47817 -6.12078 0
M  V30 16095 C 955.704 -3.39414 -4.77697 0
M  V30 16096 N 955.654 -2.04615 -4.15333 0
M  V30 16097 H 958.493 -3.41248 -7.98759 0
M  V30 16098 H 958.765 -2.5837 -6.41742 0
M  V30 16099 H 957.897 -5.02657 -6.42673 0
M  V30 16100 P 953.934 -6.144 -6.45285 0
M  V30 16101 O 953.714 -7.54673 -6.86199 0
M  V30 16102 O 953.144 -5.12391 -7.179 0
M  V30 16103 O 953.684 -5.99236 -4.88467 0
M  V30 16104 C 954.624 -6.60234 -3.96415 0
M  V30 16105 C 953.894 -7.08079 -2.736 0
M  V30 16106 O 953.684 -5.94365 -1.8368 0
M  V30 16107 C 952.494 -7.64886 -2.9555 0
M  V30 16108 O 952.104 -8.5406 -1.90739 0
M  V30 16109 C 951.614 -6.4116 -2.90739 0
M  V30 16110 C 952.324 -5.55375 -1.86963 0
M  V30 16111 N 952.274 -4.09664 -2.15742 0
M  V30 16112 C 952.124 -3.22231 -1.08477 0
M  V30 16113 O 952.034 -3.68951 0.0600489 0
M  V30 16114 N 952.074 -1.76692 -1.48799 0
M  V30 16115 C 952.174 -1.41695 -2.57602 0
M  V30 16116 N 952.124 -0.107296 -2.75791 0
M  V30 16117 C 952.324 -2.29178 -3.69733 0
M  V30 16118 C 952.374 -3.62753 -3.42653 0
M  V30 16119 H 955.114 -7.45488 -4.45578 0
M  V30 16120 H 955.384 -5.86232 -3.67314 0
M  V30 16121 H 954.517 -7.84508 -2.24507 0
M  V30 16122 H 951.862 -5.73556 -0.888715 0
M  V30 16123 H 951.582 -5.9096 -3.88638 0
M  V30 16124 H 950.591 -6.66053 -2.58894 0
M  V30 16125 H 952.425 -8.16339 -3.92049 0
M  V30 16126 H 952.497 -4.33052 -4.24913 0
M  V30 16127 H 952.395 -1.9103 -4.71577 0
M  V30 16128 H 952.007 0.521221 -1.95056 0
M  V30 16129 H 952.203 0.286429 -3.70695 0
M  V30 16130 P 950.554 -8.7635 -1.60911 0
M  V30 16131 O 950.334 -10.1388 -1.11561 0
M  V30 16132 O 949.764 -8.36503 -2.79617 0
M  V30 16133 O 950.304 -7.71806 -0.42951 0
M  V30 16134 C 951.244 -7.67148 0.673689 0
M  V30 16135 C 950.514 -7.33374 1.95559 0
M  V30 16136 O 950.304 -5.88721 2.00726 0
M  V30 16137 C 949.114 -7.92526 2.10483 0
M  V30 16138 O 948.724 -8.02971 3.47653 0
M  V30 16139 C 948.234 -6.89602 1.41652 0
M  V30 16140 C 948.944 -5.59201 1.75185 0
M  V30 16141 N 948.894 -4.58235 0.662552 0
M  V30 16142 H 951.733 -8.65116 0.777161 0
M  V30 16143 H 952.005 -6.90173 0.474152 0
M  V30 16144 H 951.137 -7.66548 2.79458 0
M  V30 16145 P 947.174 -8.03563 3.84925 0
M  V30 16146 O 946.954 -8.85821 5.0569 0
M  V30 16147 O 946.384 -8.41101 2.65469 0
M  V30 16148 O 946.924 -6.4965 4.18908 0
M  V30 16149 C 947.864 -5.81037 5.05421 0
M  V30 16150 C 947.134 -4.78366 5.89277 0
M  V30 16151 O 946.924 -3.58302 5.08433 0
M  V30 16152 C 945.734 -5.17448 6.36119 0
M  V30 16153 O 945.344 -4.45271 7.53232 0
M  V30 16154 C 944.854 -4.74639 5.19936 0
M  V30 16155 C 945.564 -3.49432 4.70418 0
M  V30 16156 N 945.514 -3.31776 3.22945 0
M  V30 16157 C 945.594 -4.27147 2.23315 0
M  V30 16158 N 945.514 -3.78447 1.02186 0
M  V30 16159 C 945.374 -2.41001 1.21732 0
M  V30 16160 C 945.244 -1.36111 0.27694 0
M  V30 16161 O 945.224 -1.42065 -0.951767 0
M  V30 16162 N 945.124 -0.113683 0.912949 0
M  V30 16163 C 945.124 0.0846396 2.27943 0
M  V30 16164 N 944.994 1.34737 2.6916 0
M  V30 16165 N 945.254 -0.902521 3.16379 0
M  V30 16166 C 945.374 -2.11937 2.56849 0
M  V30 16167 H 948.353 -6.54213 5.71376 0
M  V30 16168 H 948.625 -5.30492 4.44033 0
M  V30 16169 H 947.757 -4.55889 6.76652 0
M  V30 16170 H 945.102 -2.6176 5.18021 0
M  V30 16171 H 944.822 -5.52233 4.41941 0
M  V30 16172 H 943.831 -4.52045 5.53452 0
M  V30 16173 H 945.665 -6.25193 6.55307 0
M  V30 16174 H 945.714 -5.3351 2.43857 0
M  V30 16175 H 945.032 0.69331 0.330371 0
M  V30 16176 H 944.995 1.56433 3.6988 0
M  V30 16177 H 944.894 2.10701 2.00133 0
M  V30 16178 P 943.794 -4.23843 7.83734 0
M  V30 16179 O 943.574 -4.19407 9.29784 0
M  V30 16180 O 943.004 -5.24426 7.09156 0
M  V30 16181 O 943.544 -2.79386 7.20852 0
M  V30 16182 C 944.484 -1.7299 7.50419 0
M  V30 16183 C 943.754 -0.41401 7.5797 0
M  V30 16184 O 943.544 0.089787 6.22035 0
M  V30 16185 C 942.354 -0.447224 8.1878 0
M  V30 16186 O 941.964 0.825159 8.71201 0
M  V30 16187 C 941.474 -0.783801 6.99623 0
M  V30 16188 C 942.184 -0.0619192 5.85967 0
M  V30 16189 N 942.134 -0.7859 4.56281 0
M  V30 16190 C 941.984 -0.0359258 3.39981 0
M  V30 16191 O 941.894 1.19723 3.49038 0
M  V30 16192 N 941.934 -0.869151 2.14025 0
M  V30 16193 C 942.034 -2.01207 2.14363 0
M  V30 16194 N 941.984 -2.58978 0.954287 0
M  V30 16195 C 942.184 -2.80817 3.32215 0
M  V30 16196 C 942.234 -2.13785 4.50884 0
M  V30 16197 H 944.974 -1.93401 8.46693 0
M  V30 16198 H 945.244 -1.68181 6.71046 0
M  V30 16199 H 944.377 0.289076 8.15488 0
M  V30 16200 H 941.722 0.927166 5.72947 0
M  V30 16201 H 941.442 -1.87 6.82132 0
M  V30 16202 H 940.451 -0.404009 7.13457 0
M  V30 16203 H 942.285 -1.20599 8.97534 0
M  V30 16204 H 942.357 -2.70295 5.43162 0
M  V30 16205 H 942.255 -3.89465 3.27406 0
M  V30 16206 H 941.867 -2.01616 0.107046 0
M  V30 16207 H 942.063 -3.61403 0.873101 0
M  V30 16208 P 940.414 1.17771 8.83182 0
M  V30 16209 O 940.194 2.07206 9.98732 0
M  V30 16210 O 939.624 -0.0743816 8.81969 0
M  V30 16211 O 940.164 1.97652 7.47304 0
M  V30 16212 C 941.104 3.01133 7.08783 0
M  V30 16213 C 940.374 4.12613 6.37049 0
M  V30 16214 O 940.164 3.72827 4.97879 0
M  V30 16215 C 938.974 4.45085 6.88694 0
M  V30 16216 O 938.584 5.7877 6.5624 0
M  V30 16217 C 938.094 3.47817 6.12078 0
M  V30 16218 C 938.804 3.39414 4.77697 0
M  V30 16219 N 938.754 2.04615 4.15333 0
M  V30 16220 H 941.593 3.41248 7.98759 0
M  V30 16221 H 941.865 2.5837 6.41742 0
M  V30 16222 H 940.997 5.02657 6.42673 0
M  V30 16223 P 937.034 6.144 6.45285 0
M  V30 16224 O 936.814 7.54673 6.86199 0
M  V30 16225 O 936.244 5.12391 7.179 0
M  V30 16226 O 936.784 5.99236 4.88467 0
M  V30 16227 C 937.724 6.60234 3.96415 0
M  V30 16228 C 936.994 7.08079 2.736 0
M  V30 16229 O 936.784 5.94365 1.8368 0
M  V30 16230 C 935.594 7.64886 2.9555 0
M  V30 16231 O 935.204 8.5406 1.90739 0
M  V30 16232 C 934.714 6.4116 2.90739 0
M  V30 16233 C 935.424 5.55375 1.86963 0
M  V30 16234 N 935.374 4.09664 2.15742 0
M  V30 16235 C 935.224 3.22231 1.08477 0
M  V30 16236 O 935.134 3.68951 -0.0600489 0
M  V30 16237 N 935.174 1.76692 1.48799 0
M  V30 16238 C 935.274 1.41695 2.57602 0
M  V30 16239 N 935.224 0.107296 2.75791 0
M  V30 16240 C 935.424 2.29178 3.69733 0
M  V30 16241 C 935.474 3.62753 3.42653 0
M  V30 16242 H 938.214 7.45488 4.45578 0
M  V30 16243 H 938.484 5.86232 3.67314 0
M  V30 16244 H 937.617 7.84508 2.24507 0
M  V30 16245 H 934.962 5.73556 0.888715 0
M  V30 16246 H 934.682 5.9096 3.88638 0
M  V30 16247 H 933.691 6.66053 2.58894 0
M  V30 16248 H 935.525 8.16339 3.92049 0
M  V30 16249 H 935.597 4.33052 4.24913 0
M  V30 16250 H 935.495 1.9103 4.71577 0
M  V30 16251 H 935.107 -0.521221 1.95056 0
M  V30 16252 H 935.303 -0.286429 3.70695 0
M  V30 16253 P 933.655 8.7635 1.60911 0
M  V30 16254 O 933.435 10.1388 1.11561 0
M  V30 16255 O 932.865 8.36503 2.79617 0
M  V30 16256 O 933.405 7.71806 0.42951 0
M  V30 16257 C 934.345 7.67148 -0.673689 0
M  V30 16258 C 933.615 7.33374 -1.95559 0
M  V30 16259 O 933.405 5.88721 -2.00726 0
M  V30 16260 C 932.215 7.92526 -2.10483 0
M  V30 16261 O 931.825 8.02971 -3.47653 0
M  V30 16262 C 931.335 6.89602 -1.41652 0
M  V30 16263 C 932.045 5.59201 -1.75185 0
M  V30 16264 N 931.995 4.58235 -0.662552 0
M  V30 16265 H 934.834 8.65116 -0.777161 0
M  V30 16266 H 935.106 6.90173 -0.474152 0
M  V30 16267 H 934.238 7.66548 -2.79458 0
M  V30 16268 P 930.275 8.03563 -3.84925 0
M  V30 16269 O 930.055 8.85821 -5.0569 0
M  V30 16270 O 929.485 8.41101 -2.65469 0
M  V30 16271 O 930.025 6.4965 -4.18908 0
M  V30 16272 C 930.965 5.81037 -5.05421 0
M  V30 16273 C 930.235 4.78366 -5.89277 0
M  V30 16274 O 930.025 3.58302 -5.08433 0
M  V30 16275 C 928.835 5.17448 -6.36119 0
M  V30 16276 O 928.445 4.45271 -7.53232 0
M  V30 16277 C 927.955 4.74639 -5.19936 0
M  V30 16278 C 928.665 3.49432 -4.70418 0
M  V30 16279 N 928.615 3.32099 -3.22613 0
M  V30 16280 H 931.454 6.54213 -5.71376 0
M  V30 16281 H 931.726 5.30936 -4.43503 0
M  V30 16282 H 930.858 4.55889 -6.76652 0
M  V30 16283 H 928.203 2.61715 -5.17932 0
M  V30 16284 H 927.923 5.52155 -4.41878 0
M  V30 16285 H 926.932 4.51981 -5.53374 0
M  V30 16286 H 928.766 6.25124 -6.55234 0
M  V30 16287 P 926.895 4.23843 -7.83734 0
M  V30 16288 O 926.675 4.19407 -9.29784 0
M  V30 16289 O 926.105 5.24426 -7.09156 0
M  V30 16290 O 926.645 2.7935 -7.20758 0
M  V30 16291 C 927.585 1.7299 -7.50419 0
M  V30 16292 C 926.855 0.406376 -7.57911 0
M  V30 16293 O 926.645 -0.0897726 -6.21935 0
M  V30 16294 C 925.455 0.447224 -8.1878 0
M  V30 16295 O 925.065 -0.825065 -8.71101 0
M  V30 16296 C 924.575 0.783801 -6.99623 0
M  V30 16297 C 925.285 0.0619192 -5.85967 0
M  V30 16298 N 925.235 0.7859 -4.56281 0
M  V30 16299 H 928.074 1.93423 -8.4679 0
M  V30 16300 H 928.346 1.68181 -6.71046 0
M  V30 16301 H 927.478 -0.289041 -8.15388 0
M  V30 16302 P 923.515 -1.17771 -8.83182 0
M  V30 16303 O 923.295 -2.07206 -9.98732 0
M  V30 16304 O 922.725 0.0743816 -8.81969 0
M  V30 16305 O 923.265 -1.97652 -7.47304 0
M  V30 16306 C 924.205 -3.01133 -7.08783 0
M  V30 16307 C 923.475 -4.12613 -6.37049 0
M  V30 16308 O 923.265 -3.72827 -4.97879 0
M  V30 16309 C 922.075 -4.45085 -6.88694 0
M  V30 16310 O 921.685 -5.7877 -6.5624 0
M  V30 16311 C 921.195 -3.47817 -6.12078 0
M  V30 16312 C 921.905 -3.39414 -4.77697 0
M  V30 16313 N 921.855 -2.04615 -4.15333 0
M  V30 16314 H 924.694 -3.41248 -7.98759 0
M  V30 16315 H 924.966 -2.5837 -6.41742 0
M  V30 16316 H 924.098 -5.02657 -6.42673 0
M  V30 16317 P 920.135 -6.144 -6.45285 0
M  V30 16318 O 919.915 -7.54673 -6.86199 0
M  V30 16319 O 919.345 -5.12391 -7.179 0
M  V30 16320 O 919.885 -5.99158 -4.88404 0
M  V30 16321 C 920.825 -6.60234 -3.96415 0
M  V30 16322 C 920.095 -7.08259 -2.72856 0
M  V30 16323 O 919.885 -5.9427 -1.83651 0
M  V30 16324 C 918.695 -7.64886 -2.9555 0
M  V30 16325 O 918.305 -8.53963 -1.90717 0
M  V30 16326 C 917.815 -6.4116 -2.90739 0
M  V30 16327 C 918.525 -5.55375 -1.86963 0
M  V30 16328 N 918.475 -4.09664 -2.15742 0
M  V30 16329 H 921.314 -7.45574 -4.45629 0
M  V30 16330 H 921.586 -5.86232 -3.67314 0
M  V30 16331 H 920.718 -7.84412 -2.24479 0
M  V30 16332 P 916.755 -8.7635 -1.60911 0
M  V30 16333 O 916.535 -10.1388 -1.11561 0
M  V30 16334 O 915.965 -8.36503 -2.79617 0
M  V30 16335 O 916.505 -7.71806 -0.42951 0
M  V30 16336 C 917.445 -7.66948 0.673514 0
M  V30 16337 C 916.715 -7.33374 1.95559 0
M  V30 16338 O 916.505 -5.88721 2.00726 0
M  V30 16339 C 915.315 -7.92218 2.1125 0
M  V30 16340 O 914.925 -8.02971 3.47653 0
M  V30 16341 C 914.435 -6.89504 1.41631 0
M  V30 16342 C 915.145 -5.59106 1.75155 0
M  V30 16343 N 915.095 -4.58136 0.662409 0
M  V30 16344 C 914.945 -3.26059 1.02863 0
M  V30 16345 O 914.855 -2.90743 2.19009 0
M  V30 16346 N 914.905 -2.35995 -0.0155585 0
M  V30 16347 C 914.995 -2.65248 -1.35603 0
M  V30 16348 C 915.145 -4.05747 -1.64698 0
M  V30 16349 C 915.195 -4.96734 -0.652411 0
M  V30 16350 H 917.936 -8.64917 0.776982 0
M  V30 16351 H 918.205 -6.89974 0.474015 0
M  V30 16352 H 917.338 -7.66548 2.79458 0
M  V30 16353 H 914.683 -5.16076 2.65138 0
M  V30 16354 H 914.404 -7.06433 0.329384 0
M  V30 16355 H 913.412 -6.90829 1.81996 0
M  V30 16356 H 915.246 -8.90774 1.62639 0
M  V30 16357 H 915.317 -6.02181 -0.895285 0
M  V30 16358 P 913.375 -8.03563 3.84925 0
M  V30 16359 O 913.155 -8.85821 5.0569 0
M  V30 16360 O 912.585 -8.41101 2.65469 0
M  V30 16361 O 913.125 -6.4965 4.18908 0
M  V30 16362 C 914.065 -5.81037 5.05421 0
M  V30 16363 C 913.335 -4.78366 5.89277 0
M  V30 16364 O 913.125 -3.58302 5.08433 0
M  V30 16365 C 911.935 -5.17448 6.36119 0
M  V30 16366 O 911.545 -4.45271 7.53232 0
M  V30 16367 C 911.055 -4.74639 5.19936 0
M  V30 16368 C 911.765 -3.49432 4.70418 0
M  V30 16369 N 911.715 -3.31776 3.22945 0
M  V30 16370 H 914.554 -6.54213 5.71376 0
M  V30 16371 H 914.826 -5.30492 4.44033 0
M  V30 16372 H 913.958 -4.55889 6.76652 0
M  V30 16373 P 909.995 -4.23843 7.83734 0
M  V30 16374 O 909.775 -4.19407 9.29784 0
M  V30 16375 O 909.205 -5.24426 7.09156 0
M  V30 16376 O 909.745 -2.7935 7.20758 0
M  V30 16377 C 910.685 -1.7299 7.50419 0
M  V30 16378 C 909.955 -0.406376 7.57911 0
M  V30 16379 O 909.745 0.0897726 6.21935 0
M  V30 16380 C 908.555 -0.447224 8.1878 0
M  V30 16381 O 908.165 0.825065 8.71101 0
M  V30 16382 C 907.675 -0.783801 6.99623 0
M  V30 16383 C 908.385 -0.0619192 5.85967 0
M  V30 16384 N 908.335 -0.790462 4.56202 0
M  V30 16385 H 911.174 -1.93423 8.4679 0
M  V30 16386 H 911.446 -1.68852 6.70877 0
M  V30 16387 H 910.578 0.289041 8.15388 0
M  V30 16388 H 907.923 0.927006 5.72848 0
M  V30 16389 H 907.643 -1.86973 6.82036 0
M  V30 16390 H 906.652 -0.403953 7.13357 0
M  V30 16391 H 908.486 -1.20599 8.97534 0
M  V30 16392 P 906.615 1.17771 8.83182 0
M  V30 16393 O 906.395 2.07206 9.98732 0
M  V30 16394 O 905.825 -0.0743816 8.81969 0
M  V30 16395 O 906.365 1.97652 7.47304 0
M  V30 16396 C 907.305 3.01133 7.08783 0
M  V30 16397 C 906.575 4.12613 6.37049 0
M  V30 16398 O 906.365 3.72827 4.97879 0
M  V30 16399 C 905.175 4.45085 6.88694 0
M  V30 16400 O 904.785 5.7877 6.5624 0
M  V30 16401 C 904.295 3.47817 6.12078 0
M  V30 16402 C 905.005 3.39414 4.77697 0
M  V30 16403 N 904.955 2.04615 4.15333 0
M  V30 16404 H 907.794 3.41248 7.98759 0
M  V30 16405 H 908.066 2.5837 6.41742 0
M  V30 16406 H 907.198 5.02657 6.42673 0
M  V30 16407 P 903.235 6.144 6.45285 0
M  V30 16408 O 903.015 7.54673 6.86199 0
M  V30 16409 O 902.445 5.12391 7.179 0
M  V30 16410 O 902.985 5.99158 4.88404 0
M  V30 16411 C 903.925 6.60062 3.96313 0
M  V30 16412 C 903.195 7.08259 2.72856 0
M  V30 16413 O 902.985 5.9427 1.83651 0
M  V30 16414 C 901.795 7.65087 2.94749 0
M  V30 16415 O 901.405 8.53963 1.90717 0
M  V30 16416 C 900.915 6.41069 2.90698 0
M  V30 16417 C 901.625 5.5528 1.86931 0
M  V30 16418 N 901.575 4.09575 2.15696 0
M  V30 16419 C 901.425 3.24249 1.08435 0
M  V30 16420 O 901.335 3.63946 -0.0628747 0
M  V30 16421 N 901.385 1.90009 1.39973 0
M  V30 16422 C 901.475 1.34884 2.65614 0
M  V30 16423 C 901.625 2.3145 3.71736 0
M  V30 16424 C 901.675 3.63518 3.44754 0
M  V30 16425 H 904.416 7.45402 4.45526 0
M  V30 16426 H 904.685 5.86062 3.67208 0
M  V30 16427 H 903.818 7.84412 2.24479 0
M  V30 16428 H 901.163 5.73358 0.888409 0
M  V30 16429 H 900.884 5.90877 3.88583 0
M  V30 16430 H 899.892 6.65867 2.58821 0
M  V30 16431 H 901.726 8.16248 3.92006 0
M  V30 16432 H 901.797 4.34551 4.26383 0
M  V30 16433 P 899.855 8.7635 1.60911 0
M  V30 16434 O 899.635 10.1388 1.11561 0
M  V30 16435 O 899.065 8.36503 2.79617 0
M  V30 16436 O 899.605 7.71806 0.42951 0
M  V30 16437 C 900.545 7.67148 -0.673689 0
M  V30 16438 C 899.815 7.33374 -1.95559 0
M  V30 16439 O 899.605 5.88721 -2.00726 0
M  V30 16440 C 898.415 7.92526 -2.10483 0
M  V30 16441 O 898.025 8.02971 -3.47653 0
M  V30 16442 C 897.535 6.89602 -1.41652 0
M  V30 16443 C 898.245 5.59201 -1.75185 0
M  V30 16444 N 898.195 4.58235 -0.662552 0
M  V30 16445 H 901.034 8.65116 -0.777161 0
M  V30 16446 H 901.306 6.90173 -0.474152 0
M  V30 16447 H 900.438 7.66548 -2.79458 0
M  V30 16448 P 896.475 8.03563 -3.84925 0
M  V30 16449 O 896.255 8.85821 -5.0569 0
M  V30 16450 O 895.685 8.41101 -2.65469 0
M  V30 16451 O 896.225 6.4965 -4.18908 0
M  V30 16452 C 897.165 5.81037 -5.05421 0
M  V30 16453 C 896.435 4.78366 -5.89277 0
M  V30 16454 O 896.225 3.58302 -5.08433 0
M  V30 16455 C 895.035 5.17448 -6.36119 0
M  V30 16456 O 894.645 4.45271 -7.53232 0
M  V30 16457 C 894.155 4.74639 -5.19936 0
M  V30 16458 C 894.865 3.49432 -4.70418 0
M  V30 16459 N 894.815 3.31776 -3.22945 0
M  V30 16460 H 897.654 6.54213 -5.71376 0
M  V30 16461 H 897.926 5.30492 -4.44033 0
M  V30 16462 H 897.058 4.55889 -6.76652 0
M  V30 16463 P 893.095 4.23843 -7.83734 0
M  V30 16464 O 892.875 4.19407 -9.29784 0
M  V30 16465 O 892.305 5.24426 -7.09156 0
M  V30 16466 O 892.845 2.7935 -7.20758 0
M  V30 16467 C 893.785 1.7299 -7.50419 0
M  V30 16468 C 893.055 0.406376 -7.57911 0
M  V30 16469 O 892.845 -0.0897726 -6.21935 0
M  V30 16470 C 891.655 0.447224 -8.1878 0
M  V30 16471 O 891.265 -0.825065 -8.71101 0
M  V30 16472 C 890.775 0.783801 -6.99623 0
M  V30 16473 C 891.485 0.0619192 -5.85967 0
M  V30 16474 N 891.435 0.7859 -4.56281 0
M  V30 16475 H 894.274 1.93423 -8.4679 0
M  V30 16476 H 894.546 1.68181 -6.71046 0
M  V30 16477 H 893.678 -0.289041 -8.15388 0
M  V30 16478 P 889.715 -1.17771 -8.83182 0
M  V30 16479 O 889.495 -2.07206 -9.98732 0
M  V30 16480 O 888.925 0.0743816 -8.81969 0
M  V30 16481 O 889.465 -1.97652 -7.47304 0
M  V30 16482 C 890.405 -3.01133 -7.08783 0
M  V30 16483 C 889.675 -4.12613 -6.37049 0
M  V30 16484 O 889.465 -3.72827 -4.97879 0
M  V30 16485 C 888.275 -4.45085 -6.88694 0
M  V30 16486 O 887.885 -5.7877 -6.5624 0
M  V30 16487 C 887.395 -3.47817 -6.12078 0
M  V30 16488 C 888.105 -3.39414 -4.77697 0
M  V30 16489 N 888.055 -2.04615 -4.15333 0
M  V30 16490 H 890.894 -3.41248 -7.98759 0
M  V30 16491 H 891.166 -2.5837 -6.41742 0
M  V30 16492 H 890.298 -5.02657 -6.42673 0
M  V30 16493 P 886.335 -6.144 -6.45285 0
M  V30 16494 O 886.115 -7.54673 -6.86199 0
M  V30 16495 O 885.545 -5.12391 -7.179 0
M  V30 16496 O 886.085 -5.99158 -4.88404 0
M  V30 16497 C 887.025 -6.60062 -3.96313 0
M  V30 16498 C 886.295 -7.08259 -2.72856 0
M  V30 16499 O 886.085 -5.9427 -1.83651 0
M  V30 16500 C 884.895 -7.65087 -2.94749 0
M  V30 16501 O 884.505 -8.53963 -1.90717 0
M  V30 16502 C 884.015 -6.41069 -2.90698 0
M  V30 16503 C 884.725 -5.5528 -1.86931 0
M  V30 16504 N 884.675 -4.09575 -2.15696 0
M  V30 16505 C 884.525 -3.24249 -1.08435 0
M  V30 16506 O 884.435 -3.63946 0.0628747 0
M  V30 16507 N 884.485 -1.90009 -1.39973 0
M  V30 16508 C 884.575 -1.34884 -2.65614 0
M  V30 16509 O 884.525 -0.123716 -2.81728 0
M  V30 16510 C 884.725 -2.3145 -3.71736 0
M  V30 16511 C 884.835 -1.75913 -5.10438 0
M  V30 16512 C 884.775 -3.63518 -3.44754 0
M  V30 16513 H 887.516 -7.45402 -4.45526 0
M  V30 16514 H 887.785 -5.86062 -3.67208 0
M  V30 16515 H 886.918 -7.84412 -2.24479 0
M  V30 16516 H 884.263 -5.73358 -0.888409 0
M  V30 16517 H 883.984 -5.90877 -3.88583 0
M  V30 16518 H 882.992 -6.65867 -2.58821 0
M  V30 16519 H 884.826 -8.16248 -3.92006 0
M  V30 16520 H 884.897 -4.34551 -4.26383 0
M  V30 16521 H 883.867 -1.85471 -5.61775 0
M  V30 16522 H 885.604 -2.31364 -5.66257 0
M  V30 16523 H 885.116 -0.695936 -5.05229 0
M  V30 16524 H 884.38 -1.26277 -0.63625 0
M  V30 16525 P 882.955 -8.7635 -1.60911 0
M  V30 16526 O 882.735 -10.1388 -1.11561 0
M  V30 16527 O 882.165 -8.36503 -2.79617 0
M  V30 16528 O 882.705 -7.71806 -0.42951 0
M  V30 16529 C 883.645 -7.67148 0.673689 0
M  V30 16530 C 882.915 -7.33374 1.95559 0
M  V30 16531 O 882.705 -5.88721 2.00726 0
M  V30 16532 C 881.515 -7.92526 2.10483 0
M  V30 16533 O 881.125 -8.02971 3.47653 0
M  V30 16534 C 880.635 -6.89602 1.41652 0
M  V30 16535 C 881.345 -5.59201 1.75185 0
M  V30 16536 N 881.295 -4.58301 0.657969 0
M  V30 16537 H 884.134 -8.65116 0.777161 0
M  V30 16538 H 884.406 -6.9022 0.46725 0
M  V30 16539 H 883.538 -7.66548 2.79458 0
M  V30 16540 H 880.883 -5.16165 2.65183 0
M  V30 16541 H 880.603 -7.06433 0.329384 0
M  V30 16542 H 879.612 -6.90926 1.82021 0
M  V30 16543 H 881.446 -8.90873 1.62657 0
M  V30 16544 P 879.575 -8.03563 3.84925 0
M  V30 16545 O 879.355 -8.85821 5.0569 0
M  V30 16546 O 878.785 -8.41101 2.65469 0
M  V30 16547 O 879.325 -6.4965 4.18908 0
M  V30 16548 C 880.265 -5.81037 5.05421 0
M  V30 16549 C 879.535 -4.78366 5.89277 0
M  V30 16550 O 879.325 -3.58302 5.08433 0
M  V30 16551 C 878.135 -5.17448 6.36119 0
M  V30 16552 O 877.745 -4.45271 7.53232 0
M  V30 16553 C 877.255 -4.74639 5.19936 0
M  V30 16554 C 877.965 -3.49432 4.70418 0
M  V30 16555 N 877.915 -3.32099 3.22613 0
M  V30 16556 H 880.754 -6.54213 5.71376 0
M  V30 16557 H 881.026 -5.30936 4.43503 0
M  V30 16558 H 880.158 -4.55889 6.76652 0
M  V30 16559 H 877.503 -2.61715 5.17932 0
M  V30 16560 H 877.223 -5.52155 4.41878 0
M  V30 16561 H 876.232 -4.51981 5.53374 0
M  V30 16562 H 878.066 -6.25124 6.55234 0
M  V30 16563 P 876.195 -4.23843 7.83734 0
M  V30 16564 O 875.975 -4.19407 9.29784 0
M  V30 16565 O 875.405 -5.24426 7.09156 0
M  V30 16566 O 875.945 -2.7935 7.20758 0
M  V30 16567 C 876.885 -1.72945 7.50224 0
M  V30 16568 C 876.155 -0.406376 7.57911 0
M  V30 16569 O 875.945 0.0897726 6.21935 0
M  V30 16570 C 874.755 -0.438983 8.18724 0
M  V30 16571 O 874.365 0.825065 8.71101 0
M  V30 16572 C 873.875 -0.783689 6.99524 0
M  V30 16573 C 874.585 -0.0619086 5.85867 0
M  V30 16574 N 874.535 -0.78573 4.56183 0
M  V30 16575 C 874.385 -0.0292889 3.41887 0
M  V30 16576 O 874.295 1.18445 3.4419 0
M  V30 16577 N 874.345 -0.744061 2.23964 0
M  V30 16578 C 874.435 -2.10932 2.10362 0
M  V30 16579 O 874.385 -2.64117 0.98825 0
M  V30 16580 C 874.585 -2.8202 3.34994 0
M  V30 16581 C 874.695 -4.31095 3.25037 0
M  V30 16582 C 874.635 -2.15547 4.52261 0
M  V30 16583 H 877.376 -1.93379 8.46595 0
M  V30 16584 H 877.645 -1.68132 6.70852 0
M  V30 16585 H 876.778 0.289041 8.15388 0
M  V30 16586 H 874.123 0.926847 5.72749 0
M  V30 16587 H 873.844 -1.86973 6.82036 0
M  V30 16588 H 872.852 -0.403896 7.13257 0
M  V30 16589 H 874.686 -1.20585 8.97435 0
M  V30 16590 H 874.757 -2.71231 5.45042 0
M  V30 16591 H 873.727 -4.76966 3.49992 0
M  V30 16592 H 875.464 -4.67047 3.95024 0
M  V30 16593 H 874.976 -4.58996 2.22312 0
M  V30 16594 H 874.24 -0.214893 1.39758 0
M  V30 16595 P 872.815 1.17771 8.83182 0
M  V30 16596 O 872.595 2.07206 9.98732 0
M  V30 16597 O 872.025 -0.0743816 8.81969 0
M  V30 16598 O 872.565 1.97652 7.47304 0
M  V30 16599 C 873.505 3.01133 7.08783 0
M  V30 16600 C 872.775 4.12613 6.37049 0
M  V30 16601 O 872.565 3.72827 4.97879 0
M  V30 16602 C 871.375 4.45085 6.88694 0
M  V30 16603 O 870.985 5.7877 6.5624 0
M  V30 16604 C 870.495 3.47817 6.12078 0
M  V30 16605 C 871.205 3.39414 4.77697 0
M  V30 16606 N 871.155 2.04615 4.15333 0
M  V30 16607 H 873.994 3.41248 7.98759 0
M  V30 16608 H 874.266 2.5837 6.41742 0
M  V30 16609 H 873.398 5.02657 6.42673 0
M  V30 16610 P 869.435 6.144 6.45285 0
M  V30 16611 O 869.215 7.54673 6.86199 0
M  V30 16612 O 868.645 5.12391 7.179 0
M  V30 16613 O 869.185 5.99236 4.88467 0
M  V30 16614 C 870.125 6.60234 3.96415 0
M  V30 16615 C 869.395 7.08079 2.736 0
M  V30 16616 O 869.185 5.94365 1.8368 0
M  V30 16617 C 867.995 7.64886 2.9555 0
M  V30 16618 O 867.605 8.5406 1.90739 0
M  V30 16619 C 867.115 6.4116 2.90739 0
M  V30 16620 C 867.825 5.55375 1.86963 0
M  V30 16621 N 867.775 4.09664 2.15742 0
M  V30 16622 C 867.625 3.22231 1.08477 0
M  V30 16623 O 867.535 3.68951 -0.0600489 0
M  V30 16624 N 867.575 1.76692 1.48799 0
M  V30 16625 C 867.675 1.41695 2.57602 0
M  V30 16626 N 867.625 0.107296 2.75791 0
M  V30 16627 C 867.825 2.29178 3.69733 0
M  V30 16628 C 867.875 3.62753 3.42653 0
M  V30 16629 H 870.615 7.45488 4.45578 0
M  V30 16630 H 870.885 5.86232 3.67314 0
M  V30 16631 H 870.018 7.84508 2.24507 0
M  V30 16632 H 867.363 5.73556 0.888715 0
M  V30 16633 H 867.083 5.9096 3.88638 0
M  V30 16634 H 866.092 6.66053 2.58894 0
M  V30 16635 H 867.926 8.16339 3.92049 0
M  V30 16636 H 867.998 4.33052 4.24913 0
M  V30 16637 H 867.896 1.9103 4.71577 0
M  V30 16638 H 867.508 -0.521221 1.95056 0
M  V30 16639 H 867.704 -0.286429 3.70695 0
M  V30 16640 P 866.055 8.7635 1.60911 0
M  V30 16641 O 865.835 10.1388 1.11561 0
M  V30 16642 O 865.265 8.36503 2.79617 0
M  V30 16643 O 865.805 7.71806 0.42951 0
M  V30 16644 C 866.745 7.67148 -0.673689 0
M  V30 16645 C 866.015 7.33374 -1.95559 0
M  V30 16646 O 865.805 5.88721 -2.00726 0
M  V30 16647 C 864.615 7.92526 -2.10483 0
M  V30 16648 O 864.225 8.02971 -3.47653 0
M  V30 16649 C 863.735 6.89602 -1.41652 0
M  V30 16650 C 864.445 5.59201 -1.75185 0
M  V30 16651 N 864.395 4.58235 -0.662552 0
M  V30 16652 H 867.234 8.65116 -0.777161 0
M  V30 16653 H 867.506 6.90173 -0.474152 0
M  V30 16654 H 866.638 7.66548 -2.79458 0
M  V30 16655 P 862.675 8.03563 -3.84925 0
M  V30 16656 O 862.455 8.85821 -5.0569 0
M  V30 16657 O 861.885 8.41101 -2.65469 0
M  V30 16658 O 862.425 6.4965 -4.18908 0
M  V30 16659 C 863.365 5.81037 -5.05421 0
M  V30 16660 C 862.635 4.78366 -5.89277 0
M  V30 16661 O 862.425 3.58302 -5.08433 0
M  V30 16662 C 861.235 5.17448 -6.36119 0
M  V30 16663 O 860.845 4.45271 -7.53232 0
M  V30 16664 C 860.355 4.74639 -5.19936 0
M  V30 16665 C 861.065 3.49432 -4.70418 0
M  V30 16666 N 861.015 3.32099 -3.22613 0
M  V30 16667 C 861.095 4.28245 -2.25527 0
M  V30 16668 N 861.025 3.80823 -1.04874 0
M  V30 16669 C 860.875 2.44571 -1.23535 0
M  V30 16670 C 860.745 1.37068 -0.330675 0
M  V30 16671 N 860.735 1.51472 0.990824 0
M  V30 16672 N 860.625 0.138614 -0.848756 0
M  V30 16673 C 860.635 -0.00675923 -2.16999 0
M  V30 16674 N 860.755 0.904372 -3.11122 0
M  V30 16675 C 860.875 2.12707 -2.56212 0
M  V30 16676 H 863.854 6.54213 -5.71376 0
M  V30 16677 H 864.126 5.30936 -4.43503 0
M  V30 16678 H 863.258 4.55889 -6.76652 0
M  V30 16679 H 860.603 2.61715 -5.17932 0
M  V30 16680 H 860.323 5.52155 -4.41878 0
M  V30 16681 H 859.332 4.51981 -5.53374 0
M  V30 16682 H 861.166 6.25124 -6.55234 0
M  V30 16683 H 861.207 5.34372 -2.47488 0
M  V30 16684 H 860.826 2.45153 1.4078 0
M  V30 16685 H 860.637 0.688422 1.59911 0
M  V30 16686 H 860.529 -1.02584 -2.52346 0
M  V30 16687 P 859.295 4.23843 -7.83734 0
M  V30 16688 O 859.075 4.19407 -9.29784 0
M  V30 16689 O 858.505 5.24426 -7.09156 0
M  V30 16690 O 859.045 2.7935 -7.20758 0
M  V30 16691 C 859.985 1.7299 -7.50419 0
M  V30 16692 C 859.255 0.406376 -7.57911 0
M  V30 16693 O 859.045 -0.0897726 -6.21935 0
M  V30 16694 C 857.855 0.447224 -8.1878 0
M  V30 16695 O 857.465 -0.825065 -8.71101 0
M  V30 16696 C 856.975 0.783801 -6.99623 0
M  V30 16697 C 857.685 0.0619192 -5.85967 0
M  V30 16698 N 857.635 0.7859 -4.56281 0
M  V30 16699 H 860.474 1.93423 -8.4679 0
M  V30 16700 H 860.746 1.68181 -6.71046 0
M  V30 16701 H 859.878 -0.289041 -8.15388 0
M  V30 16702 P 855.915 -1.17771 -8.83182 0
M  V30 16703 O 855.695 -2.07206 -9.98732 0
M  V30 16704 O 855.125 0.0743816 -8.81969 0
M  V30 16705 O 855.665 -1.97652 -7.47304 0
M  V30 16706 C 856.605 -3.01133 -7.08783 0
M  V30 16707 C 855.875 -4.12613 -6.37049 0
M  V30 16708 O 855.665 -3.72827 -4.97879 0
M  V30 16709 C 854.475 -4.45085 -6.88694 0
M  V30 16710 O 854.085 -5.7877 -6.5624 0
M  V30 16711 C 853.595 -3.47817 -6.12078 0
M  V30 16712 C 854.305 -3.39414 -4.77697 0
M  V30 16713 N 854.255 -2.04615 -4.15333 0
M  V30 16714 H 857.094 -3.41248 -7.98759 0
M  V30 16715 H 857.366 -2.5837 -6.41742 0
M  V30 16716 H 856.498 -5.02657 -6.42673 0
M  V30 16717 P 852.535 -6.144 -6.45285 0
M  V30 16718 O 852.315 -7.54673 -6.86199 0
M  V30 16719 O 851.745 -5.12391 -7.179 0
M  V30 16720 O 852.285 -5.99158 -4.88404 0
M  V30 16721 C 853.225 -6.60234 -3.96415 0
M  V30 16722 C 852.495 -7.08259 -2.72856 0
M  V30 16723 O 852.285 -5.9427 -1.83651 0
M  V30 16724 C 851.095 -7.64886 -2.9555 0
M  V30 16725 O 850.705 -8.53963 -1.90717 0
M  V30 16726 C 850.215 -6.4116 -2.90739 0
M  V30 16727 C 850.925 -5.55375 -1.86963 0
M  V30 16728 N 850.875 -4.09448 -2.16152 0
M  V30 16729 H 853.714 -7.45574 -4.45629 0
M  V30 16730 H 853.986 -5.85864 -3.679 0
M  V30 16731 H 853.118 -7.84412 -2.24479 0
M  V30 16732 H 850.463 -5.73457 -0.888562 0
M  V30 16733 H 850.183 -5.90877 -3.88583 0
M  V30 16734 H 849.192 -6.6596 -2.58858 0
M  V30 16735 H 851.026 -8.16339 -3.92049 0
M  V30 16736 P 849.155 -8.7635 -1.60911 0
M  V30 16737 O 848.935 -10.1388 -1.11561 0
M  V30 16738 O 848.365 -8.36503 -2.79617 0
M  V30 16739 O 848.905 -7.71806 -0.42951 0
M  V30 16740 C 849.845 -7.67148 0.673689 0
M  V30 16741 C 849.115 -7.33374 1.95559 0
M  V30 16742 O 848.905 -5.88721 2.00726 0
M  V30 16743 C 847.715 -7.92526 2.10483 0
M  V30 16744 O 847.325 -8.02971 3.47653 0
M  V30 16745 C 846.835 -6.89602 1.41652 0
M  V30 16746 C 847.545 -5.59201 1.75185 0
M  V30 16747 N 847.495 -4.58301 0.657969 0
M  V30 16748 H 850.334 -8.65116 0.777161 0
M  V30 16749 H 850.606 -6.9022 0.46725 0
M  V30 16750 H 849.738 -7.66548 2.79458 0
M  V30 16751 H 847.083 -5.16165 2.65183 0
M  V30 16752 H 846.803 -7.06433 0.329384 0
M  V30 16753 H 845.812 -6.90926 1.82021 0
M  V30 16754 H 847.646 -8.90873 1.62657 0
M  V30 16755 P 845.775 -8.03563 3.84925 0
M  V30 16756 O 845.555 -8.85821 5.0569 0
M  V30 16757 O 844.985 -8.41101 2.65469 0
M  V30 16758 O 845.525 -6.4965 4.18908 0
M  V30 16759 C 846.465 -5.81037 5.05421 0
M  V30 16760 C 845.735 -4.78366 5.89277 0
M  V30 16761 O 845.525 -3.58302 5.08433 0
M  V30 16762 C 844.335 -5.17448 6.36119 0
M  V30 16763 O 843.945 -4.45271 7.53232 0
M  V30 16764 C 843.455 -4.74639 5.19936 0
M  V30 16765 C 844.165 -3.49432 4.70418 0
M  V30 16766 N 844.115 -3.32099 3.22613 0
M  V30 16767 C 844.195 -4.28245 2.25527 0
M  V30 16768 N 844.125 -3.80823 1.04874 0
M  V30 16769 C 843.975 -2.44571 1.23535 0
M  V30 16770 C 843.845 -1.37068 0.330675 0
M  V30 16771 N 843.835 -1.51472 -0.990824 0
M  V30 16772 N 843.725 -0.138614 0.848756 0
M  V30 16773 C 843.735 0.00675923 2.16999 0
M  V30 16774 N 843.855 -0.904372 3.11122 0
M  V30 16775 C 843.975 -2.12707 2.56212 0
M  V30 16776 H 846.954 -6.54213 5.71376 0
M  V30 16777 H 847.226 -5.30936 4.43503 0
M  V30 16778 H 846.358 -4.55889 6.76652 0
M  V30 16779 H 843.703 -2.61715 5.17932 0
M  V30 16780 H 843.423 -5.52155 4.41878 0
M  V30 16781 H 842.432 -4.51981 5.53374 0
M  V30 16782 H 844.266 -6.25124 6.55234 0
M  V30 16783 H 844.307 -5.34372 2.47488 0
M  V30 16784 H 843.926 -2.45153 -1.4078 0
M  V30 16785 H 843.737 -0.688422 -1.59911 0
M  V30 16786 H 843.629 1.02584 2.52346 0
M  V30 16787 P 842.395 -4.23843 7.83734 0
M  V30 16788 O 842.175 -4.19407 9.29784 0
M  V30 16789 O 841.605 -5.24426 7.09156 0
M  V30 16790 O 842.145 -2.7935 7.20758 0
M  V30 16791 C 843.085 -1.7299 7.50419 0
M  V30 16792 C 842.355 -0.406376 7.57911 0
M  V30 16793 O 842.145 0.0897726 6.21935 0
M  V30 16794 C 840.955 -0.447224 8.1878 0
M  V30 16795 O 840.565 0.825065 8.71101 0
M  V30 16796 C 840.075 -0.783801 6.99623 0
M  V30 16797 C 840.785 -0.0619192 5.85967 0
M  V30 16798 N 840.735 -0.7859 4.56281 0
M  V30 16799 H 843.574 -1.93423 8.4679 0
M  V30 16800 H 843.846 -1.68181 6.71046 0
M  V30 16801 H 842.978 0.289041 8.15388 0
M  V30 16802 P 839.015 1.17771 8.83182 0
M  V30 16803 O 838.795 2.07206 9.98732 0
M  V30 16804 O 838.225 -0.0743816 8.81969 0
M  V30 16805 O 838.765 1.97652 7.47304 0
M  V30 16806 C 839.705 3.01133 7.08783 0
M  V30 16807 C 838.975 4.12613 6.37049 0
M  V30 16808 O 838.765 3.72827 4.97879 0
M  V30 16809 C 837.575 4.45085 6.88694 0
M  V30 16810 O 837.185 5.7877 6.5624 0
M  V30 16811 C 836.695 3.47817 6.12078 0
M  V30 16812 C 837.405 3.39414 4.77697 0
M  V30 16813 N 837.355 2.04615 4.15333 0
M  V30 16814 C 837.435 0.803897 4.75249 0
M  V30 16815 N 837.355 -0.197615 3.91502 0
M  V30 16816 C 837.215 0.413002 2.66823 0
M  V30 16817 C 837.085 -0.157221 1.38007 0
M  V30 16818 O 837.065 -1.34419 1.057 0
M  V30 16819 N 836.965 0.833136 0.390236 0
M  V30 16820 C 836.965 2.19402 0.623885 0
M  V30 16821 N 836.835 2.97622 -0.449677 0
M  V30 16822 N 837.095 2.73005 1.83601 0
M  V30 16823 C 837.215 1.78786 2.80935 0
M  V30 16824 H 840.194 3.41248 7.98759 0
M  V30 16825 H 840.466 2.5837 6.41742 0
M  V30 16826 H 839.598 5.02657 6.42673 0
M  V30 16827 H 836.943 4.11779 4.09026 0
M  V30 16828 H 836.663 2.49661 6.61772 0
M  V30 16829 H 835.672 3.86674 6.00946 0
M  V30 16830 H 837.506 4.30038 7.97094 0
M  V30 16831 H 837.555 0.670579 5.82754 0
M  V30 16832 H 836.873 0.528446 -0.557287 0
M  V30 16833 H 836.836 4.00117 -0.344773 0
M  V30 16834 H 836.735 2.55448 -1.38544 0
M  V30 16835 P 835.635 6.144 6.45285 0
M  V30 16836 O 835.415 7.54673 6.86199 0
M  V30 16837 O 834.845 5.12391 7.179 0
M  V30 16838 O 835.385 5.99158 4.88404 0
M  V30 16839 C 836.325 6.60234 3.96415 0
M  V30 16840 C 835.595 7.08259 2.72856 0
M  V30 16841 O 835.385 5.9427 1.83651 0
M  V30 16842 C 834.195 7.64886 2.9555 0
M  V30 16843 O 833.805 8.53963 1.90717 0
M  V30 16844 C 833.315 6.4116 2.90739 0
M  V30 16845 C 834.025 5.55375 1.86963 0
M  V30 16846 N 833.975 4.09664 2.15742 0
M  V30 16847 H 836.814 7.45574 4.45629 0
M  V30 16848 H 837.086 5.86232 3.67314 0
M  V30 16849 H 836.218 7.84412 2.24479 0
M  V30 16850 P 832.255 8.7635 1.60911 0
M  V30 16851 O 832.035 10.1388 1.11561 0
M  V30 16852 O 831.465 8.36503 2.79617 0
M  V30 16853 O 832.005 7.71806 0.42951 0
M  V30 16854 C 832.945 7.67148 -0.673689 0
M  V30 16855 C 832.215 7.33374 -1.95559 0
M  V30 16856 O 832.005 5.88721 -2.00726 0
M  V30 16857 C 830.815 7.92526 -2.10483 0
M  V30 16858 O 830.425 8.02971 -3.47653 0
M  V30 16859 C 829.935 6.89602 -1.41652 0
M  V30 16860 C 830.645 5.59201 -1.75185 0
M  V30 16861 N 830.595 4.58301 -0.657969 0
M  V30 16862 C 830.675 4.79019 0.692603 0
M  V30 16863 N 830.605 3.69736 1.38998 0
M  V30 16864 C 830.455 2.70474 0.438135 0
M  V30 16865 C 830.325 1.30327 0.538142 0
M  V30 16866 N 830.315 0.64304 1.69192 0
M  V30 16867 N 830.205 0.611027 -0.605183 0
M  V30 16868 C 830.215 1.27002 -1.75953 0
M  V30 16869 N 830.335 2.56038 -1.98546 0
M  V30 16870 C 830.455 3.22681 -0.822541 0
M  V30 16871 H 833.434 8.65116 -0.777161 0
M  V30 16872 H 833.706 6.9022 -0.46725 0
M  V30 16873 H 832.838 7.66548 -2.79458 0
M  V30 16874 H 830.183 5.16165 -2.65183 0
M  V30 16875 H 829.903 7.06433 -0.329384 0
M  V30 16876 H 828.912 6.90926 -1.82021 0
M  V30 16877 H 830.746 8.90873 -1.62657 0
M  V30 16878 H 830.787 5.77785 1.13874 0
M  V30 16879 H 830.406 1.15585 2.57991 0
M  V30 16880 H 830.217 -0.382989 1.69835 0
M  V30 16881 H 830.109 0.653331 -2.64449 0
M  V30 16882 P 828.875 8.03563 -3.84925 0
M  V30 16883 O 828.655 8.85821 -5.0569 0
M  V30 16884 O 828.085 8.41101 -2.65469 0
M  V30 16885 O 828.625 6.4965 -4.18908 0
M  V30 16886 C 829.565 5.81037 -5.05421 0
M  V30 16887 C 828.835 4.78366 -5.89277 0
M  V30 16888 O 828.625 3.58302 -5.08433 0
M  V30 16889 C 827.435 5.17448 -6.36119 0
M  V30 16890 O 827.045 4.45271 -7.53232 0
M  V30 16891 C 826.555 4.74639 -5.19936 0
M  V30 16892 C 827.265 3.49432 -4.70418 0
M  V30 16893 N 827.215 3.32099 -3.22613 0
M  V30 16894 C 827.295 4.28245 -2.25527 0
M  V30 16895 N 827.225 3.80823 -1.04874 0
M  V30 16896 C 827.075 2.44571 -1.23535 0
M  V30 16897 C 826.945 1.37068 -0.330675 0
M  V30 16898 N 826.935 1.51472 0.990824 0
M  V30 16899 N 826.825 0.138614 -0.848756 0
M  V30 16900 C 826.835 -0.00675923 -2.16999 0
M  V30 16901 N 826.955 0.904372 -3.11122 0
M  V30 16902 C 827.075 2.12707 -2.56212 0
M  V30 16903 H 830.054 6.54213 -5.71376 0
M  V30 16904 H 830.326 5.30936 -4.43503 0
M  V30 16905 H 829.458 4.55889 -6.76652 0
M  V30 16906 H 826.803 2.61715 -5.17932 0
M  V30 16907 H 826.523 5.52155 -4.41878 0
M  V30 16908 H 825.532 4.51981 -5.53374 0
M  V30 16909 H 827.366 6.25124 -6.55234 0
M  V30 16910 H 827.407 5.34372 -2.47488 0
M  V30 16911 H 827.026 2.45153 1.4078 0
M  V30 16912 H 826.837 0.688422 1.59911 0
M  V30 16913 H 826.729 -1.02584 -2.52346 0
M  V30 16914 P 825.495 4.23843 -7.83734 0
M  V30 16915 O 825.275 4.19407 -9.29784 0
M  V30 16916 O 824.705 5.24426 -7.09156 0
M  V30 16917 O 825.245 2.7935 -7.20758 0
M  V30 16918 C 826.185 1.7299 -7.50419 0
M  V30 16919 C 825.455 0.406376 -7.57911 0
M  V30 16920 O 825.245 -0.0897726 -6.21935 0
M  V30 16921 C 824.055 0.447224 -8.1878 0
M  V30 16922 O 823.665 -0.825065 -8.71101 0
M  V30 16923 C 823.175 0.783801 -6.99623 0
M  V30 16924 C 823.885 0.0619192 -5.85967 0
M  V30 16925 N 823.835 0.7859 -4.56281 0
M  V30 16926 H 826.674 1.93423 -8.4679 0
M  V30 16927 H 826.946 1.68181 -6.71046 0
M  V30 16928 H 826.078 -0.289041 -8.15388 0
M  V30 16929 P 822.115 -1.17771 -8.83182 0
M  V30 16930 O 821.895 -2.07206 -9.98732 0
M  V30 16931 O 821.325 0.0743816 -8.81969 0
M  V30 16932 O 821.865 -1.97652 -7.47304 0
M  V30 16933 C 822.805 -3.01055 -7.08599 0
M  V30 16934 C 822.075 -4.12613 -6.37049 0
M  V30 16935 O 821.865 -3.72827 -4.97879 0
M  V30 16936 C 820.675 -4.45719 -6.88164 0
M  V30 16937 O 820.285 -5.7877 -6.5624 0
M  V30 16938 C 819.795 -3.47768 -6.11991 0
M  V30 16939 C 820.505 -3.39356 -4.77615 0
M  V30 16940 N 820.455 -2.04571 -4.15244 0
M  V30 16941 C 820.305 -1.98587 -2.78314 0
M  V30 16942 O 820.215 -2.98134 -2.08835 0
M  V30 16943 N 820.265 -0.714467 -2.24925 0
M  V30 16944 C 820.355 0.470001 -2.94169 0
M  V30 16945 C 820.505 0.312541 -4.36783 0
M  V30 16946 C 820.555 -0.914512 -4.92583 0
M  V30 16947 H 823.296 -3.41169 -7.98575 0
M  V30 16948 H 823.565 -2.58295 -6.41556 0
M  V30 16949 H 822.698 -5.02657 -6.42673 0
M  V30 16950 H 820.043 -4.11637 -4.08885 0
M  V30 16951 H 819.764 -2.49626 -6.61679 0
M  V30 16952 H 818.772 -3.86566 -6.00778 0
M  V30 16953 H 820.606 -4.29943 -7.96918 0
M  V30 16954 H 820.677 -1.00937 -6.00374 0
M  V30 16955 P 818.735 -6.144 -6.45285 0
M  V30 16956 O 818.515 -7.54673 -6.86199 0
M  V30 16957 O 817.945 -5.12391 -7.179 0
M  V30 16958 O 818.485 -5.99158 -4.88404 0
M  V30 16959 C 819.425 -6.60234 -3.96415 0
M  V30 16960 C 818.695 -7.08259 -2.72856 0
M  V30 16961 O 818.485 -5.9427 -1.83651 0
M  V30 16962 C 817.295 -7.64886 -2.9555 0
M  V30 16963 O 816.905 -8.53963 -1.90717 0
M  V30 16964 C 816.415 -6.4116 -2.90739 0
M  V30 16965 C 817.125 -5.55375 -1.86963 0
M  V30 16966 N 817.075 -4.09664 -2.15742 0
M  V30 16967 H 819.914 -7.45574 -4.45629 0
M  V30 16968 H 820.186 -5.86232 -3.67314 0
M  V30 16969 H 819.318 -7.84412 -2.24479 0
M  V30 16970 P 815.355 -8.7635 -1.60911 0
M  V30 16971 O 815.135 -10.1388 -1.11561 0
M  V30 16972 O 814.565 -8.36503 -2.79617 0
M  V30 16973 O 815.105 -7.71806 -0.42951 0
M  V30 16974 C 816.045 -7.67148 0.673689 0
M  V30 16975 C 815.315 -7.33374 1.95559 0
M  V30 16976 O 815.105 -5.88721 2.00726 0
M  V30 16977 C 813.915 -7.92526 2.10483 0
M  V30 16978 O 813.525 -8.02971 3.47653 0
M  V30 16979 C 813.035 -6.89602 1.41652 0
M  V30 16980 C 813.745 -5.59201 1.75185 0
M  V30 16981 N 813.695 -4.58235 0.662552 0
M  V30 16982 C 813.775 -4.7683 -0.704049 0
M  V30 16983 N 813.695 -3.66233 -1.39775 0
M  V30 16984 C 813.555 -2.66526 -0.431739 0
M  V30 16985 C 813.425 -1.26394 -0.575992 0
M  V30 16986 O 813.405 -0.589894 -1.60503 0
M  V30 16987 N 813.305 -0.62859 0.67177 0
M  V30 16988 C 813.305 -1.27134 1.89385 0
M  V30 16989 N 813.175 -0.492035 2.96951 0
M  V30 16990 N 813.435 -2.58978 2.02907 0
M  V30 16991 C 813.555 -3.22433 0.832218 0
M  V30 16992 H 816.534 -8.65116 0.777161 0
M  V30 16993 H 816.806 -6.90173 0.474152 0
M  V30 16994 H 815.938 -7.66548 2.79458 0
M  V30 16995 H 813.283 -5.16254 2.65229 0
M  V30 16996 H 813.003 -7.06532 0.329431 0
M  V30 16997 H 812.012 -6.91023 1.82047 0
M  V30 16998 H 813.846 -8.90971 1.62675 0
M  V30 16999 H 813.895 -5.74954 -1.16305 0
M  V30 17000 H 813.213 0.366713 0.674793 0
M  V30 17001 H 813.176 -0.908532 3.91188 0
M  V30 17002 H 813.075 0.528253 2.85758 0
M  V30 17003 P 811.975 -8.03563 3.84925 0
M  V30 17004 O 811.755 -8.85821 5.0569 0
M  V30 17005 O 811.185 -8.41101 2.65469 0
M  V30 17006 O 811.725 -6.4965 4.18908 0
M  V30 17007 C 812.665 -5.81037 5.05421 0
M  V30 17008 C 811.935 -4.78366 5.89277 0
M  V30 17009 O 811.725 -3.58302 5.08433 0
M  V30 17010 C 810.535 -5.17448 6.36119 0
M  V30 17011 O 810.145 -4.45271 7.53232 0
M  V30 17012 C 809.655 -4.74639 5.19936 0
M  V30 17013 C 810.365 -3.49432 4.70418 0
M  V30 17014 N 810.315 -3.31776 3.22945 0
M  V30 17015 H 813.154 -6.54213 5.71376 0
M  V30 17016 H 813.426 -5.30492 4.44033 0
M  V30 17017 H 812.558 -4.55889 6.76652 0
M  V30 17018 P 808.595 -4.23843 7.83734 0
M  V30 17019 O 808.375 -4.19407 9.29784 0
M  V30 17020 O 807.805 -5.24426 7.09156 0
M  V30 17021 O 808.345 -2.79386 7.20852 0
M  V30 17022 C 809.285 -1.7299 7.50419 0
M  V30 17023 C 808.555 -0.41401 7.5797 0
M  V30 17024 O 808.345 0.089787 6.22035 0
M  V30 17025 C 807.155 -0.447224 8.1878 0
M  V30 17026 O 806.765 0.825159 8.71201 0
M  V30 17027 C 806.275 -0.783801 6.99623 0
M  V30 17028 C 806.985 -0.0619192 5.85967 0
M  V30 17029 N 806.935 -0.7859 4.56281 0
M  V30 17030 C 806.785 -0.0359258 3.39981 0
M  V30 17031 O 806.695 1.19723 3.49038 0
M  V30 17032 N 806.735 -0.869151 2.14025 0
M  V30 17033 C 806.835 -2.01207 2.14363 0
M  V30 17034 N 806.785 -2.58978 0.954287 0
M  V30 17035 C 806.985 -2.80817 3.32215 0
M  V30 17036 C 807.035 -2.13785 4.50884 0
M  V30 17037 H 809.775 -1.93401 8.46693 0
M  V30 17038 H 810.045 -1.68181 6.71046 0
M  V30 17039 H 809.178 0.289076 8.15488 0
M  V30 17040 H 806.523 0.927166 5.72947 0
M  V30 17041 H 806.243 -1.87 6.82132 0
M  V30 17042 H 805.252 -0.404009 7.13457 0
M  V30 17043 H 807.086 -1.20599 8.97534 0
M  V30 17044 H 807.158 -2.70295 5.43162 0
M  V30 17045 H 807.056 -3.89465 3.27406 0
M  V30 17046 H 806.668 -2.01616 0.107046 0
M  V30 17047 H 806.864 -3.61403 0.873101 0
M  V30 17048 P 805.215 1.17771 8.83182 0
M  V30 17049 O 804.995 2.07206 9.98732 0
M  V30 17050 O 804.425 -0.0743816 8.81969 0
M  V30 17051 O 804.965 1.97652 7.47304 0
M  V30 17052 C 805.905 3.01133 7.08783 0
M  V30 17053 C 805.175 4.12613 6.37049 0
M  V30 17054 O 804.965 3.72827 4.97879 0
M  V30 17055 C 803.775 4.45085 6.88694 0
M  V30 17056 O 803.385 5.7877 6.5624 0
M  V30 17057 C 802.895 3.47817 6.12078 0
M  V30 17058 C 803.605 3.39414 4.77697 0
M  V30 17059 N 803.555 2.04199 4.15538 0
M  V30 17060 H 806.394 3.41248 7.98759 0
M  V30 17061 H 806.666 2.57728 6.42 0
M  V30 17062 H 805.798 5.02657 6.42673 0
M  V30 17063 H 803.143 4.11708 4.08956 0
M  V30 17064 H 802.863 2.49626 6.61679 0
M  V30 17065 H 801.872 3.8662 6.00862 0
M  V30 17066 H 803.706 4.29991 7.97006 0
M  V30 17067 P 801.835 6.144 6.45285 0
M  V30 17068 O 801.615 7.54673 6.86199 0
M  V30 17069 O 801.045 5.12391 7.179 0
M  V30 17070 O 801.585 5.99158 4.88404 0
M  V30 17071 C 802.525 6.60062 3.96313 0
M  V30 17072 C 801.795 7.08259 2.72856 0
M  V30 17073 O 801.585 5.9427 1.83651 0
M  V30 17074 C 800.395 7.65087 2.94749 0
M  V30 17075 O 800.005 8.53963 1.90717 0
M  V30 17076 C 799.515 6.41069 2.90698 0
M  V30 17077 C 800.225 5.5528 1.86931 0
M  V30 17078 N 800.175 4.09575 2.15696 0
M  V30 17079 C 800.025 3.24249 1.08435 0
M  V30 17080 O 799.935 3.63946 -0.0628747 0
M  V30 17081 N 799.985 1.90009 1.39973 0
M  V30 17082 C 800.075 1.34884 2.65614 0
M  V30 17083 O 800.025 0.123716 2.81728 0
M  V30 17084 C 800.225 2.3145 3.71736 0
M  V30 17085 C 800.335 1.75913 5.10438 0
M  V30 17086 C 800.275 3.63518 3.44754 0
M  V30 17087 H 803.016 7.45402 4.45526 0
M  V30 17088 H 803.285 5.86062 3.67208 0
M  V30 17089 H 802.418 7.84412 2.24479 0
M  V30 17090 H 799.763 5.73358 0.888409 0
M  V30 17091 H 799.484 5.90877 3.88583 0
M  V30 17092 H 798.492 6.65867 2.58821 0
M  V30 17093 H 800.326 8.16248 3.92006 0
M  V30 17094 H 800.397 4.34551 4.26383 0
M  V30 17095 H 799.367 1.85471 5.61775 0
M  V30 17096 H 801.104 2.31364 5.66257 0
M  V30 17097 H 800.616 0.695936 5.05229 0
M  V30 17098 H 799.88 1.26277 0.63625 0
M  V30 17099 P 798.455 8.7635 1.60911 0
M  V30 17100 O 798.235 10.1388 1.11561 0
M  V30 17101 O 797.665 8.36503 2.79617 0
M  V30 17102 O 798.205 7.71806 0.42951 0
M  V30 17103 C 799.145 7.67148 -0.673689 0
M  V30 17104 C 798.415 7.33374 -1.95559 0
M  V30 17105 O 798.205 5.88721 -2.00726 0
M  V30 17106 C 797.015 7.92526 -2.10483 0
M  V30 17107 O 796.625 8.02971 -3.47653 0
M  V30 17108 C 796.135 6.89602 -1.41652 0
M  V30 17109 C 796.845 5.59201 -1.75185 0
M  V30 17110 N 796.795 4.58235 -0.662552 0
M  V30 17111 H 799.634 8.65116 -0.777161 0
M  V30 17112 H 799.906 6.90173 -0.474152 0
M  V30 17113 H 799.038 7.66548 -2.79458 0
M  V30 17114 P 795.075 8.03563 -3.84925 0
M  V30 17115 O 794.855 8.85821 -5.0569 0
M  V30 17116 O 794.285 8.41101 -2.65469 0
M  V30 17117 O 794.825 6.4965 -4.18908 0
M  V30 17118 C 795.765 5.81037 -5.05421 0
M  V30 17119 C 795.035 4.78366 -5.89277 0
M  V30 17120 O 794.825 3.58302 -5.08433 0
M  V30 17121 C 793.635 5.17448 -6.36119 0
M  V30 17122 O 793.245 4.45271 -7.53232 0
M  V30 17123 C 792.755 4.74639 -5.19936 0
M  V30 17124 C 793.465 3.49432 -4.70418 0
M  V30 17125 N 793.415 3.32099 -3.22613 0
M  V30 17126 H 796.254 6.54213 -5.71376 0
M  V30 17127 H 796.526 5.30936 -4.43503 0
M  V30 17128 H 795.658 4.55889 -6.76652 0
M  V30 17129 H 793.003 2.61715 -5.17932 0
M  V30 17130 H 792.723 5.52155 -4.41878 0
M  V30 17131 H 791.732 4.51981 -5.53374 0
M  V30 17132 H 793.566 6.25124 -6.55234 0
M  V30 17133 P 791.695 4.23843 -7.83734 0
M  V30 17134 O 791.475 4.19407 -9.29784 0
M  V30 17135 O 790.905 5.24426 -7.09156 0
M  V30 17136 O 791.445 2.7935 -7.20758 0
M  V30 17137 C 792.385 1.7299 -7.50419 0
M  V30 17138 C 791.655 0.406376 -7.57911 0
M  V30 17139 O 791.445 -0.0897726 -6.21935 0
M  V30 17140 C 790.255 0.447224 -8.1878 0
M  V30 17141 O 789.865 -0.825065 -8.71101 0
M  V30 17142 C 789.375 0.783801 -6.99623 0
M  V30 17143 C 790.085 0.0619192 -5.85967 0
M  V30 17144 N 790.035 0.790462 -4.56202 0
M  V30 17145 H 792.874 1.93423 -8.4679 0
M  V30 17146 H 793.146 1.68852 -6.70877 0
M  V30 17147 H 792.278 -0.289041 -8.15388 0
M  V30 17148 H 789.623 -0.927006 -5.72848 0
M  V30 17149 H 789.343 1.86973 -6.82036 0
M  V30 17150 H 788.352 0.403953 -7.13357 0
M  V30 17151 H 790.186 1.20599 -8.97534 0
M  V30 17152 P 788.315 -1.17771 -8.83182 0
M  V30 17153 O 788.095 -2.07206 -9.98732 0
M  V30 17154 O 787.525 0.0743816 -8.81969 0
M  V30 17155 O 788.065 -1.97652 -7.47304 0
M  V30 17156 C 789.005 -3.01133 -7.08783 0
M  V30 17157 C 788.275 -4.12613 -6.37049 0
M  V30 17158 O 788.065 -3.72827 -4.97879 0
M  V30 17159 C 786.875 -4.45085 -6.88694 0
M  V30 17160 O 786.485 -5.7877 -6.5624 0
M  V30 17161 C 785.995 -3.47817 -6.12078 0
M  V30 17162 C 786.705 -3.39414 -4.77697 0
M  V30 17163 N 786.655 -2.04615 -4.15333 0
M  V30 17164 C 786.735 -0.803897 -4.75249 0
M  V30 17165 N 786.655 0.197615 -3.91502 0
M  V30 17166 C 786.515 -0.413002 -2.66823 0
M  V30 17167 C 786.385 0.157221 -1.38007 0
M  V30 17168 N 786.265 -0.833136 -0.390236 0
M  V30 17169 C 786.265 -2.19402 -0.623885 0
M  V30 17170 N 786.135 -2.97622 0.449677 0
M  V30 17171 N 786.395 -2.73005 -1.83601 0
M  V30 17172 C 786.515 -1.78786 -2.80935 0
M  V30 17173 H 789.494 -3.41248 -7.98759 0
M  V30 17174 H 789.766 -2.5837 -6.41742 0
M  V30 17175 H 788.898 -5.02657 -6.42673 0
M  V30 17176 P 784.935 -6.144 -6.45285 0
M  V30 17177 O 784.715 -7.54673 -6.86199 0
M  V30 17178 O 784.145 -5.12391 -7.179 0
M  V30 17179 O 784.685 -5.99158 -4.88404 0
M  V30 17180 C 785.625 -6.60234 -3.96415 0
M  V30 17181 C 784.895 -7.08259 -2.72856 0
M  V30 17182 O 784.685 -5.9427 -1.83651 0
M  V30 17183 C 783.495 -7.64886 -2.9555 0
M  V30 17184 O 783.105 -8.53963 -1.90717 0
M  V30 17185 C 782.615 -6.4116 -2.90739 0
M  V30 17186 C 783.325 -5.55375 -1.86963 0
M  V30 17187 N 783.275 -4.09664 -2.15742 0
M  V30 17188 C 783.355 -3.44381 -3.37233 0
M  V30 17189 N 783.275 -2.14131 -3.28347 0
M  V30 17190 C 783.135 -1.90247 -1.91588 0
M  V30 17191 C 783.005 -0.683992 -1.20892 0
M  V30 17192 N 782.885 -0.903396 0.173998 0
M  V30 17193 C 782.885 -2.14171 0.784879 0
M  V30 17194 N 782.755 -2.1435 2.11317 0
M  V30 17195 N 783.015 -3.28784 0.119316 0
M  V30 17196 C 783.135 -3.0977 -1.22194 0
M  V30 17197 H 786.114 -7.45574 -4.45629 0
M  V30 17198 H 786.386 -5.86232 -3.67314 0
M  V30 17199 H 785.518 -7.84412 -2.24479 0
M  V30 17200 P 781.555 -8.7635 -1.60911 0
M  V30 17201 O 781.335 -10.1388 -1.11561 0
M  V30 17202 O 780.765 -8.36503 -2.79617 0
M  V30 17203 O 781.305 -7.71806 -0.42951 0
M  V30 17204 C 782.245 -7.66948 0.673514 0
M  V30 17205 C 781.515 -7.33374 1.95559 0
M  V30 17206 O 781.305 -5.88721 2.00726 0
M  V30 17207 C 780.115 -7.92218 2.1125 0
M  V30 17208 O 779.725 -8.02971 3.47653 0
M  V30 17209 C 779.235 -6.89504 1.41631 0
M  V30 17210 C 779.945 -5.59106 1.75155 0
M  V30 17211 N 779.895 -4.58136 0.662409 0
M  V30 17212 C 779.745 -3.26059 1.02863 0
M  V30 17213 O 779.655 -2.90743 2.19009 0
M  V30 17214 N 779.705 -2.35995 -0.0155585 0
M  V30 17215 C 779.795 -2.65248 -1.35603 0
M  V30 17216 O 779.745 -1.75605 -2.20651 0
M  V30 17217 C 779.945 -4.05747 -1.64698 0
M  V30 17218 C 780.055 -4.42345 -3.09553 0
M  V30 17219 C 779.995 -4.96734 -0.652411 0
M  V30 17220 H 782.736 -8.64917 0.776982 0
M  V30 17221 H 783.005 -6.89974 0.474015 0
M  V30 17222 H 782.138 -7.66548 2.79458 0
M  V30 17223 H 779.483 -5.16076 2.65138 0
M  V30 17224 H 779.204 -7.06433 0.329384 0
M  V30 17225 H 778.212 -6.90829 1.81996 0
M  V30 17226 H 780.046 -8.90774 1.62639 0
M  V30 17227 H 780.117 -6.02181 -0.895285 0
M  V30 17228 H 779.087 -4.80252 -3.45468 0
M  V30 17229 H 780.824 -5.20015 -3.22119 0
M  V30 17230 H 780.336 -3.53269 -3.67833 0
M  V30 17231 H 779.6 -1.39558 0.227499 0
M  V30 17232 P 778.175 -8.03563 3.84925 0
M  V30 17233 O 777.955 -8.85821 5.0569 0
M  V30 17234 O 777.385 -8.41101 2.65469 0
M  V30 17235 O 777.925 -6.4965 4.18908 0
M  V30 17236 C 778.865 -5.81037 5.05421 0
M  V30 17237 C 778.135 -4.78366 5.89277 0
M  V30 17238 O 777.925 -3.58302 5.08433 0
M  V30 17239 C 776.735 -5.17448 6.36119 0
M  V30 17240 O 776.345 -4.45271 7.53232 0
M  V30 17241 C 775.855 -4.74639 5.19936 0
M  V30 17242 C 776.565 -3.49432 4.70418 0
M  V30 17243 N 776.515 -3.31776 3.22945 0
M  V30 17244 H 779.354 -6.54213 5.71376 0
M  V30 17245 H 779.626 -5.30492 4.44033 0
M  V30 17246 H 778.758 -4.55889 6.76652 0
M  V30 17247 P 774.795 -4.23843 7.83734 0
M  V30 17248 O 774.575 -4.19407 9.29784 0
M  V30 17249 O 774.005 -5.24426 7.09156 0
M  V30 17250 O 774.545 -2.7935 7.20758 0
M  V30 17251 C 775.485 -1.7299 7.50419 0
M  V30 17252 C 774.755 -0.406376 7.57911 0
M  V30 17253 O 774.545 0.0897726 6.21935 0
M  V30 17254 C 773.355 -0.447224 8.1878 0
M  V30 17255 O 772.965 0.825065 8.71101 0
M  V30 17256 C 772.475 -0.783801 6.99623 0
M  V30 17257 C 773.185 -0.0619192 5.85967 0
M  V30 17258 N 773.135 -0.7859 4.56281 0
M  V30 17259 H 775.974 -1.93423 8.4679 0
M  V30 17260 H 776.246 -1.68181 6.71046 0
M  V30 17261 H 775.378 0.289041 8.15388 0
M  V30 17262 P 771.415 1.17771 8.83182 0
M  V30 17263 O 771.195 2.07206 9.98732 0
M  V30 17264 O 770.625 -0.0743816 8.81969 0
M  V30 17265 O 771.165 1.97652 7.47304 0
M  V30 17266 C 772.105 3.01133 7.08783 0
M  V30 17267 C 771.375 4.12613 6.37049 0
M  V30 17268 O 771.165 3.72827 4.97879 0
M  V30 17269 C 769.975 4.45085 6.88694 0
M  V30 17270 O 769.585 5.7877 6.5624 0
M  V30 17271 C 769.095 3.47817 6.12078 0
M  V30 17272 C 769.805 3.39414 4.77697 0
M  V30 17273 N 769.755 2.04615 4.15333 0
M  V30 17274 H 772.594 3.41248 7.98759 0
M  V30 17275 H 772.866 2.5837 6.41742 0
M  V30 17276 H 771.998 5.02657 6.42673 0
M  V30 17277 P 768.035 6.144 6.45285 0
M  V30 17278 O 767.815 7.54673 6.86199 0
M  V30 17279 O 767.245 5.12391 7.179 0
M  V30 17280 O 767.785 5.99158 4.88404 0
M  V30 17281 C 768.725 6.60234 3.96415 0
M  V30 17282 C 767.995 7.08259 2.72856 0
M  V30 17283 O 767.785 5.9427 1.83651 0
M  V30 17284 C 766.595 7.64886 2.9555 0
M  V30 17285 O 766.205 8.53963 1.90717 0
M  V30 17286 C 765.715 6.4116 2.90739 0
M  V30 17287 C 766.425 5.55375 1.86963 0
M  V30 17288 N 766.375 4.09664 2.15742 0
M  V30 17289 H 769.214 7.45574 4.45629 0
M  V30 17290 H 769.486 5.86232 3.67314 0
M  V30 17291 H 768.618 7.84412 2.24479 0
M  V30 17292 P 764.656 8.7635 1.60911 0
M  V30 17293 O 764.436 10.1388 1.11561 0
M  V30 17294 O 763.866 8.36503 2.79617 0
M  V30 17295 O 764.406 7.71806 0.42951 0
M  V30 17296 C 765.346 7.67148 -0.673689 0
M  V30 17297 C 764.616 7.33374 -1.95559 0
M  V30 17298 O 764.406 5.88721 -2.00726 0
M  V30 17299 C 763.216 7.92526 -2.10483 0
M  V30 17300 O 762.826 8.02971 -3.47653 0
M  V30 17301 C 762.336 6.89602 -1.41652 0
M  V30 17302 C 763.046 5.59201 -1.75185 0
M  V30 17303 N 762.996 4.58235 -0.662552 0
M  V30 17304 H 765.835 8.65116 -0.777161 0
M  V30 17305 H 766.107 6.90173 -0.474152 0
M  V30 17306 H 765.239 7.66548 -2.79458 0
M  V30 17307 P 761.276 8.03563 -3.84925 0
M  V30 17308 O 761.056 8.85821 -5.0569 0
M  V30 17309 O 760.486 8.41101 -2.65469 0
M  V30 17310 O 761.026 6.4965 -4.18908 0
M  V30 17311 C 761.966 5.81037 -5.05421 0
M  V30 17312 C 761.236 4.78366 -5.89277 0
M  V30 17313 O 761.026 3.58302 -5.08433 0
M  V30 17314 C 759.836 5.17448 -6.36119 0
M  V30 17315 O 759.446 4.45271 -7.53232 0
M  V30 17316 C 758.956 4.74639 -5.19936 0
M  V30 17317 C 759.666 3.49432 -4.70418 0
M  V30 17318 N 759.616 3.32099 -3.22613 0
M  V30 17319 H 762.455 6.54213 -5.71376 0
M  V30 17320 H 762.727 5.30936 -4.43503 0
M  V30 17321 H 761.859 4.55889 -6.76652 0
M  V30 17322 H 759.204 2.61715 -5.17932 0
M  V30 17323 H 758.924 5.52155 -4.41878 0
M  V30 17324 H 757.933 4.51981 -5.53374 0
M  V30 17325 H 759.767 6.25124 -6.55234 0
M  V30 17326 P 757.896 4.23843 -7.83734 0
M  V30 17327 O 757.676 4.19407 -9.29784 0
M  V30 17328 O 757.106 5.24426 -7.09156 0
M  V30 17329 O 757.646 2.7935 -7.20758 0
M  V30 17330 C 758.586 1.7299 -7.50419 0
M  V30 17331 C 757.856 0.406376 -7.57911 0
M  V30 17332 O 757.646 -0.0897726 -6.21935 0
M  V30 17333 C 756.456 0.447224 -8.1878 0
M  V30 17334 O 756.066 -0.825065 -8.71101 0
M  V30 17335 C 755.576 0.783801 -6.99623 0
M  V30 17336 C 756.286 0.0619192 -5.85967 0
M  V30 17337 N 756.236 0.7859 -4.56281 0
M  V30 17338 H 759.075 1.93423 -8.4679 0
M  V30 17339 H 759.347 1.68181 -6.71046 0
M  V30 17340 H 758.479 -0.289041 -8.15388 0
M  V30 17341 P 754.516 -1.17771 -8.83182 0
M  V30 17342 O 754.296 -2.07206 -9.98732 0
M  V30 17343 O 753.726 0.0743816 -8.81969 0
M  V30 17344 O 754.266 -1.97652 -7.47304 0
M  V30 17345 C 755.206 -3.01133 -7.08783 0
M  V30 17346 C 754.476 -4.12613 -6.37049 0
M  V30 17347 O 754.266 -3.72827 -4.97879 0
M  V30 17348 C 753.076 -4.45085 -6.88694 0
M  V30 17349 O 752.686 -5.7877 -6.5624 0
M  V30 17350 C 752.196 -3.47817 -6.12078 0
M  V30 17351 C 752.906 -3.39414 -4.77697 0
M  V30 17352 N 752.856 -2.04615 -4.15333 0
M  V30 17353 H 755.695 -3.41248 -7.98759 0
M  V30 17354 H 755.967 -2.5837 -6.41742 0
M  V30 17355 H 755.099 -5.02657 -6.42673 0
M  V30 17356 P 751.136 -6.144 -6.45285 0
M  V30 17357 O 750.916 -7.54673 -6.86199 0
M  V30 17358 O 750.346 -5.12391 -7.179 0
M  V30 17359 O 750.886 -5.99158 -4.88404 0
M  V30 17360 C 751.826 -6.60234 -3.96415 0
M  V30 17361 C 751.096 -7.08259 -2.72856 0
M  V30 17362 O 750.886 -5.9427 -1.83651 0
M  V30 17363 C 749.696 -7.64886 -2.9555 0
M  V30 17364 O 749.306 -8.53963 -1.90717 0
M  V30 17365 C 748.816 -6.4116 -2.90739 0
M  V30 17366 C 749.526 -5.55375 -1.86963 0
M  V30 17367 N 749.476 -4.09664 -2.15742 0
M  V30 17368 H 752.315 -7.45574 -4.45629 0
M  V30 17369 H 752.587 -5.86232 -3.67314 0
M  V30 17370 H 751.719 -7.84412 -2.24479 0
M  V30 17371 P 747.756 -8.7635 -1.60911 0
M  V30 17372 O 747.536 -10.1388 -1.11561 0
M  V30 17373 O 746.966 -8.36503 -2.79617 0
M  V30 17374 O 747.506 -7.71806 -0.42951 0
M  V30 17375 C 748.446 -7.67148 0.673689 0
M  V30 17376 C 747.716 -7.33374 1.95559 0
M  V30 17377 O 747.506 -5.88721 2.00726 0
M  V30 17378 C 746.316 -7.92526 2.10483 0
M  V30 17379 O 745.926 -8.02971 3.47653 0
M  V30 17380 C 745.436 -6.89602 1.41652 0
M  V30 17381 C 746.146 -5.59201 1.75185 0
M  V30 17382 N 746.096 -4.58301 0.657969 0
M  V30 17383 C 746.176 -4.79019 -0.692603 0
M  V30 17384 N 746.106 -3.69736 -1.38998 0
M  V30 17385 C 745.956 -2.70474 -0.438135 0
M  V30 17386 C 745.826 -1.30327 -0.538142 0
M  V30 17387 N 745.816 -0.64304 -1.69192 0
M  V30 17388 N 745.706 -0.611027 0.605183 0
M  V30 17389 C 745.716 -1.27002 1.75953 0
M  V30 17390 N 745.836 -2.56038 1.98546 0
M  V30 17391 C 745.956 -3.22681 0.822541 0
M  V30 17392 H 748.935 -8.65116 0.777161 0
M  V30 17393 H 749.207 -6.9022 0.46725 0
M  V30 17394 H 748.339 -7.66548 2.79458 0
M  V30 17395 H 745.684 -5.16165 2.65183 0
M  V30 17396 H 745.404 -7.06433 0.329384 0
M  V30 17397 H 744.413 -6.90926 1.82021 0
M  V30 17398 H 746.247 -8.90873 1.62657 0
M  V30 17399 H 746.288 -5.77785 -1.13874 0
M  V30 17400 H 745.907 -1.15585 -2.57991 0
M  V30 17401 H 745.718 0.382989 -1.69835 0
M  V30 17402 H 745.61 -0.653331 2.64449 0
M  V30 17403 P 744.376 -8.03563 3.84925 0
M  V30 17404 O 744.156 -8.85821 5.0569 0
M  V30 17405 O 743.586 -8.41101 2.65469 0
M  V30 17406 O 744.126 -6.4965 4.18908 0
M  V30 17407 C 745.066 -5.80886 5.05289 0
M  V30 17408 C 744.336 -4.78366 5.89277 0
M  V30 17409 O 744.126 -3.58302 5.08433 0
M  V30 17410 C 742.936 -5.16748 6.36559 0
M  V30 17411 O 742.546 -4.45271 7.53232 0
M  V30 17412 C 742.056 -4.74572 5.19863 0
M  V30 17413 C 742.766 -3.49373 4.70338 0
M  V30 17414 N 742.716 -3.31704 3.22876 0
M  V30 17415 C 742.566 -2.03326 2.74871 0
M  V30 17416 O 742.476 -1.06486 3.48076 0
M  V30 17417 N 742.526 -1.91838 1.37456 0
M  V30 17418 C 742.616 -2.94295 0.462035 0
M  V30 17419 C 742.766 -4.25064 1.05249 0
M  V30 17420 C 742.816 -4.40214 2.39192 0
M  V30 17421 H 745.557 -6.54063 5.71245 0
M  V30 17422 H 745.826 -5.30339 4.43905 0
M  V30 17423 H 744.959 -4.55889 6.76652 0
M  V30 17424 H 742.304 -2.6167 5.17842 0
M  V30 17425 H 742.025 -5.52155 4.41878 0
M  V30 17426 H 741.033 -4.51918 5.53297 0
M  V30 17427 H 742.867 -6.25055 6.55162 0
M  V30 17428 H 742.938 -5.39798 2.81523 0
M  V30 17429 P 740.996 -4.23843 7.83734 0
M  V30 17430 O 740.776 -4.19407 9.29784 0
M  V30 17431 O 740.206 -5.24426 7.09156 0
M  V30 17432 O 740.746 -2.7935 7.20758 0
M  V30 17433 C 741.686 -1.7299 7.50419 0
M  V30 17434 C 740.956 -0.406376 7.57911 0
M  V30 17435 O 740.746 0.0897726 6.21935 0
M  V30 17436 C 739.556 -0.447224 8.1878 0
M  V30 17437 O 739.166 0.825065 8.71101 0
M  V30 17438 C 738.676 -0.783801 6.99623 0
M  V30 17439 C 739.386 -0.0619192 5.85967 0
M  V30 17440 N 739.336 -0.790462 4.56202 0
M  V30 17441 H 742.175 -1.93423 8.4679 0
M  V30 17442 H 742.447 -1.68852 6.70877 0
M  V30 17443 H 741.579 0.289041 8.15388 0
M  V30 17444 H 738.924 0.927006 5.72848 0
M  V30 17445 H 738.644 -1.86973 6.82036 0
M  V30 17446 H 737.653 -0.403953 7.13357 0
M  V30 17447 H 739.487 -1.20599 8.97534 0
M  V30 17448 P 737.616 1.17771 8.83182 0
M  V30 17449 O 737.396 2.07206 9.98732 0
M  V30 17450 O 736.826 -0.0743816 8.81969 0
M  V30 17451 O 737.366 1.97652 7.47304 0
M  V30 17452 C 738.306 3.01133 7.08783 0
M  V30 17453 C 737.576 4.12613 6.37049 0
M  V30 17454 O 737.366 3.72827 4.97879 0
M  V30 17455 C 736.176 4.45085 6.88694 0
M  V30 17456 O 735.786 5.7877 6.5624 0
M  V30 17457 C 735.296 3.47817 6.12078 0
M  V30 17458 C 736.006 3.39414 4.77697 0
M  V30 17459 N 735.956 2.04199 4.15538 0
M  V30 17460 C 736.036 0.821545 4.76977 0
M  V30 17461 N 735.966 -0.1794 3.94592 0
M  V30 17462 C 735.816 0.419121 2.70776 0
M  V30 17463 C 735.686 -0.109072 1.40577 0
M  V30 17464 N 735.676 -1.4104 1.1344 0
M  V30 17465 N 735.566 0.764381 0.39411 0
M  V30 17466 C 735.576 2.06587 0.664135 0
M  V30 17467 N 735.696 2.67948 1.82153 0
M  V30 17468 C 735.816 1.77942 2.8147 0
M  V30 17469 H 738.795 3.41248 7.98759 0
M  V30 17470 H 739.067 2.57728 6.42 0
M  V30 17471 H 738.199 5.02657 6.42673 0
M  V30 17472 H 735.544 4.11708 4.08956 0
M  V30 17473 H 735.264 2.49626 6.61679 0
M  V30 17474 H 734.273 3.8662 6.00862 0
M  V30 17475 H 736.107 4.29991 7.97006 0
M  V30 17476 H 736.148 0.702451 5.84696 0
M  V30 17477 H 735.767 -2.09647 1.89651 0
M  V30 17478 H 735.578 -1.73358 0.160575 0
M  V30 17479 H 735.47 2.71695 -0.195838 0
M  V30 17480 P 734.236 6.144 6.45285 0
M  V30 17481 O 734.016 7.54673 6.86199 0
M  V30 17482 O 733.446 5.12391 7.179 0
M  V30 17483 O 733.986 5.99158 4.88404 0
M  V30 17484 C 734.926 6.60234 3.96415 0
M  V30 17485 C 734.196 7.08259 2.72856 0
M  V30 17486 O 733.986 5.9427 1.83651 0
M  V30 17487 C 732.796 7.64886 2.9555 0
M  V30 17488 O 732.406 8.53963 1.90717 0
M  V30 17489 C 731.916 6.4116 2.90739 0
M  V30 17490 C 732.626 5.55375 1.86963 0
M  V30 17491 N 732.576 4.09664 2.15742 0
M  V30 17492 H 735.415 7.45574 4.45629 0
M  V30 17493 H 735.687 5.86232 3.67314 0
M  V30 17494 H 734.819 7.84412 2.24479 0
M  V30 17495 P 730.856 8.7635 1.60911 0
M  V30 17496 O 730.636 10.1388 1.11561 0
M  V30 17497 O 730.066 8.36503 2.79617 0
M  V30 17498 O 730.606 7.71806 0.42951 0
M  V30 17499 C 731.546 7.67148 -0.673689 0
M  V30 17500 C 730.816 7.33374 -1.95559 0
M  V30 17501 O 730.606 5.88721 -2.00726 0
M  V30 17502 C 729.416 7.92526 -2.10483 0
M  V30 17503 O 729.026 8.02971 -3.47653 0
M  V30 17504 C 728.536 6.89602 -1.41652 0
M  V30 17505 C 729.246 5.59201 -1.75185 0
M  V30 17506 N 729.196 4.58235 -0.662552 0
M  V30 17507 C 729.276 4.7683 0.704049 0
M  V30 17508 N 729.196 3.66233 1.39775 0
M  V30 17509 C 729.056 2.66526 0.431739 0
M  V30 17510 C 728.926 1.26394 0.575992 0
M  V30 17511 N 728.806 0.62859 -0.67177 0
M  V30 17512 C 728.806 1.27134 -1.89385 0
M  V30 17513 N 728.676 0.492035 -2.96951 0
M  V30 17514 N 728.936 2.58978 -2.02907 0
M  V30 17515 C 729.056 3.22433 -0.832218 0
M  V30 17516 H 732.035 8.65116 -0.777161 0
M  V30 17517 H 732.307 6.90173 -0.474152 0
M  V30 17518 H 731.439 7.66548 -2.79458 0
M  V30 17519 P 727.476 8.03563 -3.84925 0
M  V30 17520 O 727.256 8.85821 -5.0569 0
M  V30 17521 O 726.686 8.41101 -2.65469 0
M  V30 17522 O 727.226 6.4965 -4.18908 0
M  V30 17523 C 728.166 5.81037 -5.05421 0
M  V30 17524 C 727.436 4.78366 -5.89277 0
M  V30 17525 O 727.226 3.58302 -5.08433 0
M  V30 17526 C 726.036 5.17448 -6.36119 0
M  V30 17527 O 725.646 4.45271 -7.53232 0
M  V30 17528 C 725.156 4.74639 -5.19936 0
M  V30 17529 C 725.866 3.49432 -4.70418 0
M  V30 17530 N 725.816 3.31776 -3.22945 0
M  V30 17531 H 728.655 6.54213 -5.71376 0
M  V30 17532 H 728.927 5.30492 -4.44033 0
M  V30 17533 H 728.059 4.55889 -6.76652 0
M  V30 17534 P 724.096 4.23843 -7.83734 0
M  V30 17535 O 723.876 4.19407 -9.29784 0
M  V30 17536 O 723.306 5.24426 -7.09156 0
M  V30 17537 O 723.846 2.79386 -7.20852 0
M  V30 17538 C 724.786 1.7299 -7.50419 0
M  V30 17539 C 724.056 0.41401 -7.5797 0
M  V30 17540 O 723.846 -0.089787 -6.22035 0
M  V30 17541 C 722.656 0.447224 -8.1878 0
M  V30 17542 O 722.266 -0.825159 -8.71201 0
M  V30 17543 C 721.776 0.783801 -6.99623 0
M  V30 17544 C 722.486 0.0619192 -5.85967 0
M  V30 17545 N 722.436 0.7859 -4.56281 0
M  V30 17546 C 722.286 0.0359258 -3.39981 0
M  V30 17547 O 722.196 -1.19723 -3.49038 0
M  V30 17548 N 722.236 0.869151 -2.14025 0
M  V30 17549 C 722.336 2.01207 -2.14363 0
M  V30 17550 N 722.286 2.58978 -0.954287 0
M  V30 17551 C 722.486 2.80817 -3.32215 0
M  V30 17552 C 722.536 2.13785 -4.50884 0
M  V30 17553 H 725.276 1.93401 -8.46693 0
M  V30 17554 H 725.546 1.68181 -6.71046 0
M  V30 17555 H 724.679 -0.289076 -8.15488 0
M  V30 17556 H 722.024 -0.927166 -5.72947 0
M  V30 17557 H 721.744 1.87 -6.82132 0
M  V30 17558 H 720.753 0.404009 -7.13457 0
M  V30 17559 H 722.587 1.20599 -8.97534 0
M  V30 17560 H 722.659 2.70295 -5.43162 0
M  V30 17561 H 722.557 3.89465 -3.27406 0
M  V30 17562 H 722.169 2.01616 -0.107046 0
M  V30 17563 H 722.365 3.61403 -0.873101 0
M  V30 17564 P 720.716 -1.17771 -8.83182 0
M  V30 17565 O 720.496 -2.07206 -9.98732 0
M  V30 17566 O 719.926 0.0743816 -8.81969 0
M  V30 17567 O 720.466 -1.97678 -7.474 0
M  V30 17568 C 721.406 -3.01133 -7.08783 0
M  V30 17569 C 720.676 -4.1203 -6.37546 0
M  V30 17570 O 720.466 -3.72887 -4.9796 0
M  V30 17571 C 719.276 -4.45085 -6.88694 0
M  V30 17572 O 718.886 -5.78836 -6.56315 0
M  V30 17573 C 718.396 -3.47817 -6.12078 0
M  V30 17574 C 719.106 -3.39414 -4.77697 0
M  V30 17575 N 719.056 -2.04615 -4.15333 0
M  V30 17576 C 718.906 -1.96929 -2.77162 0
M  V30 17577 O 718.816 -3.02017 -2.12006 0
M  V30 17578 N 718.856 -0.55485 -2.24237 0
M  V30 17579 C 718.956 0.367808 -2.9169 0
M  V30 17580 N 718.906 1.53426 -2.29427 0
M  V30 17581 C 719.106 0.319148 -4.33828 0
M  V30 17582 C 719.156 -0.920672 -4.90433 0
M  V30 17583 H 721.896 -3.41209 -7.98667 0
M  V30 17584 H 722.166 -2.5837 -6.41742 0
M  V30 17585 H 721.299 -5.02718 -6.42752 0
M  V30 17586 H 718.644 -4.11779 -4.09026 0
M  V30 17587 H 718.364 -2.49661 -6.61772 0
M  V30 17588 H 717.373 -3.86674 -6.00946 0
M  V30 17589 H 719.207 -4.29991 -7.97006 0
M  V30 17590 H 719.279 -1.00589 -5.98303 0
M  V30 17591 H 719.177 1.22639 -4.93799 0
M  V30 17592 H 718.789 1.56819 -1.27167 0
M  V30 17593 H 718.985 2.41062 -2.83063 0
M  V30 17594 P 717.336 -6.144 -6.45285 0
M  V30 17595 O 717.116 -7.54673 -6.86199 0
M  V30 17596 O 716.546 -5.12391 -7.179 0
M  V30 17597 O 717.086 -5.99158 -4.88404 0
M  V30 17598 C 718.026 -6.60234 -3.96415 0
M  V30 17599 C 717.296 -7.08259 -2.72856 0
M  V30 17600 O 717.086 -5.9427 -1.83651 0
M  V30 17601 C 715.896 -7.64886 -2.9555 0
M  V30 17602 O 715.506 -8.53963 -1.90717 0
M  V30 17603 C 715.016 -6.4116 -2.90739 0
M  V30 17604 C 715.726 -5.55375 -1.86963 0
M  V30 17605 N 715.676 -4.09448 -2.16152 0
M  V30 17606 H 718.515 -7.45574 -4.45629 0
M  V30 17607 H 718.787 -5.85864 -3.679 0
M  V30 17608 H 717.919 -7.84412 -2.24479 0
M  V30 17609 H 715.264 -5.73457 -0.888562 0
M  V30 17610 H 714.984 -5.90877 -3.88583 0
M  V30 17611 H 713.993 -6.6596 -2.58858 0
M  V30 17612 H 715.827 -8.16339 -3.92049 0
M  V30 17613 P 713.956 -8.7635 -1.60911 0
M  V30 17614 O 713.736 -10.1388 -1.11561 0
M  V30 17615 O 713.166 -8.36503 -2.79617 0
M  V30 17616 O 713.706 -7.71806 -0.42951 0
M  V30 17617 C 714.646 -7.67148 0.673689 0
M  V30 17618 C 713.916 -7.33374 1.95559 0
M  V30 17619 O 713.706 -5.88721 2.00726 0
M  V30 17620 C 712.516 -7.92526 2.10483 0
M  V30 17621 O 712.126 -8.02971 3.47653 0
M  V30 17622 C 711.636 -6.89602 1.41652 0
M  V30 17623 C 712.346 -5.59201 1.75185 0
M  V30 17624 N 712.296 -4.58301 0.657969 0
M  V30 17625 H 715.135 -8.65116 0.777161 0
M  V30 17626 H 715.407 -6.9022 0.46725 0
M  V30 17627 H 714.539 -7.66548 2.79458 0
M  V30 17628 H 711.884 -5.16165 2.65183 0
M  V30 17629 H 711.604 -7.06433 0.329384 0
M  V30 17630 H 710.613 -6.90926 1.82021 0
M  V30 17631 H 712.447 -8.90873 1.62657 0
M  V30 17632 P 710.576 -8.03563 3.84925 0
M  V30 17633 O 710.356 -8.85821 5.0569 0
M  V30 17634 O 709.786 -8.41101 2.65469 0
M  V30 17635 O 710.326 -6.4965 4.18908 0
M  V30 17636 C 711.266 -5.81037 5.05421 0
M  V30 17637 C 710.536 -4.78366 5.89277 0
M  V30 17638 O 710.326 -3.58302 5.08433 0
M  V30 17639 C 709.136 -5.17448 6.36119 0
M  V30 17640 O 708.746 -4.45271 7.53232 0
M  V30 17641 C 708.256 -4.74639 5.19936 0
M  V30 17642 C 708.966 -3.49432 4.70418 0
M  V30 17643 N 708.916 -3.31776 3.22945 0
M  V30 17644 H 711.755 -6.54213 5.71376 0
M  V30 17645 H 712.027 -5.30492 4.44033 0
M  V30 17646 H 711.159 -4.55889 6.76652 0
M  V30 17647 P 707.196 -4.23843 7.83734 0
M  V30 17648 O 706.976 -4.19407 9.29784 0
M  V30 17649 O 706.406 -5.24426 7.09156 0
M  V30 17650 O 706.946 -2.7935 7.20758 0
M  V30 17651 C 707.886 -1.7299 7.50419 0
M  V30 17652 C 707.156 -0.406376 7.57911 0
M  V30 17653 O 706.946 0.0897726 6.21935 0
M  V30 17654 C 705.756 -0.447224 8.1878 0
M  V30 17655 O 705.366 0.825065 8.71101 0
M  V30 17656 C 704.876 -0.783801 6.99623 0
M  V30 17657 C 705.586 -0.0619192 5.85967 0
M  V30 17658 N 705.536 -0.790462 4.56202 0
M  V30 17659 H 708.375 -1.93423 8.4679 0
M  V30 17660 H 708.647 -1.68852 6.70877 0
M  V30 17661 H 707.779 0.289041 8.15388 0
M  V30 17662 H 705.124 0.927006 5.72848 0
M  V30 17663 H 704.844 -1.86973 6.82036 0
M  V30 17664 H 703.853 -0.403953 7.13357 0
M  V30 17665 H 705.687 -1.20599 8.97534 0
M  V30 17666 P 703.816 1.17771 8.83182 0
M  V30 17667 O 703.596 2.07206 9.98732 0
M  V30 17668 O 703.026 -0.0743816 8.81969 0
M  V30 17669 O 703.566 1.97652 7.47304 0
M  V30 17670 C 704.506 3.01055 7.08599 0
M  V30 17671 C 703.776 4.12613 6.37049 0
M  V30 17672 O 703.566 3.72827 4.97879 0
M  V30 17673 C 702.376 4.45719 6.88164 0
M  V30 17674 O 701.986 5.7877 6.5624 0
M  V30 17675 C 701.496 3.47768 6.11991 0
M  V30 17676 C 702.206 3.39356 4.77615 0
M  V30 17677 N 702.156 2.04571 4.15244 0
M  V30 17678 C 702.006 1.98587 2.78314 0
M  V30 17679 O 701.916 2.98134 2.08835 0
M  V30 17680 N 701.966 0.714467 2.24925 0
M  V30 17681 C 702.056 -0.470001 2.94169 0
M  V30 17682 C 702.206 -0.312541 4.36783 0
M  V30 17683 C 702.256 0.914512 4.92583 0
M  V30 17684 H 704.997 3.41169 7.98575 0
M  V30 17685 H 705.266 2.58295 6.41556 0
M  V30 17686 H 704.399 5.02657 6.42673 0
M  V30 17687 H 701.744 4.11637 4.08885 0
M  V30 17688 H 701.465 2.49626 6.61679 0
M  V30 17689 H 700.473 3.86566 6.00778 0
M  V30 17690 H 702.307 4.29943 7.96918 0
M  V30 17691 H 702.378 1.00937 6.00374 0
M  V30 17692 P 700.436 6.144 6.45285 0
M  V30 17693 O 700.216 7.54673 6.86199 0
M  V30 17694 O 699.646 5.12391 7.179 0
M  V30 17695 O 700.186 5.99158 4.88404 0
M  V30 17696 C 701.126 6.60234 3.96415 0
M  V30 17697 C 700.396 7.08259 2.72856 0
M  V30 17698 O 700.186 5.9427 1.83651 0
M  V30 17699 C 698.996 7.64886 2.9555 0
M  V30 17700 O 698.606 8.53963 1.90717 0
M  V30 17701 C 698.116 6.4116 2.90739 0
M  V30 17702 C 698.826 5.55375 1.86963 0
M  V30 17703 N 698.776 4.09664 2.15742 0
M  V30 17704 H 701.615 7.45574 4.45629 0
M  V30 17705 H 701.887 5.86232 3.67314 0
M  V30 17706 H 701.019 7.84412 2.24479 0
M  V30 17707 P 697.056 8.7635 1.60911 0
M  V30 17708 O 696.836 10.1388 1.11561 0
M  V30 17709 O 696.266 8.36503 2.79617 0
M  V30 17710 O 696.806 7.71806 0.42951 0
M  V30 17711 C 697.746 7.67148 -0.673689 0
M  V30 17712 C 697.016 7.33374 -1.95559 0
M  V30 17713 O 696.806 5.88721 -2.00726 0
M  V30 17714 C 695.616 7.92526 -2.10483 0
M  V30 17715 O 695.226 8.02971 -3.47653 0
M  V30 17716 C 694.736 6.89602 -1.41652 0
M  V30 17717 C 695.446 5.59201 -1.75185 0
M  V30 17718 N 695.396 4.58301 -0.657969 0
M  V30 17719 H 698.235 8.65116 -0.777161 0
M  V30 17720 H 698.507 6.9022 -0.46725 0
M  V30 17721 H 697.639 7.66548 -2.79458 0
M  V30 17722 H 694.984 5.16165 -2.65183 0
M  V30 17723 H 694.704 7.06433 -0.329384 0
M  V30 17724 H 693.713 6.90926 -1.82021 0
M  V30 17725 H 695.547 8.90873 -1.62657 0
M  V30 17726 P 693.676 8.03563 -3.84925 0
M  V30 17727 O 693.456 8.85821 -5.0569 0
M  V30 17728 O 692.886 8.41101 -2.65469 0
M  V30 17729 O 693.426 6.4965 -4.18908 0
M  V30 17730 C 694.366 5.81037 -5.05421 0
M  V30 17731 C 693.636 4.78366 -5.89277 0
M  V30 17732 O 693.426 3.58302 -5.08433 0
M  V30 17733 C 692.236 5.17448 -6.36119 0
M  V30 17734 O 691.846 4.45271 -7.53232 0
M  V30 17735 C 691.356 4.74639 -5.19936 0
M  V30 17736 C 692.066 3.49432 -4.70418 0
M  V30 17737 N 692.016 3.31776 -3.22945 0
M  V30 17738 C 692.096 4.27147 -2.23315 0
M  V30 17739 N 692.016 3.78447 -1.02186 0
M  V30 17740 C 691.876 2.41001 -1.21732 0
M  V30 17741 C 691.746 1.36111 -0.27694 0
M  V30 17742 N 691.626 0.113683 -0.912949 0
M  V30 17743 C 691.626 -0.0846396 -2.27943 0
M  V30 17744 N 691.496 -1.34737 -2.6916 0
M  V30 17745 N 691.756 0.902521 -3.16379 0
M  V30 17746 C 691.876 2.11937 -2.56849 0
M  V30 17747 H 694.855 6.54213 -5.71376 0
M  V30 17748 H 695.127 5.30492 -4.44033 0
M  V30 17749 H 694.259 4.55889 -6.76652 0
M  V30 17750 P 690.296 4.23843 -7.83734 0
M  V30 17751 O 690.076 4.19407 -9.29784 0
M  V30 17752 O 689.506 5.24426 -7.09156 0
M  V30 17753 O 690.046 2.7935 -7.20758 0
M  V30 17754 C 690.986 1.7299 -7.50419 0
M  V30 17755 C 690.256 0.406376 -7.57911 0
M  V30 17756 O 690.046 -0.0897726 -6.21935 0
M  V30 17757 C 688.856 0.447224 -8.1878 0
M  V30 17758 O 688.466 -0.825065 -8.71101 0
M  V30 17759 C 687.976 0.783801 -6.99623 0
M  V30 17760 C 688.686 0.0619192 -5.85967 0
M  V30 17761 N 688.636 0.7859 -4.56281 0
M  V30 17762 H 691.475 1.93423 -8.4679 0
M  V30 17763 H 691.747 1.68181 -6.71046 0
M  V30 17764 H 690.879 -0.289041 -8.15388 0
M  V30 17765 P 686.916 -1.17771 -8.83182 0
M  V30 17766 O 686.696 -2.07206 -9.98732 0
M  V30 17767 O 686.126 0.0743816 -8.81969 0
M  V30 17768 O 686.666 -1.97652 -7.47304 0
M  V30 17769 C 687.606 -3.01133 -7.08783 0
M  V30 17770 C 686.876 -4.12613 -6.37049 0
M  V30 17771 O 686.666 -3.72827 -4.97879 0
M  V30 17772 C 685.476 -4.45085 -6.88694 0
M  V30 17773 O 685.086 -5.7877 -6.5624 0
M  V30 17774 C 684.596 -3.47817 -6.12078 0
M  V30 17775 C 685.306 -3.39414 -4.77697 0
M  V30 17776 N 685.256 -2.04199 -4.15538 0
M  V30 17777 H 688.095 -3.41248 -7.98759 0
M  V30 17778 H 688.367 -2.57728 -6.42 0
M  V30 17779 H 687.499 -5.02657 -6.42673 0
M  V30 17780 H 684.844 -4.11708 -4.08956 0
M  V30 17781 H 684.564 -2.49626 -6.61679 0
M  V30 17782 H 683.573 -3.8662 -6.00862 0
M  V30 17783 H 685.407 -4.29991 -7.97006 0
M  V30 17784 P 683.536 -6.144 -6.45285 0
M  V30 17785 O 683.316 -7.54673 -6.86199 0
M  V30 17786 O 682.746 -5.12391 -7.179 0
M  V30 17787 O 683.286 -5.99158 -4.88404 0
M  V30 17788 C 684.226 -6.60234 -3.96415 0
M  V30 17789 C 683.496 -7.08259 -2.72856 0
M  V30 17790 O 683.286 -5.9427 -1.83651 0
M  V30 17791 C 682.096 -7.64886 -2.9555 0
M  V30 17792 O 681.706 -8.53963 -1.90717 0
M  V30 17793 C 681.216 -6.4116 -2.90739 0
M  V30 17794 C 681.926 -5.55375 -1.86963 0
M  V30 17795 N 681.876 -4.09664 -2.15742 0
M  V30 17796 H 684.715 -7.45574 -4.45629 0
M  V30 17797 H 684.987 -5.86232 -3.67314 0
M  V30 17798 H 684.119 -7.84412 -2.24479 0
M  V30 17799 P 680.156 -8.7635 -1.60911 0
M  V30 17800 O 679.936 -10.1388 -1.11561 0
M  V30 17801 O 679.366 -8.36503 -2.79617 0
M  V30 17802 O 679.906 -7.71806 -0.42951 0
M  V30 17803 C 680.846 -7.67148 0.673689 0
M  V30 17804 C 680.116 -7.33374 1.95559 0
M  V30 17805 O 679.906 -5.88721 2.00726 0
M  V30 17806 C 678.716 -7.92526 2.10483 0
M  V30 17807 O 678.326 -8.02971 3.47653 0
M  V30 17808 C 677.836 -6.89602 1.41652 0
M  V30 17809 C 678.546 -5.59201 1.75185 0
M  V30 17810 N 678.496 -4.58235 0.662552 0
M  V30 17811 H 681.335 -8.65116 0.777161 0
M  V30 17812 H 681.607 -6.90173 0.474152 0
M  V30 17813 H 680.739 -7.66548 2.79458 0
M  V30 17814 P 676.776 -8.03563 3.84925 0
M  V30 17815 O 676.556 -8.85821 5.0569 0
M  V30 17816 O 675.986 -8.41101 2.65469 0
M  V30 17817 O 676.526 -6.4965 4.18908 0
M  V30 17818 C 677.466 -5.81037 5.05421 0
M  V30 17819 C 676.736 -4.78366 5.89277 0
M  V30 17820 O 676.526 -3.58302 5.08433 0
M  V30 17821 C 675.336 -5.17448 6.36119 0
M  V30 17822 O 674.946 -4.45271 7.53232 0
M  V30 17823 C 674.456 -4.74639 5.19936 0
M  V30 17824 C 675.166 -3.49432 4.70418 0
M  V30 17825 N 675.116 -3.31776 3.22945 0
M  V30 17826 H 677.955 -6.54213 5.71376 0
M  V30 17827 H 678.227 -5.30492 4.44033 0
M  V30 17828 H 677.359 -4.55889 6.76652 0
M  V30 17829 P 673.396 -4.23843 7.83734 0
M  V30 17830 O 673.176 -4.19407 9.29784 0
M  V30 17831 O 672.606 -5.24426 7.09156 0
M  V30 17832 O 673.146 -2.79386 7.20852 0
M  V30 17833 C 674.086 -1.7299 7.50419 0
M  V30 17834 C 673.356 -0.41401 7.5797 0
M  V30 17835 O 673.146 0.089787 6.22035 0
M  V30 17836 C 671.956 -0.447224 8.1878 0
M  V30 17837 O 671.566 0.825159 8.71201 0
M  V30 17838 C 671.076 -0.783801 6.99623 0
M  V30 17839 C 671.786 -0.0619192 5.85967 0
M  V30 17840 N 671.736 -0.7859 4.56281 0
M  V30 17841 C 671.586 -0.0359258 3.39981 0
M  V30 17842 O 671.496 1.19723 3.49038 0
M  V30 17843 N 671.536 -0.869151 2.14025 0
M  V30 17844 C 671.636 -2.01207 2.14363 0
M  V30 17845 N 671.586 -2.58978 0.954287 0
M  V30 17846 C 671.786 -2.80817 3.32215 0
M  V30 17847 C 671.836 -2.13785 4.50884 0
M  V30 17848 H 674.576 -1.93401 8.46693 0
M  V30 17849 H 674.846 -1.68181 6.71046 0
M  V30 17850 H 673.979 0.289076 8.15488 0
M  V30 17851 H 671.324 0.927166 5.72947 0
M  V30 17852 H 671.044 -1.87 6.82132 0
M  V30 17853 H 670.053 -0.404009 7.13457 0
M  V30 17854 H 671.887 -1.20599 8.97534 0
M  V30 17855 H 671.959 -2.70295 5.43162 0
M  V30 17856 H 671.857 -3.89465 3.27406 0
M  V30 17857 H 671.469 -2.01616 0.107046 0
M  V30 17858 H 671.665 -3.61403 0.873101 0
M  V30 17859 P 670.016 1.17771 8.83182 0
M  V30 17860 O 669.796 2.07206 9.98732 0
M  V30 17861 O 669.226 -0.0743816 8.81969 0
M  V30 17862 O 669.766 1.97652 7.47304 0
M  V30 17863 C 670.706 3.01133 7.08783 0
M  V30 17864 C 669.976 4.12613 6.37049 0
M  V30 17865 O 669.766 3.72827 4.97879 0
M  V30 17866 C 668.576 4.45085 6.88694 0
M  V30 17867 O 668.186 5.7877 6.5624 0
M  V30 17868 C 667.696 3.47817 6.12078 0
M  V30 17869 C 668.406 3.39414 4.77697 0
M  V30 17870 N 668.356 2.04199 4.15538 0
M  V30 17871 H 671.195 3.41248 7.98759 0
M  V30 17872 H 671.467 2.57728 6.42 0
M  V30 17873 H 670.599 5.02657 6.42673 0
M  V30 17874 H 667.944 4.11708 4.08956 0
M  V30 17875 H 667.664 2.49626 6.61679 0
M  V30 17876 H 666.673 3.8662 6.00862 0
M  V30 17877 H 668.507 4.29991 7.97006 0
M  V30 17878 P 666.636 6.144 6.45285 0
M  V30 17879 O 666.416 7.54673 6.86199 0
M  V30 17880 O 665.846 5.12391 7.179 0
M  V30 17881 O 666.386 5.99158 4.88404 0
M  V30 17882 C 667.326 6.60062 3.96313 0
M  V30 17883 C 666.596 7.08259 2.72856 0
M  V30 17884 O 666.386 5.9427 1.83651 0
M  V30 17885 C 665.196 7.65087 2.94749 0
M  V30 17886 O 664.806 8.53963 1.90717 0
M  V30 17887 C 664.316 6.41069 2.90698 0
M  V30 17888 C 665.026 5.5528 1.86931 0
M  V30 17889 N 664.976 4.09575 2.15696 0
M  V30 17890 C 664.826 3.24249 1.08435 0
M  V30 17891 O 664.736 3.63946 -0.0628747 0
M  V30 17892 N 664.786 1.90009 1.39973 0
M  V30 17893 C 664.876 1.34884 2.65614 0
M  V30 17894 O 664.826 0.123716 2.81728 0
M  V30 17895 C 665.026 2.3145 3.71736 0
M  V30 17896 C 665.136 1.75913 5.10438 0
M  V30 17897 C 665.076 3.63518 3.44754 0
M  V30 17898 H 667.817 7.45402 4.45526 0
M  V30 17899 H 668.086 5.86062 3.67208 0
M  V30 17900 H 667.219 7.84412 2.24479 0
M  V30 17901 H 664.564 5.73358 0.888409 0
M  V30 17902 H 664.285 5.90877 3.88583 0
M  V30 17903 H 663.293 6.65867 2.58821 0
M  V30 17904 H 665.127 8.16248 3.92006 0
M  V30 17905 H 665.198 4.34551 4.26383 0
M  V30 17906 H 664.168 1.85471 5.61775 0
M  V30 17907 H 665.905 2.31364 5.66257 0
M  V30 17908 H 665.417 0.695936 5.05229 0
M  V30 17909 H 664.681 1.26277 0.63625 0
M  V30 17910 P 663.256 8.7635 1.60911 0
M  V30 17911 O 663.036 10.1388 1.11561 0
M  V30 17912 O 662.466 8.36503 2.79617 0
M  V30 17913 O 663.006 7.71806 0.42951 0
M  V30 17914 C 663.946 7.67148 -0.673689 0
M  V30 17915 C 663.216 7.33374 -1.95559 0
M  V30 17916 O 663.006 5.88721 -2.00726 0
M  V30 17917 C 661.816 7.92526 -2.10483 0
M  V30 17918 O 661.426 8.02971 -3.47653 0
M  V30 17919 C 660.936 6.89602 -1.41652 0
M  V30 17920 C 661.646 5.59201 -1.75185 0
M  V30 17921 N 661.596 4.58235 -0.662552 0
M  V30 17922 H 664.435 8.65116 -0.777161 0
M  V30 17923 H 664.707 6.90173 -0.474152 0
M  V30 17924 H 663.839 7.66548 -2.79458 0
M  V30 17925 P 659.876 8.03563 -3.84925 0
M  V30 17926 O 659.656 8.85821 -5.0569 0
M  V30 17927 O 659.086 8.41101 -2.65469 0
M  V30 17928 O 659.626 6.4965 -4.18908 0
M  V30 17929 C 660.566 5.81037 -5.05421 0
M  V30 17930 C 659.836 4.78366 -5.89277 0
M  V30 17931 O 659.626 3.58302 -5.08433 0
M  V30 17932 C 658.436 5.17448 -6.36119 0
M  V30 17933 O 658.046 4.45271 -7.53232 0
M  V30 17934 C 657.556 4.74639 -5.19936 0
M  V30 17935 C 658.266 3.49432 -4.70418 0
M  V30 17936 N 658.216 3.32099 -3.22613 0
M  V30 17937 H 661.055 6.54213 -5.71376 0
M  V30 17938 H 661.327 5.30936 -4.43503 0
M  V30 17939 H 660.459 4.55889 -6.76652 0
M  V30 17940 H 657.804 2.61715 -5.17932 0
M  V30 17941 H 657.524 5.52155 -4.41878 0
M  V30 17942 H 656.533 4.51981 -5.53374 0
M  V30 17943 H 658.367 6.25124 -6.55234 0
M  V30 17944 P 656.496 4.23843 -7.83734 0
M  V30 17945 O 656.276 4.19407 -9.29784 0
M  V30 17946 O 655.706 5.24426 -7.09156 0
M  V30 17947 O 656.246 2.7935 -7.20758 0
M  V30 17948 C 657.186 1.7299 -7.50419 0
M  V30 17949 C 656.456 0.406376 -7.57911 0
M  V30 17950 O 656.246 -0.0897726 -6.21935 0
M  V30 17951 C 655.056 0.447224 -8.1878 0
M  V30 17952 O 654.666 -0.825065 -8.71101 0
M  V30 17953 C 654.176 0.783801 -6.99623 0
M  V30 17954 C 654.886 0.0619192 -5.85967 0
M  V30 17955 N 654.836 0.7859 -4.56281 0
M  V30 17956 H 657.675 1.93423 -8.4679 0
M  V30 17957 H 657.947 1.68181 -6.71046 0
M  V30 17958 H 657.079 -0.289041 -8.15388 0
M  V30 17959 P 653.116 -1.17771 -8.83182 0
M  V30 17960 O 652.896 -2.07206 -9.98732 0
M  V30 17961 O 652.326 0.0743816 -8.81969 0
M  V30 17962 O 652.866 -1.97652 -7.47304 0
M  V30 17963 C 653.806 -3.01133 -7.08783 0
M  V30 17964 C 653.076 -4.12613 -6.37049 0
M  V30 17965 O 652.866 -3.72827 -4.97879 0
M  V30 17966 C 651.676 -4.45085 -6.88694 0
M  V30 17967 O 651.286 -5.7877 -6.5624 0
M  V30 17968 C 650.796 -3.47817 -6.12078 0
M  V30 17969 C 651.506 -3.39414 -4.77697 0
M  V30 17970 N 651.456 -2.04199 -4.15538 0
M  V30 17971 H 654.295 -3.41248 -7.98759 0
M  V30 17972 H 654.567 -2.57728 -6.42 0
M  V30 17973 H 653.699 -5.02657 -6.42673 0
M  V30 17974 H 651.044 -4.11708 -4.08956 0
M  V30 17975 H 650.764 -2.49626 -6.61679 0
M  V30 17976 H 649.773 -3.8662 -6.00862 0
M  V30 17977 H 651.607 -4.29991 -7.97006 0
M  V30 17978 P 649.736 -6.144 -6.45285 0
M  V30 17979 O 649.516 -7.54673 -6.86199 0
M  V30 17980 O 648.946 -5.12391 -7.179 0
M  V30 17981 O 649.486 -5.99158 -4.88404 0
M  V30 17982 C 650.426 -6.60234 -3.96415 0
M  V30 17983 C 649.696 -7.08259 -2.72856 0
M  V30 17984 O 649.486 -5.9427 -1.83651 0
M  V30 17985 C 648.296 -7.64886 -2.9555 0
M  V30 17986 O 647.906 -8.53963 -1.90717 0
M  V30 17987 C 647.416 -6.4116 -2.90739 0
M  V30 17988 C 648.126 -5.55375 -1.86963 0
M  V30 17989 N 648.076 -4.09448 -2.16152 0
M  V30 17990 H 650.915 -7.45574 -4.45629 0
M  V30 17991 H 651.187 -5.85864 -3.679 0
M  V30 17992 H 650.319 -7.84412 -2.24479 0
M  V30 17993 H 647.664 -5.73457 -0.888562 0
M  V30 17994 H 647.384 -5.90877 -3.88583 0
M  V30 17995 H 646.393 -6.6596 -2.58858 0
M  V30 17996 H 648.227 -8.16339 -3.92049 0
M  V30 17997 P 646.356 -8.7635 -1.60911 0
M  V30 17998 O 646.136 -10.1388 -1.11561 0
M  V30 17999 O 645.566 -8.36503 -2.79617 0
M  V30 18000 O 646.106 -7.71806 -0.42951 0
M  V30 18001 C 647.046 -7.67148 0.673689 0
M  V30 18002 C 646.316 -7.33374 1.95559 0
M  V30 18003 O 646.106 -5.88721 2.00726 0
M  V30 18004 C 644.916 -7.92526 2.10483 0
M  V30 18005 O 644.526 -8.02971 3.47653 0
M  V30 18006 C 644.036 -6.89602 1.41652 0
M  V30 18007 C 644.746 -5.59201 1.75185 0
M  V30 18008 N 644.696 -4.58235 0.662552 0
M  V30 18009 H 647.535 -8.65116 0.777161 0
M  V30 18010 H 647.807 -6.90173 0.474152 0
M  V30 18011 H 646.939 -7.66548 2.79458 0
M  V30 18012 P 642.976 -8.03563 3.84925 0
M  V30 18013 O 642.756 -8.85821 5.0569 0
M  V30 18014 O 642.186 -8.41101 2.65469 0
M  V30 18015 O 642.726 -6.4965 4.18908 0
M  V30 18016 C 643.666 -5.81037 5.05421 0
M  V30 18017 C 642.936 -4.78366 5.89277 0
M  V30 18018 O 642.726 -3.58302 5.08433 0
M  V30 18019 C 641.536 -5.17448 6.36119 0
M  V30 18020 O 641.146 -4.45271 7.53232 0
M  V30 18021 C 640.656 -4.74639 5.19936 0
M  V30 18022 C 641.366 -3.49432 4.70418 0
M  V30 18023 N 641.316 -3.32099 3.22613 0
M  V30 18024 H 644.155 -6.54213 5.71376 0
M  V30 18025 H 644.427 -5.30936 4.43503 0
M  V30 18026 H 643.559 -4.55889 6.76652 0
M  V30 18027 H 640.904 -2.61715 5.17932 0
M  V30 18028 H 640.624 -5.52155 4.41878 0
M  V30 18029 H 639.633 -4.51981 5.53374 0
M  V30 18030 H 641.467 -6.25124 6.55234 0
M  V30 18031 P 639.596 -4.23843 7.83734 0
M  V30 18032 O 639.376 -4.19407 9.29784 0
M  V30 18033 O 638.806 -5.24426 7.09156 0
M  V30 18034 O 639.346 -2.7935 7.20758 0
M  V30 18035 C 640.286 -1.7299 7.50419 0
M  V30 18036 C 639.556 -0.406376 7.57911 0
M  V30 18037 O 639.346 0.0897726 6.21935 0
M  V30 18038 C 638.156 -0.447224 8.1878 0
M  V30 18039 O 637.766 0.825065 8.71101 0
M  V30 18040 C 637.276 -0.783801 6.99623 0
M  V30 18041 C 637.986 -0.0619192 5.85967 0
M  V30 18042 N 637.936 -0.7859 4.56281 0
M  V30 18043 H 640.775 -1.93423 8.4679 0
M  V30 18044 H 641.047 -1.68181 6.71046 0
M  V30 18045 H 640.179 0.289041 8.15388 0
M  V30 18046 P 636.216 1.17771 8.83182 0
M  V30 18047 O 635.996 2.07206 9.98732 0
M  V30 18048 O 635.426 -0.0743816 8.81969 0
M  V30 18049 O 635.966 1.97652 7.47304 0
M  V30 18050 C 636.906 3.01133 7.08783 0
M  V30 18051 C 636.176 4.12613 6.37049 0
M  V30 18052 O 635.966 3.72827 4.97879 0
M  V30 18053 C 634.776 4.45085 6.88694 0
M  V30 18054 O 634.386 5.7877 6.5624 0
M  V30 18055 C 633.896 3.47817 6.12078 0
M  V30 18056 C 634.606 3.39414 4.77697 0
M  V30 18057 N 634.556 2.04615 4.15333 0
M  V30 18058 C 634.636 0.803897 4.75249 0
M  V30 18059 N 634.556 -0.197615 3.91502 0
M  V30 18060 C 634.416 0.413002 2.66823 0
M  V30 18061 C 634.286 -0.157221 1.38007 0
M  V30 18062 O 634.266 -1.34419 1.057 0
M  V30 18063 N 634.166 0.833136 0.390236 0
M  V30 18064 C 634.166 2.19402 0.623885 0
M  V30 18065 N 634.036 2.97622 -0.449677 0
M  V30 18066 N 634.296 2.73005 1.83601 0
M  V30 18067 C 634.416 1.78786 2.80935 0
M  V30 18068 H 637.395 3.41248 7.98759 0
M  V30 18069 H 637.667 2.5837 6.41742 0
M  V30 18070 H 636.799 5.02657 6.42673 0
M  V30 18071 H 634.144 4.11779 4.09026 0
M  V30 18072 H 633.864 2.49661 6.61772 0
M  V30 18073 H 632.873 3.86674 6.00946 0
M  V30 18074 H 634.707 4.30038 7.97094 0
M  V30 18075 H 634.756 0.670579 5.82754 0
M  V30 18076 H 634.074 0.528446 -0.557287 0
M  V30 18077 H 634.037 4.00117 -0.344773 0
M  V30 18078 H 633.936 2.55448 -1.38544 0
M  V30 18079 P 632.836 6.144 6.45285 0
M  V30 18080 O 632.616 7.54673 6.86199 0
M  V30 18081 O 632.046 5.12391 7.179 0
M  V30 18082 O 632.586 5.99158 4.88404 0
M  V30 18083 C 633.526 6.60234 3.96415 0
M  V30 18084 C 632.796 7.08259 2.72856 0
M  V30 18085 O 632.586 5.9427 1.83651 0
M  V30 18086 C 631.396 7.64886 2.9555 0
M  V30 18087 O 631.006 8.53963 1.90717 0
M  V30 18088 C 630.516 6.4116 2.90739 0
M  V30 18089 C 631.226 5.55375 1.86963 0
M  V30 18090 N 631.176 4.09664 2.15742 0
M  V30 18091 C 631.256 3.44381 3.37233 0
M  V30 18092 N 631.176 2.14131 3.28347 0
M  V30 18093 C 631.036 1.90247 1.91588 0
M  V30 18094 C 630.906 0.683992 1.20892 0
M  V30 18095 N 630.786 0.903396 -0.173998 0
M  V30 18096 C 630.786 2.14171 -0.784879 0
M  V30 18097 N 630.656 2.1435 -2.11317 0
M  V30 18098 N 630.916 3.28784 -0.119316 0
M  V30 18099 C 631.036 3.0977 1.22194 0
M  V30 18100 H 634.015 7.45574 4.45629 0
M  V30 18101 H 634.287 5.86232 3.67314 0
M  V30 18102 H 633.419 7.84412 2.24479 0
M  V30 18103 P 629.456 8.7635 1.60911 0
M  V30 18104 O 629.236 10.1388 1.11561 0
M  V30 18105 O 628.666 8.36503 2.79617 0
M  V30 18106 O 629.206 7.71806 0.42951 0
M  V30 18107 C 630.146 7.66948 -0.673514 0
M  V30 18108 C 629.416 7.33374 -1.95559 0
M  V30 18109 O 629.206 5.88721 -2.00726 0
M  V30 18110 C 628.016 7.92218 -2.1125 0
M  V30 18111 O 627.626 8.02971 -3.47653 0
M  V30 18112 C 627.136 6.89504 -1.41631 0
M  V30 18113 C 627.846 5.59106 -1.75155 0
M  V30 18114 N 627.796 4.58136 -0.662409 0
M  V30 18115 C 627.646 3.26059 -1.02863 0
M  V30 18116 O 627.556 2.90743 -2.19009 0
M  V30 18117 N 627.606 2.35995 0.0155585 0
M  V30 18118 C 627.696 2.65248 1.35603 0
M  V30 18119 O 627.646 1.75605 2.20651 0
M  V30 18120 C 627.846 4.05747 1.64698 0
M  V30 18121 C 627.956 4.42345 3.09553 0
M  V30 18122 C 627.896 4.96734 0.652411 0
M  V30 18123 H 630.637 8.64917 -0.776982 0
M  V30 18124 H 630.906 6.89974 -0.474015 0
M  V30 18125 H 630.039 7.66548 -2.79458 0
M  V30 18126 H 627.384 5.16076 -2.65138 0
M  V30 18127 H 627.105 7.06433 -0.329384 0
M  V30 18128 H 626.113 6.90829 -1.81996 0
M  V30 18129 H 627.947 8.90774 -1.62639 0
M  V30 18130 H 628.018 6.02181 0.895285 0
M  V30 18131 H 626.988 4.80252 3.45468 0
M  V30 18132 H 628.725 5.20015 3.22119 0
M  V30 18133 H 628.237 3.53269 3.67833 0
M  V30 18134 H 627.501 1.39558 -0.227499 0
M  V30 18135 P 626.076 8.03563 -3.84925 0
M  V30 18136 O 625.856 8.85821 -5.0569 0
M  V30 18137 O 625.286 8.41101 -2.65469 0
M  V30 18138 O 625.826 6.49734 -4.18962 0
M  V30 18139 C 626.766 5.81037 -5.05421 0
M  V30 18140 C 626.036 4.79018 -5.88876 0
M  V30 18141 O 625.826 3.58359 -5.08515 0
M  V30 18142 C 624.636 5.17448 -6.36119 0
M  V30 18143 O 624.246 4.45322 -7.53318 0
M  V30 18144 C 623.756 4.74639 -5.19936 0
M  V30 18145 C 624.466 3.49432 -4.70418 0
M  V30 18146 N 624.416 3.31776 -3.22945 0
M  V30 18147 C 624.266 2.02742 -2.72939 0
M  V30 18148 O 624.176 1.08301 -3.52749 0
M  V30 18149 N 624.216 1.96117 -1.22063 0
M  V30 18150 C 624.316 2.8878 -0.551566 0
M  V30 18151 N 624.266 2.65609 0.750198 0
M  V30 18152 C 624.466 4.22457 -1.03707 0
M  V30 18153 C 624.516 4.37979 -2.39113 0
M  V30 18154 H 627.256 6.54138 -5.7131 0
M  V30 18155 H 627.526 5.30492 -4.44033 0
M  V30 18156 H 626.659 4.55945 -6.76735 0
M  V30 18157 H 624.004 2.6176 -5.18021 0
M  V30 18158 H 623.724 5.52233 -4.41941 0
M  V30 18159 H 622.733 4.52045 -5.53452 0
M  V30 18160 H 624.567 6.25124 -6.55234 0
M  V30 18161 H 624.639 5.37936 -2.80552 0
M  V30 18162 H 624.537 5.07528 -0.359553 0
M  V30 18163 H 624.149 1.69403 1.09847 0
M  V30 18164 H 624.345 3.43701 1.41792 0
M  V30 18165 P 622.696 4.23843 -7.83734 0
M  V30 18166 O 622.476 4.19407 -9.29784 0
M  V30 18167 O 621.906 5.24426 -7.09156 0
M  V30 18168 O 622.446 2.7935 -7.20758 0
M  V30 18169 C 623.386 1.7299 -7.50419 0
M  V30 18170 C 622.656 0.406376 -7.57911 0
M  V30 18171 O 622.446 -0.0897726 -6.21935 0
M  V30 18172 C 621.256 0.447224 -8.1878 0
M  V30 18173 O 620.866 -0.825065 -8.71101 0
M  V30 18174 C 620.376 0.783801 -6.99623 0
M  V30 18175 C 621.086 0.0619192 -5.85967 0
M  V30 18176 N 621.036 0.790462 -4.56202 0
M  V30 18177 H 623.875 1.93423 -8.4679 0
M  V30 18178 H 624.147 1.68852 -6.70877 0
M  V30 18179 H 623.279 -0.289041 -8.15388 0
M  V30 18180 H 620.624 -0.927006 -5.72848 0
M  V30 18181 H 620.344 1.86973 -6.82036 0
M  V30 18182 H 619.353 0.403953 -7.13357 0
M  V30 18183 H 621.187 1.20599 -8.97534 0
M  V30 18184 P 619.316 -1.17771 -8.83182 0
M  V30 18185 O 619.096 -2.07206 -9.98732 0
M  V30 18186 O 618.526 0.0743816 -8.81969 0
M  V30 18187 O 619.066 -1.97652 -7.47304 0
M  V30 18188 C 620.006 -3.01133 -7.08783 0
M  V30 18189 C 619.276 -4.12613 -6.37049 0
M  V30 18190 O 619.066 -3.72827 -4.97879 0
M  V30 18191 C 617.876 -4.45085 -6.88694 0
M  V30 18192 O 617.486 -5.7877 -6.5624 0
M  V30 18193 C 616.996 -3.47817 -6.12078 0
M  V30 18194 C 617.706 -3.39414 -4.77697 0
M  V30 18195 N 617.656 -2.04199 -4.15538 0
M  V30 18196 C 617.736 -0.821545 -4.76977 0
M  V30 18197 N 617.666 0.1794 -3.94592 0
M  V30 18198 C 617.516 -0.419121 -2.70776 0
M  V30 18199 C 617.386 0.109072 -1.40577 0
M  V30 18200 N 617.376 1.4104 -1.1344 0
M  V30 18201 N 617.266 -0.764381 -0.39411 0
M  V30 18202 C 617.276 -2.06587 -0.664135 0
M  V30 18203 N 617.396 -2.67948 -1.82153 0
M  V30 18204 C 617.516 -1.77942 -2.8147 0
M  V30 18205 H 620.495 -3.41248 -7.98759 0
M  V30 18206 H 620.767 -2.57728 -6.42 0
M  V30 18207 H 619.899 -5.02657 -6.42673 0
M  V30 18208 H 617.244 -4.11708 -4.08956 0
M  V30 18209 H 616.964 -2.49626 -6.61679 0
M  V30 18210 H 615.973 -3.8662 -6.00862 0
M  V30 18211 H 617.807 -4.29991 -7.97006 0
M  V30 18212 H 617.848 -0.702451 -5.84696 0
M  V30 18213 H 617.467 2.09647 -1.89651 0
M  V30 18214 H 617.278 1.73358 -0.160575 0
M  V30 18215 H 617.17 -2.71695 0.195838 0
M  V30 18216 P 615.936 -6.144 -6.45285 0
M  V30 18217 O 615.716 -7.54673 -6.86199 0
M  V30 18218 O 615.146 -5.12391 -7.179 0
M  V30 18219 O 615.686 -5.99158 -4.88404 0
M  V30 18220 C 616.626 -6.60234 -3.96415 0
M  V30 18221 C 615.896 -7.08259 -2.72856 0
M  V30 18222 O 615.686 -5.9427 -1.83651 0
M  V30 18223 C 614.496 -7.64886 -2.9555 0
M  V30 18224 O 614.106 -8.53963 -1.90717 0
M  V30 18225 C 613.616 -6.4116 -2.90739 0
M  V30 18226 C 614.326 -5.55375 -1.86963 0
M  V30 18227 N 614.276 -4.09448 -2.16152 0
M  V30 18228 C 614.356 -3.46824 -3.37593 0
M  V30 18229 N 614.286 -2.17422 -3.29777 0
M  V30 18230 C 614.136 -1.93065 -1.94427 0
M  V30 18231 C 614.006 -0.738053 -1.20141 0
M  V30 18232 N 613.996 0.474256 -1.74676 0
M  V30 18233 N 613.886 -0.850049 0.13045 0
M  V30 18234 C 613.896 -2.06169 0.676992 0
M  V30 18235 N 614.016 -3.23842 0.101312 0
M  V30 18236 C 614.136 -3.09402 -1.23122 0
M  V30 18237 H 617.115 -7.45574 -4.45629 0
M  V30 18238 H 617.387 -5.85864 -3.679 0
M  V30 18239 H 616.519 -7.84412 -2.24479 0
M  V30 18240 H 613.864 -5.73457 -0.888562 0
M  V30 18241 H 613.584 -5.90877 -3.88583 0
M  V30 18242 H 612.593 -6.6596 -2.58858 0
M  V30 18243 H 614.427 -8.16339 -3.92049 0
M  V30 18244 H 614.468 -4.00505 -4.3174 0
M  V30 18245 H 614.087 0.581337 -2.76658 0
M  V30 18246 H 613.898 1.30811 -1.14888 0
M  V30 18247 H 613.79 -2.08295 1.75542 0
M  V30 18248 P 612.556 -8.7635 -1.60911 0
M  V30 18249 O 612.336 -10.1388 -1.11561 0
M  V30 18250 O 611.766 -8.36503 -2.79617 0
M  V30 18251 O 612.306 -7.71806 -0.42951 0
M  V30 18252 C 613.246 -7.67148 0.673689 0
M  V30 18253 C 612.516 -7.33374 1.95559 0
M  V30 18254 O 612.306 -5.88721 2.00726 0
M  V30 18255 C 611.116 -7.92526 2.10483 0
M  V30 18256 O 610.726 -8.02971 3.47653 0
M  V30 18257 C 610.236 -6.89602 1.41652 0
M  V30 18258 C 610.946 -5.59201 1.75185 0
M  V30 18259 N 610.896 -4.58235 0.662552 0
M  V30 18260 H 613.735 -8.65116 0.777161 0
M  V30 18261 H 614.007 -6.90173 0.474152 0
M  V30 18262 H 613.139 -7.66548 2.79458 0
M  V30 18263 P 609.176 -8.03563 3.84925 0
M  V30 18264 O 608.956 -8.85821 5.0569 0
M  V30 18265 O 608.386 -8.41101 2.65469 0
M  V30 18266 O 608.926 -6.4965 4.18908 0
M  V30 18267 C 609.866 -5.81037 5.05421 0
M  V30 18268 C 609.136 -4.78366 5.89277 0
M  V30 18269 O 608.926 -3.58302 5.08433 0
M  V30 18270 C 607.736 -5.17448 6.36119 0
M  V30 18271 O 607.346 -4.45271 7.53232 0
M  V30 18272 C 606.856 -4.74639 5.19936 0
M  V30 18273 C 607.566 -3.49432 4.70418 0
M  V30 18274 N 607.516 -3.32099 3.22613 0
M  V30 18275 H 610.355 -6.54213 5.71376 0
M  V30 18276 H 610.627 -5.30936 4.43503 0
M  V30 18277 H 609.759 -4.55889 6.76652 0
M  V30 18278 H 607.104 -2.61715 5.17932 0
M  V30 18279 H 606.824 -5.52155 4.41878 0
M  V30 18280 H 605.833 -4.51981 5.53374 0
M  V30 18281 H 607.667 -6.25124 6.55234 0
M  V30 18282 P 605.796 -4.23843 7.83734 0
M  V30 18283 O 605.576 -4.19407 9.29784 0
M  V30 18284 O 605.006 -5.24426 7.09156 0
M  V30 18285 O 605.546 -2.7935 7.20758 0
M  V30 18286 C 606.486 -1.7299 7.50419 0
M  V30 18287 C 605.756 -0.406376 7.57911 0
M  V30 18288 O 605.546 0.0897726 6.21935 0
M  V30 18289 C 604.356 -0.447224 8.1878 0
M  V30 18290 O 603.966 0.825065 8.71101 0
M  V30 18291 C 603.476 -0.783801 6.99623 0
M  V30 18292 C 604.186 -0.0619192 5.85967 0
M  V30 18293 N 604.136 -0.7859 4.56281 0
M  V30 18294 H 606.975 -1.93423 8.4679 0
M  V30 18295 H 607.247 -1.68181 6.71046 0
M  V30 18296 H 606.379 0.289041 8.15388 0
M  V30 18297 P 602.416 1.17771 8.83182 0
M  V30 18298 O 602.196 2.07206 9.98732 0
M  V30 18299 O 601.626 -0.0743816 8.81969 0
M  V30 18300 O 602.166 1.97652 7.47304 0
M  V30 18301 C 603.106 3.01055 7.08599 0
M  V30 18302 C 602.376 4.12613 6.37049 0
M  V30 18303 O 602.166 3.72827 4.97879 0
M  V30 18304 C 600.976 4.45719 6.88164 0
M  V30 18305 O 600.586 5.7877 6.5624 0
M  V30 18306 C 600.096 3.47768 6.11991 0
M  V30 18307 C 600.806 3.39356 4.77615 0
M  V30 18308 N 600.756 2.04571 4.15244 0
M  V30 18309 C 600.606 1.98587 2.78314 0
M  V30 18310 O 600.516 2.98134 2.08835 0
M  V30 18311 N 600.566 0.714467 2.24925 0
M  V30 18312 C 600.656 -0.470001 2.94169 0
M  V30 18313 C 600.806 -0.312541 4.36783 0
M  V30 18314 C 600.856 0.914512 4.92583 0
M  V30 18315 H 603.597 3.41169 7.98575 0
M  V30 18316 H 603.866 2.58295 6.41556 0
M  V30 18317 H 602.999 5.02657 6.42673 0
M  V30 18318 H 600.344 4.11637 4.08885 0
M  V30 18319 H 600.065 2.49626 6.61679 0
M  V30 18320 H 599.073 3.86566 6.00778 0
M  V30 18321 H 600.907 4.29943 7.96918 0
M  V30 18322 H 600.978 1.00937 6.00374 0
M  V30 18323 P 599.036 6.144 6.45285 0
M  V30 18324 O 598.816 7.54673 6.86199 0
M  V30 18325 O 598.246 5.12391 7.179 0
M  V30 18326 O 598.786 5.99158 4.88404 0
M  V30 18327 C 599.726 6.60234 3.96415 0
M  V30 18328 C 598.996 7.08259 2.72856 0
M  V30 18329 O 598.786 5.9427 1.83651 0
M  V30 18330 C 597.596 7.64886 2.9555 0
M  V30 18331 O 597.206 8.53963 1.90717 0
M  V30 18332 C 596.716 6.4116 2.90739 0
M  V30 18333 C 597.426 5.55375 1.86963 0
M  V30 18334 N 597.376 4.09664 2.15742 0
M  V30 18335 H 600.215 7.45574 4.45629 0
M  V30 18336 H 600.487 5.86232 3.67314 0
M  V30 18337 H 599.619 7.84412 2.24479 0
M  V30 18338 P 595.656 8.7635 1.60911 0
M  V30 18339 O 595.437 10.1388 1.11561 0
M  V30 18340 O 594.866 8.36503 2.79617 0
M  V30 18341 O 595.406 7.71806 0.42951 0
M  V30 18342 C 596.346 7.67148 -0.673689 0
M  V30 18343 C 595.616 7.33374 -1.95559 0
M  V30 18344 O 595.406 5.88721 -2.00726 0
M  V30 18345 C 594.216 7.92526 -2.10483 0
M  V30 18346 O 593.827 8.02971 -3.47653 0
M  V30 18347 C 593.337 6.89602 -1.41652 0
M  V30 18348 C 594.046 5.59201 -1.75185 0
M  V30 18349 N 593.996 4.58235 -0.662552 0
M  V30 18350 H 596.836 8.65116 -0.777161 0
M  V30 18351 H 597.107 6.90173 -0.474152 0
M  V30 18352 H 596.24 7.66548 -2.79458 0
M  V30 18353 P 592.277 8.03563 -3.84925 0
M  V30 18354 O 592.057 8.85821 -5.0569 0
M  V30 18355 O 591.487 8.41101 -2.65469 0
M  V30 18356 O 592.027 6.4965 -4.18908 0
M  V30 18357 C 592.967 5.81037 -5.05421 0
M  V30 18358 C 592.237 4.78366 -5.89277 0
M  V30 18359 O 592.027 3.58302 -5.08433 0
M  V30 18360 C 590.837 5.17448 -6.36119 0
M  V30 18361 O 590.447 4.45271 -7.53232 0
M  V30 18362 C 589.957 4.74639 -5.19936 0
M  V30 18363 C 590.667 3.49432 -4.70418 0
M  V30 18364 N 590.617 3.31776 -3.22945 0
M  V30 18365 H 593.456 6.54213 -5.71376 0
M  V30 18366 H 593.728 5.30492 -4.44033 0
M  V30 18367 H 592.86 4.55889 -6.76652 0
M  V30 18368 P 588.897 4.23843 -7.83734 0
M  V30 18369 O 588.677 4.19407 -9.29784 0
M  V30 18370 O 588.107 5.24426 -7.09156 0
M  V30 18371 O 588.647 2.7935 -7.20758 0
M  V30 18372 C 589.587 1.7299 -7.50419 0
M  V30 18373 C 588.857 0.406376 -7.57911 0
M  V30 18374 O 588.647 -0.0897726 -6.21935 0
M  V30 18375 C 587.457 0.447224 -8.1878 0
M  V30 18376 O 587.067 -0.825065 -8.71101 0
M  V30 18377 C 586.577 0.783801 -6.99623 0
M  V30 18378 C 587.287 0.0619192 -5.85967 0
M  V30 18379 N 587.237 0.790462 -4.56202 0
M  V30 18380 C 587.317 2.13895 -4.34171 0
M  V30 18381 N 587.247 2.46449 -3.08687 0
M  V30 18382 C 587.097 1.2525 -2.43697 0
M  V30 18383 C 586.967 0.914535 -1.07318 0
M  V30 18384 N 586.957 1.80782 -0.0887348 0
M  V30 18385 N 586.847 -0.386745 -0.768133 0
M  V30 18386 C 586.857 -1.28096 -1.75159 0
M  V30 18387 N 586.977 -1.09708 -3.04861 0
M  V30 18388 C 587.097 0.214857 -3.32306 0
M  V30 18389 H 590.076 1.93423 -8.4679 0
M  V30 18390 H 590.348 1.68852 -6.70877 0
M  V30 18391 H 589.48 -0.289041 -8.15388 0
M  V30 18392 H 586.825 -0.927006 -5.72848 0
M  V30 18393 H 586.545 1.86973 -6.82036 0
M  V30 18394 H 585.554 0.403953 -7.13357 0
M  V30 18395 H 587.388 1.20599 -8.97534 0
M  V30 18396 H 587.429 2.86846 -5.14318 0
M  V30 18397 H 587.048 2.81082 -0.302037 0
M  V30 18398 H 586.859 1.49688 0.889064 0
M  V30 18399 H 586.751 -2.31317 -1.43855 0
M  V30 18400 P 585.517 -1.17771 -8.83182 0
M  V30 18401 O 585.297 -2.07206 -9.98732 0
M  V30 18402 O 584.727 0.0743816 -8.81969 0
M  V30 18403 O 585.267 -1.97678 -7.474 0
M  V30 18404 C 586.207 -3.01133 -7.08783 0
M  V30 18405 C 585.477 -4.1203 -6.37546 0
M  V30 18406 O 585.267 -3.72887 -4.9796 0
M  V30 18407 C 584.077 -4.45085 -6.88694 0
M  V30 18408 O 583.687 -5.78836 -6.56315 0
M  V30 18409 C 583.197 -3.47817 -6.12078 0
M  V30 18410 C 583.907 -3.39414 -4.77697 0
M  V30 18411 N 583.857 -2.04615 -4.15333 0
M  V30 18412 C 583.707 -1.96929 -2.77162 0
M  V30 18413 O 583.617 -3.02017 -2.12006 0
M  V30 18414 N 583.657 -0.55485 -2.24237 0
M  V30 18415 C 583.757 0.367808 -2.9169 0
M  V30 18416 N 583.707 1.53426 -2.29427 0
M  V30 18417 C 583.907 0.319148 -4.33828 0
M  V30 18418 C 583.957 -0.920672 -4.90433 0
M  V30 18419 H 586.697 -3.41209 -7.98667 0
M  V30 18420 H 586.967 -2.5837 -6.41742 0
M  V30 18421 H 586.1 -5.02718 -6.42752 0
M  V30 18422 H 583.445 -4.11779 -4.09026 0
M  V30 18423 H 583.165 -2.49661 -6.61772 0
M  V30 18424 H 582.174 -3.86674 -6.00946 0
M  V30 18425 H 584.008 -4.29991 -7.97006 0
M  V30 18426 H 584.08 -1.00589 -5.98303 0
M  V30 18427 H 583.978 1.22639 -4.93799 0
M  V30 18428 H 583.59 1.56819 -1.27167 0
M  V30 18429 H 583.786 2.41062 -2.83063 0
M  V30 18430 P 582.137 -6.144 -6.45285 0
M  V30 18431 O 581.917 -7.54673 -6.86199 0
M  V30 18432 O 581.347 -5.12391 -7.179 0
M  V30 18433 O 581.887 -5.99158 -4.88404 0
M  V30 18434 C 582.827 -6.60062 -3.96313 0
M  V30 18435 C 582.097 -7.08259 -2.72856 0
M  V30 18436 O 581.887 -5.9427 -1.83651 0
M  V30 18437 C 580.697 -7.65087 -2.94749 0
M  V30 18438 O 580.307 -8.53963 -1.90717 0
M  V30 18439 C 579.817 -6.41069 -2.90698 0
M  V30 18440 C 580.527 -5.5528 -1.86931 0
M  V30 18441 N 580.477 -4.09575 -2.15696 0
M  V30 18442 C 580.327 -3.24249 -1.08435 0
M  V30 18443 O 580.237 -3.63946 0.0628747 0
M  V30 18444 N 580.287 -1.90009 -1.39973 0
M  V30 18445 C 580.377 -1.34884 -2.65614 0
M  V30 18446 C 580.527 -2.3145 -3.71736 0
M  V30 18447 C 580.577 -3.63518 -3.44754 0
M  V30 18448 H 583.318 -7.45402 -4.45526 0
M  V30 18449 H 583.587 -5.86062 -3.67208 0
M  V30 18450 H 582.72 -7.84412 -2.24479 0
M  V30 18451 H 580.065 -5.73358 -0.888409 0
M  V30 18452 H 579.786 -5.90877 -3.88583 0
M  V30 18453 H 578.794 -6.65867 -2.58821 0
M  V30 18454 H 580.628 -8.16248 -3.92006 0
M  V30 18455 H 580.699 -4.34551 -4.26383 0
M  V30 18456 P 578.757 -8.7635 -1.60911 0
M  V30 18457 O 578.537 -10.1388 -1.11561 0
M  V30 18458 O 577.967 -8.36503 -2.79617 0
M  V30 18459 O 578.507 -7.71806 -0.42951 0
M  V30 18460 C 579.447 -7.67148 0.673689 0
M  V30 18461 C 578.717 -7.33374 1.95559 0
M  V30 18462 O 578.507 -5.88721 2.00726 0
M  V30 18463 C 577.317 -7.92526 2.10483 0
M  V30 18464 O 576.927 -8.02971 3.47653 0
M  V30 18465 C 576.437 -6.89602 1.41652 0
M  V30 18466 C 577.147 -5.59201 1.75185 0
M  V30 18467 N 577.097 -4.58235 0.662552 0
M  V30 18468 H 579.936 -8.65116 0.777161 0
M  V30 18469 H 580.208 -6.90173 0.474152 0
M  V30 18470 H 579.34 -7.66548 2.79458 0
M  V30 18471 P 575.377 -8.03563 3.84925 0
M  V30 18472 O 575.157 -8.85821 5.0569 0
M  V30 18473 O 574.587 -8.41101 2.65469 0
M  V30 18474 O 575.127 -6.4965 4.18908 0
M  V30 18475 C 576.067 -5.81037 5.05421 0
M  V30 18476 C 575.337 -4.78366 5.89277 0
M  V30 18477 O 575.127 -3.58302 5.08433 0
M  V30 18478 C 573.937 -5.17448 6.36119 0
M  V30 18479 O 573.547 -4.45271 7.53232 0
M  V30 18480 C 573.057 -4.74639 5.19936 0
M  V30 18481 C 573.767 -3.49432 4.70418 0
M  V30 18482 N 573.717 -3.31776 3.22945 0
M  V30 18483 H 576.556 -6.54213 5.71376 0
M  V30 18484 H 576.828 -5.30492 4.44033 0
M  V30 18485 H 575.96 -4.55889 6.76652 0
M  V30 18486 P 571.997 -4.23843 7.83734 0
M  V30 18487 O 571.777 -4.19407 9.29784 0
M  V30 18488 O 571.207 -5.24426 7.09156 0
M  V30 18489 O 571.747 -2.7935 7.20758 0
M  V30 18490 C 572.687 -1.7299 7.50419 0
M  V30 18491 C 571.957 -0.406376 7.57911 0
M  V30 18492 O 571.747 0.0897726 6.21935 0
M  V30 18493 C 570.557 -0.447224 8.1878 0
M  V30 18494 O 570.167 0.825065 8.71101 0
M  V30 18495 C 569.677 -0.783801 6.99623 0
M  V30 18496 C 570.387 -0.0619192 5.85967 0
M  V30 18497 N 570.337 -0.7859 4.56281 0
M  V30 18498 H 573.176 -1.93423 8.4679 0
M  V30 18499 H 573.448 -1.68181 6.71046 0
M  V30 18500 H 572.58 0.289041 8.15388 0
M  V30 18501 P 568.617 1.17771 8.83182 0
M  V30 18502 O 568.397 2.07206 9.98732 0
M  V30 18503 O 567.827 -0.0743816 8.81969 0
M  V30 18504 O 568.367 1.97652 7.47304 0
M  V30 18505 C 569.307 3.01055 7.08599 0
M  V30 18506 C 568.577 4.12613 6.37049 0
M  V30 18507 O 568.367 3.72827 4.97879 0
M  V30 18508 C 567.177 4.45719 6.88164 0
M  V30 18509 O 566.787 5.7877 6.5624 0
M  V30 18510 C 566.297 3.47768 6.11991 0
M  V30 18511 C 567.007 3.39356 4.77615 0
M  V30 18512 N 566.957 2.04571 4.15244 0
M  V30 18513 C 566.807 1.98587 2.78314 0
M  V30 18514 O 566.717 2.98134 2.08835 0
M  V30 18515 N 566.767 0.714467 2.24925 0
M  V30 18516 C 566.857 -0.470001 2.94169 0
M  V30 18517 O 566.807 -1.55587 2.35195 0
M  V30 18518 C 567.007 -0.312541 4.36783 0
M  V30 18519 C 567.117 -1.57711 5.16352 0
M  V30 18520 C 567.057 0.914512 4.92583 0
M  V30 18521 H 569.798 3.41169 7.98575 0
M  V30 18522 H 570.067 2.58295 6.41556 0
M  V30 18523 H 569.2 5.02657 6.42673 0
M  V30 18524 H 566.545 4.11637 4.08885 0
M  V30 18525 H 566.266 2.49626 6.61679 0
M  V30 18526 H 565.274 3.86566 6.00778 0
M  V30 18527 H 567.108 4.29943 7.96918 0
M  V30 18528 H 567.179 1.00937 6.00374 0
M  V30 18529 H 566.149 -1.80153 5.63503 0
M  V30 18530 H 567.886 -1.4566 5.94104 0
M  V30 18531 H 567.398 -2.40664 4.49645 0
M  V30 18532 H 566.662 0.647622 1.25697 0
M  V30 18533 P 565.237 6.144 6.45285 0
M  V30 18534 O 565.017 7.54673 6.86199 0
M  V30 18535 O 564.447 5.12391 7.179 0
M  V30 18536 O 564.987 5.99158 4.88404 0
M  V30 18537 C 565.927 6.60234 3.96415 0
M  V30 18538 C 565.197 7.08259 2.72856 0
M  V30 18539 O 564.987 5.9427 1.83651 0
M  V30 18540 C 563.797 7.64886 2.9555 0
M  V30 18541 O 563.407 8.53963 1.90717 0
M  V30 18542 C 562.917 6.4116 2.90739 0
M  V30 18543 C 563.627 5.55375 1.86963 0
M  V30 18544 N 563.577 4.09664 2.15742 0
M  V30 18545 H 566.416 7.45574 4.45629 0
M  V30 18546 H 566.688 5.86232 3.67314 0
M  V30 18547 H 565.82 7.84412 2.24479 0
M  V30 18548 P 561.857 8.7635 1.60911 0
M  V30 18549 O 561.637 10.1388 1.11561 0
M  V30 18550 O 561.067 8.36503 2.79617 0
M  V30 18551 O 561.607 7.71806 0.42951 0
M  V30 18552 C 562.547 7.67148 -0.673689 0
M  V30 18553 C 561.817 7.33374 -1.95559 0
M  V30 18554 O 561.607 5.88721 -2.00726 0
M  V30 18555 C 560.417 7.92526 -2.10483 0
M  V30 18556 O 560.027 8.02971 -3.47653 0
M  V30 18557 C 559.537 6.89602 -1.41652 0
M  V30 18558 C 560.247 5.59201 -1.75185 0
M  V30 18559 N 560.197 4.58235 -0.662552 0
M  V30 18560 H 563.036 8.65116 -0.777161 0
M  V30 18561 H 563.308 6.90173 -0.474152 0
M  V30 18562 H 562.44 7.66548 -2.79458 0
M  V30 18563 P 558.477 8.03563 -3.84925 0
M  V30 18564 O 558.257 8.85821 -5.0569 0
M  V30 18565 O 557.687 8.41101 -2.65469 0
M  V30 18566 O 558.227 6.4965 -4.18908 0
M  V30 18567 C 559.167 5.81037 -5.05421 0
M  V30 18568 C 558.437 4.78366 -5.89277 0
M  V30 18569 O 558.227 3.58302 -5.08433 0
M  V30 18570 C 557.037 5.17448 -6.36119 0
M  V30 18571 O 556.647 4.45271 -7.53232 0
M  V30 18572 C 556.157 4.74639 -5.19936 0
M  V30 18573 C 556.867 3.49432 -4.70418 0
M  V30 18574 N 556.817 3.31776 -3.22945 0
M  V30 18575 H 559.656 6.54213 -5.71376 0
M  V30 18576 H 559.928 5.30492 -4.44033 0
M  V30 18577 H 559.06 4.55889 -6.76652 0
M  V30 18578 P 555.097 4.23843 -7.83734 0
M  V30 18579 O 554.877 4.19407 -9.29784 0
M  V30 18580 O 554.307 5.24426 -7.09156 0
M  V30 18581 O 554.847 2.7935 -7.20758 0
M  V30 18582 C 555.787 1.7299 -7.50419 0
M  V30 18583 C 555.057 0.406376 -7.57911 0
M  V30 18584 O 554.847 -0.0897726 -6.21935 0
M  V30 18585 C 553.657 0.447224 -8.1878 0
M  V30 18586 O 553.267 -0.825065 -8.71101 0
M  V30 18587 C 552.777 0.783801 -6.99623 0
M  V30 18588 C 553.487 0.0619192 -5.85967 0
M  V30 18589 N 553.437 0.7859 -4.56281 0
M  V30 18590 H 556.276 1.93423 -8.4679 0
M  V30 18591 H 556.548 1.68181 -6.71046 0
M  V30 18592 H 555.68 -0.289041 -8.15388 0
M  V30 18593 P 551.717 -1.17771 -8.83182 0
M  V30 18594 O 551.497 -2.07206 -9.98732 0
M  V30 18595 O 550.927 0.0743816 -8.81969 0
M  V30 18596 O 551.467 -1.97652 -7.47304 0
M  V30 18597 C 552.407 -3.01055 -7.08599 0
M  V30 18598 C 551.677 -4.12613 -6.37049 0
M  V30 18599 O 551.467 -3.72827 -4.97879 0
M  V30 18600 C 550.277 -4.45719 -6.88164 0
M  V30 18601 O 549.887 -5.7877 -6.5624 0
M  V30 18602 C 549.397 -3.47768 -6.11991 0
M  V30 18603 C 550.107 -3.39356 -4.77615 0
M  V30 18604 N 550.057 -2.04571 -4.15244 0
M  V30 18605 C 549.907 -1.98587 -2.78314 0
M  V30 18606 O 549.817 -2.98134 -2.08835 0
M  V30 18607 N 549.867 -0.714467 -2.24925 0
M  V30 18608 C 549.957 0.470001 -2.94169 0
M  V30 18609 C 550.107 0.312541 -4.36783 0
M  V30 18610 C 550.157 -0.914512 -4.92583 0
M  V30 18611 H 552.898 -3.41169 -7.98575 0
M  V30 18612 H 553.167 -2.58295 -6.41556 0
M  V30 18613 H 552.3 -5.02657 -6.42673 0
M  V30 18614 H 549.645 -4.11637 -4.08885 0
M  V30 18615 H 549.366 -2.49626 -6.61679 0
M  V30 18616 H 548.374 -3.86566 -6.00778 0
M  V30 18617 H 550.208 -4.29943 -7.96918 0
M  V30 18618 H 550.279 -1.00937 -6.00374 0
M  V30 18619 P 548.337 -6.144 -6.45285 0
M  V30 18620 O 548.117 -7.54673 -6.86199 0
M  V30 18621 O 547.547 -5.12391 -7.179 0
M  V30 18622 O 548.087 -5.99158 -4.88404 0
M  V30 18623 C 549.027 -6.60234 -3.96415 0
M  V30 18624 C 548.297 -7.08259 -2.72856 0
M  V30 18625 O 548.087 -5.9427 -1.83651 0
M  V30 18626 C 546.897 -7.64886 -2.9555 0
M  V30 18627 O 546.507 -8.53963 -1.90717 0
M  V30 18628 C 546.017 -6.4116 -2.90739 0
M  V30 18629 C 546.727 -5.55375 -1.86963 0
M  V30 18630 N 546.677 -4.09664 -2.15742 0
M  V30 18631 H 549.516 -7.45574 -4.45629 0
M  V30 18632 H 549.788 -5.86232 -3.67314 0
M  V30 18633 H 548.92 -7.84412 -2.24479 0
M  V30 18634 P 544.957 -8.7635 -1.60911 0
M  V30 18635 O 544.737 -10.1388 -1.11561 0
M  V30 18636 O 544.167 -8.36503 -2.79617 0
M  V30 18637 O 544.707 -7.71806 -0.42951 0
M  V30 18638 C 545.647 -7.67148 0.673689 0
M  V30 18639 C 544.917 -7.33374 1.95559 0
M  V30 18640 O 544.707 -5.88721 2.00726 0
M  V30 18641 C 543.517 -7.92526 2.10483 0
M  V30 18642 O 543.127 -8.02971 3.47653 0
M  V30 18643 C 542.637 -6.89602 1.41652 0
M  V30 18644 C 543.347 -5.59201 1.75185 0
M  V30 18645 N 543.297 -4.58301 0.657969 0
M  V30 18646 H 546.136 -8.65116 0.777161 0
M  V30 18647 H 546.408 -6.9022 0.46725 0
M  V30 18648 H 545.54 -7.66548 2.79458 0
M  V30 18649 H 542.885 -5.16165 2.65183 0
M  V30 18650 H 542.605 -7.06433 0.329384 0
M  V30 18651 H 541.614 -6.90926 1.82021 0
M  V30 18652 H 543.448 -8.90873 1.62657 0
M  V30 18653 P 541.577 -8.03563 3.84925 0
M  V30 18654 O 541.357 -8.85821 5.0569 0
M  V30 18655 O 540.787 -8.41101 2.65469 0
M  V30 18656 O 541.327 -6.4965 4.18908 0
M  V30 18657 C 542.267 -5.81037 5.05421 0
M  V30 18658 C 541.537 -4.78366 5.89277 0
M  V30 18659 O 541.327 -3.58302 5.08433 0
M  V30 18660 C 540.137 -5.17448 6.36119 0
M  V30 18661 O 539.747 -4.45271 7.53232 0
M  V30 18662 C 539.257 -4.74639 5.19936 0
M  V30 18663 C 539.967 -3.49432 4.70418 0
M  V30 18664 N 539.917 -3.31776 3.22945 0
M  V30 18665 H 542.756 -6.54213 5.71376 0
M  V30 18666 H 543.028 -5.30492 4.44033 0
M  V30 18667 H 542.16 -4.55889 6.76652 0
M  V30 18668 P 538.197 -4.23843 7.83734 0
M  V30 18669 O 537.977 -4.19407 9.29784 0
M  V30 18670 O 537.407 -5.24426 7.09156 0
M  V30 18671 O 537.947 -2.7935 7.20758 0
M  V30 18672 C 538.887 -1.72945 7.50224 0
M  V30 18673 C 538.157 -0.406376 7.57911 0
M  V30 18674 O 537.947 0.0897726 6.21935 0
M  V30 18675 C 536.757 -0.438983 8.18724 0
M  V30 18676 O 536.367 0.825065 8.71101 0
M  V30 18677 C 535.877 -0.783689 6.99524 0
M  V30 18678 C 536.587 -0.0619086 5.85867 0
M  V30 18679 N 536.537 -0.78573 4.56183 0
M  V30 18680 C 536.387 -0.0292889 3.41887 0
M  V30 18681 O 536.297 1.18445 3.4419 0
M  V30 18682 N 536.347 -0.744061 2.23964 0
M  V30 18683 C 536.437 -2.10932 2.10362 0
M  V30 18684 C 536.587 -2.8202 3.34994 0
M  V30 18685 C 536.637 -2.15547 4.52261 0
M  V30 18686 H 539.378 -1.93379 8.46595 0
M  V30 18687 H 539.647 -1.68132 6.70852 0
M  V30 18688 H 538.78 0.289041 8.15388 0
M  V30 18689 H 536.125 0.926847 5.72749 0
M  V30 18690 H 535.846 -1.86973 6.82036 0
M  V30 18691 H 534.854 -0.403896 7.13257 0
M  V30 18692 H 536.688 -1.20585 8.97435 0
M  V30 18693 H 536.759 -2.71231 5.45042 0
M  V30 18694 P 534.817 1.17771 8.83182 0
M  V30 18695 O 534.597 2.07206 9.98732 0
M  V30 18696 O 534.027 -0.0743816 8.81969 0
M  V30 18697 O 534.567 1.97652 7.47304 0
M  V30 18698 C 535.507 3.01055 7.08599 0
M  V30 18699 C 534.777 4.12613 6.37049 0
M  V30 18700 O 534.567 3.72827 4.97879 0
M  V30 18701 C 533.377 4.45719 6.88164 0
M  V30 18702 O 532.987 5.7877 6.5624 0
M  V30 18703 C 532.497 3.47768 6.11991 0
M  V30 18704 C 533.207 3.39356 4.77615 0
M  V30 18705 N 533.157 2.04571 4.15244 0
M  V30 18706 C 533.007 1.98587 2.78314 0
M  V30 18707 O 532.917 2.98134 2.08835 0
M  V30 18708 N 532.967 0.714467 2.24925 0
M  V30 18709 C 533.057 -0.470001 2.94169 0
M  V30 18710 C 533.207 -0.312541 4.36783 0
M  V30 18711 C 533.257 0.914512 4.92583 0
M  V30 18712 H 535.998 3.41169 7.98575 0
M  V30 18713 H 536.267 2.58295 6.41556 0
M  V30 18714 H 535.4 5.02657 6.42673 0
M  V30 18715 H 532.745 4.11637 4.08885 0
M  V30 18716 H 532.466 2.49626 6.61679 0
M  V30 18717 H 531.474 3.86566 6.00778 0
M  V30 18718 H 533.308 4.29943 7.96918 0
M  V30 18719 H 533.379 1.00937 6.00374 0
M  V30 18720 P 531.437 6.144 6.45285 0
M  V30 18721 O 531.217 7.54673 6.86199 0
M  V30 18722 O 530.647 5.12391 7.179 0
M  V30 18723 O 531.187 5.99158 4.88404 0
M  V30 18724 C 532.127 6.60234 3.96415 0
M  V30 18725 C 531.397 7.08259 2.72856 0
M  V30 18726 O 531.187 5.9427 1.83651 0
M  V30 18727 C 529.997 7.64886 2.9555 0
M  V30 18728 O 529.607 8.53963 1.90717 0
M  V30 18729 C 529.117 6.4116 2.90739 0
M  V30 18730 C 529.827 5.55375 1.86963 0
M  V30 18731 N 529.777 4.09448 2.16152 0
M  V30 18732 C 529.857 3.46824 3.37593 0
M  V30 18733 N 529.787 2.17422 3.29777 0
M  V30 18734 C 529.637 1.93065 1.94427 0
M  V30 18735 C 529.507 0.738053 1.20141 0
M  V30 18736 N 529.497 -0.474256 1.74676 0
M  V30 18737 N 529.387 0.850049 -0.13045 0
M  V30 18738 C 529.397 2.06169 -0.676992 0
M  V30 18739 N 529.517 3.23842 -0.101312 0
M  V30 18740 C 529.637 3.09402 1.23122 0
M  V30 18741 H 532.616 7.45574 4.45629 0
M  V30 18742 H 532.888 5.85864 3.679 0
M  V30 18743 H 532.02 7.84412 2.24479 0
M  V30 18744 H 529.365 5.73457 0.888562 0
M  V30 18745 H 529.085 5.90877 3.88583 0
M  V30 18746 H 528.094 6.6596 2.58858 0
M  V30 18747 H 529.928 8.16339 3.92049 0
M  V30 18748 H 529.969 4.00505 4.3174 0
M  V30 18749 H 529.588 -0.581337 2.76658 0
M  V30 18750 H 529.399 -1.30811 1.14888 0
M  V30 18751 H 529.291 2.08295 -1.75542 0
M  V30 18752 P 528.057 8.7635 1.60911 0
M  V30 18753 O 527.837 10.1388 1.11561 0
M  V30 18754 O 527.267 8.36503 2.79617 0
M  V30 18755 O 527.807 7.71806 0.42951 0
M  V30 18756 C 528.747 7.67148 -0.673689 0
M  V30 18757 C 528.017 7.33374 -1.95559 0
M  V30 18758 O 527.807 5.88721 -2.00726 0
M  V30 18759 C 526.617 7.92526 -2.10483 0
M  V30 18760 O 526.227 8.02971 -3.47653 0
M  V30 18761 C 525.737 6.89602 -1.41652 0
M  V30 18762 C 526.447 5.59201 -1.75185 0
M  V30 18763 N 526.397 4.58235 -0.662552 0
M  V30 18764 H 529.236 8.65116 -0.777161 0
M  V30 18765 H 529.508 6.90173 -0.474152 0
M  V30 18766 H 528.64 7.66548 -2.79458 0
M  V30 18767 P 524.677 8.03563 -3.84925 0
M  V30 18768 O 524.457 8.85821 -5.0569 0
M  V30 18769 O 523.887 8.41101 -2.65469 0
M  V30 18770 O 524.427 6.4965 -4.18908 0
M  V30 18771 C 525.367 5.81037 -5.05421 0
M  V30 18772 C 524.637 4.78366 -5.89277 0
M  V30 18773 O 524.427 3.58302 -5.08433 0
M  V30 18774 C 523.237 5.17448 -6.36119 0
M  V30 18775 O 522.847 4.45271 -7.53232 0
M  V30 18776 C 522.357 4.74639 -5.19936 0
M  V30 18777 C 523.067 3.49432 -4.70418 0
M  V30 18778 N 523.017 3.32099 -3.22613 0
M  V30 18779 H 525.856 6.54213 -5.71376 0
M  V30 18780 H 526.128 5.30936 -4.43503 0
M  V30 18781 H 525.26 4.55889 -6.76652 0
M  V30 18782 H 522.605 2.61715 -5.17932 0
M  V30 18783 H 522.325 5.52155 -4.41878 0
M  V30 18784 H 521.334 4.51981 -5.53374 0
M  V30 18785 H 523.168 6.25124 -6.55234 0
M  V30 18786 P 521.297 4.23843 -7.83734 0
M  V30 18787 O 521.077 4.19407 -9.29784 0
M  V30 18788 O 520.507 5.24426 -7.09156 0
M  V30 18789 O 521.047 2.79386 -7.20852 0
M  V30 18790 C 521.987 1.7299 -7.50419 0
M  V30 18791 C 521.257 0.41401 -7.5797 0
M  V30 18792 O 521.047 -0.089787 -6.22035 0
M  V30 18793 C 519.857 0.447224 -8.1878 0
M  V30 18794 O 519.467 -0.825159 -8.71201 0
M  V30 18795 C 518.977 0.783801 -6.99623 0
M  V30 18796 C 519.687 0.0619192 -5.85967 0
M  V30 18797 N 519.637 0.7859 -4.56281 0
M  V30 18798 C 519.487 0.0359258 -3.39981 0
M  V30 18799 O 519.397 -1.19723 -3.49038 0
M  V30 18800 N 519.437 0.869151 -2.14025 0
M  V30 18801 C 519.537 2.01207 -2.14363 0
M  V30 18802 N 519.487 2.58978 -0.954287 0
M  V30 18803 C 519.687 2.80817 -3.32215 0
M  V30 18804 C 519.737 2.13785 -4.50884 0
M  V30 18805 H 522.477 1.93401 -8.46693 0
M  V30 18806 H 522.747 1.68181 -6.71046 0
M  V30 18807 H 521.88 -0.289076 -8.15488 0
M  V30 18808 H 519.225 -0.927166 -5.72947 0
M  V30 18809 H 518.945 1.87 -6.82132 0
M  V30 18810 H 517.954 0.404009 -7.13457 0
M  V30 18811 H 519.788 1.20599 -8.97534 0
M  V30 18812 H 519.86 2.70295 -5.43162 0
M  V30 18813 H 519.758 3.89465 -3.27406 0
M  V30 18814 H 519.37 2.01616 -0.107046 0
M  V30 18815 H 519.566 3.61403 -0.873101 0
M  V30 18816 P 517.917 -1.17771 -8.83182 0
M  V30 18817 O 517.697 -2.07206 -9.98732 0
M  V30 18818 O 517.127 0.0743816 -8.81969 0
M  V30 18819 O 517.667 -1.97652 -7.47304 0
M  V30 18820 C 518.607 -3.01133 -7.08783 0
M  V30 18821 C 517.877 -4.12613 -6.37049 0
M  V30 18822 O 517.667 -3.72827 -4.97879 0
M  V30 18823 C 516.477 -4.45085 -6.88694 0
M  V30 18824 O 516.087 -5.7877 -6.5624 0
M  V30 18825 C 515.597 -3.47817 -6.12078 0
M  V30 18826 C 516.307 -3.39414 -4.77697 0
M  V30 18827 N 516.257 -2.04615 -4.15333 0
M  V30 18828 H 519.096 -3.41248 -7.98759 0
M  V30 18829 H 519.368 -2.5837 -6.41742 0
M  V30 18830 H 518.5 -5.02657 -6.42673 0
M  V30 18831 P 514.537 -6.144 -6.45285 0
M  V30 18832 O 514.317 -7.54673 -6.86199 0
M  V30 18833 O 513.747 -5.12391 -7.179 0
M  V30 18834 O 514.287 -5.99158 -4.88404 0
M  V30 18835 C 515.227 -6.60234 -3.96415 0
M  V30 18836 C 514.497 -7.08259 -2.72856 0
M  V30 18837 O 514.287 -5.9427 -1.83651 0
M  V30 18838 C 513.097 -7.64886 -2.9555 0
M  V30 18839 O 512.707 -8.53963 -1.90717 0
M  V30 18840 C 512.217 -6.4116 -2.90739 0
M  V30 18841 C 512.927 -5.55375 -1.86963 0
M  V30 18842 N 512.877 -4.09664 -2.15742 0
M  V30 18843 C 512.957 -3.44381 -3.37233 0
M  V30 18844 N 512.877 -2.14131 -3.28347 0
M  V30 18845 C 512.737 -1.90247 -1.91588 0
M  V30 18846 C 512.607 -0.683992 -1.20892 0
M  V30 18847 N 512.487 -0.903396 0.173998 0
M  V30 18848 C 512.487 -2.14171 0.784879 0
M  V30 18849 N 512.357 -2.1435 2.11317 0
M  V30 18850 N 512.617 -3.28784 0.119316 0
M  V30 18851 C 512.737 -3.0977 -1.22194 0
M  V30 18852 H 515.716 -7.45574 -4.45629 0
M  V30 18853 H 515.988 -5.86232 -3.67314 0
M  V30 18854 H 515.12 -7.84412 -2.24479 0
M  V30 18855 P 511.157 -8.7635 -1.60911 0
M  V30 18856 O 510.937 -10.1388 -1.11561 0
M  V30 18857 O 510.367 -8.36503 -2.79617 0
M  V30 18858 O 510.907 -7.71806 -0.42951 0
M  V30 18859 C 511.847 -7.67148 0.673689 0
M  V30 18860 C 511.117 -7.33374 1.95559 0
M  V30 18861 O 510.907 -5.88721 2.00726 0
M  V30 18862 C 509.717 -7.92526 2.10483 0
M  V30 18863 O 509.327 -8.02971 3.47653 0
M  V30 18864 C 508.837 -6.89602 1.41652 0
M  V30 18865 C 509.547 -5.59201 1.75185 0
M  V30 18866 N 509.497 -4.58235 0.662552 0
M  V30 18867 H 512.336 -8.65116 0.777161 0
M  V30 18868 H 512.608 -6.90173 0.474152 0
M  V30 18869 H 511.74 -7.66548 2.79458 0
M  V30 18870 P 507.777 -8.03563 3.84925 0
M  V30 18871 O 507.557 -8.85821 5.0569 0
M  V30 18872 O 506.987 -8.41101 2.65469 0
M  V30 18873 O 507.527 -6.4965 4.18908 0
M  V30 18874 C 508.467 -5.81037 5.05421 0
M  V30 18875 C 507.737 -4.78366 5.89277 0
M  V30 18876 O 507.527 -3.58302 5.08433 0
M  V30 18877 C 506.337 -5.17448 6.36119 0
M  V30 18878 O 505.947 -4.45271 7.53232 0
M  V30 18879 C 505.457 -4.74639 5.19936 0
M  V30 18880 C 506.167 -3.49432 4.70418 0
M  V30 18881 N 506.117 -3.31776 3.22945 0
M  V30 18882 H 508.956 -6.54213 5.71376 0
M  V30 18883 H 509.228 -5.30492 4.44033 0
M  V30 18884 H 508.36 -4.55889 6.76652 0
M  V30 18885 P 504.397 -4.23843 7.83734 0
M  V30 18886 O 504.177 -4.19407 9.29784 0
M  V30 18887 O 503.607 -5.24426 7.09156 0
M  V30 18888 O 504.147 -2.7935 7.20758 0
M  V30 18889 C 505.087 -1.7299 7.50419 0
M  V30 18890 C 504.357 -0.406376 7.57911 0
M  V30 18891 O 504.147 0.0897726 6.21935 0
M  V30 18892 C 502.957 -0.447224 8.1878 0
M  V30 18893 O 502.567 0.825065 8.71101 0
M  V30 18894 C 502.077 -0.783801 6.99623 0
M  V30 18895 C 502.787 -0.0619192 5.85967 0
M  V30 18896 N 502.737 -0.7859 4.56281 0
M  V30 18897 H 505.576 -1.93423 8.4679 0
M  V30 18898 H 505.848 -1.68181 6.71046 0
M  V30 18899 H 504.98 0.289041 8.15388 0
M  V30 18900 P 501.017 1.17771 8.83182 0
M  V30 18901 O 500.797 2.07206 9.98732 0
M  V30 18902 O 500.227 -0.0743816 8.81969 0
M  V30 18903 O 500.767 1.97652 7.47304 0
M  V30 18904 C 501.707 3.01055 7.08599 0
M  V30 18905 C 500.977 4.12613 6.37049 0
M  V30 18906 O 500.767 3.72827 4.97879 0
M  V30 18907 C 499.577 4.45719 6.88164 0
M  V30 18908 O 499.187 5.7877 6.5624 0
M  V30 18909 C 498.697 3.47768 6.11991 0
M  V30 18910 C 499.407 3.39356 4.77615 0
M  V30 18911 N 499.357 2.04571 4.15244 0
M  V30 18912 C 499.207 1.98587 2.78314 0
M  V30 18913 O 499.117 2.98134 2.08835 0
M  V30 18914 N 499.167 0.714467 2.24925 0
M  V30 18915 C 499.257 -0.470001 2.94169 0
M  V30 18916 O 499.207 -1.55587 2.35195 0
M  V30 18917 C 499.407 -0.312541 4.36783 0
M  V30 18918 C 499.517 -1.57711 5.16352 0
M  V30 18919 C 499.457 0.914512 4.92583 0
M  V30 18920 H 502.198 3.41169 7.98575 0
M  V30 18921 H 502.467 2.58295 6.41556 0
M  V30 18922 H 501.6 5.02657 6.42673 0
M  V30 18923 H 498.945 4.11637 4.08885 0
M  V30 18924 H 498.666 2.49626 6.61679 0
M  V30 18925 H 497.674 3.86566 6.00778 0
M  V30 18926 H 499.508 4.29943 7.96918 0
M  V30 18927 H 499.579 1.00937 6.00374 0
M  V30 18928 H 498.549 -1.80153 5.63503 0
M  V30 18929 H 500.286 -1.4566 5.94104 0
M  V30 18930 H 499.798 -2.40664 4.49645 0
M  V30 18931 H 499.062 0.647622 1.25697 0
M  V30 18932 P 497.637 6.144 6.45285 0
M  V30 18933 O 497.417 7.54673 6.86199 0
M  V30 18934 O 496.847 5.12391 7.179 0
M  V30 18935 O 497.387 5.99158 4.88404 0
M  V30 18936 C 498.327 6.60234 3.96415 0
M  V30 18937 C 497.597 7.08259 2.72856 0
M  V30 18938 O 497.387 5.9427 1.83651 0
M  V30 18939 C 496.197 7.64886 2.9555 0
M  V30 18940 O 495.807 8.53963 1.90717 0
M  V30 18941 C 495.317 6.4116 2.90739 0
M  V30 18942 C 496.027 5.55375 1.86963 0
M  V30 18943 N 495.977 4.09664 2.15742 0
M  V30 18944 H 498.816 7.45574 4.45629 0
M  V30 18945 H 499.088 5.86232 3.67314 0
M  V30 18946 H 498.22 7.84412 2.24479 0
M  V30 18947 P 494.257 8.7635 1.60911 0
M  V30 18948 O 494.037 10.1388 1.11561 0
M  V30 18949 O 493.467 8.36503 2.79617 0
M  V30 18950 O 494.007 7.71806 0.42951 0
M  V30 18951 C 494.947 7.67148 -0.673689 0
M  V30 18952 C 494.217 7.33374 -1.95559 0
M  V30 18953 O 494.007 5.88721 -2.00726 0
M  V30 18954 C 492.817 7.92526 -2.10483 0
M  V30 18955 O 492.427 8.02971 -3.47653 0
M  V30 18956 C 491.937 6.89602 -1.41652 0
M  V30 18957 C 492.647 5.59201 -1.75185 0
M  V30 18958 N 492.597 4.58235 -0.662552 0
M  V30 18959 H 495.436 8.65116 -0.777161 0
M  V30 18960 H 495.708 6.90173 -0.474152 0
M  V30 18961 H 494.84 7.66548 -2.79458 0
M  V30 18962 P 490.877 8.03563 -3.84925 0
M  V30 18963 O 490.657 8.85821 -5.0569 0
M  V30 18964 O 490.087 8.41101 -2.65469 0
M  V30 18965 O 490.627 6.4965 -4.18908 0
M  V30 18966 C 491.567 5.81037 -5.05421 0
M  V30 18967 C 490.837 4.78366 -5.89277 0
M  V30 18968 O 490.627 3.58302 -5.08433 0
M  V30 18969 C 489.437 5.17448 -6.36119 0
M  V30 18970 O 489.047 4.45271 -7.53232 0
M  V30 18971 C 488.557 4.74639 -5.19936 0
M  V30 18972 C 489.267 3.49432 -4.70418 0
M  V30 18973 N 489.217 3.32099 -3.22613 0
M  V30 18974 H 492.056 6.54213 -5.71376 0
M  V30 18975 H 492.328 5.30936 -4.43503 0
M  V30 18976 H 491.46 4.55889 -6.76652 0
M  V30 18977 H 488.805 2.61715 -5.17932 0
M  V30 18978 H 488.525 5.52155 -4.41878 0
M  V30 18979 H 487.534 4.51981 -5.53374 0
M  V30 18980 H 489.368 6.25124 -6.55234 0
M  V30 18981 P 487.497 4.23843 -7.83734 0
M  V30 18982 O 487.277 4.19407 -9.29784 0
M  V30 18983 O 486.707 5.24426 -7.09156 0
M  V30 18984 O 487.247 2.7935 -7.20758 0
M  V30 18985 C 488.187 1.7299 -7.50419 0
M  V30 18986 C 487.457 0.406376 -7.57911 0
M  V30 18987 O 487.247 -0.0897726 -6.21935 0
M  V30 18988 C 486.057 0.447224 -8.1878 0
M  V30 18989 O 485.667 -0.825065 -8.71101 0
M  V30 18990 C 485.177 0.783801 -6.99623 0
M  V30 18991 C 485.887 0.0619192 -5.85967 0
M  V30 18992 N 485.837 0.790462 -4.56202 0
M  V30 18993 H 488.676 1.93423 -8.4679 0
M  V30 18994 H 488.948 1.68852 -6.70877 0
M  V30 18995 H 488.08 -0.289041 -8.15388 0
M  V30 18996 H 485.425 -0.927006 -5.72848 0
M  V30 18997 H 485.145 1.86973 -6.82036 0
M  V30 18998 H 484.154 0.403953 -7.13357 0
M  V30 18999 H 485.988 1.20599 -8.97534 0
M  V30 19000 P 484.117 -1.17771 -8.83182 0
M  V30 19001 O 483.897 -2.07206 -9.98732 0
M  V30 19002 O 483.327 0.0743816 -8.81969 0
M  V30 19003 O 483.867 -1.97652 -7.47304 0
M  V30 19004 C 484.807 -3.01133 -7.08783 0
M  V30 19005 C 484.077 -4.12613 -6.37049 0
M  V30 19006 O 483.867 -3.72827 -4.97879 0
M  V30 19007 C 482.677 -4.45085 -6.88694 0
M  V30 19008 O 482.287 -5.7877 -6.5624 0
M  V30 19009 C 481.797 -3.47817 -6.12078 0
M  V30 19010 C 482.507 -3.39414 -4.77697 0
M  V30 19011 N 482.457 -2.04199 -4.15538 0
M  V30 19012 H 485.296 -3.41248 -7.98759 0
M  V30 19013 H 485.568 -2.57728 -6.42 0
M  V30 19014 H 484.7 -5.02657 -6.42673 0
M  V30 19015 H 482.045 -4.11708 -4.08956 0
M  V30 19016 H 481.765 -2.49626 -6.61679 0
M  V30 19017 H 480.774 -3.8662 -6.00862 0
M  V30 19018 H 482.608 -4.29991 -7.97006 0
M  V30 19019 P 480.737 -6.144 -6.45285 0
M  V30 19020 O 480.517 -7.54673 -6.86199 0
M  V30 19021 O 479.947 -5.12391 -7.179 0
M  V30 19022 O 480.487 -5.99158 -4.88404 0
M  V30 19023 C 481.427 -6.60234 -3.96415 0
M  V30 19024 C 480.697 -7.08259 -2.72856 0
M  V30 19025 O 480.487 -5.9427 -1.83651 0
M  V30 19026 C 479.297 -7.64886 -2.9555 0
M  V30 19027 O 478.907 -8.53963 -1.90717 0
M  V30 19028 C 478.417 -6.4116 -2.90739 0
M  V30 19029 C 479.127 -5.55375 -1.86963 0
M  V30 19030 N 479.077 -4.09664 -2.15742 0
M  V30 19031 H 481.916 -7.45574 -4.45629 0
M  V30 19032 H 482.188 -5.86232 -3.67314 0
M  V30 19033 H 481.32 -7.84412 -2.24479 0
M  V30 19034 P 477.357 -8.7635 -1.60911 0
M  V30 19035 O 477.137 -10.1388 -1.11561 0
M  V30 19036 O 476.567 -8.36503 -2.79617 0
M  V30 19037 O 477.107 -7.71806 -0.42951 0
M  V30 19038 C 478.047 -7.66948 0.673514 0
M  V30 19039 C 477.317 -7.33374 1.95559 0
M  V30 19040 O 477.107 -5.88721 2.00726 0
M  V30 19041 C 475.917 -7.92218 2.1125 0
M  V30 19042 O 475.527 -8.02971 3.47653 0
M  V30 19043 C 475.037 -6.89504 1.41631 0
M  V30 19044 C 475.747 -5.59106 1.75155 0
M  V30 19045 N 475.697 -4.58136 0.662409 0
M  V30 19046 C 475.547 -3.26059 1.02863 0
M  V30 19047 O 475.457 -2.90743 2.19009 0
M  V30 19048 N 475.507 -2.35995 -0.0155585 0
M  V30 19049 C 475.597 -2.65248 -1.35603 0
M  V30 19050 O 475.547 -1.75605 -2.20651 0
M  V30 19051 C 475.747 -4.05747 -1.64698 0
M  V30 19052 C 475.857 -4.42345 -3.09553 0
M  V30 19053 C 475.797 -4.96734 -0.652411 0
M  V30 19054 H 478.538 -8.64917 0.776982 0
M  V30 19055 H 478.807 -6.89974 0.474015 0
M  V30 19056 H 477.94 -7.66548 2.79458 0
M  V30 19057 H 475.285 -5.16076 2.65138 0
M  V30 19058 H 475.006 -7.06433 0.329384 0
M  V30 19059 H 474.014 -6.90829 1.81996 0
M  V30 19060 H 475.848 -8.90774 1.62639 0
M  V30 19061 H 475.919 -6.02181 -0.895285 0
M  V30 19062 H 474.889 -4.80252 -3.45468 0
M  V30 19063 H 476.626 -5.20015 -3.22119 0
M  V30 19064 H 476.138 -3.53269 -3.67833 0
M  V30 19065 H 475.402 -1.39558 0.227499 0
M  V30 19066 P 473.977 -8.03563 3.84925 0
M  V30 19067 O 473.757 -8.85821 5.0569 0
M  V30 19068 O 473.187 -8.41101 2.65469 0
M  V30 19069 O 473.727 -6.4965 4.18908 0
M  V30 19070 C 474.667 -5.81037 5.05421 0
M  V30 19071 C 473.937 -4.78366 5.89277 0
M  V30 19072 O 473.727 -3.58302 5.08433 0
M  V30 19073 C 472.537 -5.17448 6.36119 0
M  V30 19074 O 472.147 -4.45271 7.53232 0
M  V30 19075 C 471.657 -4.74639 5.19936 0
M  V30 19076 C 472.367 -3.49432 4.70418 0
M  V30 19077 N 472.317 -3.31776 3.22945 0
M  V30 19078 H 475.156 -6.54213 5.71376 0
M  V30 19079 H 475.428 -5.30492 4.44033 0
M  V30 19080 H 474.56 -4.55889 6.76652 0
M  V30 19081 P 470.597 -4.23843 7.83734 0
M  V30 19082 O 470.377 -4.19407 9.29784 0
M  V30 19083 O 469.807 -5.24426 7.09156 0
M  V30 19084 O 470.347 -2.7935 7.20758 0
M  V30 19085 C 471.287 -1.7299 7.50419 0
M  V30 19086 C 470.557 -0.406376 7.57911 0
M  V30 19087 O 470.347 0.0897726 6.21935 0
M  V30 19088 C 469.157 -0.447224 8.1878 0
M  V30 19089 O 468.767 0.825065 8.71101 0
M  V30 19090 C 468.277 -0.783801 6.99623 0
M  V30 19091 C 468.987 -0.0619192 5.85967 0
M  V30 19092 N 468.937 -0.7859 4.56281 0
M  V30 19093 C 469.017 -2.14308 4.31736 0
M  V30 19094 N 468.937 -2.46106 3.05116 0
M  V30 19095 C 468.797 -1.23422 2.4014 0
M  V30 19096 C 468.667 -0.938381 1.02409 0
M  V30 19097 N 468.547 0.444647 0.805413 0
M  V30 19098 C 468.547 1.40829 1.79435 0
M  V30 19099 N 468.417 2.67213 1.38558 0
M  V30 19100 N 468.677 1.12947 3.09005 0
M  V30 19101 C 468.797 -0.204887 3.32369 0
M  V30 19102 H 471.776 -1.93423 8.4679 0
M  V30 19103 H 472.048 -1.68181 6.71046 0
M  V30 19104 H 471.18 0.289041 8.15388 0
M  V30 19105 P 467.217 1.17771 8.83182 0
M  V30 19106 O 466.997 2.07206 9.98732 0
M  V30 19107 O 466.427 -0.0743816 8.81969 0
M  V30 19108 O 466.967 1.97652 7.47304 0
M  V30 19109 C 467.907 3.01133 7.08783 0
M  V30 19110 C 467.177 4.12613 6.37049 0
M  V30 19111 O 466.967 3.72827 4.97879 0
M  V30 19112 C 465.777 4.45085 6.88694 0
M  V30 19113 O 465.387 5.7877 6.5624 0
M  V30 19114 C 464.897 3.47817 6.12078 0
M  V30 19115 C 465.607 3.39414 4.77697 0
M  V30 19116 N 465.557 2.04615 4.15333 0
M  V30 19117 H 468.396 3.41248 7.98759 0
M  V30 19118 H 468.668 2.5837 6.41742 0
M  V30 19119 H 467.8 5.02657 6.42673 0
M  V30 19120 P 463.837 6.144 6.45285 0
M  V30 19121 O 463.617 7.54673 6.86199 0
M  V30 19122 O 463.047 5.12391 7.179 0
M  V30 19123 O 463.587 5.99158 4.88404 0
M  V30 19124 C 464.527 6.60234 3.96415 0
M  V30 19125 C 463.797 7.08259 2.72856 0
M  V30 19126 O 463.587 5.9427 1.83651 0
M  V30 19127 C 462.397 7.64886 2.9555 0
M  V30 19128 O 462.007 8.53963 1.90717 0
M  V30 19129 C 461.517 6.4116 2.90739 0
M  V30 19130 C 462.227 5.55375 1.86963 0
M  V30 19131 N 462.177 4.09448 2.16152 0
M  V30 19132 H 465.016 7.45574 4.45629 0
M  V30 19133 H 465.288 5.85864 3.679 0
M  V30 19134 H 464.42 7.84412 2.24479 0
M  V30 19135 H 461.765 5.73457 0.888562 0
M  V30 19136 H 461.485 5.90877 3.88583 0
M  V30 19137 H 460.494 6.6596 2.58858 0
M  V30 19138 H 462.328 8.16339 3.92049 0
M  V30 19139 P 460.457 8.7635 1.60911 0
M  V30 19140 O 460.237 10.1388 1.11561 0
M  V30 19141 O 459.667 8.36503 2.79617 0
M  V30 19142 O 460.207 7.71806 0.42951 0
M  V30 19143 C 461.147 7.67148 -0.673689 0
M  V30 19144 C 460.417 7.33374 -1.95559 0
M  V30 19145 O 460.207 5.88721 -2.00726 0
M  V30 19146 C 459.017 7.92526 -2.10483 0
M  V30 19147 O 458.627 8.02971 -3.47653 0
M  V30 19148 C 458.137 6.89602 -1.41652 0
M  V30 19149 C 458.847 5.59201 -1.75185 0
M  V30 19150 N 458.797 4.58235 -0.662552 0
M  V30 19151 H 461.636 8.65116 -0.777161 0
M  V30 19152 H 461.908 6.90173 -0.474152 0
M  V30 19153 H 461.04 7.66548 -2.79458 0
M  V30 19154 P 457.077 8.03563 -3.84925 0
M  V30 19155 O 456.857 8.85821 -5.0569 0
M  V30 19156 O 456.287 8.41101 -2.65469 0
M  V30 19157 O 456.827 6.4965 -4.18908 0
M  V30 19158 C 457.767 5.81037 -5.05421 0
M  V30 19159 C 457.037 4.78366 -5.89277 0
M  V30 19160 O 456.827 3.58302 -5.08433 0
M  V30 19161 C 455.637 5.17448 -6.36119 0
M  V30 19162 O 455.247 4.45271 -7.53232 0
M  V30 19163 C 454.757 4.74639 -5.19936 0
M  V30 19164 C 455.467 3.49432 -4.70418 0
M  V30 19165 N 455.417 3.31776 -3.22945 0
M  V30 19166 H 458.256 6.54213 -5.71376 0
M  V30 19167 H 458.528 5.30492 -4.44033 0
M  V30 19168 H 457.66 4.55889 -6.76652 0
M  V30 19169 P 453.697 4.23843 -7.83734 0
M  V30 19170 O 453.477 4.19407 -9.29784 0
M  V30 19171 O 452.907 5.24426 -7.09156 0
M  V30 19172 O 453.447 2.7935 -7.20758 0
M  V30 19173 C 454.387 1.7299 -7.50419 0
M  V30 19174 C 453.657 0.406376 -7.57911 0
M  V30 19175 O 453.447 -0.0897726 -6.21935 0
M  V30 19176 C 452.257 0.447224 -8.1878 0
M  V30 19177 O 451.867 -0.825065 -8.71101 0
M  V30 19178 C 451.377 0.783801 -6.99623 0
M  V30 19179 C 452.087 0.0619192 -5.85967 0
M  V30 19180 N 452.037 0.7859 -4.56281 0
M  V30 19181 C 452.117 2.14308 -4.31736 0
M  V30 19182 N 452.037 2.46106 -3.05116 0
M  V30 19183 C 451.897 1.23422 -2.4014 0
M  V30 19184 C 451.767 0.938381 -1.02409 0
M  V30 19185 N 451.647 -0.444647 -0.805413 0
M  V30 19186 C 451.647 -1.40829 -1.79435 0
M  V30 19187 N 451.517 -2.67213 -1.38558 0
M  V30 19188 N 451.777 -1.12947 -3.09005 0
M  V30 19189 C 451.897 0.204887 -3.32369 0
M  V30 19190 H 454.876 1.93423 -8.4679 0
M  V30 19191 H 455.148 1.68181 -6.71046 0
M  V30 19192 H 454.28 -0.289041 -8.15388 0
M  V30 19193 P 450.317 -1.17771 -8.83182 0
M  V30 19194 O 450.097 -2.07206 -9.98732 0
M  V30 19195 O 449.527 0.0743816 -8.81969 0
M  V30 19196 O 450.067 -1.97678 -7.474 0
M  V30 19197 C 451.007 -3.01133 -7.08783 0
M  V30 19198 C 450.277 -4.1203 -6.37546 0
M  V30 19199 O 450.067 -3.72887 -4.9796 0
M  V30 19200 C 448.877 -4.45085 -6.88694 0
M  V30 19201 O 448.487 -5.78836 -6.56315 0
M  V30 19202 C 447.997 -3.47817 -6.12078 0
M  V30 19203 C 448.707 -3.39414 -4.77697 0
M  V30 19204 N 448.657 -2.04615 -4.15333 0
M  V30 19205 C 448.507 -1.96929 -2.77162 0
M  V30 19206 O 448.417 -3.02017 -2.12006 0
M  V30 19207 N 448.457 -0.55485 -2.24237 0
M  V30 19208 C 448.557 0.367808 -2.9169 0
M  V30 19209 N 448.507 1.53426 -2.29427 0
M  V30 19210 C 448.707 0.319148 -4.33828 0
M  V30 19211 C 448.757 -0.920672 -4.90433 0
M  V30 19212 H 451.497 -3.41209 -7.98667 0
M  V30 19213 H 451.767 -2.5837 -6.41742 0
M  V30 19214 H 450.9 -5.02718 -6.42752 0
M  V30 19215 H 448.245 -4.11779 -4.09026 0
M  V30 19216 H 447.965 -2.49661 -6.61772 0
M  V30 19217 H 446.974 -3.86674 -6.00946 0
M  V30 19218 H 448.808 -4.29991 -7.97006 0
M  V30 19219 H 448.88 -1.00589 -5.98303 0
M  V30 19220 H 448.778 1.22639 -4.93799 0
M  V30 19221 H 448.39 1.56819 -1.27167 0
M  V30 19222 H 448.586 2.41062 -2.83063 0
M  V30 19223 P 446.937 -6.144 -6.45285 0
M  V30 19224 O 446.717 -7.54673 -6.86199 0
M  V30 19225 O 446.147 -5.12391 -7.179 0
M  V30 19226 O 446.687 -5.99158 -4.88404 0
M  V30 19227 C 447.627 -6.60234 -3.96415 0
M  V30 19228 C 446.897 -7.08259 -2.72856 0
M  V30 19229 O 446.687 -5.9427 -1.83651 0
M  V30 19230 C 445.497 -7.64886 -2.9555 0
M  V30 19231 O 445.107 -8.53963 -1.90717 0
M  V30 19232 C 444.617 -6.4116 -2.90739 0
M  V30 19233 C 445.327 -5.55375 -1.86963 0
M  V30 19234 N 445.277 -4.09448 -2.16152 0
M  V30 19235 C 445.357 -3.46824 -3.37593 0
M  V30 19236 N 445.287 -2.17422 -3.29777 0
M  V30 19237 C 445.137 -1.93065 -1.94427 0
M  V30 19238 C 445.007 -0.738053 -1.20141 0
M  V30 19239 N 444.997 0.474256 -1.74676 0
M  V30 19240 N 444.887 -0.850049 0.13045 0
M  V30 19241 C 444.897 -2.06169 0.676992 0
M  V30 19242 N 445.017 -3.23842 0.101312 0
M  V30 19243 C 445.137 -3.09402 -1.23122 0
M  V30 19244 H 448.116 -7.45574 -4.45629 0
M  V30 19245 H 448.388 -5.85864 -3.679 0
M  V30 19246 H 447.52 -7.84412 -2.24479 0
M  V30 19247 H 444.865 -5.73457 -0.888562 0
M  V30 19248 H 444.585 -5.90877 -3.88583 0
M  V30 19249 H 443.594 -6.6596 -2.58858 0
M  V30 19250 H 445.428 -8.16339 -3.92049 0
M  V30 19251 H 445.469 -4.00505 -4.3174 0
M  V30 19252 H 445.088 0.581337 -2.76658 0
M  V30 19253 H 444.899 1.30811 -1.14888 0
M  V30 19254 H 444.791 -2.08295 1.75542 0
M  V30 19255 P 443.557 -8.7635 -1.60911 0
M  V30 19256 O 443.337 -10.1388 -1.11561 0
M  V30 19257 O 442.767 -8.36503 -2.79617 0
M  V30 19258 O 443.307 -7.71806 -0.42951 0
M  V30 19259 C 444.247 -7.67148 0.673689 0
M  V30 19260 C 443.517 -7.33374 1.95559 0
M  V30 19261 O 443.307 -5.88721 2.00726 0
M  V30 19262 C 442.117 -7.92526 2.10483 0
M  V30 19263 O 441.727 -8.02971 3.47653 0
M  V30 19264 C 441.237 -6.89602 1.41652 0
M  V30 19265 C 441.947 -5.59201 1.75185 0
M  V30 19266 N 441.897 -4.58235 0.662552 0
M  V30 19267 H 444.736 -8.65116 0.777161 0
M  V30 19268 H 445.008 -6.90173 0.474152 0
M  V30 19269 H 444.14 -7.66548 2.79458 0
M  V30 19270 P 440.177 -8.03563 3.84925 0
M  V30 19271 O 439.957 -8.85821 5.0569 0
M  V30 19272 O 439.387 -8.41101 2.65469 0
M  V30 19273 O 439.927 -6.49734 4.18962 0
M  V30 19274 C 440.867 -5.81037 5.05421 0
M  V30 19275 C 440.137 -4.79018 5.88876 0
M  V30 19276 O 439.927 -3.58359 5.08515 0
M  V30 19277 C 438.737 -5.17448 6.36119 0
M  V30 19278 O 438.347 -4.45322 7.53318 0
M  V30 19279 C 437.857 -4.74639 5.19936 0
M  V30 19280 C 438.567 -3.49432 4.70418 0
M  V30 19281 N 438.517 -3.31776 3.22945 0
M  V30 19282 C 438.367 -2.02742 2.72939 0
M  V30 19283 O 438.277 -1.08301 3.52749 0
M  V30 19284 N 438.317 -1.96117 1.22063 0
M  V30 19285 C 438.417 -2.8878 0.551566 0
M  V30 19286 N 438.367 -2.65609 -0.750198 0
M  V30 19287 C 438.567 -4.22457 1.03707 0
M  V30 19288 C 438.617 -4.37979 2.39113 0
M  V30 19289 H 441.357 -6.54138 5.7131 0
M  V30 19290 H 441.627 -5.30492 4.44033 0
M  V30 19291 H 440.76 -4.55945 6.76735 0
M  V30 19292 H 438.105 -2.6176 5.18021 0
M  V30 19293 H 437.825 -5.52233 4.41941 0
M  V30 19294 H 436.834 -4.52045 5.53452 0
M  V30 19295 H 438.668 -6.25124 6.55234 0
M  V30 19296 H 438.74 -5.37936 2.80552 0
M  V30 19297 H 438.638 -5.07528 0.359553 0
M  V30 19298 H 438.25 -1.69403 -1.09847 0
M  V30 19299 H 438.446 -3.43701 -1.41792 0
M  V30 19300 P 436.797 -4.23843 7.83734 0
M  V30 19301 O 436.577 -4.19407 9.29784 0
M  V30 19302 O 436.007 -5.24426 7.09156 0
M  V30 19303 O 436.547 -2.7935 7.20758 0
M  V30 19304 C 437.487 -1.7299 7.50419 0
M  V30 19305 C 436.757 -0.406376 7.57911 0
M  V30 19306 O 436.547 0.0897726 6.21935 0
M  V30 19307 C 435.357 -0.447224 8.1878 0
M  V30 19308 O 434.967 0.825065 8.71101 0
M  V30 19309 C 434.477 -0.783801 6.99623 0
M  V30 19310 C 435.187 -0.0619192 5.85967 0
M  V30 19311 N 435.137 -0.790462 4.56202 0
M  V30 19312 C 435.217 -2.13895 4.34171 0
M  V30 19313 N 435.147 -2.46449 3.08687 0
M  V30 19314 C 434.997 -1.2525 2.43697 0
M  V30 19315 C 434.867 -0.914535 1.07318 0
M  V30 19316 N 434.857 -1.80782 0.0887348 0
M  V30 19317 N 434.747 0.386745 0.768133 0
M  V30 19318 C 434.757 1.28096 1.75159 0
M  V30 19319 N 434.877 1.09708 3.04861 0
M  V30 19320 C 434.997 -0.214857 3.32306 0
M  V30 19321 H 437.976 -1.93423 8.4679 0
M  V30 19322 H 438.248 -1.68852 6.70877 0
M  V30 19323 H 437.38 0.289041 8.15388 0
M  V30 19324 H 434.725 0.927006 5.72848 0
M  V30 19325 H 434.445 -1.86973 6.82036 0
M  V30 19326 H 433.454 -0.403953 7.13357 0
M  V30 19327 H 435.288 -1.20599 8.97534 0
M  V30 19328 H 435.329 -2.86846 5.14318 0
M  V30 19329 H 434.948 -2.81082 0.302037 0
M  V30 19330 H 434.759 -1.49688 -0.889064 0
M  V30 19331 H 434.651 2.31317 1.43855 0
M  V30 19332 P 433.417 1.17771 8.83182 0
M  V30 19333 O 433.197 2.07206 9.98732 0
M  V30 19334 O 432.627 -0.0743816 8.81969 0
M  V30 19335 O 433.167 1.97652 7.47304 0
M  V30 19336 C 434.107 3.01133 7.08783 0
M  V30 19337 C 433.377 4.12613 6.37049 0
M  V30 19338 O 433.167 3.72827 4.97879 0
M  V30 19339 C 431.977 4.45085 6.88694 0
M  V30 19340 O 431.587 5.7877 6.5624 0
M  V30 19341 C 431.097 3.47817 6.12078 0
M  V30 19342 C 431.807 3.39414 4.77697 0
M  V30 19343 N 431.757 2.04199 4.15538 0
M  V30 19344 H 434.596 3.41248 7.98759 0
M  V30 19345 H 434.868 2.57728 6.42 0
M  V30 19346 H 434 5.02657 6.42673 0
M  V30 19347 H 431.345 4.11708 4.08956 0
M  V30 19348 H 431.065 2.49626 6.61679 0
M  V30 19349 H 430.074 3.8662 6.00862 0
M  V30 19350 H 431.908 4.29991 7.97006 0
M  V30 19351 P 430.037 6.144 6.45285 0
M  V30 19352 O 429.817 7.54673 6.86199 0
M  V30 19353 O 429.247 5.12391 7.179 0
M  V30 19354 O 429.787 5.99158 4.88404 0
M  V30 19355 C 430.727 6.60234 3.96415 0
M  V30 19356 C 429.997 7.08259 2.72856 0
M  V30 19357 O 429.787 5.9427 1.83651 0
M  V30 19358 C 428.597 7.64886 2.9555 0
M  V30 19359 O 428.207 8.53963 1.90717 0
M  V30 19360 C 427.717 6.4116 2.90739 0
M  V30 19361 C 428.427 5.55375 1.86963 0
M  V30 19362 N 428.377 4.09664 2.15742 0
M  V30 19363 H 431.216 7.45574 4.45629 0
M  V30 19364 H 431.488 5.86232 3.67314 0
M  V30 19365 H 430.62 7.84412 2.24479 0
M  V30 19366 P 426.657 8.7635 1.60911 0
M  V30 19367 O 426.437 10.1388 1.11561 0
M  V30 19368 O 425.867 8.36503 2.79617 0
M  V30 19369 O 426.407 7.71806 0.42951 0
M  V30 19370 C 427.347 7.67148 -0.673689 0
M  V30 19371 C 426.617 7.33374 -1.95559 0
M  V30 19372 O 426.407 5.88721 -2.00726 0
M  V30 19373 C 425.217 7.92526 -2.10483 0
M  V30 19374 O 424.827 8.02971 -3.47653 0
M  V30 19375 C 424.337 6.89602 -1.41652 0
M  V30 19376 C 425.047 5.59201 -1.75185 0
M  V30 19377 N 424.997 4.58301 -0.657969 0
M  V30 19378 H 427.836 8.65116 -0.777161 0
M  V30 19379 H 428.108 6.9022 -0.46725 0
M  V30 19380 H 427.24 7.66548 -2.79458 0
M  V30 19381 H 424.585 5.16165 -2.65183 0
M  V30 19382 H 424.305 7.06433 -0.329384 0
M  V30 19383 H 423.314 6.90926 -1.82021 0
M  V30 19384 H 425.148 8.90873 -1.62657 0
M  V30 19385 P 423.278 8.03563 -3.84925 0
M  V30 19386 O 423.058 8.85821 -5.0569 0
M  V30 19387 O 422.488 8.41101 -2.65469 0
M  V30 19388 O 423.028 6.4965 -4.18908 0
M  V30 19389 C 423.968 5.81037 -5.05421 0
M  V30 19390 C 423.238 4.78366 -5.89277 0
M  V30 19391 O 423.028 3.58302 -5.08433 0
M  V30 19392 C 421.838 5.17448 -6.36119 0
M  V30 19393 O 421.448 4.45271 -7.53232 0
M  V30 19394 C 420.958 4.74639 -5.19936 0
M  V30 19395 C 421.668 3.49432 -4.70418 0
M  V30 19396 N 421.618 3.31776 -3.22945 0
M  V30 19397 H 424.457 6.54213 -5.71376 0
M  V30 19398 H 424.729 5.30492 -4.44033 0
M  V30 19399 H 423.861 4.55889 -6.76652 0
M  V30 19400 P 419.898 4.23843 -7.83734 0
M  V30 19401 O 419.678 4.19407 -9.29784 0
M  V30 19402 O 419.108 5.24426 -7.09156 0
M  V30 19403 O 419.648 2.7935 -7.20758 0
M  V30 19404 C 420.588 1.72945 -7.50224 0
M  V30 19405 C 419.858 0.406376 -7.57911 0
M  V30 19406 O 419.648 -0.0897726 -6.21935 0
M  V30 19407 C 418.458 0.438983 -8.18724 0
M  V30 19408 O 418.068 -0.825065 -8.71101 0
M  V30 19409 C 417.578 0.783689 -6.99524 0
M  V30 19410 C 418.288 0.0619086 -5.85867 0
M  V30 19411 N 418.238 0.78573 -4.56183 0
M  V30 19412 C 418.088 0.0292889 -3.41887 0
M  V30 19413 O 417.998 -1.18445 -3.4419 0
M  V30 19414 N 418.048 0.744061 -2.23964 0
M  V30 19415 C 418.138 2.10932 -2.10362 0
M  V30 19416 O 418.088 2.64117 -0.98825 0
M  V30 19417 C 418.288 2.8202 -3.34994 0
M  V30 19418 C 418.398 4.31095 -3.25037 0
M  V30 19419 C 418.338 2.15547 -4.52261 0
M  V30 19420 H 421.079 1.93379 -8.46595 0
M  V30 19421 H 421.348 1.68132 -6.70852 0
M  V30 19422 H 420.481 -0.289041 -8.15388 0
M  V30 19423 H 417.826 -0.926847 -5.72749 0
M  V30 19424 H 417.547 1.86973 -6.82036 0
M  V30 19425 H 416.555 0.403896 -7.13257 0
M  V30 19426 H 418.389 1.20585 -8.97435 0
M  V30 19427 H 418.46 2.71231 -5.45042 0
M  V30 19428 H 417.43 4.76966 -3.49992 0
M  V30 19429 H 419.167 4.67047 -3.95024 0
M  V30 19430 H 418.679 4.58996 -2.22312 0
M  V30 19431 H 417.943 0.214893 -1.39758 0
M  V30 19432 P 416.518 -1.17771 -8.83182 0
M  V30 19433 O 416.298 -2.07206 -9.98732 0
M  V30 19434 O 415.728 0.0743816 -8.81969 0
M  V30 19435 O 416.268 -1.97652 -7.47304 0
M  V30 19436 C 417.208 -3.01133 -7.08783 0
M  V30 19437 C 416.478 -4.12613 -6.37049 0
M  V30 19438 O 416.268 -3.72827 -4.97879 0
M  V30 19439 C 415.078 -4.45085 -6.88694 0
M  V30 19440 O 414.688 -5.7877 -6.5624 0
M  V30 19441 C 414.198 -3.47817 -6.12078 0
M  V30 19442 C 414.908 -3.39414 -4.77697 0
M  V30 19443 N 414.858 -2.04615 -4.15333 0
M  V30 19444 H 417.697 -3.41248 -7.98759 0
M  V30 19445 H 417.969 -2.5837 -6.41742 0
M  V30 19446 H 417.101 -5.02657 -6.42673 0
M  V30 19447 P 413.138 -6.144 -6.45285 0
M  V30 19448 O 412.918 -7.54673 -6.86199 0
M  V30 19449 O 412.348 -5.12391 -7.179 0
M  V30 19450 O 412.888 -5.99158 -4.88404 0
M  V30 19451 C 413.828 -6.60234 -3.96415 0
M  V30 19452 C 413.098 -7.08259 -2.72856 0
M  V30 19453 O 412.888 -5.9427 -1.83651 0
M  V30 19454 C 411.698 -7.64886 -2.9555 0
M  V30 19455 O 411.308 -8.53963 -1.90717 0
M  V30 19456 C 410.818 -6.4116 -2.90739 0
M  V30 19457 C 411.528 -5.55375 -1.86963 0
M  V30 19458 N 411.478 -4.09664 -2.15742 0
M  V30 19459 H 414.317 -7.45574 -4.45629 0
M  V30 19460 H 414.589 -5.86232 -3.67314 0
M  V30 19461 H 413.721 -7.84412 -2.24479 0
M  V30 19462 P 409.758 -8.7635 -1.60911 0
M  V30 19463 O 409.538 -10.1388 -1.11561 0
M  V30 19464 O 408.968 -8.36503 -2.79617 0
M  V30 19465 O 409.508 -7.71806 -0.42951 0
M  V30 19466 C 410.448 -7.67148 0.673689 0
M  V30 19467 C 409.718 -7.33374 1.95559 0
M  V30 19468 O 409.508 -5.88721 2.00726 0
M  V30 19469 C 408.318 -7.92526 2.10483 0
M  V30 19470 O 407.928 -8.02971 3.47653 0
M  V30 19471 C 407.438 -6.89602 1.41652 0
M  V30 19472 C 408.148 -5.59201 1.75185 0
M  V30 19473 N 408.098 -4.58235 0.662552 0
M  V30 19474 H 410.937 -8.65116 0.777161 0
M  V30 19475 H 411.209 -6.90173 0.474152 0
M  V30 19476 H 410.341 -7.66548 2.79458 0
M  V30 19477 P 406.378 -8.03563 3.84925 0
M  V30 19478 O 406.158 -8.85821 5.0569 0
M  V30 19479 O 405.588 -8.41101 2.65469 0
M  V30 19480 O 406.128 -6.4965 4.18908 0
M  V30 19481 C 407.068 -5.81037 5.05421 0
M  V30 19482 C 406.338 -4.78366 5.89277 0
M  V30 19483 O 406.128 -3.58302 5.08433 0
M  V30 19484 C 404.938 -5.17448 6.36119 0
M  V30 19485 O 404.548 -4.45271 7.53232 0
M  V30 19486 C 404.058 -4.74639 5.19936 0
M  V30 19487 C 404.768 -3.49432 4.70418 0
M  V30 19488 N 404.718 -3.32099 3.22613 0
M  V30 19489 H 407.557 -6.54213 5.71376 0
M  V30 19490 H 407.829 -5.30936 4.43503 0
M  V30 19491 H 406.961 -4.55889 6.76652 0
M  V30 19492 H 404.306 -2.61715 5.17932 0
M  V30 19493 H 404.026 -5.52155 4.41878 0
M  V30 19494 H 403.035 -4.51981 5.53374 0
M  V30 19495 H 404.869 -6.25124 6.55234 0
M  V30 19496 P 402.998 -4.23843 7.83734 0
M  V30 19497 O 402.778 -4.19407 9.29784 0
M  V30 19498 O 402.208 -5.24426 7.09156 0
M  V30 19499 O 402.748 -2.79386 7.20852 0
M  V30 19500 C 403.688 -1.7299 7.50419 0
M  V30 19501 C 402.958 -0.41401 7.5797 0
M  V30 19502 O 402.748 0.089787 6.22035 0
M  V30 19503 C 401.558 -0.447224 8.1878 0
M  V30 19504 O 401.168 0.825159 8.71201 0
M  V30 19505 C 400.678 -0.783801 6.99623 0
M  V30 19506 C 401.388 -0.0619192 5.85967 0
M  V30 19507 N 401.338 -0.7859 4.56281 0
M  V30 19508 C 401.188 -0.0359258 3.39981 0
M  V30 19509 O 401.098 1.19723 3.49038 0
M  V30 19510 N 401.138 -0.869151 2.14025 0
M  V30 19511 C 401.238 -2.01207 2.14363 0
M  V30 19512 N 401.188 -2.58978 0.954287 0
M  V30 19513 C 401.388 -2.80817 3.32215 0
M  V30 19514 C 401.438 -2.13785 4.50884 0
M  V30 19515 H 404.178 -1.93401 8.46693 0
M  V30 19516 H 404.448 -1.68181 6.71046 0
M  V30 19517 H 403.581 0.289076 8.15488 0
M  V30 19518 H 400.926 0.927166 5.72947 0
M  V30 19519 H 400.646 -1.87 6.82132 0
M  V30 19520 H 399.655 -0.404009 7.13457 0
M  V30 19521 H 401.489 -1.20599 8.97534 0
M  V30 19522 H 401.561 -2.70295 5.43162 0
M  V30 19523 H 401.459 -3.89465 3.27406 0
M  V30 19524 H 401.071 -2.01616 0.107046 0
M  V30 19525 H 401.267 -3.61403 0.873101 0
M  V30 19526 P 399.618 1.17771 8.83182 0
M  V30 19527 O 399.398 2.07206 9.98732 0
M  V30 19528 O 398.828 -0.0743816 8.81969 0
M  V30 19529 O 399.368 1.97652 7.47304 0
M  V30 19530 C 400.308 3.01133 7.08783 0
M  V30 19531 C 399.578 4.12613 6.37049 0
M  V30 19532 O 399.368 3.72827 4.97879 0
M  V30 19533 C 398.178 4.45085 6.88694 0
M  V30 19534 O 397.788 5.7877 6.5624 0
M  V30 19535 C 397.298 3.47817 6.12078 0
M  V30 19536 C 398.008 3.39414 4.77697 0
M  V30 19537 N 397.958 2.04615 4.15333 0
M  V30 19538 H 400.797 3.41248 7.98759 0
M  V30 19539 H 401.069 2.5837 6.41742 0
M  V30 19540 H 400.201 5.02657 6.42673 0
M  V30 19541 P 396.238 6.144 6.45285 0
M  V30 19542 O 396.018 7.54673 6.86199 0
M  V30 19543 O 395.448 5.12391 7.179 0
M  V30 19544 O 395.988 5.99158 4.88404 0
M  V30 19545 C 396.928 6.60234 3.96415 0
M  V30 19546 C 396.198 7.08259 2.72856 0
M  V30 19547 O 395.988 5.9427 1.83651 0
M  V30 19548 C 394.798 7.64886 2.9555 0
M  V30 19549 O 394.408 8.53963 1.90717 0
M  V30 19550 C 393.918 6.4116 2.90739 0
M  V30 19551 C 394.628 5.55375 1.86963 0
M  V30 19552 N 394.578 4.09448 2.16152 0
M  V30 19553 C 394.658 3.46824 3.37593 0
M  V30 19554 N 394.588 2.17422 3.29777 0
M  V30 19555 C 394.438 1.93065 1.94427 0
M  V30 19556 C 394.308 0.738053 1.20141 0
M  V30 19557 N 394.298 -0.474256 1.74676 0
M  V30 19558 N 394.188 0.850049 -0.13045 0
M  V30 19559 C 394.198 2.06169 -0.676992 0
M  V30 19560 N 394.318 3.23842 -0.101312 0
M  V30 19561 C 394.438 3.09402 1.23122 0
M  V30 19562 H 397.417 7.45574 4.45629 0
M  V30 19563 H 397.689 5.85864 3.679 0
M  V30 19564 H 396.821 7.84412 2.24479 0
M  V30 19565 H 394.166 5.73457 0.888562 0
M  V30 19566 H 393.886 5.90877 3.88583 0
M  V30 19567 H 392.895 6.6596 2.58858 0
M  V30 19568 H 394.729 8.16339 3.92049 0
M  V30 19569 H 394.77 4.00505 4.3174 0
M  V30 19570 H 394.389 -0.581337 2.76658 0
M  V30 19571 H 394.2 -1.30811 1.14888 0
M  V30 19572 H 394.092 2.08295 -1.75542 0
M  V30 19573 P 392.858 8.7635 1.60911 0
M  V30 19574 O 392.638 10.1388 1.11561 0
M  V30 19575 O 392.068 8.36503 2.79617 0
M  V30 19576 O 392.608 7.71806 0.42951 0
M  V30 19577 C 393.548 7.67148 -0.673689 0
M  V30 19578 C 392.818 7.33374 -1.95559 0
M  V30 19579 O 392.608 5.88721 -2.00726 0
M  V30 19580 C 391.418 7.92526 -2.10483 0
M  V30 19581 O 391.028 8.02971 -3.47653 0
M  V30 19582 C 390.538 6.89602 -1.41652 0
M  V30 19583 C 391.248 5.59201 -1.75185 0
M  V30 19584 N 391.198 4.58235 -0.662552 0
M  V30 19585 H 394.037 8.65116 -0.777161 0
M  V30 19586 H 394.309 6.90173 -0.474152 0
M  V30 19587 H 393.441 7.66548 -2.79458 0
M  V30 19588 P 389.478 8.03563 -3.84925 0
M  V30 19589 O 389.258 8.85821 -5.0569 0
M  V30 19590 O 388.688 8.41101 -2.65469 0
M  V30 19591 O 389.228 6.4965 -4.18908 0
M  V30 19592 C 390.168 5.81037 -5.05421 0
M  V30 19593 C 389.438 4.78366 -5.89277 0
M  V30 19594 O 389.228 3.58302 -5.08433 0
M  V30 19595 C 388.038 5.17448 -6.36119 0
M  V30 19596 O 387.648 4.45271 -7.53232 0
M  V30 19597 C 387.158 4.74639 -5.19936 0
M  V30 19598 C 387.868 3.49432 -4.70418 0
M  V30 19599 N 387.818 3.31776 -3.22945 0
M  V30 19600 H 390.657 6.54213 -5.71376 0
M  V30 19601 H 390.929 5.30492 -4.44033 0
M  V30 19602 H 390.061 4.55889 -6.76652 0
M  V30 19603 P 386.098 4.23843 -7.83734 0
M  V30 19604 O 385.878 4.19407 -9.29784 0
M  V30 19605 O 385.308 5.24426 -7.09156 0
M  V30 19606 O 385.848 2.7935 -7.20758 0
M  V30 19607 C 386.788 1.7299 -7.50419 0
M  V30 19608 C 386.058 0.406376 -7.57911 0
M  V30 19609 O 385.848 -0.0897726 -6.21935 0
M  V30 19610 C 384.658 0.447224 -8.1878 0
M  V30 19611 O 384.268 -0.825065 -8.71101 0
M  V30 19612 C 383.778 0.783801 -6.99623 0
M  V30 19613 C 384.488 0.0619192 -5.85967 0
M  V30 19614 N 384.438 0.7859 -4.56281 0
M  V30 19615 H 387.277 1.93423 -8.4679 0
M  V30 19616 H 387.549 1.68181 -6.71046 0
M  V30 19617 H 386.681 -0.289041 -8.15388 0
M  V30 19618 P 382.718 -1.17771 -8.83182 0
M  V30 19619 O 382.498 -2.07206 -9.98732 0
M  V30 19620 O 381.928 0.0743816 -8.81969 0
M  V30 19621 O 382.468 -1.97652 -7.47304 0
M  V30 19622 C 383.408 -3.01133 -7.08783 0
M  V30 19623 C 382.678 -4.12613 -6.37049 0
M  V30 19624 O 382.468 -3.72827 -4.97879 0
M  V30 19625 C 381.278 -4.45085 -6.88694 0
M  V30 19626 O 380.888 -5.7877 -6.5624 0
M  V30 19627 C 380.398 -3.47817 -6.12078 0
M  V30 19628 C 381.108 -3.39414 -4.77697 0
M  V30 19629 N 381.058 -2.04615 -4.15333 0
M  V30 19630 H 383.897 -3.41248 -7.98759 0
M  V30 19631 H 384.169 -2.5837 -6.41742 0
M  V30 19632 H 383.301 -5.02657 -6.42673 0
M  V30 19633 P 379.338 -6.144 -6.45285 0
M  V30 19634 O 379.118 -7.54673 -6.86199 0
M  V30 19635 O 378.548 -5.12391 -7.179 0
M  V30 19636 O 379.088 -5.99158 -4.88404 0
M  V30 19637 C 380.028 -6.60234 -3.96415 0
M  V30 19638 C 379.298 -7.08259 -2.72856 0
M  V30 19639 O 379.088 -5.9427 -1.83651 0
M  V30 19640 C 377.898 -7.64886 -2.9555 0
M  V30 19641 O 377.508 -8.53963 -1.90717 0
M  V30 19642 C 377.018 -6.4116 -2.90739 0
M  V30 19643 C 377.728 -5.55375 -1.86963 0
M  V30 19644 N 377.678 -4.09664 -2.15742 0
M  V30 19645 H 380.517 -7.45574 -4.45629 0
M  V30 19646 H 380.789 -5.86232 -3.67314 0
M  V30 19647 H 379.921 -7.84412 -2.24479 0
M  V30 19648 P 375.958 -8.7635 -1.60911 0
M  V30 19649 O 375.738 -10.1388 -1.11561 0
M  V30 19650 O 375.168 -8.36503 -2.79617 0
M  V30 19651 O 375.708 -7.71806 -0.42951 0
M  V30 19652 C 376.648 -7.67148 0.673689 0
M  V30 19653 C 375.918 -7.33374 1.95559 0
M  V30 19654 O 375.708 -5.88721 2.00726 0
M  V30 19655 C 374.518 -7.92526 2.10483 0
M  V30 19656 O 374.128 -8.02971 3.47653 0
M  V30 19657 C 373.638 -6.89602 1.41652 0
M  V30 19658 C 374.348 -5.59201 1.75185 0
M  V30 19659 N 374.298 -4.58235 0.662552 0
M  V30 19660 H 377.137 -8.65116 0.777161 0
M  V30 19661 H 377.409 -6.90173 0.474152 0
M  V30 19662 H 376.541 -7.66548 2.79458 0
M  V30 19663 P 372.578 -8.03563 3.84925 0
M  V30 19664 O 372.358 -8.85821 5.0569 0
M  V30 19665 O 371.788 -8.41101 2.65469 0
M  V30 19666 O 372.328 -6.4965 4.18908 0
M  V30 19667 C 373.268 -5.80886 5.05289 0
M  V30 19668 C 372.538 -4.78366 5.89277 0
M  V30 19669 O 372.328 -3.58302 5.08433 0
M  V30 19670 C 371.138 -5.16748 6.36559 0
M  V30 19671 O 370.748 -4.45271 7.53232 0
M  V30 19672 C 370.258 -4.74572 5.19863 0
M  V30 19673 C 370.968 -3.49373 4.70338 0
M  V30 19674 N 370.918 -3.31704 3.22876 0
M  V30 19675 C 370.768 -2.03326 2.74871 0
M  V30 19676 O 370.678 -1.06486 3.48076 0
M  V30 19677 N 370.728 -1.91838 1.37456 0
M  V30 19678 C 370.818 -2.94295 0.462035 0
M  V30 19679 C 370.968 -4.25064 1.05249 0
M  V30 19680 C 371.018 -4.40214 2.39192 0
M  V30 19681 H 373.759 -6.54063 5.71245 0
M  V30 19682 H 374.028 -5.30339 4.43905 0
M  V30 19683 H 373.161 -4.55889 6.76652 0
M  V30 19684 H 370.506 -2.6167 5.17842 0
M  V30 19685 H 370.227 -5.52155 4.41878 0
M  V30 19686 H 369.235 -4.51918 5.53297 0
M  V30 19687 H 371.069 -6.25055 6.55162 0
M  V30 19688 H 371.14 -5.39798 2.81523 0
M  V30 19689 P 369.198 -4.23843 7.83734 0
M  V30 19690 O 368.978 -4.19407 9.29784 0
M  V30 19691 O 368.408 -5.24426 7.09156 0
M  V30 19692 O 368.948 -2.7935 7.20758 0
M  V30 19693 C 369.888 -1.7299 7.50419 0
M  V30 19694 C 369.158 -0.406376 7.57911 0
M  V30 19695 O 368.948 0.0897726 6.21935 0
M  V30 19696 C 367.758 -0.447224 8.1878 0
M  V30 19697 O 367.368 0.825065 8.71101 0
M  V30 19698 C 366.878 -0.783801 6.99623 0
M  V30 19699 C 367.588 -0.0619192 5.85967 0
M  V30 19700 N 367.538 -0.7859 4.56281 0
M  V30 19701 H 370.377 -1.93423 8.4679 0
M  V30 19702 H 370.649 -1.68181 6.71046 0
M  V30 19703 H 369.781 0.289041 8.15388 0
M  V30 19704 P 365.818 1.17771 8.83182 0
M  V30 19705 O 365.598 2.07206 9.98732 0
M  V30 19706 O 365.028 -0.0743816 8.81969 0
M  V30 19707 O 365.568 1.97678 7.474 0
M  V30 19708 C 366.508 3.01133 7.08783 0
M  V30 19709 C 365.778 4.1203 6.37546 0
M  V30 19710 O 365.568 3.72887 4.9796 0
M  V30 19711 C 364.378 4.45085 6.88694 0
M  V30 19712 O 363.988 5.78836 6.56315 0
M  V30 19713 C 363.498 3.47817 6.12078 0
M  V30 19714 C 364.208 3.39414 4.77697 0
M  V30 19715 N 364.158 2.04615 4.15333 0
M  V30 19716 C 364.008 1.96929 2.77162 0
M  V30 19717 O 363.918 3.02017 2.12006 0
M  V30 19718 N 363.958 0.55485 2.24237 0
M  V30 19719 C 364.058 -0.367808 2.9169 0
M  V30 19720 N 364.008 -1.53426 2.29427 0
M  V30 19721 C 364.208 -0.319148 4.33828 0
M  V30 19722 C 364.258 0.920672 4.90433 0
M  V30 19723 H 366.998 3.41209 7.98667 0
M  V30 19724 H 367.268 2.5837 6.41742 0
M  V30 19725 H 366.401 5.02718 6.42752 0
M  V30 19726 H 363.746 4.11779 4.09026 0
M  V30 19727 H 363.466 2.49661 6.61772 0
M  V30 19728 H 362.475 3.86674 6.00946 0
M  V30 19729 H 364.309 4.29991 7.97006 0
M  V30 19730 H 364.381 1.00589 5.98303 0
M  V30 19731 H 364.279 -1.22639 4.93799 0
M  V30 19732 H 363.891 -1.56819 1.27167 0
M  V30 19733 H 364.087 -2.41062 2.83063 0
M  V30 19734 P 362.438 6.144 6.45285 0
M  V30 19735 O 362.218 7.54673 6.86199 0
M  V30 19736 O 361.648 5.12391 7.179 0
M  V30 19737 O 362.188 5.99158 4.88404 0
M  V30 19738 C 363.128 6.60234 3.96415 0
M  V30 19739 C 362.398 7.08259 2.72856 0
M  V30 19740 O 362.188 5.9427 1.83651 0
M  V30 19741 C 360.998 7.64886 2.9555 0
M  V30 19742 O 360.608 8.53963 1.90717 0
M  V30 19743 C 360.118 6.4116 2.90739 0
M  V30 19744 C 360.828 5.55375 1.86963 0
M  V30 19745 N 360.778 4.09448 2.16152 0
M  V30 19746 H 363.617 7.45574 4.45629 0
M  V30 19747 H 363.889 5.85864 3.679 0
M  V30 19748 H 363.021 7.84412 2.24479 0
M  V30 19749 H 360.366 5.73457 0.888562 0
M  V30 19750 H 360.086 5.90877 3.88583 0
M  V30 19751 H 359.095 6.6596 2.58858 0
M  V30 19752 H 360.929 8.16339 3.92049 0
M  V30 19753 P 359.058 8.7635 1.60911 0
M  V30 19754 O 358.838 10.1388 1.11561 0
M  V30 19755 O 358.268 8.36503 2.79617 0
M  V30 19756 O 358.808 7.71806 0.42951 0
M  V30 19757 C 359.748 7.67148 -0.673689 0
M  V30 19758 C 359.018 7.33374 -1.95559 0
M  V30 19759 O 358.808 5.88721 -2.00726 0
M  V30 19760 C 357.618 7.92526 -2.10483 0
M  V30 19761 O 357.228 8.02971 -3.47653 0
M  V30 19762 C 356.738 6.89602 -1.41652 0
M  V30 19763 C 357.448 5.59201 -1.75185 0
M  V30 19764 N 357.398 4.58301 -0.657969 0
M  V30 19765 H 360.237 8.65116 -0.777161 0
M  V30 19766 H 360.509 6.9022 -0.46725 0
M  V30 19767 H 359.641 7.66548 -2.79458 0
M  V30 19768 H 356.986 5.16165 -2.65183 0
M  V30 19769 H 356.706 7.06433 -0.329384 0
M  V30 19770 H 355.715 6.90926 -1.82021 0
M  V30 19771 H 357.549 8.90873 -1.62657 0
M  V30 19772 P 355.678 8.03563 -3.84925 0
M  V30 19773 O 355.458 8.85821 -5.0569 0
M  V30 19774 O 354.888 8.41101 -2.65469 0
M  V30 19775 O 355.428 6.4965 -4.18908 0
M  V30 19776 C 356.368 5.81037 -5.05421 0
M  V30 19777 C 355.638 4.78366 -5.89277 0
M  V30 19778 O 355.428 3.58302 -5.08433 0
M  V30 19779 C 354.238 5.17448 -6.36119 0
M  V30 19780 O 353.848 4.45271 -7.53232 0
M  V30 19781 C 353.358 4.74639 -5.19936 0
M  V30 19782 C 354.068 3.49432 -4.70418 0
M  V30 19783 N 354.018 3.31776 -3.22945 0
M  V30 19784 H 356.857 6.54213 -5.71376 0
M  V30 19785 H 357.129 5.30492 -4.44033 0
M  V30 19786 H 356.261 4.55889 -6.76652 0
M  V30 19787 P 352.298 4.23843 -7.83734 0
M  V30 19788 O 352.078 4.19407 -9.29784 0
M  V30 19789 O 351.508 5.24426 -7.09156 0
M  V30 19790 O 352.048 2.7935 -7.20758 0
M  V30 19791 C 352.988 1.7299 -7.50419 0
M  V30 19792 C 352.258 0.406376 -7.57911 0
M  V30 19793 O 352.048 -0.0897726 -6.21935 0
M  V30 19794 C 350.858 0.447224 -8.1878 0
M  V30 19795 O 350.468 -0.825065 -8.71101 0
M  V30 19796 C 349.978 0.783801 -6.99623 0
M  V30 19797 C 350.688 0.0619192 -5.85967 0
M  V30 19798 N 350.638 0.790462 -4.56202 0
M  V30 19799 H 353.477 1.93423 -8.4679 0
M  V30 19800 H 353.749 1.68852 -6.70877 0
M  V30 19801 H 352.881 -0.289041 -8.15388 0
M  V30 19802 H 350.226 -0.927006 -5.72848 0
M  V30 19803 H 349.946 1.86973 -6.82036 0
M  V30 19804 H 348.955 0.403953 -7.13357 0
M  V30 19805 H 350.789 1.20599 -8.97534 0
M  V30 19806 P 348.918 -1.17771 -8.83182 0
M  V30 19807 O 348.698 -2.07206 -9.98732 0
M  V30 19808 O 348.128 0.0743816 -8.81969 0
M  V30 19809 O 348.668 -1.97652 -7.47304 0
M  V30 19810 C 349.608 -3.01133 -7.08783 0
M  V30 19811 C 348.878 -4.12613 -6.37049 0
M  V30 19812 O 348.668 -3.72827 -4.97879 0
M  V30 19813 C 347.478 -4.45085 -6.88694 0
M  V30 19814 O 347.088 -5.7877 -6.5624 0
M  V30 19815 C 346.598 -3.47817 -6.12078 0
M  V30 19816 C 347.308 -3.39414 -4.77697 0
M  V30 19817 N 347.258 -2.04615 -4.15333 0
M  V30 19818 H 350.097 -3.41248 -7.98759 0
M  V30 19819 H 350.369 -2.5837 -6.41742 0
M  V30 19820 H 349.501 -5.02657 -6.42673 0
M  V30 19821 P 345.538 -6.144 -6.45285 0
M  V30 19822 O 345.318 -7.54673 -6.86199 0
M  V30 19823 O 344.748 -5.12391 -7.179 0
M  V30 19824 O 345.288 -5.99158 -4.88404 0
M  V30 19825 C 346.228 -6.60234 -3.96415 0
M  V30 19826 C 345.498 -7.08259 -2.72856 0
M  V30 19827 O 345.288 -5.9427 -1.83651 0
M  V30 19828 C 344.098 -7.64886 -2.9555 0
M  V30 19829 O 343.708 -8.53963 -1.90717 0
M  V30 19830 C 343.218 -6.4116 -2.90739 0
M  V30 19831 C 343.928 -5.55375 -1.86963 0
M  V30 19832 N 343.878 -4.09448 -2.16152 0
M  V30 19833 H 346.717 -7.45574 -4.45629 0
M  V30 19834 H 346.989 -5.85864 -3.679 0
M  V30 19835 H 346.121 -7.84412 -2.24479 0
M  V30 19836 H 343.466 -5.73457 -0.888562 0
M  V30 19837 H 343.186 -5.90877 -3.88583 0
M  V30 19838 H 342.195 -6.6596 -2.58858 0
M  V30 19839 H 344.029 -8.16339 -3.92049 0
M  V30 19840 P 342.158 -8.7635 -1.60911 0
M  V30 19841 O 341.938 -10.1388 -1.11561 0
M  V30 19842 O 341.368 -8.36503 -2.79617 0
M  V30 19843 O 341.908 -7.71806 -0.42951 0
M  V30 19844 C 342.848 -7.67148 0.673689 0
M  V30 19845 C 342.118 -7.33374 1.95559 0
M  V30 19846 O 341.908 -5.88721 2.00726 0
M  V30 19847 C 340.718 -7.92526 2.10483 0
M  V30 19848 O 340.328 -8.02971 3.47653 0
M  V30 19849 C 339.838 -6.89602 1.41652 0
M  V30 19850 C 340.548 -5.59201 1.75185 0
M  V30 19851 N 340.498 -4.58301 0.657969 0
M  V30 19852 C 340.578 -4.79019 -0.692603 0
M  V30 19853 N 340.508 -3.69736 -1.38998 0
M  V30 19854 C 340.358 -2.70474 -0.438135 0
M  V30 19855 C 340.228 -1.30327 -0.538142 0
M  V30 19856 N 340.218 -0.64304 -1.69192 0
M  V30 19857 N 340.108 -0.611027 0.605183 0
M  V30 19858 C 340.118 -1.27002 1.75953 0
M  V30 19859 N 340.238 -2.56038 1.98546 0
M  V30 19860 C 340.358 -3.22681 0.822541 0
M  V30 19861 H 343.337 -8.65116 0.777161 0
M  V30 19862 H 343.609 -6.9022 0.46725 0
M  V30 19863 H 342.741 -7.66548 2.79458 0
M  V30 19864 H 340.086 -5.16165 2.65183 0
M  V30 19865 H 339.806 -7.06433 0.329384 0
M  V30 19866 H 338.815 -6.90926 1.82021 0
M  V30 19867 H 340.649 -8.90873 1.62657 0
M  V30 19868 H 340.69 -5.77785 -1.13874 0
M  V30 19869 H 340.309 -1.15585 -2.57991 0
M  V30 19870 H 340.12 0.382989 -1.69835 0
M  V30 19871 H 340.012 -0.653331 2.64449 0
M  V30 19872 P 338.778 -8.03563 3.84925 0
M  V30 19873 O 338.558 -8.85821 5.0569 0
M  V30 19874 O 337.988 -8.41101 2.65469 0
M  V30 19875 O 338.528 -6.4965 4.18908 0
M  V30 19876 C 339.468 -5.81037 5.05421 0
M  V30 19877 C 338.738 -4.78366 5.89277 0
M  V30 19878 O 338.528 -3.58302 5.08433 0
M  V30 19879 C 337.338 -5.17448 6.36119 0
M  V30 19880 O 336.948 -4.45271 7.53232 0
M  V30 19881 C 336.458 -4.74639 5.19936 0
M  V30 19882 C 337.168 -3.49432 4.70418 0
M  V30 19883 N 337.118 -3.31776 3.22945 0
M  V30 19884 H 339.957 -6.54213 5.71376 0
M  V30 19885 H 340.229 -5.30492 4.44033 0
M  V30 19886 H 339.361 -4.55889 6.76652 0
M  V30 19887 P 335.398 -4.23843 7.83734 0
M  V30 19888 O 335.178 -4.19407 9.29784 0
M  V30 19889 O 334.608 -5.24426 7.09156 0
M  V30 19890 O 335.148 -2.7935 7.20758 0
M  V30 19891 C 336.088 -1.7299 7.50419 0
M  V30 19892 C 335.358 -0.406376 7.57911 0
M  V30 19893 O 335.148 0.0897726 6.21935 0
M  V30 19894 C 333.958 -0.447224 8.1878 0
M  V30 19895 O 333.568 0.825065 8.71101 0
M  V30 19896 C 333.078 -0.783801 6.99623 0
M  V30 19897 C 333.788 -0.0619192 5.85967 0
M  V30 19898 N 333.738 -0.790462 4.56202 0
M  V30 19899 C 333.818 -2.13895 4.34171 0
M  V30 19900 N 333.748 -2.46449 3.08687 0
M  V30 19901 C 333.598 -1.2525 2.43697 0
M  V30 19902 C 333.468 -0.914535 1.07318 0
M  V30 19903 N 333.458 -1.80782 0.0887348 0
M  V30 19904 N 333.348 0.386745 0.768133 0
M  V30 19905 C 333.358 1.28096 1.75159 0
M  V30 19906 N 333.478 1.09708 3.04861 0
M  V30 19907 C 333.598 -0.214857 3.32306 0
M  V30 19908 H 336.577 -1.93423 8.4679 0
M  V30 19909 H 336.849 -1.68852 6.70877 0
M  V30 19910 H 335.981 0.289041 8.15388 0
M  V30 19911 H 333.326 0.927006 5.72848 0
M  V30 19912 H 333.046 -1.86973 6.82036 0
M  V30 19913 H 332.055 -0.403953 7.13357 0
M  V30 19914 H 333.889 -1.20599 8.97534 0
M  V30 19915 H 333.93 -2.86846 5.14318 0
M  V30 19916 H 333.549 -2.81082 0.302037 0
M  V30 19917 H 333.36 -1.49688 -0.889064 0
M  V30 19918 H 333.252 2.31317 1.43855 0
M  V30 19919 P 332.018 1.17771 8.83182 0
M  V30 19920 O 331.798 2.07206 9.98732 0
M  V30 19921 O 331.228 -0.0743816 8.81969 0
M  V30 19922 O 331.768 1.97652 7.47304 0
M  V30 19923 C 332.708 3.01055 7.08599 0
M  V30 19924 C 331.978 4.12613 6.37049 0
M  V30 19925 O 331.768 3.72827 4.97879 0
M  V30 19926 C 330.578 4.45719 6.88164 0
M  V30 19927 O 330.188 5.7877 6.5624 0
M  V30 19928 C 329.698 3.47768 6.11991 0
M  V30 19929 C 330.408 3.39356 4.77615 0
M  V30 19930 N 330.358 2.04571 4.15244 0
M  V30 19931 C 330.208 1.98587 2.78314 0
M  V30 19932 O 330.118 2.98134 2.08835 0
M  V30 19933 N 330.168 0.714467 2.24925 0
M  V30 19934 C 330.258 -0.470001 2.94169 0
M  V30 19935 C 330.408 -0.312541 4.36783 0
M  V30 19936 C 330.458 0.914512 4.92583 0
M  V30 19937 H 333.199 3.41169 7.98575 0
M  V30 19938 H 333.468 2.58295 6.41556 0
M  V30 19939 H 332.601 5.02657 6.42673 0
M  V30 19940 H 329.946 4.11637 4.08885 0
M  V30 19941 H 329.667 2.49626 6.61679 0
M  V30 19942 H 328.675 3.86566 6.00778 0
M  V30 19943 H 330.509 4.29943 7.96918 0
M  V30 19944 H 330.58 1.00937 6.00374 0
M  V30 19945 P 328.638 6.144 6.45285 0
M  V30 19946 O 328.418 7.54673 6.86199 0
M  V30 19947 O 327.848 5.12391 7.179 0
M  V30 19948 O 328.388 5.99158 4.88404 0
M  V30 19949 C 329.328 6.60234 3.96415 0
M  V30 19950 C 328.598 7.08259 2.72856 0
M  V30 19951 O 328.388 5.9427 1.83651 0
M  V30 19952 C 327.198 7.64886 2.9555 0
M  V30 19953 O 326.808 8.53963 1.90717 0
M  V30 19954 C 326.318 6.4116 2.90739 0
M  V30 19955 C 327.028 5.55375 1.86963 0
M  V30 19956 N 326.978 4.09448 2.16152 0
M  V30 19957 H 329.817 7.45574 4.45629 0
M  V30 19958 H 330.089 5.85864 3.679 0
M  V30 19959 H 329.221 7.84412 2.24479 0
M  V30 19960 H 326.566 5.73457 0.888562 0
M  V30 19961 H 326.286 5.90877 3.88583 0
M  V30 19962 H 325.295 6.6596 2.58858 0
M  V30 19963 H 327.129 8.16339 3.92049 0
M  V30 19964 P 325.258 8.7635 1.60911 0
M  V30 19965 O 325.038 10.1388 1.11561 0
M  V30 19966 O 324.468 8.36503 2.79617 0
M  V30 19967 O 325.008 7.71806 0.42951 0
M  V30 19968 C 325.948 7.67148 -0.673689 0
M  V30 19969 C 325.218 7.33374 -1.95559 0
M  V30 19970 O 325.008 5.88721 -2.00726 0
M  V30 19971 C 323.818 7.92526 -2.10483 0
M  V30 19972 O 323.428 8.02971 -3.47653 0
M  V30 19973 C 322.938 6.89602 -1.41652 0
M  V30 19974 C 323.648 5.59201 -1.75185 0
M  V30 19975 N 323.598 4.58235 -0.662552 0
M  V30 19976 H 326.437 8.65116 -0.777161 0
M  V30 19977 H 326.709 6.90173 -0.474152 0
M  V30 19978 H 325.841 7.66548 -2.79458 0
M  V30 19979 P 321.878 8.03563 -3.84925 0
M  V30 19980 O 321.658 8.85821 -5.0569 0
M  V30 19981 O 321.088 8.41101 -2.65469 0
M  V30 19982 O 321.628 6.4965 -4.18908 0
M  V30 19983 C 322.568 5.81037 -5.05421 0
M  V30 19984 C 321.838 4.78366 -5.89277 0
M  V30 19985 O 321.628 3.58302 -5.08433 0
M  V30 19986 C 320.438 5.17448 -6.36119 0
M  V30 19987 O 320.048 4.45271 -7.53232 0
M  V30 19988 C 319.558 4.74639 -5.19936 0
M  V30 19989 C 320.268 3.49432 -4.70418 0
M  V30 19990 N 320.218 3.31776 -3.22945 0
M  V30 19991 C 320.298 4.27147 -2.23315 0
M  V30 19992 N 320.218 3.78447 -1.02186 0
M  V30 19993 C 320.078 2.41001 -1.21732 0
M  V30 19994 C 319.948 1.36111 -0.27694 0
M  V30 19995 N 319.828 0.113683 -0.912949 0
M  V30 19996 C 319.828 -0.0846396 -2.27943 0
M  V30 19997 N 319.698 -1.34737 -2.6916 0
M  V30 19998 N 319.958 0.902521 -3.16379 0
M  V30 19999 C 320.078 2.11937 -2.56849 0
M  V30 20000 H 323.057 6.54213 -5.71376 0
M  V30 20001 H 323.329 5.30492 -4.44033 0
M  V30 20002 H 322.461 4.55889 -6.76652 0
M  V30 20003 P 318.498 4.23843 -7.83734 0
M  V30 20004 O 318.278 4.19407 -9.29784 0
M  V30 20005 O 317.708 5.24426 -7.09156 0
M  V30 20006 O 318.248 2.7935 -7.20758 0
M  V30 20007 C 319.188 1.7299 -7.50419 0
M  V30 20008 C 318.458 0.406376 -7.57911 0
M  V30 20009 O 318.248 -0.0897726 -6.21935 0
M  V30 20010 C 317.058 0.447224 -8.1878 0
M  V30 20011 O 316.668 -0.825065 -8.71101 0
M  V30 20012 C 316.178 0.783801 -6.99623 0
M  V30 20013 C 316.888 0.0619192 -5.85967 0
M  V30 20014 N 316.838 0.790462 -4.56202 0
M  V30 20015 H 319.677 1.93423 -8.4679 0
M  V30 20016 H 319.949 1.68852 -6.70877 0
M  V30 20017 H 319.081 -0.289041 -8.15388 0
M  V30 20018 H 316.426 -0.927006 -5.72848 0
M  V30 20019 H 316.146 1.86973 -6.82036 0
M  V30 20020 H 315.155 0.403953 -7.13357 0
M  V30 20021 H 316.989 1.20599 -8.97534 0
M  V30 20022 P 315.118 -1.17771 -8.83182 0
M  V30 20023 O 314.898 -2.07206 -9.98732 0
M  V30 20024 O 314.328 0.0743816 -8.81969 0
M  V30 20025 O 314.868 -1.97652 -7.47304 0
M  V30 20026 C 315.808 -3.01133 -7.08783 0
M  V30 20027 C 315.078 -4.12613 -6.37049 0
M  V30 20028 O 314.868 -3.72827 -4.97879 0
M  V30 20029 C 313.678 -4.45085 -6.88694 0
M  V30 20030 O 313.288 -5.7877 -6.5624 0
M  V30 20031 C 312.798 -3.47817 -6.12078 0
M  V30 20032 C 313.508 -3.39414 -4.77697 0
M  V30 20033 N 313.458 -2.04615 -4.15333 0
M  V30 20034 C 313.538 -0.803897 -4.75249 0
M  V30 20035 N 313.458 0.197615 -3.91502 0
M  V30 20036 C 313.318 -0.413002 -2.66823 0
M  V30 20037 C 313.188 0.157221 -1.38007 0
M  V30 20038 N 313.068 -0.833136 -0.390236 0
M  V30 20039 C 313.068 -2.19402 -0.623885 0
M  V30 20040 N 312.938 -2.97622 0.449677 0
M  V30 20041 N 313.198 -2.73005 -1.83601 0
M  V30 20042 C 313.318 -1.78786 -2.80935 0
M  V30 20043 H 316.297 -3.41248 -7.98759 0
M  V30 20044 H 316.569 -2.5837 -6.41742 0
M  V30 20045 H 315.701 -5.02657 -6.42673 0
M  V30 20046 P 311.738 -6.144 -6.45285 0
M  V30 20047 O 311.518 -7.54673 -6.86199 0
M  V30 20048 O 310.948 -5.12391 -7.179 0
M  V30 20049 O 311.488 -5.99158 -4.88404 0
M  V30 20050 C 312.428 -6.60234 -3.96415 0
M  V30 20051 C 311.698 -7.08259 -2.72856 0
M  V30 20052 O 311.488 -5.9427 -1.83651 0
M  V30 20053 C 310.298 -7.64886 -2.9555 0
M  V30 20054 O 309.908 -8.53963 -1.90717 0
M  V30 20055 C 309.418 -6.4116 -2.90739 0
M  V30 20056 C 310.128 -5.55375 -1.86963 0
M  V30 20057 N 310.078 -4.09664 -2.15742 0
M  V30 20058 H 312.917 -7.45574 -4.45629 0
M  V30 20059 H 313.189 -5.86232 -3.67314 0
M  V30 20060 H 312.321 -7.84412 -2.24479 0
M  V30 20061 P 308.358 -8.7635 -1.60911 0
M  V30 20062 O 308.138 -10.1388 -1.11561 0
M  V30 20063 O 307.568 -8.36503 -2.79617 0
M  V30 20064 O 308.108 -7.71806 -0.42951 0
M  V30 20065 C 309.048 -7.66948 0.673514 0
M  V30 20066 C 308.318 -7.33374 1.95559 0
M  V30 20067 O 308.108 -5.88721 2.00726 0
M  V30 20068 C 306.918 -7.92218 2.1125 0
M  V30 20069 O 306.528 -8.02971 3.47653 0
M  V30 20070 C 306.038 -6.89504 1.41631 0
M  V30 20071 C 306.748 -5.59106 1.75155 0
M  V30 20072 N 306.698 -4.58136 0.662409 0
M  V30 20073 C 306.548 -3.26059 1.02863 0
M  V30 20074 O 306.458 -2.90743 2.19009 0
M  V30 20075 N 306.508 -2.35995 -0.0155585 0
M  V30 20076 C 306.598 -2.65248 -1.35603 0
M  V30 20077 O 306.548 -1.75605 -2.20651 0
M  V30 20078 C 306.748 -4.05747 -1.64698 0
M  V30 20079 C 306.858 -4.42345 -3.09553 0
M  V30 20080 C 306.798 -4.96734 -0.652411 0
M  V30 20081 H 309.539 -8.64917 0.776982 0
M  V30 20082 H 309.808 -6.89974 0.474015 0
M  V30 20083 H 308.941 -7.66548 2.79458 0
M  V30 20084 H 306.286 -5.16076 2.65138 0
M  V30 20085 H 306.007 -7.06433 0.329384 0
M  V30 20086 H 305.015 -6.90829 1.81996 0
M  V30 20087 H 306.849 -8.90774 1.62639 0
M  V30 20088 H 306.92 -6.02181 -0.895285 0
M  V30 20089 H 305.89 -4.80252 -3.45468 0
M  V30 20090 H 307.627 -5.20015 -3.22119 0
M  V30 20091 H 307.139 -3.53269 -3.67833 0
M  V30 20092 H 306.403 -1.39558 0.227499 0
M  V30 20093 P 304.978 -8.03563 3.84925 0
M  V30 20094 O 304.758 -8.85821 5.0569 0
M  V30 20095 O 304.188 -8.41101 2.65469 0
M  V30 20096 O 304.728 -6.4965 4.18908 0
M  V30 20097 C 305.668 -5.81037 5.05421 0
M  V30 20098 C 304.938 -4.78366 5.89277 0
M  V30 20099 O 304.728 -3.58302 5.08433 0
M  V30 20100 C 303.538 -5.17448 6.36119 0
M  V30 20101 O 303.148 -4.45271 7.53232 0
M  V30 20102 C 302.658 -4.74639 5.19936 0
M  V30 20103 C 303.368 -3.49432 4.70418 0
M  V30 20104 N 303.318 -3.31776 3.22945 0
M  V30 20105 H 306.157 -6.54213 5.71376 0
M  V30 20106 H 306.429 -5.30492 4.44033 0
M  V30 20107 H 305.561 -4.55889 6.76652 0
M  V30 20108 P 301.598 -4.23843 7.83734 0
M  V30 20109 O 301.378 -4.19407 9.29784 0
M  V30 20110 O 300.808 -5.24426 7.09156 0
M  V30 20111 O 301.348 -2.7935 7.20758 0
M  V30 20112 C 302.288 -1.7299 7.50419 0
M  V30 20113 C 301.558 -0.406376 7.57911 0
M  V30 20114 O 301.348 0.0897726 6.21935 0
M  V30 20115 C 300.158 -0.447224 8.1878 0
M  V30 20116 O 299.768 0.825065 8.71101 0
M  V30 20117 C 299.278 -0.783801 6.99623 0
M  V30 20118 C 299.988 -0.0619192 5.85967 0
M  V30 20119 N 299.938 -0.7859 4.56281 0
M  V30 20120 H 302.777 -1.93423 8.4679 0
M  V30 20121 H 303.049 -1.68181 6.71046 0
M  V30 20122 H 302.181 0.289041 8.15388 0
M  V30 20123 P 298.218 1.17771 8.83182 0
M  V30 20124 O 297.998 2.07206 9.98732 0
M  V30 20125 O 297.428 -0.0743816 8.81969 0
M  V30 20126 O 297.968 1.97652 7.47304 0
M  V30 20127 C 298.908 3.01133 7.08783 0
M  V30 20128 C 298.178 4.12613 6.37049 0
M  V30 20129 O 297.968 3.72827 4.97879 0
M  V30 20130 C 296.778 4.45085 6.88694 0
M  V30 20131 O 296.388 5.7877 6.5624 0
M  V30 20132 C 295.898 3.47817 6.12078 0
M  V30 20133 C 296.608 3.39414 4.77697 0
M  V30 20134 N 296.558 2.04199 4.15538 0
M  V30 20135 C 296.638 0.821545 4.76977 0
M  V30 20136 N 296.568 -0.1794 3.94592 0
M  V30 20137 C 296.418 0.419121 2.70776 0
M  V30 20138 C 296.288 -0.109072 1.40577 0
M  V30 20139 N 296.278 -1.4104 1.1344 0
M  V30 20140 N 296.168 0.764381 0.39411 0
M  V30 20141 C 296.178 2.06587 0.664135 0
M  V30 20142 N 296.298 2.67948 1.82153 0
M  V30 20143 C 296.418 1.77942 2.8147 0
M  V30 20144 H 299.397 3.41248 7.98759 0
M  V30 20145 H 299.669 2.57728 6.42 0
M  V30 20146 H 298.801 5.02657 6.42673 0
M  V30 20147 H 296.146 4.11708 4.08956 0
M  V30 20148 H 295.866 2.49626 6.61679 0
M  V30 20149 H 294.875 3.8662 6.00862 0
M  V30 20150 H 296.709 4.29991 7.97006 0
M  V30 20151 H 296.75 0.702451 5.84696 0
M  V30 20152 H 296.369 -2.09647 1.89651 0
M  V30 20153 H 296.18 -1.73358 0.160575 0
M  V30 20154 H 296.072 2.71695 -0.195838 0
M  V30 20155 P 294.838 6.144 6.45285 0
M  V30 20156 O 294.618 7.54673 6.86199 0
M  V30 20157 O 294.048 5.12391 7.179 0
M  V30 20158 O 294.588 5.99158 4.88404 0
M  V30 20159 C 295.528 6.60234 3.96415 0
M  V30 20160 C 294.798 7.08259 2.72856 0
M  V30 20161 O 294.588 5.9427 1.83651 0
M  V30 20162 C 293.398 7.64886 2.9555 0
M  V30 20163 O 293.008 8.53963 1.90717 0
M  V30 20164 C 292.518 6.4116 2.90739 0
M  V30 20165 C 293.228 5.55375 1.86963 0
M  V30 20166 N 293.178 4.09448 2.16152 0
M  V30 20167 C 293.258 3.46824 3.37593 0
M  V30 20168 N 293.188 2.17422 3.29777 0
M  V30 20169 C 293.038 1.93065 1.94427 0
M  V30 20170 C 292.908 0.738053 1.20141 0
M  V30 20171 N 292.898 -0.474256 1.74676 0
M  V30 20172 N 292.788 0.850049 -0.13045 0
M  V30 20173 C 292.798 2.06169 -0.676992 0
M  V30 20174 N 292.918 3.23842 -0.101312 0
M  V30 20175 C 293.038 3.09402 1.23122 0
M  V30 20176 H 296.017 7.45574 4.45629 0
M  V30 20177 H 296.289 5.85864 3.679 0
M  V30 20178 H 295.421 7.84412 2.24479 0
M  V30 20179 H 292.766 5.73457 0.888562 0
M  V30 20180 H 292.486 5.90877 3.88583 0
M  V30 20181 H 291.495 6.6596 2.58858 0
M  V30 20182 H 293.329 8.16339 3.92049 0
M  V30 20183 H 293.37 4.00505 4.3174 0
M  V30 20184 H 292.989 -0.581337 2.76658 0
M  V30 20185 H 292.8 -1.30811 1.14888 0
M  V30 20186 H 292.692 2.08295 -1.75542 0
M  V30 20187 P 291.458 8.7635 1.60911 0
M  V30 20188 O 291.238 10.1388 1.11561 0
M  V30 20189 O 290.668 8.36503 2.79617 0
M  V30 20190 O 291.208 7.71806 0.42951 0
M  V30 20191 C 292.148 7.67148 -0.673689 0
M  V30 20192 C 291.418 7.33374 -1.95559 0
M  V30 20193 O 291.208 5.88721 -2.00726 0
M  V30 20194 C 290.018 7.92526 -2.10483 0
M  V30 20195 O 289.628 8.02971 -3.47653 0
M  V30 20196 C 289.138 6.89602 -1.41652 0
M  V30 20197 C 289.848 5.59201 -1.75185 0
M  V30 20198 N 289.798 4.58235 -0.662552 0
M  V30 20199 H 292.637 8.65116 -0.777161 0
M  V30 20200 H 292.909 6.90173 -0.474152 0
M  V30 20201 H 292.041 7.66548 -2.79458 0
M  V30 20202 P 288.078 8.03563 -3.84925 0
M  V30 20203 O 287.858 8.85821 -5.0569 0
M  V30 20204 O 287.288 8.41101 -2.65469 0
M  V30 20205 O 287.828 6.49734 -4.18962 0
M  V30 20206 C 288.768 5.81037 -5.05421 0
M  V30 20207 C 288.038 4.79018 -5.88876 0
M  V30 20208 O 287.828 3.58359 -5.08515 0
M  V30 20209 C 286.638 5.17448 -6.36119 0
M  V30 20210 O 286.248 4.45322 -7.53318 0
M  V30 20211 C 285.758 4.74639 -5.19936 0
M  V30 20212 C 286.468 3.49432 -4.70418 0
M  V30 20213 N 286.418 3.31776 -3.22945 0
M  V30 20214 C 286.268 2.02742 -2.72939 0
M  V30 20215 O 286.178 1.08301 -3.52749 0
M  V30 20216 N 286.218 1.96117 -1.22063 0
M  V30 20217 C 286.318 2.8878 -0.551566 0
M  V30 20218 N 286.268 2.65609 0.750198 0
M  V30 20219 C 286.468 4.22457 -1.03707 0
M  V30 20220 C 286.518 4.37979 -2.39113 0
M  V30 20221 H 289.258 6.54138 -5.7131 0
M  V30 20222 H 289.528 5.30492 -4.44033 0
M  V30 20223 H 288.661 4.55945 -6.76735 0
M  V30 20224 H 286.006 2.6176 -5.18021 0
M  V30 20225 H 285.726 5.52233 -4.41941 0
M  V30 20226 H 284.735 4.52045 -5.53452 0
M  V30 20227 H 286.569 6.25124 -6.55234 0
M  V30 20228 H 286.641 5.37936 -2.80552 0
M  V30 20229 H 286.539 5.07528 -0.359553 0
M  V30 20230 H 286.151 1.69403 1.09847 0
M  V30 20231 H 286.347 3.43701 1.41792 0
M  V30 20232 P 284.698 4.23843 -7.83734 0
M  V30 20233 O 284.478 4.19407 -9.29784 0
M  V30 20234 O 283.908 5.24426 -7.09156 0
M  V30 20235 O 284.448 2.79386 -7.20852 0
M  V30 20236 C 285.388 1.7299 -7.50419 0
M  V30 20237 C 284.658 0.41401 -7.5797 0
M  V30 20238 O 284.448 -0.089787 -6.22035 0
M  V30 20239 C 283.258 0.447224 -8.1878 0
M  V30 20240 O 282.868 -0.825159 -8.71201 0
M  V30 20241 C 282.378 0.783801 -6.99623 0
M  V30 20242 C 283.088 0.0619192 -5.85967 0
M  V30 20243 N 283.038 0.7859 -4.56281 0
M  V30 20244 C 282.888 0.0359258 -3.39981 0
M  V30 20245 O 282.798 -1.19723 -3.49038 0
M  V30 20246 N 282.838 0.869151 -2.14025 0
M  V30 20247 C 282.938 2.01207 -2.14363 0
M  V30 20248 N 282.888 2.58978 -0.954287 0
M  V30 20249 C 283.088 2.80817 -3.32215 0
M  V30 20250 C 283.138 2.13785 -4.50884 0
M  V30 20251 H 285.878 1.93401 -8.46693 0
M  V30 20252 H 286.148 1.68181 -6.71046 0
M  V30 20253 H 285.281 -0.289076 -8.15488 0
M  V30 20254 H 282.626 -0.927166 -5.72947 0
M  V30 20255 H 282.346 1.87 -6.82132 0
M  V30 20256 H 281.355 0.404009 -7.13457 0
M  V30 20257 H 283.189 1.20599 -8.97534 0
M  V30 20258 H 283.261 2.70295 -5.43162 0
M  V30 20259 H 283.159 3.89465 -3.27406 0
M  V30 20260 H 282.771 2.01616 -0.107046 0
M  V30 20261 H 282.967 3.61403 -0.873101 0
M  V30 20262 P 281.318 -1.17771 -8.83182 0
M  V30 20263 O 281.098 -2.07206 -9.98732 0
M  V30 20264 O 280.528 0.0743816 -8.81969 0
M  V30 20265 O 281.068 -1.97652 -7.47304 0
M  V30 20266 C 282.008 -3.01055 -7.08599 0
M  V30 20267 C 281.278 -4.12613 -6.37049 0
M  V30 20268 O 281.068 -3.72827 -4.97879 0
M  V30 20269 C 279.878 -4.45719 -6.88164 0
M  V30 20270 O 279.488 -5.7877 -6.5624 0
M  V30 20271 C 278.998 -3.47768 -6.11991 0
M  V30 20272 C 279.708 -3.39356 -4.77615 0
M  V30 20273 N 279.658 -2.04571 -4.15244 0
M  V30 20274 C 279.508 -1.98587 -2.78314 0
M  V30 20275 O 279.418 -2.98134 -2.08835 0
M  V30 20276 N 279.468 -0.714467 -2.24925 0
M  V30 20277 C 279.558 0.470001 -2.94169 0
M  V30 20278 O 279.508 1.55587 -2.35195 0
M  V30 20279 C 279.708 0.312541 -4.36783 0
M  V30 20280 C 279.818 1.57711 -5.16352 0
M  V30 20281 C 279.758 -0.914512 -4.92583 0
M  V30 20282 H 282.499 -3.41169 -7.98575 0
M  V30 20283 H 282.768 -2.58295 -6.41556 0
M  V30 20284 H 281.901 -5.02657 -6.42673 0
M  V30 20285 H 279.246 -4.11637 -4.08885 0
M  V30 20286 H 278.967 -2.49626 -6.61679 0
M  V30 20287 H 277.975 -3.86566 -6.00778 0
M  V30 20288 H 279.809 -4.29943 -7.96918 0
M  V30 20289 H 279.88 -1.00937 -6.00374 0
M  V30 20290 H 278.85 1.80153 -5.63503 0
M  V30 20291 H 280.587 1.4566 -5.94104 0
M  V30 20292 H 280.099 2.40664 -4.49645 0
M  V30 20293 H 279.363 -0.647622 -1.25697 0
M  V30 20294 P 277.938 -6.144 -6.45285 0
M  V30 20295 O 277.718 -7.54673 -6.86199 0
M  V30 20296 O 277.148 -5.12391 -7.179 0
M  V30 20297 O 277.688 -5.99158 -4.88404 0
M  V30 20298 C 278.628 -6.60234 -3.96415 0
M  V30 20299 C 277.898 -7.08259 -2.72856 0
M  V30 20300 O 277.688 -5.9427 -1.83651 0
M  V30 20301 C 276.498 -7.64886 -2.9555 0
M  V30 20302 O 276.108 -8.53963 -1.90717 0
M  V30 20303 C 275.618 -6.4116 -2.90739 0
M  V30 20304 C 276.328 -5.55375 -1.86963 0
M  V30 20305 N 276.278 -4.09664 -2.15742 0
M  V30 20306 H 279.117 -7.45574 -4.45629 0
M  V30 20307 H 279.389 -5.86232 -3.67314 0
M  V30 20308 H 278.521 -7.84412 -2.24479 0
M  V30 20309 P 274.558 -8.7635 -1.60911 0
M  V30 20310 O 274.338 -10.1388 -1.11561 0
M  V30 20311 O 273.768 -8.36503 -2.79617 0
M  V30 20312 O 274.308 -7.71806 -0.42951 0
M  V30 20313 C 275.248 -7.67148 0.673689 0
M  V30 20314 C 274.518 -7.33374 1.95559 0
M  V30 20315 O 274.308 -5.88721 2.00726 0
M  V30 20316 C 273.118 -7.92526 2.10483 0
M  V30 20317 O 272.728 -8.02971 3.47653 0
M  V30 20318 C 272.238 -6.89602 1.41652 0
M  V30 20319 C 272.948 -5.59201 1.75185 0
M  V30 20320 N 272.898 -4.58235 0.662552 0
M  V30 20321 H 275.737 -8.65116 0.777161 0
M  V30 20322 H 276.009 -6.90173 0.474152 0
M  V30 20323 H 275.141 -7.66548 2.79458 0
M  V30 20324 P 271.178 -8.03563 3.84925 0
M  V30 20325 O 270.958 -8.85821 5.0569 0
M  V30 20326 O 270.388 -8.41101 2.65469 0
M  V30 20327 O 270.928 -6.49734 4.18962 0
M  V30 20328 C 271.868 -5.81037 5.05421 0
M  V30 20329 C 271.138 -4.79018 5.88876 0
M  V30 20330 O 270.928 -3.58359 5.08515 0
M  V30 20331 C 269.738 -5.17448 6.36119 0
M  V30 20332 O 269.348 -4.45322 7.53318 0
M  V30 20333 C 268.858 -4.74639 5.19936 0
M  V30 20334 C 269.568 -3.49432 4.70418 0
M  V30 20335 N 269.518 -3.31776 3.22945 0
M  V30 20336 C 269.368 -2.02742 2.72939 0
M  V30 20337 O 269.278 -1.08301 3.52749 0
M  V30 20338 N 269.318 -1.96117 1.22063 0
M  V30 20339 C 269.418 -2.8878 0.551566 0
M  V30 20340 N 269.368 -2.65609 -0.750198 0
M  V30 20341 C 269.568 -4.22457 1.03707 0
M  V30 20342 C 269.618 -4.37979 2.39113 0
M  V30 20343 H 272.358 -6.54138 5.7131 0
M  V30 20344 H 272.628 -5.30492 4.44033 0
M  V30 20345 H 271.761 -4.55945 6.76735 0
M  V30 20346 H 269.106 -2.6176 5.18021 0
M  V30 20347 H 268.826 -5.52233 4.41941 0
M  V30 20348 H 267.835 -4.52045 5.53452 0
M  V30 20349 H 269.669 -6.25124 6.55234 0
M  V30 20350 H 269.741 -5.37936 2.80552 0
M  V30 20351 H 269.639 -5.07528 0.359553 0
M  V30 20352 H 269.251 -1.69403 -1.09847 0
M  V30 20353 H 269.447 -3.43701 -1.41792 0
M  V30 20354 P 267.798 -4.23843 7.83734 0
M  V30 20355 O 267.578 -4.19407 9.29784 0
M  V30 20356 O 267.008 -5.24426 7.09156 0
M  V30 20357 O 267.548 -2.7935 7.20758 0
M  V30 20358 C 268.488 -1.72945 7.50224 0
M  V30 20359 C 267.758 -0.406376 7.57911 0
M  V30 20360 O 267.548 0.0897726 6.21935 0
M  V30 20361 C 266.358 -0.438983 8.18724 0
M  V30 20362 O 265.968 0.825065 8.71101 0
M  V30 20363 C 265.478 -0.783689 6.99524 0
M  V30 20364 C 266.188 -0.0619086 5.85867 0
M  V30 20365 N 266.138 -0.78573 4.56183 0
M  V30 20366 C 265.988 -0.0292889 3.41887 0
M  V30 20367 O 265.898 1.18445 3.4419 0
M  V30 20368 N 265.948 -0.744061 2.23964 0
M  V30 20369 C 266.038 -2.10932 2.10362 0
M  V30 20370 O 265.988 -2.64117 0.98825 0
M  V30 20371 C 266.188 -2.8202 3.34994 0
M  V30 20372 C 266.298 -4.31095 3.25037 0
M  V30 20373 C 266.238 -2.15547 4.52261 0
M  V30 20374 H 268.979 -1.93379 8.46595 0
M  V30 20375 H 269.248 -1.68132 6.70852 0
M  V30 20376 H 268.381 0.289041 8.15388 0
M  V30 20377 H 265.726 0.926847 5.72749 0
M  V30 20378 H 265.447 -1.86973 6.82036 0
M  V30 20379 H 264.455 -0.403896 7.13257 0
M  V30 20380 H 266.289 -1.20585 8.97435 0
M  V30 20381 H 266.36 -2.71231 5.45042 0
M  V30 20382 H 265.33 -4.76966 3.49992 0
M  V30 20383 H 267.067 -4.67047 3.95024 0
M  V30 20384 H 266.579 -4.58996 2.22312 0
M  V30 20385 H 265.843 -0.214893 1.39758 0
M  V30 20386 P 264.418 1.17771 8.83182 0
M  V30 20387 O 264.198 2.07206 9.98732 0
M  V30 20388 O 263.628 -0.0743816 8.81969 0
M  V30 20389 O 264.168 1.97652 7.47304 0
M  V30 20390 C 265.108 3.01055 7.08599 0
M  V30 20391 C 264.378 4.12613 6.37049 0
M  V30 20392 O 264.168 3.72827 4.97879 0
M  V30 20393 C 262.978 4.45719 6.88164 0
M  V30 20394 O 262.588 5.7877 6.5624 0
M  V30 20395 C 262.098 3.47768 6.11991 0
M  V30 20396 C 262.808 3.39356 4.77615 0
M  V30 20397 N 262.758 2.04571 4.15244 0
M  V30 20398 C 262.608 1.98587 2.78314 0
M  V30 20399 O 262.518 2.98134 2.08835 0
M  V30 20400 N 262.568 0.714467 2.24925 0
M  V30 20401 C 262.658 -0.470001 2.94169 0
M  V30 20402 C 262.808 -0.312541 4.36783 0
M  V30 20403 C 262.858 0.914512 4.92583 0
M  V30 20404 H 265.599 3.41169 7.98575 0
M  V30 20405 H 265.868 2.58295 6.41556 0
M  V30 20406 H 265.001 5.02657 6.42673 0
M  V30 20407 H 262.346 4.11637 4.08885 0
M  V30 20408 H 262.067 2.49626 6.61679 0
M  V30 20409 H 261.075 3.86566 6.00778 0
M  V30 20410 H 262.909 4.29943 7.96918 0
M  V30 20411 H 262.98 1.00937 6.00374 0
M  V30 20412 P 261.038 6.144 6.45285 0
M  V30 20413 O 260.818 7.54673 6.86199 0
M  V30 20414 O 260.248 5.12391 7.179 0
M  V30 20415 O 260.788 5.99158 4.88404 0
M  V30 20416 C 261.728 6.60234 3.96415 0
M  V30 20417 C 260.998 7.08259 2.72856 0
M  V30 20418 O 260.788 5.9427 1.83651 0
M  V30 20419 C 259.598 7.64886 2.9555 0
M  V30 20420 O 259.208 8.53963 1.90717 0
M  V30 20421 C 258.718 6.4116 2.90739 0
M  V30 20422 C 259.428 5.55375 1.86963 0
M  V30 20423 N 259.378 4.09664 2.15742 0
M  V30 20424 H 262.217 7.45574 4.45629 0
M  V30 20425 H 262.489 5.86232 3.67314 0
M  V30 20426 H 261.621 7.84412 2.24479 0
M  V30 20427 P 257.658 8.7635 1.60911 0
M  V30 20428 O 257.438 10.1388 1.11561 0
M  V30 20429 O 256.868 8.36503 2.79617 0
M  V30 20430 O 257.408 7.71806 0.42951 0
M  V30 20431 C 258.348 7.67148 -0.673689 0
M  V30 20432 C 257.618 7.33374 -1.95559 0
M  V30 20433 O 257.408 5.88721 -2.00726 0
M  V30 20434 C 256.218 7.92526 -2.10483 0
M  V30 20435 O 255.828 8.02971 -3.47653 0
M  V30 20436 C 255.338 6.89602 -1.41652 0
M  V30 20437 C 256.048 5.59201 -1.75185 0
M  V30 20438 N 255.998 4.58235 -0.662552 0
M  V30 20439 H 258.837 8.65116 -0.777161 0
M  V30 20440 H 259.109 6.90173 -0.474152 0
M  V30 20441 H 258.241 7.66548 -2.79458 0
M  V30 20442 P 254.279 8.03563 -3.84925 0
M  V30 20443 O 254.059 8.85821 -5.0569 0
M  V30 20444 O 253.489 8.41101 -2.65469 0
M  V30 20445 O 254.029 6.4965 -4.18908 0
M  V30 20446 C 254.969 5.81037 -5.05421 0
M  V30 20447 C 254.239 4.78366 -5.89277 0
M  V30 20448 O 254.029 3.58302 -5.08433 0
M  V30 20449 C 252.839 5.17448 -6.36119 0
M  V30 20450 O 252.449 4.45271 -7.53232 0
M  V30 20451 C 251.959 4.74639 -5.19936 0
M  V30 20452 C 252.669 3.49432 -4.70418 0
M  V30 20453 N 252.619 3.32099 -3.22613 0
M  V30 20454 H 255.458 6.54213 -5.71376 0
M  V30 20455 H 255.73 5.30936 -4.43503 0
M  V30 20456 H 254.862 4.55889 -6.76652 0
M  V30 20457 H 252.207 2.61715 -5.17932 0
M  V30 20458 H 251.927 5.52155 -4.41878 0
M  V30 20459 H 250.936 4.51981 -5.53374 0
M  V30 20460 H 252.77 6.25124 -6.55234 0
M  V30 20461 P 250.899 4.23843 -7.83734 0
M  V30 20462 O 250.679 4.19407 -9.29784 0
M  V30 20463 O 250.109 5.24426 -7.09156 0
M  V30 20464 O 250.649 2.7935 -7.20758 0
M  V30 20465 C 251.589 1.7299 -7.50419 0
M  V30 20466 C 250.859 0.406376 -7.57911 0
M  V30 20467 O 250.649 -0.0897726 -6.21935 0
M  V30 20468 C 249.459 0.447224 -8.1878 0
M  V30 20469 O 249.069 -0.825065 -8.71101 0
M  V30 20470 C 248.579 0.783801 -6.99623 0
M  V30 20471 C 249.289 0.0619192 -5.85967 0
M  V30 20472 N 249.239 0.790462 -4.56202 0
M  V30 20473 C 249.319 2.13895 -4.34171 0
M  V30 20474 N 249.249 2.46449 -3.08687 0
M  V30 20475 C 249.099 1.2525 -2.43697 0
M  V30 20476 C 248.969 0.914535 -1.07318 0
M  V30 20477 N 248.959 1.80782 -0.0887348 0
M  V30 20478 N 248.849 -0.386745 -0.768133 0
M  V30 20479 C 248.859 -1.28096 -1.75159 0
M  V30 20480 N 248.979 -1.09708 -3.04861 0
M  V30 20481 C 249.099 0.214857 -3.32306 0
M  V30 20482 H 252.078 1.93423 -8.4679 0
M  V30 20483 H 252.35 1.68852 -6.70877 0
M  V30 20484 H 251.482 -0.289041 -8.15388 0
M  V30 20485 H 248.827 -0.927006 -5.72848 0
M  V30 20486 H 248.547 1.86973 -6.82036 0
M  V30 20487 H 247.556 0.403953 -7.13357 0
M  V30 20488 H 249.39 1.20599 -8.97534 0
M  V30 20489 H 249.431 2.86846 -5.14318 0
M  V30 20490 H 249.05 2.81082 -0.302037 0
M  V30 20491 H 248.861 1.49688 0.889064 0
M  V30 20492 H 248.753 -2.31317 -1.43855 0
M  V30 20493 P 247.519 -1.17771 -8.83182 0
M  V30 20494 O 247.299 -2.07206 -9.98732 0
M  V30 20495 O 246.729 0.0743816 -8.81969 0
M  V30 20496 O 247.269 -1.97652 -7.47304 0
M  V30 20497 C 248.209 -3.01133 -7.08783 0
M  V30 20498 C 247.479 -4.12613 -6.37049 0
M  V30 20499 O 247.269 -3.72827 -4.97879 0
M  V30 20500 C 246.079 -4.45085 -6.88694 0
M  V30 20501 O 245.689 -5.7877 -6.5624 0
M  V30 20502 C 245.199 -3.47817 -6.12078 0
M  V30 20503 C 245.909 -3.39414 -4.77697 0
M  V30 20504 N 245.859 -2.04615 -4.15333 0
M  V30 20505 H 248.698 -3.41248 -7.98759 0
M  V30 20506 H 248.97 -2.5837 -6.41742 0
M  V30 20507 H 248.102 -5.02657 -6.42673 0
M  V30 20508 P 244.139 -6.144 -6.45285 0
M  V30 20509 O 243.919 -7.54673 -6.86199 0
M  V30 20510 O 243.349 -5.12391 -7.179 0
M  V30 20511 O 243.889 -5.99158 -4.88404 0
M  V30 20512 C 244.829 -6.60234 -3.96415 0
M  V30 20513 C 244.099 -7.08259 -2.72856 0
M  V30 20514 O 243.889 -5.9427 -1.83651 0
M  V30 20515 C 242.699 -7.64886 -2.9555 0
M  V30 20516 O 242.309 -8.53963 -1.90717 0
M  V30 20517 C 241.819 -6.4116 -2.90739 0
M  V30 20518 C 242.529 -5.55375 -1.86963 0
M  V30 20519 N 242.479 -4.09448 -2.16152 0
M  V30 20520 C 242.559 -3.46824 -3.37593 0
M  V30 20521 N 242.489 -2.17422 -3.29777 0
M  V30 20522 C 242.339 -1.93065 -1.94427 0
M  V30 20523 C 242.209 -0.738053 -1.20141 0
M  V30 20524 N 242.199 0.474256 -1.74676 0
M  V30 20525 N 242.089 -0.850049 0.13045 0
M  V30 20526 C 242.099 -2.06169 0.676992 0
M  V30 20527 N 242.219 -3.23842 0.101312 0
M  V30 20528 C 242.339 -3.09402 -1.23122 0
M  V30 20529 H 245.318 -7.45574 -4.45629 0
M  V30 20530 H 245.59 -5.85864 -3.679 0
M  V30 20531 H 244.722 -7.84412 -2.24479 0
M  V30 20532 H 242.067 -5.73457 -0.888562 0
M  V30 20533 H 241.787 -5.90877 -3.88583 0
M  V30 20534 H 240.796 -6.6596 -2.58858 0
M  V30 20535 H 242.63 -8.16339 -3.92049 0
M  V30 20536 H 242.671 -4.00505 -4.3174 0
M  V30 20537 H 242.29 0.581337 -2.76658 0
M  V30 20538 H 242.101 1.30811 -1.14888 0
M  V30 20539 H 241.993 -2.08295 1.75542 0
M  V30 20540 P 240.759 -8.7635 -1.60911 0
M  V30 20541 O 240.539 -10.1388 -1.11561 0
M  V30 20542 O 239.969 -8.36503 -2.79617 0
M  V30 20543 O 240.509 -7.71806 -0.42951 0
M  V30 20544 C 241.449 -7.67148 0.673689 0
M  V30 20545 C 240.719 -7.33374 1.95559 0
M  V30 20546 O 240.509 -5.88721 2.00726 0
M  V30 20547 C 239.319 -7.92526 2.10483 0
M  V30 20548 O 238.929 -8.02971 3.47653 0
M  V30 20549 C 238.439 -6.89602 1.41652 0
M  V30 20550 C 239.149 -5.59201 1.75185 0
M  V30 20551 N 239.099 -4.58301 0.657969 0
M  V30 20552 H 241.938 -8.65116 0.777161 0
M  V30 20553 H 242.21 -6.9022 0.46725 0
M  V30 20554 H 241.342 -7.66548 2.79458 0
M  V30 20555 H 238.687 -5.16165 2.65183 0
M  V30 20556 H 238.407 -7.06433 0.329384 0
M  V30 20557 H 237.416 -6.90926 1.82021 0
M  V30 20558 H 239.25 -8.90873 1.62657 0
M  V30 20559 P 237.379 -8.03563 3.84925 0
M  V30 20560 O 237.159 -8.85821 5.0569 0
M  V30 20561 O 236.589 -8.41101 2.65469 0
M  V30 20562 O 237.129 -6.4965 4.18908 0
M  V30 20563 C 238.069 -5.81037 5.05421 0
M  V30 20564 C 237.339 -4.78366 5.89277 0
M  V30 20565 O 237.129 -3.58302 5.08433 0
M  V30 20566 C 235.939 -5.17448 6.36119 0
M  V30 20567 O 235.549 -4.45271 7.53232 0
M  V30 20568 C 235.059 -4.74639 5.19936 0
M  V30 20569 C 235.769 -3.49432 4.70418 0
M  V30 20570 N 235.719 -3.32099 3.22613 0
M  V30 20571 H 238.558 -6.54213 5.71376 0
M  V30 20572 H 238.83 -5.30936 4.43503 0
M  V30 20573 H 237.962 -4.55889 6.76652 0
M  V30 20574 H 235.307 -2.61715 5.17932 0
M  V30 20575 H 235.027 -5.52155 4.41878 0
M  V30 20576 H 234.036 -4.51981 5.53374 0
M  V30 20577 H 235.87 -6.25124 6.55234 0
M  V30 20578 P 233.999 -4.23843 7.83734 0
M  V30 20579 O 233.779 -4.19407 9.29784 0
M  V30 20580 O 233.209 -5.24426 7.09156 0
M  V30 20581 O 233.749 -2.7935 7.20758 0
M  V30 20582 C 234.689 -1.7299 7.50419 0
M  V30 20583 C 233.959 -0.406376 7.57911 0
M  V30 20584 O 233.749 0.0897726 6.21935 0
M  V30 20585 C 232.559 -0.447224 8.1878 0
M  V30 20586 O 232.169 0.825065 8.71101 0
M  V30 20587 C 231.679 -0.783801 6.99623 0
M  V30 20588 C 232.389 -0.0619192 5.85967 0
M  V30 20589 N 232.339 -0.790462 4.56202 0
M  V30 20590 H 235.178 -1.93423 8.4679 0
M  V30 20591 H 235.45 -1.68852 6.70877 0
M  V30 20592 H 234.582 0.289041 8.15388 0
M  V30 20593 H 231.927 0.927006 5.72848 0
M  V30 20594 H 231.647 -1.86973 6.82036 0
M  V30 20595 H 230.656 -0.403953 7.13357 0
M  V30 20596 H 232.49 -1.20599 8.97534 0
M  V30 20597 P 230.619 1.17771 8.83182 0
M  V30 20598 O 230.399 2.07206 9.98732 0
M  V30 20599 O 229.829 -0.0743816 8.81969 0
M  V30 20600 O 230.369 1.97652 7.47304 0
M  V30 20601 C 231.309 3.01133 7.08783 0
M  V30 20602 C 230.579 4.12613 6.37049 0
M  V30 20603 O 230.369 3.72827 4.97879 0
M  V30 20604 C 229.179 4.45085 6.88694 0
M  V30 20605 O 228.789 5.7877 6.5624 0
M  V30 20606 C 228.299 3.47817 6.12078 0
M  V30 20607 C 229.009 3.39414 4.77697 0
M  V30 20608 N 228.959 2.04615 4.15333 0
M  V30 20609 H 231.798 3.41248 7.98759 0
M  V30 20610 H 232.07 2.5837 6.41742 0
M  V30 20611 H 231.202 5.02657 6.42673 0
M  V30 20612 P 227.239 6.144 6.45285 0
M  V30 20613 O 227.019 7.54673 6.86199 0
M  V30 20614 O 226.449 5.12391 7.179 0
M  V30 20615 O 226.989 5.99158 4.88404 0
M  V30 20616 C 227.929 6.60234 3.96415 0
M  V30 20617 C 227.199 7.08259 2.72856 0
M  V30 20618 O 226.989 5.9427 1.83651 0
M  V30 20619 C 225.799 7.64886 2.9555 0
M  V30 20620 O 225.409 8.53963 1.90717 0
M  V30 20621 C 224.919 6.4116 2.90739 0
M  V30 20622 C 225.629 5.55375 1.86963 0
M  V30 20623 N 225.579 4.09664 2.15742 0
M  V30 20624 H 228.418 7.45574 4.45629 0
M  V30 20625 H 228.69 5.86232 3.67314 0
M  V30 20626 H 227.822 7.84412 2.24479 0
M  V30 20627 P 223.859 8.7635 1.60911 0
M  V30 20628 O 223.639 10.1388 1.11561 0
M  V30 20629 O 223.069 8.36503 2.79617 0
M  V30 20630 O 223.609 7.71906 0.429565 0
M  V30 20631 C 224.549 7.67148 -0.673689 0
M  V30 20632 C 223.819 7.33666 -1.94851 0
M  V30 20633 O 223.609 5.88816 -2.00759 0
M  V30 20634 C 222.419 7.92526 -2.10483 0
M  V30 20635 O 222.029 8.03063 -3.47693 0
M  V30 20636 C 221.539 6.89602 -1.41652 0
M  V30 20637 C 222.249 5.59201 -1.75185 0
M  V30 20638 N 222.199 4.58235 -0.662552 0
M  V30 20639 C 222.049 3.24451 -1.01643 0
M  V30 20640 O 221.959 2.94958 -2.21722 0
M  V30 20641 N 221.999 2.30408 0.165238 0
M  V30 20642 C 222.099 2.66048 1.25118 0
M  V30 20643 N 222.049 1.70787 2.16813 0
M  V30 20644 C 222.249 4.02732 1.64413 0
M  V30 20645 C 222.299 4.9488 0.63991 0
M  V30 20646 H 225.039 8.65017 -0.777072 0
M  V30 20647 H 225.309 6.90173 -0.474152 0
M  V30 20648 H 224.442 7.66642 -2.79492 0
M  V30 20649 H 221.787 5.16254 -2.65229 0
M  V30 20650 H 221.507 7.06532 -0.329431 0
M  V30 20651 H 220.516 6.91023 -1.82047 0
M  V30 20652 H 222.35 8.90873 -1.62657 0
M  V30 20653 H 222.422 6.00104 0.892197 0
M  V30 20654 H 222.32 4.31733 2.69229 0
M  V30 20655 H 221.932 0.724835 1.8844 0
M  V30 20656 H 222.128 1.94716 3.16734 0
M  V30 20657 P 220.479 8.03563 -3.84925 0
M  V30 20658 O 220.259 8.85821 -5.0569 0
M  V30 20659 O 219.689 8.41101 -2.65469 0
M  V30 20660 O 220.229 6.49734 -4.18962 0
M  V30 20661 C 221.169 5.81037 -5.05421 0
M  V30 20662 C 220.439 4.79018 -5.88876 0
M  V30 20663 O 220.229 3.58359 -5.08515 0
M  V30 20664 C 219.039 5.17448 -6.36119 0
M  V30 20665 O 218.649 4.45322 -7.53318 0
M  V30 20666 C 218.159 4.74639 -5.19936 0
M  V30 20667 C 218.869 3.49432 -4.70418 0
M  V30 20668 N 218.819 3.31776 -3.22945 0
M  V30 20669 C 218.669 2.02742 -2.72939 0
M  V30 20670 O 218.579 1.08301 -3.52749 0
M  V30 20671 N 218.619 1.96117 -1.22063 0
M  V30 20672 C 218.719 2.8878 -0.551566 0
M  V30 20673 N 218.669 2.65609 0.750198 0
M  V30 20674 C 218.869 4.22457 -1.03707 0
M  V30 20675 C 218.919 4.37979 -2.39113 0
M  V30 20676 H 221.659 6.54138 -5.7131 0
M  V30 20677 H 221.929 5.30492 -4.44033 0
M  V30 20678 H 221.062 4.55945 -6.76735 0
M  V30 20679 H 218.407 2.6176 -5.18021 0
M  V30 20680 H 218.127 5.52233 -4.41941 0
M  V30 20681 H 217.136 4.52045 -5.53452 0
M  V30 20682 H 218.97 6.25124 -6.55234 0
M  V30 20683 H 219.042 5.37936 -2.80552 0
M  V30 20684 H 218.94 5.07528 -0.359553 0
M  V30 20685 H 218.552 1.69403 1.09847 0
M  V30 20686 H 218.748 3.43701 1.41792 0
M  V30 20687 P 217.099 4.23843 -7.83734 0
M  V30 20688 O 216.879 4.19407 -9.29784 0
M  V30 20689 O 216.309 5.24426 -7.09156 0
M  V30 20690 O 216.849 2.7935 -7.20758 0
M  V30 20691 C 217.789 1.7299 -7.50419 0
M  V30 20692 C 217.059 0.406376 -7.57911 0
M  V30 20693 O 216.849 -0.0897726 -6.21935 0
M  V30 20694 C 215.659 0.447224 -8.1878 0
M  V30 20695 O 215.269 -0.825065 -8.71101 0
M  V30 20696 C 214.779 0.783801 -6.99623 0
M  V30 20697 C 215.489 0.0619192 -5.85967 0
M  V30 20698 N 215.439 0.7859 -4.56281 0
M  V30 20699 H 218.278 1.93423 -8.4679 0
M  V30 20700 H 218.55 1.68181 -6.71046 0
M  V30 20701 H 217.682 -0.289041 -8.15388 0
M  V30 20702 P 213.719 -1.17771 -8.83182 0
M  V30 20703 O 213.499 -2.07206 -9.98732 0
M  V30 20704 O 212.929 0.0743816 -8.81969 0
M  V30 20705 O 213.469 -1.97652 -7.47304 0
M  V30 20706 C 214.409 -3.01133 -7.08783 0
M  V30 20707 C 213.679 -4.12613 -6.37049 0
M  V30 20708 O 213.469 -3.72827 -4.97879 0
M  V30 20709 C 212.279 -4.45085 -6.88694 0
M  V30 20710 O 211.889 -5.7877 -6.5624 0
M  V30 20711 C 211.399 -3.47817 -6.12078 0
M  V30 20712 C 212.109 -3.39414 -4.77697 0
M  V30 20713 N 212.059 -2.04615 -4.15333 0
M  V30 20714 H 214.898 -3.41248 -7.98759 0
M  V30 20715 H 215.17 -2.5837 -6.41742 0
M  V30 20716 H 214.302 -5.02657 -6.42673 0
M  V30 20717 P 210.339 -6.144 -6.45285 0
M  V30 20718 O 210.119 -7.54673 -6.86199 0
M  V30 20719 O 209.549 -5.12391 -7.179 0
M  V30 20720 O 210.089 -5.99158 -4.88404 0
M  V30 20721 C 211.029 -6.60234 -3.96415 0
M  V30 20722 C 210.299 -7.08259 -2.72856 0
M  V30 20723 O 210.089 -5.9427 -1.83651 0
M  V30 20724 C 208.899 -7.64886 -2.9555 0
M  V30 20725 O 208.509 -8.53963 -1.90717 0
M  V30 20726 C 208.019 -6.4116 -2.90739 0
M  V30 20727 C 208.729 -5.55375 -1.86963 0
M  V30 20728 N 208.679 -4.09448 -2.16152 0
M  V30 20729 H 211.518 -7.45574 -4.45629 0
M  V30 20730 H 211.79 -5.85864 -3.679 0
M  V30 20731 H 210.922 -7.84412 -2.24479 0
M  V30 20732 H 208.267 -5.73457 -0.888562 0
M  V30 20733 H 207.987 -5.90877 -3.88583 0
M  V30 20734 H 206.996 -6.6596 -2.58858 0
M  V30 20735 H 208.83 -8.16339 -3.92049 0
M  V30 20736 P 206.959 -8.7635 -1.60911 0
M  V30 20737 O 206.739 -10.1388 -1.11561 0
M  V30 20738 O 206.169 -8.36503 -2.79617 0
M  V30 20739 O 206.709 -7.71806 -0.42951 0
M  V30 20740 C 207.649 -7.67148 0.673689 0
M  V30 20741 C 206.919 -7.33374 1.95559 0
M  V30 20742 O 206.709 -5.88721 2.00726 0
M  V30 20743 C 205.519 -7.92526 2.10483 0
M  V30 20744 O 205.129 -8.02971 3.47653 0
M  V30 20745 C 204.639 -6.89602 1.41652 0
M  V30 20746 C 205.349 -5.59201 1.75185 0
M  V30 20747 N 205.299 -4.58235 0.662552 0
M  V30 20748 H 208.138 -8.65116 0.777161 0
M  V30 20749 H 208.41 -6.90173 0.474152 0
M  V30 20750 H 207.542 -7.66548 2.79458 0
M  V30 20751 P 203.579 -8.03563 3.84925 0
M  V30 20752 O 203.359 -8.85821 5.0569 0
M  V30 20753 O 202.789 -8.41101 2.65469 0
M  V30 20754 O 203.329 -6.4965 4.18908 0
M  V30 20755 C 204.269 -5.81037 5.05421 0
M  V30 20756 C 203.539 -4.78366 5.89277 0
M  V30 20757 O 203.329 -3.58302 5.08433 0
M  V30 20758 C 202.139 -5.17448 6.36119 0
M  V30 20759 O 201.749 -4.45271 7.53232 0
M  V30 20760 C 201.259 -4.74639 5.19936 0
M  V30 20761 C 201.969 -3.49432 4.70418 0
M  V30 20762 N 201.919 -3.31776 3.22945 0
M  V30 20763 H 204.758 -6.54213 5.71376 0
M  V30 20764 H 205.03 -5.30492 4.44033 0
M  V30 20765 H 204.162 -4.55889 6.76652 0
M  V30 20766 P 200.199 -4.23843 7.83734 0
M  V30 20767 O 199.979 -4.19407 9.29784 0
M  V30 20768 O 199.409 -5.24426 7.09156 0
M  V30 20769 O 199.949 -2.7935 7.20758 0
M  V30 20770 C 200.889 -1.72945 7.50224 0
M  V30 20771 C 200.159 -0.406376 7.57911 0
M  V30 20772 O 199.949 0.0897726 6.21935 0
M  V30 20773 C 198.759 -0.438983 8.18724 0
M  V30 20774 O 198.369 0.825065 8.71101 0
M  V30 20775 C 197.879 -0.783689 6.99524 0
M  V30 20776 C 198.589 -0.0619086 5.85867 0
M  V30 20777 N 198.539 -0.78573 4.56183 0
M  V30 20778 C 198.389 -0.0292889 3.41887 0
M  V30 20779 O 198.299 1.18445 3.4419 0
M  V30 20780 N 198.349 -0.744061 2.23964 0
M  V30 20781 C 198.439 -2.10932 2.10362 0
M  V30 20782 O 198.389 -2.64117 0.98825 0
M  V30 20783 C 198.589 -2.8202 3.34994 0
M  V30 20784 C 198.699 -4.31095 3.25037 0
M  V30 20785 C 198.639 -2.15547 4.52261 0
M  V30 20786 H 201.38 -1.93379 8.46595 0
M  V30 20787 H 201.649 -1.68132 6.70852 0
M  V30 20788 H 200.782 0.289041 8.15388 0
M  V30 20789 H 198.127 0.926847 5.72749 0
M  V30 20790 H 197.848 -1.86973 6.82036 0
M  V30 20791 H 196.856 -0.403896 7.13257 0
M  V30 20792 H 198.69 -1.20585 8.97435 0
M  V30 20793 H 198.761 -2.71231 5.45042 0
M  V30 20794 H 197.731 -4.76966 3.49992 0
M  V30 20795 H 199.468 -4.67047 3.95024 0
M  V30 20796 H 198.98 -4.58996 2.22312 0
M  V30 20797 H 198.244 -0.214893 1.39758 0
M  V30 20798 P 196.819 1.17771 8.83182 0
M  V30 20799 O 196.599 2.07206 9.98732 0
M  V30 20800 O 196.029 -0.0743816 8.81969 0
M  V30 20801 O 196.569 1.97652 7.47304 0
M  V30 20802 C 197.509 3.01055 7.08599 0
M  V30 20803 C 196.779 4.12613 6.37049 0
M  V30 20804 O 196.569 3.72827 4.97879 0
M  V30 20805 C 195.379 4.45719 6.88164 0
M  V30 20806 O 194.989 5.7877 6.5624 0
M  V30 20807 C 194.499 3.47768 6.11991 0
M  V30 20808 C 195.209 3.39356 4.77615 0
M  V30 20809 N 195.159 2.04571 4.15244 0
M  V30 20810 C 195.009 1.98587 2.78314 0
M  V30 20811 O 194.919 2.98134 2.08835 0
M  V30 20812 N 194.969 0.714467 2.24925 0
M  V30 20813 C 195.059 -0.470001 2.94169 0
M  V30 20814 O 195.009 -1.55587 2.35195 0
M  V30 20815 C 195.209 -0.312541 4.36783 0
M  V30 20816 C 195.319 -1.57711 5.16352 0
M  V30 20817 C 195.259 0.914512 4.92583 0
M  V30 20818 H 198 3.41169 7.98575 0
M  V30 20819 H 198.269 2.58295 6.41556 0
M  V30 20820 H 197.402 5.02657 6.42673 0
M  V30 20821 H 194.747 4.11637 4.08885 0
M  V30 20822 H 194.468 2.49626 6.61679 0
M  V30 20823 H 193.476 3.86566 6.00778 0
M  V30 20824 H 195.31 4.29943 7.96918 0
M  V30 20825 H 195.381 1.00937 6.00374 0
M  V30 20826 H 194.351 -1.80153 5.63503 0
M  V30 20827 H 196.088 -1.4566 5.94104 0
M  V30 20828 H 195.6 -2.40664 4.49645 0
M  V30 20829 H 194.864 0.647622 1.25697 0
M  V30 20830 P 193.439 6.144 6.45285 0
M  V30 20831 O 193.219 7.54673 6.86199 0
M  V30 20832 O 192.649 5.12391 7.179 0
M  V30 20833 O 193.189 5.99158 4.88404 0
M  V30 20834 C 194.129 6.60062 3.96313 0
M  V30 20835 C 193.399 7.08259 2.72856 0
M  V30 20836 O 193.189 5.9427 1.83651 0
M  V30 20837 C 191.999 7.65087 2.94749 0
M  V30 20838 O 191.609 8.53963 1.90717 0
M  V30 20839 C 191.119 6.41069 2.90698 0
M  V30 20840 C 191.829 5.5528 1.86931 0
M  V30 20841 N 191.779 4.09575 2.15696 0
M  V30 20842 C 191.629 3.24249 1.08435 0
M  V30 20843 O 191.539 3.63946 -0.0628747 0
M  V30 20844 N 191.589 1.90009 1.39973 0
M  V30 20845 C 191.679 1.34884 2.65614 0
M  V30 20846 O 191.629 0.123716 2.81728 0
M  V30 20847 C 191.829 2.3145 3.71736 0
M  V30 20848 C 191.939 1.75913 5.10438 0
M  V30 20849 C 191.879 3.63518 3.44754 0
M  V30 20850 H 194.62 7.45402 4.45526 0
M  V30 20851 H 194.889 5.86062 3.67208 0
M  V30 20852 H 194.022 7.84412 2.24479 0
M  V30 20853 H 191.367 5.73358 0.888409 0
M  V30 20854 H 191.088 5.90877 3.88583 0
M  V30 20855 H 190.096 6.65867 2.58821 0
M  V30 20856 H 191.93 8.16248 3.92006 0
M  V30 20857 H 192.001 4.34551 4.26383 0
M  V30 20858 H 190.971 1.85471 5.61775 0
M  V30 20859 H 192.708 2.31364 5.66257 0
M  V30 20860 H 192.22 0.695936 5.05229 0
M  V30 20861 H 191.484 1.26277 0.63625 0
M  V30 20862 P 190.059 8.7635 1.60911 0
M  V30 20863 O 189.839 10.1388 1.11561 0
M  V30 20864 O 189.269 8.36503 2.79617 0
M  V30 20865 O 189.809 7.71806 0.42951 0
M  V30 20866 C 190.749 7.67148 -0.673689 0
M  V30 20867 C 190.019 7.33374 -1.95559 0
M  V30 20868 O 189.809 5.88721 -2.00726 0
M  V30 20869 C 188.619 7.92526 -2.10483 0
M  V30 20870 O 188.229 8.02971 -3.47653 0
M  V30 20871 C 187.739 6.89602 -1.41652 0
M  V30 20872 C 188.449 5.59201 -1.75185 0
M  V30 20873 N 188.399 4.58235 -0.662552 0
M  V30 20874 H 191.238 8.65116 -0.777161 0
M  V30 20875 H 191.51 6.90173 -0.474152 0
M  V30 20876 H 190.642 7.66548 -2.79458 0
M  V30 20877 P 186.679 8.03563 -3.84925 0
M  V30 20878 O 186.459 8.85821 -5.0569 0
M  V30 20879 O 185.889 8.41101 -2.65469 0
M  V30 20880 O 186.429 6.4965 -4.18908 0
M  V30 20881 C 187.369 5.80886 -5.05289 0
M  V30 20882 C 186.639 4.78366 -5.89277 0
M  V30 20883 O 186.429 3.58302 -5.08433 0
M  V30 20884 C 185.239 5.16748 -6.36559 0
M  V30 20885 O 184.849 4.45271 -7.53232 0
M  V30 20886 C 184.359 4.74572 -5.19863 0
M  V30 20887 C 185.069 3.49373 -4.70338 0
M  V30 20888 N 185.019 3.31704 -3.22876 0
M  V30 20889 C 184.869 2.03326 -2.74871 0
M  V30 20890 O 184.779 1.06486 -3.48076 0
M  V30 20891 N 184.829 1.91838 -1.37456 0
M  V30 20892 C 184.919 2.94295 -0.462035 0
M  V30 20893 O 184.869 2.71763 0.752928 0
M  V30 20894 C 185.069 4.25064 -1.05249 0
M  V30 20895 C 185.179 5.39815 -0.095697 0
M  V30 20896 C 185.119 4.40214 -2.39192 0
M  V30 20897 H 187.86 6.54063 -5.71245 0
M  V30 20898 H 188.129 5.30339 -4.43905 0
M  V30 20899 H 187.262 4.55889 -6.76652 0
M  V30 20900 H 184.607 2.6167 -5.17842 0
M  V30 20901 H 184.328 5.52155 -4.41878 0
M  V30 20902 H 183.336 4.51918 -5.53297 0
M  V30 20903 H 185.17 6.25055 -6.55162 0
M  V30 20904 H 185.241 5.39798 -2.81523 0
M  V30 20905 H 184.211 5.91593 -0.0279582 0
M  V30 20906 H 185.948 6.10038 -0.450573 0
M  V30 20907 H 185.46 5.02007 0.89937 0
M  V30 20908 H 184.724 0.995326 -1.00435 0
M  V30 20909 P 183.299 4.23843 -7.83734 0
M  V30 20910 O 183.079 4.19407 -9.29784 0
M  V30 20911 O 182.509 5.24426 -7.09156 0
M  V30 20912 O 183.049 2.7935 -7.20758 0
M  V30 20913 C 183.989 1.7299 -7.50419 0
M  V30 20914 C 183.259 0.406376 -7.57911 0
M  V30 20915 O 183.049 -0.0897726 -6.21935 0
M  V30 20916 C 181.859 0.447224 -8.1878 0
M  V30 20917 O 181.469 -0.825065 -8.71101 0
M  V30 20918 C 180.979 0.783801 -6.99623 0
M  V30 20919 C 181.689 0.0619192 -5.85967 0
M  V30 20920 N 181.639 0.7859 -4.56281 0
M  V30 20921 H 184.478 1.93423 -8.4679 0
M  V30 20922 H 184.75 1.68181 -6.71046 0
M  V30 20923 H 183.882 -0.289041 -8.15388 0
M  V30 20924 P 179.919 -1.17771 -8.83182 0
M  V30 20925 O 179.699 -2.07206 -9.98732 0
M  V30 20926 O 179.129 0.0743816 -8.81969 0
M  V30 20927 O 179.669 -1.97652 -7.47304 0
M  V30 20928 C 180.609 -3.01055 -7.08599 0
M  V30 20929 C 179.879 -4.12613 -6.37049 0
M  V30 20930 O 179.669 -3.72827 -4.97879 0
M  V30 20931 C 178.479 -4.45719 -6.88164 0
M  V30 20932 O 178.089 -5.7877 -6.5624 0
M  V30 20933 C 177.599 -3.47768 -6.11991 0
M  V30 20934 C 178.309 -3.39356 -4.77615 0
M  V30 20935 N 178.259 -2.04571 -4.15244 0
M  V30 20936 C 178.109 -1.98587 -2.78314 0
M  V30 20937 O 178.019 -2.98134 -2.08835 0
M  V30 20938 N 178.069 -0.714467 -2.24925 0
M  V30 20939 C 178.159 0.470001 -2.94169 0
M  V30 20940 O 178.109 1.55587 -2.35195 0
M  V30 20941 C 178.309 0.312541 -4.36783 0
M  V30 20942 C 178.419 1.57711 -5.16352 0
M  V30 20943 C 178.359 -0.914512 -4.92583 0
M  V30 20944 H 181.1 -3.41169 -7.98575 0
M  V30 20945 H 181.369 -2.58295 -6.41556 0
M  V30 20946 H 180.502 -5.02657 -6.42673 0
M  V30 20947 H 177.847 -4.11637 -4.08885 0
M  V30 20948 H 177.568 -2.49626 -6.61679 0
M  V30 20949 H 176.576 -3.86566 -6.00778 0
M  V30 20950 H 178.41 -4.29943 -7.96918 0
M  V30 20951 H 178.481 -1.00937 -6.00374 0
M  V30 20952 H 177.451 1.80153 -5.63503 0
M  V30 20953 H 179.188 1.4566 -5.94104 0
M  V30 20954 H 178.7 2.40664 -4.49645 0
M  V30 20955 H 177.964 -0.647622 -1.25697 0
M  V30 20956 P 176.539 -6.144 -6.45285 0
M  V30 20957 O 176.319 -7.54673 -6.86199 0
M  V30 20958 O 175.749 -5.12391 -7.179 0
M  V30 20959 O 176.289 -5.99158 -4.88404 0
M  V30 20960 C 177.229 -6.60062 -3.96313 0
M  V30 20961 C 176.499 -7.08259 -2.72856 0
M  V30 20962 O 176.289 -5.9427 -1.83651 0
M  V30 20963 C 175.099 -7.65087 -2.94749 0
M  V30 20964 O 174.709 -8.53963 -1.90717 0
M  V30 20965 C 174.219 -6.41069 -2.90698 0
M  V30 20966 C 174.929 -5.5528 -1.86931 0
M  V30 20967 N 174.879 -4.09575 -2.15696 0
M  V30 20968 C 174.729 -3.24249 -1.08435 0
M  V30 20969 O 174.639 -3.63946 0.0628747 0
M  V30 20970 N 174.689 -1.90009 -1.39973 0
M  V30 20971 C 174.779 -1.34884 -2.65614 0
M  V30 20972 O 174.729 -0.123716 -2.81728 0
M  V30 20973 C 174.929 -2.3145 -3.71736 0
M  V30 20974 C 175.039 -1.75913 -5.10438 0
M  V30 20975 C 174.979 -3.63518 -3.44754 0
M  V30 20976 H 177.72 -7.45402 -4.45526 0
M  V30 20977 H 177.989 -5.86062 -3.67208 0
M  V30 20978 H 177.122 -7.84412 -2.24479 0
M  V30 20979 H 174.467 -5.73358 -0.888409 0
M  V30 20980 H 174.188 -5.90877 -3.88583 0
M  V30 20981 H 173.196 -6.65867 -2.58821 0
M  V30 20982 H 175.03 -8.16248 -3.92006 0
M  V30 20983 H 175.101 -4.34551 -4.26383 0
M  V30 20984 H 174.071 -1.85471 -5.61775 0
M  V30 20985 H 175.808 -2.31364 -5.66257 0
M  V30 20986 H 175.32 -0.695936 -5.05229 0
M  V30 20987 H 174.584 -1.26277 -0.63625 0
M  V30 20988 P 173.159 -8.7635 -1.60911 0
M  V30 20989 O 172.939 -10.1388 -1.11561 0
M  V30 20990 O 172.369 -8.36503 -2.79617 0
M  V30 20991 O 172.909 -7.71806 -0.42951 0
M  V30 20992 C 173.849 -7.67148 0.673689 0
M  V30 20993 C 173.119 -7.33374 1.95559 0
M  V30 20994 O 172.909 -5.88721 2.00726 0
M  V30 20995 C 171.719 -7.92526 2.10483 0
M  V30 20996 O 171.329 -8.02971 3.47653 0
M  V30 20997 C 170.839 -6.89602 1.41652 0
M  V30 20998 C 171.549 -5.59201 1.75185 0
M  V30 20999 N 171.499 -4.58301 0.657969 0
M  V30 21000 H 174.338 -8.65116 0.777161 0
M  V30 21001 H 174.61 -6.9022 0.46725 0
M  V30 21002 H 173.742 -7.66548 2.79458 0
M  V30 21003 H 171.087 -5.16165 2.65183 0
M  V30 21004 H 170.807 -7.06433 0.329384 0
M  V30 21005 H 169.816 -6.90926 1.82021 0
M  V30 21006 H 171.65 -8.90873 1.62657 0
M  V30 21007 P 169.779 -8.03563 3.84925 0
M  V30 21008 O 169.559 -8.85821 5.0569 0
M  V30 21009 O 168.989 -8.41101 2.65469 0
M  V30 21010 O 169.529 -6.4965 4.18908 0
M  V30 21011 C 170.469 -5.81037 5.05421 0
M  V30 21012 C 169.739 -4.78366 5.89277 0
M  V30 21013 O 169.529 -3.58302 5.08433 0
M  V30 21014 C 168.339 -5.17448 6.36119 0
M  V30 21015 O 167.949 -4.45271 7.53232 0
M  V30 21016 C 167.459 -4.74639 5.19936 0
M  V30 21017 C 168.169 -3.49432 4.70418 0
M  V30 21018 N 168.119 -3.31776 3.22945 0
M  V30 21019 H 170.958 -6.54213 5.71376 0
M  V30 21020 H 171.23 -5.30492 4.44033 0
M  V30 21021 H 170.362 -4.55889 6.76652 0
M  V30 21022 P 166.399 -4.23843 7.83734 0
M  V30 21023 O 166.179 -4.19407 9.29784 0
M  V30 21024 O 165.609 -5.24426 7.09156 0
M  V30 21025 O 166.149 -2.79386 7.20852 0
M  V30 21026 C 167.089 -1.7299 7.50419 0
M  V30 21027 C 166.359 -0.41401 7.5797 0
M  V30 21028 O 166.149 0.089787 6.22035 0
M  V30 21029 C 164.959 -0.447224 8.1878 0
M  V30 21030 O 164.569 0.825159 8.71201 0
M  V30 21031 C 164.079 -0.783801 6.99623 0
M  V30 21032 C 164.789 -0.0619192 5.85967 0
M  V30 21033 N 164.739 -0.7859 4.56281 0
M  V30 21034 C 164.589 -0.0359258 3.39981 0
M  V30 21035 O 164.499 1.19723 3.49038 0
M  V30 21036 N 164.539 -0.869151 2.14025 0
M  V30 21037 C 164.639 -2.01207 2.14363 0
M  V30 21038 N 164.589 -2.58978 0.954287 0
M  V30 21039 C 164.789 -2.80817 3.32215 0
M  V30 21040 C 164.839 -2.13785 4.50884 0
M  V30 21041 H 167.579 -1.93401 8.46693 0
M  V30 21042 H 167.849 -1.68181 6.71046 0
M  V30 21043 H 166.982 0.289076 8.15488 0
M  V30 21044 H 164.327 0.927166 5.72947 0
M  V30 21045 H 164.047 -1.87 6.82132 0
M  V30 21046 H 163.056 -0.404009 7.13457 0
M  V30 21047 H 164.89 -1.20599 8.97534 0
M  V30 21048 H 164.962 -2.70295 5.43162 0
M  V30 21049 H 164.86 -3.89465 3.27406 0
M  V30 21050 H 164.472 -2.01616 0.107046 0
M  V30 21051 H 164.668 -3.61403 0.873101 0
M  V30 21052 P 163.019 1.17771 8.83182 0
M  V30 21053 O 162.799 2.07206 9.98732 0
M  V30 21054 O 162.229 -0.0743816 8.81969 0
M  V30 21055 O 162.769 1.97652 7.47304 0
M  V30 21056 C 163.709 3.01055 7.08599 0
M  V30 21057 C 162.979 4.12613 6.37049 0
M  V30 21058 O 162.769 3.72827 4.97879 0
M  V30 21059 C 161.579 4.45719 6.88164 0
M  V30 21060 O 161.189 5.7877 6.5624 0
M  V30 21061 C 160.699 3.47768 6.11991 0
M  V30 21062 C 161.409 3.39356 4.77615 0
M  V30 21063 N 161.359 2.04571 4.15244 0
M  V30 21064 C 161.209 1.98587 2.78314 0
M  V30 21065 O 161.119 2.98134 2.08835 0
M  V30 21066 N 161.169 0.714467 2.24925 0
M  V30 21067 C 161.259 -0.470001 2.94169 0
M  V30 21068 C 161.409 -0.312541 4.36783 0
M  V30 21069 C 161.459 0.914512 4.92583 0
M  V30 21070 H 164.2 3.41169 7.98575 0
M  V30 21071 H 164.469 2.58295 6.41556 0
M  V30 21072 H 163.602 5.02657 6.42673 0
M  V30 21073 H 160.947 4.11637 4.08885 0
M  V30 21074 H 160.668 2.49626 6.61679 0
M  V30 21075 H 159.676 3.86566 6.00778 0
M  V30 21076 H 161.51 4.29943 7.96918 0
M  V30 21077 H 161.581 1.00937 6.00374 0
M  V30 21078 P 159.639 6.144 6.45285 0
M  V30 21079 O 159.419 7.54673 6.86199 0
M  V30 21080 O 158.849 5.12391 7.179 0
M  V30 21081 O 159.389 5.99158 4.88404 0
M  V30 21082 C 160.329 6.60234 3.96415 0
M  V30 21083 C 159.599 7.08259 2.72856 0
M  V30 21084 O 159.389 5.9427 1.83651 0
M  V30 21085 C 158.199 7.64886 2.9555 0
M  V30 21086 O 157.809 8.53963 1.90717 0
M  V30 21087 C 157.319 6.4116 2.90739 0
M  V30 21088 C 158.029 5.55375 1.86963 0
M  V30 21089 N 157.979 4.09664 2.15742 0
M  V30 21090 H 160.818 7.45574 4.45629 0
M  V30 21091 H 161.09 5.86232 3.67314 0
M  V30 21092 H 160.222 7.84412 2.24479 0
M  V30 21093 P 156.259 8.7635 1.60911 0
M  V30 21094 O 156.039 10.1388 1.11561 0
M  V30 21095 O 155.469 8.36503 2.79617 0
M  V30 21096 O 156.009 7.71906 0.429565 0
M  V30 21097 C 156.949 7.67148 -0.673689 0
M  V30 21098 C 156.219 7.33666 -1.94851 0
M  V30 21099 O 156.009 5.88816 -2.00759 0
M  V30 21100 C 154.819 7.92526 -2.10483 0
M  V30 21101 O 154.429 8.03063 -3.47693 0
M  V30 21102 C 153.939 6.89602 -1.41652 0
M  V30 21103 C 154.649 5.59201 -1.75185 0
M  V30 21104 N 154.599 4.58235 -0.662552 0
M  V30 21105 C 154.449 3.24451 -1.01643 0
M  V30 21106 O 154.359 2.94958 -2.21722 0
M  V30 21107 N 154.399 2.30408 0.165238 0
M  V30 21108 C 154.499 2.66048 1.25118 0
M  V30 21109 N 154.449 1.70787 2.16813 0
M  V30 21110 C 154.649 4.02732 1.64413 0
M  V30 21111 C 154.699 4.9488 0.63991 0
M  V30 21112 H 157.439 8.65017 -0.777072 0
M  V30 21113 H 157.709 6.90173 -0.474152 0
M  V30 21114 H 156.842 7.66642 -2.79492 0
M  V30 21115 H 154.187 5.16254 -2.65229 0
M  V30 21116 H 153.907 7.06532 -0.329431 0
M  V30 21117 H 152.916 6.91023 -1.82047 0
M  V30 21118 H 154.75 8.90873 -1.62657 0
M  V30 21119 H 154.822 6.00104 0.892197 0
M  V30 21120 H 154.72 4.31733 2.69229 0
M  V30 21121 H 154.332 0.724835 1.8844 0
M  V30 21122 H 154.528 1.94716 3.16734 0
M  V30 21123 P 152.879 8.03563 -3.84925 0
M  V30 21124 O 152.659 8.85821 -5.0569 0
M  V30 21125 O 152.089 8.41101 -2.65469 0
M  V30 21126 O 152.629 6.4965 -4.18908 0
M  V30 21127 C 153.569 5.81037 -5.05421 0
M  V30 21128 C 152.839 4.78366 -5.89277 0
M  V30 21129 O 152.629 3.58302 -5.08433 0
M  V30 21130 C 151.439 5.17448 -6.36119 0
M  V30 21131 O 151.049 4.45271 -7.53232 0
M  V30 21132 C 150.559 4.74639 -5.19936 0
M  V30 21133 C 151.269 3.49432 -4.70418 0
M  V30 21134 N 151.219 3.32099 -3.22613 0
M  V30 21135 H 154.058 6.54213 -5.71376 0
M  V30 21136 H 154.33 5.30936 -4.43503 0
M  V30 21137 H 153.462 4.55889 -6.76652 0
M  V30 21138 H 150.807 2.61715 -5.17932 0
M  V30 21139 H 150.527 5.52155 -4.41878 0
M  V30 21140 H 149.536 4.51981 -5.53374 0
M  V30 21141 H 151.37 6.25124 -6.55234 0
M  V30 21142 P 149.499 4.23843 -7.83734 0
M  V30 21143 O 149.279 4.19407 -9.29784 0
M  V30 21144 O 148.709 5.24426 -7.09156 0
M  V30 21145 O 149.249 2.7935 -7.20758 0
M  V30 21146 C 150.189 1.72945 -7.50224 0
M  V30 21147 C 149.459 0.406376 -7.57911 0
M  V30 21148 O 149.249 -0.0897726 -6.21935 0
M  V30 21149 C 148.059 0.438983 -8.18724 0
M  V30 21150 O 147.669 -0.825065 -8.71101 0
M  V30 21151 C 147.179 0.783689 -6.99524 0
M  V30 21152 C 147.889 0.0619086 -5.85867 0
M  V30 21153 N 147.839 0.78573 -4.56183 0
M  V30 21154 C 147.689 0.0292889 -3.41887 0
M  V30 21155 O 147.599 -1.18445 -3.4419 0
M  V30 21156 N 147.649 0.744061 -2.23964 0
M  V30 21157 C 147.739 2.10932 -2.10362 0
M  V30 21158 O 147.689 2.64117 -0.98825 0
M  V30 21159 C 147.889 2.8202 -3.34994 0
M  V30 21160 C 147.999 4.31095 -3.25037 0
M  V30 21161 C 147.939 2.15547 -4.52261 0
M  V30 21162 H 150.68 1.93379 -8.46595 0
M  V30 21163 H 150.949 1.68132 -6.70852 0
M  V30 21164 H 150.082 -0.289041 -8.15388 0
M  V30 21165 H 147.427 -0.926847 -5.72749 0
M  V30 21166 H 147.148 1.86973 -6.82036 0
M  V30 21167 H 146.156 0.403896 -7.13257 0
M  V30 21168 H 147.99 1.20585 -8.97435 0
M  V30 21169 H 148.061 2.71231 -5.45042 0
M  V30 21170 H 147.031 4.76966 -3.49992 0
M  V30 21171 H 148.768 4.67047 -3.95024 0
M  V30 21172 H 148.28 4.58996 -2.22312 0
M  V30 21173 H 147.544 0.214893 -1.39758 0
M  V30 21174 P 146.119 -1.17771 -8.83182 0
M  V30 21175 O 145.899 -2.07206 -9.98732 0
M  V30 21176 O 145.329 0.0743816 -8.81969 0
M  V30 21177 O 145.869 -1.97652 -7.47304 0
M  V30 21178 C 146.809 -3.01133 -7.08783 0
M  V30 21179 C 146.079 -4.12613 -6.37049 0
M  V30 21180 O 145.869 -3.72827 -4.97879 0
M  V30 21181 C 144.679 -4.45085 -6.88694 0
M  V30 21182 O 144.289 -5.7877 -6.5624 0
M  V30 21183 C 143.799 -3.47817 -6.12078 0
M  V30 21184 C 144.509 -3.39414 -4.77697 0
M  V30 21185 N 144.459 -2.04199 -4.15538 0
M  V30 21186 H 147.298 -3.41248 -7.98759 0
M  V30 21187 H 147.57 -2.57728 -6.42 0
M  V30 21188 H 146.702 -5.02657 -6.42673 0
M  V30 21189 H 144.047 -4.11708 -4.08956 0
M  V30 21190 H 143.767 -2.49626 -6.61679 0
M  V30 21191 H 142.776 -3.8662 -6.00862 0
M  V30 21192 H 144.61 -4.29991 -7.97006 0
M  V30 21193 P 142.739 -6.144 -6.45285 0
M  V30 21194 O 142.519 -7.54673 -6.86199 0
M  V30 21195 O 141.949 -5.12391 -7.179 0
M  V30 21196 O 142.489 -5.99158 -4.88404 0
M  V30 21197 C 143.429 -6.60062 -3.96313 0
M  V30 21198 C 142.699 -7.08259 -2.72856 0
M  V30 21199 O 142.489 -5.9427 -1.83651 0
M  V30 21200 C 141.299 -7.65087 -2.94749 0
M  V30 21201 O 140.909 -8.53963 -1.90717 0
M  V30 21202 C 140.419 -6.41069 -2.90698 0
M  V30 21203 C 141.129 -5.5528 -1.86931 0
M  V30 21204 N 141.079 -4.09575 -2.15696 0
M  V30 21205 C 140.929 -3.24249 -1.08435 0
M  V30 21206 O 140.839 -3.63946 0.0628747 0
M  V30 21207 N 140.889 -1.90009 -1.39973 0
M  V30 21208 C 140.979 -1.34884 -2.65614 0
M  V30 21209 O 140.929 -0.123716 -2.81728 0
M  V30 21210 C 141.129 -2.3145 -3.71736 0
M  V30 21211 C 141.239 -1.75913 -5.10438 0
M  V30 21212 C 141.179 -3.63518 -3.44754 0
M  V30 21213 H 143.92 -7.45402 -4.45526 0
M  V30 21214 H 144.189 -5.86062 -3.67208 0
M  V30 21215 H 143.322 -7.84412 -2.24479 0
M  V30 21216 H 140.667 -5.73358 -0.888409 0
M  V30 21217 H 140.388 -5.90877 -3.88583 0
M  V30 21218 H 139.396 -6.65867 -2.58821 0
M  V30 21219 H 141.23 -8.16248 -3.92006 0
M  V30 21220 H 141.301 -4.34551 -4.26383 0
M  V30 21221 H 140.271 -1.85471 -5.61775 0
M  V30 21222 H 142.008 -2.31364 -5.66257 0
M  V30 21223 H 141.52 -0.695936 -5.05229 0
M  V30 21224 H 140.784 -1.26277 -0.63625 0
M  V30 21225 P 139.359 -8.7635 -1.60911 0
M  V30 21226 O 139.139 -10.1388 -1.11561 0
M  V30 21227 O 138.569 -8.36503 -2.79617 0
M  V30 21228 O 139.109 -7.71806 -0.42951 0
M  V30 21229 C 140.049 -7.67148 0.673689 0
M  V30 21230 C 139.319 -7.33374 1.95559 0
M  V30 21231 O 139.109 -5.88721 2.00726 0
M  V30 21232 C 137.919 -7.92526 2.10483 0
M  V30 21233 O 137.529 -8.02971 3.47653 0
M  V30 21234 C 137.039 -6.89602 1.41652 0
M  V30 21235 C 137.749 -5.59201 1.75185 0
M  V30 21236 N 137.699 -4.58235 0.662552 0
M  V30 21237 H 140.538 -8.65116 0.777161 0
M  V30 21238 H 140.81 -6.90173 0.474152 0
M  V30 21239 H 139.942 -7.66548 2.79458 0
M  V30 21240 P 135.979 -8.03563 3.84925 0
M  V30 21241 O 135.759 -8.85821 5.0569 0
M  V30 21242 O 135.189 -8.41101 2.65469 0
M  V30 21243 O 135.729 -6.4965 4.18908 0
M  V30 21244 C 136.669 -5.81037 5.05421 0
M  V30 21245 C 135.939 -4.78366 5.89277 0
M  V30 21246 O 135.729 -3.58302 5.08433 0
M  V30 21247 C 134.539 -5.17448 6.36119 0
M  V30 21248 O 134.149 -4.45271 7.53232 0
M  V30 21249 C 133.659 -4.74639 5.19936 0
M  V30 21250 C 134.369 -3.49432 4.70418 0
M  V30 21251 N 134.319 -3.32099 3.22613 0
M  V30 21252 H 137.158 -6.54213 5.71376 0
M  V30 21253 H 137.43 -5.30936 4.43503 0
M  V30 21254 H 136.562 -4.55889 6.76652 0
M  V30 21255 H 133.907 -2.61715 5.17932 0
M  V30 21256 H 133.627 -5.52155 4.41878 0
M  V30 21257 H 132.636 -4.51981 5.53374 0
M  V30 21258 H 134.47 -6.25124 6.55234 0
M  V30 21259 P 132.599 -4.23843 7.83734 0
M  V30 21260 O 132.379 -4.19407 9.29784 0
M  V30 21261 O 131.809 -5.24426 7.09156 0
M  V30 21262 O 132.349 -2.7935 7.20758 0
M  V30 21263 C 133.289 -1.7299 7.50419 0
M  V30 21264 C 132.559 -0.406376 7.57911 0
M  V30 21265 O 132.349 0.0897726 6.21935 0
M  V30 21266 C 131.159 -0.447224 8.1878 0
M  V30 21267 O 130.769 0.825065 8.71101 0
M  V30 21268 C 130.279 -0.783801 6.99623 0
M  V30 21269 C 130.989 -0.0619192 5.85967 0
M  V30 21270 N 130.939 -0.790462 4.56202 0
M  V30 21271 H 133.778 -1.93423 8.4679 0
M  V30 21272 H 134.05 -1.68852 6.70877 0
M  V30 21273 H 133.182 0.289041 8.15388 0
M  V30 21274 H 130.527 0.927006 5.72848 0
M  V30 21275 H 130.247 -1.86973 6.82036 0
M  V30 21276 H 129.256 -0.403953 7.13357 0
M  V30 21277 H 131.09 -1.20599 8.97534 0
M  V30 21278 P 129.219 1.17771 8.83182 0
M  V30 21279 O 128.999 2.07206 9.98732 0
M  V30 21280 O 128.429 -0.0743816 8.81969 0
M  V30 21281 O 128.969 1.97652 7.47304 0
M  V30 21282 C 129.909 3.01133 7.08783 0
M  V30 21283 C 129.179 4.12613 6.37049 0
M  V30 21284 O 128.969 3.72827 4.97879 0
M  V30 21285 C 127.779 4.45085 6.88694 0
M  V30 21286 O 127.389 5.7877 6.5624 0
M  V30 21287 C 126.899 3.47817 6.12078 0
M  V30 21288 C 127.609 3.39414 4.77697 0
M  V30 21289 N 127.559 2.04615 4.15333 0
M  V30 21290 H 130.398 3.41248 7.98759 0
M  V30 21291 H 130.67 2.5837 6.41742 0
M  V30 21292 H 129.802 5.02657 6.42673 0
M  V30 21293 P 125.839 6.144 6.45285 0
M  V30 21294 O 125.619 7.54673 6.86199 0
M  V30 21295 O 125.049 5.12391 7.179 0
M  V30 21296 O 125.589 5.99158 4.88404 0
M  V30 21297 C 126.529 6.60234 3.96415 0
M  V30 21298 C 125.799 7.08259 2.72856 0
M  V30 21299 O 125.589 5.9427 1.83651 0
M  V30 21300 C 124.399 7.64886 2.9555 0
M  V30 21301 O 124.009 8.53963 1.90717 0
M  V30 21302 C 123.519 6.4116 2.90739 0
M  V30 21303 C 124.229 5.55375 1.86963 0
M  V30 21304 N 124.179 4.09448 2.16152 0
M  V30 21305 C 124.259 3.46824 3.37593 0
M  V30 21306 N 124.189 2.17422 3.29777 0
M  V30 21307 C 124.039 1.93065 1.94427 0
M  V30 21308 C 123.909 0.738053 1.20141 0
M  V30 21309 N 123.899 -0.474256 1.74676 0
M  V30 21310 N 123.789 0.850049 -0.13045 0
M  V30 21311 C 123.799 2.06169 -0.676992 0
M  V30 21312 N 123.919 3.23842 -0.101312 0
M  V30 21313 C 124.039 3.09402 1.23122 0
M  V30 21314 H 127.018 7.45574 4.45629 0
M  V30 21315 H 127.29 5.85864 3.679 0
M  V30 21316 H 126.422 7.84412 2.24479 0
M  V30 21317 H 123.767 5.73457 0.888562 0
M  V30 21318 H 123.487 5.90877 3.88583 0
M  V30 21319 H 122.496 6.6596 2.58858 0
M  V30 21320 H 124.33 8.16339 3.92049 0
M  V30 21321 H 124.371 4.00505 4.3174 0
M  V30 21322 H 123.99 -0.581337 2.76658 0
M  V30 21323 H 123.801 -1.30811 1.14888 0
M  V30 21324 H 123.693 2.08295 -1.75542 0
M  V30 21325 P 122.459 8.7635 1.60911 0
M  V30 21326 O 122.239 10.1388 1.11561 0
M  V30 21327 O 121.669 8.36503 2.79617 0
M  V30 21328 O 122.209 7.71806 0.42951 0
M  V30 21329 C 123.149 7.67148 -0.673689 0
M  V30 21330 C 122.419 7.33374 -1.95559 0
M  V30 21331 O 122.209 5.88721 -2.00726 0
M  V30 21332 C 121.019 7.92526 -2.10483 0
M  V30 21333 O 120.629 8.02971 -3.47653 0
M  V30 21334 C 120.139 6.89602 -1.41652 0
M  V30 21335 C 120.849 5.59201 -1.75185 0
M  V30 21336 N 120.799 4.58235 -0.662552 0
M  V30 21337 H 123.638 8.65116 -0.777161 0
M  V30 21338 H 123.91 6.90173 -0.474152 0
M  V30 21339 H 123.042 7.66548 -2.79458 0
M  V30 21340 P 119.079 8.03563 -3.84925 0
M  V30 21341 O 118.859 8.85821 -5.0569 0
M  V30 21342 O 118.289 8.41101 -2.65469 0
M  V30 21343 O 118.829 6.4965 -4.18908 0
M  V30 21344 C 119.769 5.81037 -5.05421 0
M  V30 21345 C 119.039 4.78366 -5.89277 0
M  V30 21346 O 118.829 3.58302 -5.08433 0
M  V30 21347 C 117.639 5.17448 -6.36119 0
M  V30 21348 O 117.249 4.45271 -7.53232 0
M  V30 21349 C 116.759 4.74639 -5.19936 0
M  V30 21350 C 117.469 3.49432 -4.70418 0
M  V30 21351 N 117.419 3.32099 -3.22613 0
M  V30 21352 H 120.258 6.54213 -5.71376 0
M  V30 21353 H 120.53 5.30936 -4.43503 0
M  V30 21354 H 119.662 4.55889 -6.76652 0
M  V30 21355 H 117.007 2.61715 -5.17932 0
M  V30 21356 H 116.727 5.52155 -4.41878 0
M  V30 21357 H 115.736 4.51981 -5.53374 0
M  V30 21358 H 117.57 6.25124 -6.55234 0
M  V30 21359 P 115.699 4.23843 -7.83734 0
M  V30 21360 O 115.479 4.19407 -9.29784 0
M  V30 21361 O 114.909 5.24426 -7.09156 0
M  V30 21362 O 115.449 2.7935 -7.20758 0
M  V30 21363 C 116.389 1.72945 -7.50224 0
M  V30 21364 C 115.659 0.406376 -7.57911 0
M  V30 21365 O 115.449 -0.0897726 -6.21935 0
M  V30 21366 C 114.259 0.438983 -8.18724 0
M  V30 21367 O 113.869 -0.825065 -8.71101 0
M  V30 21368 C 113.379 0.783689 -6.99524 0
M  V30 21369 C 114.089 0.0619086 -5.85867 0
M  V30 21370 N 114.039 0.78573 -4.56183 0
M  V30 21371 C 113.889 0.0292889 -3.41887 0
M  V30 21372 O 113.799 -1.18445 -3.4419 0
M  V30 21373 N 113.849 0.744061 -2.23964 0
M  V30 21374 C 113.939 2.10932 -2.10362 0
M  V30 21375 O 113.889 2.64117 -0.98825 0
M  V30 21376 C 114.089 2.8202 -3.34994 0
M  V30 21377 C 114.199 4.31095 -3.25037 0
M  V30 21378 C 114.139 2.15547 -4.52261 0
M  V30 21379 H 116.88 1.93379 -8.46595 0
M  V30 21380 H 117.149 1.68132 -6.70852 0
M  V30 21381 H 116.282 -0.289041 -8.15388 0
M  V30 21382 H 113.627 -0.926847 -5.72749 0
M  V30 21383 H 113.348 1.86973 -6.82036 0
M  V30 21384 H 112.356 0.403896 -7.13257 0
M  V30 21385 H 114.19 1.20585 -8.97435 0
M  V30 21386 H 114.261 2.71231 -5.45042 0
M  V30 21387 H 113.231 4.76966 -3.49992 0
M  V30 21388 H 114.968 4.67047 -3.95024 0
M  V30 21389 H 114.48 4.58996 -2.22312 0
M  V30 21390 H 113.744 0.214893 -1.39758 0
M  V30 21391 P 112.319 -1.17771 -8.83182 0
M  V30 21392 O 112.099 -2.07206 -9.98732 0
M  V30 21393 O 111.529 0.0743816 -8.81969 0
M  V30 21394 O 112.069 -1.97652 -7.47304 0
M  V30 21395 C 113.009 -3.01133 -7.08783 0
M  V30 21396 C 112.279 -4.12613 -6.37049 0
M  V30 21397 O 112.069 -3.72827 -4.97879 0
M  V30 21398 C 110.879 -4.45085 -6.88694 0
M  V30 21399 O 110.489 -5.7877 -6.5624 0
M  V30 21400 C 109.999 -3.47817 -6.12078 0
M  V30 21401 C 110.709 -3.39414 -4.77697 0
M  V30 21402 N 110.659 -2.04615 -4.15333 0
M  V30 21403 H 113.498 -3.41248 -7.98759 0
M  V30 21404 H 113.77 -2.5837 -6.41742 0
M  V30 21405 H 112.902 -5.02657 -6.42673 0
M  V30 21406 P 108.939 -6.144 -6.45285 0
M  V30 21407 O 108.719 -7.54673 -6.86199 0
M  V30 21408 O 108.149 -5.12391 -7.179 0
M  V30 21409 O 108.689 -5.99158 -4.88404 0
M  V30 21410 C 109.629 -6.60234 -3.96415 0
M  V30 21411 C 108.899 -7.08259 -2.72856 0
M  V30 21412 O 108.689 -5.9427 -1.83651 0
M  V30 21413 C 107.499 -7.64886 -2.9555 0
M  V30 21414 O 107.109 -8.53963 -1.90717 0
M  V30 21415 C 106.619 -6.4116 -2.90739 0
M  V30 21416 C 107.329 -5.55375 -1.86963 0
M  V30 21417 N 107.279 -4.09664 -2.15742 0
M  V30 21418 H 110.118 -7.45574 -4.45629 0
M  V30 21419 H 110.39 -5.86232 -3.67314 0
M  V30 21420 H 109.522 -7.84412 -2.24479 0
M  V30 21421 P 105.559 -8.7635 -1.60911 0
M  V30 21422 O 105.339 -10.1388 -1.11561 0
M  V30 21423 O 104.769 -8.36503 -2.79617 0
M  V30 21424 O 105.309 -7.71806 -0.42951 0
M  V30 21425 C 106.249 -7.66948 0.673514 0
M  V30 21426 C 105.519 -7.33374 1.95559 0
M  V30 21427 O 105.309 -5.88721 2.00726 0
M  V30 21428 C 104.119 -7.92218 2.1125 0
M  V30 21429 O 103.729 -8.02971 3.47653 0
M  V30 21430 C 103.239 -6.89504 1.41631 0
M  V30 21431 C 103.949 -5.59106 1.75155 0
M  V30 21432 N 103.899 -4.58136 0.662409 0
M  V30 21433 C 103.749 -3.26059 1.02863 0
M  V30 21434 O 103.659 -2.90743 2.19009 0
M  V30 21435 N 103.709 -2.35995 -0.0155585 0
M  V30 21436 C 103.799 -2.65248 -1.35603 0
M  V30 21437 O 103.749 -1.75605 -2.20651 0
M  V30 21438 C 103.949 -4.05747 -1.64698 0
M  V30 21439 C 104.059 -4.42345 -3.09553 0
M  V30 21440 C 103.999 -4.96734 -0.652411 0
M  V30 21441 H 106.74 -8.64917 0.776982 0
M  V30 21442 H 107.009 -6.89974 0.474015 0
M  V30 21443 H 106.142 -7.66548 2.79458 0
M  V30 21444 H 103.487 -5.16076 2.65138 0
M  V30 21445 H 103.208 -7.06433 0.329384 0
M  V30 21446 H 102.216 -6.90829 1.81996 0
M  V30 21447 H 104.05 -8.90774 1.62639 0
M  V30 21448 H 104.121 -6.02181 -0.895285 0
M  V30 21449 H 103.091 -4.80252 -3.45468 0
M  V30 21450 H 104.828 -5.20015 -3.22119 0
M  V30 21451 H 104.34 -3.53269 -3.67833 0
M  V30 21452 H 103.604 -1.39558 0.227499 0
M  V30 21453 P 102.179 -8.03563 3.84925 0
M  V30 21454 O 101.959 -8.85821 5.0569 0
M  V30 21455 O 101.389 -8.41101 2.65469 0
M  V30 21456 O 101.929 -6.49734 4.18962 0
M  V30 21457 C 102.869 -5.81037 5.05421 0
M  V30 21458 C 102.139 -4.79018 5.88876 0
M  V30 21459 O 101.929 -3.58359 5.08515 0
M  V30 21460 C 100.739 -5.17448 6.36119 0
M  V30 21461 O 100.349 -4.45322 7.53318 0
M  V30 21462 C 99.8594 -4.74639 5.19936 0
M  V30 21463 C 100.569 -3.49432 4.70418 0
M  V30 21464 N 100.519 -3.31776 3.22945 0
M  V30 21465 C 100.369 -2.02742 2.72939 0
M  V30 21466 O 100.279 -1.08301 3.52749 0
M  V30 21467 N 100.319 -1.96117 1.22063 0
M  V30 21468 C 100.419 -2.8878 0.551566 0
M  V30 21469 N 100.369 -2.65609 -0.750198 0
M  V30 21470 C 100.569 -4.22457 1.03707 0
M  V30 21471 C 100.619 -4.37979 2.39113 0
M  V30 21472 H 103.359 -6.54138 5.7131 0
M  V30 21473 H 103.629 -5.30492 4.44033 0
M  V30 21474 H 102.762 -4.55945 6.76735 0
M  V30 21475 H 100.107 -2.6176 5.18021 0
M  V30 21476 H 99.8274 -5.52233 4.41941 0
M  V30 21477 H 98.8364 -4.52045 5.53452 0
M  V30 21478 H 100.67 -6.25124 6.55234 0
M  V30 21479 H 100.742 -5.37936 2.80552 0
M  V30 21480 H 100.64 -5.07528 0.359553 0
M  V30 21481 H 100.252 -1.69403 -1.09847 0
M  V30 21482 H 100.448 -3.43701 -1.41792 0
M  V30 21483 P 98.7994 -4.23843 7.83734 0
M  V30 21484 O 98.5794 -4.19407 9.29784 0
M  V30 21485 O 98.0094 -5.24426 7.09156 0
M  V30 21486 O 98.5494 -2.79386 7.20852 0
M  V30 21487 C 99.4894 -1.7299 7.50419 0
M  V30 21488 C 98.7594 -0.41401 7.5797 0
M  V30 21489 O 98.5494 0.089787 6.22035 0
M  V30 21490 C 97.3594 -0.447224 8.1878 0
M  V30 21491 O 96.9694 0.825159 8.71201 0
M  V30 21492 C 96.4794 -0.783801 6.99623 0
M  V30 21493 C 97.1894 -0.0619192 5.85967 0
M  V30 21494 N 97.1394 -0.7859 4.56281 0
M  V30 21495 C 96.9894 -0.0359258 3.39981 0
M  V30 21496 O 96.8994 1.19723 3.49038 0
M  V30 21497 N 96.9394 -0.869151 2.14025 0
M  V30 21498 C 97.0394 -2.01207 2.14363 0
M  V30 21499 N 96.9894 -2.58978 0.954287 0
M  V30 21500 C 97.1894 -2.80817 3.32215 0
M  V30 21501 C 97.2394 -2.13785 4.50884 0
M  V30 21502 H 99.9794 -1.93401 8.46693 0
M  V30 21503 H 100.249 -1.68181 6.71046 0
M  V30 21504 H 99.3824 0.289076 8.15488 0
M  V30 21505 H 96.7274 0.927166 5.72947 0
M  V30 21506 H 96.4474 -1.87 6.82132 0
M  V30 21507 H 95.4564 -0.404009 7.13457 0
M  V30 21508 H 97.2904 -1.20599 8.97534 0
M  V30 21509 H 97.3624 -2.70295 5.43162 0
M  V30 21510 H 97.2604 -3.89465 3.27406 0
M  V30 21511 H 96.8724 -2.01616 0.107046 0
M  V30 21512 H 97.0684 -3.61403 0.873101 0
M  V30 21513 P 95.4195 1.17771 8.83182 0
M  V30 21514 O 95.1995 2.07206 9.98732 0
M  V30 21515 O 94.6295 -0.0743816 8.81969 0
M  V30 21516 O 95.1695 1.97678 7.474 0
M  V30 21517 C 96.1095 3.01133 7.08783 0
M  V30 21518 C 95.3795 4.1203 6.37546 0
M  V30 21519 O 95.1695 3.72887 4.9796 0
M  V30 21520 C 93.9795 4.45085 6.88694 0
M  V30 21521 O 93.5895 5.78836 6.56315 0
M  V30 21522 C 93.0995 3.47817 6.12078 0
M  V30 21523 C 93.8095 3.39414 4.77697 0
M  V30 21524 N 93.7595 2.04615 4.15333 0
M  V30 21525 C 93.6095 1.96929 2.77162 0
M  V30 21526 O 93.5195 3.02017 2.12006 0
M  V30 21527 N 93.5595 0.55485 2.24237 0
M  V30 21528 C 93.6595 -0.367808 2.9169 0
M  V30 21529 N 93.6095 -1.53426 2.29427 0
M  V30 21530 C 93.8095 -0.319148 4.33828 0
M  V30 21531 C 93.8595 0.920672 4.90433 0
M  V30 21532 H 96.5995 3.41209 7.98667 0
M  V30 21533 H 96.8695 2.5837 6.41742 0
M  V30 21534 H 96.0025 5.02718 6.42752 0
M  V30 21535 H 93.3475 4.11779 4.09026 0
M  V30 21536 H 93.0675 2.49661 6.61772 0
M  V30 21537 H 92.0765 3.86674 6.00946 0
M  V30 21538 H 93.9105 4.29991 7.97006 0
M  V30 21539 H 93.9825 1.00589 5.98303 0
M  V30 21540 H 93.8805 -1.22639 4.93799 0
M  V30 21541 H 93.4925 -1.56819 1.27167 0
M  V30 21542 H 93.6885 -2.41062 2.83063 0
M  V30 21543 P 92.0395 6.144 6.45285 0
M  V30 21544 O 91.8195 7.54673 6.86199 0
M  V30 21545 O 91.2495 5.12391 7.179 0
M  V30 21546 O 91.7895 5.99158 4.88404 0
M  V30 21547 C 92.7295 6.60062 3.96313 0
M  V30 21548 C 91.9995 7.08259 2.72856 0
M  V30 21549 O 91.7895 5.9427 1.83651 0
M  V30 21550 C 90.5995 7.65087 2.94749 0
M  V30 21551 O 90.2095 8.53963 1.90717 0
M  V30 21552 C 89.7195 6.41069 2.90698 0
M  V30 21553 C 90.4295 5.5528 1.86931 0
M  V30 21554 N 90.3795 4.09575 2.15696 0
M  V30 21555 C 90.2295 3.24249 1.08435 0
M  V30 21556 O 90.1395 3.63946 -0.0628747 0
M  V30 21557 N 90.1895 1.90009 1.39973 0
M  V30 21558 C 90.2795 1.34884 2.65614 0
M  V30 21559 O 90.2295 0.123716 2.81728 0
M  V30 21560 C 90.4295 2.3145 3.71736 0
M  V30 21561 C 90.5395 1.75913 5.10438 0
M  V30 21562 C 90.4795 3.63518 3.44754 0
M  V30 21563 H 93.2205 7.45402 4.45526 0
M  V30 21564 H 93.4895 5.86062 3.67208 0
M  V30 21565 H 92.6225 7.84412 2.24479 0
M  V30 21566 H 89.9675 5.73358 0.888409 0
M  V30 21567 H 89.6885 5.90877 3.88583 0
M  V30 21568 H 88.6965 6.65867 2.58821 0
M  V30 21569 H 90.5305 8.16248 3.92006 0
M  V30 21570 H 90.6015 4.34551 4.26383 0
M  V30 21571 H 89.5715 1.85471 5.61775 0
M  V30 21572 H 91.3085 2.31364 5.66257 0
M  V30 21573 H 90.8205 0.695936 5.05229 0
M  V30 21574 H 90.0845 1.26277 0.63625 0
M  V30 21575 P 88.6595 8.7635 1.60911 0
M  V30 21576 O 88.4395 10.1388 1.11561 0
M  V30 21577 O 87.8695 8.36503 2.79617 0
M  V30 21578 O 88.4095 7.71906 0.429565 0
M  V30 21579 C 89.3495 7.67148 -0.673689 0
M  V30 21580 C 88.6195 7.33666 -1.94851 0
M  V30 21581 O 88.4095 5.88816 -2.00759 0
M  V30 21582 C 87.2195 7.92526 -2.10483 0
M  V30 21583 O 86.8295 8.03063 -3.47693 0
M  V30 21584 C 86.3395 6.89602 -1.41652 0
M  V30 21585 C 87.0495 5.59201 -1.75185 0
M  V30 21586 N 86.9995 4.58235 -0.662552 0
M  V30 21587 C 86.8495 3.24451 -1.01643 0
M  V30 21588 O 86.7595 2.94958 -2.21722 0
M  V30 21589 N 86.7995 2.30408 0.165238 0
M  V30 21590 C 86.8995 2.66048 1.25118 0
M  V30 21591 N 86.8495 1.70787 2.16813 0
M  V30 21592 C 87.0495 4.02732 1.64413 0
M  V30 21593 C 87.0995 4.9488 0.63991 0
M  V30 21594 H 89.8395 8.65017 -0.777072 0
M  V30 21595 H 90.1095 6.90173 -0.474152 0
M  V30 21596 H 89.2425 7.66642 -2.79492 0
M  V30 21597 H 86.5875 5.16254 -2.65229 0
M  V30 21598 H 86.3075 7.06532 -0.329431 0
M  V30 21599 H 85.3165 6.91023 -1.82047 0
M  V30 21600 H 87.1505 8.90873 -1.62657 0
M  V30 21601 H 87.2225 6.00104 0.892197 0
M  V30 21602 H 87.1205 4.31733 2.69229 0
M  V30 21603 H 86.7325 0.724835 1.8844 0
M  V30 21604 H 86.9285 1.94716 3.16734 0
M  V30 21605 P 85.2795 8.03563 -3.84925 0
M  V30 21606 O 85.0595 8.85821 -5.0569 0
M  V30 21607 O 84.4895 8.41101 -2.65469 0
M  V30 21608 O 85.0295 6.4965 -4.18908 0
M  V30 21609 C 85.9695 5.81037 -5.05421 0
M  V30 21610 C 85.2395 4.78366 -5.89277 0
M  V30 21611 O 85.0295 3.58302 -5.08433 0
M  V30 21612 C 83.8395 5.17448 -6.36119 0
M  V30 21613 O 83.4495 4.45271 -7.53232 0
M  V30 21614 C 82.9595 4.74639 -5.19936 0
M  V30 21615 C 83.6695 3.49432 -4.70418 0
M  V30 21616 N 83.6195 3.31776 -3.22945 0
M  V30 21617 H 86.4585 6.54213 -5.71376 0
M  V30 21618 H 86.7305 5.30492 -4.44033 0
M  V30 21619 H 85.8625 4.55889 -6.76652 0
M  V30 21620 P 81.8995 4.23843 -7.83734 0
M  V30 21621 O 81.6795 4.19407 -9.29784 0
M  V30 21622 O 81.1095 5.24426 -7.09156 0
M  V30 21623 O 81.6495 2.7935 -7.20758 0
M  V30 21624 C 82.5895 1.7299 -7.50419 0
M  V30 21625 C 81.8595 0.406376 -7.57911 0
M  V30 21626 O 81.6495 -0.0897726 -6.21935 0
M  V30 21627 C 80.4595 0.447224 -8.1878 0
M  V30 21628 O 80.0695 -0.825065 -8.71101 0
M  V30 21629 C 79.5795 0.783801 -6.99623 0
M  V30 21630 C 80.2895 0.0619192 -5.85967 0
M  V30 21631 N 80.2395 0.7859 -4.56281 0
M  V30 21632 H 83.0785 1.93423 -8.4679 0
M  V30 21633 H 83.3505 1.68181 -6.71046 0
M  V30 21634 H 82.4825 -0.289041 -8.15388 0
M  V30 21635 P 78.5196 -1.17771 -8.83182 0
M  V30 21636 O 78.2996 -2.07206 -9.98732 0
M  V30 21637 O 77.7296 0.0743816 -8.81969 0
M  V30 21638 O 78.2696 -1.97652 -7.47304 0
M  V30 21639 C 79.2096 -3.01133 -7.08783 0
M  V30 21640 C 78.4796 -4.12613 -6.37049 0
M  V30 21641 O 78.2696 -3.72827 -4.97879 0
M  V30 21642 C 77.0796 -4.45085 -6.88694 0
M  V30 21643 O 76.6896 -5.7877 -6.5624 0
M  V30 21644 C 76.1996 -3.47817 -6.12078 0
M  V30 21645 C 76.9096 -3.39414 -4.77697 0
M  V30 21646 N 76.8596 -2.04615 -4.15333 0
M  V30 21647 H 79.6986 -3.41248 -7.98759 0
M  V30 21648 H 79.9706 -2.5837 -6.41742 0
M  V30 21649 H 79.1026 -5.02657 -6.42673 0
M  V30 21650 P 75.1396 -6.144 -6.45285 0
M  V30 21651 O 74.9196 -7.54673 -6.86199 0
M  V30 21652 O 74.3496 -5.12391 -7.179 0
M  V30 21653 O 74.8896 -5.99158 -4.88404 0
M  V30 21654 C 75.8296 -6.60234 -3.96415 0
M  V30 21655 C 75.0996 -7.08259 -2.72856 0
M  V30 21656 O 74.8896 -5.9427 -1.83651 0
M  V30 21657 C 73.6996 -7.64886 -2.9555 0
M  V30 21658 O 73.3096 -8.53963 -1.90717 0
M  V30 21659 C 72.8196 -6.4116 -2.90739 0
M  V30 21660 C 73.5296 -5.55375 -1.86963 0
M  V30 21661 N 73.4796 -4.09664 -2.15742 0
M  V30 21662 H 76.3186 -7.45574 -4.45629 0
M  V30 21663 H 76.5906 -5.86232 -3.67314 0
M  V30 21664 H 75.7226 -7.84412 -2.24479 0
M  V30 21665 P 71.7596 -8.7635 -1.60911 0
M  V30 21666 O 71.5396 -10.1388 -1.11561 0
M  V30 21667 O 70.9696 -8.36503 -2.79617 0
M  V30 21668 O 71.5096 -7.71806 -0.42951 0
M  V30 21669 C 72.4496 -7.66948 0.673514 0
M  V30 21670 C 71.7196 -7.33374 1.95559 0
M  V30 21671 O 71.5096 -5.88721 2.00726 0
M  V30 21672 C 70.3196 -7.92218 2.1125 0
M  V30 21673 O 69.9296 -8.02971 3.47653 0
M  V30 21674 C 69.4396 -6.89504 1.41631 0
M  V30 21675 C 70.1496 -5.59106 1.75155 0
M  V30 21676 N 70.0996 -4.58136 0.662409 0
M  V30 21677 C 69.9496 -3.26059 1.02863 0
M  V30 21678 O 69.8596 -2.90743 2.19009 0
M  V30 21679 N 69.9096 -2.35995 -0.0155585 0
M  V30 21680 C 69.9996 -2.65248 -1.35603 0
M  V30 21681 O 69.9496 -1.75605 -2.20651 0
M  V30 21682 C 70.1496 -4.05747 -1.64698 0
M  V30 21683 C 70.2596 -4.42345 -3.09553 0
M  V30 21684 C 70.1996 -4.96734 -0.652411 0
M  V30 21685 H 72.9406 -8.64917 0.776982 0
M  V30 21686 H 73.2096 -6.89974 0.474015 0
M  V30 21687 H 72.3426 -7.66548 2.79458 0
M  V30 21688 H 69.6876 -5.16076 2.65138 0
M  V30 21689 H 69.4086 -7.06433 0.329384 0
M  V30 21690 H 68.4166 -6.90829 1.81996 0
M  V30 21691 H 70.2506 -8.90774 1.62639 0
M  V30 21692 H 70.3216 -6.02181 -0.895285 0
M  V30 21693 H 69.2916 -4.80252 -3.45468 0
M  V30 21694 H 71.0286 -5.20015 -3.22119 0
M  V30 21695 H 70.5406 -3.53269 -3.67833 0
M  V30 21696 H 69.8046 -1.39558 0.227499 0
M  V30 21697 P 68.3796 -8.03563 3.84925 0
M  V30 21698 O 68.1596 -8.85821 5.0569 0
M  V30 21699 O 67.5896 -8.41101 2.65469 0
M  V30 21700 O 68.1296 -6.4965 4.18908 0
M  V30 21701 C 69.0696 -5.81037 5.05421 0
M  V30 21702 C 68.3396 -4.78366 5.89277 0
M  V30 21703 O 68.1296 -3.58302 5.08433 0
M  V30 21704 C 66.9396 -5.17448 6.36119 0
M  V30 21705 O 66.5496 -4.45271 7.53232 0
M  V30 21706 C 66.0596 -4.74639 5.19936 0
M  V30 21707 C 66.7696 -3.49432 4.70418 0
M  V30 21708 N 66.7196 -3.31776 3.22945 0
M  V30 21709 H 69.5586 -6.54213 5.71376 0
M  V30 21710 H 69.8306 -5.30492 4.44033 0
M  V30 21711 H 68.9626 -4.55889 6.76652 0
M  V30 21712 P 64.9996 -4.23843 7.83734 0
M  V30 21713 O 64.7796 -4.19407 9.29784 0
M  V30 21714 O 64.2096 -5.24426 7.09156 0
M  V30 21715 O 64.7496 -2.7935 7.20758 0
M  V30 21716 C 65.6896 -1.7299 7.50419 0
M  V30 21717 C 64.9596 -0.406376 7.57911 0
M  V30 21718 O 64.7496 0.0897726 6.21935 0
M  V30 21719 C 63.5596 -0.447224 8.1878 0
M  V30 21720 O 63.1696 0.825065 8.71101 0
M  V30 21721 C 62.6796 -0.783801 6.99623 0
M  V30 21722 C 63.3896 -0.0619192 5.85967 0
M  V30 21723 N 63.3396 -0.7859 4.56281 0
M  V30 21724 H 66.1786 -1.93423 8.4679 0
M  V30 21725 H 66.4506 -1.68181 6.71046 0
M  V30 21726 H 65.5826 0.289041 8.15388 0
M  V30 21727 P 61.6197 1.17771 8.83182 0
M  V30 21728 O 61.3997 2.07206 9.98732 0
M  V30 21729 O 60.8297 -0.0743816 8.81969 0
M  V30 21730 O 61.3697 1.97652 7.47304 0
M  V30 21731 C 62.3097 3.01133 7.08783 0
M  V30 21732 C 61.5797 4.12613 6.37049 0
M  V30 21733 O 61.3697 3.72827 4.97879 0
M  V30 21734 C 60.1797 4.45085 6.88694 0
M  V30 21735 O 59.7897 5.7877 6.5624 0
M  V30 21736 C 59.2997 3.47817 6.12078 0
M  V30 21737 C 60.0097 3.39414 4.77697 0
M  V30 21738 N 59.9597 2.04615 4.15333 0
M  V30 21739 H 62.7987 3.41248 7.98759 0
M  V30 21740 H 63.0707 2.5837 6.41742 0
M  V30 21741 H 62.2027 5.02657 6.42673 0
M  V30 21742 P 58.2397 6.144 6.45285 0
M  V30 21743 O 58.0197 7.54673 6.86199 0
M  V30 21744 O 57.4497 5.12391 7.179 0
M  V30 21745 O 57.9897 5.99158 4.88404 0
M  V30 21746 C 58.9297 6.60234 3.96415 0
M  V30 21747 C 58.1997 7.08259 2.72856 0
M  V30 21748 O 57.9897 5.9427 1.83651 0
M  V30 21749 C 56.7997 7.64886 2.9555 0
M  V30 21750 O 56.4097 8.53963 1.90717 0
M  V30 21751 C 55.9197 6.4116 2.90739 0
M  V30 21752 C 56.6297 5.55375 1.86963 0
M  V30 21753 N 56.5797 4.09448 2.16152 0
M  V30 21754 H 59.4187 7.45574 4.45629 0
M  V30 21755 H 59.6907 5.85864 3.679 0
M  V30 21756 H 58.8227 7.84412 2.24479 0
M  V30 21757 H 56.1677 5.73457 0.888562 0
M  V30 21758 H 55.8877 5.90877 3.88583 0
M  V30 21759 H 54.8967 6.6596 2.58858 0
M  V30 21760 H 56.7307 8.16339 3.92049 0
M  V30 21761 P 54.8597 8.7635 1.60911 0
M  V30 21762 O 54.6397 10.1388 1.11561 0
M  V30 21763 O 54.0697 8.36503 2.79617 0
M  V30 21764 O 54.6097 7.71806 0.42951 0
M  V30 21765 C 55.5497 7.66948 -0.673514 0
M  V30 21766 C 54.8197 7.33374 -1.95559 0
M  V30 21767 O 54.6097 5.88721 -2.00726 0
M  V30 21768 C 53.4197 7.92218 -2.1125 0
M  V30 21769 O 53.0297 8.02971 -3.47653 0
M  V30 21770 C 52.5397 6.89504 -1.41631 0
M  V30 21771 C 53.2497 5.59106 -1.75155 0
M  V30 21772 N 53.1997 4.58136 -0.662409 0
M  V30 21773 C 53.0497 3.26059 -1.02863 0
M  V30 21774 O 52.9597 2.90743 -2.19009 0
M  V30 21775 N 53.0097 2.35995 0.0155585 0
M  V30 21776 C 53.0997 2.65248 1.35603 0
M  V30 21777 C 53.2497 4.05747 1.64698 0
M  V30 21778 C 53.2997 4.96734 0.652411 0
M  V30 21779 H 56.0407 8.64917 -0.776982 0
M  V30 21780 H 56.3097 6.89974 -0.474015 0
M  V30 21781 H 55.4427 7.66548 -2.79458 0
M  V30 21782 H 52.7877 5.16076 -2.65138 0
M  V30 21783 H 52.5087 7.06433 -0.329384 0
M  V30 21784 H 51.5167 6.90829 -1.81996 0
M  V30 21785 H 53.3507 8.90774 -1.62639 0
M  V30 21786 H 53.4217 6.02181 0.895285 0
M  V30 21787 P 51.4797 8.03563 -3.84925 0
M  V30 21788 O 51.2597 8.85821 -5.0569 0
M  V30 21789 O 50.6897 8.41101 -2.65469 0
M  V30 21790 O 51.2297 6.4965 -4.18908 0
M  V30 21791 C 52.1697 5.80886 -5.05289 0
M  V30 21792 C 51.4397 4.78366 -5.89277 0
M  V30 21793 O 51.2297 3.58302 -5.08433 0
M  V30 21794 C 50.0397 5.16748 -6.36559 0
M  V30 21795 O 49.6497 4.45271 -7.53232 0
M  V30 21796 C 49.1597 4.74572 -5.19863 0
M  V30 21797 C 49.8697 3.49373 -4.70338 0
M  V30 21798 N 49.8197 3.31704 -3.22876 0
M  V30 21799 C 49.6697 2.03326 -2.74871 0
M  V30 21800 O 49.5797 1.06486 -3.48076 0
M  V30 21801 N 49.6297 1.91838 -1.37456 0
M  V30 21802 C 49.7197 2.94295 -0.462035 0
M  V30 21803 C 49.8697 4.25064 -1.05249 0
M  V30 21804 C 49.9197 4.40214 -2.39192 0
M  V30 21805 H 52.6607 6.54063 -5.71245 0
M  V30 21806 H 52.9297 5.30339 -4.43905 0
M  V30 21807 H 52.0627 4.55889 -6.76652 0
M  V30 21808 H 49.4077 2.6167 -5.17842 0
M  V30 21809 H 49.1287 5.52155 -4.41878 0
M  V30 21810 H 48.1367 4.51918 -5.53297 0
M  V30 21811 H 49.9707 6.25055 -6.55162 0
M  V30 21812 H 50.0417 5.39798 -2.81523 0
M  V30 21813 P 48.0997 4.23843 -7.83734 0
M  V30 21814 O 47.8797 4.19407 -9.29784 0
M  V30 21815 O 47.3097 5.24426 -7.09156 0
M  V30 21816 O 47.8497 2.7935 -7.20758 0
M  V30 21817 C 48.7897 1.72945 -7.50224 0
M  V30 21818 C 48.0597 0.406376 -7.57911 0
M  V30 21819 O 47.8497 -0.0897726 -6.21935 0
M  V30 21820 C 46.6597 0.438983 -8.18724 0
M  V30 21821 O 46.2697 -0.825065 -8.71101 0
M  V30 21822 C 45.7797 0.783689 -6.99524 0
M  V30 21823 C 46.4897 0.0619086 -5.85867 0
M  V30 21824 N 46.4397 0.78573 -4.56183 0
M  V30 21825 C 46.2897 0.0292889 -3.41887 0
M  V30 21826 O 46.1997 -1.18445 -3.4419 0
M  V30 21827 N 46.2497 0.744061 -2.23964 0
M  V30 21828 C 46.3397 2.10932 -2.10362 0
M  V30 21829 C 46.4897 2.8202 -3.34994 0
M  V30 21830 C 46.5397 2.15547 -4.52261 0
M  V30 21831 H 49.2807 1.93379 -8.46595 0
M  V30 21832 H 49.5497 1.68132 -6.70852 0
M  V30 21833 H 48.6827 -0.289041 -8.15388 0
M  V30 21834 H 46.0277 -0.926847 -5.72749 0
M  V30 21835 H 45.7487 1.86973 -6.82036 0
M  V30 21836 H 44.7567 0.403896 -7.13257 0
M  V30 21837 H 46.5907 1.20585 -8.97435 0
M  V30 21838 H 46.6617 2.71231 -5.45042 0
M  V30 21839 P 44.7198 -1.17771 -8.83182 0
M  V30 21840 O 44.4998 -2.07206 -9.98732 0
M  V30 21841 O 43.9298 0.0743816 -8.81969 0
M  V30 21842 O 44.4698 -1.97652 -7.47304 0
M  V30 21843 C 45.4098 -3.01133 -7.08783 0
M  V30 21844 C 44.6798 -4.12613 -6.37049 0
M  V30 21845 O 44.4698 -3.72827 -4.97879 0
M  V30 21846 C 43.2798 -4.45085 -6.88694 0
M  V30 21847 O 42.8898 -5.7877 -6.5624 0
M  V30 21848 C 42.3998 -3.47817 -6.12078 0
M  V30 21849 C 43.1098 -3.39414 -4.77697 0
M  V30 21850 N 43.0598 -2.04615 -4.15333 0
M  V30 21851 H 45.8988 -3.41248 -7.98759 0
M  V30 21852 H 46.1708 -2.5837 -6.41742 0
M  V30 21853 H 45.3028 -5.02657 -6.42673 0
M  V30 21854 P 41.3398 -6.144 -6.45285 0
M  V30 21855 O 41.1198 -7.54673 -6.86199 0
M  V30 21856 O 40.5498 -5.12391 -7.179 0
M  V30 21857 O 41.0898 -5.99158 -4.88404 0
M  V30 21858 C 42.0298 -6.60234 -3.96415 0
M  V30 21859 C 41.2998 -7.08259 -2.72856 0
M  V30 21860 O 41.0898 -5.9427 -1.83651 0
M  V30 21861 C 39.8998 -7.64886 -2.9555 0
M  V30 21862 O 39.5098 -8.53963 -1.90717 0
M  V30 21863 C 39.0198 -6.4116 -2.90739 0
M  V30 21864 C 39.7298 -5.55375 -1.86963 0
M  V30 21865 N 39.6798 -4.09448 -2.16152 0
M  V30 21866 H 42.5188 -7.45574 -4.45629 0
M  V30 21867 H 42.7908 -5.85864 -3.679 0
M  V30 21868 H 41.9228 -7.84412 -2.24479 0
M  V30 21869 H 39.2678 -5.73457 -0.888562 0
M  V30 21870 H 38.9878 -5.90877 -3.88583 0
M  V30 21871 H 37.9968 -6.6596 -2.58858 0
M  V30 21872 H 39.8308 -8.16339 -3.92049 0
M  V30 21873 P 37.9598 -8.7635 -1.60911 0
M  V30 21874 O 37.7398 -10.1388 -1.11561 0
M  V30 21875 O 37.1698 -8.36503 -2.79617 0
M  V30 21876 O 37.7098 -7.71806 -0.42951 0
M  V30 21877 C 38.6498 -7.66948 0.673514 0
M  V30 21878 C 37.9198 -7.33374 1.95559 0
M  V30 21879 O 37.7098 -5.88721 2.00726 0
M  V30 21880 C 36.5198 -7.92218 2.1125 0
M  V30 21881 O 36.1298 -8.02971 3.47653 0
M  V30 21882 C 35.6398 -6.89504 1.41631 0
M  V30 21883 C 36.3498 -5.59106 1.75155 0
M  V30 21884 N 36.2998 -4.58136 0.662409 0
M  V30 21885 C 36.1498 -3.26059 1.02863 0
M  V30 21886 O 36.0598 -2.90743 2.19009 0
M  V30 21887 N 36.1098 -2.35995 -0.0155585 0
M  V30 21888 C 36.1998 -2.65248 -1.35603 0
M  V30 21889 O 36.1498 -1.75605 -2.20651 0
M  V30 21890 C 36.3498 -4.05747 -1.64698 0
M  V30 21891 C 36.4598 -4.42345 -3.09553 0
M  V30 21892 C 36.3998 -4.96734 -0.652411 0
M  V30 21893 H 39.1408 -8.64917 0.776982 0
M  V30 21894 H 39.4098 -6.89974 0.474015 0
M  V30 21895 H 38.5428 -7.66548 2.79458 0
M  V30 21896 H 35.8878 -5.16076 2.65138 0
M  V30 21897 H 35.6088 -7.06433 0.329384 0
M  V30 21898 H 34.6168 -6.90829 1.81996 0
M  V30 21899 H 36.4508 -8.90774 1.62639 0
M  V30 21900 H 36.5218 -6.02181 -0.895285 0
M  V30 21901 H 35.4918 -4.80252 -3.45468 0
M  V30 21902 H 37.2288 -5.20015 -3.22119 0
M  V30 21903 H 36.7408 -3.53269 -3.67833 0
M  V30 21904 H 36.0048 -1.39558 0.227499 0
M  V30 21905 P 34.5798 -8.03563 3.84925 0
M  V30 21906 O 34.3598 -8.85821 5.0569 0
M  V30 21907 O 33.7898 -8.41101 2.65469 0
M  V30 21908 O 34.3298 -6.4965 4.18908 0
M  V30 21909 C 35.2698 -5.81037 5.05421 0
M  V30 21910 C 34.5398 -4.78366 5.89277 0
M  V30 21911 O 34.3298 -3.58302 5.08433 0
M  V30 21912 C 33.1398 -5.17448 6.36119 0
M  V30 21913 O 32.7498 -4.45271 7.53232 0
M  V30 21914 C 32.2598 -4.74639 5.19936 0
M  V30 21915 C 32.9698 -3.49432 4.70418 0
M  V30 21916 N 32.9198 -3.32099 3.22613 0
M  V30 21917 H 35.7588 -6.54213 5.71376 0
M  V30 21918 H 36.0308 -5.30936 4.43503 0
M  V30 21919 H 35.1628 -4.55889 6.76652 0
M  V30 21920 H 32.5078 -2.61715 5.17932 0
M  V30 21921 H 32.2278 -5.52155 4.41878 0
M  V30 21922 H 31.2368 -4.51981 5.53374 0
M  V30 21923 H 33.0708 -6.25124 6.55234 0
M  V30 21924 P 31.1998 -4.23843 7.83734 0
M  V30 21925 O 30.9798 -4.19407 9.29784 0
M  V30 21926 O 30.4098 -5.24426 7.09156 0
M  V30 21927 O 30.9498 -2.7935 7.20758 0
M  V30 21928 C 31.8898 -1.7299 7.50419 0
M  V30 21929 C 31.1598 -0.406376 7.57911 0
M  V30 21930 O 30.9498 0.0897726 6.21935 0
M  V30 21931 C 29.7598 -0.447224 8.1878 0
M  V30 21932 O 29.3698 0.825065 8.71101 0
M  V30 21933 C 28.8798 -0.783801 6.99623 0
M  V30 21934 C 29.5898 -0.0619192 5.85967 0
M  V30 21935 N 29.5398 -0.790462 4.56202 0
M  V30 21936 H 32.3788 -1.93423 8.4679 0
M  V30 21937 H 32.6508 -1.68852 6.70877 0
M  V30 21938 H 31.7828 0.289041 8.15388 0
M  V30 21939 H 29.1278 0.927006 5.72848 0
M  V30 21940 H 28.8478 -1.86973 6.82036 0
M  V30 21941 H 27.8568 -0.403953 7.13357 0
M  V30 21942 H 29.6908 -1.20599 8.97534 0
M  V30 21943 P 27.8199 1.17771 8.83182 0
M  V30 21944 O 27.5999 2.07206 9.98732 0
M  V30 21945 O 27.0299 -0.0743816 8.81969 0
M  V30 21946 O 27.5699 1.97652 7.47304 0
M  V30 21947 C 28.5099 3.01133 7.08783 0
M  V30 21948 C 27.7799 4.12613 6.37049 0
M  V30 21949 O 27.5699 3.72827 4.97879 0
M  V30 21950 C 26.3799 4.45085 6.88694 0
M  V30 21951 O 25.9899 5.7877 6.5624 0
M  V30 21952 C 25.4999 3.47817 6.12078 0
M  V30 21953 C 26.2099 3.39414 4.77697 0
M  V30 21954 N 26.1599 2.04615 4.15333 0
M  V30 21955 H 28.9989 3.41248 7.98759 0
M  V30 21956 H 29.2709 2.5837 6.41742 0
M  V30 21957 H 28.4029 5.02657 6.42673 0
M  V30 21958 P 24.4399 6.144 6.45285 0
M  V30 21959 O 24.2199 7.54673 6.86199 0
M  V30 21960 O 23.6499 5.12391 7.179 0
M  V30 21961 O 24.1899 5.99158 4.88404 0
M  V30 21962 C 25.1299 6.60234 3.96415 0
M  V30 21963 C 24.3999 7.08259 2.72856 0
M  V30 21964 O 24.1899 5.9427 1.83651 0
M  V30 21965 C 22.9999 7.64886 2.9555 0
M  V30 21966 O 22.6099 8.53963 1.90717 0
M  V30 21967 C 22.1199 6.4116 2.90739 0
M  V30 21968 C 22.8299 5.55375 1.86963 0
M  V30 21969 N 22.7799 4.09448 2.16152 0
M  V30 21970 H 25.6189 7.45574 4.45629 0
M  V30 21971 H 25.8909 5.85864 3.679 0
M  V30 21972 H 25.0229 7.84412 2.24479 0
M  V30 21973 H 22.3679 5.73457 0.888562 0
M  V30 21974 H 22.0879 5.90877 3.88583 0
M  V30 21975 H 21.0969 6.6596 2.58858 0
M  V30 21976 H 22.9309 8.16339 3.92049 0
M  V30 21977 P 21.0599 8.7635 1.60911 0
M  V30 21978 O 20.8399 10.1388 1.11561 0
M  V30 21979 O 20.2699 8.36503 2.79617 0
M  V30 21980 O 20.8099 7.71806 0.42951 0
M  V30 21981 C 21.7499 7.67148 -0.673689 0
M  V30 21982 C 21.0199 7.33374 -1.95559 0
M  V30 21983 O 20.8099 5.88721 -2.00726 0
M  V30 21984 C 19.6199 7.92526 -2.10483 0
M  V30 21985 O 19.2299 8.02971 -3.47653 0
M  V30 21986 C 18.7399 6.89602 -1.41652 0
M  V30 21987 C 19.4499 5.59201 -1.75185 0
M  V30 21988 N 19.3999 4.58301 -0.657969 0
M  V30 21989 H 22.2389 8.65116 -0.777161 0
M  V30 21990 H 22.5109 6.9022 -0.46725 0
M  V30 21991 H 21.6429 7.66548 -2.79458 0
M  V30 21992 H 18.9879 5.16165 -2.65183 0
M  V30 21993 H 18.7079 7.06433 -0.329384 0
M  V30 21994 H 17.7169 6.90926 -1.82021 0
M  V30 21995 H 19.5509 8.90873 -1.62657 0
M  V30 21996 P 17.6799 8.03563 -3.84925 0
M  V30 21997 O 17.4599 8.85821 -5.0569 0
M  V30 21998 O 16.8899 8.41101 -2.65469 0
M  V30 21999 O 17.4299 6.4965 -4.18908 0
M  V30 22000 C 18.3699 5.81037 -5.05421 0
M  V30 22001 C 17.6399 4.78366 -5.89277 0
M  V30 22002 O 17.4299 3.58302 -5.08433 0
M  V30 22003 C 16.2399 5.17448 -6.36119 0
M  V30 22004 O 15.8499 4.45271 -7.53232 0
M  V30 22005 C 15.3599 4.74639 -5.19936 0
M  V30 22006 C 16.0699 3.49432 -4.70418 0
M  V30 22007 N 16.0199 3.32099 -3.22613 0
M  V30 22008 H 18.8589 6.54213 -5.71376 0
M  V30 22009 H 19.1309 5.30936 -4.43503 0
M  V30 22010 H 18.2629 4.55889 -6.76652 0
M  V30 22011 H 15.6079 2.61715 -5.17932 0
M  V30 22012 H 15.3279 5.52155 -4.41878 0
M  V30 22013 H 14.3369 4.51981 -5.53374 0
M  V30 22014 H 16.1709 6.25124 -6.55234 0
M  V30 22015 P 14.2999 4.23843 -7.83734 0
M  V30 22016 O 14.0799 4.19407 -9.29784 0
M  V30 22017 O 13.5099 5.24426 -7.09156 0
M  V30 22018 O 14.0499 2.7935 -7.20758 0
M  V30 22019 C 14.9899 1.7299 -7.50419 0
M  V30 22020 C 14.2599 0.406376 -7.57911 0
M  V30 22021 O 14.0499 -0.0897726 -6.21935 0
M  V30 22022 C 12.8599 0.447224 -8.1878 0
M  V30 22023 O 12.4699 -0.825065 -8.71101 0
M  V30 22024 C 11.9799 0.783801 -6.99623 0
M  V30 22025 C 12.6899 0.0619192 -5.85967 0
M  V30 22026 N 12.6399 0.7859 -4.56281 0
M  V30 22027 H 15.4789 1.93423 -8.4679 0
M  V30 22028 H 15.7509 1.68181 -6.71046 0
M  V30 22029 H 14.8829 -0.289041 -8.15388 0
M  V30 22030 P 10.92 -1.17771 -8.83182 0
M  V30 22031 O 10.7 -2.07206 -9.98732 0
M  V30 22032 O 10.13 0.0743816 -8.81969 0
M  V30 22033 O 10.67 -1.97652 -7.47304 0
M  V30 22034 C 11.61 -3.01133 -7.08783 0
M  V30 22035 C 10.88 -4.12613 -6.37049 0
M  V30 22036 O 10.67 -3.72827 -4.97879 0
M  V30 22037 C 9.47996 -4.45085 -6.88694 0
M  V30 22038 O 9.08996 -5.7877 -6.5624 0
M  V30 22039 C 8.59996 -3.47817 -6.12078 0
M  V30 22040 C 9.30996 -3.39414 -4.77697 0
M  V30 22041 N 9.25996 -2.04199 -4.15538 0
M  V30 22042 H 12.099 -3.41248 -7.98759 0
M  V30 22043 H 12.371 -2.57728 -6.42 0
M  V30 22044 H 11.503 -5.02657 -6.42673 0
M  V30 22045 H 8.84796 -4.11708 -4.08956 0
M  V30 22046 H 8.56796 -2.49626 -6.61679 0
M  V30 22047 H 7.57696 -3.8662 -6.00862 0
M  V30 22048 H 9.41096 -4.29991 -7.97006 0
M  V30 22049 P 7.53998 -6.144 -6.45285 0
M  V30 22050 O 7.31998 -7.54673 -6.86199 0
M  V30 22051 O 6.74998 -5.12391 -7.179 0
M  V30 22052 O 7.28998 -5.99236 -4.88467 0
M  V30 22053 C 8.22998 -6.60234 -3.96415 0
M  V30 22054 C 7.49998 -7.08079 -2.736 0
M  V30 22055 O 7.28998 -5.94365 -1.8368 0
M  V30 22056 C 6.09998 -7.64886 -2.9555 0
M  V30 22057 O 5.70998 -8.5406 -1.90739 0
M  V30 22058 C 5.21998 -6.4116 -2.90739 0
M  V30 22059 C 5.92998 -5.55375 -1.86963 0
M  V30 22060 N 5.87998 -4.09664 -2.15742 0
M  V30 22061 C 5.72998 -3.22231 -1.08477 0
M  V30 22062 O 5.63998 -3.68951 0.0600489 0
M  V30 22063 N 5.67998 -1.76692 -1.48799 0
M  V30 22064 C 5.77998 -1.41695 -2.57602 0
M  V30 22065 N 5.72998 -0.107296 -2.75791 0
M  V30 22066 C 5.92998 -2.29178 -3.69733 0
M  V30 22067 C 5.97998 -3.62753 -3.42653 0
M  V30 22068 H 8.71998 -7.45488 -4.45578 0
M  V30 22069 H 8.98998 -5.86232 -3.67314 0
M  V30 22070 H 8.12298 -7.84508 -2.24507 0
M  V30 22071 H 5.46798 -5.73556 -0.888715 0
M  V30 22072 H 5.18798 -5.9096 -3.88638 0
M  V30 22073 H 4.19698 -6.66053 -2.58894 0
M  V30 22074 H 6.03098 -8.16339 -3.92049 0
M  V30 22075 H 6.10298 -4.33052 -4.24913 0
M  V30 22076 H 6.00098 -1.9103 -4.71577 0
M  V30 22077 H 5.61298 0.521221 -1.95056 0
M  V30 22078 H 5.80898 0.286429 -3.70695 0
M  V30 22079 P 4.16 -8.7635 -1.60911 0
M  V30 22080 O 3.94 -10.1388 -1.11561 0
M  V30 22081 O 3.37 -8.36503 -2.79617 0
M  V30 22082 O 3.91 -7.71806 -0.42951 0
M  V30 22083 C 4.85 -7.67148 0.673689 0
M  V30 22084 C 4.12 -7.33374 1.95559 0
M  V30 22085 O 3.91 -5.88721 2.00726 0
M  V30 22086 C 2.72 -7.92526 2.10483 0
M  V30 22087 O 2.33 -8.02971 3.47653 0
M  V30 22088 C 1.84 -6.89602 1.41652 0
M  V30 22089 C 2.55 -5.59201 1.75185 0
M  V30 22090 N 2.5 -4.58235 0.662552 0
M  V30 22091 H 5.339 -8.65116 0.777161 0
M  V30 22092 H 5.611 -6.90173 0.474152 0
M  V30 22093 H 4.743 -7.66548 2.79458 0
M  V30 22094 H 1.613 -8.66322 3.55694 0
M  V30 END ATOM
M  V30 BEGIN BOND
M  V30 END BOND
M  V30 END CTAB
M  END
$$$$
