drugbank_target|P51512 Matrix metalloproteinase-16 (DB00786; DB03880)
 OpenBabel12092119573D

  0  0  0     0  0            999 V3000
M  V30 BEGIN CTAB
M  V30 COUNTS 9711 9879 0 0 0
M  V30 BEGIN ATOM
M  V30 1 H -0.908 1.98254 -0.117106 0
M  V30 2 N 0 1.576 0 0
M  V30 3 C 0.933 2.03868 1.02534 0
M  V30 4 C 1.911 0.928543 1.3348 0
M  V30 5 O 3.095 1.19667 1.45644 0
M  V30 6 C 0.222 2.43627 2.35294 0
M  V30 7 C -0.732 3.65373 2.2001 0
M  V30 8 S 0.101 5.13292 1.52614 0
M  V30 9 C 1.257 5.56322 2.86805 0
M  V30 10 H 1.49 2.90518 0.631377 0
M  V30 11 H -0.977 1.52953 0.210867 0
M  V30 12 H 0.981 2.67203 3.11629 0
M  V30 13 H -0.358 1.57376 2.7183 0
M  V30 14 H -1.165 3.90944 3.18086 0
M  V30 15 H -1.563 3.418 1.51819 0
M  V30 16 H 0.729 5.58782 3.83104 0
M  V30 17 H 1.672 6.56266 2.65933 0
M  V30 18 H 2.08 4.83886 2.90714 0
M  V30 19 N 1.4781 -0.272755 1.55222 0
M  V30 20 C 2.7271 -1.00211 1.75045 0
M  V30 21 C 3.0401 -1.87441 0.559046 0
M  V30 22 O 4.2461 -2.63856 0.639698 0
M  V30 23 C 2.7021 -1.83165 3.09804 0
M  V30 24 C 2.3101 -1.008 4.36513 0
M  V30 25 C 4.0541 -2.55529 3.38977 0
M  V30 26 C 1.9611 -1.83194 5.62311 0
M  V30 27 H 0.8911 -0.377878 0.652476 0
M  V30 28 H 3.5421 -0.257776 1.8168 0
M  V30 29 H 1.9241 -2.61694 2.97207 0
M  V30 30 H 3.0981 -0.266855 4.60027 0
M  V30 31 H 1.4131 -0.398897 4.14485 0
M  V30 32 H 4.0101 -3.17578 4.30172 0
M  V30 33 H 4.3531 -3.25825 2.59121 0
M  V30 34 H 4.8861 -1.84029 3.52673 0
M  V30 35 H 1.6251 -1.17318 6.44916 0
M  V30 36 H 1.1451 -2.54905 5.4294 0
M  V30 37 H 2.8241 -2.40552 6.00619 0
M  V30 38 N 2.9562 -1.48159 -0.537278 0
M  V30 39 C 3.8862 -1.65029 -1.6519 0
M  V30 40 C 4.8672 -0.499281 -1.62607 0
M  V30 41 O 6.0522 -0.730972 -1.79918 0
M  V30 42 C 3.1822 -1.68303 -3.03795 0
M  V30 43 C 2.1362 -2.8283 -3.21234 0
M  V30 44 C 1.4622 -2.71189 -4.60826 0
M  V30 45 C 2.7622 -4.24211 -3.04701 0
M  V30 46 H 4.4562 -2.58341 -1.51328 0
M  V30 47 H 2.0022 -1.24325 -0.726585 0
M  V30 48 H 3.9552 -1.78693 -3.81637 0
M  V30 49 H 2.6792 -0.715635 -3.18663 0
M  V30 50 H 1.3382 -2.71983 -2.45807 0
M  V30 51 H 0.9862 -1.72435 -4.7252 0
M  V30 52 H 0.6862 -3.48035 -4.7344 0
M  V30 53 H 2.2102 -2.83537 -5.40777 0
M  V30 54 H 3.6242 -4.3593 -3.72341 0
M  V30 55 H 2.0212 -5.01998 -3.28813 0
M  V30 56 H 3.0912 -4.41184 -2.01209 0
M  V30 57 N 4.4343 0.785586 -1.36625 0
M  V30 58 C 5.3643 1.91259 -1.33949 0
M  V30 59 C 6.3453 1.68795 -0.210325 0
M  V30 60 O 7.5303 1.89854 -0.408561 0
M  V30 61 C 4.6603 3.28339 -1.13186 0
M  V30 62 C 3.6143 3.65335 -2.22967 0
M  V30 63 C 2.9403 5.00806 -1.87342 0
M  V30 64 C 4.2403 3.7352 -3.65075 0
M  V30 65 H 5.9343 1.93755 -2.28253 0
M  V30 66 H 3.4803 0.930788 -1.09874 0
M  V30 67 H 5.4333 4.06804 -1.09948 0
M  V30 68 H 4.1573 3.2624 -0.153332 0
M  V30 69 H 2.8163 2.89169 -2.25337 0
M  V30 70 H 2.4643 4.95233 -0.880545 0
M  V30 71 H 2.1643 5.26529 -2.60846 0
M  V30 72 H 3.6883 5.81687 -1.85667 0
M  V30 73 H 5.1023 4.42168 -3.64911 0
M  V30 74 H 3.4993 4.10731 -4.37516 0
M  V30 75 H 4.5693 2.74527 -3.99703 0
M  V30 76 N 5.9124 1.20967 1.01018 0
M  V30 77 C 7.1404 1.04956 1.78303 0
M  V30 78 C 7.5554 -0.400915 1.84494 0
M  V30 79 O 6.9124 -1.27826 1.30257 0
M  V30 80 C 6.9634 1.63403 3.22462 0
M  V30 81 O 6.6844 3.02775 3.16637 0
M  V30 82 C 8.1854 1.52432 4.16268 0
M  V30 83 H 5.4054 0.368858 0.560522 0
M  V30 84 H 7.9494 1.60193 1.27116 0
M  V30 85 H 6.1044 1.1227 3.70775 0
M  V30 86 H 6.5184 3.30626 4.07169 0
M  V30 87 H 7.9924 1.98078 5.15237 0
M  V30 88 H 8.4694 0.477875 4.36592 0
M  V30 89 H 9.0754 2.02787 3.73841 0
M  V30 90 N 7.3905 -1.2043 1.01659 0
M  V30 91 C 8.6375 -1.89797 0.705917 0
M  V30 92 C 8.9655 -1.78848 -0.764439 0
M  V30 93 O 8.2205 -1.16694 -1.57102 0
M  V30 94 C 8.5195 -3.40464 1.08714 0
M  V30 95 C 8.1855 -3.71614 2.5537 0
M  V30 96 C 6.8475 -3.79826 2.95441 0
M  V30 97 C 9.1995 -3.85915 3.50313 0
M  V30 98 C 6.5275 -3.99797 4.29394 0
M  V30 99 C 8.8795 -4.07396 4.83954 0
M  V30 100 C 7.5435 -4.13837 5.23732 0
M  V30 101 H 6.8135 -0.694518 0.258313 0
M  V30 102 H 9.4605 -1.42691 1.27717 0
M  V30 103 H 7.7655 -3.89385 0.434309 0
M  V30 104 H 9.4625 -3.92433 0.824461 0
M  V30 105 H 6.0525 -3.65822 2.23321 0
M  V30 106 H 10.2365 -3.78926 3.20513 0
M  V30 107 H 5.4925 -4.03018 4.59768 0
M  V30 108 H 9.6665 -4.17404 5.57447 0
M  V30 109 H 7.2935 -4.29064 6.27541 0
M  V30 110 N 8.8686 -0.792821 -1.36206 0
M  V30 111 C 10.0936 -0.377701 -2.03932 0
M  V30 112 C 10.5186 0.998947 -1.59382 0
M  V30 113 O 9.8766 1.64421 -0.763903 0
M  V30 114 C 9.9246 -0.453635 -3.57735 0
M  V30 115 O 9.0286 0.538151 -4.08874 0
M  V30 116 H 8.3696 -0.159855 -0.644471 0
M  V30 117 H 10.8996 -1.07488 -1.7409 0
M  V30 118 H 10.9096 -0.318464 -4.06755 0
M  V30 119 H 9.5846 -1.45784 -3.89512 0
M  V30 120 H 8.1616 0.364359 -3.71116 0
M  V30 121 N 10.3467 1.47872 -0.545128 0
M  V30 122 C 11.5747 2.06889 -0.021084 0
M  V30 123 C 11.9897 1.39955 1.2672 0
M  V30 124 O 11.3467 0.492036 1.75742 0
M  V30 125 C 11.3977 3.60996 0.190817 0
M  V30 126 O 11.1187 4.25419 -1.04644 0
M  V30 127 C 12.6197 4.36849 0.753521 0
M  V30 128 H 9.8397 0.669785 -0.0403635 0
M  V30 129 H 12.3837 1.90049 -0.755095 0
M  V30 130 H 10.5387 3.77391 0.87492 0
M  V30 131 H 10.9527 5.17785 -0.836611 0
M  V30 132 H 12.4267 5.45399 0.851139 0
M  V30 133 H 12.9037 4.02306 1.762 0
M  V30 134 H 13.5097 4.25169 0.105503 0
M  V30 135 N 11.8248 0.280983 1.55075 0
M  V30 136 C 13.0728 -0.333455 1.9933 0
M  V30 137 C 13.3938 -1.55937 1.17085 0
M  V30 138 O 12.6638 -1.94143 0.261805 0
M  V30 139 H 11.2438 -0.126197 0.736263 0
M  V30 140 H 13.9058 0.387678 1.91005 0
M  V30 141 H 13.0018 -0.619292 3.05894 0
M  V30 142 N 13.3029 -1.57598 0.00835791 0
M  V30 143 C 14.7189 -1.55764 -0.347822 0
M  V30 144 C 14.9189 -1.01186 -1.74252 0
M  V30 145 O 13.9749 -0.649371 -2.44007 0
M  V30 146 C 15.2879 -2.99927 -0.215407 0
M  V30 147 C 16.8359 -3.11656 -0.289725 0
M  V30 148 C 17.3109 -4.57621 -0.18634 0
M  V30 149 N 18.8019 -4.62557 -0.243978 0
M  V30 150 C 19.5369 -5.73094 -0.18745 0
M  V30 151 N 19.0329 -6.92753 -0.0810331 0
M  V30 152 N 20.8259 -5.61588 -0.239925 0
M  V30 153 H 12.9769 -1.91411 0.92062 0
M  V30 154 H 15.2399 -0.879562 0.353659 0
M  V30 155 H 14.9459 -3.43729 0.744512 0
M  V30 156 H 14.8199 -3.63865 -0.994097 0
M  V30 157 H 17.2069 -2.67779 -1.24009 0
M  V30 158 H 17.2879 -2.5048 0.51898 0
M  V30 159 H 16.9319 -5.02174 0.760519 0
M  V30 160 H 16.8619 -5.16752 -1.01364 0
M  V30 161 H 19.3529 -3.76481 -0.327217 0
M  V30 162 H 19.6659 -7.72787 -0.0440241 0
M  V30 163 H 18.0109 -6.94984 -0.0465419 0
M  V30 164 H 21.2019 -4.66996 -0.321317 0
M  V30 165 H 21.3749 -6.47714 -0.192407 0
M  V30 166 N 14.781 0.264519 -1.55364 0
M  V30 167 C 16.197 0.61215 -1.47394 0
M  V30 168 C 16.397 1.89134 -0.695018 0
M  V30 169 O 15.453 2.51563 -0.217275 0
M  V30 170 C 16.766 0.731235 -2.91674 0
M  V30 171 C 18.314 0.82473 -3.01939 0
M  V30 172 C 18.789 0.975522 -4.4749 0
M  V30 173 N 20.28 1.04083 -4.51354 0
M  V30 174 C 21.015 1.17646 -5.61201 0
M  V30 175 N 20.511 1.27874 -6.80896 0
M  V30 176 N 22.304 1.20823 -5.48961 0
M  V30 177 H 14.455 -0.575456 -2.04456 0
M  V30 178 H 16.718 -0.196099 -0.927496 0
M  V30 179 H 16.424 -0.138392 -3.51428 0
M  V30 180 H 16.298 1.60883 -3.41169 0
M  V30 181 H 18.685 1.68482 -2.42276 0
M  V30 182 H 18.766 -0.0776479 -2.55682 0
M  V30 183 H 18.41 0.120058 -5.07758 0
M  V30 184 H 18.34 1.89268 -4.91412 0
M  V30 185 H 20.831 0.973846 -3.65136 0
M  V30 186 H 21.144 1.38081 -7.60364 0
M  V30 187 H 19.489 1.24863 -6.83692 0
M  V30 188 H 22.68 1.12469 -4.54388 0
M  V30 189 H 22.853 1.31049 -6.3461 0
M  V30 190 N 16.2591 1.48442 0.529413 0
M  V30 191 C 17.1891 1.65902 1.64313 0
M  V30 192 C 18.1701 0.507897 1.6234 0
M  V30 193 O 19.3551 0.740503 1.79528 0
M  V30 194 C 16.4851 1.69911 3.02898 0
M  V30 195 C 15.4391 2.8453 3.19729 0
M  V30 196 C 14.7651 2.73629 4.59381 0
M  V30 197 C 16.0651 4.25821 3.02447 0
M  V30 198 H 17.7591 2.5914 1.49955 0
M  V30 199 H 15.3051 1.24709 0.719982 0
M  V30 200 H 17.2581 1.80715 3.80684 0
M  V30 201 H 15.9821 0.732524 3.18279 0
M  V30 202 H 14.6411 2.73283 2.44361 0
M  V30 203 H 14.2891 1.74938 4.71599 0
M  V30 204 H 13.9891 3.50541 4.71588 0
M  V30 205 H 15.5131 2.86401 5.39265 0
M  V30 206 H 16.9271 4.37898 3.70024 0
M  V30 207 H 15.3241 5.03735 3.26146 0
M  V30 208 H 16.3941 4.42244 1.98867 0
M  V30 209 N 17.7372 -0.778329 1.37039 0
M  V30 210 C 19.0142 -1.52551 1.22424 0
M  V30 211 C 19.3942 -2.10288 -0.184964 0
M  V30 212 O 18.7422 -1.94953 -1.19187 0
M  V30 213 C 18.9522 -2.61164 2.31504 0
M  V30 214 C 20.3002 -3.28746 2.68721 0
M  V30 215 O 21.3242 -2.71455 2.30631 0
M  V30 216 O 20.1832 -4.3231 3.3432 0
M  V30 217 H 17.2772 -0.675343 0.477326 0
M  V30 218 H 19.8232 -0.815859 1.48801 0
M  V30 219 H 18.5952 -2.16574 3.25901 0
M  V30 220 H 18.2182 -3.39737 2.06554 0
M  V30 221 N 19.2153 -1.21501 -1.00376 0
M  V30 222 C 20.4623 -1.03299 -1.74171 0
M  V30 223 C 20.7903 0.433326 -1.89612 0
M  V30 224 O 20.0453 1.33779 -1.42834 0
M  V30 225 C 20.3443 -1.67673 -3.15627 0
M  V30 226 C 20.0103 -3.17533 -3.2013 0
M  V30 227 C 18.6723 -3.58427 -3.21067 0
M  V30 228 C 21.0243 -4.13504 -3.17275 0
M  V30 229 C 18.3523 -4.93794 -3.16835 0
M  V30 230 C 20.7043 -5.48834 -3.14585 0
M  V30 231 C 19.3683 -5.89123 -3.13831 0
M  V30 232 H 18.6383 -0.377999 -0.637336 0
M  V30 233 H 21.2853 -1.51111 -1.17634 0
M  V30 234 H 19.5903 -1.12158 -3.75404 0
M  V30 235 H 21.2873 -1.51091 -3.71446 0
M  V30 236 H 17.8773 -2.84965 -3.20145 0
M  V30 237 H 22.0613 -3.82936 -3.15711 0
M  V30 238 H 17.3173 -5.24255 -3.1459 0
M  V30 239 H 21.4913 -6.22934 -3.1133 0
M  V30 240 H 19.1183 -6.93984 -3.10307 0
M  V30 241 N 20.6934 1.19889 -1.02296 0
M  V30 242 C 21.9394 1.89701 -0.717033 0
M  V30 243 C 22.2724 1.7905 0.751989 0
M  V30 244 O 21.5474 1.17891 1.547 0
M  V30 245 C 21.8304 3.40858 -1.16136 0
M  V30 246 C 21.6834 3.60411 -2.69117 0
M  V30 247 C 23.0024 4.33876 -0.737549 0
M  V30 248 H 20.1214 0.688874 -0.261957 0
M  V30 249 H 22.7634 1.41154 -1.27183 0
M  V30 250 H 20.9134 3.82335 -0.689342 0
M  V30 251 H 22.5854 3.28145 -3.2422 0
M  V30 252 H 20.8284 3.03665 -3.0979 0
M  V30 253 H 21.4994 4.66396 -2.95261 0
M  V30 254 H 23.9754 4.00081 -1.14344 0
M  V30 255 H 22.8514 5.38242 -1.0764 0
M  V30 256 H 23.1124 4.40628 0.360436 0
M  V30 257 N 22.1715 0.800033 1.35784 0
M  V30 258 C 23.1215 0.178654 2.27299 0
M  V30 259 C 24.1055 -0.643667 1.47464 0
M  V30 260 O 25.2975 -0.502 1.69732 0
M  V30 261 C 22.4265 -0.677194 3.36555 0
M  V30 262 C 21.5125 0.154497 4.23818 0
M  V30 263 N 21.9035 1.21427 4.91008 0
M  V30 264 C 20.2015 -0.0649462 4.45953 0
M  V30 265 C 20.9025 1.72147 5.55644 0
M  V30 266 N 19.8785 1.02897 5.33773 0
M  V30 267 H 23.6805 0.989637 2.76737 0
M  V30 268 H 21.1945 0.64054 1.49234 0
M  V30 269 H 23.1915 -1.13835 4.01058 0
M  V30 270 H 21.8515 -1.4866 2.8867 0
M  V30 271 H 22.8625 1.59684 4.92668 0
M  V30 272 H 19.5395 -0.844016 4.0888 0
M  V30 273 H 20.9295 2.60683 6.19269 0
M  V30 274 N 23.6496 -1.47581 0.552962 0
M  V30 275 C 24.5996 -2.26961 -0.217423 0
M  V30 276 C 25.5836 -1.34099 -0.889168 0
M  V30 277 O 26.7756 -1.58483 -0.788176 0
M  V30 278 C 23.9046 -3.19756 -1.24944 0
M  V30 279 C 22.9906 -4.20097 -0.581327 0
M  V30 280 N 23.3816 -5.04614 0.346171 0
M  V30 281 C 21.6796 -4.38099 -0.835767 0
M  V30 282 C 22.3806 -5.77052 0.733854 0
M  V30 283 N 21.3566 -5.43526 0.0896567 0
M  V30 284 H 25.1586 -2.89688 0.495761 0
M  V30 285 H 22.6726 -1.58068 0.372597 0
M  V30 286 H 24.6696 -3.75305 -1.81527 0
M  V30 287 H 23.3296 -2.58585 -1.96376 0
M  V30 288 H 24.3406 -5.12869 0.720098 0
M  V30 289 H 21.0176 -3.88102 -1.53892 0
M  V30 290 H 22.4076 -6.5504 1.49574 0
M  V30 291 N 25.1277 -0.289203 -1.54924 0
M  V30 292 C 26.3527 0.329299 -2.04769 0
M  V30 293 C 26.7777 1.4763 -1.16564 0
M  V30 294 O 26.1357 1.80527 -0.167186 0
M  V30 295 C 26.1837 0.774438 -3.52186 0
M  V30 296 O 25.2877 1.88038 -3.67036 0
M  V30 297 H 24.6287 0.0659259 -0.660719 0
M  V30 298 H 27.1587 -0.42761 -2.00082 0
M  V30 299 H 27.1687 1.06642 -3.93816 0
M  V30 300 H 25.8437 -0.0646707 -4.1585 0
M  V30 301 H 24.4207 1.58985 -3.3731 0
M  V30 302 N 26.6058 1.57591 -0.0167156 0
M  V30 303 C 27.8538 1.90906 0.663285 0
M  V30 304 C 28.1748 0.892509 1.73376 0
M  V30 305 O 27.4448 -0.0677623 1.95783 0
M  V30 306 H 26.0248 0.704637 0.247983 0
M  V30 307 H 28.6868 1.94803 -0.0615909 0
M  V30 308 H 27.7828 2.9116 1.12393 0
M  V30 309 N 28.0839 -0.256276 1.55502 0
M  V30 310 C 29.3299 -0.987079 1.77157 0
M  V30 311 C 29.6629 -1.85327 0.580315 0
M  V30 312 O 28.9379 -1.89874 -0.421686 0
M  V30 313 C 29.2209 -1.85553 3.08613 0
M  V30 314 C 29.0739 -1.01816 4.38125 0
M  V30 315 C 30.3929 -2.8397 3.36228 0
M  V30 316 H 27.5119 -0.357428 0.644526 0
M  V30 317 H 30.1539 -0.258239 1.88237 0
M  V30 318 H 28.3039 -2.47695 2.99298 0
M  V30 319 H 29.9759 -0.416159 4.59419 0
M  V30 320 H 28.2189 -0.322178 4.32602 0
M  V30 321 H 28.8899 -1.65939 5.26468 0
M  V30 322 H 31.3659 -2.31964 3.45445 0
M  V30 323 H 30.2419 -3.41864 4.29442 0
M  V30 324 H 30.5029 -3.59955 2.56681 0
M  V30 325 N 29.562 -1.4872 -0.521534 0
M  V30 326 C 30.809 -1.57168 -1.27689 0
M  V30 327 C 31.137 -0.249275 -1.92896 0
M  V30 328 O 30.392 0.761162 -1.80291 0
M  V30 329 C 30.691 -2.66497 -2.38148 0
M  V30 330 C 30.357 -4.08664 -1.90538 0
M  V30 331 C 29.019 -4.47357 -1.77271 0
M  V30 332 C 31.371 -4.97724 -1.54663 0
M  V30 333 C 28.699 -5.72905 -1.26478 0
M  V30 334 C 31.051 -6.2377 -1.05329 0
M  V30 335 C 29.715 -6.61311 -0.906861 0
M  V30 336 H 28.985 -0.575117 -0.467249 0
M  V30 337 H 31.632 -1.82472 -0.581051 0
M  V30 338 H 29.937 -2.35085 -3.13437 0
M  V30 339 H 31.634 -2.70246 -2.96257 0
M  V30 340 H 28.224 -3.78111 -2.01816 0
M  V30 341 H 32.408 -4.68501 -1.63768 0
M  V30 342 H 27.664 -6.00709 -1.13835 0
M  V30 343 H 31.838 -6.9217 -0.76644 0
M  V30 344 H 29.465 -7.5848 -0.511083 0
M  V30 345 N 31.0401 0.771051 -1.3745 0
M  V30 346 C 32.2871 1.52963 -1.32697 0
M  V30 347 C 32.6151 1.94299 0.0883274 0
M  V30 348 O 31.8701 1.64397 1.0617 0
M  V30 349 C 32.1691 2.80676 -2.2126 0
M  V30 350 C 31.8351 2.58389 -3.69521 0
M  V30 351 C 30.4971 2.52019 -4.09927 0
M  V30 352 C 32.8491 2.38469 -4.63446 0
M  V30 353 C 30.1771 2.23721 -5.42371 0
M  V30 354 C 32.5291 2.11694 -5.96128 0
M  V30 355 C 31.1931 2.03769 -6.35637 0
M  V30 356 H 30.4631 0.559732 -0.485573 0
M  V30 357 H 33.1101 0.888083 -1.69662 0
M  V30 358 H 31.4151 3.49392 -1.77291 0
M  V30 359 H 33.1121 3.38557 -2.14895 0
M  V30 360 H 29.7021 2.6421 -3.37478 0
M  V30 361 H 33.8861 2.4238 -4.33089 0
M  V30 362 H 29.1421 2.16081 -5.71943 0
M  V30 363 H 33.3161 1.9528 -6.6846 0
M  V30 364 H 30.9431 1.81606 -7.38189 0
M  V30 365 N 32.5182 1.22032 0.997298 0
M  V30 366 C 33.4482 1.01065 2.10495 0
M  V30 367 C 34.4292 -0.0669542 1.69968 0
M  V30 368 O 35.6142 0.0943987 1.9397 0
M  V30 369 C 32.7442 0.582874 3.42374 0
M  V30 370 C 31.6982 1.60592 3.96729 0
M  V30 371 C 31.0242 1.03412 5.24605 0
M  V30 372 C 32.3242 2.99478 4.27914 0
M  V30 373 H 34.0182 1.93708 2.28292 0
M  V30 374 H 31.5642 0.932761 1.09707 0
M  V30 375 H 33.5172 0.423332 4.19268 0
M  V30 376 H 32.2412 -0.379213 3.24391 0
M  V30 377 H 30.9002 1.75316 3.21963 0
M  V30 378 H 30.5482 0.063518 5.0296 0
M  V30 379 H 30.2482 1.71754 5.61938 0
M  V30 380 H 31.7722 0.886066 6.04137 0
M  V30 381 H 33.1862 2.88153 4.95622 0
M  V30 382 H 31.5832 3.64903 4.76409 0
M  V30 383 H 32.6532 3.49742 3.3587 0
M  V30 384 N 33.9963 -1.19345 1.0293 0
M  V30 385 C 34.9283 -2.22036 0.56857 0
M  V30 386 C 35.9413 -1.58865 -0.355779 0
M  V30 387 O 37.1303 -1.77851 -0.152103 0
M  V30 388 C 34.2303 -3.38363 -0.190752 0
M  V30 389 C 33.4033 -4.31118 0.738643 0
M  V30 390 C 32.4623 -5.26194 0.0246497 0
M  V30 391 O 31.4883 -5.65461 0.651354 0
M  V30 392 N 32.6903 -5.66971 -1.24594 0
M  V30 393 H 35.4553 -2.6219 1.45177 0
M  V30 394 H 33.0163 -1.34015 0.908381 0
M  V30 395 H 35.0083 -3.98981 -0.677961 0
M  V30 396 H 33.5783 -2.96994 -0.975366 0
M  V30 397 H 32.7983 -3.68276 1.40593 0
M  V30 398 H 34.0863 -4.90001 1.37029 0
M  V30 399 H 33.4843 -5.37104 -1.77583 0
M  V30 400 H 32.0413 -6.2984 -1.67764 0
M  V30 401 N 35.4744 -0.807222 -1.35358 0
M  V30 402 C 36.7024 -0.400377 -2.02989 0
M  V30 403 C 37.1174 0.988859 -1.60832 0
M  V30 404 O 36.4744 1.63729 -0.806175 0
M  V30 405 C 36.5254 -0.474867 -3.58368 0
M  V30 406 O 36.2464 -1.80933 -3.98992 0
M  V30 407 C 37.7474 -0.0609112 -4.43258 0
M  V30 408 H 34.9674 -0.162587 -0.651004 0
M  V30 409 H 37.5114 -1.09102 -1.72965 0
M  V30 410 H 35.6664 0.167534 -3.87038 0
M  V30 411 H 36.0804 -1.77256 -4.9364 0
M  V30 412 H 37.5544 -0.164145 -5.51756 0
M  V30 413 H 38.0314 0.993831 -4.27808 0
M  V30 414 H 38.6374 -0.676492 -4.19885 0
M  V30 415 N 36.9525 1.47285 -0.560781 0
M  V30 416 C 37.8825 2.32857 0.173105 0
M  V30 417 C 38.8635 1.44009 0.905281 0
M  V30 418 O 40.0485 1.7286 0.885046 0
M  V30 419 C 37.1785 3.25861 1.20133 0
M  V30 420 C 36.1325 4.23978 0.585388 0
M  V30 421 C 35.4585 5.06332 1.7185 0
M  V30 422 C 36.7585 5.20242 -0.463178 0
M  V30 423 H 38.4525 2.94466 -0.541307 0
M  V30 424 H 35.9985 1.41601 -0.261764 0
M  V30 425 H 37.9515 3.84569 1.72293 0
M  V30 426 H 36.6755 2.62315 1.94573 0
M  V30 427 H 35.3345 3.66501 0.085054 0
M  V30 428 H 34.9825 4.39186 2.45203 0
M  V30 429 H 34.6825 5.72762 1.31213 0
M  V30 430 H 36.2065 5.67899 2.24329 0
M  V30 431 H 37.6205 5.73293 -0.027502 0
M  V30 432 H 36.0175 5.94896 -0.788627 0
M  V30 433 H 37.0875 4.65504 -1.35773 0
M  V30 434 N 38.4306 0.297415 1.54768 0
M  V30 435 C 39.3606 -0.573494 2.26348 0
M  V30 436 C 40.3416 -1.14085 1.26169 0
M  V30 437 O 41.5266 -1.17086 1.54934 0
M  V30 438 C 38.6566 -1.74716 3.00153 0
M  V30 439 C 37.6106 -1.31032 4.07449 0
M  V30 440 C 36.9366 -2.56887 4.68949 0
M  V30 441 C 38.2366 -0.444183 5.20408 0
M  V30 442 H 39.9306 0.0235131 2.99391 0
M  V30 443 H 37.4766 0.0127488 1.43994 0
M  V30 444 H 39.4296 -2.3625 3.48947 0
M  V30 445 H 38.1536 -2.37035 2.24682 0
M  V30 446 H 36.8126 -0.718066 3.59499 0
M  V30 447 H 36.4606 -3.17512 3.90122 0
M  V30 448 H 36.1606 -2.2836 5.41411 0
M  V30 449 H 37.6846 -3.19229 5.20505 0
M  V30 450 H 39.0986 -0.9651 5.65118 0
M  V30 451 H 37.4956 -0.252846 5.99567 0
M  V30 452 H 38.5656 0.531609 4.81977 0
M  V30 453 N 39.9087 -1.5758 0.0250728 0
M  V30 454 C 41.1547 -1.92746 -0.649648 0
M  V30 455 C 41.5097 -0.901588 -1.69968 0
M  V30 456 O 40.8027 0.0829251 -1.9142 0
M  V30 457 C 40.9967 -3.32421 -1.31268 0
M  V30 458 C 40.8257 -4.48499 -0.328394 0
M  V30 459 C 39.5957 -5.05251 0.070284 0
M  V30 460 C 41.7937 -5.12618 0.415665 0
M  V30 461 N 39.7757 -6.04851 1.05016 0
M  V30 462 C 41.1467 -6.0728 1.24943 0
M  V30 463 C 43.2017 -4.95612 0.476803 0
M  V30 464 C 41.9047 -6.86766 2.1388 0
M  V30 465 C 43.9307 -5.75703 1.3535 0
M  V30 466 C 43.2927 -6.69978 2.17504 0
M  V30 467 H 39.3917 -0.753231 -0.210159 0
M  V30 468 H 41.9757 -1.94486 0.0912999 0
M  V30 469 H 40.1467 -3.31508 -2.02379 0
M  V30 470 H 41.8787 -3.54946 -1.94411 0
M  V30 471 H 38.6337 -4.72628 -0.303323 0
M  V30 472 H 39.0577 -6.5934 1.53622 0
M  V30 473 H 43.6997 -4.22554 -0.144105 0
M  V30 474 H 41.4177 -7.59132 2.77027 0
M  V30 475 H 45.0037 -5.64579 1.40504 0
M  V30 476 H 43.8837 -7.30873 2.84244 0
M  V30 477 N 41.3868 0.248026 -1.55636 0
M  V30 478 C 42.6358 0.974134 -1.76617 0
M  V30 479 C 42.9488 1.86528 -0.588796 0
M  V30 480 O 44.1548 2.62805 -0.681594 0
M  V30 481 C 42.6108 1.78213 -3.12679 0
M  V30 482 C 42.2188 0.93843 -4.38061 0
M  V30 483 C 43.9628 2.50104 -3.42999 0
M  V30 484 C 41.8698 1.74225 -5.65155 0
M  V30 485 H 40.7998 0.36745 -0.658405 0
M  V30 486 H 43.4508 0.22884 -1.82067 0
M  V30 487 H 41.8328 2.56933 -3.01333 0
M  V30 488 H 43.0068 0.193635 -4.60393 0
M  V30 489 H 41.3218 0.332905 -4.15067 0
M  V30 490 H 43.9188 3.10694 -4.3517 0
M  V30 491 H 44.2618 3.21662 -2.64271 0
M  V30 492 H 44.7948 1.78395 -3.55556 0
M  V30 493 H 41.5338 1.07043 -6.46701 0
M  V30 494 H 41.0538 2.46235 -5.46926 0
M  V30 495 H 42.7328 2.30967 -6.0437 0
M  V30 496 N 42.8649 1.48995 0.513639 0
M  V30 497 C 43.7949 1.67636 1.62544 0
M  V30 498 C 44.7759 0.525087 1.61793 0
M  V30 499 O 45.9609 0.759502 1.78732 0
M  V30 500 C 43.0909 1.73114 3.01079 0
M  V30 501 C 42.0449 2.87905 3.16693 0
M  V30 502 C 41.3709 2.78486 4.56453 0
M  V30 503 C 42.6709 4.29005 2.97913 0
M  V30 504 H 44.3649 2.60716 1.47198 0
M  V30 505 H 41.9109 1.25465 0.706714 0
M  V30 506 H 43.8639 1.84742 3.78746 0
M  V30 507 H 42.5879 0.766241 3.17484 0
M  V30 508 H 41.2469 2.75859 2.41448 0
M  V30 509 H 40.8949 1.7993 4.69717 0
M  V30 510 H 40.5949 3.55523 4.67843 0
M  V30 511 H 42.1189 2.92104 5.36197 0
M  V30 512 H 43.5329 4.41798 3.65359 0
M  V30 513 H 41.9299 5.07166 3.20785 0
M  V30 514 H 42.9999 4.44329 1.94165 0
M  V30 515 N 44.343 -0.763751 1.37857 0
M  V30 516 C 45.583 -1.53551 1.34913 0
M  V30 517 C 45.947 -1.91895 -0.0635882 0
M  V30 518 O 47.148 -2.67916 -0.217825 0
M  V30 519 C 45.419 -2.76126 2.26912 0
M  V30 520 S 46.978 -3.66105 2.41893 0
M  V30 521 H 43.796 -0.52559 0.478828 0
M  V30 522 H 46.398 -0.897435 1.73685 0
M  V30 523 H 45.102 -2.4605 3.28463 0
M  V30 524 H 44.633 -3.44887 1.89253 0
M  V30 525 H 46.648 -4.68473 1.63545 0
M  V30 526 N 45.8211 -1.22559 -0.990812 0
M  V30 527 C 46.7841 -0.998863 -2.0629 0
M  V30 528 C 47.7841 0.0354834 -1.60761 0
M  V30 529 O 48.9741 -0.203231 -1.7301 0
M  V30 530 C 46.1061 -0.509203 -3.37076 0
M  V30 531 H 47.2991 -1.95014 -2.27837 0
M  V30 532 H 44.8521 -1.04456 -1.16269 0
M  V30 533 H 45.5871 0.446335 -3.21214 0
M  V30 534 H 45.3721 -1.25547 -3.71457 0
M  V30 535 H 46.8621 -0.370888 -4.1595 0
M  V30 536 N 47.2992 1.18797 -1.03562 0
M  V30 537 C 48.5272 1.92599 -0.755869 0
M  V30 538 C 48.9422 1.75886 0.686271 0
M  V30 539 O 48.2992 1.08517 1.46732 0
M  V30 540 C 48.3502 3.44159 -1.10619 0
M  V30 541 O 48.0712 3.60341 -2.4917 0
M  V30 542 C 49.5722 4.3507 -0.850214 0
M  V30 543 H 46.7922 0.611587 -0.276048 0
M  V30 544 H 49.3362 1.50742 -1.38192 0
M  V30 545 H 47.4912 3.83823 -0.525194 0
M  V30 546 H 47.9052 4.54128 -2.62427 0
M  V30 547 H 49.3792 5.39989 -1.14523 0
M  V30 548 H 49.8562 4.38673 0.215176 0
M  V30 549 H 50.4622 4.01097 -1.41426 0
M  V30 550 N 48.7773 0.814389 1.34928 0
M  V30 551 C 50.0233 0.399013 1.98836 0
M  V30 552 C 50.3563 -1.03314 1.64438 0
M  V30 553 O 49.6313 -1.71811 0.911659 0
M  V30 554 C 49.9143 0.591629 3.55207 0
M  V30 555 C 49.7673 2.06928 3.99376 0
M  V30 556 C 51.0863 0.022199 4.40094 0
M  V30 557 H 48.2053 0.146451 0.722303 0
M  V30 558 H 50.8473 1.02537 1.59957 0
M  V30 559 H 48.9973 0.0584441 3.88456 0
M  V30 560 H 50.6693 2.66544 3.76499 0
M  V30 561 H 48.9123 2.56287 3.49999 0
M  V30 562 H 49.5833 2.1549 5.08201 0
M  V30 563 H 52.0593 0.477643 4.13349 0
M  V30 564 H 50.9353 0.186832 5.48582 0
M  V30 565 H 51.1963 -1.07215 4.28902 0
M  V30 566 N 50.2554 -1.46986 0.568584 0
M  V30 567 C 51.4954 -2.04336 0.0512999 0
M  V30 568 C 51.8594 -1.43214 -1.27881 0
M  V30 569 O 53.0604 -1.91679 -1.88448 0
M  V30 570 C 51.3314 -3.57389 -0.0282328 0
M  V30 571 S 52.8904 -4.36056 -0.489991 0
M  V30 572 H 49.7084 -0.71034 0.0306349 0
M  V30 573 H 52.3104 -1.80212 0.757891 0
M  V30 574 H 51.0144 -3.99395 0.944011 0
M  V30 575 H 50.5454 -3.86028 -0.75803 0
M  V30 576 H 52.5604 -4.6441 -1.74752 0
M  V30 577 N 51.7335 -0.305618 -1.54608 0
M  V30 578 C 52.9815 0.301701 -1.99835 0
M  V30 579 C 53.3025 1.54054 -1.19551 0
M  V30 580 O 52.5725 1.93702 -0.292658 0
M  V30 581 H 51.1525 0.114468 -0.738178 0
M  V30 582 H 53.8145 -0.418016 -1.90364 0
M  V30 583 H 52.9105 0.570548 -3.06841 0
M  V30 584 N 53.2116 1.57565 -0.0334293 0
M  V30 585 C 54.4396 1.9628 0.654347 0
M  V30 586 C 54.8546 0.910138 1.65414 0
M  V30 587 O 54.2116 -0.107595 1.82183 0
M  V30 588 C 54.2626 3.35067 1.35693 0
M  V30 589 O 53.9836 4.36296 0.397191 0
M  V30 590 C 55.4846 3.88439 2.13613 0
M  V30 591 H 52.7046 0.646369 0.180132 0
M  V30 592 H 55.2486 2.04282 -0.0944721 0
M  V30 593 H 53.4036 3.2827 2.05712 0
M  V30 594 H 53.8176 5.1678 0.896597 0
M  V30 595 H 55.2916 4.8788 2.58219 0
M  V30 596 H 55.7686 3.22914 2.97696 0
M  V30 597 H 56.3746 3.98516 1.48543 0
M  V30 598 N 54.6897 -0.239769 1.55765 0
M  V30 599 C 55.5997 -1.31831 1.94056 0
M  V30 600 C 56.6157 -1.52275 0.841925 0
M  V30 601 O 57.7917 -1.65759 1.14394 0
M  V30 602 C 54.8567 -2.65156 2.23368 0
M  V30 603 C 53.9177 -2.53173 3.46701 0
M  V30 604 C 53.1507 -3.8014 3.74606 0
M  V30 605 O 53.3737 -4.82343 3.04469 0
M  V30 606 O 52.3077 -3.78344 4.68123 0
M  V30 607 H 56.1337 -1.02347 2.85935 0
M  V30 608 H 53.7187 -0.441123 1.42739 0
M  V30 609 H 55.6007 -3.43929 2.43497 0
M  V30 610 H 54.2757 -2.94358 1.34666 0
M  V30 611 H 53.1827 -1.72662 3.31871 0
M  V30 612 H 54.5157 -2.28915 4.35728 0
M  V30 613 N 56.1678 -1.49265 -0.50573 0
M  V30 614 C 57.0998 -1.617 -1.62437 0
M  V30 615 C 58.1128 -0.499924 -1.54934 0
M  V30 616 O 59.3018 -0.771785 -1.60953 0
M  V30 617 C 56.4018 -1.5533 -3.01207 0
M  V30 618 C 55.5748 -2.8249 -3.33943 0
M  V30 619 C 54.6338 -2.69238 -4.52103 0
M  V30 620 O 53.6598 -3.43167 -4.5412 0
M  V30 621 N 54.8618 -1.80468 -5.51735 0
M  V30 622 H 57.6268 -2.58177 -1.52199 0
M  V30 623 H 55.1878 -1.46294 -0.693511 0
M  V30 624 H 57.1798 -1.44125 -3.78167 0
M  V30 625 H 55.7498 -0.667297 -3.05395 0
M  V30 626 H 54.9698 -3.08081 -2.45926 0
M  V30 627 H 56.2578 -3.66802 -3.5261 0
M  V30 628 H 55.6558 -1.19653 -5.52901 0
M  V30 629 H 54.2128 -1.75188 -6.27816 0
M  V30 630 N 57.6459 0.756429 -1.3826 0
M  V30 631 C 58.8759 1.54341 -1.3734 0
M  V30 632 C 59.2839 1.89159 0.0393917 0
M  V30 633 O 58.6269 1.5307 1.01565 0
M  V30 634 C 58.6889 2.87238 -2.16182 0
M  V30 635 C 58.3529 2.74973 -3.65019 0
M  V30 636 C 59.3499 2.44962 -4.58574 0
M  V30 637 C 57.0349 2.92515 -4.08338 0
M  V30 638 C 59.0289 2.32642 -5.93428 0
M  V30 639 C 56.7159 2.79815 -5.43274 0
M  V30 640 C 57.7139 2.49921 -6.35632 0
M  V30 641 O 57.4019 2.37275 -7.68086 0
M  V30 642 H 57.1339 0.484281 -0.471643 0
M  V30 643 H 59.6879 0.944152 -1.82414 0
M  V30 644 H 57.9179 3.49342 -1.65822 0
M  V30 645 H 59.6069 3.48731 -2.07705 0
M  V30 646 H 60.3729 2.31081 -4.26412 0
M  V30 647 H 56.2519 3.14781 -3.368 0
M  V30 648 H 59.7959 2.0923 -6.65484 0
M  V30 649 H 55.6929 2.93269 -5.75034 0
M  V30 650 H 56.4609 2.52509 -7.78577 0
M  V30 651 N 59.124 1.23083 0.984299 0
M  V30 652 C 60.371 1.06057 1.72505 0
M  V30 653 C 60.699 -0.403105 1.90277 0
M  V30 654 O 59.954 -1.3149 1.44944 0
M  V30 655 C 60.253 1.72673 3.1292 0
M  V30 656 C 59.919 3.22586 3.15038 0
M  V30 657 C 58.581 3.63489 3.15324 0
M  V30 658 C 60.933 4.185 3.10657 0
M  V30 659 C 58.261 4.98772 3.08939 0
M  V30 660 C 60.613 5.53769 3.05814 0
M  V30 661 C 59.277 5.94041 3.04419 0
M  V30 662 H 58.547 0.388091 0.631242 0
M  V30 663 H 61.194 1.52963 1.15215 0
M  V30 664 H 59.499 1.18116 3.73572 0
M  V30 665 H 61.196 1.56982 3.68996 0
M  V30 666 H 57.786 2.90022 3.15571 0
M  V30 667 H 61.97 3.87911 3.09579 0
M  V30 668 H 57.226 5.29193 3.0621 0
M  V30 669 H 61.4 6.27808 3.0138 0
M  V30 670 H 59.027 6.98833 2.99227 0
M  V30 671 N 60.6021 -1.18246 1.0419 0
M  V30 672 C 61.5501 -2.23968 0.627792 0
M  V30 673 C 62.5441 -1.65828 -0.346019 0
M  V30 674 O 63.7501 -1.78733 -0.213175 0
M  V30 675 H 60.1251 -0.728939 0.184802 0
M  V30 676 H 62.0961 -2.56202 1.52981 0
M  V30 677 C 60.8451 -3.47699 0.00796591 0
M  V30 678 H 60.1681 -3.92734 0.748347 0
M  V30 679 H 61.6081 -4.23294 -0.24455 0
M  V30 680 C 60.0671 -3.13153 -1.24246 0
M  V30 681 O 60.5971 -3.27003 -2.33307 0
M  V30 682 N 58.8031 -2.67467 -1.13622 0
M  V30 683 H 58.3501 -2.56396 -0.248734 0
M  V30 684 H 58.3081 -2.44724 -1.97377 0
M  V30 685 N 62.0802 -0.821533 -1.34494 0
M  V30 686 C 63.3262 -0.409552 -1.98622 0
M  V30 687 C 63.6592 1.0244 -1.64984 0
M  V30 688 O 62.9342 1.71325 -0.920758 0
M  V30 689 C 63.2172 -0.610458 -3.54888 0
M  V30 690 C 63.0702 -2.09043 -3.98273 0
M  V30 691 C 64.3892 -0.0455379 -4.40076 0
M  V30 692 H 61.5082 -0.15028 -0.721516 0
M  V30 693 H 64.1502 -1.03384 -1.59411 0
M  V30 694 H 62.3002 -0.079044 -3.8842 0
M  V30 695 H 63.9722 -2.68537 -3.75081 0
M  V30 696 H 62.2152 -2.58139 -3.48635 0
M  V30 697 H 62.8862 -2.18182 -5.07051 0
M  V30 698 H 65.3622 -0.499557 -4.1309 0
M  V30 699 H 64.2382 -0.215922 -5.48475 0
M  V30 700 H 64.4992 1.04939 -4.29465 0
M  V30 701 N 63.5583 1.46682 -0.576371 0
M  V30 702 C 64.4683 2.34032 0.163141 0
M  V30 703 C 65.4843 1.49367 0.892501 0
M  V30 704 O 66.6603 1.82252 0.857106 0
M  V30 705 C 63.7253 3.26435 1.16795 0
M  V30 706 C 62.7863 4.26998 0.443944 0
M  V30 707 C 62.0193 5.14986 1.40088 0
M  V30 708 O 62.2423 5.05785 2.637 0
M  V30 709 O 61.1763 5.94906 0.914917 0
M  V30 710 H 65.0023 2.98607 -0.55388 0
M  V30 711 H 62.5873 1.45554 -0.336821 0
M  V30 712 H 64.4693 3.83459 1.74748 0
M  V30 713 H 63.1443 2.64465 1.86655 0
M  V30 714 H 62.0513 3.7368 -0.177271 0
M  V30 715 H 63.3843 4.91736 -0.213566 0
M  V30 716 N 65.0364 0.313813 1.54444 0
M  V30 717 C 66.2824 -0.292108 2.00685 0
M  V30 718 C 66.6154 -1.52548 1.20177 0
M  V30 719 O 65.8904 -1.92452 0.281531 0
M  V30 720 C 66.1734 -0.635968 3.5444 0
M  V30 721 C 66.0264 0.607437 4.4568 0
M  V30 722 C 67.3454 -1.45747 4.15266 0
M  V30 723 H 64.4644 -0.104697 0.729526 0
M  V30 724 H 67.1064 0.428457 1.85106 0
M  V30 725 H 65.2564 -1.24986 3.67846 0
M  V30 726 H 66.9284 1.24581 4.44159 0
M  V30 727 H 65.1714 1.23822 4.15753 0
M  V30 728 H 65.8424 0.322515 5.51057 0
M  V30 729 H 68.3184 -0.938645 4.05375 0
M  V30 730 H 67.1944 -1.66683 5.2298 0
M  V30 731 H 67.4554 -2.45063 3.67963 0
M  V30 732 N 66.5145 -1.57545 0.0417849 0
M  V30 733 C 67.7605 -1.93424 -0.629168 0
M  V30 734 C 68.1155 -0.919564 -1.69002 0
M  V30 735 O 67.4085 0.0626178 -1.91498 0
M  V30 736 C 67.6025 -3.33794 -1.27735 0
M  V30 737 C 67.4315 -4.48822 -0.280806 0
M  V30 738 C 66.2015 -5.05148 0.123869 0
M  V30 739 C 68.3995 -5.12148 0.470012 0
M  V30 740 N 66.3815 -6.03703 1.11426 0
M  V30 741 C 67.7525 -6.05921 1.31377 0
M  V30 742 C 69.8075 -4.95078 0.529343 0
M  V30 743 C 68.5105 -6.84459 2.21152 0
M  V30 744 C 70.5365 -5.74235 1.41448 0
M  V30 745 C 69.8985 -6.67634 2.24598 0
M  V30 746 H 65.9975 -0.755418 -0.202158 0
M  V30 747 H 68.5815 -1.94378 0.111923 0
M  V30 748 H 66.7525 -3.33635 -1.98852 0
M  V30 749 H 68.4845 -3.56988 -1.90635 0
M  V30 750 H 65.2395 -4.72923 -0.253178 0
M  V30 751 H 65.6635 -6.57674 1.60607 0
M  V30 752 H 70.3055 -4.22683 -0.0992798 0
M  V30 753 H 68.0235 -7.56151 2.85063 0
M  V30 754 H 71.6095 -5.63057 1.46484 0
M  V30 755 H 70.4895 -7.27817 2.9198 0
M  V30 756 N 67.9926 0.231505 -1.5589 0
M  V30 757 C 68.9226 1.29022 -1.94617 0
M  V30 758 C 69.9036 1.4941 -0.813067 0
M  V30 759 O 71.0886 1.6176 -1.07459 0
M  V30 760 C 68.2186 2.64199 -2.25424 0
M  V30 761 C 67.1726 2.58484 -3.41131 0
M  V30 762 C 66.4986 3.97599 -3.57518 0
M  V30 763 C 67.7986 2.1413 -4.76388 0
M  V30 764 H 69.4926 0.968563 -2.83301 0
M  V30 765 H 67.0386 0.464479 -1.36303 0
M  V30 766 H 68.9916 3.38413 -2.51107 0
M  V30 767 H 67.7156 2.98032 -1.33583 0
M  V30 768 H 66.3746 1.86727 -3.15481 0
M  V30 769 H 66.0226 4.28723 -2.6307 0
M  V30 770 H 65.7226 3.94659 -4.35337 0
M  V30 771 H 67.2466 4.7349 -3.85538 0
M  V30 772 H 68.6606 2.78083 -5.01341 0
M  V30 773 H 67.0576 2.2227 -5.57419 0
M  V30 774 H 68.1276 1.09331 -4.72414 0
M  V30 775 N 69.4707 1.49531 0.497807 0
M  V30 776 C 70.4027 1.62559 1.61578 0
M  V30 777 C 71.4157 0.508134 1.54667 0
M  V30 778 O 72.6047 0.780309 1.60541 0
M  V30 779 C 69.7047 1.56925 3.00379 0
M  V30 780 C 68.8777 2.84257 3.3244 0
M  V30 781 C 67.9367 2.71632 4.50669 0
M  V30 782 O 66.9627 3.4557 4.52294 0
M  V30 783 N 68.1647 1.83391 5.5077 0
M  V30 784 H 70.9297 2.58981 1.50828 0
M  V30 785 H 68.4907 1.4666 0.685743 0
M  V30 786 H 70.4827 1.46129 3.77397 0
M  V30 787 H 69.0527 0.683483 3.05037 0
M  V30 788 H 68.2727 3.09381 2.44289 0
M  V30 789 H 69.5607 3.68666 3.5066 0
M  V30 790 H 68.9587 1.22583 5.52259 0
M  V30 791 H 67.5157 1.78515 6.26878 0
M  V30 792 N 70.9488 -0.749086 1.3866 0
M  V30 793 C 71.8958 -1.86291 1.36251 0
M  V30 794 C 72.8658 -1.64578 0.224347 0
M  V30 795 O 74.0508 -1.86181 0.417279 0
M  V30 796 C 71.1908 -3.23644 1.19786 0
M  V30 797 C 70.3038 -3.57158 2.43027 0
M  V30 798 C 69.4388 -4.83838 2.19258 0
M  V30 799 C 68.4778 -5.10152 3.38247 0
M  V30 800 N 67.6148 -6.28029 3.13884 0
M  V30 801 H 72.4548 -1.87685 2.3147 0
M  V30 802 H 69.9918 -0.917287 1.14997 0
M  V30 803 H 71.9498 -4.0291 1.08254 0
M  V30 804 H 70.5798 -3.21566 0.282031 0
M  V30 805 H 69.6318 -2.72701 2.65214 0
M  V30 806 H 70.9438 -3.7253 3.31697 0
M  V30 807 H 70.0978 -5.71057 2.04888 0
M  V30 808 H 68.8368 -4.70614 1.2796 0
M  V30 809 H 67.8418 -4.21401 3.53131 0
M  V30 810 H 69.0668 -5.25271 4.30427 0
M  V30 811 H 67.0128 -6.1612 2.25238 0
M  V30 812 H 66.9298 -6.43922 3.96106 0
M  V30 813 H 68.1978 -7.18124 3.03179 0
M  V30 814 N 72.4269 -1.23603 -0.977757 0
M  V30 815 C 73.6569 -1.09487 -1.75203 0
M  V30 816 C 74.0649 0.356321 -1.85814 0
M  V30 817 O 73.4079 1.25816 -1.33851 0
M  V30 818 C 73.4699 -1.64905 -3.19447 0
M  V30 819 C 73.1339 -3.13688 -3.32338 0
M  V30 820 C 74.1309 -4.10953 -3.18455 0
M  V30 821 C 71.8159 -3.53449 -3.56902 0
M  V30 822 C 73.8099 -5.45962 -3.28944 0
M  V30 823 C 71.4969 -4.88602 -3.6703 0
M  V30 824 C 72.4949 -5.84668 -3.53062 0
M  V30 825 O 72.1829 -7.17365 -3.62826 0
M  V30 826 H 71.9149 -0.38367 -0.556573 0
M  V30 827 H 74.4689 -1.6398 -1.23693 0
M  V30 828 H 72.6989 -1.04835 -3.72218 0
M  V30 829 H 74.3879 -1.46226 -3.78646 0
M  V30 830 H 75.1539 -3.81577 -2.99372 0
M  V30 831 H 71.0329 -2.79188 -3.66844 0
M  V30 832 H 74.5769 -6.20925 -3.17958 0
M  V30 833 H 70.4739 -5.17653 -3.85623 0
M  V30 834 H 71.2419 -7.2515 -3.79605 0
M  V30 835 N 73.905 1.17692 -1.04816 0
M  V30 836 C 75.153 1.87488 -0.754497 0
M  V30 837 C 75.474 1.81205 0.720407 0
M  V30 838 O 74.744 1.23544 1.52032 0
M  V30 839 H 73.324 0.694101 -0.276102 0
M  V30 840 H 75.986 1.42793 -1.32651 0
M  V30 841 H 75.082 2.93328 -1.06606 0
M  V30 842 N 75.3831 0.828654 1.34056 0
M  V30 843 C 76.6131 0.431993 2.02033 0
M  V30 844 C 77.0211 -0.96844 1.62536 0
M  V30 845 O 76.3641 -1.6391 0.829408 0
M  V30 846 C 76.4261 0.461224 3.56529 0
M  V30 847 C 76.0901 1.81599 4.1937 0
M  V30 848 C 77.0871 2.7777 4.39477 0
M  V30 849 C 74.7721 2.10604 4.56017 0
M  V30 850 C 76.7661 4.01115 4.95364 0
M  V30 851 C 74.4531 3.34207 5.11614 0
M  V30 852 C 75.4511 4.2928 5.31232 0
M  V30 853 O 75.1391 5.50699 5.8565 0
M  V30 854 H 74.8711 0.170943 0.654029 0
M  V30 855 H 77.4251 1.11988 1.72185 0
M  V30 856 H 75.6551 -0.283388 3.8566 0
M  V30 857 H 77.3441 0.0838149 4.05813 0
M  V30 858 H 78.1101 2.56659 4.11523 0
M  V30 859 H 73.9891 1.37402 4.40047 0
M  V30 860 H 77.5331 4.75333 5.10592 0
M  V30 861 H 73.4301 3.55179 5.38997 0
M  V30 862 H 74.1981 5.52298 6.04077 0
M  V30 863 N 76.8612 -1.46375 0.584142 0
M  V30 864 C 77.7912 -2.33103 -0.136037 0
M  V30 865 C 78.7722 -1.45431 -0.882255 0
M  V30 866 O 79.9572 -1.74246 -0.857434 0
M  V30 867 C 77.0872 -3.27731 -1.14933 0
M  V30 868 C 76.0412 -4.24855 -0.517862 0
M  V30 869 C 75.3672 -5.09001 -1.63773 0
M  V30 870 C 76.6672 -5.19439 0.545886 0
M  V30 871 H 78.3612 -2.93568 0.588086 0
M  V30 872 H 75.9072 -1.41166 0.284259 0
M  V30 873 H 77.8602 -3.87261 -1.66153 0
M  V30 874 H 76.5842 -2.65377 -1.90375 0
M  V30 875 H 75.2432 -3.6659 -0.0267361 0
M  V30 876 H 74.8912 -4.43031 -2.38185 0
M  V30 877 H 74.5912 -5.74777 -1.22085 0
M  V30 878 H 76.1152 -5.71396 -2.15266 0
M  V30 879 H 77.5292 -5.73177 0.118704 0
M  V30 880 H 75.9262 -5.93566 0.88317 0
M  V30 881 H 76.9962 -4.63285 1.43162 0
M  V30 882 N 78.3393 -0.321999 -1.54275 0
M  V30 883 C 79.7503 0.166384 -1.85957 0
M  V30 884 C 80.1013 1.51747 -1.24367 0
M  V30 885 O 79.2263 2.09317 -0.549124 0
M  V30 886 C 79.8213 0.308681 -3.37391 0
M  V30 887 C 78.3803 0.741286 -3.69028 0
M  V30 888 C 77.5273 -0.137937 -2.76957 0
M  V30 889 H 80.4783 -0.542335 -1.49146 0
M  V30 890 H 80.4993 1.13984 -3.63026 0
M  V30 891 H 80.0113 -0.674809 -3.82188 0
M  V30 892 H 78.1123 1.73458 -3.29762 0
M  V30 893 H 78.2253 0.546118 -4.75977 0
M  V30 894 H 76.5893 0.386251 -2.51754 0
M  V30 895 H 77.3723 -1.11816 -3.2458 0
M  V30 896 N 79.8174 1.5752 -0.0501392 0
M  V30 897 C 81.2284 1.80271 0.485705 0
M  V30 898 C 81.5794 0.96228 1.70981 0
M  V30 899 O 80.7044 0.178578 2.15662 0
M  V30 900 C 81.2994 3.26957 0.887938 0
M  V30 901 C 79.8584 3.5063 1.36877 0
M  V30 902 C 79.0054 2.75165 0.343468 0
M  V30 903 H 81.9564 1.56281 -0.276028 0
M  V30 904 H 81.9774 3.37821 1.75093 0
M  V30 905 H 81.4894 3.881 -0.0031809 0
M  V30 906 H 79.5904 2.94766 2.27911 0
M  V30 907 H 79.7034 4.59343 1.36164 0
M  V30 908 H 78.0674 2.4127 0.816128 0
M  V30 909 H 78.8504 3.39034 -0.539548 0
M  V30 910 N 81.2955 -0.223234 1.56011 0
M  V30 911 C 82.5235 -0.964812 1.83027 0
M  V30 912 C 82.9385 -1.78013 0.62904 0
M  V30 913 O 82.2955 -1.78008 -0.402414 0
M  V30 914 C 82.3465 -1.88373 3.08542 0
M  V30 915 O 82.0675 -1.10137 4.2403 0
M  V30 916 C 83.5685 -2.73934 3.48533 0
M  V30 917 H 80.7885 -0.282842 0.608475 0
M  V30 918 H 83.3325 -0.238971 2.03099 0
M  V30 919 H 81.4875 -2.56354 2.9045 0
M  V30 920 H 81.9015 -1.72501 4.95322 0
M  V30 921 H 83.3755 -3.34117 4.39397 0
M  V30 922 H 83.8525 -3.46244 2.70207 0
M  V30 923 H 84.4585 -2.11369 3.69057 0
M  V30 924 N 82.7736 -1.49793 -0.48987 0
M  V30 925 C 84.0506 -1.50348 -1.25119 0
M  V30 926 C 84.4306 -0.237466 -2.0976 0
M  V30 927 O 83.7786 0.77981 -2.14782 0
M  V30 928 C 83.9886 -2.78872 -2.09837 0
M  V30 929 C 85.3366 -3.288 -2.68655 0
M  V30 930 O 86.3606 -2.80065 -2.20096 0
M  V30 931 O 85.2196 -4.13707 -3.57083 0
M  V30 932 H 82.3136 -0.602242 -0.566775 0
M  V30 933 H 84.8596 -1.62067 -0.503229 0
M  V30 934 H 83.6316 -3.62499 -1.47343 0
M  V30 935 H 83.2546 -2.70066 -2.91805 0
M  V30 936 N 84.2517 0.741722 -1.39055 0
M  V30 937 C 85.6627 1.31966 -1.32068 0
M  V30 938 C 86.0137 1.96192 0.0180797 0
M  V30 939 O 85.1387 1.95861 0.920196 0
M  V30 940 C 85.7337 2.39954 -2.39181 0
M  V30 941 C 84.2927 2.93438 -2.35735 0
M  V30 942 C 83.4397 1.66936 -2.21422 0
M  V30 943 H 86.3907 0.539721 -1.4924 0
M  V30 944 H 86.4117 3.20182 -2.05581 0
M  V30 945 H 85.9237 1.9318 -3.36605 0
M  V30 946 H 84.0247 3.4451 -1.41929 0
M  V30 947 H 84.1377 3.4701 -3.30335 0
M  V30 948 H 82.5017 1.91016 -1.68478 0
M  V30 949 H 83.2847 1.22224 -3.20806 0
M  V30 950 N 85.7298 1.2412 0.971189 0
M  V30 951 C 87.1458 1.00584 1.23916 0
M  V30 952 C 87.3458 -0.287481 1.99439 0
M  V30 953 O 86.4018 -1.00454 2.31658 0
M  V30 954 C 87.7148 2.21864 2.0297 0
M  V30 955 C 89.2628 2.26452 2.16076 0
M  V30 956 C 89.7378 3.47343 2.98524 0
M  V30 957 N 91.2288 3.47639 3.06107 0
M  V30 958 C 91.9638 4.37837 3.70251 0
M  V30 959 N 91.4598 5.38286 4.36142 0
M  V30 960 N 93.2528 4.25558 3.67228 0
M  V30 961 H 85.4038 2.07236 0.465499 0
M  V30 962 H 87.6668 0.909236 0.268315 0
M  V30 963 H 87.3728 3.15771 1.54861 0
M  V30 964 H 87.2468 2.23698 3.03709 0
M  V30 965 H 89.6338 1.33078 2.6339 0
M  V30 966 H 89.7148 2.28645 1.14696 0
M  V30 967 H 89.3588 4.41029 2.51905 0
M  V30 968 H 89.2888 3.42393 4.00093 0
M  V30 969 H 91.7798 2.74966 2.59233 0
M  V30 970 H 92.0928 6.03352 4.82894 0
M  V30 971 H 90.4378 5.42176 4.34822 0
M  V30 972 H 93.6288 3.46322 3.14927 0
M  V30 973 H 93.8018 4.96054 4.16935 0
M  V30 974 N 87.2079 -1.17134 1.05439 0
M  V30 975 C 88.1409 -2.2012 0.601855 0
M  V30 976 C 89.1189 -1.58314 -0.370854 0
M  V30 977 O 90.3029 -1.8638 -0.281882 0
M  V30 978 C 87.4299 -3.38491 -0.118868 0
M  V30 979 C 86.4759 -4.18752 0.809242 0
M  V30 980 S 87.3089 -4.83602 2.29977 0
M  V30 981 C 88.4649 -6.0536 1.59029 0
M  V30 982 H 88.6979 -2.58165 1.47438 0
M  V30 983 H 86.2309 -1.27788 0.866573 0
M  V30 984 H 88.1889 -4.07084 -0.528495 0
M  V30 985 H 86.8499 -2.98829 -0.967465 0
M  V30 986 H 86.0429 -5.03373 0.251379 0
M  V30 987 H 85.6449 -3.5561 1.15835 0
M  V30 988 H 87.9369 -6.71615 0.891017 0
M  V30 989 H 88.8799 -6.65679 2.41407 0
M  V30 990 H 89.2879 -5.54138 1.07663 0
M  V30 991 N 88.686 -0.835752 -1.33615 0
M  V30 992 C 89.911 -0.442389 -2.02627 0
M  V30 993 C 90.336 0.947735 -1.62479 0
M  V30 994 O 89.694 1.61907 -0.815826 0
M  V30 995 C 89.742 -0.567216 -3.56111 0
M  V30 996 O 88.846 0.407799 -4.10379 0
M  V30 997 H 88.187 -0.180278 -0.639059 0
M  V30 998 H 90.717 -1.12972 -1.70583 0
M  V30 999 H 90.727 -0.447708 -4.05536 0
M  V30 1000 H 89.402 -1.58103 -3.84677 0
M  V30 1001 H 87.979 0.246107 -3.72087 0
M  V30 1002 N 90.1641 1.46063 -0.591896 0
M  V30 1003 C 91.4101 2.02638 -0.0811191 0
M  V30 1004 C 91.7431 1.4613 1.27905 0
M  V30 1005 O 91.0181 0.629908 1.84017 0
M  V30 1006 C 91.3011 3.60091 -0.0252436 0
M  V30 1007 C 91.1541 4.26965 -1.41496 0
M  V30 1008 C 92.4731 4.3496 0.670685 0
M  V30 1009 H 89.5921 0.73635 -0.0309524 0
M  V30 1010 H 92.2341 1.741 -0.760859 0
M  V30 1011 H 90.3841 3.84535 0.553624 0
M  V30 1012 H 92.0561 4.13756 -2.0397 0
M  V30 1013 H 90.2991 3.85971 -1.98011 0
M  V30 1014 H 90.9701 5.35781 -1.32825 0
M  V30 1015 H 93.4461 4.15716 0.178825 0
M  V30 1016 H 92.3221 5.44686 0.678837 0
M  V30 1017 H 92.5831 4.06685 1.73379 0
M  V30 1018 N 91.6422 0.330177 1.54103 0
M  V30 1019 C 92.5722 -0.525353 2.27513 0
M  V30 1020 C 93.5532 -1.11383 1.2856 0
M  V30 1021 O 94.7382 -1.13773 1.57383 0
M  V30 1022 C 91.8682 -1.6831 3.03791 0
M  V30 1023 C 90.8222 -1.2236 4.10137 0
M  V30 1024 C 90.1482 -2.46882 4.74293 0
M  V30 1025 C 91.4482 -0.333697 5.21233 0
M  V30 1026 H 93.1422 0.087013 2.99274 0
M  V30 1027 H 90.6882 0.0432893 1.43935 0
M  V30 1028 H 92.6412 -2.28795 3.5388 0
M  V30 1029 H 91.3652 -2.32216 2.29659 0
M  V30 1030 H 90.0242 -0.64165 3.60941 0
M  V30 1031 H 89.6722 -3.09165 3.96769 0
M  V30 1032 H 89.3722 -2.16825 5.46133 0
M  V30 1033 H 90.8962 -3.08117 5.27159 0
M  V30 1034 H 92.3102 -0.845013 5.67038 0
M  V30 1035 H 90.7072 -0.125612 5.99969 0
M  V30 1036 H 91.7772 0.633724 4.80741 0
M  V30 1037 N 93.1203 -1.57491 0.0584922 0
M  V30 1038 C 94.5363 -1.56792 -0.298091 0
M  V30 1039 C 94.7363 -1.06679 -1.70944 0
M  V30 1040 O 93.7923 -0.726672 -2.41818 0
M  V30 1041 C 95.1053 -3.00461 -0.119879 0
M  V30 1042 C 96.6533 -3.1242 -0.190428 0
M  V30 1043 C 97.1283 -4.57982 -0.0406567 0
M  V30 1044 N 98.6193 -4.63099 -0.0966958 0
M  V30 1045 C 99.3543 -5.734 -0.00502943 0
M  V30 1046 N 98.8503 -6.9266 0.139402 0
M  V30 1047 N 100.643 -5.62067 -0.0611391 0
M  V30 1048 H 92.7943 -1.88386 0.98105 0
M  V30 1049 H 95.0573 -0.867865 0.381463 0
M  V30 1050 H 94.7633 -3.41187 0.85349 0
M  V30 1051 H 94.6373 -3.66843 -0.877833 0
M  V30 1052 H 97.0243 -2.71589 -1.15427 0
M  V30 1053 H 97.1053 -2.48702 0.598405 0
M  V30 1054 H 96.7493 -4.995 0.919897 0
M  V30 1055 H 96.6793 -5.19715 -0.848727 0
M  V30 1056 H 99.1703 -3.77331 -0.207277 0
M  V30 1057 H 99.4833 -7.72536 0.201855 0
M  V30 1058 H 97.8283 -6.94781 0.174586 0
M  V30 1059 H 101.019 -4.67782 -0.172583 0
M  V30 1060 H 101.192 -6.47999 0.0137562 0
M  V30 1061 N 94.5984 0.214957 -1.56127 0
M  V30 1062 C 95.8234 0.95924 -1.83884 0
M  V30 1063 C 96.2484 1.7689 -0.639644 0
M  V30 1064 O 95.6064 1.76566 0.411601 0
M  V30 1065 C 95.6544 1.84723 -3.09693 0
M  V30 1066 O 94.7584 2.94346 -2.8885 0
M  V30 1067 H 94.0994 0.27125 -0.606069 0
M  V30 1068 H 96.6294 0.226276 -2.03345 0
M  V30 1069 H 96.6394 2.25576 -3.39969 0
M  V30 1070 H 95.3144 1.25218 -3.96602 0
M  V30 1071 H 93.8914 2.57391 -2.69823 0
M  V30 1072 N 96.0765 1.50051 0.48192 0
M  V30 1073 C 97.0395 1.67584 1.5636 0
M  V30 1074 C 98.0395 0.546894 1.51214 0
M  V30 1075 O 99.2295 0.813725 1.54026 0
M  V30 1076 C 96.3615 1.691 2.96003 0
M  V30 1077 H 97.5545 2.64078 1.42136 0
M  V30 1078 H 95.1075 1.39369 0.707533 0
M  V30 1079 H 95.8425 0.742589 3.15684 0
M  V30 1080 H 95.6275 2.51105 3.01146 0
M  V30 1081 H 97.1175 1.84656 3.74556 0
M  V30 1082 N 97.5546 -0.734337 1.39446 0
M  V30 1083 C 98.4646 -1.87879 1.40495 0
M  V30 1084 C 99.4806 -1.714 0.299672 0
M  V30 1085 O 100.657 -1.93991 0.541249 0
M  V30 1086 C 97.7216 -3.23477 1.24754 0
M  V30 1087 C 96.7826 -3.52344 2.45259 0
M  V30 1088 C 96.0156 -4.81473 2.30259 0
M  V30 1089 O 96.2386 -5.55237 1.30643 0
M  V30 1090 O 95.1726 -5.10254 3.19256 0
M  V30 1091 H 98.9986 -1.89949 2.36966 0
M  V30 1092 H 96.5836 -0.882243 1.20569 0
M  V30 1093 H 98.4656 -4.04509 1.18111 0
M  V30 1094 H 97.1406 -3.22176 0.313781 0
M  V30 1095 H 96.0476 -2.71396 2.57478 0
M  V30 1096 H 97.3806 -3.58426 3.37331 0
M  V30 1097 N 99.0327 -1.24633 -0.964593 0
M  V30 1098 C 100.261 -1.11501 -1.74285 0
M  V30 1099 C 100.676 0.332165 -1.85855 0
M  V30 1100 O 100.033 1.22903 -1.34911 0
M  V30 1101 C 100.084 -1.75258 -3.16175 0
M  V30 1102 O 99.8047 -3.14318 -3.05182 0
M  V30 1103 C 101.306 -1.67776 -4.10324 0
M  V30 1104 H 98.5257 -0.389407 -0.546446 0
M  V30 1105 H 101.07 -1.64801 -1.21083 0
M  V30 1106 H 99.2247 -1.25954 -3.66353 0
M  V30 1107 H 99.6387 -3.4551 -3.94618 0
M  V30 1108 H 101.113 -2.17064 -5.0753 0
M  V30 1109 H 101.59 -0.639584 -4.34518 0
M  V30 1110 H 102.196 -2.16522 -3.66058 0
M  V30 1111 N 100.511 1.16574 -1.06058 0
M  V30 1112 C 101.444 2.19798 -0.61352 0
M  V30 1113 C 102.422 1.58509 0.362453 0
M  V30 1114 O 103.606 1.86527 0.271994 0
M  V30 1115 C 100.733 3.3855 0.100915 0
M  V30 1116 C 99.7788 4.18317 -0.831438 0
M  V30 1117 S 100.612 4.82375 -2.32539 0
M  V30 1118 C 101.768 6.04508 -1.62238 0
M  V30 1119 H 102.001 2.5738 -1.48805 0
M  V30 1120 H 99.5338 1.27327 -0.873338 0
M  V30 1121 H 101.492 4.07358 0.506898 0
M  V30 1122 H 100.153 2.99338 0.951604 0
M  V30 1123 H 99.3458 5.03232 -0.278071 0
M  V30 1124 H 98.9478 3.5499 -1.17719 0
M  V30 1125 H 101.24 6.71133 -0.926622 0
M  V30 1126 H 102.183 6.64389 -2.44934 0
M  V30 1127 H 102.591 5.53559 -1.106 0
M  V30 1128 N 101.989 0.842826 1.3317 0
M  V30 1129 C 102.921 0.236245 2.27979 0
M  V30 1130 C 103.934 -0.585282 1.51915 0
M  V30 1131 O 105.123 -0.411705 1.73687 0
M  V30 1132 C 102.223 -0.685717 3.3189 0
M  V30 1133 C 101.396 0.0973448 4.37292 0
M  V30 1134 C 100.455 -0.748565 5.20848 0
M  V30 1135 O 99.4809 -0.186339 5.68895 0
M  V30 1136 N 100.683 -2.06527 5.42519 0
M  V30 1137 H 103.448 1.05088 2.80672 0
M  V30 1138 H 101.009 0.701667 1.45905 0
M  V30 1139 H 103.001 -1.25669 3.84694 0
M  V30 1140 H 101.571 -1.40105 2.79445 0
M  V30 1141 H 100.791 0.849706 3.84933 0
M  V30 1142 H 102.079 0.635643 5.04814 0
M  V30 1143 H 101.477 -2.54554 5.05192 0
M  V30 1144 H 100.034 -2.58464 5.98364 0
M  V30 1145 N 103.467 -1.45747 0.599634 0
M  V30 1146 C 104.692 -2.07178 0.0960198 0
M  V30 1147 C 105.117 -1.44268 -1.207 0
M  V30 1148 O 104.475 -0.532503 -1.73303 0
M  V30 1149 C 104.523 -3.60579 -0.0385348 0
M  V30 1150 O 103.627 -3.97713 -1.0908 0
M  V30 1151 H 102.968 -0.660251 0.0704593 0
M  V30 1152 H 105.498 -1.87124 0.827385 0
M  V30 1153 H 105.508 -4.07298 -0.239304 0
M  V30 1154 H 104.183 -4.05756 0.912947 0
M  V30 1155 H 102.76 -3.62678 -0.867135 0
M  V30 1156 N 104.945 -0.338344 -1.53925 0
M  V30 1157 C 105.908 0.508299 -2.23493 0
M  V30 1158 C 106.908 1.03175 -1.23335 0
M  V30 1159 O 108.098 0.921826 -1.47811 0
M  V30 1160 C 105.23 1.70754 -2.95052 0
M  V30 1161 H 106.423 -0.100058 -2.99733 0
M  V30 1162 H 103.976 -0.0896198 -1.56043 0
M  V30 1163 H 104.711 2.35474 -2.22986 0
M  V30 1164 H 104.496 1.33946 -3.68512 0
M  V30 1165 H 105.986 2.30818 -3.48013 0
M  V30 1166 N 106.423 1.57458 -0.0668435 0
M  V30 1167 C 107.353 2.15468 0.899764 0
M  V30 1168 C 108.334 1.08042 1.31381 0
M  V30 1169 O 109.519 1.36054 1.38574 0
M  V30 1170 C 106.649 2.71232 2.16911 0
M  V30 1171 C 105.603 3.83781 1.89463 0
M  V30 1172 C 104.929 4.26127 3.22986 0
M  V30 1173 C 106.229 5.08238 1.20381 0
M  V30 1174 H 107.923 2.96488 0.416529 0
M  V30 1175 H 105.469 1.4262 0.198908 0
M  V30 1176 H 107.422 3.10458 2.84945 0
M  V30 1177 H 106.146 1.87426 2.67468 0
M  V30 1178 H 104.805 3.45051 1.23836 0
M  V30 1179 H 104.453 3.39249 3.71374 0
M  V30 1180 H 104.153 5.01993 3.05413 0
M  V30 1181 H 105.677 4.67966 3.92225 0
M  V30 1182 H 107.091 5.44811 1.78475 0
M  V30 1183 H 105.488 5.89349 1.13083 0
M  V30 1184 H 106.558 4.84558 0.182153 0
M  V30 1185 N 107.901 -0.206675 1.56239 0
M  V30 1186 C 108.864 -1.23976 1.92776 0
M  V30 1187 C 109.864 -1.39041 0.807729 0
M  V30 1188 O 111.054 -1.37051 1.0753 0
M  V30 1189 C 108.186 -2.61112 2.19165 0
M  V30 1190 H 109.379 -0.927764 2.85189 0
M  V30 1191 H 106.932 -0.447718 1.4975 0
M  V30 1192 H 107.667 -2.97386 1.29352 0
M  V30 1193 H 107.452 -2.51552 3.00772 0
M  V30 1194 H 108.942 -3.35633 2.48476 0
M  V30 1195 N 109.379 -1.50304 -0.473955 0
M  V30 1196 C 110.342 -1.6841 -1.55469 0
M  V30 1197 C 111.342 -0.554905 -1.50922 0
M  V30 1198 O 112.532 -0.821882 -1.53593 0
M  V30 1199 C 109.664 -1.70667 -2.95102 0
M  V30 1200 H 110.857 -2.64828 -1.40733 0
M  V30 1201 H 108.41 -1.39742 -0.700132 0
M  V30 1202 H 109.145 -0.75932 -3.15285 0
M  V30 1203 H 108.93 -2.52698 -2.9981 0
M  V30 1204 H 110.42 -1.8664 -3.73571 0
M  V30 1205 N 110.857 0.726932 -1.39834 0
M  V30 1206 C 111.79 1.8501 -1.33592 0
M  V30 1207 C 112.768 1.61262 -0.208191 0
M  V30 1208 O 113.952 1.84422 -0.389981 0
M  V30 1209 C 111.079 3.21143 -1.07633 0
M  V30 1210 C 110.125 3.63737 -2.22705 0
M  V30 1211 S 110.958 3.72167 -3.85035 0
M  V30 1212 C 112.114 5.11077 -3.61318 0
M  V30 1213 H 112.347 1.90022 -2.28646 0
M  V30 1214 H 109.88 0.892595 -1.25985 0
M  V30 1215 H 111.838 3.99747 -0.933415 0
M  V30 1216 H 110.499 3.13776 -0.142526 0
M  V30 1217 H 109.692 4.62551 -2.00155 0
M  V30 1218 H 109.294 2.9236 -2.33242 0
M  V30 1219 H 111.586 5.97656 -3.19083 0
M  V30 1220 H 112.529 5.38658 -4.59623 0
M  V30 1221 H 112.937 4.81135 -2.95245 0
M  V30 1222 N 112.336 1.25143 0.95797 0
M  V30 1223 C 113.268 1.01023 2.05735 0
M  V30 1224 C 114.281 -0.0236902 1.62783 0
M  V30 1225 O 115.47 0.21448 1.77207 0
M  V30 1226 C 112.57 0.504595 3.35122 0
M  V30 1227 C 111.743 1.6039 4.06932 0
M  V30 1228 C 110.802 1.09922 5.14591 0
M  V30 1229 O 109.828 1.79293 5.40225 0
M  V30 1230 N 111.03 -0.0612545 5.80468 0
M  V30 1231 H 113.795 1.95683 2.26998 0
M  V30 1232 H 111.356 1.16303 1.12629 0
M  V30 1233 H 113.348 0.151516 4.04416 0
M  V30 1234 H 111.918 -0.347989 3.10657 0
M  V30 1235 H 111.138 2.12872 3.31782 0
M  V30 1236 H 112.426 2.34252 4.51667 0
M  V30 1237 H 111.824 -0.640985 5.62057 0
M  V30 1238 H 110.381 -0.355395 6.5083 0
M  V30 1239 N 113.814 -1.1601 1.06675 0
M  V30 1240 C 114.746 -2.20115 0.638921 0
M  V30 1241 C 115.759 -1.59916 -0.305057 0
M  V30 1242 O 116.948 -1.78245 -0.0954446 0
M  V30 1243 C 114.048 -3.38798 -0.0830083 0
M  V30 1244 C 113.221 -4.2855 0.875426 0
M  V30 1245 C 112.28 -5.25849 0.192042 0
M  V30 1246 O 111.306 -5.63102 0.830921 0
M  V30 1247 N 112.508 -5.70648 -1.06493 0
M  V30 1248 H 115.273 -2.57439 1.53444 0
M  V30 1249 H 112.834 -1.31057 0.950557 0
M  V30 1250 H 114.826 -4.00936 -0.550685 0
M  V30 1251 H 113.396 -2.99947 -0.880386 0
M  V30 1252 H 112.616 -3.63617 1.52238 0
M  V30 1253 H 113.904 -4.85393 1.52548 0
M  V30 1254 H 113.302 -5.42482 -1.60405 0
M  V30 1255 H 111.859 -6.34859 -1.47641 0
M  V30 1256 N 115.292 -0.849877 -1.32721 0
M  V30 1257 C 116.539 -0.450923 -1.97416 0
M  V30 1258 C 116.867 0.992376 -1.67279 0
M  V30 1259 O 116.122 1.71048 -0.950845 0
M  V30 1260 C 116.421 -0.631272 -3.51781 0
M  V30 1261 C 116.087 -2.04432 -4.01894 0
M  V30 1262 C 114.749 -2.4308 -4.1529 0
M  V30 1263 C 117.101 -2.96679 -4.28522 0
M  V30 1264 C 114.429 -3.73257 -4.52654 0
M  V30 1265 C 116.781 -4.26349 -4.67343 0
M  V30 1266 C 115.445 -4.64939 -4.78945 0
M  V30 1267 H 114.715 -0.165004 -0.722395 0
M  V30 1268 H 117.362 -1.07901 -1.58207 0
M  V30 1269 H 115.667 0.0800767 -3.91718 0
M  V30 1270 H 117.364 -0.302709 -3.99856 0
M  V30 1271 H 113.954 -1.73419 -3.91949 0
M  V30 1272 H 118.138 -2.68054 -4.17685 0
M  V30 1273 H 113.394 -4.02946 -4.59831 0
M  V30 1274 H 117.568 -4.97895 -4.86902 0
M  V30 1275 H 115.195 -5.65855 -5.07654 0
M  V30 1276 N 116.77 1.45427 -0.607355 0
M  V30 1277 C 118 2.06314 -0.108656 0
M  V30 1278 C 118.408 1.45269 1.21217 0
M  V30 1279 O 117.751 0.561115 1.74921 0
M  V30 1280 C 117.813 3.59345 0.105618 0
M  V30 1281 C 117.477 4.42723 -1.13337 0
M  V30 1282 C 118.474 4.77715 -2.05145 0
M  V30 1283 C 116.159 4.83478 -1.36213 0
M  V30 1284 C 118.153 5.52317 -3.18158 0
M  V30 1285 C 115.84 5.57835 -2.49527 0
M  V30 1286 C 116.838 5.92171 -3.40327 0
M  V30 1287 O 116.526 6.65019 -4.51669 0
M  V30 1288 H 116.258 0.672782 -0.0658842 0
M  V30 1289 H 118.812 1.87664 -0.834945 0
M  V30 1290 H 117.042 3.76394 0.886796 0
M  V30 1291 H 118.731 4.02076 0.555886 0
M  V30 1292 H 119.497 4.46787 -1.88697 0
M  V30 1293 H 115.376 4.56188 -0.664362 0
M  V30 1294 H 118.92 5.79036 -3.89054 0
M  V30 1295 H 114.817 5.88177 -2.65928 0
M  V30 1296 H 115.585 6.83469 -4.50348 0
M  V30 1297 N 118.248 0.346503 1.53744 0
M  V30 1298 C 119.496 -0.248612 2.00565 0
M  V30 1299 C 119.817 -1.5083 1.23593 0
M  V30 1300 O 119.087 -1.92858 0.343912 0
M  V30 1301 H 117.667 -0.0948564 0.740953 0
M  V30 1302 H 120.329 0.468341 1.89189 0
M  V30 1303 H 119.425 -0.488994 3.08245 0
M  V30 1304 N 119.726 -1.57421 0.075193 0
M  V30 1305 C 120.975 -1.92794 -0.592731 0
M  V30 1306 C 121.288 -0.957478 -1.70563 0
M  V30 1307 O 122.494 -1.20417 -2.43335 0
M  V30 1308 C 120.95 -3.42495 -1.10569 0
M  V30 1309 C 120.558 -4.47994 -0.0236121 0
M  V30 1310 C 122.302 -3.86864 -1.74748 0
M  V30 1311 C 120.209 -5.88829 -0.550803 0
M  V30 1312 H 119.139 -0.719591 -0.225177 0
M  V30 1313 H 121.79 -1.82902 0.147978 0
M  V30 1314 H 120.172 -3.47471 -1.89947 0
M  V30 1315 H 121.346 -4.54637 0.751099 0
M  V30 1316 H 119.661 -4.13113 0.522159 0
M  V30 1317 H 122.258 -4.8947 -2.15229 0
M  V30 1318 H 122.601 -3.24417 -2.60882 0
M  V30 1319 H 123.134 -3.84504 -1.01986 0
M  V30 1320 H 119.873 -6.54929 0.273457 0
M  V30 1321 H 119.393 -5.85698 -1.29296 0
M  V30 1322 H 121.072 -6.38811 -1.02613 0
M  V30 1323 N 121.204 0.198386 -1.56346 0
M  V30 1324 C 122.152 1.26538 -1.95169 0
M  V30 1325 C 123.146 1.47295 -0.836685 0
M  V30 1326 O 124.352 1.48195 -1.02167 0
M  V30 1327 H 120.727 0.424744 -0.620561 0
M  V30 1328 H 122.698 0.910904 -2.84157 0
M  V30 1329 C 121.447 2.6035 -2.30463 0
M  V30 1330 H 120.77 2.45192 -3.15786 0
M  V30 1331 H 122.21 3.33762 -2.61494 0
M  V30 1332 C 120.669 3.17096 -1.13806 0
M  V30 1333 O 121.199 3.99588 -0.41135 0
M  V30 1334 N 119.405 2.75795 -0.915736 0
M  V30 1335 H 118.952 2.08816 -1.50843 0
M  V30 1336 H 118.91 3.14101 -0.136979 0
M  V30 1337 N 122.682 1.50554 0.465978 0
M  V30 1338 C 123.615 1.64436 1.58227 0
M  V30 1339 C 124.593 0.492367 1.54966 0
M  V30 1340 O 125.777 0.712536 1.74514 0
M  V30 1341 C 122.904 1.63165 2.96808 0
M  V30 1342 C 121.95 2.83987 3.18204 0
M  V30 1343 S 122.783 4.45219 2.97557 0
M  V30 1344 C 123.939 4.46649 4.3847 0
M  V30 1345 H 124.172 2.58861 1.46213 0
M  V30 1346 H 121.705 1.3988 0.653678 0
M  V30 1347 H 123.663 1.63116 3.76701 0
M  V30 1348 H 122.324 0.69967 3.06208 0
M  V30 1349 H 121.517 2.79416 4.19455 0
M  V30 1350 H 121.119 2.81629 2.46092 0
M  V30 1351 H 123.411 4.20526 5.31191 0
M  V30 1352 H 124.354 5.48295 4.48082 0
M  V30 1353 H 124.762 3.76296 4.20787 0
M  V30 1354 N 124.16 -0.719506 1.40217 0
M  V30 1355 C 125.388 -1.50864 1.41589 0
M  V30 1356 C 125.803 -1.88794 0.0145275 0
M  V30 1357 O 125.16 -1.55174 -0.960594 0
M  V30 1358 C 125.211 -2.78646 2.30302 0
M  V30 1359 O 124.932 -2.42321 3.64983 0
M  V30 1360 C 126.433 -3.72569 2.40224 0
M  V30 1361 H 123.653 -0.465709 0.48307 0
M  V30 1362 H 126.197 -0.88785 1.84221 0
M  V30 1363 H 124.352 -3.37019 1.91042 0
M  V30 1364 H 124.766 -3.24514 4.12057 0
M  V30 1365 H 126.24 -4.5908 3.06512 0
M  V30 1366 H 126.717 -4.15403 1.42608 0
M  V30 1367 H 127.323 -3.20109 2.80019 0
M  V30 1368 N 125.638 -1.25649 -0.95132 0
M  V30 1369 C 126.886 -1.10375 -1.69298 0
M  V30 1370 C 127.207 0.355339 -1.91735 0
M  V30 1371 O 126.477 1.25188 -1.50681 0
M  V30 1372 H 125.057 -0.405461 -0.627384 0
M  V30 1373 H 127.719 -1.57823 -1.14358 0
M  V30 1374 H 126.815 -1.61465 -2.67087 0
M  V30 1375 N 127.117 1.15442 -1.07289 0
M  V30 1376 C 128.064 2.20161 -0.692653 0
M  V30 1377 C 129.034 1.63073 0.31564 0
M  V30 1378 O 130.219 1.89725 0.202235 0
M  V30 1379 C 127.359 3.44967 -0.0959509 0
M  V30 1380 C 126.472 4.16256 -1.15564 0
M  V30 1381 C 125.607 5.28609 -0.524011 0
M  V30 1382 C 124.646 5.91715 -1.56653 0
M  V30 1383 N 123.783 6.9554 -0.957531 0
M  V30 1384 H 128.623 2.52037 -1.59002 0
M  V30 1385 H 126.16 1.2378 -0.794798 0
M  V30 1386 H 128.118 4.16341 0.267628 0
M  V30 1387 H 126.748 3.1361 0.764772 0
M  V30 1388 H 125.8 3.43385 -1.6368 0
M  V30 1389 H 127.112 4.59268 -1.94613 0
M  V30 1390 H 126.266 6.06604 -0.108032 0
M  V30 1391 H 125.005 4.86787 0.29825 0
M  V30 1392 H 124.01 5.12433 -1.9923 0
M  V30 1393 H 125.235 6.35614 -2.39107 0
M  V30 1394 H 123.181 6.55814 -0.156162 0
M  V30 1395 H 123.098 7.36977 -1.68526 0
M  V30 1396 H 124.366 7.77435 -0.567032 0
M  V30 1397 N 128.595 0.856903 1.32268 0
M  V30 1398 C 129.841 0.462069 1.97466 0
M  V30 1399 C 130.174 -0.980298 1.67642 0
M  V30 1400 O 129.449 -1.68824 0.965858 0
M  V30 1401 C 129.732 0.704336 3.53145 0
M  V30 1402 C 129.585 2.19529 3.9259 0
M  V30 1403 C 130.904 0.1622 4.39801 0
M  V30 1404 H 128.023 0.169357 0.717278 0
M  V30 1405 H 130.665 1.07574 1.56614 0
M  V30 1406 H 128.815 0.181999 3.88073 0
M  V30 1407 H 130.487 2.78387 3.67829 0
M  V30 1408 H 128.73 2.67292 3.41668 0
M  V30 1409 H 129.401 2.31549 5.01088 0
M  V30 1410 H 131.877 0.608905 4.11621 0
M  V30 1411 H 130.753 0.361265 5.4771 0
M  V30 1412 H 131.014 -0.935158 4.32096 0
M  V30 1413 N 130.073 -1.45103 0.615059 0
M  V30 1414 C 131.35 -1.95549 0.0448276 0
M  V30 1415 C 131.73 -1.55737 -1.4251 0
M  V30 1416 O 131.078 -0.823556 -2.13143 0
M  V30 1417 C 131.288 -3.48098 0.250785 0
M  V30 1418 C 132.636 -4.24384 0.135509 0
M  V30 1419 O 133.66 -3.55738 0.181299 0
M  V30 1420 O 132.519 -5.46493 0.0268878 0
M  V30 1421 H 129.613 -0.8264 -0.0314845 0
M  V30 1422 H 132.159 -1.55232 0.685642 0
M  V30 1423 H 130.931 -3.7007 1.27139 0
M  V30 1424 H 130.554 -3.95323 -0.424937 0
M  V30 1425 N 131.551 -0.354651 -1.53558 0
M  V30 1426 C 132.967 -0.00315426 -1.596 0
M  V30 1427 C 133.167 1.47741 -1.37021 0
M  V30 1428 O 132.223 2.23759 -1.16996 0
M  V30 1429 C 133.536 -0.44929 -2.97325 0
M  V30 1430 C 135.084 -0.402578 -3.104 0
M  V30 1431 C 135.559 -0.824355 -4.5052 0
M  V30 1432 N 137.05 -0.778979 -4.56603 0
M  V30 1433 C 137.785 -1.07715 -5.63192 0
M  V30 1434 N 137.281 -1.44405 -6.77583 0
M  V30 1435 N 139.074 -1.00066 -5.53121 0
M  V30 1436 H 131.225 -1.31893 -1.66487 0
M  V30 1437 H 133.488 -0.538388 -0.780284 0
M  V30 1438 H 133.194 -1.48202 -3.1895 0
M  V30 1439 H 133.068 0.169772 -3.76818 0
M  V30 1440 H 135.455 0.621004 -2.88492 0
M  V30 1441 H 135.536 -1.05699 -2.32941 0
M  V30 1442 H 135.18 -1.846 -4.73165 0
M  V30 1443 H 135.11 -0.147304 -5.26394 0
M  V30 1444 H 137.601 -0.508528 -3.74463 0
M  V30 1445 H 137.914 -1.65612 -7.54846 0
M  V30 1446 H 136.259 -1.4826 -6.79002 0
M  V30 1447 H 139.45 -0.713293 -4.62633 0
M  V30 1448 H 139.623 -1.23638 -6.36096 0
M  V30 1449 N 133.029 1.57378 -0.0835403 0
M  V30 1450 C 133.977 2.14602 0.89714 0
M  V30 1451 C 134.971 1.08589 1.30018 0
M  V30 1452 O 136.177 1.26952 1.27606 0
M  V30 1453 H 132.552 0.686346 0.3073 0
M  V30 1454 H 134.523 2.95845 0.38969 0
M  V30 1455 C 133.272 2.73188 2.15089 0
M  V30 1456 H 132.595 3.54442 1.84962 0
M  V30 1457 H 134.035 3.1681 2.81793 0
M  V30 1458 C 132.494 1.68517 2.91725 0
M  V30 1459 O 133.024 1.11718 3.85852 0
M  V30 1460 N 131.23 1.39277 2.55049 0
M  V30 1461 H 130.777 1.85655 1.78577 0
M  V30 1462 H 130.735 0.694791 3.06627 0
M  V30 1463 N 134.507 -0.190092 1.56449 0
M  V30 1464 C 135.735 -0.925772 1.85033 0
M  V30 1465 C 136.15 -1.76638 0.666658 0
M  V30 1466 O 135.507 -1.78822 -0.364565 0
M  V30 1467 C 135.558 -1.81786 3.12468 0
M  V30 1468 O 135.279 -1.01118 4.26271 0
M  V30 1469 C 136.78 -2.6648 3.54265 0
M  V30 1470 H 134 -0.269872 0.614337 0
M  V30 1471 H 136.544 -0.195837 2.0356 0
M  V30 1472 H 134.699 -2.50136 2.95822 0
M  V30 1473 H 135.113 -1.61956 4.98869 0
M  V30 1474 H 136.587 -3.24722 4.46385 0
M  V30 1475 H 137.064 -3.40434 2.77491 0
M  V30 1476 H 137.67 -2.03493 3.73458 0
M  V30 1477 N 135.985 -1.50799 -0.457987 0
M  V30 1478 C 137.234 -1.6168 -1.20593 0
M  V30 1479 C 137.547 -0.32888 -1.92815 0
M  V30 1480 O 138.753 -0.316773 -2.69646 0
M  V30 1481 C 137.209 -2.8545 -2.19195 0
M  V30 1482 C 136.817 -4.21168 -1.52715 0
M  V30 1483 C 138.561 -3.05681 -2.94549 0
M  V30 1484 C 136.468 -5.3611 -2.4968 0
M  V30 1485 H 135.398 -0.602134 -0.453818 0
M  V30 1486 H 138.049 -1.77245 -0.475031 0
M  V30 1487 H 136.431 -2.63472 -2.95632 0
M  V30 1488 H 137.605 -4.53449 -0.819775 0
M  V30 1489 H 135.92 -4.06648 -0.895922 0
M  V30 1490 H 138.517 -3.88727 -3.67145 0
M  V30 1491 H 138.86 -2.17929 -3.54701 0
M  V30 1492 H 139.393 -3.27901 -2.25223 0
M  V30 1493 H 136.132 -6.26057 -1.94249 0
M  V30 1494 H 135.652 -5.0823 -3.18532 0
M  V30 1495 H 137.331 -5.6722 -3.11241 0
M  V30 1496 N 137.463 0.71206 -1.40597 0
M  V30 1497 C 138.74 1.46536 -1.29563 0
M  V30 1498 C 139.12 2.10931 0.0844217 0
M  V30 1499 O 138.468 2.00418 1.0975 0
M  V30 1500 C 138.678 2.49821 -2.43701 0
M  V30 1501 C 140.026 3.15551 -2.841 0
M  V30 1502 O 141.05 2.60142 -2.4332 0
M  V30 1503 O 139.909 4.15867 -3.54566 0
M  V30 1504 H 137.003 0.651801 -0.509004 0
M  V30 1505 H 139.549 0.743935 -1.52524 0
M  V30 1506 H 138.321 2.00778 -3.35863 0
M  V30 1507 H 137.944 3.29495 -2.22528 0
M  V30 1508 N 138.941 1.26152 0.944643 0
M  V30 1509 C 140.187 1.12665 1.69346 0
M  V30 1510 C 140.542 -0.3273 1.89596 0
M  V30 1511 O 139.835 -1.23717 1.46303 0
M  V30 1512 C 140.029 1.82541 3.07268 0
M  V30 1513 C 139.858 3.34582 3.00475 0
M  V30 1514 C 138.628 4.03863 3.03681 0
M  V30 1515 C 140.826 4.30828 2.80877 0
M  V30 1516 N 138.808 5.42603 2.87151 0
M  V30 1517 C 140.179 5.5672 2.7288 0
M  V30 1518 C 142.234 4.21122 2.65633 0
M  V30 1519 C 140.937 6.74013 2.51196 0
M  V30 1520 C 142.963 5.38118 2.45323 0
M  V30 1521 C 142.325 6.62955 2.38055 0
M  V30 1522 H 138.424 0.467041 0.627214 0
M  V30 1523 H 141.008 1.59391 1.11815 0
M  V30 1524 H 139.179 1.38296 3.62945 0
M  V30 1525 H 140.911 1.61708 3.70989 0
M  V30 1526 H 137.666 3.55198 3.1326 0
M  V30 1527 H 138.09 6.15443 2.82063 0
M  V30 1528 H 142.732 3.25344 2.70021 0
M  V30 1529 H 140.45 7.6989 2.4555 0
M  V30 1530 H 144.036 5.32475 2.34439 0
M  V30 1531 H 142.916 7.51959 2.22546 0
M  V30 1532 N 140.419 -1.14872 1.07899 0
M  V30 1533 C 141.352 -2.18794 0.64841 0
M  V30 1534 C 142.33 -1.59065 -0.337189 0
M  V30 1535 O 143.514 -1.86936 -0.242284 0
M  V30 1536 C 140.641 -3.38667 -0.0470417 0
M  V30 1537 C 139.687 -4.16942 0.897884 0
M  V30 1538 S 140.52 -4.78615 2.40183 0
M  V30 1539 C 141.676 -6.0185 1.71834 0
M  V30 1540 H 141.909 -2.5498 1.52881 0
M  V30 1541 H 139.442 -1.25922 0.893484 0
M  V30 1542 H 141.4 -4.08113 -0.442027 0
M  V30 1543 H 140.061 -3.00814 -0.903861 0
M  V30 1544 H 139.254 -5.02726 0.358096 0
M  V30 1545 H 138.856 -3.53073 1.23352 0
M  V30 1546 H 141.148 -6.69574 1.03328 0
M  V30 1547 H 142.091 -6.60408 2.55473 0
M  V30 1548 H 142.499 -5.5173 1.19392 0
M  V30 1549 N 141.898 -0.863906 -1.31812 0
M  V30 1550 C 142.845 -0.313303 -2.28664 0
M  V30 1551 C 143.815 0.584868 -1.55462 0
M  V30 1552 O 145 0.517805 -1.83639 0
M  V30 1553 C 142.14 0.48441 -3.41683 0
M  V30 1554 C 141.253 -0.440594 -4.29747 0
M  V30 1555 C 140.388 0.370652 -5.29905 0
M  V30 1556 C 139.427 -0.551164 -6.09613 0
M  V30 1557 N 138.564 0.223462 -7.01744 0
M  V30 1558 H 143.404 -1.14444 -2.75148 0
M  V30 1559 H 140.941 -0.575769 -1.35364 0
M  V30 1560 H 142.899 0.962627 -4.05943 0
M  V30 1561 H 141.529 1.28029 -2.96325 0
M  V30 1562 H 140.581 -1.03724 -3.65986 0
M  V30 1563 H 141.893 -1.14767 -4.85417 0
M  V30 1564 H 141.047 0.911638 -5.99812 0
M  V30 1565 H 139.786 1.11105 -4.74876 0
M  V30 1566 H 138.791 -1.10396 -5.38603 0
M  V30 1567 H 140.016 -1.29032 -6.66729 0
M  V30 1568 H 137.962 0.946787 -6.49132 0
M  V30 1569 H 137.879 -0.424399 -7.54808 0
M  V30 1570 H 139.147 0.745876 -7.75923 0
M  V30 1571 N 143.376 1.44774 -0.622745 0
M  V30 1572 C 144.323 2.30635 0.0871679 0
M  V30 1573 C 145.293 1.42994 0.845097 0
M  V30 1574 O 146.478 1.71907 0.827812 0
M  V30 1575 C 143.618 3.28144 1.06844 0
M  V30 1576 C 142.731 4.30888 0.309809 0
M  V30 1577 C 141.866 5.15494 1.28215 0
M  V30 1578 C 140.905 6.09953 0.512198 0
M  V30 1579 N 140.042 6.87287 1.43458 0
M  V30 1580 H 144.882 2.90803 -0.650974 0
M  V30 1581 H 142.419 1.43286 -0.33281 0
M  V30 1582 H 144.377 3.83157 1.65066 0
M  V30 1583 H 143.007 2.69695 1.77382 0
M  V30 1584 H 142.059 3.78414 -0.388181 0
M  V30 1585 H 143.371 4.97955 -0.290254 0
M  V30 1586 H 142.525 5.74983 1.93596 0
M  V30 1587 H 141.264 4.48481 1.91614 0
M  V30 1588 H 140.269 5.49581 -0.155151 0
M  V30 1589 H 141.494 6.78999 -0.116958 0
M  V30 1590 H 139.44 6.2295 2.05594 0
M  V30 1591 H 139.357 7.50763 0.888335 0
M  V30 1592 H 140.625 7.51306 2.07749 0
M  V30 1593 N 144.854 0.36279 1.53368 0
M  V30 1594 C 146.265 -0.117022 1.86333 0
M  V30 1595 C 146.616 -1.48397 1.28347 0
M  V30 1596 O 145.741 -2.07787 0.604428 0
M  V30 1597 C 146.336 -0.21912 3.38091 0
M  V30 1598 C 144.895 -0.643184 3.70864 0
M  V30 1599 C 144.042 0.211318 2.76494 0
M  V30 1600 H 146.993 0.581687 1.47655 0
M  V30 1601 H 147.014 -1.04319 3.6592 0
M  V30 1602 H 146.526 0.775902 3.80265 0
M  V30 1603 H 144.627 -1.64654 3.34245 0
M  V30 1604 H 144.74 -0.41973 4.77258 0
M  V30 1605 H 143.104 -0.319367 2.5269 0
M  V30 1606 H 143.887 1.20383 3.21501 0
M  V30 1607 N 146.332 -1.57332 0.0918853 0
M  V30 1608 C 147.748 -1.57389 -0.264766 0
M  V30 1609 C 147.948 -1.10281 -1.68643 0
M  V30 1610 O 147.004 -0.777801 -2.40222 0
M  V30 1611 C 148.317 -3.00648 -0.0561195 0
M  V30 1612 C 149.865 -3.12754 -0.124116 0
M  V30 1613 C 150.34 -4.57965 0.0564972 0
M  V30 1614 N 151.831 -4.632 0.00155611 0
M  V30 1615 C 152.566 -5.73281 0.116598 0
M  V30 1616 N 152.062 -6.92208 0.286294 0
M  V30 1617 N 153.855 -5.6207 0.0580973 0
M  V30 1618 H 146.006 -1.86262 1.02079 0
M  V30 1619 H 148.269 -0.859579 0.399786 0
M  V30 1620 H 147.975 -3.393 0.925669 0
M  V30 1621 H 147.849 -3.68623 -0.799823 0
M  V30 1622 H 150.236 -2.73976 -1.09641 0
M  V30 1623 H 150.317 -2.47377 0.651024 0
M  V30 1624 H 149.961 -4.97436 1.02564 0
M  V30 1625 H 149.891 -5.21399 -0.738297 0
M  V30 1626 H 152.382 -3.77686 -0.127192 0
M  V30 1627 H 152.695 -7.71934 0.365676 0
M  V30 1628 H 151.04 -6.94254 0.32192 0
M  V30 1629 H 154.231 -4.68043 -0.0733204 0
M  V30 1630 H 154.404 -6.47824 0.151203 0
M  V30 1631 N 147.81 0.181792 -1.56548 0
M  V30 1632 C 149.05 0.906711 -1.83189 0
M  V30 1633 C 149.414 1.79882 -0.671312 0
M  V30 1634 O 150.615 2.56054 -0.81792 0
M  V30 1635 C 148.886 1.69023 -3.14906 0
M  V30 1636 S 150.445 2.46535 -3.62996 0
M  V30 1637 H 147.263 0.303877 -0.642791 0
M  V30 1638 H 149.865 0.169107 -1.94767 0
M  V30 1639 H 148.569 1.02571 -3.97376 0
M  V30 1640 H 148.1 2.46941 -3.06241 0
M  V30 1641 H 150.115 3.71014 -3.29489 0
M  V30 1642 N 149.288 1.51039 0.449983 0
M  V30 1643 C 150.536 1.62759 1.19808 0
M  V30 1644 C 150.857 0.339981 1.92013 0
M  V30 1645 O 150.127 -0.643606 1.85026 0
M  V30 1646 H 148.707 0.599811 0.445237 0
M  V30 1647 H 151.369 1.87914 0.517138 0
M  V30 1648 H 150.465 2.44911 1.93455 0
M  V30 1649 N 150.766 -0.704594 1.40972 0
M  V30 1650 C 152.012 -1.46675 1.40051 0
M  V30 1651 C 152.345 -1.94199 0.00641102 0
M  V30 1652 O 151.62 -1.68916 -0.964235 0
M  V30 1653 C 151.903 -2.68505 2.39952 0
M  V30 1654 C 151.756 -2.26805 3.88432 0
M  V30 1655 C 153.075 -3.70686 2.37233 0
M  V30 1656 H 150.194 -0.532015 0.510028 0
M  V30 1657 H 152.836 -0.803255 1.72185 0
M  V30 1658 H 150.986 -3.25114 2.1268 0
M  V30 1659 H 152.658 -1.75592 4.26574 0
M  V30 1660 H 150.901 -1.58685 4.03734 0
M  V30 1661 H 151.572 -3.14181 4.53866 0
M  V30 1662 H 154.048 -3.23731 2.61415 0
M  V30 1663 H 152.924 -4.53553 3.09162 0
M  V30 1664 H 153.185 -4.19754 1.38777 0
M  V30 1665 N 152.244 -1.26651 -0.937939 0
M  V30 1666 C 153.655 -1.1125 -1.49934 0
M  V30 1667 C 154.006 0.306077 -1.93798 0
M  V30 1668 O 153.131 1.19792 -1.80219 0
M  V30 1669 C 153.726 -2.01339 -2.72485 0
M  V30 1670 C 152.285 -1.90074 -3.24883 0
M  V30 1671 C 151.432 -1.94498 -1.97651 0
M  V30 1672 H 154.383 -1.39693 -0.753091 0
M  V30 1673 H 154.404 -1.56319 -3.46907 0
M  V30 1674 H 153.916 -3.04577 -2.40529 0
M  V30 1675 H 152.017 -0.897827 -3.61621 0
M  V30 1676 H 152.13 -2.75778 -3.9177 0
M  V30 1677 H 150.494 -1.38591 -2.13693 0
M  V30 1678 H 151.277 -2.99372 -1.68022 0
M  V30 1679 N 153.722 1.14298 -1.08507 0
M  V30 1680 C 154.999 1.81544 -0.728088 0
M  V30 1681 C 155.379 1.95838 0.78808 0
M  V30 1682 O 154.727 1.51904 1.70697 0
M  V30 1683 C 154.937 3.17169 -1.45619 0
M  V30 1684 C 156.285 3.9265 -1.61591 0
M  V30 1685 O 157.309 3.26762 -1.41793 0
M  V30 1686 O 156.168 5.10807 -1.94263 0
M  V30 1687 H 153.262 0.78491 -0.260471 0
M  V30 1688 H 155.808 1.21307 -1.18671 0
M  V30 1689 H 154.58 3.01934 -2.489 0
M  V30 1690 H 154.203 3.851 -0.989124 0
M  V30 1691 N 155.201 0.870884 1.31352 0
M  V30 1692 C 156.133 0.28455 2.27427 0
M  V30 1693 C 157.146 -0.552927 1.53123 0
M  V30 1694 O 158.335 -0.374771 1.74521 0
M  V30 1695 C 155.435 -0.615164 3.3327 0
M  V30 1696 C 154.608 0.190079 4.36987 0
M  V30 1697 C 153.667 -0.637917 5.22319 0
M  V30 1698 O 152.693 -0.065626 5.69162 0
M  V30 1699 N 153.895 -1.94973 5.46778 0
M  V30 1700 H 156.66 1.11017 2.7838 0
M  V30 1701 H 154.221 0.732458 1.44384 0
M  V30 1702 H 156.213 -1.1748 3.87273 0
M  V30 1703 H 154.783 -1.34146 2.82354 0
M  V30 1704 H 154.003 0.931165 3.83044 0
M  V30 1705 H 155.291 0.742579 5.03352 0
M  V30 1706 H 154.689 -2.4378 5.10478 0
M  V30 1707 H 153.246 -2.45713 6.03712 0
M  V30 1708 N 156.679 -1.44442 0.630414 0
M  V30 1709 C 157.907 -2.06414 0.141671 0
M  V30 1710 C 158.322 -1.47105 -1.18345 0
M  V30 1711 O 157.679 -0.593662 -1.72574 0
M  V30 1712 C 157.73 -3.61494 0.0199784 0
M  V30 1713 O 157.451 -4.18594 1.29269 0
M  V30 1714 C 158.952 -4.40499 -0.497544 0
M  V30 1715 H 156.172 -0.666292 0.0793452 0
M  V30 1716 H 158.716 -1.85323 0.864614 0
M  V30 1717 H 156.871 -3.8185 -0.653402 0
M  V30 1718 H 157.285 -5.12026 1.13707 0
M  V30 1719 H 158.759 -5.49433 -0.531708 0
M  V30 1720 H 159.236 -4.11895 -1.52445 0
M  V30 1721 H 159.842 -4.25061 0.142562 0
M  V30 1722 N 158.157 -0.370918 -1.53173 0
M  V30 1723 C 159.573 -0.0200818 -1.59587 0
M  V30 1724 C 159.773 1.46279 -1.38581 0
M  V30 1725 O 158.829 2.22506 -1.19363 0
M  V30 1726 C 160.142 -0.4808 -2.96831 0
M  V30 1727 C 161.69 -0.435477 -3.09956 0
M  V30 1728 C 162.165 -0.872092 -4.4962 0
M  V30 1729 N 163.656 -0.827364 -4.55751 0
M  V30 1730 C 164.391 -1.13683 -5.62018 0
M  V30 1731 N 163.887 -1.51584 -6.76014 0
M  V30 1732 N 165.68 -1.05927 -5.52029 0
M  V30 1733 H 157.831 -1.33652 -1.65079 0
M  V30 1734 H 160.094 -0.546634 -0.774529 0
M  V30 1735 H 159.8 -1.51577 -3.1736 0
M  V30 1736 H 159.674 0.129796 -3.76977 0
M  V30 1737 H 162.061 0.590371 -2.89134 0
M  V30 1738 H 162.142 -1.08164 -2.31806 0
M  V30 1739 H 161.786 -1.89608 -4.71181 0
M  V30 1740 H 161.716 -0.203127 -5.26208 0
M  V30 1741 H 164.207 -0.548216 -3.73902 0
M  V30 1742 H 164.52 -1.73609 -7.53047 0
M  V30 1743 H 162.865 -1.55454 -6.77391 0
M  V30 1744 H 166.056 -0.762321 -4.61851 0
M  V30 1745 H 166.229 -1.30378 -6.34749 0
M  V30 1746 N 159.635 1.57281 -0.100228 0
M  V30 1747 C 160.883 1.94153 0.561157 0
M  V30 1748 C 161.204 0.983157 1.68401 0
M  V30 1749 O 160.474 0.0361132 1.95867 0
M  V30 1750 H 159.054 0.716791 0.210283 0
M  V30 1751 H 161.716 1.94202 -0.164765 0
M  V30 1752 H 160.812 2.96709 0.968008 0
M  V30 1753 N 161.113 -0.173488 1.56642 0
M  V30 1754 C 162.338 -0.910149 1.86363 0
M  V30 1755 C 162.763 -1.75132 0.686318 0
M  V30 1756 O 162.121 -1.77595 -0.364643 0
M  V30 1757 C 162.169 -1.76447 3.14482 0
M  V30 1758 O 161.273 -2.86584 2.96553 0
M  V30 1759 H 160.614 -0.255086 0.613047 0
M  V30 1760 H 163.144 -0.172283 2.03873 0
M  V30 1761 H 163.154 -2.16483 3.45831 0
M  V30 1762 H 161.829 -1.14658 3.99783 0
M  V30 1763 H 160.406 -2.50146 2.76553 0
M  V30 1764 N 162.591 -1.51276 -0.441967 0
M  V30 1765 C 163.816 -1.67799 -1.21895 0
M  V30 1766 C 164.241 -0.372864 -1.84367 0
M  V30 1767 O 163.599 0.666501 -1.68604 0
M  V30 1768 C 163.647 -2.79199 -2.28211 0
M  V30 1769 O 162.751 -2.42479 -3.33583 0
M  V30 1770 H 162.092 -0.559649 -0.357336 0
M  V30 1771 H 164.622 -1.97815 -0.522522 0
M  V30 1772 H 164.632 -3.03146 -2.73069 0
M  V30 1773 H 163.307 -3.73906 -1.82118 0
M  V30 1774 H 161.884 -2.29087 -2.94234 0
M  V30 1775 N 164.069 0.697108 -1.41344 0
M  V30 1776 C 165.016 1.81106 -1.43071 0
M  V30 1777 C 165.986 1.63632 -0.285275 0
M  V30 1778 O 167.171 1.84504 -0.486091 0
M  V30 1779 C 164.311 3.18975 -1.31715 0
M  V30 1780 C 163.424 3.47892 -2.56115 0
M  V30 1781 C 162.559 4.75367 -2.37064 0
M  V30 1782 C 161.598 4.97247 -3.56948 0
M  V30 1783 N 160.735 6.15947 -3.36977 0
M  V30 1784 H 165.575 1.78965 -2.38276 0
M  V30 1785 H 163.112 0.873975 -1.18322 0
M  V30 1786 H 165.07 3.98615 -1.23133 0
M  V30 1787 H 163.7 3.20297 -0.401183 0
M  V30 1788 H 162.752 2.62669 -2.75153 0
M  V30 1789 H 164.064 3.59962 -3.45295 0
M  V30 1790 H 163.218 5.63059 -2.25941 0
M  V30 1791 H 161.957 4.65541 -1.45338 0
M  V30 1792 H 160.962 4.08004 -3.68527 0
M  V30 1793 H 162.187 5.08934 -4.49626 0
M  V30 1794 H 160.133 6.07336 -2.47949 0
M  V30 1795 H 160.05 6.28777 -4.19732 0
M  V30 1796 H 161.318 7.06377 -3.29623 0
M  V30 1797 N 165.547 1.27147 0.931209 0
M  V30 1798 C 166.794 1.13278 1.67852 0
M  V30 1799 C 167.122 -0.32204 1.91815 0
M  V30 1800 O 166.377 -1.25224 1.50391 0
M  V30 1801 C 166.676 1.8579 3.05314 0
M  V30 1802 C 166.342 3.35657 3.01073 0
M  V30 1803 C 165.004 3.76536 2.99623 0
M  V30 1804 C 167.356 4.31299 2.92627 0
M  V30 1805 C 164.684 5.11426 2.87506 0
M  V30 1806 C 167.036 5.66242 2.82051 0
M  V30 1807 C 165.7 6.06418 2.7895 0
M  V30 1808 H 164.97 0.414515 0.614214 0
M  V30 1809 H 167.617 1.57712 1.08624 0
M  V30 1810 H 165.922 1.33854 3.68226 0
M  V30 1811 H 167.619 1.72491 3.62005 0
M  V30 1812 H 164.209 3.03146 3.02986 0
M  V30 1813 H 168.393 4.00692 2.92848 0
M  V30 1814 H 163.649 5.41705 2.83489 0
M  V30 1815 H 167.823 6.40026 2.74481 0
M  V30 1816 H 165.45 7.10895 2.69318 0
M  V30 1817 N 167.025 -1.13721 1.09112 0
M  V30 1818 C 167.975 -2.17082 0.697091 0
M  V30 1819 C 168.959 -1.58321 -0.286923 0
M  V30 1820 O 170.151 -1.7673 -0.0978008 0
M  V30 1821 C 167.28 -3.43105 0.115729 0
M  V30 1822 C 166.366 -4.0888 1.12596 0
M  V30 1823 N 166.757 -4.4987 2.31195 0
M  V30 1824 C 165.055 -4.35471 0.963366 0
M  V30 1825 C 165.756 -5.01094 2.95431 0
M  V30 1826 N 164.732 -4.95751 2.23006 0
M  V30 1827 H 168.534 -2.46524 1.6001 0
M  V30 1828 H 166.048 -1.30481 0.966869 0
M  V30 1829 H 168.045 -4.16491 -0.184555 0
M  V30 1830 H 166.705 -3.15138 -0.78217 0
M  V30 1831 H 167.716 -4.42678 2.68806 0
M  V30 1832 H 164.393 -4.17328 0.119878 0
M  V30 1833 H 165.783 -5.4263 3.96236 0
M  V30 1834 N 168.503 -0.877838 -1.30888 0
M  V30 1835 C 169.752 -0.488793 -1.95688 0
M  V30 1836 C 170.065 0.965485 -1.70111 0
M  V30 1837 O 171.271 1.46104 -2.28836 0
M  V30 1838 C 169.727 -0.823201 -3.50359 0
M  V30 1839 C 169.335 -2.29477 -3.84765 0
M  V30 1840 C 171.079 -0.503009 -4.21509 0
M  V30 1841 C 168.986 -2.57118 -5.32583 0
M  V30 1842 H 167.916 -0.179062 -0.732429 0
M  V30 1843 H 170.567 -1.07183 -1.48943 0
M  V30 1844 H 168.949 -0.169331 -3.95638 0
M  V30 1845 H 170.123 -2.99236 -3.5042 0
M  V30 1846 H 168.438 -2.58178 -3.267 0
M  V30 1847 H 171.035 -0.68665 -5.30273 0
M  V30 1848 H 171.378 0.557109 -4.12555 0
M  V30 1849 H 171.911 -1.11376 -3.8189 0
M  V30 1850 H 168.65 -3.61843 -5.4658 0
M  V30 1851 H 168.17 -1.91961 -5.68253 0
M  V30 1852 H 169.849 -2.42251 -5.99936 0
M  V30 1853 N 169.982 1.44106 -0.638065 0
M  V30 1854 C 171.398 1.56672 -0.304286 0
M  V30 1855 C 171.598 1.6244 1.19228 0
M  V30 1856 O 170.654 1.57121 1.9766 0
M  V30 1857 C 171.967 2.83503 -1.00231 0
M  V30 1858 C 173.515 2.97226 -0.981116 0
M  V30 1859 C 173.99 4.26868 -1.65974 0
M  V30 1860 N 175.481 4.33698 -1.62666 0
M  V30 1861 C 176.216 5.32745 -2.12063 0
M  V30 1862 N 175.712 6.38157 -2.6968 0
M  V30 1863 N 177.505 5.24299 -2.02651 0
M  V30 1864 H 169.656 1.38605 -1.60942 0
M  V30 1865 H 171.919 0.664661 -0.675965 0
M  V30 1866 H 171.625 2.85251 -2.0573 0
M  V30 1867 H 171.499 3.73251 -0.54439 0
M  V30 1868 H 173.886 2.95027 0.0654188 0
M  V30 1869 H 173.967 2.08808 -1.47759 0
M  V30 1870 H 173.611 4.29826 -2.70576 0
M  V30 1871 H 173.541 5.14156 -1.13804 0
M  V30 1872 H 176.032 3.58138 -1.20606 0
M  V30 1873 H 176.345 7.10029 -3.05087 0
M  V30 1874 H 174.69 6.38823 -2.73734 0
M  V30 1875 H 177.881 4.4086 -1.57353 0
M  V30 1876 H 178.054 6.01334 -2.41457 0
M  V30 1877 N 171.46 0.379036 1.52974 0
M  V30 1878 C 172.876 0.0285448 1.59574 0
M  V30 1879 C 173.076 -1.45542 1.39355 0
M  V30 1880 O 172.132 -2.2187 1.20541 0
M  V30 1881 C 173.445 0.496535 2.96572 0
M  V30 1882 C 174.993 0.451909 3.0972 0
M  V30 1883 C 175.468 0.895924 4.49152 0
M  V30 1884 N 176.959 0.851522 4.55306 0
M  V30 1885 C 177.694 1.16661 5.61407 0
M  V30 1886 N 177.19 1.55166 6.752 0
M  V30 1887 N 178.983 1.08853 5.51459 0
M  V30 1888 H 171.134 1.34525 1.64367 0
M  V30 1889 H 173.397 0.550733 0.771619 0
M  V30 1890 H 173.103 1.53258 3.16552 0
M  V30 1891 H 172.977 -0.109802 3.7704 0
M  V30 1892 H 175.364 -0.575029 2.89443 0
M  V30 1893 H 175.445 1.09392 2.3123 0
M  V30 1894 H 175.089 1.92104 4.70168 0
M  V30 1895 H 175.019 0.23103 5.26093 0
M  V30 1896 H 177.51 0.568038 3.73606 0
M  V30 1897 H 177.823 1.776 7.52116 0
M  V30 1898 H 176.168 1.59044 6.76557 0
M  V30 1899 H 179.359 0.786803 4.6144 0
M  V30 1900 H 179.532 1.33742 6.34048 0
M  V30 1901 N 172.938 -1.57226 0.108567 0
M  V30 1902 C 173.885 -2.14756 -0.845481 0
M  V30 1903 C 174.855 -1.06971 -1.27068 0
M  V30 1904 O 176.04 -1.34827 -1.35005 0
M  V30 1905 C 173.18 -2.74298 -2.09415 0
M  V30 1906 C 172.293 -3.96358 -1.71826 0
M  V30 1907 C 171.428 -4.44021 -2.9158 0
M  V30 1908 C 170.467 -5.58637 -2.50181 0
M  V30 1909 N 169.604 -6.01091 -3.62814 0
M  V30 1910 H 174.444 -2.95961 -0.348035 0
M  V30 1911 H 171.981 -1.46226 -0.160106 0
M  V30 1912 H 173.939 -3.06945 -2.82561 0
M  V30 1913 H 172.569 -1.95801 -2.56636 0
M  V30 1914 H 171.621 -3.69939 -0.885947 0
M  V30 1915 H 172.933 -4.79504 -1.37394 0
M  V30 1916 H 172.087 -4.78522 -3.72963 0
M  V30 1917 H 170.826 -3.59803 -3.29231 0
M  V30 1918 H 169.831 -5.23751 -1.67228 0
M  V30 1919 H 171.056 -6.44613 -2.13659 0
M  V30 1920 H 169.002 -5.19817 -4.00158 0
M  V30 1921 H 168.919 -6.79066 -3.32273 0
M  V30 1922 H 170.187 -6.40227 -4.44668 0
M  V30 1923 N 174.416 0.165178 -1.56732 0
M  V30 1924 C 175.832 0.517174 -1.50988 0
M  V30 1925 C 176.032 1.84331 -0.813894 0
M  V30 1926 O 175.088 2.49672 -0.37682 0
M  V30 1927 C 176.401 0.544261 -2.95733 0
M  V30 1928 C 177.949 0.631039 -3.06573 0
M  V30 1929 C 178.424 0.68896 -4.52788 0
M  V30 1930 N 179.915 0.751683 -4.5706 0
M  V30 1931 C 180.65 0.817177 -5.67547 0
M  V30 1932 N 180.146 0.843129 -6.8765 0
M  V30 1933 N 181.939 0.856668 -5.55534 0
M  V30 1934 H 174.09 -0.704318 -2.00382 0
M  V30 1935 H 176.353 -0.254687 -0.913148 0
M  V30 1936 H 176.059 -0.361607 -3.49836 0
M  V30 1937 H 175.933 1.3886 -3.5071 0
M  V30 1938 H 178.32 1.52733 -2.52501 0
M  V30 1939 H 178.401 -0.240095 -2.54671 0
M  V30 1940 H 178.045 -0.2031 -5.07494 0
M  V30 1941 H 177.975 1.57633 -5.02454 0
M  V30 1942 H 180.466 0.739661 -3.70591 0
M  V30 1943 H 180.779 0.894448 -7.67606 0
M  V30 1944 H 179.124 0.811304 -6.90248 0
M  V30 1945 H 182.315 0.833437 -4.60621 0
M  V30 1946 H 182.488 0.904247 -6.4166 0
M  V30 1947 N 175.894 1.51508 0.433938 0
M  V30 1948 C 177.124 1.67914 1.20369 0
M  V30 1949 C 177.532 0.377461 1.85397 0
M  V30 1950 O 176.875 -0.654255 1.71654 0
M  V30 1951 C 176.937 2.74045 2.32679 0
M  V30 1952 C 176.601 4.16543 1.87991 0
M  V30 1953 C 177.598 5.01211 1.38145 0
M  V30 1954 C 175.283 4.6266 1.95579 0
M  V30 1955 C 177.277 6.30056 0.964774 0
M  V30 1956 C 174.964 5.91501 1.53523 0
M  V30 1957 C 175.962 6.75027 1.04055 0
M  V30 1958 O 175.65 8.01459 0.625964 0
M  V30 1959 H 175.382 0.566578 0.368735 0
M  V30 1960 H 177.936 1.98709 0.51999 0
M  V30 1961 H 176.166 2.38572 3.04336 0
M  V30 1962 H 177.855 2.79295 2.94532 0
M  V30 1963 H 178.621 4.66783 1.31675 0
M  V30 1964 H 174.5 3.97767 2.33029 0
M  V30 1965 H 178.044 6.95202 0.57796 0
M  V30 1966 H 173.941 6.25442 1.59665 0
M  V30 1967 H 174.709 8.15043 0.751509 0
M  V30 1968 N 177.372 -0.689602 1.41712 0
M  V30 1969 C 178.335 -1.78521 1.43746 0
M  V30 1970 C 179.335 -1.57436 0.327191 0
M  V30 1971 O 180.525 -1.64 0.587348 0
M  V30 1972 C 177.657 -3.16971 1.25467 0
M  V30 1973 H 178.85 -1.78108 2.41283 0
M  V30 1974 H 176.403 -0.89781 1.27942 0
M  V30 1975 H 177.138 -3.23019 0.287948 0
M  V30 1976 H 176.923 -3.33678 2.05917 0
M  V30 1977 H 178.413 -3.96935 1.2974 0
M  V30 1978 N 178.85 -1.27639 -0.924453 0
M  V30 1979 C 179.78 -1.13166 -2.04244 0
M  V30 1980 C 180.761 -0.032256 -1.70069 0
M  V30 1981 O 181.946 -0.207328 -1.9309 0
M  V30 1982 C 179.076 -0.781496 -3.38393 0
M  V30 1983 C 178.03 -1.83449 -3.86692 0
M  V30 1984 C 177.356 -1.33822 -5.17683 0
M  V30 1985 C 178.656 -3.23917 -4.09726 0
M  V30 1986 H 180.35 -2.06689 -2.1661 0
M  V30 1987 H 177.896 -0.995136 -1.04082 0
M  V30 1988 H 179.849 -0.667057 -4.16087 0
M  V30 1989 H 178.573 0.189439 -3.2605 0
M  V30 1990 H 177.232 -1.93789 -3.11193 0
M  V30 1991 H 176.88 -0.35665 -5.01734 0
M  V30 1992 H 176.58 -2.04224 -5.50968 0
M  V30 1993 H 178.104 -1.23679 -5.97943 0
M  V30 1994 H 179.518 -3.16559 -4.77978 0
M  V30 1995 H 177.915 -3.92059 -4.54324 0
M  V30 1996 H 178.985 -3.68729 -3.14908 0
M  V30 1997 N 180.328 1.1314 -1.09713 0
M  V30 1998 C 181.556 1.88321 -0.856898 0
M  V30 1999 C 181.971 1.79276 0.592073 0
M  V30 2000 O 181.328 1.16142 1.40774 0
M  V30 2001 C 181.379 3.37812 -1.28706 0
M  V30 2002 O 181.1 3.46627 -2.67921 0
M  V30 2003 C 182.601 4.29952 -1.07964 0
M  V30 2004 H 179.821 0.596094 -0.308079 0
M  V30 2005 H 182.365 1.43205 -1.45988 0
M  V30 2006 H 180.52 3.805 -0.727912 0
M  V30 2007 H 180.934 4.39579 -2.8613 0
M  V30 2008 H 182.408 5.33159 -1.42986 0
M  V30 2009 H 182.885 4.39196 -0.0176577 0
M  V30 2010 H 183.491 3.93036 -1.62489 0
M  V30 2011 N 181.806 0.884767 1.30421 0
M  V30 2012 C 183.054 0.502112 1.95763 0
M  V30 2013 C 183.375 -0.951815 1.70192 0
M  V30 2014 O 182.645 -1.6692 1.0254 0
M  V30 2015 H 181.225 0.182694 0.724315 0
M  V30 2016 H 183.887 1.1278 1.58955 0
M  V30 2017 H 182.983 0.672188 3.04775 0
M  V30 2018 N 183.284 -1.43765 0.645699 0
M  V30 2019 C 184.216 -2.29027 -0.0890605 0
M  V30 2020 C 185.229 -1.42093 -0.794563 0
M  V30 2021 O 186.418 -1.66104 -0.653575 0
M  V30 2022 C 183.518 -3.18831 -1.14891 0
M  V30 2023 C 182.691 -4.34261 -0.523043 0
M  V30 2024 C 181.75 -5.04994 -1.47878 0
M  V30 2025 O 180.776 -5.6052 -0.990277 0
M  V30 2026 N 181.978 -5.07795 -2.81291 0
M  V30 2027 H 184.743 -2.92727 0.64272 0
M  V30 2028 H 182.304 -1.54373 0.487924 0
M  V30 2029 H 184.296 -3.63015 -1.78892 0
M  V30 2030 H 182.866 -2.56782 -1.78275 0
M  V30 2031 H 182.086 -3.93088 0.295896 0
M  V30 2032 H 183.374 -5.08728 -0.0858147 0
M  V30 2033 H 182.772 -4.64042 -3.23546 0
M  V30 2034 H 181.329 -5.55721 -3.40614 0
M  V30 2035 N 184.763 -0.387143 -1.52771 0
M  V30 2036 C 185.71 0.449048 -2.26389 0
M  V30 2037 C 186.68 1.05961 -1.27912 0
M  V30 2038 O 187.865 1.08804 -1.56737 0
M  V30 2039 C 185.005 1.57155 -3.0724 0
M  V30 2040 C 184.118 0.984066 -4.20643 0
M  V30 2041 C 183.253 2.07745 -4.88892 0
M  V30 2042 C 182.292 1.46574 -5.94292 0
M  V30 2043 N 181.429 2.49834 -6.56146 0
M  V30 2044 H 186.269 -0.185205 -2.97424 0
M  V30 2045 H 183.806 -0.103164 -1.46738 0
M  V30 2046 H 185.764 2.23309 -3.52405 0
M  V30 2047 H 184.394 2.17615 -2.38419 0
M  V30 2048 H 183.446 0.212193 -3.79808 0
M  V30 2049 H 184.758 0.497029 -4.96318 0
M  V30 2050 H 183.912 2.81673 -5.3735 0
M  V30 2051 H 182.651 2.59807 -4.12737 0
M  V30 2052 H 181.656 0.711696 -5.45174 0
M  V30 2053 H 182.881 0.953088 -6.72379 0
M  V30 2054 H 180.827 3.0107 -5.82832 0
M  V30 2055 H 180.744 2.05879 -7.27427 0
M  V30 2056 H 182.012 3.23399 -7.09249 0
M  V30 2057 N 186.241 1.57166 -0.116904 0
M  V30 2058 C 187.487 1.96206 0.536166 0
M  V30 2059 C 187.842 0.99915 1.64422 0
M  V30 2060 O 187.135 0.0288195 1.91578 0
M  V30 2061 C 187.329 3.39508 1.11664 0
M  V30 2062 C 187.158 4.49651 0.0663474 0
M  V30 2063 C 185.928 5.03982 -0.36474 0
M  V30 2064 C 188.126 5.09322 -0.713829 0
M  V30 2065 N 186.108 5.97699 -1.40102 0
M  V30 2066 C 187.479 5.98963 -1.60136 0
M  V30 2067 C 189.534 4.91989 -0.764948 0
M  V30 2068 C 188.237 6.73128 -2.53556 0
M  V30 2069 C 190.263 5.66833 -1.68685 0
M  V30 2070 C 189.625 6.56158 -2.56196 0
M  V30 2071 H 185.724 0.764203 0.165886 0
M  V30 2072 H 188.308 1.93623 -0.204535 0
M  V30 2073 H 186.479 3.42743 1.82707 0
M  V30 2074 H 188.211 3.65677 1.73386 0
M  V30 2075 H 184.966 4.73592 0.027252 0
M  V30 2076 H 185.39 6.49262 -1.91802 0
M  V30 2077 H 190.032 4.22676 -0.102501 0
M  V30 2078 H 187.75 7.41689 -3.20816 0
M  V30 2079 H 191.336 5.55427 -1.73181 0
M  V30 2080 H 190.216 7.13057 -3.26372 0
M  V30 2081 N 187.719 -0.156864 1.56817 0
M  V30 2082 C 188.651 -1.21883 1.94106 0
M  V30 2083 C 189.664 -1.3971 0.835754 0
M  V30 2084 O 190.853 -1.39457 1.11418 0
M  V30 2085 C 187.953 -2.58527 2.19127 0
M  V30 2086 C 187.126 -2.61809 3.50393 0
M  V30 2087 C 186.185 -3.7992 3.64071 0
M  V30 2088 O 185.211 -3.65249 4.36557 0
M  V30 2089 N 186.413 -4.96973 2.99997 0
M  V30 2090 H 189.178 -0.901974 2.85805 0
M  V30 2091 H 186.739 -0.346513 1.58148 0
M  V30 2092 H 188.731 -3.36034 2.25529 0
M  V30 2093 H 187.301 -2.82545 1.33742 0
M  V30 2094 H 186.521 -1.7029 3.5552 0
M  V30 2095 H 187.809 -2.61024 4.36742 0
M  V30 2096 H 187.207 -5.11794 2.41004 0
M  V30 2097 H 185.764 -5.7229 3.11974 0
M  V30 2098 N 189.197 -1.51736 -0.425897 0
M  V30 2099 C 190.147 -1.70258 -1.51645 0
M  V30 2100 C 191.131 -0.556488 -1.5097 0
M  V30 2101 O 192.323 -0.812879 -1.5723 0
M  V30 2102 C 189.452 -1.84143 -2.89735 0
M  V30 2103 C 188.538 -3.04572 -2.95122 0
M  V30 2104 N 188.929 -4.2756 -2.70233 0
M  V30 2105 C 187.227 -3.04061 -3.26286 0
M  V30 2106 C 187.928 -5.08908 -2.81757 0
M  V30 2107 N 186.904 -4.43797 -3.13919 0
M  V30 2108 H 190.706 -2.63004 -1.31172 0
M  V30 2109 H 188.22 -1.4954 -0.633375 0
M  V30 2110 H 190.217 -1.95525 -3.68206 0
M  V30 2111 H 188.877 -0.925857 -3.1122 0
M  V30 2112 H 189.888 -4.56315 -2.44943 0
M  V30 2113 H 186.565 -2.22179 -3.53473 0
M  V30 2114 H 187.955 -6.16843 -2.66372 0
M  V30 2115 N 190.675 0.682077 -1.42076 0
M  V30 2116 C 191.622 1.79578 -1.44984 0
M  V30 2117 C 192.592 1.6332 -0.302614 0
M  V30 2118 O 193.777 1.83978 -0.505633 0
M  V30 2119 C 190.917 3.1756 -1.35091 0
M  V30 2120 C 190.03 3.45156 -2.59791 0
M  V30 2121 C 189.165 4.72826 -2.42093 0
M  V30 2122 C 188.204 4.93433 -3.62202 0
M  V30 2123 N 187.341 6.12338 -3.43491 0
M  V30 2124 H 192.181 1.76427 -2.40161 0
M  V30 2125 H 189.718 0.861376 -1.19242 0
M  V30 2126 H 191.676 3.97287 -1.27354 0
M  V30 2127 H 190.306 3.19854 -0.435133 0
M  V30 2128 H 189.358 2.59736 -2.77923 0
M  V30 2129 H 190.67 3.5628 -3.49094 0
M  V30 2130 H 189.824 5.60631 -2.319 0
M  V30 2131 H 188.563 4.63973 -1.50268 0
M  V30 2132 H 187.568 4.04073 -3.72834 0
M  V30 2133 H 188.793 5.04136 -4.54998 0
M  V30 2134 H 186.739 6.04672 -2.54377 0
M  V30 2135 H 186.656 6.2429 -4.26377 0
M  V30 2136 H 187.924 7.02841 -3.37097 0
M  V30 2137 N 192.153 1.28127 0.917671 0
M  V30 2138 C 193.103 1.08361 2.00604 0
M  V30 2139 C 194.087 0.00847518 1.60898 0
M  V30 2140 O 195.279 0.228167 1.75523 0
M  V30 2141 C 192.408 0.743376 3.35155 0
M  V30 2142 C 191.494 1.85716 3.81275 0
M  V30 2143 N 191.885 3.09822 3.99805 0
M  V30 2144 C 190.183 1.74612 4.10398 0
M  V30 2145 C 190.884 3.82368 4.38372 0
M  V30 2146 N 189.86 3.10192 4.4641 0
M  V30 2147 H 193.662 2.02531 2.12975 0
M  V30 2148 H 191.176 1.18989 1.10523 0
M  V30 2149 H 193.173 0.582859 4.12805 0
M  V30 2150 H 191.833 -0.190595 3.2414 0
M  V30 2151 H 192.844 3.45475 3.85833 0
M  V30 2152 H 189.521 0.883657 4.08041 0
M  V30 2153 H 190.911 4.89082 4.60704 0
M  V30 2154 N 193.631 -1.12557 1.10312 0
M  V30 2155 C 194.88 -1.83395 0.839588 0
M  V30 2156 C 195.193 -1.84939 -0.636929 0
M  V30 2157 O 196.399 -2.51761 -1.01631 0
M  V30 2158 C 194.855 -3.29303 1.45215 0
M  V30 2159 C 194.463 -3.36122 2.96186 0
M  V30 2160 C 196.207 -4.05121 1.26796 0
M  V30 2161 C 194.114 -4.76357 3.50483 0
M  V30 2162 H 193.044 -0.687133 0.310425 0
M  V30 2163 H 195.695 -1.26746 1.32694 0
M  V30 2164 H 194.077 -3.85812 0.892469 0
M  V30 2165 H 195.251 -2.89559 3.58458 0
M  V30 2166 H 193.566 -2.73776 3.13745 0
M  V30 2167 H 196.163 -5.08668 1.64806 0
M  V30 2168 H 196.506 -4.15773 0.209409 0
M  V30 2169 H 197.039 -3.54967 1.79563 0
M  V30 2170 H 193.778 -4.70899 4.55998 0
M  V30 2171 H 193.298 -5.23377 2.92978 0
M  V30 2172 H 194.977 -5.45294 3.48228 0
M  V30 2173 N 195.109 -0.891671 -1.2995 0
M  V30 2174 C 196.337 -0.52866 -2.00032 0
M  V30 2175 C 196.752 0.884574 -1.66795 0
M  V30 2176 O 196.109 1.5827 -0.908669 0
M  V30 2177 C 196.16 -0.701814 -3.54622 0
M  V30 2178 O 195.881 -2.05942 -3.86678 0
M  V30 2179 C 197.382 -0.342683 -4.41973 0
M  V30 2180 H 194.602 -0.203659 -0.639347 0
M  V30 2181 H 197.146 -1.19881 -1.65677 0
M  V30 2182 H 195.301 -0.0789468 -3.8732 0
M  V30 2183 H 195.715 -2.08291 -4.81368 0
M  V30 2184 H 197.189 -0.514709 -5.49595 0
M  V30 2185 H 197.666 0.71975 -4.33262 0
M  V30 2186 H 198.272 -0.942154 -4.14733 0
M  V30 2187 N 196.587 1.43421 -0.653314 0
M  V30 2188 C 197.817 2.05864 -0.174238 0
M  V30 2189 C 198.225 1.49052 1.16534 0
M  V30 2190 O 197.568 0.616481 1.73047 0
M  V30 2191 C 197.63 3.59499 -0.00875873 0
M  V30 2192 C 197.294 4.38893 -1.27364 0
M  V30 2193 C 198.291 4.70947 -2.20239 0
M  V30 2194 C 195.976 4.789 -1.51525 0
M  V30 2195 C 197.97 5.41916 -3.35568 0
M  V30 2196 C 195.657 5.49614 -2.67147 0
M  V30 2197 C 196.655 5.81044 -3.58994 0
M  V30 2198 O 196.343 6.50313 -4.72597 0
M  V30 2199 H 196.075 0.670345 -0.0872549 0
M  V30 2200 H 198.629 1.84913 -0.894226 0
M  V30 2201 H 196.859 3.79025 0.7666 0
M  V30 2202 H 198.548 4.0364 0.427687 0
M  V30 2203 H 199.314 4.40558 -2.02815 0
M  V30 2204 H 195.193 4.53843 -0.809158 0
M  V30 2205 H 198.737 5.66365 -4.07279 0
M  V30 2206 H 194.634 5.79419 -2.84505 0
M  V30 2207 H 195.402 6.68795 -4.71864 0
M  V30 2208 N 198.065 0.39524 1.52563 0
M  V30 2209 C 199.29 -0.187456 2.06551 0
M  V30 2210 C 199.715 -1.39249 1.26457 0
M  V30 2211 O 199.073 -1.78947 0.291151 0
M  V30 2212 C 199.121 -0.529985 3.56684 0
M  V30 2213 O 198.225 -1.62307 3.79118 0
M  V30 2214 H 197.566 -0.0202537 0.663691 0
M  V30 2215 H 200.096 0.564426 1.96661 0
M  V30 2216 H 200.106 -0.792598 4.00227 0
M  V30 2217 H 198.781 0.350987 4.14416 0
M  V30 2218 H 197.358 -1.3537 3.47461 0
M  V30 2219 N 199.544 -1.57102 0.125237 0
M  V30 2220 C 200.793 -1.94582 -0.531095 0
M  V30 2221 C 201.106 -1.01126 -1.6743 0
M  V30 2222 O 202.312 -1.28097 -2.39381 0
M  V30 2223 C 200.768 -3.45839 -0.996164 0
M  V30 2224 C 200.376 -4.47842 0.118926 0
M  V30 2225 C 202.12 -3.92227 -1.62352 0
M  V30 2226 C 200.027 -5.90284 -0.363192 0
M  V30 2227 H 198.957 -0.726391 -0.20217 0
M  V30 2228 H 201.608 -1.82339 0.206092 0
M  V30 2229 H 199.99 -3.53338 -1.78796 0
M  V30 2230 H 201.164 -4.52018 0.895358 0
M  V30 2231 H 199.479 -4.11243 0.653324 0
M  V30 2232 H 202.076 -4.96069 -1.99548 0
M  V30 2233 H 202.419 -3.32552 -2.50429 0
M  V30 2234 H 202.952 -3.87554 -0.897019 0
M  V30 2235 H 199.691 -6.53728 0.481679 0
M  V30 2236 H 199.211 -5.89515 -1.10597 0
M  V30 2237 H 200.89 -6.41752 -0.822377 0
M  V30 2238 N 201.022 0.148545 -1.56898 0
M  V30 2239 C 201.969 1.18345 -1.98149 0
M  V30 2240 C 202.939 1.42772 -0.848848 0
M  V30 2241 O 204.124 1.55132 -1.11079 0
M  V30 2242 C 201.264 2.51231 -2.36594 0
M  V30 2243 C 200.377 2.33991 -3.63142 0
M  V30 2244 C 199.512 3.59902 -3.90697 0
M  V30 2245 C 198.551 3.37692 -5.1052 0
M  V30 2246 N 197.688 4.5573 -5.34092 0
M  V30 2247 H 202.528 0.82467 -2.86362 0
M  V30 2248 H 200.065 0.395756 -1.41676 0
M  V30 2249 H 202.023 3.28713 -2.56912 0
M  V30 2250 H 200.653 2.85059 -1.51463 0
M  V30 2251 H 199.705 1.47572 -3.50609 0
M  V30 2252 H 201.017 2.13539 -4.5078 0
M  V30 2253 H 200.171 4.45813 -4.11505 0
M  V30 2254 H 198.91 3.83357 -3.01477 0
M  V30 2255 H 197.915 2.5017 -4.89587 0
M  V30 2256 H 199.14 3.15637 -6.0129 0
M  V30 2257 H 197.086 4.79361 -4.47827 0
M  V30 2258 H 197.003 4.38274 -6.15996 0
M  V30 2259 H 198.271 5.42858 -5.59397 0
M  V30 2260 N 202.5 1.5196 0.417844 0
M  V30 2261 C 203.448 1.75278 1.52907 0
M  V30 2262 C 204.442 0.619611 1.57662 0
M  V30 2263 O 205.648 0.801457 1.61173 0
M  V30 2264 H 202.023 0.554141 0.508362 0
M  V30 2265 H 203.994 2.68389 1.30422 0
M  V30 2266 C 202.743 1.91262 2.90369 0
M  V30 2267 H 202.066 2.77872 2.8745 0
M  V30 2268 H 203.506 2.11581 3.67436 0
M  V30 2269 C 201.965 0.677431 3.30019 0
M  V30 2270 O 202.495 -0.158799 4.01386 0
M  V30 2271 N 200.701 0.515851 2.85985 0
M  V30 2272 H 200.248 1.19744 2.28077 0
M  V30 2273 H 200.206 -0.309315 3.12875 0
M  V30 2274 N 203.978 -0.674533 1.42435 0
M  V30 2275 C 205.224 -1.43671 1.43131 0
M  V30 2276 C 205.557 -1.94142 0.0476021 0
M  V30 2277 O 204.832 -1.70924 -0.928188 0
M  V30 2278 C 205.115 -2.63355 2.45594 0
M  V30 2279 C 204.968 -2.18514 3.93156 0
M  V30 2280 C 206.287 -3.65571 2.45043 0
M  V30 2281 H 203.406 -0.521077 0.521198 0
M  V30 2282 H 206.048 -0.766551 1.7385 0
M  V30 2283 H 204.198 -3.2053 2.19528 0
M  V30 2284 H 205.87 -1.66504 4.30202 0
M  V30 2285 H 204.113 -1.50086 4.07009 0
M  V30 2286 H 204.784 -3.04484 4.60428 0
M  V30 2287 H 207.26 -3.18113 2.68223 0
M  V30 2288 H 206.136 -4.46893 3.18713 0
M  V30 2289 H 206.397 -4.16716 1.47649 0
M  V30 2290 N 205.456 -1.28612 -0.910864 0
M  V30 2291 C 206.684 -1.18792 -1.69399 0
M  V30 2292 C 207.099 0.253039 -1.87097 0
M  V30 2293 O 206.456 1.17071 -1.40003 0
M  V30 2294 C 206.507 -1.88511 -3.08457 0
M  V30 2295 O 206.228 -3.26979 -2.91576 0
M  V30 2296 C 207.729 -1.85029 -4.02839 0
M  V30 2297 H 204.949 -0.412233 -0.529438 0
M  V30 2298 H 207.493 -1.69788 -1.13984 0
M  V30 2299 H 205.648 -1.41379 -3.60681 0
M  V30 2300 H 206.062 -3.61936 -3.79608 0
M  V30 2301 H 207.536 -2.38395 -4.97867 0
M  V30 2302 H 208.013 -0.823303 -4.31414 0
M  V30 2303 H 208.619 -2.31853 -3.56545 0
M  V30 2304 N 206.934 1.1197 -1.10907 0
M  V30 2305 C 208.345 1.65114 -0.871446 0
M  V30 2306 C 208.696 1.86885 0.597353 0
M  V30 2307 O 207.821 1.59896 1.45816 0
M  V30 2308 C 208.416 2.99944 -1.5754 0
M  V30 2309 C 206.975 3.50018 -1.38435 0
M  V30 2310 C 206.122 2.24941 -1.62164 0
M  V30 2311 H 209.073 0.956851 -1.2661 0
M  V30 2312 H 209.094 3.66651 -1.01721 0
M  V30 2313 H 208.606 2.84067 -2.64438 0
M  V30 2314 H 206.707 3.71071 -0.337214 0
M  V30 2315 H 206.82 4.29165 -2.12965 0
M  V30 2316 H 205.184 2.3229 -1.04467 0
M  V30 2317 H 205.967 2.11612 -2.70324 0
M  V30 2318 N 208.412 0.89855 1.29475 0
M  V30 2319 C 209.359 0.373819 2.27753 0
M  V30 2320 C 210.329 -0.543444 1.56958 0
M  V30 2321 O 211.514 -0.468934 1.84948 0
M  V30 2322 C 208.654 -0.393648 3.42848 0
M  V30 2323 C 207.767 0.554379 4.28428 0
M  V30 2324 C 206.902 -0.230026 5.30702 0
M  V30 2325 C 205.941 0.712599 6.07938 0
M  V30 2326 N 205.078 -0.0373283 7.0209 0
M  V30 2327 H 209.918 1.21699 2.72017 0
M  V30 2328 H 207.455 0.611456 1.33789 0
M  V30 2329 H 209.413 -0.85466 4.08352 0
M  V30 2330 H 208.043 -1.20128 2.99615 0
M  V30 2331 H 207.095 1.13391 3.63107 0
M  V30 2332 H 208.407 1.27597 4.82204 0
M  V30 2333 H 207.561 -0.752288 6.02018 0
M  V30 2334 H 206.3 -0.984758 4.77654 0
M  V30 2335 H 205.305 1.24637 5.35486 0
M  V30 2336 H 206.53 1.46664 6.63074 0
M  V30 2337 H 204.476 -0.774348 6.51414 0
M  V30 2338 H 204.393 0.624374 7.53417 0
M  V30 2339 H 205.661 -0.539891 7.77628 0
M  V30 2340 N 209.89 -1.43072 0.660911 0
M  V30 2341 C 211.136 -2.0202 0.177708 0
M  V30 2342 C 211.469 -1.52066 -1.20787 0
M  V30 2343 O 210.744 -0.716987 -1.80802 0
M  V30 2344 C 211.027 -3.59561 0.197019 0
M  V30 2345 C 210.88 -4.19727 1.61706 0
M  V30 2346 C 212.199 -4.37664 -0.462396 0
M  V30 2347 H 209.318 -0.734034 0.0660494 0
M  V30 2348 H 211.96 -1.70272 0.843058 0
M  V30 2349 H 210.11 -3.86739 -0.369527 0
M  V30 2350 H 211.782 -4.03553 2.23479 0
M  V30 2351 H 210.025 -3.76084 2.16201 0
M  V30 2352 H 210.696 -5.28834 1.58237 0
M  V30 2353 H 213.172 -4.16095 0.0197215 0
M  V30 2354 H 212.048 -5.47305 -0.418188 0
M  V30 2355 H 212.309 -4.14493 -1.53778 0
M  V30 2356 N 211.368 -0.403325 -1.52352 0
M  V30 2357 C 212.616 0.174003 -2.0135 0
M  V30 2358 C 212.937 1.46139 -1.29106 0
M  V30 2359 O 212.207 1.91448 -0.415253 0
M  V30 2360 H 210.787 0.0672911 -0.743963 0
M  V30 2361 H 213.449 -0.538235 -1.87321 0
M  V30 2362 H 212.545 0.374254 -3.09848 0
M  V30 2363 N 212.846 1.57033 -0.133567 0
M  V30 2364 C 214.123 1.87256 0.56522 0
M  V30 2365 C 214.503 1.03726 1.83859 0
M  V30 2366 O 213.851 0.120247 2.28183 0
M  V30 2367 C 214.061 3.3865 0.843636 0
M  V30 2368 C 215.409 4.07574 1.19032 0
M  V30 2369 O 216.433 3.43752 0.933429 0
M  V30 2370 O 215.292 5.20259 1.67312 0
M  V30 2371 H 212.386 0.775678 0.286796 0
M  V30 2372 H 214.932 1.68855 -0.169168 0
M  V30 2373 H 213.704 3.91257 -0.0581149 0
M  V30 2374 H 213.327 3.62532 1.63268 0
M  V30 2375 N 214.325 -0.140222 1.56975 0
M  V30 2376 C 215.736 -0.699596 1.73097 0
M  V30 2377 C 216.087 -1.8134 0.749022 0
M  V30 2378 O 215.212 -2.16241 -0.0828503 0
M  V30 2379 C 215.807 -1.27582 3.1386 0
M  V30 2380 C 214.366 -1.78169 3.31561 0
M  V30 2381 C 213.513 -0.672855 2.69013 0
M  V30 2382 H 216.464 0.0855115 1.58469 0
M  V30 2383 H 216.485 -2.14561 3.14235 0
M  V30 2384 H 215.997 -0.464955 3.85305 0
M  V30 2385 H 214.098 -2.61801 2.65124 0
M  V30 2386 H 214.211 -1.90574 4.39566 0
M  V30 2387 H 212.575 -1.10118 2.29665 0
M  V30 2388 H 213.358 0.126679 3.43066 0
M  V30 2389 N 215.803 -1.52179 -0.40978 0
M  V30 2390 C 216.713 -1.78364 -1.52392 0
M  V30 2391 C 217.729 -0.669183 -1.60617 0
M  V30 2392 O 218.905 -0.954518 -1.77344 0
M  V30 2393 C 215.97 -1.92822 -2.88133 0
M  V30 2394 C 215.031 -3.16725 -2.898 0
M  V30 2395 C 214.264 -3.30483 -4.19067 0
M  V30 2396 O 214.487 -2.49522 -5.12928 0
M  V30 2397 O 213.421 -4.2363 -4.27576 0
M  V30 2398 H 217.247 -2.72931 -1.33201 0
M  V30 2399 H 214.832 -1.37016 -0.59557 0
M  V30 2400 H 216.714 -2.04157 -3.68643 0
M  V30 2401 H 215.389 -1.01444 -3.07393 0
M  V30 2402 H 214.296 -3.10848 -2.08146 0
M  V30 2403 H 215.629 -4.07881 -2.75489 0
M  V30 2404 N 217.281 0.66697 -1.42791 0
M  V30 2405 C 218.509 1.45505 -1.47091 0
M  V30 2406 C 218.924 1.8861 -0.0845873 0
M  V30 2407 O 218.281 1.58632 0.90234 0
M  V30 2408 C 218.332 2.69906 -2.40485 0
M  V30 2409 O 218.053 2.28608 -3.73725 0
M  V30 2410 C 219.554 3.63396 -2.53886 0
M  V30 2411 H 216.774 0.447459 -0.500022 0
M  V30 2412 H 219.318 0.818866 -1.8739 0
M  V30 2413 H 217.473 3.29696 -2.03419 0
M  V30 2414 H 217.887 3.08997 -4.23817 0
M  V30 2415 H 219.361 4.47387 -3.2334 0
M  V30 2416 H 219.838 4.09824 -1.57927 0
M  V30 2417 H 220.444 3.09495 -2.91706 0
M  V30 2418 N 218.759 1.29093 0.90403 0
M  V30 2419 C 220.175 1.07011 1.1841 0
M  V30 2420 C 220.375 -0.181358 2.00682 0
M  V30 2421 O 219.431 -0.880331 2.36657 0
M  V30 2422 C 220.744 2.32311 1.90924 0
M  V30 2423 C 222.292 2.37587 2.03768 0
M  V30 2424 C 222.767 3.62679 2.79693 0
M  V30 2425 N 224.258 3.63376 2.87249 0
M  V30 2426 C 224.993 4.56848 3.46522 0
M  V30 2427 N 224.489 5.60648 4.06996 0
M  V30 2428 N 226.282 4.44426 3.44154 0
M  V30 2429 H 218.433 2.09412 0.354993 0
M  V30 2430 H 220.696 0.922181 0.219742 0
M  V30 2431 H 220.402 3.23536 1.37905 0
M  V30 2432 H 220.276 2.39483 2.91424 0
M  V30 2433 H 222.663 1.46853 2.55965 0
M  V30 2434 H 222.744 2.34403 1.02415 0
M  V30 2435 H 222.388 4.53762 2.28173 0
M  V30 2436 H 222.318 3.63119 3.81381 0
M  V30 2437 H 224.809 2.88321 2.44293 0
M  V30 2438 H 225.122 6.28101 4.50232 0
M  V30 2439 H 223.467 5.64463 4.05471 0
M  V30 2440 H 226.658 3.62529 2.96126 0
M  V30 2441 H 226.831 5.17457 3.90054 0
M  V30 2442 N 220.237 -1.11381 1.11499 0
M  V30 2443 C 221.184 -2.17439 0.773887 0
M  V30 2444 C 222.154 -1.64132 -0.254899 0
M  V30 2445 O 223.339 -1.90345 -0.13168 0
M  V30 2446 C 220.479 -3.44373 0.223917 0
M  V30 2447 C 219.592 -4.1168 1.30934 0
M  V30 2448 C 218.727 -5.263 0.71984 0
M  V30 2449 C 217.766 -5.85493 1.78507 0
M  V30 2450 N 216.903 -6.91507 1.21502 0
M  V30 2451 H 221.743 -2.45962 1.68246 0
M  V30 2452 H 219.28 -1.20744 0.840191 0
M  V30 2453 H 221.238 -4.17047 -0.112921 0
M  V30 2454 H 219.868 -3.16232 -0.647851 0
M  V30 2455 H 218.92 -3.37073 1.76312 0
M  V30 2456 H 220.232 -4.51729 2.11524 0
M  V30 2457 H 219.386 -6.05785 0.333094 0
M  V30 2458 H 218.125 -4.87559 -0.117377 0
M  V30 2459 H 217.13 -5.04686 2.18111 0
M  V30 2460 H 218.355 -6.26301 2.62533 0
M  V30 2461 H 216.301 -6.54783 0.399455 0
M  V30 2462 H 216.218 -7.30214 1.95763 0
M  V30 2463 H 217.486 -7.74795 0.855181 0
M  V30 2464 N 221.715 -0.905404 -1.28997 0
M  V30 2465 C 222.678 -0.392253 -2.25819 0
M  V30 2466 C 223.678 0.476753 -1.5357 0
M  V30 2467 O 224.868 0.280994 -1.71919 0
M  V30 2468 C 222 0.438588 -3.38067 0
M  V30 2469 H 223.193 -1.24743 -2.72725 0
M  V30 2470 H 220.746 -0.684051 -1.40536 0
M  V30 2471 H 221.481 1.31352 -2.96508 0
M  V30 2472 H 221.266 -0.184167 -3.91667 0
M  V30 2473 H 222.756 0.78873 -4.10084 0
M  V30 2474 N 223.193 1.4272 -0.668489 0
M  V30 2475 C 224.442 2.00846 -0.185389 0
M  V30 2476 C 224.755 1.53442 1.21305 0
M  V30 2477 O 225.961 2.03944 1.79218 0
M  V30 2478 C 224.417 3.58805 -0.280591 0
M  V30 2479 C 224.025 4.15198 -1.68268 0
M  V30 2480 C 225.769 4.24255 0.14412 0
M  V30 2481 C 223.676 5.655 -1.73099 0
M  V30 2482 H 222.606 0.751145 -0.0655475 0
M  V30 2483 H 225.257 1.63516 -0.832752 0
M  V30 2484 H 223.639 3.93608 0.434553 0
M  V30 2485 H 224.813 3.91866 -2.42441 0
M  V30 2486 H 223.128 3.62176 -2.05469 0
M  V30 2487 H 225.725 5.34547 0.128086 0
M  V30 2488 H 226.068 3.99277 1.17827 0
M  V30 2489 H 226.601 3.94389 -0.519798 0
M  V30 2490 H 223.34 5.95268 -2.74475 0
M  V30 2491 H 222.86 5.90842 -1.03274 0
M  V30 2492 H 224.539 6.29808 -1.48158 0
M  V30 2493 N 224.671 0.411399 1.52136 0
M  V30 2494 C 226.087 0.0623865 1.59478 0
M  V30 2495 C 226.287 -1.42554 1.4241 0
M  V30 2496 O 225.343 -2.19263 1.2522 0
M  V30 2497 C 226.656 0.559331 2.95452 0
M  V30 2498 C 228.204 0.517503 3.08692 0
M  V30 2499 C 228.679 0.990994 4.4715 0
M  V30 2500 N 230.17 0.947908 4.53397 0
M  V30 2501 C 230.905 1.28544 5.58806 0
M  V30 2502 N 230.401 1.69454 6.71757 0
M  V30 2503 N 232.194 1.20526 5.49026 0
M  V30 2504 H 224.345 1.37982 1.61477 0
M  V30 2505 H 226.608 0.566977 0.759764 0
M  V30 2506 H 226.314 1.59938 3.1323 0
M  V30 2507 H 226.188 -0.0298014 3.77188 0
M  V30 2508 H 228.575 -0.513505 2.90598 0
M  V30 2509 H 228.656 1.14272 2.28857 0
M  V30 2510 H 228.3 2.02034 4.65988 0
M  V30 2511 H 228.23 0.34257 5.25485 0
M  V30 2512 H 230.721 0.647157 3.72317 0
M  V30 2513 H 231.034 1.93513 7.48179 0
M  V30 2514 H 229.379 1.73359 6.73032 0
M  V30 2515 H 232.57 0.884505 4.59667 0
M  V30 2516 H 232.743 1.47161 6.31069 0
M  V30 2517 N 226.149 -1.5696 0.141893 0
M  V30 2518 C 227.565 -1.58151 -0.21456 0
M  V30 2519 C 227.765 -1.1559 -1.65049 0
M  V30 2520 O 226.821 -0.853832 -2.37626 0
M  V30 2521 C 228.134 -3.00674 0.0395576 0
M  V30 2522 C 229.682 -3.1299 -0.0245529 0
M  V30 2523 C 230.157 -4.57554 0.202167 0
M  V30 2524 N 231.648 -4.62961 0.148919 0
M  V30 2525 C 232.383 -5.7262 0.298924 0
M  V30 2526 N 231.879 -6.90947 0.50637 0
M  V30 2527 N 233.672 -5.61601 0.236886 0
M  V30 2528 H 225.823 -1.8292 1.07953 0
M  V30 2529 H 228.086 -0.846425 0.42693 0
M  V30 2530 H 227.792 -3.36183 1.03315 0
M  V30 2531 H 227.666 -3.70981 -0.682143 0
M  V30 2532 H 230.053 -2.77326 -1.00869 0
M  V30 2533 H 230.134 -2.4518 0.729396 0
M  V30 2534 H 229.778 -4.93922 1.18338 0
M  V30 2535 H 229.708 -5.23484 -0.572044 0
M  V30 2536 H 232.199 -3.77899 -0.00697015 0
M  V30 2537 H 232.512 -7.7038 0.611076 0
M  V30 2538 H 230.857 -6.92878 0.542628 0
M  V30 2539 H 234.048 -4.68039 0.0756209 0
M  V30 2540 H 234.221 -6.47015 0.357227 0
M  V30 2541 N 227.627 0.131896 -1.57047 0
M  V30 2542 C 228.59 1.14638 -1.98471 0
M  V30 2543 C 229.59 1.35029 -0.873148 0
M  V30 2544 O 230.78 1.31764 -1.13946 0
M  V30 2545 C 227.912 2.50358 -2.31373 0
M  V30 2546 H 229.105 0.79064 -2.8929 0
M  V30 2547 H 226.658 0.375761 -1.51716 0
M  V30 2548 H 227.393 2.90876 -1.43393 0
M  V30 2549 H 227.178 2.36915 -3.12432 0
M  V30 2550 H 228.668 3.23395 -2.64207 0
M  V30 2551 N 229.106 1.52395 0.401703 0
M  V30 2552 C 230.353 1.66817 1.14796 0
M  V30 2553 C 230.681 0.401772 1.90305 0
M  V30 2554 O 229.936 -0.615487 1.85769 0
M  V30 2555 C 230.235 2.84578 2.16217 0
M  V30 2556 C 229.901 4.22513 1.5746 0
M  V30 2557 C 228.563 4.60029 1.41161 0
M  V30 2558 C 230.915 5.0844 1.14622 0
M  V30 2559 C 228.243 5.81144 0.80552 0
M  V30 2560 C 230.595 6.30167 0.55428 0
M  V30 2561 C 229.259 6.66426 0.378482 0
M  V30 2562 H 228.529 0.610428 0.420069 0
M  V30 2563 H 231.176 1.86512 0.434212 0
M  V30 2564 H 229.481 2.59248 2.93764 0
M  V30 2565 H 231.178 2.92933 2.73845 0
M  V30 2566 H 227.768 3.92953 1.71132 0
M  V30 2567 H 231.952 4.80034 1.26021 0
M  V30 2568 H 227.208 6.07855 0.657399 0
M  V30 2569 H 231.382 6.96071 0.213983 0
M  V30 2570 H 229.009 7.60143 -0.0932606 0
M  V30 2571 N 230.584 -0.659388 1.43143 0
M  V30 2572 C 231.861 -1.41627 1.34912 0
M  V30 2573 C 232.241 -2.11099 -0.00607785 0
M  V30 2574 O 231.589 -2.04353 -1.02236 0
M  V30 2575 C 231.799 -2.40604 2.52805 0
M  V30 2576 C 233.147 -3.04789 2.95616 0
M  V30 2577 O 234.171 -2.50932 2.52807 0
M  V30 2578 O 233.03 -4.02421 3.69756 0
M  V30 2579 H 230.124 -0.63246 0.532844 0
M  V30 2580 H 232.67 -0.686814 1.5518 0
M  V30 2581 H 231.442 -1.88174 3.43083 0
M  V30 2582 H 231.065 -3.21009 2.34604 0
M  V30 2583 N 232.062 -1.29571 -0.897171 0
M  V30 2584 C 233.308 -1.17863 -1.65034 0
M  V30 2585 C 233.641 0.268729 -1.92332 0
M  V30 2586 O 232.916 1.19378 -1.53555 0
M  V30 2587 C 233.199 -1.995 -2.99786 0
M  V30 2588 C 233.052 -3.5239 -2.79538 0
M  V30 2589 C 234.371 -1.82335 -4.00552 0
M  V30 2590 H 231.49 -0.429528 -0.598895 0
M  V30 2591 H 234.132 -1.59072 -1.03905 0
M  V30 2592 H 232.282 -1.64485 -3.51962 0
M  V30 2593 H 233.954 -3.97401 -2.34244 0
M  V30 2594 H 232.197 -3.77187 -2.14273 0
M  V30 2595 H 232.868 -4.04787 -3.75302 0
M  V30 2596 H 235.344 -2.12924 -3.57495 0
M  V30 2597 H 234.22 -2.41801 -4.92771 0
M  V30 2598 H 234.481 -0.779209 -4.35179 0
M  V30 2599 N 233.54 1.10788 -1.12088 0
M  V30 2600 C 234.786 1.8313 -0.885148 0
M  V30 2601 C 235.141 1.8336 0.582839 0
M  V30 2602 O 234.434 1.28062 1.42516 0
M  V30 2603 C 234.628 3.29294 -1.38926 0
M  V30 2604 C 234.457 3.43302 -2.90472 0
M  V30 2605 C 233.227 3.55928 -3.58669 0
M  V30 2606 C 235.425 3.37014 -3.88492 0
M  V30 2607 N 233.407 3.58475 -4.98366 0
M  V30 2608 C 234.778 3.46263 -5.14298 0
M  V30 2609 C 236.833 3.20589 -3.80955 0
M  V30 2610 C 235.536 3.4078 -6.33452 0
M  V30 2611 C 237.562 3.16427 -4.99628 0
M  V30 2612 C 236.924 3.26253 -6.2429 0
M  V30 2613 H 233.023 0.685054 -0.377128 0
M  V30 2614 H 235.607 1.3251 -1.4265 0
M  V30 2615 H 233.778 3.78416 -0.874999 0
M  V30 2616 H 235.51 3.89578 -1.09596 0
M  V30 2617 H 232.265 3.58779 -3.09151 0
M  V30 2618 H 232.689 3.6337 -5.71219 0
M  V30 2619 H 237.331 3.11873 -2.85474 0
M  V30 2620 H 235.049 3.48263 -7.29204 0
M  V30 2621 H 238.635 3.04874 -4.95523 0
M  V30 2622 H 237.515 3.2303 -7.14578 0
M  V30 2623 N 235.018 0.912232 1.28515 0
M  V30 2624 C 235.95 0.35676 2.26406 0
M  V30 2625 C 236.963 -0.503933 1.54804 0
M  V30 2626 O 238.152 -0.319059 1.75625 0
M  V30 2627 C 235.252 -0.508825 3.35058 0
M  V30 2628 C 234.425 0.329007 4.36161 0
M  V30 2629 C 233.484 -0.471422 5.24084 0
M  V30 2630 O 232.51 0.115482 5.69083 0
M  V30 2631 N 233.712 -1.77479 5.52704 0
M  V30 2632 H 236.477 1.19818 2.74707 0
M  V30 2633 H 234.038 0.778022 1.4198 0
M  V30 2634 H 236.03 -1.051 3.90815 0
M  V30 2635 H 234.6 -1.25095 2.86478 0
M  V30 2636 H 233.82 1.05256 3.79888 0
M  V30 2637 H 235.108 0.90234 5.00735 0
M  V30 2638 H 234.506 -2.27417 5.17975 0
M  V30 2639 H 233.063 -2.26382 6.11224 0
M  V30 2640 N 236.496 -1.42363 0.676048 0
M  V30 2641 C 237.444 -2.32596 -0.0131507 0
M  V30 2642 C 238.438 -1.49891 -0.789238 0
M  V30 2643 O 239.644 -1.65955 -0.697061 0
M  V30 2644 H 236.019 -0.751647 -0.0230481 0
M  V30 2645 H 237.99 -2.88421 0.765243 0
M  V30 2646 C 236.739 -3.34479 -0.949702 0
M  V30 2647 H 236.062 -3.98158 -0.361938 0
M  V30 2648 H 237.502 -4.00199 -1.4006 0
M  V30 2649 C 235.961 -2.66838 -2.05667 0
M  V30 2650 O 236.491 -2.50124 -3.14326 0
M  V30 2651 N 234.697 -2.25843 -1.82875 0
M  V30 2652 H 234.244 -2.39637 -0.945085 0
M  V30 2653 H 234.202 -1.80918 -2.5713 0
M  V30 2654 N 237.974 -0.419461 -1.51915 0
M  V30 2655 C 239.22 0.153166 -2.02221 0
M  V30 2656 C 239.553 1.43907 -1.30401 0
M  V30 2657 O 238.828 1.90055 -0.413438 0
M  V30 2658 C 239.111 0.390291 -3.57979 0
M  V30 2659 C 238.964 -0.913014 -4.40436 0
M  V30 2660 C 240.283 1.16794 -4.2432 0
M  V30 2661 H 237.402 0.0541924 -0.735005 0
M  V30 2662 H 240.044 -0.554955 -1.81715 0
M  V30 2663 H 238.194 0.993491 -3.75582 0
M  V30 2664 H 239.866 -1.54882 -4.34522 0
M  V30 2665 H 238.109 -1.52168 -4.06236 0
M  V30 2666 H 238.78 -0.701361 -5.47526 0
M  V30 2667 H 241.256 0.657161 -4.10878 0
M  V30 2668 H 240.132 1.3026 -5.3322 0
M  V30 2669 H 240.393 2.19132 -3.83971 0
M  V30 2670 N 239.452 1.56882 -0.150215 0
M  V30 2671 C 240.68 2.00593 0.506948 0
M  V30 2672 C 241.095 1.03033 1.58208 0
M  V30 2673 O 240.452 0.0278396 1.82479 0
M  V30 2674 C 240.503 3.44209 1.10465 0
M  V30 2675 O 240.224 4.3804 0.0724636 0
M  V30 2676 C 241.725 4.03214 1.84211 0
M  V30 2677 H 238.945 0.65795 0.13169 0
M  V30 2678 H 241.489 2.03018 -0.245743 0
M  V30 2679 H 239.644 3.42625 1.80795 0
M  V30 2680 H 240.058 5.22007 0.510793 0
M  V30 2681 H 241.532 5.0569 2.21318 0
M  V30 2682 H 242.009 3.44107 2.72923 0
M  V30 2683 H 242.615 4.08437 1.18572 0
M  V30 2684 N 240.93 -0.123565 1.57115 0
M  V30 2685 C 242.341 -0.681198 1.73829 0
M  V30 2686 C 242.692 -1.80535 0.768214 0
M  V30 2687 O 241.817 -2.16317 -0.0599103 0
M  V30 2688 C 242.412 -1.24246 3.15196 0
M  V30 2689 C 240.971 -1.74643 3.33432 0
M  V30 2690 C 240.118 -0.644284 2.69711 0
M  V30 2691 H 243.069 0.102315 1.5837 0
M  V30 2692 H 243.09 -2.11216 3.16493 0
M  V30 2693 H 242.602 -0.424062 3.85776 0
M  V30 2694 H 240.703 -2.58974 2.67886 0
M  V30 2695 H 240.816 -1.85902 4.41562 0
M  V30 2696 H 239.18 -1.07676 2.3082 0
M  V30 2697 H 239.963 0.163058 3.42913 0
M  V30 2698 N 242.408 -1.52605 -0.393616 0
M  V30 2699 C 243.338 -1.80022 -1.48709 0
M  V30 2700 C 244.319 -0.651995 -1.57108 0
M  V30 2701 O 245.504 -0.89913 -1.72132 0
M  V30 2702 C 242.634 -1.96492 -2.86371 0
M  V30 2703 C 241.588 -3.12161 -2.92813 0
M  V30 2704 C 240.914 -3.13877 -4.3288 0
M  V30 2705 C 242.214 -4.51322 -2.6288 0
M  V30 2706 H 243.908 -2.71589 -1.26015 0
M  V30 2707 H 241.454 -1.30684 -0.604778 0
M  V30 2708 H 243.407 -2.14255 -3.62867 0
M  V30 2709 H 242.131 -1.01611 -3.10391 0
M  V30 2710 H 240.79 -2.94173 -2.18764 0
M  V30 2711 H 240.438 -2.16687 -4.53933 0
M  V30 2712 H 240.138 -3.91576 -4.38112 0
M  V30 2713 H 241.662 -3.33789 -5.1129 0
M  V30 2714 H 243.076 -4.69435 -3.29096 0
M  V30 2715 H 241.473 -5.31053 -2.79468 0
M  V30 2716 H 242.543 -4.58353 -1.58242 0
M  V30 2717 N 243.887 0.651787 -1.4349 0
M  V30 2718 C 245.115 1.43937 -1.48626 0
M  V30 2719 C 245.53 1.8851 -0.104587 0
M  V30 2720 O 244.887 1.5958 0.885464 0
M  V30 2721 C 244.938 2.6734 -2.43334 0
M  V30 2722 O 244.659 2.24631 -3.76128 0
M  V30 2723 C 246.16 3.60683 -2.57726 0
M  V30 2724 H 243.38 0.44213 -0.504739 0
M  V30 2725 H 245.924 0.798944 -1.88248 0
M  V30 2726 H 244.079 3.2752 -2.06904 0
M  V30 2727 H 244.493 3.04485 -4.2707 0
M  V30 2728 H 245.967 4.43933 -3.28067 0
M  V30 2729 H 246.444 4.08126 -1.62265 0
M  V30 2730 H 247.05 3.06384 -2.94973 0
M  V30 2731 N 245.365 1.30045 0.890287 0
M  V30 2732 C 246.612 1.18561 1.64163 0
M  V30 2733 C 246.94 -0.260852 1.92743 0
M  V30 2734 O 246.195 -1.20376 1.54299 0
M  V30 2735 C 246.494 1.95409 2.99249 0
M  V30 2736 C 246.16 3.45066 2.90242 0
M  V30 2737 C 244.822 3.85878 2.87492 0
M  V30 2738 C 247.174 4.4039 2.78758 0
M  V30 2739 C 244.502 5.20314 2.7109 0
M  V30 2740 C 246.854 5.74928 2.63894 0
M  V30 2741 C 245.518 6.14986 2.59516 0
M  V30 2742 H 244.788 0.433846 0.600715 0
M  V30 2743 H 247.435 1.61088 1.03552 0
M  V30 2744 H 245.74 1.45501 3.63781 0
M  V30 2745 H 247.437 1.8392 3.56334 0
M  V30 2746 H 244.027 3.12631 2.93189 0
M  V30 2747 H 248.211 4.09806 2.79952 0
M  V30 2748 H 243.467 5.50449 2.66112 0
M  V30 2749 H 247.641 6.48434 2.53981 0
M  V30 2750 H 245.268 7.19104 2.46565 0
M  V30 2751 N 246.843 -1.10192 1.12674 0
M  V30 2752 C 247.753 -2.20172 0.810026 0
M  V30 2753 C 248.769 -1.72821 -0.202188 0
M  V30 2754 O 249.945 -2.01369 -0.0351691 0
M  V30 2755 C 247.01 -3.45631 0.272007 0
M  V30 2756 C 246.071 -4.07704 1.34447 0
M  V30 2757 C 245.304 -5.27175 0.832029 0
M  V30 2758 O 245.527 -5.69425 -0.333284 0
M  V30 2759 O 244.461 -5.80168 1.60277 0
M  V30 2760 H 248.287 -2.49701 1.72867 0
M  V30 2761 H 245.872 -1.18977 0.903597 0
M  V30 2762 H 247.754 -4.21394 -0.0230219 0
M  V30 2763 H 246.429 -3.17723 -0.619164 0
M  V30 2764 H 245.336 -3.33614 1.6927 0
M  V30 2765 H 246.669 -4.3982 2.2095 0
M  V30 2766 N 248.321 -0.919034 -1.28029 0
M  V30 2767 C 249.231 -0.416756 -2.30869 0
M  V30 2768 C 250.247 0.498235 -1.66714 0
M  V30 2769 O 251.423 0.383144 -1.97722 0
M  V30 2770 C 248.488 0.330274 -3.45123 0
M  V30 2771 C 247.549 -0.618578 -4.2482 0
M  V30 2772 C 246.782 0.0928959 -5.33619 0
M  V30 2773 O 247.005 1.31375 -5.55065 0
M  V30 2774 O 245.939 -0.574499 -5.99152 0
M  V30 2775 H 249.765 -1.27043 -2.75851 0
M  V30 2776 H 247.35 -0.684052 -1.3282 0
M  V30 2777 H 249.232 0.751972 -4.14636 0
M  V30 2778 H 247.907 1.1597 -3.02213 0
M  V30 2779 H 246.814 -1.08978 -3.57875 0
M  V30 2780 H 248.147 -1.41497 -4.71423 0
M  V30 2781 N 249.799 1.42003 -0.683588 0
M  V30 2782 C 251.045 2.01712 -0.209825 0
M  V30 2783 C 251.378 1.53968 1.18353 0
M  V30 2784 O 250.653 0.745661 1.79639 0
M  V30 2785 C 250.936 3.59202 -0.254197 0
M  V30 2786 C 250.789 4.17102 -1.68363 0
M  V30 2787 C 252.108 4.38344 0.392709 0
M  V30 2788 H 249.227 0.732891 -0.0777189 0
M  V30 2789 H 251.869 1.68909 -0.87004 0
M  V30 2790 H 250.019 3.87278 0.307954 0
M  V30 2791 H 251.691 3.99946 -2.29871 0
M  V30 2792 H 249.934 3.72597 -2.22157 0
M  V30 2793 H 250.605 5.26249 -1.6663 0
M  V30 2794 H 253.081 4.16011 -0.0859162 0
M  V30 2795 H 251.957 5.47901 0.331063 0
M  V30 2796 H 252.218 4.16887 1.47164 0
M  V30 2797 N 251.277 0.427512 1.51691 0
M  V30 2798 C 252.688 -0.0378867 1.86662 0
M  V30 2799 C 253.039 -1.42819 1.34525 0
M  V30 2800 O 252.164 -2.05037 0.692014 0
M  V30 2801 C 252.759 -0.0755266 3.38716 0
M  V30 2802 C 251.318 -0.485309 3.73258 0
M  V30 2803 C 250.465 0.328399 2.75349 0
M  V30 2804 H 253.416 0.64379 1.45055 0
M  V30 2805 H 253.437 -0.887056 3.70016 0
M  V30 2806 H 252.949 0.936487 3.76632 0
M  V30 2807 H 251.05 -1.50329 3.40928 0
M  V30 2808 H 251.163 -0.21693 4.78609 0
M  V30 2809 H 249.527 -0.211905 2.53817 0
M  V30 2810 H 250.31 1.3391 3.16106 0
M  V30 2811 N 252.755 -1.56801 0.158532 0
M  V30 2812 C 253.985 -2.00568 -0.495583 0
M  V30 2813 C 254.393 -1.03774 -1.58201 0
M  V30 2814 O 253.736 -0.0285797 -1.83678 0
M  V30 2815 C 253.798 -3.40768 -1.14532 0
M  V30 2816 C 253.462 -4.56553 -0.202101 0
M  V30 2817 C 254.459 -5.16714 0.574675 0
M  V30 2818 C 252.144 -5.02197 -0.101648 0
M  V30 2819 C 254.138 -6.20939 1.43924 0
M  V30 2820 C 251.825 -6.06274 0.766508 0
M  V30 2821 C 252.823 -6.65515 1.53555 0
M  V30 2822 O 252.511 -7.67575 2.38922 0
M  V30 2823 H 252.243 -0.662893 -0.13247 0
M  V30 2824 H 254.797 -2.03829 0.253559 0
M  V30 2825 H 253.027 -3.34381 -1.94233 0
M  V30 2826 H 254.716 -3.6857 -1.70033 0
M  V30 2827 H 255.482 -4.82341 0.507167 0
M  V30 2828 H 251.361 -4.55807 -0.689994 0
M  V30 2829 H 254.905 -6.67107 2.03996 0
M  V30 2830 H 250.802 -6.40073 0.835266 0
M  V30 2831 H 251.57 -7.84844 2.32296 0
M  V30 2832 N 254.233 0.115231 -1.57178 0
M  V30 2833 C 255.458 0.840354 -1.89612 0
M  V30 2834 C 255.883 1.72464 -0.750845 0
M  V30 2835 O 255.241 1.78826 0.298478 0
M  V30 2836 C 255.289 1.64654 -3.20814 0
M  V30 2837 O 254.393 2.7538 -3.06985 0
M  V30 2838 H 253.734 0.232158 -0.622092 0
M  V30 2839 H 256.264 0.0964977 -2.04372 0
M  V30 2840 H 256.274 2.03499 -3.53627 0
M  V30 2841 H 254.949 0.997416 -4.03763 0
M  V30 2842 H 253.526 2.3971 -2.85646 0
M  V30 2843 N 255.711 1.52812 0.385517 0
M  V30 2844 C 256.621 1.80766 1.49535 0
M  V30 2845 C 257.637 0.694651 1.59532 0
M  V30 2846 O 258.813 0.982611 1.75803 0
M  V30 2847 C 255.878 1.97381 2.85029 0
M  V30 2848 C 254.939 3.21295 2.84724 0
M  V30 2849 C 254.172 3.37108 4.13756 0
M  V30 2850 O 254.395 2.5765 5.08893 0
M  V30 2851 O 253.329 4.30378 4.20783 0
M  V30 2852 H 257.155 2.75015 1.28842 0
M  V30 2853 H 254.74 1.37946 0.573697 0
M  V30 2854 H 256.622 2.09996 3.65349 0
M  V30 2855 H 255.297 1.06322 3.05741 0
M  V30 2856 H 254.204 3.1412 2.03174 0
M  V30 2857 H 255.537 4.12212 2.68965 0
M  V30 2858 N 257.189 -0.644168 1.43834 0
M  V30 2859 C 258.119 -1.76814 1.52509 0
M  V30 2860 C 259.1 -1.65823 0.379052 0
M  V30 2861 O 260.285 -1.84781 0.597466 0
M  V30 2862 C 257.415 -3.15288 1.4564 0
M  V30 2863 C 256.369 -3.41053 2.58586 0
M  V30 2864 C 255.695 -4.79421 2.36769 0
M  V30 2865 C 256.995 -3.34902 4.00797 0
M  V30 2866 H 258.689 -1.69812 2.46586 0
M  V30 2867 H 256.235 -0.815542 1.1868 0
M  V30 2868 H 258.188 -3.93681 1.50311 0
M  V30 2869 H 256.912 -3.23043 0.480725 0
M  V30 2870 H 255.571 -2.65035 2.53282 0
M  V30 2871 H 255.219 -4.83863 1.37424 0
M  V30 2872 H 254.919 -4.9762 3.12487 0
M  V30 2873 H 256.443 -5.6006 2.43238 0
M  V30 2874 H 257.857 -4.03218 4.07539 0
M  V30 2875 H 256.254 -3.64637 4.76613 0
M  V30 2876 H 257.324 -2.32928 4.25291 0
M  V30 2877 N 258.668 -1.30515 -0.883378 0
M  V30 2878 C 259.578 -1.18959 -2.02203 0
M  V30 2879 C 260.594 -0.109172 -1.73657 0
M  V30 2880 O 261.77 -0.324413 -1.9877 0
M  V30 2881 C 258.835 -0.883871 -3.35244 0
M  V30 2882 C 257.896 -2.04982 -3.77201 0
M  V30 2883 C 257.129 -1.75859 -5.03894 0
M  V30 2884 O 257.352 -0.687276 -5.66244 0
M  V30 2885 O 256.286 -2.61146 -5.42297 0
M  V30 2886 H 260.112 -2.14616 -2.1488 0
M  V30 2887 H 257.697 -1.10124 -1.0096 0
M  V30 2888 H 259.579 -0.728644 -4.15053 0
M  V30 2889 H 258.254 0.0427798 -3.23672 0
M  V30 2890 H 257.161 -2.26038 -2.9809 0
M  V30 2891 H 258.494 -2.95825 -3.93381 0
M  V30 2892 N 260.146 1.09593 -1.13257 0
M  V30 2893 C 261.094 2.18271 -0.803783 0
M  V30 2894 C 262.088 1.68054 0.213148 0
M  V30 2895 O 263.294 1.79862 0.0704699 0
M  V30 2896 H 259.669 0.711949 -0.242143 0
M  V30 2897 H 261.64 2.43235 -1.72856 0
M  V30 2898 C 260.389 3.46536 -0.28424 0
M  V30 2899 H 259.712 3.85545 -1.05807 0
M  V30 2900 H 261.152 4.23899 -0.0925945 0
M  V30 2901 C 259.611 3.22036 0.989684 0
M  V30 2902 O 260.141 3.44509 2.06584 0
M  V30 2903 N 258.347 2.7565 0.920086 0
M  V30 2904 H 257.894 2.57562 0.0442019 0
M  V30 2905 H 257.852 2.59635 1.77306 0
M  V30 2906 N 261.624 0.925811 1.2754 0
M  V30 2907 C 262.872 0.564138 1.94067 0
M  V30 2908 C 263.193 -0.897188 1.73134 0
M  V30 2909 O 262.463 -1.63573 1.07799 0
M  V30 2910 H 261.043 0.205645 0.718136 0
M  V30 2911 H 263.705 1.1778 1.55287 0
M  V30 2912 H 262.801 0.76881 3.02483 0
M  V30 2913 N 263.102 -1.41638 0.69111 0
M  V30 2914 C 264.049 -2.30789 0.0229705 0
M  V30 2915 C 265.019 -1.46863 -0.775911 0
M  V30 2916 O 266.204 -1.75661 -0.74485 0
M  V30 2917 C 263.344 -3.32868 -0.910666 0
M  V30 2918 C 262.457 -4.31875 -0.103874 0
M  V30 2919 C 261.592 -5.21024 -1.03475 0
M  V30 2920 C 260.631 -6.11702 -0.220598 0
M  V30 2921 N 259.768 -6.93349 -1.10504 0
M  V30 2922 H 264.608 -2.87366 0.788978 0
M  V30 2923 H 262.145 -1.41535 0.400794 0
M  V30 2924 H 264.103 -3.90596 -1.46597 0
M  V30 2925 H 262.733 -2.77851 -1.64312 0
M  V30 2926 H 261.785 -3.76131 0.568285 0
M  V30 2927 H 263.097 -4.96003 0.527504 0
M  V30 2928 H 262.251 -5.83565 -1.65943 0
M  V30 2929 H 260.99 -4.57112 -1.69999 0
M  V30 2930 H 259.995 -5.48215 0.417187 0
M  V30 2931 H 261.22 -6.77668 0.440784 0
M  V30 2932 H 259.166 -6.3205 -1.75638 0
M  V30 2933 H 259.083 -7.54146 -0.529125 0
M  V30 2934 H 260.351 -7.60362 -1.71667 0
M  V30 2935 N 264.58 -0.43555 -1.51462 0
M  V30 2936 C 265.996 -0.0877501 -1.59359 0
M  V30 2937 C 266.196 1.4027 -1.4466 0
M  V30 2938 O 265.252 2.17243 -1.28693 0
M  V30 2939 C 266.565 -0.606264 -2.94525 0
M  V30 2940 C 268.113 -0.566548 -3.0783 0
M  V30 2941 C 268.588 -1.06201 -4.45517 0
M  V30 2942 N 270.079 -1.01992 -4.51832 0
M  V30 2943 C 270.814 -1.37417 -5.5669 0
M  V30 2944 N 270.31 -1.80119 -6.68976 0
M  V30 2945 N 272.103 -1.29245 -5.47039 0
M  V30 2946 H 264.254 -1.40533 -1.59261 0
M  V30 2947 H 266.517 -0.578992 -0.750648 0
M  V30 2948 H 266.223 -1.64901 -3.10645 0
M  V30 2949 H 266.097 -0.0302097 -3.77188 0
M  V30 2950 H 268.484 0.467208 -2.91378 0
M  V30 2951 H 268.565 -1.17898 -2.2701 0
M  V30 2952 H 268.209 -2.09422 -4.62715 0
M  V30 2953 H 268.139 -0.426127 -5.24873 0
M  V30 2954 H 270.63 -0.706308 -3.71241 0
M  V30 2955 H 270.943 -2.05392 -7.45006 0
M  V30 2956 H 269.288 -1.84044 -6.70189 0
M  V30 2957 H 272.479 -0.957522 -4.58202 0
M  V30 2958 H 272.652 -1.57182 -6.28648 0
M  V30 2959 N 266.058 1.56714 -0.166846 0
M  V30 2960 C 267.335 1.88412 0.525373 0
M  V30 2961 C 267.715 1.07602 1.81618 0
M  V30 2962 O 267.063 0.168621 2.27877 0
M  V30 2963 C 267.273 3.40363 0.771613 0
M  V30 2964 C 268.621 4.10007 1.1036 0
M  V30 2965 O 269.645 3.45655 0.860304 0
M  V30 2966 O 268.504 5.2369 1.56239 0
M  V30 2967 H 265.598 0.781587 0.270278 0
M  V30 2968 H 268.144 1.68458 -0.204946 0
M  V30 2969 H 266.916 3.91046 -0.141093 0
M  V30 2970 H 266.539 3.65914 1.55541 0
M  V30 2971 N 267.536 -0.106894 1.57237 0
M  V30 2972 C 268.782 -0.81373 1.85759 0
M  V30 2973 C 269.115 -1.78952 0.754315 0
M  V30 2974 O 268.39 -1.93029 -0.23879 0
M  V30 2975 C 268.673 -1.55293 3.24894 0
M  V30 2976 C 268.526 -0.595929 4.45835 0
M  V30 2977 C 269.845 -2.5063 3.61763 0
M  V30 2978 H 266.964 -0.294369 0.67566 0
M  V30 2979 H 269.606 -0.0776472 1.89841 0
M  V30 2980 H 267.756 -2.1804 3.21544 0
M  V30 2981 H 269.428 0.0236262 4.61294 0
M  V30 2982 H 267.671 0.0916191 4.33703 0
M  V30 2983 H 268.342 -1.15004 5.39887 0
M  V30 2984 H 270.818 -1.97982 3.65981 0
M  V30 2985 H 269.694 -2.99376 4.60071 0
M  V30 2986 H 269.955 -3.3385 2.89821 0
M  V30 2987 N 269.014 -1.53014 -0.377408 0
M  V30 2988 C 270.291 -1.59215 -1.13622 0
M  V30 2989 C 270.671 -0.392407 -2.07421 0
M  V30 2990 O 270.019 0.618342 -2.19975 0
M  V30 2991 C 270.229 -2.93669 -1.88573 0
M  V30 2992 C 271.577 -3.47822 -2.43526 0
M  V30 2993 O 272.601 -2.9562 -1.98715 0
M  V30 2994 O 271.46 -4.39055 -3.25412 0
M  V30 2995 H 268.554 -0.642625 -0.52054 0
M  V30 2996 H 271.1 -1.65353 -0.381625 0
M  V30 2997 H 269.872 -3.7243 -1.20048 0
M  V30 2998 H 269.495 -2.90968 -2.70968 0
M  V30 2999 N 270.492 0.636531 -1.44174 0
M  V30 3000 C 271.741 1.39213 -1.45954 0
M  V30 3001 C 272.054 1.95374 -0.0939119 0
M  V30 3002 O 273.26 2.71498 0.0107767 0
M  V30 3003 C 271.716 2.52025 -2.56927 0
M  V30 3004 C 271.324 2.024 -3.99673 0
M  V30 3005 C 273.068 3.29269 -2.67922 0
M  V30 3006 C 270.975 3.12521 -5.0208 0
M  V30 3007 H 269.905 0.523132 -0.542999 0
M  V30 3008 H 272.556 0.685349 -1.70221 0
M  V30 3009 H 270.938 3.25253 -2.25891 0
M  V30 3010 H 272.112 1.36073 -4.40251 0
M  V30 3011 H 270.427 1.37987 -3.92872 0
M  V30 3012 H 273.024 4.11352 -3.41605 0
M  V30 3013 H 273.367 3.78397 -1.73555 0
M  V30 3014 H 273.9 2.63129 -2.98342 0
M  V30 3015 H 270.639 2.68343 -5.98057 0
M  V30 3016 H 270.159 3.77507 -4.66099 0
M  V30 3017 H 271.838 3.77385 -5.25538 0
M  V30 3018 N 271.97 1.30982 0.876444 0
M  V30 3019 C 273.198 1.23242 1.6619 0
M  V30 3020 C 273.613 -0.203345 1.87702 0
M  V30 3021 O 272.97 -1.13317 1.43057 0
M  V30 3022 C 273.021 1.96623 3.03351 0
M  V30 3023 O 272.742 3.34594 2.82804 0
M  V30 3024 C 274.243 1.95644 3.97792 0
M  V30 3025 H 271.463 0.426126 0.518322 0
M  V30 3026 H 274.007 1.7275 1.09442 0
M  V30 3027 H 272.162 1.50892 3.56806 0
M  V30 3028 H 272.576 3.71873 3.69879 0
M  V30 3029 H 274.05 2.51511 4.91372 0
M  V30 3030 H 274.527 0.937395 4.2908 0
M  V30 3031 H 275.133 2.41225 3.50272 0
M  V30 3032 N 273.449 -1.08991 1.13837 0
M  V30 3033 C 274.698 -1.80631 0.897509 0
M  V30 3034 C 275.011 -1.86872 -0.57777 0
M  V30 3035 O 276.217 -2.54866 -0.935701 0
M  V30 3036 C 274.673 -3.24517 1.55618 0
M  V30 3037 C 274.281 -3.26529 3.0673 0
M  V30 3038 C 276.025 -4.00882 1.3962 0
M  V30 3039 C 273.932 -4.64965 3.65461 0
M  V30 3040 H 272.862 -0.67691 0.332129 0
M  V30 3041 H 275.513 -1.2246 1.3666 0
M  V30 3042 H 273.895 -3.82778 1.01476 0
M  V30 3043 H 275.069 -2.78008 3.67489 0
M  V30 3044 H 273.384 -2.63656 3.22296 0
M  V30 3045 H 275.981 -5.03167 1.80906 0
M  V30 3046 H 276.324 -4.14896 0.341578 0
M  V30 3047 H 276.857 -3.49075 1.90766 0
M  V30 3048 H 273.596 -4.56153 4.70749 0
M  V30 3049 H 273.116 -5.13792 3.09481 0
M  V30 3050 H 274.795 -5.3394 3.654 0
M  V30 3051 N 274.927 -0.932562 -1.27047 0
M  V30 3052 C 276.176 -0.571351 -1.93439 0
M  V30 3053 C 276.489 0.892467 -1.74053 0
M  V30 3054 O 277.695 1.36267 -2.34826 0
M  V30 3055 C 276.151 -0.97106 -3.46552 0
M  V30 3056 C 275.759 -2.4559 -3.74686 0
M  V30 3057 C 277.503 -0.681333 -4.18997 0
M  V30 3058 C 275.41 -2.79475 -5.21198 0
M  V30 3059 H 274.34 -0.209966 -0.724176 0
M  V30 3060 H 276.991 -1.13403 -1.44263 0
M  V30 3061 H 275.373 -0.336983 -3.94564 0
M  V30 3062 H 276.547 -3.13829 -3.37414 0
M  V30 3063 H 274.862 -2.71802 -3.15456 0
M  V30 3064 H 277.459 -0.910939 -5.26883 0
M  V30 3065 H 277.802 0.381628 -4.14547 0
M  V30 3066 H 278.335 -1.27473 -3.76823 0
M  V30 3067 H 275.074 -3.847 -5.30741 0
M  V30 3068 H 274.594 -2.1589 -5.596 0
M  V30 3069 H 276.273 -2.67478 -5.89122 0
M  V30 3070 N 276.405 1.4127 -0.698611 0
M  V30 3071 C 277.652 2.0118 -0.230865 0
M  V30 3072 C 277.98 1.55338 1.17049 0
M  V30 3073 O 277.235 0.756775 1.80475 0
M  V30 3074 C 277.534 3.56592 -0.240192 0
M  V30 3075 C 277.2 4.21955 -1.58948 0
M  V30 3076 C 275.862 4.39524 -1.95887 0
M  V30 3077 C 278.214 4.58576 -2.47704 0
M  V30 3078 C 275.542 4.90992 -3.2116 0
M  V30 3079 C 277.894 5.11435 -3.72313 0
M  V30 3080 C 276.558 5.27215 -4.0939 0
M  V30 3081 H 275.828 0.736169 -0.0844796 0
M  V30 3082 H 278.475 1.69124 -0.8983 0
M  V30 3083 H 276.78 3.88456 0.510797 0
M  V30 3084 H 278.477 4.00758 0.139296 0
M  V30 3085 H 275.067 4.08657 -1.29219 0
M  V30 3086 H 279.251 4.44654 -2.20445 0
M  V30 3087 H 274.507 5.01393 -3.49878 0
M  V30 3088 H 278.681 5.38752 -4.4127 0
M  V30 3089 H 276.308 5.66859 -5.06533 0
M  V30 3090 N 277.883 0.443576 1.51229 0
M  V30 3091 C 278.846 -0.353132 2.26463 0
M  V30 3092 C 279.846 -0.944338 1.3015 0
M  V30 3093 O 281.036 -0.817813 1.5381 0
M  V30 3094 C 278.168 -1.50023 3.06114 0
M  V30 3095 H 279.361 0.3063 2.98332 0
M  V30 3096 H 276.914 0.196902 1.55055 0
M  V30 3097 H 277.649 -2.19553 2.38677 0
M  V30 3098 H 277.434 -1.08241 3.76864 0
M  V30 3099 H 278.924 -2.06296 3.63087 0
M  V30 3100 N 279.361 -1.56624 0.175154 0
M  V30 3101 C 280.586 -2.01813 -0.478137 0
M  V30 3102 C 281.011 -1.05457 -1.55757 0
M  V30 3103 O 280.369 -0.0347439 -1.81267 0
M  V30 3104 C 280.417 -3.45581 -1.02987 0
M  V30 3105 O 279.521 -3.52305 -2.14371 0
M  V30 3106 H 278.862 -0.65413 -0.114059 0
M  V30 3107 H 281.392 -2.02673 0.280173 0
M  V30 3108 H 281.402 -3.84965 -1.35151 0
M  V30 3109 H 280.077 -4.1521 -0.239556 0
M  V30 3110 H 278.654 -3.24783 -1.83222 0
M  V30 3111 N 280.839 0.0985539 -1.57292 0
M  V30 3112 C 282.087 0.801092 -1.85545 0
M  V30 3113 C 282.408 1.79438 -0.763353 0
M  V30 3114 O 281.678 1.94763 0.21073 0
M  V30 3115 H 280.258 0.29884 -0.684619 0
M  V30 3116 H 282.92 0.0810064 -1.94732 0
M  V30 3117 H 282.016 1.3338 -2.82163 0
M  V30 3118 N 282.317 1.53212 0.369288 0
M  V30 3119 C 283.564 1.69215 1.11232 0
M  V30 3120 C 283.892 0.442048 1.8941 0
M  V30 3121 O 283.147 -0.575944 1.87033 0
M  V30 3122 C 283.446 2.89101 2.10132 0
M  V30 3123 C 283.112 4.25758 1.48463 0
M  V30 3124 C 281.774 4.6292 1.31372 0
M  V30 3125 C 284.126 5.10757 1.03811 0
M  V30 3126 C 281.454 5.82722 0.68207 0
M  V30 3127 C 283.806 6.31201 0.420487 0
M  V30 3128 C 282.47 6.67079 0.237038 0
M  V30 3129 H 281.74 0.619201 0.407027 0
M  V30 3130 H 284.387 1.87391 0.394552 0
M  V30 3131 H 282.692 2.65421 2.88199 0
M  V30 3132 H 284.389 2.98676 2.6757 0
M  V30 3133 H 280.979 3.96494 1.62758 0
M  V30 3134 H 285.163 4.82599 1.1581 0
M  V30 3135 H 280.419 6.09113 0.528316 0
M  V30 3136 H 284.593 6.96368 0.0662874 0
M  V30 3137 H 282.22 7.59774 -0.254477 0
M  V30 3138 N 283.795 -0.628877 1.44509 0
M  V30 3139 C 284.745 -1.7345 1.47983 0
M  V30 3140 C 285.729 -1.5715 0.345373 0
M  V30 3141 O 286.921 -1.66848 0.590829 0
M  V30 3142 C 284.05 -3.12143 1.42904 0
M  V30 3143 C 283.136 -3.33906 2.61472 0
M  V30 3144 N 283.527 -3.26024 3.86706 0
M  V30 3145 C 281.825 -3.64709 2.56716 0
M  V30 3146 C 282.526 -3.48536 4.65722 0
M  V30 3147 N 281.502 -3.71517 3.96832 0
M  V30 3148 H 285.304 -1.65818 2.42655 0
M  V30 3149 H 282.818 -0.831419 1.39503 0
M  V30 3150 H 284.815 -3.91433 1.43476 0
M  V30 3151 H 283.475 -3.2094 0.492717 0
M  V30 3152 H 284.486 -3.04893 4.18641 0
M  V30 3153 H 281.163 -3.80473 1.71891 0
M  V30 3154 H 282.553 -3.48016 5.74747 0
M  V30 3155 N 285.273 -1.31445 -0.869486 0
M  V30 3156 C 286.521 -1.20918 -1.61936 0
M  V30 3157 C 286.842 0.232683 -1.93607 0
M  V30 3158 O 286.112 1.15352 -1.58338 0
M  V30 3159 H 284.692 -0.44454 -0.600328 0
M  V30 3160 H 287.354 -1.64776 -1.0409 0
M  V30 3161 H 286.45 -1.78124 -2.56278 0
M  V30 3162 N 286.751 1.08385 -1.14413 0
M  V30 3163 C 288.028 1.77429 -0.823297 0
M  V30 3164 C 288.408 1.9974 0.683163 0
M  V30 3165 O 287.756 1.60739 1.62405 0
M  V30 3166 C 287.966 3.09004 -1.62227 0
M  V30 3167 C 289.314 3.83532 -1.82177 0
M  V30 3168 O 290.338 3.18786 -1.58915 0
M  V30 3169 O 289.197 4.99792 -2.21067 0
M  V30 3170 H 286.291 0.769999 -0.301712 0
M  V30 3171 H 288.837 1.14846 -1.24934 0
M  V30 3172 H 287.609 2.88316 -2.64555 0
M  V30 3173 H 287.232 3.79316 -1.19187 0
M  V30 3174 N 288.23 0.939286 1.26551 0
M  V30 3175 C 289.455 0.602008 1.98471 0
M  V30 3176 C 289.88 -0.815624 1.69497 0
M  V30 3177 O 289.238 -1.54912 0.941905 0
M  V30 3178 C 289.286 0.848407 3.50477 0
M  V30 3179 O 288.39 -0.0804009 4.12322 0
M  V30 3180 H 287.731 0.23049 0.622712 0
M  V30 3181 H 290.261 1.2617 1.61066 0
M  V30 3182 H 290.271 0.768553 4.00696 0
M  V30 3183 H 288.946 1.88171 3.70897 0
M  V30 3184 H 287.523 0.0503508 3.72866 0
M  V30 3185 N 289.708 -1.40897 0.706093 0
M  V30 3186 C 290.933 -2.05895 0.249435 0
M  V30 3187 C 291.358 -1.52823 -1.09666 0
M  V30 3188 O 290.716 -0.659589 -1.68876 0
M  V30 3189 C 290.764 -3.59872 0.22904 0
M  V30 3190 O 289.868 -4.04708 -0.792784 0
M  V30 3191 H 289.209 -0.653206 0.119241 0
M  V30 3192 H 291.739 -1.80471 0.96391 0
M  V30 3193 H 291.749 -4.07951 0.0634791 0
M  V30 3194 H 290.424 -3.97866 1.21141 0
M  V30 3195 H 289.001 -3.68111 -0.59572 0
M  V30 3196 N 291.186 -0.45159 -1.50991 0
M  V30 3197 C 292.597 0.00818571 -1.86698 0
M  V30 3198 C 292.948 1.40661 -1.3678 0
M  V30 3199 O 292.073 2.0391 -0.724546 0
M  V30 3200 C 292.668 0.0216303 -3.38793 0
M  V30 3201 C 291.227 0.425865 -3.73983 0
M  V30 3202 C 290.374 -0.372163 -2.74791 0
M  V30 3203 H 293.325 -0.666785 -1.44013 0
M  V30 3204 H 293.346 0.828078 -3.7138 0
M  V30 3205 H 292.858 -0.996288 -3.75094 0
M  V30 3206 H 290.959 1.44886 -3.43277 0
M  V30 3207 H 291.072 0.140761 -4.78893 0
M  V30 3208 H 289.436 0.171498 -2.54122 0
M  V30 3209 H 290.219 -1.38922 -3.13935 0
M  V30 3210 N 292.664 1.56529 -0.183458 0
M  V30 3211 C 293.911 1.97244 0.458357 0
M  V30 3212 C 294.239 1.06992 1.62428 0
M  V30 3213 O 293.494 0.106542 1.9541 0
M  V30 3214 C 293.793 3.43939 0.971637 0
M  V30 3215 C 293.459 4.5083 -0.0796784 0
M  V30 3216 C 292.121 4.79786 -0.368584 0
M  V30 3217 C 294.473 5.15138 -0.792638 0
M  V30 3218 C 291.801 5.70345 -1.37563 0
M  V30 3219 C 294.153 6.06784 -1.78875 0
M  V30 3220 C 292.817 6.34102 -2.08497 0
M  V30 3221 H 292.087 0.721768 0.167725 0
M  V30 3222 H 294.734 1.89472 -0.277976 0
M  V30 3223 H 293.039 3.48724 1.78602 0
M  V30 3224 H 294.736 3.72791 1.47744 0
M  V30 3225 H 291.326 4.28317 0.155668 0
M  V30 3226 H 295.51 4.92868 -0.582659 0
M  V30 3227 H 290.766 5.89789 -1.61118 0
M  V30 3228 H 294.94 6.55677 -2.3465 0
M  V30 3229 H 292.567 7.04074 -2.86678 0
M  V30 3230 N 294.142 -0.090211 1.57342 0
M  V30 3231 C 295.419 -0.824761 1.77361 0
M  V30 3232 C 295.799 -1.96698 0.76637 0
M  V30 3233 O 295.147 -2.27586 -0.204179 0
M  V30 3234 C 295.357 -1.31481 3.23286 0
M  V30 3235 C 296.705 -1.75563 3.86604 0
M  V30 3236 O 297.729 -1.41093 3.27065 0
M  V30 3237 O 296.588 -2.39317 4.91314 0
M  V30 3238 H 293.682 -0.393776 0.727234 0
M  V30 3239 H 296.228 -0.0717138 1.69548 0
M  V30 3240 H 295 -0.496671 3.88135 0
M  V30 3241 H 294.623 -2.12973 3.35751 0
M  V30 3242 N 295.62 -1.53406 -0.361157 0
M  V30 3243 C 296.868 -1.69467 -1.10115 0
M  V30 3244 C 297.189 -0.451352 -1.89705 0
M  V30 3245 O 296.459 0.534636 -1.88463 0
M  V30 3246 H 295.039 -0.624749 -0.409508 0
M  V30 3247 H 297.701 -1.90609 -0.406699 0
M  V30 3248 H 296.797 -2.55774 -1.78847 0
M  V30 3249 N 297.098 0.621204 -1.44841 0
M  V30 3250 C 298.008 1.7612 -1.5498 0
M  V30 3251 C 299.024 1.68477 -0.434927 0
M  V30 3252 O 300.2 1.89076 -0.693693 0
M  V30 3253 C 297.265 3.1254 -1.50065 0
M  V30 3254 C 296.326 3.31741 -2.72482 0
M  V30 3255 C 295.559 4.61653 -2.67792 0
M  V30 3256 O 295.782 5.431 -1.74352 0
M  V30 3257 O 294.716 4.83271 -3.58794 0
M  V30 3258 H 298.542 1.70518 -2.51311 0
M  V30 3259 H 296.127 0.783643 -1.27198 0
M  V30 3260 H 298.009 3.93844 -1.49882 0
M  V30 3261 H 296.684 3.18663 -0.568806 0
M  V30 3262 H 295.591 2.50077 -2.7823 0
M  V30 3263 H 296.924 3.30486 -3.64746 0
M  V30 3264 N 298.576 1.31904 0.862503 0
M  V30 3265 C 299.824 1.21776 1.61292 0
M  V30 3266 C 300.145 -0.222413 1.93727 0
M  V30 3267 O 299.415 -1.1451 1.58947 0
M  V30 3268 H 297.995 0.447717 0.597962 0
M  V30 3269 H 300.657 1.65326 1.03215 0
M  V30 3270 H 299.753 1.7948 2.5533 0
M  V30 3271 N 300.054 -1.07777 1.14986 0
M  V30 3272 C 301.302 -1.79934 0.920235 0
M  V30 3273 C 301.623 -1.86955 -0.554336 0
M  V30 3274 O 300.893 -1.36731 -1.40291 0
M  V30 3275 H 299.473 -0.666424 0.337473 0
M  V30 3276 H 302.135 -1.3027 1.44968 0
M  V30 3277 H 301.231 -2.82539 1.32583 0
M  V30 3278 N 301.532 -0.945985 -1.26051 0
M  V30 3279 C 302.779 -0.596118 -1.93527 0
M  V30 3280 C 303.107 0.865559 -1.74179 0
M  V30 3281 O 302.362 1.63524 -1.0751 0
M  V30 3282 C 302.661 -0.890475 -3.46129 0
M  V30 3283 C 302.327 -2.3368 -3.85622 0
M  V30 3284 C 300.989 -2.73216 -3.96114 0
M  V30 3285 C 303.341 -3.27648 -4.05334 0
M  V30 3286 C 300.669 -4.05806 -4.2372 0
M  V30 3287 C 303.021 -4.59841 -4.3443 0
M  V30 3288 C 301.685 -4.99185 -4.43137 0
M  V30 3289 H 300.955 -0.218135 -0.708165 0
M  V30 3290 H 303.602 -1.1934 -1.49768 0
M  V30 3291 H 301.907 -0.210711 -3.91233 0
M  V30 3292 H 303.604 -0.598478 -3.96509 0
M  V30 3293 H 300.194 -2.02015 -3.78005 0
M  V30 3294 H 304.378 -2.98298 -3.96651 0
M  V30 3295 H 299.634 -4.35945 -4.28675 0
M  V30 3296 H 303.808 -5.32641 -4.48628 0
M  V30 3297 H 301.435 -6.01952 -4.64282 0
M  V30 3298 N 303.011 1.40521 -0.713556 0
M  V30 3299 C 303.941 2.33381 -0.0743864 0
M  V30 3300 C 304.922 1.52784 0.747735 0
M  V30 3301 O 306.107 1.81258 0.697071 0
M  V30 3302 C 303.237 3.36748 0.849598 0
M  V30 3303 C 302.191 4.27793 0.133247 0
M  V30 3304 C 301.517 5.21679 1.17281 0
M  V30 3305 C 302.817 5.12415 -1.01134 0
M  V30 3306 H 304.511 2.87081 -0.850007 0
M  V30 3307 H 302.057 1.38034 -0.410201 0
M  V30 3308 H 304.01 4.00648 1.30612 0
M  V30 3309 H 302.734 2.81439 1.65709 0
M  V30 3310 H 301.393 3.65342 -0.303426 0
M  V30 3311 H 301.041 4.62677 1.9733 0
M  V30 3312 H 300.741 5.83435 0.698397 0
M  V30 3313 H 302.265 5.88456 1.62947 0
M  V30 3314 H 303.679 5.69781 -0.634274 0
M  V30 3315 H 302.076 5.83203 -1.41399 0
M  V30 3316 H 303.146 4.48514 -1.84292 0
M  V30 3317 N 304.489 0.459591 1.5075 0
M  V30 3318 C 305.452 -0.329093 2.26825 0
M  V30 3319 C 306.452 -0.930481 1.31144 0
M  V30 3320 O 307.642 -0.801453 1.54669 0
M  V30 3321 C 304.774 -1.46768 3.07688 0
M  V30 3322 H 305.967 0.337924 2.9799 0
M  V30 3323 H 303.52 0.213336 1.54837 0
M  V30 3324 H 304.255 -2.17009 2.40993 0
M  V30 3325 H 304.04 -1.04238 3.77991 0
M  V30 3326 H 305.53 -2.02433 3.65254 0
M  V30 3327 N 305.967 -1.56429 0.191757 0
M  V30 3328 C 306.917 -2.15548 -0.743184 0
M  V30 3329 C 307.901 -1.09531 -1.17863 0
M  V30 3330 O 309.093 -1.35602 -1.13759 0
M  V30 3331 C 306.222 -2.81577 -1.96391 0
M  V30 3332 C 305.308 -3.9478 -1.54951 0
M  V30 3333 N 305.699 -4.98677 -0.845876 0
M  V30 3334 C 303.997 -4.06319 -1.83905 0
M  V30 3335 C 304.698 -5.78183 -0.638724 0
M  V30 3336 N 303.674 -5.30495 -1.18643 0
M  V30 3337 H 307.476 -2.9324 -0.196839 0
M  V30 3338 H 304.99 -1.62398 -0.0081603 0
M  V30 3339 H 306.987 -3.22321 -2.64415 0
M  V30 3340 H 305.647 -2.05371 -2.51501 0
M  V30 3341 H 306.658 -5.15464 -0.501704 0
M  V30 3342 H 303.335 -3.41238 -2.40548 0
M  V30 3343 H 304.725 -6.71851 -0.0807929 0
M  V30 3344 N 307.445 0.0818655 -1.57387 0
M  V30 3345 C 308.408 1.08265 -2.02018 0
M  V30 3346 C 309.408 1.32183 -0.915664 0
M  V30 3347 O 310.598 1.28073 -1.18081 0
M  V30 3348 C 307.73 2.42871 -2.39221 0
M  V30 3349 H 308.923 0.698204 -2.91659 0
M  V30 3350 H 306.476 0.327303 -1.52835 0
M  V30 3351 H 307.211 2.86167 -1.52575 0
M  V30 3352 H 306.996 2.26855 -3.19811 0
M  V30 3353 H 308.486 3.14826 -2.74362 0
M  V30 3354 N 308.923 1.53595 0.353017 0
M  V30 3355 C 310.153 1.74058 1.11299 0
M  V30 3356 C 310.561 0.475205 1.83135 0
M  V30 3357 O 309.904 -0.562344 1.74881 0
M  V30 3358 C 309.966 2.85994 2.17825 0
M  V30 3359 C 309.63 4.25923 1.65647 0
M  V30 3360 C 310.627 5.07829 1.11383 0
M  V30 3361 C 308.312 4.72377 1.7078 0
M  V30 3362 C 310.306 6.34285 0.629439 0
M  V30 3363 C 307.993 5.98808 1.21953 0
M  V30 3364 C 308.991 6.79594 0.681265 0
M  V30 3365 O 308.679 8.03651 0.200248 0
M  V30 3366 H 308.411 0.585327 0.338183 0
M  V30 3367 H 310.965 2.01186 0.413927 0
M  V30 3368 H 309.195 2.54368 2.91262 0
M  V30 3369 H 310.884 2.94515 2.79313 0
M  V30 3370 H 311.65 4.73107 1.06746 0
M  V30 3371 H 307.529 4.0956 2.11617 0
M  V30 3372 H 311.073 6.97288 0.208636 0
M  V30 3373 H 306.97 6.33026 1.26287 0
M  V30 3374 H 307.738 8.1788 0.318416 0
M  V30 3375 N 310.401 -0.613514 1.45168 0
M  V30 3376 C 311.648 -1.37268 1.48875 0
M  V30 3377 C 311.976 -1.94077 0.128161 0
M  V30 3378 O 311.231 -1.75178 -0.872416 0
M  V30 3379 C 311.53 -2.54347 2.51083 0
M  V30 3380 C 311.196 -2.1572 3.95949 0
M  V30 3381 C 309.858 -2.04899 4.35396 0
M  V30 3382 C 312.21 -1.85485 4.87078 0
M  V30 3383 C 309.538 -1.62057 5.63875 0
M  V30 3384 C 311.89 -1.4413 6.15962 0
M  V30 3385 C 310.554 -1.31863 6.54346 0
M  V30 3386 H 309.824 -0.502299 0.544773 0
M  V30 3387 H 312.471 -0.694021 1.78481 0
M  V30 3388 H 310.776 -3.27524 2.15024 0
M  V30 3389 H 312.473 -3.12577 2.51191 0
M  V30 3390 H 309.063 -2.25066 3.64751 0
M  V30 3391 H 313.247 -1.92745 4.57343 0
M  V30 3392 H 308.503 -1.51177 5.92415 0
M  V30 3393 H 312.677 -1.19778 6.86022 0
M  V30 3394 H 310.304 -0.984392 7.538 0
M  V30 3395 N 311.879 -1.3236 -0.855495 0
M  V30 3396 C 313.29 -1.2056 -1.42556 0
M  V30 3397 C 313.641 0.182209 -1.95352 0
M  V30 3398 O 312.766 1.08088 -1.87472 0
M  V30 3399 C 313.361 -2.1826 -2.59129 0
M  V30 3400 C 311.92 -2.10351 -3.12137 0
M  V30 3401 C 311.067 -2.06674 -1.84882 0
M  V30 3402 H 314.018 -1.442 -0.662727 0
M  V30 3403 H 314.039 -1.78064 -3.36264 0
M  V30 3404 H 313.551 -3.19257 -2.20673 0
M  V30 3405 H 311.652 -1.12599 -3.55179 0
M  V30 3406 H 311.765 -3.00135 -3.73438 0
M  V30 3407 H 310.129 -1.51901 -2.04446 0
M  V30 3408 H 310.912 -3.09451 -1.48643 0
M  V30 3409 N 313.357 1.07166 -1.15556 0
M  V30 3410 C 314.605 1.79443 -0.929764 0
M  V30 3411 C 314.926 1.87246 0.544414 0
M  V30 3412 O 314.196 1.37473 1.39564 0
M  V30 3413 H 312.776 0.664625 -0.341003 0
M  V30 3414 H 315.438 1.29499 -1.45657 0
M  V30 3415 H 314.534 2.81832 -1.34079 0
M  V30 3416 N 314.835 0.952656 1.25548 0
M  V30 3417 C 316.246 0.647392 1.75116 0
M  V30 3418 C 316.597 -0.837274 1.77438 0
M  V30 3419 O 315.722 -1.65525 1.39393 0
M  V30 3420 C 316.317 1.16845 3.18014 0
M  V30 3421 C 314.876 0.913382 3.6515 0
M  V30 3422 C 314.023 1.31265 2.44264 0
M  V30 3423 H 316.974 1.12968 1.11462 0
M  V30 3424 H 316.995 0.527606 3.76824 0
M  V30 3425 H 316.507 2.24902 3.16292 0
M  V30 3426 H 314.608 -0.152316 3.72289 0
M  V30 3427 H 314.721 1.54845 4.53387 0
M  V30 3428 H 313.085 0.731028 2.43984 0
M  V30 3429 H 313.868 2.40239 2.45234 0
M  V30 3430 N 316.313 -1.40141 0.720998 0
M  V30 3431 C 317.561 -2.0039 0.262323 0
M  V30 3432 C 317.882 -1.57469 -1.15015 0
M  V30 3433 O 317.152 -0.816582 -1.78069 0
M  V30 3434 H 315.732 -0.741063 0.093996 0
M  V30 3435 H 318.394 -1.71398 0.927835 0
M  V30 3436 H 317.49 -3.10658 0.299671 0
M  V30 3437 N 317.792 -0.46758 -1.50504 0
M  V30 3438 C 319.041 0.0902868 -2.01498 0
M  V30 3439 C 319.354 1.411 -1.35463 0
M  V30 3440 O 320.56 2.0536 -1.77594 0
M  V30 3441 C 319.016 0.21142 -3.59278 0
M  V30 3442 C 318.624 -1.10065 -4.34269 0
M  V30 3443 C 320.368 0.721433 -4.18325 0
M  V30 3444 C 318.275 -0.943505 -5.83825 0
M  V30 3445 H 317.205 0.037517 -0.753066 0
M  V30 3446 H 319.856 -0.601943 -1.73346 0
M  V30 3447 H 318.238 0.967352 -3.84003 0
M  V30 3448 H 319.412 -1.86726 -4.21272 0
M  V30 3449 H 317.727 -1.5415 -3.86816 0
M  V30 3450 H 320.324 0.85598 -5.27804 0
M  V30 3451 H 320.667 1.71186 -3.79475 0
M  V30 3452 H 321.2 0.0229843 -3.97793 0
M  V30 3453 H 317.939 -1.90719 -6.27141 0
M  V30 3454 H 317.459 -0.217213 -5.99407 0
M  V30 3455 H 319.138 -0.608715 -6.4413 0
M  V30 3456 N 319.27 1.56325 -0.20005 0
M  V30 3457 C 320.518 1.97329 0.436547 0
M  V30 3458 C 320.839 1.08826 1.61808 0
M  V30 3459 O 320.109 0.160604 1.95241 0
M  V30 3460 H 318.689 0.728714 0.164272 0
M  V30 3461 H 321.351 1.92761 -0.287937 0
M  V30 3462 H 320.447 3.02264 0.777353 0
M  V30 3463 N 320.748 -0.0735177 1.57428 0
M  V30 3464 C 321.996 -0.771472 1.86796 0
M  V30 3465 C 322.317 -1.78201 0.791804 0
M  V30 3466 O 321.587 -1.95074 -0.179718 0
M  V30 3467 H 320.167 -0.28791 0.689287 0
M  V30 3468 H 322.829 -0.0500161 1.94836 0
M  V30 3469 H 321.925 -1.28874 2.8425 0
M  V30 3470 N 322.226 -1.5378 -0.344866 0
M  V30 3471 C 323.503 -1.61589 -1.10219 0
M  V30 3472 C 323.883 -0.436316 -2.06542 0
M  V30 3473 O 323.231 0.571543 -2.21237 0
M  V30 3474 C 323.441 -2.97602 -1.82301 0
M  V30 3475 C 324.789 -3.5291 -2.36093 0
M  V30 3476 O 325.813 -2.99768 -1.924 0
M  V30 3477 O 324.672 -4.45859 -3.16026 0
M  V30 3478 H 321.766 -0.653522 -0.506792 0
M  V30 3479 H 324.312 -1.66126 -0.346465 0
M  V30 3480 H 323.084 -3.74893 -1.12121 0
M  V30 3481 H 322.707 -2.9665 -2.64735 0
M  V30 3482 N 323.704 0.605807 -1.45491 0
M  V30 3483 C 324.932 1.39136 -1.5313 0
M  V30 3484 C 325.347 1.88082 -0.164507 0
M  V30 3485 O 324.704 1.62316 0.834247 0
M  V30 3486 C 324.755 2.59463 -2.51716 0
M  V30 3487 O 324.476 2.12551 -3.83084 0
M  V30 3488 C 325.977 3.52301 -2.6907 0
M  V30 3489 H 323.197 0.425849 -0.51855 0
M  V30 3490 H 325.741 0.73865 -1.90694 0
M  V30 3491 H 323.896 3.20772 -2.17219 0
M  V30 3492 H 324.31 2.90744 -4.36541 0
M  V30 3493 H 325.784 4.33271 -3.42024 0
M  V30 3494 H 326.261 4.02757 -1.75167 0
M  V30 3495 H 326.867 2.96845 -3.04571 0
M  V30 3496 N 325.182 1.32811 0.848464 0
M  V30 3497 C 326.132 1.18842 1.94578 0
M  V30 3498 C 327.116 0.0937517 1.60627 0
M  V30 3499 O 328.308 0.320887 1.74067 0
M  V30 3500 C 325.437 0.91999 3.30743 0
M  V30 3501 C 324.523 2.05665 3.70894 0
M  V30 3502 N 324.914 3.30579 3.8282 0
M  V30 3503 C 323.212 1.9612 4.00566 0
M  V30 3504 C 323.913 4.05067 4.17487 0
M  V30 3505 N 322.889 3.33419 4.2934 0
M  V30 3506 H 326.691 2.13536 2.0194 0
M  V30 3507 H 324.205 1.2468 1.0406 0
M  V30 3508 H 326.202 0.800859 4.09136 0
M  V30 3509 H 324.862 -0.0185076 3.24695 0
M  V30 3510 H 325.873 3.65441 3.66978 0
M  V30 3511 H 322.55 1.09871 4.02784 0
M  V30 3512 H 323.94 5.12815 4.34131 0
M  V30 3513 N 326.66 -1.06551 1.16123 0
M  V30 3514 C 327.907 -1.79302 0.941126 0
M  V30 3515 C 328.235 -1.87105 -0.531235 0
M  V30 3516 O 327.49 -1.35692 -1.41018 0
M  V30 3517 C 327.789 -3.23911 1.51052 0
M  V30 3518 C 327.455 -3.36193 3.00475 0
M  V30 3519 C 326.117 -3.39252 3.41265 0
M  V30 3520 C 328.469 -3.38326 3.96465 0
M  V30 3521 C 325.797 -3.42057 4.76669 0
M  V30 3522 C 328.149 -3.4267 5.31752 0
M  V30 3523 C 326.813 -3.4401 5.72026 0
M  V30 3524 H 326.083 -0.656111 0.344382 0
M  V30 3525 H 328.73 -1.25325 1.44796 0
M  V30 3526 H 327.035 -3.80723 0.925063 0
M  V30 3527 H 328.732 -3.78793 1.31593 0
M  V30 3528 H 325.322 -3.34516 2.6795 0
M  V30 3529 H 329.506 -3.35176 3.6602 0
M  V30 3530 H 324.762 -3.41398 5.07206 0
M  V30 3531 H 328.936 -3.43268 6.05921 0
M  V30 3532 H 326.563 -3.45937 6.76928 0
M  V30 3533 N 328.138 -0.959301 -1.25041 0
M  V30 3534 C 329.415 -0.533805 -1.88175 0
M  V30 3535 C 329.795 0.988994 -1.865 0
M  V30 3536 O 329.143 1.85677 -1.33177 0
M  V30 3537 C 329.353 -1.11575 -3.30684 0
M  V30 3538 C 330.701 -1.19548 -4.07423 0
M  V30 3539 O 331.725 -1.06765 -3.39823 0
M  V30 3540 O 330.584 -1.39656 -5.28354 0
M  V30 3541 H 327.678 -0.176772 -0.807887 0
M  V30 3542 H 330.224 -1.05303 -1.33076 0
M  V30 3543 H 328.996 -2.15884 -3.26358 0
M  V30 3544 H 328.619 -0.580059 -3.93346 0
M  V30 3545 N 329.616 1.39756 -0.72842 0
M  V30 3546 C 330.841 2.05472 -0.282159 0
M  V30 3547 C 331.266 1.54549 1.07221 0
M  V30 3548 O 330.624 0.686372 1.67805 0
M  V30 3549 C 330.672 3.59462 -0.286264 0
M  V30 3550 O 329.776 4.05918 0.728298 0
M  V30 3551 H 329.117 0.651226 -0.129618 0
M  V30 3552 H 331.647 1.78915 -0.992499 0
M  V30 3553 H 331.657 4.07798 -0.128373 0
M  V30 3554 H 330.332 3.95889 -1.27456 0
M  V30 3555 H 328.909 3.69012 0.537081 0
M  V30 3556 N 331.094 0.475555 1.50254 0
M  V30 3557 C 332.371 -0.139685 1.95101 0
M  V30 3558 C 332.751 -1.56555 1.41611 0
M  V30 3559 O 332.099 -2.19956 0.618993 0
M  V30 3560 C 332.309 -0.0784298 3.48912 0
M  V30 3561 C 333.657 -0.265095 4.23772 0
M  V30 3562 O 334.681 -0.154808 3.55863 0
M  V30 3563 O 333.54 -0.488327 5.44314 0
M  V30 3564 H 330.634 -0.109236 0.819754 0
M  V30 3565 H 333.18 0.536276 1.61004 0
M  V30 3566 H 331.952 0.916918 3.80405 0
M  V30 3567 H 331.575 -0.795655 3.89558 0
M  V30 3568 N 332.573 -1.56217 0.208337 0
M  V30 3569 C 333.483 -2.23316 -0.718836 0
M  V30 3570 C 334.499 -1.23648 -1.22422 0
M  V30 3571 O 335.675 -1.56423 -1.26861 0
M  V30 3572 C 332.74 -2.88968 -1.91568 0
M  V30 3573 C 331.801 -4.03943 -1.45357 0
M  V30 3574 C 331.034 -4.66455 -2.59337 0
M  V30 3575 O 331.257 -4.27919 -3.77149 0
M  V30 3576 O 330.191 -5.55686 -2.31293 0
M  V30 3577 H 334.017 -3.03182 -0.177315 0
M  V30 3578 H 331.602 -1.49384 -0.0215402 0
M  V30 3579 H 333.484 -3.30455 -2.61491 0
M  V30 3580 H 332.159 -2.12071 -2.44556 0
M  V30 3581 H 331.066 -3.67052 -0.722746 0
M  V30 3582 H 332.399 -4.82543 -0.970219 0
M  V30 3583 N 334.051 0.0651679 -1.57465 0
M  V30 3584 C 335.462 0.616213 -1.76238 0
M  V30 3585 C 335.813 1.7756 -0.834689 0
M  V30 3586 O 334.938 2.1639 -0.0204156 0
M  V30 3587 C 335.533 1.12462 -3.1959 0
M  V30 3588 C 334.092 1.62147 -3.39684 0
M  V30 3589 C 333.239 0.543739 -2.71917 0
M  V30 3590 H 336.19 -0.161022 -1.57881 0
M  V30 3591 H 336.211 1.99324 -3.24114 0
M  V30 3592 H 335.723 0.280592 -3.87084 0
M  V30 3593 H 333.824 2.48854 -2.77313 0
M  V30 3594 H 333.937 1.69385 -4.48158 0
M  V30 3595 H 332.301 0.990352 -2.34657 0
M  V30 3596 H 333.084 -0.290216 -3.42071 0
M  V30 3597 N 335.529 1.53961 0.336706 0
M  V30 3598 C 336.775 1.7273 1.07406 0
M  V30 3599 C 337.13 0.488095 1.86106 0
M  V30 3600 O 336.423 -0.519379 1.84426 0
M  V30 3601 C 336.617 2.93493 2.03953 0
M  V30 3602 C 336.446 4.29039 1.34744 0
M  V30 3603 C 335.216 4.93416 1.08942 0
M  V30 3604 C 337.414 5.08501 0.770115 0
M  V30 3605 N 335.396 6.12821 0.363864 0
M  V30 3606 C 336.767 6.19752 0.175472 0
M  V30 3607 C 338.822 4.93349 0.671633 0
M  V30 3608 C 337.525 7.17503 -0.508081 0
M  V30 3609 C 339.551 5.914 0.0018076 0
M  V30 3610 C 338.913 7.01993 -0.581835 0
M  V30 3611 H 335.012 0.685026 0.377177 0
M  V30 3612 H 337.596 1.91403 0.356815 0
M  V30 3613 H 335.767 2.76308 2.72962 0
M  V30 3614 H 337.499 3.00949 2.70577 0
M  V30 3615 H 334.254 4.53099 1.37833 0
M  V30 3616 H 334.678 6.76998 0.0156092 0
M  V30 3617 H 339.32 4.08007 1.1086 0
M  V30 3618 H 337.038 8.02414 -0.956918 0
M  V30 3619 H 340.624 5.81753 -0.0738538 0
M  V30 3620 H 339.504 7.76561 -1.09192 0
M  V30 3621 N 337.007 -0.598083 1.45811 0
M  V30 3622 C 338.235 -1.38322 1.53866 0
M  V30 3623 C 338.65 -1.87992 0.174479 0
M  V30 3624 O 338.007 -1.62756 -0.825627 0
M  V30 3625 C 338.058 -2.58125 2.53089 0
M  V30 3626 O 337.779 -2.10516 3.84206 0
M  V30 3627 C 339.28 -3.50869 2.70935 0
M  V30 3628 H 336.5 -0.423093 0.520801 0
M  V30 3629 H 339.044 -0.728527 1.91083 0
M  V30 3630 H 337.199 -3.19615 2.18917 0
M  V30 3631 H 337.613 -2.88425 4.38077 0
M  V30 3632 H 339.087 -4.31451 3.44317 0
M  V30 3633 H 339.564 -4.01822 1.77301 0
M  V30 3634 H 340.17 -2.95225 3.06141 0
M  V30 3635 N 338.485 -1.33259 -0.841409 0
M  V30 3636 C 339.415 -1.25926 -1.96634 0
M  V30 3637 C 340.396 -0.140349 -1.6952 0
M  V30 3638 O 341.581 -0.329707 -1.91381 0
M  V30 3639 C 338.711 -0.99512 -3.32738 0
M  V30 3640 C 337.665 -2.0767 -3.74242 0
M  V30 3641 C 336.991 -1.66474 -5.08125 0
M  V30 3642 C 338.291 -3.49318 -3.88297 0
M  V30 3643 H 339.985 -2.20046 -2.03027 0
M  V30 3644 H 337.531 -1.05931 -0.975425 0
M  V30 3645 H 339.484 -0.930323 -4.11002 0
M  V30 3646 H 338.208 -0.0183004 -3.26595 0
M  V30 3647 H 336.867 -2.13187 -2.98239 0
M  V30 3648 H 336.515 -0.675012 -4.9845 0
M  V30 3649 H 336.215 -2.3885 -5.36865 0
M  V30 3650 H 337.739 -1.61455 -5.88867 0
M  V30 3651 H 339.153 -3.46316 -4.56879 0
M  V30 3652 H 337.55 -4.20158 -4.28471 0
M  V30 3653 H 338.62 -3.8801 -2.9082 0
M  V30 3654 N 339.963 1.05934 -1.16686 0
M  V30 3655 C 341.211 1.78447 -0.948744 0
M  V30 3656 C 341.532 1.87813 0.524523 0
M  V30 3657 O 340.802 1.38945 1.38098 0
M  V30 3658 H 339.382 0.660971 -0.348033 0
M  V30 3659 H 342.044 1.27947 -1.47022 0
M  V30 3660 H 341.14 2.80394 -1.37061 0
M  V30 3661 N 341.441 0.965919 1.2453 0
M  V30 3662 C 342.389 0.486506 2.27455 0
M  V30 3663 C 343.383 -0.449041 1.6334 0
M  V30 3664 O 344.589 -0.324527 1.7705 0
M  V30 3665 H 340.964 0.138857 0.739069 0
M  V30 3666 H 342.935 1.3666 2.65267 0
M  V30 3667 C 341.684 -0.209481 3.47068 0
M  V30 3668 H 341.007 0.50129 3.96645 0
M  V30 3669 H 342.447 -0.508775 4.20936 0
M  V30 3670 C 340.906 -1.43586 3.0477 0
M  V30 3671 O 341.436 -2.53299 3.11773 0
M  V30 3672 N 339.642 -1.30126 2.59838 0
M  V30 3673 H 339.189 -0.408583 2.54339 0
M  V30 3674 H 339.147 -2.12294 2.31902 0
M  V30 3675 N 342.919 -1.39368 0.735821 0
M  V30 3676 C 344.33 -1.83313 0.354015 0
M  V30 3677 C 344.681 -1.61461 -1.11466 0
M  V30 3678 O 343.806 -1.10621 -1.85989 0
M  V30 3679 C 344.401 -3.32781 0.635769 0
M  V30 3680 C 342.96 -3.75142 0.307448 0
M  V30 3681 C 342.107 -2.62358 0.897974 0
M  V30 3682 H 345.058 -1.28349 0.933398 0
M  V30 3683 H 345.079 -3.80388 -0.0921773 0
M  V30 3684 H 344.591 -3.48654 1.70476 0
M  V30 3685 H 342.692 -3.64857 -0.755674 0
M  V30 3686 H 342.805 -4.72532 0.790583 0
M  V30 3687 H 341.169 -2.52624 0.324551 0
M  V30 3688 H 341.952 -2.81036 1.97164 0
M  V30 3689 N 344.397 -0.483516 -1.5 0
M  V30 3690 C 345.345 0.318061 -2.30415 0
M  V30 3691 C 346.339 0.978988 -1.38247 0
M  V30 3692 O 347.545 0.908673 -1.55381 0
M  V30 3693 H 343.92 0.121419 -0.742133 0
M  V30 3694 H 345.891 -0.380403 -2.95965 0
M  V30 3695 C 344.64 1.38013 -3.19136 0
M  V30 3696 H 343.963 0.880952 -3.89973 0
M  V30 3697 H 345.403 1.91332 -3.78375 0
M  V30 3698 C 343.862 2.38884 -2.37563 0
M  V30 3699 O 344.392 3.44412 -2.06744 0
M  V30 3700 N 342.598 2.10912 -1.99911 0
M  V30 3701 H 342.145 1.25118 -2.25174 0
M  V30 3702 H 342.103 2.78635 -1.45636 0
M  V30 3703 N 345.875 1.56104 -0.216619 0
M  V30 3704 C 346.825 2.16703 0.708798 0
M  V30 3705 C 347.809 1.11392 1.16106 0
M  V30 3706 O 349.001 1.37395 1.11587 0
M  V30 3707 C 346.13 2.84666 1.91886 0
M  V30 3708 C 345.216 3.97195 1.48651 0
M  V30 3709 N 345.607 4.99959 0.766434 0
M  V30 3710 C 343.905 4.09193 1.77418 0
M  V30 3711 C 344.606 5.79126 0.546659 0
M  V30 3712 N 343.582 5.32315 1.10188 0
M  V30 3713 H 347.384 2.93516 0.150162 0
M  V30 3714 H 344.898 1.6239 -0.0176768 0
M  V30 3715 H 346.895 3.26486 2.59253 0
M  V30 3716 H 345.555 2.09347 2.48202 0
M  V30 3717 H 346.566 5.16197 0.419634 0
M  V30 3718 H 343.243 3.45021 2.35088 0
M  V30 3719 H 344.633 6.71895 -0.026103 0
M  V30 3720 N 347.353 -0.0568162 1.57498 0
M  V30 3721 C 348.63 -0.786954 1.79071 0
M  V30 3722 C 349.01 -1.95028 0.80792 0
M  V30 3723 O 348.358 -2.27968 -0.155858 0
M  V30 3724 C 348.568 -1.24594 3.26002 0
M  V30 3725 C 349.916 -1.67323 3.90241 0
M  V30 3726 O 350.94 -1.34124 3.29984 0
M  V30 3727 O 349.799 -2.28842 4.9628 0
M  V30 3728 H 346.893 -0.378262 0.735423 0
M  V30 3729 H 349.439 -0.035734 1.69662 0
M  V30 3730 H 348.211 -0.41423 3.89101 0
M  V30 3731 H 347.834 -2.05803 3.40192 0
M  V30 3732 N 348.832 -1.54138 -0.328536 0
M  V30 3733 C 350.08 -1.71765 -1.06496 0
M  V30 3734 C 350.401 -0.49149 -1.88704 0
M  V30 3735 O 349.671 0.494539 -1.89555 0
M  V30 3736 H 348.251 -0.633295 -0.396164 0
M  V30 3737 H 350.913 -1.91429 -0.366176 0
M  V30 3738 H 350.009 -2.5951 -1.73381 0
M  V30 3739 N 350.31 0.590341 -1.46126 0
M  V30 3740 C 351.258 1.72105 -1.5647 0
M  V30 3741 C 352.252 1.63756 -0.433612 0
M  V30 3742 O 353.458 1.69342 -0.610194 0
M  V30 3743 H 349.833 0.568889 -0.491802 0
M  V30 3744 H 351.804 1.6051 -2.51553 0
M  V30 3745 C 350.553 3.10493 -1.56491 0
M  V30 3746 H 349.876 3.17583 -2.4286 0
M  V30 3747 H 351.316 3.8939 -1.67785 0
M  V30 3748 C 349.775 3.3563 -0.292231 0
M  V30 3749 O 350.305 3.96875 0.620739 0
M  V30 3750 N 348.511 2.90026 -0.182523 0
M  V30 3751 H 348.058 2.40367 -0.926356 0
M  V30 3752 H 348.016 3.07218 0.668152 0
M  V30 3753 N 351.788 1.33704 0.83433 0
M  V30 3754 C 353.065 1.16011 1.57483 0
M  V30 3755 C 353.445 -0.27176 2.09343 0
M  V30 3756 O 352.793 -1.27146 1.89858 0
M  V30 3757 C 353.003 2.20507 2.70514 0
M  V30 3758 C 354.351 2.54898 3.39577 0
M  V30 3759 O 355.375 2.19209 2.80759 0
M  V30 3760 O 354.234 3.16158 4.45765 0
M  V30 3761 H 351.328 0.448992 0.694503 0
M  V30 3762 H 353.874 1.453 0.876691 0
M  V30 3763 H 352.646 3.16667 2.29865 0
M  V30 3764 H 352.269 1.92329 3.47987 0
M  V30 3765 N 353.266 -1.05314 1.17247 0
M  V30 3766 C 354.196 -2.1498 0.911362 0
M  V30 3767 C 355.177 -1.69471 -0.146169 0
M  V30 3768 O 356.362 -1.942 0.003812 0
M  V30 3769 C 353.492 -3.4472 0.422528 0
M  V30 3770 C 352.446 -4.03789 1.4191 0
M  V30 3771 C 351.772 -5.28858 0.788274 0
M  V30 3772 C 353.072 -4.41418 2.7919 0
M  V30 3773 H 354.766 -2.3708 1.82848 0
M  V30 3774 H 352.312 -1.13938 0.880569 0
M  V30 3775 H 354.265 -4.20787 0.227289 0
M  V30 3776 H 352.989 -3.22269 -0.530123 0
M  V30 3777 H 351.648 -3.2979 1.60106 0
M  V30 3778 H 351.296 -5.02709 -0.171173 0
M  V30 3779 H 350.996 -5.69338 1.45353 0
M  V30 3780 H 352.52 -6.07612 0.603282 0
M  V30 3781 H 353.934 -5.08524 2.64719 0
M  V30 3782 H 352.331 -4.92913 3.42282 0
M  V30 3783 H 353.401 -3.51819 3.33693 0
M  V30 3784 N 354.744 -0.972509 -1.24016 0
M  V30 3785 C 355.991 -0.637034 -1.92219 0
M  V30 3786 C 356.319 0.828418 -1.75976 0
M  V30 3787 O 355.574 1.61206 -1.10955 0
M  V30 3788 C 355.873 -0.963694 -3.44162 0
M  V30 3789 C 355.539 -2.41807 -3.80579 0
M  V30 3790 C 354.201 -2.81556 -3.9023 0
M  V30 3791 C 356.553 -3.36172 -3.98293 0
M  V30 3792 C 353.881 -4.14702 -4.15017 0
M  V30 3793 C 356.233 -4.68952 -4.24578 0
M  V30 3794 C 354.897 -5.08472 -4.32449 0
M  V30 3795 H 354.167 -0.233107 -0.703379 0
M  V30 3796 H 356.814 -1.2249 -1.47202 0
M  V30 3797 H 355.119 -0.29365 -3.90698 0
M  V30 3798 H 356.816 -0.682449 -3.9515 0
M  V30 3799 H 353.406 -2.09988 -3.73635 0
M  V30 3800 H 357.59 -3.06644 -3.90234 0
M  V30 3801 H 352.846 -4.4494 -4.19331 0
M  V30 3802 H 357.02 -5.42037 -4.37229 0
M  V30 3803 H 354.647 -6.11665 -4.51409 0
M  V30 3804 N 356.222 1.38976 -0.743202 0
M  V30 3805 C 357.152 2.33171 -0.123873 0
M  V30 3806 C 358.133 1.54336 0.71516 0
M  V30 3807 O 359.318 1.82696 0.658467 0
M  V30 3808 C 356.448 3.38474 0.777978 0
M  V30 3809 C 355.402 4.27979 0.0424758 0
M  V30 3810 C 354.728 5.2405 1.06189 0
M  V30 3811 C 356.028 5.10155 -1.1198 0
M  V30 3812 H 357.722 2.85213 -0.910709 0
M  V30 3813 H 355.268 1.37133 -0.439388 0
M  V30 3814 H 357.221 4.03328 1.22084 0
M  V30 3815 H 355.945 2.84891 1.59702 0
M  V30 3816 H 354.604 3.64616 -0.380853 0
M  V30 3817 H 354.252 4.66758 1.87472 0
M  V30 3818 H 353.952 5.84785 0.574485 0
M  V30 3819 H 355.476 5.9178 1.50428 0
M  V30 3820 H 356.89 5.68307 -0.75499 0
M  V30 3821 H 355.287 5.80073 -1.53738 0
M  V30 3822 H 356.357 4.44504 -1.93764 0
M  V30 3823 N 357.7 0.491464 1.49741 0
M  V30 3824 C 358.946 -0.0565092 2.02721 0
M  V30 3825 C 359.279 -1.37522 1.37118 0
M  V30 3826 O 358.554 -1.87866 0.503645 0
M  V30 3827 C 358.837 -0.219051 3.59433 0
M  V30 3828 C 358.69 1.12211 4.35579 0
M  V30 3829 C 360.009 -0.964157 4.29409 0
M  V30 3830 H 357.128 -0.0190627 0.736753 0
M  V30 3831 H 359.77 0.641021 1.7886 0
M  V30 3832 H 357.92 -0.813165 3.79895 0
M  V30 3833 H 359.592 1.75437 4.26637 0
M  V30 3834 H 357.835 1.71377 3.98513 0
M  V30 3835 H 358.506 0.961794 5.43556 0
M  V30 3836 H 360.982 -0.460378 4.13545 0
M  V30 3837 H 359.858 -1.04671 5.38828 0
M  V30 3838 H 360.119 -2.00563 3.93988 0
M  V30 3839 N 359.178 -1.55987 0.224894 0
M  V30 3840 C 360.141 -2.19178 -0.670348 0
M  V30 3841 C 361.141 -1.15461 -1.11917 0
M  V30 3842 O 362.331 -1.40675 -1.02743 0
M  V30 3843 C 359.463 -2.81777 -1.9187 0
M  V30 3844 H 360.656 -2.99662 -0.119364 0
M  V30 3845 H 358.209 -1.5628 -0.0247128 0
M  V30 3846 H 358.944 -2.05172 -2.51147 0
M  V30 3847 H 358.729 -3.57732 -1.60531 0
M  V30 3848 H 360.219 -3.30205 -2.55645 0
M  V30 3849 N 360.656 0.0484629 -1.57525 0
M  V30 3850 C 361.902 0.744226 -1.88651 0
M  V30 3851 C 362.235 1.76029 -0.820212 0
M  V30 3852 O 361.51 1.93782 0.166985 0
M  V30 3853 C 361.793 1.43128 -3.30434 0
M  V30 3854 C 361.646 0.43005 -4.47739 0
M  V30 3855 C 362.965 2.37031 -3.70816 0
M  V30 3856 H 360.084 0.269089 -0.68612 0
M  V30 3857 H 362.726 0.00713532 -1.89999 0
M  V30 3858 H 360.876 2.05956 -3.29415 0
M  V30 3859 H 362.548 -0.194816 -4.60888 0
M  V30 3860 H 360.791 -0.252522 -4.33064 0
M  V30 3861 H 361.462 0.948874 -5.43783 0
M  V30 3862 H 363.938 1.84263 -3.73077 0
M  V30 3863 H 362.814 2.82094 -4.70865 0
M  V30 3864 H 363.075 3.22864 -3.02012 0
M  V30 3865 N 362.134 1.5431 0.320358 0
M  V30 3866 C 363.084 1.803 1.39556 0
M  V30 3867 C 364.068 0.659166 1.46778 0
M  V30 3868 O 365.26 0.91926 1.51257 0
M  V30 3869 C 362.389 2.03665 2.76361 0
M  V30 3870 C 361.475 3.24178 2.73439 0
M  V30 3871 N 361.866 4.4516 2.40137 0
M  V30 3872 C 360.164 3.25816 3.04565 0
M  V30 3873 C 360.865 5.27109 2.4603 0
M  V30 3874 N 359.841 4.64368 2.82601 0
M  V30 3875 H 363.643 2.71416 1.12742 0
M  V30 3876 H 361.157 1.53548 0.528856 0
M  V30 3877 H 363.154 2.20425 3.53862 0
M  V30 3878 H 361.814 1.13805 3.04103 0
M  V30 3879 H 362.825 4.72104 2.12927 0
M  V30 3880 H 359.502 2.46001 3.37328 0
M  V30 3881 H 360.892 6.33728 2.23246 0
M  V30 3882 N 363.613 -0.582584 1.46437 0
M  V30 3883 C 364.523 -1.71949 1.59595 0
M  V30 3884 C 365.539 -1.67264 0.479443 0
M  V30 3885 O 366.715 -1.87171 0.743579 0
M  V30 3886 C 363.78 -3.08452 1.58298 0
M  V30 3887 C 362.841 -3.244 2.81182 0
M  V30 3888 C 362.074 -4.54391 2.79937 0
M  V30 3889 O 362.297 -5.38287 1.8869 0
M  V30 3890 O 361.231 -4.73588 3.71481 0
M  V30 3891 H 365.057 -1.63795 2.55744 0
M  V30 3892 H 362.642 -0.749643 1.29231 0
M  V30 3893 H 364.524 -3.89732 1.60271 0
M  V30 3894 H 363.199 -3.17043 0.653094 0
M  V30 3895 H 362.106 -2.42613 2.84763 0
M  V30 3896 H 363.439 -3.20699 3.7338 0
M  V30 3897 N 365.091 -1.34144 -0.827227 0
M  V30 3898 C 366.021 -1.28005 -1.95287 0
M  V30 3899 C 367.002 -0.158321 -1.69362 0
M  V30 3900 O 368.187 -0.349987 -1.9102 0
M  V30 3901 C 365.317 -1.03036 -3.31664 0
M  V30 3902 C 364.271 -2.11628 -3.72019 0
M  V30 3903 C 363.597 -1.71854 -5.0633 0
M  V30 3904 C 364.897 -3.53417 -3.8457 0
M  V30 3905 H 366.591 -2.22187 -2.00682 0
M  V30 3906 H 364.137 -1.0696 -0.964135 0
M  V30 3907 H 366.09 -0.973863 -4.09993 0
M  V30 3908 H 364.814 -0.0529391 -3.26557 0
M  V30 3909 H 363.473 -2.16339 -2.95961 0
M  V30 3910 H 363.121 -0.727841 -4.97706 0
M  V30 3911 H 362.821 -2.44531 -5.34302 0
M  V30 3912 H 364.345 -1.67692 -5.87122 0
M  V30 3913 H 365.759 -3.51142 -4.5318 0
M  V30 3914 H 364.156 -4.24679 -4.2399 0
M  V30 3915 H 365.226 -3.91072 -2.86689 0
M  V30 3916 N 366.569 1.04691 -1.17803 0
M  V30 3917 C 367.817 1.7743 -0.967617 0
M  V30 3918 C 368.138 1.88359 0.504574 0
M  V30 3919 O 367.408 1.40402 1.36617 0
M  V30 3920 H 365.988 0.657242 -0.355024 0
M  V30 3921 H 368.65 1.2638 -1.48371 0
M  V30 3922 H 367.746 2.78924 -1.40027 0
M  V30 3923 N 368.047 0.979072 1.23499 0
M  V30 3924 C 368.997 0.489378 2.22686 0
M  V30 3925 C 369.981 -0.434871 1.54912 0
M  V30 3926 O 371.173 -0.263941 1.75021 0
M  V30 3927 C 368.302 -0.208178 3.42668 0
M  V30 3928 C 367.388 0.735563 4.17672 0
M  V30 3929 N 367.779 1.87763 4.69658 0
M  V30 3930 C 366.077 0.548625 4.42613 0
M  V30 3931 C 366.778 2.46886 5.26709 0
M  V30 3932 N 365.754 1.75287 5.14563 0
M  V30 3933 H 369.556 1.36062 2.60508 0
M  V30 3934 H 367.07 0.83958 1.39014 0
M  V30 3935 H 369.067 -0.576295 4.12898 0
M  V30 3936 H 367.727 -1.07572 3.06363 0
M  V30 3937 H 368.738 2.25885 4.66043 0
M  V30 3938 H 365.415 -0.274006 4.166 0
M  V30 3939 H 366.805 3.43326 5.77561 0
M  V30 3940 N 369.525 -1.3858 0.750561 0
M  V30 3941 C 370.488 -2.28836 0.129152 0
M  V30 3942 C 371.488 -1.47045 -0.650714 0
M  V30 3943 O 372.678 -1.6753 -0.477428 0
M  V30 3944 C 369.81 -3.30751 -0.825622 0
M  V30 3945 H 371.003 -2.85294 0.924516 0
M  V30 3946 H 368.556 -1.47489 0.517376 0
M  V30 3947 H 369.291 -2.79378 -1.64677 0
M  V30 3948 H 369.076 -3.91177 -0.268852 0
M  V30 3949 H 370.566 -3.98249 -1.2565 0
M  V30 3950 N 371.003 -0.499398 -1.49478 0
M  V30 3951 C 371.933 0.269244 -2.31943 0
M  V30 3952 C 372.914 0.964054 -1.40143 0
M  V30 3953 O 374.099 0.955767 -1.69052 0
M  V30 3954 C 371.229 1.33504 -3.20615 0
M  V30 3955 C 370.183 0.760202 -4.21195 0
M  V30 3956 C 369.509 1.9264 -4.98792 0
M  V30 3957 C 370.809 -0.247661 -5.21712 0
M  V30 3958 H 372.503 -0.419082 -2.96452 0
M  V30 3959 H 370.049 -0.202988 -1.42562 0
M  V30 3960 H 372.002 1.88048 -3.77115 0
M  V30 3961 H 370.726 2.05253 -2.54045 0
M  V30 3962 H 369.385 0.23653 -3.65836 0
M  V30 3963 H 369.033 2.63154 -4.28671 0
M  V30 3964 H 368.733 1.54785 -5.66847 0
M  V30 3965 H 370.257 2.4762 -5.58137 0
M  V30 3966 H 371.671 0.209579 -5.72917 0
M  V30 3967 H 370.068 -0.541962 -5.97648 0
M  V30 3968 H 371.138 -1.16409 -4.7072 0
M  V30 3969 N 372.481 1.55866 -0.233164 0
M  V30 3970 C 373.729 1.9821 0.394593 0
M  V30 3971 C 374.05 1.12234 1.59463 0
M  V30 3972 O 373.32 0.201981 1.94856 0
M  V30 3973 H 371.9 0.732034 0.148778 0
M  V30 3974 H 374.562 1.92107 -0.32876 0
M  V30 3975 H 373.658 3.03845 0.713063 0
M  V30 3976 N 373.959 -0.0401083 1.57549 0
M  V30 3977 C 374.889 -1.04384 2.08869 0
M  V30 3978 C 375.87 -1.38407 0.988817 0
M  V30 3979 O 377.055 -1.47483 1.26342 0
M  V30 3980 C 374.185 -2.34808 2.55895 0
M  V30 3981 C 373.139 -2.15057 3.70047 0
M  V30 3982 C 372.465 -3.51145 4.03239 0
M  V30 3983 C 373.765 -1.54576 4.98902 0
M  V30 3984 H 375.459 -0.616666 2.92981 0
M  V30 3985 H 373.005 -0.295184 1.40942 0
M  V30 3986 H 374.958 -3.05346 2.90417 0
M  V30 3987 H 373.682 -2.79565 1.68853 0
M  V30 3988 H 372.341 -1.46954 3.35857 0
M  V30 3989 H 371.989 -3.93529 3.13279 0
M  V30 3990 H 371.689 -3.38758 4.80122 0
M  V30 3991 H 373.213 -4.23062 4.40285 0
M  V30 3992 H 374.627 -2.15017 5.31451 0
M  V30 3993 H 373.024 -1.52796 5.80322 0
M  V30 3994 H 374.094 -0.51039 4.82206 0
M  V30 3995 N 375.437 -1.54477 -0.31217 0
M  V30 3996 C 376.347 -1.87695 -1.4074 0
M  V30 3997 C 377.363 -0.769975 -1.56036 0
M  V30 3998 O 378.539 -1.06537 -1.70915 0
M  V30 3999 C 375.604 -2.10755 -2.75287 0
M  V30 4000 C 374.665 -3.34514 -2.69071 0
M  V30 4001 C 373.898 -3.56465 -3.97201 0
M  V30 4002 O 374.121 -2.81637 -4.96021 0
M  V30 4003 O 373.055 -4.49964 -3.9977 0
M  V30 4004 H 376.881 -2.80849 -1.15574 0
M  V30 4005 H 374.466 -1.40526 -0.507228 0
M  V30 4006 H 376.348 -2.27188 -3.54913 0
M  V30 4007 H 375.023 -1.20788 -3.0032 0
M  V30 4008 H 373.93 -3.23456 -1.87955 0
M  V30 4009 H 375.263 -4.24575 -2.48992 0
M  V30 4010 N 376.915 0.57481 -1.46744 0
M  V30 4011 C 377.865 1.67838 -1.54319 0
M  V30 4012 C 378.849 1.55759 -0.40346 0
M  V30 4013 O 380.041 1.6454 -0.652347 0
M  V30 4014 C 377.17 3.06624 -1.5439 0
M  V30 4015 C 376.256 3.23971 -2.73685 0
M  V30 4016 N 376.647 3.11447 -3.9854 0
M  V30 4017 C 374.945 3.5493 -2.70075 0
M  V30 4018 C 375.646 3.31011 -4.78337 0
M  V30 4019 N 374.622 3.56533 -4.10348 0
M  V30 4020 H 378.424 1.56698 -2.48642 0
M  V30 4021 H 375.938 0.779071 -1.42493 0
M  V30 4022 H 377.935 3.85839 -1.57905 0
M  V30 4023 H 376.595 3.1889 -0.611493 0
M  V30 4024 H 377.606 2.89145 -4.29669 0
M  V30 4025 H 374.283 3.73832 -1.85893 0
M  V30 4026 H 375.673 3.26445 -5.87268 0
M  V30 4027 N 378.394 1.34581 0.820102 0
M  V30 4028 C 379.619 1.30333 1.61332 0
M  V30 4029 C 380.044 -0.119339 1.87721 0
M  V30 4030 O 379.402 -1.08197 1.45475 0
M  V30 4031 C 379.45 2.10258 2.92957 0
M  V30 4032 O 378.554 1.47404 3.85157 0
M  V30 4033 H 377.895 0.447488 0.490561 0
M  V30 4034 H 380.425 1.77425 1.01889 0
M  V30 4035 H 380.435 2.21718 3.42498 0
M  V30 4036 H 379.11 3.13693 2.73074 0
M  V30 4037 H 377.687 1.44703 3.43679 0
M  V30 4038 N 379.872 -1.04064 1.18357 0
M  V30 4039 C 380.82 -2.14187 0.907007 0
M  V30 4040 C 381.814 -1.68879 -0.132725 0
M  V30 4041 O 383.02 -1.79993 0.0154248 0
M  V30 4042 H 379.395 -0.699585 0.275835 0
M  V30 4043 H 381.366 -2.34711 1.84264 0
M  V30 4044 C 380.115 -3.44785 0.449254 0
M  V30 4045 H 379.438 -3.80058 1.24081 0
M  V30 4046 H 380.878 -4.22974 0.294737 0
M  V30 4047 C 379.337 -3.26391 -0.834909 0
M  V30 4048 O 379.867 -3.53973 -1.89911 0
M  V30 4049 N 378.073 -2.79726 -0.787523 0
M  V30 4050 H 377.62 -2.5748 0.0787347 0
M  V30 4051 H 377.578 -2.67798 -1.64716 0
M  V30 4052 N 381.35 -0.985608 -1.22978 0
M  V30 4053 C 382.627 -0.573599 -1.87001 0
M  V30 4054 C 383.007 0.949213 -1.88555 0
M  V30 4055 O 382.355 1.82811 -1.37086 0
M  V30 4056 C 382.565 -1.18564 -3.28243 0
M  V30 4057 C 383.913 -1.28163 -4.04796 0
M  V30 4058 O 384.937 -1.13949 -3.37482 0
M  V30 4059 O 383.796 -1.50832 -5.25273 0
M  V30 4060 H 380.89 -0.193868 -0.803955 0
M  V30 4061 H 383.436 -1.08102 -1.30813 0
M  V30 4062 H 382.208 -2.22758 -3.21706 0
M  V30 4063 H 381.831 -0.663363 -3.92027 0
M  V30 4064 N 382.828 1.3818 -0.7579 0
M  V30 4065 C 384.239 1.82726 -0.383134 0
M  V30 4066 C 384.59 1.63214 1.08884 0
M  V30 4067 O 383.715 1.13566 1.84205 0
M  V30 4068 C 384.31 3.31728 -0.688631 0
M  V30 4069 C 382.869 3.74606 -0.367091 0
M  V30 4070 C 382.016 2.60896 -0.939599 0
M  V30 4071 H 384.967 1.26847 -0.953699 0
M  V30 4072 H 384.988 3.80487 0.0316492 0
M  V30 4073 H 384.5 3.45898 -1.76001 0
M  V30 4074 H 382.601 3.66013 0.697532 0
M  V30 4075 H 382.714 4.71215 -0.865658 0
M  V30 4076 H 381.078 2.52075 -0.3647 0
M  V30 4077 H 381.861 2.77864 -2.0161 0
M  V30 4078 N 384.306 0.507319 1.49211 0
M  V30 4079 C 385.534 -0.0315749 2.06876 0
M  V30 4080 C 385.949 -1.30241 1.36685 0
M  V30 4081 O 385.306 -1.76937 0.447152 0
M  V30 4082 C 385.357 -0.282627 3.60393 0
M  V30 4083 O 385.078 0.937835 4.27944 0
M  V30 4084 C 386.579 -0.864453 4.3479 0
M  V30 4085 H 383.799 0.0233048 0.670595 0
M  V30 4086 H 386.343 0.706484 1.91909 0
M  V30 4087 H 384.498 -0.97068 3.75042 0
M  V30 4088 H 384.912 0.704567 5.19746 0
M  V30 4089 H 386.386 -0.989664 5.43056 0
M  V30 4090 H 386.863 -1.86382 3.97692 0
M  V30 4091 H 387.469 -0.213672 4.24763 0
M  V30 4092 N 385.784 -1.5574 0.241426 0
M  V30 4093 C 386.747 -2.19877 -0.647063 0
M  V30 4094 C 387.747 -1.16642 -1.10686 0
M  V30 4095 O 388.937 -1.41757 -1.01245 0
M  V30 4096 C 386.069 -2.83797 -1.88871 0
M  V30 4097 H 387.262 -2.99772 -0.087574 0
M  V30 4098 H 384.815 -1.56298 -0.00813574 0
M  V30 4099 H 385.55 -2.07824 -2.48957 0
M  V30 4100 H 385.335 -3.59414 -1.56728 0
M  V30 4101 H 386.825 -3.32898 -2.52129 0
M  V30 4102 N 387.262 0.0317525 -1.57568 0
M  V30 4103 C 388.511 0.722131 -1.8833 0
M  V30 4104 C 388.824 1.76664 -0.839587 0
M  V30 4105 O 390.03 2.50942 -1.03635 0
M  V30 4106 C 388.486 1.33544 -3.34207 0
M  V30 4107 C 388.094 0.327415 -4.46802 0
M  V30 4108 C 389.838 2.00585 -3.7412 0
M  V30 4109 C 387.745 0.948915 -5.83738 0
M  V30 4110 H 386.675 0.273466 -0.702661 0
M  V30 4111 H 389.326 -0.0235811 -1.83485 0
M  V30 4112 H 387.708 2.13077 -3.33788 0
M  V30 4113 H 388.882 -0.441006 -4.58685 0
M  V30 4114 H 387.197 -0.240758 -4.15703 0
M  V30 4115 H 389.794 2.47932 -4.73744 0
M  V30 4116 H 390.137 2.82285 -3.05975 0
M  V30 4117 H 390.67 1.27831 -3.76702 0
M  V30 4118 H 387.409 0.171387 -6.55276 0
M  V30 4119 H 386.929 1.68724 -5.7558 0
M  V30 4120 H 388.608 1.45705 -6.3038 0
M  V30 4121 N 388.74 1.54641 0.303973 0
M  V30 4122 C 389.673 1.80263 1.3993 0
M  V30 4123 C 390.651 0.653657 1.48883 0
M  V30 4124 O 391.835 0.893284 1.6599 0
M  V30 4125 C 388.962 1.9367 2.77866 0
M  V30 4126 C 388.008 3.16078 2.86351 0
M  V30 4127 S 388.841 4.74219 2.4875 0
M  V30 4128 C 389.997 4.90558 3.88721 0
M  V30 4129 H 390.23 2.72886 1.17986 0
M  V30 4130 H 387.763 1.46014 0.501918 0
M  V30 4131 H 389.721 2.0208 3.57315 0
M  V30 4132 H 388.382 1.01991 2.9708 0
M  V30 4133 H 387.575 3.22252 3.87517 0
M  V30 4134 H 387.177 3.06099 2.14893 0
M  V30 4135 H 389.469 4.74398 4.83687 0
M  V30 4136 H 390.412 5.92651 3.87518 0
M  V30 4137 H 390.82 4.18728 3.78585 0
M  V30 4138 N 390.218 -0.567019 1.47046 0
M  V30 4139 C 391.181 -1.65696 1.58359 0
M  V30 4140 C 392.181 -1.54097 0.459441 0
M  V30 4141 O 393.371 -1.58432 0.724225 0
M  V30 4142 C 390.503 -3.05197 1.51879 0
M  V30 4143 H 391.696 -1.57019 2.5551 0
M  V30 4144 H 389.249 -0.786148 1.3509 0
M  V30 4145 H 389.984 -3.19417 0.560673 0
M  V30 4146 H 389.769 -3.15025 2.33455 0
M  V30 4147 H 391.259 -3.84511 1.62913 0
M  V30 4148 N 391.696 -1.35014 -0.812953 0
M  V30 4149 C 393.107 -1.25035 -1.38648 0
M  V30 4150 C 393.458 0.119967 -1.95833 0
M  V30 4151 O 392.583 1.02069 -1.90816 0
M  V30 4152 C 393.178 -2.26394 -2.52054 0
M  V30 4153 C 391.737 -2.20175 -3.05287 0
M  V30 4154 C 390.884 -2.12451 -1.78213 0
M  V30 4155 H 393.835 -1.46235 -0.616516 0
M  V30 4156 H 393.856 -1.88672 -3.30429 0
M  V30 4157 H 393.368 -3.26116 -2.10404 0
M  V30 4158 H 391.469 -1.23841 -3.51417 0
M  V30 4159 H 391.582 -3.11863 -3.63701 0
M  V30 4160 H 389.946 -1.58328 -1.9951 0
M  V30 4161 H 390.729 -3.14024 -1.38723 0
M  V30 4162 N 393.175 1.03435 -1.18907 0
M  V30 4163 C 394.422 1.76743 -0.988334 0
M  V30 4164 C 394.75 1.88447 0.481441 0
M  V30 4165 O 394.005 1.39383 1.37371 0
M  V30 4166 C 394.304 3.19792 -1.59586 0
M  V30 4167 C 393.97 3.28108 -3.09283 0
M  V30 4168 C 392.632 3.30084 -3.5014 0
M  V30 4169 C 394.984 3.27696 -4.05296 0
M  V30 4170 C 392.312 3.29299 -4.85571 0
M  V30 4171 C 394.664 3.28451 -5.4065 0
M  V30 4172 C 393.328 3.28723 -5.80946 0
M  V30 4173 H 392.598 0.64675 -0.361657 0
M  V30 4174 H 395.245 1.21442 -1.48068 0
M  V30 4175 H 393.55 3.78136 -1.02568 0
M  V30 4176 H 395.247 3.75171 -1.41589 0
M  V30 4177 H 391.837 3.27294 -2.76725 0
M  V30 4178 H 396.021 3.25354 -3.74778 0
M  V30 4179 H 391.277 3.2783 -5.16079 0
M  V30 4180 H 395.451 3.27082 -6.14809 0
M  V30 4181 H 393.078 3.27868 -6.85862 0
M  V30 4182 N 394.653 0.992116 1.22453 0
M  V30 4183 C 395.883 0.684949 1.94915 0
M  V30 4184 C 396.291 -0.754292 1.73514 0
M  V30 4185 O 395.634 -1.52056 1.03076 0
M  V30 4186 C 395.696 0.910054 3.47791 0
M  V30 4187 C 395.36 2.33363 3.92926 0
M  V30 4188 C 396.357 3.31308 4.00663 0
M  V30 4189 C 394.042 2.66785 4.25595 0
M  V30 4190 C 396.036 4.6075 4.40441 0
M  V30 4191 C 393.723 3.96446 4.65053 0
M  V30 4192 C 394.721 4.9324 4.72444 0
M  V30 4193 O 394.409 6.20584 5.1101 0
M  V30 4194 H 394.141 0.25258 0.62704 0
M  V30 4195 H 396.695 1.32939 1.56577 0
M  V30 4196 H 394.925 0.208443 3.86138 0
M  V30 4197 H 396.614 0.598257 4.01467 0
M  V30 4198 H 397.38 3.0682 3.75615 0
M  V30 4199 H 393.259 1.92148 4.19047 0
M  V30 4200 H 396.803 5.363 4.46126 0
M  V30 4201 H 392.7 4.20724 4.89552 0
M  V30 4202 H 393.468 6.24509 5.29085 0
M  V30 4203 N 396.131 -1.37776 0.765217 0
M  V30 4204 C 397.063 -2.28958 0.105361 0
M  V30 4205 C 398.076 -1.48316 -0.67128 0
M  V30 4206 O 399.265 -1.71046 -0.51045 0
M  V30 4207 C 396.365 -3.27421 -0.874569 0
M  V30 4208 C 395.538 -4.37132 -0.153123 0
M  V30 4209 C 394.597 -5.1571 -1.04547 0
M  V30 4210 O 393.623 -5.66896 -0.511672 0
M  V30 4211 N 394.825 -5.29808 -2.37243 0
M  V30 4212 H 397.59 -2.86227 0.888495 0
M  V30 4213 H 395.151 -1.49682 0.617 0
M  V30 4214 H 397.143 -3.7687 -1.47483 0
M  V30 4215 H 395.713 -2.70967 -1.55871 0
M  V30 4216 H 394.933 -3.89166 0.627975 0
M  V30 4217 H 396.221 -5.07625 0.345643 0
M  V30 4218 H 395.619 -4.89793 -2.83054 0
M  V30 4219 H 394.176 -5.82589 -2.9229 0
M  V30 4220 N 397.609 -0.515225 -1.4894 0
M  V30 4221 C 398.839 0.0205735 -2.0659 0
M  V30 4222 C 399.247 1.30064 -1.37405 0
M  V30 4223 O 398.59 1.78087 -0.450632 0
M  V30 4224 C 398.652 0.330124 -3.57981 0
M  V30 4225 C 398.316 -0.854295 -4.48944 0
M  V30 4226 C 399.313 -1.7487 -4.89609 0
M  V30 4227 C 396.998 -1.05712 -4.9105 0
M  V30 4228 C 398.992 -2.82996 -5.71132 0
M  V30 4229 C 396.679 -2.14154 -5.72347 0
M  V30 4230 C 397.677 -3.0263 -6.12294 0
M  V30 4231 O 397.365 -4.09198 -6.91962 0
M  V30 4232 H 397.097 -0.0236833 -0.675585 0
M  V30 4233 H 399.651 -0.715956 -1.92518 0
M  V30 4234 H 397.881 1.12044 -3.70112 0
M  V30 4235 H 399.57 0.806233 -3.97812 0
M  V30 4236 H 400.336 -1.60388 -4.57712 0
M  V30 4237 H 396.215 -0.377788 -4.59449 0
M  V30 4238 H 399.759 -3.52083 -6.02232 0
M  V30 4239 H 395.656 -2.28626 -6.03656 0
M  V30 4240 H 396.424 -4.06726 -7.10293 0
M  V30 4241 N 399.087 1.5561 -0.249682 0
M  V30 4242 C 400.02 2.17537 0.689408 0
M  V30 4243 C 400.998 1.12829 1.17083 0
M  V30 4244 O 402.182 1.41229 1.24846 0
M  V30 4245 C 399.309 2.77828 1.93725 0
M  V30 4246 C 398.355 3.95615 1.59346 0
M  V30 4247 S 399.188 5.30988 0.69367 0
M  V30 4248 C 400.344 5.94734 1.95046 0
M  V30 4249 H 400.577 2.96852 0.163142 0
M  V30 4250 H 398.11 1.54362 -0.0341166 0
M  V30 4251 H 400.068 3.13199 2.65361 0
M  V30 4252 H 398.729 1.98454 2.43465 0
M  V30 4253 H 397.922 4.364 2.52132 0
M  V30 4254 H 397.524 3.61535 0.957512 0
M  V30 4255 H 399.816 6.12419 2.89739 0
M  V30 4256 H 400.759 6.90109 1.58604 0
M  V30 4257 H 401.167 5.23832 2.10381 0
M  V30 4258 N 400.565 -0.0233959 1.57583 0
M  V30 4259 C 401.475 -1.03907 2.10334 0
M  V30 4260 C 402.491 -1.39257 1.04323 0
M  V30 4261 O 403.667 -1.48462 1.36091 0
M  V30 4262 C 400.732 -2.31938 2.57693 0
M  V30 4263 C 399.793 -2.03117 3.78209 0
M  V30 4264 C 399.026 -3.25043 4.233 0
M  V30 4265 O 399.249 -4.35916 3.67876 0
M  V30 4266 O 398.183 -3.10411 5.15683 0
M  V30 4267 H 402.009 -0.620748 2.97288 0
M  V30 4268 H 399.594 -0.240743 1.47448 0
M  V30 4269 H 401.476 -3.07196 2.88458 0
M  V30 4270 H 400.151 -2.73055 1.73847 0
M  V30 4271 H 399.058 -1.25408 3.52454 0
M  V30 4272 H 400.391 -1.66852 4.63056 0
M  V30 4273 N 402.043 -1.548 -0.295768 0
M  V30 4274 C 403.271 -1.78327 -1.04914 0
M  V30 4275 C 403.686 -0.545316 -1.80753 0
M  V30 4276 O 403.043 0.485013 -1.75937 0
M  V30 4277 C 403.094 -2.99418 -2.02561 0
M  V30 4278 O 402.815 -4.18431 -1.29798 0
M  V30 4279 C 404.316 -3.35375 -2.89895 0
M  V30 4280 H 401.536 -0.594618 -0.310918 0
M  V30 4281 H 404.08 -2.01763 -0.333454 0
M  V30 4282 H 402.235 -2.78175 -2.69624 0
M  V30 4283 H 402.649 -4.86736 -1.95419 0
M  V30 4284 H 404.123 -4.23332 -3.54251 0
M  V30 4285 H 404.6 -2.53761 -3.58472 0
M  V30 4286 H 405.206 -3.58796 -2.28355 0
M  V30 4287 N 403.521 0.559213 -1.47345 0
M  V30 4288 C 404.798 1.31997 -1.44348 0
M  V30 4289 C 405.178 2.1064 -0.139358 0
M  V30 4290 O 404.526 2.1091 0.879153 0
M  V30 4291 C 404.736 2.22618 -2.68779 0
M  V30 4292 C 406.084 2.83701 -3.1591 0
M  V30 4293 O 407.108 2.32921 -2.69493 0
M  V30 4294 O 405.967 3.75993 -3.966 0
M  V30 4295 H 403.061 0.594251 -0.575147 0
M  V30 4296 H 405.607 0.578282 -1.59543 0
M  V30 4297 H 404.379 1.64093 -3.55231 0
M  V30 4298 H 404.002 3.04085 -2.5616 0
M  V30 4299 N 404.999 1.35443 0.805782 0
M  V30 4300 C 405.947 1.28465 1.93906 0
M  V30 4301 C 406.941 0.17943 1.68447 0
M  V30 4302 O 408.147 0.345459 1.76654 0
M  V30 4303 H 404.522 0.399528 0.637088 0
M  V30 4304 H 406.493 2.24206 1.96912 0
M  V30 4305 C 405.242 1.07432 3.30687 0
M  V30 4306 H 404.565 1.91716 3.50835 0
M  V30 4307 H 406.005 1.06591 4.10383 0
M  V30 4308 C 404.464 -0.22179 3.36169 0
M  V30 4309 O 404.994 -1.21731 3.82811 0
M  V30 4310 N 403.2 -0.260841 2.89427 0
M  V30 4311 H 402.747 0.549884 2.51663 0
M  V30 4312 H 402.705 -1.12777 2.93477 0
M  V30 4313 N 406.477 -1.02803 1.19454 0
M  V30 4314 C 407.724 -1.76217 0.997693 0
M  V30 4315 C 408.052 -1.887 -0.47144 0
M  V30 4316 O 407.307 -1.4011 -1.3663 0
M  V30 4317 C 407.606 -3.18941 1.6128 0
M  V30 4318 C 407.272 -3.26463 3.11019 0
M  V30 4319 C 405.934 -3.28223 3.51885 0
M  V30 4320 C 408.286 -3.25542 4.07028 0
M  V30 4321 C 405.614 -3.26719 4.8731 0
M  V30 4322 C 407.966 -3.25579 5.42385 0
M  V30 4323 C 406.63 -3.25637 5.82681 0
M  V30 4324 H 405.9 -0.644823 0.365082 0
M  V30 4325 H 408.547 -1.20655 1.4871 0
M  V30 4326 H 406.852 -3.77587 1.04572 0
M  V30 4327 H 408.549 -3.74415 1.43577 0
M  V30 4328 H 405.139 -3.25822 2.78457 0
M  V30 4329 H 409.323 -3.23362 3.76498 0
M  V30 4330 H 404.579 -3.25089 5.1781 0
M  V30 4331 H 408.753 -3.23817 6.16535 0
M  V30 4332 H 406.38 -3.24226 6.87591 0
M  V30 4333 N 407.956 -0.998596 -1.21925 0
M  V30 4334 C 408.903 -0.553621 -2.24062 0
M  V30 4335 C 409.873 0.416999 -1.6078 0
M  V30 4336 O 411.058 0.320482 -1.88089 0
M  V30 4337 C 408.198 0.119959 -3.44891 0
M  V30 4338 C 407.311 -0.893077 -4.22668 0
M  V30 4339 C 406.446 -0.192424 -5.30851 0
M  V30 4340 C 405.485 -1.19344 -6.00353 0
M  V30 4341 N 404.622 -0.520707 -7.00166 0
M  V30 4342 H 409.462 -1.4293 -2.61486 0
M  V30 4343 H 406.999 -0.715838 -1.28507 0
M  V30 4344 H 408.957 0.527459 -4.13852 0
M  V30 4345 H 407.587 0.959389 -3.08214 0
M  V30 4346 H 406.639 -1.41886 -3.52948 0
M  V30 4347 H 407.951 -1.65512 -4.70539 0
M  V30 4348 H 407.105 0.271515 -6.06092 0
M  V30 4349 H 405.844 0.602075 -4.83969 0
M  V30 4350 H 404.849 -1.66795 -5.23889 0
M  V30 4351 H 406.074 -1.98891 -6.49322 0
M  V30 4352 H 404.02 0.254252 -6.55507 0
M  V30 4353 H 403.937 -1.2211 -7.46073 0
M  V30 4354 H 405.205 -0.0797596 -7.79459 0
M  V30 4355 N 409.434 1.37368 -0.772513 0
M  V30 4356 C 410.364 2.32856 -0.173304 0
M  V30 4357 C 411.345 1.55818 0.682262 0
M  V30 4358 O 412.53 1.84052 0.619566 0
M  V30 4359 C 409.66 3.40048 0.706007 0
M  V30 4360 C 408.614 4.27973 -0.0483144 0
M  V30 4361 C 407.94 5.26184 0.950491 0
M  V30 4362 C 409.24 5.07665 -1.22776 0
M  V30 4363 H 410.934 2.83217 -0.971002 0
M  V30 4364 H 408.48 1.3617 -0.468377 0
M  V30 4365 H 410.433 4.05827 1.13501 0
M  V30 4366 H 409.157 2.88214 1.53623 0
M  V30 4367 H 407.816 3.63726 -0.458107 0
M  V30 4368 H 407.464 4.7063 1.77529 0
M  V30 4369 H 407.164 5.85872 0.450314 0
M  V30 4370 H 408.688 5.94838 1.37842 0
M  V30 4371 H 410.102 5.66578 -0.875366 0
M  V30 4372 H 408.499 5.76681 -1.66007 0
M  V30 4373 H 409.569 4.40294 -2.03149 0
M  V30 4374 N 410.912 0.523116 1.48665 0
M  V30 4375 C 412.323 0.0808997 1.86525 0
M  V30 4376 C 412.674 -1.33975 1.43336 0
M  V30 4377 O 411.799 -2.00221 0.821009 0
M  V30 4378 C 412.394 0.140037 3.3851 0
M  V30 4379 C 410.953 -0.246948 3.75589 0
M  V30 4380 C 410.1 0.502845 2.72703 0
M  V30 4381 H 413.051 0.734736 1.40667 0
M  V30 4382 H 413.072 -0.649945 3.74908 0
M  V30 4383 H 412.584 1.17412 3.69914 0
M  V30 4384 H 410.685 -1.28343 3.49798 0
M  V30 4385 H 410.798 0.0878859 4.79019 0
M  V30 4386 H 409.162 -0.0500581 2.54651 0
M  V30 4387 H 409.945 1.53743 3.0695 0
M  V30 4388 N 412.39 -1.55475 0.257931 0
M  V30 4389 C 413.338 -2.23244 -0.653076 0
M  V30 4390 C 414.332 -1.22366 -1.17144 0
M  V30 4391 O 415.538 -1.40347 -1.12706 0
M  V30 4392 H 411.913 -0.716247 -0.229117 0
M  V30 4393 H 413.884 -2.98343 -0.0584788 0
M  V30 4394 C 412.633 -2.95401 -1.83395 0
M  V30 4395 H 411.956 -3.72802 -1.44424 0
M  V30 4396 H 413.396 -3.46165 -2.44838 0
M  V30 4397 C 411.855 -1.99895 -2.71189 0
M  V30 4398 O 412.385 -1.53909 -3.71046 0
M  V30 4399 N 410.591 -1.6676 -2.3799 0
M  V30 4400 H 410.138 -2.04352 -1.56837 0
M  V30 4401 H 410.096 -1.03127 -2.97005 0
M  V30 4402 N 413.868 0.0150385 -1.57593 0
M  V30 4403 C 415.145 0.7392 -1.81094 0
M  V30 4404 C 415.525 1.92817 -0.859344 0
M  V30 4405 O 414.873 2.28301 0.095362 0
M  V30 4406 C 415.083 1.15907 -3.29191 0
M  V30 4407 C 416.431 1.56918 -3.9454 0
M  V30 4408 O 417.455 1.25328 -3.33424 0
M  V30 4409 O 416.314 2.15604 -5.02173 0
M  V30 4410 H 413.408 0.358631 -0.745193 0
M  V30 4411 H 415.954 -0.00926156 -1.69697 0
M  V30 4412 H 414.726 0.310921 -3.90063 0
M  V30 4413 H 414.349 1.96711 -3.45529 0
M  V30 4414 N 415.346 1.54954 0.287554 0
M  V30 4415 C 416.623 1.65569 1.04146 0
M  V30 4416 C 417.003 0.512672 2.0478 0
M  V30 4417 O 416.351 -0.489038 2.23205 0
M  V30 4418 C 416.561 3.04163 1.71131 0
M  V30 4419 C 417.909 3.61429 2.22832 0
M  V30 4420 O 418.933 3.06702 1.81141 0
M  V30 4421 O 417.792 4.57281 2.9926 0
M  V30 4422 H 414.886 0.671881 0.482188 0
M  V30 4423 H 417.432 1.67297 0.28457 0
M  V30 4424 H 416.204 3.78796 0.981303 0
M  V30 4425 H 415.827 3.06271 2.53543 0
M  V30 4426 N 416.824 -0.551391 1.4764 0
M  V30 4427 C 417.754 -1.66757 1.63445 0
M  V30 4428 C 418.735 -1.63077 0.483742 0
M  V30 4429 O 419.92 -1.80607 0.71377 0
M  V30 4430 C 417.05 -3.05387 1.65396 0
M  V30 4431 C 416.004 -3.23918 2.79752 0
M  V30 4432 C 415.33 -4.63393 2.66779 0
M  V30 4433 C 416.63 -3.08735 4.21284 0
M  V30 4434 H 418.324 -1.53786 2.56886 0
M  V30 4435 H 415.87 -0.738415 1.23626 0
M  V30 4436 H 417.823 -3.83325 1.75043 0
M  V30 4437 H 416.547 -3.19332 0.685195 0
M  V30 4438 H 415.206 -2.48391 2.69625 0
M  V30 4439 H 414.854 -4.74144 1.67918 0
M  V30 4440 H 414.554 -4.7674 3.43501 0
M  V30 4441 H 416.078 -5.43458 2.78364 0
M  V30 4442 H 417.492 -3.76484 4.32357 0
M  V30 4443 H 415.889 -3.33588 4.98838 0
M  V30 4444 H 416.959 -2.0541 4.39243 0
M  V30 4445 N 418.302 -1.35869 -0.798587 0
M  V30 4446 C 419.234 -1.25305 -1.91915 0
M  V30 4447 C 420.247 -0.174548 -1.61862 0
M  V30 4448 O 421.436 -0.428499 -1.73281 0
M  V30 4449 C 418.536 -0.9086 -3.26493 0
M  V30 4450 C 417.709 -2.08711 -3.84394 0
M  V30 4451 C 416.768 -1.71717 -4.97393 0
M  V30 4452 O 415.794 -2.43692 -5.14396 0
M  V30 4453 N 416.996 -0.645473 -5.769 0
M  V30 4454 H 419.761 -2.21849 -2.01502 0
M  V30 4455 H 417.322 -1.29143 -0.976408 0
M  V30 4456 H 419.314 -0.642455 -3.99568 0
M  V30 4457 H 417.884 -0.0325815 -3.12583 0
M  V30 4458 H 417.104 -2.51659 -3.03416 0
M  V30 4459 H 418.392 -2.87468 -4.19809 0
M  V30 4460 H 417.79 -0.047648 -5.6568 0
M  V30 4461 H 416.347 -0.43913 -6.50319 0
M  V30 4462 N 419.78 1.02168 -1.19998 0
M  V30 4463 C 421.028 1.75338 -1.00504 0
M  V30 4464 C 421.349 1.89387 0.464506 0
M  V30 4465 O 420.619 1.43268 1.33608 0
M  V30 4466 H 419.199 0.649564 -0.368885 0
M  V30 4467 H 421.861 1.23205 -1.51018 0
M  V30 4468 H 420.957 2.75892 -1.45912 0
M  V30 4469 N 421.258 1.00505 1.21394 0
M  V30 4470 C 422.507 0.683159 1.89778 0
M  V30 4471 C 422.82 -0.789471 1.7896 0
M  V30 4472 O 424.026 -1.22344 2.42372 0
M  V30 4473 C 422.482 1.17146 3.40301 0
M  V30 4474 C 422.09 2.67017 3.5973 0
M  V30 4475 C 423.834 0.924461 4.14311 0
M  V30 4476 C 421.741 3.09387 5.04017 0
M  V30 4477 H 420.671 0.25183 0.710702 0
M  V30 4478 H 423.322 1.21622 1.37406 0
M  V30 4479 H 421.704 0.566451 3.91928 0
M  V30 4480 H 422.878 3.32968 3.18542 0
M  V30 4481 H 421.193 2.89732 2.99073 0
M  V30 4482 H 423.79 1.21658 5.20676 0
M  V30 4483 H 424.133 -0.139286 4.16067 0
M  V30 4484 H 424.666 1.49226 3.6875 0
M  V30 4485 H 421.405 4.14989 5.07409 0
M  V30 4486 H 420.925 2.48149 5.46061 0
M  V30 4487 H 422.604 3.01371 5.72525 0
M  V30 4488 N 422.737 -1.36956 0.779787 0
M  V30 4489 C 423.669 -2.28833 0.129639 0
M  V30 4490 C 424.682 -1.4902 -0.655511 0
M  V30 4491 O 425.871 -1.71578 -0.492279 0
M  V30 4492 C 422.971 -3.2833 -0.839792 0
M  V30 4493 C 422.144 -4.3727 -0.10675 0
M  V30 4494 C 421.203 -5.16789 -0.990717 0
M  V30 4495 O 420.229 -5.67406 -0.451516 0
M  V30 4496 N 421.431 -5.32294 -2.3161 0
M  V30 4497 H 424.196 -2.85268 0.918803 0
M  V30 4498 H 421.757 -1.49019 0.632841 0
M  V30 4499 H 423.749 -3.78413 -1.43477 0
M  V30 4500 H 422.319 -2.72605 -1.52988 0
M  V30 4501 H 421.539 -3.88478 0.669216 0
M  V30 4502 H 422.827 -5.07229 0.399464 0
M  V30 4503 H 422.225 -4.92768 -2.77843 0
M  V30 4504 H 420.782 -5.85656 -2.86095 0
M  V30 4505 N 424.215 -0.530993 -1.48385 0
M  V30 4506 C 425.162 0.231223 -2.29639 0
M  V30 4507 C 426.132 0.932864 -1.37429 0
M  V30 4508 O 427.317 0.933692 -1.66394 0
M  V30 4509 C 424.457 1.27155 -3.2082 0
M  V30 4510 C 423.57 0.578655 -4.28107 0
M  V30 4511 C 422.705 1.602 -5.06467 0
M  V30 4512 C 421.744 0.892625 -6.05556 0
M  V30 4513 N 420.881 1.86157 -6.76971 0
M  V30 4514 H 425.721 -0.467848 -2.94305 0
M  V30 4515 H 423.258 -0.242556 -1.45086 0
M  V30 4516 H 425.216 1.88703 -3.72085 0
M  V30 4517 H 423.846 1.939 -2.58075 0
M  V30 4518 H 422.898 -0.150782 -3.80101 0
M  V30 4519 H 424.21 0.0217065 -4.98795 0
M  V30 4520 H 423.364 2.29173 -5.61751 0
M  V30 4521 H 422.103 2.19285 -4.35621 0
M  V30 4522 H 421.108 0.188829 -5.49476 0
M  V30 4523 H 422.333 0.307878 -6.78402 0
M  V30 4524 H 420.279 2.44147 -6.08875 0
M  V30 4525 H 420.196 1.35608 -7.43738 0
M  V30 4526 H 421.464 2.54325 -7.36844 0
M  V30 4527 N 425.693 1.55336 -0.266172 0
M  V30 4528 C 426.942 1.98574 0.353749 0
M  V30 4529 C 427.255 1.15789 1.57646 0
M  V30 4530 O 428.461 1.49129 2.26876 0
M  V30 4531 C 426.917 3.53403 0.680747 0
M  V30 4532 C 426.525 4.44953 -0.52165 0
M  V30 4533 C 428.269 4.05251 1.26379 0
M  V30 4534 C 426.176 5.91156 -0.169736 0
M  V30 4535 H 425.106 0.741643 0.135949 0
M  V30 4536 H 427.757 1.79743 -0.369421 0
M  V30 4537 H 426.139 3.68001 1.46257 0
M  V30 4538 H 427.313 4.42121 -1.29869 0
M  V30 4539 H 425.628 4.03691 -1.02093 0
M  V30 4540 H 428.225 5.12021 1.54074 0
M  V30 4541 H 428.568 3.53749 2.19471 0
M  V30 4542 H 429.101 3.94057 0.544447 0
M  V30 4543 H 425.84 6.46736 -1.0683 0
M  V30 4544 H 425.36 5.97079 0.570717 0
M  V30 4545 H 427.039 6.4655 0.241245 0
M  V30 4546 N 427.171 -0.0066808 1.57599 0
M  V30 4547 C 428.401 -0.703066 1.94269 0
M  V30 4548 C 428.809 -1.68206 0.866222 0
M  V30 4549 O 428.152 -1.82966 -0.164087 0
M  V30 4550 C 428.214 -1.49616 3.26887 0
M  V30 4551 C 427.878 -0.679494 4.5192 0
M  V30 4552 C 428.875 0.0299508 5.19891 0
M  V30 4553 C 426.56 -0.627433 4.98366 0
M  V30 4554 C 428.554 0.780514 6.32603 0
M  V30 4555 C 426.241 0.126861 6.10968 0
M  V30 4556 C 427.239 0.829574 6.77943 0
M  V30 4557 O 426.927 1.57157 7.88389 0
M  V30 4558 H 426.659 -0.201217 0.645359 0
M  V30 4559 H 429.213 0.0385326 2.05364 0
M  V30 4560 H 427.443 -2.28209 3.12182 0
M  V30 4561 H 429.132 -2.07726 3.48719 0
M  V30 4562 H 429.898 -0.00115963 4.85 0
M  V30 4563 H 425.777 -1.16392 4.46065 0
M  V30 4564 H 429.321 1.32954 6.84813 0
M  V30 4565 H 425.218 0.159815 6.45302 0
M  V30 4566 H 425.986 1.48758 8.04868 0
M  V30 4567 N 428.649 -1.55105 -0.279332 0
M  V30 4568 C 429.897 -1.75066 -1.00977 0
M  V30 4569 C 430.218 -0.551276 -1.87045 0
M  V30 4570 O 429.488 0.433984 -1.91032 0
M  V30 4571 H 428.068 -0.645578 -0.375816 0
M  V30 4572 H 430.73 -1.92497 -0.305089 0
M  V30 4573 H 429.826 -2.64894 -1.65038 0
M  V30 4574 N 430.127 0.543554 -1.4793 0
M  V30 4575 C 431.538 1.12561 -1.48953 0
M  V30 4576 C 431.889 1.94578 -0.251754 0
M  V30 4577 O 431.014 2.0665 0.642255 0
M  V30 4578 C 431.609 2.04801 -2.69892 0
M  V30 4579 C 430.168 2.58251 -2.73831 0
M  V30 4580 C 429.315 1.34918 -2.42265 0
M  V30 4581 H 432.266 0.32947 -1.55242 0
M  V30 4582 H 432.287 2.88886 -2.47639 0
M  V30 4583 H 431.799 1.4508 -3.59963 0
M  V30 4584 H 429.9 3.21732 -1.87934 0
M  V30 4585 H 430.013 2.98312 -3.74895 0
M  V30 4586 H 428.377 1.66046 -1.93134 0
M  V30 4587 H 429.16 0.769693 -3.3456 0
M  V30 4588 N 431.605 1.3629 0.791371 0
M  V30 4589 C 433.016 1.27225 1.36641 0
M  V30 4590 C 433.367 -0.0887968 1.95999 0
M  V30 4591 O 432.492 -0.990207 1.92416 0
M  V30 4592 C 433.087 2.30375 2.48421 0
M  V30 4593 C 431.646 2.25004 3.01746 0
M  V30 4594 C 430.793 2.15259 1.7481 0
M  V30 4595 H 433.744 1.47198 0.593173 0
M  V30 4596 H 433.765 1.93905 3.27385 0
M  V30 4597 H 433.277 3.29422 2.05189 0
M  V30 4598 H 431.378 1.29417 3.49403 0
M  V30 4599 H 431.491 3.1761 3.58693 0
M  V30 4600 H 429.855 1.61482 1.96966 0
M  V30 4601 H 430.638 3.16191 1.33709 0
M  V30 4602 N 433.083 -1.0153 1.20538 0
M  V30 4603 C 434.36 -1.72327 0.925343 0
M  V30 4604 C 434.74 -2.03383 -0.565547 0
M  V30 4605 O 434.088 -1.69934 -1.52757 0
M  V30 4606 C 434.298 -2.9902 1.79967 0
M  V30 4607 C 435.646 -3.72258 2.04228 0
M  V30 4608 O 436.67 -3.08979 1.77231 0
M  V30 4609 O 435.529 -4.86053 2.4983 0
M  V30 4610 H 432.623 -0.751099 0.346092 0
M  V30 4611 H 435.169 -1.07366 1.31417 0
M  V30 4612 H 433.941 -2.72402 2.80915 0
M  V30 4613 H 433.564 -3.71721 1.41099 0
M  V30 4614 N 434.561 -1.01147 -1.20859 0
M  V30 4615 C 435.508 -0.577354 -2.23462 0
M  V30 4616 C 436.478 0.399922 -1.61214 0
M  V30 4617 O 437.663 0.300515 -1.88419 0
M  V30 4618 C 434.803 0.083372 -3.44999 0
M  V30 4619 C 433.916 -0.937856 -4.21697 0
M  V30 4620 C 433.051 -0.248717 -5.30617 0
M  V30 4621 C 432.09 -1.25705 -5.99053 0
M  V30 4622 N 431.227 -0.594939 -6.99575 0
M  V30 4623 H 436.067 -1.45695 -2.59956 0
M  V30 4624 H 433.604 -0.729428 -1.27741 0
M  V30 4625 H 435.562 0.483535 -4.14388 0
M  V30 4626 H 434.192 0.926645 -3.09214 0
M  V30 4627 H 433.244 -1.45622 -3.51423 0
M  V30 4628 H 434.556 -1.70493 -4.68757 0
M  V30 4629 H 433.71 0.207215 -6.06346 0
M  V30 4630 H 432.449 0.55071 -4.84581 0
M  V30 4631 H 431.454 -1.72343 -5.2209 0
M  V30 4632 H 432.679 -2.05767 -6.47176 0
M  V30 4633 H 430.625 0.184713 -6.5574 0
M  V30 4634 H 430.542 -1.30017 -7.44736 0
M  V30 4635 H 431.81 -0.162427 -7.79331 0
M  V30 4636 N 436.039 1.36541 -0.78704 0
M  V30 4637 C 437.288 1.98552 -0.35494 0
M  V30 4638 C 437.601 1.63171 1.07864 0
M  V30 4639 O 438.807 2.18399 1.61289 0
M  V30 4640 C 437.263 3.55136 -0.583671 0
M  V30 4641 C 436.871 3.99444 -2.02851 0
M  V30 4642 C 438.615 4.2395 -0.215957 0
M  V30 4643 C 436.522 5.48796 -2.20403 0
M  V30 4644 H 435.452 0.742888 -0.128972 0
M  V30 4645 H 438.103 1.5587 -0.968337 0
M  V30 4646 H 436.485 3.95875 0.0994046 0
M  V30 4647 H 437.659 3.6991 -2.74779 0
M  V30 4648 H 435.974 3.43459 -2.35425 0
M  V30 4649 H 438.571 5.33709 -0.325405 0
M  V30 4650 H 438.914 4.07827 0.835646 0
M  V30 4651 H 439.447 3.88565 -0.852175 0
M  V30 4652 H 436.186 5.69864 -3.23937 0
M  V30 4653 H 435.706 5.79964 -1.52977 0
M  V30 4654 H 437.385 6.14986 -2.01002 0
M  V30 4655 N 437.518 0.538854 1.48102 0
M  V30 4656 C 438.929 0.100679 1.86428 0
M  V30 4657 C 439.28 -1.32447 1.44749 0
M  V30 4658 O 438.405 -1.99339 0.842199 0
M  V30 4659 C 439 0.175933 3.38343 0
M  V30 4660 C 437.559 -0.207098 3.7583 0
M  V30 4661 C 436.706 0.531741 2.72154 0
M  V30 4662 H 439.657 0.749614 1.3988 0
M  V30 4663 H 439.678 -0.610144 3.75576 0
M  V30 4664 H 439.19 1.21328 3.68648 0
M  V30 4665 H 437.291 -1.24626 3.5114 0
M  V30 4666 H 437.404 0.138687 4.78899 0
M  V30 4667 H 435.768 -0.0230462 2.5469 0
M  V30 4668 H 436.551 1.56989 3.05302 0
M  V30 4669 N 438.996 -1.55193 0.274407 0
M  V30 4670 C 440.407 -1.85358 -0.223488 0
M  V30 4671 C 440.758 -1.19642 -1.555 0
M  V30 4672 O 439.883 -0.484498 -2.10907 0
M  V30 4673 C 440.478 -3.36282 -0.412285 0
M  V30 4674 C 439.037 -3.66574 -0.854413 0
M  V30 4675 C 438.184 -2.7725 0.0527056 0
M  V30 4676 H 441.135 -1.50743 0.496215 0
M  V30 4677 H 441.156 -3.59349 -1.25094 0
M  V30 4678 H 440.668 -3.84083 0.556965 0
M  V30 4679 H 438.769 -3.24273 -1.83516 0
M  V30 4680 H 438.882 -4.74073 -0.692226 0
M  V30 4681 H 437.246 -2.50447 -0.463484 0
M  V30 4682 H 438.029 -3.27865 1.01783 0
M  V30 4683 N 440.474 -0.00167713 -1.576 0
M  V30 4684 C 441.885 0.54091 -1.78693 0
M  V30 4685 C 442.236 1.7386 -0.909247 0
M  V30 4686 O 441.361 2.16109 -0.112176 0
M  V30 4687 C 441.956 0.98806 -3.24072 0
M  V30 4688 C 440.515 1.47594 -3.46256 0
M  V30 4689 C 439.662 0.42792 -2.73978 0
M  V30 4690 H 442.613 -0.22784 -1.57056 0
M  V30 4691 H 442.634 1.85398 -3.32277 0
M  V30 4692 H 442.146 0.116164 -3.87926 0
M  V30 4693 H 440.247 2.36868 -2.87618 0
M  V30 4694 H 440.36 1.50225 -4.54939 0
M  V30 4695 H 438.724 0.889934 -2.38647 0
M  V30 4696 H 439.507 -0.435038 -3.40532 0
M  V30 4697 N 441.952 1.55251 0.271103 0
M  V30 4698 C 443.18 1.79974 1.02064 0
M  V30 4699 C 443.595 0.574003 1.79863 0
M  V30 4700 O 442.952 -0.456962 1.76686 0
M  V30 4701 C 443.003 3.02603 1.97772 0
M  V30 4702 O 442.724 4.20443 1.23124 0
M  V30 4703 C 444.225 3.39944 2.84522 0
M  V30 4704 H 441.445 0.599489 0.301419 0
M  V30 4705 H 443.989 2.02268 0.301313 0
M  V30 4706 H 442.144 2.8243 2.65165 0
M  V30 4707 H 442.558 4.89783 1.87651 0
M  V30 4708 H 444.032 4.28915 3.47471 0
M  V30 4709 H 444.509 2.59432 3.54389 0
M  V30 4710 H 445.115 3.62383 2.22618 0
M  V30 4711 N 443.43 -0.535701 1.48216 0
M  V30 4712 C 444.846 -0.863701 1.3421 0
M  V30 4713 C 445.046 -1.98458 0.34879 0
M  V30 4714 O 444.102 -2.51432 -0.23204 0
M  V30 4715 C 445.415 -1.23662 2.74095 0
M  V30 4716 C 446.963 -1.34683 2.82541 0
M  V30 4717 C 447.438 -1.75322 4.23115 0
M  V30 4718 N 448.929 -1.82434 4.2576 0
M  V30 4719 C 449.664 -2.15252 5.31464 0
M  V30 4720 N 449.16 -2.46533 6.47452 0
M  V30 4721 N 450.953 -2.16209 5.18855 0
M  V30 4722 H 443.104 0.203965 2.11418 0
M  V30 4723 H 445.367 0.0286033 0.947568 0
M  V30 4724 H 445.073 -0.486674 3.48316 0
M  V30 4725 H 444.947 -2.18805 3.07253 0
M  V30 4726 H 447.334 -2.08756 2.08579 0
M  V30 4727 H 447.415 -0.376756 2.5301 0
M  V30 4728 H 447.059 -1.01812 4.97591 0
M  V30 4729 H 446.989 -2.7337 4.50085 0
M  V30 4730 H 449.48 -1.6056 3.42095 0
M  V30 4731 H 449.793 -2.70662 7.23852 0
M  V30 4732 H 448.138 -2.44065 6.50736 0
M  V30 4733 H 451.329 -1.91224 4.2726 0
M  V30 4734 H 451.502 -2.41453 6.01335 0
M  V30 4735 N 444.908 -1.36708 -0.784132 0
M  V30 4736 C 446.319 -1.27947 -1.35965 0
M  V30 4737 C 446.67 0.0784013 -1.96043 0
M  V30 4738 O 445.795 0.979989 -1.92938 0
M  V30 4739 C 446.39 -2.31689 -2.47195 0
M  V30 4740 C 444.949 -2.26601 -3.00548 0
M  V30 4741 C 444.096 -2.16184 -1.73666 0
M  V30 4742 H 447.047 -1.4751 -0.585358 0
M  V30 4743 H 447.068 -1.95638 -3.26352 0
M  V30 4744 H 446.58 -3.30506 -2.03439 0
M  V30 4745 H 444.681 -1.31268 -3.48711 0
M  V30 4746 H 444.794 -3.19508 -3.57004 0
M  V30 4747 H 443.158 -1.62524 -1.96107 0
M  V30 4748 H 443.941 -3.16896 -1.32031 0
M  V30 4749 N 446.386 1.0089 -1.21074 0
M  V30 4750 C 447.316 2.1145 -0.990523 0
M  V30 4751 C 448.297 1.69897 0.0831699 0
M  V30 4752 O 449.482 1.94052 -0.0758853 0
M  V30 4753 C 446.612 3.42914 -0.550177 0
M  V30 4754 C 445.566 3.98244 -1.56799 0
M  V30 4755 C 444.892 5.25568 -0.984013 0
M  V30 4756 C 446.192 4.30752 -2.95381 0
M  V30 4757 H 447.886 2.3013 -1.91521 0
M  V30 4758 H 445.432 1.10592 -0.92225 0
M  V30 4759 H 447.385 4.19653 -0.383305 0
M  V30 4760 H 446.109 3.24014 0.41015 0
M  V30 4761 H 444.768 3.23621 -1.72236 0
M  V30 4762 H 444.416 5.02998 -0.0155216 0
M  V30 4763 H 444.116 5.63551 -1.66384 0
M  V30 4764 H 445.64 6.04955 -0.828378 0
M  V30 4765 H 447.054 4.98349 -2.8341 0
M  V30 4766 H 445.451 4.79869 -3.60341 0
M  V30 4767 H 446.521 3.39192 -3.46521 0
M  V30 4768 N 447.864 1.01787 1.20321 0
M  V30 4769 C 449.275 0.739307 1.71438 0
M  V30 4770 C 449.626 -0.742041 1.81627 0
M  V30 4771 O 448.751 -1.57903 1.47971 0
M  V30 4772 C 449.346 1.33538 3.11373 0
M  V30 4773 C 447.905 1.10566 3.59795 0
M  V30 4774 C 447.052 1.44028 2.36962 0
M  V30 4775 H 450.003 1.18718 1.05317 0
M  V30 4776 H 450.024 0.726611 3.73498 0
M  V30 4777 H 449.536 2.41352 3.03926 0
M  V30 4778 H 447.637 0.0452405 3.72573 0
M  V30 4779 H 447.75 1.78661 4.44542 0
M  V30 4780 H 446.114 0.85933 2.39766 0
M  V30 4781 H 446.897 2.52901 2.32155 0
M  V30 4782 N 449.342 -1.36122 0.79427 0
M  V30 4783 C 450.57 -2.03362 0.380989 0
M  V30 4784 C 450.985 -1.59881 -1.00416 0
M  V30 4785 O 450.342 -0.790515 -1.6449 0
M  V30 4786 C 450.393 -3.58804 0.440649 0
M  V30 4787 O 450.114 -4.007 1.77118 0
M  V30 4788 C 451.615 -4.43296 0.0186117 0
M  V30 4789 H 448.835 -0.652526 0.156367 0
M  V30 4790 H 451.379 -1.73998 1.07447 0
M  V30 4791 H 449.534 -3.8686 -0.204458 0
M  V30 4792 H 449.948 -4.95309 1.72538 0
M  V30 4793 H 451.422 -5.51887 0.111488 0
M  V30 4794 H 451.899 -4.2684 -1.03461 0
M  V30 4795 H 452.505 -4.20512 0.636395 0
M  V30 4796 N 450.82 -0.546701 -1.47814 0
M  V30 4797 C 452.066 -0.0187684 -2.02791 0
M  V30 4798 C 452.399 1.32338 -1.42128 0
M  V30 4799 O 451.674 1.85867 -0.573023 0
M  V30 4800 C 451.957 0.0854985 -3.59998 0
M  V30 4801 C 451.81 -1.283 -4.31114 0
M  V30 4802 C 453.129 0.80412 -4.32691 0
M  V30 4803 H 450.248 -0.0082946 -0.736953 0
M  V30 4804 H 452.89 -0.706962 -1.76358 0
M  V30 4805 H 451.04 0.671609 -3.82651 0
M  V30 4806 H 452.712 -1.91151 -4.19832 0
M  V30 4807 H 450.955 -1.86049 -3.91878 0
M  V30 4808 H 451.626 -1.16287 -5.39612 0
M  V30 4809 H 454.102 0.306576 -4.14969 0
M  V30 4810 H 452.978 0.846011 -5.42341 0
M  V30 4811 H 453.239 1.85802 -4.01161 0
M  V30 4812 N 452.299 1.55045 -0.282633 0
M  V30 4813 C 453.71 1.85473 0.213655 0
M  V30 4814 C 454.061 1.20465 1.54863 0
M  V30 4815 O 453.186 0.495676 2.10647 0
M  V30 4816 C 453.781 3.36496 0.394445 0
M  V30 4817 C 452.34 3.67022 0.834961 0
M  V30 4818 C 451.487 2.77218 -0.0674081 0
M  V30 4819 H 454.438 1.50478 -0.504202 0
M  V30 4820 H 454.459 3.60007 1.23186 0
M  V30 4821 H 453.971 3.83782 -0.577326 0
M  V30 4822 H 452.072 3.25241 1.81794 0
M  V30 4823 H 452.185 4.74433 0.667075 0
M  V30 4824 H 450.549 2.5069 0.450196 0
M  V30 4825 H 451.332 3.2732 -1.0352 0
M  V30 4826 N 453.777 0.010035 1.57597 0
M  V30 4827 C 455.188 -0.531426 1.78977 0
M  V30 4828 C 455.539 -1.73375 0.918454 0
M  V30 4829 O 454.664 -2.16047 0.123635 0
M  V30 4830 C 455.259 -0.97086 3.24592 0
M  V30 4831 C 453.818 -1.45756 3.47033 0
M  V30 4832 C 452.965 -0.413384 2.74201 0
M  V30 4833 H 455.916 0.236166 1.56933 0
M  V30 4834 H 455.937 -1.83633 3.33255 0
M  V30 4835 H 455.449 -0.0955893 3.87982 0
M  V30 4836 H 453.55 -2.35339 2.88871 0
M  V30 4837 H 453.663 -1.4781 4.55729 0
M  V30 4838 H 452.027 -0.877266 2.39115 0
M  V30 4839 H 452.81 0.453092 3.40297 0
M  V30 4840 N 455.255 -1.55392 -0.262866 0
M  V30 4841 C 456.205 -1.85355 -1.32768 0
M  V30 4842 C 457.189 -0.713188 -1.44231 0
M  V30 4843 O 458.381 -0.974765 -1.47741 0
M  V30 4844 C 455.51 -2.13781 -2.68612 0
M  V30 4845 C 454.596 -3.34104 -2.61219 0
M  V30 4846 N 454.987 -4.53766 -2.2345 0
M  V30 4847 C 453.285 -3.36895 -2.92263 0
M  V30 4848 C 453.986 -5.35877 -2.26298 0
M  V30 4849 N 452.962 -4.74536 -2.65172 0
M  V30 4850 H 456.764 -2.75413 -1.02591 0
M  V30 4851 H 454.278 -1.55405 -0.471503 0
M  V30 4852 H 456.275 -2.33407 -3.45437 0
M  V30 4853 H 454.935 -1.25013 -2.99669 0
M  V30 4854 H 455.946 -4.79682 -1.95258 0
M  V30 4855 H 452.623 -2.58351 -3.27965 0
M  V30 4856 H 454.013 -6.41577 -1.99572 0
M  V30 4857 N 456.733 0.527833 -1.48498 0
M  V30 4858 C 458.149 0.856571 -1.34666 0
M  V30 4859 C 458.349 1.98271 -0.35931 0
M  V30 4860 O 457.405 2.51551 0.218703 0
M  V30 4861 C 458.718 1.22207 -2.74747 0
M  V30 4862 C 460.266 1.33183 -2.83251 0
M  V30 4863 C 460.741 1.73075 -4.24039 0
M  V30 4864 N 462.232 1.80174 -4.26722 0
M  V30 4865 C 462.967 2.1243 -5.32598 0
M  V30 4866 N 462.463 2.43096 -6.4875 0
M  V30 4867 N 464.256 2.13454 -5.19994 0
M  V30 4868 H 456.407 -0.215174 -2.11307 0
M  V30 4869 H 458.67 -0.0336281 -0.947403 0
M  V30 4870 H 458.376 0.468195 -3.4857 0
M  V30 4871 H 458.25 2.17173 -3.08409 0
M  V30 4872 H 460.637 2.07647 -2.09683 0
M  V30 4873 H 460.718 0.363333 -2.53206 0
M  V30 4874 H 460.362 0.991712 -4.98124 0
M  V30 4875 H 460.292 2.70979 -4.51529 0
M  V30 4876 H 462.783 1.58744 -3.42942 0
M  V30 4877 H 463.096 2.6682 -7.25277 0
M  V30 4878 H 461.441 2.40611 -6.52021 0
M  V30 4879 H 464.632 1.88956 -4.28268 0
M  V30 4880 H 464.805 2.38261 -6.02608 0
M  V30 4881 N 458.211 1.37122 0.776871 0
M  V30 4882 C 459.436 1.354 1.57104 0
M  V30 4883 C 459.861 -0.0595562 1.88006 0
M  V30 4884 O 459.219 -1.03514 1.48844 0
M  V30 4885 C 459.267 2.19472 2.8612 0
M  V30 4886 O 458.371 1.59582 3.80273 0
M  V30 4887 H 457.712 0.462869 0.476076 0
M  V30 4888 H 460.242 1.80577 0.961932 0
M  V30 4889 H 460.252 2.32502 3.35271 0
M  V30 4890 H 458.927 3.22222 2.62956 0
M  V30 4891 H 457.504 1.55564 3.38902 0
M  V30 4892 N 459.689 -1.00246 1.21608 0
M  V30 4893 C 460.938 -1.73476 1.02902 0
M  V30 4894 C 461.251 -1.90643 -0.437561 0
M  V30 4895 O 462.457 -2.61105 -0.74407 0
M  V30 4896 C 460.913 -3.12079 1.79261 0
M  V30 4897 C 460.521 -3.02877 3.30106 0
M  V30 4898 C 462.265 -3.89421 1.68972 0
M  V30 4899 C 460.172 -4.36575 3.98944 0
M  V30 4900 H 459.102 -0.650408 0.381425 0
M  V30 4901 H 461.753 -1.11985 1.45367 0
M  V30 4902 H 460.135 -3.74196 1.2959 0
M  V30 4903 H 461.309 -2.49983 3.87098 0
M  V30 4904 H 459.624 -2.39022 3.40965 0
M  V30 4905 H 462.221 -4.88362 2.17731 0
M  V30 4906 H 462.564 -4.1122 0.648397 0
M  V30 4907 H 463.097 -3.33963 2.16133 0
M  V30 4908 H 459.836 -4.19978 5.03288 0
M  V30 4909 H 459.356 -4.8942 3.4674 0
M  V30 4910 H 461.035 -5.05364 4.04 0
M  V30 4911 N 461.167 -1.02423 -1.1978 0
M  V30 4912 C 462.578 -0.748389 -1.71044 0
M  V30 4913 C 462.929 0.732398 -1.82017 0
M  V30 4914 O 462.054 1.57116 -1.48807 0
M  V30 4915 C 462.649 -1.35187 -3.1066 0
M  V30 4916 C 461.208 -1.12472 -3.59203 0
M  V30 4917 C 460.355 -1.45283 -2.36195 0
M  V30 4918 H 463.306 -1.19275 -1.04686 0
M  V30 4919 H 463.327 -0.746408 -3.73107 0
M  V30 4920 H 462.839 -2.4296 -3.02642 0
M  V30 4921 H 460.94 -0.0649983 -3.72543 0
M  V30 4922 H 461.053 -1.81016 -4.43588 0
M  V30 4923 H 459.417 -0.872034 -2.39307 0
M  V30 4924 H 460.2 -2.54129 -2.30811 0
M  V30 4925 N 462.645 1.35699 -0.801477 0
M  V30 4926 C 464.056 1.81415 -0.441073 0
M  V30 4927 C 464.407 1.66595 1.03636 0
M  V30 4928 O 463.532 1.19369 1.80499 0
M  V30 4929 C 464.127 3.29369 -0.793819 0
M  V30 4930 C 462.686 3.73248 -0.486083 0
M  V30 4931 C 461.833 2.57775 -1.02213 0
M  V30 4932 H 464.784 1.23749 -0.993572 0
M  V30 4933 H 464.805 3.80395 -0.0894158 0
M  V30 4934 H 464.317 3.40123 -1.86917 0
M  V30 4935 H 462.418 3.68046 0.580735 0
M  V30 4936 H 462.531 4.68222 -1.01513 0
M  V30 4937 H 460.895 2.50788 -0.444712 0
M  V30 4938 H 461.678 2.71309 -2.10348 0
M  V30 4939 N 464.123 0.554532 1.47522 0
M  V30 4940 C 465.086 -0.184174 2.28459 0
M  V30 4941 C 466.086 -0.845195 1.36796 0
M  V30 4942 O 467.276 -0.701467 1.59452 0
M  V30 4943 C 464.408 -1.26903 3.16399 0
M  V30 4944 H 465.601 0.526751 2.95238 0
M  V30 4945 H 463.154 0.311375 1.53167 0
M  V30 4946 H 463.889 -2.01244 2.54306 0
M  V30 4947 H 463.674 -0.799883 3.83854 0
M  V30 4948 H 465.164 -1.78794 3.77389 0
M  V30 4949 N 465.601 -1.54893 0.290851 0
M  V30 4950 C 466.878 -1.91991 -0.373989 0
M  V30 4951 C 467.258 -1.21694 -1.72493 0
M  V30 4952 O 466.606 -0.34917 -2.25816 0
M  V30 4953 C 466.816 -3.45419 -0.498703 0
M  V30 4954 C 468.164 -4.1748 -0.774298 0
M  V30 4955 O 469.188 -3.51398 -0.582908 0
M  V30 4956 O 468.047 -5.3445 -1.14129 0
M  V30 4957 H 465.141 -0.800593 -0.207315 0
M  V30 4958 H 467.687 -1.66297 0.338164 0
M  V30 4959 H 466.459 -3.88688 0.451392 0
M  V30 4960 H 466.082 -3.77117 -1.25972 0
M  V30 4961 N 467.08 -0.0183926 -1.57589 0
M  V30 4962 C 468.491 0.521927 -1.79256 0
M  V30 4963 C 468.842 1.72885 -0.927636 0
M  V30 4964 O 467.967 2.15978 -0.135091 0
M  V30 4965 C 468.562 0.953632 -3.25102 0
M  V30 4966 C 467.121 1.43913 -3.47801 0
M  V30 4967 C 466.268 0.398837 -2.74417 0
M  V30 4968 H 469.219 -0.244485 -1.56805 0
M  V30 4969 H 469.24 1.81863 -3.34224 0
M  V30 4970 H 468.752 0.0750123 -3.88028 0
M  V30 4971 H 466.853 2.33804 -2.90115 0
M  V30 4972 H 466.966 1.45391 -4.56507 0
M  V30 4973 H 465.33 0.864572 -2.39577 0
M  V30 4974 H 466.113 -0.471132 -3.40052 0
M  V30 4975 N 468.558 1.5553 0.254621 0
M  V30 4976 C 469.974 1.4778 0.602753 0
M  V30 4977 C 470.174 0.707047 1.88688 0
M  V30 4978 O 469.23 0.233288 2.5142 0
M  V30 4979 C 470.543 2.92133 0.712648 0
M  V30 4980 C 472.091 3.02458 0.805488 0
M  V30 4981 C 472.566 4.48102 0.947009 0
M  V30 4982 N 474.057 4.52008 1.01207 0
M  V30 4983 C 474.792 5.61939 1.1407 0
M  V30 4984 N 474.288 6.81697 1.23536 0
M  V30 4985 N 476.081 5.49719 1.17325 0
M  V30 4986 H 468.232 2.04085 -0.588463 0
M  V30 4987 H 470.495 0.926229 -0.202001 0
M  V30 4988 H 470.201 3.51332 -0.160766 0
M  V30 4989 H 470.075 3.42187 1.58707 0
M  V30 4990 H 472.462 2.43344 1.66936 0
M  V30 4991 H 472.543 2.55627 -0.0939266 0
M  V30 4992 H 472.187 5.07824 0.087725 0
M  V30 4993 H 472.117 4.92607 1.86135 0
M  V30 4994 H 474.608 3.65749 0.950577 0
M  V30 4995 H 474.921 7.61228 1.33236 0
M  V30 4996 H 473.266 6.84473 1.20508 0
M  V30 4997 H 476.457 4.55095 1.09573 0
M  V30 4998 H 476.63 6.35432 1.27005 0
M  V30 4999 N 470.036 -0.519951 1.48776 0
M  V30 5000 C 470.983 -1.62352 1.64044 0
M  V30 5001 C 471.953 -1.58945 0.482251 0
M  V30 5002 O 473.138 -1.77219 0.706971 0
M  V30 5003 C 470.278 -3.00579 1.69547 0
M  V30 5004 C 469.391 -3.14145 2.96541 0
M  V30 5005 C 468.526 -4.42991 2.93142 0
M  V30 5006 C 467.565 -4.50122 4.14797 0
M  V30 5007 N 466.702 -5.7037 4.09418 0
M  V30 5008 H 471.542 -1.48643 2.58281 0
M  V30 5009 H 469.079 -0.723516 1.28077 0
M  V30 5010 H 471.037 -3.80671 1.70719 0
M  V30 5011 H 469.667 -3.13036 0.787918 0
M  V30 5012 H 468.719 -2.27239 3.05068 0
M  V30 5013 H 470.031 -3.15275 3.86527 0
M  V30 5014 H 469.185 -5.31385 2.92772 0
M  V30 5015 H 467.924 -4.44398 2.00902 0
M  V30 5016 H 466.929 -3.60133 4.15433 0
M  V30 5017 H 468.154 -4.50445 5.08208 0
M  V30 5018 H 466.1 -5.72655 3.20004 0
M  V30 5019 H 466.017 -5.73036 4.93119 0
M  V30 5020 H 467.285 -6.61023 4.13121 0
M  V30 5021 N 471.514 -1.37532 -0.769588 0
M  V30 5022 C 472.462 -1.33561 -1.90432 0
M  V30 5023 C 473.456 -0.224027 -1.67912 0
M  V30 5024 O 474.662 -0.392174 -1.75676 0
M  V30 5025 H 471.037 -0.416279 -0.626271 0
M  V30 5026 H 473.008 -2.29348 -1.90899 0
M  V30 5027 C 471.757 -1.16162 -3.27722 0
M  V30 5028 H 471.08 -2.00951 -3.45628 0
M  V30 5029 H 472.52 -1.17434 -4.07413 0
M  V30 5030 C 470.979 0.132583 -3.36639 0
M  V30 5031 O 471.509 1.11539 -3.85904 0
M  V30 5032 N 469.715 0.184013 -2.90017 0
M  V30 5033 H 469.262 -0.616415 -2.50116 0
M  V30 5034 H 469.22 1.04956 -2.96364 0
M  V30 5035 N 472.992 0.995999 -1.22138 0
M  V30 5036 C 474.269 1.70834 -0.952642 0
M  V30 5037 C 474.649 2.04257 0.533119 0
M  V30 5038 O 473.997 1.72343 1.50034 0
M  V30 5039 C 474.207 2.96119 -1.84701 0
M  V30 5040 C 475.555 3.68962 -2.10124 0
M  V30 5041 O 476.579 3.0612 -1.82124 0
M  V30 5042 O 475.438 4.82017 -2.57531 0
M  V30 5043 H 472.532 0.745498 -0.357997 0
M  V30 5044 H 475.078 1.05262 -1.33109 0
M  V30 5045 H 473.85 2.67898 -2.85213 0
M  V30 5046 H 473.473 3.6943 -1.46995 0
M  V30 5047 N 474.47 1.03057 1.19235 0
M  V30 5048 C 475.886 0.747947 1.40989 0
M  V30 5049 C 476.086 -0.666752 1.90149 0
M  V30 5050 O 475.142 -1.43249 2.07933 0
M  V30 5051 C 476.455 1.7855 2.41951 0
M  V30 5052 C 478.003 1.80524 2.55695 0
M  V30 5053 C 478.478 2.83243 3.59913 0
M  V30 5054 N 479.969 2.8207 3.67411 0
M  V30 5055 C 480.704 3.58204 4.47747 0
M  V30 5056 N 480.2 4.44057 5.31775 0
M  V30 5057 N 481.993 3.46738 4.42413 0
M  V30 5058 H 474.144 1.94367 0.856468 0
M  V30 5059 H 476.407 0.840412 0.438647 0
M  V30 5060 H 476.113 2.79973 2.12857 0
M  V30 5061 H 475.987 1.6092 3.41152 0
M  V30 5062 H 478.374 0.79778 2.84112 0
M  V30 5063 H 478.455 2.02229 1.56643 0
M  V30 5064 H 478.099 3.84161 3.32239 0
M  V30 5065 H 478.029 2.58795 4.5862 0
M  V30 5066 H 480.52 2.19803 3.074 0
M  V30 5067 H 480.833 4.98884 5.90199 0
M  V30 5068 H 479.178 4.48129 5.3123 0
M  V30 5069 H 482.369 2.79077 3.75811 0
M  V30 5070 H 482.542 4.06322 5.04783 0
M  V30 5071 N 475.948 -1.35272 0.808662 0
M  V30 5072 C 477.359 -1.81179 0.450688 0
M  V30 5073 C 477.71 -1.67143 -1.02751 0
M  V30 5074 O 476.835 -1.20325 -1.79864 0
M  V30 5075 C 477.43 -3.28943 0.811275 0
M  V30 5076 C 475.989 -3.72985 0.505871 0
M  V30 5077 C 475.136 -2.57229 1.03578 0
M  V30 5078 H 478.087 -1.2322 1.00012 0
M  V30 5079 H 478.108 -3.80342 0.109588 0
M  V30 5080 H 477.62 -3.39127 1.88718 0
M  V30 5081 H 475.721 -3.68349 -0.561209 0
M  V30 5082 H 475.834 -4.67677 1.03995 0
M  V30 5083 H 474.198 -2.50548 0.458005 0
M  V30 5084 H 474.981 -2.7019 2.11784 0
M  V30 5085 N 477.426 -0.562348 -1.47226 0
M  V30 5086 C 478.373 0.182461 -2.30078 0
M  V30 5087 C 479.343 0.903503 -1.39377 0
M  V30 5088 O 480.528 0.898188 -1.68337 0
M  V30 5089 C 477.668 1.20322 -3.23445 0
M  V30 5090 C 476.781 0.487717 -4.29238 0
M  V30 5091 C 475.916 1.49422 -5.09752 0
M  V30 5092 C 474.955 0.763976 -6.07314 0
M  V30 5093 N 474.092 1.71755 -6.80768 0
M  V30 5094 H 478.932 -0.530169 -2.93246 0
M  V30 5095 H 476.469 -0.273276 -1.44539 0
M  V30 5096 H 478.427 1.80768 -3.76004 0
M  V30 5097 H 477.057 1.88382 -2.6213 0
M  V30 5098 H 476.109 -0.231374 -3.79696 0
M  V30 5099 H 477.421 -0.0841003 -4.98729 0
M  V30 5100 H 476.575 2.17206 -5.66486 0
M  V30 5101 H 475.314 2.09995 -4.40174 0
M  V30 5102 H 474.319 0.0722344 -5.49753 0
M  V30 5103 H 475.544 0.16391 -6.78902 0
M  V30 5104 H 473.49 2.31177 -6.13916 0
M  V30 5105 H 473.407 1.19802 -7.46447 0
M  V30 5106 H 474.675 2.38638 -7.42073 0
M  V30 5107 N 478.904 1.54736 -0.299062 0
M  V30 5108 C 480.315 1.8569 0.193971 0
M  V30 5109 C 480.666 1.22101 1.53577 0
M  V30 5110 O 479.791 0.51799 2.10109 0
M  V30 5111 C 480.386 3.36895 0.358733 0
M  V30 5112 C 478.945 3.67887 0.795986 0
M  V30 5113 C 478.092 2.77131 -0.096807 0
M  V30 5114 H 481.043 1.49934 -0.520134 0
M  V30 5115 H 481.064 3.61294 1.19361 0
M  V30 5116 H 480.576 3.83148 -0.617998 0
M  V30 5117 H 478.677 3.27151 1.78334 0
M  V30 5118 H 478.79 4.75114 0.616718 0
M  V30 5119 H 477.154 2.51153 0.423581 0
M  V30 5120 H 477.937 3.26204 -1.06986 0
M  V30 5121 N 480.382 0.0267497 1.57577 0
M  V30 5122 C 481.793 -0.512413 1.79531 0
M  V30 5123 C 482.144 -1.72391 0.936791 0
M  V30 5124 O 481.269 -2.15903 0.146543 0
M  V30 5125 C 481.864 -0.936378 3.25603 0
M  V30 5126 C 480.423 -1.42067 3.4856 0
M  V30 5127 C 479.57 -0.384278 2.74624 0
M  V30 5128 H 482.521 0.252797 1.56674 0
M  V30 5129 H 482.542 -1.80088 3.35184 0
M  V30 5130 H 482.054 -0.0544332 3.88062 0
M  V30 5131 H 480.155 -2.32262 2.9135 0
M  V30 5132 H 480.268 -1.42968 4.57271 0
M  V30 5133 H 478.632 -0.851855 2.40032 0
M  V30 5134 H 479.415 0.489159 3.39797 0
M  V30 5135 N 481.861 -1.55662 -0.24637 0
M  V30 5136 C 483.277 -1.48098 -0.594907 0
M  V30 5137 C 483.477 -0.717044 -1.8831 0
M  V30 5138 O 482.533 -0.246618 -2.51293 0
M  V30 5139 C 483.846 -2.92507 -0.697146 0
M  V30 5140 C 485.394 -3.02881 -0.789436 0
M  V30 5141 C 485.869 -4.48598 -0.923232 0
M  V30 5142 N 487.36 -4.52538 -0.988088 0
M  V30 5143 C 488.095 -5.62536 -1.11089 0
M  V30 5144 N 487.591 -6.82342 -1.19919 0
M  V30 5145 N 489.384 -5.50334 -1.14408 0
M  V30 5146 H 481.535 -2.0377 0.599278 0
M  V30 5147 H 483.798 -0.925145 0.20691 0
M  V30 5148 H 483.504 -3.51242 0.179396 0
M  V30 5149 H 483.378 -3.43024 -1.5689 0
M  V30 5150 H 485.765 -2.44226 -1.65643 0
M  V30 5151 H 485.846 -2.55574 0.107482 0
M  V30 5152 H 485.49 -5.07864 -0.0607927 0
M  V30 5153 H 485.42 -4.93587 -1.8352 0
M  V30 5154 H 487.911 -3.66248 -0.931167 0
M  V30 5155 H 488.224 -7.61924 -1.29197 0
M  V30 5156 H 486.569 -6.85102 -1.16876 0
M  V30 5157 H 489.76 -4.5567 -1.07158 0
M  V30 5158 H 489.933 -6.36096 -1.23634 0
M  V30 5159 N 483.339 0.512053 -1.4905 0
M  V30 5160 C 484.75 1.09376 -1.51307 0
M  V30 5161 C 485.101 1.94 -0.292971 0
M  V30 5162 O 484.226 2.07965 0.598277 0
M  V30 5163 C 484.821 1.99031 -2.74176 0
M  V30 5164 C 483.38 2.52385 -2.79247 0
M  V30 5165 C 482.527 1.29749 -2.45073 0
M  V30 5166 H 485.478 0.296467 -1.55906 0
M  V30 5167 H 485.499 2.83569 -2.53711 0
M  V30 5168 H 485.011 1.37412 -3.62959 0
M  V30 5169 H 483.112 3.17673 -1.94716 0
M  V30 5170 H 483.225 2.90293 -3.81139 0
M  V30 5171 H 481.589 1.61912 -1.96612 0
M  V30 5172 H 482.372 0.698555 -3.36118 0
M  V30 5173 N 484.817 1.37938 0.762283 0
M  V30 5174 C 486.228 1.30094 1.33912 0
M  V30 5175 C 486.579 -0.0472026 1.96143 0
M  V30 5176 O 485.704 -0.94917 1.94473 0
M  V30 5177 C 486.299 2.35592 2.43478 0
M  V30 5178 C 484.858 2.31353 2.96905 0
M  V30 5179 C 484.005 2.18919 1.70205 0
M  V30 5180 H 486.956 1.48423 0.561816 0
M  V30 5181 H 486.977 2.00806 3.23199 0
M  V30 5182 H 486.489 3.33701 1.98155 0
M  V30 5183 H 484.59 1.36799 3.46579 0
M  V30 5184 H 484.703 3.25147 3.51875 0
M  V30 5185 H 483.067 1.65624 1.93496 0
M  V30 5186 H 483.85 3.18956 1.26973 0
M  V30 5187 N 486.295 -0.989507 1.22664 0
M  V30 5188 C 487.523 -1.76496 1.07967 0
M  V30 5189 C 487.938 -1.85148 -0.369543 0
M  V30 5190 O 487.295 -1.32408 -1.25596 0
M  V30 5191 C 487.346 -3.19642 1.68853 0
M  V30 5192 O 487.067 -3.11453 3.08105 0
M  V30 5193 C 488.568 -4.13621 1.59475 0
M  V30 5194 H 485.788 -0.55418 0.378319 0
M  V30 5195 H 488.332 -1.24378 1.62328 0
M  V30 5196 H 486.487 -3.68816 1.18547 0
M  V30 5197 H 486.901 -4.01499 3.37489 0
M  V30 5198 H 488.375 -5.11801 2.06795 0
M  V30 5199 H 488.852 -4.35718 0.55191 0
M  V30 5200 H 489.458 -3.70346 2.09103 0
M  V30 5201 N 487.773 -1.03688 -1.18687 0
M  V30 5202 C 489.021 -0.736572 -1.88199 0
M  V30 5203 C 489.342 0.737665 -1.80509 0
M  V30 5204 O 488.612 1.53204 -1.22088 0
M  V30 5205 H 487.192 -0.269466 -0.696704 0
M  V30 5206 H 489.854 -1.31282 -1.44052 0
M  V30 5207 H 488.95 -1.03802 -2.94332 0
M  V30 5208 N 489.251 1.34841 -0.815825 0
M  V30 5209 C 490.667 1.51543 -0.500697 0
M  V30 5210 C 490.867 1.76261 0.976444 0
M  V30 5211 O 489.923 1.8094 1.76117 0
M  V30 5212 C 491.236 2.68487 -1.35407 0
M  V30 5213 C 492.784 2.82368 -1.35046 0
M  V30 5214 C 493.259 4.02347 -2.18816 0
M  V30 5215 N 494.75 4.09542 -2.16402 0
M  V30 5216 C 495.485 5.01517 -2.77971 0
M  V30 5217 N 494.981 5.98763 -3.48503 0
M  V30 5218 N 496.774 4.94334 -2.67563 0
M  V30 5219 H 488.925 1.17055 -1.77234 0
M  V30 5220 H 491.188 0.573481 -0.754866 0
M  V30 5221 H 490.894 2.56829 -2.40274 0
M  V30 5222 H 490.768 3.63321 -1.01377 0
M  V30 5223 H 493.155 2.93471 -0.309604 0
M  V30 5224 H 493.236 1.88363 -1.73069 0
M  V30 5225 H 492.88 3.92004 -3.22948 0
M  V30 5226 H 492.81 4.95551 -1.78148 0
M  V30 5227 H 495.301 3.39932 -1.65091 0
M  V30 5228 H 495.614 6.6556 -3.92747 0
M  V30 5229 H 493.959 5.98909 -3.52609 0
M  V30 5230 H 497.15 4.1732 -2.12041 0
M  V30 5231 H 497.323 5.6582 -3.15834 0
M  V30 5232 N 490.729 0.570148 1.46925 0
M  V30 5233 C 492.14 0.1402 1.86173 0
M  V30 5234 C 492.491 -1.29347 1.47526 0
M  V30 5235 O 491.616 -1.97508 0.884292 0
M  V30 5236 C 492.211 0.247661 3.37894 0
M  V30 5237 C 490.77 -0.127332 3.76185 0
M  V30 5238 C 489.917 0.589349 2.70965 0
M  V30 5239 H 492.868 0.779117 1.38259 0
M  V30 5240 H 492.889 -0.530341 3.76786 0
M  V30 5241 H 492.401 1.29121 3.65991 0
M  V30 5242 H 490.502 -1.17149 3.53704 0
M  V30 5243 H 490.615 0.240238 4.78497 0
M  V30 5244 H 488.979 0.0309824 2.54681 0
M  V30 5245 H 489.762 1.6343 3.01903 0
M  V30 5246 N 492.207 -1.54576 0.307264 0
M  V30 5247 C 493.432 -2.05139 -0.305379 0
M  V30 5248 C 493.857 -1.18278 -1.46259 0
M  V30 5249 O 493.215 -0.188243 -1.8032 0
M  V30 5250 C 493.263 -3.53066 -0.733283 0
M  V30 5251 O 492.367 -3.69206 -1.83741 0
M  V30 5252 H 491.708 -0.661444 -0.0582105 0
M  V30 5253 H 494.238 -1.99569 0.450931 0
M  V30 5254 H 494.248 -3.95034 -1.02039 0
M  V30 5255 H 492.923 -4.15746 0.113198 0
M  V30 5256 H 491.5 -3.39143 -1.55037 0
M  V30 5257 N 493.685 -0.035106 -1.57561 0
M  V30 5258 C 494.915 0.651312 -1.96065 0
M  V30 5259 C 495.323 1.6585 -0.910514 0
M  V30 5260 O 494.666 1.83336 0.11552 0
M  V30 5261 C 494.728 1.40897 -3.30739 0
M  V30 5262 C 494.392 0.559436 -4.53563 0
M  V30 5263 C 495.389 -0.16778 -5.19629 0
M  V30 5264 C 493.074 0.495079 -4.99854 0
M  V30 5265 C 495.068 -0.947963 -6.30311 0
M  V30 5266 C 492.755 -0.288804 -6.10417 0
M  V30 5267 C 493.753 -1.00903 -6.75505 0
M  V30 5268 O 493.441 -1.78005 -7.83945 0
M  V30 5269 H 493.173 0.184036 -0.650467 0
M  V30 5270 H 495.727 -0.0929677 -2.05189 0
M  V30 5271 H 493.957 2.19852 -3.18123 0
M  V30 5272 H 495.646 1.98407 -3.54104 0
M  V30 5273 H 496.412 -0.12743 -4.84833 0
M  V30 5274 H 492.291 1.04524 -4.48994 0
M  V30 5275 H 495.835 -1.51064 -6.81047 0
M  V30 5276 H 491.732 -0.33085 -6.44652 0
M  V30 5277 H 492.5 -1.70046 -8.00641 0
M  V30 5278 N 495.163 1.55791 0.238111 0
M  V30 5279 C 496.574 1.68383 0.806472 0
M  V30 5280 C 496.925 0.634157 1.85669 0
M  V30 5281 O 496.05 -0.217913 2.153 0
M  V30 5282 C 496.645 3.05268 1.46959 0
M  V30 5283 C 495.204 3.1977 1.98555 0
M  V30 5284 C 494.351 2.64279 0.839763 0
M  V30 5285 H 497.302 1.58694 0.0137535 0
M  V30 5286 H 497.323 3.00203 2.33792 0
M  V30 5287 H 496.835 3.81643 0.704993 0
M  V30 5288 H 494.936 2.48234 2.77868 0
M  V30 5289 H 495.049 4.26788 2.17689 0
M  V30 5290 H 493.413 2.22329 1.24265 0
M  V30 5291 H 494.196 3.43187 0.0881032 0
M  V30 5292 N 496.642 -0.504142 1.49319 0
M  V30 5293 C 497.89 -1.25598 1.58334 0
M  V30 5294 C 498.211 -1.93114 0.270538 0
M  V30 5295 O 497.481 -1.82585 -0.709891 0
M  V30 5296 H 496.061 -0.466571 0.58337 0
M  V30 5297 H 498.723 -0.584547 1.85928 0
M  V30 5298 H 497.819 -2.02159 2.37778 0
M  V30 5299 N 498.12 -1.38341 -0.754957 0
M  V30 5300 C 499.083 -1.35262 -1.85032 0
M  V30 5301 C 500.083 -0.253393 -1.58791 0
M  V30 5302 O 501.273 -0.510205 -1.66561 0
M  V30 5303 C 498.405 -1.10544 -3.22479 0
M  V30 5304 H 499.598 -2.32712 -1.8917 0
M  V30 5305 H 497.151 -1.23614 -0.956515 0
M  V30 5306 H 497.886 -0.136952 -3.24011 0
M  V30 5307 H 497.671 -1.90127 -3.4292 0
M  V30 5308 H 499.161 -1.11082 -4.02555 0
M  V30 5309 N 499.598 0.982988 -1.23187 0
M  V30 5310 C 500.545 2.07491 -1.01075 0
M  V30 5311 C 501.515 1.65949 0.070905 0
M  V30 5312 O 502.7 1.90629 -0.0806822 0
M  V30 5313 C 499.84 3.39751 -0.605261 0
M  V30 5314 C 498.953 3.94578 -1.75876 0
M  V30 5315 C 498.088 5.15039 -1.3003 0
M  V30 5316 C 497.127 5.62027 -2.42472 0
M  V30 5317 N 496.264 6.73719 -1.97602 0
M  V30 5318 H 501.104 2.25739 -1.9454 0
M  V30 5319 H 498.641 1.10659 -0.969179 0
M  V30 5320 H 500.599 4.15719 -0.351279 0
M  V30 5321 H 499.229 3.21473 0.292382 0
M  V30 5322 H 498.281 3.1539 -2.12681 0
M  V30 5323 H 499.593 4.25422 -2.60418 0
M  V30 5324 H 498.747 5.9833 -1.00429 0
M  V30 5325 H 497.486 4.85843 -0.425216 0
M  V30 5326 H 496.491 4.77318 -2.7285 0
M  V30 5327 H 497.716 5.93244 -3.30512 0
M  V30 5328 H 495.662 6.46287 -1.1247 0
M  V30 5329 H 495.579 7.03934 -2.75705 0
M  V30 5330 H 496.847 7.6049 -1.71098 0
M  V30 5331 N 501.076 1.04316 1.18135 0
M  V30 5332 C 502.487 0.775505 1.69832 0
M  V30 5333 C 502.838 -0.703348 1.8316 0
M  V30 5334 O 501.963 -1.54729 1.51287 0
M  V30 5335 C 502.558 1.40112 3.0847 0
M  V30 5336 C 501.117 1.18172 3.57368 0
M  V30 5337 C 500.264 1.49022 2.33854 0
M  V30 5338 H 503.215 1.20925 1.02775 0
M  V30 5339 H 503.236 0.805672 3.71873 0
M  V30 5340 H 502.748 2.47744 2.98738 0
M  V30 5341 H 500.849 0.124258 3.72393 0
M  V30 5342 H 500.962 1.8805 4.40652 0
M  V30 5343 H 499.326 0.909995 2.37889 0
M  V30 5344 H 500.109 2.57768 2.26738 0
M  V30 5345 N 502.554 -1.34406 0.822964 0
M  V30 5346 C 503.502 -2.31428 0.233165 0
M  V30 5347 C 504.496 -1.57404 -0.626118 0
M  V30 5348 O 505.702 -1.72402 -0.517453 0
M  V30 5349 H 502.077 -0.749863 0.0566557 0
M  V30 5350 H 504.048 -2.78699 1.06628 0
M  V30 5351 C 502.797 -3.42653 -0.590264 0
M  V30 5352 H 502.12 -3.99753 0.0616129 0
M  V30 5353 H 503.56 -4.12778 -0.969054 0
M  V30 5354 C 502.019 -2.87112 -1.76262 0
M  V30 5355 O 502.549 -2.81995 -2.8608 0
M  V30 5356 N 500.755 -2.43934 -1.57938 0
M  V30 5357 H 500.302 -2.48296 -0.686078 0
M  V30 5358 H 500.26 -2.07123 -2.36532 0
M  V30 5359 N 504.032 -0.577932 -1.46621 0
M  V30 5360 C 505.281 -0.0594281 -2.01612 0
M  V30 5361 C 505.594 1.30663 -1.45556 0
M  V30 5362 O 506.8 1.91621 -1.92337 0
M  V30 5363 C 505.256 -0.0556666 -3.59857 0
M  V30 5364 C 504.864 -1.41975 -4.24908 0
M  V30 5365 C 506.608 0.409143 -4.22524 0
M  V30 5366 C 504.515 -1.37397 -5.75218 0
M  V30 5367 H 503.445 -0.0184469 -0.753774 0
M  V30 5368 H 506.096 -0.728869 -1.68404 0
M  V30 5369 H 504.478 0.679843 -3.90121 0
M  V30 5370 H 505.652 -2.17461 -4.0626 0
M  V30 5371 H 503.967 -1.82419 -3.74316 0
M  V30 5372 H 506.564 0.46211 -5.32699 0
M  V30 5373 H 506.907 1.42565 -3.91128 0
M  V30 5374 H 507.44 -0.272152 -3.96868 0
M  V30 5375 H 504.179 -2.36714 -6.11267 0
M  V30 5376 H 503.699 -0.661239 -5.96144 0
M  V30 5377 H 505.378 -1.08484 -6.3784 0
M  V30 5378 N 505.51 1.54411 -0.315457 0
M  V30 5379 C 506.75 2.02329 0.290236 0
M  V30 5380 C 507.114 1.19878 1.49977 0
M  V30 5381 O 508.315 1.57562 2.17779 0
M  V30 5382 C 506.586 3.51912 0.623937 0
M  V30 5383 S 508.145 4.21775 1.21044 0
M  V30 5384 H 504.963 0.705499 0.0882739 0
M  V30 5385 H 507.565 1.90328 -0.446694 0
M  V30 5386 H 506.269 4.09546 -0.264624 0
M  V30 5387 H 505.8 3.67977 1.39128 0
M  V30 5388 H 507.815 4.28757 2.49764 0
M  V30 5389 N 506.988 0.0434614 1.5754 0
M  V30 5390 C 508.265 -0.671479 1.83713 0
M  V30 5391 C 508.645 -1.89495 0.930315 0
M  V30 5392 O 507.993 -2.28498 -0.0105639 0
M  V30 5393 C 508.203 -1.0361 3.33266 0
M  V30 5394 C 509.551 -1.42167 4.00092 0
M  V30 5395 O 510.575 -1.12866 3.37846 0
M  V30 5396 O 509.434 -1.96817 5.09829 0
M  V30 5397 H 506.528 -0.330726 0.75799 0
M  V30 5398 H 509.074 0.0722373 1.69546 0
M  V30 5399 H 507.846 -0.165938 3.90948 0
M  V30 5400 H 507.469 -1.83751 3.52592 0
M  V30 5401 N 508.466 -1.55915 -0.229846 0
M  V30 5402 C 509.714 -1.7819 -0.953565 0
M  V30 5403 C 510.035 -0.610504 -1.85197 0
M  V30 5404 O 509.305 0.372988 -1.92316 0
M  V30 5405 H 507.885 -0.657208 -0.355087 0
M  V30 5406 H 510.547 -1.9337 -0.243693 0
M  V30 5407 H 509.643 -2.70011 -1.56527 0
M  V30 5408 N 509.944 0.496216 -1.49584 0
M  V30 5409 C 510.892 1.61805 -1.67098 0
M  V30 5410 C 511.886 1.60667 -0.536877 0
M  V30 5411 O 513.092 1.65118 -0.716654 0
M  V30 5412 H 509.467 0.53646 -0.526986 0
M  V30 5413 H 511.438 1.44187 -2.61252 0
M  V30 5414 C 510.187 2.99912 -1.75921 0
M  V30 5415 H 509.51 3.01496 -2.62565 0
M  V30 5416 H 510.95 3.77931 -1.92209 0
M  V30 5417 C 509.409 3.33092 -0.505088 0
M  V30 5418 O 509.939 4.00019 0.367085 0
M  V30 5419 N 508.145 2.88278 -0.366599 0
M  V30 5420 H 507.692 2.33989 -1.07735 0
M  V30 5421 H 507.65 3.10846 0.47142 0
M  V30 5422 N 511.423 1.38739 0.74761 0
M  V30 5423 C 512.67 1.35274 1.50689 0
M  V30 5424 C 512.998 -0.0553359 1.94421 0
M  V30 5425 O 512.253 -1.03365 1.66175 0
M  V30 5426 C 512.552 2.25992 2.7688 0
M  V30 5427 C 512.218 3.73854 2.5208 0
M  V30 5428 C 510.88 4.14145 2.45025 0
M  V30 5429 C 513.232 4.67427 2.30568 0
M  V30 5430 C 510.56 5.4609 2.14483 0
M  V30 5431 C 512.912 5.99635 2.01545 0
M  V30 5432 C 511.576 6.39004 1.92951 0
M  V30 5433 H 510.846 0.495003 0.55141 0
M  V30 5434 H 513.493 1.71145 0.859158 0
M  V30 5435 H 511.798 1.83196 3.46333 0
M  V30 5436 H 513.495 2.20611 3.34861 0
M  V30 5437 H 510.085 3.41913 2.58444 0
M  V30 5438 H 514.269 4.3714 2.34994 0
M  V30 5439 H 509.525 5.75528 2.06342 0
M  V30 5440 H 513.699 6.71678 1.83906 0
M  V30 5441 H 511.326 7.41165 1.6905 0
M  V30 5442 N 512.901 -0.976442 1.23707 0
M  V30 5443 C 513.849 -2.09078 1.01927 0
M  V30 5444 C 514.843 -1.69345 -0.0430193 0
M  V30 5445 O 516.049 -1.79659 0.110814 0
M  V30 5446 H 512.424 -0.68398 0.312531 0
M  V30 5447 H 514.395 -2.24614 1.96447 0
M  V30 5448 C 513.144 -3.41919 0.631385 0
M  V30 5449 H 512.467 -3.72946 1.44053 0
M  V30 5450 H 513.907 -4.20817 0.518532 0
M  V30 5451 C 512.366 -3.30357 -0.660723 0
M  V30 5452 O 512.896 -3.63542 -1.70881 0
M  V30 5453 N 511.102 -2.83507 -0.638139 0
M  V30 5454 H 510.649 -2.567 0.215108 0
M  V30 5455 H 510.607 -2.76153 -1.50289 0
M  V30 5456 N 514.379 -1.04941 -1.1758 0
M  V30 5457 C 515.607 -0.778294 -1.91703 0
M  V30 5458 C 516.022 0.665697 -1.76675 0
M  V30 5459 O 515.379 1.45456 -1.10222 0
M  V30 5460 C 515.43 -1.14628 -3.42845 0
M  V30 5461 O 515.151 -2.53359 -3.57409 0
M  V30 5462 C 516.652 -0.900931 -4.34049 0
M  V30 5463 H 513.872 -0.283167 -0.608323 0
M  V30 5464 H 516.416 -1.39942 -1.49119 0
M  V30 5465 H 514.571 -0.569953 -3.83184 0
M  V30 5466 H 514.985 -2.67709 -4.51035 0
M  V30 5467 H 516.459 -1.20817 -5.38616 0
M  V30 5468 H 516.936 0.163966 -4.38894 0
M  V30 5469 H 517.542 -1.46097 -3.99419 0
M  V30 5470 N 515.857 1.33968 -0.830081 0
M  V30 5471 C 516.787 2.31911 -0.271911 0
M  V30 5472 C 517.768 1.58571 0.61556 0
M  V30 5473 O 518.953 1.86514 0.540946 0
M  V30 5474 C 516.083 3.42737 0.561146 0
M  V30 5475 C 515.037 4.27383 -0.229789 0
M  V30 5476 C 514.363 5.29742 0.726463 0
M  V30 5477 C 515.663 5.02 -1.44197 0
M  V30 5478 H 517.357 2.78844 -1.09025 0
M  V30 5479 H 514.903 1.34061 -0.52571 0
M  V30 5480 H 516.856 4.10276 0.961867 0
M  V30 5481 H 515.58 2.94471 1.41261 0
M  V30 5482 H 514.239 3.61456 -0.611964 0
M  V30 5483 H 513.887 4.77736 1.57408 0
M  V30 5484 H 513.587 5.87255 0.20142 0
M  V30 5485 H 515.111 6.00149 1.12489 0
M  V30 5486 H 516.525 5.62355 -1.11488 0
M  V30 5487 H 514.922 5.69122 -1.90317 0
M  V30 5488 H 515.992 4.31281 -2.2164 0
M  V30 5489 N 517.335 0.585699 1.46312 0
M  V30 5490 C 518.298 -0.135673 2.28798 0
M  V30 5491 C 519.298 -0.815988 1.38558 0
M  V30 5492 O 520.488 -0.667487 1.60904 0
M  V30 5493 C 517.62 -1.20163 3.1902 0
M  V30 5494 H 518.813 0.589257 2.94054 0
M  V30 5495 H 516.366 0.343794 1.52472 0
M  V30 5496 H 517.101 -1.95804 2.58517 0
M  V30 5497 H 516.886 -0.718282 3.85465 0
M  V30 5498 H 518.376 -1.70749 3.81096 0
M  V30 5499 N 518.813 -1.54241 0.323641 0
M  V30 5500 C 520.062 -1.9975 -0.279806 0
M  V30 5501 C 520.375 -1.2156 -1.5324 0
M  V30 5502 O 521.581 -1.57447 -2.21185 0
M  V30 5503 C 520.037 -3.55686 -0.549115 0
M  V30 5504 C 519.645 -4.4271 0.686432 0
M  V30 5505 C 521.389 -4.09663 -1.11251 0
M  V30 5506 C 519.296 -5.90119 0.389022 0
M  V30 5507 H 518.226 -0.746177 -0.10833 0
M  V30 5508 H 520.877 -1.78248 0.435877 0
M  V30 5509 H 519.259 -3.73176 -1.32499 0
M  V30 5510 H 520.433 -4.36996 1.46188 0
M  V30 5511 H 518.748 -3.99623 1.17005 0
M  V30 5512 H 521.345 -5.17386 -1.34965 0
M  V30 5513 H 521.688 -3.61651 -2.06191 0
M  V30 5514 H 522.221 -3.95806 -0.39782 0
M  V30 5515 H 518.96 -6.42326 1.30759 0
M  V30 5516 H 518.48 -5.98785 -0.348722 0
M  V30 5517 H 520.159 -6.47 -0.0011164 0
M  V30 5518 N 520.291 -0.0518155 -1.57515 0
M  V30 5519 C 521.221 0.920283 -2.146 0
M  V30 5520 C 522.202 1.32406 -1.06783 0
M  V30 5521 O 523.387 1.39866 -1.34726 0
M  V30 5522 C 520.517 2.1949 -2.6915 0
M  V30 5523 C 519.471 1.93116 -3.81956 0
M  V30 5524 C 518.797 3.27037 -4.23026 0
M  V30 5525 C 520.097 1.25225 -5.07066 0
M  V30 5526 H 521.791 0.444801 -2.96077 0
M  V30 5527 H 519.337 0.212508 -1.42423 0
M  V30 5528 H 521.29 2.87894 -3.07725 0
M  V30 5529 H 520.014 2.69244 -1.84865 0
M  V30 5530 H 518.673 1.27123 -3.43854 0
M  V30 5531 H 518.321 3.74595 -3.3569 0
M  V30 5532 H 518.021 3.10189 -4.99056 0
M  V30 5533 H 519.545 3.96673 -4.64202 0
M  V30 5534 H 520.959 1.83666 -5.43083 0
M  V30 5535 H 519.356 1.18702 -5.88243 0
M  V30 5536 H 520.426 0.228382 -4.84362 0
M  V30 5537 N 521.769 1.56035 0.221574 0
M  V30 5538 C 523.185 1.49026 0.571271 0
M  V30 5539 C 523.385 0.746912 1.87146 0
M  V30 5540 O 522.441 0.286566 2.50869 0
M  V30 5541 C 523.754 2.93579 0.650522 0
M  V30 5542 C 525.302 3.04099 0.741151 0
M  V30 5543 C 525.777 4.5001 0.851747 0
M  V30 5544 N 527.268 4.54053 0.915968 0
M  V30 5545 C 528.003 5.64232 1.02125 0
M  V30 5546 N 527.499 6.84164 1.09049 0
M  V30 5547 N 529.292 5.52084 1.05639 0
M  V30 5548 H 521.443 2.02791 -0.63162 0
M  V30 5549 H 523.706 0.921736 -0.221602 0
M  V30 5550 H 523.412 3.50912 -0.235253 0
M  V30 5551 H 523.286 3.45476 1.51413 0
M  V30 5552 H 525.673 2.4683 1.61737 0
M  V30 5553 H 525.754 2.55371 -0.148128 0
M  V30 5554 H 525.398 5.07896 -0.0200117 0
M  V30 5555 H 525.328 4.96444 1.75644 0
M  V30 5556 H 527.819 3.67683 0.872782 0
M  V30 5557 H 528.132 7.63883 1.1706 0
M  V30 5558 H 526.477 6.86875 1.05962 0
M  V30 5559 H 529.668 4.57317 0.998953 0
M  V30 5560 H 529.841 6.37983 1.13498 0
M  V30 5561 N 523.247 -0.488276 1.49845 0
M  V30 5562 C 524.663 -0.820566 1.3689 0
M  V30 5563 C 524.863 -1.97248 0.411752 0
M  V30 5564 O 523.919 -2.52042 -0.151931 0
M  V30 5565 C 525.232 -1.1488 2.77891 0
M  V30 5566 C 526.78 -1.25626 2.86683 0
M  V30 5567 C 527.255 -1.61772 4.28479 0
M  V30 5568 N 528.746 -1.68797 4.31349 0
M  V30 5569 C 529.481 -1.98235 5.38043 0
M  V30 5570 N 528.977 -2.2581 6.54967 0
M  V30 5571 N 530.77 -1.99593 5.2547 0
M  V30 5572 H 522.921 0.271123 2.10662 0
M  V30 5573 H 525.184 0.058735 0.946179 0
M  V30 5574 H 524.89 -0.375614 3.49688 0
M  V30 5575 H 524.764 -2.08919 3.14058 0
M  V30 5576 H 527.151 -2.02014 2.15114 0
M  V30 5577 H 527.232 -0.296072 2.54081 0
M  V30 5578 H 526.876 -0.859295 5.00578 0
M  V30 5579 H 526.806 -2.58912 4.58554 0
M  V30 5580 H 529.297 -1.49595 3.4703 0
M  V30 5581 H 529.61 -2.47497 7.32096 0
M  V30 5582 H 527.955 -2.23239 6.58171 0
M  V30 5583 H 531.146 -1.77535 4.33127 0
M  V30 5584 H 531.319 -2.222 6.08713 0
M  V30 5585 N 524.725 -1.39134 -0.740242 0
M  V30 5586 C 525.635 -1.39697 -1.88473 0
M  V30 5587 C 526.651 -0.292403 -1.71526 0
M  V30 5588 O 527.827 -0.533021 -1.94219 0
M  V30 5589 C 524.892 -1.23382 -3.24003 0
M  V30 5590 C 523.953 -2.43763 -3.53381 0
M  V30 5591 C 523.186 -2.28216 -4.82445 0
M  V30 5592 O 523.409 -1.28288 -5.55786 0
M  V30 5593 O 522.343 -3.1709 -5.11603 0
M  V30 5594 H 526.169 -2.36159 -1.90952 0
M  V30 5595 H 523.754 -1.20194 -0.887346 0
M  V30 5596 H 525.636 -1.16395 -4.05006 0
M  V30 5597 H 524.311 -0.300121 -3.22306 0
M  V30 5598 H 523.218 -2.56325 -2.72485 0
M  V30 5599 H 524.551 -3.35808 -3.59852 0
M  V30 5600 N 526.204 0.969867 -1.24223 0
M  V30 5601 C 527.137 2.06279 -0.975926 0
M  V30 5602 C 528.115 1.62353 0.0895385 0
M  V30 5603 O 529.299 1.88442 -0.0469418 0
M  V30 5604 C 526.426 3.35391 -0.472315 0
M  V30 5605 C 525.472 3.98266 -1.526 0
M  V30 5606 S 526.305 4.36172 -3.10667 0
M  V30 5607 C 527.461 5.68423 -2.62003 0
M  V30 5608 H 527.694 2.28551 -1.90137 0
M  V30 5609 H 525.227 1.10748 -1.07584 0
M  V30 5610 H 527.185 4.10068 -0.188376 0
M  V30 5611 H 525.846 3.1111 0.432378 0
M  V30 5612 H 525.039 4.91307 -1.12399 0
M  V30 5613 H 524.641 3.30009 -1.75983 0
M  V30 5614 H 526.933 6.45842 -2.0468 0
M  V30 5615 H 527.876 6.13478 -3.53625 0
M  V30 5616 H 528.284 5.26928 -2.02502 0
M  V30 5617 N 527.682 1.05563 1.17022 0
M  V30 5618 C 528.929 0.767937 1.87374 0
M  V30 5619 C 529.257 -0.705224 1.81265 0
M  V30 5620 O 528.512 -1.5318 1.21796 0
M  V30 5621 C 528.811 1.19849 3.36706 0
M  V30 5622 C 528.477 2.6745 3.63017 0
M  V30 5623 C 527.139 3.0777 3.69907 0
M  V30 5624 C 529.491 3.62811 3.74189 0
M  V30 5625 C 526.819 4.42307 3.85463 0
M  V30 5626 C 529.171 4.97087 3.91264 0
M  V30 5627 C 527.835 5.37055 3.96394 0
M  V30 5628 H 527.105 0.281008 0.68565 0
M  V30 5629 H 529.752 1.32339 1.38415 0
M  V30 5630 H 528.057 0.562096 3.87747 0
M  V30 5631 H 529.754 0.953038 3.8951 0
M  V30 5632 H 526.344 2.35228 3.58282 0
M  V30 5633 H 530.528 3.32798 3.68183 0
M  V30 5634 H 525.784 4.72769 3.87684 0
M  V30 5635 H 529.958 5.70869 3.9885 0
M  V30 5636 H 527.585 6.41308 4.082 0
M  V30 5637 N 529.16 -1.33526 0.837174 0
M  V30 5638 C 530.406 -1.9813 0.432704 0
M  V30 5639 C 530.739 -1.66168 -1.00508 0
M  V30 5640 O 530.014 -0.94069 -1.70239 0
M  V30 5641 C 530.297 -3.54151 0.651834 0
M  V30 5642 C 530.15 -3.95806 2.13676 0
M  V30 5643 C 531.469 -4.39993 0.0968937 0
M  V30 5644 H 528.588 -0.719713 0.15869 0
M  V30 5645 H 531.23 -1.58193 1.05237 0
M  V30 5646 H 529.38 -3.88301 0.124369 0
M  V30 5647 H 531.052 -3.71921 2.72896 0
M  V30 5648 H 529.295 -3.45599 2.62191 0
M  V30 5649 H 529.966 -5.0447 2.24084 0
M  V30 5650 H 532.442 -4.12479 0.547733 0
M  V30 5651 H 531.318 -5.48186 0.279917 0
M  V30 5652 H 531.579 -4.3066 -0.9992 0
M  V30 5653 N 530.638 -0.59345 -1.46 0
M  V30 5654 C 531.885 -0.0831523 -2.02329 0
M  V30 5655 C 532.213 1.28093 -1.46364 0
M  V30 5656 O 531.468 1.85526 -0.622793 0
M  V30 5657 C 531.767 0.021178 -3.57394 0
M  V30 5658 C 531.433 -1.27671 -4.32448 0
M  V30 5659 C 530.095 -1.63227 -4.5267 0
M  V30 5660 C 532.447 -2.13511 -4.7546 0
M  V30 5661 C 529.775 -2.84401 -5.1316 0
M  V30 5662 C 532.127 -3.33922 -5.37289 0
M  V30 5663 C 530.791 -3.69747 -5.55737 0
M  V30 5664 H 530.061 -0.0304276 -0.740375 0
M  V30 5665 H 532.708 -0.772239 -1.75239 0
M  V30 5666 H 531.013 0.793454 -3.83682 0
M  V30 5667 H 532.71 0.431942 -3.98667 0
M  V30 5668 H 529.3 -0.989937 -4.17011 0
M  V30 5669 H 533.484 -1.87344 -4.59582 0
M  V30 5670 H 528.74 -3.12282 -5.25633 0
M  V30 5671 H 532.914 -4.00698 -5.69574 0
M  V30 5672 H 530.541 -4.6373 -6.02377 0
M  V30 5673 N 532.116 1.54067 -0.331816 0
M  V30 5674 C 533.063 2.24623 0.530372 0
M  V30 5675 C 534.033 1.24009 1.10503 0
M  V30 5676 O 535.218 1.52712 1.14384 0
M  V30 5677 C 532.358 3.01374 1.68129 0
M  V30 5678 C 531.471 4.16821 1.13507 0
M  V30 5679 C 530.606 4.81085 2.25234 0
M  V30 5680 C 529.645 5.88621 1.67903 0
M  V30 5681 N 528.782 6.46713 2.73326 0
M  V30 5682 H 533.622 2.97898 -0.0778607 0
M  V30 5683 H 531.159 1.47014 -0.0501965 0
M  V30 5684 H 533.117 3.44125 2.35868 0
M  V30 5685 H 531.747 2.30419 2.26069 0
M  V30 5686 H 530.799 3.78796 0.348979 0
M  V30 5687 H 532.111 4.94203 0.675633 0
M  V30 5688 H 531.265 5.26846 3.00862 0
M  V30 5689 H 530.004 4.03102 2.74518 0
M  V30 5690 H 529.009 5.42254 0.907773 0
M  V30 5691 H 530.234 6.68506 1.19487 0
M  V30 5692 H 528.18 5.71599 3.21886 0
M  V30 5693 H 528.097 7.19532 2.3197 0
M  V30 5694 H 529.365 6.97129 3.48758 0
M  V30 5695 N 533.594 0.0601682 1.57485 0
M  V30 5696 C 534.871 -0.651956 1.84415 0
M  V30 5697 C 535.251 -1.88498 0.950361 0
M  V30 5698 O 534.599 -2.28496 0.0136719 0
M  V30 5699 C 534.809 -1.00069 3.34346 0
M  V30 5700 C 536.157 -1.37915 4.01578 0
M  V30 5701 O 537.181 -1.09277 3.39024 0
M  V30 5702 O 536.04 -1.91399 5.11887 0
M  V30 5703 H 533.134 -0.322668 0.761455 0
M  V30 5704 H 535.68 0.0902159 1.6946 0
M  V30 5705 H 534.452 -0.124463 3.91102 0
M  V30 5706 H 534.075 -1.80001 3.54521 0
M  V30 5707 N 535.072 -1.5615 -0.213296 0
M  V30 5708 C 536.004 -1.89586 -1.28802 0
M  V30 5709 C 537.017 -0.784844 -1.42633 0
M  V30 5710 O 538.206 -1.06319 -1.43383 0
M  V30 5711 C 535.306 -2.09665 -2.66259 0
M  V30 5712 C 534.479 -3.40726 -2.7427 0
M  V30 5713 C 533.538 -3.50137 -3.92798 0
M  V30 5714 O 532.564 -4.23105 -3.8075 0
M  V30 5715 N 533.766 -2.81886 -5.07465 0
M  V30 5716 H 536.531 -2.82368 -1.00442 0
M  V30 5717 H 534.092 -1.56796 -0.403302 0
M  V30 5718 H 536.084 -2.13268 -3.43946 0
M  V30 5719 H 534.654 -1.23469 -2.87183 0
M  V30 5720 H 533.874 -3.4915 -1.82997 0
M  V30 5721 H 535.162 -4.27048 -2.76599 0
M  V30 5722 H 534.56 -2.22397 -5.2015 0
M  V30 5723 H 533.117 -2.91139 -5.83165 0
M  V30 5724 N 536.55 0.480323 -1.50102 0
M  V30 5725 C 537.796 1.23208 -1.61837 0
M  V30 5726 C 538.151 1.89878 -0.310509 0
M  V30 5727 O 537.444 1.7871 0.690897 0
M  V30 5728 C 537.638 2.30708 -2.72963 0
M  V30 5729 C 537.467 1.74583 -4.14428 0
M  V30 5730 C 536.237 1.54964 -4.80951 0
M  V30 5731 C 538.435 1.24597 -4.98979 0
M  V30 5732 N 536.417 0.939855 -6.06663 0
M  V30 5733 C 537.788 0.758834 -6.15339 0
M  V30 5734 C 539.843 1.13365 -4.84822 0
M  V30 5735 C 538.546 0.17046 -7.19098 0
M  V30 5736 C 540.572 0.559221 -5.8875 0
M  V30 5737 C 539.934 0.082415 -7.04352 0
M  V30 5738 H 536.033 0.440065 -0.646426 0
M  V30 5739 H 538.617 0.535632 -1.87187 0
M  V30 5740 H 536.788 2.9779 -2.4935 0
M  V30 5741 H 538.52 2.97738 -2.74106 0
M  V30 5742 H 535.275 1.79926 -4.38091 0
M  V30 5743 H 535.699 0.653641 -6.73837 0
M  V30 5744 H 540.341 1.48823 -3.95742 0
M  V30 5745 H 538.059 -0.196347 -8.07861 0
M  V30 5746 H 541.645 0.474804 -5.79859 0
M  V30 5747 H 540.525 -0.355119 -7.83396 0
M  V30 5748 N 538.028 1.39524 0.732853 0
M  V30 5749 C 539.275 1.36865 1.49246 0
M  V30 5750 C 539.603 -0.0347118 1.94469 0
M  V30 5751 O 538.858 -1.01596 1.67262 0
M  V30 5752 C 539.157 2.28916 2.74468 0
M  V30 5753 C 538.823 3.76506 2.481 0
M  V30 5754 C 537.485 4.16721 2.40619 0
M  V30 5755 C 539.837 4.69846 2.25598 0
M  V30 5756 C 537.165 5.48334 2.08679 0
M  V30 5757 C 539.517 6.01739 1.95174 0
M  V30 5758 C 538.181 6.41015 1.86163 0
M  V30 5759 H 537.451 0.500824 0.546129 0
M  V30 5760 H 540.098 1.72047 0.840958 0
M  V30 5761 H 538.403 1.86859 3.4437 0
M  V30 5762 H 540.1 2.2415 3.32502 0
M  V30 5763 H 536.69 3.44635 2.54803 0
M  V30 5764 H 540.874 4.39608 2.30344 0
M  V30 5765 H 536.13 5.77685 2.00226 0
M  V30 5766 H 540.304 6.73591 1.76771 0
M  V30 5767 H 537.931 7.42917 1.61179 0
M  V30 5768 N 539.506 -0.963266 1.24736 0
M  V30 5769 C 540.752 -1.71 1.10139 0
M  V30 5770 C 541.107 -1.89089 -0.35541 0
M  V30 5771 O 540.4 -1.44451 -1.25875 0
M  V30 5772 C 540.594 -3.09944 1.7796 0
M  V30 5773 C 540.423 -3.05408 3.30085 0
M  V30 5774 C 539.193 -3.09643 3.99311 0
M  V30 5775 C 541.391 -2.87241 4.26611 0
M  V30 5776 N 539.373 -2.95174 5.3828 0
M  V30 5777 C 540.744 -2.81114 5.52607 0
M  V30 5778 C 542.799 -2.71856 4.17132 0
M  V30 5779 C 541.502 -2.61174 6.70209 0
M  V30 5780 C 543.528 -2.53284 5.34417 0
M  V30 5781 C 542.89 -2.4787 6.59348 0
M  V30 5782 H 538.989 -0.634078 0.457678 0
M  V30 5783 H 541.573 -1.14169 1.57713 0
M  V30 5784 H 539.744 -3.64958 1.32893 0
M  V30 5785 H 541.476 -3.73348 1.56183 0
M  V30 5786 H 538.231 -3.18498 3.50508 0
M  V30 5787 H 538.655 -2.91168 6.11188 0
M  V30 5788 H 543.297 -2.74821 3.21299 0
M  V30 5789 H 541.015 -2.56952 7.6616 0
M  V30 5790 H 544.601 -2.42317 5.28936 0
M  V30 5791 H 543.481 -2.33685 7.48573 0
M  V30 5792 N 540.985 -1.06182 -1.16461 0
M  V30 5793 C 542.401 -0.785065 -1.38956 0
M  V30 5794 C 542.601 0.616103 -1.9185 0
M  V30 5795 O 541.657 1.37686 -2.11657 0
M  V30 5796 C 542.97 -1.84902 -2.37132 0
M  V30 5797 C 544.518 -1.8724 -2.50819 0
M  V30 5798 C 544.993 -2.92686 -3.52277 0
M  V30 5799 N 546.484 -2.91712 -3.59803 0
M  V30 5800 C 547.219 -3.69949 -4.38093 0
M  V30 5801 N 546.715 -4.58 -5.19815 0
M  V30 5802 N 548.508 -3.58346 -4.33064 0
M  V30 5803 H 540.659 -1.96569 -0.804634 0
M  V30 5804 H 542.922 -0.851747 -0.416211 0
M  V30 5805 H 542.628 -2.85518 -2.0536 0
M  V30 5806 H 542.502 -1.69908 -3.36766 0
M  V30 5807 H 544.889 -0.872827 -2.81897 0
M  V30 5808 H 544.97 -2.06311 -1.51226 0
M  V30 5809 H 544.614 -3.92835 -3.21937 0
M  V30 5810 H 544.544 -2.70864 -4.51598 0
M  V30 5811 H 547.035 -2.27876 -3.01464 0
M  V30 5812 H 547.348 -5.14357 -5.76764 0
M  V30 5813 H 545.693 -4.62056 -5.19162 0
M  V30 5814 H 548.884 -2.88943 -3.68279 0
M  V30 5815 H 549.057 -4.19563 -4.93833 0
M  V30 5816 N 542.463 1.3308 -0.844243 0
M  V30 5817 C 543.709 1.97898 -0.443206 0
M  V30 5818 C 544.042 1.66699 0.99625 0
M  V30 5819 O 543.317 0.949704 1.69738 0
M  V30 5820 C 543.6 3.53801 -0.670606 0
M  V30 5821 C 543.453 3.94667 -2.15772 0
M  V30 5822 C 544.772 4.39936 -0.120226 0
M  V30 5823 H 541.891 0.718861 -0.162504 0
M  V30 5824 H 544.533 1.57633 -1.06075 0
M  V30 5825 H 542.683 3.88229 -0.14496 0
M  V30 5826 H 544.355 3.70469 -2.74865 0
M  V30 5827 H 542.598 3.44203 -2.6402 0
M  V30 5828 H 543.269 5.03275 -2.26757 0
M  V30 5829 H 545.745 4.12183 -0.5696 0
M  V30 5830 H 544.621 5.4803 -0.308984 0
M  V30 5831 H 544.882 4.31184 0.976347 0
M  V30 5832 N 543.941 0.601185 1.45683 0
M  V30 5833 C 545.357 0.264315 1.57396 0
M  V30 5834 C 545.557 -1.23324 1.59353 0
M  V30 5835 O 544.613 -2.01594 1.52039 0
M  V30 5836 C 545.926 0.929839 2.85962 0
M  V30 5837 C 547.474 0.905156 2.99626 0
M  V30 5838 C 547.949 1.55057 4.30954 0
M  V30 5839 N 549.44 1.51576 4.37697 0
M  V30 5840 C 550.175 1.98436 5.37969 0
M  V30 5841 N 549.671 2.53352 6.44813 0
M  V30 5842 N 551.464 1.89242 5.29286 0
M  V30 5843 H 543.615 1.57363 1.42656 0
M  V30 5844 H 545.878 0.658831 0.681649 0
M  V30 5845 H 545.584 1.98404 2.90394 0
M  V30 5846 H 545.458 0.449224 3.74515 0
M  V30 5847 H 547.845 -0.14048 2.94765 0
M  V30 5848 H 547.926 1.42397 2.12501 0
M  V30 5849 H 547.57 2.5955 4.36573 0
M  V30 5850 H 547.5 1.00682 5.16886 0
M  V30 5851 H 549.991 1.11452 3.61091 0
M  V30 5852 H 550.304 2.86918 7.17564 0
M  V30 5853 H 548.649 2.57388 6.45582 0
M  V30 5854 H 551.84 1.46083 4.44722 0
M  V30 5855 H 552.013 2.26075 6.07284 0
M  V30 5856 N 545.419 -1.53889 0.339982 0
M  V30 5857 C 546.367 -2.26391 -0.533822 0
M  V30 5858 C 547.361 -1.28404 -1.10493 0
M  V30 5859 O 548.567 -1.46124 -1.05108 0
M  V30 5860 H 544.942 -0.727385 -0.190828 0
M  V30 5861 H 546.913 -2.98233 0.0997484 0
M  V30 5862 C 545.662 -3.04707 -1.67479 0
M  V30 5863 H 544.985 -3.79934 -1.2446 0
M  V30 5864 H 546.425 -3.58657 -2.26144 0
M  V30 5865 C 544.884 -2.13989 -2.60212 0
M  V30 5866 O 545.414 -1.73361 -3.62366 0
M  V30 5867 N 543.62 -1.79141 -2.28816 0
M  V30 5868 H 543.167 -2.12378 -1.45785 0
M  V30 5869 H 543.125 -1.18725 -2.91121 0
M  V30 5870 N 546.897 -0.0685191 -1.57451 0
M  V30 5871 C 547.845 0.917577 -2.13736 0
M  V30 5872 C 548.839 1.31049 -1.07344 0
M  V30 5873 O 550.045 1.28811 -1.25728 0
M  V30 5874 H 546.42 0.313835 -0.683382 0
M  V30 5875 H 548.391 0.417903 -2.95459 0
M  V30 5876 C 547.14 2.17686 -2.71123 0
M  V30 5877 H 546.463 1.88336 -3.52661 0
M  V30 5878 H 547.903 2.84803 -3.14107 0
M  V30 5879 C 546.362 2.9332 -1.65726 0
M  V30 5880 O 546.892 3.86901 -1.08031 0
M  V30 5881 N 545.098 2.56367 -1.36837 0
M  V30 5882 H 544.645 1.80341 -1.83943 0
M  V30 5883 H 544.603 3.07276 -0.665501 0
M  V30 5884 N 548.375 1.56261 0.205012 0
M  V30 5885 C 549.791 1.49623 0.555433 0
M  V30 5886 C 549.991 0.766719 1.86343 0
M  V30 5887 O 549.047 0.313158 2.50551 0
M  V30 5888 C 550.36 2.94253 0.619347 0
M  V30 5889 C 551.908 3.04868 0.708855 0
M  V30 5890 C 552.383 4.50888 0.803969 0
M  V30 5891 N 553.874 4.54999 0.867758 0
M  V30 5892 C 554.609 5.65284 0.96135 0
M  V30 5893 N 554.105 6.85282 1.01786 0
M  V30 5894 N 555.898 5.53174 0.997771 0
M  V30 5895 H 548.049 2.0211 -0.653094 0
M  V30 5896 H 550.312 0.919333 -0.231366 0
M  V30 5897 H 550.018 3.50643 -0.272458 0
M  V30 5898 H 549.892 3.47063 1.47741 0
M  V30 5899 H 552.279 2.48532 1.5911 0
M  V30 5900 H 552.36 2.55199 -0.175205 0
M  V30 5901 H 552.004 5.07846 -0.0738798 0
M  V30 5902 H 551.934 4.98279 1.70369 0
M  V30 5903 H 554.425 3.68588 0.833735 0
M  V30 5904 H 554.738 7.65081 1.08951 0
M  V30 5905 H 553.083 6.8796 0.986706 0
M  V30 5906 H 556.274 4.5835 0.950392 0
M  V30 5907 H 556.447 6.39151 1.06725 0
M  V30 5908 N 549.853 -0.472356 1.50355 0
M  V30 5909 C 551.099 -1.22634 1.6152 0
M  V30 5910 C 551.432 -1.91645 0.313995 0
M  V30 5911 O 550.707 -1.82059 -0.684446 0
M  V30 5912 C 550.99 -2.27099 2.7946 0
M  V30 5913 C 550.843 -1.62402 4.19459 0
M  V30 5914 C 552.162 -3.28421 2.92964 0
M  V30 5915 H 549.281 -0.444494 0.587873 0
M  V30 5916 H 551.923 -0.520321 1.82737 0
M  V30 5917 H 550.073 -2.87314 2.61501 0
M  V30 5918 H 551.745 -1.05793 4.49005 0
M  V30 5919 H 549.988 -0.927184 4.23776 0
M  V30 5920 H 550.659 -2.38309 4.97909 0
M  V30 5921 H 553.135 -2.78227 3.09401 0
M  V30 5922 H 552.011 -3.98845 3.77113 0
M  V30 5923 H 552.272 -3.92467 2.03525 0
M  V30 5924 N 551.331 -1.39911 -0.725443 0
M  V30 5925 C 552.264 -1.33788 -1.84867 0
M  V30 5926 C 553.242 -0.209907 -1.61239 0
M  V30 5927 O 554.426 -0.391943 -1.8438 0
M  V30 5928 C 551.553 -1.07975 -3.21028 0
M  V30 5929 C 550.599 -2.23092 -3.635 0
M  V30 5930 S 551.432 -3.85431 -3.71757 0
M  V30 5931 C 552.588 -3.61862 -5.10692 0
M  V30 5932 H 552.821 -2.28848 -1.89779 0
M  V30 5933 H 550.354 -1.26079 -0.891254 0
M  V30 5934 H 552.312 -0.937669 -3.99647 0
M  V30 5935 H 550.973 -0.145865 -3.13761 0
M  V30 5936 H 550.166 -2.00647 -4.62338 0
M  V30 5937 H 549.768 -2.33553 -2.92112 0
M  V30 5938 H 552.06 -3.19719 -5.97316 0
M  V30 5939 H 553.003 -4.60196 -5.38169 0
M  V30 5940 H 553.411 -2.95757 -4.8082 0
M  V30 5941 N 552.809 0.956637 -1.25245 0
M  V30 5942 C 554.086 1.67716 -1.00651 0
M  V30 5943 C 554.466 2.0585 0.467866 0
M  V30 5944 O 553.814 1.77029 1.44475 0
M  V30 5945 C 554.024 2.90093 -1.94028 0
M  V30 5946 C 555.372 3.6209 -2.21756 0
M  V30 5947 O 556.396 3.00171 -1.9177 0
M  V30 5948 O 555.255 4.7358 -2.72735 0
M  V30 5949 H 552.349 0.733731 -0.381533 0
M  V30 5950 H 554.895 1.00974 -1.3639 0
M  V30 5951 H 553.667 2.58689 -2.93591 0
M  V30 5952 H 553.29 3.64566 -1.58674 0
M  V30 5953 N 554.287 1.06798 1.15896 0
M  V30 5954 C 555.535 0.786211 1.8618 0
M  V30 5955 C 555.856 -0.689547 1.82401 0
M  V30 5956 O 555.126 -1.49913 1.26107 0
M  V30 5957 H 553.706 0.287843 0.689315 0
M  V30 5958 H 556.368 1.35055 1.40521 0
M  V30 5959 H 555.464 1.1157 2.91477 0
M  V30 5960 N 555.766 -1.3263 0.851289 0
M  V30 5961 C 556.996 -2.01271 0.466222 0
M  V30 5962 C 557.404 -1.64156 -0.940714 0
M  V30 5963 O 556.747 -0.857109 -1.62479 0
M  V30 5964 C 556.809 -3.55695 0.521672 0
M  V30 5965 C 556.473 -4.16227 1.88691 0
M  V30 5966 C 557.47 -4.34699 2.85189 0
M  V30 5967 C 555.155 -4.52377 2.18313 0
M  V30 5968 C 557.149 -4.88484 4.09465 0
M  V30 5969 C 554.836 -5.05868 3.42843 0
M  V30 5970 C 555.834 -5.23869 4.38235 0
M  V30 5971 O 555.522 -5.76218 5.6056 0
M  V30 5972 H 555.254 -0.651034 0.18202 0
M  V30 5973 H 557.808 -1.7026 1.14894 0
M  V30 5974 H 556.038 -3.86086 -0.217888 0
M  V30 5975 H 557.727 -4.05613 0.152682 0
M  V30 5976 H 558.493 -4.07107 2.63607 0
M  V30 5977 H 554.372 -4.37652 1.44851 0
M  V30 5978 H 557.916 -5.02451 4.83931 0
M  V30 5979 H 553.813 -5.32891 3.64277 0
M  V30 5980 H 554.581 -5.94616 5.62471 0
M  V30 5981 N 557.244 -0.608902 -1.45362 0
M  V30 5982 C 558.655 -0.189511 -1.85736 0
M  V30 5983 C 559.006 1.2539 -1.50903 0
M  V30 5984 O 558.131 1.95094 -0.936347 0
M  V30 5985 C 558.726 -0.33716 -3.37118 0
M  V30 5986 C 557.285 0.0275487 -3.7639 0
M  V30 5987 C 556.432 -0.660983 -2.69307 0
M  V30 5988 H 559.383 -0.815499 -1.36144 0
M  V30 5989 H 559.404 0.430257 -3.7806 0
M  V30 5990 H 558.916 -1.38779 -3.62439 0
M  V30 5991 H 557.017 1.0773 -3.56686 0
M  V30 5992 H 557.13 -0.367018 -4.77692 0
M  V30 5993 H 555.494 -0.0984958 -2.54509 0
M  V30 5994 H 556.277 -1.71377 -2.97464 0
M  V30 5995 N 558.722 1.53707 -0.348139 0
M  V30 5996 C 559.655 2.21481 0.549667 0
M  V30 5997 C 560.633 1.20046 1.09671 0
M  V30 5998 O 561.817 1.48883 1.15612 0
M  V30 5999 C 558.944 2.89585 1.75664 0
M  V30 6000 C 557.99 4.04948 1.33864 0
M  V30 6001 S 558.823 5.34325 0.354577 0
M  V30 6002 C 559.979 6.05934 1.56828 0
M  V30 6003 H 560.212 2.97289 -0.0259755 0
M  V30 6004 H 557.745 1.53833 -0.132216 0
M  V30 6005 H 559.703 3.29441 2.44906 0
M  V30 6006 H 558.364 2.13535 2.30351 0
M  V30 6007 H 557.557 4.51552 2.23868 0
M  V30 6008 H 557.159 3.66893 0.725651 0
M  V30 6009 H 559.451 6.29606 2.50205 0
M  V30 6010 H 560.394 6.98799 1.14395 0
M  V30 6011 H 560.802 5.36151 1.76642 0
M  V30 6012 N 560.2 0.0768682 1.57412 0
M  V30 6013 C 561.132 -0.918248 2.10002 0
M  V30 6014 C 562.145 -1.25808 1.03325 0
M  V30 6015 O 563.334 -1.21438 1.30824 0
M  V30 6016 C 560.434 -2.23263 2.54964 0
M  V30 6017 C 559.607 -2.07088 3.8527 0
M  V30 6018 C 558.666 -3.21876 4.16272 0
M  V30 6019 O 557.692 -2.96643 4.8579 0
M  V30 6020 N 558.894 -4.4712 3.70221 0
M  V30 6021 H 561.659 -0.469209 2.96004 0
M  V30 6022 H 559.22 -0.108725 1.61535 0
M  V30 6023 H 561.212 -2.9897 2.72762 0
M  V30 6024 H 559.782 -2.59649 1.74072 0
M  V30 6025 H 559.002 -1.15818 3.76802 0
M  V30 6026 H 560.29 -1.93537 4.70554 0
M  V30 6027 H 559.688 -4.70506 3.1407 0
M  V30 6028 H 558.245 -5.19837 3.93209 0
M  V30 6029 N 561.678 -1.56367 -0.196722 0
M  V30 6030 C 562.927 -1.79724 -0.915539 0
M  V30 6031 C 563.24 -0.649804 -1.84491 0
M  V30 6032 O 564.446 -0.767631 -2.60422 0
M  V30 6033 C 562.902 -3.18369 -1.67836 0
M  V30 6034 C 562.51 -4.4091 -0.793897 0
M  V30 6035 C 564.254 -3.51037 -2.38691 0
M  V30 6036 C 562.161 -5.70577 -1.55549 0
M  V30 6037 H 561.091 -0.67013 -0.345604 0
M  V30 6038 H 563.742 -1.82721 -0.168856 0
M  V30 6039 H 562.124 -3.09617 -2.46887 0
M  V30 6040 H 563.298 -4.60781 -0.042163 0
M  V30 6041 H 561.613 -4.15937 -0.19626 0
M  V30 6042 H 564.21 -4.4515 -2.96219 0
M  V30 6043 H 564.553 -2.74704 -3.12799 0
M  V30 6044 H 565.086 -3.61229 -1.66608 0
M  V30 6045 H 561.825 -6.49871 -0.857226 0
M  V30 6046 H 561.345 -5.54726 -2.2812 0
M  V30 6047 H 563.024 -6.11637 -2.10971 0
M  V30 6048 N 563.156 0.464375 -1.50603 0
M  V30 6049 C 564.384 1.23907 -1.65695 0
M  V30 6050 C 564.799 1.85658 -0.343027 0
M  V30 6051 O 564.156 1.69529 0.675739 0
M  V30 6052 C 564.207 2.3429 -2.75301 0
M  V30 6053 O 563.928 1.7507 -4.01599 0
M  V30 6054 C 565.429 3.25051 -3.01424 0
M  V30 6055 H 562.649 0.374485 -0.556778 0
M  V30 6056 H 565.193 0.55353 -1.96866 0
M  V30 6057 H 563.348 2.98607 -2.46804 0
M  V30 6058 H 563.762 2.47812 -4.62266 0
M  V30 6059 H 565.236 3.98699 -3.81763 0
M  V30 6060 H 565.713 3.84227 -2.12758 0
M  V30 6061 H 566.319 2.66463 -3.31477 0
M  V30 6062 N 564.634 1.40294 0.718013 0
M  V30 6063 C 565.864 1.41544 1.50495 0
M  V30 6064 C 566.272 0.0127877 1.89196 0
M  V30 6065 O 565.615 -0.97305 1.55812 0
M  V30 6066 C 565.677 2.24021 2.81167 0
M  V30 6067 C 565.341 3.72463 2.64803 0
M  V30 6068 C 566.338 4.65154 2.32223 0
M  V30 6069 C 564.023 4.1625 2.81143 0
M  V30 6070 C 566.017 5.99618 2.16189 0
M  V30 6071 C 563.704 5.50784 2.64727 0
M  V30 6072 C 564.702 6.42283 2.32297 0
M  V30 6073 O 564.39 7.74337 2.16004 0
M  V30 6074 H 564.122 0.484819 0.471091 0
M  V30 6075 H 566.676 1.84948 0.893488 0
M  V30 6076 H 564.906 1.75393 3.44636 0
M  V30 6077 H 566.595 2.17243 3.42871 0
M  V30 6078 H 567.361 4.32622 2.19234 0
M  V30 6079 H 563.24 3.45352 3.05373 0
M  V30 6080 H 566.784 6.71 1.90799 0
M  V30 6081 H 562.681 5.82902 2.773 0
M  V30 6082 H 563.449 7.85244 2.30942 0
M  V30 6083 N 566.112 -0.949982 1.2575 0
M  V30 6084 C 567.359 -1.69515 1.10774 0
M  V30 6085 C 567.687 -1.91316 -0.350479 0
M  V30 6086 O 566.942 -1.48515 -1.27443 0
M  V30 6087 C 567.241 -3.08039 1.81237 0
M  V30 6088 C 566.907 -3.06023 3.31151 0
M  V30 6089 C 565.569 -3.0518 3.72047 0
M  V30 6090 C 567.921 -2.98998 4.26907 0
M  V30 6091 C 565.249 -2.95067 5.07102 0
M  V30 6092 C 567.601 -2.90426 5.61992 0
M  V30 6093 C 566.265 -2.87922 6.0221 0
M  V30 6094 H 565.535 -0.6203 0.405351 0
M  V30 6095 H 568.182 -1.10953 1.56082 0
M  V30 6096 H 566.487 -3.70172 1.28373 0
M  V30 6097 H 568.184 -3.64526 1.67098 0
M  V30 6098 H 564.774 -3.07453 2.98614 0
M  V30 6099 H 568.958 -2.98764 3.963 0
M  V30 6100 H 564.214 -2.915 5.37436 0
M  V30 6101 H 568.388 -2.83952 6.35881 0
M  V30 6102 H 566.015 -2.79841 7.06819 0
M  V30 6103 N 567.59 -1.07411 -1.15328 0
M  V30 6104 C 568.836 -0.808666 -1.86634 0
M  V30 6105 C 569.191 0.65816 -1.80793 0
M  V30 6106 O 568.484 1.47689 -1.22059 0
M  V30 6107 C 568.678 -1.25191 -3.34757 0
M  V30 6108 C 568.507 -2.76028 -3.55019 0
M  V30 6109 C 567.277 -3.43644 -3.70455 0
M  V30 6110 C 569.475 -3.74224 -3.5279 0
M  V30 6111 N 567.457 -4.83117 -3.78776 0
M  V30 6112 C 568.828 -4.9954 -3.67233 0
M  V30 6113 C 570.883 -3.67373 -3.36068 0
M  V30 6114 C 569.586 -6.18819 -3.66682 0
M  V30 6115 C 571.612 -4.86116 -3.36816 0
M  V30 6116 C 570.974 -6.10266 -3.51789 0
M  V30 6117 H 567.073 -0.348478 -0.700062 0
M  V30 6118 H 569.657 -1.37049 -1.38295 0
M  V30 6119 H 567.828 -0.717775 -3.8171 0
M  V30 6120 H 569.56 -0.933936 -3.93776 0
M  V30 6121 H 566.315 -2.94051 -3.71256 0
M  V30 6122 H 566.739 -5.55705 -3.86679 0
M  V30 6123 H 571.381 -2.72334 -3.2341 0
M  V30 6124 H 569.099 -7.14179 -3.78118 0
M  V30 6125 H 572.685 -4.82492 -3.25103 0
M  V30 6126 H 571.565 -7.00609 -3.52301 0
M  V30 6127 N 569.068 1.32177 -0.85831 0
M  V30 6128 C 570.484 1.49873 -0.548656 0
M  V30 6129 C 570.684 1.79278 0.919874 0
M  V30 6130 O 569.74 1.86451 1.70271 0
M  V30 6131 C 571.053 2.64043 -1.4388 0
M  V30 6132 C 572.601 2.77928 -1.43961 0
M  V30 6133 C 573.076 3.95182 -2.31506 0
M  V30 6134 N 574.567 4.0245 -2.29321 0
M  V30 6135 C 575.302 4.9242 -2.93786 0
M  V30 6136 N 574.798 5.87373 -3.67376 0
M  V30 6137 N 576.591 4.85572 -2.83155 0
M  V30 6138 H 568.742 1.11357 -1.80868 0
M  V30 6139 H 571.005 0.549175 -0.772729 0
M  V30 6140 H 570.711 2.49055 -2.48324 0
M  V30 6141 H 570.585 3.59912 -1.12885 0
M  V30 6142 H 572.972 2.92338 -0.402813 0
M  V30 6143 H 573.053 1.82762 -1.78974 0
M  V30 6144 H 572.697 3.81531 -3.35256 0
M  V30 6145 H 572.627 4.89633 -1.93823 0
M  V30 6146 H 575.118 3.34507 -1.75822 0
M  V30 6147 H 575.431 6.52728 -4.13722 0
M  V30 6148 H 573.776 5.87388 -3.71484 0
M  V30 6149 H 576.967 4.10363 -2.25211 0
M  V30 6150 H 577.14 5.55486 -3.33676 0
M  V30 6151 N 570.547 0.616602 1.45037 0
M  V30 6152 C 571.795 0.115103 2.01772 0
M  V30 6153 C 572.116 -1.2622 1.48639 0
M  V30 6154 O 571.386 -1.83563 0.684199 0
M  V30 6155 H 569.966 0.0395607 0.745952 0
M  V30 6156 H 572.628 0.800032 1.77723 0
M  V30 6157 H 571.724 0.0717274 3.12018 0
M  V30 6158 N 572.025 -1.5352 0.356285 0
M  V30 6159 C 572.955 -2.28372 -0.486661 0
M  V30 6160 C 573.936 -1.30432 -1.09185 0
M  V30 6161 O 575.121 -1.59291 -1.11085 0
M  V30 6162 C 572.251 -3.06604 -1.63129 0
M  V30 6163 C 571.205 -4.12154 -1.15381 0
M  V30 6164 C 570.531 -4.78415 -2.38796 0
M  V30 6165 C 571.831 -5.21724 -0.245179 0
M  V30 6166 H 573.525 -2.99083 0.137797 0
M  V30 6167 H 571.071 -1.43841 0.0677134 0
M  V30 6168 H 573.024 -3.57712 -2.22755 0
M  V30 6169 H 571.748 -2.33568 -2.28284 0
M  V30 6170 H 570.407 -3.61978 -0.580294 0
M  V30 6171 H 570.055 -4.01959 -3.02387 0
M  V30 6172 H 569.755 -5.49734 -2.07524 0
M  V30 6173 H 571.279 -5.32313 -2.99125 0
M  V30 6174 H 572.693 -5.68391 -0.748646 0
M  V30 6175 H 571.09 -6.00095 -0.0237608 0
M  V30 6176 H 572.16 -4.79596 0.715229 0
M  V30 6177 N 573.503 -0.0852151 -1.57369 0
M  V30 6178 C 574.914 0.445428 -1.81309 0
M  V30 6179 C 575.265 1.68795 -1.00013 0
M  V30 6180 O 574.39 2.15211 -0.226573 0
M  V30 6181 C 574.985 0.814887 -3.28854 0
M  V30 6182 C 573.544 1.29032 -3.53592 0
M  V30 6183 C 572.691 0.282089 -2.75861 0
M  V30 6184 H 575.642 -0.310771 -1.55627 0
M  V30 6185 H 575.663 1.67524 -3.41637 0
M  V30 6186 H 575.175 -0.0896309 -3.87996 0
M  V30 6187 H 573.276 2.21289 -2.9977 0
M  V30 6188 H 573.389 1.25898 -4.62262 0
M  V30 6189 H 571.753 0.762182 -2.43029 0
M  V30 6190 H 572.536 -0.614936 -3.37748 0
M  V30 6191 N 574.981 1.5647 0.188427 0
M  V30 6192 C 576.392 1.70864 0.752494 0
M  V30 6193 C 576.743 0.692905 1.83557 0
M  V30 6194 O 575.868 -0.149307 2.15884 0
M  V30 6195 C 576.463 3.09789 1.37173 0
M  V30 6196 C 575.022 3.25925 1.88281 0
M  V30 6197 C 574.169 2.66817 0.755259 0
M  V30 6198 H 577.12 1.58657 -0.0367408 0
M  V30 6199 H 577.141 3.07489 2.24122 0
M  V30 6200 H 576.653 3.83693 0.583219 0
M  V30 6201 H 574.754 2.56948 2.6983 0
M  V30 6202 H 574.867 4.33498 2.04001 0
M  V30 6203 H 573.231 2.2617 1.17128 0
M  V30 6204 H 574.014 3.43294 -0.0211237 0
M  V30 6205 N 576.459 -0.456382 1.50847 0
M  V30 6206 C 577.684 -1.2349 1.66628 0
M  V30 6207 C 578.109 -1.84715 0.355254 0
M  V30 6208 O 577.467 -1.67961 -0.682559 0
M  V30 6209 C 577.515 -2.30865 2.77009 0
M  V30 6210 O 576.619 -3.35882 2.39285 0
M  V30 6211 H 575.96 -0.36266 0.556214 0
M  V30 6212 H 578.49 -0.541374 1.97308 0
M  V30 6213 H 578.5 -2.75949 3.00526 0
M  V30 6214 H 577.175 -1.85677 3.72152 0
M  V30 6215 H 575.752 -2.96406 2.26269 0
M  V30 6216 N 577.937 -1.40673 -0.710563 0
M  V30 6217 C 579.186 -1.38525 -1.46607 0
M  V30 6218 C 579.499 0.0077024 -1.95598 0
M  V30 6219 O 580.705 0.151792 -2.71075 0
M  V30 6220 C 579.161 -2.43489 -2.6503 0
M  V30 6221 C 578.769 -3.88619 -2.22888 0
M  V30 6222 C 580.513 -2.50456 -3.42742 0
M  V30 6223 C 578.42 -4.85168 -3.3818 0
M  V30 6224 H 577.35 -0.515092 -0.550632 0
M  V30 6225 H 580.001 -1.66431 -0.772846 0
M  V30 6226 H 578.383 -2.0869 -3.36548 0
M  V30 6227 H 579.557 -4.32588 -1.58758 0
M  V30 6228 H 577.872 -3.85174 -1.58208 0
M  V30 6229 H 580.469 -3.19776 -4.28541 0
M  V30 6230 H 580.812 -1.53665 -3.86902 0
M  V30 6231 H 581.345 -2.84271 -2.78271 0
M  V30 6232 H 578.084 -5.8331 -2.99047 0
M  V30 6233 H 577.604 -4.4586 -4.01209 0
M  V30 6234 H 579.283 -5.05225 -4.04174 0
M  V30 6235 N 579.415 0.9433 -1.26252 0
M  V30 6236 C 580.692 1.66639 -1.02424 0
M  V30 6237 C 581.072 2.06335 0.446006 0
M  V30 6238 O 580.42 1.78551 1.42589 0
M  V30 6239 C 580.63 2.88019 -1.97094 0
M  V30 6240 C 581.978 3.59718 -2.25584 0
M  V30 6241 O 583.002 2.9812 -1.94943 0
M  V30 6242 O 581.861 4.7066 -2.77743 0
M  V30 6243 H 578.955 0.729643 -0.389294 0
M  V30 6244 H 581.501 0.995218 -1.37454 0
M  V30 6245 H 580.273 2.5556 -2.96319 0
M  V30 6246 H 579.896 3.62863 -1.62532 0
M  V30 6247 N 580.893 1.08022 1.14757 0
M  V30 6248 C 581.856 0.71048 2.1791 0
M  V30 6249 C 582.856 -0.252731 1.58801 0
M  V30 6250 O 584.046 -0.0327915 1.74169 0
M  V30 6251 C 581.178 0.0483203 3.40866 0
M  V30 6252 H 582.371 1.62384 2.52134 0
M  V30 6253 H 579.924 0.877595 1.29337 0
M  V30 6254 H 580.659 -0.876959 3.12218 0
M  V30 6255 H 580.444 0.741189 3.85031 0
M  V30 6256 H 581.934 -0.195471 4.17142 0
M  V30 6257 N 582.371 -1.3172 0.865308 0
M  V30 6258 C 583.617 -1.97168 0.474633 0
M  V30 6259 C 583.95 -1.68263 -0.969604 0
M  V30 6260 O 583.225 -0.976588 -1.68205 0
M  V30 6261 C 583.508 -3.52689 0.726808 0
M  V30 6262 C 583.361 -3.91185 2.22024 0
M  V30 6263 C 584.68 -4.39689 0.190201 0
M  V30 6264 H 581.799 -0.716185 0.17392 0
M  V30 6265 H 584.441 -1.55925 1.08569 0
M  V30 6266 H 582.591 -3.8795 0.206705 0
M  V30 6267 H 584.263 -3.66049 2.80724 0
M  V30 6268 H 582.506 -3.3996 2.69462 0
M  V30 6269 H 583.177 -4.99604 2.34735 0
M  V30 6270 H 585.653 -4.11225 0.635103 0
M  V30 6271 H 584.529 -5.47469 0.396132 0
M  V30 6272 H 584.79 -4.32683 -0.907625 0
M  V30 6273 N 583.85 -0.624285 -1.44708 0
M  V30 6274 C 585.08 -0.132726 -2.06173 0
M  V30 6275 C 585.488 1.19513 -1.46674 0
M  V30 6276 O 584.831 1.74254 -0.581491 0
M  V30 6277 C 584.893 0.0636732 -3.59444 0
M  V30 6278 C 584.557 -1.18496 -4.4137 0
M  V30 6279 C 585.553 -2.10706 -4.75288 0
M  V30 6280 C 583.239 -1.41846 -4.81856 0
M  V30 6281 C 585.233 -3.24582 -5.48567 0
M  V30 6282 C 582.92 -2.5602 -5.54885 0
M  V30 6283 C 583.918 -3.47215 -5.88159 0
M  V30 6284 O 583.606 -4.59399 -6.59703 0
M  V30 6285 H 583.338 -0.0737313 -0.671967 0
M  V30 6286 H 585.892 -0.856789 -1.86677 0
M  V30 6287 H 584.122 0.842809 -3.77404 0
M  V30 6288 H 585.811 0.508924 -4.02697 0
M  V30 6289 H 586.577 -1.93898 -4.44554 0
M  V30 6290 H 582.456 -0.717556 -4.55381 0
M  V30 6291 H 586 -3.95785 -5.74456 0
M  V30 6292 H 581.897 -2.72774 -5.85034 0
M  V30 6293 H 582.665 -4.58293 -6.78166 0
M  V30 6294 N 585.328 1.53329 -0.364422 0
M  V30 6295 C 586.238 2.29414 0.490552 0
M  V30 6296 C 587.254 1.35335 1.09363 0
M  V30 6297 O 588.43 1.68391 1.10483 0
M  V30 6298 C 585.495 3.06772 1.61529 0
M  V30 6299 C 584.556 4.16516 1.03986 0
M  V30 6300 C 583.789 4.90176 2.111 0
M  V30 6301 O 584.012 4.63687 3.32191 0
M  V30 6302 O 582.946 5.76134 1.74222 0
M  V30 6303 H 586.772 3.03428 -0.12856 0
M  V30 6304 H 584.357 1.48843 -0.128837 0
M  V30 6305 H 586.239 3.55082 2.26924 0
M  V30 6306 H 584.914 2.35596 2.21983 0
M  V30 6307 H 583.821 3.7246 0.349856 0
M  V30 6308 H 585.154 4.89855 0.4799 0
M  V30 6309 N 586.806 0.0935595 1.57322 0
M  V30 6310 C 587.754 -0.883457 2.15169 0
M  V30 6311 C 588.748 -1.29324 1.09415 0
M  V30 6312 O 589.954 -1.26795 1.27762 0
M  V30 6313 H 586.329 -0.302923 0.688289 0
M  V30 6314 H 588.3 -0.370845 2.96087 0
M  V30 6315 C 587.049 -2.13345 2.74552 0
M  V30 6316 H 586.372 -1.82702 3.55612 0
M  V30 6317 H 587.812 -2.7977 3.18598 0
M  V30 6318 C 586.271 -2.90646 1.70371 0
M  V30 6319 O 586.801 -3.85133 1.14173 0
M  V30 6320 N 585.007 -2.54157 1.40899 0
M  V30 6321 H 584.554 -1.77391 1.86789 0
M  V30 6322 H 584.512 -3.06178 0.714301 0
M  V30 6323 N 588.284 -1.56567 -0.180126 0
M  V30 6324 C 589.509 -1.85975 -0.918041 0
M  V30 6325 C 589.934 -0.678888 -1.75422 0
M  V30 6326 O 589.292 0.372168 -1.77439 0
M  V30 6327 C 589.34 -3.13731 -1.77779 0
M  V30 6328 O 588.444 -2.95335 -2.87838 0
M  V30 6329 H 587.785 -0.61196 -0.257683 0
M  V30 6330 H 590.315 -2.03798 -0.180923 0
M  V30 6331 H 590.325 -3.4491 -2.17948 0
M  V30 6332 H 589 -3.99293 -1.16352 0
M  V30 6333 H 587.577 -2.7549 -2.51316 0
M  V30 6334 N 589.762 0.448376 -1.51087 0
M  V30 6335 C 591.039 1.20926 -1.53741 0
M  V30 6336 C 591.419 2.09025 -0.295222 0
M  V30 6337 O 590.767 2.16851 0.720283 0
M  V30 6338 C 590.977 2.02067 -2.84552 0
M  V30 6339 C 592.325 2.59486 -3.36084 0
M  V30 6340 O 593.349 2.12289 -2.86028 0
M  V30 6341 O 592.208 3.45539 -4.23397 0
M  V30 6342 H 589.302 0.549951 -0.617643 0
M  V30 6343 H 591.848 0.458344 -1.63393 0
M  V30 6344 H 590.62 1.37291 -3.66425 0
M  V30 6345 H 590.243 2.84246 -2.78011 0
M  V30 6346 N 591.24 1.41047 0.703093 0
M  V30 6347 C 592.488 1.39723 1.4602 0
M  V30 6348 C 592.809 0.00461257 1.94999 0
M  V30 6349 O 592.079 -0.952292 1.71196 0
M  V30 6350 H 590.659 0.514281 0.541779 0
M  V30 6351 H 593.321 1.76217 0.832678 0
M  V30 6352 H 592.417 2.07982 2.32701 0
M  V30 6353 N 592.718 -0.936591 1.26751 0
M  V30 6354 C 593.666 -2.0573 1.08527 0
M  V30 6355 C 594.66 -1.69397 0.0108784 0
M  V30 6356 O 595.866 -1.79215 0.167915 0
M  V30 6357 H 592.241 -0.673691 0.334133 0
M  V30 6358 H 594.212 -2.1825 2.03493 0
M  V30 6359 C 592.961 -3.39738 0.739845 0
M  V30 6360 H 592.284 -3.68174 1.55845 0
M  V30 6361 H 593.724 -4.18955 0.652149 0
M  V30 6362 C 592.183 -3.32292 -0.555288 0
M  V30 6363 O 592.713 -3.68794 -1.59229 0
M  V30 6364 N 590.919 -2.85394 -0.54762 0
M  V30 6365 H 590.466 -2.55886 0.296667 0
M  V30 6366 H 590.424 -2.80795 -1.41427 0
M  V30 6367 N 594.196 -1.08629 -1.14182 0
M  V30 6368 C 595.443 -0.817345 -1.85272 0
M  V30 6369 C 595.771 0.656917 -1.83071 0
M  V30 6370 O 595.026 1.49897 -1.25815 0
M  V30 6371 C 595.325 -1.28734 -3.3341 0
M  V30 6372 C 594.991 -2.76981 -3.55798 0
M  V30 6373 C 593.653 -3.17469 -3.61617 0
M  V30 6374 C 596.005 -3.72605 -3.64438 0
M  V30 6375 C 593.333 -4.52371 -3.736 0
M  V30 6376 C 595.685 -5.07286 -3.77947 0
M  V30 6377 C 594.349 -5.47376 -3.82016 0
M  V30 6378 H 593.619 -0.299088 -0.677958 0
M  V30 6379 H 596.266 -1.35962 -1.34857 0
M  V30 6380 H 594.571 -0.664702 -3.8612 0
M  V30 6381 H 596.268 -1.05598 -3.86846 0
M  V30 6382 H 592.858 -2.44644 -3.51919 0
M  V30 6383 H 597.042 -3.42443 -3.5923 0
M  V30 6384 H 592.298 -4.82882 -3.75013 0
M  V30 6385 H 596.472 -5.81243 -3.83575 0
M  V30 6386 H 594.099 -6.51906 -3.91054 0
M  V30 6387 N 595.674 1.31259 -0.872281 0
M  V30 6388 C 596.92 1.96913 -0.485083 0
M  V30 6389 C 597.253 1.68774 0.960667 0
M  V30 6390 O 596.528 0.985495 1.67685 0
M  V30 6391 C 596.811 3.52299 -0.745502 0
M  V30 6392 C 596.664 3.90002 -2.24095 0
M  V30 6393 C 597.983 4.39582 -0.213516 0
M  V30 6394 H 595.102 0.715252 -0.177716 0
M  V30 6395 H 597.744 1.55347 -1.09395 0
M  V30 6396 H 595.894 3.87835 -0.227276 0
M  V30 6397 H 597.566 3.64555 -2.82661 0
M  V30 6398 H 595.809 3.38526 -2.71261 0
M  V30 6399 H 596.48 4.98352 -2.37381 0
M  V30 6400 H 598.956 4.10882 -0.656902 0
M  V30 6401 H 597.832 5.47251 -0.42516 0
M  V30 6402 H 598.093 4.33158 0.884666 0
M  V30 6403 N 597.152 0.631951 1.44375 0
M  V30 6404 C 598.399 0.136767 2.02038 0
M  V30 6405 C 598.727 -1.24168 1.49709 0
M  V30 6406 O 597.982 -1.83809 0.671763 0
M  V30 6407 C 598.281 0.0735861 3.57324 0
M  V30 6408 C 597.947 1.39092 4.28911 0
M  V30 6409 C 596.609 1.75171 4.48184 0
M  V30 6410 C 598.961 2.26042 4.69632 0
M  V30 6411 C 596.289 2.97907 5.05439 0
M  V30 6412 C 598.641 3.4805 5.28246 0
M  V30 6413 C 597.305 3.84351 5.45738 0
M  V30 6414 H 596.575 0.0500466 0.739308 0
M  V30 6415 H 599.222 0.818429 1.7313 0
M  V30 6416 H 597.527 -0.691449 3.8565 0
M  V30 6417 H 599.224 -0.326091 3.99672 0
M  V30 6418 H 595.814 1.10015 4.1424 0
M  V30 6419 H 599.998 1.99463 4.54454 0
M  V30 6420 H 595.254 3.26108 5.17169 0
M  V30 6421 H 599.428 4.15658 5.5875 0
M  V30 6422 H 597.055 4.79538 5.8987 0
M  V30 6423 N 598.631 -1.53133 0.372548 0
M  V30 6424 C 599.878 -2.01356 -0.214959 0
M  V30 6425 C 600.206 -1.2596 -1.48204 0
M  V30 6426 O 599.461 -0.343511 -1.92662 0
M  V30 6427 C 599.76 -3.53206 -0.545938 0
M  V30 6428 C 599.426 -4.46511 0.627624 0
M  V30 6429 C 598.088 -4.71737 0.949615 0
M  V30 6430 C 600.44 -5.01666 1.41353 0
M  V30 6431 C 597.768 -5.4937 2.05936 0
M  V30 6432 C 600.12 -5.80511 2.51375 0
M  V30 6433 C 598.784 -6.04022 2.84101 0
M  V30 6434 H 598.054 -0.736813 -0.078659 0
M  V30 6435 H 600.701 -1.84682 0.506447 0
M  V30 6436 H 599.006 -3.67864 -1.34845 0
M  V30 6437 H 600.703 -3.87997 -1.01287 0
M  V30 6438 H 597.293 -4.27029 0.366635 0
M  V30 6439 H 601.477 -4.82117 1.17802 0
M  V30 6440 H 596.733 -5.65803 2.31682 0
M  V30 6441 H 600.907 -6.22255 3.12684 0
M  V30 6442 H 598.534 -6.63962 3.70214 0
M  V30 6443 N 600.109 -0.101901 -1.5727 0
M  V30 6444 C 601.056 0.854577 -2.14396 0
M  V30 6445 C 602.026 1.27521 -1.06432 0
M  V30 6446 O 603.211 1.35575 -1.34253 0
M  V30 6447 C 600.351 2.10576 -2.73408 0
M  V30 6448 C 599.464 1.73504 -3.95626 0
M  V30 6449 C 598.599 2.9346 -4.42781 0
M  V30 6450 C 597.638 2.52547 -5.57572 0
M  V30 6451 N 596.775 3.65359 -5.99547 0
M  V30 6452 H 601.615 0.360578 -2.9581 0
M  V30 6453 H 599.152 0.166303 -1.46157 0
M  V30 6454 H 601.11 2.83859 -3.05745 0
M  V30 6455 H 599.74 2.57463 -1.94711 0
M  V30 6456 H 598.792 0.901622 -3.6956 0
M  V30 6457 H 600.104 1.39426 -4.78917 0
M  V30 6458 H 599.258 3.74988 -4.76937 0
M  V30 6459 H 597.997 3.30753 -3.58404 0
M  V30 6460 H 597.002 1.69446 -5.23037 0
M  V30 6461 H 598.227 2.1639 -6.43702 0
M  V30 6462 H 596.173 4.02358 -5.18116 0
M  V30 6463 H 596.09 3.35148 -6.77652 0
M  V30 6464 H 597.358 4.47378 -6.38336 0
M  V30 6465 N 601.587 1.56661 0.17182 0
M  V30 6466 C 602.835 1.81606 0.886774 0
M  V30 6467 C 603.156 0.678818 1.82803 0
M  V30 6468 O 602.426 -0.301354 1.93568 0
M  V30 6469 H 601.006 0.669934 0.330451 0
M  V30 6470 H 603.668 1.94142 0.171757 0
M  V30 6471 H 602.764 2.75634 1.46398 0
M  V30 6472 N 603.065 -0.440357 1.51323 0
M  V30 6473 C 604.013 -1.55492 1.72988 0
M  V30 6474 C 605.007 -1.58564 0.596138 0
M  V30 6475 O 606.213 -1.62345 0.777443 0
M  V30 6476 H 602.588 -0.516532 0.546533 0
M  V30 6477 H 604.559 -1.34392 2.66423 0
M  V30 6478 C 603.308 -2.93176 1.86931 0
M  V30 6479 H 602.631 -2.91543 2.73574 0
M  V30 6480 H 604.071 -3.70537 2.06103 0
M  V30 6481 C 602.53 -3.30988 0.628365 0
M  V30 6482 O 603.06 -4.01106 -0.218367 0
M  V30 6483 N 601.266 -2.86719 0.473339 0
M  V30 6484 H 600.813 -2.2983 1.16345 0
M  V30 6485 H 600.771 -3.12381 -0.355727 0
M  V30 6486 N 604.543 -1.41418 -0.695603 0
M  V30 6487 C 605.49 -1.43264 -1.80954 0
M  V30 6488 C 606.46 -0.287016 -1.63601 0
M  V30 6489 O 607.645 -0.488054 -1.84452 0
M  V30 6490 C 604.785 -1.32054 -3.18835 0
M  V30 6491 C 603.898 -2.56485 -3.4762 0
M  V30 6492 C 603.033 -2.3757 -4.75115 0
M  V30 6493 C 602.072 -3.57477 -4.96867 0
M  V30 6494 N 601.209 -3.37632 -6.15588 0
M  V30 6495 H 606.049 -2.38467 -1.78711 0
M  V30 6496 H 603.586 -1.18415 -0.872715 0
M  V30 6497 H 605.544 -1.23558 -3.98484 0
M  V30 6498 H 604.174 -0.404592 -3.20254 0
M  V30 6499 H 603.226 -2.75432 -2.62376 0
M  V30 6500 H 604.538 -3.45678 -3.59594 0
M  V30 6501 H 603.692 -2.2654 -5.62818 0
M  V30 6502 H 602.431 -1.45834 -4.65386 0
M  V30 6503 H 601.436 -3.68961 -4.07612 0
M  V30 6504 H 602.661 -4.50167 -5.08455 0
M  V30 6505 H 600.607 -2.48596 -6.07072 0
M  V30 6506 H 600.524 -4.20401 -6.2833 0
M  V30 6507 H 601.792 -3.30375 -7.06026 0
M  V30 6508 N 606.021 0.929856 -1.27246 0
M  V30 6509 C 607.251 1.70895 -1.16096 0
M  V30 6510 C 607.659 1.87039 0.285122 0
M  V30 6511 O 607.002 1.38557 1.20614 0
M  V30 6512 C 607.064 3.12919 -1.7698 0
M  V30 6513 C 606.728 3.2012 -3.26148 0
M  V30 6514 C 607.725 3.02533 -4.22812 0
M  V30 6515 C 605.41 3.43148 -3.66817 0
M  V30 6516 C 607.404 3.07861 -5.58122 0
M  V30 6517 C 605.091 3.48109 -5.02258 0
M  V30 6518 C 606.089 3.30483 -5.97721 0
M  V30 6519 O 605.777 3.35175 -7.30694 0
M  V30 6520 H 605.509 0.54152 -0.404639 0
M  V30 6521 H 608.063 1.17342 -1.68582 0
M  V30 6522 H 606.293 3.67945 -1.18969 0
M  V30 6523 H 607.982 3.72787 -1.60576 0
M  V30 6524 H 608.748 2.84586 -3.92728 0
M  V30 6525 H 604.627 3.55918 -2.9299 0
M  V30 6526 H 608.171 2.94021 -6.32612 0
M  V30 6527 H 604.068 3.65579 -5.31998 0
M  V30 6528 H 604.836 3.51644 -7.39114 0
M  V30 6529 N 607.499 1.09233 1.13605 0
M  V30 6530 C 608.745 0.838255 1.85324 0
M  V30 6531 C 609.1 -0.629314 1.81817 0
M  V30 6532 O 608.393 -1.45729 1.24393 0
M  V30 6533 C 608.587 1.305 3.32723 0
M  V30 6534 C 608.416 2.81641 3.50583 0
M  V30 6535 C 607.186 3.49494 3.64941 0
M  V30 6536 C 609.384 3.79789 3.46792 0
M  V30 6537 N 607.366 4.89082 3.71042 0
M  V30 6538 C 608.737 5.05319 3.59239 0
M  V30 6539 C 610.792 3.72673 3.30181 0
M  V30 6540 C 609.495 6.24574 3.56791 0
M  V30 6541 C 611.521 4.91413 3.29039 0
M  V30 6542 C 610.883 6.15785 3.42035 0
M  V30 6543 H 606.982 0.359572 0.69443 0
M  V30 6544 H 609.566 1.39232 1.36098 0
M  V30 6545 H 607.737 0.778411 3.8052 0
M  V30 6546 H 609.469 0.996465 3.92241 0
M  V30 6547 H 606.224 2.9992 3.66531 0
M  V30 6548 H 606.648 5.61787 3.77789 0
M  V30 6549 H 611.29 2.77444 3.19037 0
M  V30 6550 H 609.008 7.20105 3.66708 0
M  V30 6551 H 612.594 4.87604 3.17386 0
M  V30 6552 H 611.474 7.06126 3.41111 0
M  V30 6553 N 608.977 -1.30795 0.87923 0
M  V30 6554 C 610.223 -1.96653 0.495519 0
M  V30 6555 C 610.556 -1.69282 -0.951703 0
M  V30 6556 O 609.831 -0.994374 -1.6716 0
M  V30 6557 C 610.114 -3.51898 0.764174 0
M  V30 6558 C 609.967 -3.88808 2.2616 0
M  V30 6559 C 611.286 -4.39462 0.236825 0
M  V30 6560 H 608.405 -0.7143 0.181507 0
M  V30 6561 H 611.047 -1.54765 1.10217 0
M  V30 6562 H 609.197 -3.87709 0.247841 0
M  V30 6563 H 610.869 -3.63051 2.8459 0
M  V30 6564 H 609.112 -3.37082 2.73053 0
M  V30 6565 H 609.783 -4.97086 2.4002 0
M  V30 6566 H 612.259 -4.10528 0.678683 0
M  V30 6567 H 611.135 -5.47018 0.454176 0
M  V30 6568 H 611.396 -4.33621 -0.861683 0
M  V30 6569 N 610.455 -0.639598 -1.44038 0
M  V30 6570 C 611.702 -0.14748 -2.01962 0
M  V30 6571 C 612.03 1.23372 -1.50365 0
M  V30 6572 O 611.285 1.8345 -0.681501 0
M  V30 6573 C 611.584 -0.0925348 -3.5728 0
M  V30 6574 C 611.25 -1.41365 -4.28167 0
M  V30 6575 C 609.912 -1.77545 -4.47248 0
M  V30 6576 C 612.264 -2.2853 -4.68427 0
M  V30 6577 C 609.592 -3.00583 -5.03852 0
M  V30 6578 C 611.944 -3.50846 -5.26393 0
M  V30 6579 C 610.608 -3.8724 -5.43692 0
M  V30 6580 H 609.878 -0.0539666 -0.739032 0
M  V30 6581 H 612.525 -0.827599 -1.72694 0
M  V30 6582 H 610.83 0.670987 -3.86012 0
M  V30 6583 H 612.527 0.304891 -3.99839 0
M  V30 6584 H 609.117 -1.1221 -4.13651 0
M  V30 6585 H 613.301 -2.0187 -4.5339 0
M  V30 6586 H 608.557 -3.28846 -5.15432 0
M  V30 6587 H 612.731 -4.18616 -5.56537 0
M  V30 6588 H 610.358 -4.8266 -5.87319 0
M  V30 6589 N 611.933 1.52934 -0.380664 0
M  V30 6590 C 612.88 2.26197 0.458641 0
M  V30 6591 C 613.85 1.27462 1.06502 0
M  V30 6592 O 615.035 1.56274 1.09467 0
M  V30 6593 C 612.175 3.06571 1.58456 0
M  V30 6594 C 611.288 4.20222 1.00189 0
M  V30 6595 C 610.423 4.88007 2.09815 0
M  V30 6596 C 609.462 5.93665 1.49092 0
M  V30 6597 N 608.599 6.55081 2.52613 0
M  V30 6598 H 613.439 2.975 -0.172595 0
M  V30 6599 H 610.976 1.4678 -0.0969426 0
M  V30 6600 H 612.934 3.51455 2.24801 0
M  V30 6601 H 611.564 2.37494 2.18624 0
M  V30 6602 H 610.616 3.79714 0.228292 0
M  V30 6603 H 611.928 4.96102 0.518064 0
M  V30 6604 H 611.082 5.36151 2.83948 0
M  V30 6605 H 609.821 4.11632 2.61555 0
M  V30 6606 H 608.826 5.44868 0.7348 0
M  V30 6607 H 610.051 6.71969 0.981582 0
M  V30 6608 H 607.997 5.8155 3.03538 0
M  V30 6609 H 607.914 7.26548 2.08961 0
M  V30 6610 H 609.182 7.07871 3.26402 0
M  V30 6611 N 613.412 0.11024 1.57214 0
M  V30 6612 C 614.689 -0.592956 1.86396 0
M  V30 6613 C 615.069 -1.85379 1.00985 0
M  V30 6614 O 614.417 -2.28337 0.0863592 0
M  V30 6615 C 614.627 -0.893816 3.3736 0
M  V30 6616 C 615.975 -1.25069 4.05762 0
M  V30 6617 O 616.999 -0.984356 3.42329 0
M  V30 6618 O 615.858 -1.75017 5.17718 0
M  V30 6619 H 612.952 -0.29828 0.771335 0
M  V30 6620 H 615.498 0.144083 1.69087 0
M  V30 6621 H 614.27 2.6031e-05 3.913 0
M  V30 6622 H 613.893 -1.68631 3.60068 0
M  V30 6623 N 614.89 -1.56749 -0.16351 0
M  V30 6624 C 616.118 -1.86577 -0.894233 0
M  V30 6625 C 616.533 -0.696543 -1.75481 0
M  V30 6626 O 615.89 0.334161 -1.79415 0
M  V30 6627 C 615.941 -3.15508 -1.76456 0
M  V30 6628 O 615.662 -4.27926 -0.938685 0
M  V30 6629 C 617.163 -3.58737 -2.60428 0
M  V30 6630 H 614.383 -0.618829 -0.259405 0
M  V30 6631 H 616.927 -2.03863 -0.161259 0
M  V30 6632 H 615.082 -3.00025 -2.45079 0
M  V30 6633 H 615.496 -5.01546 -1.53465 0
M  V30 6634 H 616.97 -4.51832 -3.17099 0
M  V30 6635 H 617.447 -2.83229 -3.35675 0
M  V30 6636 H 618.053 -3.76858 -1.97125 0
M  V30 6637 N 616.368 0.432326 -1.51554 0
M  V30 6638 C 617.596 1.20364 -1.68286 0
M  V30 6639 C 618.011 1.84888 -0.38233 0
M  V30 6640 O 617.368 1.70924 0.639627 0
M  V30 6641 C 617.419 2.28398 -2.80208 0
M  V30 6642 O 617.14 1.66512 -4.05223 0
M  V30 6643 C 618.641 3.18584 -3.08251 0
M  V30 6644 H 615.861 0.36259 -0.564596 0
M  V30 6645 H 618.405 0.511647 -1.97996 0
M  V30 6646 H 616.56 2.93305 -2.53083 0
M  V30 6647 H 616.974 2.37951 -4.67418 0
M  V30 6648 H 618.448 3.90511 -3.90135 0
M  V30 6649 H 618.925 3.79628 -2.2086 0
M  V30 6650 H 619.531 2.59372 -3.37055 0
M  V30 6651 N 617.846 1.41785 0.688094 0
M  V30 6652 C 618.776 1.47 1.8142 0
M  V30 6653 C 619.757 0.327881 1.6691 0
M  V30 6654 O 620.942 0.540362 1.86531 0
M  V30 6655 C 618.072 1.35876 3.19617 0
M  V30 6656 C 617.026 2.47976 3.48844 0
M  V30 6657 C 616.352 2.21915 4.86475 0
M  V30 6658 C 617.652 3.90309 3.47068 0
M  V30 6659 H 619.346 2.41247 1.77314 0
M  V30 6660 H 616.892 1.16116 0.851651 0
M  V30 6661 H 618.845 1.38134 3.98117 0
M  V30 6662 H 617.569 0.38116 3.24368 0
M  V30 6663 H 616.228 2.45013 2.72698 0
M  V30 6664 H 615.876 1.2248 4.8786 0
M  V30 6665 H 615.576 2.97037 5.06994 0
M  V30 6666 H 617.1 2.25901 5.67275 0
M  V30 6667 H 618.514 3.94947 4.1556 0
M  V30 6668 H 616.911 4.65175 3.7912 0
M  V30 6669 H 617.981 4.17927 2.45896 0
M  V30 6670 N 619.324 -0.923095 1.27737 0
M  V30 6671 C 620.256 -2.02871 1.06658 0
M  V30 6672 C 621.269 -1.62786 0.0212095 0
M  V30 6673 O 622.458 -1.76548 0.263267 0
M  V30 6674 C 619.558 -3.33603 0.59682 0
M  V30 6675 C 618.731 -4.02354 1.71551 0
M  V30 6676 C 617.79 -5.11364 1.24071 0
M  V30 6677 O 616.816 -5.35075 1.94123 0
M  V30 6678 N 618.018 -5.80416 0.0988444 0
M  V30 6679 H 620.783 -2.21515 2.01869 0
M  V30 6680 H 618.344 -1.09378 1.19365 0
M  V30 6681 H 620.336 -4.03845 0.262984 0
M  V30 6682 H 618.906 -3.11499 -0.262187 0
M  V30 6683 H 618.126 -3.25786 2.2194 0
M  V30 6684 H 619.414 -4.45035 2.46619 0
M  V30 6685 H 618.812 -5.63611 -0.485743 0
M  V30 6686 H 617.369 -6.51563 -0.17578 0
M  V30 6687 N 620.802 -1.09834 -1.13024 0
M  V30 6688 C 622.213 -0.855651 -1.65938 0
M  V30 6689 C 622.564 0.615159 -1.86307 0
M  V30 6690 O 621.689 1.47335 -1.58497 0
M  V30 6691 C 622.284 -1.5467 -3.01434 0
M  V30 6692 C 620.843 -1.35088 -3.51323 0
M  V30 6693 C 619.99 -1.6001 -2.26478 0
M  V30 6694 H 622.941 -1.25691 -0.968889 0
M  V30 6695 H 622.962 -0.982179 -3.67605 0
M  V30 6696 H 622.474 -2.61715 -2.86578 0
M  V30 6697 H 620.575 -0.30179 -3.71376 0
M  V30 6698 H 620.688 -2.0886 -4.31178 0
M  V30 6699 H 619.052 -1.02246 -2.33276 0
M  V30 6700 H 619.835 -2.68293 -2.14182 0
M  V30 6701 N 622.28 1.30327 -0.886154 0
M  V30 6702 C 623.528 1.9571 -0.504195 0
M  V30 6703 C 623.849 1.70294 0.950003 0
M  V30 6704 O 623.119 1.02718 1.66811 0
M  V30 6705 H 621.699 0.72412 -0.183465 0
M  V30 6706 H 624.361 1.58835 -1.12949 0
M  V30 6707 H 623.457 3.04704 -0.675431 0
M  V30 6708 N 623.758 0.647228 1.43697 0
M  V30 6709 C 624.988 0.16551 2.05936 0
M  V30 6710 C 625.396 -1.17164 1.48557 0
M  V30 6711 O 624.739 -1.73307 0.60914 0
M  V30 6712 C 624.801 -0.00648082 3.59499 0
M  V30 6713 C 624.465 1.25503 4.39429 0
M  V30 6714 C 625.462 2.18241 4.71876 0
M  V30 6715 C 623.147 1.49494 4.79538 0
M  V30 6716 C 625.141 3.33268 5.43333 0
M  V30 6717 C 622.828 2.64815 5.50742 0
M  V30 6718 C 623.826 3.56528 5.82561 0
M  V30 6719 O 623.514 4.69836 6.52311 0
M  V30 6720 H 623.246 0.0844124 0.670709 0
M  V30 6721 H 625.8 0.88638 1.8529 0
M  V30 6722 H 624.03 -0.782661 3.78697 0
M  V30 6723 H 625.719 -0.444794 4.03456 0
M  V30 6724 H 626.485 2.00946 4.41413 0
M  V30 6725 H 622.364 0.789912 4.54182 0
M  V30 6726 H 625.908 4.04874 5.68087 0
M  V30 6727 H 621.805 2.82047 5.8062 0
M  V30 6728 H 622.573 4.69024 6.70789 0
M  V30 6729 N 625.236 -1.5273 0.388769 0
M  V30 6730 C 626.647 -1.86505 -0.0853788 0
M  V30 6731 C 626.998 -1.30847 -1.46197 0
M  V30 6732 O 626.123 -0.639609 -2.06732 0
M  V30 6733 C 626.718 -3.38414 -0.161703 0
M  V30 6734 C 625.277 -3.71902 -0.580144 0
M  V30 6735 C 624.424 -2.76095 0.258218 0
M  V30 6736 H 627.375 -1.46647 0.606665 0
M  V30 6737 H 627.396 -3.67638 -0.980936 0
M  V30 6738 H 626.908 -3.78893 0.840333 0
M  V30 6739 H 625.009 -3.36992 -1.58957 0
M  V30 6740 H 625.122 -4.77902 -0.338663 0
M  V30 6741 H 623.486 -2.53195 -0.276432 0
M  V30 6742 H 624.269 -3.19411 1.25822 0
M  V30 6743 N 626.714 -0.118576 -1.57153 0
M  V30 6744 C 627.664 0.842924 -2.11846 0
M  V30 6745 C 628.648 1.22845 -1.03914 0
M  V30 6746 O 629.84 1.19961 -1.30148 0
M  V30 6747 C 626.969 2.09312 -2.72109 0
M  V30 6748 C 626.055 1.73198 -3.87122 0
M  V30 6749 N 626.446 1.07758 -4.94188 0
M  V30 6750 C 624.744 2.02659 -3.97298 0
M  V30 6751 C 625.445 0.907741 -5.74574 0
M  V30 6752 N 624.421 1.4326 -5.24383 0
M  V30 6753 H 628.223 0.333416 -2.92003 0
M  V30 6754 H 625.737 0.0839073 -1.62183 0
M  V30 6755 H 627.734 2.79162 -3.09635 0
M  V30 6756 H 626.394 2.60807 -1.93416 0
M  V30 6757 H 627.405 0.741613 -5.12563 0
M  V30 6758 H 624.082 2.56204 -3.29645 0
M  V30 6759 H 625.472 0.394112 -6.70743 0
M  V30 6760 N 628.193 1.56834 0.155195 0
M  V30 6761 C 629.47 1.73799 0.897395 0
M  V30 6762 C 629.85 0.684379 1.99698 0
M  V30 6763 O 629.198 -0.298111 2.26547 0
M  V30 6764 C 629.408 3.17572 1.44737 0
M  V30 6765 C 630.756 3.79014 1.91399 0
M  V30 6766 O 631.78 3.20951 1.54496 0
M  V30 6767 O 630.639 4.80998 2.59429 0
M  V30 6768 H 627.733 0.710329 0.423511 0
M  V30 6769 H 630.279 1.69107 0.141761 0
M  V30 6770 H 629.051 3.85749 0.656741 0
M  V30 6771 H 628.674 3.26657 2.26674 0
M  V30 6772 N 629.671 -0.424282 1.51781 0
M  V30 6773 C 630.601 -1.52305 1.7699 0
M  V30 6774 C 631.582 -1.5839 0.620209 0
M  V30 6775 O 632.767 -1.73908 0.864268 0
M  V30 6776 C 629.897 -2.90271 1.90683 0
M  V30 6777 C 628.851 -2.99043 3.06198 0
M  V30 6778 C 628.177 -4.39116 3.05092 0
M  V30 6779 C 629.477 -2.7192 4.45934 0
M  V30 6780 H 631.171 -1.31461 2.68995 0
M  V30 6781 H 628.717 -0.630985 1.29439 0
M  V30 6782 H 630.67 -3.6711 2.06901 0
M  V30 6783 H 629.394 -3.12376 0.953365 0
M  V30 6784 H 628.053 -2.24646 2.89706 0
M  V30 6785 H 627.701 -4.58207 2.07498 0
M  V30 6786 H 627.401 -4.45912 3.82669 0
M  V30 6787 H 628.925 -5.17911 3.2342 0
M  V30 6788 H 630.339 -3.38487 4.62709 0
M  V30 6789 H 628.736 -2.90111 5.25315 0
M  V30 6790 H 629.806 -1.67445 4.55072 0
M  V30 6791 N 631.149 -1.42148 -0.680565 0
M  V30 6792 C 632.398 -1.41604 -1.43636 0
M  V30 6793 C 632.711 -0.0337887 -1.95571 0
M  V30 6794 O 633.917 0.0942588 -2.71336 0
M  V30 6795 C 632.373 -2.49056 -2.59806 0
M  V30 6796 C 631.981 -3.9326 -2.14594 0
M  V30 6797 C 633.725 -2.5767 -3.37352 0
M  V30 6798 C 631.632 -4.92232 -3.27813 0
M  V30 6799 H 630.562 -0.526656 -0.539583 0
M  V30 6800 H 633.213 -1.68033 -0.737369 0
M  V30 6801 H 631.595 -2.15782 -3.32045 0
M  V30 6802 H 632.769 -4.35858 -1.49546 0
M  V30 6803 H 631.084 -3.88443 -1.50002 0
M  V30 6804 H 633.681 -3.28794 -4.21662 0
M  V30 6805 H 634.024 -1.61837 -3.83555 0
M  V30 6806 H 634.557 -2.90109 -2.72179 0
M  V30 6807 H 631.296 -5.89522 -2.86607 0
M  V30 6808 H 630.816 -4.5427 -3.91661 0
M  V30 6809 H 632.495 -5.13684 -3.93367 0
M  V30 6810 N 632.627 0.916307 -1.28225 0
M  V30 6811 C 633.855 1.69901 -1.18073 0
M  V30 6812 C 634.27 1.86988 0.260968 0
M  V30 6813 O 633.627 1.39505 1.17663 0
M  V30 6814 C 633.678 3.09254 -1.87201 0
M  V30 6815 O 633.399 2.92959 -3.2574 0
M  V30 6816 C 634.9 4.0362 -1.83319 0
M  V30 6817 H 632.12 0.531181 -0.409985 0
M  V30 6818 H 634.664 1.14703 -1.69303 0
M  V30 6819 H 632.819 3.61277 -1.39848 0
M  V30 6820 H 633.233 3.81139 -3.60324 0
M  V30 6821 H 634.707 4.98873 -2.36282 0
M  V30 6822 H 635.184 4.3176 -0.805007 0
M  V30 6823 H 635.79 3.57524 -2.3034 0
M  V30 6824 N 634.105 1.10431 1.1244 0
M  V30 6825 C 635.035 0.775143 2.20258 0
M  V30 6826 C 636.016 -0.25186 1.68225 0
M  V30 6827 O 637.201 -0.117637 1.93843 0
M  V30 6828 C 634.331 0.206133 3.46688 0
M  V30 6829 C 633.285 1.16382 4.11873 0
M  V30 6830 C 632.611 0.456014 5.32752 0
M  V30 6831 C 633.911 2.5104 4.58013 0
M  V30 6832 H 635.605 1.67665 2.4805 0
M  V30 6833 H 633.151 0.807595 1.19222 0
M  V30 6834 H 635.104 -0.036291 4.21384 0
M  V30 6835 H 633.828 -0.730614 3.18323 0
M  V30 6836 H 632.487 1.39169 3.39157 0
M  V30 6837 H 632.135 -0.485203 5.00654 0
M  V30 6838 H 631.835 1.09466 5.77314 0
M  V30 6839 H 633.359 0.222135 6.10196 0
M  V30 6840 H 634.773 2.32401 5.24083 0
M  V30 6841 H 633.17 3.10789 5.13352 0
M  V30 6842 H 634.24 3.11039 3.71998 0
M  V30 6843 N 635.583 -1.29855 0.893053 0
M  V30 6844 C 636.831 -1.9544 0.514566 0
M  V30 6845 C 637.152 -1.70795 -0.940959 0
M  V30 6846 O 636.422 -1.03601 -1.66264 0
M  V30 6847 H 635.002 -0.723137 0.187302 0
M  V30 6848 H 637.664 -1.58234 1.13789 0
M  V30 6849 H 636.76 -3.04341 0.691581 0
M  V30 6850 N 637.061 -0.65484 -1.43351 0
M  V30 6851 C 638.286 -0.175046 -2.0666 0
M  V30 6852 C 638.711 1.15104 -1.4877 0
M  V30 6853 O 638.069 1.71144 -0.598279 0
M  V30 6854 C 638.117 -0.0991544 -3.60464 0
M  V30 6855 O 637.221 0.938169 -4.01587 0
M  V30 6856 H 636.562 -0.0956148 -0.65708 0
M  V30 6857 H 639.092 -0.898222 -1.83829 0
M  V30 6858 H 639.102 0.083632 -4.07914 0
M  V30 6859 H 637.777 -1.06719 -4.01975 0
M  V30 6860 H 636.354 0.72804 -3.65724 0
M  V30 6861 N 638.539 1.52521 -0.396863 0
M  V30 6862 C 639.787 2.01274 0.182536 0
M  V30 6863 C 640.108 1.28485 1.46685 0
M  V30 6864 O 639.378 0.407134 1.91623 0
M  V30 6865 H 637.958 0.743671 0.0704442 0
M  V30 6866 H 640.62 1.87547 -0.530289 0
M  V30 6867 H 639.716 3.09687 0.387385 0
M  V30 6868 N 640.017 0.126909 1.57088 0
M  V30 6869 C 641.266 -0.529024 1.94639 0
M  V30 6870 C 641.579 -1.67323 1.01304 0
M  V30 6871 O 642.785 -2.39245 1.28352 0
M  V30 6872 C 641.241 -0.992483 3.45945 0
M  V30 6873 C 640.849 0.123691 4.47829 0
M  V30 6874 C 642.593 -1.61934 3.924 0
M  V30 6875 C 640.5 -0.356911 5.90322 0
M  V30 6876 H 639.43 -0.201397 0.726605 0
M  V30 6877 H 642.081 0.208032 1.82317 0
M  V30 6878 H 640.463 -1.7842 3.53528 0
M  V30 6879 H 641.637 0.900168 4.51922 0
M  V30 6880 H 639.952 0.657699 4.11173 0
M  V30 6881 H 642.549 -1.9902 4.96281 0
M  V30 6882 H 642.892 -2.50075 3.32819 0
M  V30 6883 H 643.425 -0.892894 3.8765 0
M  V30 6884 H 640.164 0.488636 6.53676 0
M  V30 6885 H 639.684 -1.0997 5.89633 0
M  V30 6886 H 641.363 -0.815547 6.41839 0
M  V30 6887 N 641.495 -1.56914 -0.146875 0
M  V30 6888 C 642.906 -1.72799 -0.706928 0
M  V30 6889 C 643.257 -0.741329 -1.81656 0
M  V30 6890 O 642.382 0.0920162 -2.16204 0
M  V30 6891 C 642.977 -3.13317 -1.28911 0
M  V30 6892 C 641.536 -3.30803 -1.79573 0
M  V30 6893 C 640.683 -2.68725 -0.684252 0
M  V30 6894 H 643.634 -1.58504 0.0787931 0
M  V30 6895 H 643.655 -3.13323 -2.15891 0
M  V30 6896 H 643.167 -3.85104 -0.481284 0
M  V30 6897 H 641.268 -2.64012 -2.62923 0
M  V30 6898 H 641.381 -4.38754 -1.92436 0
M  V30 6899 H 639.745 -2.29196 -1.11091 0
M  V30 6900 H 640.528 -3.43117 0.112134 0
M  V30 6901 N 642.974 0.416227 -1.52004 0
M  V30 6902 C 644.385 0.995319 -1.57957 0
M  V30 6903 C 644.736 1.91744 -0.415754 0
M  V30 6904 O 643.861 2.11349 0.464808 0
M  V30 6905 C 644.456 1.81191 -2.86278 0
M  V30 6906 C 643.015 2.34115 -2.94732 0
M  V30 6907 C 642.162 1.139 -2.52828 0
M  V30 6908 H 645.113 0.196716 -1.57476 0
M  V30 6909 H 645.134 2.66859 -2.71231 0
M  V30 6910 H 644.646 1.14051 -3.70963 0
M  V30 6911 H 642.747 3.04647 -2.14525 0
M  V30 6912 H 642.86 2.65466 -3.98829 0
M  V30 6913 H 641.224 1.49081 -2.06511 0
M  V30 6914 H 642.007 0.483383 -3.3988 0
M  V30 6915 N 644.452 1.42507 0.673017 0
M  V30 6916 C 645.402 1.4258 1.77919 0
M  V30 6917 C 646.386 0.296885 1.58137 0
M  V30 6918 O 647.578 0.539243 1.68586 0
M  V30 6919 C 644.707 1.33238 3.1639 0
M  V30 6920 C 643.793 2.51081 3.41788 0
M  V30 6921 N 644.184 3.76498 3.37761 0
M  V30 6922 C 642.482 2.4538 3.72431 0
M  V30 6923 C 643.183 4.54784 3.62693 0
M  V30 6924 N 642.159 3.8522 3.83544 0
M  V30 6925 H 645.961 2.37442 1.73201 0
M  V30 6926 H 643.475 1.36881 0.873924 0
M  V30 6927 H 645.472 1.31372 3.9566 0
M  V30 6928 H 644.132 0.393794 3.22303 0
M  V30 6929 H 645.143 4.09068 3.17622 0
M  V30 6930 H 641.82 1.60109 3.85579 0
M  V30 6931 H 643.21 5.63774 3.65525 0
M  V30 6932 N 645.93 -0.909495 1.28709 0
M  V30 6933 C 647.178 -1.65577 1.15882 0
M  V30 6934 C 647.499 -1.928 -0.292108 0
M  V30 6935 O 646.769 -1.54716 -1.20166 0
M  V30 6936 H 645.349 -0.613714 0.425869 0
M  V30 6937 H 648.011 -1.09108 1.61498 0
M  V30 6938 H 647.107 -2.61634 1.70159 0
M  V30 6939 N 647.408 -1.11026 -1.11852 0
M  V30 6940 C 648.657 -0.851249 -1.82857 0
M  V30 6941 C 648.97 0.62514 -1.85341 0
M  V30 6942 O 650.176 1.00026 -2.52403 0
M  V30 6943 C 648.632 -1.47309 -3.28372 0
M  V30 6944 C 648.24 -2.9832 -3.34229 0
M  V30 6945 C 649.984 -1.29373 -4.04306 0
M  V30 6946 C 647.891 -3.53509 -4.74115 0
M  V30 6947 H 646.821 -0.314794 -0.685143 0
M  V30 6948 H 649.472 -1.33499 -1.25898 0
M  V30 6949 H 647.854 -0.917017 -3.85236 0
M  V30 6950 H 649.028 -3.60295 -2.87271 0
M  V30 6951 H 647.343 -3.15482 -2.71772 0
M  V30 6952 H 649.94 -1.68042 -5.07608 0
M  V30 6953 H 650.283 -0.235879 -4.15631 0
M  V30 6954 H 650.816 -1.8182 -3.53817 0
M  V30 6955 H 647.555 -4.58987 -4.67986 0
M  V30 6956 H 647.075 -2.96305 -5.21501 0
M  V30 6957 H 648.754 -3.51693 -5.43066 0
M  V30 6958 N 648.886 1.2938 -0.899927 0
M  V30 6959 C 650.163 1.9046 -0.445443 0
M  V30 6960 C 650.543 1.81683 1.07492 0
M  V30 6961 O 649.891 1.24371 1.91688 0
M  V30 6962 C 650.101 3.35529 -0.960279 0
M  V30 6963 C 651.449 4.12556 -1.00412 0
M  V30 6964 O 652.473 3.44434 -0.907965 0
M  V30 6965 O 651.332 5.34294 -1.14857 0
M  V30 6966 H 648.426 0.815253 -0.138893 0
M  V30 6967 H 650.972 1.37844 -0.989808 0
M  V30 6968 H 649.744 3.36074 -2.00425 0
M  V30 6969 H 649.367 3.95624 -0.395939 0
M  V30 6970 N 650.364 0.662433 1.43002 0
M  V30 6971 C 651.589 0.186003 2.06564 0
M  V30 6972 C 652.014 -1.14314 1.49379 0
M  V30 6973 O 651.372 -1.70824 0.607346 0
M  V30 6974 C 651.42 0.118269 3.60406 0
M  V30 6975 O 650.524 -0.916859 4.02079 0
M  V30 6976 H 649.865 0.0990981 0.656563 0
M  V30 6977 H 652.395 0.907958 1.8335 0
M  V30 6978 H 652.405 -0.0619981 4.07953 0
M  V30 6979 H 651.08 1.08849 4.01403 0
M  V30 6980 H 649.657 -0.708635 3.66105 0
M  V30 6981 N 651.842 -1.52309 0.404946 0
M  V30 6982 C 652.805 -2.25491 -0.410651 0
M  V30 6983 C 653.805 -1.27704 -0.977154 0
M  V30 6984 O 654.995 -1.51679 -0.856691 0
M  V30 6985 C 652.127 -3.02197 -1.57765 0
M  V30 6986 H 653.32 -2.99015 0.230277 0
M  V30 6987 H 650.873 -1.55506 0.157377 0
M  V30 6988 H 651.608 -2.33013 -2.25556 0
M  V30 6989 H 651.393 -3.73987 -1.17797 0
M  V30 6990 H 652.883 -3.57719 -2.15469 0
M  V30 6991 N 653.32 -0.135238 -1.57019 0
M  V30 6992 C 654.569 0.518694 -1.94917 0
M  V30 6993 C 654.882 1.66783 -1.0219 0
M  V30 6994 O 656.088 2.38561 -1.29619 0
M  V30 6995 C 654.544 0.974123 -3.46466 0
M  V30 6996 C 654.152 -0.147439 -4.47757 0
M  V30 6997 C 655.896 1.59851 -3.93253 0
M  V30 6998 C 653.803 0.325599 -5.90503 0
M  V30 6999 H 652.733 0.19754 -0.727663 0
M  V30 7000 H 655.384 -0.217698 -1.82204 0
M  V30 7001 H 653.766 1.76542 -3.5447 0
M  V30 7002 H 654.94 -0.924122 -4.51438 0
M  V30 7003 H 653.255 -0.679496 -4.10818 0
M  V30 7004 H 655.852 1.96385 -4.9733 0
M  V30 7005 H 656.195 2.48306 -3.3414 0
M  V30 7006 H 656.728 0.872323 -3.88118 0
M  V30 7007 H 653.467 -0.523295 -6.53408 0
M  V30 7008 H 652.987 1.06841 -5.90208 0
M  V30 7009 H 654.666 0.781498 -6.42263 0
M  V30 7010 N 654.798 1.5699 0.138552 0
M  V30 7011 C 656.044 1.84966 0.846116 0
M  V30 7012 C 656.399 0.72038 1.78405 0
M  V30 7013 O 655.692 -0.281076 1.89527 0
M  V30 7014 C 655.886 3.17007 1.65049 0
M  V30 7015 C 655.715 4.42672 0.79194 0
M  V30 7016 C 654.485 5.03254 0.454293 0
M  V30 7017 C 656.683 5.14164 0.118419 0
M  V30 7018 N 654.665 6.12482 -0.416964 0
M  V30 7019 C 656.036 6.16966 -0.61263 0
M  V30 7020 C 658.091 4.97884 0.0399671 0
M  V30 7021 C 656.794 7.0525 -1.41473 0
M  V30 7022 C 658.82 5.86639 -0.748901 0
M  V30 7023 C 658.182 6.88929 -1.4682 0
M  V30 7024 H 654.281 0.727362 0.287172 0
M  V30 7025 H 656.865 1.94383 0.110972 0
M  V30 7026 H 655.036 3.08722 2.35681 0
M  V30 7027 H 656.768 3.3286 2.30187 0
M  V30 7028 H 653.523 4.6693 0.792038 0
M  V30 7029 H 653.947 6.7172 -0.843865 0
M  V30 7030 H 658.589 4.18779 0.581728 0
M  V30 7031 H 656.307 7.83777 -1.96772 0
M  V30 7032 H 659.893 5.7611 -0.811705 0
M  V30 7033 H 658.773 7.56419 -2.06882 0
M  V30 7034 N 656.276 -0.40816 1.52223 0
M  V30 7035 C 657.522 -1.15347 1.67531 0
M  V30 7036 C 657.877 -1.8818 0.400748 0
M  V30 7037 O 657.17 -1.81803 -0.604845 0
M  V30 7038 C 657.364 -2.17422 2.83659 0
M  V30 7039 C 657.193 -1.54611 4.22286 0
M  V30 7040 C 655.963 -1.31841 4.87797 0
M  V30 7041 C 658.161 -1.00648 5.04355 0
M  V30 7042 N 656.143 -0.649338 6.10456 0
M  V30 7043 C 657.514 -0.464384 6.18258 0
M  V30 7044 C 659.569 -0.901041 4.89679 0
M  V30 7045 C 658.272 0.172825 7.19092 0
M  V30 7046 C 660.298 -0.277684 5.90748 0
M  V30 7047 C 659.66 0.253734 7.03943 0
M  V30 7048 H 655.759 -0.408722 0.666686 0
M  V30 7049 H 658.343 -0.445713 1.8953 0
M  V30 7050 H 656.514 -2.85554 2.63274 0
M  V30 7051 H 658.246 -2.84321 2.87999 0
M  V30 7052 H 655.001 -1.58819 4.46176 0
M  V30 7053 H 655.425 -0.3314 6.76188 0
M  V30 7054 H 660.067 -1.29772 4.02392 0
M  V30 7055 H 657.785 0.581564 8.06005 0
M  V30 7056 H 661.371 -0.197605 5.81464 0
M  V30 7057 H 660.251 0.728482 7.80809 0
M  V30 7058 N 657.755 -1.42862 -0.66545 0
M  V30 7059 C 658.665 -1.49491 -1.80803 0
M  V30 7060 C 659.681 -0.382914 -1.69734 0
M  V30 7061 O 660.857 -0.635223 -1.9112 0
M  V30 7062 C 657.922 -1.40383 -3.17007 0
M  V30 7063 C 656.983 -2.62152 -3.39963 0
M  V30 7064 C 656.216 -2.53469 -4.69669 0
M  V30 7065 O 656.439 -1.57568 -5.48205 0
M  V30 7066 O 655.373 -3.43763 -4.94075 0
M  V30 7067 H 659.199 -2.45949 -1.78165 0
M  V30 7068 H 656.784 -1.24728 -0.822387 0
M  V30 7069 H 658.666 -1.377 -3.98267 0
M  V30 7070 H 657.341 -0.470546 -3.20262 0
M  V30 7071 H 656.248 -2.70409 -2.58515 0
M  V30 7072 H 657.581 -3.54411 -3.41546 0
M  V30 7073 N 659.233 0.902656 -1.29189 0
M  V30 7074 C 660.51 1.63296 -1.07674 0
M  V30 7075 C 660.89 2.07649 0.380137 0
M  V30 7076 O 660.238 1.82997 1.36837 0
M  V30 7077 C 660.448 2.81603 -2.06158 0
M  V30 7078 C 661.796 3.52359 -2.36914 0
M  V30 7079 O 662.82 2.91767 -2.04329 0
M  V30 7080 O 661.679 4.61586 -2.92576 0
M  V30 7081 H 658.773 0.716889 -0.41231 0
M  V30 7082 H 661.319 0.950984 -1.4055 0
M  V30 7083 H 660.091 2.46004 -3.04299 0
M  V30 7084 H 659.714 3.57508 -1.73993 0
M  V30 7085 N 660.711 1.11618 1.11262 0
M  V30 7086 C 661.957 0.867463 1.83311 0
M  V30 7087 C 662.29 -0.605366 1.84524 0
M  V30 7088 O 661.565 -1.44704 1.29965 0
M  V30 7089 C 661.848 1.43207 3.30399 0
M  V30 7090 C 661.701 2.97265 3.3757 0
M  V30 7091 C 663.02 1.08454 4.26528 0
M  V30 7092 H 660.139 0.316578 0.665543 0
M  V30 7093 H 662.781 1.38137 1.30454 0
M  V30 7094 H 660.931 0.994982 3.75543 0
M  V30 7095 H 662.603 3.49591 3.00971 0
M  V30 7096 H 660.846 3.33237 2.77733 0
M  V30 7097 H 661.517 3.31859 4.41105 0
M  V30 7098 H 663.993 1.4619 3.89574 0
M  V30 7099 H 662.869 1.50633 5.27826 0
M  V30 7100 H 663.13 -0.00444568 4.421 0
M  V30 7101 N 662.189 -1.289 0.906776 0
M  V30 7102 C 663.437 -1.94883 0.535266 0
M  V30 7103 C 663.758 -1.71784 -0.922791 0
M  V30 7104 O 663.028 -1.05359 -1.65156 0
M  V30 7105 H 661.608 -0.721109 0.194962 0
M  V30 7106 H 664.27 -1.57018 1.15461 0
M  V30 7107 H 663.366 -3.03591 0.723821 0
M  V30 7108 N 663.667 -0.670007 -1.42649 0
M  V30 7109 C 664.614 0.0112928 -2.30797 0
M  V30 7110 C 665.584 0.797627 -1.45695 0
M  V30 7111 O 666.769 0.770845 -1.74535 0
M  V30 7112 C 663.909 0.95998 -3.31479 0
M  V30 7113 C 663.022 0.167975 -4.31673 0
M  V30 7114 C 662.157 1.11198 -5.19431 0
M  V30 7115 C 661.196 0.311381 -6.11307 0
M  V30 7116 N 660.333 1.20784 -6.91633 0
M  V30 7117 H 665.173 -0.746231 -2.88505 0
M  V30 7118 H 662.71 -0.379739 -1.42114 0
M  V30 7119 H 664.668 1.52379 -3.88377 0
M  V30 7120 H 663.298 1.68419 -2.75382 0
M  V30 7121 H 662.35 -0.512385 -3.76933 0
M  V30 7122 H 663.662 -0.453814 -4.96731 0
M  V30 7123 H 662.816 1.74587 -5.81037 0
M  V30 7124 H 661.555 1.76766 -4.54538 0
M  V30 7125 H 660.56 -0.335758 -5.48774 0
M  V30 7126 H 661.785 -0.340135 -6.78248 0
M  V30 7127 H 659.731 1.85001 -6.29373 0
M  V30 7128 H 659.648 0.64102 -7.53277 0
M  V30 7129 H 660.916 1.82936 -7.5773 0
M  V30 7130 N 665.145 1.52092 -0.413018 0
M  V30 7131 C 666.373 2.06274 0.160881 0
M  V30 7132 C 666.788 1.28273 1.38533 0
M  V30 7133 O 666.145 0.33563 1.79387 0
M  V30 7134 C 666.196 3.57921 0.507443 0
M  V30 7135 O 665.917 4.32971 -0.668388 0
M  V30 7136 C 667.418 4.28533 1.13465 0
M  V30 7137 H 664.638 0.67074 0.0186759 0
M  V30 7138 H 667.182 1.95951 -0.585092 0
M  V30 7139 H 665.337 3.68238 1.20331 0
M  V30 7140 H 665.751 5.23135 -0.378169 0
M  V30 7141 H 667.225 5.35804 1.32732 0
M  V30 7142 H 667.702 3.85258 2.10886 0
M  V30 7143 H 668.308 4.22595 0.478876 0
M  V30 7144 N 666.623 0.143563 1.56945 0
M  V30 7145 C 667.853 -0.514699 2.00086 0
M  V30 7146 C 668.261 -1.59184 1.0226 0
M  V30 7147 O 667.604 -1.83697 0.0110514 0
M  V30 7148 C 667.666 -1.17778 3.39659 0
M  V30 7149 C 667.33 -0.245657 4.56339 0
M  V30 7150 C 668.327 0.525343 5.17239 0
M  V30 7151 C 666.012 -0.149564 5.02077 0
M  V30 7152 C 668.006 1.37992 6.22284 0
M  V30 7153 C 665.693 0.708621 6.06978 0
M  V30 7154 C 666.691 1.47197 6.6695 0
M  V30 7155 O 666.379 2.31586 7.6982 0
M  V30 7156 H 666.111 -0.138789 0.661599 0
M  V30 7157 H 668.665 0.234098 2.04062 0
M  V30 7158 H 666.895 -1.97415 3.32512 0
M  V30 7159 H 668.584 -1.73542 3.6693 0
M  V30 7160 H 669.35 0.461118 4.82803 0
M  V30 7161 H 665.229 -0.733457 4.55128 0
M  V30 7162 H 668.773 1.97621 6.69023 0
M  V30 7163 H 664.67 0.77415 6.40841 0
M  V30 7164 H 665.438 2.24796 7.87025 0
M  V30 7165 N 668.101 -1.57061 -0.130224 0
M  V30 7166 C 669.348 -1.84257 -0.839972 0
M  V30 7167 C 669.676 -0.726986 -1.80403 0
M  V30 7168 O 668.931 0.282632 -1.93648 0
M  V30 7169 C 669.23 -3.17878 -1.63365 0
M  V30 7170 C 668.896 -4.43475 -0.814891 0
M  V30 7171 C 667.558 -4.77581 -0.589066 0
M  V30 7172 C 669.91 -5.20631 -0.243437 0
M  V30 7173 C 667.238 -5.86292 0.218648 0
M  V30 7174 C 669.59 -6.30192 0.551408 0
M  V30 7175 C 668.254 -6.62837 0.787653 0
M  V30 7176 H 667.524 -0.674245 -0.307367 0
M  V30 7177 H 670.171 -1.91224 -0.102832 0
M  V30 7178 H 668.476 -3.06437 -2.44138 0
M  V30 7179 H 670.173 -3.3614 -2.18658 0
M  V30 7180 H 666.763 -4.16747 -1.00098 0
M  V30 7181 H 670.947 -4.94644 -0.405145 0
M  V30 7182 H 666.203 -6.10017 0.411016 0
M  V30 7183 H 670.377 -6.89165 1.00126 0
M  V30 7184 H 668.004 -7.46908 1.41537 0
M  V30 7185 N 669.579 0.400081 -1.52437 0
M  V30 7186 C 670.826 1.14619 -1.6694 0
M  V30 7187 C 671.154 1.90262 -0.403797 0
M  V30 7188 O 670.409 1.85835 0.61351 0
M  V30 7189 C 670.708 2.15914 -2.84808 0
M  V30 7190 C 670.374 1.57011 -4.2268 0
M  V30 7191 C 669.036 1.40672 -4.60179 0
M  V30 7192 C 671.388 1.14081 -5.08562 0
M  V30 7193 C 668.716 0.799335 -5.81229 0
M  V30 7194 C 671.068 0.547573 -6.30226 0
M  V30 7195 C 669.732 0.371389 -6.66466 0
M  V30 7196 H 669.002 0.419419 -0.610875 0
M  V30 7197 H 671.649 0.432227 -1.86558 0
M  V30 7198 H 669.954 2.93488 -2.59561 0
M  V30 7199 H 671.651 2.73533 -2.93225 0
M  V30 7200 H 668.241 1.70713 -3.93135 0
M  V30 7201 H 672.425 1.2551 -4.80168 0
M  V30 7202 H 667.681 0.65093 -6.07925 0
M  V30 7203 H 671.855 0.206575 -6.96094 0
M  V30 7204 H 669.482 -0.10135 -7.60132 0
M  V30 7205 N 671.057 1.43213 0.657864 0
M  V30 7206 C 672.004 1.48011 1.77092 0
M  V30 7207 C 672.974 0.330291 1.62783 0
M  V30 7208 O 674.159 0.536787 1.83094 0
M  V30 7209 C 671.299 1.40461 3.15222 0
M  V30 7210 C 670.412 2.65612 3.40697 0
M  V30 7211 C 669.547 2.50083 4.68649 0
M  V30 7212 C 668.586 3.70525 4.87214 0
M  V30 7213 N 667.723 3.53835 6.0642 0
M  V30 7214 H 672.563 2.43121 1.72326 0
M  V30 7215 H 670.1 1.20687 0.841013 0
M  V30 7216 H 672.058 1.34079 3.95068 0
M  V30 7217 H 670.688 0.489359 3.19069 0
M  V30 7218 H 669.74 2.82292 2.54982 0
M  V30 7219 H 671.052 3.5509 3.50303 0
M  V30 7220 H 670.206 2.41383 5.56614 0
M  V30 7221 H 668.945 1.58121 4.61356 0
M  V30 7222 H 667.95 3.79639 3.97686 0
M  V30 7223 H 669.175 4.63489 4.96341 0
M  V30 7224 H 667.121 2.64604 6.00267 0
M  V30 7225 H 667.038 4.36912 6.16963 0
M  V30 7226 H 668.306 3.48978 6.97019 0
M  V30 7227 N 672.536 -0.895792 1.29666 0
M  V30 7228 C 673.784 -1.64339 1.17631 0
M  V30 7229 C 674.105 -1.93099 -0.271643 0
M  V30 7230 O 673.375 -1.55981 -1.18518 0
M  V30 7231 H 671.955 -0.609162 0.432354 0
M  V30 7232 H 674.617 -1.07389 1.62646 0
M  V30 7233 H 673.713 -2.59815 1.72924 0
M  V30 7234 N 674.014 -1.12206 -1.10668 0
M  V30 7235 C 675.291 -0.787382 -1.79052 0
M  V30 7236 C 675.671 0.723267 -1.98323 0
M  V30 7237 O 675.019 1.6561 -1.57434 0
M  V30 7238 C 675.229 -1.55968 -3.1221 0
M  V30 7239 C 676.577 -1.74413 -3.87125 0
M  V30 7240 O 677.601 -1.5246 -3.21923 0
M  V30 7241 O 676.46 -2.10952 -5.04144 0
M  V30 7242 H 673.554 -0.286137 -0.775922 0
M  V30 7243 H 676.1 -1.22595 -1.1734 0
M  V30 7244 H 674.872 -2.58692 -2.93588 0
M  V30 7245 H 674.495 -1.1152 -3.8164 0
M  V30 7246 N 675.492 1.28418 -0.913599 0
M  V30 7247 C 676.908 1.47411 -0.611728 0
M  V30 7248 C 677.108 1.83018 0.843008 0
M  V30 7249 O 676.164 1.93505 1.6221 0
M  V30 7250 C 677.477 2.57703 -1.5495 0
M  V30 7251 C 679.025 2.71572 -1.5562 0
M  V30 7252 C 679.5 3.85008 -2.48058 0
M  V30 7253 N 680.991 3.92361 -2.46184 0
M  V30 7254 C 681.726 4.79516 -3.14407 0
M  V30 7255 N 681.222 5.71262 -3.91958 0
M  V30 7256 N 683.015 4.73125 -3.03495 0
M  V30 7257 H 675.166 1.03585 -1.85429 0
M  V30 7258 H 677.429 0.515907 -0.795326 0
M  V30 7259 H 677.135 2.38298 -2.58663 0
M  V30 7260 H 677.009 3.54801 -1.28048 0
M  V30 7261 H 679.396 2.90366 -0.526441 0
M  V30 7262 H 679.477 1.75006 -1.86565 0
M  V30 7263 H 679.121 3.66969 -3.51136 0
M  V30 7264 H 679.051 4.80971 -2.14416 0
M  V30 7265 H 681.542 3.26749 -1.89851 0
M  V30 7266 H 681.855 6.34593 -4.41034 0
M  V30 7267 H 680.2 5.71103 -3.96063 0
M  V30 7268 H 683.391 4.00442 -2.42413 0
M  V30 7269 H 683.564 5.40834 -3.56935 0
M  V30 7270 N 676.97 0.677563 1.42291 0
M  V30 7271 C 678.2 0.209155 2.05539 0
M  V30 7272 C 678.608 -1.13987 1.51009 0
M  V30 7273 O 677.951 -1.71976 0.645764 0
M  V30 7274 C 678.013 0.0697758 3.59432 0
M  V30 7275 C 677.677 1.34795 4.36668 0
M  V30 7276 C 678.674 2.28201 4.67141 0
M  V30 7277 C 676.359 1.59632 4.76259 0
M  V30 7278 C 678.353 3.44718 5.36142 0
M  V30 7279 C 676.04 2.76437 5.45 0
M  V30 7280 C 677.038 3.68805 5.74867 0
M  V30 7281 O 676.726 4.83567 6.42198 0
M  V30 7282 H 676.458 0.0986202 0.668768 0
M  V30 7283 H 679.012 0.925483 1.83368 0
M  V30 7284 H 677.242 -0.702157 3.80272 0
M  V30 7285 H 678.931 -0.359115 4.04308 0
M  V30 7286 H 679.697 2.10264 4.37052 0
M  V30 7287 H 675.576 0.886073 4.52404 0
M  V30 7288 H 679.12 4.16833 5.59371 0
M  V30 7289 H 675.017 2.94299 5.74507 0
M  V30 7290 H 675.785 4.83147 6.6069 0
M  V30 7291 N 678.448 -1.51871 0.421078 0
M  V30 7292 C 679.694 -2.02894 -0.143346 0
M  V30 7293 C 680.049 -1.30054 -1.41787 0
M  V30 7294 O 679.342 -0.401776 -1.8734 0
M  V30 7295 C 679.536 -3.54764 -0.433292 0
M  V30 7296 C 679.365 -4.42316 0.811584 0
M  V30 7297 C 678.135 -4.872 1.34033 0
M  V30 7298 C 680.333 -4.85631 1.69313 0
M  V30 7299 N 678.315 -5.58915 2.53944 0
M  V30 7300 C 679.686 -5.56248 2.7384 0
M  V30 7301 C 681.741 -4.67634 1.70947 0
M  V30 7302 C 680.444 -6.10777 3.79927 0
M  V30 7303 C 682.47 -5.23068 2.7596 0
M  V30 7304 C 681.832 -5.93617 3.79207 0
M  V30 7305 H 677.931 -0.78188 -0.0137104 0
M  V30 7306 H 680.515 -1.85919 0.578105 0
M  V30 7307 H 678.686 -3.71787 -1.12378 0
M  V30 7308 H 680.418 -3.92464 -0.987644 0
M  V30 7309 H 677.173 -4.65035 0.896606 0
M  V30 7310 H 677.597 -5.99408 3.14704 0
M  V30 7311 H 682.239 -4.12566 0.9246 0
M  V30 7312 H 679.957 -6.64909 4.59262 0
M  V30 7313 H 683.543 -5.11005 2.78147 0
M  V30 7314 H 682.423 -6.35743 4.5913 0
M  V30 7315 N 679.926 -0.151884 -1.56866 0
M  V30 7316 C 681.342 0.204486 -1.58285 0
M  V30 7317 C 681.542 1.6431 -1.16639 0
M  V30 7318 O 680.598 2.37077 -0.868946 0
M  V30 7319 C 681.911 -0.0587019 -3.00643 0
M  V30 7320 C 683.459 0.00462303 -3.13 0
M  V30 7321 C 683.934 -0.231297 -4.57416 0
M  V30 7322 N 685.425 -0.178394 -4.62856 0
M  V30 7323 C 686.16 -0.335379 -5.72418 0
M  V30 7324 N 685.656 -0.550355 -6.90611 0
M  V30 7325 N 687.449 -0.272641 -5.61438 0
M  V30 7326 H 679.6 -1.09116 -1.82229 0
M  V30 7327 H 681.863 -0.432311 -0.843689 0
M  V30 7328 H 681.569 -1.05453 -3.35518 0
M  V30 7329 H 681.443 0.658508 -3.71407 0
M  V30 7330 H 683.83 0.991009 -2.77962 0
M  V30 7331 H 683.911 -0.744992 -2.44711 0
M  V30 7332 H 683.555 -1.2148 -4.93158 0
M  V30 7333 H 683.485 0.5387 -5.23837 0
M  V30 7334 H 685.976 -0.0170923 -3.77896 0
M  V30 7335 H 686.289 -0.660116 -7.69976 0
M  V30 7336 H 684.634 -0.586736 -6.92519 0
M  V30 7337 H 687.825 -0.105421 -4.67981 0
M  V30 7338 H 687.998 -0.398418 -6.46774 0
M  V30 7339 N 681.404 1.57128 0.121893 0
M  V30 7340 C 682.634 1.88609 0.843227 0
M  V30 7341 C 683.042 0.740917 1.74089 0
M  V30 7342 O 682.385 -0.297426 1.81276 0
M  V30 7343 C 682.447 3.15073 1.73117 0
M  V30 7344 C 682.111 4.45742 1.0081 0
M  V30 7345 C 683.108 5.18719 0.350255 0
M  V30 7346 C 680.793 4.92444 0.99014 0
M  V30 7347 C 682.787 6.36617 -0.315889 0
M  V30 7348 C 680.474 6.10261 0.320196 0
M  V30 7349 C 681.472 6.82194 -0.331666 0
M  V30 7350 O 681.16 7.97769 -0.990927 0
M  V30 7351 H 680.892 0.628919 0.247865 0
M  V30 7352 H 683.446 2.05096 0.111725 0
M  V30 7353 H 681.676 2.9466 2.50424 0
M  V30 7354 H 683.365 3.32597 2.32667 0
M  V30 7355 H 684.131 4.83693 0.35577 0
M  V30 7356 H 680.01 4.36361 1.48695 0
M  V30 7357 H 683.554 6.92701 -0.825272 0
M  V30 7358 H 679.451 6.44743 0.312433 0
M  V30 7359 H 680.219 8.13591 -0.895113 0
M  V30 7360 N 682.882 -0.391992 1.52647 0
M  V30 7361 C 684.107 -1.16312 1.71716 0
M  V30 7362 C 684.532 -1.83042 0.433279 0
M  V30 7363 O 683.89 -1.70705 -0.610707 0
M  V30 7364 C 683.938 -2.18908 2.86551 0
M  V30 7365 O 683.042 -3.2543 2.53316 0
M  V30 7366 H 682.383 -0.338743 0.571095 0
M  V30 7367 H 684.913 -0.457202 1.99426 0
M  V30 7368 H 684.923 -2.62954 3.1196 0
M  V30 7369 H 683.598 -1.69726 3.79692 0
M  V30 7370 H 682.175 -2.86543 2.38637 0
M  V30 7371 N 684.36 -1.4356 -0.65026 0
M  V30 7372 C 685.27 -1.514 -1.79207 0
M  V30 7373 C 686.286 -0.400895 -1.69319 0
M  V30 7374 O 687.462 -0.655458 -1.90436 0
M  V30 7375 C 684.527 -1.43737 -3.155 0
M  V30 7376 C 683.588 -2.65743 -3.37163 0
M  V30 7377 C 682.821 -2.58436 -4.66954 0
M  V30 7378 O 683.044 -1.63374 -5.46503 0
M  V30 7379 O 681.978 -3.48984 -4.90402 0
M  V30 7380 H 685.804 -2.47825 -1.75547 0
M  V30 7381 H 683.389 -1.25594 -0.809111 0
M  V30 7382 H 685.271 -1.41916 -3.96784 0
M  V30 7383 H 683.946 -0.504488 -3.19745 0
M  V30 7384 H 682.853 -2.73136 -2.55632 0
M  V30 7385 H 684.186 -3.58014 -3.37768 0
M  V30 7386 N 685.838 0.888903 -1.30139 0
M  V30 7387 C 686.748 2.02705 -1.18101 0
M  V30 7388 C 687.764 1.73702 -0.101809 0
M  V30 7389 O 688.94 1.98906 -0.315984 0
M  V30 7390 C 686.005 3.35616 -0.869651 0
M  V30 7391 C 685.066 3.78067 -2.03381 0
M  V30 7392 C 684.299 5.04635 -1.73721 0
M  V30 7393 O 684.522 5.66531 -0.663267 0
M  V30 7394 O 683.456 5.43399 -2.58845 0
M  V30 7395 H 687.282 2.15788 -2.13704 0
M  V30 7396 H 684.867 1.01426 -1.09695 0
M  V30 7397 H 686.749 4.15358 -0.711043 0
M  V30 7398 H 685.424 3.23651 0.0565002 0
M  V30 7399 H 684.331 2.99046 -2.24772 0
M  V30 7400 H 685.664 3.94631 -2.94155 0
M  V30 7401 N 687.317 1.12792 1.10072 0
M  V30 7402 C 688.25 0.742921 2.15768 0
M  V30 7403 C 689.228 -0.267714 1.60381 0
M  V30 7404 O 690.412 -0.160782 1.87813 0
M  V30 7405 C 687.539 0.100244 3.38552 0
M  V30 7406 C 686.585 1.07831 4.12644 0
M  V30 7407 S 687.418 2.60765 4.6772 0
M  V30 7408 C 688.574 1.97838 5.9381 0
M  V30 7409 H 688.807 1.63822 2.48092 0
M  V30 7410 H 686.34 0.947385 1.21918 0
M  V30 7411 H 688.298 -0.264175 4.09649 0
M  V30 7412 H 686.959 -0.772223 3.04459 0
M  V30 7413 H 686.152 0.576325 5.00694 0
M  V30 7414 H 685.754 1.38586 3.47376 0
M  V30 7415 H 688.046 1.32341 6.64449 0
M  V30 7416 H 688.989 2.83943 6.48677 0
M  V30 7417 H 689.397 1.43267 5.46017 0
M  V30 7418 N 688.795 -1.27931 0.920396 0
M  V30 7419 C 689.742 -2.27085 0.412422 0
M  V30 7420 C 690.712 -1.57858 -0.516725 0
M  V30 7421 O 691.897 -1.85717 -0.437475 0
M  V30 7422 C 689.037 -3.43466 -0.335399 0
M  V30 7423 C 688.15 -4.27425 0.627017 0
M  V30 7424 C 687.285 -5.31016 -0.139916 0
M  V30 7425 C 686.324 -6.06641 0.815683 0
M  V30 7426 N 685.461 -7.02052 0.0818439 0
M  V30 7427 H 690.301 -2.69913 1.26298 0
M  V30 7428 H 687.838 -1.32732 0.634076 0
M  V30 7429 H 689.796 -4.09744 -0.785226 0
M  V30 7430 H 688.426 -3.01611 -1.15025 0
M  V30 7431 H 687.478 -3.6113 1.19537 0
M  V30 7432 H 688.79 -4.79969 1.35763 0
M  V30 7433 H 687.944 -6.03208 -0.649998 0
M  V30 7434 H 686.683 -4.79257 -0.903543 0
M  V30 7435 H 685.688 -5.33294 1.33708 0
M  V30 7436 H 686.913 -6.60489 1.57897 0
M  V30 7437 H 684.859 -6.52634 -0.663671 0
M  V30 7438 H 684.776 -7.52249 0.752163 0
M  V30 7439 H 686.044 -7.78432 -0.407825 0
M  V30 7440 N 690.273 -0.685099 -1.4193 0
M  V30 7441 C 691.501 -0.220372 -2.05723 0
M  V30 7442 C 691.916 1.12642 -1.51516 0
M  V30 7443 O 691.273 1.70182 -0.659114 0
M  V30 7444 C 691.324 -0.157974 -3.61155 0
M  V30 7445 O 691.045 -1.45156 -4.13354 0
M  V30 7446 C 692.546 0.329009 -4.42077 0
M  V30 7447 H 689.766 -0.104725 -0.662777 0
M  V30 7448 H 692.31 -0.934736 -1.81887 0
M  V30 7449 H 690.465 0.507144 -3.84066 0
M  V30 7450 H 690.879 -1.33172 -5.07312 0
M  V30 7451 H 692.353 0.321559 -5.51063 0
M  V30 7452 H 692.83 1.36608 -4.17414 0
M  V30 7453 H 693.436 -0.304737 -4.24207 0
M  V30 7454 N 691.751 1.51645 -0.429126 0
M  V30 7455 C 692.684 2.24083 0.431492 0
M  V30 7456 C 693.662 1.25691 1.03153 0
M  V30 7457 O 694.846 1.54802 1.07557 0
M  V30 7458 C 691.973 2.9849 1.60067 0
M  V30 7459 C 691.019 4.11474 1.12211 0
M  V30 7460 S 691.852 5.35453 0.0708449 0
M  V30 7461 C 693.008 6.13395 1.24488 0
M  V30 7462 H 693.241 2.96733 -0.183525 0
M  V30 7463 H 690.774 1.52916 -0.213574 0
M  V30 7464 H 692.732 3.4196 2.27099 0
M  V30 7465 H 691.393 2.25445 2.18708 0
M  V30 7466 H 690.586 4.62784 1.99618 0
M  V30 7467 H 690.188 3.70223 0.530149 0
M  V30 7468 H 692.48 6.41984 2.16479 0
M  V30 7469 H 693.423 7.0388 0.771921 0
M  V30 7470 H 693.831 5.44761 1.47973 0
M  V30 7471 N 693.229 0.160201 1.56784 0
M  V30 7472 C 694.506 -0.533355 1.88188 0
M  V30 7473 C 694.886 -1.82072 1.06831 0
M  V30 7474 O 694.234 -2.27946 0.158959 0
M  V30 7475 C 694.444 -0.786034 3.40033 0
M  V30 7476 C 695.792 -1.12097 4.09536 0
M  V30 7477 O 696.816 -0.874949 3.45287 0
M  V30 7478 O 695.675 -1.58457 5.23023 0
M  V30 7479 H 692.769 -0.273589 0.780434 0
M  V30 7480 H 695.315 0.197803 1.68543 0
M  V30 7481 H 694.087 0.124515 3.91102 0
M  V30 7482 H 693.71 -1.57091 3.65251 0
M  V30 7483 N 694.707 -1.5719 -0.113559 0
M  V30 7484 C 696.118 -1.74259 -0.670116 0
M  V30 7485 C 696.469 -0.779694 -1.80042 0
M  V30 7486 O 695.594 0.0461353 -2.16351 0
M  V30 7487 C 696.189 -3.15981 -1.22236 0
M  V30 7488 C 694.748 -3.34537 -1.72516 0
M  V30 7489 C 693.895 -2.70116 -0.627098 0
M  V30 7490 H 696.846 -1.58301 0.112396 0
M  V30 7491 H 696.867 -3.17832 -2.09197 0
M  V30 7492 H 696.379 -3.86038 -0.39949 0
M  V30 7493 H 694.48 -2.6953 -2.57263 0
M  V30 7494 H 694.593 -4.42737 -1.83086 0
M  V30 7495 H 692.957 -2.31501 -1.06204 0
M  V30 7496 H 693.74 -3.42802 0.184889 0
M  V30 7497 N 696.185 0.383891 -1.52853 0
M  V30 7498 C 697.433 1.12619 -1.67814 0
M  V30 7499 C 697.754 1.90354 -0.423141 0
M  V30 7500 O 697.024 1.87649 0.562554 0
M  V30 7501 H 695.604 0.418738 -0.618601 0
M  V30 7502 H 698.266 0.43495 -1.89985 0
M  V30 7503 H 697.362 1.82624 -2.5309 0
M  V30 7504 N 697.663 1.43903 0.642637 0
M  V30 7505 C 698.893 1.49323 1.4278 0
M  V30 7506 C 699.301 0.113058 1.88862 0
M  V30 7507 O 698.644 -0.889089 1.60751 0
M  V30 7508 C 698.706 2.3861 2.68897 0
M  V30 7509 C 698.37 3.85976 2.44687 0
M  V30 7510 C 699.367 4.7681 2.07239 0
M  V30 7511 C 697.052 4.30567 2.58683 0
M  V30 7512 C 699.046 6.10234 1.841 0
M  V30 7513 C 696.733 5.64042 2.35159 0
M  V30 7514 C 697.731 6.53693 1.97925 0
M  V30 7515 O 697.419 7.84698 1.74654 0
M  V30 7516 H 697.151 0.509109 0.444729 0
M  V30 7517 H 699.705 1.89425 0.794195 0
M  V30 7518 H 697.935 1.93415 3.34855 0
M  V30 7519 H 699.624 2.35112 3.30873 0
M  V30 7520 H 700.39 4.43635 1.95993 0
M  V30 7521 H 696.269 3.61054 2.86637 0
M  V30 7522 H 699.813 6.80171 1.54962 0
M  V30 7523 H 695.71 5.96782 2.46011 0
M  V30 7524 H 696.478 7.96382 1.88993 0
M  V30 7525 N 699.141 -0.881989 1.30609 0
M  V30 7526 C 700.552 -1.44956 1.17664 0
M  V30 7527 C 700.903 -1.94945 -0.221531 0
M  V30 7528 O 700.028 -1.85257 -1.11844 0
M  V30 7529 C 700.623 -2.63474 2.12995 0
M  V30 7530 C 699.182 -3.16312 2.04019 0
M  V30 7531 C 698.329 -1.89008 2.02907 0
M  V30 7532 H 701.28 -0.691645 1.42835 0
M  V30 7533 H 701.301 -3.39783 1.71253 0
M  V30 7534 H 700.813 -2.2706 3.14746 0
M  V30 7535 H 698.914 -3.57376 1.0542 0
M  V30 7536 H 699.027 -3.79409 2.9255 0
M  V30 7537 H 697.391 -2.07465 1.47751 0
M  V30 7538 H 698.174 -1.54848 3.06394 0
M  V30 7539 N 700.619 -1.13374 -1.09472 0
M  V30 7540 C 701.566 -0.810682 -2.16094 0
M  V30 7541 C 702.536 0.227003 -1.64541 0
M  V30 7542 O 703.721 0.0993538 -1.90541 0
M  V30 7543 C 700.861 -0.282336 -3.43943 0
M  V30 7544 C 699.974 -1.37902 -4.09398 0
M  V30 7545 C 699.109 -0.809066 -5.25002 0
M  V30 7546 C 698.148 -1.88419 -5.82379 0
M  V30 7547 N 697.285 -1.33221 -6.89345 0
M  V30 7548 H 702.125 -1.72397 -2.43071 0
M  V30 7549 H 699.662 -0.860564 -1.19301 0
M  V30 7550 H 701.62 0.0421189 -4.17179 0
M  V30 7551 H 700.25 0.594083 -3.17286 0
M  V30 7552 H 699.302 -1.82008 -3.34032 0
M  V30 7553 H 700.614 -2.19161 -4.48074 0
M  V30 7554 H 699.768 -0.435867 -6.05132 0
M  V30 7555 H 698.507 0.0346058 -4.87688 0
M  V30 7556 H 697.512 -2.26646 -5.00911 0
M  V30 7557 H 698.737 -2.73125 -6.21755 0
M  V30 7558 H 696.683 -0.510535 -6.5401 0
M  V30 7559 H 696.6 -2.08129 -7.26786 0
M  V30 7560 H 697.868 -0.986565 -7.73232 0
M  V30 7561 N 702.098 1.27442 -0.927168 0
M  V30 7562 C 703.509 1.76385 -0.611979 0
M  V30 7563 C 703.86 1.75715 0.872853 0
M  V30 7564 O 702.985 1.3603 1.683 0
M  V30 7565 C 703.58 3.20303 -1.10414 0
M  V30 7566 C 702.139 3.66916 -0.839628 0
M  V30 7567 C 701.286 2.46859 -1.26317 0
M  V30 7568 H 704.237 1.13716 -1.107 0
M  V30 7569 H 704.258 3.77811 -0.451578 0
M  V30 7570 H 703.77 3.20759 -2.18484 0
M  V30 7571 H 701.871 3.71906 0.227292 0
M  V30 7572 H 701.984 4.56415 -1.45679 0
M  V30 7573 H 700.348 2.45407 -0.681723 0
M  V30 7574 H 701.131 2.50025 -2.3525 0
M  V30 7575 N 703.576 0.692616 1.41565 0
M  V30 7576 C 704.825 0.219452 2.00503 0
M  V30 7577 C 705.138 -1.18683 1.55479 0
M  V30 7578 O 706.344 -1.75731 2.06956 0
M  V30 7579 C 704.8 0.341451 3.58277 0
M  V30 7580 C 704.408 1.75291 4.12283 0
M  V30 7581 C 706.152 -0.0720899 4.24439 0
M  V30 7582 C 704.059 1.82673 5.62481 0
M  V30 7583 H 702.989 0.0782874 0.749925 0
M  V30 7584 H 705.64 0.860386 1.62079 0
M  V30 7585 H 704.022 -0.367683 3.94289 0
M  V30 7586 H 705.196 2.49057 3.87695 0
M  V30 7587 H 703.511 2.11587 3.58636 0
M  V30 7588 H 706.108 -0.0373385 5.34687 0
M  V30 7589 H 706.451 -1.11034 4.0122 0
M  V30 7590 H 706.984 0.586663 3.9345 0
M  V30 7591 H 703.723 2.84539 5.90523 0
M  V30 7592 H 703.243 1.13288 5.89004 0
M  V30 7593 H 704.922 1.58827 6.27203 0
M  V30 7594 N 705.054 -1.51416 0.437162 0
M  V30 7595 C 706.282 -2.06503 -0.128045 0
M  V30 7596 C 706.697 -1.30461 -1.36475 0
M  V30 7597 O 706.054 -0.364127 -1.78831 0
M  V30 7598 C 706.105 -3.58683 -0.450437 0
M  V30 7599 O 705.826 -4.31853 0.737186 0
M  V30 7600 C 707.327 -4.30284 -1.06633 0
M  V30 7601 H 704.547 -0.670952 -0.00800269 0
M  V30 7602 H 707.091 -1.94996 0.616193 0
M  V30 7603 H 705.246 -3.70106 -1.14457 0
M  V30 7604 H 705.66 -5.22467 0.461347 0
M  V30 7605 H 707.134 -5.37848 -1.24191 0
M  V30 7606 H 707.611 -3.88564 -2.0473 0
M  V30 7607 H 708.217 -4.23304 -0.411585 0
M  V30 7608 N 706.532 -0.168513 -1.56696 0
M  V30 7609 C 707.778 0.477865 -1.9709 0
M  V30 7610 C 708.111 1.63084 -1.05438 0
M  V30 7611 O 707.386 1.94238 -0.10095 0
M  V30 7612 C 707.669 0.963521 -3.4697 0
M  V30 7613 C 707.522 -0.189443 -4.49401 0
M  V30 7614 C 708.841 1.83813 -3.99876 0
M  V30 7615 H 705.96 0.172229 -0.716593 0
M  V30 7616 H 708.602 -0.254083 -1.88293 0
M  V30 7617 H 706.752 1.58724 -3.54597 0
M  V30 7618 H 708.424 -0.826451 -4.53836 0
M  V30 7619 H 706.667 -0.845366 -4.25483 0
M  V30 7620 H 707.338 0.192446 -5.51664 0
M  V30 7621 H 709.814 1.31235 -3.94863 0
M  V30 7622 H 708.69 2.14697 -5.0517 0
M  V30 7623 H 708.951 2.78289 -3.43523 0
M  V30 7624 N 708.01 1.57248 0.105221 0
M  V30 7625 C 709.256 1.86719 0.806692 0
M  V30 7626 C 709.611 0.758061 1.76837 0
M  V30 7627 O 708.904 -0.240812 1.90081 0
M  V30 7628 C 709.098 3.20437 1.58287 0
M  V30 7629 C 708.927 4.44252 0.697864 0
M  V30 7630 C 707.697 5.04104 0.347444 0
M  V30 7631 C 709.895 5.14299 0.00933014 0
M  V30 7632 N 707.877 6.1146 -0.546786 0
M  V30 7633 C 709.248 6.15528 -0.74336 0
M  V30 7634 C 711.303 4.97857 -0.0656505 0
M  V30 7635 C 710.006 7.02091 -1.56401 0
M  V30 7636 C 712.032 5.84919 -0.873167 0
M  V30 7637 C 711.394 6.8566 -1.61401 0
M  V30 7638 H 707.493 0.73329 0.271679 0
M  V30 7639 H 710.077 1.94575 0.0697152 0
M  V30 7640 H 708.248 3.13651 2.29079 0
M  V30 7641 H 709.98 3.37668 2.23075 0
M  V30 7642 H 706.735 4.68505 0.692817 0
M  V30 7643 H 707.159 6.69779 -0.986157 0
M  V30 7644 H 711.801 4.19919 0.492768 0
M  V30 7645 H 709.519 7.79427 -2.13353 0
M  V30 7646 H 713.105 5.74259 -0.933724 0
M  V30 7647 H 711.985 7.5186 -2.2288 0
M  V30 7648 N 709.488 -0.375779 1.53054 0
M  V30 7649 C 710.435 -1.45978 1.78771 0
M  V30 7650 C 711.405 -1.53625 0.631552 0
M  V30 7651 O 712.59 -1.69674 0.872667 0
M  V30 7652 C 709.73 -2.8305 1.97425 0
M  V30 7653 C 708.843 -2.84451 3.25134 0
M  V30 7654 C 707.978 -4.13034 3.34031 0
M  V30 7655 C 707.017 -4.08536 4.55812 0
M  V30 7656 N 706.154 -5.2875 4.61918 0
M  V30 7657 H 710.994 -1.23349 2.71273 0
M  V30 7658 H 708.531 -0.598147 1.3439 0
M  V30 7659 H 710.489 -3.62666 2.06225 0
M  V30 7660 H 709.119 -3.04101 1.0827 0
M  V30 7661 H 708.171 -1.97127 3.25338 0
M  V30 7662 H 709.483 -2.76998 4.14818 0
M  V30 7663 H 708.637 -5.0106 3.42087 0
M  V30 7664 H 707.376 -4.23226 2.42345 0
M  V30 7665 H 706.381 -3.18897 4.47867 0
M  V30 7666 H 707.606 -3.99955 5.48828 0
M  V30 7667 H 705.552 -5.39547 3.73129 0
M  V30 7668 H 705.469 -5.23426 5.45492 0
M  V30 7669 H 706.737 -6.18637 4.74245 0
M  V30 7670 N 710.966 -1.44241 -0.634997 0
M  V30 7671 C 712.214 -1.46531 -1.39187 0
M  V30 7672 C 712.535 -0.0976441 -1.94755 0
M  V30 7673 O 711.805 0.869528 -1.75545 0
M  V30 7674 H 710.385 -0.539544 -0.516625 0
M  V30 7675 H 713.047 -1.79989 -0.747655 0
M  V30 7676 H 712.143 -2.18848 -2.22513 0
M  V30 7677 N 712.444 0.87505 -1.31075 0
M  V30 7678 C 713.693 1.62245 -1.19831 0
M  V30 7679 C 714.006 1.94078 0.24357 0
M  V30 7680 O 715.212 2.67265 0.477646 0
M  V30 7681 C 713.668 2.92464 -2.09744 0
M  V30 7682 C 713.276 2.68134 -3.58898 0
M  V30 7683 C 715.02 3.70449 -2.07287 0
M  V30 7684 C 712.927 3.9423 -4.40836 0
M  V30 7685 H 711.857 0.608741 -0.444916 0
M  V30 7686 H 714.508 0.967947 -1.55894 0
M  V30 7687 H 712.89 3.59262 -1.66574 0
M  V30 7688 H 714.064 2.09776 -4.10281 0
M  V30 7689 H 712.379 2.03511 -3.6328 0
M  V30 7690 H 714.976 4.63983 -2.65752 0
M  V30 7691 H 715.319 4.02611 -1.05876 0
M  V30 7692 H 715.852 3.10528 -2.48631 0
M  V30 7693 H 712.591 3.67221 -5.42982 0
M  V30 7694 H 712.111 4.52058 -3.94213 0
M  V30 7695 H 713.79 4.62162 -4.52786 0
M  V30 7696 N 713.922 1.13953 1.08869 0
M  V30 7697 C 715.333 0.916649 1.62648 0
M  V30 7698 C 715.684 -0.545589 1.88462 0
M  V30 7699 O 714.809 -1.41351 1.63856 0
M  V30 7700 C 715.404 1.65751 2.95486 0
M  V30 7701 C 713.963 1.48034 3.46068 0
M  V30 7702 C 713.11 1.68305 2.20383 0
M  V30 7703 H 716.061 1.292 0.921572 0
M  V30 7704 H 716.082 1.11794 3.63707 0
M  V30 7705 H 715.594 2.72171 2.76667 0
M  V30 7706 H 713.695 0.439416 3.7 0
M  V30 7707 H 713.808 2.24719 4.23129 0
M  V30 7708 H 712.172 1.10833 2.29321 0
M  V30 7709 H 712.955 2.76057 2.04077 0
M  V30 7710 N 715.4 -1.26948 0.933913 0
M  V30 7711 C 716.31 -2.30366 0.443671 0
M  V30 7712 C 717.326 -1.67284 -0.478745 0
M  V30 7713 O 718.502 -1.98156 -0.360043 0
M  V30 7714 C 715.567 -3.45485 -0.289974 0
M  V30 7715 C 714.628 -4.24069 0.668114 0
M  V30 7716 C 713.861 -5.33691 -0.0306138 0
M  V30 7717 O 714.084 -5.5656 -1.24888 0
M  V30 7718 O 713.018 -5.98441 0.644384 0
M  V30 7719 H 716.844 -2.74349 1.30254 0
M  V30 7720 H 714.429 -1.32012 0.699506 0
M  V30 7721 H 716.311 -4.15486 -0.70353 0
M  V30 7722 H 714.986 -3.03546 -1.12435 0
M  V30 7723 H 713.893 -3.56579 1.13147 0
M  V30 7724 H 715.226 -4.69739 1.46989 0
M  V30 7725 N 716.879 -0.700114 -1.41195 0
M  V30 7726 C 718.104 -0.240704 -2.05998 0
M  V30 7727 C 718.529 1.10313 -1.52357 0
M  V30 7728 O 717.887 1.69154 -0.652424 0
M  V30 7729 C 717.935 -0.213783 -3.59966 0
M  V30 7730 O 717.039 0.809933 -4.04368 0
M  V30 7731 H 716.38 -0.116471 -0.653705 0
M  V30 7732 H 718.91 -0.956251 -1.80878 0
M  V30 7733 H 718.92 -0.0461852 -4.07974 0
M  V30 7734 H 717.595 -1.19454 -3.98376 0
M  V30 7735 H 716.172 0.611319 -3.67855 0
M  V30 7736 N 718.357 1.51182 -0.445186 0
M  V30 7737 C 719.768 1.86693 0.0160999 0
M  V30 7738 C 720.119 1.36183 1.4124 0
M  V30 7739 O 719.244 0.715895 2.04215 0
M  V30 7740 C 719.839 3.38781 0.0359918 0
M  V30 7741 C 718.398 3.73799 0.441715 0
M  V30 7742 C 717.545 2.74947 -0.360511 0
M  V30 7743 H 720.496 1.44294 -0.660674 0
M  V30 7744 H 720.517 3.71026 0.843813 0
M  V30 7745 H 720.029 3.75513 -0.980378 0
M  V30 7746 H 718.13 3.42659 1.4634 0
M  V30 7747 H 718.243 4.78829 0.16106 0
M  V30 7748 H 716.607 2.54047 0.182269 0
M  V30 7749 H 717.39 3.14521 -1.3759 0
M  V30 7750 N 719.835 0.176821 1.56605 0
M  V30 7751 C 720.767 -0.782836 2.15417 0
M  V30 7752 C 721.78 -1.18982 1.11117 0
M  V30 7753 O 722.969 -1.12872 1.38283 0
M  V30 7754 C 720.069 -2.06596 2.68647 0
M  V30 7755 C 719.242 -1.82167 3.9766 0
M  V30 7756 C 718.301 -2.94751 4.35899 0
M  V30 7757 O 717.327 -2.65148 5.03672 0
M  V30 7758 N 718.529 -4.2267 3.97907 0
M  V30 7759 H 721.294 -0.280012 2.98389 0
M  V30 7760 H 718.855 -0.00577529 1.61899 0
M  V30 7761 H 720.847 -2.81018 2.91223 0
M  V30 7762 H 719.417 -2.48054 1.90232 0
M  V30 7763 H 718.637 -0.916208 3.83405 0
M  V30 7764 H 719.925 -1.6322 4.81909 0
M  V30 7765 H 719.323 -4.4958 3.43357 0
M  V30 7766 H 717.88 -4.93778 4.25472 0
M  V30 7767 N 721.313 -1.57302 -0.09688 0
M  V30 7768 C 722.561 -1.8563 -0.799117 0
M  V30 7769 C 722.882 -0.765263 -1.79356 0
M  V30 7770 O 722.152 0.208657 -1.94786 0
M  V30 7771 H 720.732 -0.684937 -0.298111 0
M  V30 7772 H 723.394 -1.9474 -0.0789341 0
M  V30 7773 H 722.49 -2.82305 -1.3308 0
M  V30 7774 N 722.791 0.367657 -1.53252 0
M  V30 7775 C 723.754 1.43308 -1.78873 0
M  V30 7776 C 724.754 1.46671 -0.659115 0
M  V30 7777 O 725.944 1.47468 -0.927306 0
M  V30 7778 C 723.076 2.82442 -1.90892 0
M  V30 7779 H 724.269 1.21864 -2.74024 0
M  V30 7780 H 721.822 0.600668 -1.44297 0
M  V30 7781 H 722.557 3.09202 -0.978 0
M  V30 7782 H 722.342 2.81399 -2.73051 0
M  V30 7783 H 723.832 3.59601 -2.12314 0
M  V30 7784 N 724.269 1.44576 0.627338 0
M  V30 7785 C 725.516 1.47558 1.38682 0
M  V30 7786 C 725.844 0.109636 1.94191 0
M  V30 7787 O 725.099 -0.889092 1.74338 0
M  V30 7788 C 725.398 2.48644 2.56731 0
M  V30 7789 C 725.064 3.93873 2.19489 0
M  V30 7790 C 723.726 4.33421 2.09045 0
M  V30 7791 C 726.078 4.85286 1.90124 0
M  V30 7792 C 723.406 5.62303 1.6743 0
M  V30 7793 C 725.758 6.14559 1.50001 0
M  V30 7794 C 724.422 6.53058 1.38101 0
M  V30 7795 H 723.692 0.539955 0.507474 0
M  V30 7796 H 726.339 1.77811 0.711021 0
M  V30 7797 H 724.644 2.11889 3.29561 0
M  V30 7798 H 726.341 2.48197 3.14959 0
M  V30 7799 H 722.931 3.62587 2.28537 0
M  V30 7800 H 727.115 4.55483 1.971 0
M  V30 7801 H 722.371 5.90945 1.56823 0
M  V30 7802 H 726.545 6.84848 1.26319 0
M  V30 7803 H 724.172 7.52826 1.05628 0
M  V30 7804 N 725.747 -0.868086 1.31537 0
M  V30 7805 C 726.993 -1.62367 1.2151 0
M  V30 7806 C 727.326 -1.92883 -0.225819 0
M  V30 7807 O 726.601 -1.56176 -1.15927 0
M  V30 7808 C 726.884 -2.95268 2.06129 0
M  V30 7809 C 726.737 -2.71619 3.58529 0
M  V30 7810 C 728.056 -3.96391 1.91212 0
M  V30 7811 H 725.175 -0.589178 0.442762 0
M  V30 7812 H 727.817 -1.00336 1.61347 0
M  V30 7813 H 725.967 -3.4821 1.72284 0
M  V30 7814 H 727.639 -2.25334 4.0252 0
M  V30 7815 H 725.882 -2.05817 3.81866 0
M  V30 7816 H 726.553 -3.66192 4.13047 0
M  V30 7817 H 729.029 -3.52663 2.20834 0
M  V30 7818 H 727.905 -4.87263 2.52718 0
M  V30 7819 H 728.166 -4.33335 0.875953 0
M  V30 7820 N 727.225 -1.14528 -1.08264 0
M  V30 7821 C 728.175 -0.802141 -2.13424 0
M  V30 7822 C 729.159 0.209362 -1.59532 0
M  V30 7823 O 730.351 0.0114859 -1.76996 0
M  V30 7824 C 727.48 -0.282938 -3.42132 0
M  V30 7825 C 726.566 -1.32405 -4.02902 0
M  V30 7826 N 726.957 -2.52861 -4.38058 0
M  V30 7827 C 725.255 -1.17462 -4.30254 0
M  V30 7828 C 725.956 -3.1952 -4.86088 0
M  V30 7829 N 724.932 -2.46921 -4.84284 0
M  V30 7830 H 728.734 -1.71843 -2.38426 0
M  V30 7831 H 726.248 -1.02936 -1.2561 0
M  V30 7832 H 728.245 -0.0188053 -4.16896 0
M  V30 7833 H 726.905 0.627533 -3.18578 0
M  V30 7834 H 727.916 -2.90078 -4.2904 0
M  V30 7835 H 724.593 -0.323283 -4.16246 0
M  V30 7836 H 725.983 -4.2223 -5.22658 0
M  V30 7837 N 728.703 1.26451 -0.940633 0
M  V30 7838 C 729.65 2.264 -0.448497 0
M  V30 7839 C 730.62 1.5866 0.491546 0
M  V30 7840 O 731.805 1.86389 0.407874 0
M  V30 7841 C 728.945 3.43956 0.280715 0
M  V30 7842 C 728.058 4.26374 -0.694937 0
M  V30 7843 C 727.193 5.31171 0.0554186 0
M  V30 7844 C 726.232 6.05266 -0.912091 0
M  V30 7845 N 725.369 7.01833 -0.193524 0
M  V30 7846 H 730.209 2.67869 -1.30576 0
M  V30 7847 H 727.746 1.31707 -0.655112 0
M  V30 7848 H 729.704 4.10941 0.71994 0
M  V30 7849 H 728.334 3.03403 1.10212 0
M  V30 7850 H 727.386 3.59183 -1.25267 0
M  V30 7851 H 728.698 4.77748 -1.43382 0
M  V30 7852 H 727.852 6.04166 0.553951 0
M  V30 7853 H 726.591 4.80634 0.827183 0
M  V30 7854 H 725.596 5.31099 -1.42175 0
M  V30 7855 H 726.821 6.57893 -1.68385 0
M  V30 7856 H 724.767 6.53607 0.559758 0
M  V30 7857 H 724.684 7.50957 -0.871744 0
M  V30 7858 H 725.952 7.78983 0.283932 0
M  V30 7859 N 730.181 0.707592 1.40822 0
M  V30 7860 C 731.091 0.0507246 2.34545 0
M  V30 7861 C 732.107 -0.752727 1.56876 0
M  V30 7862 O 733.283 -0.687524 1.89302 0
M  V30 7863 C 730.348 -0.865731 3.35717 0
M  V30 7864 C 729.409 -0.0531313 4.29267 0
M  V30 7865 C 728.642 -0.925939 5.25606 0
M  V30 7866 O 728.865 -2.16531 5.27703 0
M  V30 7867 O 727.799 -0.369194 6.00767 0
M  V30 7868 H 731.625 0.823587 2.9232 0
M  V30 7869 H 729.21 0.46801 1.4188 0
M  V30 7870 H 731.092 -1.39091 3.97783 0
M  V30 7871 H 729.767 -1.61788 2.80368 0
M  V30 7872 H 728.674 0.516931 3.70511 0
M  V30 7873 H 730.007 0.660617 4.87747 0
M  V30 7874 N 731.66 -1.50943 0.453197 0
M  V30 7875 C 732.608 -2.29728 -0.364419 0
M  V30 7876 C 733.602 -1.36246 -1.00664 0
M  V30 7877 O 734.808 -1.53518 -0.939794 0
M  V30 7878 H 731.183 -0.739536 -0.136347 0
M  V30 7879 H 733.154 -2.96672 0.320696 0
M  V30 7880 C 731.903 -3.1629 -1.44415 0
M  V30 7881 H 731.226 -3.88119 -0.959343 0
M  V30 7882 H 732.666 -3.74444 -1.98917 0
M  V30 7883 C 731.125 -2.32702 -2.43622 0
M  V30 7884 O 731.655 -1.99763 -3.48508 0
M  V30 7885 N 729.861 -1.95621 -2.14897 0
M  V30 7886 H 729.408 -2.22607 -1.29629 0
M  V30 7887 H 729.366 -1.39993 -2.81513 0
M  V30 7888 N 733.138 -0.185124 -1.56509 0
M  V30 7889 C 734.386 0.455357 -1.96903 0
M  V30 7890 C 734.707 1.62839 -1.07277 0
M  V30 7891 O 733.977 1.95385 -0.141966 0
M  V30 7892 H 732.557 0.171218 -0.727113 0
M  V30 7893 H 735.219 -0.26953 -1.93027 0
M  V30 7894 H 734.315 0.80616 -3.01509 0
M  V30 7895 N 734.616 1.57351 0.0885366 0
M  V30 7896 C 735.863 1.86419 0.790824 0
M  V30 7897 C 736.191 0.774561 1.78412 0
M  V30 7898 O 735.446 -0.23119 1.9433 0
M  V30 7899 C 735.745 3.22098 1.5488 0
M  V30 7900 C 735.411 4.4548 0.697025 0
M  V30 7901 C 734.073 4.78975 0.462237 0
M  V30 7902 C 736.425 5.21094 0.105315 0
M  V30 7903 C 733.753 5.85507 -0.374016 0
M  V30 7904 C 736.105 6.28509 -0.718298 0
M  V30 7905 C 734.769 6.60515 -0.963116 0
M  V30 7906 H 734.039 0.682157 0.289383 0
M  V30 7907 H 736.686 1.91429 0.0520961 0
M  V30 7908 H 734.991 3.12803 2.35927 0
M  V30 7909 H 736.688 3.41819 2.09669 0
M  V30 7910 H 733.278 4.19255 0.890137 0
M  V30 7911 H 737.462 4.95544 0.273856 0
M  V30 7912 H 732.718 6.08713 -0.572606 0
M  V30 7913 H 736.892 6.86268 -1.18362 0
M  V30 7914 H 734.519 7.42893 -1.6129 0
M  V30 7915 N 736.094 -0.359525 1.53444 0
M  V30 7916 C 737.322 -1.12198 1.73837 0
M  V30 7917 C 737.737 -1.82854 0.470107 0
M  V30 7918 O 737.094 -1.73781 -0.557349 0
M  V30 7919 C 737.145 -2.14769 2.90786 0
M  V30 7920 O 736.866 -1.46989 4.12706 0
M  V30 7921 C 738.367 -3.03514 3.231 0
M  V30 7922 H 735.587 -0.33524 0.581253 0
M  V30 7923 H 738.131 -0.416598 2.00212 0
M  V30 7924 H 736.286 -2.80896 2.66788 0
M  V30 7925 H 736.7 -2.15378 4.78239 0
M  V30 7926 H 738.174 -3.71453 4.08322 0
M  V30 7927 H 738.651 -3.68658 2.38721 0
M  V30 7928 H 739.257 -2.42996 3.49046 0
M  V30 7929 N 737.572 -1.44907 -0.619662 0
M  V30 7930 C 738.802 -1.51575 -1.40387 0
M  V30 7931 C 739.21 -0.14309 -1.88658 0
M  V30 7932 O 738.553 0.863403 -1.62145 0
M  V30 7933 C 738.615 -2.42858 -2.65067 0
M  V30 7934 C 738.279 -3.8982 -2.38515 0
M  V30 7935 C 739.276 -4.80047 -1.99627 0
M  V30 7936 C 736.961 -4.34628 -2.51801 0
M  V30 7937 C 738.955 -6.13086 -1.74369 0
M  V30 7938 C 736.642 -5.67712 -2.26156 0
M  V30 7939 C 737.64 -6.56759 -1.875 0
M  V30 7940 O 737.328 -7.87377 -1.62148 0
M  V30 7941 H 737.06 -0.51612 -0.436573 0
M  V30 7942 H 739.614 -1.90664 -0.763959 0
M  V30 7943 H 737.844 -1.98717 -3.31735 0
M  V30 7944 H 739.533 -2.40346 -3.27091 0
M  V30 7945 H 740.299 -4.46697 -1.8891 0
M  V30 7946 H 736.178 -3.65568 -2.80857 0
M  V30 7947 H 739.722 -6.8255 -1.44122 0
M  V30 7948 H 735.619 -6.0062 -2.36486 0
M  V30 7949 H 736.387 -7.99288 -1.763 0
M  V30 7950 N 739.05 0.861098 -1.31996 0
M  V30 7951 C 740.297 1.61481 -1.22188 0
M  V30 7952 C 740.625 1.93276 0.217853 0
M  V30 7953 O 739.88 1.56942 1.16909 0
M  V30 7954 C 740.179 2.94822 -2.02027 0
M  V30 7955 C 739.845 2.82483 -3.51446 0
M  V30 7956 C 738.507 2.78825 -3.92186 0
M  V30 7957 C 740.859 2.68878 -4.46491 0
M  V30 7958 C 738.187 2.59433 -5.26224 0
M  V30 7959 C 740.539 2.51022 -5.80664 0
M  V30 7960 C 739.203 2.45753 -6.20614 0
M  V30 7961 H 738.473 0.590902 -0.447119 0
M  V30 7962 H 741.12 0.999376 -1.63355 0
M  V30 7963 H 739.425 3.6045 -1.53569 0
M  V30 7964 H 741.122 3.52149 -1.91812 0
M  V30 7965 H 737.712 2.86152 -3.19085 0
M  V30 7966 H 741.896 2.70754 -4.1594 0
M  V30 7967 H 737.152 2.53784 -5.5624 0
M  V30 7968 H 741.326 2.39473 -6.53931 0
M  V30 7969 H 738.953 2.30485 -7.24417 0
M  V30 7970 N 740.528 1.15101 1.07655 0
M  V30 7971 C 741.758 0.946357 1.83651 0
M  V30 7972 C 742.166 -0.508641 1.82235 0
M  V30 7973 O 741.509 -1.36445 1.22997 0
M  V30 7974 C 741.571 1.37945 3.31981 0
M  V30 7975 C 741.235 2.85155 3.57122 0
M  V30 7976 C 742.232 3.83234 3.51323 0
M  V30 7977 C 739.917 3.2275 3.84887 0
M  V30 7978 C 741.911 5.16914 3.72932 0
M  V30 7979 C 739.598 4.56604 4.06148 0
M  V30 7980 C 740.596 5.53495 4.00165 0
M  V30 7981 O 740.284 6.84931 4.20861 0
M  V30 7982 H 740.016 0.336368 0.586372 0
M  V30 7983 H 742.57 1.53198 1.36819 0
M  V30 7984 H 740.8 0.737205 3.79608 0
M  V30 7985 H 742.489 1.14439 3.89434 0
M  V30 7986 H 743.255 3.55535 3.29878 0
M  V30 7987 H 739.134 2.47921 3.88659 0
M  V30 7988 H 742.678 5.92529 3.68178 0
M  V30 7989 H 738.575 4.84019 4.27078 0
M  V30 7990 H 739.343 6.91304 4.38226 0
M  V30 7991 N 742.006 -1.2595 0.947325 0
M  V30 7992 C 742.953 -2.26159 0.460497 0
M  V30 7993 C 743.923 -1.58919 -0.483125 0
M  V30 7994 O 745.108 -1.86603 -0.397983 0
M  V30 7995 C 742.248 -3.441 -0.26247 0
M  V30 7996 C 741.361 -4.25999 0.717539 0
M  V30 7997 C 740.496 -5.31193 -0.0272486 0
M  V30 7998 C 739.535 -6.04774 0.944177 0
M  V30 7999 N 738.672 -7.01721 0.230741 0
M  V30 8000 H 743.512 -2.67173 1.31995 0
M  V30 8001 H 741.049 -1.31358 0.662088 0
M  V30 8002 H 743.007 -4.11317 -0.698137 0
M  V30 8003 H 741.637 -3.03983 -1.08602 0
M  V30 8004 H 740.689 -3.58513 1.27171 0
M  V30 8005 H 742.001 -4.76981 1.45913 0
M  V30 8006 H 741.155 -6.04451 -0.521903 0
M  V30 8007 H 739.894 -4.81066 -0.801682 0
M  V30 8008 H 738.899 -5.30338 1.4499 0
M  V30 8009 H 740.124 -6.56991 1.71872 0
M  V30 8010 H 738.07 -6.53895 -0.525088 0
M  V30 8011 H 737.987 -7.50484 0.911556 0
M  V30 8012 H 739.255 -7.79122 -0.242616 0
M  V30 8013 N 743.484 -0.715051 -1.40445 0
M  V30 8014 C 744.732 -0.253826 -2.005 0
M  V30 8015 C 745.053 1.15681 -1.5698 0
M  V30 8016 O 744.323 1.78414 -0.809027 0
M  V30 8017 H 742.903 -0.0908537 -0.741454 0
M  V30 8018 H 745.565 -0.920561 -1.7179 0
M  V30 8019 H 744.661 -0.286499 -3.10782 0
M  V30 8020 N 744.962 1.50701 -0.461195 0
M  V30 8021 C 745.909 2.2831 0.338094 0
M  V30 8022 C 746.879 1.32928 0.995957 0
M  V30 8023 O 748.064 1.61857 1.0103 0
M  V30 8024 C 745.204 3.14539 1.41983 0
M  V30 8025 C 744.317 4.24942 0.77773 0
M  V30 8026 C 743.452 4.98443 1.83652 0
M  V30 8027 C 742.491 6.00733 1.17413 0
M  V30 8028 N 741.628 6.6755 2.17533 0
M  V30 8029 H 746.468 2.96167 -0.330051 0
M  V30 8030 H 744.005 1.4606 -0.174611 0
M  V30 8031 H 745.963 3.62877 2.05855 0
M  V30 8032 H 744.593 2.48749 2.05727 0
M  V30 8033 H 743.645 3.80391 0.0266924 0
M  V30 8034 H 744.957 4.98151 0.254362 0
M  V30 8035 H 744.111 5.50449 2.55129 0
M  V30 8036 H 742.85 4.24917 2.39367 0
M  V30 8037 H 741.855 5.47997 0.444944 0
M  V30 8038 H 743.08 6.76227 0.624006 0
M  V30 8039 H 741.026 5.96823 2.72284 0
M  V30 8040 H 740.943 7.36603 1.70154 0
M  V30 8041 H 742.211 7.24178 2.88421 0
M  V30 8042 N 746.441 0.193421 1.56409 0
M  V30 8043 C 747.351 -0.740112 2.2262 0
M  V30 8044 C 748.367 -1.23597 1.22474 0
M  V30 8045 O 749.543 -1.28348 1.55206 0
M  V30 8046 C 746.608 -1.94317 2.87127 0
M  V30 8047 C 745.669 -1.49205 4.02538 0
M  V30 8048 C 744.902 -2.63776 4.63959 0
M  V30 8049 O 745.125 -3.81215 4.24301 0
M  V30 8050 O 744.059 -2.36585 5.53454 0
M  V30 8051 H 747.885 -0.206238 3.02999 0
M  V30 8052 H 745.47 -0.0357938 1.49357 0
M  V30 8053 H 747.352 -2.64633 3.27944 0
M  V30 8054 H 746.027 -2.46568 2.09728 0
M  V30 8055 H 744.934 -0.757738 3.66346 0
M  V30 8056 H 746.267 -1.01622 4.81595 0
M  V30 8057 N 747.919 -1.57396 -0.0801906 0
M  V30 8058 C 749.149 -1.90778 -0.792924 0
M  V30 8059 C 749.557 -0.786814 -1.72064 0
M  V30 8060 O 748.9 0.249259 -1.82001 0
M  V30 8061 C 748.962 -3.19552 -1.64702 0
M  V30 8062 C 748.626 -4.48259 -0.889567 0
M  V30 8063 C 749.623 -5.19465 -0.212602 0
M  V30 8064 C 747.308 -4.94896 -0.859229 0
M  V30 8065 C 749.302 -6.35555 0.484566 0
M  V30 8066 C 746.989 -6.10895 -0.158284 0
M  V30 8067 C 747.987 -6.81075 0.512421 0
M  V30 8068 O 747.675 -7.94862 1.20209 0
M  V30 8069 H 747.407 -0.63527 -0.231103 0
M  V30 8070 H 749.961 -2.0532 -0.0573081 0
M  V30 8071 H 748.191 -3.01196 -2.42524 0
M  V30 8072 H 749.88 -3.38649 -2.23767 0
M  V30 8073 H 750.646 -4.84467 -0.227403 0
M  V30 8074 H 746.525 -4.4015 -1.37073 0
M  V30 8075 H 750.069 -6.9027 1.00864 0
M  V30 8076 H 745.966 -6.45345 -0.141381 0
M  V30 8077 H 746.734 -8.10932 1.11051 0
M  V30 8078 N 749.397 0.351382 -1.53633 0
M  V30 8079 C 750.643 1.09049 -1.71697 0
M  V30 8080 C 750.998 1.86563 -0.470314 0
M  V30 8081 O 750.291 1.83922 0.536954 0
M  V30 8082 C 750.485 2.06744 -2.91533 0
M  V30 8083 C 750.314 1.38832 -4.27733 0
M  V30 8084 C 749.084 1.13646 -4.92354 0
M  V30 8085 C 751.282 0.818602 -5.07743 0
M  V30 8086 N 749.264 0.422324 -6.12446 0
M  V30 8087 C 750.635 0.234602 -6.19556 0
M  V30 8088 C 752.69 0.718679 -4.92686 0
M  V30 8089 C 751.393 -0.439592 -7.17955 0
M  V30 8090 C 753.419 0.0582402 -5.91371 0
M  V30 8091 C 752.781 -0.514823 -7.02516 0
M  V30 8092 H 748.88 0.383697 -0.681396 0
M  V30 8093 H 751.464 0.375063 -1.91053 0
M  V30 8094 H 749.635 2.75586 -2.73691 0
M  V30 8095 H 751.367 2.73436 -2.98353 0
M  V30 8096 H 748.122 1.4215 -4.51764 0
M  V30 8097 H 748.546 0.0802092 -6.76952 0
M  V30 8098 H 753.188 1.14748 -4.06931 0
M  V30 8099 H 750.906 -0.880307 -8.03291 0
M  V30 8100 H 754.492 -0.0183382 -5.81797 0
M  V30 8101 H 753.372 -1.01777 -7.77567 0
M  V30 8102 N 750.875 1.45233 0.611969 0
M  V30 8103 C 751.822 1.5357 1.72293 0
M  V30 8104 C 752.792 0.381912 1.6165 0
M  V30 8105 O 753.977 0.594765 1.81293 0
M  V30 8106 C 751.117 1.50419 3.10593 0
M  V30 8107 C 750.23 2.76316 3.32074 0
M  V30 8108 C 749.365 2.64866 4.60456 0
M  V30 8109 C 748.404 3.85838 4.7518 0
M  V30 8110 N 747.541 3.72949 5.94856 0
M  V30 8111 H 752.381 2.4848 1.64504 0
M  V30 8112 H 749.918 1.23302 0.802191 0
M  V30 8113 H 751.876 1.4658 3.90602 0
M  V30 8114 H 750.506 0.590621 3.17351 0
M  V30 8115 H 749.558 2.90261 2.45872 0
M  V30 8116 H 750.87 3.66055 3.38829 0
M  V30 8117 H 750.024 2.58969 5.48653 0
M  V30 8118 H 748.763 1.72719 4.56092 0
M  V30 8119 H 747.768 3.92099 3.85407 0
M  V30 8120 H 748.993 4.79045 4.81344 0
M  V30 8121 H 746.939 2.83567 5.91545 0
M  V30 8122 H 746.856 4.56319 6.02751 0
M  V30 8123 H 748.124 3.70976 6.85563 0
M  V30 8124 N 752.353 -0.854086 1.3245 0
M  V30 8125 C 753.6 -1.60831 1.23043 0
M  V30 8126 C 753.928 -1.93389 -0.2076 0
M  V30 8127 O 753.183 -1.5756 -1.16075 0
M  V30 8128 C 753.482 -2.93746 2.03587 0
M  V30 8129 C 753.148 -2.80615 3.52939 0
M  V30 8130 C 751.81 -2.76742 3.93659 0
M  V30 8131 C 754.162 -2.66507 4.4791 0
M  V30 8132 C 751.49 -2.56638 5.27592 0
M  V30 8133 C 753.842 -2.47939 5.81987 0
M  V30 8134 C 752.506 -2.42458 6.21909 0
M  V30 8135 H 751.776 -0.588523 0.450247 0
M  V30 8136 H 754.423 -0.990699 1.63882 0
M  V30 8137 H 752.728 -3.5963 1.55478 0
M  V30 8138 H 754.425 -3.51127 1.93677 0
M  V30 8139 H 751.015 -2.84456 3.20598 0
M  V30 8140 H 755.199 -2.68544 4.1737 0
M  V30 8141 H 750.455 -2.50831 5.57579 0
M  V30 8142 H 754.629 -2.36002 6.55192 0
M  V30 8143 H 752.256 -2.2664 7.2563 0
M  V30 8144 N 753.831 -1.1567 -1.07043 0
M  V30 8145 C 754.779 -0.852204 -2.16426 0
M  V30 8146 C 755.773 0.175661 -1.68487 0
M  V30 8147 O 756.979 0.0303874 -1.79974 0
M  V30 8148 H 753.354 -0.257942 -0.706378 0
M  V30 8149 H 755.325 -1.78231 -2.39324 0
M  V30 8150 C 754.074 -0.361362 -3.45817 0
M  V30 8151 H 753.397 -1.14369 -3.83092 0
M  V30 8152 H 754.837 -0.186997 -4.23587 0
M  V30 8153 C 753.296 0.917703 -3.2416 0
M  V30 8154 O 753.826 1.98858 -3.49025 0
M  V30 8155 N 752.032 0.858456 -2.77631 0
M  V30 8156 H 751.579 -0.0131821 -2.57597 0
M  V30 8157 H 751.537 1.71478 -2.6352 0
M  V30 8158 N 755.309 1.25446 -0.953992 0
M  V30 8159 C 756.257 2.27909 -0.46478 0
M  V30 8160 C 757.251 1.62904 0.464607 0
M  V30 8161 O 758.457 1.76733 0.341407 0
M  V30 8162 H 754.832 0.74036 -0.131798 0
M  V30 8163 H 756.803 2.66559 -1.34122 0
M  V30 8164 C 755.552 3.46853 0.242589 0
M  V30 8165 H 754.875 3.97105 -0.463418 0
M  V30 8166 H 756.315 4.20432 0.548919 0
M  V30 8167 C 754.774 3.03386 1.46487 0
M  V30 8168 O 755.304 3.09342 2.56262 0
M  V30 8169 N 753.51 2.58584 1.32599 0
M  V30 8170 H 753.057 2.53938 0.432834 0
M  V30 8171 H 753.015 2.29866 2.14497 0
M  V30 8172 N 756.787 0.722489 1.40064 0
M  V30 8173 C 757.719 0.0349057 2.29173 0
M  V30 8174 C 758.732 -0.716571 1.46182 0
M  V30 8175 O 759.921 -0.562806 1.69395 0
M  V30 8176 C 757.021 -0.974839 3.24577 0
M  V30 8177 C 756.194 -0.287471 4.36454 0
M  V30 8178 C 755.253 -1.20356 5.12251 0
M  V30 8179 O 754.279 -0.685753 5.65054 0
M  V30 8180 N 755.481 -2.53422 5.22262 0
M  V30 8181 H 758.246 0.800058 2.88824 0
M  V30 8182 H 755.807 0.57068 1.51509 0
M  V30 8183 H 757.799 -1.59002 3.72157 0
M  V30 8184 H 756.369 -1.6413 2.66046 0
M  V30 8185 H 755.589 0.508008 3.90913 0
M  V30 8186 H 756.877 0.189382 5.08447 0
M  V30 8187 H 756.275 -2.97981 4.80857 0
M  V30 8188 H 754.832 -3.10067 5.73325 0
M  V30 8189 N 758.265 -1.50454 0.469181 0
M  V30 8190 C 759.514 -2.01507 -0.0881425 0
M  V30 8191 C 759.827 -1.35613 -1.40956 0
M  V30 8192 O 761.033 -1.77812 -2.05171 0
M  V30 8193 C 759.489 -3.59301 -0.207596 0
M  V30 8194 C 759.097 -4.34152 1.10527 0
M  V30 8195 C 760.841 -4.18401 -0.716981 0
M  V30 8196 C 758.748 -5.83725 0.949717 0
M  V30 8197 H 757.678 -0.753106 -0.0367156 0
M  V30 8198 H 760.329 -1.73282 0.603788 0
M  V30 8199 H 758.711 -3.84106 -0.963265 0
M  V30 8200 H 759.885 -4.21073 1.87175 0
M  V30 8201 H 758.2 -3.86652 1.54562 0
M  V30 8202 H 760.797 -5.27895 -0.850363 0
M  V30 8203 H 761.14 -3.79657 -1.70782 0
M  V30 8204 H 761.673 -3.97796 -0.0187511 0
M  V30 8205 H 758.412 -6.26938 1.91387 0
M  V30 8206 H 757.932 -5.99383 0.223591 0
M  V30 8207 H 759.611 -6.44065 0.61557 0
M  V30 8208 N 759.743 -0.201713 -1.56304 0
M  V30 8209 C 760.673 0.71155 -2.22394 0
M  V30 8210 C 761.654 1.21625 -1.18917 0
M  V30 8211 O 762.839 1.26388 -1.47444 0
M  V30 8212 C 759.969 1.92837 -2.88845 0
M  V30 8213 C 758.923 1.55831 -3.98623 0
M  V30 8214 C 758.249 2.85228 -4.52271 0
M  V30 8215 C 759.549 0.763249 -5.16693 0
M  V30 8216 H 761.243 0.160573 -2.98969 0
M  V30 8217 H 758.789 0.0757916 -1.438 0
M  V30 8218 H 760.742 2.57253 -3.33764 0
M  V30 8219 H 759.466 2.50398 -2.09686 0
M  V30 8220 H 758.125 0.9377 -3.54405 0
M  V30 8221 H 757.773 3.40893 -3.69866 0
M  V30 8222 H 757.473 2.6121 -5.26349 0
M  V30 8223 H 758.997 3.50622 -4.99897 0
M  V30 8224 H 760.411 1.31066 -5.58117 0
M  V30 8225 H 758.808 0.620935 -5.96879 0
M  V30 8226 H 759.878 -0.234322 -4.84334 0
M  V30 8227 N 761.222 1.57436 0.0718424 0
M  V30 8228 C 762.169 2.03686 1.08539 0
M  V30 8229 C 763.139 0.917474 1.38462 0
M  V30 8230 O 764.324 1.18513 1.4953 0
M  V30 8231 C 761.464 2.48566 2.39393 0
M  V30 8232 C 760.577 3.74122 2.16001 0
M  V30 8233 C 759.712 4.07786 3.40418 0
M  V30 8234 C 758.751 5.26383 3.1239 0
M  V30 8235 N 757.888 5.55685 4.29138 0
M  V30 8236 H 762.728 2.90043 0.684018 0
M  V30 8237 H 760.265 1.43438 0.326183 0
M  V30 8238 H 762.223 2.72639 3.15791 0
M  V30 8239 H 760.853 1.65186 2.77333 0
M  V30 8240 H 759.905 3.57389 1.30296 0
M  V30 8241 H 761.217 4.60659 1.91298 0
M  V30 8242 H 760.371 4.32759 4.25211 0
M  V30 8243 H 759.11 3.19817 3.68197 0
M  V30 8244 H 758.115 5.01206 2.25993 0
M  V30 8245 H 759.34 6.1597 2.85934 0
M  V30 8246 H 757.286 4.70675 4.56948 0
M  V30 8247 H 757.203 6.3664 4.07708 0
M  V30 8248 H 758.471 5.85209 5.14928 0
M  V30 8249 N 762.7 -0.34323 1.53817 0
M  V30 8250 C 763.946 -1.08504 1.71332 0
M  V30 8251 C 764.279 -1.88294 0.475285 0
M  V30 8252 O 763.554 -1.87205 -0.527688 0
M  V30 8253 C 763.837 -2.02597 2.97702 0
M  V30 8254 C 763.69 -1.26268 4.31713 0
M  V30 8255 C 765.009 -3.0241 3.19744 0
M  V30 8256 H 762.128 -0.393072 0.623429 0
M  V30 8257 H 764.77 -0.363579 1.86489 0
M  V30 8258 H 762.92 -2.64118 2.8491 0
M  V30 8259 H 764.592 -0.673594 4.56356 0
M  V30 8260 H 762.835 -0.564696 4.30109 0
M  V30 8261 H 763.506 -1.95253 5.16314 0
M  V30 8262 H 765.982 -2.51004 3.31868 0
M  V30 8263 H 764.858 -3.65449 4.09558 0
M  V30 8264 H 765.119 -3.73806 2.36054 0
M  V30 8265 N 764.178 -1.45556 -0.604258 0
M  V30 8266 C 765.088 -1.57025 -1.74299 0
M  V30 8267 C 766.104 -0.45456 -1.67958 0
M  V30 8268 O 767.28 -0.715711 -1.88254 0
M  V30 8269 C 764.345 -1.53702 -3.10768 0
M  V30 8270 C 763.406 -2.76335 -3.28538 0
M  V30 8271 C 762.639 -2.73161 -4.58496 0
M  V30 8272 O 762.862 -1.80678 -5.41028 0
M  V30 8273 O 761.796 -3.64409 -4.79051 0
M  V30 8274 H 765.622 -2.53284 -1.67573 0
M  V30 8275 H 763.207 -1.28104 -0.768745 0
M  V30 8276 H 765.089 -1.54468 -3.92068 0
M  V30 8277 H 763.764 -0.605957 -3.17978 0
M  V30 8278 H 762.671 -2.8113 -2.46813 0
M  V30 8279 H 764.004 -3.68578 -3.26207 0
M  V30 8280 N 765.656 0.84705 -1.32902 0
M  V30 8281 C 767.067 1.41785 -1.21466 0
M  V30 8282 C 767.418 1.95464 0.169767 0
M  V30 8283 O 766.543 1.88157 1.06892 0
M  V30 8284 C 767.138 2.57734 -2.19906 0
M  V30 8285 C 765.697 3.10791 -2.12334 0
M  V30 8286 C 764.844 1.83562 -2.07847 0
M  V30 8287 H 767.795 0.653532 -1.44619 0
M  V30 8288 H 767.816 3.35123 -1.80202 0
M  V30 8289 H 767.328 2.18635 -3.20656 0
M  V30 8290 H 765.429 3.54455 -1.14858 0
M  V30 8291 H 765.542 3.71519 -3.02506 0
M  V30 8292 H 763.906 2.03475 -1.53199 0
M  V30 8293 H 764.689 1.4667 -3.10392 0
M  V30 8294 N 767.134 1.16236 1.06428 0
M  V30 8295 C 768.382 0.941171 1.78847 0
M  V30 8296 C 768.703 -0.53248 1.87589 0
M  V30 8297 O 767.973 -1.38686 1.38358 0
M  V30 8298 H 766.553 0.345228 0.66244 0
M  V30 8299 H 769.215 1.46479 1.28569 0
M  V30 8300 H 768.311 1.35871 2.80972 0
M  V30 8301 N 768.612 -1.24939 0.960631 0
M  V30 8302 C 769.842 -1.96595 0.635123 0
M  V30 8303 C 770.25 -1.71538 -0.798206 0
M  V30 8304 O 769.593 -0.991727 -1.5463 0
M  V30 8305 C 769.655 -3.49994 0.821248 0
M  V30 8306 C 769.319 -3.98738 2.23287 0
M  V30 8307 C 770.316 -4.08965 3.21004 0
M  V30 8308 C 768.001 -4.32247 2.55867 0
M  V30 8309 C 769.995 -4.52025 4.49391 0
M  V30 8310 C 767.682 -4.74991 3.84482 0
M  V30 8311 C 768.68 -4.84844 4.81056 0
M  V30 8312 O 768.368 -5.26638 6.07378 0
M  V30 8313 H 768.1 -0.633265 0.23654 0
M  V30 8314 H 770.654 -1.5991 1.28911 0
M  V30 8315 H 768.884 -3.86543 0.110105 0
M  V30 8316 H 770.573 -4.02859 0.495892 0
M  V30 8317 H 771.339 -3.83302 2.97161 0
M  V30 8318 H 767.218 -4.23801 1.81421 0
M  V30 8319 H 770.762 -4.5963 5.24773 0
M  V30 8320 H 766.659 -5.00101 4.08129 0
M  V30 8321 H 767.427 -5.44807 6.10842 0
M  V30 8322 N 770.09 -0.729906 -1.39679 0
M  V30 8323 C 771.501 -0.346241 -1.83461 0
M  V30 8324 C 771.852 1.1215 -1.60987 0
M  V30 8325 O 770.977 1.86456 -1.09832 0
M  V30 8326 C 771.572 -0.621656 -3.33048 0
M  V30 8327 C 770.131 -0.291543 -3.75269 0
M  V30 8328 C 769.278 -0.886844 -2.62736 0
M  V30 8329 H 772.229 -0.927949 -1.28743 0
M  V30 8330 H 772.25 0.108301 -3.80346 0
M  V30 8331 H 771.762 -1.68996 -3.49373 0
M  V30 8332 H 769.863 0.771133 -3.64533 0
M  V30 8333 H 769.976 -0.770544 -4.72863 0
M  V30 8334 H 768.34 -0.313839 -2.52759 0
M  V30 8335 H 769.123 -1.95971 -2.81869 0
M  V30 8336 N 771.568 1.50203 -0.477153 0
M  V30 8337 C 772.984 1.59056 -0.131663 0
M  V30 8338 C 773.184 1.48473 1.36227 0
M  V30 8339 O 772.24 1.34635 2.13611 0
M  V30 8340 C 773.553 2.92741 -0.687254 0
M  V30 8341 C 775.101 3.0615 -0.651223 0
M  V30 8342 C 775.576 4.42419 -1.18446 0
M  V30 8343 N 777.067 4.48847 -1.14413 0
M  V30 8344 C 777.802 5.52689 -1.52717 0
M  V30 8345 N 777.298 6.63754 -1.98499 0
M  V30 8346 N 779.091 5.43267 -1.44282 0
M  V30 8347 H 771.242 1.55325 -1.44872 0
M  V30 8348 H 773.505 0.734395 -0.599473 0
M  V30 8349 H 773.211 3.0598 -1.73405 0
M  V30 8350 H 773.085 3.76961 -0.134215 0
M  V30 8351 H 775.472 2.92556 0.386677 0
M  V30 8352 H 775.553 2.23673 -1.24114 0
M  V30 8353 H 775.197 4.56763 -2.22103 0
M  V30 8354 H 775.127 5.23498 -0.570709 0
M  V30 8355 H 777.618 3.69152 -0.808416 0
M  V30 8356 H 777.931 7.39059 -2.25859 0
M  V30 8357 H 776.276 6.64858 -2.02456 0
M  V30 8358 H 779.467 4.55387 -1.08352 0
M  V30 8359 H 779.64 6.24074 -1.74459 0
M  V30 8360 N 773.046 0.209999 1.56195 0
M  V30 8361 C 774.271 -0.433064 2.02828 0
M  V30 8362 C 774.696 -1.5337 1.08901 0
M  V30 8363 O 774.054 -1.81144 0.0751132 0
M  V30 8364 C 774.102 -0.952635 3.47789 0
M  V30 8365 O 773.206 -2.0647 3.56993 0
M  V30 8366 H 772.547 -0.0994594 0.656509 0
M  V30 8367 H 775.077 0.32525 2.01998 0
M  V30 8368 H 775.087 -1.26542 3.8788 0
M  V30 8369 H 773.762 -0.147007 4.1564 0
M  V30 8370 H 772.339 -1.75942 3.28784 0
M  V30 8371 N 774.524 -1.57472 -0.0634922 0
M  V30 8372 C 775.773 -1.86837 -0.759928 0
M  V30 8373 C 776.086 -0.803823 -1.7832 0
M  V30 8374 O 777.292 -0.985578 -2.52979 0
M  V30 8375 C 775.748 -3.31448 -1.4025 0
M  V30 8376 C 775.356 -4.46052 -0.417368 0
M  V30 8377 C 777.1 -3.70003 -2.08082 0
M  V30 8378 C 775.007 -5.81707 -1.06633 0
M  V30 8379 H 773.937 -0.697009 -0.287567 0
M  V30 8380 H 776.588 -1.83495 -0.0133914 0
M  V30 8381 H 774.97 -3.29427 -2.19759 0
M  V30 8382 H 776.144 -4.5948 0.348503 0
M  V30 8383 H 774.459 -4.16104 0.156955 0
M  V30 8384 H 777.056 -4.68653 -2.57426 0
M  V30 8385 H 777.399 -3.00226 -2.88393 0
M  V30 8386 H 777.932 -3.7405 -1.35394 0
M  V30 8387 H 774.671 -6.54798 -0.303374 0
M  V30 8388 H 774.191 -5.72064 -1.80286 0
M  V30 8389 H 775.87 -6.27317 -1.58376 0
M  V30 8390 N 776.003 0.335068 -1.53997 0
M  V30 8391 C 776.933 1.41727 -1.85568 0
M  V30 8392 C 777.914 1.54505 -0.7115 0
M  V30 8393 O 779.099 1.68573 -0.964191 0
M  V30 8394 C 776.229 2.7866 -2.07282 0
M  V30 8395 C 775.183 2.80682 -3.23112 0
M  V30 8396 C 774.509 4.20581 -3.30175 0
M  V30 8397 C 775.809 2.45458 -4.61029 0
M  V30 8398 H 777.503 1.15555 -2.76202 0
M  V30 8399 H 775.049 0.554445 -1.32898 0
M  V30 8400 H 777.002 3.54423 -2.27952 0
M  V30 8401 H 775.726 3.06286 -1.13387 0
M  V30 8402 H 774.385 2.07373 -3.02311 0
M  V30 8403 H 774.033 4.4533 -2.33859 0
M  V30 8404 H 773.733 4.22843 -4.08016 0
M  V30 8405 H 775.257 4.98174 -3.53066 0
M  V30 8406 H 776.671 3.10934 -4.81656 0
M  V30 8407 H 775.068 2.5899 -5.41336 0
M  V30 8408 H 776.138 1.40628 -4.6406 0
M  V30 8409 N 777.481 1.45874 0.596531 0
M  V30 8410 C 778.428 1.55389 1.70655 0
M  V30 8411 C 779.398 0.399036 1.61236 0
M  V30 8412 O 780.583 0.61396 1.80652 0
M  V30 8413 C 777.723 1.53705 3.0898 0
M  V30 8414 C 776.836 2.79823 3.29125 0
M  V30 8415 C 775.971 2.69735 4.5762 0
M  V30 8416 C 775.01 3.90856 4.71061 0
M  V30 8417 N 774.147 3.79237 5.90867 0
M  V30 8418 H 778.987 2.50211 1.61859 0
M  V30 8419 H 776.524 1.24146 0.789069 0
M  V30 8420 H 778.482 1.50715 3.89026 0
M  V30 8421 H 777.112 0.624247 3.16706 0
M  V30 8422 H 776.164 2.92852 2.42779 0
M  V30 8423 H 777.476 3.69628 3.34927 0
M  V30 8424 H 776.63 2.64773 5.45875 0
M  V30 8425 H 775.369 1.77547 4.54234 0
M  V30 8426 H 774.374 3.96164 3.81227 0
M  V30 8427 H 775.599 4.84124 4.76236 0
M  V30 8428 H 773.545 2.89825 5.88504 0
M  V30 8429 H 773.462 4.62686 5.97877 0
M  V30 8430 H 774.73 3.78227 6.8159 0
M  V30 8431 N 778.959 -0.83999 1.33349 0
M  V30 8432 C 780.236 -1.57973 1.15342 0
M  V30 8433 C 780.616 -2.09226 -0.280632 0
M  V30 8434 O 779.964 -1.89317 -1.2795 0
M  V30 8435 C 780.174 -2.71446 2.19359 0
M  V30 8436 C 781.522 -3.40654 2.53456 0
M  V30 8437 O 782.546 -2.81686 2.18017 0
M  V30 8438 O 781.405 -4.47101 3.14266 0
M  V30 8439 H 778.499 -0.6964 0.446044 0
M  V30 8440 H 781.045 -0.882843 1.44927 0
M  V30 8441 H 779.817 -2.31205 3.1569 0
M  V30 8442 H 779.44 -3.488 1.90852 0
M  V30 8443 N 780.437 -1.16799 -1.0581 0
M  V30 8444 C 781.684 -0.952524 -1.78699 0
M  V30 8445 C 782.012 0.51931 -1.87439 0
M  V30 8446 O 781.267 1.40151 -1.36587 0
M  V30 8447 C 781.566 -1.53111 -3.22942 0
M  V30 8448 C 781.232 -3.0261 -3.34273 0
M  V30 8449 C 779.894 -3.43418 -3.37072 0
M  V30 8450 C 782.246 -3.98611 -3.35795 0
M  V30 8451 C 779.574 -4.78838 -3.39015 0
M  V30 8452 C 781.926 -5.33923 -3.39277 0
M  V30 8453 C 780.59 -5.74205 -3.40361 0
M  V30 8454 H 779.86 -0.348553 -0.653905 0
M  V30 8455 H 782.507 -1.45591 -1.244 0
M  V30 8456 H 780.812 -0.949286 -3.80126 0
M  V30 8457 H 782.509 -1.34002 -3.77948 0
M  V30 8458 H 779.099 -2.70075 -3.32803 0
M  V30 8459 H 783.283 -3.68146 -3.32839 0
M  V30 8460 H 778.539 -5.09369 -3.38161 0
M  V30 8461 H 782.713 -6.08094 -3.39403 0
M  V30 8462 H 780.34 -6.79117 -3.4162 0
M  V30 8463 N 781.915 1.24427 -0.967243 0
M  V30 8464 C 782.848 2.23885 -0.441683 0
M  V30 8465 C 783.826 1.55231 0.483963 0
M  V30 8466 O 785.01 1.83865 0.415445 0
M  V30 8467 C 782.137 3.36755 0.362458 0
M  V30 8468 C 781.183 4.23495 -0.505407 0
M  V30 8469 S 782.016 4.98916 -1.94534 0
M  V30 8470 C 783.172 6.15245 -1.14997 0
M  V30 8471 H 783.405 2.68118 -1.28453 0
M  V30 8472 H 780.938 1.337 -0.772243 0
M  V30 8473 H 782.896 4.02218 0.820445 0
M  V30 8474 H 781.557 2.91081 1.18027 0
M  V30 8475 H 780.75 5.03876 0.111979 0
M  V30 8476 H 780.352 3.63032 -0.899104 0
M  V30 8477 H 782.644 6.7629 -0.404769 0
M  V30 8478 H 783.587 6.81343 -1.92814 0
M  V30 8479 H 783.995 5.60455 -0.674543 0
M  V30 8480 N 783.393 0.737304 1.3929 0
M  V30 8481 C 784.641 0.285691 2.00071 0
M  V30 8482 C 784.962 -1.13169 1.58801 0
M  V30 8483 O 784.232 -1.77104 0.837308 0
M  V30 8484 H 782.812 0.102638 0.739915 0
M  V30 8485 H 785.474 0.947775 1.70303 0
M  V30 8486 H 784.57 0.335906 3.10287 0
M  V30 8487 N 784.871 -1.49948 0.485112 0
M  V30 8488 C 786.111 -2.04301 -0.0635728 0
M  V30 8489 C 786.475 -1.35804 -1.35725 0
M  V30 8490 O 787.676 -1.80789 -1.98919 0
M  V30 8491 C 785.947 -3.56666 -0.228962 0
M  V30 8492 S 787.506 -4.32614 -0.734185 0
M  V30 8493 H 784.324 -0.710939 -0.00931895 0
M  V30 8494 H 786.926 -1.84185 0.655455 0
M  V30 8495 H 785.63 -4.04068 0.718148 0
M  V30 8496 H 785.161 -3.8116 -0.973696 0
M  V30 8497 H 787.176 -4.53859 -2.00565 0
M  V30 8498 N 786.349 -0.21828 -1.56081 0
M  V30 8499 C 787.626 0.463143 -1.90038 0
M  V30 8500 C 788.006 1.77982 -1.13515 0
M  V30 8501 O 787.354 2.27199 -0.24345 0
M  V30 8502 C 787.564 0.659292 -3.42716 0
M  V30 8503 C 788.912 0.968203 -4.13414 0
M  V30 8504 O 789.936 0.746195 -3.48296 0
M  V30 8505 O 788.795 1.38936 -5.28544 0
M  V30 8506 H 785.889 0.244435 -0.790051 0
M  V30 8507 H 788.435 -0.260221 -1.67693 0
M  V30 8508 H 787.207 -0.269584 -3.9037 0
M  V30 8509 H 786.83 1.43426 -3.7083 0
M  V30 8510 N 787.827 1.57504 0.0551401 0
M  V30 8511 C 789.075 1.87684 0.74962 0
M  V30 8512 C 789.396 0.812547 1.77264 0
M  V30 8513 O 788.666 -0.15694 1.9527 0
M  V30 8514 H 787.246 0.6926 0.279846 0
M  V30 8515 H 789.908 1.94881 0.0272745 0
M  V30 8516 H 789.004 2.85734 1.25548 0
M  V30 8517 N 789.305 -0.326896 1.54172 0
M  V30 8518 C 790.716 -0.901533 1.63491 0
M  V30 8519 C 791.067 -1.88994 0.52684 0
M  V30 8520 O 790.192 -2.137 -0.340794 0
M  V30 8521 C 790.787 -1.64192 2.96355 0
M  V30 8522 C 789.346 -2.16533 3.07881 0
M  V30 8523 C 788.493 -0.98966 2.59039 0
M  V30 8524 H 791.444 -0.104568 1.58355 0
M  V30 8525 H 791.465 -2.50592 2.86328 0
M  V30 8526 H 790.977 -0.922291 3.76982 0
M  V30 8527 H 789.078 -2.91622 2.31922 0
M  V30 8528 H 789.191 -2.41762 4.13628 0
M  V30 8529 H 787.555 -1.36787 2.14852 0
M  V30 8530 H 788.338 -0.284401 3.4212 0
M  V30 8531 N 790.784 -1.46188 -0.588786 0
M  V30 8532 C 792.012 -1.54743 -1.37339 0
M  V30 8533 C 792.427 -0.186446 -1.87877 0
M  V30 8534 O 791.784 0.815247 -1.63279 0
M  V30 8535 C 791.835 -2.54727 -2.56508 0
M  V30 8536 O 791.556 -3.85539 -2.08066 0
M  V30 8537 C 793.057 -2.73163 -3.49137 0
M  V30 8538 H 790.277 -0.523484 -0.419768 0
M  V30 8539 H 792.821 -1.91543 -0.716345 0
M  V30 8540 H 790.976 -2.20948 -3.18215 0
M  V30 8541 H 791.39 -4.39905 -2.85629 0
M  V30 8542 H 792.864 -3.47057 -4.2925 0
M  V30 8543 H 793.341 -1.79856 -4.00685 0
M  V30 8544 H 793.947 -3.08014 -2.9327 0
M  V30 8545 N 792.262 0.832906 -1.33792 0
M  V30 8546 C 793.539 1.57359 -1.16178 0
M  V30 8547 C 793.919 2.09372 0.269532 0
M  V30 8548 O 793.267 1.89993 1.26944 0
M  V30 8549 C 793.477 2.70279 -2.20795 0
M  V30 8550 C 794.825 3.39305 -2.55259 0
M  V30 8551 O 795.849 2.80526 -2.19508 0
M  V30 8552 O 794.708 4.45428 -3.16632 0
M  V30 8553 H 791.802 0.694025 -0.449731 0
M  V30 8554 H 794.348 0.875144 -1.45394 0
M  V30 8555 H 793.12 2.29527 -3.16911 0
M  V30 8556 H 792.743 3.47782 -1.927 0
M  V30 8557 N 793.74 1.17359 1.05189 0
M  V30 8558 C 795.156 0.920861 1.30355 0
M  V30 8559 C 795.356 -0.419993 1.97074 0
M  V30 8560 O 794.412 -1.15696 2.24434 0
M  V30 8561 C 795.725 2.07818 2.1733 0
M  V30 8562 C 797.273 2.1152 2.30712 0
M  V30 8563 C 797.748 3.26637 3.21048 0
M  V30 8564 N 799.239 3.26426 3.28634 0
M  V30 8565 C 799.974 4.12141 3.98657 0
M  V30 8566 N 799.47 5.07966 4.71107 0
M  V30 8567 N 801.263 4.00091 3.94821 0
M  V30 8568 H 793.414 2.03666 0.602821 0
M  V30 8569 H 795.677 0.889294 0.328421 0
M  V30 8570 H 795.383 3.04727 1.75597 0
M  V30 8571 H 795.257 2.02922 3.17966 0
M  V30 8572 H 797.644 1.15196 2.71687 0
M  V30 8573 H 797.725 2.20477 1.29706 0
M  V30 8574 H 797.369 4.23227 2.80788 0
M  V30 8575 H 797.299 3.14917 4.2206 0
M  V30 8576 H 799.79 2.57045 2.77013 0
M  V30 8577 H 800.103 5.69766 5.22099 0
M  V30 8578 H 798.448 5.11936 4.7005 0
M  V30 8579 H 801.639 3.24523 3.37346 0
M  V30 8580 H 801.812 4.6711 4.49123 0
M  V30 8581 N 795.218 -1.23913 0.973828 0
M  V30 8582 C 796.464 -1.92436 0.640026 0
M  V30 8583 C 796.797 -1.75875 -0.823512 0
M  V30 8584 O 796.072 -1.11563 -1.59323 0
M  V30 8585 C 796.355 -3.4526 1.0231 0
M  V30 8586 C 796.208 -3.70961 2.54378 0
M  V30 8587 C 797.527 -4.36495 0.562155 0
M  V30 8588 H 794.646 -0.698868 0.233992 0
M  V30 8589 H 797.288 -1.46163 1.21393 0
M  V30 8590 H 795.438 -3.84802 0.534751 0
M  V30 8591 H 797.11 -3.40941 3.10737 0
M  V30 8592 H 795.353 -3.15899 2.97305 0
M  V30 8593 H 796.024 -4.77912 2.76232 0
M  V30 8594 H 798.5 -4.04363 0.981333 0
M  V30 8595 H 797.376 -5.42142 0.858689 0
M  V30 8596 H 797.637 -4.38818 -0.537659 0
M  V30 8597 N 796.696 -0.74468 -1.38897 0
M  V30 8598 C 797.643 -0.111064 -2.30533 0
M  V30 8599 C 798.613 0.719276 -1.49719 0
M  V30 8600 O 799.798 0.677244 -1.78376 0
M  V30 8601 C 796.938 0.78292 -3.36102 0
M  V30 8602 C 796.051 -0.0610817 -4.31957 0
M  V30 8603 C 795.186 0.835075 -5.24595 0
M  V30 8604 C 794.225 -0.0130974 -6.12099 0
M  V30 8605 N 793.362 0.839525 -6.97063 0
M  V30 8606 H 798.202 -0.898113 -2.84144 0
M  V30 8607 H 795.739 -0.454537 -1.39901 0
M  V30 8608 H 797.697 1.31578 -3.95908 0
M  V30 8609 H 796.327 1.53585 -2.83922 0
M  V30 8610 H 795.379 -0.711469 -3.73687 0
M  V30 8611 H 796.691 -0.716482 -4.93627 0
M  V30 8612 H 795.845 1.43542 -5.89475 0
M  V30 8613 H 794.584 1.52423 -4.63269 0
M  V30 8614 H 793.589 -0.626179 -5.46223 0
M  V30 8615 H 794.814 -0.699181 -6.75491 0
M  V30 8616 H 792.76 1.5138 -6.38295 0
M  V30 8617 H 792.677 0.240823 -7.55616 0
M  V30 8618 H 793.945 1.42513 -7.66362 0
M  V30 8619 N 798.174 1.49689 -0.493057 0
M  V30 8620 C 799.084 2.32746 0.294358 0
M  V30 8621 C 800.1 1.44117 0.975003 0
M  V30 8622 O 801.276 1.77149 0.958138 0
M  V30 8623 C 798.341 3.19358 1.34949 0
M  V30 8624 C 797.402 4.2383 0.683122 0
M  V30 8625 C 796.635 5.06303 1.68798 0
M  V30 8626 O 796.858 4.90172 2.91698 0
M  V30 8627 O 795.792 5.88826 1.24768 0
M  V30 8628 H 799.618 3.01247 -0.385254 0
M  V30 8629 H 797.203 1.47216 -0.254519 0
M  V30 8630 H 799.085 3.73037 1.96014 0
M  V30 8631 H 797.76 2.53561 2.01217 0
M  V30 8632 H 796.667 3.74086 0.0329351 0
M  V30 8633 H 798 4.9216 0.0630192 0
M  V30 8634 N 799.652 0.226554 1.55963 0
M  V30 8635 C 800.9 -0.402991 1.98041 0
M  V30 8636 C 801.221 -1.59938 1.11557 0
M  V30 8637 O 800.491 -1.9494 0.193719 0
M  V30 8638 H 799.071 -0.15188 0.731397 0
M  V30 8639 H 801.733 0.320613 1.92245 0
M  V30 8640 H 800.829 -0.725937 3.0354 0
M  V30 8641 N 801.13 -1.57531 -0.0467866 0
M  V30 8642 C 802.08 -2.01845 -1.06031 0
M  V30 8643 C 803.064 -0.904662 -1.33059 0
M  V30 8644 O 804.256 -1.16858 -1.32941 0
M  V30 8645 C 801.385 -2.48673 -2.36679 0
M  V30 8646 C 800.471 -3.66837 -2.12818 0
M  V30 8647 N 800.862 -4.80172 -1.5896 0
M  V30 8648 C 799.16 -3.73869 -2.43183 0
M  V30 8649 C 799.861 -5.61895 -1.50494 0
M  V30 8650 N 798.837 -5.0648 -1.97431 0
M  V30 8651 H 802.639 -2.869 -0.637623 0
M  V30 8652 H 800.153 -1.6041 -0.253427 0
M  V30 8653 H 802.15 -2.78671 -3.10077 0
M  V30 8654 H 800.81 -1.65016 -2.79642 0
M  V30 8655 H 801.821 -5.01967 -1.27474 0
M  V30 8656 H 798.498 -3.00977 -2.89342 0
M  V30 8657 H 799.888 -6.62918 -1.09494 0
M  V30 8658 N 802.608 0.318715 -1.54344 0
M  V30 8659 C 803.833 1.07987 -1.77069 0
M  V30 8660 C 804.258 1.80766 -0.520117 0
M  V30 8661 O 803.616 1.73424 0.528566 0
M  V30 8662 C 803.664 2.04987 -2.96669 0
M  V30 8663 O 802.768 3.12974 -2.68554 0
M  V30 8664 H 802.109 0.311109 -0.586606 0
M  V30 8665 H 804.639 0.361533 -2.0138 0
M  V30 8666 H 804.649 2.47771 -3.2415 0
M  V30 8667 H 803.324 1.51417 -3.87357 0
M  V30 8668 H 801.901 2.74831 -2.52037 0
M  V30 8669 N 804.086 1.46499 0.581025 0
M  V30 8670 C 805.497 1.4604 1.16315 0
M  V30 8671 C 805.848 0.202154 1.95156 0
M  V30 8672 O 804.973 -0.694638 2.04948 0
M  V30 8673 C 805.568 2.64593 2.11604 0
M  V30 8674 C 804.127 2.6717 2.65136 0
M  V30 8675 C 803.274 2.38753 1.4104 0
M  V30 8676 H 806.225 1.54354 0.368871 0
M  V30 8677 H 806.246 2.40207 2.95095 0
M  V30 8678 H 805.758 3.56154 1.54194 0
M  V30 8679 H 803.859 1.79685 3.26411 0
M  V30 8680 H 803.972 3.67182 3.07757 0
M  V30 8681 H 802.336 1.88845 1.70908 0
M  V30 8682 H 803.119 3.32493 0.854588 0
M  V30 8683 N 805.565 -0.825799 1.34232 0
M  V30 8684 C 806.976 -1.39835 1.23706 0
M  V30 8685 C 807.327 -1.95709 -0.138649 0
M  V30 8686 O 806.452 -1.89833 -1.03886 0
M  V30 8687 C 807.047 -2.54203 2.23978 0
M  V30 8688 C 805.606 -3.07374 2.17251 0
M  V30 8689 C 804.753 -1.80232 2.10741 0
M  V30 8690 H 807.704 -0.630442 1.4564 0
M  V30 8691 H 807.725 -3.32214 1.8551 0
M  V30 8692 H 807.237 -2.13506 3.24094 0
M  V30 8693 H 805.338 -3.52583 1.20483 0
M  V30 8694 H 805.451 -3.6666 3.08379 0
M  V30 8695 H 803.815 -2.01012 1.56417 0
M  V30 8696 H 804.598 -1.41713 3.12686 0
M  V30 8697 N 807.043 -1.17915 -1.04565 0
M  V30 8698 C 808.32 -0.881187 -1.74627 0
M  V30 8699 C 808.7 0.617123 -2.01878 0
M  V30 8700 O 808.048 1.57032 -1.65991 0
M  V30 8701 C 808.258 -1.72299 -3.03503 0
M  V30 8702 C 809.606 -1.94688 -3.77335 0
M  V30 8703 O 810.63 -1.6931 -3.13389 0
M  V30 8704 O 809.489 -2.37379 -4.92253 0
M  V30 8705 H 806.583 -0.326864 -0.759664 0
M  V30 8706 H 809.129 -1.28642 -1.10676 0
M  V30 8707 H 807.901 -2.73891 -2.79462 0
M  V30 8708 H 807.524 -1.31593 -3.75192 0
M  V30 8709 N 808.521 1.23394 -0.980386 0
M  V30 8710 C 809.798 1.87242 -0.565667 0
M  V30 8711 C 810.178 1.88151 0.957197 0
M  V30 8712 O 809.526 1.36309 1.8339 0
M  V30 8713 C 809.736 3.28743 -1.17172 0
M  V30 8714 C 811.084 4.05335 -1.26446 0
M  V30 8715 O 812.108 3.37962 -1.12517 0
M  V30 8716 O 810.967 5.25908 -1.48604 0
M  V30 8717 H 808.061 0.80477 -0.190459 0
M  V30 8718 H 810.607 1.3127 -1.07547 0
M  V30 8719 H 809.379 3.22647 -2.21392 0
M  V30 8720 H 809.002 3.92305 -0.646739 0
M  V30 8721 N 809.999 0.752036 1.385 0
M  V30 8722 C 811.245 0.307958 2.00448 0
M  V30 8723 C 811.578 -1.10702 1.59558 0
M  V30 8724 O 810.853 -1.75788 0.832391 0
M  V30 8725 C 811.136 0.429092 3.57534 0
M  V30 8726 C 810.989 1.88507 4.08393 0
M  V30 8727 C 812.308 -0.178442 4.39738 0
M  V30 8728 H 809.427 0.113373 0.728228 0
M  V30 8729 H 812.069 0.951389 1.64465 0
M  V30 8730 H 810.219 -0.118695 3.88319 0
M  V30 8731 H 811.891 2.49104 3.88259 0
M  V30 8732 H 810.134 2.40066 3.61318 0
M  V30 8733 H 810.805 1.92099 5.17496 0
M  V30 8734 H 813.281 0.28872 4.15097 0
M  V30 8735 H 812.157 -0.0634349 5.48863 0
M  V30 8736 H 812.418 -1.26655 4.23569 0
M  V30 8737 N 811.477 -1.49425 0.500989 0
M  V30 8738 C 812.754 -1.9531 -0.106551 0
M  V30 8739 C 813.134 -1.44248 -1.54129 0
M  V30 8740 O 812.482 -0.656237 -2.18874 0
M  V30 8741 C 812.692 -3.48995 -0.0191972 0
M  V30 8742 C 814.04 -4.24161 -0.193129 0
M  V30 8743 O 815.064 -3.56075 -0.0943843 0
M  V30 8744 O 813.923 -5.45064 -0.395869 0
M  V30 8745 H 811.017 -0.82149 -0.0953068 0
M  V30 8746 H 813.563 -1.6007 0.563526 0
M  V30 8747 H 812.335 -3.78794 0.981353 0
M  V30 8748 H 811.958 -3.90852 -0.72942 0
M  V30 8749 N 812.955 -0.234822 -1.55841 0
M  V30 8750 C 814.204 0.393685 -1.97821 0
M  V30 8751 C 814.517 1.59947 -1.1259 0
M  V30 8752 O 815.723 2.29835 -1.44528 0
M  V30 8753 C 814.179 0.751811 -3.5196 0
M  V30 8754 C 813.787 -0.431898 -4.45913 0
M  V30 8755 C 815.531 1.34518 -4.02623 0
M  V30 8756 C 813.438 -0.0505976 -5.91378 0
M  V30 8757 H 812.368 0.150864 -0.738753 0
M  V30 8758 H 815.019 -0.333132 -1.80451 0
M  V30 8759 H 813.401 1.53642 -3.6498 0
M  V30 8760 H 814.575 -1.20935 -4.44647 0
M  V30 8761 H 812.89 -0.939385 -4.05666 0
M  V30 8762 H 815.487 1.64359 -5.08813 0
M  V30 8763 H 815.83 2.26554 -3.49255 0
M  V30 8764 H 816.363 0.623729 -3.9288 0
M  V30 8765 H 813.102 -0.937779 -6.48757 0
M  V30 8766 H 812.622 0.690898 -5.95808 0
M  V30 8767 H 814.301 0.37146 -6.45933 0
M  V30 8768 N 814.433 1.57553 0.0384317 0
M  V30 8769 C 815.679 1.89121 0.732199 0
M  V30 8770 C 816.012 0.831404 1.75503 0
M  V30 8771 O 815.287 -0.154642 1.93884 0
M  V30 8772 C 815.57 3.31338 1.41021 0
M  V30 8773 C 815.423 4.48004 0.401532 0
M  V30 8774 C 816.742 3.72318 2.34665 0
M  V30 8775 H 813.861 0.687819 0.264715 0
M  V30 8776 H 816.503 1.89999 -0.00496279 0
M  V30 8777 H 814.653 3.3072 2.03854 0
M  V30 8778 H 816.325 4.60755 -0.224159 0
M  V30 8779 H 814.568 4.32895 -0.280092 0
M  V30 8780 H 815.239 5.44377 0.91423 0
M  V30 8781 H 817.715 3.74243 1.81883 0
M  V30 8782 H 816.591 4.72652 2.7909 0
M  V30 8783 H 816.852 3.04062 3.20934 0
M  V30 8784 N 815.911 -0.310526 1.54511 0
M  V30 8785 C 817.16 -1.0445 1.72549 0
M  V30 8786 C 817.473 -1.88748 0.513172 0
M  V30 8787 O 818.679 -2.65338 0.575165 0
M  V30 8788 C 817.135 -1.90665 3.05246 0
M  V30 8789 C 816.743 -1.11415 4.33925 0
M  V30 8790 C 818.487 -2.63719 3.32645 0
M  V30 8791 C 816.394 -1.96852 5.57677 0
M  V30 8792 H 815.324 -0.393676 0.643067 0
M  V30 8793 H 817.975 -0.302003 1.80998 0
M  V30 8794 H 816.357 -2.68864 2.90737 0
M  V30 8795 H 817.531 -0.378956 4.59239 0
M  V30 8796 H 815.846 -0.499853 4.13389 0
M  V30 8797 H 818.443 -3.27974 4.223 0
M  V30 8798 H 818.786 -3.32047 2.51098 0
M  V30 8799 H 819.319 -1.92574 3.48081 0
M  V30 8800 H 816.058 -1.33009 6.41864 0
M  V30 8801 H 815.578 -2.68069 5.36562 0
M  V30 8802 H 817.257 -2.55127 5.94575 0
M  V30 8803 N 817.389 -1.46805 -0.573248 0
M  V30 8804 C 818.336 -1.58084 -1.68161 0
M  V30 8805 C 819.306 -0.424636 -1.6058 0
M  V30 8806 O 820.491 -0.642623 -1.79652 0
M  V30 8807 C 817.631 -1.58601 -3.06496 0
M  V30 8808 C 816.744 -2.85023 -3.24632 0
M  V30 8809 C 815.879 -2.76981 -4.53271 0
M  V30 8810 C 814.918 -3.983 -4.64783 0
M  V30 8811 N 814.055 -3.88589 -5.84759 0
M  V30 8812 H 818.895 -2.52755 -1.57858 0
M  V30 8813 H 816.432 -1.25385 -0.769218 0
M  V30 8814 H 818.39 -1.56885 -3.86579 0
M  V30 8815 H 817.02 -0.674553 -3.15673 0
M  V30 8816 H 816.072 -2.96678 -2.38089 0
M  V30 8817 H 817.384 -3.7491 -3.29004 0
M  V30 8818 H 816.538 -2.73424 -5.41594 0
M  V30 8819 H 815.277 -1.84751 -4.51352 0
M  V30 8820 H 814.282 -4.02179 -3.74876 0
M  V30 8821 H 815.507 -4.91639 -4.68474 0
M  V30 8822 H 813.453 -2.99151 -5.83819 0
M  V30 8823 H 813.37 -4.7214 -5.90441 0
M  V30 8824 H 814.638 -3.89022 -6.75486 0
M  V30 8825 N 818.867 0.818669 -1.34668 0
M  V30 8826 C 819.797 1.94468 -1.29245 0
M  V30 8827 C 820.778 1.69257 -0.169101 0
M  V30 8828 O 821.963 1.90794 -0.362143 0
M  V30 8829 C 819.093 3.31001 -1.05145 0
M  V30 8830 C 818.047 3.70663 -2.13992 0
M  V30 8831 C 817.373 5.05226 -1.75074 0
M  V30 8832 C 818.673 3.82312 -3.55858 0
M  V30 8833 H 820.367 1.99263 -2.2346 0
M  V30 8834 H 817.913 0.957304 -1.07572 0
M  V30 8835 H 819.866 4.09364 -0.999949 0
M  V30 8836 H 818.59 3.26517 -0.0737312 0
M  V30 8837 H 817.249 2.94578 -2.18219 0
M  V30 8838 H 816.897 4.97233 -0.759518 0
M  V30 8839 H 816.597 5.32734 -2.47928 0
M  V30 8840 H 818.121 5.86042 -1.71427 0
M  V30 8841 H 819.535 4.50935 -3.5402 0
M  V30 8842 H 817.932 4.21278 -4.2737 0
M  V30 8843 H 819.002 2.84193 -3.9289 0
M  V30 8844 N 820.346 1.18468 1.03938 0
M  V30 8845 C 821.623 0.890435 1.74157 0
M  V30 8846 C 822.003 -0.606409 2.02203 0
M  V30 8847 O 821.351 -1.5615 1.66822 0
M  V30 8848 C 821.561 1.73906 3.02585 0
M  V30 8849 C 822.909 1.96686 3.76297 0
M  V30 8850 O 823.933 1.70969 3.12487 0
M  V30 8851 O 822.792 2.39986 4.90988 0
M  V30 8852 H 819.886 0.330889 0.757919 0
M  V30 8853 H 822.432 1.29228 1.09992 0
M  V30 8854 H 821.204 2.75369 2.78006 0
M  V30 8855 H 820.827 1.33581 3.74489 0
M  V30 8856 N 821.824 -1.22873 0.986916 0
M  V30 8857 C 822.772 -2.26597 0.525043 0
M  V30 8858 C 823.766 -1.64079 -0.421252 0
M  V30 8859 O 824.972 -1.77576 -0.294429 0
M  V30 8860 H 821.347 -0.736606 0.151381 0
M  V30 8861 H 823.318 -2.62909 1.41142 0
M  V30 8862 C 822.067 -3.47374 -0.150542 0
M  V30 8863 H 821.39 -3.95737 0.568541 0
M  V30 8864 H 822.83 -4.21739 -0.437256 0
M  V30 8865 C 821.289 -3.07163 -1.38392 0
M  V30 8866 O 821.819 -3.16028 -2.47971 0
M  V30 8867 N 820.025 -2.62009 -1.25697 0
M  V30 8868 H 819.572 -2.54996 -0.365355 0
M  V30 8869 H 819.53 -2.35472 -2.08327 0
M  V30 8870 N 823.302 -0.75937 -1.38099 0
M  V30 8871 C 824.53 -0.329111 -2.04266 0
M  V30 8872 C 824.945 1.04453 -1.57274 0
M  V30 8873 O 824.302 1.66449 -0.748397 0
M  V30 8874 C 824.353 -0.349192 -3.5981 0
M  V30 8875 O 824.074 -1.66863 -4.05078 0
M  V30 8876 C 825.575 0.0942106 -4.432 0
M  V30 8877 H 822.795 -0.13971 -0.656294 0
M  V30 8878 H 825.339 -1.02984 -1.76677 0
M  V30 8879 H 823.494 0.302846 -3.86214 0
M  V30 8880 H 823.908 -1.59877 -4.9954 0
M  V30 8881 H 825.382 0.0290004 -5.51992 0
M  V30 8882 H 825.859 1.1429 -4.24069 0
M  V30 8883 H 826.465 -0.529171 -4.21995 0
M  V30 8884 N 824.78 1.49157 -0.508906 0
M  V30 8885 C 825.743 2.27784 0.25434 0
M  V30 8886 C 826.743 1.34132 0.88686 0
M  V30 8887 O 827.933 1.5722 0.750168 0
M  V30 8888 C 825.065 3.12347 1.36573 0
M  V30 8889 H 826.258 2.96718 -0.435714 0
M  V30 8890 H 823.811 1.54052 -0.264128 0
M  V30 8891 H 824.546 2.47997 2.08969 0
M  V30 8892 H 824.331 3.81213 0.917543 0
M  V30 8893 H 825.821 3.71712 1.90315 0
M  V30 8894 N 826.258 0.243083 1.55714 0
M  V30 8895 C 827.483 -0.389944 2.03701 0
M  V30 8896 C 827.908 -1.51025 1.12129 0
M  V30 8897 O 827.266 -1.80944 0.11352 0
M  V30 8898 C 827.314 -0.878649 3.49731 0
M  V30 8899 O 826.418 -1.98851 3.61292 0
M  V30 8900 H 825.759 -0.0855115 0.658471 0
M  V30 8901 H 828.289 0.368023 2.01263 0
M  V30 8902 H 828.299 -1.18287 3.90477 0
M  V30 8903 H 826.974 -0.0588107 4.15858 0
M  V30 8904 H 825.551 -1.68928 3.32442 0
M  V30 8905 N 827.736 -1.57571 -0.0300757 0
M  V30 8906 C 828.964 -1.93485 -0.732891 0
M  V30 8907 C 829.379 -0.842758 -1.68947 0
M  V30 8908 O 828.736 0.180904 -1.81601 0
M  V30 8909 C 828.787 -3.29328 -1.49082 0
M  V30 8910 O 828.508 -4.34341 -0.572639 0
M  V30 8911 C 830.009 -3.79517 -2.29088 0
M  V30 8912 H 827.229 -0.638588 -0.206026 0
M  V30 8913 H 829.773 -2.04496 0.0120966 0
M  V30 8914 H 827.928 -3.19716 -2.1877 0
M  V30 8915 H 828.342 -5.12748 -1.10406 0
M  V30 8916 H 829.816 -4.77081 -2.77665 0
M  V30 8917 H 830.293 -3.10659 -3.10464 0
M  V30 8918 H 830.899 -3.92208 -1.64477 0
M  V30 8919 N 829.214 0.302327 -1.54673 0
M  V30 8920 C 830.46 1.03924 -1.74149 0
M  V30 8921 C 830.793 1.86968 -0.525041 0
M  V30 8922 O 830.068 1.88538 0.477868 0
M  V30 8923 C 830.351 1.94633 -3.02969 0
M  V30 8924 C 830.204 1.14778 -4.34909 0
M  V30 8925 C 831.523 2.93826 -3.27649 0
M  V30 8926 H 828.642 0.376405 -0.633631 0
M  V30 8927 H 831.284 0.314007 -1.87387 0
M  V30 8928 H 829.434 2.56471 -2.91813 0
M  V30 8929 H 831.106 0.552363 -4.57981 0
M  V30 8930 H 829.349 0.450462 -4.31455 0
M  V30 8931 H 830.02 1.81495 -5.21309 0
M  V30 8932 H 832.496 2.42117 -3.38406 0
M  V30 8933 H 831.372 3.54462 -4.19104 0
M  V30 8934 H 831.633 3.67416 -2.45882 0
M  V30 8935 N 830.692 1.47107 0.565454 0
M  V30 8936 C 831.639 1.58974 1.6732 0
M  V30 8937 C 832.609 0.433146 1.60353 0
M  V30 8938 O 833.794 0.652141 1.79309 0
M  V30 8939 C 830.934 1.60224 3.05651 0
M  V30 8940 C 830.047 2.86741 3.23116 0
M  V30 8941 C 829.182 2.79381 4.51796 0
M  V30 8942 C 828.221 4.0076 4.62664 0
M  V30 8943 N 827.358 3.91685 5.8269 0
M  V30 8944 H 832.198 2.53588 1.56515 0
M  V30 8945 H 829.735 1.25791 0.762558 0
M  V30 8946 H 831.693 1.58933 3.85741 0
M  V30 8947 H 830.323 0.691285 3.15311 0
M  V30 8948 H 829.375 2.97936 2.36513 0
M  V30 8949 H 830.687 3.7665 3.27011 0
M  V30 8950 H 829.841 2.76293 5.40136 0
M  V30 8951 H 828.58 1.87142 4.50366 0
M  V30 8952 H 827.585 4.04162 3.72738 0
M  V30 8953 H 828.81 4.94117 4.6586 0
M  V30 8954 H 826.756 3.02243 5.82224 0
M  V30 8955 H 826.673 4.75264 5.87929 0
M  V30 8956 H 827.941 3.92599 6.73414 0
M  V30 8957 N 832.17 -0.811516 1.35101 0
M  V30 8958 C 833.133 -1.90467 1.27495 0
M  V30 8959 C 834.133 -1.59703 0.187516 0
M  V30 8960 O 835.323 -1.68528 0.440896 0
M  V30 8961 C 832.455 -3.26774 0.971154 0
M  V30 8962 H 833.648 -1.98631 2.2469 0
M  V30 8963 H 831.201 -1.00681 1.19553 0
M  V30 8964 H 831.936 -3.243 0.0028557 0
M  V30 8965 H 831.721 -3.50488 1.75785 0
M  V30 8966 H 833.211 -4.06804 0.943414 0
M  V30 8967 N 833.648 -1.19017 -1.03309 0
M  V30 8968 C 834.897 -0.984542 -1.76039 0
M  V30 8969 C 835.21 0.485937 -1.89468 0
M  V30 8970 O 836.416 0.810278 -2.59127 0
M  V30 8971 C 834.872 -1.71261 -3.1654 0
M  V30 8972 C 834.48 -3.22291 -3.11179 0
M  V30 8973 C 836.224 -1.59007 -3.93595 0
M  V30 8974 C 834.131 -3.87704 -4.46587 0
M  V30 8975 H 833.061 -0.364749 -0.659905 0
M  V30 8976 H 835.712 -1.4247 -1.15649 0
M  V30 8977 H 834.094 -1.20025 -3.77373 0
M  V30 8978 H 835.268 -3.80611 -2.59753 0
M  V30 8979 H 833.583 -3.34772 -2.47622 0
M  V30 8980 H 836.18 -2.05232 -4.93745 0
M  V30 8981 H 836.523 -0.543534 -4.12736 0
M  V30 8982 H 837.056 -2.07564 -3.39355 0
M  V30 8983 H 833.795 -4.92437 -4.3265 0
M  V30 8984 H 833.315 -3.34172 -4.98085 0
M  V30 8985 H 834.994 -3.91008 -5.15482 0
M  V30 8986 N 835.127 1.22348 -0.993418 0
M  V30 8987 C 836.09 2.22522 -0.549251 0
M  V30 8988 C 837.09 1.56529 0.368164 0
M  V30 8989 O 838.28 1.73463 0.16005 0
M  V30 8990 C 835.412 3.40307 0.201037 0
M  V30 8991 H 836.605 2.63332 -1.43515 0
M  V30 8992 H 834.158 1.35407 -0.78068 0
M  V30 8993 H 834.893 3.0497 1.10289 0
M  V30 8994 H 834.678 3.8942 -0.457685 0
M  V30 8995 H 836.168 4.14597 0.499946 0
M  V30 8996 N 836.605 0.766683 1.37694 0
M  V30 8997 C 837.854 0.325425 1.99057 0
M  V30 8998 C 838.167 -1.10275 1.61551 0
M  V30 8999 O 839.373 -1.64513 2.1598 0
M  V30 9000 C 837.829 0.530886 3.55963 0
M  V30 9001 C 837.437 1.96899 4.02411 0
M  V30 9002 C 839.181 0.152997 4.24224 0
M  V30 9003 C 837.088 2.12232 5.52007 0
M  V30 9004 H 836.018 0.117929 0.744721 0
M  V30 9005 H 838.669 0.945091 1.5729 0
M  V30 9006 H 837.051 -0.158162 3.95684 0
M  V30 9007 H 838.225 2.69258 3.73948 0
M  V30 9008 H 836.54 2.303 3.46916 0
M  V30 9009 H 839.137 0.24614 5.34133 0
M  V30 9010 H 839.48 -0.896096 4.06541 0
M  V30 9011 H 840.013 0.794398 3.89787 0
M  V30 9012 H 836.752 3.15442 5.7461 0
M  V30 9013 H 836.272 1.4435 5.82171 0
M  V30 9014 H 837.951 1.9185 6.17902 0
M  V30 9015 N 838.083 -1.48885 0.516809 0
M  V30 9016 C 839.329 -2.02788 -0.0220928 0
M  V30 9017 C 839.662 -1.39433 -1.35175 0
M  V30 9018 O 838.937 -0.535459 -1.86984 0
M  V30 9019 C 839.22 -3.59753 -0.158012 0
M  V30 9020 C 839.073 -4.33611 1.19588 0
M  V30 9021 C 840.392 -4.30984 -0.891133 0
M  V30 9022 H 837.511 -0.736971 -0.00655488 0
M  V30 9023 H 840.153 -1.77746 0.671287 0
M  V30 9024 H 838.303 -3.8122 -0.748568 0
M  V30 9025 H 839.975 -4.23598 1.82653 0
M  V30 9026 H 838.218 -3.95547 1.78116 0
M  V30 9027 H 838.889 -5.41846 1.05391 0
M  V30 9028 H 841.365 -4.14267 -0.39012 0
M  V30 9029 H 840.241 -5.40527 -0.955107 0
M  V30 9030 H 840.502 -3.97336 -1.93847 0
M  V30 9031 N 839.561 -0.251338 -1.55583 0
M  V30 9032 C 840.81 0.372681 -1.98227 0
M  V30 9033 C 841.123 1.58743 -1.1428 0
M  V30 9034 O 842.329 2.28289 -1.46957 0
M  V30 9035 C 840.785 0.714439 -3.52738 0
M  V30 9036 C 840.393 -0.479168 -4.4543 0
M  V30 9037 C 842.137 1.3024 -4.04027 0
M  V30 9038 C 840.044 -0.113318 -5.91291 0
M  V30 9039 H 838.974 0.14302 -0.740312 0
M  V30 9040 H 841.625 -0.352253 -1.80087 0
M  V30 9041 H 840.007 1.49762 -3.66589 0
M  V30 9042 H 841.181 -1.25644 -4.4334 0
M  V30 9043 H 839.496 -0.982359 -4.04646 0
M  V30 9044 H 842.093 1.58953 -5.10527 0
M  V30 9045 H 842.436 2.22837 -3.51638 0
M  V30 9046 H 842.969 0.582024 -3.93519 0
M  V30 9047 H 839.708 -1.00654 -6.47726 0
M  V30 9048 H 839.228 0.627666 -5.96507 0
M  V30 9049 H 840.907 0.30293 -6.4629 0
M  V30 9050 N 841.039 1.57585 0.0217189 0
M  V30 9051 C 842.45 1.7787 0.567377 0
M  V30 9052 C 842.801 0.883337 1.7519 0
M  V30 9053 O 841.926 0.0800819 2.16252 0
M  V30 9054 C 842.521 3.2257 1.03606 0
M  V30 9055 C 841.08 3.44026 1.52718 0
M  V30 9056 C 840.227 2.73313 0.468545 0
M  V30 9057 H 843.178 1.57377 -0.2045 0
M  V30 9058 H 843.199 3.29488 1.9031 0
M  V30 9059 H 842.711 3.87711 0.173739 0
M  V30 9060 H 840.812 2.8407 2.41111 0
M  V30 9061 H 840.925 4.52659 1.56962 0
M  V30 9062 H 839.289 2.37299 0.925263 0
M  V30 9063 H 840.072 3.41141 -0.384438 0
M  V30 9064 N 842.517 -0.29412 1.54831 0
M  V30 9065 C 843.757 -1.03635 1.76179 0
M  V30 9066 C 844.121 -1.84251 0.539953 0
M  V30 9067 O 845.322 -2.61282 0.631295 0
M  V30 9068 C 843.593 -1.91275 3.01909 0
M  V30 9069 S 845.152 -2.7205 3.44288 0
M  V30 9070 H 841.97 -0.349403 0.619224 0
M  V30 9071 H 844.572 -0.309006 1.93042 0
M  V30 9072 H 843.276 -1.30937 3.88952 0
M  V30 9073 H 842.807 -2.68365 2.87652 0
M  V30 9074 H 844.822 -3.93791 3.01899 0
M  V30 9075 N 843.995 -1.47404 -0.557645 0
M  V30 9076 C 845.244 -1.53268 -1.31118 0
M  V30 9077 C 845.557 -0.199414 -1.94581 0
M  V30 9078 O 846.763 -0.136039 -2.71159 0
M  V30 9079 C 845.219 -2.70178 -2.37764 0
M  V30 9080 C 844.827 -4.10032 -1.80493 0
M  V30 9081 C 846.571 -2.85334 -3.14301 0
M  V30 9082 C 844.478 -5.18244 -2.84916 0
M  V30 9083 H 843.408 -0.570491 -0.493007 0
M  V30 9084 H 846.059 -1.73678 -0.592308 0
M  V30 9085 H 844.441 -2.43147 -3.12563 0
M  V30 9086 H 845.615 -4.46964 -1.12069 0
M  V30 9087 H 843.93 -3.99759 -1.16542 0
M  V30 9088 H 846.527 -3.63347 -3.92279 0
M  V30 9089 H 846.87 -1.93761 -3.68459 0
M  V30 9090 H 847.403 -3.12133 -2.46613 0
M  V30 9091 H 844.142 -6.11691 -2.35614 0
M  V30 9092 H 843.662 -4.85829 -3.51753 0
M  V30 9093 H 845.341 -5.45174 -3.48417 0
M  V30 9094 N 845.473 0.80434 -1.35529 0
M  V30 9095 C 846.403 1.93086 -1.31301 0
M  V30 9096 C 847.384 1.69068 -0.187044 0
M  V30 9097 O 848.569 1.90399 -0.382359 0
M  V30 9098 C 845.699 3.29867 -1.0865 0
M  V30 9099 C 844.653 3.68373 -2.17911 0
M  V30 9100 C 843.979 5.0334 -1.80423 0
M  V30 9101 C 845.279 3.78516 -3.59893 0
M  V30 9102 H 846.973 1.96882 -2.25561 0
M  V30 9103 H 844.519 0.945841 -1.08581 0
M  V30 9104 H 846.472 4.08281 -1.04331 0
M  V30 9105 H 845.196 3.2642 -0.108359 0
M  V30 9106 H 843.855 2.92247 -2.21331 0
M  V30 9107 H 843.503 4.96399 -0.812213 0
M  V30 9108 H 843.203 5.30074 -2.53565 0
M  V30 9109 H 844.727 5.84191 -1.77633 0
M  V30 9110 H 846.141 4.47155 -3.58783 0
M  V30 9111 H 844.538 4.16721 -4.31814 0
M  V30 9112 H 845.608 2.8001 -3.95882 0
M  V30 9113 N 846.951 1.19563 1.02676 0
M  V30 9114 C 847.914 0.937182 2.09164 0
M  V30 9115 C 848.914 -0.0831927 1.60585 0
M  V30 9116 O 850.104 0.15178 1.73538 0
M  V30 9117 C 847.236 0.408912 3.38439 0
M  V30 9118 H 848.429 1.88164 2.33526 0
M  V30 9119 H 845.982 1.00959 1.19319 0
M  V30 9120 H 846.717 -0.541497 3.19747 0
M  V30 9121 H 846.502 1.14464 3.7502 0
M  V30 9122 H 847.992 0.247242 4.16867 0
M  V30 9123 N 848.429 -1.21819 0.999893 0
M  V30 9124 C 849.359 -2.26282 0.576096 0
M  V30 9125 C 850.34 -1.65317 -0.400537 0
M  V30 9126 O 851.525 -1.92028 -0.28964 0
M  V30 9127 C 848.655 -3.47147 -0.103145 0
M  V30 9128 C 847.609 -4.20594 0.792745 0
M  V30 9129 C 846.935 -5.34696 -0.0198026 0
M  V30 9130 C 848.235 -4.78533 2.09293 0
M  V30 9131 H 849.929 -2.61984 1.4493 0
M  V30 9132 H 847.475 -1.25935 0.698316 0
M  V30 9133 H 849.428 -4.1939 -0.411068 0
M  V30 9134 H 848.152 -3.1056 -1.01094 0
M  V30 9135 H 846.811 -3.50194 1.08442 0
M  V30 9136 H 846.459 -4.94352 -0.928729 0
M  V30 9137 H 846.159 -5.84764 0.576661 0
M  V30 9138 H 847.683 -6.09752 -0.321659 0
M  V30 9139 H 849.097 -5.42682 1.8485 0
M  V30 9140 H 847.494 -5.38968 2.63881 0
M  V30 9141 H 848.564 -3.98197 2.76708 0
M  V30 9142 N 849.908 -0.773975 -1.37286 0
M  V30 9143 C 851.148 -0.344505 -2.01476 0
M  V30 9144 C 851.512 1.05966 -1.6011 0
M  V30 9145 O 852.713 1.58937 -2.16778 0
M  V30 9146 C 850.984 -0.485816 -3.54083 0
M  V30 9147 S 852.543 -0.141939 -4.3857 0
M  V30 9148 H 849.361 -0.13243 -0.698558 0
M  V30 9149 H 851.963 -1.00908 -1.67445 0
M  V30 9150 H 850.667 -1.50835 -3.81677 0
M  V30 9151 H 850.198 0.195232 -3.92915 0
M  V30 9152 H 852.213 1.06177 -4.84707 0
M  V30 9153 N 851.386 1.48609 -0.524698 0
M  V30 9154 C 852.316 2.32366 0.229837 0
M  V30 9155 C 853.297 1.41759 0.940129 0
M  V30 9156 O 854.482 1.7065 0.926936 0
M  V30 9157 C 851.612 3.22835 1.28043 0
M  V30 9158 C 850.566 4.22424 0.688603 0
M  V30 9159 C 849.892 5.0199 1.84146 0
M  V30 9160 C 851.192 5.21217 -0.336176 0
M  V30 9161 H 852.886 2.95698 -0.469339 0
M  V30 9162 H 850.432 1.42197 -0.227156 0
M  V30 9163 H 852.385 3.80253 1.8162 0
M  V30 9164 H 851.109 2.57492 2.00912 0
M  V30 9165 H 849.768 3.66185 0.174402 0
M  V30 9166 H 849.416 4.33076 2.5584 0
M  V30 9167 H 849.116 5.69392 1.45142 0
M  V30 9168 H 850.64 5.62259 2.38111 0
M  V30 9169 H 852.054 5.7319 0.112307 0
M  V30 9170 H 850.451 5.96642 -0.643324 0
M  V30 9171 H 851.521 4.68676 -1.24381 0
M  V30 9172 N 852.864 0.259585 1.55447 0
M  V30 9173 C 853.794 -0.62852 2.24882 0
M  V30 9174 C 854.775 -1.17128 1.23349 0
M  V30 9175 O 855.96 -1.20829 1.52033 0
M  V30 9176 C 853.09 -1.81983 2.95803 0
M  V30 9177 C 852.044 -1.40929 4.04132 0
M  V30 9178 C 851.37 -2.68246 4.62545 0
M  V30 9179 C 852.67 -0.570956 5.1917 0
M  V30 9180 H 854.364 -0.0495021 2.99359 0
M  V30 9181 H 851.91 -0.0223688 1.43983 0
M  V30 9182 H 853.863 -2.44689 3.43082 0
M  V30 9183 H 852.587 -2.42444 2.18835 0
M  V30 9184 H 851.246 -0.805519 3.57641 0
M  V30 9185 H 850.894 -3.26931 3.82263 0
M  V30 9186 H 850.594 -2.41495 5.35681 0
M  V30 9187 H 852.118 -3.31827 5.12565 0
M  V30 9188 H 853.532 -1.10262 5.62597 0
M  V30 9189 H 851.929 -0.398979 5.98772 0
M  V30 9190 H 852.999 0.413918 4.8313 0
M  V30 9191 N 854.342 -1.57594 -0.0133615 0
M  V30 9192 C 855.588 -1.90262 -0.702019 0
M  V30 9193 C 855.921 -0.859219 -1.74158 0
M  V30 9194 O 855.196 0.123778 -1.94106 0
M  V30 9195 C 855.479 -3.3354 -1.35732 0
M  V30 9196 C 855.332 -4.48586 -0.330208 0
M  V30 9197 C 856.651 -3.76004 -2.28712 0
M  V30 9198 H 853.77 -0.691943 -0.253739 0
M  V30 9199 H 856.412 -1.89967 0.0351894 0
M  V30 9200 H 854.562 -3.33921 -1.98567 0
M  V30 9201 H 856.234 -4.6034 0.297433 0
M  V30 9202 H 854.477 -4.32394 0.348926 0
M  V30 9203 H 855.148 -5.45762 -0.827508 0
M  V30 9204 H 857.624 -3.77089 -1.75906 0
M  V30 9205 H 856.5 -4.77032 -2.71535 0
M  V30 9206 H 856.761 -3.09129 -3.16056 0
M  V30 9207 N 855.82 0.285905 -1.54985 0
M  V30 9208 C 856.75 1.35752 -1.89983 0
M  V30 9209 C 857.731 1.52163 -0.760295 0
M  V30 9210 O 858.916 1.65421 -1.01733 0
M  V30 9211 C 856.046 2.71925 -2.16042 0
M  V30 9212 C 855 2.70261 -3.31878 0
M  V30 9213 C 854.326 4.09864 -3.43388 0
M  V30 9214 C 855.626 2.30667 -4.68604 0
M  V30 9215 H 857.32 1.06709 -2.79738 0
M  V30 9216 H 854.866 0.511884 -1.34595 0
M  V30 9217 H 856.819 3.46992 -2.39113 0
M  V30 9218 H 855.543 3.02523 -1.23074 0
M  V30 9219 H 854.202 1.97651 -3.08755 0
M  V30 9220 H 853.85 4.37664 -2.47909 0
M  V30 9221 H 853.55 4.09648 -4.21262 0
M  V30 9222 H 855.074 4.86689 -3.68736 0
M  V30 9223 H 856.488 2.95453 -4.91305 0
M  V30 9224 H 854.885 2.41637 -5.49301 0
M  V30 9225 H 855.955 1.25793 -4.68299 0
M  V30 9226 N 857.298 1.47698 0.54982 0
M  V30 9227 C 858.544 1.54931 1.30859 0
M  V30 9228 C 858.877 0.214021 1.93017 0
M  V30 9229 O 858.152 -0.778093 1.78258 0
M  V30 9230 C 858.435 2.67286 2.41309 0
M  V30 9231 C 858.288 4.10457 1.83971 0
M  V30 9232 C 859.607 2.75509 3.43195 0
M  V30 9233 H 856.726 0.56399 0.474431 0
M  V30 9234 H 859.368 1.79787 0.614541 0
M  V30 9235 H 857.518 2.46224 3.0051 0
M  V30 9236 H 859.19 4.42903 1.28974 0
M  V30 9237 H 857.433 4.18387 1.14606 0
M  V30 9238 H 858.104 4.84857 2.63851 0
M  V30 9239 H 860.58 2.94531 2.93923 0
M  V30 9240 H 859.456 3.55886 4.17895 0
M  V30 9241 H 859.717 1.82863 4.02509 0
M  V30 9242 N 858.776 -0.797141 1.35954 0
M  V30 9243 C 860.006 -1.5835 1.32698 0
M  V30 9244 C 860.414 -1.88959 -0.0955298 0
M  V30 9245 O 859.757 -1.49987 -1.06064 0
M  V30 9246 C 859.819 -2.93529 2.0756 0
M  V30 9247 C 859.483 -2.85688 3.56695 0
M  V30 9248 C 860.48 -2.58467 4.51099 0
M  V30 9249 C 858.165 -3.04508 3.99475 0
M  V30 9250 C 860.159 -2.50157 5.8626 0
M  V30 9251 C 857.846 -2.9582 5.34728 0
M  V30 9252 C 858.844 -2.68681 6.27933 0
M  V30 9253 O 858.532 -2.59973 7.60703 0
M  V30 9254 H 858.264 -0.49807 0.457059 0
M  V30 9255 H 860.818 -0.997889 1.79531 0
M  V30 9256 H 859.048 -3.54111 1.55378 0
M  V30 9257 H 860.737 -3.54744 1.9726 0
M  V30 9258 H 861.503 -2.43638 4.19363 0
M  V30 9259 H 857.382 -3.24641 3.27306 0
M  V30 9260 H 860.926 -2.28894 6.58979 0
M  V30 9261 H 856.823 -3.10211 5.66074 0
M  V30 9262 H 857.591 -2.75511 7.70737 0
M  V30 9263 N 860.254 -1.20106 -1.0204 0
M  V30 9264 C 861.482 -1.0344 -1.79186 0
M  V30 9265 C 861.897 0.416542 -1.84148 0
M  V30 9266 O 861.254 1.28925 -1.29168 0
M  V30 9267 C 861.305 -1.60663 -3.23836 0
M  V30 9268 O 861.026 -3.00079 -3.19193 0
M  V30 9269 C 862.527 -1.48897 -4.17546 0
M  V30 9270 H 859.747 -0.364093 -0.563629 0
M  V30 9271 H 862.291 -1.5911 -1.28469 0
M  V30 9272 H 860.446 -1.09122 -3.71714 0
M  V30 9273 H 860.86 -3.27162 -4.09958 0
M  V30 9274 H 862.334 -1.93703 -5.16898 0
M  V30 9275 H 862.811 -0.440843 -4.36982 0
M  V30 9276 H 863.417 -1.9961 -3.75547 0
M  V30 9277 N 861.732 1.21287 -1.00634 0
M  V30 9278 C 862.978 1.90671 -0.690822 0
M  V30 9279 C 863.311 1.77996 0.776592 0
M  V30 9280 O 862.586 1.15748 1.5631 0
M  V30 9281 C 862.869 3.42426 -1.11428 0
M  V30 9282 C 862.722 3.64086 -2.64124 0
M  V30 9283 C 864.041 4.34851 -0.677686 0
M  V30 9284 H 861.16 0.692419 -0.252439 0
M  V30 9285 H 863.802 1.42893 -1.25226 0
M  V30 9286 H 861.952 3.83249 -0.636586 0
M  V30 9287 H 863.624 3.32582 -3.19667 0
M  V30 9288 H 861.867 3.07906 -3.05576 0
M  V30 9289 H 862.538 4.7042 -2.88806 0
M  V30 9290 H 865.014 4.01619 -1.0882 0
M  V30 9291 H 863.89 5.39675 -1.00213 0
M  V30 9292 H 864.151 4.4009 0.421125 0
M  V30 9293 N 863.21 0.781244 1.36873 0
M  V30 9294 C 864.457 0.349889 1.99454 0
M  V30 9295 C 864.785 -1.07621 1.62013 0
M  V30 9296 O 864.04 -1.75665 0.86258 0
M  V30 9297 C 864.339 0.45146 3.54537 0
M  V30 9298 C 864.005 1.83718 4.11775 0
M  V30 9299 C 862.667 2.21634 4.2712 0
M  V30 9300 C 865.019 2.7449 4.43063 0
M  V30 9301 C 862.347 3.49742 4.7106 0
M  V30 9302 C 864.699 4.02017 4.88431 0
M  V30 9303 C 863.363 4.39967 5.01982 0
M  V30 9304 H 862.633 0.128033 0.729855 0
M  V30 9305 H 865.28 0.997117 1.63493 0
M  V30 9306 H 863.585 -0.279288 3.90803 0
M  V30 9307 H 865.282 0.0988609 4.00878 0
M  V30 9308 H 861.872 1.53251 4.00265 0
M  V30 9309 H 866.056 2.46453 4.30783 0
M  V30 9310 H 861.312 3.79026 4.79738 0
M  V30 9311 H 865.486 4.72475 5.11605 0
M  V30 9312 H 863.113 5.39291 5.35788 0
M  V30 9313 N 864.689 -1.48329 0.532571 0
M  V30 9314 C 865.621 -2.27652 -0.265931 0
M  V30 9315 C 866.634 -1.35522 -0.902083 0
M  V30 9316 O 867.823 -1.60552 -0.780088 0
M  V30 9317 C 864.923 -3.0899 -1.39207 0
M  V30 9318 C 864.096 -4.28915 -0.857349 0
M  V30 9319 C 863.155 -4.92044 -1.86493 0
M  V30 9320 O 862.181 -5.51181 -1.42084 0
M  V30 9321 N 863.383 -4.84518 -3.19723 0
M  V30 9322 H 866.148 -2.96821 0.414389 0
M  V30 9323 H 863.709 -1.57684 0.367066 0
M  V30 9324 H 865.701 -3.48091 -2.06433 0
M  V30 9325 H 864.271 -2.42224 -1.97601 0
M  V30 9326 H 863.491 -3.94199 -0.00901765 0
M  V30 9327 H 864.779 -5.0654 -0.479025 0
M  V30 9328 H 864.177 -4.37628 -3.58467 0
M  V30 9329 H 862.734 -5.27712 -3.82575 0
M  V30 9330 N 866.167 -0.267825 -1.55308 0
M  V30 9331 C 867.414 0.351036 -1.99434 0
M  V30 9332 C 867.742 1.56406 -1.15618 0
M  V30 9333 O 866.997 1.94548 -0.212045 0
M  V30 9334 C 867.296 0.784247 -3.48689 0
M  V30 9335 C 866.962 -0.323328 -4.49739 0
M  V30 9336 C 865.624 -0.627467 -4.77091 0
M  V30 9337 C 867.976 -1.07002 -5.10098 0
M  V30 9338 C 865.304 -1.682 -5.62073 0
M  V30 9339 C 867.656 -2.11422 -5.96224 0
M  V30 9340 C 866.32 -2.42479 -6.21901 0
M  V30 9341 H 865.59 0.128453 -0.729781 0
M  V30 9342 H 868.237 -0.380018 -1.87692 0
M  V30 9343 H 866.542 1.59485 -3.57871 0
M  V30 9344 H 868.239 1.2737 -3.80234 0
M  V30 9345 H 864.829 -0.0761528 -4.28532 0
M  V30 9346 H 869.013 -0.848302 -4.88996 0
M  V30 9347 H 864.269 -1.92772 -5.80215 0
M  V30 9348 H 868.443 -2.69759 -6.4203 0
M  V30 9349 H 866.07 -3.24328 -6.87543 0
M  V30 9350 N 867.645 1.57599 0.00500368 0
M  V30 9351 C 868.592 2.08106 0.998025 0
M  V30 9352 C 869.562 0.975374 1.34446 0
M  V30 9353 O 870.747 1.24749 1.44369 0
M  V30 9354 C 867.887 2.58496 2.28635 0
M  V30 9355 C 867 3.82947 1.99939 0
M  V30 9356 C 866.135 4.21857 3.22816 0
M  V30 9357 C 865.174 5.39159 2.89783 0
M  V30 9358 N 864.311 5.73386 4.05183 0
M  V30 9359 H 869.151 2.92684 0.560385 0
M  V30 9360 H 866.688 1.44692 0.265053 0
M  V30 9361 H 868.646 2.85787 3.03943 0
M  V30 9362 H 867.276 1.768 2.70077 0
M  V30 9363 H 866.328 3.62594 1.1502 0
M  V30 9364 H 867.64 4.68358 1.71588 0
M  V30 9365 H 866.794 4.50404 4.06474 0
M  V30 9366 H 865.533 3.35145 3.54301 0
M  V30 9367 H 864.538 5.1034 2.04532 0
M  V30 9368 H 865.763 6.27543 2.59551 0
M  V30 9369 H 863.709 4.89632 4.36574 0
M  V30 9370 H 863.626 6.53359 3.80339 0
M  V30 9371 H 864.894 6.06522 4.89644 0
M  V30 9372 N 869.123 -0.277682 1.55134 0
M  V30 9373 C 870.539 -0.624625 1.46869 0
M  V30 9374 C 870.739 -1.89717 0.678958 0
M  V30 9375 O 869.795 -2.51739 0.195939 0
M  V30 9376 C 871.108 -0.755937 2.91043 0
M  V30 9377 C 872.656 -0.850299 3.01229 0
M  V30 9378 C 873.131 -1.01343 4.46647 0
M  V30 9379 N 874.622 -1.07906 4.50456 0
M  V30 9380 C 875.357 -1.224 5.60184 0
M  V30 9381 N 874.853 -1.33642 6.79788 0
M  V30 9382 N 876.646 -1.25473 5.47917 0
M  V30 9383 H 868.797 0.558102 2.04937 0
M  V30 9384 H 871.06 0.188228 0.929125 0
M  V30 9385 H 870.766 0.108593 3.51532 0
M  V30 9386 H 870.64 -1.6377 3.39793 0
M  V30 9387 H 873.027 -1.7053 2.40839 0
M  V30 9388 H 873.108 0.0559681 2.55739 0
M  V30 9389 H 872.752 -0.163102 5.07638 0
M  V30 9390 H 872.682 -1.93427 4.89789 0
M  V30 9391 H 875.173 -1.00477 3.64298 0
M  V30 9392 H 875.486 -1.44522 7.59166 0
M  V30 9393 H 873.831 -1.30655 6.82608 0
M  V30 9394 H 877.022 -1.16317 4.53418 0
M  V30 9395 H 877.195 -1.36424 6.33476 0
M  V30 9396 N 870.601 -1.47988 -0.541979 0
M  V30 9397 C 871.548 -1.61615 -1.6477 0
M  V30 9398 C 872.518 -0.458602 -1.59644 0
M  V30 9399 O 873.703 -0.680585 -1.78249 0
M  V30 9400 C 870.843 -1.65066 -3.03063 0
M  V30 9401 C 869.956 -2.91845 -3.18513 0
M  V30 9402 C 869.091 -2.86534 -4.47294 0
M  V30 9403 C 868.13 -4.0807 -4.5623 0
M  V30 9404 N 867.267 -4.00905 -5.76385 0
M  V30 9405 H 872.107 -2.56046 -1.52461 0
M  V30 9406 H 869.644 -1.26989 -0.742449 0
M  V30 9407 H 871.602 -1.65049 -3.83164 0
M  V30 9408 H 870.232 -0.74136 -3.14171 0
M  V30 9409 H 869.284 -3.01661 -2.31743 0
M  V30 9410 H 870.596 -3.81804 -3.20978 0
M  V30 9411 H 869.75 -2.84851 -5.35672 0
M  V30 9412 H 868.489 -1.94283 -4.47332 0
M  V30 9413 H 867.494 -4.10041 -3.66261 0
M  V30 9414 H 868.719 -5.01465 -4.5794 0
M  V30 9415 H 866.665 -3.11467 -5.77342 0
M  V30 9416 H 866.582 -4.84557 -5.80293 0
M  V30 9417 H 867.85 -4.03263 -6.67083 0
M  V30 9418 N 872.079 0.78992 -1.36375 0
M  V30 9419 C 873.327 1.54472 -1.30319 0
M  V30 9420 C 873.648 1.94647 0.117338 0
M  V30 9421 O 872.918 1.64906 1.05748 0
M  V30 9422 H 871.498 0.572879 -0.479394 0
M  V30 9423 H 874.16 0.941245 -1.70665 0
M  V30 9424 H 873.256 2.45252 -1.93024 0
M  V30 9425 N 873.557 1.20646 1.01402 0
M  V30 9426 C 874.785 1.04389 1.78635 0
M  V30 9427 C 875.2 -0.406771 1.84366 0
M  V30 9428 O 874.557 -1.28239 1.2985 0
M  V30 9429 C 874.608 1.62378 3.22979 0
M  V30 9430 O 874.329 3.01768 3.17597 0
M  V30 9431 C 875.83 1.5111 4.1675 0
M  V30 9432 H 873.05 0.367077 0.56169 0
M  V30 9433 H 875.594 1.59789 1.27624 0
M  V30 9434 H 873.749 1.11092 3.7113 0
M  V30 9435 H 874.163 3.29331 4.08217 0
M  V30 9436 H 875.637 1.96441 5.15863 0
M  V30 9437 H 876.114 0.464011 4.36742 0
M  V30 9438 H 876.72 2.01599 3.74483 0
M  V30 9439 N 875.035 -1.20752 1.01276 0
M  V30 9440 C 876.446 -1.7175 0.732033 0
M  V30 9441 C 876.797 -1.8131 -0.749733 0
M  V30 9442 O 875.922 -1.47301 -1.58529 0
M  V30 9443 C 876.517 -3.11936 1.32217 0
M  V30 9444 C 875.076 -3.6026 1.09039 0
M  V30 9445 C 874.223 -2.37571 1.43022 0
M  V30 9446 H 877.174 -1.0582 1.1827 0
M  V30 9447 H 877.195 -3.73802 0.710771 0
M  V30 9448 H 876.707 -3.04946 2.40061 0
M  V30 9449 H 874.808 -3.72588 0.0294464 0
M  V30 9450 H 874.921 -4.45295 1.76775 0
M  V30 9451 H 873.285 -2.40128 0.849159 0
M  V30 9452 H 874.068 -2.33225 2.51915 0
M  V30 9453 N 876.513 -0.788492 -1.36457 0
M  V30 9454 C 877.929 -0.470063 -1.52521 0
M  V30 9455 C 878.129 1.01176 -1.74258 0
M  V30 9456 O 877.185 1.79726 -1.77355 0
M  V30 9457 C 878.498 -1.2997 -2.71161 0
M  V30 9458 C 880.046 -1.2933 -2.85031 0
M  V30 9459 C 880.521 -2.10665 -4.06674 0
M  V30 9460 N 882.012 -2.08107 -4.13819 0
M  V30 9461 C 882.747 -2.6781 -5.07016 0
M  V30 9462 N 882.243 -3.36369 -6.05663 0
M  V30 9463 N 884.036 -2.57549 -4.99625 0
M  V30 9464 H 876.187 -1.7484 -1.20602 0
M  V30 9465 H 878.45 -0.743159 -0.588574 0
M  V30 9466 H 878.156 -2.35051 -2.61618 0
M  V30 9467 H 878.03 -0.940367 -3.6529 0
M  V30 9468 H 880.417 -0.250414 -2.94036 0
M  V30 9469 H 880.498 -1.69239 -1.91812 0
M  V30 9470 H 880.142 -3.14984 -3.98431 0
M  V30 9471 H 880.072 -1.68128 -4.9904 0
M  V30 9472 H 882.563 -1.58208 -3.43189 0
M  V30 9473 H 882.876 -3.79258 -6.73338 0
M  V30 9474 H 881.221 -3.40471 -6.05891 0
M  V30 9475 H 884.412 -2.0359 -4.21508 0
M  V30 9476 H 884.585 -3.0437 -5.72069 0
M  V30 9477 N 877.991 1.48044 -0.54043 0
M  V30 9478 C 878.941 2.26768 0.236657 0
M  V30 9479 C 879.925 1.33341 0.900505 0
M  V30 9480 O 881.117 1.57809 0.801584 0
M  V30 9481 C 878.246 3.18685 1.27651 0
M  V30 9482 C 877.332 4.19589 0.616923 0
M  V30 9483 N 877.723 5.04889 -0.303377 0
M  V30 9484 C 876.021 4.37375 0.872879 0
M  V30 9485 C 876.722 5.77654 -0.684905 0
M  V30 9486 N 875.698 5.43583 -0.0435728 0
M  V30 9487 H 879.5 2.90098 -0.471183 0
M  V30 9488 H 877.014 1.58378 -0.359183 0
M  V30 9489 H 879.011 3.73752 1.84702 0
M  V30 9490 H 877.671 2.56911 1.98562 0
M  V30 9491 H 878.682 5.13461 -0.676591 0
M  V30 9492 H 875.359 3.86784 1.57177 0
M  V30 9493 H 876.749 6.56285 -1.44015 0
M  V30 9494 N 879.47 0.276058 1.55163 0
M  V30 9495 C 880.719 -0.341098 1.98795 0
M  V30 9496 C 881.032 -1.56905 1.16791 0
M  V30 9497 O 882.238 -2.25922 1.50571 0
M  V30 9498 C 880.694 -0.658231 3.5383 0
M  V30 9499 C 880.302 0.549972 4.44611 0
M  V30 9500 C 882.046 -1.23796 4.06048 0
M  V30 9501 C 879.953 0.207373 5.91036 0
M  V30 9502 H 878.883 -0.131224 0.742493 0
M  V30 9503 H 881.534 0.380858 1.79504 0
M  V30 9504 H 879.916 -1.43911 3.68925 0
M  V30 9505 H 881.09 1.32681 4.41285 0
M  V30 9506 H 879.405 1.04661 4.03032 0
M  V30 9507 H 882.002 -1.50811 5.12991 0
M  V30 9508 H 882.345 -2.17214 3.55139 0
M  V30 9509 H 882.878 -0.519345 3.94395 0
M  V30 9510 H 879.617 1.10946 6.46043 0
M  V30 9511 H 879.137 -0.532687 5.9743 0
M  V30 9512 H 880.816 -0.200072 6.46691 0
M  V30 9513 N 880.948 -1.576 0.00335426 0
M  V30 9514 C 881.878 -2.11668 -0.985839 0
M  V30 9515 C 882.859 -1.02661 -1.35627 0
M  V30 9516 O 884.044 -1.30361 -1.43943 0
M  V30 9517 C 881.174 -2.62273 -2.27662 0
M  V30 9518 C 880.128 -3.75837 -2.0477 0
M  V30 9519 C 879.454 -4.12769 -3.39891 0
M  V30 9520 C 880.754 -5.02975 -1.40759 0
M  V30 9521 H 882.448 -2.9457 -0.535637 0
M  V30 9522 H 879.994 -1.41702 -0.256204 0
M  V30 9523 H 881.947 -2.98727 -2.97221 0
M  V30 9524 H 880.671 -1.76498 -2.74802 0
M  V30 9525 H 879.33 -3.39782 -1.37636 0
M  V30 9526 H 878.978 -3.24013 -3.8474 0
M  V30 9527 H 878.678 -4.89281 -3.25389 0
M  V30 9528 H 880.202 -4.51784 -4.1076 0
M  V30 9529 H 881.616 -5.37179 -2.00279 0
M  V30 9530 H 880.013 -5.84315 -1.36734 0
M  V30 9531 H 881.083 -4.83431 -0.377218 0
M  V30 9532 N 882.426 0.269451 -1.5528 0
M  V30 9533 C 883.656 1.01724 -1.79821 0
M  V30 9534 C 884.064 1.80298 -0.573532 0
M  V30 9535 O 883.407 1.77666 0.466963 0
M  V30 9536 C 883.469 2.02043 -2.97353 0
M  V30 9537 C 883.133 1.42375 -4.34256 0
M  V30 9538 C 884.13 0.837611 -5.13108 0
M  V30 9539 C 881.815 1.44988 -4.8092 0
M  V30 9540 C 883.809 0.285557 -6.3676 0
M  V30 9541 C 881.496 0.893969 -6.04526 0
M  V30 9542 C 882.494 0.312809 -6.82283 0
M  V30 9543 O 882.182 -0.234582 -8.03558 0
M  V30 9544 H 881.914 0.30604 -0.602757 0
M  V30 9545 H 884.468 0.30454 -2.0313 0
M  V30 9546 H 882.698 2.77082 -2.69745 0
M  V30 9547 H 884.387 2.6298 -3.09187 0
M  V30 9548 H 885.153 0.81009 -4.78187 0
M  V30 9549 H 881.032 1.89162 -4.20403 0
M  V30 9550 H 884.576 -0.168696 -6.97396 0
M  V30 9551 H 880.473 0.918742 -6.38928 0
M  V30 9552 H 881.241 -0.124282 -8.18406 0
M  V30 9553 N 883.904 1.48273 0.534124 0
M  V30 9554 C 885.144 1.57674 1.3007 0
M  V30 9555 C 885.508 0.243256 1.90453 0
M  V30 9556 O 886.709 0.212231 2.67961 0
M  V30 9557 C 884.98 2.68044 2.36405 0
M  V30 9558 S 886.539 2.97183 3.22843 0
M  V30 9559 H 883.357 0.55652 0.442501 0
M  V30 9560 H 885.959 1.85774 0.60896 0
M  V30 9561 H 884.663 3.63498 1.90518 0
M  V30 9562 H 884.194 2.41833 3.10291 0
M  V30 9563 H 886.209 2.36164 4.36396 0
M  V30 9564 N 885.382 -0.782676 1.36792 0
M  V30 9565 C 886.329 -1.89558 1.31667 0
M  V30 9566 C 887.299 -1.65076 0.184147 0
M  V30 9567 O 888.484 -1.87143 0.371753 0
M  V30 9568 C 885.624 -3.26469 1.11858 0
M  V30 9569 C 884.737 -3.62978 2.34245 0
M  V30 9570 C 883.872 -4.89041 2.07394 0
M  V30 9571 C 882.911 -5.18249 3.25706 0
M  V30 9572 N 882.048 -6.35497 2.98476 0
M  V30 9573 H 886.888 -1.93274 2.26824 0
M  V30 9574 H 884.425 -0.945057 1.12726 0
M  V30 9575 H 886.383 -4.05431 0.983968 0
M  V30 9576 H 885.013 -3.22158 0.203531 0
M  V30 9577 H 884.065 -2.79087 2.58485 0
M  V30 9578 H 885.377 -3.80507 3.22514 0
M  V30 9579 H 884.531 -5.75883 1.90901 0
M  V30 9580 H 883.27 -4.73594 1.16446 0
M  V30 9581 H 882.275 -4.29887 3.4275 0
M  V30 9582 H 883.5 -5.35611 4.1749 0
M  V30 9583 H 881.446 -6.21429 2.10146 0
M  V30 9584 H 881.363 -6.5339 3.80286 0
M  V30 9585 H 882.631 -7.25304 2.85577 0
M  V30 9586 N 886.86 -1.21182 -1.00761 0
M  V30 9587 C 888.276 -0.968607 -1.26847 0
M  V30 9588 C 888.476 0.346561 -1.98497 0
M  V30 9589 O 887.532 1.07287 -2.28573 0
M  V30 9590 C 888.845 -2.1574 -2.09467 0
M  V30 9591 C 890.393 -2.19937 -2.22703 0
M  V30 9592 C 890.868 -3.38328 -3.08704 0
M  V30 9593 N 892.359 -3.38398 -3.16293 0
M  V30 9594 C 893.094 -4.26653 -3.83086 0
M  V30 9595 N 892.59 -5.25101 -4.5193 0
M  V30 9596 N 894.383 -4.14469 -3.797 0
M  V30 9597 H 886.534 -2.05763 -0.526816 0
M  V30 9598 H 888.797 -0.90087 -0.29519 0
M  V30 9599 H 888.503 -3.11034 -1.64167 0
M  V30 9600 H 888.377 -2.14584 -3.10216 0
M  V30 9601 H 890.764 -1.25201 -2.67224 0
M  V30 9602 H 890.845 -2.25139 -1.21433 0
M  V30 9603 H 890.489 -4.33356 -2.64886 0
M  V30 9604 H 890.419 -3.30364 -4.10082 0
M  V30 9605 H 892.91 -2.67149 -2.67282 0
M  V30 9606 H 893.223 -5.8875 -5.00592 0
M  V30 9607 H 891.568 -5.29029 -4.50726 0
M  V30 9608 H 894.759 -3.3682 -3.25069 0
M  V30 9609 H 894.932 -4.83458 -4.31477 0
M  V30 9610 N 888.338 1.20213 -1.01915 0
M  V30 9611 C 889.563 1.94163 -0.729076 0
M  V30 9612 C 889.988 1.74416 0.704323 0
M  V30 9613 O 889.346 1.0401 1.48498 0
M  V30 9614 C 889.394 3.44258 -1.07324 0
M  V30 9615 O 888.498 4.11979 -0.186367 0
M  V30 9616 H 887.839 0.606506 -0.270272 0
M  V30 9617 H 890.369 1.52571 -1.3632 0
M  V30 9618 H 890.379 3.94888 -1.02603 0
M  V30 9619 H 889.054 3.57954 -2.11759 0
M  V30 9620 H 887.631 3.7176 -0.291334 0
M  V30 9621 N 889.816 0.795718 1.36037 0
M  V30 9622 C 890.749 0.144269 2.27744 0
M  V30 9623 C 891.727 -0.683351 1.47543 0
M  V30 9624 O 892.911 -0.652976 1.76829 0
M  V30 9625 C 890.038 -0.800944 3.29094 0
M  V30 9626 C 889.084 -0.0543234 4.26465 0
M  V30 9627 S 889.917 1.27426 5.20118 0
M  V30 9628 C 891.073 0.333213 6.25012 0
M  V30 9629 H 891.306 0.921827 2.82648 0
M  V30 9630 H 888.839 0.590241 1.42673 0
M  V30 9631 H 890.797 -1.34082 3.87985 0
M  V30 9632 H 889.458 -1.5518 2.7309 0
M  V30 9633 H 888.651 -0.771788 4.98056 0
M  V30 9634 H 888.253 0.415264 3.71687 0
M  V30 9635 H 890.545 -0.485604 6.75757 0
M  V30 9636 H 891.488 1.01798 7.00744 0
M  V30 9637 H 891.896 -0.066256 5.64461 0
M  V30 9638 N 891.294 -1.47756 0.548274 0
M  V30 9639 C 892.226 -2.27921 -0.24177 0
M  V30 9640 C 893.239 -1.36471 -0.887658 0
M  V30 9641 O 894.428 -1.6137 -0.763016 0
M  V30 9642 C 891.528 -3.10449 -1.35922 0
M  V30 9643 C 890.701 -4.298 -0.811808 0
M  V30 9644 C 889.76 -4.93994 -1.81264 0
M  V30 9645 O 888.786 -5.52657 -1.3623 0
M  V30 9646 N 889.988 -4.87882 -3.14566 0
M  V30 9647 H 892.753 -2.96365 0.445848 0
M  V30 9648 H 890.314 -1.57286 0.383769 0
M  V30 9649 H 892.306 -3.50261 -2.02729 0
M  V30 9650 H 890.876 -2.44306 -1.95021 0
M  V30 9651 H 890.096 -3.94186 0.0327929 0
M  V30 9652 H 891.384 -5.0702 -0.425272 0
M  V30 9653 H 890.782 -4.41405 -3.53805 0
M  V30 9654 H 889.339 -5.3174 -3.76956 0
M  V30 9655 N 892.772 -0.284283 -1.55015 0
M  V30 9656 C 893.682 0.60906 -2.26556 0
M  V30 9657 C 894.698 1.16246 -1.29472 0
M  V30 9658 O 895.874 1.1908 -1.62425 0
M  V30 9659 C 892.939 1.77246 -2.97968 0
M  V30 9660 C 892 1.25482 -4.10552 0
M  V30 9661 C 891.233 2.36277 -4.78549 0
M  V30 9662 O 891.456 3.55829 -4.45805 0
M  V30 9663 O 890.39 2.03914 -5.66306 0
M  V30 9664 H 894.216 0.0292298 -3.03686 0
M  V30 9665 H 891.801 -0.0513466 -1.49312 0
M  V30 9666 H 893.683 2.45062 -3.42815 0
M  V30 9667 H 892.358 2.33921 -2.23747 0
M  V30 9668 H 891.265 0.542859 -3.7014 0
M  V30 9669 H 892.598 0.733708 -4.86701 0
M  V30 9670 N 894.251 1.57596 -0.0117121 0
M  V30 9671 C 895.497 1.92189 0.665966 0
M  V30 9672 C 895.852 0.887145 1.70726 0
M  V30 9673 O 895.145 -0.099151 1.91343 0
M  V30 9674 C 895.339 3.31296 1.34082 0
M  V30 9675 C 895.168 4.48205 0.366406 0
M  V30 9676 C 893.938 5.05293 -0.0274458 0
M  V30 9677 C 896.136 5.12951 -0.37219 0
M  V30 9678 N 894.118 6.0572 -0.998846 0
M  V30 9679 C 895.489 6.08318 -1.1979 0
M  V30 9680 C 897.544 4.95998 -0.434768 0
M  V30 9681 C 896.247 6.88555 -2.0805 0
M  V30 9682 C 898.273 5.7683 -1.30464 0
M  V30 9683 C 897.635 6.71798 -2.11816 0
M  V30 9684 H 893.734 0.751422 0.216537 0
M  V30 9685 H 896.318 1.94556 -0.0748079 0
M  V30 9686 H 894.489 3.2978 2.05182 0
M  V30 9687 H 896.221 3.53285 1.97413 0
M  V30 9688 H 892.976 4.72354 0.343382 0
M  V30 9689 H 893.4 6.60619 -1.48027 0
M  V30 9690 H 898.042 4.22417 0.179925 0
M  V30 9691 H 895.76 7.61453 -2.70581 0
M  V30 9692 H 899.346 5.6575 -1.35712 0
M  V30 9693 H 898.226 7.33256 -2.78037 0
M  V30 9694 N 895.729 -0.261212 1.5542 0
M  V30 9695 C 896.975 -0.992699 1.76843 0
M  V30 9696 C 897.308 -1.8551 0.574428 0
M  V30 9697 O 896.583 -1.89739 -0.427713 0
M  V30 9698 C 896.866 -1.86532 3.08022 0
M  V30 9699 C 896.719 -1.03206 4.378 0
M  V30 9700 C 898.038 -2.85036 3.35324 0
M  V30 9701 H 895.157 -0.359473 0.643388 0
M  V30 9702 H 897.799 -0.264214 1.88154 0
M  V30 9703 H 895.949 -2.48644 2.9851 0
M  V30 9704 H 897.621 -0.430743 4.59285 0
M  V30 9705 H 895.864 -0.335911 4.32497 0
M  V30 9706 H 896.535 -1.6761 5.25938 0
M  V30 9707 H 899.011 -2.3306 3.44706 0
M  V30 9708 H 897.887 -3.43226 4.28354 0
M  V30 9709 H 898.148 -3.60768 2.55537 0
M  V30 9710 O 897.246 -1.56289 -0.406932 0
M  V30 9711 H 897.937 -1.62159 -1.05944 0
M  V30 END ATOM
M  V30 BEGIN BOND
M  V30 END BOND
M  V30 END CTAB
M  END
$$$$
