drugbank_target|P48048 ATP-sensitive inward rectifier potassium channel 1 (DB00217; DB00222; DB00350; DB00414; DB01124; DB01382; DB08838)
 OpenBabel12092119363D

  0  0  0     0  0            999 V3000
M  V30 BEGIN CTAB
M  V30 COUNTS 6342 6418 0 0 0
M  V30 BEGIN ATOM
M  V30 1 H -0.908 1.98254 -0.117106 0
M  V30 2 N 0 1.576 0 0
M  V30 3 C 0.933 2.03868 1.02534 0
M  V30 4 C 1.911 0.928543 1.3348 0
M  V30 5 O 3.095 1.19667 1.45644 0
M  V30 6 C 0.222 2.43627 2.35294 0
M  V30 7 C -0.732 3.65373 2.2001 0
M  V30 8 S 0.101 5.13292 1.52614 0
M  V30 9 C 1.257 5.56322 2.86805 0
M  V30 10 H 1.49 2.90518 0.631377 0
M  V30 11 H -0.977 1.52953 0.210867 0
M  V30 12 H 0.981 2.67203 3.11629 0
M  V30 13 H -0.358 1.57376 2.7183 0
M  V30 14 H -1.165 3.90944 3.18086 0
M  V30 15 H -1.563 3.418 1.51819 0
M  V30 16 H 0.729 5.58782 3.83104 0
M  V30 17 H 1.672 6.56266 2.65933 0
M  V30 18 H 2.08 4.83886 2.90714 0
M  V30 19 N 1.4781 -0.272755 1.55222 0
M  V30 20 C 2.4261 -1.35705 1.88909 0
M  V30 21 C 3.4201 -1.5112 0.765456 0
M  V30 22 O 4.6261 -1.52901 0.949802 0
M  V30 23 H 1.0011 -0.453868 0.59959 0
M  V30 24 H 2.9721 -1.04544 2.79487 0
M  V30 25 C 1.7211 -2.71049 2.17779 0
M  V30 26 H 1.0441 -2.59979 3.03728 0
M  V30 27 H 2.4841 -3.45858 2.45272 0
M  V30 28 C 0.9431 -3.22165 0.985473 0
M  V30 29 O 1.4731 -4.01096 0.220233 0
M  V30 30 N -0.3209 -2.7985 0.783108 0
M  V30 31 H -0.7739 -2.15775 1.40708 0
M  V30 32 H -0.8159 -3.14397 -0.0130392 0
M  V30 33 N 2.9562 -1.48159 -0.537278 0
M  V30 34 C 3.9192 -1.61665 -1.62472 0
M  V30 35 C 4.9192 -0.490395 -1.5314 0
M  V30 36 O 6.1092 -0.755998 -1.5694 0
M  V30 37 C 3.2412 -1.57997 -3.02076 0
M  V30 38 H 4.4342 -2.58621 -1.51839 0
M  V30 39 H 1.9872 -1.36647 -0.758771 0
M  V30 40 H 2.7222 -0.624913 -3.18222 0
M  V30 41 H 2.5072 -2.39755 -3.10258 0
M  V30 42 H 3.9972 -1.70627 -3.81151 0
M  V30 43 N 4.4343 0.785586 -1.36625 0
M  V30 44 C 5.6593 1.57963 -1.34397 0
M  V30 45 C 6.0843 1.87964 0.071526 0
M  V30 46 O 5.4423 1.48182 1.0446 0
M  V30 47 C 5.4903 2.87511 -2.17646 0
M  V30 48 O 4.5943 3.81281 -1.57158 0
M  V30 49 H 3.9353 0.479014 -0.459828 0
M  V30 50 H 6.4653 0.973411 -1.79961 0
M  V30 51 H 6.4753 3.36745 -2.30362 0
M  V30 52 H 5.1503 2.65002 -3.20541 0
M  V30 53 H 3.7273 3.39885 -1.53403 0
M  V30 54 N 5.9124 1.20967 1.01018 0
M  V30 55 C 7.1374 1.0503 1.78839 0
M  V30 56 C 7.5624 -0.395752 1.8389 0
M  V30 57 O 6.9204 -1.28529 1.27867 0
M  V30 58 C 6.9684 1.64602 3.2084 0
M  V30 59 O 6.0724 0.887988 4.02726 0
M  V30 60 H 5.4134 0.369987 0.551367 0
M  V30 61 H 7.9434 1.60399 1.27018 0
M  V30 62 H 7.9534 1.68607 3.71532 0
M  V30 63 H 6.6284 2.69841 3.16479 0
M  V30 64 H 5.2054 0.922648 3.61305 0
M  V30 65 N 7.3905 -1.2043 1.01659 0
M  V30 66 C 8.8065 -1.41852 0.731442 0
M  V30 67 C 9.0065 -1.89358 -0.688898 0
M  V30 68 O 8.0625 -2.06247 -1.45666 0
M  V30 69 C 9.3755 -2.44019 1.75714 0
M  V30 70 C 10.9235 -2.57785 1.77527 0
M  V30 71 C 11.3985 -3.63194 2.79023 0
M  V30 72 N 12.8895 -3.70678 2.77763 0
M  V30 73 C 13.6245 -4.51897 3.52954 0
M  V30 74 N 13.1205 -5.36921 4.37821 0
M  V30 75 N 14.9135 -4.4643 3.41551 0
M  V30 76 H 7.0645 -0.879093 1.93354 0
M  V30 77 H 9.3275 -0.448425 0.835236 0
M  V30 78 H 9.0335 -2.1611 2.77469 0
M  V30 79 H 8.9075 -3.43007 1.56927 0
M  V30 80 H 11.2945 -2.85023 0.764569 0
M  V30 81 H 11.3755 -1.58992 2.00387 0
M  V30 82 H 11.0195 -3.36699 3.80258 0
M  V30 83 H 10.9495 -4.61609 2.53425 0
M  V30 84 H 13.4405 -3.09944 2.16201 0
M  V30 85 H 13.7535 -5.95981 4.91962 0
M  V30 86 H 12.0985 -5.36424 4.41899 0
M  V30 87 H 15.2895 -3.79042 2.74672 0
M  V30 88 H 15.4625 -5.09491 4.00404 0
M  V30 89 N 8.8686 -0.792821 -1.36206 0
M  V30 90 C 9.8166 -0.181555 -2.3189 0
M  V30 91 C 10.8106 0.661025 -1.55971 0
M  V30 92 O 12.0166 0.555728 -1.71206 0
M  V30 93 H 8.3916 -0.0399382 -0.750939 0
M  V30 94 H 10.3626 -1.00394 -2.81005 0
M  V30 95 C 9.1116 0.666444 -3.41253 0
M  V30 96 H 8.4346 0.0274489 -3.99791 0
M  V30 97 H 9.8746 1.06076 -4.10517 0
M  V30 98 C 8.3336 1.82614 -2.83114 0
M  V30 99 O 8.8636 2.9229 -2.75553 0
M  V30 100 N 7.0696 1.63333 -2.40356 0
M  V30 101 H 6.6166 0.741217 -2.46706 0
M  V30 102 H 6.5746 2.41087 -2.01803 0
M  V30 103 N 10.3467 1.47872 -0.545128 0
M  V30 104 C 11.5927 2.02793 -0.0166104 0
M  V30 105 C 11.9257 1.41987 1.32489 0
M  V30 106 O 11.2007 0.571045 1.85928 0
M  V30 107 C 11.4837 3.59989 0.0893294 0
M  V30 108 C 11.3367 4.3125 -1.27841 0
M  V30 109 C 12.6557 4.32606 0.808724 0
M  V30 110 H 9.7747 0.736962 -0.00751035 0
M  V30 111 H 12.4167 1.76433 -0.705085 0
M  V30 112 H 10.5667 3.82579 0.675681 0
M  V30 113 H 12.2387 4.20035 -1.90704 0
M  V30 114 H 10.4817 3.92076 -1.85632 0
M  V30 115 H 11.1527 5.39736 -1.15713 0
M  V30 116 H 13.6287 4.14936 0.310992 0
M  V30 117 H 12.5047 5.42251 0.851782 0
M  V30 118 H 12.7657 4.00963 1.86229 0
M  V30 119 N 11.8248 0.280983 1.55075 0
M  V30 120 C 13.0718 -0.334115 1.99725 0
M  V30 121 C 13.3998 -1.5542 1.1694 0
M  V30 122 O 12.6548 -1.94361 0.228531 0
M  V30 123 C 12.9538 -0.754656 3.49342 0
M  V30 124 C 12.6198 0.361445 4.49449 0
M  V30 125 C 11.2818 0.667893 4.76542 0
M  V30 126 C 13.6338 1.11322 5.09173 0
M  V30 127 C 10.9618 1.7296 5.60626 0
M  V30 128 C 13.3138 2.1647 5.9441 0
M  V30 129 C 11.9778 2.47742 6.19822 0
M  V30 130 H 11.2478 -0.122261 0.730844 0
M  V30 131 H 13.8948 0.395917 1.87363 0
M  V30 132 H 12.1998 -1.56446 3.5921 0
M  V30 133 H 13.8968 -1.24142 3.813 0
M  V30 134 H 10.4868 0.112481 4.28452 0
M  V30 135 H 14.6708 0.88973 4.8826 0
M  V30 136 H 9.9268 1.97684 5.78559 0
M  V30 137 H 14.1008 2.75193 6.3972 0
M  V30 138 H 11.7278 3.30145 6.84769 0
M  V30 139 N 13.3029 -1.57598 0.00835791 0
M  V30 140 C 14.5799 -1.82172 -0.712235 0
M  V30 141 C 14.9599 -0.887873 -1.9152 0
M  V30 142 O 14.3079 0.06146 -2.28417 0
M  V30 143 C 14.5179 -3.30875 -1.11008 0
M  V30 144 C 15.8659 -3.96826 -1.51044 0
M  V30 145 O 16.8899 -3.35248 -1.20364 0
M  V30 146 O 15.7489 -5.05318 -2.08125 0
M  V30 147 H 12.8429 -0.750435 -0.347529 0
M  V30 148 H 15.3889 -1.69665 0.0344523 0
M  V30 149 H 14.1609 -3.90481 -0.252982 0
M  V30 150 H 13.7839 -3.48412 -1.9156 0
M  V30 151 N 14.781 0.264519 -1.55364 0
M  V30 152 C 16.009 1.013 -1.80405 0
M  V30 153 C 16.424 1.79618 -0.581622 0
M  V30 154 O 15.781 1.76879 0.449468 0
M  V30 155 C 15.832 1.96487 -3.03439 0
M  V30 156 O 15.553 1.21341 -4.20961 0
M  V30 157 C 17.054 2.83079 -3.41147 0
M  V30 158 H 14.274 0.298875 -0.600762 0
M  V30 159 H 16.818 0.292736 -2.02394 0
M  V30 160 H 14.973 2.63965 -2.83551 0
M  V30 161 H 15.387 1.85573 -4.90574 0
M  V30 162 H 16.861 3.4565 -4.30384 0
M  V30 163 H 17.338 3.53286 -2.60932 0
M  V30 164 H 17.944 2.2108 -3.63323 0
M  V30 165 N 16.2591 1.48442 0.529413 0
M  V30 166 C 17.1891 1.65902 1.64313 0
M  V30 167 C 18.1701 0.507897 1.6234 0
M  V30 168 O 19.3551 0.740503 1.79528 0
M  V30 169 C 16.4851 1.69911 3.02898 0
M  V30 170 C 15.4391 2.8453 3.19729 0
M  V30 171 C 14.7651 2.73629 4.59381 0
M  V30 172 C 16.0651 4.25821 3.02447 0
M  V30 173 H 17.7591 2.5914 1.49955 0
M  V30 174 H 15.3051 1.24709 0.719982 0
M  V30 175 H 17.2581 1.80715 3.80684 0
M  V30 176 H 15.9821 0.732524 3.18279 0
M  V30 177 H 14.6411 2.73283 2.44361 0
M  V30 178 H 14.2891 1.74938 4.71599 0
M  V30 179 H 13.9891 3.50541 4.71588 0
M  V30 180 H 15.5131 2.86401 5.39265 0
M  V30 181 H 16.9271 4.37898 3.70024 0
M  V30 182 H 15.3241 5.03735 3.26146 0
M  V30 183 H 16.3941 4.42244 1.98867 0
M  V30 184 N 17.7372 -0.778329 1.37039 0
M  V30 185 C 18.9862 -1.53189 1.3121 0
M  V30 186 C 19.2992 -1.95328 -0.103095 0
M  V30 187 O 20.5052 -2.70012 -0.283826 0
M  V30 188 C 18.9612 -2.76591 2.30272 0
M  V30 189 C 18.5692 -2.41577 3.77286 0
M  V30 190 C 20.3132 -3.5455 2.33441 0
M  V30 191 C 18.2202 -3.61441 4.68096 0
M  V30 192 H 17.1502 -0.5751 0.487622 0
M  V30 193 H 19.8012 -0.853101 1.62464 0
M  V30 194 H 18.1832 -3.46326 1.92027 0
M  V30 195 H 19.3572 -1.79668 4.2433 0
M  V30 196 H 17.6722 -1.76806 3.76999 0
M  V30 197 H 20.2692 -4.43628 2.98493 0
M  V30 198 H 20.6122 -3.93936 1.34611 0
M  V30 199 H 21.1452 -2.91805 2.7036 0
M  V30 200 H 17.8842 -3.27142 5.6803 0
M  V30 201 H 17.4042 -4.22478 4.25761 0
M  V30 202 H 19.0832 -4.28335 4.8491 0
M  V30 203 N 19.2153 -1.21501 -1.00376 0
M  V30 204 C 20.6313 -0.972629 -1.26539 0
M  V30 205 C 20.8313 0.340257 -1.98606 0
M  V30 206 O 19.8873 1.06561 -2.28913 0
M  V30 207 C 21.2003 -2.16404 -2.08781 0
M  V30 208 C 22.7483 -2.20643 -2.22004 0
M  V30 209 C 23.2233 -3.39306 -3.07629 0
M  V30 210 N 24.7143 -3.39401 -3.15217 0
M  V30 211 C 25.4493 -4.27867 -3.81729 0
M  V30 212 N 24.9453 -5.26533 -4.5026 0
M  V30 213 N 26.7383 -4.15672 -3.78382 0
M  V30 214 H 18.8893 -2.05929 -0.520281 0
M  V30 215 H 21.1523 -0.901803 -0.292328 0
M  V30 216 H 20.8583 -3.11554 -1.63178 0
M  V30 217 H 20.7323 -2.15567 -3.09533 0
M  V30 218 H 23.1193 -1.26048 -2.66825 0
M  V30 219 H 23.2003 -2.25523 -1.20718 0
M  V30 220 H 22.8443 -4.34195 -2.63509 0
M  V30 221 H 22.7743 -3.31665 -4.09031 0
M  V30 222 H 25.2653 -2.67997 -2.66432 0
M  V30 223 H 25.5783 -5.90337 -4.98721 0
M  V30 224 H 23.9233 -5.30457 -4.49044 0
M  V30 225 H 27.1143 -3.3785 -3.23998 0
M  V30 226 H 27.2873 -4.84825 -4.2994 0
M  V30 227 N 20.6934 1.19889 -1.02296 0
M  V30 228 C 21.9394 1.89701 -0.717033 0
M  V30 229 C 22.2724 1.7905 0.751989 0
M  V30 230 O 21.5474 1.17891 1.547 0
M  V30 231 C 21.8304 3.40858 -1.16136 0
M  V30 232 C 21.6834 3.60411 -2.69117 0
M  V30 233 C 23.0024 4.33876 -0.737549 0
M  V30 234 H 20.1214 0.688874 -0.261957 0
M  V30 235 H 22.7634 1.41154 -1.27183 0
M  V30 236 H 20.9134 3.82335 -0.689342 0
M  V30 237 H 22.5854 3.28145 -3.2422 0
M  V30 238 H 20.8284 3.03665 -3.0979 0
M  V30 239 H 21.4994 4.66396 -2.95261 0
M  V30 240 H 23.9754 4.00081 -1.14344 0
M  V30 241 H 22.8514 5.38242 -1.0764 0
M  V30 242 H 23.1124 4.40628 0.360436 0
M  V30 243 N 22.1715 0.800033 1.35784 0
M  V30 244 C 23.1015 0.220184 2.3246 0
M  V30 245 C 24.0825 -0.65073 1.57161 0
M  V30 246 O 25.2675 -0.582359 1.85263 0
M  V30 247 C 22.3975 -0.637353 3.41402 0
M  V30 248 C 21.3515 0.134531 4.27789 0
M  V30 249 C 20.6775 -0.844285 5.27992 0
M  V30 250 C 21.9775 1.32979 5.05088 0
M  V30 251 H 23.6715 1.02787 2.81203 0
M  V30 252 H 21.2175 0.495717 1.35199 0
M  V30 253 H 23.1705 -1.05302 4.08031 0
M  V30 254 H 21.8945 -1.47785 2.91251 0
M  V30 255 H 20.5535 0.531296 3.6273 0
M  V30 256 H 20.2015 -1.68011 4.74111 0
M  V30 257 H 19.9015 -0.332184 5.8666 0
M  V30 258 H 21.4255 -1.2583 5.97494 0
M  V30 259 H 22.8395 0.98934 5.64699 0
M  V30 260 H 21.2365 1.77593 5.7322 0
M  V30 261 H 22.3065 2.11978 4.36111 0
M  V30 262 N 23.6496 -1.47581 0.552962 0
M  V30 263 C 24.8776 -2.06875 0.0320556 0
M  V30 264 C 25.2926 -1.40625 -1.25976 0
M  V30 265 O 24.6496 -0.501349 -1.75479 0
M  V30 266 C 24.7006 -3.61092 -0.17167 0
M  V30 267 O 24.4216 -4.24858 1.06899 0
M  V30 268 C 25.9226 -4.37242 -0.730344 0
M  V30 269 H 23.1426 -0.669561 0.043915 0
M  V30 270 H 25.6866 -1.89646 0.765163 0
M  V30 271 H 23.8416 -3.7785 -0.854894 0
M  V30 272 H 24.2556 -5.17334 0.864059 0
M  V30 273 H 25.7296 -5.45842 -0.822203 0
M  V30 274 H 26.2066 -4.03235 -1.74064 0
M  V30 275 H 26.8126 -4.25219 -0.0829543 0
M  V30 276 N 25.1277 -0.289203 -1.54924 0
M  V30 277 C 26.0377 0.601863 -2.26748 0
M  V30 278 C 27.0537 1.15834 -1.2984 0
M  V30 279 O 28.2297 1.18564 -1.62802 0
M  V30 280 C 25.2947 1.76299 -2.98529 0
M  V30 281 C 24.3557 1.24178 -4.10948 0
M  V30 282 C 23.5887 2.34757 -4.79296 0
M  V30 283 O 23.8117 3.54411 -4.46933 0
M  V30 284 O 22.7457 2.02115 -5.66951 0
M  V30 285 H 26.5717 0.0195879 -3.03694 0
M  V30 286 H 24.1567 -0.0560868 -1.49295 0
M  V30 287 H 26.0387 2.43973 -3.43592 0
M  V30 288 H 24.7137 2.33209 -2.24488 0
M  V30 289 H 23.6207 0.531104 -3.70311 0
M  V30 290 H 24.9537 0.718252 -4.86931 0
M  V30 291 N 26.6058 1.57591 -0.0167156 0
M  V30 292 C 27.8308 1.9598 0.67872 0
M  V30 293 C 28.2558 0.892546 1.65575 0
M  V30 294 O 27.6138 -0.147772 1.80697 0
M  V30 295 C 27.6618 3.33468 1.37227 0
M  V30 296 O 26.7658 3.28954 2.48722 0
M  V30 297 H 26.1068 0.639339 0.17928 0
M  V30 298 H 28.6368 2.04463 -0.0748802 0
M  V30 299 H 28.6468 3.69417 1.7319 0
M  V30 300 H 27.3218 4.10694 0.656007 0
M  V30 301 H 25.8988 3.04705 2.14963 0
M  V30 302 N 28.0839 -0.256276 1.55502 0
M  V30 303 C 29.0169 -1.34321 1.84481 0
M  V30 304 C 29.9949 -1.46802 0.699131 0
M  V30 305 O 31.1789 -1.63165 0.943904 0
M  V30 306 C 28.3059 -2.71779 2.02123 0
M  V30 307 C 27.3519 -2.76496 3.24734 0
M  V30 308 S 28.1849 -2.3405 4.81644 0
M  V30 309 C 29.3409 -3.73452 5.02279 0
M  V30 310 H 29.5739 -1.09539 2.76385 0
M  V30 311 H 27.1069 -0.45678 1.47489 0
M  V30 312 H 29.0649 -3.50932 2.12972 0
M  V30 313 H 27.7259 -2.93803 1.11078 0
M  V30 314 H 26.9189 -3.77424 3.34016 0
M  V30 315 H 26.5209 -2.05379 3.12563 0
M  V30 316 H 28.8129 -4.6887 4.89047 0
M  V30 317 H 29.7559 -3.6911 6.04287 0
M  V30 318 H 30.1639 -3.6553 4.30172 0
M  V30 319 N 29.562 -1.4872 -0.521534 0
M  V30 320 C 30.809 -1.57168 -1.27689 0
M  V30 321 C 31.137 -0.249275 -1.92896 0
M  V30 322 O 30.392 0.761162 -1.80291 0
M  V30 323 C 30.691 -2.66497 -2.38148 0
M  V30 324 C 30.357 -4.08664 -1.90538 0
M  V30 325 C 29.019 -4.47357 -1.77271 0
M  V30 326 C 31.371 -4.97724 -1.54663 0
M  V30 327 C 28.699 -5.72905 -1.26478 0
M  V30 328 C 31.051 -6.2377 -1.05329 0
M  V30 329 C 29.715 -6.61311 -0.906861 0
M  V30 330 H 28.985 -0.575117 -0.467249 0
M  V30 331 H 31.632 -1.82472 -0.581051 0
M  V30 332 H 29.937 -2.35085 -3.13437 0
M  V30 333 H 31.634 -2.70246 -2.96257 0
M  V30 334 H 28.224 -3.78111 -2.01816 0
M  V30 335 H 32.408 -4.68501 -1.63768 0
M  V30 336 H 27.664 -6.00709 -1.13835 0
M  V30 337 H 31.838 -6.9217 -0.76644 0
M  V30 338 H 29.465 -7.5848 -0.511083 0
M  V30 339 N 31.0401 0.771051 -1.3745 0
M  V30 340 C 31.9871 1.88435 -1.3327 0
M  V30 341 C 32.9571 1.64914 -0.198136 0
M  V30 342 O 34.1421 1.86821 -0.387606 0
M  V30 343 C 31.2821 3.25509 -1.14622 0
M  V30 344 C 30.3951 3.60979 -2.37314 0
M  V30 345 C 29.5301 4.87265 -2.11533 0
M  V30 346 C 28.5691 5.15469 -3.30088 0
M  V30 347 N 27.7061 6.32944 -3.03853 0
M  V30 348 H 32.5461 1.91344 -2.28455 0
M  V30 349 H 30.0831 0.935466 -1.13523 0
M  V30 350 H 32.0411 4.04582 -1.01831 0
M  V30 351 H 30.6711 3.21974 -0.230837 0
M  V30 352 H 29.7231 2.76885 -2.60842 0
M  V30 353 H 31.0351 3.77759 -3.25729 0
M  V30 354 H 30.1891 5.74244 -1.95777 0
M  V30 355 H 28.9281 4.7259 -1.20457 0
M  V30 356 H 27.9331 4.26966 -3.46382 0
M  V30 357 H 29.1581 5.32052 -4.22016 0
M  V30 358 H 27.1041 6.19625 -2.15407 0
M  V30 359 H 27.0211 6.50143 -3.85812 0
M  V30 360 H 28.2891 7.22857 -2.91716 0
M  V30 361 N 32.5182 1.22032 0.997298 0
M  V30 362 C 33.4682 0.953838 2.07089 0
M  V30 363 C 34.4522 -0.0938669 1.60626 0
M  V30 364 O 35.6442 0.116078 1.76619 0
M  V30 365 C 32.7732 0.528726 3.39204 0
M  V30 366 C 31.8592 1.61092 3.92314 0
M  V30 367 N 32.2502 2.83768 4.18699 0
M  V30 368 C 30.5482 1.48158 4.20672 0
M  V30 369 C 31.2492 3.53715 4.61802 0
M  V30 370 N 30.2252 2.81174 4.65233 0
M  V30 371 H 34.0272 1.88577 2.25424 0
M  V30 372 H 31.5412 1.11719 1.17867 0
M  V30 373 H 33.5382 0.31915 4.15677 0
M  V30 374 H 32.1982 -0.39635 3.22272 0
M  V30 375 H 33.2092 3.20238 4.07023 0
M  V30 376 H 29.8862 0.622369 4.12835 0
M  V30 377 H 31.2762 4.58793 4.90875 0
M  V30 378 N 33.9963 -1.19345 1.0293 0
M  V30 379 C 34.9263 -2.2481 0.631105 0
M  V30 380 C 35.9073 -1.66245 -0.360104 0
M  V30 381 O 37.0923 -1.92677 -0.242726 0
M  V30 382 C 34.2223 -3.47295 -0.0184607 0
M  V30 383 C 33.1763 -4.18536 0.895073 0
M  V30 384 C 32.5023 -5.34586 0.110592 0
M  V30 385 C 33.8023 -4.73287 2.209 0
M  V30 386 H 35.4963 -2.58372 1.51275 0
M  V30 387 H 33.0423 -1.24194 0.728818 0
M  V30 388 H 34.9953 -4.20268 -0.308675 0
M  V30 389 H 33.7193 -3.12933 -0.934907 0
M  V30 390 H 32.3783 -3.47446 1.16949 0
M  V30 391 H 32.0263 -4.96469 -0.807902 0
M  V30 392 H 31.7263 -5.83183 0.719087 0
M  V30 393 H 33.2503 -6.10355 -0.172871 0
M  V30 394 H 34.6643 -5.38013 1.98028 0
M  V30 395 H 33.0613 -5.32373 2.76946 0
M  V30 396 H 34.1313 -3.91331 2.86336 0
M  V30 397 N 35.4744 -0.807222 -1.35358 0
M  V30 398 C 36.8904 -0.491038 -1.51858 0
M  V30 399 C 37.0904 0.987648 -1.75635 0
M  V30 400 O 36.1464 1.77265 -1.79815 0
M  V30 401 C 37.4594 -1.33695 -2.69344 0
M  V30 402 C 39.0074 -1.33246 -2.83222 0
M  V30 403 C 39.4824 -2.1625 -4.03733 0
M  V30 404 N 40.9734 -2.1379 -4.10911 0
M  V30 405 C 41.7084 -2.74772 -5.03277 0
M  V30 406 N 41.2044 -3.44684 -6.0097 0
M  V30 407 N 42.9974 -2.6441 -4.96028 0
M  V30 408 H 35.1484 -1.76485 -1.18181 0
M  V30 409 H 37.4114 -0.751199 -0.578276 0
M  V30 410 H 37.1174 -2.38634 -2.58354 0
M  V30 411 H 36.9914 -0.990618 -3.6396 0
M  V30 412 H 39.3784 -0.290911 -2.93663 0
M  V30 413 H 39.4594 -1.71866 -1.89461 0
M  V30 414 H 39.1034 -3.20445 -3.94052 0
M  V30 415 H 39.0334 -1.74989 -4.96675 0
M  V30 416 H 41.5244 -1.62923 -3.40976 0
M  V30 417 H 41.8374 -3.88501 -6.68047 0
M  V30 418 H 40.1824 -3.48788 -6.01142 0
M  V30 419 H 43.3734 -2.0938 -4.18662 0
M  V30 420 H 43.5464 -3.12225 -5.6782 0
M  V30 421 N 36.9525 1.47285 -0.560781 0
M  V30 422 C 37.8995 2.30058 0.18491 0
M  V30 423 C 38.8695 1.39281 0.904986 0
M  V30 424 O 40.0545 1.68241 0.899979 0
M  V30 425 C 37.1945 3.23317 1.20666 0
M  V30 426 C 36.3075 4.29186 0.492285 0
M  V30 427 C 35.4425 5.09592 1.49964 0
M  V30 428 C 34.4815 6.07232 0.770439 0
M  V30 429 N 33.6185 6.80584 1.72479 0
M  V30 430 H 38.4585 2.93302 -0.527048 0
M  V30 431 H 35.9955 1.44568 -0.271738 0
M  V30 432 H 37.9535 3.75811 1.81168 0
M  V30 433 H 36.5835 2.61929 1.88661 0
M  V30 434 H 35.6355 3.7972 -0.227333 0
M  V30 435 H 36.9475 4.98738 -0.0787929 0
M  V30 436 H 36.1015 5.66254 2.17809 0
M  V30 437 H 34.8405 4.3995 2.10464 0
M  V30 438 H 33.8455 5.49745 0.0780846 0
M  V30 439 H 35.0705 6.78884 0.171134 0
M  V30 440 H 33.0165 6.1367 2.3183 0
M  V30 441 H 32.9335 7.46319 1.20596 0
M  V30 442 H 34.2015 7.41818 2.39428 0
M  V30 443 N 38.4306 0.297415 1.54768 0
M  V30 444 C 39.6766 -0.306263 2.01081 0
M  V30 445 C 40.0316 -1.518 1.18214 0
M  V30 446 O 39.3246 -1.89967 0.249613 0
M  V30 447 C 39.5186 -0.717561 3.50123 0
M  V30 448 C 39.3476 0.45277 4.47415 0
M  V30 449 C 38.1176 0.943651 4.9641 0
M  V30 450 C 40.3156 1.29657 4.97688 0
M  V30 451 N 38.2976 2.08112 5.77549 0
M  V30 452 C 39.6686 2.28158 5.76493 0
M  V30 453 C 41.7236 1.32735 4.79881 0
M  V30 454 C 40.4266 3.29509 6.39387 0
M  V30 455 C 42.4526 2.32943 5.43591 0
M  V30 456 C 41.8146 3.30174 6.22225 0
M  V30 457 H 37.9136 -0.0766274 0.778237 0
M  V30 458 H 40.4976 0.426515 1.89971 0
M  V30 459 H 38.6686 -1.41952 3.6153 0
M  V30 460 H 40.4006 -1.30047 3.83236 0
M  V30 461 H 37.1556 0.51922 4.70745 0
M  V30 462 H 37.5796 2.65414 6.22803 0
M  V30 463 H 42.2216 0.589375 4.18672 0
M  V30 464 H 39.9396 4.04228 6.99732 0
M  V30 465 H 43.5256 2.36094 5.31743 0
M  V30 466 H 42.4056 4.06445 6.7065 0
M  V30 467 N 39.9087 -1.5758 0.0250728 0
M  V30 468 C 41.1547 -1.91917 -0.655413 0
M  V30 469 C 41.4877 -0.901433 -1.72011 0
M  V30 470 O 40.7627 0.0764069 -1.9435 0
M  V30 471 C 41.0457 -3.36751 -1.27558 0
M  V30 472 C 40.8987 -4.49258 -0.220719 0
M  V30 473 C 42.2177 -3.81469 -2.19475 0
M  V30 474 H 39.3367 -0.697925 -0.23679 0
M  V30 475 H 41.9787 -1.89825 0.0815036 0
M  V30 476 H 40.1287 -3.38664 -1.90365 0
M  V30 477 H 41.8007 -4.59478 0.409601 0
M  V30 478 H 40.0437 -4.31415 0.454264 0
M  V30 479 H 40.7147 -5.47618 -0.694175 0
M  V30 480 H 43.1907 -3.81266 -1.66659 0
M  V30 481 H 42.0667 -4.83512 -2.59822 0
M  V30 482 H 42.3277 -3.16744 -3.08424 0
M  V30 483 N 41.3868 0.248026 -1.55636 0
M  V30 484 C 42.6328 0.97767 -1.77678 0
M  V30 485 C 42.9658 1.85016 -0.590135 0
M  V30 486 O 42.2408 1.90095 0.411611 0
M  V30 487 C 42.5238 1.83914 -3.09593 0
M  V30 488 C 42.3768 0.99491 -4.38659 0
M  V30 489 C 43.6958 2.82183 -3.37729 0
M  V30 490 H 40.8148 0.354005 -0.646413 0
M  V30 491 H 43.4568 0.248253 -1.88371 0
M  V30 492 H 41.6068 2.46104 -3.00608 0
M  V30 493 H 43.2788 0.391789 -4.59633 0
M  V30 494 H 41.5218 0.299231 -4.32767 0
M  V30 495 H 42.1928 1.63145 -5.2734 0
M  V30 496 H 44.6688 2.30129 -3.4667 0
M  V30 497 H 43.5448 3.39582 -4.31249 0
M  V30 498 H 43.8058 3.58588 -2.58586 0
M  V30 499 N 42.8649 1.48995 0.513639 0
M  V30 500 C 44.0929 1.61531 1.29288 0
M  V30 501 C 44.5079 0.281801 1.86685 0
M  V30 502 O 43.8649 -0.731111 1.67215 0
M  V30 503 C 43.9159 2.67449 2.43215 0
M  V30 504 O 43.6369 3.95626 1.88179 0
M  V30 505 C 45.1379 2.90575 3.34785 0
M  V30 506 H 42.3579 0.544165 0.392588 0
M  V30 507 H 44.9019 1.9494 0.617956 0
M  V30 508 H 43.0569 2.36853 3.0656 0
M  V30 509 H 43.4709 4.53868 2.62876 0
M  V30 510 H 44.9449 3.68449 4.11035 0
M  V30 511 H 45.4219 2.00011 3.91015 0
M  V30 512 H 46.0279 3.22538 2.77218 0
M  V30 513 N 44.343 -0.763751 1.37857 0
M  V30 514 C 45.759 -1.06542 1.18832 0
M  V30 515 C 45.959 -2.01478 0.0299722 0
M  V30 516 O 45.015 -2.4458 -0.627447 0
M  V30 517 C 46.328 -1.65525 2.51042 0
M  V30 518 C 47.876 -1.77745 2.57635 0
M  V30 519 C 48.351 -2.4014 3.89996 0
M  V30 520 N 49.842 -2.47582 3.91481 0
M  V30 521 C 50.577 -2.96732 4.9065 0
M  V30 522 N 50.073 -3.45993 6.00217 0
M  V30 523 N 51.866 -2.95679 4.78048 0
M  V30 524 H 44.017 -0.133556 2.1198 0
M  V30 525 H 46.28 -0.121879 0.940133 0
M  V30 526 H 45.986 -1.03236 3.36207 0
M  V30 527 H 45.86 -2.64719 2.68707 0
M  V30 528 H 48.247 -2.39164 1.72872 0
M  V30 529 H 48.328 -0.772836 2.43846 0
M  V30 530 H 47.972 -1.79358 4.75177 0
M  V30 531 H 47.902 -3.41223 4.01092 0
M  V30 532 H 50.393 -2.1273 3.12337 0
M  V30 533 H 50.706 -3.81922 6.7183 0
M  V30 534 H 49.051 -3.44077 6.03851 0
M  V30 535 H 52.242 -2.56499 3.91568 0
M  V30 536 H 52.415 -3.33672 5.55488 0
M  V30 537 N 45.8211 -1.22559 -0.990812 0
M  V30 538 C 47.0681 -1.05141 -1.73065 0
M  V30 539 C 47.3961 0.413191 -1.9006 0
M  V30 540 O 46.6511 1.32257 -1.44245 0
M  V30 541 C 46.9501 -1.71011 -3.13831 0
M  V30 542 C 46.6161 -3.20911 -3.16745 0
M  V30 543 C 45.2781 -3.61812 -3.17247 0
M  V30 544 C 47.6301 -4.16846 -3.12872 0
M  V30 545 C 44.9581 -4.97127 -3.1158 0
M  V30 546 C 47.3101 -5.5214 -3.08746 0
M  V30 547 C 45.9741 -5.92419 -3.07565 0
M  V30 548 H 45.2441 -0.384738 -0.633291 0
M  V30 549 H 47.8911 -1.5235 -1.16025 0
M  V30 550 H 46.1961 -1.16133 -3.74193 0
M  V30 551 H 47.8931 -1.55023 -3.69823 0
M  V30 552 H 44.4831 -2.88344 -3.17105 0
M  V30 553 H 48.6671 -3.86263 -3.11632 0
M  V30 554 H 43.9231 -5.27562 -3.09012 0
M  V30 555 H 48.0971 -6.26201 -3.04705 0
M  V30 556 H 45.7241 -6.97236 -3.02929 0
M  V30 557 N 47.2992 1.18797 -1.03562 0
M  V30 558 C 48.5462 1.8865 -0.736023 0
M  V30 559 C 48.8742 1.80041 0.735889 0
M  V30 560 O 48.1292 1.19179 1.55225 0
M  V30 561 C 48.4282 3.38692 -1.14117 0
M  V30 562 C 48.0942 3.67504 -2.6125 0
M  V30 563 C 46.7562 3.75078 -3.01447 0
M  V30 564 C 49.1082 3.80293 -3.56408 0
M  V30 565 C 46.4362 3.92915 -4.35701 0
M  V30 566 C 48.7882 3.99645 -4.90374 0
M  V30 567 C 47.4522 4.05453 -5.30249 0
M  V30 568 H 46.7222 0.690321 -0.26933 0
M  V30 569 H 49.3692 1.40641 -1.29971 0
M  V30 570 H 47.6742 3.88645 -0.496202 0
M  V30 571 H 49.3712 3.91072 -0.886789 0
M  V30 572 H 45.9612 3.62223 -2.29113 0
M  V30 573 H 50.1452 3.73779 -3.26501 0
M  V30 574 H 45.4012 3.95653 -4.66121 0
M  V30 575 H 49.5752 4.08482 -5.64017 0
M  V30 576 H 47.2022 4.19027 -6.34288 0
M  V30 577 N 48.7773 0.814389 1.34928 0
M  V30 578 C 50.0253 0.397636 1.9815 0
M  V30 579 C 50.3463 -1.04069 1.64908 0
M  V30 580 O 49.6163 -1.72121 0.93548 0
M  V30 581 H 48.1963 0.144043 0.732981 0
M  V30 582 H 50.8583 1.04195 1.6471 0
M  V30 583 H 49.9543 0.509688 3.0791 0
M  V30 584 N 50.2554 -1.46986 0.568584 0
M  V30 585 C 51.2054 -2.27179 -0.193339 0
M  V30 586 C 52.1894 -1.35035 -0.874895 0
M  V30 587 O 53.3814 -1.5931 -0.771322 0
M  V30 588 C 50.5104 -3.21063 -1.21546 0
M  V30 589 C 49.5964 -4.2069 -0.536738 0
M  V30 590 N 49.9874 -5.04218 0.399673 0
M  V30 591 C 48.2854 -4.38961 -0.789254 0
M  V30 592 C 48.9864 -5.76242 0.795017 0
M  V30 593 N 47.9624 -5.434 0.1473 0
M  V30 594 H 51.7644 -2.89146 0.526458 0
M  V30 595 H 49.2784 -1.57664 0.389342 0
M  V30 596 H 51.2754 -3.77209 -1.77536 0
M  V30 597 H 49.9354 -2.60654 -1.93623 0
M  V30 598 H 50.9464 -5.12077 0.774454 0
M  V30 599 H 47.6234 -3.89713 -1.49767 0
M  V30 600 H 49.0134 -6.53417 1.56513 0
M  V30 601 N 51.7335 -0.305618 -1.54608 0
M  V30 602 C 52.9585 0.307562 -2.05107 0
M  V30 603 C 53.3835 1.46385 -1.18123 0
M  V30 604 O 52.7415 1.8034 -0.186324 0
M  V30 605 C 52.7895 0.73704 -3.52987 0
M  V30 606 O 51.8935 1.84134 -3.6901 0
M  V30 607 H 51.2345 0.0589143 -0.661381 0
M  V30 608 H 53.7645 -0.448807 -1.99617 0
M  V30 609 H 53.7745 1.02459 -3.94925 0
M  V30 610 H 52.4495 -0.108773 -4.15758 0
M  V30 611 H 51.0265 1.55398 -3.38978 0
M  V30 612 N 53.2116 1.57565 -0.0334293 0
M  V30 613 C 54.6276 1.56297 0.322997 0
M  V30 614 C 54.8276 1.03945 1.7262 0
M  V30 615 O 53.8836 0.688109 2.42943 0
M  V30 616 C 55.1966 3.00232 0.167664 0
M  V30 617 C 56.7446 3.12078 0.240107 0
M  V30 618 C 57.2196 4.57859 0.113513 0
M  V30 619 N 58.7106 4.62887 0.170359 0
M  V30 620 C 59.4456 5.73319 0.0962517 0
M  V30 621 N 58.9416 6.92794 -0.0291881 0
M  V30 622 N 60.7346 5.61898 0.150551 0
M  V30 623 H 52.8856 1.89923 -0.950956 0
M  V30 624 H 55.1486 0.873824 -0.367608 0
M  V30 625 H 54.8546 3.42501 -0.799102 0
M  V30 626 H 54.7286 3.654 0.936083 0
M  V30 627 H 57.1156 2.69718 1.19733 0
M  V30 628 H 57.1966 2.49623 -0.558763 0
M  V30 629 H 56.8406 5.009 -0.840314 0
M  V30 630 H 56.7706 5.18299 0.931302 0
M  V30 631 H 59.2616 3.76954 0.26728 0
M  V30 632 H 59.5746 7.7276 -0.0789252 0
M  V30 633 H 57.9196 6.94971 -0.0640299 0
M  V30 634 H 61.1106 4.67448 0.246981 0
M  V30 635 H 61.2836 6.47938 0.0893365 0
M  V30 636 N 54.6897 -0.239769 1.55765 0
M  V30 637 C 55.6217 -1.32001 1.87372 0
M  V30 638 C 56.6347 -1.43944 0.760522 0
M  V30 639 O 57.8237 -1.45167 1.0387 0
M  V30 640 C 54.9237 -2.69779 2.05115 0
M  V30 641 C 54.0967 -2.80014 3.36022 0
M  V30 642 C 53.1557 -3.98684 3.4342 0
M  V30 643 O 52.1817 -3.87877 4.16582 0
M  V30 644 N 53.3837 -5.12176 2.73232 0
M  V30 645 H 56.1487 -1.0522 2.80622 0
M  V30 646 H 53.7097 -0.429857 1.56089 0
M  V30 647 H 55.7017 -3.47517 2.07399 0
M  V30 648 H 54.2717 -2.89237 1.18577 0
M  V30 649 H 53.4917 -1.88896 3.45994 0
M  V30 650 H 54.7797 -2.83808 4.22292 0
M  V30 651 H 54.1777 -5.2385 2.13536 0
M  V30 652 H 52.7347 -5.88022 2.81199 0
M  V30 653 N 56.1678 -1.49265 -0.50573 0
M  V30 654 C 57.5838 -1.35923 -0.836486 0
M  V30 655 C 57.7838 -0.388704 -1.97715 0
M  V30 656 O 56.8398 0.181336 -2.51848 0
M  V30 657 C 58.1528 -2.76531 -1.18115 0
M  V30 658 C 59.7008 -2.85197 -1.28964 0
M  V30 659 C 60.1758 -4.26561 -1.66761 0
M  V30 660 N 61.6668 -4.2935 -1.73819 0
M  V30 661 C 62.4018 -5.35693 -2.045 0
M  V30 662 N 61.8978 -6.52287 -2.33438 0
M  V30 663 N 63.6908 -5.23105 -2.05711 0
M  V30 664 H 55.8418 -2.10965 0.246519 0
M  V30 665 H 58.1048 -0.9468 0.0476887 0
M  V30 666 H 57.8108 -3.49226 -0.416398 0
M  V30 667 H 57.6848 -3.11599 -2.1257 0
M  V30 668 H 60.0718 -2.12742 -2.04511 0
M  V30 669 H 60.1528 -2.53718 -0.325704 0
M  V30 670 H 59.7968 -4.99541 -0.917656 0
M  V30 671 H 59.7268 -4.55502 -2.64246 0
M  V30 672 H 62.2178 -3.4526 -1.53635 0
M  V30 673 H 62.5308 -7.29158 -2.56024 0
M  V30 674 H 60.8758 -6.55521 -2.30905 0
M  V30 675 H 64.0668 -4.31026 -1.82577 0
M  V30 676 H 64.2398 -6.06078 -2.29289 0
M  V30 677 N 57.6459 0.756429 -1.3826 0
M  V30 678 C 58.6089 1.85176 -1.35065 0
M  V30 679 C 59.6089 1.58818 -0.251703 0
M  V30 680 O 60.7989 1.66615 -0.508433 0
M  V30 681 C 57.9309 3.22596 -1.10201 0
M  V30 682 H 59.1239 1.89417 -2.3251 0
M  V30 683 H 56.6769 0.95783 -1.23512 0
M  V30 684 H 57.4119 3.24025 -0.133504 0
M  V30 685 H 57.1969 3.43122 -1.89762 0
M  V30 686 H 58.6869 4.02673 -1.10654 0
M  V30 687 N 59.124 1.23083 0.984299 0
M  V30 688 C 60.54 0.992637 1.24975 0
M  V30 689 C 60.74 -0.308618 1.99123 0
M  V30 690 O 59.796 -1.02905 2.30579 0
M  V30 691 C 61.109 2.19698 2.05312 0
M  V30 692 C 62.657 2.24147 2.18465 0
M  V30 693 C 63.132 3.44157 3.02192 0
M  V30 694 N 64.623 3.44372 3.09777 0
M  V30 695 C 65.358 4.33886 3.74874 0
M  V30 696 N 64.854 5.3363 4.41827 0
M  V30 697 N 66.647 4.21639 3.71721 0
M  V30 698 H 58.798 2.06731 0.487453 0
M  V30 699 H 61.061 0.906339 0.277944 0
M  V30 700 H 60.767 3.1411 1.58201 0
M  V30 701 H 60.641 2.20465 3.06064 0
M  V30 702 H 63.028 1.30277 2.64786 0
M  V30 703 H 63.109 2.27415 1.17115 0
M  V30 704 H 62.753 4.38332 2.56568 0
M  V30 705 H 62.683 3.3813 4.03702 0
M  V30 706 H 65.174 2.72201 2.62135 0
M  V30 707 H 65.487 5.98196 4.89266 0
M  V30 708 H 63.832 5.37534 4.40548 0
M  V30 709 H 67.023 3.42962 3.18582 0
M  V30 710 H 67.196 4.91604 4.22173 0
M  V30 711 N 60.6021 -1.18246 1.0419 0
M  V30 712 C 61.5321 -2.24127 0.654914 0
M  V30 713 C 62.5131 -1.66617 -0.342451 0
M  V30 714 O 63.6981 -1.92924 -0.222277 0
M  V30 715 C 60.8281 -3.47295 0.0183757 0
M  V30 716 C 59.7821 -4.17563 0.939414 0
M  V30 717 C 59.1081 -5.34438 0.167286 0
M  V30 718 C 60.4081 -4.70917 2.25908 0
M  V30 719 H 62.1021 -2.56753 1.54007 0
M  V30 720 H 59.6481 -1.23414 0.74195 0
M  V30 721 H 61.6011 -4.20572 -0.264082 0
M  V30 722 H 60.3251 -3.13907 -0.901664 0
M  V30 723 H 58.9841 -3.46186 1.20628 0
M  V30 724 H 58.6321 -4.97298 -0.7552 0
M  V30 725 H 58.3321 -5.82388 0.780901 0
M  V30 726 H 59.8561 -6.10504 -0.108125 0
M  V30 727 H 61.2701 -5.35882 2.03724 0
M  V30 728 H 59.6671 -5.29406 2.82577 0
M  V30 729 H 60.7371 -3.88272 2.9047 0
M  V30 730 N 62.0802 -0.821533 -1.34494 0
M  V30 731 C 63.3262 -0.409552 -1.98622 0
M  V30 732 C 63.6592 1.0244 -1.64984 0
M  V30 733 O 62.9342 1.71325 -0.920758 0
M  V30 734 C 63.2172 -0.610458 -3.54888 0
M  V30 735 C 63.0702 -2.09043 -3.98273 0
M  V30 736 C 64.3892 -0.0455379 -4.40076 0
M  V30 737 H 61.5082 -0.15028 -0.721516 0
M  V30 738 H 64.1502 -1.03384 -1.59411 0
M  V30 739 H 62.3002 -0.079044 -3.8842 0
M  V30 740 H 63.9722 -2.68537 -3.75081 0
M  V30 741 H 62.2152 -2.58139 -3.48635 0
M  V30 742 H 62.8862 -2.18182 -5.07051 0
M  V30 743 H 65.3622 -0.499557 -4.1309 0
M  V30 744 H 64.2382 -0.215922 -5.48475 0
M  V30 745 H 64.4992 1.04939 -4.29465 0
M  V30 746 N 63.5583 1.46682 -0.576371 0
M  V30 747 C 64.7833 2.07304 -0.0630475 0
M  V30 748 C 65.2083 1.42329 1.2298 0
M  V30 749 O 64.5663 0.504865 1.74129 0
M  V30 750 C 64.6143 3.60472 0.095895 0
M  V30 751 O 63.7183 3.95927 1.15394 0
M  V30 752 H 63.0593 0.661288 -0.0599463 0
M  V30 753 H 65.5893 1.88417 -0.797511 0
M  V30 754 H 65.5993 4.06865 0.304071 0
M  V30 755 H 64.2743 4.07157 -0.84828 0
M  V30 756 H 62.8513 3.61252 0.924724 0
M  V30 757 N 65.0364 0.313813 1.54444 0
M  V30 758 C 65.9834 -0.55655 2.23989 0
M  V30 759 C 66.9534 -1.11943 1.22711 0
M  V30 760 O 68.1384 -1.16158 1.51367 0
M  V30 761 C 65.2784 -1.71635 2.99392 0
M  V30 762 C 64.3914 -1.18364 4.15468 0
M  V30 763 C 63.5264 -2.30834 4.78424 0
M  V30 764 C 62.5654 -1.74762 5.86622 0
M  V30 765 N 61.7024 -2.80855 6.43479 0
M  V30 766 H 66.5424 0.0430893 2.97969 0
M  V30 767 H 64.0794 0.0330359 1.47063 0
M  V30 768 H 66.0374 -2.39868 3.41349 0
M  V30 769 H 64.6674 -2.28742 2.27765 0
M  V30 770 H 63.7194 -0.393163 3.78363 0
M  V30 771 H 65.0314 -0.733262 4.93381 0
M  V30 772 H 64.1854 -3.0699 5.23299 0
M  V30 773 H 62.9244 -2.79204 3.99871 0
M  V30 774 H 61.9294 -0.970995 5.41158 0
M  V30 775 H 63.1544 -1.2728 6.67066 0
M  V30 776 H 61.1004 -3.28535 5.67804 0
M  V30 777 H 61.0174 -2.40351 7.16776 0
M  V30 778 H 62.2854 -3.5687 6.93011 0
M  V30 779 N 66.5145 -1.57545 0.0417849 0
M  V30 780 C 67.7915 -1.83642 -0.673433 0
M  V30 781 C 68.1715 -0.928298 -1.89594 0
M  V30 782 O 67.5195 0.0129955 -2.28496 0
M  V30 783 C 67.7295 -3.33155 -1.03964 0
M  V30 784 C 69.0775 -3.99941 -1.42592 0
M  V30 785 O 70.1015 -3.37725 -1.13226 0
M  V30 786 O 68.9605 -5.09619 -1.9736 0
M  V30 787 H 66.0545 -0.757638 -0.331533 0
M  V30 788 H 68.6005 -1.69554 0.070433 0
M  V30 789 H 67.3725 -3.9093 -0.170098 0
M  V30 790 H 66.9955 -3.52396 -1.84126 0
M  V30 791 N 67.9926 0.231505 -1.5589 0
M  V30 792 C 69.2406 0.955461 -1.78088 0
M  V30 793 C 69.5616 1.85262 -0.608533 0
M  V30 794 O 68.8316 1.92277 0.375035 0
M  V30 795 H 67.4116 0.355787 -0.656829 0
M  V30 796 H 70.0736 0.245751 -1.93344 0
M  V30 797 H 69.1696 1.56814 -2.69844 0
M  V30 798 N 69.4707 1.49531 0.497807 0
M  V30 799 C 70.8867 1.36365 0.829266 0
M  V30 800 C 71.0867 0.399184 1.97506 0
M  V30 801 O 70.1427 -0.167977 2.51941 0
M  V30 802 C 71.4557 2.77153 1.16647 0
M  V30 803 C 73.0037 2.85877 1.27449 0
M  V30 804 C 73.4787 4.2744 1.64497 0
M  V30 805 N 74.9697 4.30265 1.7154 0
M  V30 806 C 75.7047 5.3677 2.01656 0
M  V30 807 N 75.2007 6.53516 2.29976 0
M  V30 808 N 76.9937 5.24189 2.02934 0
M  V30 809 H 69.1447 2.10831 -0.257703 0
M  V30 810 H 71.4077 0.946534 -0.0527091 0
M  V30 811 H 71.1137 3.49442 0.397872 0
M  V30 812 H 70.9877 3.12722 2.10915 0
M  V30 813 H 73.3747 2.13824 2.0338 0
M  V30 814 H 73.4557 2.53887 0.312244 0
M  V30 815 H 73.0997 5.00021 0.891151 0
M  V30 816 H 73.0297 4.56896 2.61827 0
M  V30 817 H 75.5207 3.4607 1.51802 0
M  V30 818 H 75.8337 7.30506 2.52153 0
M  V30 819 H 74.1787 6.56737 2.27425 0
M  V30 820 H 77.3697 4.31988 1.80289 0
M  V30 821 H 77.5427 6.07286 2.26071 0
M  V30 822 N 70.9488 -0.749086 1.3866 0
M  V30 823 C 72.1888 -1.52112 1.36534 0
M  V30 824 C 72.5528 -1.91951 -0.0432316 0
M  V30 825 O 73.7538 -2.68132 -0.189396 0
M  V30 826 C 72.0248 -2.73704 2.29828 0
M  V30 827 S 73.5838 -3.63519 2.45763 0
M  V30 828 H 70.4018 -0.520482 0.484375 0
M  V30 829 H 73.0038 -0.878963 1.74627 0
M  V30 830 H 71.7078 -2.42552 3.31054 0
M  V30 831 H 71.2388 -3.4286 1.929 0
M  V30 832 H 73.2538 -4.66712 1.68505 0
M  V30 833 N 72.4269 -1.23603 -0.977757 0
M  V30 834 C 73.3749 -1.01704 -2.09187 0
M  V30 835 C 74.3689 0.0448214 -1.69341 0
M  V30 836 O 75.5749 -0.108902 -1.7967 0
M  V30 837 H 71.9499 -0.311803 -0.684312 0
M  V30 838 H 73.9209 -1.96207 -2.24823 0
M  V30 839 C 72.6699 -0.627746 -3.41986 0
M  V30 840 H 71.9929 -1.43656 -3.73099 0
M  V30 841 H 73.4329 -0.514053 -4.20872 0
M  V30 842 C 71.8919 0.664238 -3.30287 0
M  V30 843 O 72.4219 1.71268 -3.6336 0
M  V30 844 N 70.6279 0.641156 -2.83439 0
M  V30 845 H 70.1749 -0.212376 -2.56723 0
M  V30 846 H 70.1329 1.50583 -2.75993 0
M  V30 847 N 73.905 1.17692 -1.04816 0
M  V30 848 C 75.154 1.87192 -0.751132 0
M  V30 849 C 75.467 1.8169 0.724441 0
M  V30 850 O 76.673 2.46625 1.13527 0
M  V30 851 C 75.129 3.35857 -1.29338 0
M  V30 852 C 74.737 3.4987 -2.79812 0
M  V30 853 C 76.481 4.10709 -1.07322 0
M  V30 854 C 74.388 4.92536 -3.27356 0
M  V30 855 H 73.318 0.701162 -0.277288 0
M  V30 856 H 75.969 1.32932 -1.26496 0
M  V30 857 H 74.351 3.89631 -0.707376 0
M  V30 858 H 75.525 3.06332 -3.44235 0
M  V30 859 H 73.84 2.88433 -3.00325 0
M  V30 860 H 76.437 5.15952 -1.4035 0
M  V30 861 H 76.78 4.16299 -0.0108001 0
M  V30 862 H 77.313 3.6313 -1.62423 0
M  V30 863 H 74.052 4.92119 -4.33012 0
M  V30 864 H 73.572 5.3676 -2.67673 0
M  V30 865 H 75.251 5.61288 -3.21815 0
M  V30 866 N 75.3831 0.828654 1.34056 0
M  V30 867 C 76.2931 0.256725 2.33191 0
M  V30 868 C 77.3091 -0.611898 1.62886 0
M  V30 869 O 78.4851 -0.51844 1.94613 0
M  V30 870 C 75.5501 -0.567238 3.42028 0
M  V30 871 C 74.6111 0.324458 4.28072 0
M  V30 872 C 73.8441 -0.460274 5.31712 0
M  V30 873 O 74.0671 -1.693 5.44696 0
M  V30 874 O 73.0011 0.160391 6.01686 0
M  V30 875 H 76.8271 1.07739 2.83947 0
M  V30 876 H 74.4121 0.59093 1.37217 0
M  V30 877 H 76.2941 -1.03582 4.08471 0
M  V30 878 H 74.9691 -1.36513 2.93506 0
M  V30 879 H 73.8761 0.840659 3.64532 0
M  V30 880 H 75.2091 1.08685 4.8005 0
M  V30 881 N 76.8612 -1.46375 0.584142 0
M  V30 882 C 78.1082 -2.02378 0.0702675 0
M  V30 883 C 78.4362 -1.45545 -1.29023 0
M  V30 884 O 77.6912 -0.610967 -1.85918 0
M  V30 885 C 77.9902 -3.57373 -0.0439342 0
M  V30 886 C 77.6562 -4.33252 1.24915 0
M  V30 887 C 76.3182 -4.53701 1.60341 0
M  V30 888 C 78.6702 -4.7681 2.1048 0
M  V30 889 C 75.9982 -5.1496 2.81128 0
M  V30 890 C 78.3502 -5.39404 3.30494 0
M  V30 891 C 77.0142 -5.5808 3.66201 0
M  V30 892 H 76.2842 -0.740554 0.0257127 0
M  V30 893 H 78.9312 -1.75727 0.761065 0
M  V30 894 H 77.2362 -3.83169 -0.817869 0
M  V30 895 H 78.9332 -3.98384 -0.457318 0
M  V30 896 H 75.5232 -4.17633 0.963364 0
M  V30 897 H 79.7072 -4.60766 1.84414 0
M  V30 898 H 74.9632 -5.27611 3.08928 0
M  V30 899 H 79.1372 -5.72114 3.97063 0
M  V30 900 H 76.7642 -6.05318 4.59885 0
M  V30 901 N 78.3393 -0.321999 -1.54275 0
M  V30 902 C 79.5873 0.280489 -2.00144 0
M  V30 903 C 79.9083 1.52777 -1.21178 0
M  V30 904 O 79.1783 1.9338 -0.313187 0
M  V30 905 H 77.7583 0.106632 -0.73935 0
M  V30 906 H 80.4203 -0.438184 -1.8991 0
M  V30 907 H 79.5163 0.537972 -3.07428 0
M  V30 908 N 79.8174 1.5752 -0.0501392 0
M  V30 909 C 80.7654 2.12651 0.942459 0
M  V30 910 C 81.7594 1.05807 1.32292 0
M  V30 911 O 82.9654 1.24217 1.3027 0
M  V30 912 H 79.3404 0.679673 0.321789 0
M  V30 913 H 81.3114 2.94951 0.452356 0
M  V30 914 C 80.0604 2.68565 2.20836 0
M  V30 915 H 79.3834 3.50439 1.92439 0
M  V30 916 H 80.8234 3.10761 2.8845 0
M  V30 917 C 79.2824 1.62291 2.95234 0
M  V30 918 O 79.8124 1.03508 3.88135 0
M  V30 919 N 78.0184 1.33836 2.57946 0
M  V30 920 H 77.5654 1.81826 1.82475 0
M  V30 921 H 77.5234 0.629595 3.08032 0
M  V30 922 N 81.2955 -0.223234 1.56011 0
M  V30 923 C 82.5415 -0.949279 1.79211 0
M  V30 924 C 82.8745 -1.84054 0.619494 0
M  V30 925 O 82.1495 -1.90726 -0.381317 0
M  V30 926 C 82.4325 -1.78965 3.12479 0
M  V30 927 C 82.2855 -0.924997 4.40186 0
M  V30 928 C 83.6045 -2.76774 3.42175 0
M  V30 929 H 80.7235 -0.343676 0.651963 0
M  V30 930 H 83.3655 -0.218253 1.88742 0
M  V30 931 H 81.5155 -2.41291 3.04485 0
M  V30 932 H 83.1875 -0.318615 4.60198 0
M  V30 933 H 81.4305 -0.230344 4.33188 0
M  V30 934 H 82.1015 -1.54735 5.29869 0
M  V30 935 H 84.5775 -2.24584 3.50287 0
M  V30 936 H 83.4535 -3.32678 4.36597 0
M  V30 937 H 83.7145 -3.54429 2.64258 0
M  V30 938 N 82.7736 -1.49793 -0.48987 0
M  V30 939 C 83.6836 -1.70036 -1.61632 0
M  V30 940 C 84.6996 -0.583102 -1.63939 0
M  V30 941 O 85.8756 -0.859169 -1.82154 0
M  V30 942 C 82.9406 -1.77277 -2.97949 0
M  V30 943 C 82.0016 -3.00918 -3.06181 0
M  V30 944 C 81.2346 -3.07804 -4.35996 0
M  V30 945 O 81.4576 -2.21982 -5.25433 0
M  V30 946 O 80.3916 -4.00369 -4.49431 0
M  V30 947 H 84.2176 -2.65486 -1.47482 0
M  V30 948 H 81.8026 -1.33666 -0.667362 0
M  V30 949 H 83.6846 -1.84329 -3.78947 0
M  V30 950 H 82.3596 -0.850076 -3.12339 0
M  V30 951 H 81.2666 -2.99377 -2.2433 0
M  V30 952 H 82.5996 -3.92704 -2.96723 0
M  V30 953 N 84.2517 0.741722 -1.39055 0
M  V30 954 C 85.2147 1.83733 -1.37021 0
M  V30 955 C 86.2147 1.58542 -0.268534 0
M  V30 956 O 87.4047 1.66067 -0.526076 0
M  V30 957 C 84.5367 3.2141 -1.13617 0
M  V30 958 H 85.7297 1.86941 -2.34506 0
M  V30 959 H 83.2827 0.944676 -1.24521 0
M  V30 960 H 84.0177 3.23865 -0.167863 0
M  V30 961 H 83.8027 3.4109 -1.93391 0
M  V30 962 H 85.2927 4.01477 -1.14918 0
M  V30 963 N 85.7298 1.2412 0.971189 0
M  V30 964 C 86.6618 0.988349 2.06795 0
M  V30 965 C 87.6748 -0.0409541 1.62748 0
M  V30 966 O 88.8638 0.195673 1.77424 0
M  V30 967 C 85.9638 0.469023 3.35639 0
M  V30 968 C 85.1368 1.56065 4.08611 0
M  V30 969 C 84.1958 1.04458 5.15728 0
M  V30 970 O 83.2218 1.73553 5.42096 0
M  V30 971 N 84.4238 -0.122817 5.8037 0
M  V30 972 H 87.1888 1.93265 2.29061 0
M  V30 973 H 84.7498 1.15102 1.13856 0
M  V30 974 H 86.7418 0.108613 4.04554 0
M  V30 975 H 85.3118 -0.380919 3.1027 0
M  V30 976 H 84.5318 2.09341 3.34021 0
M  V30 977 H 85.8198 2.29449 4.54126 0
M  V30 978 H 85.2178 -0.700563 5.61345 0
M  V30 979 H 83.7748 -0.424404 6.50417 0
M  V30 980 N 87.2079 -1.17134 1.05439 0
M  V30 981 C 88.4329 -1.91913 0.786396 0
M  V30 982 C 88.8579 -1.7643 -0.652234 0
M  V30 983 O 88.2159 -1.08372 -1.45345 0
M  V30 984 C 88.2639 -3.40921 1.17497 0
M  V30 985 O 87.3679 -4.11244 0.308589 0
M  V30 986 H 86.7089 -0.598215 0.288158 0
M  V30 987 H 89.2389 -1.48457 1.4079 0
M  V30 988 H 89.2489 -3.91668 1.14281 0
M  V30 989 H 87.9239 -3.5151 2.22292 0
M  V30 990 H 86.5009 -3.70731 0.40157 0
M  V30 991 N 88.686 -0.835752 -1.33615 0
M  V30 992 C 90.102 -0.523139 -1.50783 0
M  V30 993 C 90.302 0.950171 -1.77691 0
M  V30 994 O 89.358 1.73411 -1.83534 0
M  V30 995 C 90.671 -1.39378 -2.66448 0
M  V30 996 C 92.219 -1.39223 -2.80332 0
M  V30 997 C 92.694 -2.24765 -3.99055 0
M  V30 998 N 94.185 -2.22458 -4.06284 0
M  V30 999 C 94.92 -2.85386 -4.97336 0
M  V30 1000 N 94.416 -3.57354 -5.93523 0
M  V30 1001 N 96.209 -2.74872 -4.90308 0
M  V30 1002 H 88.36 -1.78952 -1.14411 0
M  V30 1003 H 90.623 -0.763297 -0.562212 0
M  V30 1004 H 90.329 -2.44061 -2.53234 0
M  V30 1005 H 90.203 -1.0676 -3.61776 0
M  V30 1006 H 92.59 -0.353136 -2.92979 0
M  V30 1007 H 92.671 -1.75846 -1.85773 0
M  V30 1008 H 92.315 -3.28732 -3.87167 0
M  V30 1009 H 92.245 -1.85485 -4.92852 0
M  V30 1010 H 94.736 -1.70119 -3.37443 0
M  V30 1011 H 95.049 -4.02584 -6.59656 0
M  V30 1012 H 93.394 -3.61461 -5.93608 0
M  V30 1013 H 96.585 -2.18213 -4.14126 0
M  V30 1014 H 96.758 -3.24199 -5.61069 0
M  V30 1015 N 90.1641 1.46063 -0.591896 0
M  V30 1016 C 91.4111 2.02338 -0.0809991 0
M  V30 1017 C 91.7391 1.46228 1.28249 0
M  V30 1018 O 90.9941 0.620818 1.85592 0
M  V30 1019 C 91.2931 3.57391 0.0249813 0
M  V30 1020 C 90.9591 4.32583 -1.27211 0
M  V30 1021 C 89.6211 4.52844 -1.62745 0
M  V30 1022 C 91.9731 4.75687 -2.13005 0
M  V30 1023 C 89.3011 5.13462 -2.83855 0
M  V30 1024 C 91.6531 5.37644 -3.3335 0
M  V30 1025 C 90.3171 5.5613 -3.69155 0
M  V30 1026 H 89.5871 0.740407 -0.0296397 0
M  V30 1027 H 92.2341 1.75321 -0.770374 0
M  V30 1028 H 90.5391 3.83597 0.797537 0
M  V30 1029 H 92.2361 3.98621 0.436184 0
M  V30 1030 H 88.8261 4.17116 -0.985499 0
M  V30 1031 H 93.0101 4.59782 -1.86855 0
M  V30 1032 H 88.2661 5.25965 -3.11722 0
M  V30 1033 H 92.4401 5.7 -4.00092 0
M  V30 1034 H 90.0671 6.0287 -4.63089 0
M  V30 1035 N 91.6422 0.330177 1.54103 0
M  V30 1036 C 92.8912 -0.271336 1.99867 0
M  V30 1037 C 93.2042 -1.52723 1.22209 0
M  V30 1038 O 94.4102 -2.20515 1.58383 0
M  V30 1039 C 92.8662 -0.534032 3.55916 0
M  V30 1040 C 92.4742 0.705193 4.42415 0
M  V30 1041 C 94.2182 -1.09514 4.1013 0
M  V30 1042 C 92.1252 0.414035 5.89949 0
M  V30 1043 H 91.0552 -0.105166 0.74663 0
M  V30 1044 H 93.7062 0.443429 1.78062 0
M  V30 1045 H 92.0882 -1.30915 3.73734 0
M  V30 1046 H 93.2622 1.4804 4.36372 0
M  V30 1047 H 91.5772 1.18698 3.99124 0
M  V30 1048 H 94.1742 -1.3277 5.17954 0
M  V30 1049 H 94.5172 -2.04656 3.62521 0
M  V30 1050 H 95.0502 -0.381038 3.95971 0
M  V30 1051 H 91.7892 1.33481 6.41766 0
M  V30 1052 H 91.3092 -0.323336 5.98928 0
M  V30 1053 H 92.9882 0.0263105 6.46995 0
M  V30 1054 N 93.1203 -1.57491 0.0584922 0
M  V30 1055 C 94.3673 -1.92978 -0.613648 0
M  V30 1056 C 94.6953 -0.937461 -1.70417 0
M  V30 1057 O 93.9503 0.049078 -1.95638 0
M  V30 1058 C 94.2493 -3.3513 -1.24188 0
M  V30 1059 C 93.9153 -4.50037 -0.278826 0
M  V30 1060 C 92.5773 -4.81198 -0.0138447 0
M  V30 1061 C 94.9293 -5.19807 0.380777 0
M  V30 1062 C 92.2573 -5.79473 0.918052 0
M  V30 1063 C 94.6093 -6.19079 1.30091 0
M  V30 1064 C 93.2733 -6.48665 1.57449 0
M  V30 1065 H 92.5433 -0.706157 -0.22455 0
M  V30 1066 H 95.1903 -1.91082 0.126533 0
M  V30 1067 H 93.4953 -3.33429 -2.05749 0
M  V30 1068 H 95.1923 -3.59871 -1.769 0
M  V30 1069 H 91.7823 -4.25726 -0.495539 0
M  V30 1070 H 95.9663 -4.95939 0.189158 0
M  V30 1071 H 91.2223 -6.00727 1.1374 0
M  V30 1072 H 95.3963 -6.7225 1.81804 0
M  V30 1073 H 93.0233 -7.24628 2.29822 0
M  V30 1074 N 94.5984 0.214957 -1.56127 0
M  V30 1075 C 95.8454 0.938372 -1.79446 0
M  V30 1076 C 96.1734 1.8407 -0.628378 0
M  V30 1077 O 95.4284 1.91837 0.386925 0
M  V30 1078 C 95.7274 1.80314 -3.0858 0
M  V30 1079 C 95.3934 1.05349 -4.3842 0
M  V30 1080 C 94.0554 0.846435 -4.73697 0
M  V30 1081 C 96.4074 0.524588 -5.18553 0
M  V30 1082 C 93.7354 0.098683 -5.86617 0
M  V30 1083 C 96.0874 -0.209853 -6.32252 0
M  V30 1084 C 94.7514 -0.428102 -6.66126 0
M  V30 1085 H 94.0214 0.343375 -0.656639 0
M  V30 1086 H 96.6684 0.206077 -1.90388 0
M  V30 1087 H 94.9734 2.6035 -2.92789 0
M  V30 1088 H 96.6704 2.36513 -3.23825 0
M  V30 1089 H 93.2604 1.22486 -4.10725 0
M  V30 1090 H 97.4444 0.672008 -4.91729 0
M  V30 1091 H 92.7004 -0.0805753 -6.11347 0
M  V30 1092 H 96.8744 -0.627157 -6.9357 0
M  V30 1093 H 94.5014 -1.00944 -7.53468 0
M  V30 1094 N 96.0765 1.50051 0.48192 0
M  V30 1095 C 97.3225 1.60736 1.2366 0
M  V30 1096 C 97.6555 0.301786 1.91841 0
M  V30 1097 O 96.9305 -0.696025 1.8162 0
M  V30 1098 C 97.2135 2.78009 2.28874 0
M  V30 1099 C 97.0665 4.18416 1.65069 0
M  V30 1100 C 98.3855 2.90867 3.30279 0
M  V30 1101 H 95.5045 0.585031 0.448228 0
M  V30 1102 H 98.1465 1.82402 0.531946 0
M  V30 1103 H 96.2965 2.59667 2.88973 0
M  V30 1104 H 97.9685 4.48322 1.0865 0
M  V30 1105 H 96.2115 4.23177 0.954148 0
M  V30 1106 H 96.8825 4.96381 2.41474 0
M  V30 1107 H 99.3585 3.07623 2.80191 0
M  V30 1108 H 98.2345 3.74566 4.01238 0
M  V30 1109 H 98.4955 2.01021 3.93755 0
M  V30 1110 N 97.5546 -0.734337 1.39446 0
M  V30 1111 C 98.8316 -1.48579 1.27215 0
M  V30 1112 C 99.2116 -2.1077 -0.117968 0
M  V30 1113 O 98.5596 -1.98646 -1.12924 0
M  V30 1114 C 98.7696 -2.53667 2.39696 0
M  V30 1115 C 100.118 -3.20031 2.79044 0
M  V30 1116 O 101.142 -2.6398 2.39151 0
M  V30 1117 O 100.001 -4.21455 3.47905 0
M  V30 1118 H 97.0946 -0.659816 0.49857 0
M  V30 1119 H 99.6406 -0.768106 1.51322 0
M  V30 1120 H 98.4126 -2.06096 3.32626 0
M  V30 1121 H 98.0356 -3.32994 2.17258 0
M  V30 1122 N 99.0327 -1.24633 -0.964593 0
M  V30 1123 C 100.282 -1.08188 -1.7023 0
M  V30 1124 C 100.595 0.37873 -1.91898 0
M  V30 1125 O 101.801 0.663427 -2.6327 0
M  V30 1126 C 100.257 -1.88773 -3.06419 0
M  V30 1127 C 99.8647 -3.39263 -2.92582 0
M  V30 1128 C 101.609 -1.80867 -3.84041 0
M  V30 1129 C 99.5157 -4.1218 -4.24101 0
M  V30 1130 H 98.4457 -0.401245 -0.638372 0
M  V30 1131 H 101.097 -1.48742 -1.07462 0
M  V30 1132 H 99.4787 -1.41035 -3.70034 0
M  V30 1133 H 100.653 -3.94603 -2.37961 0
M  V30 1134 H 98.9677 -3.48154 -2.28424 0
M  V30 1135 H 101.565 -2.32646 -4.81435 0
M  V30 1136 H 101.908 -0.774543 -4.09031 0
M  V30 1137 H 102.441 -2.26301 -3.27159 0
M  V30 1138 H 99.1797 -5.15965 -4.04303 0
M  V30 1139 H 98.6997 -3.61626 -4.78526 0
M  V30 1140 H 100.379 -4.19349 -4.92702 0
M  V30 1141 N 100.511 1.16574 -1.06058 0
M  V30 1142 C 101.757 1.87565 -0.78683 0
M  V30 1143 C 102.112 1.80012 0.679214 0
M  V30 1144 O 101.405 1.20327 1.49104 0
M  V30 1145 C 101.599 3.36195 -1.21275 0
M  V30 1146 C 101.428 3.58216 -2.71866 0
M  V30 1147 C 100.198 3.7444 -3.39298 0
M  V30 1148 C 102.396 3.57134 -3.70081 0
M  V30 1149 N 100.378 3.84389 -4.78663 0
M  V30 1150 C 101.749 3.73038 -4.9522 0
M  V30 1151 C 103.804 3.40332 -3.63426 0
M  V30 1152 C 102.507 3.73879 -6.14497 0
M  V30 1153 C 104.533 3.42466 -4.82153 0
M  V30 1154 C 103.895 3.58887 -6.06118 0
M  V30 1155 H 99.9938 0.704081 -0.340284 0
M  V30 1156 H 102.578 1.39885 -1.35426 0
M  V30 1157 H 100.749 3.82522 -0.673179 0
M  V30 1158 H 102.481 3.94839 -0.887917 0
M  V30 1159 H 99.2358 3.74662 -2.89699 0
M  V30 1160 H 99.6598 3.93138 -5.51155 0
M  V30 1161 H 104.302 3.26566 -2.68541 0
M  V30 1162 H 102.02 3.86427 -7.09718 0
M  V30 1163 H 105.606 3.30712 -4.78666 0
M  V30 1164 H 104.486 3.60454 -6.9645 0
M  V30 1165 N 101.989 0.842826 1.3317 0
M  V30 1166 C 103.217 0.454055 2.01856 0
M  V30 1167 C 103.632 -0.94587 1.63397 0
M  V30 1168 O 102.989 -1.61534 0.849302 0
M  V30 1169 C 103.04 0.569715 3.56982 0
M  V30 1170 O 102.761 1.91448 3.94055 0
M  V30 1171 C 104.262 0.178412 4.42941 0
M  V30 1172 H 101.482 0.17979 0.646465 0
M  V30 1173 H 104.026 1.1365 1.70012 0
M  V30 1174 H 102.181 -0.0648587 3.87346 0
M  V30 1175 H 102.595 1.90282 4.88767 0
M  V30 1176 H 104.069 0.310376 5.51127 0
M  V30 1177 H 104.546 -0.880056 4.30293 0
M  V30 1178 H 105.152 0.787579 4.17944 0
M  V30 1179 N 103.467 -1.45747 0.599634 0
M  V30 1180 C 104.695 -2.06668 0.0978551 0
M  V30 1181 C 105.11 -1.44562 -1.21439 0
M  V30 1182 O 104.467 -0.556923 -1.73795 0
M  V30 1183 C 104.518 -3.61456 -0.0567044 0
M  V30 1184 O 104.239 -4.21242 1.20361 0
M  V30 1185 C 105.74 -4.39345 -0.590869 0
M  V30 1186 H 102.96 -0.667825 0.0651943 0
M  V30 1187 H 105.504 -1.87115 0.82511 0
M  V30 1188 H 103.659 -3.80378 -0.734251 0
M  V30 1189 H 104.073 -5.14323 1.02821 0
M  V30 1190 H 105.547 -5.48182 -0.648131 0
M  V30 1191 H 106.024 -4.08568 -1.61147 0
M  V30 1192 H 106.63 -4.25268 0.0523679 0
M  V30 1193 N 104.945 -0.338344 -1.53925 0
M  V30 1194 C 106.191 0.260143 -2.01125 0
M  V30 1195 C 106.524 1.50617 -1.22589 0
M  V30 1196 O 105.799 1.91979 -0.312113 0
M  V30 1197 C 106.082 0.579499 -3.55407 0
M  V30 1198 C 105.935 -0.678264 -4.44657 0
M  V30 1199 C 107.254 1.39122 -4.17532 0
M  V30 1200 H 104.373 0.0930772 -0.731099 0
M  V30 1201 H 107.015 -0.457852 -1.84401 0
M  V30 1202 H 105.165 1.19118 -3.69788 0
M  V30 1203 H 106.837 -1.31631 -4.42121 0
M  V30 1204 H 105.08 -1.3042 -4.13731 0
M  V30 1205 H 105.751 -0.410143 -5.50474 0
M  V30 1206 H 108.227 0.874035 -4.06817 0
M  V30 1207 H 107.103 1.58342 -5.25565 0
M  V30 1208 H 107.364 2.39178 -3.71815 0
M  V30 1209 N 106.423 1.57458 -0.0668435 0
M  V30 1210 C 107.353 2.15468 0.899764 0
M  V30 1211 C 108.334 1.08042 1.31381 0
M  V30 1212 O 109.519 1.36054 1.38574 0
M  V30 1213 C 106.649 2.71232 2.16911 0
M  V30 1214 C 105.603 3.83781 1.89463 0
M  V30 1215 C 104.929 4.26127 3.22986 0
M  V30 1216 C 106.229 5.08238 1.20381 0
M  V30 1217 H 107.923 2.96488 0.416529 0
M  V30 1218 H 105.469 1.4262 0.198908 0
M  V30 1219 H 107.422 3.10458 2.84945 0
M  V30 1220 H 106.146 1.87426 2.67468 0
M  V30 1221 H 104.805 3.45051 1.23836 0
M  V30 1222 H 104.453 3.39249 3.71374 0
M  V30 1223 H 104.153 5.01993 3.05413 0
M  V30 1224 H 105.677 4.67966 3.92225 0
M  V30 1225 H 107.091 5.44811 1.78475 0
M  V30 1226 H 105.488 5.89349 1.13083 0
M  V30 1227 H 106.558 4.84558 0.182153 0
M  V30 1228 N 107.901 -0.206675 1.56239 0
M  V30 1229 C 109.178 -0.954051 1.70755 0
M  V30 1230 C 109.558 -2.01841 0.618353 0
M  V30 1231 O 108.906 -2.25444 -0.372434 0
M  V30 1232 C 109.116 -1.551 3.12642 0
M  V30 1233 C 110.464 -2.03757 3.72516 0
M  V30 1234 O 111.488 -1.64965 3.15698 0
M  V30 1235 O 110.347 -2.75103 4.72208 0
M  V30 1236 H 107.441 -0.446636 0.696021 0
M  V30 1237 H 109.987 -0.197283 1.68549 0
M  V30 1238 H 108.759 -0.783212 3.83382 0
M  V30 1239 H 108.382 -2.37291 3.19028 0
M  V30 1240 N 109.379 -1.50304 -0.473955 0
M  V30 1241 C 110.309 -1.71886 -1.58042 0
M  V30 1242 C 111.29 -0.567799 -1.60344 0
M  V30 1243 O 112.475 -0.806623 -1.76656 0
M  V30 1244 C 109.605 -1.81036 -2.96384 0
M  V30 1245 C 108.559 -2.962 -3.08949 0
M  V30 1246 C 107.885 -2.9049 -4.48909 0
M  V30 1247 C 109.185 -4.36752 -2.86434 0
M  V30 1248 H 110.879 -2.64527 -1.40234 0
M  V30 1249 H 108.425 -1.27295 -0.673201 0
M  V30 1250 H 110.378 -1.94719 -3.73714 0
M  V30 1251 H 109.102 -0.850147 -3.15341 0
M  V30 1252 H 107.761 -2.82164 -2.3405 0
M  V30 1253 H 107.409 -1.92321 -4.64781 0
M  V30 1254 H 107.109 -3.67802 -4.58253 0
M  V30 1255 H 108.633 -3.06218 -5.28264 0
M  V30 1256 H 110.047 -4.5133 -3.53517 0
M  V30 1257 H 108.444 -5.15493 -3.07225 0
M  V30 1258 H 109.514 -4.49321 -1.82316 0
M  V30 1259 N 110.857 0.726932 -1.39834 0
M  V30 1260 C 111.804 1.841 -1.39197 0
M  V30 1261 C 112.774 1.642 -0.250502 0
M  V30 1262 O 113.959 1.85494 -0.446846 0
M  V30 1263 C 111.099 3.21697 -1.24919 0
M  V30 1264 C 110.212 3.53247 -2.48678 0
M  V30 1265 C 109.347 4.80289 -2.26928 0
M  V30 1266 C 108.386 5.04707 -3.4632 0
M  V30 1267 N 107.523 6.22956 -3.23836 0
M  V30 1268 H 112.363 1.83979 -2.34427 0
M  V30 1269 H 109.9 0.898876 -1.16442 0
M  V30 1270 H 111.858 4.01137 -1.1465 0
M  V30 1271 H 110.488 3.21076 -0.333153 0
M  V30 1272 H 109.54 2.68447 -2.69519 0
M  V30 1273 H 110.852 3.67205 -3.37582 0
M  V30 1274 H 110.006 5.67725 -2.13947 0
M  V30 1275 H 108.745 4.68519 -1.35431 0
M  V30 1276 H 107.75 4.1573 -3.5979 0
M  V30 1277 H 108.975 5.18357 -4.38729 0
M  V30 1278 H 106.921 6.12459 -2.35011 0
M  V30 1279 H 106.838 6.37539 -4.063 0
M  V30 1280 H 108.106 7.1321 -3.14566 0
M  V30 1281 N 112.336 1.25143 0.95797 0
M  V30 1282 C 113.582 1.10863 1.70531 0
M  V30 1283 C 113.937 -0.347391 1.89238 0
M  V30 1284 O 113.23 -1.25262 1.44983 0
M  V30 1285 C 113.424 1.79272 3.09187 0
M  V30 1286 C 113.253 3.31376 3.04006 0
M  V30 1287 C 112.023 4.0062 3.07948 0
M  V30 1288 C 114.221 4.27825 2.8543 0
M  V30 1289 N 112.203 5.39526 2.9289 0
M  V30 1290 C 113.574 5.53794 2.78769 0
M  V30 1291 C 115.629 4.1828 2.70085 0
M  V30 1292 C 114.332 6.7131 2.58331 0
M  V30 1293 C 116.358 5.35485 2.51017 0
M  V30 1294 C 115.72 6.60393 2.45073 0
M  V30 1295 H 111.819 0.460362 0.632132 0
M  V30 1296 H 114.403 1.58196 1.13499 0
M  V30 1297 H 112.574 1.34439 3.64391 0
M  V30 1298 H 114.306 1.57764 3.72683 0
M  V30 1299 H 111.061 3.51855 3.17009 0
M  V30 1300 H 111.485 6.12416 2.88574 0
M  V30 1301 H 116.127 3.22461 2.73457 0
M  V30 1302 H 113.845 7.67243 2.53701 0
M  V30 1303 H 117.431 5.29959 2.40073 0
M  V30 1304 H 116.311 7.49557 2.30509 0
M  V30 1305 N 113.814 -1.1601 1.06675 0
M  V30 1306 C 115.23 -1.38622 0.790948 0
M  V30 1307 C 115.43 -1.92109 -0.607965 0
M  V30 1308 O 114.486 -2.12239 -1.36787 0
M  V30 1309 C 115.799 -2.36347 1.85905 0
M  V30 1310 C 117.347 -2.50023 1.88301 0
M  V30 1311 C 117.822 -3.51033 2.94176 0
M  V30 1312 N 119.313 -3.58563 2.93235 0
M  V30 1313 C 120.048 -4.36521 3.71803 0
M  V30 1314 N 119.544 -5.17869 4.602 0
M  V30 1315 N 121.337 -4.31541 3.60178 0
M  V30 1316 H 113.488 -0.796294 1.96908 0
M  V30 1317 H 115.751 -0.412597 0.853503 0
M  V30 1318 H 115.457 -2.04147 2.86386 0
M  V30 1319 H 115.331 -3.36042 1.71334 0
M  V30 1320 H 117.718 -2.81524 0.884769 0
M  V30 1321 H 117.799 -1.5035 2.06951 0
M  V30 1322 H 117.443 -3.20268 3.94196 0
M  V30 1323 H 117.373 -4.50445 2.72776 0
M  V30 1324 H 119.864 -3.00496 2.29152 0
M  V30 1325 H 120.177 -5.74578 5.16797 0
M  V30 1326 H 118.522 -5.17199 4.64253 0
M  V30 1327 H 121.713 -3.67051 2.90502 0
M  V30 1328 H 121.886 -4.9205 4.21653 0
M  V30 1329 N 115.292 -0.849877 -1.32721 0
M  V30 1330 C 116.522 -0.46408 -2.0132 0
M  V30 1331 C 116.93 0.94246 -1.64056 0
M  V30 1332 O 116.273 1.6257 -0.855379 0
M  V30 1333 C 116.335 -0.517887 -3.5575 0
M  V30 1334 C 115.999 -1.88248 -4.16427 0
M  V30 1335 C 116.996 -2.84726 -4.35002 0
M  V30 1336 C 114.681 -2.17832 -4.52609 0
M  V30 1337 C 116.675 -4.08945 -4.8892 0
M  V30 1338 C 114.362 -3.42304 -5.06232 0
M  V30 1339 C 115.36 -4.37677 -5.24335 0
M  V30 1340 O 115.048 -5.59946 -5.76815 0
M  V30 1341 H 114.78 -0.181327 -0.651227 0
M  V30 1342 H 117.334 -1.14713 -1.70382 0
M  V30 1343 H 115.564 0.221997 -3.86062 0
M  V30 1344 H 117.253 -0.148366 -4.05629 0
M  V30 1345 H 118.019 -2.63174 -4.07388 0
M  V30 1346 H 113.898 -1.44385 -4.37806 0
M  V30 1347 H 117.442 -4.83396 -5.02966 0
M  V30 1348 H 113.339 -3.63709 -5.33278 0
M  V30 1349 H 114.107 -5.61838 -5.95214 0
M  V30 1350 N 116.77 1.45427 -0.607355 0
M  V30 1351 C 117.717 2.3053 0.111625 0
M  V30 1352 C 118.687 1.4209 0.860216 0
M  V30 1353 O 119.872 1.71019 0.845998 0
M  V30 1354 C 117.012 3.26992 1.10319 0
M  V30 1355 C 116.125 4.30535 0.355493 0
M  V30 1356 C 115.26 5.14105 1.33676 0
M  V30 1357 C 114.299 6.09376 0.576862 0
M  V30 1358 N 113.436 6.85727 1.5074 0
M  V30 1359 H 118.276 2.91477 -0.620093 0
M  V30 1360 H 115.813 1.43631 -0.317594 0
M  V30 1361 H 117.771 3.81385 1.6912 0
M  V30 1362 H 116.401 2.67799 1.80232 0
M  V30 1363 H 115.453 3.78805 -0.348023 0
M  V30 1364 H 116.765 4.98235 -0.237423 0
M  V30 1365 H 115.919 5.72897 1.99684 0
M  V30 1366 H 114.658 4.46423 1.9636 0
M  V30 1367 H 113.663 5.49715 -0.0968519 0
M  V30 1368 H 114.888 6.79085 -0.0449341 0
M  V30 1369 H 112.834 6.20735 2.12189 0
M  V30 1370 H 112.751 7.49778 0.967913 0
M  V30 1371 H 114.019 7.4906 2.15706 0
M  V30 1372 N 118.248 0.346503 1.53744 0
M  V30 1373 C 119.181 -0.552023 2.21423 0
M  V30 1374 C 120.159 -1.09798 1.19929 0
M  V30 1375 O 121.343 -1.1577 1.4876 0
M  V30 1376 C 118.47 -1.75972 2.89398 0
M  V30 1377 C 117.516 -1.34295 4.04805 0
M  V30 1378 S 118.349 -0.360263 5.34287 0
M  V30 1379 C 119.505 -1.57473 6.05767 0
M  V30 1380 H 119.738 0.0228119 2.97291 0
M  V30 1381 H 117.271 0.130579 1.53847 0
M  V30 1382 H 119.229 -2.45256 3.2918 0
M  V30 1383 H 117.89 -2.30578 2.1329 0
M  V30 1384 H 117.083 -2.24349 4.51313 0
M  V30 1385 H 116.685 -0.729555 3.66815 0
M  V30 1386 H 118.977 -2.50875 6.29339 0
M  V30 1387 H 119.92 -1.15138 6.98676 0
M  V30 1388 H 120.328 -1.77212 5.35963 0
M  V30 1389 N 119.726 -1.57421 0.075193 0
M  V30 1390 C 120.954 -1.97946 -0.602076 0
M  V30 1391 C 121.369 -0.953674 -1.62943 0
M  V30 1392 O 120.726 0.0592551 -1.82404 0
M  V30 1393 C 120.777 -3.38546 -1.26762 0
M  V30 1394 O 120.498 -4.37195 -0.281376 0
M  V30 1395 C 121.999 -3.93966 -2.03239 0
M  V30 1396 H 119.219 -0.650918 -0.162931 0
M  V30 1397 H 121.763 -2.03959 0.148601 0
M  V30 1398 H 119.918 -3.33609 -1.96936 0
M  V30 1399 H 120.332 -5.18975 -0.759267 0
M  V30 1400 H 121.806 -4.94555 -2.45193 0
M  V30 1401 H 122.283 -3.30693 -2.8903 0
M  V30 1402 H 122.889 -4.02315 -1.37924 0
M  V30 1403 N 121.204 0.198386 -1.56346 0
M  V30 1404 C 122.453 0.917451 -1.79627 0
M  V30 1405 C 122.766 1.8456 -0.64784 0
M  V30 1406 O 123.972 2.60504 -0.764859 0
M  V30 1407 C 122.428 1.68175 -3.18191 0
M  V30 1408 C 122.036 0.798589 -4.40825 0
M  V30 1409 C 123.78 2.39065 -3.50782 0
M  V30 1410 C 121.687 1.56157 -5.70411 0
M  V30 1411 H 120.617 0.346317 -0.669762 0
M  V30 1412 H 123.268 0.170801 -1.82703 0
M  V30 1413 H 121.65 2.47216 -3.09354 0
M  V30 1414 H 122.824 0.0470665 -4.60776 0
M  V30 1415 H 121.139 0.200686 -4.15916 0
M  V30 1416 H 123.736 2.96692 -4.44835 0
M  V30 1417 H 124.079 3.13091 -2.74371 0
M  V30 1418 H 124.612 1.66993 -3.61052 0
M  V30 1419 H 121.351 0.864142 -6.49779 0
M  V30 1420 H 120.871 2.2871 -5.54483 0
M  V30 1421 H 122.55 2.11622 -6.11412 0
M  V30 1422 N 122.682 1.50554 0.465978 0
M  V30 1423 C 123.929 1.61798 1.21768 0
M  V30 1424 C 124.257 0.320696 1.91838 0
M  V30 1425 O 123.512 -0.693724 1.82992 0
M  V30 1426 C 123.811 2.75152 2.28093 0
M  V30 1427 C 123.477 4.15454 1.75239 0
M  V30 1428 C 122.139 4.53628 1.60546 0
M  V30 1429 C 124.491 5.03121 1.36083 0
M  V30 1430 C 121.819 5.77204 1.05128 0
M  V30 1431 C 124.171 6.27249 0.821056 0
M  V30 1432 C 122.835 6.64221 0.660795 0
M  V30 1433 H 122.105 0.592063 0.445582 0
M  V30 1434 H 124.752 1.84503 0.512927 0
M  V30 1435 H 123.057 2.46556 3.04496 0
M  V30 1436 H 124.754 2.81055 2.86023 0
M  V30 1437 H 121.344 3.85341 1.87644 0
M  V30 1438 H 125.528 4.74257 1.46267 0
M  V30 1439 H 120.784 6.0452 0.91462 0
M  V30 1440 H 124.958 6.94537 0.509018 0
M  V30 1441 H 122.585 7.59854 0.229226 0
M  V30 1442 N 124.16 -0.719506 1.40217 0
M  V30 1443 C 125.409 -1.47486 1.37589 0
M  V30 1444 C 125.722 -1.9559 -0.0201568 0
M  V30 1445 O 126.928 -2.70973 -0.169049 0
M  V30 1446 C 125.384 -2.66575 2.41796 0
M  V30 1447 C 124.992 -2.25358 3.87192 0
M  V30 1448 C 126.736 -3.4433 2.48269 0
M  V30 1449 C 124.643 -3.41262 4.83005 0
M  V30 1450 H 123.573 -0.553901 0.511576 0
M  V30 1451 H 126.224 -0.783427 1.65936 0
M  V30 1452 H 124.606 -3.3787 2.06543 0
M  V30 1453 H 125.78 -1.61509 4.31569 0
M  V30 1454 H 124.095 -1.60657 3.84159 0
M  V30 1455 H 126.692 -4.30569 3.17041 0
M  V30 1456 H 127.035 -3.87872 1.51198 0
M  V30 1457 H 127.568 -2.80076 2.82493 0
M  V30 1458 H 124.307 -3.02755 5.81394 0
M  V30 1459 H 123.827 -4.0404 4.43297 0
M  V30 1460 H 125.506 -4.07383 5.02641 0
M  V30 1461 N 125.638 -1.25649 -0.95132 0
M  V30 1462 C 126.866 -1.13343 -1.73092 0
M  V30 1463 C 127.281 0.312434 -1.86197 0
M  V30 1464 O 126.638 1.21465 -1.36207 0
M  V30 1465 C 126.689 -1.78602 -3.14299 0
M  V30 1466 O 126.41 -3.17537 -3.01831 0
M  V30 1467 C 127.911 -1.72119 -4.08522 0
M  V30 1468 H 125.131 -0.395181 -0.542285 0
M  V30 1469 H 127.675 -1.66076 -1.19328 0
M  V30 1470 H 125.83 -1.29832 -3.64996 0
M  V30 1471 H 126.244 -3.49676 -3.90931 0
M  V30 1472 H 127.718 -2.22435 -5.052 0
M  V30 1473 H 128.195 -0.685635 -4.33815 0
M  V30 1474 H 128.801 -2.20393 -3.63741 0
M  V30 1475 N 127.117 1.15442 -1.07289 0
M  V30 1476 C 128.08 2.18358 -0.696591 0
M  V30 1477 C 129.08 1.58637 0.262837 0
M  V30 1478 O 130.27 1.74145 0.0438809 0
M  V30 1479 C 127.402 3.4089 -0.0266151 0
M  V30 1480 H 128.595 2.53162 -1.60776 0
M  V30 1481 H 126.148 1.29893 -0.869342 0
M  V30 1482 H 126.883 3.11653 0.896822 0
M  V30 1483 H 126.668 3.85495 -0.716657 0
M  V30 1484 H 128.158 4.17009 0.222028 0
M  V30 1485 N 128.595 0.856903 1.32268 0
M  V30 1486 C 129.842 0.461386 1.97174 0
M  V30 1487 C 130.17 -0.983491 1.67803 0
M  V30 1488 O 129.425 -1.70541 0.959903 0
M  V30 1489 C 129.724 0.649919 3.51441 0
M  V30 1490 C 129.39 2.0656 4.00804 0
M  V30 1491 C 128.052 2.45279 4.13995 0
M  V30 1492 C 130.404 2.98947 4.26943 0
M  V30 1493 C 127.732 3.75653 4.50668 0
M  V30 1494 C 130.084 4.28822 4.65075 0
M  V30 1495 C 128.748 4.67472 4.76472 0
M  V30 1496 H 128.018 0.168833 0.72151 0
M  V30 1497 H 130.665 1.08739 1.57633 0
M  V30 1498 H 128.97 -0.0593018 3.91755 0
M  V30 1499 H 130.667 0.32391 3.9969 0
M  V30 1500 H 127.257 1.75495 3.91024 0
M  V30 1501 H 131.441 2.70265 4.16258 0
M  V30 1502 H 126.697 4.05379 4.57688 0
M  V30 1503 H 130.871 5.0047 4.84255 0
M  V30 1504 H 128.498 5.68539 5.04646 0
M  V30 1505 N 130.073 -1.45103 0.615059 0
M  V30 1506 C 131.003 -2.33339 -0.0865619 0
M  V30 1507 C 131.984 -1.4727 -0.851209 0
M  V30 1508 O 133.169 -1.76026 -0.820281 0
M  V30 1509 C 130.299 -3.30095 -1.07956 0
M  V30 1510 C 129.253 -4.25858 -0.427628 0
M  V30 1511 C 128.579 -5.12361 -1.5294 0
M  V30 1512 C 129.879 -5.18165 0.655944 0
M  V30 1513 H 131.573 -2.92254 0.650224 0
M  V30 1514 H 129.119 -1.40532 0.314138 0
M  V30 1515 H 131.072 -3.90698 -1.57901 0
M  V30 1516 H 129.796 -2.69355 -1.84703 0
M  V30 1517 H 128.455 -3.66564 0.0510292 0
M  V30 1518 H 128.103 -4.47984 -2.28734 0
M  V30 1519 H 127.803 -5.77238 -1.09865 0
M  V30 1520 H 129.327 -5.75833 -2.03098 0
M  V30 1521 H 130.741 -5.72796 0.240257 0
M  V30 1522 H 129.138 -5.91559 1.00888 0
M  V30 1523 H 130.208 -4.60144 1.52957 0
M  V30 1524 N 131.551 -0.354651 -1.53558 0
M  V30 1525 C 132.799 0.237972 -2.00694 0
M  V30 1526 C 133.12 1.50173 -1.24391 0
M  V30 1527 O 132.39 1.92673 -0.354135 0
M  V30 1528 H 130.97 0.0909256 -0.741446 0
M  V30 1529 H 133.632 -0.478368 -1.88938 0
M  V30 1530 H 132.728 0.47264 -3.085 0
M  V30 1531 N 133.029 1.57378 -0.0835403 0
M  V30 1532 C 134.254 1.98682 0.594987 0
M  V30 1533 C 134.679 0.961969 1.61641 0
M  V30 1534 O 134.037 -0.0709989 1.81161 0
M  V30 1535 C 134.085 3.38988 1.2296 0
M  V30 1536 O 133.189 3.39208 2.34546 0
M  V30 1537 H 132.53 0.646368 0.152002 0
M  V30 1538 H 135.06 2.03961 -0.161533 0
M  V30 1539 H 135.07 3.76431 1.57366 0
M  V30 1540 H 133.745 4.13107 0.481228 0
M  V30 1541 H 132.322 3.13548 2.01846 0
M  V30 1542 N 134.507 -0.190092 1.56449 0
M  V30 1543 C 135.753 -0.906472 1.82084 0
M  V30 1544 C 136.108 -1.80677 0.661335 0
M  V30 1545 O 135.401 -1.88501 -0.343237 0
M  V30 1546 C 135.595 -1.75382 3.1141 0
M  V30 1547 C 135.424 -0.937053 4.39829 0
M  V30 1548 C 134.194 -0.619507 5.01488 0
M  V30 1549 C 136.392 -0.2874 5.13496 0
M  V30 1550 N 134.374 0.215367 6.13522 0
M  V30 1551 C 135.745 0.409454 6.18646 0
M  V30 1552 C 137.8 -0.203639 4.97483 0
M  V30 1553 C 136.503 1.1821 7.0952 0
M  V30 1554 C 138.529 0.555622 5.88784 0
M  V30 1555 C 137.891 1.24091 6.93384 0
M  V30 1556 H 133.99 -0.310931 0.717528 0
M  V30 1557 H 136.574 -0.174821 1.93914 0
M  V30 1558 H 134.745 -2.45703 3.00806 0
M  V30 1559 H 136.477 -2.41006 3.25112 0
M  V30 1560 H 133.232 -0.945126 4.64074 0
M  V30 1561 H 133.656 0.622562 6.74131 0
M  V30 1562 H 138.298 -0.719099 4.1664 0
M  V30 1563 H 136.016 1.70897 7.89823 0
M  V30 1564 H 139.602 0.621854 5.78467 0
M  V30 1565 H 138.482 1.81901 7.62812 0
M  V30 1566 N 135.985 -1.50799 -0.457987 0
M  V30 1567 C 137.232 -1.62442 -1.20908 0
M  V30 1568 C 137.56 -0.330865 -1.91665 0
M  V30 1569 O 136.815 0.68401 -1.83357 0
M  V30 1570 C 137.114 -2.76358 -2.2663 0
M  V30 1571 C 136.78 -4.16378 -1.73033 0
M  V30 1572 C 135.442 -4.54473 -1.58138 0
M  V30 1573 C 137.794 -5.03836 -1.33413 0
M  V30 1574 C 135.122 -5.77754 -1.02065 0
M  V30 1575 C 137.474 -6.27676 -0.78778 0
M  V30 1576 C 136.138 -6.64562 -0.625561 0
M  V30 1577 H 135.408 -0.594417 -0.442435 0
M  V30 1578 H 138.055 -1.84772 -0.503136 0
M  V30 1579 H 136.36 -2.48167 -3.03184 0
M  V30 1580 H 138.057 -2.82568 -2.84528 0
M  V30 1581 H 134.647 -3.86331 -1.85598 0
M  V30 1582 H 138.831 -4.75026 -1.4375 0
M  V30 1583 H 134.087 -6.04997 -0.882547 0
M  V30 1584 H 138.261 -6.94797 -0.472177 0
M  V30 1585 H 135.888 -7.59965 -0.188926 0
M  V30 1586 N 137.463 0.71206 -1.40597 0
M  V30 1587 C 138.71 1.47197 -1.39065 0
M  V30 1588 C 139.038 1.94499 0.00583891 0
M  V30 1589 O 138.293 1.68752 0.99102 0
M  V30 1590 C 138.592 2.71039 -2.32965 0
M  V30 1591 C 138.258 2.42484 -3.80148 0
M  V30 1592 C 136.92 2.34406 -4.20247 0
M  V30 1593 C 139.272 2.18598 -4.73143 0
M  V30 1594 C 136.6 2.00516 -5.51371 0
M  V30 1595 C 138.952 1.8622 -6.0457 0
M  V30 1596 C 137.616 1.76626 -6.43708 0
M  V30 1597 H 136.886 0.538634 -0.508876 0
M  V30 1598 H 139.533 0.815325 -1.73276 0
M  V30 1599 H 137.838 3.41558 -1.91951 0
M  V30 1600 H 139.535 3.29138 -2.29061 0
M  V30 1601 H 136.125 2.49659 -3.4838 0
M  V30 1602 H 140.309 2.23793 -4.42979 0
M  V30 1603 H 135.565 1.91628 -5.80593 0
M  V30 1604 H 139.739 1.66752 -6.76141 0
M  V30 1605 H 137.366 1.50133 -7.45228 0
M  V30 1606 N 138.941 1.26152 0.944643 0
M  V30 1607 C 140.188 1.11492 1.69044 0
M  V30 1608 C 140.516 -0.342366 1.91463 0
M  V30 1609 O 139.771 -1.26812 1.49054 0
M  V30 1610 C 140.07 1.82541 3.07268 0
M  V30 1611 C 139.736 3.32445 3.04616 0
M  V30 1612 C 138.398 3.73337 3.036 0
M  V30 1613 C 140.75 4.28171 2.97185 0
M  V30 1614 C 138.078 5.08348 2.92915 0
M  V30 1615 C 140.43 5.63218 2.88041 0
M  V30 1616 C 139.094 6.03426 2.85366 0
M  V30 1617 H 138.364 0.407977 0.618576 0
M  V30 1618 H 141.011 1.56551 1.10291 0
M  V30 1619 H 139.316 1.29941 3.69625 0
M  V30 1620 H 141.013 1.68642 3.63815 0
M  V30 1621 H 137.603 2.99915 3.06185 0
M  V30 1622 H 141.787 3.97563 2.97081 0
M  V30 1623 H 137.043 5.38667 2.89219 0
M  V30 1624 H 141.217 6.37078 2.81254 0
M  V30 1625 H 138.844 7.07999 2.76842 0
M  V30 1626 N 140.419 -1.14872 1.07899 0
M  V30 1627 C 141.667 -1.85422 0.803941 0
M  V30 1628 C 141.988 -1.83051 -0.67211 0
M  V30 1629 O 141.258 -1.27532 -1.48703 0
M  V30 1630 H 139.838 -0.686537 0.294408 0
M  V30 1631 H 142.5 -1.39226 1.3639 0
M  V30 1632 H 141.596 -2.90399 1.14346 0
M  V30 1633 N 141.898 -0.863906 -1.31812 0
M  V30 1634 C 142.828 -0.330843 -2.31144 0
M  V30 1635 C 143.809 0.575005 -1.60087 0
M  V30 1636 O 144.994 0.493304 -1.8783 0
M  V30 1637 C 142.124 0.47374 -3.44054 0
M  V30 1638 C 141.078 -0.338481 -4.26659 0
M  V30 1639 C 140.404 0.591412 -5.31419 0
M  V30 1640 C 141.704 -1.56926 -4.98168 0
M  V30 1641 H 143.398 -1.16086 -2.75979 0
M  V30 1642 H 140.944 -0.559657 -1.32679 0
M  V30 1643 H 142.897 0.857143 -4.12591 0
M  V30 1644 H 141.621 1.33721 -2.9797 0
M  V30 1645 H 140.28 -0.703754 -3.59782 0
M  V30 1646 H 139.928 1.45199 -4.81587 0
M  V30 1647 H 139.628 0.0519022 -5.87577 0
M  V30 1648 H 141.152 0.97179 -6.02817 0
M  V30 1649 H 142.566 -1.25764 -5.59336 0
M  V30 1650 H 140.963 -2.04739 -5.64094 0
M  V30 1651 H 142.033 -2.32544 -4.25501 0
M  V30 1652 N 143.376 1.44774 -0.622745 0
M  V30 1653 C 144.306 2.33382 0.0741861 0
M  V30 1654 C 145.287 1.47719 0.843387 0
M  V30 1655 O 146.472 1.76458 0.810934 0
M  V30 1656 C 143.602 3.30663 1.06204 0
M  V30 1657 C 142.556 4.26079 0.405037 0
M  V30 1658 C 141.882 5.13165 1.5022 0
M  V30 1659 C 143.182 5.1781 -0.683414 0
M  V30 1660 H 144.876 2.91905 -0.665713 0
M  V30 1661 H 142.422 1.40363 -0.321587 0
M  V30 1662 H 144.375 3.9153 1.55827 0
M  V30 1663 H 143.099 2.70331 1.83272 0
M  V30 1664 H 141.758 3.66532 -0.0704683 0
M  V30 1665 H 141.406 4.49191 2.26355 0
M  V30 1666 H 141.106 5.77812 1.06803 0
M  V30 1667 H 142.63 5.76902 2.00041 0
M  V30 1668 H 144.044 5.72661 -0.270631 0
M  V30 1669 H 142.441 5.91015 -1.04023 0
M  V30 1670 H 143.511 4.59326 -1.55395 0
M  V30 1671 N 144.854 0.36279 1.53368 0
M  V30 1672 C 146.1 -0.220702 2.02199 0
M  V30 1673 C 146.455 -1.46649 1.24546 0
M  V30 1674 O 145.748 -1.88737 0.32996 0
M  V30 1675 C 145.942 -0.568417 3.52851 0
M  V30 1676 C 145.771 0.642126 4.45092 0
M  V30 1677 C 144.541 1.15335 4.91961 0
M  V30 1678 C 146.739 1.50649 4.91741 0
M  V30 1679 N 144.721 2.3242 5.68202 0
M  V30 1680 C 146.092 2.52404 5.66297 0
M  V30 1681 C 148.147 1.52969 4.73819 0
M  V30 1682 C 146.85 3.56331 6.24836 0
M  V30 1683 C 148.876 2.55789 5.33222 0
M  V30 1684 C 148.238 3.56268 6.07662 0
M  V30 1685 H 144.337 -0.0435508 0.780786 0
M  V30 1686 H 146.921 0.506704 1.87991 0
M  V30 1687 H 145.092 -1.2649 3.67226 0
M  V30 1688 H 146.824 -1.13676 3.88407 0
M  V30 1689 H 143.579 0.718412 4.68119 0
M  V30 1690 H 144.003 2.91591 6.10986 0
M  V30 1691 H 148.645 0.766418 4.15795 0
M  V30 1692 H 146.363 4.33543 6.81958 0
M  V30 1693 H 149.949 2.58435 5.21251 0
M  V30 1694 H 148.829 4.34524 6.52808 0
M  V30 1695 N 146.332 -1.57332 0.0918853 0
M  V30 1696 C 147.562 -1.98286 -0.580205 0
M  V30 1697 C 147.97 -0.969713 -1.6246 0
M  V30 1698 O 147.313 0.0493501 -1.83634 0
M  V30 1699 C 147.375 -3.35603 -1.28882 0
M  V30 1700 C 147.039 -4.55285 -0.395559 0
M  V30 1701 C 148.036 -5.18687 0.355002 0
M  V30 1702 C 145.721 -5.01314 -0.314556 0
M  V30 1703 C 147.715 -6.26484 1.17458 0
M  V30 1704 C 145.402 -6.08979 0.508677 0
M  V30 1705 C 146.4 -6.71429 1.2519 0
M  V30 1706 O 146.088 -7.77018 2.06151 0
M  V30 1707 H 145.82 -0.656678 -0.160466 0
M  V30 1708 H 148.374 -2.04721 0.16688 0
M  V30 1709 H 146.604 -3.25842 -2.08241 0
M  V30 1710 H 148.293 -3.61026 -1.85512 0
M  V30 1711 H 149.059 -4.84058 0.302134 0
M  V30 1712 H 144.938 -4.5247 -0.882697 0
M  V30 1713 H 148.482 -6.75159 1.75518 0
M  V30 1714 H 144.379 -6.4304 0.563037 0
M  V30 1715 H 145.147 -7.93991 1.98799 0
M  V30 1716 N 147.81 0.181792 -1.56548 0
M  V30 1717 C 148.773 1.20894 -1.94724 0
M  V30 1718 C 149.773 1.37738 -0.829747 0
M  V30 1719 O 150.963 1.35323 -1.09697 0
M  V30 1720 C 148.095 2.57593 -2.23291 0
M  V30 1721 H 149.288 0.882275 -2.86629 0
M  V30 1722 H 146.841 0.423838 -1.50444 0
M  V30 1723 H 147.576 2.95291 -1.34067 0
M  V30 1724 H 147.361 2.46735 -3.04736 0
M  V30 1725 H 148.851 3.31637 -2.53785 0
M  V30 1726 N 149.288 1.51039 0.449983 0
M  V30 1727 C 150.534 1.63322 1.20223 0
M  V30 1728 C 150.867 0.34241 1.91158 0
M  V30 1729 O 150.142 -0.657344 1.83055 0
M  V30 1730 C 150.425 2.82801 2.22925 0
M  V30 1731 C 150.278 4.21823 1.56157 0
M  V30 1732 C 151.597 2.97807 3.24035 0
M  V30 1733 H 148.716 0.594407 0.435718 0
M  V30 1734 H 151.358 1.83489 0.493136 0
M  V30 1735 H 149.508 2.65738 2.834 0
M  V30 1736 H 151.18 4.50526 0.991162 0
M  V30 1737 H 149.423 4.25105 0.864172 0
M  V30 1738 H 150.094 5.01391 2.30891 0
M  V30 1739 H 152.57 3.13497 2.73603 0
M  V30 1740 H 151.446 3.82992 3.93202 0
M  V30 1741 H 151.707 2.09328 3.89402 0
M  V30 1742 N 150.766 -0.704594 1.40972 0
M  V30 1743 C 151.729 -1.80035 1.41845 0
M  V30 1744 C 152.729 -1.57774 0.310474 0
M  V30 1745 O 153.919 -1.64613 0.56992 0
M  V30 1746 C 151.051 -3.18284 1.22098 0
M  V30 1747 H 152.244 -1.80658 2.3938 0
M  V30 1748 H 149.797 -0.911329 1.26982 0
M  V30 1749 H 150.532 -3.23306 0.253672 0
M  V30 1750 H 150.317 -3.35843 2.02366 0
M  V30 1751 H 151.807 -3.98289 1.25522 0
M  V30 1752 N 152.244 -1.26651 -0.937939 0
M  V30 1753 C 153.474 -1.15006 -1.71631 0
M  V30 1754 C 153.882 0.297026 -1.86854 0
M  V30 1755 O 153.225 1.21493 -1.37786 0
M  V30 1756 C 153.287 -1.74984 -3.14039 0
M  V30 1757 C 152.951 -3.24103 -3.2219 0
M  V30 1758 C 153.948 -4.20877 -3.05219 0
M  V30 1759 C 151.633 -3.64625 -3.45476 0
M  V30 1760 C 153.627 -5.56151 -3.11408 0
M  V30 1761 C 151.314 -5.00032 -3.513 0
M  V30 1762 C 152.312 -5.95604 -3.34282 0
M  V30 1763 O 152 -7.28545 -3.3982 0
M  V30 1764 H 151.732 -0.401183 -0.544085 0
M  V30 1765 H 154.286 -1.67832 -1.18413 0
M  V30 1766 H 152.516 -1.16624 -3.68695 0
M  V30 1767 H 154.205 -1.58199 -3.73802 0
M  V30 1768 H 154.971 -3.90908 -2.87081 0
M  V30 1769 H 150.85 -2.90718 -3.57777 0
M  V30 1770 H 154.394 -6.30727 -2.98043 0
M  V30 1771 H 150.291 -5.29659 -3.68959 0
M  V30 1772 H 151.059 -7.3686 -3.56343 0
M  V30 1773 N 153.722 1.14298 -1.08507 0
M  V30 1774 C 154.971 1.84708 -0.810305 0
M  V30 1775 C 155.284 1.83903 0.666271 0
M  V30 1776 O 156.49 2.50112 1.05624 0
M  V30 1777 C 154.946 3.31572 -1.39957 0
M  V30 1778 C 154.554 3.40791 -2.90801 0
M  V30 1779 C 156.298 4.07087 -1.20334 0
M  V30 1780 C 154.205 4.81872 -3.4286 0
M  V30 1781 H 153.135 0.691985 -0.299454 0
M  V30 1782 H 155.786 1.28841 -1.30661 0
M  V30 1783 H 154.168 3.87183 -0.830976 0
M  V30 1784 H 155.342 2.95225 -3.53806 0
M  V30 1785 H 153.657 2.78732 -3.0935 0
M  V30 1786 H 156.254 5.11225 -1.56693 0
M  V30 1787 H 156.597 4.16054 -0.143237 0
M  V30 1788 H 157.13 3.57779 -1.73893 0
M  V30 1789 H 153.869 4.78094 -4.48449 0
M  V30 1790 H 153.389 5.27972 -2.84615 0
M  V30 1791 H 155.068 5.50765 -3.39509 0
M  V30 1792 N 155.201 0.870884 1.31352 0
M  V30 1793 C 156.151 0.298889 2.26032 0
M  V30 1794 C 157.135 -0.564595 1.50669 0
M  V30 1795 O 158.327 -0.411323 1.72154 0
M  V30 1796 C 155.456 -0.497842 3.39671 0
M  V30 1797 C 154.542 0.378937 4.22404 0
M  V30 1798 N 154.933 1.47284 4.83881 0
M  V30 1799 C 153.231 0.171535 4.4567 0
M  V30 1800 C 153.932 2.01359 5.45738 0
M  V30 1801 N 152.908 1.31047 5.27568 0
M  V30 1802 H 156.71 1.13494 2.71102 0
M  V30 1803 H 154.224 0.718745 1.45629 0
M  V30 1804 H 156.221 -0.924155 4.06528 0
M  V30 1805 H 154.881 -1.33149 2.96144 0
M  V30 1806 H 155.892 1.85575 4.8351 0
M  V30 1807 H 152.569 -0.626091 4.12779 0
M  V30 1808 H 153.959 2.93143 6.0458 0
M  V30 1809 N 156.679 -1.44442 0.630414 0
M  V30 1810 C 157.626 -2.30678 -0.0749355 0
M  V30 1811 C 158.596 -1.4344 -0.837502 0
M  V30 1812 O 159.781 -1.72343 -0.818684 0
M  V30 1813 C 156.921 -3.28706 -1.05103 0
M  V30 1814 C 156.034 -4.31046 -0.286954 0
M  V30 1815 C 155.169 -5.16167 -1.2548 0
M  V30 1816 C 154.208 -6.10216 -0.479843 0
M  V30 1817 N 153.345 -6.88039 -1.39811 0
M  V30 1818 H 158.185 -2.90454 0.666386 0
M  V30 1819 H 155.722 -1.43107 0.340404 0
M  V30 1820 H 157.68 -3.84027 -1.63031 0
M  V30 1821 H 156.31 -2.70632 -1.75949 0
M  V30 1822 H 155.362 -3.78203 0.408243 0
M  V30 1823 H 156.674 -4.97794 0.316657 0
M  V30 1824 H 155.828 -5.76002 -1.90544 0
M  V30 1825 H 154.567 -4.49491 -1.89233 0
M  V30 1826 H 153.572 -5.49491 0.184295 0
M  V30 1827 H 154.797 -6.78928 0.152965 0
M  V30 1828 H 152.743 -6.24032 -2.02287 0
M  V30 1829 H 152.66 -7.51223 -0.848508 0
M  V30 1830 H 153.928 -7.52397 -2.03762 0
M  V30 1831 N 158.157 -0.370918 -1.53173 0
M  V30 1832 C 159.434 0.273754 -1.93675 0
M  V30 1833 C 159.814 1.65938 -1.3049 0
M  V30 1834 O 159.162 2.23698 -0.465999 0
M  V30 1835 C 159.372 0.318602 -3.47543 0
M  V30 1836 C 160.72 0.556392 -4.20939 0
M  V30 1837 O 161.744 0.399587 -3.53952 0
M  V30 1838 O 160.603 0.862133 -5.39657 0
M  V30 1839 H 157.697 0.165448 -0.810281 0
M  V30 1840 H 160.243 -0.42409 -1.64315 0
M  V30 1841 H 159.015 -0.652687 -3.85818 0
M  V30 1842 H 158.638 1.06212 -3.83151 0
M  V30 1843 N 159.635 1.57281 -0.100228 0
M  V30 1844 C 160.565 2.17328 0.853857 0
M  V30 1845 C 161.546 1.10804 1.2906 0
M  V30 1846 O 162.731 1.38963 1.35657 0
M  V30 1847 C 159.861 2.75772 2.11109 0
M  V30 1848 C 158.815 3.87713 1.81279 0
M  V30 1849 C 158.141 4.32882 3.13874 0
M  V30 1850 C 159.441 5.10677 1.09574 0
M  V30 1851 H 161.135 2.97305 0.353545 0
M  V30 1852 H 158.681 1.43009 0.168612 0
M  V30 1853 H 160.634 3.16433 2.78296 0
M  V30 1854 H 159.358 1.93057 2.63432 0
M  V30 1855 H 158.017 3.476 1.16489 0
M  V30 1856 H 157.665 3.47051 3.64095 0
M  V30 1857 H 157.365 5.08358 2.94696 0
M  V30 1858 H 158.889 4.7618 3.82211 0
M  V30 1859 H 160.303 5.48474 1.66879 0
M  V30 1860 H 158.7 5.91615 1.00557 0
M  V30 1861 H 159.77 4.84835 0.0793299 0
M  V30 1862 N 161.113 -0.173488 1.56642 0
M  V30 1863 C 162.524 -0.736155 1.71574 0
M  V30 1864 C 162.875 -1.82888 0.710389 0
M  V30 1865 O 162 -2.16017 -0.1287 0
M  V30 1866 C 162.595 -1.34211 3.11083 0
M  V30 1867 C 161.154 -1.85162 3.27707 0
M  V30 1868 C 160.301 -0.729765 2.67525 0
M  V30 1869 H 163.252 0.0518786 1.58615 0
M  V30 1870 H 163.273 -2.21178 3.09613 0
M  V30 1871 H 162.785 -0.546579 3.84232 0
M  V30 1872 H 160.886 -2.67366 2.59512 0
M  V30 1873 H 160.999 -1.99855 4.35425 0
M  V30 1874 H 159.363 -1.14965 2.27278 0
M  V30 1875 H 160.146 0.0538806 3.43258 0
M  V30 1876 N 162.591 -1.51276 -0.441967 0
M  V30 1877 C 163.501 -1.75092 -1.56141 0
M  V30 1878 C 164.517 -0.634963 -1.62001 0
M  V30 1879 O 165.693 -0.916686 -1.79329 0
M  V30 1880 C 162.758 -1.86666 -2.92158 0
M  V30 1881 C 161.819 -3.10506 -2.96453 0
M  V30 1882 C 161.052 -3.21519 -4.25982 0
M  V30 1883 O 161.275 -2.38586 -5.18105 0
M  V30 1884 O 160.209 -4.14465 -4.36466 0
M  V30 1885 H 164.035 -2.70044 -1.38961 0
M  V30 1886 H 161.62 -1.35722 -0.624499 0
M  V30 1887 H 163.502 -1.96292 -3.72891 0
M  V30 1888 H 162.177 -0.949014 -3.09476 0
M  V30 1889 H 161.084 -3.06363 -2.14692 0
M  V30 1890 H 162.417 -4.01945 -2.84079 0
M  V30 1891 N 164.069 0.697108 -1.41344 0
M  V30 1892 C 165.316 1.45714 -1.40619 0
M  V30 1893 C 165.644 1.94494 -0.0147907 0
M  V30 1894 O 164.899 1.69794 0.973066 0
M  V30 1895 C 165.198 2.68553 -2.35826 0
M  V30 1896 C 164.864 2.38438 -3.82698 0
M  V30 1897 C 163.526 2.29936 -4.22709 0
M  V30 1898 C 165.878 2.13567 -4.75435 0
M  V30 1899 C 163.206 1.94656 -5.53467 0
M  V30 1900 C 165.558 1.79797 -6.06511 0
M  V30 1901 C 164.222 1.69789 -6.45545 0
M  V30 1902 H 163.492 0.533206 -0.51456 0
M  V30 1903 H 166.139 0.796901 -1.74131 0
M  V30 1904 H 164.444 3.39503 -1.95563 0
M  V30 1905 H 166.141 3.2669 -2.32539 0
M  V30 1906 H 162.731 2.4595 -3.51008 0
M  V30 1907 H 166.915 2.19082 -4.45328 0
M  V30 1908 H 162.171 1.8546 -5.82593 0
M  V30 1909 H 166.345 1.59572 -6.77872 0
M  V30 1910 H 163.972 1.4222 -7.46778 0
M  V30 1911 N 165.547 1.27147 0.931209 0
M  V30 1912 C 166.497 1.06227 2.01742 0
M  V30 1913 C 167.481 -0.00859065 1.60898 0
M  V30 1914 O 168.673 0.209537 1.75755 0
M  V30 1915 C 165.802 0.707787 3.35924 0
M  V30 1916 C 164.888 1.81661 3.83223 0
M  V30 1917 N 165.279 3.05564 4.03069 0
M  V30 1918 C 163.577 1.70249 4.12227 0
M  V30 1919 C 164.278 3.77697 4.42403 0
M  V30 1920 N 163.254 3.0544 4.49675 0
M  V30 1921 H 167.056 2.00261 2.15111 0
M  V30 1922 H 164.57 1.1781 1.11779 0
M  V30 1923 H 166.567 0.539043 4.134 0
M  V30 1924 H 165.227 -0.224964 3.2392 0
M  V30 1925 H 166.238 3.41363 3.89476 0
M  V30 1926 H 162.915 0.840329 4.08956 0
M  V30 1927 H 164.305 4.84168 4.65866 0
M  V30 1928 N 167.025 -1.13721 1.09112 0
M  V30 1929 C 168.436 -1.6648 0.845068 0
M  V30 1930 C 168.787 -1.85911 -0.62701 0
M  V30 1931 O 167.912 -1.57556 -1.48341 0
M  V30 1932 C 168.507 -3.02413 1.52748 0
M  V30 1933 C 167.066 -3.52176 1.32849 0
M  V30 1934 C 166.213 -2.27492 1.58564 0
M  V30 1935 H 169.164 -0.976872 1.25072 0
M  V30 1936 H 169.185 -3.68223 0.958752 0
M  V30 1937 H 168.697 -2.88238 2.59885 0
M  V30 1938 H 166.798 -3.7156 0.278137 0
M  V30 1939 H 166.911 -4.32499 2.0611 0
M  V30 1940 H 165.275 -2.33923 1.00758 0
M  V30 1941 H 166.058 -2.15886 2.66924 0
M  V30 1942 N 168.503 -0.877838 -1.30888 0
M  V30 1943 C 169.728 -0.506629 -2.01117 0
M  V30 1944 C 170.153 0.895564 -1.65412 0
M  V30 1945 O 169.511 1.5923 -0.866922 0
M  V30 1946 C 169.559 -0.680223 -3.54126 0
M  V30 1947 O 168.663 0.277033 -4.11468 0
M  V30 1948 H 168.004 -0.200518 -0.633 0
M  V30 1949 H 170.534 -1.18342 -1.66902 0
M  V30 1950 H 170.544 -0.5765 -4.03907 0
M  V30 1951 H 169.219 -1.70261 -3.79452 0
M  V30 1952 H 167.796 0.127606 -3.72682 0
M  V30 1953 N 169.982 1.44106 -0.638065 0
M  V30 1954 C 170.945 2.29138 0.0531013 0
M  V30 1955 C 171.945 1.41409 0.765506 0
M  V30 1956 O 173.135 1.63206 0.609046 0
M  V30 1957 C 170.267 3.23144 1.08584 0
M  V30 1958 H 171.46 2.91739 -0.694883 0
M  V30 1959 H 169.013 1.51134 -0.398538 0
M  V30 1960 H 169.748 2.65408 1.86357 0
M  V30 1961 H 169.533 3.87804 0.578852 0
M  V30 1962 H 171.023 3.87004 1.56899 0
M  V30 1963 N 171.46 0.379036 1.52974 0
M  V30 1964 C 172.408 -0.476033 2.27677 0
M  V30 1965 C 173.402 -1.0719 1.31174 0
M  V30 1966 O 174.608 -1.01355 1.48752 0
M  V30 1967 H 170.983 -0.172255 0.732006 0
M  V30 1968 H 172.954 0.175615 2.97883 0
M  V30 1969 C 171.703 -1.5967 3.0887 0
M  V30 1970 H 171.026 -1.1475 3.82978 0
M  V30 1971 H 172.466 -2.16943 3.64296 0
M  V30 1972 C 170.925 -2.54682 2.20542 0
M  V30 1973 O 171.455 -3.57836 1.82527 0
M  V30 1974 N 169.661 -2.24183 1.84907 0
M  V30 1975 H 169.208 -1.40333 2.1602 0
M  V30 1976 H 169.166 -2.88006 1.26096 0
M  V30 1977 N 172.938 -1.57226 0.108567 0
M  V30 1978 C 173.888 -2.11305 -0.856396 0
M  V30 1979 C 174.872 -1.03129 -1.23504 0
M  V30 1980 O 176.064 -1.29381 -1.20787 0
M  V30 1981 C 173.193 -2.70771 -2.11041 0
M  V30 1982 C 172.279 -3.86011 -1.7566 0
M  V30 1983 N 172.67 -4.93492 -1.10902 0
M  V30 1984 C 170.968 -3.95999 -2.05185 0
M  V30 1985 C 171.669 -5.73984 -0.944308 0
M  V30 1986 N 170.645 -5.2346 -1.46596 0
M  V30 1987 H 174.447 -2.91784 -0.352002 0
M  V30 1988 H 171.961 -1.62126 -0.0942324 0
M  V30 1989 H 173.958 -3.07851 -2.81128 0
M  V30 1990 H 172.618 -1.91751 -2.62034 0
M  V30 1991 H 173.629 -5.1208 -0.774235 0
M  V30 1992 H 170.306 -3.28007 -2.58298 0
M  V30 1993 H 171.696 -6.70479 -0.436813 0
M  V30 1994 N 174.416 0.165178 -1.56732 0
M  V30 1995 C 175.644 0.896218 -1.86482 0
M  V30 1996 C 176.059 1.75555 -0.694675 0
M  V30 1997 O 175.416 1.79379 0.33607 0
M  V30 1998 C 175.467 1.76792 -3.1532 0
M  V30 1999 O 175.188 0.943239 -4.27825 0
M  V30 2000 C 176.689 2.6081 -3.58459 0
M  V30 2001 H 173.909 0.260064 -0.618553 0
M  V30 2002 H 176.453 0.163428 -2.03846 0
M  V30 2003 H 174.608 2.45398 -2.99764 0
M  V30 2004 H 175.022 1.53998 -5.01383 0
M  V30 2005 H 176.496 3.17579 -4.51495 0
M  V30 2006 H 176.973 3.35977 -2.82872 0
M  V30 2007 H 177.579 1.97526 -3.76648 0
M  V30 2008 N 175.894 1.51508 0.433938 0
M  V30 2009 C 177.305 1.56784 1.01369 0
M  V30 2010 C 177.656 0.393349 1.92217 0
M  V30 2011 O 176.781 -0.489441 2.10792 0
M  V30 2012 C 177.376 2.84144 1.8452 0
M  V30 2013 C 175.935 2.9198 2.37539 0
M  V30 2014 C 175.082 2.51482 1.16843 0
M  V30 2015 H 178.033 1.57236 0.215081 0
M  V30 2016 H 178.054 2.68098 2.70007 0
M  V30 2017 H 177.566 3.69607 1.18373 0
M  V30 2018 H 175.667 2.10955 3.0713 0
M  V30 2019 H 175.78 3.95704 2.70103 0
M  V30 2020 H 174.144 2.04758 1.51481 0
M  V30 2021 H 174.927 3.39293 0.523015 0
M  V30 2022 N 177.372 -0.689602 1.41712 0
M  V30 2023 C 178.612 -1.46184 1.42862 0
M  V30 2024 C 178.976 -1.91962 0.0382204 0
M  V30 2025 O 180.177 -2.68694 -0.0755019 0
M  V30 2026 C 178.448 -2.6371 2.4123 0
M  V30 2027 S 180.007 -3.52768 2.6096 0
M  V30 2028 H 176.825 -0.49947 0.506015 0
M  V30 2029 H 179.427 -0.804107 1.78198 0
M  V30 2030 H 178.131 -2.28293 3.41044 0
M  V30 2031 H 177.662 -3.3437 2.07269 0
M  V30 2032 H 179.677 -4.59146 1.88148 0
M  V30 2033 N 178.85 -1.27639 -0.924453 0
M  V30 2034 C 180.096 -1.14336 -1.67497 0
M  V30 2035 C 180.429 0.309465 -1.91718 0
M  V30 2036 O 179.704 1.22608 -1.50989 0
M  V30 2037 C 179.987 -1.93096 -3.0395 0
M  V30 2038 C 179.84 -3.46381 -2.8695 0
M  V30 2039 C 181.159 -1.73798 -4.0433 0
M  V30 2040 H 178.278 -0.416728 -0.607871 0
M  V30 2041 H 180.92 -1.56832 -1.07256 0
M  V30 2042 H 179.07 -1.56982 -3.55372 0
M  V30 2043 H 180.742 -3.92343 -2.42621 0
M  V30 2044 H 178.985 -3.72557 -2.22225 0
M  V30 2045 H 179.656 -3.96735 -3.83804 0
M  V30 2046 H 182.132 -2.05293 -3.61931 0
M  V30 2047 H 181.008 -2.31294 -4.97789 0
M  V30 2048 H 181.269 -0.686725 -4.36734 0
M  V30 2049 N 180.328 1.1314 -1.09713 0
M  V30 2050 C 181.238 2.22242 -0.751367 0
M  V30 2051 C 182.254 1.72224 0.247938 0
M  V30 2052 O 183.43 2.01205 0.0885463 0
M  V30 2053 C 180.495 3.46231 -0.180274 0
M  V30 2054 C 179.556 4.11125 -1.2359 0
M  V30 2055 C 178.789 5.29195 -0.691966 0
M  V30 2056 O 179.012 5.68342 0.48414 0
M  V30 2057 O 177.946 5.84214 -1.44838 0
M  V30 2058 H 181.772 2.54197 -1.66186 0
M  V30 2059 H 179.357 1.21331 -0.871735 0
M  V30 2060 H 181.239 4.21185 0.134739 0
M  V30 2061 H 179.914 3.1597 0.703185 0
M  V30 2062 H 178.821 3.37985 -1.60366 0
M  V30 2063 H 180.154 4.45524 -2.09211 0
M  V30 2064 N 181.806 0.884767 1.30421 0
M  V30 2065 C 182.754 0.340869 2.30089 0
M  V30 2066 C 183.748 -0.55201 1.60154 0
M  V30 2067 O 184.954 -0.436467 1.74628 0
M  V30 2068 H 181.329 0.0915739 0.746404 0
M  V30 2069 H 183.3 1.19513 2.73421 0
M  V30 2070 C 182.049 -0.429779 3.45034 0
M  V30 2071 H 181.372 0.248024 3.9903 0
M  V30 2072 H 182.812 -0.775445 4.16849 0
M  V30 2073 C 181.271 -1.62677 2.95022 0
M  V30 2074 O 181.801 -2.72614 2.95033 0
M  V30 2075 N 180.007 -1.46387 2.51036 0
M  V30 2076 H 179.554 -0.569506 2.51226 0
M  V30 2077 H 179.512 -2.26612 2.17932 0
M  V30 2078 N 183.284 -1.43765 0.645699 0
M  V30 2079 C 184.533 -2.01116 0.153412 0
M  V30 2080 C 184.846 -1.51493 -1.23731 0
M  V30 2081 O 186.052 -2.01067 -1.8244 0
M  V30 2082 C 184.508 -3.59206 0.223473 0
M  V30 2083 C 184.116 -4.17823 1.61642 0
M  V30 2084 C 185.86 -4.23972 -0.211597 0
M  V30 2085 C 183.767 -5.68183 1.64081 0
M  V30 2086 H 182.697 -0.752093 0.0535891 0
M  V30 2087 H 185.348 -1.6482 0.806633 0
M  V30 2088 H 183.73 -3.92867 -0.497118 0
M  V30 2089 H 184.904 -3.95674 2.36176 0
M  V30 2090 H 183.219 -3.65399 1.99681 0
M  V30 2091 H 185.816 -5.34275 -0.213112 0
M  V30 2092 H 186.159 -3.97352 -1.24165 0
M  V30 2093 H 186.692 -3.95166 0.456988 0
M  V30 2094 H 183.431 -5.99559 2.64971 0
M  V30 2095 H 182.951 -5.9241 0.938611 0
M  V30 2096 H 184.63 -6.32085 1.3812 0
M  V30 2097 N 184.763 -0.387143 -1.52771 0
M  V30 2098 C 185.711 0.463953 -2.27926 0
M  V30 2099 C 186.705 1.06493 -1.31741 0
M  V30 2100 O 187.911 1.00565 -1.49287 0
M  V30 2101 H 184.286 0.16837 -0.732909 0
M  V30 2102 H 186.257 -0.19141 -2.97785 0
M  V30 2103 C 185.006 1.5803 -3.09713 0
M  V30 2104 H 184.329 1.12718 -3.83581 0
M  V30 2105 H 185.769 2.15008 -3.65442 0
M  V30 2106 C 184.228 2.53509 -2.2189 0
M  V30 2107 O 184.758 3.56863 -1.84422 0
M  V30 2108 N 182.964 2.23199 -1.86093 0
M  V30 2109 H 182.511 1.39185 -2.16761 0
M  V30 2110 H 182.469 2.87333 -1.27621 0
M  V30 2111 N 186.241 1.57166 -0.116904 0
M  V30 2112 C 187.489 1.94737 0.540533 0
M  V30 2113 C 187.81 1.00096 1.67349 0
M  V30 2114 O 187.08 0.0568854 1.95817 0
M  V30 2115 H 185.66 0.718981 0.202669 0
M  V30 2116 H 188.322 1.94017 -0.185353 0
M  V30 2117 H 187.418 2.97719 0.936483 0
M  V30 2118 N 187.719 -0.156864 1.56817 0
M  V30 2119 C 188.649 -1.19589 2.00551 0
M  V30 2120 C 189.63 -1.4536 0.883426 0
M  V30 2121 O 190.815 -1.56449 1.15054 0
M  V30 2122 C 187.945 -2.53143 2.37773 0
M  V30 2123 C 186.899 -2.41913 3.53075 0
M  V30 2124 C 186.225 -3.80088 3.76081 0
M  V30 2125 C 187.525 -1.91157 4.86062 0
M  V30 2126 H 189.219 -0.832293 2.87599 0
M  V30 2127 H 186.765 -0.398918 1.38364 0
M  V30 2128 H 188.718 -3.26047 2.66967 0
M  V30 2129 H 187.442 -2.91319 1.4765 0
M  V30 2130 H 186.101 -1.71462 3.24031 0
M  V30 2131 H 185.749 -4.15683 2.83225 0
M  V30 2132 H 185.449 -3.73439 4.53671 0
M  V30 2133 H 186.973 -4.54556 4.0769 0
M  V30 2134 H 188.387 -2.53846 5.14038 0
M  V30 2135 H 186.784 -1.95422 5.67389 0
M  V30 2136 H 187.854 -0.866673 4.77092 0
M  V30 2137 N 189.197 -1.51736 -0.425897 0
M  V30 2138 C 190.425 -1.68794 -1.1965 0
M  V30 2139 C 190.84 -0.390164 -1.84725 0
M  V30 2140 O 190.197 0.632376 -1.71194 0
M  V30 2141 C 190.248 -2.81174 -2.27208 0
M  V30 2142 O 189.969 -4.05925 -1.64793 0
M  V30 2143 C 191.47 -3.09599 -3.17275 0
M  V30 2144 H 188.69 -0.566128 -0.360194 0
M  V30 2145 H 191.234 -1.98211 -0.503249 0
M  V30 2146 H 189.389 -2.54324 -2.9223 0
M  V30 2147 H 189.803 -4.68423 -2.35967 0
M  V30 2148 H 191.277 -3.91786 -3.88854 0
M  V30 2149 H 191.754 -2.22468 -3.78688 0
M  V30 2150 H 192.36 -3.38151 -2.57941 0
M  V30 2151 N 190.675 0.682077 -1.42076 0
M  V30 2152 C 191.9 1.47558 -1.45744 0
M  V30 2153 C 192.325 1.87977 -0.0680981 0
M  V30 2154 O 191.683 1.55522 0.9318 0
M  V30 2155 C 191.731 2.70575 -2.38373 0
M  V30 2156 O 190.835 3.68573 -1.85007 0
M  V30 2157 H 190.176 0.443585 -0.494093 0
M  V30 2158 H 192.706 0.837238 -1.86686 0
M  V30 2159 H 192.716 3.18729 -2.54707 0
M  V30 2160 H 191.391 2.40495 -3.39315 0
M  V30 2161 H 189.968 3.2757 -1.78192 0
M  V30 2162 N 192.153 1.28127 0.917671 0
M  V30 2163 C 193.116 1.11744 2.00115 0
M  V30 2164 C 194.116 0.0583052 1.60694 0
M  V30 2165 O 195.306 0.303755 1.71531 0
M  V30 2166 C 192.438 0.704862 3.33533 0
M  V30 2167 H 193.631 2.07966 2.16079 0
M  V30 2168 H 191.184 1.11058 1.09981 0
M  V30 2169 H 191.919 -0.258299 3.2327 0
M  V30 2170 H 191.704 1.4699 3.63505 0
M  V30 2171 H 193.194 0.612768 4.1308 0
M  V30 2172 N 193.631 -1.12557 1.10312 0
M  V30 2173 C 194.878 -1.84038 0.844759 0
M  V30 2174 C 195.206 -1.84026 -0.629668 0
M  V30 2175 O 194.461 -1.28026 -1.48013 0
M  V30 2176 C 194.76 -3.31462 1.33669 0
M  V30 2177 C 194.426 -3.51647 2.82232 0
M  V30 2178 C 193.088 -3.56864 3.22802 0
M  V30 2179 C 195.44 -3.58867 3.77974 0
M  V30 2180 C 192.768 -3.66844 4.57867 0
M  V30 2181 C 195.12 -3.70375 5.1284 0
M  V30 2182 C 193.784 -3.73848 5.52986 0
M  V30 2183 H 193.054 -0.673444 0.309119 0
M  V30 2184 H 195.701 -1.32824 1.37949 0
M  V30 2185 H 194.006 -3.85091 0.721949 0
M  V30 2186 H 195.703 -3.85236 1.11329 0
M  V30 2187 H 192.293 -3.48249 2.49842 0
M  V30 2188 H 196.477 -3.54107 3.47738 0
M  V30 2189 H 191.733 -3.67804 4.88396 0
M  V30 2190 H 195.907 -3.74904 5.86873 0
M  V30 2191 H 193.534 -3.81333 6.57639 0
M  V30 2192 N 195.109 -0.891671 -1.2995 0
M  V30 2193 C 196.039 -0.379797 -2.30391 0
M  V30 2194 C 197.02 0.540919 -1.6127 0
M  V30 2195 O 198.205 0.453352 -1.88834 0
M  V30 2196 C 195.335 0.400654 -3.44981 0
M  V30 2197 C 194.289 -0.428905 -4.25846 0
M  V30 2198 C 193.615 0.478557 -5.32554 0
M  V30 2199 C 194.915 -1.67458 -4.94727 0
M  V30 2200 H 196.609 -1.21914 -2.73454 0
M  V30 2201 H 194.155 -0.587675 -1.31462 0
M  V30 2202 H 196.108 0.769434 -4.14316 0
M  V30 2203 H 194.832 1.27371 -3.0074 0
M  V30 2204 H 193.491 -0.779911 -3.58208 0
M  V30 2205 H 193.139 1.34951 -4.84559 0
M  V30 2206 H 192.839 -0.0727433 -5.87555 0
M  V30 2207 H 194.363 0.843705 -6.04743 0
M  V30 2208 H 195.777 -1.376 -5.56542 0
M  V30 2209 H 194.174 -2.16659 -5.59624 0
M  V30 2210 H 195.244 -2.41518 -4.20473 0
M  V30 2211 N 196.587 1.43421 -0.653314 0
M  V30 2212 C 197.834 2.01812 -0.166745 0
M  V30 2213 C 198.162 1.51535 1.21931 0
M  V30 2214 O 197.417 0.698975 1.82792 0
M  V30 2215 C 197.716 3.57176 -0.126623 0
M  V30 2216 C 197.382 4.26798 -1.45444 0
M  V30 2217 C 196.044 4.45534 -1.81805 0
M  V30 2218 C 198.396 4.66225 -2.32989 0
M  V30 2219 C 195.724 5.00961 -3.05377 0
M  V30 2220 C 198.076 5.23021 -3.55853 0
M  V30 2221 C 196.74 5.39973 -3.9241 0
M  V30 2222 H 196.01 0.738484 -0.0610162 0
M  V30 2223 H 198.657 1.71896 -0.84404 0
M  V30 2224 H 196.962 3.86634 0.634123 0
M  V30 2225 H 198.659 4.00112 0.266723 0
M  V30 2226 H 195.249 4.12561 -1.16153 0
M  V30 2227 H 199.433 4.51443 -2.06187 0
M  V30 2228 H 194.689 5.12271 -3.3375 0
M  V30 2229 H 198.863 5.52518 -4.23907 0
M  V30 2230 H 196.49 5.82687 -4.88242 0
M  V30 2231 N 198.065 0.39524 1.52563 0
M  V30 2232 C 199.29 -0.187456 2.06551 0
M  V30 2233 C 199.715 -1.39249 1.26457 0
M  V30 2234 O 199.073 -1.78947 0.291151 0
M  V30 2235 C 199.121 -0.529985 3.56684 0
M  V30 2236 O 198.225 -1.62307 3.79118 0
M  V30 2237 H 197.566 -0.0202537 0.663691 0
M  V30 2238 H 200.096 0.564426 1.96661 0
M  V30 2239 H 200.106 -0.792598 4.00227 0
M  V30 2240 H 198.781 0.350987 4.14416 0
M  V30 2241 H 197.358 -1.3537 3.47461 0
M  V30 2242 N 199.544 -1.57102 0.125237 0
M  V30 2243 C 200.474 -2.18659 -0.819174 0
M  V30 2244 C 201.455 -1.12843 -1.27281 0
M  V30 2245 O 202.64 -1.41104 -1.33429 0
M  V30 2246 C 199.77 -2.79096 -2.06695 0
M  V30 2247 C 198.724 -3.90548 -1.75088 0
M  V30 2248 C 198.05 -4.37821 -3.06948 0
M  V30 2249 C 199.35 -5.12356 -1.01435 0
M  V30 2250 H 201.044 -2.9783 -0.306202 0
M  V30 2251 H 198.59 -1.4326 -0.145839 0
M  V30 2252 H 200.543 -3.2082 -2.73226 0
M  V30 2253 H 199.267 -1.97223 -2.60328 0
M  V30 2254 H 197.926 -3.49409 -1.10944 0
M  V30 2255 H 197.574 -3.52799 -3.58527 0
M  V30 2256 H 197.274 -5.12982 -2.86571 0
M  V30 2257 H 198.798 -4.822 -3.74587 0
M  V30 2258 H 200.212 -5.5106 -1.58132 0
M  V30 2259 H 198.609 -5.9314 -0.911319 0
M  V30 2260 H 199.679 -4.849 -0.00218681 0
M  V30 2261 N 201.022 0.148545 -1.56898 0
M  V30 2262 C 201.932 1.20293 -2.01412 0
M  V30 2263 C 202.948 1.47107 -0.929273 0
M  V30 2264 O 204.124 1.58807 -1.23863 0
M  V30 2265 C 201.189 2.51682 -2.38447 0
M  V30 2266 C 200.25 2.32529 -3.60872 0
M  V30 2267 C 199.483 3.57653 -3.96132 0
M  V30 2268 O 199.706 4.63771 -3.32073 0
M  V30 2269 O 198.64 3.50408 -4.89385 0
M  V30 2270 H 202.466 0.855025 -2.91416 0
M  V30 2271 H 200.051 0.357151 -1.45068 0
M  V30 2272 H 201.933 3.29147 -2.63135 0
M  V30 2273 H 200.608 2.86006 -1.51599 0
M  V30 2274 H 199.515 1.53019 -3.41373 0
M  V30 2275 H 200.848 2.03121 -4.48333 0
M  V30 2276 N 202.5 1.5196 0.417844 0
M  V30 2277 C 203.728 1.69426 1.18753 0
M  V30 2278 C 204.143 0.399955 1.84515 0
M  V30 2279 O 203.5 -0.623288 1.71527 0
M  V30 2280 C 203.551 2.82375 2.25714 0
M  V30 2281 O 203.272 4.06793 1.62638 0
M  V30 2282 C 204.773 3.11277 3.15628 0
M  V30 2283 H 201.993 0.568031 0.357186 0
M  V30 2284 H 204.537 1.98475 0.49273 0
M  V30 2285 H 202.692 2.5587 2.90877 0
M  V30 2286 H 203.106 4.69667 2.3348 0
M  V30 2287 H 204.58 3.93843 3.86771 0
M  V30 2288 H 205.057 2.24473 3.77503 0
M  V30 2289 H 205.663 3.39515 2.56144 0
M  V30 2290 N 203.978 -0.674533 1.42435 0
M  V30 2291 C 204.91 -1.80005 1.41883 0
M  V30 2292 C 205.923 -1.59667 0.31787 0
M  V30 2293 O 207.112 -1.68781 0.580973 0
M  V30 2294 C 204.212 -3.17114 1.19549 0
M  V30 2295 C 203.385 -3.64299 2.42084 0
M  V30 2296 C 202.444 -4.80142 2.15291 0
M  V30 2297 O 201.47 -4.90673 2.88493 0
M  V30 2298 N 202.672 -5.68869 1.1562 0
M  V30 2299 H 205.437 -1.80964 2.38898 0
M  V30 2300 H 202.998 -0.857633 1.37318 0
M  V30 2301 H 204.99 -3.92267 0.995417 0
M  V30 2302 H 203.56 -3.11053 0.310569 0
M  V30 2303 H 202.78 -2.79822 2.77657 0
M  V30 2304 H 204.068 -3.92567 3.23679 0
M  V30 2305 H 203.466 -5.63012 0.550765 0
M  V30 2306 H 202.023 -6.43833 1.016 0
M  V30 2307 N 205.456 -1.28612 -0.910864 0
M  V30 2308 C 206.702 -1.16106 -1.66274 0
M  V30 2309 C 207.035 0.289113 -1.92036 0
M  V30 2310 O 206.31 1.21 -1.52281 0
M  V30 2311 C 206.593 -1.96309 -3.01885 0
M  V30 2312 C 206.446 -3.49405 -2.8326 0
M  V30 2313 C 207.765 -1.78076 -4.02463 0
M  V30 2314 H 204.884 -0.423152 -0.603417 0
M  V30 2315 H 207.526 -1.57961 -1.05586 0
M  V30 2316 H 205.676 -1.60742 -3.53687 0
M  V30 2317 H 207.348 -3.94894 -2.38446 0
M  V30 2318 H 205.591 -3.74893 -2.18261 0
M  V30 2319 H 206.262 -4.00784 -3.79574 0
M  V30 2320 H 208.738 -2.0912 -3.59733 0
M  V30 2321 H 207.614 -2.36561 -4.95308 0
M  V30 2322 H 207.875 -0.733008 -4.35981 0
M  V30 2323 N 206.934 1.1197 -1.10907 0
M  V30 2324 C 208.162 1.87402 -0.876824 0
M  V30 2325 C 208.577 1.79894 0.573025 0
M  V30 2326 O 207.934 1.17629 1.39534 0
M  V30 2327 C 207.985 3.36428 -1.32282 0
M  V30 2328 O 207.706 3.43765 -2.71582 0
M  V30 2329 C 209.207 4.28783 -1.12518 0
M  V30 2330 H 206.427 0.592793 -0.314384 0
M  V30 2331 H 208.971 1.41649 -1.47499 0
M  V30 2332 H 207.126 3.79706 -0.768229 0
M  V30 2333 H 207.54 4.3652 -2.90776 0
M  V30 2334 H 209.014 5.31613 -1.48633 0
M  V30 2335 H 209.491 4.39153 -0.0642394 0
M  V30 2336 H 210.097 3.91291 -1.66648 0
M  V30 2337 N 208.412 0.89855 1.29475 0
M  V30 2338 C 209.661 0.519863 1.94885 0
M  V30 2339 C 209.974 -0.9383 1.71625 0
M  V30 2340 O 211.18 -1.42445 2.31131 0
M  V30 2341 C 209.636 0.878836 3.49005 0
M  V30 2342 C 209.244 2.35569 3.81066 0
M  V30 2343 C 210.988 0.570004 4.20656 0
M  V30 2344 C 208.895 2.65558 5.28425 0
M  V30 2345 H 207.825 0.190692 0.729488 0
M  V30 2346 H 210.476 1.09539 1.47219 0
M  V30 2347 H 208.858 0.232253 3.95318 0
M  V30 2348 H 210.032 3.04773 3.45616 0
M  V30 2349 H 208.347 2.63343 3.22552 0
M  V30 2350 H 210.944 0.770925 5.29113 0
M  V30 2351 H 211.287 -0.491404 4.1339 0
M  V30 2352 H 211.82 1.17438 3.8007 0
M  V30 2353 H 208.559 3.70493 5.40754 0
M  V30 2354 H 208.079 2.00977 5.65127 0
M  V30 2355 H 209.758 2.51765 5.96006 0
M  V30 2356 N 209.89 -1.43072 0.660911 0
M  V30 2357 C 211.138 -2.01323 0.177094 0
M  V30 2358 C 211.459 -1.5245 -1.2159 0
M  V30 2359 O 210.729 -0.740322 -1.81373 0
M  V30 2360 H 209.309 -0.744382 0.0624804 0
M  V30 2361 H 211.971 -1.75179 0.854305 0
M  V30 2362 H 211.067 -3.11649 0.167641 0
M  V30 2363 N 211.368 -0.403325 -1.52352 0
M  V30 2364 C 212.598 0.17376 -2.05868 0
M  V30 2365 C 213.006 1.39898 -1.27378 0
M  V30 2366 O 212.349 1.80939 -0.31729 0
M  V30 2367 C 212.411 0.594756 -3.54546 0
M  V30 2368 C 212.075 -0.518926 -4.54044 0
M  V30 2369 C 213.072 -1.3807 -5.01231 0
M  V30 2370 C 210.757 -0.689961 -4.97539 0
M  V30 2371 C 212.751 -2.39852 -5.90551 0
M  V30 2372 C 210.438 -1.71109 -5.86656 0
M  V30 2373 C 211.436 -2.56378 -6.33056 0
M  V30 2374 O 211.124 -3.56743 -7.20409 0
M  V30 2375 H 210.856 0.0264951 -0.675481 0
M  V30 2376 H 213.41 -0.571179 -1.97299 0
M  V30 2377 H 211.64 1.39189 -3.60782 0
M  V30 2378 H 213.329 1.0991 -3.90736 0
M  V30 2379 H 214.095 -1.25994 -4.68349 0
M  V30 2380 H 209.974 -0.035939 -4.60986 0
M  V30 2381 H 213.518 -3.06441 -6.26689 0
M  V30 2382 H 209.415 -1.83218 -6.18952 0
M  V30 2383 H 210.183 -3.52918 -7.38506 0
M  V30 2384 N 212.846 1.57033 -0.133567 0
M  V30 2385 C 214.094 1.953 0.519848 0
M  V30 2386 C 214.415 1.01866 1.66278 0
M  V30 2387 O 213.685 0.0776513 1.95746 0
M  V30 2388 H 212.265 0.721091 0.195032 0
M  V30 2389 H 214.927 1.93809 -0.205921 0
M  V30 2390 H 214.023 2.98695 0.904854 0
M  V30 2391 N 214.325 -0.140222 1.56975 0
M  V30 2392 C 215.572 -0.851687 1.83719 0
M  V30 2393 C 215.9 -1.80862 0.715485 0
M  V30 2394 O 215.155 -1.93464 -0.294956 0
M  V30 2395 C 215.454 -1.65386 3.16832 0
M  V30 2396 C 215.12 -0.843112 4.42947 0
M  V30 2397 C 213.782 -0.619464 4.77196 0
M  V30 2398 C 216.134 -0.276582 5.20466 0
M  V30 2399 C 213.462 0.181312 5.8642 0
M  V30 2400 C 215.814 0.51127 6.30531 0
M  V30 2401 C 214.478 0.745432 6.63325 0
M  V30 2402 H 213.748 -0.311654 0.672274 0
M  V30 2403 H 216.395 -0.115006 1.91154 0
M  V30 2404 H 214.7 -2.46084 3.04877 0
M  V30 2405 H 216.397 -2.20793 3.34741 0
M  V30 2406 H 212.987 -1.0275 4.16101 0
M  V30 2407 H 217.171 -0.436632 4.94376 0
M  V30 2408 H 212.427 0.372165 6.10266 0
M  V30 2409 H 216.601 0.957354 6.89788 0
M  V30 2410 H 214.228 1.36778 7.47794 0
M  V30 2411 N 215.803 -1.52179 -0.40978 0
M  V30 2412 C 217.219 -1.40968 -0.74835 0
M  V30 2413 C 217.419 -0.513657 -1.94843 0
M  V30 2414 O 216.475 0.0208026 -2.52491 0
M  V30 2415 C 217.788 -2.83483 -1.0029 0
M  V30 2416 C 219.336 -2.92821 -1.10565 0
M  V30 2417 C 219.811 -4.36303 -1.39296 0
M  V30 2418 N 221.302 -4.39535 -1.46162 0
M  V30 2419 C 222.037 -5.47614 -1.70018 0
M  V30 2420 N 221.533 -6.65812 -1.91483 0
M  V30 2421 N 223.326 -5.35129 -1.72027 0
M  V30 2422 H 215.477 -2.0897 0.380186 0
M  V30 2423 H 217.74 -0.94185 0.107805 0
M  V30 2424 H 217.446 -3.51168 -0.193461 0
M  V30 2425 H 217.32 -3.24487 -1.92323 0
M  V30 2426 H 219.707 -2.25318 -1.90568 0
M  V30 2427 H 219.788 -2.55276 -0.16369 0
M  V30 2428 H 219.432 -5.04366 -0.598109 0
M  V30 2429 H 219.362 -4.71385 -2.34743 0
M  V30 2430 H 221.853 -3.54332 -1.31367 0
M  V30 2431 H 222.166 -7.43964 -2.09134 0
M  V30 2432 H 220.511 -6.68879 -1.88749 0
M  V30 2433 H 223.702 -4.41764 -1.54796 0
M  V30 2434 H 223.875 -6.19433 -1.9028 0
M  V30 2435 N 217.281 0.66697 -1.42791 0
M  V30 2436 C 218.521 1.43892 -1.4517 0
M  V30 2437 C 218.885 1.91877 -0.0687551 0
M  V30 2438 O 220.086 2.6878 0.0327455 0
M  V30 2439 C 218.357 2.59839 -2.45395 0
M  V30 2440 S 219.916 3.48572 -2.66539 0
M  V30 2441 H 216.734 0.491356 -0.513897 0
M  V30 2442 H 219.336 0.775656 -1.79454 0
M  V30 2443 H 218.04 2.22838 -3.44632 0
M  V30 2444 H 217.571 3.3103 -2.12562 0
M  V30 2445 H 219.586 4.56094 -1.95429 0
M  V30 2446 N 218.759 1.29093 0.90403 0
M  V30 2447 C 220.005 1.16986 1.65656 0
M  V30 2448 C 220.338 -0.278925 1.92186 0
M  V30 2449 O 219.613 -1.2019 1.5292 0
M  V30 2450 C 219.896 1.97908 3.0084 0
M  V30 2451 C 219.749 3.50903 2.81403 0
M  V30 2452 C 221.068 1.80208 4.01513 0
M  V30 2453 H 218.187 0.426346 0.601164 0
M  V30 2454 H 220.829 1.58518 1.04747 0
M  V30 2455 H 218.979 1.62616 3.52829 0
M  V30 2456 H 220.651 3.96153 2.36348 0
M  V30 2457 H 218.894 3.76045 2.1627 0
M  V30 2458 H 219.565 4.02791 3.77443 0
M  V30 2459 H 222.041 2.11025 3.58619 0
M  V30 2460 H 220.917 2.39184 4.94047 0
M  V30 2461 H 221.178 0.756119 4.35586 0
M  V30 2462 N 220.237 -1.11381 1.11499 0
M  V30 2463 C 221.465 -1.86934 0.88675 0
M  V30 2464 C 221.88 -1.80195 -0.563476 0
M  V30 2465 O 221.237 -1.18367 -1.38908 0
M  V30 2466 C 221.288 -3.35722 1.34064 0
M  V30 2467 O 221.009 -3.4232 2.73401 0
M  V30 2468 C 222.51 -4.2818 1.14791 0
M  V30 2469 H 219.73 -0.591117 0.317523 0
M  V30 2470 H 222.274 -1.40865 1.48248 0
M  V30 2471 H 220.429 -3.79294 0.788355 0
M  V30 2472 H 220.843 -4.34971 2.93087 0
M  V30 2473 H 222.317 -5.30817 1.5145 0
M  V30 2474 H 222.794 -4.39113 0.0875279 0
M  V30 2475 H 223.4 -3.90402 1.68721 0
M  V30 2476 N 221.715 -0.905404 -1.28997 0
M  V30 2477 C 222.625 -0.392246 -2.31298 0
M  V30 2478 C 223.641 0.515889 -1.66176 0
M  V30 2479 O 224.817 0.404093 -1.97304 0
M  V30 2480 C 221.882 0.36686 -3.44754 0
M  V30 2481 C 220.943 -0.573485 -4.25452 0
M  V30 2482 C 220.176 0.149488 -5.33491 0
M  V30 2483 O 220.399 1.37255 -5.5364 0
M  V30 2484 O 219.333 -0.510919 -5.99728 0
M  V30 2485 H 223.159 -1.2411 -2.77183 0
M  V30 2486 H 220.744 -0.669926 -1.33538 0
M  V30 2487 H 222.626 0.795907 -4.13816 0
M  V30 2488 H 221.301 1.19169 -3.00966 0
M  V30 2489 H 220.208 -1.05176 -3.59011 0
M  V30 2490 H 221.541 -1.36489 -4.72897 0
M  V30 2491 N 223.193 1.4272 -0.668489 0
M  V30 2492 C 224.125 2.2914 0.052613 0
M  V30 2493 C 225.138 1.43339 0.771857 0
M  V30 2494 O 226.327 1.67123 0.627067 0
M  V30 2495 C 223.427 3.20618 1.09804 0
M  V30 2496 C 222.6 4.35039 0.45389 0
M  V30 2497 C 221.659 5.07282 1.39825 0
M  V30 2498 O 220.685 5.62024 0.900978 0
M  V30 2499 N 221.887 5.12206 2.73176 0
M  V30 2500 H 224.652 2.91668 -0.689209 0
M  V30 2501 H 222.213 1.53577 -0.512422 0
M  V30 2502 H 224.205 3.65815 1.73094 0
M  V30 2503 H 222.775 2.59585 1.74167 0
M  V30 2504 H 221.995 3.92567 -0.358396 0
M  V30 2505 H 223.283 5.088 0.00486972 0
M  V30 2506 H 222.681 4.6913 3.16122 0
M  V30 2507 H 221.238 5.61069 3.31729 0
M  V30 2508 N 224.671 0.411399 1.52136 0
M  V30 2509 C 225.911 -0.163143 2.03748 0
M  V30 2510 C 226.275 -1.42187 1.29022 0
M  V30 2511 O 227.476 -2.075 1.70872 0
M  V30 2512 C 225.747 -0.402651 3.55125 0
M  V30 2513 S 227.306 -0.944315 4.28519 0
M  V30 2514 H 224.124 -0.0439833 0.709638 0
M  V30 2515 H 226.726 0.56484 1.87163 0
M  V30 2516 H 225.43 0.520212 4.0709 0
M  V30 2517 H 224.961 -1.15844 3.75957 0
M  V30 2518 H 226.976 -2.22463 4.43536 0
M  V30 2519 N 226.149 -1.5696 0.141893 0
M  V30 2520 C 227.112 -2.15316 -0.785587 0
M  V30 2521 C 228.112 -1.09366 -1.1788 0
M  V30 2522 O 229.302 -1.35031 -1.10056 0
M  V30 2523 C 226.434 -2.71211 -2.06537 0
M  V30 2524 H 227.627 -2.98608 -0.278041 0
M  V30 2525 H 225.18 -1.5593 -0.107519 0
M  V30 2526 H 225.915 -1.91571 -2.6167 0
M  V30 2527 H 225.7 -3.4872 -1.79268 0
M  V30 2528 H 227.19 -3.16189 -2.72789 0
M  V30 2529 N 227.627 0.131896 -1.57047 0
M  V30 2530 C 228.855 0.856461 -1.88341 0
M  V30 2531 C 229.27 1.74042 -0.731757 0
M  V30 2532 O 228.627 1.80051 0.297945 0
M  V30 2533 C 228.678 1.70064 -3.18999 0
M  V30 2534 O 228.399 0.852278 -4.2973 0
M  V30 2535 C 229.9 2.53148 -3.63911 0
M  V30 2536 H 227.12 0.246885 -0.62393 0
M  V30 2537 H 229.664 0.120152 -2.04147 0
M  V30 2538 H 227.819 2.38984 -3.04902 0
M  V30 2539 H 228.233 1.43329 -5.04537 0
M  V30 2540 H 229.707 3.07931 -4.58129 0
M  V30 2541 H 230.184 3.29901 -2.89935 0
M  V30 2542 H 230.79 1.89492 -3.80753 0
M  V30 2543 N 229.106 1.52395 0.401703 0
M  V30 2544 C 230.069 1.75636 1.47257 0
M  V30 2545 C 231.069 0.62628 1.48103 0
M  V30 2546 O 232.259 0.894227 1.49497 0
M  V30 2547 C 229.391 1.84553 2.86624 0
M  V30 2548 H 230.584 2.71241 1.27938 0
M  V30 2549 H 228.137 1.42923 0.632662 0
M  V30 2550 H 228.872 0.908882 3.11303 0
M  V30 2551 H 228.657 2.66715 2.87412 0
M  V30 2552 H 230.147 2.04251 3.64241 0
M  V30 2553 N 230.584 -0.659388 1.43143 0
M  V30 2554 C 231.833 -1.41518 1.43721 0
M  V30 2555 C 232.146 -1.95499 0.0628176 0
M  V30 2556 O 233.352 -2.71446 -0.0539683 0
M  V30 2557 C 231.808 -2.5608 2.52885 0
M  V30 2558 C 231.416 -2.08733 3.96402 0
M  V30 2559 C 233.16 -3.3349 2.62649 0
M  V30 2560 C 231.067 -3.20469 4.97045 0
M  V30 2561 H 229.997 -0.531705 0.534608 0
M  V30 2562 H 232.648 -0.712343 1.69109 0
M  V30 2563 H 231.03 -3.28805 2.20688 0
M  V30 2564 H 232.204 -1.43059 4.3803 0
M  V30 2565 H 230.519 -1.44219 3.90627 0
M  V30 2566 H 233.116 -4.16734 3.35017 0
M  V30 2567 H 233.459 -3.8111 1.67513 0
M  V30 2568 H 233.992 -2.67842 2.94118 0
M  V30 2569 H 230.731 -2.77824 5.93712 0
M  V30 2570 H 230.251 -3.84874 4.60034 0
M  V30 2571 H 231.93 -3.85698 5.19467 0
M  V30 2572 N 232.062 -1.29571 -0.897171 0
M  V30 2573 C 233.309 -1.17689 -1.6479 0
M  V30 2574 C 233.637 0.27107 -1.92602 0
M  V30 2575 O 232.892 1.21193 -1.53658 0
M  V30 2576 C 233.191 -1.9382 -3.00281 0
M  V30 2577 C 232.857 -3.43522 -2.92068 0
M  V30 2578 C 231.519 -3.84348 -2.89535 0
M  V30 2579 C 233.871 -4.38906 -2.81089 0
M  V30 2580 C 231.199 -5.18869 -2.73846 0
M  V30 2581 C 233.551 -5.73521 -2.66939 0
M  V30 2582 C 232.215 -6.13601 -2.62774 0
M  V30 2583 H 231.485 -0.430654 -0.603008 0
M  V30 2584 H 234.132 -1.60536 -1.04404 0
M  V30 2585 H 232.437 -1.4357 -3.64547 0
M  V30 2586 H 234.134 -1.82028 -3.57305 0
M  V30 2587 H 230.724 -3.11072 -2.94842 0
M  V30 2588 H 234.908 -4.08315 -2.82121 0
M  V30 2589 H 230.164 -5.4903 -2.69027 0
M  V30 2590 H 234.338 -6.47078 -2.57416 0
M  V30 2591 H 231.965 -7.17786 -2.50375 0
M  V30 2592 N 233.54 1.10788 -1.12088 0
M  V30 2593 C 234.47 2.19083 -0.807755 0
M  V30 2594 C 235.451 1.6858 0.226859 0
M  V30 2595 O 236.636 1.93997 0.0888475 0
M  V30 2596 C 233.766 3.46344 -0.257576 0
M  V30 2597 C 232.72 4.101 -1.22483 0
M  V30 2598 C 232.046 5.32016 -0.535052 0
M  V30 2599 C 233.346 4.54236 -2.57811 0
M  V30 2600 H 235.04 2.45534 -1.71328 0
M  V30 2601 H 232.586 1.1801 -0.825205 0
M  V30 2602 H 234.539 4.21392 -0.0262679 0
M  V30 2603 H 233.263 3.19373 0.683278 0
M  V30 2604 H 231.922 3.37054 -1.44189 0
M  V30 2605 H 231.57 5.01319 0.410827 0
M  V30 2606 H 231.27 5.75625 -1.18024 0
M  V30 2607 H 232.794 6.09799 -0.312695 0
M  V30 2608 H 234.208 5.20575 -2.40155 0
M  V30 2609 H 232.605 5.08682 -3.18375 0
M  V30 2610 H 233.675 3.6734 -3.16528 0
M  V30 2611 N 235.018 0.912232 1.28515 0
M  V30 2612 C 235.948 0.416403 2.29757 0
M  V30 2613 C 236.929 -0.515194 1.6211 0
M  V30 2614 O 238.114 -0.423253 1.89532 0
M  V30 2615 C 235.244 -0.34572 3.45575 0
M  V30 2616 C 234.198 0.496599 4.25109 0
M  V30 2617 C 233.524 -0.393771 5.33248 0
M  V30 2618 C 234.824 1.75307 4.92001 0
M  V30 2619 H 236.518 1.26249 2.7148 0
M  V30 2620 H 234.064 0.608515 1.30511 0
M  V30 2621 H 236.017 -0.703422 4.15488 0
M  V30 2622 H 234.741 -1.2257 3.02728 0
M  V30 2623 H 233.4 0.8368 3.56922 0
M  V30 2624 H 233.048 -1.27225 4.86644 0
M  V30 2625 H 232.748 0.166209 5.87365 0
M  V30 2626 H 234.272 -0.747389 6.06009 0
M  V30 2627 H 235.686 1.46437 5.54283 0
M  V30 2628 H 234.083 2.25534 5.56106 0
M  V30 2629 H 235.153 2.48176 4.16577 0
M  V30 2630 N 236.496 -1.42363 0.676048 0
M  V30 2631 C 237.745 -2.00745 0.196037 0
M  V30 2632 C 238.058 -1.54083 -1.20489 0
M  V30 2633 O 239.264 -2.04891 -1.78134 0
M  V30 2634 C 237.72 -3.58651 0.299616 0
M  V30 2635 C 237.328 -4.143 1.70468 0
M  V30 2636 C 239.072 -4.24326 -0.121619 0
M  V30 2637 C 236.979 -5.64574 1.76096 0
M  V30 2638 H 235.909 -0.750787 0.0695301 0
M  V30 2639 H 238.56 -1.63072 0.841412 0
M  V30 2640 H 236.942 -3.93833 -0.413673 0
M  V30 2641 H 238.116 -3.90575 2.44515 0
M  V30 2642 H 236.431 -3.61081 2.07387 0
M  V30 2643 H 239.028 -5.34607 -0.0997362 0
M  V30 2644 H 239.371 -3.99897 -1.15708 0
M  V30 2645 H 239.904 -3.94108 0.540706 0
M  V30 2646 H 236.643 -5.93804 2.77628 0
M  V30 2647 H 236.163 -5.90286 1.06406 0
M  V30 2648 H 237.842 -6.29013 1.51496 0
M  V30 2649 N 237.974 -0.419461 -1.51915 0
M  V30 2650 C 239.221 0.152939 -2.01922 0
M  V30 2651 C 239.549 1.4426 -1.30458 0
M  V30 2652 O 238.804 1.91514 -0.402593 0
M  V30 2653 C 239.103 0.437067 -3.54717 0
M  V30 2654 C 238.769 -0.764632 -4.44369 0
M  V30 2655 C 237.431 -1.09423 -4.68594 0
M  V30 2656 C 239.783 -1.56713 -4.97082 0
M  V30 2657 C 237.111 -2.22732 -5.42777 0
M  V30 2658 C 239.463 -2.69107 -5.72507 0
M  V30 2659 C 238.127 -3.02541 -5.95 0
M  V30 2660 H 237.397 0.0559644 -0.738884 0
M  V30 2661 H 240.044 -0.562998 -1.83037 0
M  V30 2662 H 238.349 1.23469 -3.71837 0
M  V30 2663 H 240.046 0.893083 -3.90928 0
M  V30 2664 H 236.636 -0.497775 -4.257 0
M  V30 2665 H 240.82 -1.32571 -4.78266 0
M  V30 2666 H 236.076 -2.48971 -5.58411 0
M  V30 2667 H 240.25 -3.31671 -6.12346 0
M  V30 2668 H 237.877 -3.90457 -6.52264 0
M  V30 2669 N 239.452 1.56882 -0.150215 0
M  V30 2670 C 240.384 2.14057 0.819286 0
M  V30 2671 C 241.397 1.09082 1.20851 0
M  V30 2672 O 242.586 1.36347 1.15203 0
M  V30 2673 C 239.686 2.65102 2.11127 0
M  V30 2674 C 238.859 3.94511 1.88891 0
M  V30 2675 C 237.918 4.30834 3.02107 0
M  V30 2676 O 236.944 4.99099 2.73659 0
M  V30 2677 N 238.146 3.90676 4.29363 0
M  V30 2678 H 240.911 2.97871 0.330618 0
M  V30 2679 H 238.472 1.61866 0.0332538 0
M  V30 2680 H 240.464 2.86411 2.85921 0
M  V30 2681 H 239.034 1.85994 2.51247 0
M  V30 2682 H 238.254 3.81795 0.981152 0
M  V30 2683 H 239.542 4.7907 1.71376 0
M  V30 2684 H 238.94 3.35677 4.55343 0
M  V30 2685 H 237.497 4.1703 5.00928 0
M  V30 2686 N 240.93 -0.123565 1.57115 0
M  V30 2687 C 242.155 -0.850398 1.89164 0
M  V30 2688 C 242.58 -1.7286 0.741688 0
M  V30 2689 O 241.938 -1.78665 -0.307958 0
M  V30 2690 C 241.986 -1.66353 3.19936 0
M  V30 2691 O 241.09 -2.77004 3.0552 0
M  V30 2692 H 240.431 -0.235454 0.620852 0
M  V30 2693 H 242.961 -0.107335 2.04318 0
M  V30 2694 H 242.971 -2.05372 3.52543 0
M  V30 2695 H 241.646 -1.01881 4.03228 0
M  V30 2696 H 240.223 -2.41221 2.84371 0
M  V30 2697 N 242.408 -1.52605 -0.393616 0
M  V30 2698 C 243.657 -1.66649 -1.13627 0
M  V30 2699 C 243.97 -0.410364 -1.91247 0
M  V30 2700 O 245.176 -0.430854 -2.68059 0
M  V30 2701 C 243.632 -2.9449 -2.06891 0
M  V30 2702 C 243.24 -4.27266 -1.34714 0
M  V30 2703 C 244.984 -3.17899 -2.81319 0
M  V30 2704 C 242.891 -5.46217 -2.26717 0
M  V30 2705 H 241.821 -0.62084 -0.427871 0
M  V30 2706 H 244.472 -1.791 -0.399428 0
M  V30 2707 H 242.854 -2.75774 -2.84191 0
M  V30 2708 H 244.028 -4.56518 -0.626714 0
M  V30 2709 H 242.343 -4.10081 -0.722643 0
M  V30 2710 H 244.94 -4.03949 -3.50328 0
M  V30 2711 H 245.283 -2.32777 -3.45139 0
M  V30 2712 H 245.816 -3.37159 -2.11113 0
M  V30 2713 H 242.555 -6.33733 -1.67521 0
M  V30 2714 H 242.075 -5.21283 -2.96689 0
M  V30 2715 H 243.754 -5.7991 -2.86903 0
M  V30 2716 N 243.887 0.651787 -1.4349 0
M  V30 2717 C 244.817 1.77621 -1.51569 0
M  V30 2718 C 245.798 1.66022 -0.370253 0
M  V30 2719 O 246.983 1.85095 -0.587658 0
M  V30 2720 C 244.113 3.16056 -1.43966 0
M  V30 2721 C 243.067 3.4242 -2.56774 0
M  V30 2722 C 242.393 4.8067 -2.34223 0
M  V30 2723 C 243.693 3.37023 -3.99015 0
M  V30 2724 H 245.387 1.71117 -2.45681 0
M  V30 2725 H 242.933 0.821825 -1.18246 0
M  V30 2726 H 244.886 3.94472 -1.48221 0
M  V30 2727 H 243.61 3.23293 -0.463586 0
M  V30 2728 H 242.269 2.66375 -2.51873 0
M  V30 2729 H 241.917 4.84585 -1.34856 0
M  V30 2730 H 241.617 4.9927 -3.09844 0
M  V30 2731 H 243.141 5.61342 -2.40265 0
M  V30 2732 H 244.555 4.05374 -4.05395 0
M  V30 2733 H 242.952 3.67159 -4.74673 0
M  V30 2734 H 244.022 2.3518 -4.2405 0
M  V30 2735 N 245.365 1.30045 0.890287 0
M  V30 2736 C 246.613 1.18327 1.63839 0
M  V30 2737 C 246.934 -0.263455 1.93212 0
M  V30 2738 O 246.204 -1.17856 1.56482 0
M  V30 2739 H 244.784 0.434933 0.607324 0
M  V30 2740 H 247.446 1.631 1.06698 0
M  V30 2741 H 246.542 1.74024 2.59079 0
M  V30 2742 N 246.843 -1.10192 1.12674 0
M  V30 2743 C 248.089 -1.82475 0.884915 0
M  V30 2744 C 248.422 -1.85093 -0.58773 0
M  V30 2745 O 247.697 -1.3134 -1.43457 0
M  V30 2746 C 247.98 -3.29018 1.46353 0
M  V30 2747 C 247.833 -3.34718 3.00473 0
M  V30 2748 C 249.152 -4.25473 1.12519 0
M  V30 2749 H 246.271 -0.662492 0.322915 0
M  V30 2750 H 248.913 -1.2913 1.39375 0
M  V30 2751 H 247.063 -3.74576 1.03077 0
M  V30 2752 H 248.735 -2.97622 3.52447 0
M  V30 2753 H 246.978 -2.74541 3.35872 0
M  V30 2754 H 247.649 -4.37918 3.36053 0
M  V30 2755 H 250.125 -3.88161 1.499 0
M  V30 2756 H 249.001 -5.26365 1.55663 0
M  V30 2757 H 249.262 -4.42084 0.0377407 0
M  V30 2758 N 248.321 -0.919034 -1.28029 0
M  V30 2759 C 249.57 -0.550802 -1.94034 0
M  V30 2760 C 249.883 0.910877 -1.73096 0
M  V30 2761 O 251.089 1.3875 -2.33368 0
M  V30 2762 C 249.545 -0.934249 -3.47563 0
M  V30 2763 C 249.153 -2.41602 -3.7727 0
M  V30 2764 C 250.897 -0.636854 -4.19696 0
M  V30 2765 C 248.804 -2.73932 -5.24133 0
M  V30 2766 H 247.734 -0.202273 -0.726362 0
M  V30 2767 H 250.385 -1.11867 -1.45458 0
M  V30 2768 H 248.767 -0.295115 -3.94899 0
M  V30 2769 H 249.941 -3.10233 -3.40723 0
M  V30 2770 H 248.256 -2.68441 -3.18321 0
M  V30 2771 H 250.853 -0.855005 -5.2782 0
M  V30 2772 H 251.196 0.425575 -4.14119 0
M  V30 2773 H 251.729 -1.23469 -3.78154 0
M  V30 2774 H 248.468 -3.79049 -5.34792 0
M  V30 2775 H 247.988 -2.09942 -5.61858 0
M  V30 2776 H 249.667 -2.61215 -5.91925 0
M  V30 2777 N 249.799 1.42003 -0.683588 0
M  V30 2778 C 251.048 2.00638 -0.206681 0
M  V30 2779 C 251.361 1.5472 1.19671 0
M  V30 2780 O 252.567 2.05833 1.77045 0
M  V30 2781 C 251.023 3.58487 -0.318632 0
M  V30 2782 C 250.631 4.1339 -1.72663 0
M  V30 2783 C 252.375 4.24384 0.0991141 0
M  V30 2784 C 250.282 5.63633 -1.79087 0
M  V30 2785 H 249.212 0.750408 -0.0735107 0
M  V30 2786 H 251.863 1.62624 -0.850048 0
M  V30 2787 H 250.245 3.94047 0.392781 0
M  V30 2788 H 251.419 3.89273 -2.46583 0
M  V30 2789 H 249.734 3.59976 -2.09299 0
M  V30 2790 H 252.331 5.34652 0.0713833 0
M  V30 2791 H 252.674 4.00505 1.13586 0
M  V30 2792 H 253.207 3.93816 -0.561599 0
M  V30 2793 H 249.946 5.92323 -2.80774 0
M  V30 2794 H 249.466 5.89714 -1.09535 0
M  V30 2795 H 251.145 6.28201 -1.5483 0
M  V30 2796 N 251.277 0.427512 1.51691 0
M  V30 2797 C 252.225 -0.403359 2.29076 0
M  V30 2798 C 253.219 -1.02962 1.34518 0
M  V30 2799 O 254.425 -0.965715 1.51901 0
M  V30 2800 H 250.8 -0.148879 0.737115 0
M  V30 2801 H 252.771 0.270295 2.97173 0
M  V30 2802 C 251.52 -1.49763 3.13794 0
M  V30 2803 H 250.843 -1.02508 3.86435 0
M  V30 2804 H 252.283 -2.05244 3.71014 0
M  V30 2805 C 250.742 -2.47536 2.28533 0
M  V30 2806 O 251.272 -3.51848 1.93819 0
M  V30 2807 N 249.478 -2.18187 1.91945 0
M  V30 2808 H 249.025 -1.33389 2.20375 0
M  V30 2809 H 248.983 -2.83848 1.35195 0
M  V30 2810 N 252.755 -1.56801 0.158532 0
M  V30 2811 C 253.98 -2.01295 -0.499516 0
M  V30 2812 C 254.405 -1.03799 -1.56867 0
M  V30 2813 O 253.763 -0.0155162 -1.81293 0
M  V30 2814 C 253.811 -3.44469 -1.06647 0
M  V30 2815 O 252.915 -3.50012 -2.18095 0
M  V30 2816 H 252.256 -0.652884 -0.12099 0
M  V30 2817 H 254.786 -2.02958 0.258661 0
M  V30 2818 H 254.796 -3.8351 -1.39227 0
M  V30 2819 H 253.471 -4.14932 -0.283581 0
M  V30 2820 H 252.048 -3.22822 -1.86656 0
M  V30 2821 N 254.233 0.115231 -1.57178 0
M  V30 2822 C 255.48 0.822351 -1.8505 0
M  V30 2823 C 255.808 1.79701 -0.744168 0
M  V30 2824 O 255.063 1.93909 0.26414 0
M  V30 2825 C 255.362 1.60324 -3.19423 0
M  V30 2826 C 255.028 0.772536 -4.44233 0
M  V30 2827 C 253.69 0.543468 -4.78121 0
M  V30 2828 C 256.042 0.193746 -5.2084 0
M  V30 2829 C 253.37 -0.274583 -5.86057 0
M  V30 2830 C 255.722 -0.611517 -6.29637 0
M  V30 2831 C 254.386 -0.850867 -6.62055 0
M  V30 2832 H 253.656 0.30092 -0.677147 0
M  V30 2833 H 256.303 0.0845802 -1.91313 0
M  V30 2834 H 254.608 2.41203 -3.08753 0
M  V30 2835 H 256.305 2.1544 -3.38211 0
M  V30 2836 H 252.895 0.96117 -4.17683 0
M  V30 2837 H 257.079 0.357926 -4.95008 0
M  V30 2838 H 252.335 -0.469206 -6.09597 0
M  V30 2839 H 256.509 -1.06697 -6.88178 0
M  V30 2840 H 254.136 -1.48657 -7.45523 0
M  V30 2841 N 255.711 1.52812 0.385517 0
M  V30 2842 C 256.644 1.72592 1.49289 0
M  V30 2843 C 257.622 0.573819 1.52138 0
M  V30 2844 O 258.806 0.80404 1.70492 0
M  V30 2845 C 255.933 1.78669 2.87741 0
M  V30 2846 C 254.979 3.00455 3.02703 0
M  V30 2847 S 255.812 4.60366 2.73538 0
M  V30 2848 C 256.968 4.69263 4.14177 0
M  V30 2849 H 257.201 2.66248 1.32285 0
M  V30 2850 H 254.734 1.43148 0.578611 0
M  V30 2851 H 256.692 1.82855 3.67524 0
M  V30 2852 H 255.353 0.861 3.02069 0
M  V30 2853 H 254.546 3.01258 4.04054 0
M  V30 2854 H 254.148 2.94278 2.30817 0
M  V30 2855 H 256.44 4.48092 5.08153 0
M  V30 2856 H 257.383 5.71276 4.18388 0
M  V30 2857 H 257.791 3.98072 4.00249 0
M  V30 2858 N 257.189 -0.644168 1.43834 0
M  V30 2859 C 258.429 -1.41565 1.47441 0
M  V30 2860 C 258.793 -1.91743 0.0992723 0
M  V30 2861 O 259.994 -2.68798 0.0100192 0
M  V30 2862 C 258.265 -2.55902 2.49498 0
M  V30 2863 S 259.824 -3.44287 2.72051 0
M  V30 2864 H 256.642 -0.483118 0.521649 0
M  V30 2865 H 259.244 -0.747008 1.80666 0
M  V30 2866 H 257.948 -2.17327 3.48134 0
M  V30 2867 H 257.479 -3.27607 2.17801 0
M  V30 2868 H 259.494 -4.52927 2.0266 0
M  V30 2869 N 258.668 -1.30515 -0.883378 0
M  V30 2870 C 259.916 -1.19194 -1.63209 0
M  V30 2871 C 260.237 0.253205 -1.93349 0
M  V30 2872 O 259.507 1.17025 -1.57105 0
M  V30 2873 H 258.087 -0.438148 -0.605009 0
M  V30 2874 H 260.749 -1.63663 -1.05832 0
M  V30 2875 H 259.845 -1.75396 -2.58153 0
M  V30 2876 N 260.146 1.09593 -1.13257 0
M  V30 2877 C 261.109 2.14359 -0.811358 0
M  V30 2878 C 262.109 1.59808 0.178377 0
M  V30 2879 O 263.299 1.74132 -0.0484911 0
M  V30 2880 C 260.431 3.40269 -0.207276 0
M  V30 2881 H 261.624 2.44284 -1.73969 0
M  V30 2882 H 259.177 1.25102 -0.936973 0
M  V30 2883 H 259.912 3.15969 0.73036 0
M  V30 2884 H 259.697 3.81154 -0.919992 0
M  V30 2885 H 261.187 4.176 0.000667944 0
M  V30 2886 N 261.624 0.925811 1.2754 0
M  V30 2887 C 262.873 0.561084 1.93739 0
M  V30 2888 C 263.186 -0.901685 1.73577 0
M  V30 2889 O 264.392 -1.37511 2.34101 0
M  V30 2890 C 262.848 0.952668 3.47062 0
M  V30 2891 C 262.456 2.43599 3.75983 0
M  V30 2892 C 264.2 0.659103 4.19352 0
M  V30 2893 C 262.107 2.76707 5.22673 0
M  V30 2894 H 261.037 0.206122 0.725279 0
M  V30 2895 H 263.688 1.12637 1.44863 0
M  V30 2896 H 262.07 0.316053 3.94737 0
M  V30 2897 H 263.244 3.12035 3.39073 0
M  V30 2898 H 261.559 2.70125 3.16893 0
M  V30 2899 H 264.156 0.882985 5.27359 0
M  V30 2900 H 264.499 -0.403607 4.14339 0
M  V30 2901 H 265.032 1.25473 3.77494 0
M  V30 2902 H 261.771 3.8188 5.32774 0
M  V30 2903 H 261.291 2.12919 5.60737 0
M  V30 2904 H 262.97 2.6435 5.90532 0
M  V30 2905 N 263.102 -1.41638 0.69111 0
M  V30 2906 C 264.032 -2.3347 0.037248 0
M  V30 2907 C 265.013 -1.51575 -0.771947 0
M  V30 2908 O 266.198 -1.80126 -0.72582 0
M  V30 2909 C 263.328 -3.35354 -0.903064 0
M  V30 2910 C 262.282 -4.27526 -0.201288 0
M  V30 2911 C 261.608 -5.19747 -1.25565 0
M  V30 2912 C 262.908 -5.13959 0.929689 0
M  V30 2913 H 264.602 -2.88397 0.804227 0
M  V30 2914 H 262.148 -1.38669 0.388189 0
M  V30 2915 H 264.101 -3.98519 -1.36969 0
M  V30 2916 H 262.825 -2.78767 -1.70166 0
M  V30 2917 H 261.484 -3.65779 0.245265 0
M  V30 2918 H 261.132 -4.59479 -2.04666 0
M  V30 2919 H 260.832 -5.8225 -0.791128 0
M  V30 2920 H 262.356 -5.85789 -1.72288 0
M  V30 2921 H 263.77 -5.70718 0.543546 0
M  V30 2922 H 262.167 -5.85379 1.32103 0
M  V30 2923 H 263.237 -4.51389 1.77133 0
M  V30 2924 N 264.58 -0.43555 -1.51462 0
M  V30 2925 C 265.543 0.365137 -2.26273 0
M  V30 2926 C 266.543 0.951227 -1.29647 0
M  V30 2927 O 267.733 0.825958 -1.53374 0
M  V30 2928 C 264.865 1.51645 -3.05314 0
M  V30 2929 H 266.058 -0.290474 -2.9849 0
M  V30 2930 H 263.611 -0.188676 -1.55157 0
M  V30 2931 H 264.346 2.20816 -2.3751 0
M  V30 2932 H 264.131 1.10238 -3.76284 0
M  V30 2933 H 265.621 2.08218 -3.61987 0
M  V30 2934 N 266.058 1.56714 -0.166846 0
M  V30 2935 C 267.005 2.17746 0.765193 0
M  V30 2936 C 267.975 1.11614 1.23011 0
M  V30 2937 O 269.16 1.39745 1.29908 0
M  V30 2938 C 266.3 2.81882 1.9909 0
M  V30 2939 C 265.413 4.02462 1.56997 0
M  V30 2940 C 264.548 4.54537 2.749 0
M  V30 2941 C 263.587 5.67538 2.29275 0
M  V30 2942 N 262.724 6.14142 3.40255 0
M  V30 2943 H 267.564 2.97048 0.237952 0
M  V30 2944 H 265.101 1.4672 0.105725 0
M  V30 2945 H 267.059 3.17221 2.70974 0
M  V30 2946 H 265.689 2.05191 2.49192 0
M  V30 2947 H 264.741 3.72973 0.748037 0
M  V30 2948 H 266.053 4.84273 1.19503 0
M  V30 2949 H 265.207 4.92035 3.54946 0
M  V30 2950 H 263.946 3.71774 3.1565 0
M  V30 2951 H 262.951 5.29597 1.47674 0
M  V30 2952 H 264.176 6.52099 1.89588 0
M  V30 2953 H 262.122 5.3431 3.8059 0
M  V30 2954 H 262.039 6.9093 3.06841 0
M  V30 2955 H 263.307 6.56289 4.206 0
M  V30 2956 N 267.536 -0.106894 1.57237 0
M  V30 2957 C 268.785 -0.811163 1.8467 0
M  V30 2958 C 269.098 -1.80469 0.754342 0
M  V30 2959 O 270.304 -2.55601 0.915439 0
M  V30 2960 C 268.76 -1.49337 3.27454 0
M  V30 2961 C 268.368 -0.540217 4.44731 0
M  V30 2962 C 270.112 -2.18206 3.64124 0
M  V30 2963 C 268.019 -1.22634 5.78545 0
M  V30 2964 H 266.949 -0.306679 0.688813 0
M  V30 2965 H 269.6 -0.0639887 1.83388 0
M  V30 2966 H 267.982 -2.2876 3.23241 0
M  V30 2967 H 269.156 0.221659 4.60267 0
M  V30 2968 H 267.471 0.042146 4.16379 0
M  V30 2969 H 270.068 -2.70253 4.61376 0
M  V30 2970 H 270.411 -2.96562 2.92158 0
M  V30 2971 H 270.944 -1.45658 3.70174 0
M  V30 2972 H 267.683 -0.483832 6.53712 0
M  V30 2973 H 267.203 -1.95993 5.66874 0
M  V30 2974 H 268.882 -1.75615 6.2271 0
M  V30 2975 N 269.014 -1.53014 -0.377408 0
M  V30 2976 C 270.239 -1.72818 -1.14668 0
M  V30 2977 C 270.664 -0.450725 -1.8262 0
M  V30 2978 O 270.022 0.59439 -1.7128 0
M  V30 2979 C 270.07 -2.88627 -2.16164 0
M  V30 2980 O 269.174 -2.56409 -3.22998 0
M  V30 2981 H 268.515 -0.574301 -0.333278 0
M  V30 2982 H 271.045 -1.99853 -0.438152 0
M  V30 2983 H 271.055 -3.14455 -2.59966 0
M  V30 2984 H 269.73 -3.81294 -1.66095 0
M  V30 2985 H 268.307 -2.4136 -2.84253 0
M  V30 2986 N 270.492 0.636531 -1.44174 0
M  V30 2987 C 271.908 0.954104 -1.27941 0
M  V30 2988 C 272.108 2.0039 -0.211248 0
M  V30 2989 O 271.164 2.49236 0.404695 0
M  V30 2990 C 272.477 1.4225 -2.64925 0
M  V30 2991 C 274.025 1.53827 -2.72592 0
M  V30 2992 C 274.5 2.04053 -4.10032 0
M  V30 2993 N 275.991 2.11331 -4.12182 0
M  V30 2994 C 276.726 2.51352 -5.15374 0
M  V30 2995 N 276.222 2.90549 -6.2893 0
M  V30 2996 N 278.015 2.51438 -5.02728 0
M  V30 2997 H 270.166 -0.0578386 -2.12321 0
M  V30 2998 H 272.429 0.0367406 -0.947288 0
M  V30 2999 H 272.135 0.725466 -3.44136 0
M  V30 3000 H 272.009 2.39451 -2.9145 0
M  V30 3001 H 274.396 2.22628 -1.93702 0
M  V30 3002 H 274.477 0.550154 -2.49814 0
M  V30 3003 H 274.121 1.35848 -4.89395 0
M  V30 3004 H 274.051 3.03726 -4.30184 0
M  V30 3005 H 276.542 1.83745 -3.30222 0
M  V30 3006 H 276.855 3.19884 -7.03487 0
M  V30 3007 H 275.2 2.88313 -6.32377 0
M  V30 3008 H 278.391 2.20203 -4.13072 0
M  V30 3009 H 278.564 2.82304 -5.83274 0
M  V30 3010 N 271.97 1.30982 0.876444 0
M  V30 3011 C 273.381 1.18277 1.44456 0
M  V30 3012 C 273.732 -0.213265 1.95037 0
M  V30 3013 O 272.857 -1.11057 1.85729 0
M  V30 3014 C 273.452 2.1411 2.62569 0
M  V30 3015 C 272.011 2.05358 3.15444 0
M  V30 3016 C 271.158 2.03706 1.88146 0
M  V30 3017 H 274.109 1.43127 0.685584 0
M  V30 3018 H 274.13 1.72692 3.39054 0
M  V30 3019 H 273.642 3.15706 2.25724 0
M  V30 3020 H 271.743 1.06934 3.56926 0
M  V30 3021 H 271.856 2.94156 3.78166 0
M  V30 3022 H 270.22 1.48629 2.06837 0
M  V30 3023 H 271.003 3.07047 1.53547 0
M  V30 3024 N 273.449 -1.08991 1.13837 0
M  V30 3025 C 274.396 -2.15748 0.819835 0
M  V30 3026 C 275.366 -1.64636 -0.220026 0
M  V30 3027 O 276.551 -1.90582 -0.0912757 0
M  V30 3028 C 273.691 -3.4382 0.296913 0
M  V30 3029 C 272.804 -4.0881 1.39636 0
M  V30 3030 C 271.939 -5.24655 0.831314 0
M  V30 3031 C 270.978 -5.81575 1.90886 0
M  V30 3032 N 270.115 -6.88774 1.36142 0
M  V30 3033 H 274.955 -2.42338 1.73426 0
M  V30 3034 H 272.492 -1.18935 0.865613 0
M  V30 3035 H 274.45 -4.17193 -0.0244339 0
M  V30 3036 H 273.08 -3.17535 -0.580628 0
M  V30 3037 H 272.132 -3.33258 1.83422 0
M  V30 3038 H 273.444 -4.47141 2.21058 0
M  V30 3039 H 272.598 -6.04942 0.461515 0
M  V30 3040 H 271.337 -4.87698 -0.013932 0
M  V30 3041 H 270.342 -4.99946 2.28767 0
M  V30 3042 H 271.567 -6.20592 2.75758 0
M  V30 3043 H 269.513 -6.53788 0.538254 0
M  V30 3044 H 269.43 -7.25898 2.11208 0
M  V30 3045 H 270.698 -7.72806 1.01933 0
M  V30 3046 N 274.927 -0.932562 -1.27047 0
M  V30 3047 C 275.874 -0.434072 -2.26681 0
M  V30 3048 C 276.844 0.501639 -1.58344 0
M  V30 3049 O 278.029 0.419734 -1.86126 0
M  V30 3050 C 275.169 0.30261 -3.43771 0
M  V30 3051 C 274.282 -0.667774 -4.26808 0
M  V30 3052 C 273.417 0.0892393 -5.31125 0
M  V30 3053 C 272.456 -0.873532 -6.05835 0
M  V30 3054 N 271.593 -0.148832 -7.01942 0
M  V30 3055 H 276.433 -1.28868 -2.68695 0
M  V30 3056 H 273.97 -0.646713 -1.32121 0
M  V30 3057 H 275.928 0.746092 -4.10474 0
M  V30 3058 H 274.558 1.12142 -3.02695 0
M  V30 3059 H 273.61 -1.22978 -3.59973 0
M  V30 3060 H 274.922 -1.40337 -4.78651 0
M  V30 3061 H 274.076 0.592409 -6.03801 0
M  V30 3062 H 272.815 0.85777 -4.80097 0
M  V30 3063 H 271.82 -1.38791 -5.31994 0
M  V30 3064 H 273.045 -1.64193 -6.58952 0
M  V30 3065 H 270.991 0.601365 -6.53238 0
M  V30 3066 H 270.908 -0.82391 -7.51497 0
M  V30 3067 H 272.176 0.333527 -7.78786 0
M  V30 3068 N 276.405 1.4127 -0.698611 0
M  V30 3069 C 277.821 1.55241 -0.370462 0
M  V30 3070 C 278.021 1.67351 1.12231 0
M  V30 3071 O 277.077 1.65363 1.90818 0
M  V30 3072 C 278.39 2.78997 -1.12165 0
M  V30 3073 C 279.938 2.92797 -1.1063 0
M  V30 3074 C 280.413 4.19445 -1.8393 0
M  V30 3075 N 281.904 4.26409 -1.80914 0
M  V30 3076 C 282.639 5.23271 -2.34467 0
M  V30 3077 N 282.135 6.26145 -2.96504 0
M  V30 3078 N 283.928 5.15232 -2.24706 0
M  V30 3079 H 276.079 1.31654 -1.66676 0
M  V30 3080 H 278.342 0.635393 -0.703548 0
M  V30 3081 H 278.048 2.76268 -2.17644 0
M  V30 3082 H 277.922 3.70606 -0.702209 0
M  V30 3083 H 280.309 2.95039 -0.0597713 0
M  V30 3084 H 280.39 2.02353 -1.56483 0
M  V30 3085 H 280.034 4.17964 -2.88563 0
M  V30 3086 H 279.964 5.08866 -1.35509 0
M  V30 3087 H 282.455 3.527 -1.35687 0
M  V30 3088 H 282.768 6.96451 -3.34927 0
M  V30 3089 H 281.113 6.26638 -3.00583 0
M  V30 3090 H 284.304 4.33789 -1.7591 0
M  V30 3091 H 284.477 5.90552 -2.66745 0
M  V30 3092 N 277.883 0.443576 1.51229 0
M  V30 3093 C 278.846 -0.353132 2.26463 0
M  V30 3094 C 279.846 -0.944338 1.3015 0
M  V30 3095 O 281.036 -0.817813 1.5381 0
M  V30 3096 C 278.168 -1.50023 3.06114 0
M  V30 3097 H 279.361 0.3063 2.98332 0
M  V30 3098 H 276.914 0.196902 1.55055 0
M  V30 3099 H 277.649 -2.19553 2.38677 0
M  V30 3100 H 277.434 -1.08241 3.76864 0
M  V30 3101 H 278.924 -2.06296 3.63087 0
M  V30 3102 N 279.361 -1.56624 0.175154 0
M  V30 3103 C 280.308 -2.18149 -0.753634 0
M  V30 3104 C 281.278 -1.12265 -1.22417 0
M  V30 3105 O 282.463 -1.40432 -1.29165 0
M  V30 3106 C 279.603 -2.82933 -1.97592 0
M  V30 3107 C 278.716 -4.03289 -1.5486 0
M  V30 3108 C 277.851 -4.55988 -2.72485 0
M  V30 3109 C 276.89 -5.68746 -2.26262 0
M  V30 3110 N 276.027 -6.15938 -3.36994 0
M  V30 3111 H 280.867 -2.9717 -0.222195 0
M  V30 3112 H 278.404 -1.46774 -0.0979422 0
M  V30 3113 H 280.362 -3.18653 -2.69288 0
M  V30 3114 H 278.992 -2.06509 -2.481 0
M  V30 3115 H 278.044 -3.73364 -0.728246 0
M  V30 3116 H 279.356 -4.849 -1.16933 0
M  V30 3117 H 278.51 -4.9391 -3.52332 0
M  V30 3118 H 277.249 -3.73443 -3.13674 0
M  V30 3119 H 276.254 -5.30372 -1.44863 0
M  V30 3120 H 277.479 -6.53095 -1.86127 0
M  V30 3121 H 275.425 -5.36321 -3.77751 0
M  V30 3122 H 275.342 -6.92548 -3.03172 0
M  V30 3123 H 276.61 -6.58511 -4.17114 0
M  V30 3124 N 280.839 0.0985539 -1.57292 0
M  V30 3125 C 282.067 0.816318 -1.90115 0
M  V30 3126 C 282.482 1.72451 -0.768509 0
M  V30 3127 O 281.839 1.80643 0.259687 0
M  V30 3128 C 281.89 1.63259 -3.22535 0
M  V30 3129 O 281.611 0.760934 -4.31441 0
M  V30 3130 C 283.112 2.45372 -3.69199 0
M  V30 3131 H 280.332 0.233595 -0.629027 0
M  V30 3132 H 282.876 0.0768229 -2.04356 0
M  V30 3133 H 281.031 2.32463 -3.09903 0
M  V30 3134 H 281.445 1.32595 -5.07463 0
M  V30 3135 H 282.919 2.98144 -4.64558 0
M  V30 3136 H 283.396 3.23677 -2.96867 0
M  V30 3137 H 284.002 1.81373 -3.84687 0
M  V30 3138 N 282.317 1.53212 0.369288 0
M  V30 3139 C 283.566 1.68436 1.10961 0
M  V30 3140 C 283.879 0.440738 1.9057 0
M  V30 3141 O 285.085 0.473446 2.6734 0
M  V30 3142 C 283.541 2.97744 2.0218 0
M  V30 3143 C 283.149 4.29355 1.279 0
M  V30 3144 C 284.893 3.22334 2.76226 0
M  V30 3145 C 282.8 5.49755 2.17999 0
M  V30 3146 H 281.73 0.627568 0.41794 0
M  V30 3147 H 284.381 1.79713 0.370884 0
M  V30 3148 H 282.763 2.8026 2.79768 0
M  V30 3149 H 283.937 4.57458 0.554007 0
M  V30 3150 H 282.252 4.11179 0.657311 0
M  V30 3151 H 284.849 4.09471 3.43857 0
M  V30 3152 H 285.192 2.38238 3.41392 0
M  V30 3153 H 285.725 3.40475 2.05723 0
M  V30 3154 H 282.464 6.36318 1.57417 0
M  V30 3155 H 281.984 5.25937 2.88359 0
M  V30 3156 H 283.663 5.84401 2.77641 0
M  V30 3157 N 283.795 -0.628877 1.44509 0
M  V30 3158 C 285.023 -1.41554 1.50897 0
M  V30 3159 C 285.438 -1.8832 0.134564 0
M  V30 3160 O 284.795 -1.60969 -0.859965 0
M  V30 3161 C 284.846 -2.63435 2.47556 0
M  V30 3162 O 284.567 -2.18619 3.79654 0
M  V30 3163 C 286.068 -3.56537 2.63431 0
M  V30 3164 H 283.288 -0.434044 0.511709 0
M  V30 3165 H 285.832 -0.768895 1.89495 0
M  V30 3166 H 283.987 -3.24187 2.12089 0
M  V30 3167 H 284.401 -2.97652 4.31861 0
M  V30 3168 H 285.875 -4.38657 3.35088 0
M  V30 3169 H 286.352 -4.05493 1.68738 0
M  V30 3170 H 286.958 -3.01653 2.9981 0
M  V30 3171 N 285.273 -1.31445 -0.869486 0
M  V30 3172 C 286.52 -1.21158 -1.62256 0
M  V30 3173 C 286.848 0.230155 -1.93133 0
M  V30 3174 O 286.103 1.17906 -1.56194 0
M  V30 3175 C 286.402 -2.00145 -2.96102 0
M  V30 3176 C 286.068 -3.4964 -2.84715 0
M  V30 3177 C 284.73 -3.90403 -2.81317 0
M  V30 3178 C 287.082 -4.44769 -2.71716 0
M  V30 3179 C 284.41 -5.24561 -2.62778 0
M  V30 3180 C 286.762 -5.79054 -2.54714 0
M  V30 3181 C 285.426 -6.19037 -2.49699 0
M  V30 3182 H 284.696 -0.443348 -0.593737 0
M  V30 3183 H 287.343 -1.62715 -1.00976 0
M  V30 3184 H 285.648 -1.5127 -3.6142 0
M  V30 3185 H 287.345 -1.89566 -3.53363 0
M  V30 3186 H 283.935 -3.17256 -2.88178 0
M  V30 3187 H 288.119 -4.14208 -2.73397 0
M  V30 3188 H 283.375 -5.54613 -2.57321 0
M  V30 3189 H 287.549 -6.52393 -2.43632 0
M  V30 3190 H 285.176 -7.22935 -2.35093 0
M  V30 3191 N 286.751 1.08385 -1.14413 0
M  V30 3192 C 287.976 1.85057 -0.936413 0
M  V30 3193 C 288.401 1.81055 0.509971 0
M  V30 3194 O 287.759 1.1958 1.36273 0
M  V30 3195 C 287.807 3.30505 -1.44217 0
M  V30 3196 O 286.911 4.07491 -0.634409 0
M  V30 3197 H 286.252 0.573425 -0.334784 0
M  V30 3198 H 288.782 1.36799 -1.52142 0
M  V30 3199 H 288.792 3.81348 -1.45043 0
M  V30 3200 H 287.467 3.32734 -2.49522 0
M  V30 3201 H 286.044 3.66368 -0.694902 0
M  V30 3202 N 288.23 0.939286 1.26551 0
M  V30 3203 C 289.177 0.446088 2.26448 0
M  V30 3204 C 290.147 -0.493234 1.58608 0
M  V30 3205 O 291.332 -0.409857 1.86346 0
M  V30 3206 C 288.472 -0.284375 3.43926 0
M  V30 3207 C 287.585 0.690399 4.26448 0
M  V30 3208 C 286.72 -0.0610712 5.31165 0
M  V30 3209 C 285.759 0.905649 6.05363 0
M  V30 3210 N 284.896 0.186055 7.01853 0
M  V30 3211 H 289.736 1.30291 2.68008 0
M  V30 3212 H 287.273 0.65371 1.31776 0
M  V30 3213 H 289.231 -0.724313 4.10864 0
M  V30 3214 H 287.861 -1.10535 3.03285 0
M  V30 3215 H 286.913 1.24885 3.59316 0
M  V30 3216 H 288.225 1.42873 4.779 0
M  V30 3217 H 287.379 -0.56038 6.04106 0
M  V30 3218 H 286.118 -0.832297 4.80546 0
M  V30 3219 H 285.123 1.4161 5.3125 0
M  V30 3220 H 286.348 1.67685 6.58072 0
M  V30 3221 H 284.294 -0.566714 6.53548 0
M  V30 3222 H 284.211 0.863752 7.51049 0
M  V30 3223 H 285.479 -0.292221 7.78952 0
M  V30 3224 N 289.708 -1.40897 0.706093 0
M  V30 3225 C 290.656 -2.32572 0.0361893 0
M  V30 3226 C 291.65 -1.51532 -0.757266 0
M  V30 3227 O 292.856 -1.67396 -0.661703 0
M  V30 3228 H 289.231 -0.751966 -0.00709935 0
M  V30 3229 H 291.202 -2.86733 0.826249 0
M  V30 3230 C 289.951 -3.36418 -0.87854 0
M  V30 3231 H 289.274 -3.98836 -0.277401 0
M  V30 3232 H 290.714 -4.0308 -1.3154 0
M  V30 3233 C 289.173 -2.71141 -1.99961 0
M  V30 3234 O 289.703 -2.56735 -3.0895 0
M  V30 3235 N 287.909 -2.29671 -1.78043 0
M  V30 3236 H 287.456 -2.41588 -0.894042 0
M  V30 3237 H 287.414 -1.86332 -2.53235 0
M  V30 3238 N 291.186 -0.45159 -1.50991 0
M  V30 3239 C 292.149 0.341117 -2.26647 0
M  V30 3240 C 293.149 0.937422 -1.30649 0
M  V30 3241 O 294.339 0.809644 -1.54241 0
M  V30 3242 C 291.471 1.48398 -3.06905 0
M  V30 3243 H 292.664 -0.322117 -2.98165 0
M  V30 3244 H 290.217 -0.205122 -1.54948 0
M  V30 3245 H 290.952 2.18284 -2.39838 0
M  V30 3246 H 290.737 1.06241 -3.77432 0
M  V30 3247 H 292.227 2.04367 -3.64176 0
M  V30 3248 N 292.664 1.56529 -0.183458 0
M  V30 3249 C 293.91 1.97537 0.459036 0
M  V30 3250 C 294.243 1.06989 1.62071 0
M  V30 3251 O 293.518 0.11948 1.94133 0
M  V30 3252 C 293.801 3.47874 0.930368 0
M  V30 3253 C 293.654 4.492 -0.232317 0
M  V30 3254 C 294.973 4.01612 1.79989 0
M  V30 3255 H 292.092 0.718204 0.165383 0
M  V30 3256 H 294.734 1.88042 -0.272038 0
M  V30 3257 H 292.884 3.56095 1.55333 0
M  V30 3258 H 294.556 4.53027 -0.86972 0
M  V30 3259 H 292.799 4.24657 -0.885928 0
M  V30 3260 H 293.47 5.51823 0.139796 0
M  V30 3261 H 295.946 3.96097 1.27461 0
M  V30 3262 H 294.822 5.07195 2.09867 0
M  V30 3263 H 295.083 3.46163 2.74998 0
M  V30 3264 N 294.142 -0.090211 1.57342 0
M  V30 3265 C 295.391 -0.791531 1.8552 0
M  V30 3266 C 295.704 -1.79659 0.773441 0
M  V30 3267 O 296.91 -2.54616 0.942497 0
M  V30 3268 C 295.366 -1.45856 3.2902 0
M  V30 3269 C 294.974 -0.493017 4.45279 0
M  V30 3270 C 296.718 -2.14332 3.66418 0
M  V30 3271 C 294.625 -1.16491 5.79814 0
M  V30 3272 H 293.555 -0.299356 0.692027 0
M  V30 3273 H 296.206 -0.0445343 1.83446 0
M  V30 3274 H 294.588 -2.25318 3.2565 0
M  V30 3275 H 295.762 0.270464 4.60006 0
M  V30 3276 H 294.077 0.0863061 4.16311 0
M  V30 3277 H 296.674 -2.65344 4.64216 0
M  V30 3278 H 297.017 -2.93447 2.95287 0
M  V30 3279 H 297.55 -1.41724 3.71698 0
M  V30 3280 H 294.289 -0.41447 6.54188 0
M  V30 3281 H 293.809 -1.8997 5.68921 0
M  V30 3282 H 295.488 -1.69001 6.24538 0
M  V30 3283 N 295.62 -1.53406 -0.361157 0
M  V30 3284 C 296.845 -1.74024 -1.12829 0
M  V30 3285 C 297.27 -0.470069 -1.82132 0
M  V30 3286 O 296.628 0.57619 -1.719 0
M  V30 3287 C 296.676 -2.90903 -2.13091 0
M  V30 3288 O 295.78 -2.59821 -3.20261 0
M  V30 3289 H 295.121 -0.577804 -0.327168 0
M  V30 3290 H 297.651 -2.00307 -0.41693 0
M  V30 3291 H 297.661 -3.17194 -2.56616 0
M  V30 3292 H 296.336 -3.83034 -1.62042 0
M  V30 3293 H 294.913 -2.44362 -2.81677 0
M  V30 3294 N 297.098 0.621204 -1.44841 0
M  V30 3295 C 298.045 1.73267 -1.5247 0
M  V30 3296 C 299.015 1.6189 -0.371611 0
M  V30 3297 O 300.2 1.81668 -0.58321 0
M  V30 3298 C 297.34 3.11545 -1.48438 0
M  V30 3299 C 296.453 3.33827 -2.74196 0
M  V30 3300 C 295.588 4.62133 -2.61929 0
M  V30 3301 C 294.627 4.77627 -3.82804 0
M  V30 3302 N 293.764 5.97219 -3.69153 0
M  V30 3303 H 298.604 1.66082 -2.47428 0
M  V30 3304 H 296.141 0.810026 -1.22788 0
M  V30 3305 H 298.099 3.91528 -1.4409 0
M  V30 3306 H 296.729 3.1772 -0.570402 0
M  V30 3307 H 295.781 2.47715 -2.88689 0
M  V30 3308 H 297.093 3.41153 -3.6389 0
M  V30 3309 H 296.247 5.50291 -2.5547 0
M  V30 3310 H 294.986 4.57182 -1.69811 0
M  V30 3311 H 293.991 3.87896 -3.89637 0
M  V30 3312 H 295.216 4.84385 -4.75971 0
M  V30 3313 H 293.162 5.93339 -2.79794 0
M  V30 3314 H 293.079 6.05644 -4.52472 0
M  V30 3315 H 294.347 6.87912 -3.66603 0
M  V30 3316 N 298.576 1.31904 0.862503 0
M  V30 3317 C 299.992 1.10724 1.14945 0
M  V30 3318 C 300.192 -0.117421 2.01158 0
M  V30 3319 O 299.248 -0.804595 2.39338 0
M  V30 3320 C 300.561 2.38267 1.83437 0
M  V30 3321 C 302.109 2.43949 1.96106 0
M  V30 3322 C 302.584 3.71394 2.68013 0
M  V30 3323 N 304.075 3.72331 2.75543 0
M  V30 3324 C 304.81 4.67641 3.31812 0
M  V30 3325 N 304.306 5.73313 3.88953 0
M  V30 3326 N 306.099 4.5515 3.29841 0
M  V30 3327 H 298.25 2.10436 0.288191 0
M  V30 3328 H 300.513 0.928705 0.190292 0
M  V30 3329 H 300.219 3.27759 1.27542 0
M  V30 3330 H 300.093 2.48633 2.83657 0
M  V30 3331 H 302.48 1.54922 2.51164 0
M  V30 3332 H 302.561 2.37543 0.949059 0
M  V30 3333 H 302.205 4.60791 2.13621 0
M  V30 3334 H 302.135 3.75069 3.69636 0
M  V30 3335 H 304.626 2.95947 2.34997 0
M  V30 3336 H 304.939 6.42107 4.30022 0
M  V30 3337 H 303.284 5.77077 3.87308 0
M  V30 3338 H 306.475 3.71766 2.84443 0
M  V30 3339 H 306.648 5.29604 3.73394 0
M  V30 3340 N 300.054 -1.07777 1.14986 0
M  V30 3341 C 301.302 -1.79934 0.920235 0
M  V30 3342 C 301.623 -1.86955 -0.554336 0
M  V30 3343 O 300.893 -1.36731 -1.40291 0
M  V30 3344 H 299.473 -0.666424 0.337473 0
M  V30 3345 H 302.135 -1.3027 1.44968 0
M  V30 3346 H 301.231 -2.82539 1.32583 0
M  V30 3347 N 301.532 -0.945985 -1.26051 0
M  V30 3348 C 302.78 -0.594941 -1.93145 0
M  V30 3349 C 303.101 0.86953 -1.7454 0
M  V30 3350 O 302.371 1.61838 -1.10387 0
M  V30 3351 H 300.951 -0.217044 -0.714773 0
M  V30 3352 H 303.613 -1.20235 -1.53393 0
M  V30 3353 H 302.709 -0.816835 -3.01221 0
M  V30 3354 N 303.011 1.40521 -0.713556 0
M  V30 3355 C 303.958 2.30723 -0.059684 0
M  V30 3356 C 304.928 1.48079 0.752448 0
M  V30 3357 O 306.113 1.76823 0.71681 0
M  V30 3358 C 303.253 3.34274 0.857594 0
M  V30 3359 C 302.366 4.31986 0.0351536 0
M  V30 3360 C 301.501 5.22605 0.951724 0
M  V30 3361 C 300.54 6.11976 0.123253 0
M  V30 3362 N 299.677 6.9502 0.99459 0
M  V30 3363 H 304.517 2.86074 -0.834596 0
M  V30 3364 H 302.054 1.40879 -0.42326 0
M  V30 3365 H 304.012 3.92879 1.40364 0
M  V30 3366 H 302.642 2.8043 1.59871 0
M  V30 3367 H 301.694 3.7518 -0.628052 0
M  V30 3368 H 303.006 4.95101 -0.606347 0
M  V30 3369 H 302.16 5.86131 1.56638 0
M  V30 3370 H 300.899 4.59759 1.62705 0
M  V30 3371 H 299.904 5.47482 -0.50435 0
M  V30 3372 H 301.129 6.76881 -0.548539 0
M  V30 3373 H 299.075 6.34764 1.6556 0
M  V30 3374 H 298.992 7.54892 0.40908 0
M  V30 3375 H 300.26 7.62997 1.59549 0
M  V30 3376 N 304.489 0.459591 1.5075 0
M  V30 3377 C 305.419 -0.330644 2.31147 0
M  V30 3378 C 306.4 -1.00087 1.37538 0
M  V30 3379 O 307.585 -1.00025 1.66459 0
M  V30 3380 C 304.715 -1.41958 3.16962 0
M  V30 3381 C 303.669 -0.871608 4.19031 0
M  V30 3382 C 302.995 -2.05797 4.9351 0
M  V30 3383 C 304.295 0.109251 5.22186 0
M  V30 3384 H 305.989 0.340336 2.97459 0
M  V30 3385 H 303.535 0.165119 1.4305 0
M  V30 3386 H 305.488 -1.9798 3.71997 0
M  V30 3387 H 304.212 -2.11917 2.48513 0
M  V30 3388 H 302.871 -0.333442 3.6508 0
M  V30 3389 H 302.519 -2.74427 4.21544 0
M  V30 3390 H 302.219 -1.6976 5.62544 0
M  V30 3391 H 303.743 -2.62331 5.51375 0
M  V30 3392 H 305.157 -0.361405 5.7216 0
M  V30 3393 H 303.554 0.383316 5.98875 0
M  V30 3394 H 304.624 1.03887 4.73641 0
M  V30 3395 N 305.967 -1.56429 0.191757 0
M  V30 3396 C 307.207 -1.99383 -0.450099 0
M  V30 3397 C 307.571 -1.07581 -1.59029 0
M  V30 3398 O 308.772 -1.39758 -2.29611 0
M  V30 3399 C 307.043 -3.45841 -0.901611 0
M  V30 3400 S 308.602 -4.10822 -1.54177 0
M  V30 3401 H 305.42 -0.696253 -0.144057 0
M  V30 3402 H 308.022 -1.93276 0.294036 0
M  V30 3403 H 306.726 -4.10354 -0.0616596 0
M  V30 3404 H 306.257 -3.55757 -1.67929 0
M  V30 3405 H 308.272 -4.07553 -2.83046 0
M  V30 3406 N 307.445 0.0818655 -1.57387 0
M  V30 3407 C 308.375 1.09885 -2.06028 0
M  V30 3408 C 309.356 1.4098 -0.951774 0
M  V30 3409 O 310.541 1.50781 -1.22387 0
M  V30 3410 C 307.671 2.4151 -2.4958 0
M  V30 3411 C 306.625 2.24792 -3.64215 0
M  V30 3412 C 305.951 3.61712 -3.93787 0
M  V30 3413 C 307.251 1.67749 -4.94629 0
M  V30 3414 H 308.945 0.694128 -2.91243 0
M  V30 3415 H 306.491 0.332448 -1.4011 0
M  V30 3416 H 308.444 3.12939 -2.82219 0
M  V30 3417 H 307.168 2.83943 -1.61381 0
M  V30 3418 H 305.827 1.55807 -3.31843 0
M  V30 3419 H 305.475 4.01697 -3.02735 0
M  V30 3420 H 305.175 3.51368 -4.70971 0
M  V30 3421 H 306.699 4.34587 -4.28913 0
M  V30 3422 H 308.113 2.29032 -5.25564 0
M  V30 3423 H 306.51 1.68128 -5.76067 0
M  V30 3424 H 307.58 0.638059 -4.80684 0
M  V30 3425 N 308.923 1.53595 0.353017 0
M  V30 3426 C 309.853 1.83902 1.43883 0
M  V30 3427 C 310.834 0.693421 1.55324 0
M  V30 3428 O 312.019 0.944452 1.69687 0
M  V30 3429 C 309.149 2.04016 2.8106 0
M  V30 3430 C 308.103 3.19814 2.84434 0
M  V30 3431 C 307.429 3.25244 4.24406 0
M  V30 3432 C 308.729 4.58133 2.50822 0
M  V30 3433 H 310.423 2.74835 1.1877 0
M  V30 3434 H 307.969 1.32242 0.569917 0
M  V30 3435 H 309.922 2.238 3.57059 0
M  V30 3436 H 308.646 1.09804 3.07588 0
M  V30 3437 H 307.305 2.9987 2.10887 0
M  V30 3438 H 306.953 2.28646 4.48029 0
M  V30 3439 H 306.653 4.03054 4.27576 0
M  V30 3440 H 308.177 3.47228 5.0226 0
M  V30 3441 H 309.591 4.77995 3.16534 0
M  V30 3442 H 307.988 5.38276 2.6529 0
M  V30 3443 H 309.058 4.62387 1.46034 0
M  V30 3444 N 310.401 -0.613514 1.45168 0
M  V30 3445 C 311.65 -1.36874 1.4815 0
M  V30 3446 C 311.963 -1.952 0.124982 0
M  V30 3447 O 313.169 -2.71481 0.0324176 0
M  V30 3448 C 311.625 -2.47905 2.60904 0
M  V30 3449 C 311.233 -1.96016 4.02842 0
M  V30 3450 C 312.977 -3.24965 2.73126 0
M  V30 3451 C 310.884 -3.04494 5.06988 0
M  V30 3452 H 309.814 -0.514428 0.551253 0
M  V30 3453 H 312.465 -0.658182 1.7129 0
M  V30 3454 H 310.847 -3.21618 2.31037 0
M  V30 3455 H 312.021 -1.29051 4.4236 0
M  V30 3456 H 310.336 -1.31719 3.95018 0
M  V30 3457 H 312.933 -4.05865 3.48106 0
M  V30 3458 H 313.276 -3.75588 1.79553 0
M  V30 3459 H 313.809 -2.5835 3.0249 0
M  V30 3460 H 310.548 -2.58795 6.0225 0
M  V30 3461 H 310.068 -3.70044 4.72046 0
M  V30 3462 H 311.747 -3.68976 5.31475 0
M  V30 3463 N 311.879 -1.3236 -0.855495 0
M  V30 3464 C 313.295 -1.11332 -1.14356 0
M  V30 3465 C 313.495 0.106751 -2.01217 0
M  V30 3466 O 312.551 0.791891 -2.39761 0
M  V30 3467 C 313.864 -2.39237 -1.82171 0
M  V30 3468 C 315.412 -2.44986 -1.9481 0
M  V30 3469 C 315.887 -3.7281 -2.66039 0
M  V30 3470 N 317.378 -3.73787 -2.73565 0
M  V30 3471 C 318.113 -4.69394 -3.29327 0
M  V30 3472 N 317.609 -5.75367 -3.85907 0
M  V30 3473 N 319.402 -4.56893 -3.27423 0
M  V30 3474 H 311.553 -2.10586 -0.277027 0
M  V30 3475 H 313.816 -0.929701 -0.185364 0
M  V30 3476 H 313.522 -3.28431 -1.25802 0
M  V30 3477 H 313.396 -2.50134 -2.82335 0
M  V30 3478 H 315.783 -1.56252 -2.50338 0
M  V30 3479 H 315.864 -2.38043 -0.936448 0
M  V30 3480 H 315.508 -4.61918 -2.11174 0
M  V30 3481 H 315.438 -3.77024 -3.67642 0
M  V30 3482 H 317.929 -2.97189 -2.33424 0
M  V30 3483 H 318.242 -6.44378 -4.26611 0
M  V30 3484 H 316.587 -5.79123 -3.84242 0
M  V30 3485 H 319.778 -3.73269 -2.82467 0
M  V30 3486 H 319.951 -5.31577 -3.7058 0
M  V30 3487 N 313.357 1.07166 -1.15556 0
M  V30 3488 C 314.603 1.80065 -0.932984 0
M  V30 3489 C 314.936 1.86586 0.53845 0
M  V30 3490 O 314.211 1.35098 1.39924 0
M  V30 3491 C 314.494 3.25022 -1.55025 0
M  V30 3492 C 314.347 3.26634 -3.09242 0
M  V30 3493 C 315.666 4.22341 -1.2376 0
M  V30 3494 H 312.785 0.653697 -0.340366 0
M  V30 3495 H 315.427 1.25389 -1.4275 0
M  V30 3496 H 313.577 3.71712 -1.12972 0
M  V30 3497 H 315.249 2.88173 -3.60214 0
M  V30 3498 H 313.492 2.65539 -3.43033 0
M  V30 3499 H 314.163 4.28854 -3.47546 0
M  V30 3500 H 316.639 3.8405 -1.60139 0
M  V30 3501 H 315.515 5.22053 -1.69564 0
M  V30 3502 H 315.776 4.41828 -0.154938 0
M  V30 3503 N 314.835 0.952656 1.25548 0
M  V30 3504 C 315.798 0.475794 2.24207 0
M  V30 3505 C 316.798 -0.419428 1.55234 0
M  V30 3506 O 317.988 -0.216994 1.72843 0
M  V30 3507 C 315.12 -0.312814 3.39462 0
M  V30 3508 H 316.313 1.34779 2.67908 0
M  V30 3509 H 313.866 0.735739 1.37901 0
M  V30 3510 H 314.601 -1.20257 3.01179 0
M  V30 3511 H 314.386 0.329404 3.90714 0
M  V30 3512 H 315.876 -0.635986 4.12729 0
M  V30 3513 N 316.313 -1.40141 0.720998 0
M  V30 3514 C 317.261 -2.3252 0.0608547 0
M  V30 3515 C 318.255 -1.52326 -0.741152 0
M  V30 3516 O 319.461 -1.68089 -0.643911 0
M  V30 3517 H 315.836 -0.751999 0.000876664 0
M  V30 3518 H 317.807 -2.8584 0.856614 0
M  V30 3519 C 316.556 -3.37331 -0.842809 0
M  V30 3520 H 315.879 -3.99108 -0.235084 0
M  V30 3521 H 317.319 -4.04452 -1.27257 0
M  V30 3522 C 315.778 -2.73246 -1.97074 0
M  V30 3523 O 316.308 -2.59998 -3.06209 0
M  V30 3524 N 314.514 -2.31547 -1.75597 0
M  V30 3525 H 314.061 -2.42522 -0.868368 0
M  V30 3526 H 314.019 -1.89007 -2.51244 0
M  V30 3527 N 317.792 -0.46758 -1.50504 0
M  V30 3528 C 318.722 0.318381 -2.31319 0
M  V30 3529 C 319.703 0.993564 -1.38066 0
M  V30 3530 O 320.888 0.991411 -1.66987 0
M  V30 3531 C 318.018 1.40275 -3.17711 0
M  V30 3532 C 316.972 0.849373 -4.19487 0
M  V30 3533 C 316.298 2.03177 -4.94594 0
M  V30 3534 C 317.598 -0.136942 -5.2212 0
M  V30 3535 H 319.292 -0.356106 -2.97275 0
M  V30 3536 H 316.838 -0.172703 -1.42961 0
M  V30 3537 H 318.791 1.96004 -3.73042 0
M  V30 3538 H 317.515 2.10596 -2.49634 0
M  V30 3539 H 316.174 0.314076 -3.65252 0
M  V30 3540 H 315.822 2.72187 -4.22993 0
M  V30 3541 H 315.522 1.66774 -5.63436 0
M  V30 3542 H 317.046 2.59403 -5.52759 0
M  V30 3543 H 318.46 0.331056 -5.72343 0
M  V30 3544 H 316.857 -0.41507 -5.98663 0
M  V30 3545 H 317.927 -1.06398 -4.73083 0
M  V30 3546 N 319.27 1.56325 -0.20005 0
M  V30 3547 C 320.686 1.58839 0.155716 0
M  V30 3548 C 320.886 1.21636 1.60645 0
M  V30 3549 O 319.942 0.941437 2.34293 0
M  V30 3550 C 321.255 3.0032 -0.151124 0
M  V30 3551 C 322.803 3.12866 -0.0916284 0
M  V30 3552 C 323.278 4.56488 -0.371845 0
M  V30 3553 N 324.769 4.62089 -0.320641 0
M  V30 3554 C 325.504 5.71116 -0.511243 0
M  V30 3555 N 325 6.88592 -0.762461 0
M  V30 3556 N 326.793 5.60335 -0.445157 0
M  V30 3557 H 318.944 1.78788 -1.14668 0
M  V30 3558 H 321.207 0.829996 -0.458051 0
M  V30 3559 H 320.913 3.32117 -1.15721 0
M  V30 3560 H 320.787 3.73257 0.543986 0
M  V30 3561 H 323.174 2.80878 0.905065 0
M  V30 3562 H 323.255 2.42304 -0.81989 0
M  V30 3563 H 322.899 4.89189 -1.36588 0
M  V30 3564 H 322.829 5.25246 0.377362 0
M  V30 3565 H 325.32 3.77665 -0.13329 0
M  V30 3566 H 325.633 7.67581 -0.896576 0
M  V30 3567 H 323.978 6.90387 -0.799412 0
M  V30 3568 H 327.169 4.67436 -0.249278 0
M  V30 3569 H 327.342 6.45243 -0.597116 0
M  V30 3570 N 320.748 -0.0735177 1.57428 0
M  V30 3571 C 321.695 -1.08756 2.0357 0
M  V30 3572 C 322.665 -1.38559 0.916 0
M  V30 3573 O 323.85 -1.49656 1.18354 0
M  V30 3574 C 320.99 -2.39657 2.48311 0
M  V30 3575 C 320.103 -2.16399 3.73892 0
M  V30 3576 C 319.238 -3.40852 4.07423 0
M  V30 3577 C 318.277 -3.1295 5.2605 0
M  V30 3578 N 317.414 -4.29729 5.55228 0
M  V30 3579 H 322.254 -0.687104 2.8997 0
M  V30 3580 H 319.791 -0.327709 1.43403 0
M  V30 3581 H 321.749 -3.16081 2.72303 0
M  V30 3582 H 320.379 -2.77508 1.64891 0
M  V30 3583 H 319.431 -1.30676 3.57251 0
M  V30 3584 H 320.743 -1.91788 4.60455 0
M  V30 3585 H 319.897 -4.25671 4.32306 0
M  V30 3586 H 318.636 -3.68537 3.19425 0
M  V30 3587 H 317.641 -2.26526 5.00965 0
M  V30 3588 H 318.866 -2.86589 6.15665 0
M  V30 3589 H 316.812 -4.57448 4.70188 0
M  V30 3590 H 316.729 -4.08385 6.36206 0
M  V30 3591 H 317.997 -5.1555 5.84661 0
M  V30 3592 N 322.226 -1.5378 -0.344866 0
M  V30 3593 C 323.451 -1.75211 -1.10977 0
M  V30 3594 C 323.876 -0.48936 -1.81623 0
M  V30 3595 O 323.234 0.557925 -1.72502 0
M  V30 3596 C 323.282 -2.93147 -2.09993 0
M  V30 3597 O 322.386 -2.63203 -3.17487 0
M  V30 3598 H 321.727 -0.581241 -0.321021 0
M  V30 3599 H 324.257 -2.00738 -0.395661 0
M  V30 3600 H 324.267 -3.19898 -2.53237 0
M  V30 3601 H 322.942 -3.84731 -1.5797 0
M  V30 3602 H 321.519 -2.47336 -2.79069 0
M  V30 3603 N 323.704 0.605807 -1.45491 0
M  V30 3604 C 324.634 1.72709 -1.57143 0
M  V30 3605 C 325.615 1.6476 -0.422884 0
M  V30 3606 O 326.8 1.83132 -0.646247 0
M  V30 3607 C 323.93 3.11316 -1.53948 0
M  V30 3608 C 322.884 3.34077 -2.67537 0
M  V30 3609 C 322.21 4.72975 -2.49397 0
M  V30 3610 C 323.51 3.24158 -4.09535 0
M  V30 3611 H 325.204 1.63214 -2.51001 0
M  V30 3612 H 322.75 0.78379 -1.208 0
M  V30 3613 H 324.703 3.89557 -1.60696 0
M  V30 3614 H 323.427 3.21655 -0.566205 0
M  V30 3615 H 322.086 2.58227 -2.6022 0
M  V30 3616 H 321.734 4.8005 -1.50205 0
M  V30 3617 H 321.434 4.8916 -3.25571 0
M  V30 3618 H 322.958 5.53414 -2.58002 0
M  V30 3619 H 324.372 3.92271 -4.18086 0
M  V30 3620 H 322.769 3.51872 -4.86113 0
M  V30 3621 H 323.839 2.2157 -4.31317 0
M  V30 3622 N 325.182 1.32811 0.848464 0
M  V30 3623 C 326.112 1.24882 1.97299 0
M  V30 3624 C 327.093 0.131357 1.69592 0
M  V30 3625 O 328.278 0.319553 1.91553 0
M  V30 3626 C 325.408 0.97746 3.33261 0
M  V30 3627 C 324.362 2.05682 3.75338 0
M  V30 3628 C 323.688 1.63777 5.09 0
M  V30 3629 C 324.988 3.47254 3.90144 0
M  V30 3630 H 326.682 2.18966 2.04191 0
M  V30 3631 H 324.228 1.05413 0.981029 0
M  V30 3632 H 326.181 0.908513 4.1149 0
M  V30 3633 H 324.905 0.000980011 3.266 0
M  V30 3634 H 323.564 2.11603 2.99366 0
M  V30 3635 H 323.212 0.648569 4.98801 0
M  V30 3636 H 322.912 2.36 5.38124 0
M  V30 3637 H 324.436 1.5833 5.89715 0
M  V30 3638 H 325.85 3.43888 4.58709 0
M  V30 3639 H 324.247 4.1788 4.30693 0
M  V30 3640 H 325.317 3.86462 2.92874 0
M  V30 3641 N 326.66 -1.06551 1.16123 0
M  V30 3642 C 327.909 -1.78687 0.935622 0
M  V30 3643 C 328.222 -1.88056 -0.538001 0
M  V30 3644 O 329.428 -2.56794 -0.88143 0
M  V30 3645 C 327.884 -3.21143 1.62466 0
M  V30 3646 C 327.492 -3.19949 3.13587 0
M  V30 3647 C 329.236 -3.9783 1.48092 0
M  V30 3648 C 327.143 -4.57108 3.75241 0
M  V30 3649 H 326.073 -0.669712 0.346412 0
M  V30 3650 H 328.724 -1.19534 1.39226 0
M  V30 3651 H 327.106 -3.80539 1.09572 0
M  V30 3652 H 328.28 -2.70151 3.73303 0
M  V30 3653 H 326.595 -2.5676 3.27816 0
M  V30 3654 H 329.192 -4.99217 1.91538 0
M  V30 3655 H 329.535 -4.14078 0.429507 0
M  V30 3656 H 330.068 -3.4495 1.98127 0
M  V30 3657 H 326.807 -4.46065 4.80319 0
M  V30 3658 H 326.327 -5.07111 3.20309 0
M  V30 3659 H 328.006 -5.26069 3.76644 0
M  V30 3660 N 328.138 -0.959301 -1.25041 0
M  V30 3661 C 329.386 -0.615393 -1.92503 0
M  V30 3662 C 329.707 0.850969 -1.75452 0
M  V30 3663 O 328.977 1.60658 -1.12098 0
M  V30 3664 H 327.557 -0.224613 -0.712431 0
M  V30 3665 H 330.219 -1.21855 -1.5211 0
M  V30 3666 H 329.315 -0.848738 -3.00338 0
M  V30 3667 N 329.616 1.39756 -0.72842 0
M  V30 3668 C 330.841 2.05472 -0.282159 0
M  V30 3669 C 331.266 1.54549 1.07221 0
M  V30 3670 O 330.624 0.686372 1.67805 0
M  V30 3671 C 330.672 3.59462 -0.286264 0
M  V30 3672 O 329.776 4.05918 0.728298 0
M  V30 3673 H 329.117 0.651226 -0.129618 0
M  V30 3674 H 331.647 1.78915 -0.992499 0
M  V30 3675 H 331.657 4.07798 -0.128373 0
M  V30 3676 H 330.332 3.95889 -1.27456 0
M  V30 3677 H 328.909 3.69012 0.537081 0
M  V30 3678 N 331.094 0.475555 1.50254 0
M  V30 3679 C 332.044 -0.335025 2.25525 0
M  V30 3680 C 333.028 -0.957625 1.29299 0
M  V30 3681 O 334.22 -0.869436 1.54175 0
M  V30 3682 C 331.349 -1.41385 3.12834 0
M  V30 3683 C 330.435 -0.798762 4.1651 0
M  V30 3684 N 330.826 0.0835815 5.05731 0
M  V30 3685 C 329.124 -1.06221 4.33166 0
M  V30 3686 C 329.825 0.433113 5.80085 0
M  V30 3687 N 328.801 -0.1928 5.43258 0
M  V30 3688 H 332.603 0.344612 2.91873 0
M  V30 3689 H 330.117 0.289986 1.5979 0
M  V30 3690 H 332.114 -2.00777 3.65368 0
M  V30 3691 H 330.774 -2.09543 2.48036 0
M  V30 3692 H 331.785 0.452715 5.15918 0
M  V30 3693 H 328.462 -1.73844 3.79585 0
M  V30 3694 H 329.852 1.15346 6.61925 0
M  V30 3695 N 332.573 -1.56217 0.208337 0
M  V30 3696 C 333.822 -1.97124 -0.427204 0
M  V30 3697 C 334.135 -1.09859 -1.61835 0
M  V30 3698 O 335.341 -1.40606 -2.32255 0
M  V30 3699 C 333.797 -3.50633 -0.811442 0
M  V30 3700 C 333.405 -4.46582 0.35615 0
M  V30 3701 C 335.149 -4.00282 -1.41332 0
M  V30 3702 C 333.056 -5.91379 -0.0497852 0
M  V30 3703 H 331.986 -0.736086 -0.163381 0
M  V30 3704 H 334.637 -1.8099 0.302456 0
M  V30 3705 H 333.019 -3.62319 -1.59815 0
M  V30 3706 H 334.193 -4.46636 1.1337 0
M  V30 3707 H 332.508 -4.07202 0.870396 0
M  V30 3708 H 335.105 -5.0595 -1.72972 0
M  V30 3709 H 335.448 -3.45359 -2.32449 0
M  V30 3710 H 335.981 -3.91764 -0.690323 0
M  V30 3711 H 332.72 -6.50255 0.827529 0
M  V30 3712 H 332.24 -5.94549 -0.791926 0
M  V30 3713 H 333.919 -6.45209 -0.481042 0
M  V30 3714 N 334.051 0.0651679 -1.57465 0
M  V30 3715 C 335.281 0.774683 -1.91526 0
M  V30 3716 C 335.689 1.71305 -0.803196 0
M  V30 3717 O 335.032 1.82231 0.231881 0
M  V30 3718 C 335.094 1.61645 -3.21109 0
M  V30 3719 C 334.758 0.846753 -4.49087 0
M  V30 3720 C 335.755 0.163024 -5.19644 0
M  V30 3721 C 333.44 0.811966 -4.95694 0
M  V30 3722 C 335.434 -0.54519 -6.35064 0
M  V30 3723 C 333.121 0.0999836 -6.11018 0
M  V30 3724 C 334.119 -0.577388 -6.80555 0
M  V30 3725 O 333.807 -1.27789 -7.93678 0
M  V30 3726 H 333.539 0.225031 -0.637446 0
M  V30 3727 H 336.093 0.0377134 -2.05365 0
M  V30 3728 H 334.323 2.39638 -3.03497 0
M  V30 3729 H 336.012 2.20525 -3.40769 0
M  V30 3730 H 336.778 0.181163 -4.84662 0
M  V30 3731 H 332.657 1.32867 -4.41438 0
M  V30 3732 H 336.201 -1.07446 -6.89276 0
M  V30 3733 H 332.098 0.0797945 -6.45451 0
M  V30 3734 H 332.866 -1.18784 -8.09835 0
M  V30 3735 N 335.529 1.53961 0.336706 0
M  V30 3736 C 336.777 1.71197 1.07405 0
M  V30 3737 C 337.098 0.481475 1.88962 0
M  V30 3738 O 336.368 -0.504585 1.8929 0
M  V30 3739 H 334.948 0.631185 0.399517 0
M  V30 3740 H 337.61 1.91232 0.376323 0
M  V30 3741 H 336.706 2.58587 1.74755 0
M  V30 3742 N 337.007 -0.598083 1.45811 0
M  V30 3743 C 337.954 -1.7082 1.55207 0
M  V30 3744 C 338.924 -1.61278 0.39732 0
M  V30 3745 O 340.109 -1.80717 0.612038 0
M  V30 3746 C 337.249 -3.09144 1.53376 0
M  V30 3747 C 336.362 -3.29423 2.79472 0
M  V30 3748 C 335.497 -4.57907 2.69248 0
M  V30 3749 C 334.536 -4.71476 3.90354 0
M  V30 3750 N 333.673 -5.9127 3.78608 0
M  V30 3751 H 338.513 -1.62125 2.50039 0
M  V30 3752 H 336.05 -0.790389 1.24062 0
M  V30 3753 H 338.008 -3.89186 1.50301 0
M  V30 3754 H 336.638 -3.16773 0.620876 0
M  V30 3755 H 335.69 -2.43091 2.92594 0
M  V30 3756 H 337.002 -3.3532 3.69272 0
M  V30 3757 H 336.156 -5.46157 2.64192 0
M  V30 3758 H 334.895 -4.54423 1.77063 0
M  V30 3759 H 333.9 -3.81648 3.95759 0
M  V30 3760 H 335.125 -4.76751 4.83617 0
M  V30 3761 H 333.071 -5.88813 2.89199 0
M  V30 3762 H 332.988 -5.98369 4.6205 0
M  V30 3763 H 334.256 -6.81992 3.77501 0
M  V30 3764 N 338.485 -1.33259 -0.841409 0
M  V30 3765 C 339.415 -1.25926 -1.96634 0
M  V30 3766 C 340.396 -0.140349 -1.6952 0
M  V30 3767 O 341.581 -0.329707 -1.91381 0
M  V30 3768 C 338.711 -0.99512 -3.32738 0
M  V30 3769 C 337.665 -2.0767 -3.74242 0
M  V30 3770 C 336.991 -1.66474 -5.08125 0
M  V30 3771 C 338.291 -3.49318 -3.88297 0
M  V30 3772 H 339.985 -2.20046 -2.03027 0
M  V30 3773 H 337.531 -1.05931 -0.975425 0
M  V30 3774 H 339.484 -0.930323 -4.11002 0
M  V30 3775 H 338.208 -0.0183004 -3.26595 0
M  V30 3776 H 336.867 -2.13187 -2.98239 0
M  V30 3777 H 336.515 -0.675012 -4.9845 0
M  V30 3778 H 336.215 -2.3885 -5.36865 0
M  V30 3779 H 337.739 -1.61455 -5.88867 0
M  V30 3780 H 339.153 -3.46316 -4.56879 0
M  V30 3781 H 337.55 -4.20158 -4.28471 0
M  V30 3782 H 338.62 -3.8801 -2.9082 0
M  V30 3783 N 339.963 1.05934 -1.16686 0
M  V30 3784 C 340.893 2.1546 -0.899949 0
M  V30 3785 C 341.874 1.69391 0.155154 0
M  V30 3786 O 343.059 1.94199 0.00648693 0
M  V30 3787 C 340.189 3.44939 -0.404241 0
M  V30 3788 C 339.143 4.04536 -1.39767 0
M  V30 3789 C 338.469 5.29268 -0.760216 0
M  V30 3790 C 339.769 4.42893 -2.76845 0
M  V30 3791 H 341.463 2.38046 -1.81588 0
M  V30 3792 H 339.009 1.14404 -0.874514 0
M  V30 3793 H 340.962 4.20901 -0.204971 0
M  V30 3794 H 339.686 3.21983 0.547206 0
M  V30 3795 H 338.345 3.30635 -1.58355 0
M  V30 3796 H 337.993 5.02611 0.197831 0
M  V30 3797 H 337.693 5.70101 -1.42332 0
M  V30 3798 H 339.217 6.07924 -0.57105 0
M  V30 3799 H 340.631 5.09921 -2.62019 0
M  V30 3800 H 339.028 4.94721 -3.39663 0
M  V30 3801 H 340.098 3.53584 -3.31823 0
M  V30 3802 N 341.441 0.965919 1.2453 0
M  V30 3803 C 342.388 0.49402 2.25451 0
M  V30 3804 C 343.358 -0.45948 1.59618 0
M  V30 3805 O 344.543 -0.370238 1.87173 0
M  V30 3806 C 341.683 -0.211359 3.44452 0
M  V30 3807 C 340.796 0.7807 4.24887 0
M  V30 3808 C 339.931 0.0516105 5.31175 0
M  V30 3809 C 338.97 1.03385 6.03306 0
M  V30 3810 N 338.107 0.334887 7.01301 0
M  V30 3811 H 342.947 1.35946 2.65184 0
M  V30 3812 H 340.484 0.681515 1.3036 0
M  V30 3813 H 342.442 -0.637 4.12308 0
M  V30 3814 H 341.072 -1.04077 3.05562 0
M  V30 3815 H 340.124 1.32479 3.56586 0
M  V30 3816 H 341.436 1.52978 4.74762 0
M  V30 3817 H 340.59 -0.432114 6.05159 0
M  V30 3818 H 339.329 -0.730179 4.82203 0
M  V30 3819 H 338.334 1.52847 5.28127 0
M  V30 3820 H 339.559 1.81606 6.54367 0
M  V30 3821 H 337.505 -0.427959 6.54603 0
M  V30 3822 H 337.422 1.02287 7.49048 0
M  V30 3823 H 338.69 -0.126928 7.79397 0
M  V30 3824 N 342.919 -1.39368 0.735821 0
M  V30 3825 C 344.147 -2.04795 0.294393 0
M  V30 3826 C 344.562 -1.55478 -1.07107 0
M  V30 3827 O 343.919 -0.720038 -1.67695 0
M  V30 3828 C 343.97 -3.6035 0.288071 0
M  V30 3829 O 343.691 -4.07852 1.59963 0
M  V30 3830 C 345.192 -4.42976 -0.169422 0
M  V30 3831 H 342.412 -0.658571 0.128551 0
M  V30 3832 H 344.956 -1.78399 0.999701 0
M  V30 3833 H 343.111 -3.85645 -0.368355 0
M  V30 3834 H 343.525 -5.02181 1.51375 0
M  V30 3835 H 344.999 -5.51864 -0.122687 0
M  V30 3836 H 345.476 -4.22068 -1.21472 0
M  V30 3837 H 346.082 -4.22832 0.457469 0
M  V30 3838 N 344.397 -0.483516 -1.5 0
M  V30 3839 C 345.625 0.0644831 -2.06799 0
M  V30 3840 C 346.04 1.32399 -1.34596 0
M  V30 3841 O 345.397 1.77626 -0.418946 0
M  V30 3842 C 345.448 0.339927 -3.59898 0
M  V30 3843 O 345.169 -0.869635 -4.29382 0
M  V30 3844 C 346.67 0.933515 -4.33359 0
M  V30 3845 H 343.89 -0.0126333 -0.670881 0
M  V30 3846 H 346.434 -0.675864 -1.93009 0
M  V30 3847 H 344.589 1.03022 -3.7345 0
M  V30 3848 H 345.003 -0.62179 -5.20801 0
M  V30 3849 H 346.477 1.07593 -5.41413 0
M  V30 3850 H 346.954 1.92685 -3.94676 0
M  V30 3851 H 347.56 0.281221 -4.24369 0
M  V30 3852 N 345.875 1.56104 -0.216619 0
M  V30 3853 C 347.121 1.98466 0.417033 0
M  V30 3854 C 347.454 1.10403 1.59765 0
M  V30 3855 O 346.729 0.160632 1.93836 0
M  V30 3856 C 347.012 3.49769 0.85637 0
M  V30 3857 C 346.865 4.48606 -0.327546 0
M  V30 3858 C 348.184 4.05339 1.7143 0
M  V30 3859 H 345.303 0.721551 0.150112 0
M  V30 3860 H 347.945 1.87423 -0.311864 0
M  V30 3861 H 346.095 3.5931 1.47745 0
M  V30 3862 H 347.767 4.5108 -0.965618 0
M  V30 3863 H 346.01 4.22682 -0.975805 0
M  V30 3864 H 346.681 5.51995 0.0227149 0
M  V30 3865 H 349.157 3.98712 1.19031 0
M  V30 3866 H 348.033 5.11533 1.99061 0
M  V30 3867 H 348.294 3.51918 2.67593 0
M  V30 3868 N 347.353 -0.0568162 1.57498 0
M  V30 3869 C 348.581 -0.765626 1.92213 0
M  V30 3870 C 348.996 -1.70353 0.813961 0
M  V30 3871 O 348.353 -1.81268 -0.211701 0
M  V30 3872 C 348.404 -1.5465 3.2675 0
M  V30 3873 O 348.125 -0.646278 4.33307 0
M  V30 3874 C 349.626 -2.35497 3.75574 0
M  V30 3875 H 346.846 -0.216835 0.634999 0
M  V30 3876 H 349.39 -0.0226146 2.04487 0
M  V30 3877 H 347.545 -2.24165 3.15957 0
M  V30 3878 H 347.959 -1.19093 5.108 0
M  V30 3879 H 349.433 -2.85722 4.72299 0
M  V30 3880 H 349.91 -3.15692 3.05344 0
M  V30 3881 H 350.516 -1.7111 3.8936 0
M  V30 3882 N 348.832 -1.54138 -0.328536 0
M  V30 3883 C 350.243 -1.63395 -0.903272 0
M  V30 3884 C 350.594 -0.524828 -1.8905 0
M  V30 3885 O 349.719 0.343068 -2.13663 0
M  V30 3886 C 350.314 -2.9618 -1.64507 0
M  V30 3887 C 348.873 -3.0765 -2.1686 0
M  V30 3888 C 348.02 -2.58933 -0.992416 0
M  V30 3889 H 350.971 -1.58344 -0.106253 0
M  V30 3890 H 350.992 -2.86061 -2.50897 0
M  V30 3891 H 350.504 -3.76884 -0.926302 0
M  V30 3892 H 348.605 -2.31611 -2.91868 0
M  V30 3893 H 348.718 -4.1337 -2.42202 0
M  V30 3894 H 347.082 -2.14706 -1.37016 0
M  V30 3895 H 347.865 -3.42089 -0.288041 0
M  V30 3896 N 350.31 0.590341 -1.46126 0
M  V30 3897 C 351.22 1.72793 -1.58681 0
M  V30 3898 C 352.236 1.67516 -0.470566 0
M  V30 3899 O 353.412 1.87562 -0.733642 0
M  V30 3900 C 350.477 3.09287 -1.5666 0
M  V30 3901 C 349.538 3.25886 -2.79458 0
M  V30 3902 C 348.771 4.55869 -2.77524 0
M  V30 3903 O 348.994 5.3928 -1.85832 0
M  V30 3904 O 347.928 4.75552 -3.68964 0
M  V30 3905 H 351.754 1.65149 -2.54872 0
M  V30 3906 H 349.339 0.756486 -1.28832 0
M  V30 3907 H 351.221 3.90577 -1.58202 0
M  V30 3908 H 349.896 3.17385 -0.636271 0
M  V30 3909 H 348.803 2.44119 -2.83472 0
M  V30 3910 H 350.136 3.22675 -3.71674 0
M  V30 3911 N 351.788 1.33704 0.83433 0
M  V30 3912 C 353.036 1.25169 1.58673 0
M  V30 3913 C 353.357 -0.18127 1.94156 0
M  V30 3914 O 352.627 -1.11113 1.6134 0
M  V30 3915 H 351.207 0.4603 0.58833 0
M  V30 3916 H 353.869 1.67478 0.996847 0
M  V30 3917 H 352.965 1.84856 2.51465 0
M  V30 3918 N 353.266 -1.05314 1.17247 0
M  V30 3919 C 354.176 -2.16538 0.90268 0
M  V30 3920 C 355.192 -1.73523 -0.128707 0
M  V30 3921 O 356.368 -2.01337 0.0502701 0
M  V30 3922 C 353.433 -3.44167 0.418356 0
M  V30 3923 C 352.494 -4.01635 1.51618 0
M  V30 3924 C 351.727 -5.23171 1.05487 0
M  V30 3925 O 351.95 -5.70327 -0.0914715 0
M  V30 3926 O 350.884 -5.72848 1.8474 0
M  V30 3927 H 354.71 -2.42145 1.83302 0
M  V30 3928 H 352.295 -1.15037 0.953246 0
M  V30 3929 H 354.177 -4.21112 0.155726 0
M  V30 3930 H 352.852 -3.20063 -0.48385 0
M  V30 3931 H 351.759 -3.26135 1.83268 0
M  V30 3932 H 353.092 -4.30053 2.39405 0
M  V30 3933 N 354.744 -0.972509 -1.24016 0
M  V30 3934 C 355.972 -0.654803 -1.96265 0
M  V30 3935 C 356.387 0.776708 -1.72083 0
M  V30 3936 O 355.744 1.52171 -1.00748 0
M  V30 3937 C 355.795 -0.92592 -3.49441 0
M  V30 3938 O 355.516 -2.30116 -3.72798 0
M  V30 3939 C 357.017 -0.623068 -4.38899 0
M  V30 3940 H 354.237 -0.243907 -0.6251 0
M  V30 3941 H 356.781 -1.30175 -1.57717 0
M  V30 3942 H 354.936 -0.325108 -3.86033 0
M  V30 3943 H 355.35 -2.38483 -4.67147 0
M  V30 3944 H 356.824 -0.863189 -5.45209 0
M  V30 3945 H 357.301 0.442754 -4.36963 0
M  V30 3946 H 357.907 -1.204 -4.07902 0
M  V30 3947 N 356.222 1.38976 -0.743202 0
M  V30 3948 C 357.471 1.99581 -0.291592 0
M  V30 3949 C 357.784 1.59656 1.13001 0
M  V30 3950 O 358.99 2.13157 1.68156 0
M  V30 3951 C 357.446 3.56813 -0.470391 0
M  V30 3952 C 357.054 4.05695 -1.90041 0
M  V30 3953 C 358.798 4.24423 -0.0809709 0
M  V30 3954 C 356.705 5.5553 -2.02832 0
M  V30 3955 H 355.635 0.746615 -0.105272 0
M  V30 3956 H 358.286 1.58872 -0.918258 0
M  V30 3957 H 356.668 3.95359 0.225299 0
M  V30 3958 H 357.842 3.78464 -2.62872 0
M  V30 3959 H 356.157 3.50775 -2.24379 0
M  V30 3960 H 358.754 5.34474 -0.155445 0
M  V30 3961 H 359.097 4.04962 0.96497 0
M  V30 3962 H 359.63 3.9108 -0.728124 0
M  V30 3963 H 356.369 5.79881 -3.05643 0
M  V30 3964 H 355.889 5.84537 -1.34448 0
M  V30 3965 H 357.568 6.21069 -1.81335 0
M  V30 3966 N 357.7 0.491464 1.49741 0
M  V30 3967 C 358.949 -0.0582189 2.01616 0
M  V30 3968 C 359.262 -1.38927 1.3769 0
M  V30 3969 O 360.468 -2.02509 1.80838 0
M  V30 3970 C 358.924 -0.154235 3.59569 0
M  V30 3971 C 358.532 1.1696 4.32463 0
M  V30 3972 C 360.276 -0.65479 4.1942 0
M  V30 3973 C 358.183 1.03627 5.8225 0
M  V30 3974 H 357.113 -0.0255317 0.753568 0
M  V30 3975 H 359.764 0.629445 1.72367 0
M  V30 3976 H 358.146 -0.906138 3.85493 0
M  V30 3977 H 359.32 1.93405 4.18248 0
M  V30 3978 H 357.635 1.60285 3.84315 0
M  V30 3979 H 360.232 -0.771903 5.29099 0
M  V30 3980 H 360.575 -1.65127 3.8215 0
M  V30 3981 H 361.108 0.040304 3.9778 0
M  V30 3982 H 357.847 2.00672 6.24028 0
M  V30 3983 H 357.367 0.312546 5.98985 0
M  V30 3984 H 359.046 0.711114 6.4308 0
M  V30 3985 N 359.178 -1.55987 0.224894 0
M  V30 3986 C 360.108 -2.23426 -0.678457 0
M  V30 3987 C 361.089 -1.20709 -1.19847 0
M  V30 3988 O 362.274 -1.49304 -1.24186 0
M  V30 3989 C 359.404 -2.91676 -1.88527 0
M  V30 3990 C 358.358 -4.00893 -1.49896 0
M  V30 3991 C 357.684 -4.56455 -2.78483 0
M  V30 3992 C 358.984 -5.17769 -0.686461 0
M  V30 3993 H 360.678 -2.99175 -0.116173 0
M  V30 3994 H 358.224 -1.43897 -0.054436 0
M  V30 3995 H 360.177 -3.37547 -2.5227 0
M  V30 3996 H 358.901 -2.1338 -2.47258 0
M  V30 3997 H 357.56 -3.55758 -0.884985 0
M  V30 3998 H 357.208 -3.74886 -3.35365 0
M  V30 3999 H 356.908 -5.30169 -2.53368 0
M  V30 4000 H 358.432 -5.05047 -3.43162 0
M  V30 4001 H 359.846 -5.60001 -1.22767 0
M  V30 4002 H 358.243 -5.97735 -0.532259 0
M  V30 4003 H 359.313 -4.83932 0.306196 0
M  V30 4004 N 360.656 0.0484629 -1.57525 0
M  V30 4005 C 361.933 0.777447 -1.79486 0
M  V30 4006 C 362.313 1.94597 -0.818251 0
M  V30 4007 O 361.661 2.28047 0.143767 0
M  V30 4008 C 361.871 1.22864 -3.26658 0
M  V30 4009 C 363.219 1.65251 -3.91123 0
M  V30 4010 O 364.243 1.32372 -3.3069 0
M  V30 4011 O 363.102 2.26207 -4.97486 0
M  V30 4012 H 360.196 0.374357 -0.737419 0
M  V30 4013 H 362.742 0.0267359 -1.69679 0
M  V30 4014 H 361.514 0.393589 -3.89316 0
M  V30 4015 H 361.137 2.03996 -3.41279 0
M  V30 4016 N 362.134 1.5431 0.320358 0
M  V30 4017 C 363.066 1.80262 1.41556 0
M  V30 4018 C 364.079 0.684723 1.477 0
M  V30 4019 O 365.268 0.961886 1.50366 0
M  V30 4020 C 362.368 1.90825 2.8007 0
M  V30 4021 C 361.541 3.21023 2.97091 0
M  V30 4022 C 360.6 3.22247 4.15985 0
M  V30 4023 O 359.626 3.95871 4.08992 0
M  V30 4024 N 360.828 2.46258 5.25678 0
M  V30 4025 H 363.593 2.74778 1.19655 0
M  V30 4026 H 361.154 1.53646 0.510358 0
M  V30 4027 H 363.146 1.89067 3.57821 0
M  V30 4028 H 361.716 1.03392 2.95006 0
M  V30 4029 H 360.936 3.35715 2.06614 0
M  V30 4030 H 362.224 4.0698 3.05361 0
M  V30 4031 H 361.622 1.86037 5.34235 0
M  V30 4032 H 360.179 2.50275 6.01835 0
M  V30 4033 N 363.613 -0.582584 1.46437 0
M  V30 4034 C 364.862 -1.337 1.5102 0
M  V30 4035 C 365.175 -1.94891 0.166359 0
M  V30 4036 O 366.381 -2.71351 0.0899954 0
M  V30 4037 C 364.837 -2.42315 2.66104 0
M  V30 4038 C 364.445 -1.87427 4.06909 0
M  V30 4039 C 366.189 -3.19099 2.79958 0
M  V30 4040 C 364.096 -2.93672 5.13333 0
M  V30 4041 H 363.026 -0.502619 0.562041 0
M  V30 4042 H 365.677 -0.621701 1.72647 0
M  V30 4043 H 364.059 -3.16645 2.37807 0
M  V30 4044 H 365.233 -1.19639 4.44998 0
M  V30 4045 H 363.548 -1.2331 3.97723 0
M  V30 4046 H 366.145 -3.9839 3.56636 0
M  V30 4047 H 366.488 -3.71695 1.87479 0
M  V30 4048 H 367.021 -2.51875 3.07902 0
M  V30 4049 H 363.76 -2.45962 6.07604 0
M  V30 4050 H 363.28 -3.59948 4.79789 0
M  V30 4051 H 364.959 -3.5762 5.39182 0
M  V30 4052 N 365.091 -1.34144 -0.827227 0
M  V30 4053 C 366.039 -1.25364 -1.95925 0
M  V30 4054 C 367.033 -0.152608 -1.68711 0
M  V30 4055 O 368.239 -0.317311 -1.77181 0
M  V30 4056 H 364.614 -0.389342 -0.643364 0
M  V30 4057 H 366.585 -2.21045 -2.00454 0
M  V30 4058 C 365.334 -1.02158 -3.32354 0
M  V30 4059 H 364.657 -1.86111 -3.5384 0
M  V30 4060 H 366.097 -1.00048 -4.12027 0
M  V30 4061 C 364.556 0.275244 -3.35774 0
M  V30 4062 O 365.086 1.27806 -3.80826 0
M  V30 4063 N 363.292 0.306853 -2.88975 0
M  V30 4064 H 362.839 -0.509777 -2.52506 0
M  V30 4065 H 362.797 1.17432 -2.91646 0
M  V30 4066 N 366.569 1.04691 -1.17803 0
M  V30 4067 C 367.818 1.77176 -0.963931 0
M  V30 4068 C 368.131 1.88888 0.508015 0
M  V30 4069 O 369.337 2.58164 0.840465 0
M  V30 4070 C 367.793 3.18518 -1.67555 0
M  V30 4071 C 367.401 3.14919 -3.18637 0
M  V30 4072 C 369.145 3.95424 -1.54402 0
M  V30 4073 C 367.052 4.51081 -3.82466 0
M  V30 4074 H 365.982 0.664116 -0.357023 0
M  V30 4075 H 368.633 1.17303 -1.4111 0
M  V30 4076 H 367.015 3.78748 -1.15613 0
M  V30 4077 H 368.189 2.64178 -3.77554 0
M  V30 4078 H 366.504 2.51512 -3.31859 0
M  V30 4079 H 369.101 4.96106 -1.99456 0
M  V30 4080 H 369.444 4.13343 -0.495329 0
M  V30 4081 H 369.977 3.41754 -2.0359 0
M  V30 4082 H 366.716 4.38368 -4.87354 0
M  V30 4083 H 366.236 5.01951 -3.28337 0
M  V30 4084 H 367.915 5.2001 -3.84965 0
M  V30 4085 N 368.047 0.979072 1.23499 0
M  V30 4086 C 368.995 0.510604 2.26926 0
M  V30 4087 C 369.989 -0.431691 1.63807 0
M  V30 4088 O 371.195 -0.30573 1.77385 0
M  V30 4089 H 367.57 0.146688 0.737554 0
M  V30 4090 H 369.541 1.39466 2.63803 0
M  V30 4091 C 368.29 -0.172658 3.47271 0
M  V30 4092 H 367.613 0.543331 3.96091 0
M  V30 4093 H 369.053 -0.464101 4.21452 0
M  V30 4094 C 367.512 -1.40345 3.06276 0
M  V30 4095 O 368.042 -2.49978 3.14442 0
M  V30 4096 N 366.248 -1.27362 2.61203 0
M  V30 4097 H 365.795 -0.381584 2.54758 0
M  V30 4098 H 365.753 -2.09822 2.34141 0
M  V30 4099 N 369.525 -1.3858 0.750561 0
M  V30 4100 C 370.772 -2.00184 0.305373 0
M  V30 4101 C 371.1 -1.59575 -1.11203 0
M  V30 4102 O 370.355 -0.823236 -1.77542 0
M  V30 4103 C 370.654 -3.55455 0.372373 0
M  V30 4104 C 370.32 -4.15765 1.745 0
M  V30 4105 C 368.982 -4.31951 2.12065 0
M  V30 4106 C 371.334 -4.49067 2.64553 0
M  V30 4107 C 368.662 -4.78734 3.39162 0
M  V30 4108 C 371.014 -4.97265 3.91038 0
M  V30 4109 C 369.678 -5.11658 4.28676 0
M  V30 4110 H 368.948 -0.732526 0.111744 0
M  V30 4111 H 371.595 -1.65673 0.960451 0
M  V30 4112 H 369.9 -3.90084 -0.366272 0
M  V30 4113 H 371.597 -4.00999 0.00953918 0
M  V30 4114 H 368.187 -4.03579 1.44297 0
M  V30 4115 H 372.371 -4.36166 2.36796 0
M  V30 4116 H 367.627 -4.88062 3.68246 0
M  V30 4117 H 371.801 -5.22003 4.60962 0
M  V30 4118 H 369.428 -5.47668 5.27222 0
M  V30 4119 N 371.003 -0.499398 -1.49478 0
M  V30 4120 C 372.249 0.0457576 -2.02748 0
M  V30 4121 C 372.582 1.36793 -1.37846 0
M  V30 4122 O 371.857 1.87596 -0.513601 0
M  V30 4123 C 372.14 0.199986 -3.59544 0
M  V30 4124 C 371.993 -1.1452 -4.34977 0
M  V30 4125 C 373.312 0.94137 -4.29914 0
M  V30 4126 H 370.431 0.0151552 -0.736844 0
M  V30 4127 H 373.073 -0.650498 -1.78518 0
M  V30 4128 H 371.223 0.793007 -3.8032 0
M  V30 4129 H 372.895 -1.77697 -4.25701 0
M  V30 4130 H 371.138 -1.73488 -3.97598 0
M  V30 4131 H 371.809 -0.990607 -5.43039 0
M  V30 4132 H 374.285 0.43844 -4.13784 0
M  V30 4133 H 373.161 1.01812 -5.39375 0
M  V30 4134 H 373.422 1.98471 -3.95046 0
M  V30 4135 N 372.481 1.55866 -0.233164 0
M  V30 4136 C 373.727 1.98897 0.395959 0
M  V30 4137 C 374.06 1.12091 1.58585 0
M  V30 4138 O 373.335 0.181182 1.93654 0
M  V30 4139 C 373.618 3.50658 0.819224 0
M  V30 4140 C 373.471 4.48233 -0.375109 0
M  V30 4141 C 374.79 4.07135 1.67121 0
M  V30 4142 H 371.909 0.723102 0.142451 0
M  V30 4143 H 374.551 1.87082 -0.331725 0
M  V30 4144 H 372.701 3.60857 1.43925 0
M  V30 4145 H 374.373 4.50031 -1.01341 0
M  V30 4146 H 372.616 4.21624 -1.02058 0
M  V30 4147 H 373.287 5.51988 -0.0358328 0
M  V30 4148 H 375.763 3.99952 1.14795 0
M  V30 4149 H 374.639 5.13615 1.93625 0
M  V30 4150 H 374.9 3.54736 2.63846 0
M  V30 4151 N 373.959 -0.0401083 1.57549 0
M  V30 4152 C 375.236 -0.767917 1.79896 0
M  V30 4153 C 375.616 -1.9416 0.82856 0
M  V30 4154 O 374.964 -2.2812 -0.131671 0
M  V30 4155 C 375.174 -1.2113 3.27305 0
M  V30 4156 C 376.522 -1.63175 3.91994 0
M  V30 4157 O 377.546 -1.30616 3.31388 0
M  V30 4158 O 376.405 -2.23565 4.98679 0
M  V30 4159 H 373.499 -0.370441 0.739393 0
M  V30 4160 H 376.045 -0.017737 1.69691 0
M  V30 4161 H 374.817 -0.372937 3.89519 0
M  V30 4162 H 374.44 -2.02183 3.42356 0
M  V30 4163 N 375.437 -1.54477 -0.31217 0
M  V30 4164 C 376.4 -1.83923 -1.36766 0
M  V30 4165 C 377.4 -0.711563 -1.44199 0
M  V30 4166 O 378.59 -0.979866 -1.44029 0
M  V30 4167 C 375.722 -2.0095 -2.75376 0
M  V30 4168 H 376.915 -2.78239 -1.11906 0
M  V30 4169 H 374.468 -1.46369 -0.548257 0
M  V30 4170 H 375.203 -1.08883 -3.05475 0
M  V30 4171 H 374.988 -2.83018 -2.71373 0
M  V30 4172 H 376.478 -2.2514 -3.51713 0
M  V30 4173 N 376.915 0.57481 -1.46744 0
M  V30 4174 C 378.163 1.33009 -1.52161 0
M  V30 4175 C 378.484 1.94185 -0.178092 0
M  V30 4176 O 377.754 1.7899 0.796196 0
M  V30 4177 H 376.334 0.493873 -0.560445 0
M  V30 4178 H 378.996 0.672589 -1.82927 0
M  V30 4179 H 378.092 2.13273 -2.27862 0
M  V30 4180 N 378.394 1.34581 0.820102 0
M  V30 4181 C 379.342 1.26401 1.95258 0
M  V30 4182 C 380.336 0.161553 1.68628 0
M  V30 4183 O 381.542 0.326703 1.7701 0
M  V30 4184 H 377.917 0.392749 0.64129 0
M  V30 4185 H 379.888 2.22105 1.99279 0
M  V30 4186 C 378.637 1.03919 3.31807 0
M  V30 4187 H 377.96 1.87984 3.52848 0
M  V30 4188 H 379.4 1.02232 4.11491 0
M  V30 4189 C 377.859 -0.257433 3.35915 0
M  V30 4190 O 378.389 -1.25784 3.81499 0
M  V30 4191 N 376.595 -0.291524 2.89134 0
M  V30 4192 H 376.142 0.523161 2.52232 0
M  V30 4193 H 376.1 -1.15883 2.92264 0
M  V30 4194 N 379.872 -1.04064 1.18357 0
M  V30 4195 C 380.782 -2.15569 0.925596 0
M  V30 4196 C 381.798 -1.7365 -0.110295 0
M  V30 4197 O 382.974 -2.01273 0.0716218 0
M  V30 4198 C 380.039 -3.43704 0.454836 0
M  V30 4199 C 379.1 -4.00004 1.55869 0
M  V30 4200 C 378.333 -5.22023 1.1103 0
M  V30 4201 O 378.556 -5.70392 -0.0309756 0
M  V30 4202 O 377.49 -5.70856 1.90805 0
M  V30 4203 H 381.316 -2.40187 1.8586 0
M  V30 4204 H 378.901 -1.1402 0.965394 0
M  V30 4205 H 380.783 -4.20923 0.200382 0
M  V30 4206 H 379.458 -3.20559 -0.449876 0
M  V30 4207 H 378.365 -3.24172 1.86716 0
M  V30 4208 H 379.698 -4.2749 2.43953 0
M  V30 4209 N 381.35 -0.985608 -1.22978 0
M  V30 4210 C 382.298 -0.522631 -2.26652 0
M  V30 4211 C 383.292 0.422998 -1.64034 0
M  V30 4212 O 384.498 0.296319 -1.77544 0
M  V30 4213 H 380.873 -0.150597 -0.736766 0
M  V30 4214 H 382.844 -1.40863 -2.63059 0
M  V30 4215 C 381.593 0.154238 -3.47358 0
M  V30 4216 H 380.916 -0.564329 -3.95797 0
M  V30 4217 H 382.356 0.441744 -4.21693 0
M  V30 4218 C 380.815 1.38719 -3.07016 0
M  V30 4219 O 381.345 2.48307 -3.15764 0
M  V30 4220 N 379.551 1.25975 -2.61875 0
M  V30 4221 H 379.098 0.368068 -2.54957 0
M  V30 4222 H 379.056 2.08578 -2.3525 0
M  V30 4223 N 382.828 1.3818 -0.7579 0
M  V30 4224 C 383.758 2.33027 -0.148597 0
M  V30 4225 C 384.739 1.55085 0.69875 0
M  V30 4226 O 385.924 1.83384 0.639053 0
M  V30 4227 C 383.054 3.3928 0.742034 0
M  V30 4228 C 382.008 4.28 -0.00291946 0
M  V30 4229 C 381.334 5.25146 1.00625 0
M  V30 4230 C 382.634 5.08938 -1.17385 0
M  V30 4231 H 384.328 2.84231 -0.940909 0
M  V30 4232 H 381.874 1.36659 -0.453908 0
M  V30 4233 H 383.827 4.046 1.17799 0
M  V30 4234 H 382.551 2.86569 1.56671 0
M  V30 4235 H 381.21 3.64192 -0.419504 0
M  V30 4236 H 380.858 4.68721 1.8251 0
M  V30 4237 H 380.558 5.85361 0.512428 0
M  V30 4238 H 382.082 5.93342 1.44143 0
M  V30 4239 H 383.496 5.67474 -0.815224 0
M  V30 4240 H 381.893 5.7841 -1.59882 0
M  V30 4241 H 382.963 4.42424 -1.98468 0
M  V30 4242 N 384.306 0.507319 1.49211 0
M  V30 4243 C 385.553 -0.0349529 2.0247 0
M  V30 4244 C 385.881 -1.36409 1.38647 0
M  V30 4245 O 385.136 -1.88841 0.513566 0
M  V30 4246 C 385.435 -0.229513 3.56662 0
M  V30 4247 C 385.101 1.02241 4.39156 0
M  V30 4248 C 383.763 1.36557 4.61417 0
M  V30 4249 C 386.115 1.85428 4.871 0
M  V30 4250 C 383.443 2.53999 5.28868 0
M  V30 4251 C 385.795 3.02028 5.55843 0
M  V30 4252 C 384.459 3.36717 5.76349 0
M  V30 4253 H 383.729 -0.0127902 0.74089 0
M  V30 4254 H 386.376 0.668756 1.79443 0
M  V30 4255 H 384.681 -1.0158 3.78403 0
M  V30 4256 H 386.378 -0.663641 3.9547 0
M  V30 4257 H 382.968 0.745124 4.22073 0
M  V30 4258 H 387.152 1.6023 4.69723 0
M  V30 4259 H 382.408 2.81105 5.42946 0
M  V30 4260 H 386.582 3.66808 5.91967 0
M  V30 4261 H 384.209 4.27821 6.28389 0
M  V30 4262 N 385.784 -1.5574 0.241426 0
M  V30 4263 C 387.031 -1.9881 -0.384836 0
M  V30 4264 C 387.359 -1.12947 -1.58346 0
M  V30 4265 O 386.614 -0.178993 -1.9488 0
M  V30 4266 C 386.913 -3.47308 -0.843317 0
M  V30 4267 C 386.579 -4.50223 0.246946 0
M  V30 4268 C 385.241 -4.78088 0.546399 0
M  V30 4269 C 387.593 -5.11841 0.983282 0
M  V30 4270 C 384.921 -5.64846 1.58636 0
M  V30 4271 C 387.273 -5.99727 2.01272 0
M  V30 4272 C 385.937 -6.25927 2.31888 0
M  V30 4273 H 385.207 -0.727496 -0.140821 0
M  V30 4274 H 387.854 -1.8831 0.348106 0
M  V30 4275 H 386.159 -3.55112 -1.65537 0
M  V30 4276 H 387.856 -3.78017 -1.33806 0
M  V30 4277 H 384.446 -4.286 0.00340639 0
M  V30 4278 H 388.63 -4.90366 0.765182 0
M  V30 4279 H 383.886 -5.83403 1.82896 0
M  V30 4280 H 388.06 -6.46517 2.58823 0
M  V30 4281 H 385.687 -6.92949 3.12611 0
M  V30 4282 N 387.262 0.0317525 -1.57568 0
M  V30 4283 C 388.511 0.722131 -1.8833 0
M  V30 4284 C 388.824 1.76664 -0.839587 0
M  V30 4285 O 390.03 2.50942 -1.03635 0
M  V30 4286 C 388.486 1.33544 -3.34207 0
M  V30 4287 C 388.094 0.327415 -4.46802 0
M  V30 4288 C 389.838 2.00585 -3.7412 0
M  V30 4289 C 387.745 0.948915 -5.83738 0
M  V30 4290 H 386.675 0.273466 -0.702661 0
M  V30 4291 H 389.326 -0.0235811 -1.83485 0
M  V30 4292 H 387.708 2.13077 -3.33788 0
M  V30 4293 H 388.882 -0.441006 -4.58685 0
M  V30 4294 H 387.197 -0.240758 -4.15703 0
M  V30 4295 H 389.794 2.47932 -4.73744 0
M  V30 4296 H 390.137 2.82285 -3.05975 0
M  V30 4297 H 390.67 1.27831 -3.76702 0
M  V30 4298 H 387.409 0.171387 -6.55276 0
M  V30 4299 H 386.929 1.68724 -5.7558 0
M  V30 4300 H 388.608 1.45705 -6.3038 0
M  V30 4301 N 388.74 1.54641 0.303973 0
M  V30 4302 C 389.965 1.78092 1.06292 0
M  V30 4303 C 390.39 0.537342 1.80262 0
M  V30 4304 O 389.748 -0.511993 1.7392 0
M  V30 4305 C 389.796 2.98612 2.02147 0
M  V30 4306 O 388.9 2.71528 3.10397 0
M  V30 4307 H 388.241 0.589548 0.305497 0
M  V30 4308 H 390.771 2.01716 0.3423 0
M  V30 4309 H 390.781 3.265 2.44667 0
M  V30 4310 H 389.456 3.88785 1.47714 0
M  V30 4311 H 388.033 2.54648 2.72413 0
M  V30 4312 N 390.218 -0.567019 1.47046 0
M  V30 4313 C 391.629 -1.14916 1.47143 0
M  V30 4314 C 391.98 -1.94954 0.220767 0
M  V30 4315 O 391.105 -2.05602 -0.67505 0
M  V30 4316 C 391.7 -2.09069 2.666 0
M  V30 4317 C 390.259 -2.62575 2.69687 0
M  V30 4318 C 389.406 -1.38755 2.40088 0
M  V30 4319 H 392.357 -0.354126 1.54699 0
M  V30 4320 H 392.378 -2.92789 2.43011 0
M  V30 4321 H 391.89 -1.50789 3.57609 0
M  V30 4322 H 389.991 -3.24681 1.82792 0
M  V30 4323 H 390.104 -3.04239 3.70102 0
M  V30 4324 H 388.468 -1.69098 1.90468 0
M  V30 4325 H 389.251 -0.822822 3.33293 0
M  V30 4326 N 391.696 -1.35014 -0.812953 0
M  V30 4327 C 392.626 -1.30069 -1.93919 0
M  V30 4328 C 393.607 -0.176275 -1.69184 0
M  V30 4329 O 394.792 -0.370227 -1.90638 0
M  V30 4330 C 391.922 -1.06547 -3.30552 0
M  V30 4331 C 390.876 -2.15561 -3.69753 0
M  V30 4332 C 390.202 -1.77214 -5.04479 0
M  V30 4333 C 391.502 -3.57476 -3.808 0
M  V30 4334 H 393.196 -2.24303 -1.98314 0
M  V30 4335 H 390.742 -1.07977 -0.952736 0
M  V30 4336 H 392.695 -1.01729 -4.08937 0
M  V30 4337 H 391.419 -0.0875719 -3.26483 0
M  V30 4338 H 390.078 -2.19466 -2.9365 0
M  V30 4339 H 389.726 -0.780589 -4.96906 0
M  V30 4340 H 389.426 -2.50184 -5.31678 0
M  V30 4341 H 390.95 -1.7391 -5.8531 0
M  V30 4342 H 392.364 -3.55929 -4.4943 0
M  V30 4343 H 390.761 -4.29152 -4.19462 0
M  V30 4344 H 391.831 -3.94091 -2.82525 0
M  V30 4345 N 393.175 1.03435 -1.18907 0
M  V30 4346 C 394.403 1.80381 -1.01342 0
M  V30 4347 C 394.818 1.83649 0.438005 0
M  V30 4348 O 394.175 1.27655 1.30424 0
M  V30 4349 C 394.226 3.25689 -1.56873 0
M  V30 4350 O 393.947 3.22673 -2.96334 0
M  V30 4351 C 395.448 4.19255 -1.44014 0
M  V30 4352 H 392.668 0.56784 -0.35749 0
M  V30 4353 H 395.212 1.30317 -1.576 0
M  V30 4354 H 393.367 3.72962 -1.04777 0
M  V30 4355 H 393.781 4.13748 -3.22355 0
M  V30 4356 H 395.255 5.19123 -1.87657 0
M  V30 4357 H 395.732 4.37467 -0.389815 0
M  V30 4358 H 396.338 3.77851 -1.95214 0
M  V30 4359 N 394.653 0.992116 1.22453 0
M  V30 4360 C 395.902 0.662992 1.90492 0
M  V30 4361 C 396.215 -0.808407 1.78113 0
M  V30 4362 O 397.421 -1.24908 2.41061 0
M  V30 4363 C 395.877 1.1353 3.41524 0
M  V30 4364 C 395.485 2.63187 3.62542 0
M  V30 4365 C 397.229 0.880465 4.15269 0
M  V30 4366 C 395.136 3.04024 5.0727 0
M  V30 4367 H 394.066 0.244278 0.713333 0
M  V30 4368 H 396.717 1.20157 1.38688 0
M  V30 4369 H 395.099 0.52485 3.92506 0
M  V30 4370 H 396.273 3.2957 3.22056 0
M  V30 4371 H 394.588 2.86543 3.02129 0
M  V30 4372 H 397.185 1.16128 5.21937 0
M  V30 4373 H 397.528 -0.183408 4.15896 0
M  V30 4374 H 398.061 1.45307 3.70312 0
M  V30 4375 H 394.8 4.09584 5.11782 0
M  V30 4376 H 394.32 2.42343 5.48662 0
M  V30 4377 H 395.999 2.95282 5.75689 0
M  V30 4378 N 396.131 -1.37776 0.765217 0
M  V30 4379 C 397.361 -2.03828 0.337277 0
M  V30 4380 C 397.769 -1.57841 -1.04321 0
M  V30 4381 O 397.112 -0.752043 -1.67601 0
M  V30 4382 C 397.174 -3.58292 0.294407 0
M  V30 4383 C 396.838 -4.27384 1.61838 0
M  V30 4384 C 397.835 -4.51956 2.56967 0
M  V30 4385 C 395.52 -4.65345 1.89102 0
M  V30 4386 C 397.514 -5.13536 3.77571 0
M  V30 4387 C 395.201 -5.26647 3.09978 0
M  V30 4388 C 396.199 -5.50679 4.04032 0
M  V30 4389 O 395.887 -6.10702 5.2278 0
M  V30 4390 H 395.619 -0.661292 0.140248 0
M  V30 4391 H 398.173 -1.77222 1.03834 0
M  V30 4392 H 396.403 -3.83918 -0.462983 0
M  V30 4393 H 398.092 -4.05763 -0.105581 0
M  V30 4394 H 398.858 -4.23048 2.37183 0
M  V30 4395 H 394.737 -4.45978 1.16725 0
M  V30 4396 H 398.281 -5.3221 4.50997 0
M  V30 4397 H 394.178 -5.54979 3.29649 0
M  V30 4398 H 394.946 -6.29183 5.23517 0
M  V30 4399 N 397.609 -0.515225 -1.4894 0
M  V30 4400 C 398.559 0.275113 -2.26334 0
M  V30 4401 C 399.543 0.923007 -1.31793 0
M  V30 4402 O 400.735 0.828254 -1.56426 0
M  V30 4403 C 397.864 1.33041 -3.16473 0
M  V30 4404 C 396.95 0.688051 -4.18481 0
M  V30 4405 N 397.341 -0.217638 -5.05332 0
M  V30 4406 C 395.639 0.94699 -4.3583 0
M  V30 4407 C 396.34 -0.58676 -5.78733 0
M  V30 4408 N 395.316 0.0486966 -5.43578 0
M  V30 4409 H 399.118 -0.421876 -2.90856 0
M  V30 4410 H 396.632 -0.332249 -1.58965 0
M  V30 4411 H 398.629 1.9102 -3.70563 0
M  V30 4412 H 397.289 2.02894 -2.53504 0
M  V30 4413 H 398.3 -0.589343 -5.14536 0
M  V30 4414 H 394.977 1.63719 -3.8406 0
M  V30 4415 H 396.367 -1.32855 -6.58634 0
M  V30 4416 N 399.087 1.5561 -0.249682 0
M  V30 4417 C 400.333 1.99306 0.374841 0
M  V30 4418 C 400.666 1.13767 1.57387 0
M  V30 4419 O 399.941 0.201711 1.93451 0
M  V30 4420 C 400.224 3.51507 0.781986 0
M  V30 4421 C 400.077 4.4781 -0.422629 0
M  V30 4422 C 401.396 4.08884 1.62793 0
M  V30 4423 H 398.515 0.724572 0.134773 0
M  V30 4424 H 401.157 1.86719 -0.351549 0
M  V30 4425 H 399.307 3.62363 1.4009 0
M  V30 4426 H 400.979 4.48931 -1.06108 0
M  V30 4427 H 399.222 4.20518 -1.06524 0
M  V30 4428 H 399.893 5.51919 -0.0943766 0
M  V30 4429 H 402.369 4.01147 1.10547 0
M  V30 4430 H 401.245 5.1564 1.88166 0
M  V30 4431 H 401.506 3.57515 2.60068 0
M  V30 4432 N 400.565 -0.0233959 1.57583 0
M  V30 4433 C 401.814 -0.712133 1.8871 0
M  V30 4434 C 402.127 -1.76217 0.848944 0
M  V30 4435 O 403.333 -2.50389 1.04964 0
M  V30 4436 C 401.789 -1.3177 3.3491 0
M  V30 4437 C 401.397 -0.303715 4.46969 0
M  V30 4438 C 403.141 -1.98598 3.75179 0
M  V30 4439 C 401.048 -0.917945 5.84233 0
M  V30 4440 H 399.978 -0.269735 0.704101 0
M  V30 4441 H 402.629 0.0333114 1.8347 0
M  V30 4442 H 401.011 -2.11304 3.34913 0
M  V30 4443 H 402.185 0.465325 4.58445 0
M  V30 4444 H 400.5 0.2628 4.1557 0
M  V30 4445 H 403.097 -2.45416 4.75053 0
M  V30 4446 H 403.44 -2.80659 3.07468 0
M  V30 4447 H 403.973 -1.25831 3.77374 0
M  V30 4448 H 400.712 -0.136633 6.55358 0
M  V30 4449 H 400.232 -1.65669 5.76467 0
M  V30 4450 H 401.911 -1.4236 6.31144 0
M  V30 4451 N 402.043 -1.548 -0.295768 0
M  V30 4452 C 403.32 -1.65014 -1.05023 0
M  V30 4453 C 403.7 -0.501805 -2.05049 0
M  V30 4454 O 403.048 0.500869 -2.22943 0
M  V30 4455 C 403.258 -3.03252 -1.72741 0
M  V30 4456 C 404.606 -3.60242 -2.24746 0
M  V30 4457 O 405.63 -3.05737 -1.82765 0
M  V30 4458 O 404.489 -4.55687 -3.01681 0
M  V30 4459 H 401.583 -0.669314 -0.485744 0
M  V30 4460 H 404.129 -1.67144 -0.293438 0
M  V30 4461 H 402.901 -3.7827 -1.00138 0
M  V30 4462 H 402.524 -3.04922 -2.55163 0
M  V30 4463 N 403.521 0.559213 -1.47345 0
M  V30 4464 C 404.471 1.66192 -1.5609 0
M  V30 4465 C 405.455 1.55323 -0.419957 0
M  V30 4466 O 406.647 1.63839 -0.669762 0
M  V30 4467 C 403.776 3.0497 -1.57634 0
M  V30 4468 C 402.862 3.2105 -2.77106 0
M  V30 4469 N 403.253 3.07203 -4.01821 0
M  V30 4470 C 401.551 3.52046 -2.73825 0
M  V30 4471 C 402.252 3.25919 -4.81821 0
M  V30 4472 N 401.228 3.52161 -4.14106 0
M  V30 4473 H 405.03 1.54052 -2.5029 0
M  V30 4474 H 402.544 0.763914 -1.43311 0
M  V30 4475 H 404.541 3.84142 -1.61989 0
M  V30 4476 H 403.201 3.18224 -0.645281 0
M  V30 4477 H 404.212 2.84572 -4.32711 0
M  V30 4478 H 400.889 3.71839 -1.89848 0
M  V30 4479 H 402.279 3.20198 -5.90697 0
M  V30 4480 N 404.999 1.35443 0.805782 0
M  V30 4481 C 405.947 1.28465 1.93906 0
M  V30 4482 C 406.941 0.17943 1.68447 0
M  V30 4483 O 408.147 0.345459 1.76654 0
M  V30 4484 H 404.522 0.399528 0.637088 0
M  V30 4485 H 406.493 2.24206 1.96912 0
M  V30 4486 C 405.242 1.07432 3.30687 0
M  V30 4487 H 404.565 1.91716 3.50835 0
M  V30 4488 H 406.005 1.06591 4.10383 0
M  V30 4489 C 404.464 -0.22179 3.36169 0
M  V30 4490 O 404.994 -1.21731 3.82811 0
M  V30 4491 N 403.2 -0.260841 2.89427 0
M  V30 4492 H 402.747 0.549884 2.51663 0
M  V30 4493 H 402.705 -1.12777 2.93477 0
M  V30 4494 N 406.477 -1.02803 1.19454 0
M  V30 4495 C 407.702 -1.80378 1.02364 0
M  V30 4496 C 408.127 -1.83282 -0.423007 0
M  V30 4497 O 407.485 -1.25945 -1.30413 0
M  V30 4498 C 407.533 -3.23248 1.59821 0
M  V30 4499 O 406.637 -4.04 0.828105 0
M  V30 4500 H 405.978 -0.556799 0.361761 0
M  V30 4501 H 408.508 -1.29385 1.58495 0
M  V30 4502 H 408.518 -3.73994 1.63073 0
M  V30 4503 H 407.193 -3.2045 2.65113 0
M  V30 4504 H 405.77 -3.62635 0.86891 0
M  V30 4505 N 407.956 -0.998596 -1.21925 0
M  V30 4506 C 409.367 -0.711939 -1.72593 0
M  V30 4507 C 409.718 0.770842 -1.80423 0
M  V30 4508 O 408.843 1.60237 -1.4544 0
M  V30 4509 C 409.438 -1.28567 -3.13458 0
M  V30 4510 C 407.997 -1.04828 -3.61508 0
M  V30 4511 C 407.144 -1.4024 -2.39224 0
M  V30 4512 H 410.095 -1.17027 -1.07193 0
M  V30 4513 H 410.116 -0.667098 -3.74607 0
M  V30 4514 H 409.628 -2.36486 -3.07727 0
M  V30 4515 H 407.729 0.0140383 -3.72597 0
M  V30 4516 H 407.842 -1.71566 -4.47328 0
M  V30 4517 H 406.206 -0.821077 -2.41103 0
M  V30 4518 H 406.989 -2.49176 -2.36149 0
M  V30 4519 N 409.434 1.37368 -0.772513 0
M  V30 4520 C 410.681 1.99673 -0.337182 0
M  V30 4521 C 411.009 1.61324 1.0865 0
M  V30 4522 O 410.264 0.851377 1.7621 0
M  V30 4523 C 410.563 3.54817 -0.428876 0
M  V30 4524 C 410.229 4.12936 -1.81092 0
M  V30 4525 C 408.891 4.28523 -2.1891 0
M  V30 4526 C 411.243 4.44801 -2.71664 0
M  V30 4527 C 408.571 4.73277 -3.46735 0
M  V30 4528 C 410.923 4.90981 -3.98899 0
M  V30 4529 C 409.587 5.04773 -4.36761 0
M  V30 4530 H 408.857 0.730656 -0.123384 0
M  V30 4531 H 411.504 1.64124 -0.986686 0
M  V30 4532 H 409.809 3.90618 0.304167 0
M  V30 4533 H 411.506 4.00933 -0.0733334 0
M  V30 4534 H 408.096 4.01233 -1.50699 0
M  V30 4535 H 412.28 4.32344 -2.43706 0
M  V30 4536 H 407.536 4.82142 -3.75964 0
M  V30 4537 H 411.71 5.14603 -4.69208 0
M  V30 4538 H 409.337 5.39211 -5.35868 0
M  V30 4539 N 410.912 0.523116 1.48665 0
M  V30 4540 C 412.159 -0.0134763 2.02496 0
M  V30 4541 C 412.487 -1.3493 1.40086 0
M  V30 4542 O 411.742 -1.88286 0.533567 0
M  V30 4543 C 412.041 -0.191671 3.56886 0
M  V30 4544 C 411.707 1.06893 4.38046 0
M  V30 4545 C 410.369 1.41443 4.59943 0
M  V30 4546 C 412.721 1.90584 4.85106 0
M  V30 4547 C 410.049 2.59594 5.26144 0
M  V30 4548 C 412.401 3.07907 5.52609 0
M  V30 4549 C 411.065 3.42811 5.72745 0
M  V30 4550 H 410.335 -0.00493133 0.740984 0
M  V30 4551 H 412.982 0.687751 1.78724 0
M  V30 4552 H 411.287 -0.97561 3.79459 0
M  V30 4553 H 412.984 -0.621659 3.96152 0
M  V30 4554 H 409.574 0.789848 4.21259 0
M  V30 4555 H 413.758 1.65203 4.67997 0
M  V30 4556 H 409.014 2.86847 5.39934 0
M  V30 4557 H 413.188 3.73066 5.88043 0
M  V30 4558 H 410.815 4.34462 6.23816 0
M  V30 4559 N 412.39 -1.55475 0.257931 0
M  V30 4560 C 413.34 -2.18506 -0.651094 0
M  V30 4561 C 414.324 -1.14431 -1.13112 0
M  V30 4562 O 415.516 -1.40305 -1.07905 0
M  V30 4563 C 412.645 -2.89653 -1.84272 0
M  V30 4564 C 411.731 -4.00996 -1.38068 0
M  V30 4565 N 412.122 -5.01816 -0.633609 0
M  V30 4566 C 410.42 -4.13753 -1.66506 0
M  V30 4567 C 411.121 -5.80371 -0.392922 0
M  V30 4568 N 410.097 -5.3505 -0.960359 0
M  V30 4569 H 413.899 -2.93811 -0.0722883 0
M  V30 4570 H 411.413 -1.62286 0.0607256 0
M  V30 4571 H 413.41 -3.33245 -2.50506 0
M  V30 4572 H 412.07 -2.15854 -2.42564 0
M  V30 4573 H 413.081 -5.17128 -0.282626 0
M  V30 4574 H 409.758 -3.51133 -2.25858 0
M  V30 4575 H 411.148 -6.7159 0.204235 0
M  V30 4576 N 413.868 0.0150385 -1.57593 0
M  V30 4577 C 414.801 1.04475 -2.0288 0
M  V30 4578 C 415.779 1.3436 -0.915764 0
M  V30 4579 O 416.963 1.46779 -1.18271 0
M  V30 4580 C 414.09 2.37608 -2.41371 0
M  V30 4581 C 413.136 2.23487 -3.63257 0
M  V30 4582 S 413.969 1.57505 -5.11813 0
M  V30 4583 C 415.125 2.921 -5.5356 0
M  V30 4584 H 415.358 0.65907 -2.89903 0
M  V30 4585 H 412.891 0.225452 -1.52745 0
M  V30 4586 H 414.849 3.14165 -2.64217 0
M  V30 4587 H 413.51 2.7332 -1.54775 0
M  V30 4588 H 412.703 3.21802 -3.87891 0
M  V30 4589 H 412.305 1.55074 -3.40335 0
M  V30 4590 H 414.597 3.88419 -5.55101 0
M  V30 4591 H 415.54 2.72184 -6.53698 0
M  V30 4592 H 415.948 2.95318 -4.8109 0
M  V30 4593 N 415.346 1.54954 0.287554 0
M  V30 4594 C 416.309 1.86076 1.33823 0
M  V30 4595 C 417.309 0.734414 1.43049 0
M  V30 4596 O 418.499 1.00266 1.42452 0
M  V30 4597 C 415.631 2.05305 2.72144 0
M  V30 4598 H 416.824 2.79984 1.07465 0
M  V30 4599 H 414.377 1.47223 0.524902 0
M  V30 4600 H 415.112 1.1373 3.03704 0
M  V30 4601 H 414.897 2.873 2.66836 0
M  V30 4602 H 416.387 2.30706 3.48087 0
M  V30 4603 N 416.824 -0.551391 1.4764 0
M  V30 4604 C 417.787 -1.64007 1.60107 0
M  V30 4605 C 418.787 -1.53601 0.47576 0
M  V30 4606 O 419.977 -1.57655 0.740988 0
M  V30 4607 C 417.109 -3.03569 1.55108 0
M  V30 4608 H 418.302 -1.543 2.57161 0
M  V30 4609 H 415.855 -0.771776 1.35917 0
M  V30 4610 H 416.59 -3.18804 0.594519 0
M  V30 4611 H 416.375 -3.12532 2.36783 0
M  V30 4612 H 417.865 -3.82762 1.66982 0
M  V30 4613 N 418.302 -1.35869 -0.798587 0
M  V30 4614 C 419.212 -1.31578 -1.94228 0
M  V30 4615 C 420.228 -0.21939 -1.72611 0
M  V30 4616 O 421.404 -0.450167 -1.96305 0
M  V30 4617 C 418.469 -1.09528 -3.28944 0
M  V30 4618 C 417.53 -2.28556 -3.63402 0
M  V30 4619 C 416.763 -2.07549 -4.9169 0
M  V30 4620 O 416.986 -1.046 -5.60727 0
M  V30 4621 O 415.92 -2.95106 -5.24591 0
M  V30 4622 H 419.746 -2.27847 -2.00796 0
M  V30 4623 H 417.331 -1.16322 -0.937526 0
M  V30 4624 H 419.213 -0.991127 -4.09579 0
M  V30 4625 H 417.888 -0.16315 -3.23289 0
M  V30 4626 H 416.795 -2.44538 -2.83112 0
M  V30 4627 H 418.128 -3.20244 -3.73771 0
M  V30 4628 N 419.78 1.02168 -1.19998 0
M  V30 4629 C 421.008 1.79296 -1.03249 0
M  V30 4630 C 421.423 1.84103 0.418502 0
M  V30 4631 O 420.78 1.29031 1.29063 0
M  V30 4632 C 420.831 3.24007 -1.60319 0
M  V30 4633 O 420.552 3.19512 -2.99739 0
M  V30 4634 C 422.053 4.17704 -1.48453 0
M  V30 4635 H 419.273 0.564016 -0.363493 0
M  V30 4636 H 421.817 1.28639 -1.58973 0
M  V30 4637 H 419.972 3.7183 -1.08727 0
M  V30 4638 H 420.386 4.10306 -3.26725 0
M  V30 4639 H 421.86 5.17104 -1.93153 0
M  V30 4640 H 422.337 4.37029 -0.436193 0
M  V30 4641 H 422.943 3.7576 -1.99211 0
M  V30 4642 N 421.258 1.00505 1.21394 0
M  V30 4643 C 422.188 0.585684 2.26035 0
M  V30 4644 C 423.169 -0.393525 1.65485 0
M  V30 4645 O 424.354 -0.281497 1.92149 0
M  V30 4646 C 421.484 -0.0884283 3.47187 0
M  V30 4647 C 420.438 0.810567 4.20254 0
M  V30 4648 C 419.764 0.00286382 5.347 0
M  V30 4649 C 421.064 2.1132 4.77641 0
M  V30 4650 H 422.758 1.46039 2.61368 0
M  V30 4651 H 420.304 0.703648 1.25638 0
M  V30 4652 H 422.257 -0.393286 4.19561 0
M  V30 4653 H 420.981 -0.997766 3.10986 0
M  V30 4654 H 419.64 1.09925 3.49731 0
M  V30 4655 H 419.288 -0.907765 4.94741 0
M  V30 4656 H 418.988 0.601444 5.84514 0
M  V30 4657 H 420.512 -0.295808 6.09883 0
M  V30 4658 H 421.926 1.87148 5.41893 0
M  V30 4659 H 420.323 2.66164 5.37845 0
M  V30 4660 H 421.393 2.78393 3.9702 0
M  V30 4661 N 422.737 -1.36956 0.779787 0
M  V30 4662 C 423.667 -2.32761 0.185651 0
M  V30 4663 C 424.648 -1.56177 -0.673989 0
M  V30 4664 O 425.833 -1.84378 -0.609797 0
M  V30 4665 C 422.963 -3.40418 -0.687964 0
M  V30 4666 C 421.917 -4.27941 0.0710102 0
M  V30 4667 C 421.243 -5.26681 -0.922573 0
M  V30 4668 C 422.543 -5.07006 1.25467 0
M  V30 4669 H 424.237 -2.82698 0.986008 0
M  V30 4670 H 421.783 -1.3592 0.475592 0
M  V30 4671 H 423.736 -4.06423 -1.11348 0
M  V30 4672 H 422.46 -2.89025 -1.52093 0
M  V30 4673 H 421.119 -3.63478 0.47739 0
M  V30 4674 H 420.767 -4.71565 -1.7503 0
M  V30 4675 H 420.467 -5.86103 -0.419237 0
M  V30 4676 H 421.991 -5.9556 -1.34686 0
M  V30 4677 H 423.405 -5.66105 0.905401 0
M  V30 4678 H 421.802 -5.75793 1.69063 0
M  V30 4679 H 422.872 -4.3921 2.05481 0
M  V30 4680 N 424.215 -0.530993 -1.48385 0
M  V30 4681 C 425.147 0.268353 -2.27624 0
M  V30 4682 C 426.16 0.903525 -1.35426 0
M  V30 4683 O 427.349 0.781796 -1.60469 0
M  V30 4684 C 424.449 1.39535 -3.08842 0
M  V30 4685 C 423.622 0.861913 -4.28824 0
M  V30 4686 C 422.681 1.87016 -4.91845 0
M  V30 4687 O 421.707 1.4267 -5.5103 0
M  V30 4688 N 422.909 3.20238 -4.84178 0
M  V30 4689 H 425.674 -0.41123 -2.96865 0
M  V30 4690 H 423.235 -0.365387 -1.57723 0
M  V30 4691 H 425.227 2.06803 -3.47871 0
M  V30 4692 H 423.797 1.97859 -2.42014 0
M  V30 4693 H 423.017 0.0132126 -3.94198 0
M  V30 4694 H 424.305 0.484415 -5.06489 0
M  V30 4695 H 423.703 3.58932 -4.37246 0
M  V30 4696 H 422.26 3.83136 -5.27305 0
M  V30 4697 N 425.693 1.55336 -0.266172 0
M  V30 4698 C 426.625 2.19544 0.658247 0
M  V30 4699 C 427.638 1.17746 1.12427 0
M  V30 4700 O 428.827 1.44517 1.04772 0
M  V30 4701 C 425.927 2.80032 1.9088 0
M  V30 4702 C 425.1 4.07436 1.59106 0
M  V30 4703 C 424.159 4.52056 2.69317 0
M  V30 4704 O 423.185 5.18023 2.35883 0
M  V30 4705 N 424.387 4.21448 3.99201 0
M  V30 4706 H 427.152 2.99503 0.108754 0
M  V30 4707 H 424.713 1.61667 -0.0869059 0
M  V30 4708 H 426.705 3.06831 2.63888 0
M  V30 4709 H 425.275 2.04119 2.36758 0
M  V30 4710 H 424.495 3.88021 0.695243 0
M  V30 4711 H 425.783 4.90462 1.35367 0
M  V30 4712 H 425.181 3.68528 4.29189 0
M  V30 4713 H 423.738 4.53039 4.68614 0
M  V30 4714 N 427.171 -0.0066808 1.57599 0
M  V30 4715 C 428.448 -0.729586 1.81484 0
M  V30 4716 C 428.828 -1.92359 0.869558 0
M  V30 4717 O 428.176 -2.28348 -0.0832533 0
M  V30 4718 C 428.386 -1.1416 3.29801 0
M  V30 4719 C 429.734 -1.54823 3.95367 0
M  V30 4720 O 430.758 -1.23558 3.34084 0
M  V30 4721 O 429.617 -2.12937 5.03309 0
M  V30 4722 H 426.711 -0.354674 0.747085 0
M  V30 4723 H 429.257 0.0182609 1.6969 0
M  V30 4724 H 428.029 -0.290231 3.90222 0
M  V30 4725 H 427.652 -1.94876 3.46568 0
M  V30 4726 N 428.649 -1.55105 -0.279332 0
M  V30 4727 C 429.896 -1.75412 -1.01177 0
M  V30 4728 C 430.224 -0.551728 -1.86511 0
M  V30 4729 O 429.479 0.465919 -1.90073 0
M  V30 4730 C 429.778 -3.0086 -1.92919 0
M  V30 4731 C 429.444 -4.33689 -1.23387 0
M  V30 4732 C 428.106 -4.69792 -1.04159 0
M  V30 4733 C 430.458 -5.15941 -0.738562 0
M  V30 4734 C 427.786 -5.85707 -0.341166 0
M  V30 4735 C 430.138 -6.32579 -0.0517636 0
M  V30 4736 C 428.802 -6.67326 0.152292 0
M  V30 4737 H 428.072 -0.641879 -0.370233 0
M  V30 4738 H 430.719 -1.89373 -0.284627 0
M  V30 4739 H 429.024 -2.81773 -2.72234 0
M  V30 4740 H 430.721 -3.13768 -2.49701 0
M  V30 4741 H 427.311 -4.05309 -1.39364 0
M  V30 4742 H 431.495 -4.8853 -0.874764 0
M  V30 4743 H 426.751 -6.11157 -0.172287 0
M  V30 4744 H 430.925 -6.9557 0.339828 0
M  V30 4745 H 428.552 -7.56998 0.697014 0
M  V30 4746 N 430.127 0.543554 -1.4793 0
M  V30 4747 C 431.037 1.67657 -1.64098 0
M  V30 4748 C 432.053 1.65934 -0.523622 0
M  V30 4749 O 433.229 1.85133 -0.792943 0
M  V30 4750 C 430.294 3.04146 -1.66421 0
M  V30 4751 C 429.355 3.16831 -2.89684 0
M  V30 4752 C 428.588 4.46809 -2.91886 0
M  V30 4753 O 428.811 5.33095 -2.02895 0
M  V30 4754 O 427.745 4.63573 -3.83906 0
M  V30 4755 H 431.571 1.56957 -2.59997 0
M  V30 4756 H 429.156 0.715116 -1.31173 0
M  V30 4757 H 431.038 3.85346 -1.70548 0
M  V30 4758 H 429.713 3.152 -0.736923 0
M  V30 4759 H 428.62 2.34977 -2.91095 0
M  V30 4760 H 429.953 3.10687 -3.81752 0
M  V30 4761 N 431.605 1.3629 0.791371 0
M  V30 4762 C 432.535 1.33137 1.91825 0
M  V30 4763 C 433.516 0.203168 1.68882 0
M  V30 4764 O 434.701 0.400509 1.90025 0
M  V30 4765 C 431.831 1.11793 3.28816 0
M  V30 4766 C 430.785 2.21417 3.66277 0
M  V30 4767 C 430.111 1.85218 5.01596 0
M  V30 4768 C 431.411 3.63489 3.75064 0
M  V30 4769 H 433.105 2.2743 1.9472 0
M  V30 4770 H 430.651 1.09479 0.935437 0
M  V30 4771 H 432.604 1.08222 4.07266 0
M  V30 4772 H 431.328 0.139501 3.26302 0
M  V30 4773 H 429.987 2.2411 2.90121 0
M  V30 4774 H 429.635 0.859544 4.95602 0
M  V30 4775 H 429.335 2.58611 5.27631 0
M  V30 4776 H 430.859 1.832 5.82469 0
M  V30 4777 H 432.273 3.63034 4.43711 0
M  V30 4778 H 430.67 4.35771 4.12582 0
M  V30 4779 H 431.74 3.98536 2.76219 0
M  V30 4780 N 433.083 -1.0153 1.20538 0
M  V30 4781 C 434.329 -1.75408 1.01783 0
M  V30 4782 C 434.662 -1.88943 -0.448814 0
M  V30 4783 O 433.937 -1.4162 -1.33319 0
M  V30 4784 C 434.22 -3.17255 1.70356 0
M  V30 4785 C 434.073 -3.11508 3.24473 0
M  V30 4786 C 435.392 -4.15955 1.43769 0
M  V30 4787 H 432.511 -0.636713 0.371167 0
M  V30 4788 H 435.153 -1.18436 1.4857 0
M  V30 4789 H 433.303 -3.65898 1.30578 0
M  V30 4790 H 434.975 -2.70658 3.73553 0
M  V30 4791 H 433.218 -2.4887 3.55311 0
M  V30 4792 H 433.889 -4.11784 3.67611 0
M  V30 4793 H 436.365 -3.75973 1.7828 0
M  V30 4794 H 435.241 -5.13368 1.94279 0
M  V30 4795 H 435.502 -4.40586 0.365564 0
M  V30 4796 N 434.561 -1.01147 -1.20859 0
M  V30 4797 C 435.807 -0.698899 -1.90377 0
M  V30 4798 C 436.14 0.76904 -1.78324 0
M  V30 4799 O 435.415 1.55817 -1.16409 0
M  V30 4800 C 435.698 -1.12878 -3.41951 0
M  V30 4801 C 435.551 -2.65665 -3.62963 0
M  V30 4802 C 436.87 -0.696114 -4.3456 0
M  V30 4803 H 433.989 -0.255372 -0.691342 0
M  V30 4804 H 436.631 -1.25831 -1.42361 0
M  V30 4805 H 434.781 -0.652827 -3.82976 0
M  V30 4806 H 436.453 -3.21074 -3.31224 0
M  V30 4807 H 434.696 -3.06878 -3.06608 0
M  V30 4808 H 435.367 -2.90797 -4.69192 0
M  V30 4809 H 437.843 -1.10521 -4.01154 0
M  V30 4810 H 436.719 -1.025 -5.39245 0
M  V30 4811 H 436.98 0.402465 -4.40264 0
M  V30 4812 N 436.039 1.36541 -0.78704 0
M  V30 4813 C 437.286 1.99304 -0.358341 0
M  V30 4814 C 437.614 1.62467 1.06933 0
M  V30 4815 O 436.869 0.870019 1.75297 0
M  V30 4816 C 437.168 3.54343 -0.466485 0
M  V30 4817 C 436.834 4.10993 -1.85461 0
M  V30 4818 C 435.496 4.26177 -2.23443 0
M  V30 4819 C 437.848 4.41895 -2.76366 0
M  V30 4820 C 435.176 4.69573 -3.51736 0
M  V30 4821 C 437.528 4.86722 -4.04084 0
M  V30 4822 C 436.192 5.00112 -4.42091 0
M  V30 4823 H 435.462 0.729306 -0.131126 0
M  V30 4824 H 438.109 1.63068 -1.00404 0
M  V30 4825 H 436.414 3.90918 0.262719 0
M  V30 4826 H 438.111 4.00833 -0.115854 0
M  V30 4827 H 434.701 3.99612 -1.54946 0
M  V30 4828 H 438.885 4.29735 -2.48277 0
M  V30 4829 H 434.141 4.78127 -3.81057 0
M  V30 4830 H 438.315 5.09598 -4.7464 0
M  V30 4831 H 435.942 5.33498 -5.41557 0
M  V30 4832 N 437.518 0.538854 1.48102 0
M  V30 4833 C 438.448 -0.207654 2.32575 0
M  V30 4834 C 439.429 -0.926559 1.4265 0
M  V30 4835 O 440.614 -0.91061 1.71527 0
M  V30 4836 C 437.744 -1.24957 3.24042 0
M  V30 4837 C 436.698 -0.648263 4.23062 0
M  V30 4838 C 436.024 -1.79348 5.03725 0
M  V30 4839 C 437.324 0.385897 5.20872 0
M  V30 4840 H 439.018 0.497534 2.95237 0
M  V30 4841 H 436.564 0.240715 1.41974 0
M  V30 4842 H 438.517 -1.77983 3.81969 0
M  V30 4843 H 437.241 -1.98446 2.59397 0
M  V30 4844 H 435.9 -0.139452 3.66335 0
M  V30 4845 H 435.548 -2.51696 4.35498 0
M  V30 4846 H 435.248 -1.39702 5.70751 0
M  V30 4847 H 436.772 -2.32735 5.64506 0
M  V30 4848 H 438.186 -0.057607 5.73271 0
M  V30 4849 H 436.583 0.700227 5.96001 0
M  V30 4850 H 437.653 1.28848 4.67468 0
M  V30 4851 N 438.996 -1.55193 0.274407 0
M  V30 4852 C 440.273 -1.91584 -0.394331 0
M  V30 4853 C 440.653 -1.19858 -1.73774 0
M  V30 4854 O 440.001 -0.3252 -2.26174 0
M  V30 4855 C 440.211 -3.4487 -0.535311 0
M  V30 4856 C 441.559 -4.16636 -0.818534 0
M  V30 4857 O 442.583 -3.5076 -0.620146 0
M  V30 4858 O 441.442 -5.33209 -1.19792 0
M  V30 4859 H 438.536 -0.798349 -0.215794 0
M  V30 4860 H 441.082 -1.66646 0.320507 0
M  V30 4861 H 439.854 -3.89145 0.410141 0
M  V30 4862 H 439.477 -3.75759 -1.29964 0
M  V30 4863 N 440.474 -0.00167713 -1.576 0
M  V30 4864 C 441.722 0.681471 -1.90264 0
M  V30 4865 C 442.043 1.7422 -0.875924 0
M  V30 4866 O 441.313 1.95709 0.0864412 0
M  V30 4867 H 439.893 0.254696 -0.702239 0
M  V30 4868 H 442.555 -0.0429996 -1.94853 0
M  V30 4869 H 441.651 1.15166 -2.90075 0
M  V30 4870 N 441.952 1.55251 0.271103 0
M  V30 4871 C 443.18 1.79974 1.02064 0
M  V30 4872 C 443.595 0.574003 1.79863 0
M  V30 4873 O 442.952 -0.456962 1.76686 0
M  V30 4874 C 443.003 3.02603 1.97772 0
M  V30 4875 O 442.724 4.20443 1.23124 0
M  V30 4876 C 444.225 3.39944 2.84522 0
M  V30 4877 H 441.445 0.599489 0.301419 0
M  V30 4878 H 443.989 2.02268 0.301313 0
M  V30 4879 H 442.144 2.8243 2.65165 0
M  V30 4880 H 442.558 4.89783 1.87651 0
M  V30 4881 H 444.032 4.28915 3.47471 0
M  V30 4882 H 444.509 2.59432 3.54389 0
M  V30 4883 H 445.115 3.62383 2.22618 0
M  V30 4884 N 443.43 -0.535701 1.48216 0
M  V30 4885 C 444.676 -1.29375 1.56173 0
M  V30 4886 C 445.009 -1.92804 0.232429 0
M  V30 4887 O 444.284 -1.78992 -0.761048 0
M  V30 4888 C 444.567 -2.38747 2.69577 0
M  V30 4889 C 444.42 -1.80046 4.12193 0
M  V30 4890 C 445.739 -3.40551 2.78771 0
M  V30 4891 H 442.858 -0.469027 0.568491 0
M  V30 4892 H 445.5 -0.597358 1.80365 0
M  V30 4893 H 443.65 -2.98147 2.4908 0
M  V30 4894 H 445.322 -1.24742 4.44114 0
M  V30 4895 H 443.565 -1.10609 4.19462 0
M  V30 4896 H 444.236 -2.59212 4.87353 0
M  V30 4897 H 446.712 -2.91099 2.97322 0
M  V30 4898 H 445.588 -4.1448 3.59857 0
M  V30 4899 H 445.849 -4.00746 1.86696 0
M  V30 4900 N 444.908 -1.36708 -0.784132 0
M  V30 4901 C 445.818 -1.3363 -1.92822 0
M  V30 4902 C 446.834 -0.237686 -1.72369 0
M  V30 4903 O 448.01 -0.470962 -1.95816 0
M  V30 4904 C 445.075 -1.13011 -3.27764 0
M  V30 4905 C 444.136 -2.32397 -3.60957 0
M  V30 4906 C 443.369 -2.12752 -4.89461 0
M  V30 4907 O 443.592 -1.10541 -5.59586 0
M  V30 4908 O 442.526 -3.00653 -5.21432 0
M  V30 4909 H 446.352 -2.29964 -1.98369 0
M  V30 4910 H 443.937 -1.1731 -0.925136 0
M  V30 4911 H 445.819 -1.03451 -4.08504 0
M  V30 4912 H 444.494 -0.19743 -3.23097 0
M  V30 4913 H 443.401 -2.47527 -2.80502 0
M  V30 4914 H 444.734 -3.2419 -3.70354 0
M  V30 4915 N 446.386 1.0089 -1.21074 0
M  V30 4916 C 447.611 1.78727 -1.05221 0
M  V30 4917 C 448.036 1.83932 0.393795 0
M  V30 4918 O 447.394 1.28004 1.28393 0
M  V30 4919 C 447.442 3.20665 -1.64944 0
M  V30 4920 O 446.546 4.02632 -0.892273 0
M  V30 4921 H 445.887 0.550973 -0.370574 0
M  V30 4922 H 448.417 1.26847 -1.60534 0
M  V30 4923 H 448.427 3.71352 -1.69002 0
M  V30 4924 H 447.102 3.16191 -2.70177 0
M  V30 4925 H 445.679 3.61207 -0.926492 0
M  V30 4926 N 447.864 1.01787 1.20321 0
M  V30 4927 C 449.092 0.727194 1.937 0
M  V30 4928 C 449.507 -0.712305 1.74848 0
M  V30 4929 O 448.864 -1.48327 1.06327 0
M  V30 4930 C 448.915 1.05497 3.45764 0
M  V30 4931 O 448.636 2.43794 3.64 0
M  V30 4932 C 450.137 0.785534 4.36285 0
M  V30 4933 H 447.357 0.266939 0.615617 0
M  V30 4934 H 449.901 1.35939 1.52777 0
M  V30 4935 H 448.056 0.468158 3.84561 0
M  V30 4936 H 448.47 2.55656 4.57974 0
M  V30 4937 H 449.944 1.06495 5.4163 0
M  V30 4938 H 450.421 -0.280273 4.38305 0
M  V30 4939 H 451.027 1.35456 4.03152 0
M  V30 4940 N 449.342 -1.36122 0.79427 0
M  V30 4941 C 450.567 -2.03891 0.379871 0
M  V30 4942 C 450.992 -1.59488 -0.997251 0
M  V30 4943 O 450.35 -0.765652 -1.64339 0
M  V30 4944 C 450.398 -3.57687 0.457442 0
M  V30 4945 O 449.502 -4.08931 -0.5338 0
M  V30 4946 H 448.843 -0.6443 0.160541 0
M  V30 4947 H 451.373 -1.73976 1.07673 0
M  V30 4948 H 451.383 -4.06721 0.322792 0
M  V30 4949 H 450.058 -3.89357 1.46199 0
M  V30 4950 H 448.635 -3.71154 -0.360409 0
M  V30 4951 N 450.82 -0.546701 -1.47814 0
M  V30 4952 C 451.783 0.196287 -2.28358 0
M  V30 4953 C 452.783 0.852437 -1.36346 0
M  V30 4954 O 453.973 0.709913 -1.59078 0
M  V30 4955 C 451.105 1.28579 -3.15722 0
M  V30 4956 H 452.298 -0.511086 -2.95513 0
M  V30 4957 H 449.851 -0.303248 -1.5333 0
M  V30 4958 H 450.586 2.0259 -2.53235 0
M  V30 4959 H 450.371 0.820229 -3.83425 0
M  V30 4960 H 451.861 1.80793 -3.76435 0
M  V30 4961 N 452.299 1.55045 -0.282633 0
M  V30 4962 C 453.527 2.04168 0.33512 0
M  V30 4963 C 453.942 1.16071 1.48906 0
M  V30 4964 O 453.299 0.182391 1.81586 0
M  V30 4965 C 453.35 3.52332 0.808957 0
M  V30 4966 O 453.071 4.37078 -0.299038 0
M  V30 4967 C 454.572 4.17375 1.49375 0
M  V30 4968 H 451.792 0.666744 0.0754543 0
M  V30 4969 H 454.336 2.00205 -0.416918 0
M  V30 4970 H 452.491 3.56715 1.51106 0
M  V30 4971 H 452.905 5.24458 0.0665514 0
M  V30 4972 H 454.379 5.22627 1.77664 0
M  V30 4973 H 454.856 3.65999 2.42778 0
M  V30 4974 H 455.462 4.17016 0.835305 0
M  V30 4975 N 453.777 0.010035 1.57597 0
M  V30 4976 C 455.017 -0.677084 1.9286 0
M  V30 4977 C 455.381 -1.70377 0.885192 0
M  V30 4978 O 456.582 -2.44199 1.12339 0
M  V30 4979 C 454.853 -1.29452 3.33132 0
M  V30 4980 S 456.412 -2.00537 3.90295 0
M  V30 4981 H 453.23 -0.223409 0.674989 0
M  V30 4982 H 455.832 0.0691289 1.95378 0
M  V30 4983 H 454.536 -0.534593 4.06903 0
M  V30 4984 H 454.067 -2.07845 3.34012 0
M  V30 4985 H 456.082 -3.28168 3.72183 0
M  V30 4986 N 455.255 -1.55392 -0.262866 0
M  V30 4987 C 456.187 -1.85392 -1.34768 0
M  V30 4988 C 457.2 -0.739069 -1.45057 0
M  V30 4989 O 458.389 -1.01703 -1.46693 0
M  V30 4990 C 455.489 -2.01088 -2.72795 0
M  V30 4991 C 454.662 -3.31828 -2.84972 0
M  V30 4992 C 453.721 -3.37464 -4.03738 0
M  V30 4993 O 452.747 -4.10778 -3.94018 0
M  V30 4994 N 453.949 -2.65599 -5.16176 0
M  V30 4995 H 456.714 -2.79029 -1.09375 0
M  V30 4996 H 454.275 -1.55434 -0.452981 0
M  V30 4997 H 456.267 -2.02217 -3.50557 0
M  V30 4998 H 454.837 -1.1427 -2.90966 0
M  V30 4999 H 454.057 -3.43152 -1.94012 0
M  V30 5000 H 455.345 -4.18032 -2.90045 0
M  V30 5001 H 454.743 -2.05736 -5.26962 0
M  V30 5002 H 453.3 -2.72439 -5.92132 0
M  V30 5003 N 456.733 0.527833 -1.48498 0
M  V30 5004 C 457.979 1.28545 -1.56857 0
M  V30 5005 C 458.312 1.92678 -0.242651 0
M  V30 5006 O 457.587 1.79394 0.751545 0
M  V30 5007 C 457.87 2.37314 -2.70839 0
M  V30 5008 C 457.723 1.77858 -4.13142 0
M  V30 5009 C 459.042 3.39068 -2.80573 0
M  V30 5010 H 456.161 0.466006 -0.570971 0
M  V30 5011 H 458.803 0.587784 -1.8068 0
M  V30 5012 H 456.953 2.96821 -2.50658 0
M  V30 5013 H 458.625 1.22385 -4.44769 0
M  V30 5014 H 456.868 1.08383 -4.20042 0
M  V30 5015 H 457.539 2.56624 -4.88721 0
M  V30 5016 H 460.015 2.89518 -2.98862 0
M  V30 5017 H 458.891 4.12566 -3.6205 0
M  V30 5018 H 459.152 3.9975 -1.88818 0
M  V30 5019 N 458.211 1.37122 0.776871 0
M  V30 5020 C 459.627 1.1781 1.07671 0
M  V30 5021 C 459.827 0.0107454 2.01497 0
M  V30 5022 O 458.883 -0.650756 2.4397 0
M  V30 5023 C 460.196 2.49451 1.67913 0
M  V30 5024 C 461.744 2.55927 1.80195 0
M  V30 5025 C 462.219 3.87686 2.43851 0
M  V30 5026 N 463.71 3.891 2.51307 0
M  V30 5027 C 464.445 4.87797 3.014 0
M  V30 5028 N 463.941 5.96888 3.51705 0
M  V30 5029 N 465.734 4.75205 3.00227 0
M  V30 5030 H 457.885 2.11843 0.153778 0
M  V30 5031 H 460.148 0.938927 0.130844 0
M  V30 5032 H 459.854 3.35207 1.06439 0
M  V30 5033 H 459.728 2.66169 2.67271 0
M  V30 5034 H 462.115 1.70582 2.40803 0
M  V30 5035 H 462.196 2.43097 0.796069 0
M  V30 5036 H 461.84 4.73444 1.83884 0
M  V30 5037 H 461.77 3.97817 3.45035 0
M  V30 5038 H 464.261 3.10293 2.157 0
M  V30 5039 H 464.574 6.68155 3.88316 0
M  V30 5040 H 462.919 6.0054 3.49824 0
M  V30 5041 H 466.11 3.89103 2.60224 0
M  V30 5042 H 466.283 5.52279 3.38957 0
M  V30 5043 N 459.689 -1.00246 1.21608 0
M  V30 5044 C 460.917 -1.77631 1.06089 0
M  V30 5045 C 461.332 -1.84746 -0.38916 0
M  V30 5046 O 460.689 -1.31068 -1.26994 0
M  V30 5047 C 460.74 -3.21415 1.65453 0
M  V30 5048 O 460.461 -3.14703 3.04785 0
M  V30 5049 C 461.962 -4.15289 1.55079 0
M  V30 5050 H 459.182 -0.558162 0.37242 0
M  V30 5051 H 461.726 -1.26093 1.60999 0
M  V30 5052 H 459.881 -3.70053 1.14629 0
M  V30 5053 H 460.295 -4.05056 3.33212 0
M  V30 5054 H 461.769 -5.13965 2.01355 0
M  V30 5055 H 462.246 -4.36279 0.505665 0
M  V30 5056 H 462.852 -3.72543 2.05163 0
M  V30 5057 N 461.167 -1.02423 -1.1978 0
M  V30 5058 C 462.392 -0.7373 -1.93852 0
M  V30 5059 C 462.817 0.696923 -1.74713 0
M  V30 5060 O 462.175 1.48056 -1.04638 0
M  V30 5061 C 462.223 -1.08783 -3.438 0
M  V30 5062 O 461.327 -0.20383 -4.11896 0
M  V30 5063 H 460.668 -0.27284 -0.605355 0
M  V30 5064 H 463.198 -1.36966 -1.51992 0
M  V30 5065 H 463.208 -1.04276 -3.9445 0
M  V30 5066 H 461.883 -2.13274 -3.57053 0
M  V30 5067 H 460.46 -0.307091 -3.71633 0
M  V30 5068 N 462.645 1.35699 -0.801477 0
M  V30 5069 C 463.875 2.02862 -0.3912 0
M  V30 5070 C 464.283 1.60552 1.00099 0
M  V30 5071 O 463.626 0.796215 1.65548 0
M  V30 5072 C 463.688 3.57386 -0.389299 0
M  V30 5073 C 463.352 4.22943 -1.73113 0
M  V30 5074 C 464.349 4.44984 -2.68859 0
M  V30 5075 C 462.034 4.60167 -2.01373 0
M  V30 5076 C 464.028 5.03345 -3.91053 0
M  V30 5077 C 461.715 5.18243 -3.23832 0
M  V30 5078 C 462.713 5.39773 -4.1849 0
M  V30 5079 O 462.401 5.96626 -5.38788 0
M  V30 5080 H 462.133 0.657341 -0.157732 0
M  V30 5081 H 464.687 1.74407 -1.08496 0
M  V30 5082 H 462.917 3.85011 0.361031 0
M  V30 5083 H 464.606 4.059 -0.0020365 0
M  V30 5084 H 465.372 4.1661 -2.48316 0
M  V30 5085 H 461.251 4.42726 -1.28508 0
M  V30 5086 H 464.795 5.20065 -4.64949 0
M  V30 5087 H 460.692 5.46044 -3.44248 0
M  V30 5088 H 461.46 6.15082 -5.40015 0
M  V30 5089 N 464.123 0.554532 1.47522 0
M  V30 5090 C 465.369 0.0295227 2.02779 0
M  V30 5091 C 465.702 -1.31582 1.42828 0
M  V30 5092 O 464.977 -1.85561 0.582872 0
M  V30 5093 C 465.26 -0.0664057 3.60039 0
M  V30 5094 C 465.113 1.30585 4.30427 0
M  V30 5095 C 466.432 -0.781162 4.33112 0
M  V30 5096 H 463.551 0.0122027 0.736899 0
M  V30 5097 H 466.193 0.716305 1.7598 0
M  V30 5098 H 464.343 -0.651307 3.83002 0
M  V30 5099 H 466.015 1.93374 4.18813 0
M  V30 5100 H 464.258 1.88125 3.90886 0
M  V30 5101 H 464.929 1.19147 5.38988 0
M  V30 5102 H 467.405 -0.284565 4.15126 0
M  V30 5103 H 466.281 -0.817237 5.42782 0
M  V30 5104 H 466.542 -1.83672 4.0214 0
M  V30 5105 N 465.601 -1.54893 0.290851 0
M  V30 5106 C 467.012 -1.85584 -0.203816 0
M  V30 5107 C 467.363 -1.21285 -1.54222 0
M  V30 5108 O 466.488 -0.506841 -2.10381 0
M  V30 5109 C 467.083 -3.367 -0.376595 0
M  V30 5110 C 465.642 -3.6746 -0.815485 0
M  V30 5111 C 464.789 -2.77178 0.0821087 0
M  V30 5112 H 467.74 -1.50208 0.512175 0
M  V30 5113 H 467.761 -3.60656 -1.21275 0
M  V30 5114 H 467.273 -3.8347 0.59767 0
M  V30 5115 H 465.374 -3.26201 -1.80066 0
M  V30 5116 H 465.487 -4.7478 -0.641905 0
M  V30 5117 H 463.851 -2.50925 -0.436895 0
M  V30 5118 H 464.634 -3.26767 1.05254 0
M  V30 5119 N 467.08 -0.0183926 -1.57589 0
M  V30 5120 C 467.99 0.982943 -2.13015 0
M  V30 5121 C 469.006 1.36443 -1.07979 0
M  V30 5122 O 470.182 1.44802 -1.3998 0
M  V30 5123 C 467.247 2.25024 -2.63752 0
M  V30 5124 C 466.308 1.93018 -3.83461 0
M  V30 5125 C 465.541 3.13706 -4.31769 0
M  V30 5126 O 465.764 4.2601 -3.79305 0
M  V30 5127 O 464.698 2.96629 -5.23732 0
M  V30 5128 H 468.524 0.541709 -2.9883 0
M  V30 5129 H 466.109 0.201565 -1.48034 0
M  V30 5130 H 467.991 2.99441 -2.96502 0
M  V30 5131 H 466.666 2.68349 -1.81026 0
M  V30 5132 H 465.573 1.16019 -3.55655 0
M  V30 5133 H 466.906 1.54516 -4.67317 0
M  V30 5134 N 468.558 1.5553 0.254621 0
M  V30 5135 C 469.468 1.92789 1.33677 0
M  V30 5136 C 470.484 0.827356 1.53071 0
M  V30 5137 O 471.66 1.12807 1.66843 0
M  V30 5138 C 468.725 2.20827 2.67275 0
M  V30 5139 C 467.786 3.4427 2.5647 0
M  V30 5140 C 467.019 3.70961 3.83697 0
M  V30 5141 O 467.242 2.99852 4.85227 0
M  V30 5142 O 466.176 4.64491 3.82794 0
M  V30 5143 H 470.002 2.84945 1.05071 0
M  V30 5144 H 467.587 1.42312 0.454723 0
M  V30 5145 H 469.469 2.40204 3.46237 0
M  V30 5146 H 468.144 1.31851 2.9563 0
M  V30 5147 H 467.051 3.30209 1.75821 0
M  V30 5148 H 468.384 4.33524 2.33062 0
M  V30 5149 N 470.036 -0.519951 1.48776 0
M  V30 5150 C 471.282 -1.27711 1.57536 0
M  V30 5151 C 471.615 -1.92547 0.252866 0
M  V30 5152 O 470.89 -1.7979 -0.742021 0
M  V30 5153 C 471.173 -2.35875 2.72094 0
M  V30 5154 C 471.026 -1.75664 4.1408 0
M  V30 5155 C 472.345 -3.37575 2.82367 0
M  V30 5156 H 469.464 -0.462971 0.573434 0
M  V30 5157 H 472.106 -0.578194 1.80989 0
M  V30 5158 H 470.256 -2.95488 2.52228 0
M  V30 5159 H 471.928 -1.20025 4.45412 0
M  V30 5160 H 470.171 -1.06154 4.20611 0
M  V30 5161 H 470.842 -2.54029 4.90075 0
M  V30 5162 H 473.318 -2.87929 3.00393 0
M  V30 5163 H 472.194 -4.1064 3.64233 0
M  V30 5164 H 472.455 -3.98743 1.90936 0
M  V30 5165 N 471.514 -1.37532 -0.769588 0
M  V30 5166 C 472.444 -1.36172 -1.89682 0
M  V30 5167 C 473.425 -0.23001 -1.68538 0
M  V30 5168 O 474.61 -0.43069 -1.89364 0
M  V30 5169 C 471.74 -1.1701 -3.26995 0
M  V30 5170 C 470.694 -2.27216 -3.62708 0
M  V30 5171 C 470.02 -1.93174 -4.98586 0
M  V30 5172 C 471.32 -3.6941 -3.69234 0
M  V30 5173 H 473.014 -2.30499 -1.91078 0
M  V30 5174 H 470.56 -1.10953 -0.917902 0
M  V30 5175 H 472.513 -1.14688 -4.05493 0
M  V30 5176 H 471.237 -0.191395 -3.26039 0
M  V30 5177 H 469.896 -2.28697 -2.86519 0
M  V30 5178 H 469.544 -0.938281 -4.94171 0
M  V30 5179 H 469.244 -2.66973 -5.23449 0
M  V30 5180 H 470.768 -1.92443 -5.79481 0
M  V30 5181 H 472.182 -3.70047 -4.37879 0
M  V30 5182 H 470.579 -4.4228 -4.05597 0
M  V30 5183 H 471.649 -4.0288 -2.69844 0
M  V30 5184 N 472.992 0.995999 -1.22138 0
M  V30 5185 C 474.238 1.7386 -1.05567 0
M  V30 5186 C 474.593 1.8808 0.405418 0
M  V30 5187 O 473.886 1.41062 1.29661 0
M  V30 5188 C 474.08 3.14553 -1.6968 0
M  V30 5189 C 473.909 3.14053 -3.21871 0
M  V30 5190 C 472.679 3.20121 -3.90961 0
M  V30 5191 C 474.877 2.98451 -4.18845 0
M  V30 5192 N 472.859 3.09342 -5.30265 0
M  V30 5193 C 474.23 2.95667 -5.4496 0
M  V30 5194 C 476.285 2.8282 -4.09777 0
M  V30 5195 C 474.988 2.78852 -6.63049 0
M  V30 5196 C 477.014 2.67364 -5.27513 0
M  V30 5197 C 476.376 2.65264 -6.52544 0
M  V30 5198 H 472.475 0.645989 -0.440706 0
M  V30 5199 H 475.059 1.1831 -1.54631 0
M  V30 5200 H 473.23 3.68353 -1.2317 0
M  V30 5201 H 474.962 3.77358 -1.4623 0
M  V30 5202 H 471.717 3.27679 -3.4194 0
M  V30 5203 H 472.141 3.0727 -6.03253 0
M  V30 5204 H 476.783 2.83243 -3.139 0
M  V30 5205 H 474.501 2.77175 -7.59078 0
M  V30 5206 H 478.087 2.56256 -5.22326 0
M  V30 5207 H 476.967 2.5345 -7.42114 0
M  V30 5208 N 474.47 1.03057 1.19235 0
M  V30 5209 C 475.718 0.726581 1.88587 0
M  V30 5210 C 476.039 -0.747227 1.80115 0
M  V30 5211 O 475.309 -1.53849 1.21274 0
M  V30 5212 H 473.889 0.265768 0.698124 0
M  V30 5213 H 476.551 1.30516 1.44746 0
M  V30 5214 H 475.647 1.0224 2.94879 0
M  V30 5215 N 475.948 -1.35272 0.808662 0
M  V30 5216 C 477.178 -2.02652 0.401953 0
M  V30 5217 C 477.586 -1.6108 -0.992462 0
M  V30 5218 O 476.929 -0.804984 -1.65123 0
M  V30 5219 C 476.991 -3.57174 0.408246 0
M  V30 5220 C 476.655 -4.22019 1.75353 0
M  V30 5221 C 477.652 -4.43552 2.71215 0
M  V30 5222 C 475.337 -4.59093 2.03811 0
M  V30 5223 C 477.331 -5.01264 3.93717 0
M  V30 5224 C 475.018 -5.16519 3.26576 0
M  V30 5225 C 476.016 -5.37546 4.21347 0
M  V30 5226 O 475.704 -5.93761 5.41944 0
M  V30 5227 H 475.436 -0.656495 0.161216 0
M  V30 5228 H 477.99 -1.73829 1.0942 0
M  V30 5229 H 476.22 -3.85197 -0.340608 0
M  V30 5230 H 477.909 -4.05893 0.0235623 0
M  V30 5231 H 478.675 -4.15288 2.50522 0
M  V30 5232 H 474.554 -4.42039 1.30854 0
M  V30 5233 H 478.098 -5.17592 4.67701 0
M  V30 5234 H 473.995 -5.4421 3.47139 0
M  V30 5235 H 474.763 -6.1221 5.43269 0
M  V30 5236 N 477.426 -0.562348 -1.47226 0
M  V30 5237 C 478.842 -0.222492 -1.58042 0
M  V30 5238 C 479.042 1.27505 -1.56028 0
M  V30 5239 O 478.098 2.05555 -1.46641 0
M  V30 5240 C 479.411 -0.853694 -2.88327 0
M  V30 5241 C 480.959 -0.825397 -3.01921 0
M  V30 5242 C 481.434 -1.43576 -4.34914 0
M  V30 5243 N 482.925 -1.39918 -4.41562 0
M  V30 5244 C 483.66 -1.84103 -5.43041 0
M  V30 5245 N 483.156 -2.36167 -6.51304 0
M  V30 5246 N 484.949 -1.75142 -5.34118 0
M  V30 5247 H 477.1 -1.53525 -1.46778 0
M  V30 5248 H 479.363 -0.640527 -0.698877 0
M  V30 5249 H 479.069 -1.90635 -2.95552 0
M  V30 5250 H 478.943 -0.34977 -3.75575 0
M  V30 5251 H 481.33 0.218583 -2.94289 0
M  V30 5252 H 481.411 -1.36713 -2.16202 0
M  V30 5253 H 481.055 -2.47884 -4.43301 0
M  V30 5254 H 480.985 -0.869427 -5.19373 0
M  V30 5255 H 483.476 -1.0184 -3.63919 0
M  V30 5256 H 483.789 -2.67793 -7.24919 0
M  V30 5257 H 482.134 -2.40181 -6.52179 0
M  V30 5258 H 485.325 -1.34241 -4.48439 0
M  V30 5259 H 485.498 -2.09895 -6.13065 0
M  V30 5260 N 478.904 1.54736 -0.299062 0
M  V30 5261 C 480.151 2.00101 0.310784 0
M  V30 5262 C 480.479 1.18746 1.54045 0
M  V30 5263 O 479.734 0.251198 1.94081 0
M  V30 5264 C 480.033 3.50199 0.713835 0
M  V30 5265 C 479.699 4.48997 -0.413873 0
M  V30 5266 C 478.361 4.7573 -0.723462 0
M  V30 5267 C 480.713 5.07839 -1.17257 0
M  V30 5268 C 478.041 5.5857 -1.79491 0
M  V30 5269 C 480.393 5.91844 -2.23392 0
M  V30 5270 C 479.057 6.16889 -2.54959 0
M  V30 5271 H 478.327 0.732221 0.113724 0
M  V30 5272 H 480.974 1.86888 -0.417756 0
M  V30 5273 H 479.279 3.61012 1.52243 0
M  V30 5274 H 480.976 3.82723 1.19684 0
M  V30 5275 H 477.566 4.28292 -0.162476 0
M  V30 5276 H 481.75 4.87188 -0.946651 0
M  V30 5277 H 477.006 5.76213 -2.04423 0
M  V30 5278 H 481.18 6.36465 -2.8264 0
M  V30 5279 H 478.807 6.80869 -3.38114 0
M  V30 5280 N 480.382 0.0267497 1.57577 0
M  V30 5281 C 481.345 -0.940916 2.08996 0
M  V30 5282 C 482.345 -1.25561 1.00455 0
M  V30 5283 O 483.535 -1.19634 1.26623 0
M  V30 5284 C 480.667 -2.25814 2.55384 0
M  V30 5285 H 481.86 -0.495628 2.95776 0
M  V30 5286 H 479.413 -0.221241 1.54726 0
M  V30 5287 H 480.148 -2.74976 1.71926 0
M  V30 5288 H 479.933 -2.04285 3.34679 0
M  V30 5289 H 481.423 -2.95178 2.95398 0
M  V30 5290 N 481.861 -1.55662 -0.24637 0
M  V30 5291 C 483.272 -1.67953 -0.81539 0
M  V30 5292 C 483.623 -0.624302 -1.86002 0
M  V30 5293 O 482.748 0.229328 -2.15181 0
M  V30 5294 C 483.343 -3.04484 -1.48576 0
M  V30 5295 C 481.902 -3.18713 -2.00248 0
M  V30 5296 C 481.049 -2.6383 -0.853766 0
M  V30 5297 H 484 -1.58685 -0.0221692 0
M  V30 5298 H 484.021 -2.98959 -2.3538 0
M  V30 5299 H 483.533 -3.81264 -0.725222 0
M  V30 5300 H 481.634 -2.46757 -2.79181 0
M  V30 5301 H 481.747 -4.25628 -2.1995 0
M  V30 5302 H 480.111 -2.21667 -1.25442 0
M  V30 5303 H 480.894 -3.43135 -0.106302 0
M  V30 5304 N 483.339 0.512053 -1.4905 0
M  V30 5305 C 484.588 1.26343 -1.57227 0
M  V30 5306 C 484.901 1.93876 -0.259155 0
M  V30 5307 O 486.107 2.70612 -0.219358 0
M  V30 5308 C 484.563 2.29343 -2.77362 0
M  V30 5309 C 484.171 1.67799 -4.15388 0
M  V30 5310 C 485.915 3.05378 -2.94864 0
M  V30 5311 C 483.822 2.68845 -5.2676 0
M  V30 5312 H 482.752 0.475231 -0.585382 0
M  V30 5313 H 485.403 0.53862 -1.75417 0
M  V30 5314 H 483.785 3.04938 -2.52643 0
M  V30 5315 H 484.959 0.982715 -4.50199 0
M  V30 5316 H 483.274 1.04194 -4.03153 0
M  V30 5317 H 485.871 3.80921 -3.75238 0
M  V30 5318 H 486.214 3.62327 -2.05 0
M  V30 5319 H 486.747 2.36898 -3.19569 0
M  V30 5320 H 483.486 2.16692 -6.18647 0
M  V30 5321 H 483.006 3.36647 -4.96416 0
M  V30 5322 H 484.685 3.31487 -5.5563 0
M  V30 5323 N 484.817 1.37938 0.762283 0
M  V30 5324 C 486.063 1.33866 1.52341 0
M  V30 5325 C 486.396 -0.0738961 1.94059 0
M  V30 5326 O 485.671 -1.03326 1.64785 0
M  V30 5327 C 485.954 2.28644 2.78197 0
M  V30 5328 C 485.807 3.78722 2.42672 0
M  V30 5329 C 487.126 2.21702 3.80179 0
M  V30 5330 H 484.245 0.487593 0.55265 0
M  V30 5331 H 486.887 1.68717 0.873767 0
M  V30 5332 H 485.037 1.99055 3.33631 0
M  V30 5333 H 486.709 4.18948 1.93081 0
M  V30 5334 H 484.952 3.96827 1.75244 0
M  V30 5335 H 485.623 4.40486 3.3268 0
M  V30 5336 H 488.099 2.47805 3.34263 0
M  V30 5337 H 486.975 2.90143 4.65949 0
M  V30 5338 H 487.236 1.21301 4.25133 0
M  V30 5339 N 486.295 -0.989507 1.22664 0
M  V30 5340 C 487.52 -1.77031 1.08051 0
M  V30 5341 C 487.945 -1.84535 -0.364483 0
M  V30 5342 O 487.303 -1.3003 -1.2634 0
M  V30 5343 C 487.351 -3.18 1.70024 0
M  V30 5344 O 486.455 -4.01161 0.956216 0
M  V30 5345 H 485.796 -0.545008 0.379292 0
M  V30 5346 H 488.326 -1.24277 1.62531 0
M  V30 5347 H 488.336 -3.68616 1.74888 0
M  V30 5348 H 487.011 -3.11853 2.75174 0
M  V30 5349 H 485.588 -3.59687 0.98384 0
M  V30 5350 N 487.773 -1.03688 -1.18687 0
M  V30 5351 C 488.72 -0.624624 -2.22187 0
M  V30 5352 C 489.69 0.365636 -1.62026 0
M  V30 5353 O 490.875 0.260481 -1.89014 0
M  V30 5354 C 488.015 0.0101738 -3.45099 0
M  V30 5355 C 487.128 -1.02709 -4.19613 0
M  V30 5356 C 486.263 -0.361213 -5.2997 0
M  V30 5357 C 485.302 -1.38384 -5.96252 0
M  V30 5358 N 484.439 -0.743196 -6.98155 0
M  V30 5359 H 489.279 -1.51176 -2.56807 0
M  V30 5360 H 486.816 -0.75636 -1.26165 0
M  V30 5361 H 488.774 0.395528 -4.15321 0
M  V30 5362 H 487.404 0.860848 -3.1111 0
M  V30 5363 H 486.456 -1.53043 -3.48256 0
M  V30 5364 H 487.768 -1.80398 -4.65036 0
M  V30 5365 H 486.922 0.0785537 -6.06649 0
M  V30 5366 H 485.661 0.447799 -4.8564 0
M  V30 5367 H 484.666 -1.83378 -5.18317 0
M  V30 5368 H 485.891 -2.19448 -6.42666 0
M  V30 5369 H 483.837 0.0455789 -6.55984 0
M  V30 5370 H 483.754 -1.45784 -7.41811 0
M  V30 5371 H 485.022 -0.327698 -7.78811 0
M  V30 5372 N 489.251 1.34841 -0.815825 0
M  V30 5373 C 490.479 2.0273 -0.413294 0
M  V30 5374 C 490.894 1.61459 0.978599 0
M  V30 5375 O 490.251 0.816584 1.63212 0
M  V30 5376 C 490.302 3.58058 -0.497676 0
M  V30 5377 O 490.023 3.97832 -1.8347 0
M  V30 5378 C 491.524 4.4321 -0.0891339 0
M  V30 5379 H 488.744 0.649956 -0.166728 0
M  V30 5380 H 491.288 1.72267 -1.10201 0
M  V30 5381 H 489.443 3.87136 0.142886 0
M  V30 5382 H 489.857 4.92501 -1.80396 0
M  V30 5383 H 491.331 5.5164 -0.199274 0
M  V30 5384 H 491.808 4.28432 0.966571 0
M  V30 5385 H 492.414 4.19446 -0.703214 0
M  V30 5386 N 490.729 0.570148 1.46925 0
M  V30 5387 C 491.676 -0.170257 2.30171 0
M  V30 5388 C 492.646 -0.896099 1.39855 0
M  V30 5389 O 493.831 -0.889248 1.68811 0
M  V30 5390 C 490.971 -1.18605 3.24079 0
M  V30 5391 C 490.084 -0.464947 4.29491 0
M  V30 5392 C 489.219 -1.46716 5.10537 0
M  V30 5393 C 488.258 -0.731758 6.0771 0
M  V30 5394 N 487.395 -1.68142 6.81669 0
M  V30 5395 H 492.235 0.545713 2.92961 0
M  V30 5396 H 489.772 0.280938 1.44392 0
M  V30 5397 H 491.73 -1.78771 3.76957 0
M  V30 5398 H 490.36 -1.86989 2.63125 0
M  V30 5399 H 489.412 0.251506 3.79568 0
M  V30 5400 H 490.724 0.110548 4.98677 0
M  V30 5401 H 489.878 -2.14199 5.6763 0
M  V30 5402 H 488.617 -2.07658 4.41282 0
M  V30 5403 H 487.622 -0.0430787 5.49783 0
M  V30 5404 H 488.847 -0.127904 6.7898 0
M  V30 5405 H 486.793 -2.27918 6.15134 0
M  V30 5406 H 486.71 -1.15841 7.47072 0
M  V30 5407 H 487.978 -2.347 7.43328 0
M  V30 5408 N 492.207 -1.54576 0.307264 0
M  V30 5409 C 493.117 -2.27435 -0.57536 0
M  V30 5410 C 494.133 -1.31183 -1.14311 0
M  V30 5411 O 495.309 -1.64175 -1.16656 0
M  V30 5412 C 492.374 -3.00566 -1.72803 0
M  V30 5413 C 491.435 -4.12369 -1.19373 0
M  V30 5414 C 490.668 -4.82003 -2.29147 0
M  V30 5415 O 490.891 -4.51038 -3.49171 0
M  V30 5416 O 489.825 -5.69271 -1.95485 0
M  V30 5417 H 493.651 -3.03696 0.0158558 0
M  V30 5418 H 491.236 -1.49219 0.0735064 0
M  V30 5419 H 493.118 -3.46416 -2.39946 0
M  V30 5420 H 491.793 -2.27195 -2.30574 0
M  V30 5421 H 490.7 -3.70905 -0.487851 0
M  V30 5422 H 492.033 -4.87736 -0.661376 0
M  V30 5423 N 493.685 -0.035106 -1.57561 0
M  V30 5424 C 494.933 0.64096 -1.91667 0
M  V30 5425 C 495.254 1.72323 -0.912681 0
M  V30 5426 O 494.524 1.95849 0.0449089 0
M  V30 5427 H 493.104 0.239743 -0.707483 0
M  V30 5428 H 495.766 -0.084321 -1.94718 0
M  V30 5429 H 494.862 1.08987 -2.92452 0
M  V30 5430 N 495.163 1.55791 0.238111 0
M  V30 5431 C 496.11 1.9105 1.29493 0
M  V30 5432 C 497.08 0.765733 1.47397 0
M  V30 5433 O 498.265 1.02017 1.61236 0
M  V30 5434 C 495.405 2.21826 2.64362 0
M  V30 5435 C 494.518 3.49153 2.54394 0
M  V30 5436 C 493.653 3.69455 3.81676 0
M  V30 5437 C 492.692 4.90353 3.66361 0
M  V30 5438 N 491.829 5.07131 4.85554 0
M  V30 5439 H 496.669 2.81172 0.987233 0
M  V30 5440 H 494.206 1.39179 0.476203 0
M  V30 5441 H 496.164 2.37675 3.4288 0
M  V30 5442 H 494.794 1.34897 2.93262 0
M  V30 5443 H 493.846 3.41587 1.67399 0
M  V30 5444 H 495.158 4.37818 2.38991 0
M  V30 5445 H 494.312 3.85311 4.68636 0
M  V30 5446 H 493.051 2.7904 3.99985 0
M  V30 5447 H 492.056 4.74464 2.77784 0
M  V30 5448 H 493.281 5.82237 3.49538 0
M  V30 5449 H 491.227 4.19654 5.04209 0
M  V30 5450 H 491.144 5.89899 4.72816 0
M  V30 5451 H 492.412 5.27407 5.73988 0
M  V30 5452 N 496.642 -0.504142 1.49319 0
M  V30 5453 C 497.872 -1.28071 1.62116 0
M  V30 5454 C 498.28 -1.86955 0.290566 0
M  V30 5455 O 497.623 -1.68415 -0.733616 0
M  V30 5456 C 497.685 -2.4521 2.62893 0
M  V30 5457 C 497.349 -2.07218 4.0732 0
M  V30 5458 C 498.346 -1.61375 4.94221 0
M  V30 5459 C 496.031 -2.16949 4.53033 0
M  V30 5460 C 498.025 -1.25763 6.2487 0
M  V30 5461 C 495.712 -1.80949 5.83696 0
M  V30 5462 C 496.71 -1.3543 6.69438 0
M  V30 5463 O 496.398 -0.99915 7.97667 0
M  V30 5464 H 496.13 -0.394763 0.54876 0
M  V30 5465 H 498.684 -0.612118 1.96067 0
M  V30 5466 H 496.914 -3.15134 2.24115 0
M  V30 5467 H 498.603 -3.0724 2.65252 0
M  V30 5468 H 499.369 -1.53306 4.60133 0
M  V30 5469 H 495.248 -2.5133 3.86463 0
M  V30 5470 H 498.792 -0.901631 6.91749 0
M  V30 5471 H 494.689 -1.88667 6.17313 0
M  V30 5472 H 495.457 -1.13089 8.1065 0
M  V30 5473 N 498.12 -1.38341 -0.754957 0
M  V30 5474 C 499.536 -1.19508 -1.05783 0
M  V30 5475 C 499.736 -0.0428005 -2.01455 0
M  V30 5476 O 498.792 0.611861 -2.44975 0
M  V30 5477 C 500.105 -2.52091 -1.63923 0
M  V30 5478 C 501.653 -2.58762 -1.76101 0
M  V30 5479 C 502.128 -3.91517 -2.37652 0
M  V30 5480 N 503.619 -3.93049 -2.45085 0
M  V30 5481 C 504.354 -4.9253 -2.93602 0
M  V30 5482 N 503.85 -6.02408 -3.42165 0
M  V30 5483 N 505.643 -4.79921 -2.92629 0
M  V30 5484 H 497.794 -2.1206 -0.120056 0
M  V30 5485 H 500.057 -0.94089 -0.11589 0
M  V30 5486 H 499.763 -3.36858 -1.01093 0
M  V30 5487 H 499.637 -2.70388 -2.63003 0
M  V30 5488 H 502.024 -1.74391 -2.38058 0
M  V30 5489 H 502.105 -2.44333 -0.757294 0
M  V30 5490 H 501.749 -4.76309 -1.76329 0
M  V30 5491 H 501.679 -4.03256 -3.38662 0
M  V30 5492 H 504.17 -3.13685 -2.10736 0
M  V30 5493 H 504.483 -6.74248 -3.77637 0
M  V30 5494 H 502.828 -6.0603 -3.40225 0
M  V30 5495 H 506.019 -3.93194 -2.54001 0
M  V30 5496 H 506.192 -5.57601 -3.30128 0
M  V30 5497 N 499.598 0.982988 -1.23187 0
M  V30 5498 C 500.844 1.72648 -1.06398 0
M  V30 5499 C 501.177 1.90066 0.398561 0
M  V30 5500 O 500.452 1.45105 1.29518 0
M  V30 5501 C 500.735 3.12627 -1.78707 0
M  V30 5502 C 500.588 3.02795 -3.32618 0
M  V30 5503 C 501.907 4.11997 -1.54747 0
M  V30 5504 H 499.026 0.626649 -0.387918 0
M  V30 5505 H 501.668 1.14455 -1.51658 0
M  V30 5506 H 499.818 3.62308 -1.40234 0
M  V30 5507 H 501.49 2.60659 -3.80598 0
M  V30 5508 H 499.733 2.39362 -3.61785 0
M  V30 5509 H 500.404 4.01893 -3.78399 0
M  V30 5510 H 502.88 3.71114 -1.88186 0
M  V30 5511 H 501.756 5.08037 -2.07821 0
M  V30 5512 H 502.017 4.39462 -0.482249 0
M  V30 5513 N 501.076 1.04316 1.18135 0
M  V30 5514 C 502.353 0.662166 1.84051 0
M  V30 5515 C 502.733 -0.858169 1.9287 0
M  V30 5516 O 502.081 -1.76062 1.45652 0
M  V30 5517 C 502.291 1.3409 3.22212 0
M  V30 5518 C 503.639 1.4733 3.9822 0
M  V30 5519 O 504.663 1.29921 3.31661 0
M  V30 5520 O 503.522 1.75722 5.17479 0
M  V30 5521 H 500.616 0.232005 0.79379 0
M  V30 5522 H 503.162 1.1422 1.25506 0
M  V30 5523 H 501.934 2.37853 3.10711 0
M  V30 5524 H 501.557 0.849649 3.88416 0
M  V30 5525 N 502.554 -1.34406 0.822964 0
M  V30 5526 C 503.801 -1.98284 0.411057 0
M  V30 5527 C 504.129 -1.65245 -1.02588 0
M  V30 5528 O 503.384 -0.91619 -1.72929 0
M  V30 5529 C 503.683 -3.52981 0.560268 0
M  V30 5530 C 503.349 -4.05931 1.96293 0
M  V30 5531 C 502.011 -4.20103 2.34664 0
M  V30 5532 C 504.363 -4.34412 2.87985 0
M  V30 5533 C 501.691 -4.60082 3.64062 0
M  V30 5534 C 504.043 -4.75838 4.16847 0
M  V30 5535 C 502.707 -4.88215 4.55195 0
M  V30 5536 H 501.977 -0.725573 0.150416 0
M  V30 5537 H 504.624 -1.60349 1.04692 0
M  V30 5538 H 502.929 -3.91477 -0.158982 0
M  V30 5539 H 504.626 -4.00385 0.222087 0
M  V30 5540 H 501.216 -3.95363 1.65487 0
M  V30 5541 H 505.4 -4.23001 2.59584 0
M  V30 5542 H 500.656 -4.67856 3.93599 0
M  V30 5543 H 504.83 -4.96834 4.87984 0
M  V30 5544 H 502.457 -5.18952 5.55512 0
M  V30 5545 N 504.032 -0.577932 -1.46621 0
M  V30 5546 C 504.982 0.178869 -2.27297 0
M  V30 5547 C 505.966 0.866279 -1.35589 0
M  V30 5548 O 507.158 0.761163 -1.59798 0
M  V30 5549 C 504.287 1.19499 -3.2183 0
M  V30 5550 C 503.373 0.50994 -4.21023 0
M  V30 5551 N 503.764 -0.43177 -5.03954 0
M  V30 5552 C 502.062 0.761287 -4.39455 0
M  V30 5553 C 502.763 -0.831693 -5.75724 0
M  V30 5554 N 501.739 -0.181897 -5.43296 0
M  V30 5555 H 505.541 -0.544859 -2.88805 0
M  V30 5556 H 503.055 -0.399373 -1.57413 0
M  V30 5557 H 505.052 1.75131 -3.78332 0
M  V30 5558 H 503.712 1.91959 -2.61881 0
M  V30 5559 H 504.723 -0.807045 -5.11573 0
M  V30 5560 H 501.4 1.47282 -3.90659 0
M  V30 5561 H 502.79 -1.6067 -6.52407 0
M  V30 5562 N 505.51 1.54411 -0.315457 0
M  V30 5563 C 506.458 2.25514 0.569771 0
M  V30 5564 C 507.452 1.2663 1.12522 0
M  V30 5565 O 508.658 1.44434 1.07419 0
M  V30 5566 H 505.033 0.724257 0.202376 0
M  V30 5567 H 507.004 2.98354 -0.0522895 0
M  V30 5568 C 505.753 3.02004 1.72305 0
M  V30 5569 H 505.076 3.77906 1.30488 0
M  V30 5570 H 506.516 3.55014 2.31821 0
M  V30 5571 C 504.975 2.09822 2.63583 0
M  V30 5572 O 505.505 1.67574 3.65078 0
M  V30 5573 N 503.711 1.75478 2.31637 0
M  V30 5574 H 503.258 2.10032 1.49145 0
M  V30 5575 H 503.216 1.14079 2.92973 0
M  V30 5576 N 506.988 0.0434614 1.5754 0
M  V30 5577 C 508.235 -0.632035 1.92384 0
M  V30 5578 C 508.563 -1.71304 0.921157 0
M  V30 5579 O 507.818 -1.95583 -0.067744 0
M  V30 5580 C 508.117 -1.2738 3.3393 0
M  V30 5581 C 507.783 -0.321757 4.49751 0
M  V30 5582 C 506.445 -0.0597611 4.81163 0
M  V30 5583 C 508.797 0.331158 5.20147 0
M  V30 5584 C 506.125 0.862715 5.80322 0
M  V30 5585 C 508.477 1.24178 6.20292 0
M  V30 5586 C 507.141 1.51252 6.50138 0
M  V30 5587 H 506.411 -0.231278 0.703983 0
M  V30 5588 H 509.058 0.108294 1.91194 0
M  V30 5589 H 507.363 -2.08921 3.3145 0
M  V30 5590 H 509.06 -1.80326 3.58167 0
M  V30 5591 H 505.65 -0.53614 4.25233 0
M  V30 5592 H 509.834 0.141826 4.96097 0
M  V30 5593 H 505.09 1.08003 6.01785 0
M  V30 5594 H 509.264 1.75381 6.73954 0
M  V30 5595 H 506.891 2.22897 7.26788 0
M  V30 5596 N 508.466 -1.55915 -0.229846 0
M  V30 5597 C 509.691 -1.8296 -0.976743 0
M  V30 5598 C 510.116 -0.622735 -1.77493 0
M  V30 5599 O 509.474 0.428431 -1.76165 0
M  V30 5600 C 509.522 -3.07916 -1.8767 0
M  V30 5601 O 508.626 -2.86028 -2.97088 0
M  V30 5602 H 507.967 -0.603453 -0.277021 0
M  V30 5603 H 510.497 -2.0312 -0.245669 0
M  V30 5604 H 510.507 -3.37802 -2.2881 0
M  V30 5605 H 509.182 -3.95389 -1.28996 0
M  V30 5606 H 507.759 -2.67355 -2.59954 0
M  V30 5607 N 509.944 0.496216 -1.49584 0
M  V30 5608 C 510.891 1.59722 -1.66606 0
M  V30 5609 C 511.861 1.58158 -0.507477 0
M  V30 5610 O 513.046 1.76072 -0.735076 0
M  V30 5611 C 510.186 2.97844 -1.74308 0
M  V30 5612 C 509.299 3.09388 -3.01502 0
M  V30 5613 C 508.434 4.38271 -3.00153 0
M  V30 5614 C 507.473 4.43466 -4.21906 0
M  V30 5615 N 506.61 5.63784 -4.1844 0
M  V30 5616 H 511.45 1.44515 -2.60613 0
M  V30 5617 H 508.987 0.703048 -1.29212 0
M  V30 5618 H 510.945 3.77907 -1.76754 0
M  V30 5619 H 509.575 3.11743 -0.837619 0
M  V30 5620 H 508.627 2.22357 -3.08645 0
M  V30 5621 H 509.939 3.09085 -3.91494 0
M  V30 5622 H 509.093 5.2666 -3.01188 0
M  V30 5623 H 507.832 4.41146 -2.07947 0
M  V30 5624 H 506.837 3.53478 -4.21109 0
M  V30 5625 H 508.062 4.42303 -5.1531 0
M  V30 5626 H 506.008 5.67491 -3.29074 0
M  V30 5627 H 505.925 5.65118 -5.02173 0
M  V30 5628 H 507.193 6.54367 -4.23585 0
M  V30 5629 N 511.423 1.38739 0.74761 0
M  V30 5630 C 512.651 1.38521 1.53686 0
M  V30 5631 C 513.066 -0.0235129 1.88785 0
M  V30 5632 O 512.423 -0.991662 1.53207 0
M  V30 5633 C 512.474 2.24641 2.83229 0
M  V30 5634 O 512.195 3.60026 2.49625 0
M  V30 5635 C 513.696 2.32669 3.77333 0
M  V30 5636 H 510.916 0.473589 0.475347 0
M  V30 5637 H 513.46 1.82395 0.924786 0
M  V30 5638 H 511.615 1.84213 3.40799 0
M  V30 5639 H 512.029 4.05435 3.3275 0
M  V30 5640 H 513.503 2.97201 4.65162 0
M  V30 5641 H 513.98 1.3421 4.18192 0
M  V30 5642 H 514.586 2.73512 3.25685 0
M  V30 5643 N 512.901 -0.976442 1.23707 0
M  V30 5644 C 514.147 -1.72081 1.07312 0
M  V30 5645 C 514.48 -1.90275 -0.388476 0
M  V30 5646 O 513.755 -1.4579 -1.28746 0
M  V30 5647 C 514.038 -3.11675 1.80363 0
M  V30 5648 C 513.891 -3.01027 3.3422 0
M  V30 5649 C 515.21 -4.1117 1.5693 0
M  V30 5650 H 512.329 -0.624583 0.391236 0
M  V30 5651 H 514.971 -1.13649 1.52263 0
M  V30 5652 H 513.121 -3.61559 1.42153 0
M  V30 5653 H 514.793 -2.58637 3.81975 0
M  V30 5654 H 513.036 -2.3744 3.63049 0
M  V30 5655 H 513.707 -3.9988 3.80525 0
M  V30 5656 H 516.183 -3.7011 1.90151 0
M  V30 5657 H 515.059 -5.06928 2.10513 0
M  V30 5658 H 515.32 -4.392 0.505548 0
M  V30 5659 N 514.379 -1.04941 -1.1758 0
M  V30 5660 C 515.289 -0.658826 -2.25159 0
M  V30 5661 C 516.305 0.318941 -1.71052 0
M  V30 5662 O 517.481 0.171669 -2.00667 0
M  V30 5663 C 514.546 -0.0369522 -3.4668 0
M  V30 5664 C 513.607 -1.06484 -4.15884 0
M  V30 5665 C 512.84 -0.472551 -5.31604 0
M  V30 5666 O 513.063 0.718736 -5.65854 0
M  V30 5667 O 511.997 -1.20557 -5.89703 0
M  V30 5668 H 515.823 -1.55533 -2.60851 0
M  V30 5669 H 513.408 -0.820819 -1.24832 0
M  V30 5670 H 515.29 0.308784 -4.20267 0
M  V30 5671 H 513.965 0.833238 -3.12792 0
M  V30 5672 H 512.872 -1.46253 -3.44327 0
M  V30 5673 H 514.205 -1.9061 -4.53794 0
M  V30 5674 N 515.857 1.33968 -0.830081 0
M  V30 5675 C 517.103 1.98357 -0.422191 0
M  V30 5676 C 517.436 1.65633 1.01387 0
M  V30 5677 O 516.711 0.931648 1.70735 0
M  V30 5678 C 516.994 3.54492 -0.633043 0
M  V30 5679 C 516.847 3.96934 -2.11574 0
M  V30 5680 C 518.166 4.40039 -0.0735584 0
M  V30 5681 H 515.285 0.720544 -0.154871 0
M  V30 5682 H 517.927 1.58749 -1.04397 0
M  V30 5683 H 516.077 3.88361 -0.103775 0
M  V30 5684 H 517.749 3.73363 -2.7092 0
M  V30 5685 H 515.992 3.46984 -2.60354 0
M  V30 5686 H 516.663 5.05651 -2.21406 0
M  V30 5687 H 519.139 4.12764 -0.52585 0
M  V30 5688 H 518.015 5.48327 -0.250841 0
M  V30 5689 H 518.276 4.30124 1.02202 0
M  V30 5690 N 517.335 0.585699 1.46312 0
M  V30 5691 C 518.245 -0.148236 2.34131 0
M  V30 5692 C 519.261 -0.882972 1.49932 0
M  V30 5693 O 520.437 -0.845484 1.82794 0
M  V30 5694 C 517.502 -1.14714 3.27172 0
M  V30 5695 C 516.563 -0.416746 4.27272 0
M  V30 5696 C 515.796 -1.36806 5.15868 0
M  V30 5697 O 516.019 -2.60475 5.07454 0
M  V30 5698 O 514.953 -0.877018 5.95476 0
M  V30 5699 H 518.779 0.572882 2.98248 0
M  V30 5700 H 516.364 0.346082 1.45336 0
M  V30 5701 H 518.246 -1.72303 3.84564 0
M  V30 5702 H 516.921 -1.84967 2.65648 0
M  V30 5703 H 515.828 0.201061 3.73559 0
M  V30 5704 H 517.161 0.244872 4.9159 0
M  V30 5705 N 518.813 -1.54241 0.323641 0
M  V30 5706 C 520.041 -2.04985 -0.280871 0
M  V30 5707 C 520.456 -1.19978 -1.45777 0
M  V30 5708 O 519.813 -0.230471 -1.81039 0
M  V30 5709 C 519.864 -3.54353 -0.715258 0
M  V30 5710 O 519.585 -4.36132 0.414817 0
M  V30 5711 C 521.086 -4.21189 -1.38257 0
M  V30 5712 H 518.306 -0.66851 -0.0577502 0
M  V30 5713 H 520.85 -1.99029 0.469852 0
M  V30 5714 H 519.005 -3.60596 -1.41596 0
M  V30 5715 H 519.419 -5.2445 0.0725227 0
M  V30 5716 H 520.893 -5.27154 -1.63745 0
M  V30 5717 H 521.37 -3.72307 -2.32989 0
M  V30 5718 H 521.976 -4.19085 -0.724447 0
M  V30 5719 N 520.291 -0.0518155 -1.57515 0
M  V30 5720 C 521.702 0.483787 -1.80323 0
M  V30 5721 C 522.053 1.70879 -0.964099 0
M  V30 5722 O 521.178 2.15643 -0.180872 0
M  V30 5723 C 521.773 0.884459 -3.27052 0
M  V30 5724 C 520.332 1.36504 -3.50776 0
M  V30 5725 C 519.479 0.340539 -2.75201 0
M  V30 5726 H 522.43 -0.277691 -1.56252 0
M  V30 5727 H 522.451 1.74733 -3.38007 0
M  V30 5728 H 521.963 -0.00731093 -3.88099 0
M  V30 5729 H 520.064 2.27598 -2.95009 0
M  V30 5730 H 520.177 1.35675 -4.59488 0
M  V30 5731 H 518.541 0.81356 -2.41357 0
M  V30 5732 H 519.324 -0.543156 -3.38976 0
M  V30 5733 N 521.769 1.56035 0.221574 0
M  V30 5734 C 522.719 1.8881 1.27807 0
M  V30 5735 C 523.703 0.751177 1.42289 0
M  V30 5736 O 524.895 1.01359 1.45104 0
M  V30 5737 C 522.024 2.20828 2.6285 0
M  V30 5738 C 521.11 3.40912 2.52269 0
M  V30 5739 N 521.501 4.59531 2.1134 0
M  V30 5740 C 519.799 3.44526 2.83228 0
M  V30 5741 C 520.5 5.41689 2.1201 0
M  V30 5742 N 519.476 4.814 2.52497 0
M  V30 5743 H 523.278 2.78036 0.952529 0
M  V30 5744 H 520.792 1.566 0.430134 0
M  V30 5745 H 522.789 2.42483 3.39127 0
M  V30 5746 H 521.449 1.32914 2.9625 0
M  V30 5747 H 522.46 4.8469 1.82472 0
M  V30 5748 H 519.137 2.66956 3.21 0
M  V30 5749 H 520.527 6.46643 1.82491 0
M  V30 5750 N 523.247 -0.488276 1.49845 0
M  V30 5751 C 524.487 -1.2516 1.61599 0
M  V30 5752 C 524.851 -1.89615 0.301706 0
M  V30 5753 O 526.052 -2.67182 0.29453 0
M  V30 5754 C 524.323 -2.2805 2.75187 0
M  V30 5755 S 525.882 -3.13552 3.0697 0
M  V30 5756 H 522.7 -0.425178 0.569864 0
M  V30 5757 H 525.302 -0.551545 1.87559 0
M  V30 5758 H 524.006 -1.7925 3.69185 0
M  V30 5759 H 523.537 -3.02708 2.5126 0
M  V30 5760 H 525.552 -4.28927 2.49471 0
M  V30 5761 N 524.725 -1.39134 -0.740242 0
M  V30 5762 C 525.688 -1.37217 -1.83587 0
M  V30 5763 C 526.688 -0.270221 -1.58513 0
M  V30 5764 O 527.878 -0.527843 -1.6601 0
M  V30 5765 C 525.01 -1.13959 -3.21288 0
M  V30 5766 H 526.203 -2.34705 -1.86691 0
M  V30 5767 H 523.756 -1.24622 -0.94335 0
M  V30 5768 H 524.491 -0.17131 -3.23847 0
M  V30 5769 H 524.276 -1.93754 -3.40884 0
M  V30 5770 H 525.766 -1.15346 -4.01354 0
M  V30 5771 N 526.204 0.969867 -1.24223 0
M  V30 5772 C 527.137 2.06279 -0.975926 0
M  V30 5773 C 528.115 1.62353 0.0895385 0
M  V30 5774 O 529.299 1.88442 -0.0469418 0
M  V30 5775 C 526.426 3.35391 -0.472315 0
M  V30 5776 C 525.472 3.98266 -1.526 0
M  V30 5777 S 526.305 4.36172 -3.10667 0
M  V30 5778 C 527.461 5.68423 -2.62003 0
M  V30 5779 H 527.694 2.28551 -1.90137 0
M  V30 5780 H 525.227 1.10748 -1.07584 0
M  V30 5781 H 527.185 4.10068 -0.188376 0
M  V30 5782 H 525.846 3.1111 0.432378 0
M  V30 5783 H 525.039 4.91307 -1.12399 0
M  V30 5784 H 524.641 3.30009 -1.75983 0
M  V30 5785 H 526.933 6.45842 -2.0468 0
M  V30 5786 H 527.876 6.13478 -3.53625 0
M  V30 5787 H 528.284 5.26928 -2.02502 0
M  V30 5788 N 527.682 1.05563 1.17022 0
M  V30 5789 C 528.922 0.777033 1.89054 0
M  V30 5790 C 529.286 -0.683617 1.79418 0
M  V30 5791 O 530.487 -1.07648 2.46303 0
M  V30 5792 C 528.758 1.24886 3.34871 0
M  V30 5793 S 530.317 1.0982 4.24835 0
M  V30 5794 H 527.135 0.282082 0.652649 0
M  V30 5795 H 529.737 1.35103 1.41306 0
M  V30 5796 H 528.441 2.30699 3.3942 0
M  V30 5797 H 527.972 0.669292 3.87665 0
M  V30 5798 H 529.987 0.02462 4.96194 0
M  V30 5799 N 529.16 -1.33526 0.837174 0
M  V30 5800 C 530.09 -2.31764 0.284206 0
M  V30 5801 C 531.071 -1.58896 -0.607142 0
M  V30 5802 O 532.256 -1.86798 -0.531047 0
M  V30 5803 C 529.386 -3.43029 -0.542962 0
M  V30 5804 C 528.34 -4.27255 0.252451 0
M  V30 5805 C 527.666 -5.3012 -0.69836 0
M  V30 5806 C 528.966 -5.01229 1.46858 0
M  V30 5807 H 530.66 -2.78262 1.10502 0
M  V30 5808 H 528.206 -1.3378 0.532812 0
M  V30 5809 H 530.159 -4.1078 -0.940096 0
M  V30 5810 H 528.883 -2.95216 -1.39697 0
M  V30 5811 H 527.542 -3.61127 0.631124 0
M  V30 5812 H 527.19 -4.78564 -1.54872 0
M  V30 5813 H 526.89 -5.87353 -0.170274 0
M  V30 5814 H 528.414 -6.00737 -1.09305 0
M  V30 5815 H 529.828 -5.61756 1.14469 0
M  V30 5816 H 528.225 -5.68104 1.93333 0
M  V30 5817 H 529.295 -4.301 2.23924 0
M  V30 5818 N 530.638 -0.59345 -1.46 0
M  V30 5819 C 531.868 -0.0889642 -2.06408 0
M  V30 5820 C 532.276 1.22597 -1.44106 0
M  V30 5821 O 531.619 1.75448 -0.544398 0
M  V30 5822 C 531.681 0.139902 -3.59228 0
M  V30 5823 C 531.345 -1.09107 -4.43784 0
M  V30 5824 C 532.342 -2.00577 -4.79651 0
M  V30 5825 C 530.027 -1.31593 -4.84756 0
M  V30 5826 C 532.021 -3.12873 -5.55328 0
M  V30 5827 C 529.708 -2.44192 -5.60191 0
M  V30 5828 C 530.706 -3.34661 -5.95392 0
M  V30 5829 O 530.394 -4.45302 -6.69299 0
M  V30 5830 H 530.126 -0.0594613 -0.67338 0
M  V30 5831 H 532.68 -0.817 -1.88452 0
M  V30 5832 H 530.91 0.922672 -3.75531 0
M  V30 5833 H 532.599 0.594228 -4.01527 0
M  V30 5834 H 533.365 -1.84425 -4.48567 0
M  V30 5835 H 529.244 -0.620801 -4.56801 0
M  V30 5836 H 532.788 -3.83511 -5.82722 0
M  V30 5837 H 528.685 -2.60303 -5.90688 0
M  V30 5838 H 529.453 -4.43805 -6.87735 0
M  V30 5839 N 532.116 1.54067 -0.331816 0
M  V30 5840 C 533.064 2.26105 0.54582 0
M  V30 5841 C 534.058 1.27816 1.11173 0
M  V30 5842 O 535.264 1.45565 1.05882 0
M  V30 5843 H 531.639 0.726363 0.194683 0
M  V30 5844 H 533.61 2.98282 -0.083931 0
M  V30 5845 C 532.359 3.03814 1.69092 0
M  V30 5846 H 531.682 3.79269 1.26473 0
M  V30 5847 H 533.122 3.57453 2.28043 0
M  V30 5848 C 531.581 2.12606 2.61343 0
M  V30 5849 O 532.111 1.71437 3.6328 0
M  V30 5850 N 530.317 1.77925 2.29763 0
M  V30 5851 H 529.864 2.11602 1.46909 0
M  V30 5852 H 529.822 1.1718 2.91747 0
M  V30 5853 N 533.594 0.0601682 1.57485 0
M  V30 5854 C 534.504 -0.926121 2.15546 0
M  V30 5855 C 535.52 -1.33532 1.11558 0
M  V30 5856 O 536.696 -1.4104 1.4377 0
M  V30 5857 C 533.761 -2.17952 2.69625 0
M  V30 5858 C 532.822 -1.82783 3.88444 0
M  V30 5859 C 532.055 -3.02148 4.39935 0
M  V30 5860 O 532.278 -4.15803 3.90466 0
M  V30 5861 O 531.212 -2.82639 5.31412 0
M  V30 5862 H 535.038 -0.462289 3.00161 0
M  V30 5863 H 532.623 -0.162246 1.48516 0
M  V30 5864 H 534.505 -2.91474 3.04337 0
M  V30 5865 H 533.18 -2.63456 1.88077 0
M  V30 5866 H 532.087 -1.06549 3.58606 0
M  V30 5867 H 533.42 -1.42072 4.7125 0
M  V30 5868 N 535.072 -1.5615 -0.213296 0
M  V30 5869 C 536.019 -1.93086 -1.26437 0
M  V30 5870 C 536.989 -0.789086 -1.4616 0
M  V30 5871 O 538.174 -1.04569 -1.59593 0
M  V30 5872 C 535.314 -2.26003 -2.608 0
M  V30 5873 C 534.427 -3.53156 -2.48807 0
M  V30 5874 C 533.562 -3.7548 -3.7575 0
M  V30 5875 C 532.601 -4.96119 -3.58514 0
M  V30 5876 N 531.738 -5.14791 -4.77425 0
M  V30 5877 H 536.578 -2.82707 -0.942376 0
M  V30 5878 H 534.115 -1.39919 -0.454001 0
M  V30 5879 H 536.073 -2.431 -3.39055 0
M  V30 5880 H 534.703 -1.39546 -2.91079 0
M  V30 5881 H 533.755 -3.44207 -1.61944 0
M  V30 5882 H 535.067 -4.41565 -2.31996 0
M  V30 5883 H 534.221 -3.92718 -4.62447 0
M  V30 5884 H 532.96 -2.85368 -3.95495 0
M  V30 5885 H 531.965 -4.78823 -2.70201 0
M  V30 5886 H 533.19 -5.87724 -3.40231 0
M  V30 5887 H 531.136 -4.27623 -4.97468 0
M  V30 5888 H 531.053 -5.97347 -4.63371 0
M  V30 5889 H 532.321 -5.36471 -5.65525 0
M  V30 5890 N 536.55 0.480323 -1.50102 0
M  V30 5891 C 537.827 1.24159 -1.51142 0
M  V30 5892 C 538.207 2.09605 -0.250818 0
M  V30 5893 O 537.555 2.15274 0.766118 0
M  V30 5894 C 537.765 2.08057 -2.80202 0
M  V30 5895 C 539.113 2.66556 -3.30504 0
M  V30 5896 O 540.137 2.18308 -2.81461 0
M  V30 5897 O 538.996 3.54442 -4.15973 0
M  V30 5898 H 536.09 0.562928 -0.605839 0
M  V30 5899 H 538.636 0.492899 -1.62384 0
M  V30 5900 H 537.408 1.45032 -3.6343 0
M  V30 5901 H 537.031 2.90079 -2.71919 0
M  V30 5902 N 538.028 1.39524 0.732853 0
M  V30 5903 C 539.274 1.37068 1.49467 0
M  V30 5904 C 539.607 -0.0327166 1.94172 0
M  V30 5905 O 538.882 -0.998071 1.66939 0
M  V30 5906 C 539.165 2.34494 2.73285 0
M  V30 5907 C 539.018 3.83784 2.34585 0
M  V30 5908 C 540.337 2.29717 3.75391 0
M  V30 5909 H 537.456 0.499206 0.542183 0
M  V30 5910 H 540.098 1.70532 0.837783 0
M  V30 5911 H 538.248 2.06087 3.29333 0
M  V30 5912 H 539.92 4.22949 1.84151 0
M  V30 5913 H 538.163 4.00455 1.66787 0
M  V30 5914 H 538.834 4.47444 3.23262 0
M  V30 5915 H 541.31 2.54839 3.28932 0
M  V30 5916 H 540.186 2.99962 4.59689 0
M  V30 5917 H 540.447 1.30291 4.22465 0
M  V30 5918 N 539.506 -0.963266 1.24736 0
M  V30 5919 C 540.922 -1.23273 1.01371 0
M  V30 5920 C 541.122 -1.99618 -0.274776 0
M  V30 5921 O 540.178 -2.32293 -0.989769 0
M  V30 5922 C 541.491 -2.01554 2.23152 0
M  V30 5923 C 543.039 -2.14629 2.27823 0
M  V30 5924 C 543.514 -2.96307 3.49237 0
M  V30 5925 N 545.005 -3.03887 3.49581 0
M  V30 5926 C 545.74 -3.67456 4.40186 0
M  V30 5927 N 545.236 -4.32706 5.41052 0
M  V30 5928 N 547.029 -3.64511 4.27888 0
M  V30 5929 H 539.18 -0.452294 2.07528 0
M  V30 5930 H 541.443 -0.262521 0.910926 0
M  V30 5931 H 541.149 -1.52847 3.1675 0
M  V30 5932 H 541.023 -3.02278 2.25628 0
M  V30 5933 H 543.41 -2.62537 1.34753 0
M  V30 5934 H 543.491 -1.13238 2.2937 0
M  V30 5935 H 543.135 -2.49091 4.42624 0
M  V30 5936 H 543.065 -3.97905 3.44933 0
M  V30 5937 H 545.556 -2.57477 2.76611 0
M  V30 5938 H 545.869 -4.79042 6.06415 0
M  V30 5939 H 544.214 -4.31361 5.44934 0
M  V30 5940 H 547.405 -3.12715 3.4832 0
M  V30 5941 H 547.578 -4.13768 4.98698 0
M  V30 5942 N 540.985 -1.06182 -1.16461 0
M  V30 5943 C 541.948 -0.675723 -2.19013 0
M  V30 5944 C 542.948 0.277963 -1.58379 0
M  V30 5945 O 544.138 0.0604962 -1.74095 0
M  V30 5946 C 541.27 0.00591459 -3.40899 0
M  V30 5947 H 542.463 -1.58353 -2.54685 0
M  V30 5948 H 540.016 -0.856908 -1.30716 0
M  V30 5949 H 540.751 0.92652 -3.10783 0
M  V30 5950 H 540.536 -0.67984 -3.86161 0
M  V30 5951 H 542.026 0.26181 -4.16778 0
M  V30 5952 N 542.463 1.3308 -0.844243 0
M  V30 5953 C 543.879 1.50447 -0.532729 0
M  V30 5954 C 544.079 1.78292 0.938837 0
M  V30 5955 O 543.135 1.84635 1.72239 0
M  V30 5956 C 544.448 2.65555 -1.41072 0
M  V30 5957 C 545.996 2.7944 -1.41005 0
M  V30 5958 C 546.471 3.97616 -2.27301 0
M  V30 5959 N 547.962 4.0486 -2.2504 0
M  V30 5960 C 548.697 4.95508 -2.88547 0
M  V30 5961 N 548.193 5.91236 -3.61126 0
M  V30 5962 N 549.986 4.88548 -2.77989 0
M  V30 5963 H 542.137 1.13269 -1.79677 0
M  V30 5964 H 544.4 0.55734 -0.766861 0
M  V30 5965 H 544.106 2.51675 -2.45668 0
M  V30 5966 H 543.98 3.61089 -1.09061 0
M  V30 5967 H 546.367 2.92749 -0.371784 0
M  V30 5968 H 546.448 1.8465 -1.77026 0
M  V30 5969 H 546.092 3.85066 -3.3119 0
M  V30 5970 H 546.022 4.91661 -1.88619 0
M  V30 5971 H 548.513 3.36353 -1.72264 0
M  V30 5972 H 548.826 6.57079 -4.06776 0
M  V30 5973 H 547.171 5.91295 -3.65234 0
M  V30 5974 H 550.362 4.12729 -2.20846 0
M  V30 5975 H 550.535 5.58994 -3.27765 0
M  V30 5976 N 543.941 0.601185 1.45683 0
M  V30 5977 C 544.874 -0.17013 2.27565 0
M  V30 5978 C 545.852 -0.879661 1.36751 0
M  V30 5979 O 547.036 -0.889827 1.66176 0
M  V30 5980 C 544.163 -1.24568 3.14961 0
M  V30 5981 C 543.209 -0.639978 4.21671 0
M  V30 5982 S 544.042 0.547275 5.32696 0
M  V30 5983 C 545.198 -0.529019 6.2366 0
M  V30 5984 H 545.431 0.524583 2.92635 0
M  V30 5985 H 542.964 0.388537 1.49431 0
M  V30 5986 H 544.922 -1.86138 3.65873 0
M  V30 5987 H 543.583 -1.91243 2.49169 0
M  V30 5988 H 542.776 -1.44903 4.8272 0
M  V30 5989 H 542.378 -0.0995558 3.73867 0
M  V30 5990 H 544.67 -1.40981 6.62669 0
M  V30 5991 H 545.613 0.0451599 7.08086 0
M  V30 5992 H 546.021 -0.84147 5.58193 0
M  V30 5993 N 545.419 -1.53889 0.339982 0
M  V30 5994 C 546.366 -2.24902 -0.518452 0
M  V30 5995 C 547.336 -1.24593 -1.09844 0
M  V30 5996 O 548.521 -1.53317 -1.13572 0
M  V30 5997 C 545.661 -3.02262 -1.66529 0
M  V30 5998 C 544.774 -4.17418 -1.11295 0
M  V30 5999 C 543.909 -4.82273 -2.2268 0
M  V30 6000 C 542.948 -5.89503 -1.6478 0
M  V30 6001 N 542.085 -6.48153 -2.69893 0
M  V30 6002 H 546.925 -2.97853 0.0936579 0
M  V30 6003 H 544.462 -1.46986 0.0579924 0
M  V30 6004 H 546.42 -3.45371 -2.3404 0
M  V30 6005 H 545.05 -2.31614 -2.24844 0
M  V30 6006 H 544.102 -3.78976 -0.328886 0
M  V30 6007 H 545.414 -4.94554 -0.649414 0
M  V30 6008 H 544.568 -5.28435 -2.98063 0
M  V30 6009 H 543.307 -4.04552 -2.72376 0
M  V30 6010 H 542.312 -5.42728 -0.879004 0
M  V30 6011 H 543.537 -6.6913 -1.1594 0
M  V30 6012 H 541.483 -5.73298 -3.1885 0
M  V30 6013 H 541.4 -7.20752 -2.28151 0
M  V30 6014 H 542.668 -6.98968 -3.45056 0
M  V30 6015 N 546.897 -0.0685191 -1.57451 0
M  V30 6016 C 548.313 0.288101 -1.56978 0
M  V30 6017 C 548.513 1.70262 -1.07765 0
M  V30 6018 O 547.569 2.4135 -0.742054 0
M  V30 6019 C 548.882 0.100745 -3.00531 0
M  V30 6020 C 550.43 0.170531 -3.12535 0
M  V30 6021 C 550.905 0.0114944 -4.57999 0
M  V30 6022 N 552.396 0.0672065 -4.63151 0
M  V30 6023 C 553.131 -0.0314813 -5.73391 0
M  V30 6024 N 552.627 -0.183503 -6.92557 0
M  V30 6025 N 554.42 0.0253489 -5.62094 0
M  V30 6026 H 546.571 -0.993026 -1.87757 0
M  V30 6027 H 548.834 -0.386981 -0.865419 0
M  V30 6028 H 548.54 -0.875197 -3.40636 0
M  V30 6029 H 548.414 0.854457 -3.67395 0
M  V30 6030 H 550.801 1.13696 -2.72318 0
M  V30 6031 H 550.882 -0.614229 -2.48316 0
M  V30 6032 H 550.526 -0.951684 -4.98904 0
M  V30 6033 H 550.456 0.815617 -5.20245 0
M  V30 6034 H 552.947 0.183246 -3.77455 0
M  V30 6035 H 553.26 -0.251041 -7.72392 0
M  V30 6036 H 551.605 -0.218822 -6.94655 0
M  V30 6037 H 554.796 0.142794 -4.67882 0
M  V30 6038 H 554.969 -0.0550166 -6.47977 0
M  V30 6039 N 548.375 1.56261 0.205012 0
M  V30 6040 C 549.623 1.79684 0.925096 0
M  V30 6041 C 549.944 0.63989 1.84202 0
M  V30 6042 O 549.214 -0.342345 1.92885 0
M  V30 6043 H 547.794 0.662774 0.344587 0
M  V30 6044 H 550.456 1.93734 0.212899 0
M  V30 6045 H 549.552 2.72467 1.52211 0
M  V30 6046 N 549.853 -0.472356 1.50355 0
M  V30 6047 C 551.083 -1.24603 1.64796 0
M  V30 6048 C 551.491 -1.86297 0.330156 0
M  V30 6049 O 550.834 -1.69934 -0.697728 0
M  V30 6050 C 550.896 -2.39578 2.68035 0
M  V30 6051 C 550.56 -1.98531 4.11624 0
M  V30 6052 C 551.557 -1.50856 4.97532 0
M  V30 6053 C 549.242 -2.0729 4.57532 0
M  V30 6054 C 551.236 -1.12481 6.27397 0
M  V30 6055 C 548.923 -1.68527 5.87403 0
M  V30 6056 C 549.921 -1.212 6.7216 0
M  V30 6057 O 549.609 -0.829728 7.99607 0
M  V30 6058 H 549.341 -0.383035 0.55701 0
M  V30 6059 H 551.895 -0.570392 1.97321 0
M  V30 6060 H 550.125 -3.10309 2.30749 0
M  V30 6061 H 551.814 -3.01544 2.71709 0
M  V30 6062 H 552.58 -1.43511 4.63281 0
M  V30 6063 H 548.459 -2.43076 3.91708 0
M  V30 6064 H 552.003 -0.754698 6.93506 0
M  V30 6065 H 547.9 -1.7553 6.21176 0
M  V30 6066 H 548.668 -0.958689 8.12866 0
M  V30 6067 N 551.331 -1.39911 -0.725443 0
M  V30 6068 C 552.608 -1.28158 -1.47766 0
M  V30 6069 C 552.988 0.104545 -2.10841 0
M  V30 6070 O 552.336 1.11657 -1.99361 0
M  V30 6071 C 552.546 -2.41306 -2.52135 0
M  V30 6072 C 553.894 -2.81076 -3.18247 0
M  V30 6073 O 554.918 -2.40827 -2.62452 0
M  V30 6074 O 553.777 -3.50581 -4.19231 0
M  V30 6075 H 550.871 -0.502761 -0.656628 0
M  V30 6076 H 553.417 -1.51808 -0.758456 0
M  V30 6077 H 552.189 -3.33932 -2.03974 0
M  V30 6078 H 551.812 -2.19374 -3.31603 0
M  V30 6079 N 552.809 0.956637 -1.25245 0
M  V30 6080 C 553.757 2.0743 -1.0524 0
M  V30 6081 C 554.751 1.69392 0.0160725 0
M  V30 6082 O 555.957 1.7946 -0.139382 0
M  V30 6083 H 552.332 0.678921 -0.323373 0
M  V30 6084 H 554.303 2.2146 -1.99995 0
M  V30 6085 C 553.052 3.40872 -0.685702 0
M  V30 6086 H 552.375 3.70607 -1.49968 0
M  V30 6087 H 553.815 4.19939 -0.585415 0
M  V30 6088 C 552.274 3.31367 0.608082 0
M  V30 6089 O 552.804 3.66214 1.65076 0
M  V30 6090 N 551.01 2.84486 0.592955 0
M  V30 6091 H 550.557 2.56326 -0.25592 0
M  V30 6092 H 550.515 2.78509 1.45877 0
M  V30 6093 N 554.287 1.06798 1.15896 0
M  V30 6094 C 555.698 0.811355 1.68149 0
M  V30 6095 C 556.049 -0.664339 1.8461 0
M  V30 6096 O 555.174 -1.51485 1.54535 0
M  V30 6097 C 555.769 1.46624 3.05429 0
M  V30 6098 C 554.328 1.25726 3.54781 0
M  V30 6099 C 553.475 1.53949 2.3064 0
M  V30 6100 H 556.426 1.23078 1.00187 0
M  V30 6101 H 556.447 0.88437 3.7008 0
M  V30 6102 H 555.959 2.54025 2.93416 0
M  V30 6103 H 554.06 0.20322 3.72045 0
M  V30 6104 H 554.173 1.97354 4.36564 0
M  V30 6105 H 552.537 0.96025 2.35905 0
M  V30 6106 H 553.32 2.6252 2.2122 0
M  V30 6107 N 555.766 -1.3263 0.851289 0
M  V30 6108 C 556.714 -2.30882 0.282202 0
M  V30 6109 C 557.708 -1.58697 -0.592589 0
M  V30 6110 O 558.914 -1.73461 -0.480768 0
M  V30 6111 H 555.289 -0.748492 0.0725487 0
M  V30 6112 H 557.26 -2.76374 1.12516 0
M  V30 6113 C 556.009 -3.43828 -0.517449 0
M  V30 6114 H 555.332 -3.99532 0.146392 0
M  V30 6115 H 556.772 -4.1474 -0.88128 0
M  V30 6116 C 555.231 -2.90786 -1.70133 0
M  V30 6117 O 555.761 -2.88 -2.80034 0
M  V30 6118 N 553.967 -2.4723 -1.52728 0
M  V30 6119 H 553.514 -2.49695 -0.633257 0
M  V30 6120 H 553.472 -2.12094 -2.32085 0
M  V30 6121 N 557.244 -0.608902 -1.45362 0
M  V30 6122 C 558.491 -0.104607 -2.0223 0
M  V30 6123 C 558.819 1.26534 -1.47714 0
M  V30 6124 O 558.074 1.84855 -0.642435 0
M  V30 6125 C 558.373 -0.0167296 -3.57396 0
M  V30 6126 C 558.039 -1.32251 -4.31069 0
M  V30 6127 C 556.701 -1.68019 -4.50914 0
M  V30 6128 C 559.053 -2.18542 -4.73169 0
M  V30 6129 C 556.381 -2.89828 -5.10114 0
M  V30 6130 C 558.733 -3.39602 -5.33717 0
M  V30 6131 C 557.397 -3.7562 -5.51784 0
M  V30 6132 H 556.667 -0.0382785 -0.740011 0
M  V30 6133 H 559.314 -0.790782 -1.7441 0
M  V30 6134 H 557.619 0.752715 -3.84502 0
M  V30 6135 H 559.316 0.389634 -3.99103 0
M  V30 6136 H 555.906 -1.03411 -4.15938 0
M  V30 6137 H 560.09 -1.92208 -4.5757 0
M  V30 6138 H 555.346 -3.17839 -5.22291 0
M  V30 6139 H 559.52 -4.06716 -5.65292 0
M  V30 6140 H 557.147 -4.70093 -5.97425 0
M  V30 6141 N 558.722 1.53707 -0.348139 0
M  V30 6142 C 559.971 2.0017 0.247992 0
M  V30 6143 C 560.284 1.23983 1.51286 0
M  V30 6144 O 561.49 1.60946 2.18652 0
M  V30 6145 C 559.946 3.56515 0.492459 0
M  V30 6146 C 559.554 4.41562 -0.756777 0
M  V30 6147 C 561.298 4.11381 1.0472 0
M  V30 6148 C 559.205 5.89426 -0.482856 0
M  V30 6149 H 558.135 0.747806 0.0964452 0
M  V30 6150 H 560.786 1.77532 -0.464179 0
M  V30 6151 H 559.168 3.75236 1.26545 0
M  V30 6152 H 560.342 4.34615 -1.53122 0
M  V30 6153 H 558.657 3.97711 -1.23348 0
M  V30 6154 H 561.254 5.19468 1.26717 0
M  V30 6155 H 561.597 3.64885 2.00411 0
M  V30 6156 H 562.13 3.96389 0.334801 0
M  V30 6157 H 558.869 6.40164 -1.40962 0
M  V30 6158 H 558.389 5.99264 0.253416 0
M  V30 6159 H 560.068 6.4692 -0.101816 0
M  V30 6160 N 560.2 0.0768682 1.57412 0
M  V30 6161 C 561.13 -0.886026 2.16037 0
M  V30 6162 C 562.111 -1.30691 1.08876 0
M  V30 6163 O 563.296 -1.37705 1.36934 0
M  V30 6164 C 560.426 -2.1518 2.72608 0
M  V30 6165 C 559.38 -1.87015 3.8498 0
M  V30 6166 C 558.706 -3.20266 4.28175 0
M  V30 6167 C 560.006 -1.17143 5.08994 0
M  V30 6168 H 561.7 -0.397642 2.96748 0
M  V30 6169 H 559.246 -0.189823 1.42743 0
M  V30 6170 H 561.199 -2.82962 3.12266 0
M  V30 6171 H 559.923 -2.66269 1.89125 0
M  V30 6172 H 558.582 -1.21636 3.45833 0
M  V30 6173 H 558.23 -3.69207 3.41607 0
M  V30 6174 H 557.93 -3.0221 5.03927 0
M  V30 6175 H 559.454 -3.89237 4.70454 0
M  V30 6176 H 560.868 -1.75003 5.45937 0
M  V30 6177 H 559.265 -1.09328 5.90057 0
M  V30 6178 H 560.335 -0.151295 4.84664 0
M  V30 6179 N 561.678 -1.56367 -0.196722 0
M  V30 6180 C 562.903 -1.84991 -0.937714 0
M  V30 6181 C 563.328 -0.660244 -1.76132 0
M  V30 6182 O 562.686 0.390967 -1.77034 0
M  V30 6183 C 562.734 -3.11828 -1.81096 0
M  V30 6184 O 561.838 -2.92266 -2.90955 0
M  V30 6185 H 561.179 -0.609193 -0.264159 0
M  V30 6186 H 563.709 -2.03595 -0.202529 0
M  V30 6187 H 563.719 -3.42579 -2.21594 0
M  V30 6188 H 562.394 -3.98037 -1.2058 0
M  V30 6189 H 560.971 -2.72809 -2.54224 0
M  V30 6190 N 563.156 0.464375 -1.50603 0
M  V30 6191 C 564.066 1.58723 -1.72754 0
M  V30 6192 C 565.082 1.62925 -0.610844 0
M  V30 6193 O 566.258 1.8067 -0.889963 0
M  V30 6194 C 563.323 2.94897 -1.82309 0
M  V30 6195 C 562.384 3.0103 -3.06071 0
M  V30 6196 C 561.617 4.30708 -3.1516 0
M  V30 6197 O 561.84 5.2159 -2.30868 0
M  V30 6198 O 560.774 4.42571 -4.0794 0
M  V30 6199 H 564.6 1.42954 -2.67951 0
M  V30 6200 H 562.185 0.644579 -1.3478 0
M  V30 6201 H 564.067 3.75764 -1.90735 0
M  V30 6202 H 562.742 3.10851 -0.902967 0
M  V30 6203 H 561.649 2.19217 -3.03142 0
M  V30 6204 H 562.982 2.90014 -3.97684 0
M  V30 6205 N 564.634 1.40294 0.718013 0
M  V30 6206 C 565.88 1.38645 1.48005 0
M  V30 6207 C 566.213 -0.0121202 1.94196 0
M  V30 6208 O 565.488 -0.980309 1.67989 0
M  V30 6209 C 565.771 2.37379 2.70782 0
M  V30 6210 C 565.624 3.8625 2.30501 0
M  V30 6211 C 566.943 2.33685 3.72933 0
M  V30 6212 H 564.062 0.504928 0.536858 0
M  V30 6213 H 566.704 1.71411 0.819649 0
M  V30 6214 H 564.854 2.09568 3.27129 0
M  V30 6215 H 566.526 4.24879 1.79655 0
M  V30 6216 H 564.769 4.02202 1.6253 0
M  V30 6217 H 565.44 4.50847 3.18498 0
M  V30 6218 H 567.916 2.58314 3.2621 0
M  V30 6219 H 566.792 3.0482 4.56482 0
M  V30 6220 H 567.053 1.34765 4.21059 0
M  V30 6221 N 566.112 -0.949982 1.2575 0
M  V30 6222 C 567.06 -2.06869 1.06339 0
M  V30 6223 C 568.054 -1.69399 -0.00708901 0
M  V30 6224 O 569.26 -1.79383 0.148897 0
M  V30 6225 H 565.635 -0.677197 0.326969 0
M  V30 6226 H 567.606 -2.20396 2.01167 0
M  V30 6227 C 566.355 -3.40503 0.703769 0
M  V30 6228 H 565.678 -3.69807 1.51931 0
M  V30 6229 H 567.118 -4.19623 0.607677 0
M  V30 6230 C 565.577 -3.31685 -0.5905 0
M  V30 6231 O 566.107 -3.67085 -1.63131 0
M  V30 6232 N 564.313 -2.84797 -0.577859 0
M  V30 6233 H 563.86 -2.56186 0.26951 0
M  V30 6234 H 563.818 -2.79279 -1.44398 0
M  V30 6235 N 567.59 -1.07411 -1.15328 0
M  V30 6236 C 568.5 -0.706438 -2.23711 0
M  V30 6237 C 569.516 0.282586 -1.7169 0
M  V30 6238 O 570.692 0.129066 -2.00986 0
M  V30 6239 C 567.757 -0.11048 -3.46524 0
M  V30 6240 C 566.818 -1.15282 -4.13532 0
M  V30 6241 C 566.051 -0.585205 -5.30482 0
M  V30 6242 O 566.274 0.598549 -5.67251 0
M  V30 6243 O 565.208 -1.33039 -5.87013 0
M  V30 6244 H 569.034 -1.61031 -2.57493 0
M  V30 6245 H 566.619 -0.847113 -1.23062 0
M  V30 6246 H 568.501 0.21957 -4.20828 0
M  V30 6247 H 567.176 0.766703 -3.14489 0
M  V30 6248 H 566.083 -1.53523 -3.41147 0
M  V30 6249 H 567.416 -2.00192 -4.49649 0
M  V30 6250 N 569.068 1.32177 -0.85831 0
M  V30 6251 C 570.296 2.01313 -0.477582 0
M  V30 6252 C 570.711 1.6449 0.926736 0
M  V30 6253 O 570.068 0.868096 1.60531 0
M  V30 6254 C 570.119 3.56293 -0.611337 0
M  V30 6255 O 569.84 3.91794 -1.96034 0
M  V30 6256 C 571.341 4.42702 -0.230093 0
M  V30 6257 H 568.561 0.644323 -0.187322 0
M  V30 6258 H 571.105 1.68674 -1.15626 0
M  V30 6259 H 569.26 3.87395 0.0196494 0
M  V30 6260 H 569.674 4.86513 -1.95973 0
M  V30 6261 H 571.148 5.50727 -0.374674 0
M  V30 6262 H 571.625 4.3129 0.829779 0
M  V30 6263 H 572.231 4.16997 -0.836302 0
M  V30 6264 N 570.547 0.616602 1.45037 0
M  V30 6265 C 571.824 0.0469086 1.95544 0
M  V30 6266 C 572.204 -1.42345 1.55888 0
M  V30 6267 O 571.552 -2.13055 0.825824 0
M  V30 6268 C 571.762 0.254489 3.48071 0
M  V30 6269 C 573.11 0.140025 4.24369 0
M  V30 6270 O 574.134 0.185084 3.55719 0
M  V30 6271 O 572.993 0.0327034 5.4649 0
M  V30 6272 H 570.087 -0.0306051 0.826433 0
M  V30 6273 H 572.633 0.687293 1.55159 0
M  V30 6274 H 571.405 1.27532 3.69934 0
M  V30 6275 H 571.028 -0.42073 3.95368 0
M  V30 6276 N 572.025 -1.5352 0.356285 0
M  V30 6277 C 573.302 -1.93405 -0.292223 0
M  V30 6278 C 573.682 -1.28901 -1.67176 0
M  V30 6279 O 573.03 -0.444632 -2.24132 0
M  V30 6280 C 573.24 -3.47223 -0.35175 0
M  V30 6281 C 574.588 -4.20389 -0.596534 0
M  V30 6282 O 575.612 -3.53554 -0.433344 0
M  V30 6283 O 574.471 -5.3881 -0.913589 0
M  V30 6284 H 571.565 -0.808666 -0.173172 0
M  V30 6285 H 574.111 -1.64713 0.408391 0
M  V30 6286 H 572.883 -3.86423 0.615841 0
M  V30 6287 H 572.506 -3.8212 -1.09864 0
M  V30 6288 N 573.503 -0.0852151 -1.57369 0
M  V30 6289 C 574.731 0.58946 -1.98325 0
M  V30 6290 C 575.146 1.62333 -0.96403 0
M  V30 6291 O 574.503 1.82438 0.0476395 0
M  V30 6292 C 574.554 1.24604 -3.39347 0
M  V30 6293 O 574.275 0.253532 -4.37366 0
M  V30 6294 C 575.776 2.00726 -3.95252 0
M  V30 6295 H 572.996 0.158783 -0.651942 0
M  V30 6296 H 575.54 -0.161584 -2.03861 0
M  V30 6297 H 573.695 1.94808 -3.34856 0
M  V30 6298 H 574.109 0.726207 -5.19448 0
M  V30 6299 H 575.583 2.42039 -4.96106 0
M  V30 6300 H 576.06 2.86919 -3.32527 0
M  V30 6301 H 576.666 1.3536 -4.03185 0
M  V30 6302 N 574.981 1.5647 0.188427 0
M  V30 6303 C 575.928 1.95073 1.23349 0
M  V30 6304 C 576.898 0.812238 1.44886 0
M  V30 6305 O 578.083 1.07095 1.57909 0
M  V30 6306 C 575.223 2.30124 2.57171 0
M  V30 6307 C 574.336 3.57069 2.43157 0
M  V30 6308 C 573.471 3.81411 3.69729 0
M  V30 6309 C 572.51 5.0176 3.50575 0
M  V30 6310 N 571.647 5.22321 4.69175 0
M  V30 6311 H 576.487 2.84171 0.89728 0
M  V30 6312 H 574.024 1.40623 0.431683 0
M  V30 6313 H 575.982 2.48463 3.35145 0
M  V30 6314 H 574.612 1.44159 2.88822 0
M  V30 6315 H 573.664 3.4674 1.56447 0
M  V30 6316 H 574.976 4.452 2.24942 0
M  V30 6317 H 574.13 4.00026 4.56141 0
M  V30 6318 H 572.869 2.91624 3.90905 0
M  V30 6319 H 571.874 4.83061 2.62549 0
M  V30 6320 H 573.099 5.93063 3.30837 0
M  V30 6321 H 571.045 4.35483 4.90602 0
M  V30 6322 H 570.962 6.04643 4.53809 0
M  V30 6323 H 572.23 5.45401 5.56919 0
M  V30 6324 N 576.459 -0.456382 1.50847 0
M  V30 6325 C 577.392 -1.57177 1.65441 0
M  V30 6326 C 578.37 -1.54649 0.502224 0
M  V30 6327 O 579.554 -1.74057 0.723633 0
M  V30 6328 C 576.681 -2.95763 1.65052 0
M  V30 6329 C 575.727 -3.16389 2.86007 0
M  V30 6330 S 576.56 -2.94716 4.47105 0
M  V30 6331 C 577.716 -4.35617 4.49432 0
M  V30 6332 H 577.949 -1.44561 2.59787 0
M  V30 6333 H 575.482 -0.644758 1.40293 0
M  V30 6334 H 577.44 -3.75654 1.65512 0
M  V30 6335 H 576.101 -3.05756 0.719153 0
M  V30 6336 H 575.294 -4.17667 2.82081 0
M  V30 6337 H 574.896 -2.44293 2.8319 0
M  V30 6338 H 577.188 -5.28503 4.239 0
M  V30 6339 H 578.131 -4.44582 5.51137 0
M  V30 6340 H 578.539 -4.18382 3.78967 0
M  V30 6341 O 577.976 -1.4986 -0.602026 0
M  V30 6342 H 578.667 -1.47399 -1.25671 0
M  V30 END ATOM
M  V30 BEGIN BOND
M  V30 END BOND
M  V30 END CTAB
M  END
$$$$
