drugbank_target|P13843 Fusion glycoprotein F0 (DB00110; DB05226)
 OpenBabel12092119373D

  0  0  0     0  0            999 V3000
M  V30 BEGIN CTAB
M  V30 COUNTS 9059 9120 0 0 0
M  V30 BEGIN ATOM
M  V30 1 H -0.908 1.98254 -0.117106 0
M  V30 2 N 0 1.576 0 0
M  V30 3 C 0.933 2.03868 1.02534 0
M  V30 4 C 1.911 0.928543 1.3348 0
M  V30 5 O 3.095 1.19667 1.45644 0
M  V30 6 C 0.222 2.43627 2.35294 0
M  V30 7 C -0.732 3.65373 2.2001 0
M  V30 8 S 0.101 5.13292 1.52614 0
M  V30 9 C 1.257 5.56322 2.86805 0
M  V30 10 H 1.49 2.90518 0.631377 0
M  V30 11 H -0.977 1.52953 0.210867 0
M  V30 12 H 0.981 2.67203 3.11629 0
M  V30 13 H -0.358 1.57376 2.7183 0
M  V30 14 H -1.165 3.90944 3.18086 0
M  V30 15 H -1.563 3.418 1.51819 0
M  V30 16 H 0.729 5.58782 3.83104 0
M  V30 17 H 1.672 6.56266 2.65933 0
M  V30 18 H 2.08 4.83886 2.90714 0
M  V30 19 N 1.4781 -0.272755 1.55222 0
M  V30 20 C 2.3881 -1.35918 1.91216 0
M  V30 21 C 3.4041 -1.54026 0.809436 0
M  V30 22 O 4.5801 -1.68148 1.10852 0
M  V30 23 C 1.6451 -2.69834 2.17693 0
M  V30 24 C 0.7061 -2.6047 3.41253 0
M  V30 25 C -0.0609 -3.88 3.66458 0
M  V30 26 O 0.1621 -4.88693 2.94169 0
M  V30 27 O -0.9039 -3.88189 4.59992 0
M  V30 28 H 2.9221 -1.0839 2.83699 0
M  V30 29 H 0.5071 -0.471301 1.41771 0
M  V30 30 H 2.3891 -3.49017 2.36147 0
M  V30 31 H 1.0641 -2.97148 1.28392 0
M  V30 32 H -0.0289 -1.79663 3.28134 0
M  V30 33 H 1.3041 -2.38106 4.30774 0
M  V30 34 N 2.9562 -1.48159 -0.537278 0
M  V30 35 C 3.8862 -1.65029 -1.6519 0
M  V30 36 C 4.8672 -0.499281 -1.62607 0
M  V30 37 O 6.0522 -0.730972 -1.79918 0
M  V30 38 C 3.1822 -1.68303 -3.03795 0
M  V30 39 C 2.1362 -2.8283 -3.21234 0
M  V30 40 C 1.4622 -2.71189 -4.60826 0
M  V30 41 C 2.7622 -4.24211 -3.04701 0
M  V30 42 H 4.4562 -2.58341 -1.51328 0
M  V30 43 H 2.0022 -1.24325 -0.726585 0
M  V30 44 H 3.9552 -1.78693 -3.81637 0
M  V30 45 H 2.6792 -0.715635 -3.18663 0
M  V30 46 H 1.3382 -2.71983 -2.45807 0
M  V30 47 H 0.9862 -1.72435 -4.7252 0
M  V30 48 H 0.6862 -3.48035 -4.7344 0
M  V30 49 H 2.2102 -2.83537 -5.40777 0
M  V30 50 H 3.6242 -4.3593 -3.72341 0
M  V30 51 H 2.0212 -5.01998 -3.28813 0
M  V30 52 H 3.0912 -4.41184 -2.01209 0
M  V30 53 N 4.4343 0.785586 -1.36625 0
M  V30 54 C 5.3643 1.91259 -1.33949 0
M  V30 55 C 6.3453 1.68795 -0.210325 0
M  V30 56 O 7.5303 1.89854 -0.408561 0
M  V30 57 C 4.6603 3.28339 -1.13186 0
M  V30 58 C 3.6143 3.65335 -2.22967 0
M  V30 59 C 2.9403 5.00806 -1.87342 0
M  V30 60 C 4.2403 3.7352 -3.65075 0
M  V30 61 H 5.9343 1.93755 -2.28253 0
M  V30 62 H 3.4803 0.930788 -1.09874 0
M  V30 63 H 5.4333 4.06804 -1.09948 0
M  V30 64 H 4.1573 3.2624 -0.153332 0
M  V30 65 H 2.8163 2.89169 -2.25337 0
M  V30 66 H 2.4643 4.95233 -0.880545 0
M  V30 67 H 2.1643 5.26529 -2.60846 0
M  V30 68 H 3.6883 5.81687 -1.85667 0
M  V30 69 H 5.1023 4.42168 -3.64911 0
M  V30 70 H 3.4993 4.10731 -4.37516 0
M  V30 71 H 4.5693 2.74527 -3.99703 0
M  V30 72 N 5.9124 1.20967 1.01018 0
M  V30 73 C 7.1614 1.01796 1.74128 0
M  V30 74 C 7.4744 -0.449691 1.90361 0
M  V30 75 O 8.6804 -0.76068 2.60626 0
M  V30 76 C 7.1364 1.7727 3.13215 0
M  V30 77 C 6.7444 3.28171 3.04972 0
M  V30 78 C 8.4884 1.66489 3.90489 0
M  V30 79 C 6.3954 3.96156 4.39107 0
M  V30 80 H 5.3254 0.377276 0.652824 0
M  V30 81 H 7.9764 1.44651 1.12909 0
M  V30 82 H 6.3584 1.27205 3.75013 0
M  V30 83 H 7.5324 3.85499 2.52443 0
M  V30 84 H 5.8474 3.39437 2.41188 0
M  V30 85 H 8.4444 2.14617 4.89738 0
M  V30 86 H 8.7874 0.6222 4.11624 0
M  V30 87 H 9.3204 2.14003 3.35332 0
M  V30 88 H 6.0594 5.00604 4.23174 0
M  V30 89 H 5.5794 3.43617 4.91617 0
M  V30 90 H 7.2584 4.00774 5.07926 0
M  V30 91 N 7.3905 -1.2043 1.01659 0
M  V30 92 C 8.3405 -2.21076 0.557623 0
M  V30 93 C 9.3245 -1.56176 -0.387029 0
M  V30 94 O 10.5165 -1.7575 -0.209996 0
M  V30 95 C 7.6455 -3.43146 -0.102707 0
M  V30 96 C 6.7315 -4.15213 0.863652 0
M  V30 97 N 7.1225 -4.63662 2.02117 0
M  V30 98 C 5.4205 -4.40716 0.684472 0
M  V30 99 C 6.1215 -5.18868 2.62966 0
M  V30 100 N 5.0975 -5.0893 1.91027 0
M  V30 101 H 8.8995 -2.56201 1.44008 0
M  V30 102 H 6.4135 -1.36366 0.881931 0
M  V30 103 H 8.4105 -4.14475 -0.449054 0
M  V30 104 H 7.0705 -3.09526 -0.981003 0
M  V30 105 H 8.0815 -4.58877 2.40109 0
M  V30 106 H 4.7585 -4.17245 -0.14577 0
M  V30 107 H 6.1485 -5.6673 3.60924 0
M  V30 108 N 8.8686 -0.792821 -1.36206 0
M  V30 109 C 10.2846 -0.474903 -1.52371 0
M  V30 110 C 10.4846 1.00622 -1.74578 0
M  V30 111 O 9.5406 1.79162 -1.77924 0
M  V30 112 C 10.8536 -1.3083 -2.70747 0
M  V30 113 C 12.4016 -1.30234 -2.84619 0
M  V30 114 C 12.8766 -2.11956 -4.06004 0
M  V30 115 N 14.3676 -2.09419 -4.13156 0
M  V30 116 C 15.1026 -2.69419 -5.06163 0
M  V30 117 N 14.5986 -3.3829 -6.04592 0
M  V30 118 N 16.3916 -2.59134 -4.98804 0
M  V30 119 H 8.5426 -1.75222 -1.20046 0
M  V30 120 H 10.8056 -0.745024 -0.586211 0
M  V30 121 H 10.5116 -2.35881 -2.6087 0
M  V30 122 H 10.3856 -0.95196 -3.6499 0
M  V30 123 H 12.7726 -0.259748 -2.93955 0
M  V30 124 H 12.8536 -1.69847 -1.91274 0
M  V30 125 H 12.4976 -3.16248 -3.97429 0
M  V30 126 H 12.4276 -1.69711 -4.98503 0
M  V30 127 H 14.9186 -1.59297 -3.42685 0
M  V30 128 H 15.2316 -3.81394 -6.7213 0
M  V30 129 H 13.5766 -3.42393 -6.04807 0
M  V30 130 H 16.7676 -2.04927 -4.20859 0
M  V30 131 H 16.9406 -3.06185 -5.711 0
M  V30 132 N 10.3467 1.47872 -0.545128 0
M  V30 133 C 11.5717 2.07391 -0.0190611 0
M  V30 134 C 11.9967 1.39688 1.25971 0
M  V30 135 O 11.3547 0.467816 1.7516 0
M  V30 136 C 11.4027 3.60188 0.172335 0
M  V30 137 O 10.5067 3.9339 1.23766 0
M  V30 138 H 9.8477 0.662411 -0.0459059 0
M  V30 139 H 12.3777 1.90066 -0.757365 0
M  V30 140 H 12.3877 4.06129 0.390305 0
M  V30 141 H 11.0627 4.08865 -0.761725 0
M  V30 142 H 9.6397 3.5921 1.00114 0
M  V30 143 N 11.8248 0.280983 1.55075 0
M  V30 144 C 13.0498 -0.340154 2.04592 0
M  V30 145 C 13.4748 -1.48246 1.15779 0
M  V30 146 O 12.8328 -1.80614 0.15761 0
M  V30 147 C 12.8808 -0.793104 3.5177 0
M  V30 148 O 11.9848 -1.89981 3.66034 0
M  V30 149 H 11.3258 -0.0694289 0.66036 0
M  V30 150 H 13.8558 0.416993 2.00306 0
M  V30 151 H 13.8658 -1.08729 3.93245 0
M  V30 152 H 12.5408 0.0426163 4.15878 0
M  V30 153 H 11.1178 -1.60771 3.36463 0
M  V30 154 N 13.3029 -1.57598 0.00835791 0
M  V30 155 C 14.2659 -2.07884 -0.965242 0
M  V30 156 C 15.2659 -0.989825 -1.26725 0
M  V30 157 O 16.4559 -1.25218 -1.21104 0
M  V30 158 C 13.5879 -2.52731 -2.28779 0
M  V30 159 H 14.7809 -2.95178 -0.530112 0
M  V30 160 H 12.3339 -1.54458 -0.239283 0
M  V30 161 H 13.0689 -1.68705 -2.76964 0
M  V30 162 H 12.8539 -3.32272 -2.08177 0
M  V30 163 H 14.3439 -2.91933 -2.98605 0
M  V30 164 N 14.781 0.264519 -1.55364 0
M  V30 165 C 16.03 0.992812 -1.75574 0
M  V30 166 C 16.343 1.87142 -0.568979 0
M  V30 167 O 17.549 2.63513 -0.653682 0
M  V30 168 C 16.005 1.81519 -3.10771 0
M  V30 169 C 15.613 0.984839 -4.37041 0
M  V30 170 C 17.357 2.53727 -3.40327 0
M  V30 171 C 15.264 1.80209 -5.63275 0
M  V30 172 H 14.194 0.374412 -0.65447 0
M  V30 173 H 16.845 0.248138 -1.81815 0
M  V30 174 H 15.227 2.60115 -2.98591 0
M  V30 175 H 16.401 0.242455 -4.60162 0
M  V30 176 H 14.716 0.37691 -4.14691 0
M  V30 177 H 17.313 3.15292 -4.3185 0
M  V30 178 H 17.656 3.24447 -2.60845 0
M  V30 179 H 18.189 1.82156 -3.53644 0
M  V30 180 H 14.928 1.13896 -6.45529 0
M  V30 181 H 14.448 2.52022 -5.44284 0
M  V30 182 H 16.127 2.37364 -6.01887 0
M  V30 183 N 16.2591 1.48442 0.529413 0
M  V30 184 C 17.5061 1.56488 1.28521 0
M  V30 185 C 17.8341 0.239042 1.93025 0
M  V30 186 O 17.0891 -0.770713 1.79885 0
M  V30 187 C 17.3881 2.6523 2.39558 0
M  V30 188 C 17.0541 4.07648 1.92702 0
M  V30 189 C 15.7161 4.46411 1.79641 0
M  V30 190 C 18.0681 4.96896 1.573 0
M  V30 191 C 15.3961 5.72226 1.29514 0
M  V30 192 C 17.7481 6.23202 1.08636 0
M  V30 193 C 16.4121 6.60821 0.941919 0
M  V30 194 H 15.6821 0.572631 0.470292 0
M  V30 195 H 18.3291 1.82161 0.59072 0
M  V30 196 H 16.6341 2.33419 3.14679 0
M  V30 197 H 18.3311 2.68671 2.97686 0
M  V30 198 H 14.9211 3.77036 2.03819 0
M  V30 199 H 19.1051 4.67626 1.66251 0
M  V30 200 H 14.3611 6.00097 1.17019 0
M  V30 201 H 18.5351 6.91753 0.803136 0
M  V30 202 H 16.1621 7.58198 0.5513 0
M  V30 203 N 17.7372 -0.778329 1.37039 0
M  V30 204 C 18.6672 -1.90546 1.34962 0
M  V30 205 C 19.6482 -1.68681 0.219274 0
M  V30 206 O 20.8332 -1.89634 0.418624 0
M  V30 207 C 17.9632 -3.27734 1.14925 0
M  V30 208 C 16.9172 -3.64147 2.24902 0
M  V30 209 C 16.2432 -4.99806 1.89996 0
M  V30 210 C 17.5432 -3.71579 3.67051 0
M  V30 211 H 19.2372 -1.92541 2.29277 0
M  V30 212 H 16.7832 -0.924948 1.10366 0
M  V30 213 H 18.7362 -4.06215 1.12104 0
M  V30 214 H 17.4602 -3.26154 0.170631 0
M  V30 215 H 16.1192 -2.8797 2.26868 0
M  V30 216 H 15.7672 -4.94759 0.906796 0
M  V30 217 H 15.4672 -5.25139 2.63634 0
M  V30 218 H 16.9912 -5.80694 1.88749 0
M  V30 219 H 18.4052 -4.40227 3.67251 0
M  V30 220 H 16.8022 -4.08405 4.39688 0
M  V30 221 H 17.8722 -2.72404 4.01154 0
M  V30 222 N 19.2153 -1.21501 -1.00376 0
M  V30 223 C 20.4433 -1.059 -1.77744 0
M  V30 224 C 20.8583 0.391125 -1.84704 0
M  V30 225 O 20.2153 1.27133 -1.30933 0
M  V30 226 C 20.2663 -1.65111 -3.21591 0
M  V30 227 O 19.9873 -3.0445 -3.15027 0
M  V30 228 C 21.4883 -1.54637 -4.15454 0
M  V30 229 H 18.7083 -0.371825 -0.558558 0
M  V30 230 H 21.2523 -1.60865 -1.26264 0
M  V30 231 H 19.4073 -1.14235 -3.70175 0
M  V30 232 H 19.8213 -3.3278 -4.0541 0
M  V30 233 H 21.2953 -2.00808 -5.14179 0
M  V30 234 H 21.7723 -0.501022 -4.36333 0
M  V30 235 H 22.3783 -2.04767 -3.72761 0
M  V30 236 N 20.6934 1.19889 -1.02296 0
M  V30 237 C 21.6234 2.25141 -0.619174 0
M  V30 238 C 22.6044 1.66051 0.368915 0
M  V30 239 O 23.7894 1.92546 0.252941 0
M  V30 240 C 20.9194 3.4728 0.0368783 0
M  V30 241 C 19.8734 4.19005 -0.872865 0
M  V30 242 C 19.1994 5.34637 -0.0822402 0
M  V30 243 C 20.4994 4.74452 -2.18387 0
M  V30 244 H 22.1934 2.59171 -1.49903 0
M  V30 245 H 19.7394 1.24579 -0.722222 0
M  V30 246 H 21.6924 4.20098 0.330958 0
M  V30 247 H 20.4164 3.12433 0.95149 0
M  V30 248 H 19.0754 3.48061 -1.15105 0
M  V30 249 H 18.7234 4.96034 0.83422 0
M  V30 250 H 18.4234 5.83557 -0.688149 0
M  V30 251 H 19.9474 6.10255 0.205238 0
M  V30 252 H 21.3614 5.39055 -1.95172 0
M  V30 253 H 19.7584 5.33834 -2.74119 0
M  V30 254 H 20.8284 3.92844 -2.84257 0
M  V30 255 N 22.1715 0.800033 1.35784 0
M  V30 256 C 23.1345 0.211565 2.28221 0
M  V30 257 C 24.1345 -0.59728 1.49296 0
M  V30 258 O 25.3245 -0.416721 1.69142 0
M  V30 259 C 22.4565 -0.705846 3.33513 0
M  V30 260 H 23.6495 1.02677 2.81776 0
M  V30 261 H 21.2025 0.570211 1.45528 0
M  V30 262 H 21.9375 -1.54498 2.85133 0
M  V30 263 H 21.7225 -0.127655 3.91892 0
M  V30 264 H 23.2125 -1.11211 4.02519 0
M  V30 265 N 23.6496 -1.47581 0.552962 0
M  V30 266 C 24.8956 -2.02782 0.0273648 0
M  V30 267 C 25.2286 -1.42687 -1.31734 0
M  V30 268 O 24.5036 -0.580897 -1.85623 0
M  V30 269 C 24.7866 -3.60031 -0.0702371 0
M  V30 270 C 24.6396 -4.30566 1.30126 0
M  V30 271 C 25.9586 -4.33028 -0.785771 0
M  V30 272 H 23.0776 -0.736912 0.0114185 0
M  V30 273 H 25.7196 -1.76056 0.714432 0
M  V30 274 H 23.8696 -3.82932 -0.655382 0
M  V30 275 H 25.5416 -4.19018 1.92929 0
M  V30 276 H 23.7846 -3.91086 1.87709 0
M  V30 277 H 24.4556 -5.39114 1.18573 0
M  V30 278 H 26.9316 -4.15095 -0.288982 0
M  V30 279 H 25.8076 -5.42695 -0.823013 0
M  V30 280 H 26.0686 -4.01945 -1.841 0
M  V30 281 N 25.1277 -0.289203 -1.54924 0
M  V30 282 C 26.0757 0.607966 -2.24514 0
M  V30 283 C 27.0697 1.14655 -1.24702 0
M  V30 284 O 28.2757 1.09856 -1.4259 0
M  V30 285 H 24.6507 0.21464 -0.720718 0
M  V30 286 H 26.6217 -0.00164182 -2.984 0
M  V30 287 C 25.3707 1.77406 -2.99036 0
M  V30 288 H 24.6937 1.36884 -3.75637 0
M  V30 289 H 26.1337 2.37814 -3.51028 0
M  V30 290 C 24.5927 2.67107 -2.05318 0
M  V30 291 O 25.1227 3.6787 -1.61353 0
M  V30 292 N 23.3287 2.34582 -1.71521 0
M  V30 293 H 22.8757 1.52688 -2.07471 0
M  V30 294 H 22.8337 2.94867 -1.0909 0
M  V30 295 N 26.6058 1.57591 -0.0167156 0
M  V30 296 C 27.5688 2.08393 0.954204 0
M  V30 297 C 28.5688 0.996531 1.26198 0
M  V30 298 O 29.7588 1.25858 1.20438 0
M  V30 299 C 26.8908 2.5394 2.27436 0
M  V30 300 H 28.0838 2.95455 0.514451 0
M  V30 301 H 25.6368 1.54582 0.231089 0
M  V30 302 H 26.3718 1.70171 2.76066 0
M  V30 303 H 26.1568 3.33371 2.06412 0
M  V30 304 H 27.6468 2.93512 2.97053 0
M  V30 305 N 28.0839 -0.256276 1.55502 0
M  V30 306 C 29.0139 -1.32102 1.92539 0
M  V30 307 C 29.9949 -1.50684 0.789194 0
M  V30 308 O 31.1799 -1.63449 1.04872 0
M  V30 309 C 28.3099 -2.67752 2.21192 0
M  V30 310 C 27.2639 -2.63878 3.36975 0
M  V30 311 C 26.5899 -4.03236 3.51147 0
M  V30 312 C 27.8899 -2.21682 4.72921 0
M  V30 313 H 29.5839 -1.01351 2.81724 0
M  V30 314 H 27.1299 -0.486105 1.35547 0
M  V30 315 H 29.0829 -3.42365 2.45691 0
M  V30 316 H 27.8069 -3.0012 1.28824 0
M  V30 317 H 26.4659 -1.91722 3.12471 0
M  V30 318 H 26.1139 -4.32854 2.56216 0
M  V30 319 H 25.8139 -4.01535 4.29003 0
M  V30 320 H 27.3379 -4.79563 3.77957 0
M  V30 321 H 28.7519 -2.86023 4.96854 0
M  V30 322 H 27.1489 -2.3111 5.53812 0
M  V30 323 H 28.2189 -1.16833 4.70615 0
M  V30 324 N 29.562 -1.4872 -0.521534 0
M  V30 325 C 30.792 -1.6061 -1.29954 0
M  V30 326 C 31.2 -0.268728 -1.87282 0
M  V30 327 O 30.543 0.753221 -1.67548 0
M  V30 328 C 30.605 -2.60013 -2.48261 0
M  V30 329 C 30.269 -4.04874 -2.11957 0
M  V30 330 C 31.266 -4.92304 -1.67132 0
M  V30 331 C 28.951 -4.5047 -2.22221 0
M  V30 332 C 30.945 -6.2336 -1.33047 0
M  V30 333 C 28.632 -5.81544 -1.87748 0
M  V30 334 C 29.63 -6.67812 -1.43234 0
M  V30 335 O 29.318 -7.96446 -1.09217 0
M  V30 336 H 29.05 -0.544116 -0.401141 0
M  V30 337 H 31.604 -1.95339 -0.634958 0
M  V30 338 H 29.834 -2.20422 -3.17728 0
M  V30 339 H 31.523 -2.61648 -3.10315 0
M  V30 340 H 32.289 -4.58312 -1.58665 0
M  V30 341 H 28.168 -3.83504 -2.55823 0
M  V30 342 H 31.712 -6.90649 -0.982299 0
M  V30 343 H 27.609 -6.15069 -1.95858 0
M  V30 344 H 28.377 -8.09275 -1.22542 0
M  V30 345 N 31.0401 0.771051 -1.3745 0
M  V30 346 C 31.9701 1.89827 -1.3597 0
M  V30 347 C 32.9511 1.68562 -0.228216 0
M  V30 348 O 34.1361 1.8941 -0.428675 0
M  V30 349 C 31.2661 3.2712 -1.16662 0
M  V30 350 C 30.2201 3.6295 -2.2683 0
M  V30 351 C 29.5461 4.98791 -1.92644 0
M  V30 352 C 30.8461 3.69627 -3.69017 0
M  V30 353 H 32.5401 1.91323 -2.30295 0
M  V30 354 H 30.0861 0.919082 -1.10855 0
M  V30 355 H 32.0391 4.05615 -1.14256 0
M  V30 356 H 30.7631 3.26059 -0.187926 0
M  V30 357 H 29.4221 2.86763 -2.28392 0
M  V30 358 H 29.0701 4.94271 -0.933021 0
M  V30 359 H 28.7701 5.23733 -2.66416 0
M  V30 360 H 30.2941 5.79685 -1.91826 0
M  V30 361 H 31.7081 4.38273 -3.69581 0
M  V30 362 H 30.1051 4.06067 -4.41848 0
M  V30 363 H 31.1751 2.70273 -4.02592 0
M  V30 364 N 32.5182 1.22032 0.997298 0
M  V30 365 C 33.7462 1.06841 1.7718 0
M  V30 366 C 34.1612 -0.381325 1.84909 0
M  V30 367 O 33.5182 -1.26437 1.31605 0
M  V30 368 C 33.5692 1.66814 3.20711 0
M  V30 369 O 33.2902 3.06116 3.13408 0
M  V30 370 C 34.7912 1.56838 4.14628 0
M  V30 371 H 32.0112 0.374782 0.556578 0
M  V30 372 H 34.5552 1.61532 1.2541 0
M  V30 373 H 32.7102 1.16196 3.69564 0
M  V30 374 H 33.1242 3.34926 4.0364 0
M  V30 375 H 34.5982 2.03532 5.13107 0
M  V30 376 H 35.0752 0.524155 4.36061 0
M  V30 377 H 35.6812 2.06741 3.7167 0
M  V30 378 N 33.9963 -1.19345 1.0293 0
M  V30 379 C 35.2213 -1.93538 0.745511 0
M  V30 380 C 35.6463 -1.75007 -0.689511 0
M  V30 381 O 35.0043 -1.05265 -1.47611 0
M  V30 382 C 35.0523 -3.43336 1.10239 0
M  V30 383 O 34.1563 -4.11806 0.221289 0
M  V30 384 H 33.4973 -0.604193 0.275404 0
M  V30 385 H 36.0273 -1.5141 1.37609 0
M  V30 386 H 36.0373 -3.94004 1.05947 0
M  V30 387 H 34.7123 -3.56146 2.14786 0
M  V30 388 H 33.2893 -3.715 0.322842 0
M  V30 389 N 35.4744 -0.807222 -1.35358 0
M  V30 390 C 36.6994 -0.399309 -2.0352 0
M  V30 391 C 37.1244 0.981986 -1.60433 0
M  V30 392 O 36.4824 1.63601 -0.781299 0
M  V30 393 C 36.5304 -0.491552 -3.57234 0
M  V30 394 O 35.6344 0.494754 -4.09421 0
M  V30 395 H 34.9754 -0.166682 -0.642739 0
M  V30 396 H 37.5054 -1.09328 -1.72941 0
M  V30 397 H 37.5154 -0.361588 -4.06395 0
M  V30 398 H 36.1904 -1.49907 -3.87944 0
M  V30 399 H 34.7674 0.324977 -3.71481 0
M  V30 400 N 36.9525 1.47285 -0.560781 0
M  V30 401 C 37.8845 2.28118 0.222438 0
M  V30 402 C 38.8975 1.37219 0.876056 0
M  V30 403 O 40.0865 1.62011 0.749307 0
M  V30 404 C 37.1865 3.1159 1.33285 0
M  V30 405 C 36.3595 4.30473 0.77534 0
M  V30 406 C 35.4185 4.95513 1.77069 0
M  V30 407 O 34.4445 5.53792 1.31539 0
M  V30 408 N 35.6465 4.90531 3.10418 0
M  V30 409 H 38.4115 2.95976 -0.470958 0
M  V30 410 H 35.9725 1.56955 -0.39709 0
M  V30 411 H 37.9645 3.51967 1.99752 0
M  V30 412 H 36.5345 2.45951 1.92943 0
M  V30 413 H 35.7545 3.94144 -0.0662113 0
M  V30 414 H 37.0425 5.07362 0.382272 0
M  V30 415 H 36.4405 4.44389 3.5005 0
M  V30 416 H 34.9975 5.34917 3.72434 0
M  V30 417 N 38.4306 0.297415 1.54768 0
M  V30 418 C 39.3786 -0.596051 2.24833 0
M  V30 419 C 40.3726 -1.13992 1.25308 0
M  V30 420 O 41.5786 -1.09098 1.4317 0
M  V30 421 H 37.9536 -0.210814 0.721846 0
M  V30 422 H 39.9246 0.0174667 2.98395 0
M  V30 423 C 38.6736 -1.75818 2.99972 0
M  V30 424 H 37.9966 -1.3489 3.76357 0
M  V30 425 H 39.4366 -2.35949 3.52284 0
M  V30 426 C 37.8956 -2.66014 2.06732 0
M  V30 427 O 38.4256 -3.67009 1.63302 0
M  V30 428 N 36.6316 -2.33669 1.72763 0
M  V30 429 H 36.1786 -1.51586 2.08277 0
M  V30 430 H 36.1366 -2.94285 1.10652 0
M  V30 431 N 39.9087 -1.5758 0.0250728 0
M  V30 432 C 41.1577 -1.90811 -0.653767 0
M  V30 433 C 41.4707 -0.90273 -1.73523 0
M  V30 434 O 42.6767 -1.12614 -2.47043 0
M  V30 435 C 41.1327 -3.38804 -1.21409 0
M  V30 436 C 40.7407 -4.47692 -0.166126 0
M  V30 437 C 42.4847 -3.81108 -1.86967 0
M  V30 438 C 40.3917 -5.86779 -0.737856 0
M  V30 439 H 39.3217 -0.712063 -0.247956 0
M  V30 440 H 41.9727 -1.83281 0.0897137 0
M  V30 441 H 40.3547 -3.41252 -2.00905 0
M  V30 442 H 41.5287 -4.56797 0.606079 0
M  V30 443 H 39.8437 -4.14565 0.390466 0
M  V30 444 H 42.4407 -4.82375 -2.30692 0
M  V30 445 H 42.7837 -3.15953 -2.71071 0
M  V30 446 H 43.3167 -3.81065 -1.14167 0
M  V30 447 H 40.0557 -6.55468 0.0649577 0
M  V30 448 H 39.5757 -5.81288 -1.47864 0
M  V30 449 H 41.2547 -6.35223 -1.22884 0
M  V30 450 N 41.3868 0.248026 -1.55636 0
M  V30 451 C 42.6148 0.993808 -1.81469 0
M  V30 452 C 43.0298 1.78991 -0.60064 0
M  V30 453 O 42.3868 1.77345 0.430682 0
M  V30 454 C 42.4378 1.93258 -3.05506 0
M  V30 455 O 42.1588 1.16869 -4.22224 0
M  V30 456 C 43.6598 2.79444 -3.4413 0
M  V30 457 H 40.8798 0.292486 -0.603898 0
M  V30 458 H 43.4238 0.271253 -2.02693 0
M  V30 459 H 41.5788 2.60943 -2.86335 0
M  V30 460 H 41.9928 1.80359 -4.92515 0
M  V30 461 H 43.4668 3.41066 -4.34026 0
M  V30 462 H 43.9438 3.50499 -2.64665 0
M  V30 463 H 44.5498 2.17214 -3.65648 0
M  V30 464 N 42.8649 1.48995 0.513639 0
M  V30 465 C 43.7749 1.67443 1.64317 0
M  V30 466 C 44.7909 0.556947 1.64846 0
M  V30 467 O 45.9669 0.830082 1.83498 0
M  V30 468 C 43.0319 1.72515 3.00732 0
M  V30 469 C 42.0929 2.96009 3.1093 0
M  V30 470 C 41.3259 3.00829 4.40837 0
M  V30 471 O 41.5489 2.13594 5.28898 0
M  V30 472 O 40.4829 3.93168 4.55744 0
M  V30 473 H 44.3089 2.63106 1.51687 0
M  V30 474 H 41.8939 1.32588 0.688543 0
M  V30 475 H 43.7759 1.78277 3.81831 0
M  V30 476 H 42.4509 0.800278 3.13651 0
M  V30 477 H 41.3579 2.9577 2.29065 0
M  V30 478 H 42.6909 3.87934 3.02933 0
M  V30 479 N 44.343 -0.763751 1.37857 0
M  V30 480 C 45.253 -1.90817 1.36478 0
M  V30 481 C 46.269 -1.71997 0.263248 0
M  V30 482 O 47.445 -1.95095 0.499979 0
M  V30 483 C 44.51 -3.2605 1.17864 0
M  V30 484 C 43.571 -3.57467 2.3773 0
M  V30 485 C 42.804 -4.86249 2.19995 0
M  V30 486 O 43.027 -5.57884 1.18836 0
M  V30 487 O 41.961 -5.16911 3.08361 0
M  V30 488 H 45.787 -1.94933 2.32884 0
M  V30 489 H 43.372 -0.907619 1.1867 0
M  V30 490 H 45.254 -4.06924 1.09504 0
M  V30 491 H 43.929 -3.22769 0.245372 0
M  V30 492 H 42.836 -2.76796 2.51664 0
M  V30 493 H 44.169 -3.655 3.29652 0
M  V30 494 N 45.8211 -1.22559 -0.990812 0
M  V30 495 C 47.0681 -1.05141 -1.73065 0
M  V30 496 C 47.3961 0.413191 -1.9006 0
M  V30 497 O 46.6511 1.32257 -1.44245 0
M  V30 498 C 46.9501 -1.71011 -3.13831 0
M  V30 499 C 46.6161 -3.20911 -3.16745 0
M  V30 500 C 45.2781 -3.61812 -3.17247 0
M  V30 501 C 47.6301 -4.16846 -3.12872 0
M  V30 502 C 44.9581 -4.97127 -3.1158 0
M  V30 503 C 47.3101 -5.5214 -3.08746 0
M  V30 504 C 45.9741 -5.92419 -3.07565 0
M  V30 505 H 45.2441 -0.384738 -0.633291 0
M  V30 506 H 47.8911 -1.5235 -1.16025 0
M  V30 507 H 46.1961 -1.16133 -3.74193 0
M  V30 508 H 47.8931 -1.55023 -3.69823 0
M  V30 509 H 44.4831 -2.88344 -3.17105 0
M  V30 510 H 48.6671 -3.86263 -3.11632 0
M  V30 511 H 43.9231 -5.27562 -3.09012 0
M  V30 512 H 48.0971 -6.26201 -3.04705 0
M  V30 513 H 45.7241 -6.97236 -3.02929 0
M  V30 514 N 47.2992 1.18797 -1.03562 0
M  V30 515 C 48.5292 1.92319 -0.754773 0
M  V30 516 C 48.9372 1.7612 0.691248 0
M  V30 517 O 48.2802 1.08491 1.48241 0
M  V30 518 C 48.3422 3.44284 -1.03484 0
M  V30 519 C 48.0062 3.84258 -2.47376 0
M  V30 520 C 49.0032 3.88459 -3.45537 0
M  V30 521 C 46.6882 4.15701 -2.81954 0
M  V30 522 C 48.6822 4.23545 -4.76328 0
M  V30 523 C 46.3692 4.50458 -4.12954 0
M  V30 524 C 47.3672 4.54356 -5.09951 0
M  V30 525 O 47.0552 4.88305 -6.38603 0
M  V30 526 H 46.7872 0.617527 -0.275021 0
M  V30 527 H 49.3412 1.51683 -1.38497 0
M  V30 528 H 47.5712 3.85135 -0.347513 0
M  V30 529 H 49.2602 3.99049 -0.7426 0
M  V30 530 H 50.0262 3.6431 -3.20162 0
M  V30 531 H 45.9052 4.11847 -2.0713 0
M  V30 532 H 49.4492 4.26502 -5.52035 0
M  V30 533 H 45.3462 4.74067 -4.38099 0
M  V30 534 H 46.1142 5.06227 -6.43177 0
M  V30 535 N 48.7773 0.814389 1.34928 0
M  V30 536 C 49.7093 0.187834 2.28429 0
M  V30 537 C 50.7223 -0.617374 1.5064 0
M  V30 538 O 51.9113 -0.448454 1.72775 0
M  V30 539 C 49.0113 -0.755962 3.30361 0
M  V30 540 C 48.1843 0.00456686 4.374 0
M  V30 541 C 47.2433 -0.858876 5.19143 0
M  V30 542 O 46.2693 -0.306968 5.68372 0
M  V30 543 N 47.4713 -2.17988 5.38016 0
M  V30 544 H 50.2363 0.991105 2.82838 0
M  V30 545 H 47.7973 0.670561 1.4736 0
M  V30 546 H 49.7893 -1.338 3.81942 0
M  V30 547 H 48.3593 -1.46001 2.7641 0
M  V30 548 H 47.5793 0.767865 3.86649 0
M  V30 549 H 48.8673 0.528422 5.06049 0
M  V30 550 H 48.2653 -2.65212 4.99679 0
M  V30 551 H 46.8223 -2.71098 5.92747 0
M  V30 552 N 50.2554 -1.46986 0.568584 0
M  V30 553 C 51.4804 -2.07335 0.0520528 0
M  V30 554 C 51.9054 -1.41675 -1.23733 0
M  V30 555 O 51.2634 -0.495623 -1.74394 0
M  V30 556 C 51.3114 -3.60417 -0.11501 0
M  V30 557 O 50.4154 -3.95309 -1.17492 0
M  V30 558 H 49.7564 -0.661597 0.0564385 0
M  V30 559 H 52.2864 -1.88837 0.787507 0
M  V30 560 H 52.2964 -4.06698 -0.325644 0
M  V30 561 H 50.9714 -4.07601 0.826675 0
M  V30 562 H 49.5484 -3.60757 -0.943869 0
M  V30 563 N 51.7335 -0.305618 -1.54608 0
M  V30 564 C 52.9615 0.304775 -2.04643 0
M  V30 565 C 53.3765 1.47167 -1.18268 0
M  V30 566 O 52.7335 1.81296 -0.209328 0
M  V30 567 C 52.7845 0.756564 -3.53495 0
M  V30 568 O 52.5055 -0.36389 -4.36586 0
M  V30 569 C 54.0065 1.43163 -4.19546 0
M  V30 570 H 51.2265 0.0655481 -0.667791 0
M  V30 571 H 53.7705 -0.446592 -1.99564 0
M  V30 572 H 51.9255 1.45794 -3.58919 0
M  V30 573 H 52.3395 -0.0113121 -5.24499 0
M  V30 574 H 53.8135 1.69886 -5.25207 0
M  V30 575 H 54.2905 2.37318 -3.69563 0
M  V30 576 H 54.8965 0.773307 -4.18211 0
M  V30 577 N 53.2116 1.57565 -0.0334293 0
M  V30 578 C 54.4516 1.93844 0.648379 0
M  V30 579 C 54.8156 0.910387 1.69044 0
M  V30 580 O 56.0166 1.15952 2.42505 0
M  V30 581 C 54.2876 3.35017 1.24492 0
M  V30 582 S 55.8466 3.93229 1.94721 0
M  V30 583 H 52.6646 0.678231 0.213364 0
M  V30 584 H 55.2666 1.95254 -0.0981253 0
M  V30 585 H 53.9706 4.07652 0.474128 0
M  V30 586 H 53.5016 3.37061 2.02864 0
M  V30 587 H 55.5166 3.77014 3.22606 0
M  V30 588 N 54.6897 -0.239769 1.55765 0
M  V30 589 C 55.9147 -0.988373 1.82335 0
M  V30 590 C 56.3397 -1.77886 0.611421 0
M  V30 591 O 55.6977 -1.75889 -0.439639 0
M  V30 592 C 55.7457 -1.89627 3.06715 0
M  V30 593 O 54.8497 -2.98904 2.84131 0
M  V30 594 H 54.1907 -0.280858 0.601677 0
M  V30 595 H 56.7207 -0.258597 2.02959 0
M  V30 596 H 56.7307 -2.30957 3.36338 0
M  V30 597 H 55.4057 -1.31511 3.9456 0
M  V30 598 H 53.9827 -2.61651 2.65694 0
M  V30 599 N 56.1678 -1.49265 -0.50573 0
M  V30 600 C 57.1308 -1.65075 -1.59006 0
M  V30 601 C 58.1308 -0.522768 -1.52065 0
M  V30 602 O 59.3208 -0.789117 -1.55302 0
M  V30 603 C 56.4528 -1.64369 -2.98656 0
M  V30 604 H 57.6458 -2.61784 -1.46319 0
M  V30 605 H 55.1988 -1.38226 -0.729616 0
M  V30 606 H 55.9338 -0.692272 -3.16825 0
M  V30 607 H 55.7188 -2.46282 -3.05103 0
M  V30 608 H 57.2088 -1.78674 -3.77446 0
M  V30 609 N 57.6459 0.756429 -1.3826 0
M  V30 610 C 58.8919 1.51772 -1.34511 0
M  V30 611 C 59.2249 1.94089 0.0656691 0
M  V30 612 O 58.4999 1.65221 1.02626 0
M  V30 613 C 58.7829 2.77226 -2.29821 0
M  V30 614 C 58.6359 2.41065 -3.79747 0
M  V30 615 C 59.9549 3.79236 -2.23312 0
M  V30 616 H 57.0739 0.550578 -0.489931 0
M  V30 617 H 59.7159 0.866607 -1.69086 0
M  V30 618 H 57.8659 3.32784 -2.00467 0
M  V30 619 H 59.5379 1.91303 -4.19763 0
M  V30 620 H 57.7809 1.7356 -3.97567 0
M  V30 621 H 58.4519 3.3081 -4.41892 0
M  V30 622 H 60.9279 3.3321 -2.49219 0
M  V30 623 H 59.8039 4.64714 -2.92116 0
M  V30 624 H 60.0649 4.24615 -1.23102 0
M  V30 625 N 59.124 1.23083 0.984299 0
M  V30 626 C 60.349 1.088 1.76571 0
M  V30 627 C 60.774 -0.356657 1.84688 0
M  V30 628 O 60.132 -1.25788 1.30565 0
M  V30 629 C 60.18 1.71371 3.17277 0
M  V30 630 O 59.284 0.973213 4.00752 0
M  V30 631 H 58.625 0.381599 0.543395 0
M  V30 632 H 61.155 1.63057 1.23587 0
M  V30 633 H 61.165 1.76449 3.67872 0
M  V30 634 H 59.84 2.76493 3.10684 0
M  V30 635 H 58.417 0.999078 3.59267 0
M  V30 636 N 60.6021 -1.18246 1.0419 0
M  V30 637 C 62.0181 -1.40269 0.761366 0
M  V30 638 C 62.2181 -1.90777 -0.648578 0
M  V30 639 O 61.2741 -2.0929 -1.41258 0
M  V30 640 C 62.5871 -2.40237 1.8085 0
M  V30 641 C 64.1351 -2.53961 1.82955 0
M  V30 642 C 64.6101 -3.57194 2.86664 0
M  V30 643 N 66.1011 -3.64702 2.85563 0
M  V30 644 C 66.8361 -4.44309 3.6246 0
M  V30 645 N 66.3321 -5.27514 4.49111 0
M  V30 646 N 68.1251 -4.39084 3.50944 0
M  V30 647 H 60.2761 -0.837882 1.95175 0
M  V30 648 H 62.5391 -0.430608 0.84456 0
M  V30 649 H 62.2451 -2.10176 2.81991 0
M  V30 650 H 62.1191 -3.39601 1.64168 0
M  V30 651 H 64.5061 -2.83338 0.824855 0
M  V30 652 H 64.5871 -1.54706 2.03715 0
M  V30 653 H 64.2311 -3.28558 3.87314 0
M  V30 654 H 64.1611 -4.5613 2.6316 0
M  V30 655 H 66.6521 -3.05289 2.22727 0
M  V30 656 H 66.9651 -5.85411 5.04493 0
M  V30 657 H 65.3101 -5.2693 4.53178 0
M  V30 658 H 68.5011 -3.7313 2.82651 0
M  V30 659 H 68.6741 -5.00883 4.11121 0
M  V30 660 N 62.0802 -0.821533 -1.34494 0
M  V30 661 C 63.3282 -0.408139 -1.97936 0
M  V30 662 C 63.6492 1.03193 -1.65457 0
M  V30 663 O 62.9192 1.71622 -0.944595 0
M  V30 664 H 61.4992 -0.147928 -0.732206 0
M  V30 665 H 64.1612 -1.05067 -1.64155 0
M  V30 666 H 63.2572 -0.52601 -3.07635 0
M  V30 667 N 63.5583 1.46682 -0.576371 0
M  V30 668 C 64.7883 2.06498 -0.0648694 0
M  V30 669 C 65.1963 1.42665 1.24271 0
M  V30 670 O 64.5393 0.523886 1.76071 0
M  V30 671 C 64.6013 3.5904 0.181816 0
M  V30 672 C 64.2653 4.45028 -1.0392 0
M  V30 673 C 65.2623 4.81959 -1.94966 0
M  V30 674 C 62.9473 4.86259 -1.25927 0
M  V30 675 C 64.9413 5.58942 -3.06371 0
M  V30 676 C 62.6283 5.63002 -2.37638 0
M  V30 677 C 63.6263 5.99257 -3.2769 0
M  V30 678 O 63.3143 6.7445 -4.37461 0
M  V30 679 H 63.0463 0.674028 -0.0515987 0
M  V30 680 H 65.6003 1.89393 -0.794951 0
M  V30 681 H 63.8303 3.74429 0.966436 0
M  V30 682 H 65.5193 4.00806 0.641047 0
M  V30 683 H 66.2853 4.50689 -1.79177 0
M  V30 684 H 62.1643 4.57494 -0.567448 0
M  V30 685 H 65.7083 5.87158 -3.76684 0
M  V30 686 H 61.6053 5.93686 -2.53392 0
M  V30 687 H 62.3733 6.92867 -4.35749 0
M  V30 688 N 65.0364 0.313813 1.54444 0
M  V30 689 C 66.2834 -0.291675 2.00388 0
M  V30 690 C 66.6114 -1.52904 1.2021 0
M  V30 691 O 65.8664 -1.93833 0.269707 0
M  V30 692 C 66.1654 -0.680386 3.50864 0
M  V30 693 C 65.8314 0.456699 4.48581 0
M  V30 694 C 64.4934 0.768824 4.75018 0
M  V30 695 C 66.8454 1.22098 5.06697 0
M  V30 696 C 64.1734 1.84812 5.56831 0
M  V30 697 C 66.5254 2.29029 5.89685 0
M  V30 698 C 65.1894 2.60834 6.14428 0
M  V30 699 H 64.4594 -0.106732 0.733273 0
M  V30 700 H 67.1064 0.43557 1.86481 0
M  V30 701 H 65.4114 -1.48791 3.62448 0
M  V30 702 H 67.1084 -1.16026 3.83847 0
M  V30 703 H 63.6984 0.203337 4.28117 0
M  V30 704 H 67.8824 0.993096 4.86263 0
M  V30 705 H 63.1384 2.09912 5.74236 0
M  V30 706 H 67.3124 2.887 6.33739 0
M  V30 707 H 64.9394 3.44596 6.77612 0
M  V30 708 N 66.5145 -1.57545 0.0417849 0
M  V30 709 C 67.7395 -1.97035 -0.647455 0
M  V30 710 C 68.1645 -0.918775 -1.64135 0
M  V30 711 O 67.5225 0.119006 -1.80909 0
M  V30 712 C 67.5705 -3.35609 -1.31905 0
M  V30 713 O 66.6745 -3.3287 -2.43457 0
M  V30 714 H 66.0155 -0.64211 -0.169086 0
M  V30 715 H 68.5455 -2.04318 0.107399 0
M  V30 716 H 68.5555 -3.72126 -1.67291 0
M  V30 717 H 67.2305 -4.11685 -0.590586 0
M  V30 718 H 65.8075 -3.08087 -2.10088 0
M  V30 719 N 67.9926 0.231505 -1.5589 0
M  V30 720 C 68.9556 1.27028 -1.90779 0
M  V30 721 C 69.9556 1.40308 -0.785507 0
M  V30 722 O 71.1456 1.38744 -1.05336 0
M  V30 723 C 68.2776 2.64566 -2.14983 0
M  V30 724 H 69.4706 0.973017 -2.83677 0
M  V30 725 H 67.0236 0.471486 -1.49019 0
M  V30 726 H 67.7586 2.99406 -1.24604 0
M  V30 727 H 67.5436 2.56305 -2.96732 0
M  V30 728 H 69.0336 3.39543 -2.43105 0
M  V30 729 N 69.4707 1.49531 0.497807 0
M  V30 730 C 70.4007 1.6935 1.60757 0
M  V30 731 C 71.3817 0.542218 1.61227 0
M  V30 732 O 72.5667 0.778417 1.77917 0
M  V30 733 C 69.6967 1.76298 2.99226 0
M  V30 734 C 68.6507 2.91248 3.13622 0
M  V30 735 C 67.9767 2.83312 4.53474 0
M  V30 736 C 69.2767 4.3214 2.93346 0
M  V30 737 H 70.9707 2.62263 1.44425 0
M  V30 738 H 68.5167 1.26208 0.693367 0
M  V30 739 H 70.4697 1.88749 3.76765 0
M  V30 740 H 69.1937 0.799871 3.16654 0
M  V30 741 H 67.8527 2.78404 2.38509 0
M  V30 742 H 67.5007 1.84902 4.67782 0
M  V30 743 H 67.2007 3.60465 4.64046 0
M  V30 744 H 68.7247 2.97775 5.33069 0
M  V30 745 H 70.1387 4.45649 3.60652 0
M  V30 746 H 68.5357 5.1054 3.15387 0
M  V30 747 H 69.6057 4.46363 1.89441 0
M  V30 748 N 70.9488 -0.749086 1.3866 0
M  V30 749 C 72.3648 -1.05276 1.19955 0
M  V30 750 C 72.5648 -2.01435 0.05134 0
M  V30 751 O 71.6208 -2.45232 -0.60147 0
M  V30 752 C 72.9338 -1.62853 2.52783 0
M  V30 753 C 74.4818 -1.75002 2.59506 0
M  V30 754 C 74.9568 -2.35991 3.92521 0
M  V30 755 N 76.4478 -2.43416 3.94085 0
M  V30 756 C 77.1828 -2.91511 4.9377 0
M  V30 757 N 76.6788 -3.39608 6.03853 0
M  V30 758 N 78.4718 -2.90592 4.81157 0
M  V30 759 H 70.6228 -0.111066 2.12109 0
M  V30 760 H 72.8858 -0.111901 0.941373 0
M  V30 761 H 72.5918 -0.99664 3.37283 0
M  V30 762 H 72.4658 -2.61854 2.715 0
M  V30 763 H 74.8528 -2.37317 1.75398 0
M  V30 764 H 74.9338 -0.74693 2.44652 0
M  V30 765 H 74.5778 -1.74308 4.77053 0
M  V30 766 H 74.5078 -3.3695 4.04688 0
M  V30 767 H 76.9988 -2.09405 3.14576 0
M  V30 768 H 77.3118 -3.74775 6.75843 0
M  V30 769 H 75.6568 -3.37653 6.07466 0
M  V30 770 H 78.8478 -2.52332 3.94267 0
M  V30 771 H 79.0208 -3.27762 5.58996 0
M  V30 772 N 72.4269 -1.23603 -0.977757 0
M  V30 773 C 73.6549 -1.09646 -1.75458 0
M  V30 774 C 74.0699 0.351859 -1.85492 0
M  V30 775 O 73.4269 1.24327 -1.336 0
M  V30 776 C 73.4779 -1.71895 -3.18016 0
M  V30 777 O 73.1989 -3.11063 -3.08498 0
M  V30 778 C 74.6999 -1.63415 -4.12081 0
M  V30 779 H 71.9199 -0.38359 -0.550545 0
M  V30 780 H 74.4639 -1.63507 -1.22824 0
M  V30 781 H 72.6189 -1.22061 -3.67668 0
M  V30 782 H 73.0329 -3.41305 -3.9826 0
M  V30 783 H 74.5069 -2.11669 -5.09804 0
M  V30 784 H 74.9839 -0.593462 -4.35172 0
M  V30 785 H 75.5899 -2.12628 -3.68334 0
M  V30 786 N 73.905 1.17692 -1.04816 0
M  V30 787 C 75.153 1.87488 -0.754497 0
M  V30 788 C 75.474 1.81205 0.720407 0
M  V30 789 O 74.744 1.23544 1.52032 0
M  V30 790 H 73.324 0.694101 -0.276102 0
M  V30 791 H 75.986 1.42793 -1.32651 0
M  V30 792 H 75.082 2.93328 -1.06606 0
M  V30 793 N 75.3831 0.828654 1.34056 0
M  V30 794 C 76.6291 0.429279 1.98818 0
M  V30 795 C 76.9841 -0.998011 1.64492 0
M  V30 796 O 76.2771 -1.68652 0.909228 0
M  V30 797 C 76.4711 0.575226 3.52741 0
M  V30 798 C 76.3001 2.01515 4.02022 0
M  V30 799 C 75.0701 2.64825 4.30344 0
M  V30 800 C 77.2681 2.98261 4.18981 0
M  V30 801 N 75.2501 3.99998 4.65698 0
M  V30 802 C 76.6211 4.18356 4.57578 0
M  V30 803 C 78.6761 2.94802 4.01243 0
M  V30 804 C 77.3791 5.35454 4.80293 0
M  V30 805 C 79.4051 4.11121 4.25128 0
M  V30 806 C 78.7671 5.29969 4.64018 0
M  V30 807 H 74.8661 0.205304 0.754569 0
M  V30 808 H 77.4501 1.07457 1.62361 0
M  V30 809 H 75.6211 -0.0401962 3.88379 0
M  V30 810 H 77.3531 0.148292 4.04428 0
M  V30 811 H 74.1081 2.16027 4.21461 0
M  V30 812 H 74.5321 4.69653 4.87601 0
M  V30 813 H 79.1741 2.04054 3.70299 0
M  V30 814 H 76.8921 6.26755 5.10102 0
M  V30 815 H 80.4781 4.0985 4.12934 0
M  V30 816 H 79.3581 6.18479 4.82134 0
M  V30 817 N 76.8612 -1.46375 0.584142 0
M  V30 818 C 78.0912 -2.06461 0.0758195 0
M  V30 819 C 78.4992 -1.43322 -1.23512 0
M  V30 820 O 77.8422 -0.533216 -1.75791 0
M  V30 821 C 77.9042 -3.59131 -0.162773 0
M  V30 822 C 77.5682 -4.4447 1.06279 0
M  V30 823 C 78.5652 -4.80918 1.97519 0
M  V30 824 C 76.2502 -4.85584 1.28504 0
M  V30 825 C 78.2442 -5.57309 3.09331 0
M  V30 826 C 75.9312 -5.61734 2.4062 0
M  V30 827 C 76.9292 -5.9751 3.30863 0
M  V30 828 O 76.6172 -6.72121 4.41032 0
M  V30 829 H 76.3492 -0.673745 0.0551725 0
M  V30 830 H 78.9032 -1.88969 0.804984 0
M  V30 831 H 77.1332 -3.74936 -0.946565 0
M  V30 832 H 78.8222 -4.0114 -0.619782 0
M  V30 833 H 79.5882 -4.49732 1.81565 0
M  V30 834 H 75.4672 -4.57187 0.591702 0
M  V30 835 H 79.0112 -5.85152 3.79793 0
M  V30 836 H 74.9082 -5.92334 2.56537 0
M  V30 837 H 75.6762 -6.90547 4.39417 0
M  V30 838 N 78.3393 -0.321999 -1.54275 0
M  V30 839 C 79.5673 0.283052 -2.04955 0
M  V30 840 C 79.9823 1.45904 -1.19823 0
M  V30 841 O 79.3393 1.81063 -0.228545 0
M  V30 842 C 79.3903 0.719028 -3.54277 0
M  V30 843 O 79.1113 -0.410175 -4.36176 0
M  V30 844 C 80.6123 1.38705 -4.21041 0
M  V30 845 H 77.8323 0.0584616 -0.668448 0
M  V30 846 H 80.3763 -0.467734 -1.99079 0
M  V30 847 H 78.5313 1.41979 -3.60445 0
M  V30 848 H 78.9453 -0.0669416 -5.24457 0
M  V30 849 H 80.4193 1.64306 -5.2698 0
M  V30 850 H 80.8963 2.33385 -3.72059 0
M  V30 851 H 81.5023 0.728906 -4.19007 0
M  V30 852 N 79.8174 1.5752 -0.0501392 0
M  V30 853 C 81.0424 1.97376 0.636997 0
M  V30 854 C 81.4674 0.927466 1.63645 0
M  V30 855 O 80.8254 -0.10941 1.8097 0
M  V30 856 C 80.8734 3.36304 1.30123 0
M  V30 857 O 79.9774 3.34156 2.41689 0
M  V30 858 H 79.3184 0.642998 0.165679 0
M  V30 859 H 81.8484 2.04258 -0.118233 0
M  V30 860 H 81.8584 3.73008 1.65315 0
M  V30 861 H 80.5334 4.11993 0.568746 0
M  V30 862 H 79.1104 3.09196 2.08451 0
M  V30 863 N 81.2955 -0.223234 1.56011 0
M  V30 864 C 82.5415 -0.949279 1.79211 0
M  V30 865 C 82.8745 -1.84054 0.619494 0
M  V30 866 O 82.1495 -1.90726 -0.381317 0
M  V30 867 C 82.4325 -1.78965 3.12479 0
M  V30 868 C 82.2855 -0.924997 4.40186 0
M  V30 869 C 83.6045 -2.76774 3.42175 0
M  V30 870 H 80.7235 -0.343676 0.651963 0
M  V30 871 H 83.3655 -0.218253 1.88742 0
M  V30 872 H 81.5155 -2.41291 3.04485 0
M  V30 873 H 83.1875 -0.318615 4.60198 0
M  V30 874 H 81.4305 -0.230344 4.33188 0
M  V30 875 H 82.1015 -1.54735 5.29869 0
M  V30 876 H 84.5775 -2.24584 3.50287 0
M  V30 877 H 83.4535 -3.32678 4.36597 0
M  V30 878 H 83.7145 -3.54429 2.64258 0
M  V30 879 N 82.7736 -1.49793 -0.48987 0
M  V30 880 C 84.0226 -1.59085 -1.23995 0
M  V30 881 C 84.3356 -0.287907 -1.9347 0
M  V30 882 O 85.5416 -0.259506 -2.70257 0
M  V30 883 C 83.9976 -2.80736 -2.252 0
M  V30 884 C 83.6056 -4.17833 -1.61614 0
M  V30 885 C 85.3496 -2.99364 -3.00967 0
M  V30 886 C 83.2566 -5.30693 -2.60996 0
M  V30 887 H 82.1866 -0.592372 -0.466488 0
M  V30 888 H 84.8376 -1.76197 -0.51252 0
M  V30 889 H 83.2196 -2.57142 -3.01154 0
M  V30 890 H 84.3936 -4.51608 -0.915774 0
M  V30 891 H 82.7086 -4.04656 -0.981977 0
M  V30 892 H 85.3056 -3.80851 -3.75308 0
M  V30 893 H 85.6486 -2.10356 -3.59244 0
M  V30 894 H 86.1816 -3.2305 -2.32128 0
M  V30 895 H 82.9206 -6.21796 -2.07485 0
M  V30 896 H 82.4406 -5.01359 -3.2924 0
M  V30 897 H 84.1196 -5.6049 -3.23202 0
M  V30 898 N 84.2517 0.741722 -1.39055 0
M  V30 899 C 85.4797 1.53098 -1.39171 0
M  V30 900 C 85.8947 1.88794 0.0155099 0
M  V30 901 O 85.2517 1.53626 0.985159 0
M  V30 902 C 85.3027 2.82274 -2.2584 0
M  V30 903 O 85.0237 2.48097 -3.61081 0
M  V30 904 C 86.5247 3.76343 -2.34266 0
M  V30 905 H 83.7447 0.473335 -0.4756 0
M  V30 906 H 86.2887 0.917045 -1.82785 0
M  V30 907 H 84.4437 3.40015 -1.85656 0
M  V30 908 H 84.8577 3.31029 -4.06842 0
M  V30 909 H 86.3317 4.63898 -2.9917 0
M  V30 910 H 86.8087 4.17619 -1.35982 0
M  V30 911 H 87.4147 3.24523 -2.74891 0
M  V30 912 N 85.7298 1.2412 0.971189 0
M  V30 913 C 86.9788 1.07284 1.70801 0
M  V30 914 C 87.2918 -0.388902 1.91695 0
M  V30 915 O 88.4978 -0.677379 2.62914 0
M  V30 916 C 86.9538 1.87145 3.07416 0
M  V30 917 C 86.5618 3.37707 2.94377 0
M  V30 918 C 88.3058 1.78828 3.84995 0
M  V30 919 C 86.2128 4.09925 4.26281 0
M  V30 920 H 85.1428 0.397854 0.64049 0
M  V30 921 H 87.7938 1.4817 1.0825 0
M  V30 922 H 86.1758 1.39071 3.70777 0
M  V30 923 H 87.3498 3.93335 2.4005 0
M  V30 924 H 85.6648 3.46938 2.30267 0
M  V30 925 H 88.2618 2.30089 4.82662 0
M  V30 926 H 88.6048 0.75284 4.09436 0
M  V30 927 H 89.1378 2.24563 3.28354 0
M  V30 928 H 85.8768 5.13813 4.07033 0
M  V30 929 H 85.3968 3.59083 4.80437 0
M  V30 930 H 87.0758 4.1673 4.94919 0
M  V30 931 N 87.2079 -1.17134 1.05439 0
M  V30 932 C 88.1179 -2.24878 0.668365 0
M  V30 933 C 89.1339 -1.71186 -0.311687 0
M  V30 934 O 90.3099 -2.00738 -0.163161 0
M  V30 935 C 87.3749 -3.46662 0.051648 0
M  V30 936 C 86.4359 -4.15429 1.08246 0
M  V30 937 C 85.6689 -5.31399 0.495082 0
M  V30 938 O 85.8919 -5.66153 -0.694743 0
M  V30 939 O 84.8259 -5.89187 1.23056 0
M  V30 940 H 88.6519 -2.60189 1.56637 0
M  V30 941 H 86.2369 -1.24482 0.826104 0
M  V30 942 H 88.1189 -4.20394 -0.290966 0
M  V30 943 H 86.7939 -3.13142 -0.819971 0
M  V30 944 H 85.7009 -3.43704 1.47711 0
M  V30 945 H 87.0339 -4.52982 1.92532 0
M  V30 946 N 88.686 -0.835752 -1.33615 0
M  V30 947 C 89.616 -0.281739 -2.31794 0
M  V30 948 C 90.597 0.608833 -1.58831 0
M  V30 949 O 91.782 0.533035 -1.86741 0
M  V30 950 C 88.912 0.546612 -3.42971 0
M  V30 951 C 87.866 -0.247904 -4.27281 0
M  V30 952 C 87.192 0.704001 -5.30045 0
M  V30 953 C 88.492 -1.46324 -5.01385 0
M  V30 954 H 90.186 -1.10206 -2.78379 0
M  V30 955 H 87.732 -0.531388 -1.33837 0
M  V30 956 H 89.685 0.944467 -4.1068 0
M  V30 957 H 88.409 1.40011 -2.95067 0
M  V30 958 H 87.068 -0.627281 -3.61194 0
M  V30 959 H 86.716 1.55381 -4.78399 0
M  V30 960 H 86.416 0.176524 -5.87335 0
M  V30 961 H 87.94 1.09944 -6.0062 0
M  V30 962 H 89.354 -1.13871 -5.61877 0
M  V30 963 H 87.751 -1.92728 -5.6831 0
M  V30 964 H 88.821 -2.23467 -4.30338 0
M  V30 965 N 90.1641 1.46063 -0.591896 0
M  V30 966 C 91.3891 2.07226 -0.0850314 0
M  V30 967 C 91.8141 1.43625 1.21463 0
M  V30 968 O 91.1721 0.523305 1.73583 0
M  V30 969 C 91.2201 3.60554 0.0576567 0
M  V30 970 O 90.3241 3.97128 1.11188 0
M  V30 971 H 89.6651 0.660615 -0.0669568 0
M  V30 972 H 92.1951 1.8756 -0.81745 0
M  V30 973 H 92.2051 4.07165 0.2609 0
M  V30 974 H 90.8801 4.06235 -0.891416 0
M  V30 975 H 89.4571 3.62213 0.886356 0
M  V30 976 N 91.6422 0.330177 1.54103 0
M  V30 977 C 92.5902 -0.548226 2.26047 0
M  V30 978 C 93.5842 -1.11309 1.27698 0
M  V30 979 O 94.7902 -1.06036 1.45452 0
M  V30 980 H 91.1652 -0.195456 0.726155 0
M  V30 981 H 93.1362 0.0807567 2.98291 0
M  V30 982 C 91.8852 -1.69415 3.03634 0
M  V30 983 H 91.2082 -1.26876 3.79134 0
M  V30 984 H 92.6482 -2.28423 3.5721 0
M  V30 985 C 91.1072 -2.61569 2.12328 0
M  V30 986 O 91.6372 -3.63462 1.7105 0
M  V30 987 N 89.8432 -2.29952 1.77681 0
M  V30 988 H 89.3902 -1.47134 2.11446 0
M  V30 989 H 89.3482 -2.91871 1.16869 0
M  V30 990 N 93.1203 -1.57491 0.0584922 0
M  V30 991 C 94.3693 -1.92155 -0.613146 0
M  V30 992 C 94.6823 -0.939334 -1.71569 0
M  V30 993 O 95.8883 -1.17829 -2.44599 0
M  V30 994 C 94.3443 -3.41303 -1.14195 0
M  V30 995 C 93.9523 -4.47944 -0.0711265 0
M  V30 996 C 95.6963 -3.84988 -1.78841 0
M  V30 997 C 93.6033 -5.88212 -0.613225 0
M  V30 998 H 92.5333 -0.717162 -0.232796 0
M  V30 999 H 95.1843 -1.83049 0.12857 0
M  V30 1000 H 93.5663 -3.45437 -1.93621 0
M  V30 1001 H 94.7403 -4.55408 0.702836 0
M  V30 1002 H 93.0553 -4.13644 0.478313 0
M  V30 1003 H 95.6523 -4.87159 -2.20408 0
M  V30 1004 H 95.9953 -3.21632 -2.64308 0
M  V30 1005 H 96.5283 -3.83401 -1.06059 0
M  V30 1006 H 93.2673 -6.55183 0.203978 0
M  V30 1007 H 92.7873 -5.84294 -1.35501 0
M  V30 1008 H 94.4663 -6.37687 -1.09383 0
M  V30 1009 N 94.5984 0.214957 -1.56127 0
M  V30 1010 C 95.5454 1.26642 -1.92952 0
M  V30 1011 C 96.5154 1.46244 -0.78753 0
M  V30 1012 O 97.7004 1.59704 -1.04399 0
M  V30 1013 C 94.8404 2.6104 -2.25726 0
M  V30 1014 C 93.9534 2.49183 -3.52891 0
M  V30 1015 C 93.0884 3.76149 -3.7508 0
M  V30 1016 C 92.1274 3.59041 -4.95738 0
M  V30 1017 N 91.2644 4.77972 -5.14283 0
M  V30 1018 H 96.1044 0.945384 -2.82607 0
M  V30 1019 H 93.6414 0.455489 -1.3987 0
M  V30 1020 H 95.5994 3.39313 -2.42739 0
M  V30 1021 H 94.2294 2.91227 -1.39236 0
M  V30 1022 H 93.2814 1.6231 -3.44034 0
M  V30 1023 H 94.5934 2.32466 -4.41318 0
M  V30 1024 H 93.7474 4.62865 -3.92226 0
M  V30 1025 H 92.4864 3.95799 -2.84947 0
M  V30 1026 H 91.4914 2.7071 -4.78535 0
M  V30 1027 H 92.7164 3.40856 -5.87362 0
M  V30 1028 H 90.6624 4.97923 -4.27093 0
M  V30 1029 H 90.5794 4.64006 -5.96853 0
M  V30 1030 H 91.8474 5.66096 -5.35869 0
M  V30 1031 N 96.0765 1.50051 0.48192 0
M  V30 1032 C 96.9865 1.7089 1.60728 0
M  V30 1033 C 98.0025 0.591788 1.63627 0
M  V30 1034 O 99.1785 0.868817 1.81696 0
M  V30 1035 C 96.2435 1.78855 2.97005 0
M  V30 1036 C 95.3045 3.02537 3.04581 0
M  V30 1037 C 94.5375 3.10112 4.34357 0
M  V30 1038 O 94.7605 2.24765 5.24249 0
M  V30 1039 O 93.6945 4.02747 4.47301 0
M  V30 1040 H 97.5205 2.66264 1.46072 0
M  V30 1041 H 95.1055 1.34018 0.660264 0
M  V30 1042 H 96.9875 1.86336 3.77964 0
M  V30 1043 H 95.6625 0.866628 3.11883 0
M  V30 1044 H 94.5695 3.00563 2.22739 0
M  V30 1045 H 95.9025 3.94272 2.94636 0
M  V30 1046 N 97.5546 -0.734337 1.39446 0
M  V30 1047 C 98.7826 -1.52358 1.39981 0
M  V30 1048 C 99.1976 -1.88799 -0.0054975 0
M  V30 1049 O 98.5546 -1.54146 -0.976998 0
M  V30 1050 C 98.6056 -2.81072 2.27333 0
M  V30 1051 O 98.3266 -2.46178 3.62392 0
M  V30 1052 C 99.8276 -3.75096 2.36259 0
M  V30 1053 H 97.0476 -0.470806 0.478103 0
M  V30 1054 H 99.5916 -0.907339 1.83269 0
M  V30 1055 H 97.7466 -3.39026 1.87457 0
M  V30 1056 H 98.1606 -3.28866 4.08592 0
M  V30 1057 H 99.6346 -4.62305 3.01626 0
M  V30 1058 H 100.112 -4.16892 1.38194 0
M  V30 1059 H 100.718 -3.23061 2.76608 0
M  V30 1060 N 99.0327 -1.24633 -0.964593 0
M  V30 1061 C 99.9797 -1.04144 -2.05968 0
M  V30 1062 C 100.95 0.046262 -1.66036 0
M  V30 1063 O 102.135 -0.108972 -1.90489 0
M  V30 1064 C 99.2747 -0.65563 -3.38815 0
M  V30 1065 C 98.3877 -1.81714 -3.91923 0
M  V30 1066 C 97.5227 -1.37662 -5.13052 0
M  V30 1067 C 96.5617 -2.50788 -5.58365 0
M  V30 1068 N 95.6987 -2.07582 -6.70712 0
M  V30 1069 H 100.539 -1.9787 -2.22827 0
M  V30 1070 H 98.0757 -0.9855 -1.09208 0
M  V30 1071 H 100.034 -0.412954 -4.15151 0
M  V30 1072 H 98.6637 0.244627 -3.21872 0
M  V30 1073 H 97.7157 -2.1734 -3.12198 0
M  V30 1074 H 99.0277 -2.66705 -4.21509 0
M  V30 1075 H 98.1817 -1.093 -5.96773 0
M  V30 1076 H 96.9207 -0.497293 -4.85158 0
M  V30 1077 H 95.9257 -2.79906 -4.73215 0
M  V30 1078 H 97.1507 -3.39283 -5.88272 0
M  V30 1079 H 95.0967 -1.22051 -6.44546 0
M  V30 1080 H 95.0137 -2.86125 -6.99763 0
M  V30 1081 H 96.2817 -1.82369 -7.57867 0
M  V30 1082 N 100.511 1.16574 -1.06058 0
M  V30 1083 C 101.751 1.88723 -0.78504 0
M  V30 1084 C 102.115 1.79706 0.676006 0
M  V30 1085 O 103.316 2.46757 1.06603 0
M  V30 1086 C 101.587 3.34338 -1.26304 0
M  V30 1087 S 103.146 4.24366 -1.1162 0
M  V30 1088 H 99.9638 0.651448 -0.284846 0
M  V30 1089 H 102.566 1.40732 -1.35701 0
M  V30 1090 H 101.27 3.38439 -2.32136 0
M  V30 1091 H 100.801 3.87378 -0.685719 0
M  V30 1092 H 102.816 4.96179 -0.0456539 0
M  V30 1093 N 101.989 0.842826 1.3317 0
M  V30 1094 C 102.937 0.267495 2.31057 0
M  V30 1095 C 103.931 -0.602682 1.58316 0
M  V30 1096 O 105.137 -0.491803 1.73151 0
M  V30 1097 H 101.512 0.0677813 0.748939 0
M  V30 1098 H 103.483 1.10754 2.77085 0
M  V30 1099 C 102.232 -0.539331 3.43492 0
M  V30 1100 H 101.555 0.12095 3.99617 0
M  V30 1101 H 102.995 -0.90767 4.14171 0
M  V30 1102 C 101.454 -1.71981 2.89697 0
M  V30 1103 O 101.984 -2.81862 2.86211 0
M  V30 1104 N 100.19 -1.54299 2.46252 0
M  V30 1105 H 99.7369 -0.649143 2.49287 0
M  V30 1106 H 99.6949 -2.33431 2.10612 0
M  V30 1107 N 103.467 -1.45747 0.599634 0
M  V30 1108 C 104.715 -2.01893 0.0915472 0
M  V30 1109 C 105.036 -1.47155 -1.27946 0
M  V30 1110 O 104.306 -0.66273 -1.84349 0
M  V30 1111 H 102.886 -0.746363 0.0308524 0
M  V30 1112 H 105.548 -1.78645 0.779237 0
M  V30 1113 H 104.644 -3.1208 0.0353086 0
M  V30 1114 N 104.945 -0.338344 -1.53925 0
M  V30 1115 C 106.173 0.261298 -2.05243 0
M  V30 1116 C 106.588 1.44625 -1.21363 0
M  V30 1117 O 105.945 1.80811 -0.247736 0
M  V30 1118 C 105.996 0.681412 -3.5502 0
M  V30 1119 O 105.717 -0.456414 -4.35716 0
M  V30 1120 C 107.218 1.34232 -4.22489 0
M  V30 1121 H 104.438 0.0513685 -0.669031 0
M  V30 1122 H 106.982 -0.488822 -1.98572 0
M  V30 1123 H 105.137 1.38148 -3.61931 0
M  V30 1124 H 105.551 -0.122564 -5.24357 0
M  V30 1125 H 107.025 1.58708 -5.28693 0
M  V30 1126 H 107.502 2.29426 -3.74514 0
M  V30 1127 H 108.108 0.684424 -4.19757 0
M  V30 1128 N 106.423 1.57458 -0.0668435 0
M  V30 1129 C 107.7 1.8469 0.644132 0
M  V30 1130 C 108.08 0.958343 1.88093 0
M  V30 1131 O 107.428 0.0233579 2.28488 0
M  V30 1132 C 107.638 3.34767 0.986509 0
M  V30 1133 C 108.986 4.02159 1.36212 0
M  V30 1134 O 110.01 3.39484 1.07839 0
M  V30 1135 O 108.869 5.12694 1.89227 0
M  V30 1136 H 105.963 0.762816 0.319437 0
M  V30 1137 H 108.509 1.6942 -0.0973986 0
M  V30 1138 H 107.281 3.91151 0.107883 0
M  V30 1139 H 106.904 3.55281 1.78497 0
M  V30 1140 N 107.901 -0.206675 1.56239 0
M  V30 1141 C 109.129 -0.945345 1.8404 0
M  V30 1142 C 109.544 -1.77336 0.647885 0
M  V30 1143 O 108.901 -1.78425 -0.383511 0
M  V30 1144 C 108.952 -1.8509 3.10522 0
M  V30 1145 O 108.673 -1.05634 4.25174 0
M  V30 1146 C 110.174 -2.70222 3.51418 0
M  V30 1147 H 107.394 -0.276372 0.61144 0
M  V30 1148 H 109.938 -0.217417 2.03341 0
M  V30 1149 H 108.093 -2.53259 2.93153 0
M  V30 1150 H 108.507 -1.67238 4.97124 0
M  V30 1151 H 109.981 -3.29438 4.42916 0
M  V30 1152 H 110.458 -3.43358 2.73864 0
M  V30 1153 H 111.064 -2.07443 3.71278 0
M  V30 1154 N 109.379 -1.50304 -0.473955 0
M  V30 1155 C 110.326 -1.68959 -1.57231 0
M  V30 1156 C 111.296 -0.530899 -1.57387 0
M  V30 1157 O 112.481 -0.761133 -1.74961 0
M  V30 1158 C 109.621 -1.7871 -2.95223 0
M  V30 1159 C 108.734 -3.06061 -3.04878 0
M  V30 1160 C 107.869 -3.06626 -4.33767 0
M  V30 1161 C 106.908 -4.28443 -4.37154 0
M  V30 1162 N 106.045 -4.26763 -5.5751 0
M  V30 1163 H 110.885 -2.6273 -1.40631 0
M  V30 1164 H 108.422 -1.30241 -0.683789 0
M  V30 1165 H 110.38 -1.82344 -3.75242 0
M  V30 1166 H 109.01 -0.883806 -3.10465 0
M  V30 1167 H 108.062 -3.11911 -2.17751 0
M  V30 1168 H 109.374 -3.96039 -3.0324 0
M  V30 1169 H 108.528 -3.08973 -5.22131 0
M  V30 1170 H 107.267 -2.14473 -4.3801 0
M  V30 1171 H 106.272 -4.2631 -3.47188 0
M  V30 1172 H 107.497 -5.2182 -4.34605 0
M  V30 1173 H 105.443 -3.37462 -5.62544 0
M  V30 1174 H 105.36 -5.10507 -5.57601 0
M  V30 1175 H 106.628 -4.33253 -6.48006 0
M  V30 1176 N 110.857 0.726932 -1.39834 0
M  V30 1177 C 112.103 1.48884 -1.377 0
M  V30 1178 C 112.436 1.94185 0.0244852 0
M  V30 1179 O 111.711 1.67361 0.990986 0
M  V30 1180 C 111.994 2.72288 -2.3565 0
M  V30 1181 C 111.847 2.32956 -3.84775 0
M  V30 1182 C 113.166 3.74414 -2.31306 0
M  V30 1183 H 110.285 0.540062 -0.5015 0
M  V30 1184 H 112.927 0.830547 -1.70886 0
M  V30 1185 H 111.077 3.28457 -2.07481 0
M  V30 1186 H 112.749 1.82356 -4.23726 0
M  V30 1187 H 110.992 1.65088 -4.01159 0
M  V30 1188 H 111.663 3.21362 -4.4881 0
M  V30 1189 H 114.139 3.27849 -2.56231 0
M  V30 1190 H 113.015 4.58414 -3.01907 0
M  V30 1191 H 113.276 4.21909 -1.32081 0
M  V30 1192 N 112.336 1.25143 0.95797 0
M  V30 1193 C 113.283 1.05235 2.05412 0
M  V30 1194 C 114.253 -0.0374561 1.66058 0
M  V30 1195 O 115.438 0.119073 1.90428 0
M  V30 1196 C 112.578 0.673589 3.38462 0
M  V30 1197 C 111.691 1.8379 3.90954 0
M  V30 1198 C 110.826 1.40381 5.12315 0
M  V30 1199 C 109.865 2.53746 5.57027 0
M  V30 1200 N 109.002 2.11136 6.69601 0
M  V30 1201 H 113.842 1.99048 2.21774 0
M  V30 1202 H 111.379 0.991277 1.08683 0
M  V30 1203 H 113.337 0.434964 4.14926 0
M  V30 1204 H 111.967 -0.227554 3.21997 0
M  V30 1205 H 111.019 2.18992 3.11041 0
M  V30 1206 H 112.331 2.68937 4.20089 0
M  V30 1207 H 111.485 1.12464 5.96185 0
M  V30 1208 H 110.224 0.523015 4.84887 0
M  V30 1209 H 109.229 2.82412 4.71724 0
M  V30 1210 H 110.454 3.42398 5.86464 0
M  V30 1211 H 108.4 1.25468 6.4389 0
M  V30 1212 H 108.317 2.89832 6.98236 0
M  V30 1213 H 109.585 1.86385 7.56889 0
M  V30 1214 N 113.814 -1.1601 1.06675 0
M  V30 1215 C 114.744 -2.22688 0.702307 0
M  V30 1216 C 115.725 -1.67306 -0.307032 0
M  V30 1217 O 116.91 -1.93352 -0.181305 0
M  V30 1218 C 114.04 -3.47178 0.092038 0
M  V30 1219 C 112.994 -4.15477 1.02777 0
M  V30 1220 C 112.32 -5.33963 0.28061 0
M  V30 1221 C 113.62 -4.66019 2.35846 0
M  V30 1222 H 115.314 -2.53429 1.59419 0
M  V30 1223 H 112.86 -1.21813 0.767961 0
M  V30 1224 H 114.813 -4.21037 -0.174814 0
M  V30 1225 H 113.537 -3.15749 -0.834877 0
M  V30 1226 H 112.196 -3.43549 1.27944 0
M  V30 1227 H 111.844 -4.98788 -0.649545 0
M  V30 1228 H 111.544 -5.806 0.904258 0
M  V30 1229 H 113.068 -6.10596 0.021396 0
M  V30 1230 H 114.482 -5.3144 2.15045 0
M  V30 1231 H 112.879 -5.23293 2.93743 0
M  V30 1232 H 113.949 -3.82023 2.98641 0
M  V30 1233 N 115.292 -0.849877 -1.32721 0
M  V30 1234 C 116.541 -0.447175 -1.96681 0
M  V30 1235 C 116.854 1.00135 -1.68025 0
M  V30 1236 O 118.06 1.50926 -2.25685 0
M  V30 1237 C 116.516 -0.7487 -3.52026 0
M  V30 1238 C 116.124 -2.21264 -3.89546 0
M  V30 1239 C 117.868 -0.413487 -4.22481 0
M  V30 1240 C 115.775 -2.45763 -5.37917 0
M  V30 1241 H 114.705 -0.163486 -0.736063 0
M  V30 1242 H 117.356 -1.03999 -1.51183 0
M  V30 1243 H 115.738 -0.0853727 -3.95908 0
M  V30 1244 H 116.912 -2.91736 -3.56689 0
M  V30 1245 H 115.227 -2.5119 -3.32103 0
M  V30 1246 H 117.824 -0.574017 -5.3161 0
M  V30 1247 H 118.167 0.644492 -4.11281 0
M  V30 1248 H 118.7 -1.03251 -3.84167 0
M  V30 1249 H 115.439 -3.50168 -5.54132 0
M  V30 1250 H 114.959 -1.79864 -5.72197 0
M  V30 1251 H 116.638 -2.29471 -6.0494 0
M  V30 1252 N 116.77 1.45427 -0.607355 0
M  V30 1253 C 117.717 2.3053 0.111625 0
M  V30 1254 C 118.687 1.4209 0.860216 0
M  V30 1255 O 119.872 1.71019 0.845998 0
M  V30 1256 C 117.012 3.26992 1.10319 0
M  V30 1257 C 116.125 4.30535 0.355493 0
M  V30 1258 C 115.26 5.14105 1.33676 0
M  V30 1259 C 114.299 6.09376 0.576862 0
M  V30 1260 N 113.436 6.85727 1.5074 0
M  V30 1261 H 118.276 2.91477 -0.620093 0
M  V30 1262 H 115.813 1.43631 -0.317594 0
M  V30 1263 H 117.771 3.81385 1.6912 0
M  V30 1264 H 116.401 2.67799 1.80232 0
M  V30 1265 H 115.453 3.78805 -0.348023 0
M  V30 1266 H 116.765 4.98235 -0.237423 0
M  V30 1267 H 115.919 5.72897 1.99684 0
M  V30 1268 H 114.658 4.46423 1.9636 0
M  V30 1269 H 113.663 5.49715 -0.0968519 0
M  V30 1270 H 114.888 6.79085 -0.0449341 0
M  V30 1271 H 112.834 6.20735 2.12189 0
M  V30 1272 H 112.751 7.49778 0.967913 0
M  V30 1273 H 114.019 7.4906 2.15706 0
M  V30 1274 N 118.248 0.346503 1.53744 0
M  V30 1275 C 119.18 -0.543316 2.22667 0
M  V30 1276 C 120.193 -1.06159 1.23427 0
M  V30 1277 O 121.382 -0.971235 1.49764 0
M  V30 1278 C 118.482 -1.76076 2.89569 0
M  V30 1279 C 117.655 -1.37727 4.15151 0
M  V30 1280 C 116.714 -2.45471 4.65436 0
M  V30 1281 O 115.74 -2.08655 5.29577 0
M  V30 1282 N 116.942 -3.7677 4.41616 0
M  V30 1283 H 119.707 0.0469703 2.99663 0
M  V30 1284 H 117.268 0.170766 1.60997 0
M  V30 1285 H 119.26 -2.47593 3.20125 0
M  V30 1286 H 117.83 -2.25835 2.16142 0
M  V30 1287 H 117.05 -0.492746 3.91108 0
M  V30 1288 H 118.338 -1.09708 4.96832 0
M  V30 1289 H 117.736 -4.09467 3.90325 0
M  V30 1290 H 116.293 -4.44448 4.7677 0
M  V30 1291 N 119.726 -1.57421 0.075193 0
M  V30 1292 C 120.636 -2.1642 -0.905511 0
M  V30 1293 C 121.652 -1.12828 -1.32461 0
M  V30 1294 O 122.828 -1.45109 -1.39661 0
M  V30 1295 C 119.893 -2.71693 -2.15369 0
M  V30 1296 C 118.954 -3.90171 -1.79068 0
M  V30 1297 C 118.187 -4.42798 -2.97936 0
M  V30 1298 O 118.41 -3.94416 -4.12058 0
M  V30 1299 O 117.344 -5.34085 -2.77555 0
M  V30 1300 H 121.17 -3.00588 -0.433626 0
M  V30 1301 H 118.755 -1.48664 -0.148067 0
M  V30 1302 H 120.637 -3.07104 -2.88557 0
M  V30 1303 H 119.312 -1.90582 -2.61649 0
M  V30 1304 H 118.219 -3.59606 -1.03122 0
M  V30 1305 H 119.552 -4.72584 -1.37569 0
M  V30 1306 N 121.204 0.198386 -1.56346 0
M  V30 1307 C 122.134 1.24865 -1.9731 0
M  V30 1308 C 123.115 1.47651 -0.844576 0
M  V30 1309 O 124.3 1.59444 -1.10866 0
M  V30 1310 C 121.43 2.59358 -2.30977 0
M  V30 1311 C 120.384 2.5119 -3.46537 0
M  V30 1312 C 119.71 3.89926 -3.65871 0
M  V30 1313 C 121.01 2.03977 -4.80823 0
M  V30 1314 H 122.704 0.908252 -2.85291 0
M  V30 1315 H 120.25 0.435462 -1.37258 0
M  V30 1316 H 122.203 3.33011 -2.58228 0
M  V30 1317 H 120.927 2.95132 -1.39874 0
M  V30 1318 H 119.586 1.79993 -3.19371 0
M  V30 1319 H 119.234 4.23046 -2.72105 0
M  V30 1320 H 118.934 3.85336 -4.4361 0
M  V30 1321 H 120.458 4.65205 -3.95495 0
M  V30 1322 H 121.872 2.67386 -5.07127 0
M  V30 1323 H 120.269 2.10397 -5.62008 0
M  V30 1324 H 121.339 0.992861 -4.74626 0
M  V30 1325 N 122.682 1.50554 0.465978 0
M  V30 1326 C 123.959 1.5232 1.22712 0
M  V30 1327 C 124.339 0.270807 2.09356 0
M  V30 1328 O 123.687 -0.745541 2.15995 0
M  V30 1329 C 123.897 2.82175 2.05374 0
M  V30 1330 C 125.245 3.33033 2.6339 0
M  V30 1331 O 126.269 2.83531 2.15612 0
M  V30 1332 O 125.128 4.19336 3.50456 0
M  V30 1333 H 122.222 0.611183 0.557122 0
M  V30 1334 H 124.768 1.62847 0.477381 0
M  V30 1335 H 123.54 3.64797 1.41558 0
M  V30 1336 H 123.163 2.74675 2.87471 0
M  V30 1337 N 124.16 -0.719506 1.40217 0
M  V30 1338 C 125.107 -1.83359 1.40172 0
M  V30 1339 C 126.077 -1.64065 0.259206 0
M  V30 1340 O 127.262 -1.85254 0.456677 0
M  V30 1341 C 124.402 -3.2103 1.26624 0
M  V30 1342 C 123.515 -3.51923 2.50548 0
M  V30 1343 C 122.65 -4.79079 2.29471 0
M  V30 1344 C 121.689 -5.02863 3.48992 0
M  V30 1345 N 120.826 -6.2123 3.27135 0
M  V30 1346 H 125.666 -1.82733 2.35399 0
M  V30 1347 H 123.203 -0.892688 1.16917 0
M  V30 1348 H 125.161 -4.00524 1.16776 0
M  V30 1349 H 123.791 -3.20895 0.350176 0
M  V30 1350 H 122.843 -2.67014 2.70939 0
M  V30 1351 H 124.155 -3.6541 3.39525 0
M  V30 1352 H 123.309 -5.66582 2.16955 0
M  V30 1353 H 122.048 -4.67794 1.37913 0
M  V30 1354 H 121.053 -4.13816 3.6199 0
M  V30 1355 H 122.278 -5.16023 4.41472 0
M  V30 1356 H 120.224 -6.11204 2.38256 0
M  V30 1357 H 120.141 -6.35375 4.09675 0
M  V30 1358 H 121.409 -7.11532 3.18344 0
M  V30 1359 N 125.638 -1.25649 -0.95132 0
M  V30 1360 C 126.868 -1.13179 -1.72841 0
M  V30 1361 C 127.276 0.316827 -1.86528 0
M  V30 1362 O 126.619 1.22948 -1.3649 0
M  V30 1363 C 126.681 -1.71644 -3.15878 0
M  V30 1364 C 126.345 -3.20667 -3.25609 0
M  V30 1365 C 127.342 -4.17616 -3.09666 0
M  V30 1366 C 125.027 -3.6094 -3.49324 0
M  V30 1367 C 127.021 -5.52817 -3.17289 0
M  V30 1368 C 124.708 -4.96278 -3.56584 0
M  V30 1369 C 125.706 -5.92025 -3.40581 0
M  V30 1370 O 125.394 -7.24899 -3.47528 0
M  V30 1371 H 125.126 -0.395389 -0.54831 0
M  V30 1372 H 127.68 -1.66566 -1.20187 0
M  V30 1373 H 125.91 -1.12707 -3.69911 0
M  V30 1374 H 127.599 -1.54225 -3.75459 0
M  V30 1375 H 128.365 -3.87842 -2.91211 0
M  V30 1376 H 124.244 -2.86907 -3.6084 0
M  V30 1377 H 127.788 -6.2753 -3.04716 0
M  V30 1378 H 123.685 -5.25716 -3.74556 0
M  V30 1379 H 124.453 -7.33039 -3.64138 0
M  V30 1380 N 127.117 1.15442 -1.07289 0
M  V30 1381 C 128.064 2.20161 -0.692653 0
M  V30 1382 C 129.034 1.63073 0.31564 0
M  V30 1383 O 130.219 1.89725 0.202235 0
M  V30 1384 C 127.359 3.44967 -0.0959509 0
M  V30 1385 C 126.472 4.16256 -1.15564 0
M  V30 1386 C 125.607 5.28609 -0.524011 0
M  V30 1387 C 124.646 5.91715 -1.56653 0
M  V30 1388 N 123.783 6.9554 -0.957531 0
M  V30 1389 H 128.623 2.52037 -1.59002 0
M  V30 1390 H 126.16 1.2378 -0.794798 0
M  V30 1391 H 128.118 4.16341 0.267628 0
M  V30 1392 H 126.748 3.1361 0.764772 0
M  V30 1393 H 125.8 3.43385 -1.6368 0
M  V30 1394 H 127.112 4.59268 -1.94613 0
M  V30 1395 H 126.266 6.06604 -0.108032 0
M  V30 1396 H 125.005 4.86787 0.29825 0
M  V30 1397 H 124.01 5.12433 -1.9923 0
M  V30 1398 H 125.235 6.35614 -2.39107 0
M  V30 1399 H 123.181 6.55814 -0.156162 0
M  V30 1400 H 123.098 7.36977 -1.68526 0
M  V30 1401 H 124.366 7.77435 -0.567032 0
M  V30 1402 N 128.595 0.856903 1.32268 0
M  V30 1403 C 129.543 0.291987 2.3076 0
M  V30 1404 C 130.537 -0.585857 1.58947 0
M  V30 1405 O 131.743 -0.47341 1.73663 0
M  V30 1406 H 128.118 0.075721 0.748178 0
M  V30 1407 H 130.089 1.13687 2.75895 0
M  V30 1408 C 128.838 -0.502869 3.44044 0
M  V30 1409 H 128.161 0.163328 3.99466 0
M  V30 1410 H 129.601 -0.863691 4.1511 0
M  V30 1411 C 128.06 -1.68898 2.91505 0
M  V30 1412 O 128.59 -2.78811 2.89184 0
M  V30 1413 N 126.796 -1.51679 2.47875 0
M  V30 1414 H 126.343 -0.622666 2.49961 0
M  V30 1415 H 126.301 -2.31184 2.13076 0
M  V30 1416 N 130.073 -1.45103 0.615059 0
M  V30 1417 C 131.036 -2.29025 -0.0895485 0
M  V30 1418 C 132.036 -1.40174 -0.787906 0
M  V30 1419 O 133.226 -1.62217 -0.634933 0
M  V30 1420 C 130.358 -3.21376 -1.13711 0
M  V30 1421 H 131.551 -2.92807 0.648382 0
M  V30 1422 H 129.104 -1.51749 0.374444 0
M  V30 1423 H 129.839 -2.6241 -1.90556 0
M  V30 1424 H 129.624 -3.86834 -0.640475 0
M  V30 1425 H 131.114 -3.84459 -1.63036 0
M  V30 1426 N 131.551 -0.354651 -1.53558 0
M  V30 1427 C 132.797 0.238797 -2.01389 0
M  V30 1428 C 133.13 1.49309 -1.2418 0
M  V30 1429 O 132.405 1.91638 -0.332457 0
M  V30 1430 C 132.688 0.541771 -3.56001 0
M  V30 1431 C 132.541 -0.725388 -4.43912 0
M  V30 1432 C 133.86 1.34685 -4.18984 0
M  V30 1433 H 130.979 0.0853177 -0.732045 0
M  V30 1434 H 133.621 -0.477384 -1.83905 0
M  V30 1435 H 131.771 1.15189 -3.71031 0
M  V30 1436 H 133.443 -1.36313 -4.407 0
M  V30 1437 H 131.686 -1.34801 -4.12324 0
M  V30 1438 H 132.357 -0.468505 -5.50008 0
M  V30 1439 H 134.833 0.830837 -4.07721 0
M  V30 1440 H 133.709 1.52759 -5.27215 0
M  V30 1441 H 133.97 2.35221 -3.74331 0
M  V30 1442 N 133.029 1.57378 -0.0835403 0
M  V30 1443 C 134.257 1.98263 0.59157 0
M  V30 1444 C 134.672 0.962302 1.62435 0
M  V30 1445 O 134.029 -0.049581 1.82433 0
M  V30 1446 C 134.08 3.39214 1.24965 0
M  V30 1447 O 133.801 4.37339 0.258186 0
M  V30 1448 C 135.302 3.95038 2.01147 0
M  V30 1449 H 132.522 0.651773 0.159477 0
M  V30 1450 H 135.066 2.03878 -0.159415 0
M  V30 1451 H 133.221 3.34649 1.95164 0
M  V30 1452 H 133.635 5.19371 0.731734 0
M  V30 1453 H 135.109 4.95848 2.42567 0
M  V30 1454 H 135.586 3.32222 2.87272 0
M  V30 1455 H 136.192 4.0304 1.35789 0
M  V30 1456 N 134.507 -0.190092 1.56449 0
M  V30 1457 C 135.417 -1.25591 1.98152 0
M  V30 1458 C 136.433 -1.49519 0.889944 0
M  V30 1459 O 137.609 -1.62036 1.19609 0
M  V30 1460 C 134.674 -2.57916 2.3169 0
M  V30 1461 C 133.735 -2.42015 3.5458 0
M  V30 1462 C 132.968 -3.6803 3.8651 0
M  V30 1463 O 133.191 -4.72413 3.1966 0
M  V30 1464 O 132.125 -3.6326 4.79923 0
M  V30 1465 H 135.951 -0.931988 2.89046 0
M  V30 1466 H 133.536 -0.395488 1.4407 0
M  V30 1467 H 135.418 -3.36008 2.54316 0
M  V30 1468 H 134.093 -2.89925 1.43963 0
M  V30 1469 H 133 -1.62017 3.37196 0
M  V30 1470 H 134.333 -2.14937 4.4279 0
M  V30 1471 N 135.985 -1.50799 -0.457987 0
M  V30 1472 C 136.915 -1.73553 -1.5621 0
M  V30 1473 C 137.896 -0.584774 -1.59732 0
M  V30 1474 O 139.081 -0.825314 -1.7579 0
M  V30 1475 C 136.211 -1.84169 -2.94447 0
M  V30 1476 C 135.165 -2.99461 -3.0579 0
M  V30 1477 C 134.491 -2.95235 -4.45803 0
M  V30 1478 C 135.791 -4.39766 -2.81786 0
M  V30 1479 H 137.485 -2.66 -1.37421 0
M  V30 1480 H 135.031 -1.28002 -0.659662 0
M  V30 1481 H 136.984 -1.98672 -3.71628 0
M  V30 1482 H 135.708 -0.883545 -3.14422 0
M  V30 1483 H 134.367 -2.8463 -2.31044 0
M  V30 1484 H 134.015 -1.97239 -4.62715 0
M  V30 1485 H 133.715 -3.72642 -4.54326 0
M  V30 1486 H 135.239 -3.11803 -5.24987 0
M  V30 1487 H 136.653 -4.55054 -3.4871 0
M  V30 1488 H 135.05 -5.18722 -3.0174 0
M  V30 1489 H 136.12 -4.51229 -1.7754 0
M  V30 1490 N 137.463 0.71206 -1.40597 0
M  V30 1491 C 138.395 1.83704 -1.37061 0
M  V30 1492 C 139.408 1.60453 -0.275426 0
M  V30 1493 O 140.597 1.70262 -0.53602 0
M  V30 1494 C 137.697 3.20172 -1.11099 0
M  V30 1495 C 136.87 3.7059 -2.3234 0
M  V30 1496 C 135.929 4.85681 -2.02485 0
M  V30 1497 O 134.955 4.9815 -2.75382 0
M  V30 1498 N 136.157 5.71735 -1.00497 0
M  V30 1499 H 138.922 1.87235 -2.34016 0
M  V30 1500 H 136.483 0.893739 -1.34996 0
M  V30 1501 H 138.475 3.94768 -0.891064 0
M  V30 1502 H 137.045 3.11767 -0.227989 0
M  V30 1503 H 136.265 2.87085 -2.7014 0
M  V30 1504 H 137.553 4.01011 -3.13157 0
M  V30 1505 H 136.951 5.64275 -0.401298 0
M  V30 1506 H 135.508 6.463 -0.844942 0
M  V30 1507 N 138.941 1.26152 0.944643 0
M  V30 1508 C 139.871 1.09902 2.06019 0
M  V30 1509 C 140.852 0.00519538 1.70099 0
M  V30 1510 O 142.037 0.176583 1.93396 0
M  V30 1511 C 139.167 0.727562 3.39594 0
M  V30 1512 C 138.121 1.77274 3.89561 0
M  V30 1513 C 137.447 1.25569 5.19747 0
M  V30 1514 C 138.747 3.17357 4.14827 0
M  V30 1515 H 140.441 2.03217 2.19871 0
M  V30 1516 H 137.987 0.978452 1.05652 0
M  V30 1517 H 139.94 0.600777 4.17095 0
M  V30 1518 H 138.664 -0.241287 3.25707 0
M  V30 1519 H 137.323 1.88814 3.14237 0
M  V30 1520 H 136.971 0.276783 5.02238 0
M  V30 1521 H 136.671 1.95433 5.54148 0
M  V30 1522 H 138.195 1.1415 5.99835 0
M  V30 1523 H 139.609 3.08914 4.82954 0
M  V30 1524 H 138.006 3.84781 4.60504 0
M  V30 1525 H 139.076 3.63673 3.20734 0
M  V30 1526 N 140.419 -1.14872 1.07899 0
M  V30 1527 C 141.349 -2.2193 0.725887 0
M  V30 1528 C 142.33 -1.67622 -0.28927 0
M  V30 1529 O 143.515 -1.93533 -0.160787 0
M  V30 1530 C 140.645 -3.47061 0.128856 0
M  V30 1531 C 139.599 -4.14363 1.07178 0
M  V30 1532 C 138.925 -5.33636 0.337229 0
M  V30 1533 C 140.225 -4.63492 2.40775 0
M  V30 1534 H 141.919 -2.51724 1.62097 0
M  V30 1535 H 139.465 -1.20991 0.780838 0
M  V30 1536 H 141.418 -4.21199 -0.130147 0
M  V30 1537 H 140.142 -3.16617 -0.80134 0
M  V30 1538 H 138.801 -3.42173 1.3158 0
M  V30 1539 H 138.449 -4.99449 -0.596606 0
M  V30 1540 H 138.149 -5.79609 0.965788 0
M  V30 1541 H 139.673 -6.10539 0.0861567 0
M  V30 1542 H 141.087 -5.2913 2.20669 0
M  V30 1543 H 139.484 -5.20148 2.99276 0
M  V30 1544 H 140.554 -3.78834 3.02676 0
M  V30 1545 N 141.898 -0.863906 -1.31812 0
M  V30 1546 C 142.831 -0.259963 -2.26714 0
M  V30 1547 C 143.809 0.607392 -1.50829 0
M  V30 1548 O 144.993 0.562155 -1.79922 0
M  V30 1549 C 142.12 0.632456 -3.32743 0
M  V30 1550 C 141.166 -0.162743 -4.26189 0
M  V30 1551 S 141.999 -1.53726 -5.12961 0
M  V30 1552 C 143.155 -0.650803 -6.22507 0
M  V30 1553 H 143.388 -1.06445 -2.77591 0
M  V30 1554 H 140.921 -0.662071 -1.39485 0
M  V30 1555 H 142.879 1.14167 -3.94305 0
M  V30 1556 H 141.54 1.41083 -2.80632 0
M  V30 1557 H 140.733 0.517366 -5.01338 0
M  V30 1558 H 140.335 -0.60385 -3.69093 0
M  V30 1559 H 142.627 0.141134 -6.77353 0
M  V30 1560 H 143.57 -1.37322 -6.94657 0
M  V30 1561 H 143.978 -0.221041 -5.64067 0
M  V30 1562 N 143.376 1.44774 -0.622745 0
M  V30 1563 C 144.308 2.28856 0.125485 0
M  V30 1564 C 145.321 1.40811 0.817069 0
M  V30 1565 O 146.51 1.65044 0.679918 0
M  V30 1566 C 143.61 3.16963 1.19949 0
M  V30 1567 C 142.783 4.33374 0.592064 0
M  V30 1568 C 141.842 5.02577 1.55893 0
M  V30 1569 O 140.868 5.58873 1.07933 0
M  V30 1570 N 142.07 5.03256 2.89334 0
M  V30 1571 H 144.835 2.93713 -0.596068 0
M  V30 1572 H 142.396 1.55129 -0.463303 0
M  V30 1573 H 144.388 3.60123 1.84644 0
M  V30 1574 H 142.958 2.53913 1.82337 0
M  V30 1575 H 142.178 3.93509 -0.233322 0
M  V30 1576 H 143.466 5.08527 0.166738 0
M  V30 1577 H 142.864 4.58836 3.30887 0
M  V30 1578 H 141.421 5.50232 3.49412 0
M  V30 1579 N 144.854 0.36279 1.53368 0
M  V30 1580 C 145.802 -0.500155 2.27159 0
M  V30 1581 C 146.796 -1.08575 1.3003 0
M  V30 1582 O 148.002 -1.02927 1.47668 0
M  V30 1583 H 144.377 -0.180009 0.730138 0
M  V30 1584 H 146.348 0.14401 2.98052 0
M  V30 1585 C 145.097 -1.62937 3.07159 0
M  V30 1586 H 144.42 -1.18806 3.8174 0
M  V30 1587 H 145.86 -2.20795 3.61975 0
M  V30 1588 C 144.319 -2.57007 2.17829 0
M  V30 1589 O 144.849 -3.59752 1.78721 0
M  V30 1590 N 143.055 -2.26131 1.82518 0
M  V30 1591 H 142.602 -1.42616 2.14519 0
M  V30 1592 H 142.56 -2.89327 1.23034 0
M  V30 1593 N 146.332 -1.57332 0.0918853 0
M  V30 1594 C 147.56 -1.98574 -0.581048 0
M  V30 1595 C 147.975 -0.970903 -1.61923 0
M  V30 1596 O 147.332 0.0399054 -1.82456 0
M  V30 1597 C 147.383 -3.39872 -1.23164 0
M  V30 1598 O 147.104 -4.37469 -0.234989 0
M  V30 1599 C 148.605 -3.96099 -1.99049 0
M  V30 1600 H 145.825 -0.65261 -0.156018 0
M  V30 1601 H 148.369 -2.0379 0.170225 0
M  V30 1602 H 146.524 -3.35679 -1.93386 0
M  V30 1603 H 146.938 -5.19751 -0.70418 0
M  V30 1604 H 148.412 -4.97127 -2.39934 0
M  V30 1605 H 148.889 -3.3374 -2.85507 0
M  V30 1606 H 149.495 -4.03755 -1.3365 0
M  V30 1607 N 147.81 0.181792 -1.56548 0
M  V30 1608 C 149.221 0.745244 -1.71181 0
M  V30 1609 C 149.572 1.83262 -0.70068 0
M  V30 1610 O 148.697 2.15946 0.140154 0
M  V30 1611 C 149.292 1.35859 -3.10367 0
M  V30 1612 C 147.851 1.86898 -3.2672 0
M  V30 1613 C 146.998 0.743942 -2.67134 0
M  V30 1614 H 149.949 -0.0434661 -1.5864 0
M  V30 1615 H 149.97 2.22817 -3.08436 0
M  V30 1616 H 149.482 0.566948 -3.83937 0
M  V30 1617 H 147.583 2.68738 -2.5809 0
M  V30 1618 H 147.696 2.02162 -4.34359 0
M  V30 1619 H 146.06 1.16169 -2.26665 0
M  V30 1620 H 146.843 -0.035676 -3.43281 0
M  V30 1621 N 149.288 1.51039 0.449983 0
M  V30 1622 C 150.251 1.70863 1.5277 0
M  V30 1623 C 151.251 0.578846 1.5002 0
M  V30 1624 O 152.441 0.846213 1.52266 0
M  V30 1625 C 149.573 1.75341 2.9235 0
M  V30 1626 H 150.766 2.67034 1.36502 0
M  V30 1627 H 148.319 1.40838 0.677812 0
M  V30 1628 H 149.054 0.809383 3.14037 0
M  V30 1629 H 148.839 2.57436 2.95752 0
M  V30 1630 H 150.329 1.92559 3.70555 0
M  V30 1631 N 150.766 -0.704594 1.40972 0
M  V30 1632 C 151.729 -1.80035 1.41845 0
M  V30 1633 C 152.729 -1.57774 0.310474 0
M  V30 1634 O 153.919 -1.64613 0.56992 0
M  V30 1635 C 151.051 -3.18284 1.22098 0
M  V30 1636 H 152.244 -1.80658 2.3938 0
M  V30 1637 H 149.797 -0.911329 1.26982 0
M  V30 1638 H 150.532 -3.23306 0.253672 0
M  V30 1639 H 150.317 -3.35843 2.02366 0
M  V30 1640 H 151.807 -3.98289 1.25522 0
M  V30 1641 N 152.244 -1.26651 -0.937939 0
M  V30 1642 C 153.192 -1.08308 -2.05845 0
M  V30 1643 C 154.186 -0.0090757 -1.69398 0
M  V30 1644 O 155.392 -0.166007 -1.79233 0
M  V30 1645 H 151.767 -0.333416 -0.674046 0
M  V30 1646 H 153.738 -2.03261 -2.18467 0
M  V30 1647 C 152.487 -0.736229 -3.39816 0
M  V30 1648 H 151.81 -1.55453 -3.6834 0
M  V30 1649 H 153.25 -0.64769 -4.19024 0
M  V30 1650 C 151.709 0.558824 -3.32233 0
M  V30 1651 O 152.239 1.59621 -3.68624 0
M  V30 1652 N 150.445 0.550657 -2.85335 0
M  V30 1653 H 149.992 -0.293943 -2.55917 0
M  V30 1654 H 149.95 1.41726 -2.80644 0
M  V30 1655 N 153.722 1.14298 -1.08507 0
M  V30 1656 C 154.67 2.21483 -0.710483 0
M  V30 1657 C 155.664 1.66998 0.284234 0
M  V30 1658 O 156.87 1.79401 0.146692 0
M  V30 1659 H 153.245 0.721578 -0.211729 0
M  V30 1660 H 155.216 2.50348 -1.62384 0
M  V30 1661 C 153.965 3.4743 -0.137007 0
M  V30 1662 H 153.288 3.89686 -0.893592 0
M  V30 1663 H 154.728 4.2391 0.0872789 0
M  V30 1664 C 153.187 3.17548 1.12538 0
M  V30 1665 O 153.717 3.35437 2.21009 0
M  V30 1666 N 151.923 2.71499 1.03617 0
M  V30 1667 H 151.47 2.57143 0.153403 0
M  V30 1668 H 151.428 2.51881 1.88158 0
M  V30 1669 N 155.201 0.870884 1.31352 0
M  V30 1670 C 156.617 0.562932 1.49343 0
M  V30 1671 C 156.817 -0.902725 1.80148 0
M  V30 1672 O 155.873 -1.68484 1.88067 0
M  V30 1673 C 157.186 1.46393 2.62659 0
M  V30 1674 C 158.734 1.46607 2.76542 0
M  V30 1675 C 159.209 2.35266 3.92955 0
M  V30 1676 N 160.7 2.33151 4.00243 0
M  V30 1677 C 161.435 2.98471 4.89594 0
M  V30 1678 N 160.931 3.72964 5.8384 0
M  V30 1679 N 162.724 2.87775 4.82848 0
M  V30 1680 H 154.875 1.81923 1.09626 0
M  V30 1681 H 157.138 0.777934 0.541777 0
M  V30 1682 H 156.844 2.50689 2.46674 0
M  V30 1683 H 156.718 1.16314 3.58819 0
M  V30 1684 H 159.105 0.43069 2.9194 0
M  V30 1685 H 159.186 1.8071 1.81046 0
M  V30 1686 H 158.83 3.38881 3.78315 0
M  V30 1687 H 158.76 1.98487 4.87761 0
M  V30 1688 H 161.251 1.79006 3.32814 0
M  V30 1689 H 161.564 4.19932 6.4875 0
M  V30 1690 H 159.909 3.77073 5.83816 0
M  V30 1691 H 163.1 2.29116 4.08195 0
M  V30 1692 H 163.273 3.38961 5.52277 0
M  V30 1693 N 156.679 -1.44442 0.630414 0
M  V30 1694 C 157.642 -2.29107 -0.0652523 0
M  V30 1695 C 158.642 -1.41002 -0.772995 0
M  V30 1696 O 159.832 -1.62881 -0.617692 0
M  V30 1697 C 156.964 -3.22564 -1.10296 0
M  V30 1698 H 158.157 -2.92103 0.679401 0
M  V30 1699 H 155.71 -1.51343 0.390517 0
M  V30 1700 H 156.445 -2.64416 -1.87762 0
M  V30 1701 H 156.23 -3.87491 -0.59941 0
M  V30 1702 H 157.72 -3.86167 -1.5895 0
M  V30 1703 N 158.157 -0.370918 -1.53173 0
M  V30 1704 C 159.573 -0.0200818 -1.59587 0
M  V30 1705 C 159.773 1.46279 -1.38581 0
M  V30 1706 O 158.829 2.22506 -1.19363 0
M  V30 1707 C 160.142 -0.4808 -2.96831 0
M  V30 1708 C 161.69 -0.435477 -3.09956 0
M  V30 1709 C 162.165 -0.872092 -4.4962 0
M  V30 1710 N 163.656 -0.827364 -4.55751 0
M  V30 1711 C 164.391 -1.13683 -5.62018 0
M  V30 1712 N 163.887 -1.51584 -6.76014 0
M  V30 1713 N 165.68 -1.05927 -5.52029 0
M  V30 1714 H 157.831 -1.33652 -1.65079 0
M  V30 1715 H 160.094 -0.546634 -0.774529 0
M  V30 1716 H 159.8 -1.51577 -3.1736 0
M  V30 1717 H 159.674 0.129796 -3.76977 0
M  V30 1718 H 162.061 0.590371 -2.89134 0
M  V30 1719 H 162.142 -1.08164 -2.31806 0
M  V30 1720 H 161.786 -1.89608 -4.71181 0
M  V30 1721 H 161.716 -0.203127 -5.26208 0
M  V30 1722 H 164.207 -0.548216 -3.73902 0
M  V30 1723 H 164.52 -1.73609 -7.53047 0
M  V30 1724 H 162.865 -1.55454 -6.77391 0
M  V30 1725 H 166.056 -0.762321 -4.61851 0
M  V30 1726 H 166.229 -1.30378 -6.34749 0
M  V30 1727 N 159.635 1.57281 -0.100228 0
M  V30 1728 C 161.051 1.57527 0.256416 0
M  V30 1729 C 161.251 1.11173 1.68056 0
M  V30 1730 O 160.307 0.79053 2.39806 0
M  V30 1731 C 161.62 3.00673 0.0401747 0
M  V30 1732 C 163.168 3.12815 0.107528 0
M  V30 1733 C 163.643 4.57929 -0.0807834 0
M  V30 1734 N 165.134 4.63193 -0.0261207 0
M  V30 1735 C 165.869 5.73212 -0.146999 0
M  V30 1736 N 165.365 6.92047 -0.322999 0
M  V30 1737 N 167.158 5.62031 -0.0879044 0
M  V30 1738 H 159.309 1.85718 -1.03065 0
M  V30 1739 H 161.572 0.857446 -0.404339 0
M  V30 1740 H 161.278 3.38804 -0.943649 0
M  V30 1741 H 161.152 3.69042 0.780262 0
M  V30 1742 H 163.539 2.74554 1.08186 0
M  V30 1743 H 163.62 2.47028 -0.664134 0
M  V30 1744 H 163.264 4.96886 -1.05201 0
M  V30 1745 H 163.194 5.21783 0.710635 0
M  V30 1746 H 165.685 3.77748 0.107161 0
M  V30 1747 H 165.998 7.7173 -0.406608 0
M  V30 1748 H 164.343 6.94074 -0.358733 0
M  V30 1749 H 167.534 4.68075 0.048498 0
M  V30 1750 H 167.707 6.47734 -0.185557 0
M  V30 1751 N 161.113 -0.173488 1.56642 0
M  V30 1752 C 162.023 -1.23482 1.99473 0
M  V30 1753 C 163.039 -1.48567 0.905752 0
M  V30 1754 O 164.215 -1.60758 1.21321 0
M  V30 1755 C 161.28 -2.55444 2.34413 0
M  V30 1756 C 160.341 -2.38241 3.57127 0
M  V30 1757 C 159.574 -3.63909 3.90392 0
M  V30 1758 O 159.797 -4.68996 3.24653 0
M  V30 1759 O 158.731 -3.58149 4.83749 0
M  V30 1760 H 162.557 -0.901279 2.90018 0
M  V30 1761 H 160.142 -0.380185 1.44482 0
M  V30 1762 H 162.024 -3.33292 2.57865 0
M  V30 1763 H 160.699 -2.88382 1.4703 0
M  V30 1764 H 159.606 -1.58431 3.38896 0
M  V30 1765 H 160.939 -2.10228 4.45045 0
M  V30 1766 N 162.591 -1.51276 -0.441967 0
M  V30 1767 C 163.554 -1.7167 -1.51862 0
M  V30 1768 C 164.554 -0.586793 -1.49711 0
M  V30 1769 O 165.744 -0.854276 -1.51815 0
M  V30 1770 C 162.876 -1.76889 -2.91416 0
M  V30 1771 H 164.069 -2.67754 -1.35084 0
M  V30 1772 H 161.622 -1.41196 -0.670333 0
M  V30 1773 H 162.357 -0.826026 -3.13604 0
M  V30 1774 H 162.142 -2.59001 -2.94382 0
M  V30 1775 H 163.632 -1.94522 -3.69528 0
M  V30 1776 N 164.069 0.697108 -1.41344 0
M  V30 1777 C 165.48 1.27697 -1.36199 0
M  V30 1778 C 165.831 1.9615 -0.0443463 0
M  V30 1779 O 164.956 1.98689 0.857419 0
M  V30 1780 C 165.551 2.32223 -2.46694 0
M  V30 1781 C 164.11 2.8579 -2.44952 0
M  V30 1782 C 163.257 1.59807 -2.26621 0
M  V30 1783 H 166.208 0.491968 -1.50882 0
M  V30 1784 H 166.229 3.1348 -2.15664 0
M  V30 1785 H 165.741 1.82373 -3.42581 0
M  V30 1786 H 163.842 3.3982 -1.52817 0
M  V30 1787 H 163.955 3.36325 -3.41207 0
M  V30 1788 H 162.319 1.8556 -1.7447 0
M  V30 1789 H 163.102 1.11956 -3.24532 0
M  V30 1790 N 165.547 1.27147 0.931209 0
M  V30 1791 C 166.479 1.05364 2.03546 0
M  V30 1792 C 167.492 0.0108438 1.62796 0
M  V30 1793 O 168.681 0.25202 1.76712 0
M  V30 1794 C 165.781 0.575566 3.33977 0
M  V30 1795 C 164.954 1.68985 4.03439 0
M  V30 1796 C 164.013 1.20813 5.12143 0
M  V30 1797 O 163.039 1.90712 5.363 0
M  V30 1798 N 164.241 0.0618851 5.80467 0
M  V30 1799 H 167.006 2.00454 2.22796 0
M  V30 1800 H 164.567 1.18666 1.10136 0
M  V30 1801 H 166.559 0.237264 4.04004 0
M  V30 1802 H 165.129 -0.282016 3.11325 0
M  V30 1803 H 164.349 2.19861 3.27192 0
M  V30 1804 H 165.637 2.4378 4.46597 0
M  V30 1805 H 165.035 -0.521621 5.6329 0
M  V30 1806 H 163.592 -0.217264 6.51438 0
M  V30 1807 N 167.025 -1.13721 1.09112 0
M  V30 1808 C 168.255 -1.88499 0.845671 0
M  V30 1809 C 168.663 -1.79218 -0.606432 0
M  V30 1810 O 168.006 -1.1544 -1.42896 0
M  V30 1811 C 168.068 -3.38954 1.19793 0
M  V30 1812 C 167.732 -3.72018 2.65428 0
M  V30 1813 C 168.729 -3.7153 3.63677 0
M  V30 1814 C 166.414 -4.01775 3.01467 0
M  V30 1815 C 168.408 -4.00336 4.95994 0
M  V30 1816 C 166.095 -4.30243 4.33975 0
M  V30 1817 C 167.093 -4.29508 5.31048 0
M  V30 1818 O 166.781 -4.5728 6.61173 0
M  V30 1819 H 166.513 -0.603702 0.304171 0
M  V30 1820 H 169.067 -1.44903 1.45576 0
M  V30 1821 H 167.297 -3.83039 0.530871 0
M  V30 1822 H 168.986 -3.95052 0.932146 0
M  V30 1823 H 169.752 -3.4862 3.37179 0
M  V30 1824 H 165.631 -4.01496 2.26544 0
M  V30 1825 H 169.175 -3.99678 5.71755 0
M  V30 1826 H 165.072 -4.52625 4.60219 0
M  V30 1827 H 165.84 -4.74964 6.66597 0
M  V30 1828 N 168.503 -0.877838 -1.30888 0
M  V30 1829 C 169.436 -0.283995 -2.26426 0
M  V30 1830 C 170.414 0.591361 -1.51465 0
M  V30 1831 O 171.598 0.54304 -1.80509 0
M  V30 1832 C 168.725 0.597129 -3.33395 0
M  V30 1833 C 167.771 -0.207937 -4.25993 0
M  V30 1834 S 168.604 -1.59158 -5.11301 0
M  V30 1835 C 169.76 -0.716791 -6.21782 0
M  V30 1836 H 169.993 -1.09383 -2.76446 0
M  V30 1837 H 167.526 -0.676828 -1.38775 0
M  V30 1838 H 169.484 1.09978 -3.95493 0
M  V30 1839 H 168.145 1.38099 -2.82113 0
M  V30 1840 H 167.338 0.464163 -5.01858 0
M  V30 1841 H 166.94 -0.642963 -3.68432 0
M  V30 1842 H 169.232 0.0692833 -6.77465 0
M  V30 1843 H 170.175 -1.44682 -6.93161 0
M  V30 1844 H 170.583 -0.280855 -5.63801 0
M  V30 1845 N 169.982 1.44106 -0.638065 0
M  V30 1846 C 170.93 2.3248 0.0748149 0
M  V30 1847 C 171.924 1.47746 0.828702 0
M  V30 1848 O 173.13 1.64049 0.740816 0
M  V30 1849 H 169.505 0.750771 0.0429686 0
M  V30 1850 H 171.476 2.90348 -0.688504 0
M  V30 1851 C 170.225 3.31843 1.03805 0
M  V30 1852 H 169.548 3.97059 0.467375 0
M  V30 1853 H 170.988 3.96345 1.50622 0
M  V30 1854 C 169.447 2.61291 2.1267 0
M  V30 1855 O 169.977 2.41702 3.20847 0
M  V30 1856 N 168.183 2.20915 1.88798 0
M  V30 1857 H 167.73 2.37047 1.00829 0
M  V30 1858 H 167.688 1.74038 2.61836 0
M  V30 1859 N 171.46 0.379036 1.52974 0
M  V30 1860 C 172.69 -0.20649 2.05566 0
M  V30 1861 C 173.098 -1.41906 1.25137 0
M  V30 1862 O 172.441 -1.81421 0.288464 0
M  V30 1863 C 172.503 -0.651086 3.53555 0
M  V30 1864 C 172.167 0.446626 4.54812 0
M  V30 1865 C 173.164 1.30079 5.03364 0
M  V30 1866 C 170.849 0.610719 4.98573 0
M  V30 1867 C 172.843 2.30426 5.94292 0
M  V30 1868 C 170.53 1.61754 5.89304 0
M  V30 1869 C 171.528 2.46274 6.37054 0
M  V30 1870 O 171.216 3.45237 7.25994 0
M  V30 1871 H 170.948 -0.0372381 0.674974 0
M  V30 1872 H 173.502 0.539718 1.98182 0
M  V30 1873 H 171.732 -1.44911 3.58522 0
M  V30 1874 H 173.421 -1.16112 3.88938 0
M  V30 1875 H 174.187 1.18527 4.70294 0
M  V30 1876 H 170.066 -0.0374044 4.60985 0
M  V30 1877 H 173.61 2.96432 6.31485 0
M  V30 1878 H 169.507 1.73348 6.21788 0
M  V30 1879 H 170.275 3.41124 7.44027 0
M  V30 1880 N 172.938 -1.57226 0.108567 0
M  V30 1881 C 174.166 -1.99179 -0.559954 0
M  V30 1882 C 174.581 -0.988022 -1.60884 0
M  V30 1883 O 173.938 0.0205512 -1.82488 0
M  V30 1884 C 173.989 -3.41159 -1.19552 0
M  V30 1885 O 173.71 -4.37694 -0.188577 0
M  V30 1886 C 175.211 -3.98188 -1.94837 0
M  V30 1887 H 172.431 -0.654228 -0.149088 0
M  V30 1888 H 174.975 -2.03598 0.19183 0
M  V30 1889 H 173.13 -3.37711 -1.89815 0
M  V30 1890 H 173.544 -5.20469 -0.649014 0
M  V30 1891 H 175.018 -4.99644 -2.34648 0
M  V30 1892 H 175.495 -3.3675 -2.81951 0
M  V30 1893 H 176.101 -4.0515 -1.2936 0
M  V30 1894 N 174.416 0.165178 -1.56732 0
M  V30 1895 C 175.665 0.879143 -1.81532 0
M  V30 1896 C 175.978 1.83144 -0.686842 0
M  V30 1897 O 177.184 2.58823 -0.819944 0
M  V30 1898 C 175.64 1.61388 -3.21686 0
M  V30 1899 C 175.248 0.704904 -4.4242 0
M  V30 1900 C 176.992 2.3157 -3.55774 0
M  V30 1901 C 174.899 1.44022 -5.73595 0
M  V30 1902 H 173.829 0.332033 -0.676957 0
M  V30 1903 H 176.48 0.132008 -1.83025 0
M  V30 1904 H 174.862 2.40599 -3.14529 0
M  V30 1905 H 176.036 -0.0506815 -4.60772 0
M  V30 1906 H 174.351 0.112419 -4.16248 0
M  V30 1907 H 176.948 2.8719 -4.51028 0
M  V30 1908 H 177.291 3.07201 -2.8095 0
M  V30 1909 H 177.824 1.59297 -3.64513 0
M  V30 1910 H 174.563 0.72612 -6.51466 0
M  V30 1911 H 174.083 2.16898 -5.5921 0
M  V30 1912 H 175.762 1.98606 -6.15764 0
M  V30 1913 N 175.894 1.51508 0.433938 0
M  V30 1914 C 176.842 1.73646 1.54757 0
M  V30 1915 C 177.836 0.602854 1.5831 0
M  V30 1916 O 179.042 0.784318 1.62014 0
M  V30 1917 H 175.417 0.548718 0.51421 0
M  V30 1918 H 177.388 2.66991 1.33261 0
M  V30 1919 C 176.137 1.88172 2.92381 0
M  V30 1920 H 175.46 2.74808 2.90381 0
M  V30 1921 H 176.9 2.07672 3.6966 0
M  V30 1922 C 175.359 0.64239 3.30719 0
M  V30 1923 O 175.889 -0.201362 4.01195 0
M  V30 1924 N 174.095 0.485489 2.86516 0
M  V30 1925 H 173.642 1.17318 2.29334 0
M  V30 1926 H 173.6 -0.342482 3.12529 0
M  V30 1927 N 177.372 -0.689602 1.41712 0
M  V30 1928 C 178.6 -1.47827 1.44758 0
M  V30 1929 C 179.015 -1.88721 0.0545703 0
M  V30 1930 O 178.372 -1.57176 -0.927463 0
M  V30 1931 C 178.423 -2.73698 2.3616 0
M  V30 1932 O 178.144 -2.34524 3.7004 0
M  V30 1933 C 179.645 -3.67389 2.48072 0
M  V30 1934 H 176.865 -0.455357 0.49284 0
M  V30 1935 H 179.409 -0.848574 1.86063 0
M  V30 1936 H 177.564 -3.32891 1.98148 0
M  V30 1937 H 177.978 -3.15701 4.18847 0
M  V30 1938 H 179.452 -4.52475 3.16181 0
M  V30 1939 H 179.929 -4.12284 1.51388 0
M  V30 1940 H 180.535 -3.14097 2.86746 0
M  V30 1941 N 178.85 -1.27639 -0.924453 0
M  V30 1942 C 180.078 -1.16989 -1.70649 0
M  V30 1943 C 180.493 0.272869 -1.86818 0
M  V30 1944 O 179.85 1.18549 -1.38753 0
M  V30 1945 C 179.901 -1.85229 -3.10439 0
M  V30 1946 O 179.622 -3.23868 -2.95028 0
M  V30 1947 C 181.123 -1.80746 -4.04779 0
M  V30 1948 H 178.343 -0.406595 -0.53378 0
M  V30 1949 H 180.887 -1.68569 -1.15778 0
M  V30 1950 H 179.042 -1.37545 -3.6216 0
M  V30 1951 H 179.456 -3.57889 -3.83426 0
M  V30 1952 H 180.93 -2.33101 -5.00368 0
M  V30 1953 H 181.407 -0.777499 -4.32263 0
M  V30 1954 H 182.013 -2.28059 -3.58984 0
M  V30 1955 N 180.328 1.1314 -1.09713 0
M  V30 1956 C 181.275 2.18642 -0.739196 0
M  V30 1957 C 182.245 1.63706 0.280978 0
M  V30 1958 O 183.43 1.90111 0.161946 0
M  V30 1959 C 180.57 3.44685 -0.169102 0
M  V30 1960 C 179.683 4.13711 -1.24367 0
M  V30 1961 C 178.818 5.27379 -0.636019 0
M  V30 1962 C 177.857 5.88259 -1.69169 0
M  V30 1963 N 176.994 6.93352 -1.10485 0
M  V30 1964 H 181.834 2.48607 -1.64312 0
M  V30 1965 H 179.371 1.22066 -0.820875 0
M  V30 1966 H 181.329 4.16815 0.179256 0
M  V30 1967 H 179.959 3.15161 0.698079 0
M  V30 1968 H 179.011 3.39835 -1.70927 0
M  V30 1969 H 180.323 4.55037 -2.04311 0
M  V30 1970 H 179.477 6.06238 -0.236677 0
M  V30 1971 H 178.216 4.8731 0.194928 0
M  V30 1972 H 177.221 5.08092 -2.10055 0
M  V30 1973 H 178.446 6.30399 -2.52536 0
M  V30 1974 H 176.392 6.55335 -0.295234 0
M  V30 1975 H 176.309 7.33236 -1.84121 0
M  V30 1976 H 177.577 7.76057 -0.73181 0
M  V30 1977 N 181.806 0.884767 1.30421 0
M  V30 1978 C 182.754 0.340869 2.30089 0
M  V30 1979 C 183.748 -0.55201 1.60154 0
M  V30 1980 O 184.954 -0.436467 1.74628 0
M  V30 1981 H 181.329 0.0915739 0.746404 0
M  V30 1982 H 183.3 1.19513 2.73421 0
M  V30 1983 C 182.049 -0.429779 3.45034 0
M  V30 1984 H 181.372 0.248024 3.9903 0
M  V30 1985 H 182.812 -0.775445 4.16849 0
M  V30 1986 C 181.271 -1.62677 2.95022 0
M  V30 1987 O 181.801 -2.72614 2.95033 0
M  V30 1988 N 180.007 -1.46387 2.51036 0
M  V30 1989 H 179.554 -0.569506 2.51226 0
M  V30 1990 H 179.512 -2.26612 2.17932 0
M  V30 1991 N 183.284 -1.43765 0.645699 0
M  V30 1992 C 184.214 -2.33471 -0.0370477 0
M  V30 1993 C 185.195 -1.49042 -0.819779 0
M  V30 1994 O 186.38 -1.77726 -0.782758 0
M  V30 1995 C 183.51 -3.32311 -1.0093 0
M  V30 1996 C 182.464 -4.2667 -0.337201 0
M  V30 1997 C 181.79 -5.1549 -1.42037 0
M  V30 1998 C 183.09 -5.16657 0.765706 0
M  V30 1999 H 184.784 -2.90809 0.712069 0
M  V30 2000 H 182.33 -1.39834 0.343876 0
M  V30 2001 H 184.283 -3.9396 -1.49578 0
M  V30 2002 H 183.007 -2.73213 -1.78948 0
M  V30 2003 H 181.666 -3.66374 0.128771 0
M  V30 2004 H 181.314 -4.52735 -2.1918 0
M  V30 2005 H 181.014 -5.79438 -0.975966 0
M  V30 2006 H 182.538 -5.80012 -1.90838 0
M  V30 2007 H 183.952 -5.72158 0.361702 0
M  V30 2008 H 182.349 -5.89286 1.13413 0
M  V30 2009 H 183.419 -4.56796 1.62683 0
M  V30 2010 N 184.763 -0.387143 -1.52771 0
M  V30 2011 C 185.711 0.463953 -2.27926 0
M  V30 2012 C 186.705 1.06493 -1.31741 0
M  V30 2013 O 187.911 1.00565 -1.49287 0
M  V30 2014 H 184.286 0.16837 -0.732909 0
M  V30 2015 H 186.257 -0.19141 -2.97785 0
M  V30 2016 C 185.006 1.5803 -3.09713 0
M  V30 2017 H 184.329 1.12718 -3.83581 0
M  V30 2018 H 185.769 2.15008 -3.65442 0
M  V30 2019 C 184.228 2.53509 -2.2189 0
M  V30 2020 O 184.758 3.56863 -1.84422 0
M  V30 2021 N 182.964 2.23199 -1.86093 0
M  V30 2022 H 182.511 1.39185 -2.16761 0
M  V30 2023 H 182.469 2.87333 -1.27621 0
M  V30 2024 N 186.241 1.57166 -0.116904 0
M  V30 2025 C 187.487 1.95412 0.542405 0
M  V30 2026 C 187.82 1.00019 1.66463 0
M  V30 2027 O 187.095 0.0370346 1.94465 0
M  V30 2028 C 187.378 3.43615 1.07708 0
M  V30 2029 C 187.231 4.49781 -0.0415868 0
M  V30 2030 C 188.55 3.93616 1.96861 0
M  V30 2031 H 185.669 0.710543 0.195696 0
M  V30 2032 H 188.311 1.89027 -0.192038 0
M  V30 2033 H 186.461 3.49187 1.70296 0
M  V30 2034 H 188.133 4.56308 -0.676793 0
M  V30 2035 H 186.376 4.28033 -0.705019 0
M  V30 2036 H 187.047 5.50733 0.373717 0
M  V30 2037 H 189.523 3.90335 1.44146 0
M  V30 2038 H 188.399 4.97838 2.3119 0
M  V30 2039 H 188.66 3.34188 2.89432 0
M  V30 2040 N 187.719 -0.156864 1.56817 0
M  V30 2041 C 188.944 -0.890331 1.87318 0
M  V30 2042 C 189.369 -1.74394 0.704855 0
M  V30 2043 O 188.727 -1.77972 -0.345786 0
M  V30 2044 C 188.775 -1.73102 3.16336 0
M  V30 2045 O 187.879 -2.83422 2.99576 0
M  V30 2046 H 187.22 -0.24857 0.615718 0
M  V30 2047 H 189.75 -0.150649 2.04045 0
M  V30 2048 H 189.76 -2.12803 3.48107 0
M  V30 2049 H 188.435 -1.10412 4.00976 0
M  V30 2050 H 187.012 -2.47199 2.7919 0
M  V30 2051 N 189.197 -1.51736 -0.425897 0
M  V30 2052 C 190.446 -1.64201 -1.17136 0
M  V30 2053 C 190.759 -0.369705 -1.92074 0
M  V30 2054 O 191.965 -0.373898 -2.68913 0
M  V30 2055 C 190.421 -2.90035 -2.13091 0
M  V30 2056 C 190.029 -4.24312 -1.43747 0
M  V30 2057 C 191.773 -3.1186 -2.87999 0
M  V30 2058 C 189.68 -5.41285 -2.38253 0
M  V30 2059 H 188.61 -0.611624 -0.440944 0
M  V30 2060 H 191.261 -1.78212 -0.437328 0
M  V30 2061 H 189.643 -2.69684 -2.89977 0
M  V30 2062 H 190.817 -4.55086 -0.723408 0
M  V30 2063 H 189.132 -4.08456 -0.809465 0
M  V30 2064 H 191.729 -3.96427 -3.58817 0
M  V30 2065 H 192.072 -2.25403 -3.49999 0
M  V30 2066 H 192.605 -3.32605 -2.18217 0
M  V30 2067 H 189.344 -6.30037 -1.80925 0
M  V30 2068 H 188.864 -5.14872 -3.0768 0
M  V30 2069 H 190.543 -5.73694 -2.99139 0
M  V30 2070 N 190.675 0.682077 -1.42076 0
M  V30 2071 C 191.9 1.47558 -1.45744 0
M  V30 2072 C 192.325 1.87977 -0.0680981 0
M  V30 2073 O 191.683 1.55522 0.9318 0
M  V30 2074 C 191.731 2.70575 -2.38373 0
M  V30 2075 O 190.835 3.68573 -1.85007 0
M  V30 2076 H 190.176 0.443585 -0.494093 0
M  V30 2077 H 192.706 0.837238 -1.86686 0
M  V30 2078 H 192.716 3.18729 -2.54707 0
M  V30 2079 H 191.391 2.40495 -3.39315 0
M  V30 2080 H 189.968 3.2757 -1.78192 0
M  V30 2081 N 192.153 1.28127 0.917671 0
M  V30 2082 C 193.1 1.11717 2.0196 0
M  V30 2083 C 194.07 0.0153929 1.66093 0
M  V30 2084 O 195.255 0.179596 1.89953 0
M  V30 2085 C 192.395 0.780927 3.36148 0
M  V30 2086 C 191.508 1.96135 3.84909 0
M  V30 2087 C 190.643 1.56609 5.0759 0
M  V30 2088 C 189.682 2.71339 5.48673 0
M  V30 2089 N 188.819 2.32332 6.62545 0
M  V30 2090 H 193.659 2.06003 2.15329 0
M  V30 2091 H 191.196 1.02535 1.05475 0
M  V30 2092 H 193.154 0.56675 4.13333 0
M  V30 2093 H 191.784 -0.124998 3.22558 0
M  V30 2094 H 190.836 2.28777 3.03916 0
M  V30 2095 H 192.148 2.82165 4.1132 0
M  V30 2096 H 191.302 1.31374 5.92305 0
M  V30 2097 H 190.041 0.677014 4.82978 0
M  V30 2098 H 189.046 2.97276 4.62501 0
M  V30 2099 H 190.271 3.60882 5.75274 0
M  V30 2100 H 188.217 1.45889 6.39572 0
M  V30 2101 H 188.134 3.11899 6.88662 0
M  V30 2102 H 189.402 2.10371 7.50576 0
M  V30 2103 N 193.631 -1.12557 1.10312 0
M  V30 2104 C 194.578 -2.18247 0.750781 0
M  V30 2105 C 195.548 -1.63853 -0.272293 0
M  V30 2106 O 196.733 -1.90195 -0.151862 0
M  V30 2107 C 193.873 -3.44591 0.187379 0
M  V30 2108 C 192.986 -4.13046 1.2656 0
M  V30 2109 C 192.121 -5.27034 0.663978 0
M  V30 2110 C 191.16 -5.87353 1.72287 0
M  V30 2111 N 190.297 -6.92757 1.1416 0
M  V30 2112 H 195.137 -2.47732 1.65628 0
M  V30 2113 H 192.674 -1.21629 0.827337 0
M  V30 2114 H 194.632 -4.16904 -0.157148 0
M  V30 2115 H 193.262 -3.15527 -0.681355 0
M  V30 2116 H 192.314 -3.38924 1.72727 0
M  V30 2117 H 193.626 -4.53947 2.06721 0
M  V30 2118 H 192.78 -6.06104 0.268824 0
M  V30 2119 H 191.519 -4.87407 -0.169082 0
M  V30 2120 H 190.524 -5.06971 2.12746 0
M  V30 2121 H 191.749 -6.29051 2.55875 0
M  V30 2122 H 189.695 -6.5517 0.329984 0
M  V30 2123 H 189.612 -7.3225 1.88007 0
M  V30 2124 H 190.88 -7.75658 0.772956 0
M  V30 2125 N 195.109 -0.891671 -1.2995 0
M  V30 2126 C 196.525 -0.58662 -1.48428 0
M  V30 2127 C 196.725 0.873951 -1.81561 0
M  V30 2128 O 195.781 1.65471 -1.90724 0
M  V30 2129 C 197.094 -1.50553 -2.60296 0
M  V30 2130 C 198.642 -1.50988 -2.74175 0
M  V30 2131 C 199.117 -2.41488 -3.89163 0
M  V30 2132 N 200.608 -2.39489 -3.96483 0
M  V30 2133 C 201.343 -3.06223 -4.84784 0
M  V30 2134 N 200.839 -3.82206 -5.77833 0
M  V30 2135 N 202.632 -2.95421 -4.78208 0
M  V30 2136 H 194.783 -1.83644 -1.06718 0
M  V30 2137 H 197.046 -0.786455 -0.529332 0
M  V30 2138 H 196.752 -2.54581 -2.42654 0
M  V30 2139 H 196.626 -1.22008 -3.56923 0
M  V30 2140 H 199.013 -0.47708 -2.91218 0
M  V30 2141 H 199.094 -1.83567 -1.78148 0
M  V30 2142 H 198.738 -3.44857 -3.72876 0
M  V30 2143 H 198.668 -2.06222 -4.84541 0
M  V30 2144 H 201.159 -1.84278 -3.29924 0
M  V30 2145 H 201.472 -4.302 -6.41988 0
M  V30 2146 H 199.817 -3.86313 -5.77743 0
M  V30 2147 H 203.008 -2.35581 -4.04499 0
M  V30 2148 H 203.181 -3.47704 -5.46814 0
M  V30 2149 N 196.587 1.43421 -0.653314 0
M  V30 2150 C 197.534 2.30768 0.0382271 0
M  V30 2151 C 198.504 1.44755 0.814576 0
M  V30 2152 O 199.689 1.73624 0.791162 0
M  V30 2153 C 196.829 3.30336 0.998599 0
M  V30 2154 C 195.942 4.31448 0.218342 0
M  V30 2155 C 195.077 5.18098 1.17252 0
M  V30 2156 C 194.116 6.10902 0.382702 0
M  V30 2157 N 193.253 6.90176 1.28848 0
M  V30 2158 H 198.093 2.89357 -0.712511 0
M  V30 2159 H 195.63 1.42548 -0.363128 0
M  V30 2160 H 197.588 3.86572 1.56901 0
M  V30 2161 H 196.218 2.73397 1.71621 0
M  V30 2162 H 195.27 3.77506 -0.46836 0
M  V30 2163 H 196.582 4.97227 -0.395812 0
M  V30 2164 H 195.736 5.7896 1.81356 0
M  V30 2165 H 194.475 4.52444 1.82058 0
M  V30 2166 H 193.48 5.49128 -0.27169 0
M  V30 2167 H 194.705 6.78598 -0.260957 0
M  V30 2168 H 192.651 6.27171 1.92334 0
M  V30 2169 H 192.568 7.52478 0.728887 0
M  V30 2170 H 193.836 7.55543 1.91766 0
M  V30 2171 N 198.065 0.39524 1.52563 0
M  V30 2172 C 199.481 0.0454682 1.59535 0
M  V30 2173 C 199.681 -1.44056 1.4089 0
M  V30 2174 O 198.737 -2.20579 1.22888 0
M  V30 2175 C 200.05 0.527963 2.96029 0
M  V30 2176 C 201.598 0.484733 3.09224 0
M  V30 2177 C 202.073 0.943512 4.48176 0
M  V30 2178 N 203.564 0.899765 4.54377 0
M  V30 2179 C 204.299 1.22609 5.60138 0
M  V30 2180 N 203.795 1.62319 6.73516 0
M  V30 2181 N 205.588 1.14696 5.50274 0
M  V30 2182 H 197.739 1.36261 1.62931 0
M  V30 2183 H 200.002 0.558887 0.765735 0
M  V30 2184 H 199.708 1.56607 3.14908 0
M  V30 2185 H 199.582 -0.0698056 3.77135 0
M  V30 2186 H 201.969 -0.544298 2.90037 0
M  V30 2187 H 202.05 1.11838 2.30056 0
M  V30 2188 H 201.694 1.9708 4.68104 0
M  V30 2189 H 201.624 0.286817 5.25818 0
M  V30 2190 H 204.115 0.607632 3.72983 0
M  V30 2191 H 204.428 1.85567 7.5019 0
M  V30 2192 H 202.773 1.66211 6.74833 0
M  V30 2193 H 205.964 0.835701 4.6058 0
M  V30 2194 H 206.137 1.40459 6.32594 0
M  V30 2195 N 199.544 -1.57102 0.125237 0
M  V30 2196 C 200.96 -1.57915 -0.231322 0
M  V30 2197 C 201.16 -1.13833 -1.66266 0
M  V30 2198 O 200.216 -0.828581 -2.38518 0
M  V30 2199 C 201.529 -3.00699 0.00766489 0
M  V30 2200 C 203.077 -3.12947 -0.0577483 0
M  V30 2201 C 203.552 -4.57742 0.153626 0
M  V30 2202 N 205.043 -4.63092 0.0998073 0
M  V30 2203 C 205.778 -5.72905 0.238174 0
M  V30 2204 N 205.274 -6.91445 0.433057 0
M  V30 2205 N 207.067 -5.6182 0.177308 0
M  V30 2206 H 199.218 -1.84055 1.06007 0
M  V30 2207 H 201.481 -0.850905 0.417929 0
M  V30 2208 H 201.187 -3.3726 0.997431 0
M  V30 2209 H 201.061 -3.70236 -0.721452 0
M  V30 2210 H 203.448 -2.7624 -1.03804 0
M  V30 2211 H 203.529 -2.4594 0.70335 0
M  V30 2212 H 203.173 -4.95149 1.13092 0
M  V30 2213 H 203.103 -5.22848 -0.627534 0
M  V30 2214 H 205.594 -3.77871 -0.047051 0
M  V30 2215 H 205.907 -7.70985 0.529332 0
M  V30 2216 H 204.252 -6.93415 0.469109 0
M  V30 2217 H 207.443 -4.68093 0.0259748 0
M  V30 2218 H 207.616 -6.47357 0.288582 0
M  V30 2219 N 201.022 0.148545 -1.56898 0
M  V30 2220 C 202.269 0.861418 -1.83264 0
M  V30 2221 C 202.597 1.81239 -0.705883 0
M  V30 2222 O 201.852 1.93305 0.305212 0
M  V30 2223 C 202.151 1.67064 -3.1595 0
M  V30 2224 C 201.817 0.866591 -4.42494 0
M  V30 2225 C 200.479 0.644762 -4.76861 0
M  V30 2226 C 202.831 0.30418 -5.20312 0
M  V30 2227 C 200.159 -0.15021 -5.86508 0
M  V30 2228 C 202.511 -0.477824 -6.30793 0
M  V30 2229 C 201.175 -0.710244 -6.63711 0
M  V30 2230 H 200.445 0.315215 -0.670612 0
M  V30 2231 H 203.092 0.125142 -1.91091 0
M  V30 2232 H 201.397 2.47698 -3.03567 0
M  V30 2233 H 203.094 2.22566 -3.33565 0
M  V30 2234 H 199.684 1.04955 -4.15551 0
M  V30 2235 H 203.868 0.462844 -4.94137 0
M  V30 2236 H 199.124 -0.339796 -6.10455 0
M  V30 2237 H 203.298 -0.92076 -6.90286 0
M  V30 2238 H 200.925 -1.3281 -7.48509 0
M  V30 2239 N 202.5 1.5196 0.417844 0
M  V30 2240 C 203.43 1.77634 1.51554 0
M  V30 2241 C 204.411 0.626918 1.58126 0
M  V30 2242 O 205.596 0.871632 1.7354 0
M  V30 2243 C 202.726 1.91911 2.8946 0
M  V30 2244 C 201.68 3.07463 2.97743 0
M  V30 2245 C 201.006 3.06951 4.37819 0
M  V30 2246 C 202.306 4.47082 2.70027 0
M  V30 2247 H 204 2.6955 1.3032 0
M  V30 2248 H 201.546 1.29706 0.625492 0
M  V30 2249 H 203.499 2.08455 3.6623 0
M  V30 2250 H 202.223 0.966598 3.11969 0
M  V30 2251 H 200.882 2.90656 2.23416 0
M  V30 2252 H 200.53 2.09438 4.57323 0
M  V30 2253 H 200.23 3.84556 4.44286 0
M  V30 2254 H 201.754 3.25613 5.16535 0
M  V30 2255 H 203.168 4.6414 3.36522 0
M  V30 2256 H 201.565 5.2654 2.87881 0
M  V30 2257 H 202.635 4.55777 1.65514 0
M  V30 2258 N 203.978 -0.674533 1.42435 0
M  V30 2259 C 205.226 -1.43175 1.42637 0
M  V30 2260 C 205.547 -1.94951 0.0438992 0
M  V30 2261 O 204.817 -1.7308 -0.917607 0
M  V30 2262 H 203.397 -0.531307 0.525092 0
M  V30 2263 H 206.059 -0.797006 1.77859 0
M  V30 2264 H 205.155 -2.28463 2.12629 0
M  V30 2265 N 205.456 -1.28612 -0.910864 0
M  V30 2266 C 206.703 -1.15934 -1.66029 0
M  V30 2267 C 207.031 0.291483 -1.92303 0
M  V30 2268 O 206.286 1.22816 -1.52364 0
M  V30 2269 C 206.585 -1.90624 -3.0232 0
M  V30 2270 C 206.251 -3.40405 -2.95695 0
M  V30 2271 C 204.913 -3.81255 -2.93595 0
M  V30 2272 C 207.265 -4.359 -2.85728 0
M  V30 2273 C 204.593 -5.15936 -2.79334 0
M  V30 2274 C 206.945 -5.70657 -2.73007 0
M  V30 2275 C 205.609 -6.10779 -2.69267 0
M  V30 2276 H 204.879 -0.424234 -0.607541 0
M  V30 2277 H 207.526 -1.5942 -1.06101 0
M  V30 2278 H 205.831 -1.39696 -3.6605 0
M  V30 2279 H 207.528 -1.78228 -3.59215 0
M  V30 2280 H 204.118 -3.07927 -2.98125 0
M  V30 2281 H 208.302 -4.053 -2.86436 0
M  V30 2282 H 203.558 -5.46146 -2.74835 0
M  V30 2283 H 207.732 -6.44311 -2.64264 0
M  V30 2284 H 205.359 -7.1509 -2.57974 0
M  V30 2285 N 206.934 1.1197 -1.10907 0
M  V30 2286 C 207.864 2.19928 -0.784473 0
M  V30 2287 C 208.845 1.6833 0.244726 0
M  V30 2288 O 210.03 1.93892 0.109418 0
M  V30 2289 C 207.16 3.46597 -0.220827 0
M  V30 2290 C 206.114 4.11376 -1.18127 0
M  V30 2291 C 205.44 5.32554 -0.478594 0
M  V30 2292 C 206.74 4.56945 -2.52979 0
M  V30 2293 H 208.434 2.47337 -1.68715 0
M  V30 2294 H 205.98 1.18879 -0.812642 0
M  V30 2295 H 207.933 4.21396 0.0184278 0
M  V30 2296 H 206.657 3.1863 0.717113 0
M  V30 2297 H 205.316 3.38564 -1.40606 0
M  V30 2298 H 204.964 5.00856 0.463976 0
M  V30 2299 H 204.664 5.76844 -1.11912 0
M  V30 2300 H 206.188 6.10096 -0.248 0
M  V30 2301 H 207.602 5.23093 -2.3462 0
M  V30 2302 H 205.999 5.1203 -3.12962 0
M  V30 2303 H 207.069 3.70676 -3.12614 0
M  V30 2304 N 208.412 0.89855 1.29475 0
M  V30 2305 C 209.342 0.39201 2.30186 0
M  V30 2306 C 210.323 -0.532359 1.61555 0
M  V30 2307 O 211.508 -0.443331 1.89072 0
M  V30 2308 C 208.638 -0.382353 3.45189 0
M  V30 2309 C 207.592 0.451483 4.25612 0
M  V30 2310 C 206.918 -0.450307 5.328 0
M  V30 2311 C 208.218 1.70079 4.93832 0
M  V30 2312 H 209.912 1.23362 2.72804 0
M  V30 2313 H 207.458 0.594638 1.31149 0
M  V30 2314 H 209.411 -0.747451 4.14718 0
M  V30 2315 H 208.135 -1.25774 3.01411 0
M  V30 2316 H 206.794 0.798897 3.57789 0
M  V30 2317 H 206.442 -1.32379 4.85268 0
M  V30 2318 H 206.142 0.103902 5.87508 0
M  V30 2319 H 207.666 -0.811623 6.05182 0
M  V30 2320 H 209.08 1.40549 5.55805 0
M  V30 2321 H 207.477 2.19623 5.58467 0
M  V30 2322 H 208.547 2.43744 4.19186 0
M  V30 2323 N 209.89 -1.43072 0.660911 0
M  V30 2324 C 211.138 -2.01323 0.177094 0
M  V30 2325 C 211.459 -1.5245 -1.2159 0
M  V30 2326 O 210.729 -0.740322 -1.81373 0
M  V30 2327 H 209.309 -0.744382 0.0624804 0
M  V30 2328 H 211.971 -1.75179 0.854305 0
M  V30 2329 H 211.067 -3.11649 0.167641 0
M  V30 2330 N 211.368 -0.403325 -1.52352 0
M  V30 2331 C 212.614 0.174605 -2.02047 0
M  V30 2332 C 212.947 1.45282 -1.28867 0
M  V30 2333 O 212.222 1.90483 -0.393257 0
M  V30 2334 C 212.505 0.428238 -3.57545 0
M  V30 2335 C 212.358 -0.866248 -4.4138 0
M  V30 2336 C 213.677 1.21287 -4.23057 0
M  V30 2337 H 210.796 0.0619851 -0.734389 0
M  V30 2338 H 213.438 -0.53565 -1.82293 0
M  V30 2339 H 211.588 1.03327 -3.74507 0
M  V30 2340 H 213.26 -1.50265 -4.3614 0
M  V30 2341 H 211.503 -1.47851 -4.07827 0
M  V30 2342 H 212.174 -0.643249 -5.48239 0
M  V30 2343 H 214.65 0.700703 -4.10158 0
M  V30 2344 H 213.526 1.35909 -5.31808 0
M  V30 2345 H 213.787 2.23193 -3.81625 0
M  V30 2346 N 212.846 1.57033 -0.133567 0
M  V30 2347 C 214.094 1.953 0.519848 0
M  V30 2348 C 214.415 1.01866 1.66278 0
M  V30 2349 O 213.685 0.0776513 1.95746 0
M  V30 2350 H 212.265 0.721091 0.195032 0
M  V30 2351 H 214.927 1.93809 -0.205921 0
M  V30 2352 H 214.023 2.98695 0.904854 0
M  V30 2353 N 214.325 -0.140222 1.56975 0
M  V30 2354 C 215.55 -0.870414 1.88251 0
M  V30 2355 C 215.975 -1.73637 0.723312 0
M  V30 2356 O 215.333 -1.78329 -0.32689 0
M  V30 2357 C 215.381 -1.69737 3.18154 0
M  V30 2358 O 214.485 -2.80229 3.02565 0
M  V30 2359 H 213.826 -0.242025 0.61832 0
M  V30 2360 H 216.356 -0.128999 2.04193 0
M  V30 2361 H 216.366 -2.09099 3.50345 0
M  V30 2362 H 215.041 -1.06152 4.02125 0
M  V30 2363 H 213.618 -2.44224 2.81796 0
M  V30 2364 N 215.803 -1.52179 -0.40978 0
M  V30 2365 C 216.766 -1.74853 -1.48186 0
M  V30 2366 C 217.766 -0.618417 -1.48433 0
M  V30 2367 O 218.956 -0.886286 -1.49969 0
M  V30 2368 C 216.088 -1.8303 -2.87598 0
M  V30 2369 H 217.281 -2.70559 -1.29374 0
M  V30 2370 H 214.834 -1.42586 -0.640233 0
M  V30 2371 H 215.569 -0.89236 -3.11781 0
M  V30 2372 H 215.354 -2.65187 -2.88822 0
M  V30 2373 H 216.844 -2.02316 -3.65319 0
M  V30 2374 N 217.281 0.66697 -1.42791 0
M  V30 2375 C 218.53 1.42278 -1.42968 0
M  V30 2376 C 218.843 1.9553 -0.0524489 0
M  V30 2377 O 220.049 2.71414 0.068363 0
M  V30 2378 C 218.505 2.57418 -2.51524 0
M  V30 2379 C 218.113 2.10832 -3.9529 0
M  V30 2380 C 219.857 3.34878 -2.60877 0
M  V30 2381 C 217.764 3.23101 -4.95338 0
M  V30 2382 H 216.694 0.534533 -0.531781 0
M  V30 2383 H 219.345 0.721302 -1.68729 0
M  V30 2384 H 217.727 3.29971 -2.18941 0
M  V30 2385 H 218.901 1.4538 -4.37266 0
M  V30 2386 H 217.216 1.46289 -3.89857 0
M  V30 2387 H 219.813 4.18505 -3.32802 0
M  V30 2388 H 220.156 3.81993 -1.6549 0
M  V30 2389 H 220.689 2.69398 -2.92693 0
M  V30 2390 H 217.428 2.80969 -5.9223 0
M  V30 2391 H 216.948 3.87309 -4.57987 0
M  V30 2392 H 218.627 3.88447 -5.17415 0
M  V30 2393 N 218.759 1.29093 0.90403 0
M  V30 2394 C 219.722 1.1386 1.98919 0
M  V30 2395 C 220.722 0.0753457 1.60623 0
M  V30 2396 O 221.912 0.321931 1.71199 0
M  V30 2397 C 219.044 0.740198 3.32767 0
M  V30 2398 H 220.237 2.10246 2.13861 0
M  V30 2399 H 217.79 1.12218 1.08797 0
M  V30 2400 H 218.525 -0.223997 3.23525 0
M  V30 2401 H 218.31 1.50838 3.61926 0
M  V30 2402 H 219.8 0.656546 4.12407 0
M  V30 2403 N 220.237 -1.11381 1.11499 0
M  V30 2404 C 221.462 -1.87475 0.887019 0
M  V30 2405 C 221.887 -1.79639 -0.557796 0
M  V30 2406 O 221.245 -1.15924 -1.39396 0
M  V30 2407 C 221.293 -3.34213 1.35403 0
M  V30 2408 O 220.397 -4.0903 0.526146 0
M  V30 2409 H 219.738 -0.582099 0.319463 0
M  V30 2410 H 222.268 -1.40785 1.48461 0
M  V30 2411 H 222.278 -3.8506 1.34881 0
M  V30 2412 H 220.953 -3.39232 2.40612 0
M  V30 2413 H 219.53 -3.68082 0.597522 0
M  V30 2414 N 221.715 -0.905404 -1.28997 0
M  V30 2415 C 222.963 -0.533192 -1.9494 0
M  V30 2416 C 223.284 0.924618 -1.71685 0
M  V30 2417 O 222.554 1.65268 -1.05183 0
M  V30 2418 H 221.134 -0.194194 -0.721317 0
M  V30 2419 H 223.796 -1.15294 -1.57141 0
M  V30 2420 H 222.892 -0.72059 -3.03667 0
M  V30 2421 N 223.193 1.4272 -0.668489 0
M  V30 2422 C 224.442 2.00846 -0.185389 0
M  V30 2423 C 224.755 1.53442 1.21305 0
M  V30 2424 O 225.961 2.03944 1.79218 0
M  V30 2425 C 224.417 3.58805 -0.280591 0
M  V30 2426 C 224.025 4.15198 -1.68268 0
M  V30 2427 C 225.769 4.24255 0.14412 0
M  V30 2428 C 223.676 5.655 -1.73099 0
M  V30 2429 H 222.606 0.751145 -0.0655475 0
M  V30 2430 H 225.257 1.63516 -0.832752 0
M  V30 2431 H 223.639 3.93608 0.434553 0
M  V30 2432 H 224.813 3.91866 -2.42441 0
M  V30 2433 H 223.128 3.62176 -2.05469 0
M  V30 2434 H 225.725 5.34547 0.128086 0
M  V30 2435 H 226.068 3.99277 1.17827 0
M  V30 2436 H 226.601 3.94389 -0.519798 0
M  V30 2437 H 223.34 5.95268 -2.74475 0
M  V30 2438 H 222.86 5.90842 -1.03274 0
M  V30 2439 H 224.539 6.29808 -1.48158 0
M  V30 2440 N 224.671 0.411399 1.52136 0
M  V30 2441 C 225.634 -0.401089 2.25663 0
M  V30 2442 C 226.634 -0.971732 1.28117 0
M  V30 2443 O 227.824 -0.850254 1.52041 0
M  V30 2444 C 224.956 -1.56483 3.02863 0
M  V30 2445 H 226.149 0.24295 2.98914 0
M  V30 2446 H 223.702 0.163968 1.55438 0
M  V30 2447 H 224.437 -2.24567 2.33967 0
M  V30 2448 H 224.222 -1.16211 3.74483 0
M  V30 2449 H 225.712 -2.13951 3.58629 0
M  V30 2450 N 226.149 -1.5696 0.141893 0
M  V30 2451 C 227.395 -1.9625 -0.511248 0
M  V30 2452 C 227.728 -1.02654 -1.64851 0
M  V30 2453 O 227.003 -0.0679676 -1.94381 0
M  V30 2454 C 227.286 -3.45285 -1.02227 0
M  V30 2455 C 227.139 -4.49658 0.113138 0
M  V30 2456 C 228.458 -3.96698 -1.90574 0
M  V30 2457 H 225.577 -0.713567 -0.184367 0
M  V30 2458 H 228.219 -1.88698 0.222087 0
M  V30 2459 H 226.369 -3.51852 -1.64719 0
M  V30 2460 H 228.041 -4.55174 0.749302 0
M  V30 2461 H 226.284 -4.26857 0.773026 0
M  V30 2462 H 226.955 -5.51258 -0.286053 0
M  V30 2463 H 229.431 -3.92578 -1.37918 0
M  V30 2464 H 228.307 -5.01453 -2.2324 0
M  V30 2465 H 228.568 -3.3875 -2.84079 0
M  V30 2466 N 227.627 0.131896 -1.57047 0
M  V30 2467 C 228.852 0.860418 -1.8871 0
M  V30 2468 C 229.277 1.73251 -0.73251 0
M  V30 2469 O 228.635 1.785 0.317429 0
M  V30 2470 C 228.683 1.68047 -3.19049 0
M  V30 2471 O 227.787 2.7862 -3.04047 0
M  V30 2472 H 227.128 0.238743 -0.619595 0
M  V30 2473 H 229.658 0.118169 -2.04258 0
M  V30 2474 H 229.668 2.07238 -3.51449 0
M  V30 2475 H 228.343 1.04018 -4.02682 0
M  V30 2476 H 226.92 2.42726 -2.83088 0
M  V30 2477 N 229.106 1.52395 0.401703 0
M  V30 2478 C 230.053 1.76268 1.48991 0
M  V30 2479 C 231.023 0.605386 1.54675 0
M  V30 2480 O 232.208 0.843742 1.7113 0
M  V30 2481 C 229.348 1.92592 2.86361 0
M  V30 2482 C 228.461 3.20259 2.89928 0
M  V30 2483 C 227.596 3.26972 4.18644 0
M  V30 2484 C 226.635 4.48812 4.16214 0
M  V30 2485 N 225.772 4.52877 5.36514 0
M  V30 2486 H 230.612 2.6914 1.27935 0
M  V30 2487 H 228.149 1.33355 0.620871 0
M  V30 2488 H 230.107 2.0004 3.66115 0
M  V30 2489 H 228.737 1.03093 3.05895 0
M  V30 2490 H 227.789 3.21945 2.02621 0
M  V30 2491 H 229.101 4.10056 2.83999 0
M  V30 2492 H 228.255 3.33533 5.06794 0
M  V30 2493 H 226.994 2.35126 4.27278 0
M  V30 2494 H 225.999 4.4239 3.26453 0
M  V30 2495 H 227.224 5.41961 4.09213 0
M  V30 2496 H 225.17 3.63917 5.45802 0
M  V30 2497 H 225.087 5.36529 5.32609 0
M  V30 2498 H 226.355 4.63676 6.26597 0
M  V30 2499 N 230.584 -0.659388 1.43143 0
M  V30 2500 C 231.83 -1.42145 1.44647 0
M  V30 2501 C 232.163 -1.9408 0.0681907 0
M  V30 2502 O 231.438 -1.71899 -0.910007 0
M  V30 2503 C 231.721 -2.60735 2.48373 0
M  V30 2504 C 231.574 -2.14332 3.95451 0
M  V30 2505 C 232.893 -3.62951 2.48906 0
M  V30 2506 H 230.012 -0.51552 0.526696 0
M  V30 2507 H 232.654 -0.748069 1.74654 0
M  V30 2508 H 230.804 -3.18184 2.22916 0
M  V30 2509 H 232.476 -1.61932 4.31944 0
M  V30 2510 H 230.719 -1.4576 4.08578 0
M  V30 2511 H 231.39 -2.99583 4.63631 0
M  V30 2512 H 233.866 -3.1525 2.71582 0
M  V30 2513 H 232.742 -4.43487 3.23435 0
M  V30 2514 H 233.003 -4.15126 1.52061 0
M  V30 2515 N 232.062 -1.29571 -0.897171 0
M  V30 2516 C 232.992 -1.17473 -2.01798 0
M  V30 2517 C 233.973 -0.068323 -1.69963 0
M  V30 2518 O 235.158 -0.248239 -1.92607 0
M  V30 2519 C 232.288 -0.853099 -3.36659 0
M  V30 2520 C 231.242 -1.9161 -3.82713 0
M  V30 2521 C 230.568 -1.44773 -5.14728 0
M  V30 2522 C 231.868 -3.32535 -4.02763 0
M  V30 2523 H 233.562 -2.11237 -2.12177 0
M  V30 2524 H 231.108 -1.01699 -1.01948 0
M  V30 2525 H 233.061 -0.755165 -4.14578 0
M  V30 2526 H 231.785 0.120236 -3.26379 0
M  V30 2527 H 230.444 -2.00346 -3.07013 0
M  V30 2528 H 230.092 -0.462995 -5.00865 0
M  V30 2529 H 229.792 -2.15865 -5.46513 0
M  V30 2530 H 231.316 -1.36334 -5.95185 0
M  V30 2531 H 232.73 -3.26626 -4.71156 0
M  V30 2532 H 231.127 -4.01607 -4.45905 0
M  V30 2533 H 232.197 -3.75326 -3.07016 0
M  V30 2534 N 233.54 1.10788 -1.12088 0
M  V30 2535 C 234.49 2.15158 -0.754401 0
M  V30 2536 C 235.474 1.59026 0.244846 0
M  V30 2537 O 236.666 1.76927 0.0509097 0
M  V30 2538 C 233.795 3.42677 -0.206657 0
M  V30 2539 C 232.881 4.05751 -1.23398 0
M  V30 2540 N 233.272 4.43582 -2.43041 0
M  V30 2541 C 231.57 4.32764 -1.07848 0
M  V30 2542 C 232.271 4.93085 -3.08613 0
M  V30 2543 N 231.247 4.89664 -2.36072 0
M  V30 2544 H 235.049 2.42195 -1.6649 0
M  V30 2545 H 232.563 1.27872 -1.00112 0
M  V30 2546 H 234.56 4.16834 0.0740646 0
M  V30 2547 H 233.22 3.17101 0.698342 0
M  V30 2548 H 234.231 4.35395 -2.80449 0
M  V30 2549 H 230.908 4.16863 -0.230483 0
M  V30 2550 H 232.298 5.31933 -4.10483 0
M  V30 2551 N 235.018 0.912232 1.28515 0
M  V30 2552 C 235.948 0.416403 2.29757 0
M  V30 2553 C 236.929 -0.515194 1.6211 0
M  V30 2554 O 238.114 -0.423253 1.89532 0
M  V30 2555 C 235.244 -0.34572 3.45575 0
M  V30 2556 C 234.198 0.496599 4.25109 0
M  V30 2557 C 233.524 -0.393771 5.33248 0
M  V30 2558 C 234.824 1.75307 4.92001 0
M  V30 2559 H 236.518 1.26249 2.7148 0
M  V30 2560 H 234.064 0.608515 1.30511 0
M  V30 2561 H 236.017 -0.703422 4.15488 0
M  V30 2562 H 234.741 -1.2257 3.02728 0
M  V30 2563 H 233.4 0.8368 3.56922 0
M  V30 2564 H 233.048 -1.27225 4.86644 0
M  V30 2565 H 232.748 0.166209 5.87365 0
M  V30 2566 H 234.272 -0.747389 6.06009 0
M  V30 2567 H 235.686 1.46437 5.54283 0
M  V30 2568 H 234.083 2.25534 5.56106 0
M  V30 2569 H 235.153 2.48176 4.16577 0
M  V30 2570 N 236.496 -1.42363 0.676048 0
M  V30 2571 C 237.406 -2.346 -0.00153389 0
M  V30 2572 C 238.422 -1.5516 -0.787485 0
M  V30 2573 O 239.598 -1.87723 -0.729521 0
M  V30 2574 C 236.663 -3.33705 -0.940298 0
M  V30 2575 C 235.724 -4.29042 -0.148739 0
M  V30 2576 C 234.957 -5.23413 -1.04279 0
M  V30 2577 O 235.18 -5.22749 -2.28232 0
M  V30 2578 O 234.114 -5.99795 -0.502925 0
M  V30 2579 H 237.94 -2.94082 0.758268 0
M  V30 2580 H 235.525 -1.42888 0.436289 0
M  V30 2581 H 237.407 -3.94586 -1.47917 0
M  V30 2582 H 236.082 -2.76695 -1.67993 0
M  V30 2583 H 234.989 -3.71571 0.43427 0
M  V30 2584 H 236.322 -4.89097 0.551805 0
M  V30 2585 N 237.974 -0.419461 -1.51915 0
M  V30 2586 C 239.222 0.152637 -2.01523 0
M  V30 2587 C 239.543 1.44762 -1.30649 0
M  V30 2588 O 238.813 1.90997 -0.435535 0
M  V30 2589 H 237.393 0.0593966 -0.744635 0
M  V30 2590 H 240.055 -0.558073 -1.86739 0
M  V30 2591 H 239.151 0.341369 -3.10227 0
M  V30 2592 N 239.452 1.56882 -0.150215 0
M  V30 2593 C 240.362 2.20494 0.801222 0
M  V30 2594 C 241.378 1.19019 1.26927 0
M  V30 2595 O 242.554 1.51607 1.32579 0
M  V30 2596 C 239.619 2.81659 2.02161 0
M  V30 2597 C 238.68 3.9827 1.60249 0
M  V30 2598 C 237.913 4.56508 2.7647 0
M  V30 2599 O 238.136 4.13627 3.92771 0
M  V30 2600 O 237.07 5.46719 2.51757 0
M  V30 2601 H 240.896 3.02315 0.289717 0
M  V30 2602 H 238.481 1.49202 0.0769684 0
M  V30 2603 H 240.363 3.20522 2.73576 0
M  V30 2604 H 239.038 2.02849 2.52258 0
M  V30 2605 H 237.945 3.64117 0.858477 0
M  V30 2606 H 239.278 4.78609 1.14864 0
M  V30 2607 N 240.93 -0.123565 1.57115 0
M  V30 2608 C 242.176 -0.833386 1.84885 0
M  V30 2609 C 242.509 -1.79742 0.735292 0
M  V30 2610 O 241.784 -1.92764 -0.25925 0
M  V30 2611 C 242.067 -1.5873 3.23228 0
M  V30 2612 C 241.92 -0.643183 4.45178 0
M  V30 2613 C 243.239 -2.54453 3.59085 0
M  V30 2614 H 240.358 -0.301518 0.6725 0
M  V30 2615 H 243 -0.097778 1.89748 0
M  V30 2616 H 241.15 -2.21438 3.19214 0
M  V30 2617 H 242.822 -0.0253015 4.61293 0
M  V30 2618 H 241.065 0.0456139 4.33776 0
M  V30 2619 H 241.736 -1.20724 5.38637 0
M  V30 2620 H 244.212 -2.01853 3.63861 0
M  V30 2621 H 243.088 -3.04238 4.5687 0
M  V30 2622 H 243.349 -3.36906 2.86264 0
M  V30 2623 N 242.408 -1.52605 -0.393616 0
M  V30 2624 C 243.356 -1.77688 -1.50099 0
M  V30 2625 C 244.35 -0.644615 -1.56656 0
M  V30 2626 O 245.556 -0.826997 -1.59877 0
M  V30 2627 H 241.931 -0.562159 -0.499481 0
M  V30 2628 H 243.902 -2.7043 -1.26135 0
M  V30 2629 C 242.651 -1.95858 -2.87289 0
M  V30 2630 H 241.974 -2.8241 -2.82992 0
M  V30 2631 H 243.414 -2.174 -3.64024 0
M  V30 2632 C 241.873 -0.729848 -3.28899 0
M  V30 2633 O 242.403 0.0949217 -4.01588 0
M  V30 2634 N 240.609 -0.561283 -2.85128 0
M  V30 2635 H 240.156 -1.23357 -2.26143 0
M  V30 2636 H 240.114 0.2595 -3.13327 0
M  V30 2637 N 243.887 0.651787 -1.4349 0
M  V30 2638 C 244.834 1.76462 -1.4876 0
M  V30 2639 C 245.804 1.62641 -0.337189 0
M  V30 2640 O 246.989 1.82864 -0.544544 0
M  V30 2641 C 244.129 3.14623 -1.41796 0
M  V30 2642 C 243.242 3.39568 -2.67053 0
M  V30 2643 C 242.377 4.67585 -2.52068 0
M  V30 2644 C 241.416 4.85639 -3.72587 0
M  V30 2645 N 240.553 6.04915 -3.56402 0
M  V30 2646 H 245.393 1.71293 -2.43849 0
M  V30 2647 H 242.93 0.835889 -1.21043 0
M  V30 2648 H 244.888 3.94496 -1.35753 0
M  V30 2649 H 243.518 3.18859 -0.50288 0
M  V30 2650 H 242.57 2.53783 -2.8337 0
M  V30 2651 H 243.882 3.48795 -3.56572 0
M  V30 2652 H 243.036 5.55586 -2.4374 0
M  V30 2653 H 241.775 4.60681 -1.60075 0
M  V30 2654 H 240.78 3.96073 -3.81321 0
M  V30 2655 H 242.005 4.94372 -4.65589 0
M  V30 2656 H 239.951 5.9914 -2.67146 0
M  V30 2657 H 239.868 6.15106 -4.39524 0
M  V30 2658 H 241.136 6.95533 -3.51929 0
M  V30 2659 N 245.365 1.30045 0.890287 0
M  V30 2660 C 246.614 1.17929 1.63633 0
M  V30 2661 C 246.927 -0.266204 1.9378 0
M  V30 2662 O 248.133 -0.508804 2.6669 0
M  V30 2663 C 246.589 2.06317 2.94892 0
M  V30 2664 C 246.197 3.55745 2.72305 0
M  V30 2665 C 247.941 2.0295 3.72843 0
M  V30 2666 C 245.848 4.36205 3.99348 0
M  V30 2667 H 244.778 0.437782 0.613892 0
M  V30 2668 H 247.429 1.54754 0.986075 0
M  V30 2669 H 245.811 1.6237 3.61182 0
M  V30 2670 H 246.985 4.07805 2.1455 0
M  V30 2671 H 245.3 3.6088 2.07737 0
M  V30 2672 H 247.897 2.60319 4.67053 0
M  V30 2673 H 248.24 1.0117 4.0382 0
M  V30 2674 H 248.773 2.4499 3.13408 0
M  V30 2675 H 245.512 5.38659 3.73533 0
M  V30 2676 H 245.032 3.8891 4.56628 0
M  V30 2677 H 246.711 4.47362 4.67415 0
M  V30 2678 N 246.843 -1.10192 1.12674 0
M  V30 2679 C 247.79 -2.16606 0.796906 0
M  V30 2680 C 248.76 -1.64394 -0.237476 0
M  V30 2681 O 249.945 -1.90474 -0.111484 0
M  V30 2682 C 247.085 -3.44116 0.26043 0
M  V30 2683 C 246.198 -4.10268 1.35293 0
M  V30 2684 C 245.333 -5.25507 0.775621 0
M  V30 2685 C 244.372 -5.83567 1.84706 0
M  V30 2686 N 243.509 -6.90179 1.28829 0
M  V30 2687 H 248.349 -2.44163 1.70846 0
M  V30 2688 H 245.886 -1.19846 0.85295 0
M  V30 2689 H 247.844 -4.17143 -0.0686814 0
M  V30 2690 H 246.474 -3.16901 -0.614274 0
M  V30 2691 H 245.526 -3.35184 1.79877 0
M  V30 2692 H 246.838 -4.4946 2.16303 0
M  V30 2693 H 245.992 -6.05398 0.397327 0
M  V30 2694 H 244.731 -4.87656 -0.0656581 0
M  V30 2695 H 243.736 -5.02344 2.23452 0
M  V30 2696 H 244.961 -6.23482 2.69161 0
M  V30 2697 H 242.907 -6.54322 0.468881 0
M  V30 2698 H 242.824 -7.28097 2.03497 0
M  V30 2699 H 244.092 -7.73844 0.937311 0
M  V30 2700 N 248.321 -0.919034 -1.28029 0
M  V30 2701 C 249.269 -0.401753 -2.29104 0
M  V30 2702 C 250.263 0.509354 -1.61561 0
M  V30 2703 O 251.469 0.390014 -1.75724 0
M  V30 2704 H 247.844 -0.111331 -0.743713 0
M  V30 2705 H 249.815 -1.2672 -2.70156 0
M  V30 2706 C 248.564 0.338148 -3.46052 0
M  V30 2707 H 247.887 -0.353732 -3.98232 0
M  V30 2708 H 249.327 0.664653 -4.18758 0
M  V30 2709 C 247.786 1.54798 -2.99231 0
M  V30 2710 O 248.316 2.64696 -3.02157 0
M  V30 2711 N 246.522 1.3968 -2.54829 0
M  V30 2712 H 246.069 0.502698 -2.52647 0
M  V30 2713 H 246.027 2.20755 -2.23863 0
M  V30 2714 N 249.799 1.42003 -0.683588 0
M  V30 2715 C 250.762 2.29191 -0.0198243 0
M  V30 2716 C 251.762 1.43773 0.72013 0
M  V30 2717 O 252.952 1.65061 0.556815 0
M  V30 2718 C 250.084 3.26435 0.982487 0
M  V30 2719 H 251.277 2.8938 -0.787345 0
M  V30 2720 H 248.83 1.49789 -0.446418 0
M  V30 2721 H 249.565 2.71203 1.77819 0
M  V30 2722 H 249.35 3.89449 0.455182 0
M  V30 2723 H 250.84 3.918 1.44508 0
M  V30 2724 N 251.277 0.427512 1.51691 0
M  V30 2725 C 252.207 -0.3796 2.30394 0
M  V30 2726 C 253.188 -1.02982 1.35384 0
M  V30 2727 O 254.373 -1.03534 1.643 0
M  V30 2728 C 251.503 -1.48649 3.1388 0
M  V30 2729 C 250.457 -0.960294 4.17088 0
M  V30 2730 C 249.783 -2.16219 4.89033 0
M  V30 2731 C 251.083 -0.00153679 5.223 0
M  V30 2732 H 252.777 0.277164 2.98114 0
M  V30 2733 H 250.323 0.134739 1.43368 0
M  V30 2734 H 252.276 -2.05826 3.67714 0
M  V30 2735 H 251 -2.1714 2.43962 0
M  V30 2736 H 249.659 -0.410806 3.64291 0
M  V30 2737 H 249.307 -2.83307 4.15628 0
M  V30 2738 H 249.007 -1.81654 5.58816 0
M  V30 2739 H 250.531 -2.73968 5.45687 0
M  V30 2740 H 251.945 -0.482687 5.71264 0
M  V30 2741 H 250.342 0.256199 5.99553 0
M  V30 2742 H 251.412 0.938174 4.75738 0
M  V30 2743 N 252.755 -1.56801 0.158532 0
M  V30 2744 C 253.685 -2.20347 -0.772609 0
M  V30 2745 C 254.666 -1.15518 -1.24859 0
M  V30 2746 O 255.851 -1.43902 -1.30406 0
M  V30 2747 C 252.981 -2.83417 -2.00729 0
M  V30 2748 C 251.935 -3.94174 -1.66765 0
M  V30 2749 C 251.261 -4.44233 -2.97592 0
M  V30 2750 C 252.561 -5.14392 -0.905447 0
M  V30 2751 H 254.255 -2.98413 -0.242959 0
M  V30 2752 H 251.801 -1.43537 -0.115419 0
M  V30 2753 H 253.754 -3.26543 -2.6636 0
M  V30 2754 H 252.478 -2.02701 -2.56086 0
M  V30 2755 H 251.137 -3.51684 -1.03508 0
M  V30 2756 H 250.785 -3.60325 -3.50963 0
M  V30 2757 H 250.485 -5.18945 -2.75626 0
M  V30 2758 H 252.009 -4.90037 -3.64274 0
M  V30 2759 H 253.423 -5.5429 -1.46408 0
M  V30 2760 H 251.82 -5.9494 -0.7853 0
M  V30 2761 H 252.89 -4.84795 0.100668 0
M  V30 2762 N 254.233 0.115231 -1.57178 0
M  V30 2763 C 255.458 0.840354 -1.89612 0
M  V30 2764 C 255.883 1.72464 -0.750845 0
M  V30 2765 O 255.241 1.78826 0.298478 0
M  V30 2766 C 255.289 1.64654 -3.20814 0
M  V30 2767 O 254.393 2.7538 -3.06985 0
M  V30 2768 H 253.734 0.232158 -0.622092 0
M  V30 2769 H 256.264 0.0964977 -2.04372 0
M  V30 2770 H 256.274 2.03499 -3.53627 0
M  V30 2771 H 254.949 0.997416 -4.03763 0
M  V30 2772 H 253.526 2.3971 -2.85646 0
M  V30 2773 N 255.711 1.52812 0.385517 0
M  V30 2774 C 256.939 1.71907 1.15133 0
M  V30 2775 C 257.354 0.439004 1.83625 0
M  V30 2776 O 256.711 -0.586765 1.7281 0
M  V30 2777 C 256.762 2.87099 2.19673 0
M  V30 2778 O 256.483 4.10151 1.53973 0
M  V30 2779 C 257.984 3.17902 3.08955 0
M  V30 2780 H 255.204 0.575479 0.345057 0
M  V30 2781 H 257.748 1.99476 0.45052 0
M  V30 2782 H 255.903 2.61982 2.85384 0
M  V30 2783 H 256.317 4.74514 2.23465 0
M  V30 2784 H 257.791 4.01959 3.7833 0
M  V30 2785 H 258.268 2.3243 3.72657 0
M  V30 2786 H 258.874 3.44871 2.48885 0
M  V30 2787 N 257.189 -0.644168 1.43834 0
M  V30 2788 C 258.137 -1.77793 1.49974 0
M  V30 2789 C 259.131 -1.65253 0.372536 0
M  V30 2790 O 260.337 -1.7149 0.546924 0
M  V30 2791 H 256.712 -0.58675 0.47035 0
M  V30 2792 H 258.683 -1.69736 2.45423 0
M  V30 2793 C 257.432 -3.16087 1.4486 0
M  V30 2794 H 256.755 -3.26378 2.30905 0
M  V30 2795 H 258.195 -3.95349 1.53217 0
M  V30 2796 C 256.654 -3.36484 0.167463 0
M  V30 2797 O 257.184 -3.94298 -0.767609 0
M  V30 2798 N 255.39 -2.90504 0.0747556 0
M  V30 2799 H 254.937 -2.4364 0.836507 0
M  V30 2800 H 254.895 -3.04527 -0.781714 0
M  V30 2801 N 258.668 -1.30515 -0.883378 0
M  V30 2802 C 259.615 -1.17032 -1.98927 0
M  V30 2803 C 260.585 -0.0594241 -1.65994 0
M  V30 2804 O 261.77 -0.229895 -1.8941 0
M  V30 2805 C 258.91 -0.869777 -3.33959 0
M  V30 2806 C 258.023 -2.06271 -3.79574 0
M  V30 2807 C 257.158 -1.70011 -5.03259 0
M  V30 2808 C 256.197 -2.8579 -5.41286 0
M  V30 2809 N 255.334 -2.49816 -6.56153 0
M  V30 2810 H 260.174 -2.1164 -2.09792 0
M  V30 2811 H 257.711 -1.05296 -1.02719 0
M  V30 2812 H 259.669 -0.676138 -4.11685 0
M  V30 2813 H 258.299 0.0394332 -3.22776 0
M  V30 2814 H 257.351 -2.36755 -2.97744 0
M  V30 2815 H 258.663 -2.92971 -4.03694 0
M  V30 2816 H 257.817 -1.47032 -5.88614 0
M  V30 2817 H 256.556 -0.804829 -4.81013 0
M  V30 2818 H 255.561 -3.09434 -4.54456 0
M  V30 2819 H 256.786 -3.76008 -5.65504 0
M  V30 2820 H 254.732 -1.62795 -6.35479 0
M  V30 2821 H 254.649 -3.30048 -6.8015 0
M  V30 2822 H 255.917 -2.30197 -7.44735 0
M  V30 2823 N 260.146 1.09593 -1.13257 0
M  V30 2824 C 261.109 2.14359 -0.811358 0
M  V30 2825 C 262.109 1.59808 0.178377 0
M  V30 2826 O 263.299 1.74132 -0.0484911 0
M  V30 2827 C 260.431 3.40269 -0.207276 0
M  V30 2828 H 261.624 2.44284 -1.73969 0
M  V30 2829 H 259.177 1.25102 -0.936973 0
M  V30 2830 H 259.912 3.15969 0.73036 0
M  V30 2831 H 259.697 3.81154 -0.919992 0
M  V30 2832 H 261.187 4.176 0.000667944 0
M  V30 2833 N 261.624 0.925811 1.2754 0
M  V30 2834 C 262.87 0.566092 1.94739 0
M  V30 2835 C 263.203 -0.890057 1.72603 0
M  V30 2836 O 262.478 -1.63467 1.05399 0
M  V30 2837 C 262.761 0.89054 3.48915 0
M  V30 2838 C 262.614 2.4003 3.80402 0
M  V30 2839 C 263.933 0.395101 4.38323 0
M  V30 2840 H 261.052 0.20714 0.707292 0
M  V30 2841 H 263.694 1.15725 1.50691 0
M  V30 2842 H 261.844 0.387452 3.86563 0
M  V30 2843 H 263.516 2.97494 3.52555 0
M  V30 2844 H 261.759 2.85028 3.2702 0
M  V30 2845 H 262.43 2.57785 4.8811 0
M  V30 2846 H 264.906 0.826241 4.07814 0
M  V30 2847 H 263.782 0.651086 5.45025 0
M  V30 2848 H 264.043 -0.704798 4.36446 0
M  V30 2849 N 263.102 -1.41638 0.69111 0
M  V30 2850 C 264.348 -2.01598 0.220519 0
M  V30 2851 C 264.681 -1.54594 -1.17535 0
M  V30 2852 O 263.956 -0.755177 -1.79241 0
M  V30 2853 C 264.239 -3.59062 0.273243 0
M  V30 2854 C 264.092 -4.16203 1.70573 0
M  V30 2855 C 265.411 -4.38546 -0.369457 0
M  V30 2856 H 262.53 -0.732468 0.0816045 0
M  V30 2857 H 265.172 -1.68445 0.878986 0
M  V30 2858 H 263.322 -3.87435 -0.287411 0
M  V30 2859 H 264.994 -3.98722 2.31989 0
M  V30 2860 H 263.237 -3.71414 2.2413 0
M  V30 2861 H 263.908 -5.25358 1.69419 0
M  V30 2862 H 266.384 -4.1596 0.107977 0
M  V30 2863 H 265.26 -5.48069 -0.302002 0
M  V30 2864 H 265.521 -4.17662 -1.44951 0
M  V30 2865 N 264.58 -0.43555 -1.51462 0
M  V30 2866 C 265.805 0.132627 -2.06976 0
M  V30 2867 C 266.23 1.35848 -1.30104 0
M  V30 2868 O 265.588 1.78112 -0.338493 0
M  V30 2869 C 265.636 0.43523 -3.57964 0
M  V30 2870 O 264.74 1.52198 -3.83288 0
M  V30 2871 H 264.081 0.00265 -0.663995 0
M  V30 2872 H 266.611 -0.616369 -1.95095 0
M  V30 2873 H 266.621 0.686206 -4.02188 0
M  V30 2874 H 265.296 -0.460739 -4.1334 0
M  V30 2875 H 263.873 1.2611 -3.50928 0
M  V30 2876 N 266.058 1.56714 -0.166846 0
M  V30 2877 C 266.988 2.20754 0.760913 0
M  V30 2878 C 267.969 1.16178 1.24244 0
M  V30 2879 O 269.154 1.44592 1.29641 0
M  V30 2880 C 266.284 2.84478 1.99223 0
M  V30 2881 C 265.238 3.95053 1.64672 0
M  V30 2882 C 264.564 4.45805 2.95232 0
M  V30 2883 C 265.864 5.14865 0.878155 0
M  V30 2884 H 267.558 2.98537 0.22713 0
M  V30 2885 H 265.104 1.43596 0.107805 0
M  V30 2886 H 267.057 3.27951 2.64624 0
M  V30 2887 H 265.781 2.04056 2.55007 0
M  V30 2888 H 264.44 3.52228 1.01641 0
M  V30 2889 H 264.088 3.62181 3.49047 0
M  V30 2890 H 263.788 5.204 2.7287 0
M  V30 2891 H 265.312 4.91962 3.6167 0
M  V30 2892 H 266.726 5.55059 1.43466 0
M  V30 2893 H 265.123 5.95348 0.753738 0
M  V30 2894 H 266.193 4.84735 -0.126377 0
M  V30 2895 N 267.536 -0.106894 1.57237 0
M  V30 2896 C 268.761 -0.830287 1.90055 0
M  V30 2897 C 269.186 -1.72064 0.75998 0
M  V30 2898 O 268.544 -1.78982 -0.288991 0
M  V30 2899 C 268.592 -1.6295 3.21683 0
M  V30 2900 O 267.696 -2.73748 3.08441 0
M  V30 2901 H 267.037 -0.228855 0.623315 0
M  V30 2902 H 269.567 -0.085658 2.04421 0
M  V30 2903 H 269.577 -2.01621 3.54701 0
M  V30 2904 H 268.252 -0.975989 4.04286 0
M  V30 2905 H 266.829 -2.38192 2.86913 0
M  V30 2906 N 269.014 -1.53014 -0.377408 0
M  V30 2907 C 269.962 -1.7927 -1.48206 0
M  V30 2908 C 270.956 -0.661195 -1.55963 0
M  V30 2909 O 272.162 -0.843908 -1.58991 0
M  V30 2910 H 268.537 -0.567425 -0.493491 0
M  V30 2911 H 270.508 -2.71753 -1.2326 0
M  V30 2912 C 269.257 -1.98894 -2.85196 0
M  V30 2913 H 268.58 -2.85395 -2.79981 0
M  V30 2914 H 270.02 -2.21249 -3.61698 0
M  V30 2915 C 268.479 -0.764691 -3.28107 0
M  V30 2916 O 269.009 0.0523226 -4.01666 0
M  V30 2917 N 267.215 -0.591493 -2.84517 0
M  V30 2918 H 266.762 -1.25749 -2.24822 0
M  V30 2919 H 266.72 0.226253 -3.13585 0
M  V30 2920 N 270.492 0.636531 -1.44174 0
M  V30 2921 C 271.74 1.39343 -1.46383 0
M  V30 2922 C 272.061 1.94766 -0.0955715 0
M  V30 2923 O 271.331 1.75452 0.871395 0
M  V30 2924 H 269.911 0.517199 -0.538994 0
M  V30 2925 H 272.573 0.74957 -1.7991 0
M  V30 2926 H 271.669 2.22746 -2.18611 0
M  V30 2927 N 271.97 1.30982 0.876444 0
M  V30 2928 C 273.216 1.20474 1.63138 0
M  V30 2929 C 273.549 -0.238096 1.92735 0
M  V30 2930 O 272.824 -1.1692 1.55435 0
M  V30 2931 C 273.107 2.04244 2.96574 0
M  V30 2932 C 272.96 3.56793 2.73896 0
M  V30 2933 C 274.279 1.88684 3.97601 0
M  V30 2934 H 271.398 0.439001 0.591985 0
M  V30 2935 H 274.04 1.60704 1.01361 0
M  V30 2936 H 272.19 1.70063 3.493 0
M  V30 2937 H 273.862 4.01077 2.27892 0
M  V30 2938 H 272.105 3.80548 2.08245 0
M  V30 2939 H 272.776 4.10706 3.68815 0
M  V30 2940 H 275.252 2.18584 3.54062 0
M  V30 2941 H 274.128 2.4961 4.88862 0
M  V30 2942 H 274.389 0.848343 4.33884 0
M  V30 2943 N 273.449 -1.08991 1.13837 0
M  V30 2944 C 274.674 -1.85551 0.926585 0
M  V30 2945 C 275.099 -1.80782 -0.519566 0
M  V30 2946 O 274.457 -1.18855 -1.36906 0
M  V30 2947 C 274.505 -3.31266 1.42462 0
M  V30 2948 O 273.609 -4.07822 0.612789 0
M  V30 2949 H 272.95 -0.575192 0.331738 0
M  V30 2950 H 275.48 -1.37604 1.51414 0
M  V30 2951 H 275.49 -3.82112 1.43019 0
M  V30 2952 H 274.165 -3.34052 2.47754 0
M  V30 2953 H 272.742 -3.66731 0.675463 0
M  V30 2954 N 274.927 -0.932562 -1.27047 0
M  V30 2955 C 276.173 -0.576412 -1.94436 0
M  V30 2956 C 276.506 0.880891 -1.73072 0
M  V30 2957 O 275.781 1.62905 -1.06264 0
M  V30 2958 C 276.064 -0.909031 -3.48437 0
M  V30 2959 C 275.917 -2.42044 -3.79123 0
M  V30 2960 C 277.236 -0.418341 -4.38107 0
M  V30 2961 H 274.355 -0.210888 -0.706184 0
M  V30 2962 H 276.997 -1.16522 -1.50075 0
M  V30 2963 H 275.147 -0.407947 -3.86352 0
M  V30 2964 H 276.819 -2.99359 -3.50973 0
M  V30 2965 H 275.062 -2.86758 -3.25503 0
M  V30 2966 H 275.733 -2.6037 -4.86736 0
M  V30 2967 H 278.209 -0.847856 -4.0737 0
M  V30 2968 H 277.085 -0.679981 -5.44672 0
M  V30 2969 H 277.346 0.681642 -4.36814 0
M  V30 2970 N 276.405 1.4127 -0.698611 0
M  V30 2971 C 277.335 2.33447 -0.049629 0
M  V30 2972 C 278.316 1.51982 0.763898 0
M  V30 2973 O 279.501 1.80509 0.716257 0
M  V30 2974 C 276.631 3.35828 0.885267 0
M  V30 2975 C 275.585 4.27627 0.178613 0
M  V30 2976 C 274.911 5.20406 1.22807 0
M  V30 2977 C 276.211 5.13459 -0.956933 0
M  V30 2978 H 277.905 2.87966 -0.81951 0
M  V30 2979 H 275.451 1.38461 -0.395538 0
M  V30 2980 H 277.404 3.9924 1.34854 0
M  V30 2981 H 276.128 2.79666 1.68685 0
M  V30 2982 H 274.787 3.65643 -0.26466 0
M  V30 2983 H 274.435 4.60558 2.02226 0
M  V30 2984 H 274.135 5.82661 0.760239 0
M  V30 2985 H 275.659 5.86695 1.69179 0
M  V30 2986 H 277.073 5.70421 -0.573805 0
M  V30 2987 H 275.47 5.8467 -1.35205 0
M  V30 2988 H 276.54 4.50443 -1.79524 0
M  V30 2989 N 277.883 0.443576 1.51229 0
M  V30 2990 C 279.111 -0.11929 2.06556 0
M  V30 2991 C 279.526 -1.35921 1.31038 0
M  V30 2992 O 278.883 -1.78675 0.371704 0
M  V30 2993 C 278.934 -0.435228 3.5887 0
M  V30 2994 O 278.655 0.755486 4.31537 0
M  V30 2995 C 280.156 -1.04808 4.30732 0
M  V30 2996 H 277.376 -0.0051584 0.67098 0
M  V30 2997 H 279.92 0.624453 1.94733 0
M  V30 2998 H 278.075 -1.12887 3.70588 0
M  V30 2999 H 278.489 0.483491 5.22267 0
M  V30 3000 H 279.963 -1.2191 5.3837 0
M  V30 3001 H 280.44 -2.03081 3.89429 0
M  V30 3002 H 281.046 -0.393637 4.23474 0
M  V30 3003 N 279.361 -1.56624 0.175154 0
M  V30 3004 C 280.586 -2.01813 -0.478137 0
M  V30 3005 C 281.011 -1.05457 -1.55757 0
M  V30 3006 O 280.369 -0.0347439 -1.81267 0
M  V30 3007 C 280.417 -3.45581 -1.02987 0
M  V30 3008 O 279.521 -3.52305 -2.14371 0
M  V30 3009 H 278.862 -0.65413 -0.114059 0
M  V30 3010 H 281.392 -2.02673 0.280173 0
M  V30 3011 H 281.402 -3.84965 -1.35151 0
M  V30 3012 H 280.077 -4.1521 -0.239556 0
M  V30 3013 H 278.654 -3.24783 -1.83222 0
M  V30 3014 N 280.839 0.0985539 -1.57292 0
M  V30 3015 C 281.786 1.11981 -2.01814 0
M  V30 3016 C 282.756 1.39999 -0.89384 0
M  V30 3017 O 283.941 1.5152 -1.15958 0
M  V30 3018 C 281.081 2.43577 -2.44467 0
M  V30 3019 C 280.194 2.2232 -3.70402 0
M  V30 3020 C 279.329 3.4729 -4.01949 0
M  V30 3021 C 278.368 3.2128 -5.21005 0
M  V30 3022 N 277.505 4.38507 -5.48321 0
M  V30 3023 H 282.345 0.733149 -2.88841 0
M  V30 3024 H 279.882 0.350482 -1.42864 0
M  V30 3025 H 281.84 3.20373 -2.6724 0
M  V30 3026 H 280.47 2.80097 -1.60455 0
M  V30 3027 H 279.522 1.36343 -3.55126 0
M  V30 3028 H 280.834 1.99089 -4.57345 0
M  V30 3029 H 279.988 4.32495 -4.25479 0
M  V30 3030 H 278.727 3.73572 -3.13521 0
M  V30 3031 H 277.732 2.34468 -4.97298 0
M  V30 3032 H 278.957 2.96348 -6.11028 0
M  V30 3033 H 276.903 4.64871 -4.62851 0
M  V30 3034 H 276.82 4.18455 -6.29628 0
M  V30 3035 H 278.088 5.24787 -5.76385 0
M  V30 3036 N 282.317 1.53212 0.369288 0
M  V30 3037 C 283.563 1.69466 1.11397 0
M  V30 3038 C 283.896 0.443257 1.89074 0
M  V30 3039 O 283.171 -0.559386 1.86282 0
M  V30 3040 C 283.454 2.9422 2.07621 0
M  V30 3041 C 283.307 4.29508 1.33577 0
M  V30 3042 C 284.626 3.14565 3.07794 0
M  V30 3043 H 281.745 0.616667 0.403597 0
M  V30 3044 H 284.387 1.85845 0.395179 0
M  V30 3045 H 282.537 2.80387 2.68916 0
M  V30 3046 H 284.209 4.55147 0.750955 0
M  V30 3047 H 282.452 4.29088 0.637618 0
M  V30 3048 H 283.123 5.12926 2.03989 0
M  V30 3049 H 285.599 3.2756 2.56601 0
M  V30 3050 H 284.475 4.03297 3.72348 0
M  V30 3051 H 284.736 2.29675 3.77759 0
M  V30 3052 N 283.795 -0.628877 1.44509 0
M  V30 3053 C 284.725 -1.75187 1.54376 0
M  V30 3054 C 285.706 -1.65411 0.396618 0
M  V30 3055 O 286.891 -1.84137 0.617031 0
M  V30 3056 C 284.021 -3.13725 1.48976 0
M  V30 3057 C 282.975 -3.38291 2.62189 0
M  V30 3058 C 282.301 -4.76883 2.41841 0
M  V30 3059 C 283.601 -3.30632 4.04326 0
M  V30 3060 H 285.295 -1.67187 2.48373 0
M  V30 3061 H 282.841 -0.802909 1.19538 0
M  V30 3062 H 284.794 -3.92064 1.54478 0
M  V30 3063 H 283.518 -3.22515 0.514961 0
M  V30 3064 H 282.177 -2.62334 2.56079 0
M  V30 3065 H 281.825 -4.82378 1.42548 0
M  V30 3066 H 281.525 -4.94278 3.17747 0
M  V30 3067 H 283.049 -5.57449 2.49165 0
M  V30 3068 H 284.463 -3.98873 4.11793 0
M  V30 3069 H 282.86 -3.59561 4.80454 0
M  V30 3070 H 283.93 -2.28404 4.27738 0
M  V30 3071 N 285.273 -1.31445 -0.869486 0
M  V30 3072 C 286.55 -1.11795 -1.60503 0
M  V30 3073 C 286.93 0.327168 -2.08549 0
M  V30 3074 O 286.278 1.32135 -1.8642 0
M  V30 3075 C 286.488 -2.13258 -2.76265 0
M  V30 3076 C 287.836 -2.45805 -3.46215 0
M  V30 3077 O 288.86 -2.11688 -2.86473 0
M  V30 3078 O 287.719 -3.04228 -4.5399 0
M  V30 3079 H 284.813 -0.430421 -0.706163 0
M  V30 3080 H 287.359 -1.42925 -0.914907 0
M  V30 3081 H 286.131 -3.10461 -2.3818 0
M  V30 3082 H 285.754 -1.83035 -3.52964 0
M  V30 3083 N 286.751 1.08385 -1.14413 0
M  V30 3084 C 287.681 2.17321 -0.854044 0
M  V30 3085 C 288.662 1.69024 0.191049 0
M  V30 3086 O 289.847 1.94141 0.0476779 0
M  V30 3087 C 286.977 3.45719 -0.330983 0
M  V30 3088 C 285.931 4.07409 -1.31155 0
M  V30 3089 C 285.257 5.30762 -0.64778 0
M  V30 3090 C 286.557 4.48665 -2.67388 0
M  V30 3091 H 288.251 2.41845 -1.76498 0
M  V30 3092 H 285.797 1.16233 -0.850051 0
M  V30 3093 H 287.75 4.21241 -0.115645 0
M  V30 3094 H 286.474 3.2075 0.615381 0
M  V30 3095 H 285.133 3.33919 -1.51306 0
M  V30 3096 H 284.781 5.02078 0.304398 0
M  V30 3097 H 284.481 5.72992 -1.30207 0
M  V30 3098 H 286.005 6.08998 -0.441972 0
M  V30 3099 H 287.419 5.15364 -2.51143 0
M  V30 3100 H 285.816 5.01814 -3.29093 0
M  V30 3101 H 286.886 3.60543 -3.24248 0
M  V30 3102 N 288.23 0.939286 1.26551 0
M  V30 3103 C 289.177 0.446088 2.26448 0
M  V30 3104 C 290.147 -0.493234 1.58608 0
M  V30 3105 O 291.332 -0.409857 1.86346 0
M  V30 3106 C 288.472 -0.284375 3.43926 0
M  V30 3107 C 287.585 0.690399 4.26448 0
M  V30 3108 C 286.72 -0.0610712 5.31165 0
M  V30 3109 C 285.759 0.905649 6.05363 0
M  V30 3110 N 284.896 0.186055 7.01853 0
M  V30 3111 H 289.736 1.30291 2.68008 0
M  V30 3112 H 287.273 0.65371 1.31776 0
M  V30 3113 H 289.231 -0.724313 4.10864 0
M  V30 3114 H 287.861 -1.10535 3.03285 0
M  V30 3115 H 286.913 1.24885 3.59316 0
M  V30 3116 H 288.225 1.42873 4.779 0
M  V30 3117 H 287.379 -0.56038 6.04106 0
M  V30 3118 H 286.118 -0.832297 4.80546 0
M  V30 3119 H 285.123 1.4161 5.3125 0
M  V30 3120 H 286.348 1.67685 6.58072 0
M  V30 3121 H 284.294 -0.566714 6.53548 0
M  V30 3122 H 284.211 0.863752 7.51049 0
M  V30 3123 H 285.479 -0.292221 7.78952 0
M  V30 3124 N 289.708 -1.40897 0.706093 0
M  V30 3125 C 290.656 -2.32572 0.0361893 0
M  V30 3126 C 291.65 -1.51532 -0.757266 0
M  V30 3127 O 292.856 -1.67396 -0.661703 0
M  V30 3128 H 289.231 -0.751966 -0.00709935 0
M  V30 3129 H 291.202 -2.86733 0.826249 0
M  V30 3130 C 289.951 -3.36418 -0.87854 0
M  V30 3131 H 289.274 -3.98836 -0.277401 0
M  V30 3132 H 290.714 -4.0308 -1.3154 0
M  V30 3133 C 289.173 -2.71141 -1.99961 0
M  V30 3134 O 289.703 -2.56735 -3.0895 0
M  V30 3135 N 287.909 -2.29671 -1.78043 0
M  V30 3136 H 287.456 -2.41588 -0.894042 0
M  V30 3137 H 287.414 -1.86332 -2.53235 0
M  V30 3138 N 291.186 -0.45159 -1.50991 0
M  V30 3139 C 292.416 0.108177 -2.06317 0
M  V30 3140 C 292.824 1.35774 -1.31765 0
M  V30 3141 O 292.167 1.79838 -0.374694 0
M  V30 3142 C 292.229 0.481659 -3.56259 0
M  V30 3143 C 291.893 -0.663114 -4.52163 0
M  V30 3144 C 292.89 -1.53947 -4.96585 0
M  V30 3145 C 290.575 -0.8479 -4.95092 0
M  V30 3146 C 292.569 -2.58518 -5.82621 0
M  V30 3147 C 290.256 -1.89686 -5.80915 0
M  V30 3148 C 291.254 -2.76388 -6.24579 0
M  V30 3149 O 290.942 -3.79482 -7.08695 0
M  V30 3150 H 290.674 0.00499183 -0.675982 0
M  V30 3151 H 293.228 -0.633659 -1.95381 0
M  V30 3152 H 291.458 1.27641 -3.65027 0
M  V30 3153 H 293.147 0.974233 -3.94035 0
M  V30 3154 H 293.913 -1.4083 -4.64103 0
M  V30 3155 H 289.792 -0.18258 -4.60638 0
M  V30 3156 H 293.336 -3.26224 -6.16623 0
M  V30 3157 H 289.233 -2.02817 -6.12809 0
M  V30 3158 H 290.001 -3.76234 -7.26905 0
M  V30 3159 N 292.664 1.56529 -0.183458 0
M  V30 3160 C 293.913 1.96419 0.458511 0
M  V30 3161 C 294.226 1.0727 1.63562 0
M  V30 3162 O 295.432 1.36893 2.34462 0
M  V30 3163 C 293.888 3.49298 0.867122 0
M  V30 3164 C 293.496 4.47092 -0.285057 0
M  V30 3165 C 295.24 3.97983 1.47683 0
M  V30 3166 C 293.147 5.91225 0.143862 0
M  V30 3167 H 292.077 0.733394 0.175071 0
M  V30 3168 H 294.728 1.81448 -0.273624 0
M  V30 3169 H 293.11 3.59731 1.65559 0
M  V30 3170 H 294.284 4.48383 -1.0625 0
M  V30 3171 H 292.599 4.08535 -0.805503 0
M  V30 3172 H 295.196 5.03134 1.80999 0
M  V30 3173 H 295.539 3.41618 2.37914 0
M  V30 3174 H 296.072 3.90617 0.752562 0
M  V30 3175 H 292.811 6.5149 -0.723974 0
M  V30 3176 H 292.331 5.93214 0.886413 0
M  V30 3177 H 294.01 6.44362 0.583628 0
M  V30 3178 N 294.142 -0.090211 1.57342 0
M  V30 3179 C 295.09 -1.12792 2.03422 0
M  V30 3180 C 296.084 -1.41182 0.936166 0
M  V30 3181 O 297.29 -1.40805 1.12133 0
M  V30 3182 H 293.665 -0.380986 0.648347 0
M  V30 3183 H 295.636 -0.71299 2.89757 0
M  V30 3184 C 294.385 -2.43855 2.47851 0
M  V30 3185 H 293.708 -2.22855 3.31927 0
M  V30 3186 H 295.148 -3.14955 2.83865 0
M  V30 3187 C 293.607 -3.08503 1.3538 0
M  V30 3188 O 294.137 -3.95805 0.685641 0
M  V30 3189 N 292.343 -2.68831 1.10355 0
M  V30 3190 H 291.89 -1.97929 1.64869 0
M  V30 3191 H 291.848 -3.12412 0.353031 0
M  V30 3192 N 295.62 -1.53406 -0.361157 0
M  V30 3193 C 296.568 -1.80832 -1.46296 0
M  V30 3194 C 297.562 -0.677699 -1.55253 0
M  V30 3195 O 298.768 -0.860723 -1.58087 0
M  V30 3196 H 295.143 -0.572627 -0.487445 0
M  V30 3197 H 297.114 -2.73045 -1.20371 0
M  V30 3198 C 295.863 -2.01907 -2.8307 0
M  V30 3199 H 295.186 -2.88349 -2.76938 0
M  V30 3200 H 296.626 -2.25072 -3.59331 0
M  V30 3201 C 295.085 -0.799449 -3.27277 0
M  V30 3202 O 295.615 0.00971761 -4.01699 0
M  V30 3203 N 293.821 -0.621637 -2.83873 0
M  V30 3204 H 293.368 -1.28126 -2.23476 0
M  V30 3205 H 293.326 0.19298 -3.13807 0
M  V30 3206 N 297.098 0.621204 -1.44841 0
M  V30 3207 C 298.514 0.94048 -1.28946 0
M  V30 3208 C 298.714 2.00154 -0.23249 0
M  V30 3209 O 297.77 2.49651 0.378237 0
M  V30 3210 C 299.083 1.39433 -2.66419 0
M  V30 3211 C 300.631 1.50927 -2.74208 0
M  V30 3212 C 301.106 1.99692 -4.12174 0
M  V30 3213 N 302.597 2.06947 -4.144 0
M  V30 3214 C 303.332 2.45871 -5.1801 0
M  V30 3215 N 302.828 2.83862 -6.31977 0
M  V30 3216 N 304.621 2.46092 -5.05366 0
M  V30 3217 H 296.772 -0.0803548 -2.12248 0
M  V30 3218 H 299.035 0.0266913 -0.947624 0
M  V30 3219 H 298.741 0.688925 -3.44887 0
M  V30 3220 H 298.615 2.36347 -2.93973 0
M  V30 3221 H 301.002 2.20561 -1.96053 0
M  V30 3222 H 301.083 0.523627 -2.50383 0
M  V30 3223 H 300.727 1.30649 -4.90809 0
M  V30 3224 H 300.657 2.99146 -4.33381 0
M  V30 3225 H 303.148 1.80232 -3.32152 0
M  V30 3226 H 303.461 3.12405 -7.0684 0
M  V30 3227 H 301.806 2.8159 -6.35399 0
M  V30 3228 H 304.997 2.1581 -4.15384 0
M  V30 3229 H 305.17 2.76102 -5.86235 0
M  V30 3230 N 298.576 1.31904 0.862503 0
M  V30 3231 C 299.506 1.22782 1.98612 0
M  V30 3232 C 300.487 0.113362 1.69722 0
M  V30 3233 O 301.672 0.299218 1.91881 0
M  V30 3234 C 298.802 0.942058 3.34279 0
M  V30 3235 C 297.756 2.0169 3.77499 0
M  V30 3236 C 297.082 1.58369 5.10709 0
M  V30 3237 C 298.382 3.43096 3.93805 0
M  V30 3238 H 300.076 2.16788 2.06502 0
M  V30 3239 H 297.622 1.04366 0.992154 0
M  V30 3240 H 299.575 0.864818 4.1243 0
M  V30 3241 H 298.299 -0.0336603 3.26583 0
M  V30 3242 H 296.958 2.08416 3.01593 0
M  V30 3243 H 296.606 0.595628 4.99461 0
M  V30 3244 H 296.306 2.30279 5.40597 0
M  V30 3245 H 297.83 1.52067 5.91361 0
M  V30 3246 H 299.244 3.39003 4.62331 0
M  V30 3247 H 297.641 4.13288 4.35101 0
M  V30 3248 H 298.711 3.83334 2.96957 0
M  V30 3249 N 300.054 -1.07777 1.14986 0
M  V30 3250 C 300.984 -2.16865 0.865557 0
M  V30 3251 C 301.965 -1.69123 -0.182083 0
M  V30 3252 O 303.15 -1.94164 -0.0373815 0
M  V30 3253 C 300.28 -3.45539 0.349313 0
M  V30 3254 C 299.234 -4.06708 1.33313 0
M  V30 3255 C 298.56 -5.30411 0.675918 0
M  V30 3256 C 299.86 -4.47241 2.69764 0
M  V30 3257 H 301.554 -2.40905 1.77778 0
M  V30 3258 H 299.1 -1.15781 0.856203 0
M  V30 3259 H 301.053 -4.21174 0.137983 0
M  V30 3260 H 299.777 -3.21072 -0.598362 0
M  V30 3261 H 298.436 -3.33112 1.53075 0
M  V30 3262 H 298.084 -5.02232 -0.277767 0
M  V30 3263 H 297.784 -5.72293 1.33244 0
M  V30 3264 H 299.308 -6.08755 0.474262 0
M  V30 3265 H 300.722 -5.14025 2.53873 0
M  V30 3266 H 299.119 -5.00062 3.3175 0
M  V30 3267 H 300.189 -3.58818 3.26156 0
M  V30 3268 N 301.532 -0.945985 -1.26051 0
M  V30 3269 C 302.943 -0.638096 -1.75457 0
M  V30 3270 C 303.294 0.846672 -1.76991 0
M  V30 3271 O 302.419 1.66262 -1.38513 0
M  V30 3272 C 303.014 -1.15157 -3.18629 0
M  V30 3273 C 301.573 -0.894004 -3.65629 0
M  V30 3274 C 300.72 -1.29967 -2.44957 0
M  V30 3275 H 303.671 -1.12376 -1.1206 0
M  V30 3276 H 303.692 -0.507615 -3.77099 0
M  V30 3277 H 303.204 -2.23222 -3.1748 0
M  V30 3278 H 301.305 0.172057 -3.72203 0
M  V30 3279 H 301.418 -1.52439 -4.54202 0
M  V30 3280 H 299.782 -0.718078 -2.44368 0
M  V30 3281 H 300.565 -2.38935 -2.46505 0
M  V30 3282 N 303.011 1.40521 -0.713556 0
M  V30 3283 C 304.26 2.00155 -0.249192 0
M  V30 3284 C 304.573 1.57224 1.16362 0
M  V30 3285 O 305.779 2.09542 1.72639 0
M  V30 3286 C 304.235 3.5773 -0.3946 0
M  V30 3287 C 303.843 4.09635 -1.81392 0
M  V30 3288 C 305.587 4.24499 0.00907364 0
M  V30 3289 C 303.494 5.59707 -1.91003 0
M  V30 3290 H 302.424 0.74868 -0.0894114 0
M  V30 3291 H 305.075 1.60784 -0.884352 0
M  V30 3292 H 303.457 3.94792 0.30911 0
M  V30 3293 H 304.631 3.83955 -2.54785 0
M  V30 3294 H 302.946 3.55456 -2.16888 0
M  V30 3295 H 305.543 5.34683 -0.0420404 0
M  V30 3296 H 305.886 4.02824 1.05065 0
M  V30 3297 H 306.419 3.92536 -0.645007 0
M  V30 3298 H 303.158 5.86234 -2.93275 0
M  V30 3299 H 302.678 5.87258 -1.22019 0
M  V30 3300 H 304.357 6.24776 -1.6812 0
M  V30 3301 N 304.489 0.459591 1.5075 0
M  V30 3302 C 305.735 -0.0994966 2.02556 0
M  V30 3303 C 306.068 -1.40399 1.3417 0
M  V30 3304 O 305.343 -1.88892 0.463683 0
M  V30 3305 C 305.626 -0.295242 3.58888 0
M  V30 3306 C 305.479 1.02947 4.37861 0
M  V30 3307 C 306.798 -1.05502 4.27267 0
M  V30 3308 H 303.917 -0.034686 0.736183 0
M  V30 3309 H 306.559 0.602938 1.8018 0
M  V30 3310 H 304.709 -0.893563 3.78084 0
M  V30 3311 H 306.381 1.66348 4.30263 0
M  V30 3312 H 304.624 1.62885 4.02058 0
M  V30 3313 H 305.295 0.846281 5.45474 0
M  V30 3314 H 307.771 -0.547993 4.12476 0
M  V30 3315 H 306.647 -1.16077 5.36486 0
M  V30 3316 H 306.908 -2.08875 3.89645 0
M  V30 3317 N 305.967 -1.56429 0.191757 0
M  V30 3318 C 306.915 -2.20273 -0.747174 0
M  V30 3319 C 307.909 -1.17288 -1.22229 0
M  V30 3320 O 309.115 -1.35441 -1.18557 0
M  V30 3321 H 305.49 -0.705885 -0.259289 0
M  V30 3322 H 307.461 -2.97826 -0.184963 0
M  V30 3323 C 306.21 -2.87356 -1.95759 0
M  V30 3324 H 305.533 -3.66341 -1.60106 0
M  V30 3325 H 306.973 -3.3547 -2.59299 0
M  V30 3326 C 305.432 -1.88213 -2.79423 0
M  V30 3327 O 305.962 -1.38033 -3.7724 0
M  V30 3328 N 304.168 -1.56516 -2.44849 0
M  V30 3329 H 303.715 -1.97516 -1.65364 0
M  V30 3330 H 303.673 -0.904369 -3.01112 0
M  V30 3331 N 307.445 0.0818655 -1.57387 0
M  V30 3332 C 308.377 1.12484 -1.997 0
M  V30 3333 C 309.39 1.35564 -0.90146 0
M  V30 3334 O 310.579 1.33982 -1.17945 0
M  V30 3335 C 307.679 2.47778 -2.31213 0
M  V30 3336 C 306.852 2.44793 -3.62485 0
M  V30 3337 C 305.911 3.62117 -3.81782 0
M  V30 3338 O 304.937 3.44005 -4.53486 0
M  V30 3339 N 306.139 4.82094 -3.23367 0
M  V30 3340 H 308.904 0.764585 -2.89783 0
M  V30 3341 H 306.465 0.270664 -1.59621 0
M  V30 3342 H 308.457 3.24891 -2.41304 0
M  V30 3343 H 307.027 2.75843 -1.4707 0
M  V30 3344 H 306.247 1.53134 -3.6324 0
M  V30 3345 H 307.535 2.39889 -4.48699 0
M  V30 3346 H 306.933 4.99713 -2.65148 0
M  V30 3347 H 305.49 5.56753 -3.38923 0
M  V30 3348 N 308.923 1.53595 0.353017 0
M  V30 3349 C 309.855 1.77219 1.45348 0
M  V30 3350 C 310.868 0.65324 1.49119 0
M  V30 3351 O 312.057 0.929775 1.52373 0
M  V30 3352 C 309.157 1.84841 2.84055 0
M  V30 3353 C 308.33 3.14649 3.03833 0
M  V30 3354 C 307.389 3.13351 4.22727 0
M  V30 3355 O 306.415 3.87107 4.17297 0
M  V30 3356 N 307.617 2.35052 5.30783 0
M  V30 3357 H 310.382 2.72178 1.25457 0
M  V30 3358 H 307.943 1.52528 0.542833 0
M  V30 3359 H 309.935 1.81435 3.61751 0
M  V30 3360 H 308.505 0.971114 2.97133 0
M  V30 3361 H 307.725 3.31256 2.13689 0
M  V30 3362 H 309.013 4.00411 3.13925 0
M  V30 3363 H 308.411 1.74663 5.38061 0
M  V30 3364 H 306.968 2.37453 6.07009 0
M  V30 3365 N 310.401 -0.613514 1.45168 0
M  V30 3366 C 311.626 -1.40437 1.52618 0
M  V30 3367 C 312.051 -1.87438 0.157707 0
M  V30 3368 O 311.409 -1.59791 -0.856537 0
M  V30 3369 C 311.457 -2.58894 2.51011 0
M  V30 3370 O 310.561 -3.59326 2.02382 0
M  V30 3371 H 309.902 -0.419506 0.514695 0
M  V30 3372 H 312.432 -0.747215 1.90467 0
M  V30 3373 H 312.442 -3.06214 2.69624 0
M  V30 3374 H 311.117 -2.24032 3.50403 0
M  V30 3375 H 309.694 -3.18695 1.93618 0
M  V30 3376 N 311.879 -1.3236 -0.855495 0
M  V30 3377 C 313.119 -1.24187 -1.62348 0
M  V30 3378 C 313.483 0.193597 -1.91021 0
M  V30 3379 O 314.684 0.39904 -2.65822 0
M  V30 3380 C 312.955 -2.07661 -2.90881 0
M  V30 3381 S 314.514 -2.16505 -3.81669 0
M  V30 3382 H 311.332 -0.442076 -0.556857 0
M  V30 3383 H 313.934 -1.67198 -1.01317 0
M  V30 3384 H 312.638 -3.11018 -2.67761 0
M  V30 3385 H 312.169 -1.65425 -3.56929 0
M  V30 3386 H 314.184 -1.31394 -4.78487 0
M  V30 3387 N 313.357 1.07166 -1.15556 0
M  V30 3388 C 314.773 1.31899 -0.898603 0
M  V30 3389 C 314.973 1.96333 0.453383 0
M  V30 3390 O 314.029 2.22438 1.19489 0
M  V30 3391 C 315.342 2.20826 -2.04099 0
M  V30 3392 C 316.89 2.34269 -2.07574 0
M  V30 3393 C 317.365 3.26546 -3.21141 0
M  V30 3394 N 318.856 3.34127 -3.20801 0
M  V30 3395 C 319.591 4.05595 -4.05315 0
M  V30 3396 N 319.087 4.79661 -4.99897 0
M  V30 3397 N 320.88 4.01555 -3.93332 0
M  V30 3398 H 313.031 0.637302 -2.02613 0
M  V30 3399 H 315.294 0.343468 -0.883591 0
M  V30 3400 H 315 1.80744 -3.01703 0
M  V30 3401 H 314.874 3.21364 -1.97496 0
M  V30 3402 H 317.261 2.73603 -1.10568 0
M  V30 3403 H 317.342 1.33429 -2.18244 0
M  V30 3404 H 316.986 2.87931 -4.184 0
M  V30 3405 H 316.916 4.27345 -3.07708 0
M  V30 3406 H 319.407 2.81336 -2.52306 0
M  V30 3407 H 319.72 5.31694 -5.60822 0
M  V30 3408 H 318.065 4.78671 -5.03884 0
M  V30 3409 H 321.256 3.42806 -3.18751 0
M  V30 3410 H 321.429 4.56987 -4.5942 0
M  V30 3411 N 314.835 0.952656 1.25548 0
M  V30 3412 C 316.084 0.602053 1.92505 0
M  V30 3413 C 316.397 -0.864663 1.75451 0
M  V30 3414 O 317.603 -1.32514 2.36965 0
M  V30 3415 C 316.059 1.02607 3.44963 0
M  V30 3416 C 315.667 2.51519 3.70732 0
M  V30 3417 C 317.411 0.747905 4.1786 0
M  V30 3418 C 315.318 2.87732 5.16686 0
M  V30 3419 H 314.248 0.22146 0.720744 0
M  V30 3420 H 316.899 1.15684 1.42441 0
M  V30 3421 H 315.281 0.399712 3.93978 0
M  V30 3422 H 316.455 3.19157 3.32378 0
M  V30 3423 H 314.77 2.76786 3.11092 0
M  V30 3424 H 317.367 0.994647 5.25367 0
M  V30 3425 H 317.71 -0.315629 4.15102 0
M  V30 3426 H 318.243 1.33452 3.74747 0
M  V30 3427 H 314.982 3.93095 5.24554 0
M  V30 3428 H 314.502 2.24765 5.56094 0
M  V30 3429 H 316.181 2.76817 5.84792 0
M  V30 3430 N 316.313 -1.40141 0.720998 0
M  V30 3431 C 317.538 -2.05618 0.271258 0
M  V30 3432 C 317.963 -1.53978 -1.08039 0
M  V30 3433 O 317.321 -0.677463 -1.68167 0
M  V30 3434 C 317.369 -3.59609 0.267197 0
M  V30 3435 O 316.473 -4.05526 -0.749814 0
M  V30 3436 H 315.814 -0.651904 0.126162 0
M  V30 3437 H 318.344 -1.79439 0.982997 0
M  V30 3438 H 318.354 -4.0786 0.106744 0
M  V30 3439 H 317.029 -3.96559 1.25354 0
M  V30 3440 H 315.606 -3.68722 -0.556644 0
M  V30 3441 N 317.792 -0.46758 -1.50504 0
M  V30 3442 C 318.74 0.342482 -2.30065 0
M  V30 3443 C 319.734 0.993596 -1.37201 0
M  V30 3444 O 320.94 0.925102 -1.54408 0
M  V30 3445 H 317.315 0.129283 -0.740803 0
M  V30 3446 H 319.286 -0.34899 -2.96352 0
M  V30 3447 C 318.035 1.4139 -3.17654 0
M  V30 3448 H 317.358 0.922264 -3.89017 0
M  V30 3449 H 318.798 1.95335 -3.76325 0
M  V30 3450 C 317.257 2.4139 -2.35016 0
M  V30 3451 O 317.787 3.46586 -2.03079 0
M  V30 3452 N 315.993 2.13021 -1.97662 0
M  V30 3453 H 315.54 1.27499 -2.23834 0
M  V30 3454 H 315.498 2.80164 -1.42673 0
M  V30 3455 N 319.27 1.56325 -0.20005 0
M  V30 3456 C 320.519 1.96895 0.437652 0
M  V30 3457 C 320.832 1.08999 1.62415 0
M  V30 3458 O 322.038 1.39372 2.32997 0
M  V30 3459 C 320.494 3.50198 0.830025 0
M  V30 3460 C 320.102 4.46765 -0.332461 0
M  V30 3461 C 321.846 3.99526 1.43453 0
M  V30 3462 C 319.753 5.91344 0.0811468 0
M  V30 3463 H 318.683 0.735209 0.167282 0
M  V30 3464 H 321.334 1.81148 -0.292853 0
M  V30 3465 H 319.716 3.61467 1.61734 0
M  V30 3466 H 320.89 4.47231 -1.11 0
M  V30 3467 H 319.205 4.07657 -0.848789 0
M  V30 3468 H 321.802 5.05025 1.75652 0
M  V30 3469 H 322.145 3.44122 2.34277 0
M  V30 3470 H 322.678 3.91393 0.71109 0
M  V30 3471 H 319.417 6.50685 -0.793033 0
M  V30 3472 H 318.937 5.94121 0.823445 0
M  V30 3473 H 320.616 6.44945 0.515252 0
M  V30 3474 N 320.748 -0.0735177 1.57428 0
M  V30 3475 C 321.658 -1.10547 2.06922 0
M  V30 3476 C 322.674 -1.42506 0.998402 0
M  V30 3477 O 323.85 -1.52717 1.31299 0
M  V30 3478 C 320.915 -2.40019 2.50184 0
M  V30 3479 C 319.976 -2.15046 3.71556 0
M  V30 3480 C 319.209 -3.38345 4.12745 0
M  V30 3481 O 319.432 -4.47399 3.53822 0
M  V30 3482 O 318.366 -3.2666 5.05546 0
M  V30 3483 H 322.192 -0.715013 2.95163 0
M  V30 3484 H 319.777 -0.287531 1.46607 0
M  V30 3485 H 321.659 -3.16218 2.78539 0
M  V30 3486 H 320.334 -2.78447 1.65072 0
M  V30 3487 H 319.241 -1.36558 3.48285 0
M  V30 3488 H 320.574 -1.81499 4.57514 0
M  V30 3489 N 322.226 -1.5378 -0.344866 0
M  V30 3490 C 323.454 -1.74899 -1.10534 0
M  V30 3491 C 323.869 -0.487534 -1.82397 0
M  V30 3492 O 323.226 0.540741 -1.74305 0
M  V30 3493 C 323.277 -2.92822 -2.11984 0
M  V30 3494 O 322.998 -4.14089 -1.43044 0
M  V30 3495 C 324.499 -3.25982 -3.00417 0
M  V30 3496 H 321.719 -0.584426 -0.329678 0
M  V30 3497 H 324.263 -2.006 -0.397474 0
M  V30 3498 H 322.418 -2.69457 -2.78338 0
M  V30 3499 H 322.832 -4.80272 -2.10805 0
M  V30 3500 H 324.306 -4.11848 -3.67539 0
M  V30 3501 H 324.783 -2.42228 -3.66363 0
M  V30 3502 H 325.389 -3.51349 -2.39654 0
M  V30 3503 N 323.704 0.605807 -1.45491 0
M  V30 3504 C 324.95 1.36679 -1.49823 0
M  V30 3505 C 325.283 1.93693 -0.140175 0
M  V30 3506 O 324.558 1.75158 0.845581 0
M  V30 3507 C 324.841 2.51337 -2.57879 0
M  V30 3508 C 324.694 1.99508 -4.03134 0
M  V30 3509 C 326.013 3.53463 -2.62205 0
M  V30 3510 H 323.132 0.495617 -0.545466 0
M  V30 3511 H 325.774 0.682732 -1.7731 0
M  V30 3512 H 323.924 3.09691 -2.34571 0
M  V30 3513 H 325.596 1.45789 -4.37656 0
M  V30 3514 H 323.839 1.30496 -4.13707 0
M  V30 3515 H 324.51 2.82169 -4.74431 0
M  V30 3516 H 326.986 3.04953 -2.83095 0
M  V30 3517 H 325.862 4.31178 -3.39672 0
M  V30 3518 H 326.123 4.09197 -1.67363 0
M  V30 3519 N 325.182 1.32811 0.848464 0
M  V30 3520 C 326.431 1.23075 1.59798 0
M  V30 3521 C 326.744 -0.204419 1.94529 0
M  V30 3522 O 327.95 -0.423701 2.68173 0
M  V30 3523 C 326.406 2.15594 2.88179 0
M  V30 3524 C 326.014 3.64228 2.60849 0
M  V30 3525 C 327.758 2.14709 3.66197 0
M  V30 3526 C 325.665 4.48689 3.85269 0
M  V30 3527 H 324.595 0.457091 0.599653 0
M  V30 3528 H 327.246 1.57813 0.936342 0
M  V30 3529 H 325.628 1.73778 3.55833 0
M  V30 3530 H 326.802 4.14424 2.01467 0
M  V30 3531 H 325.117 3.67306 1.96151 0
M  V30 3532 H 327.714 2.75046 4.58534 0
M  V30 3533 H 328.057 1.13966 4.00397 0
M  V30 3534 H 328.59 2.54837 3.05455 0
M  V30 3535 H 325.329 5.5027 3.56207 0
M  V30 3536 H 324.849 4.03241 4.44024 0
M  V30 3537 H 326.528 4.62006 4.52946 0
M  V30 3538 N 326.66 -1.06551 1.16123 0
M  V30 3539 C 327.57 -2.17484 0.879662 0
M  V30 3540 C 328.586 -1.73377 -0.147104 0
M  V30 3541 O 329.762 -2.01379 0.0289128 0
M  V30 3542 C 326.827 -3.44591 0.381829 0
M  V30 3543 C 325.888 -4.0322 1.4735 0
M  V30 3544 C 325.121 -5.24261 0.999324 0
M  V30 3545 O 325.344 -5.70198 -0.151957 0
M  V30 3546 O 324.278 -5.74775 1.78653 0
M  V30 3547 H 328.104 -2.44075 1.80724 0
M  V30 3548 H 325.689 -1.16042 0.940992 0
M  V30 3549 H 327.571 -4.21254 0.111053 0
M  V30 3550 H 326.246 -3.19532 -0.51777 0
M  V30 3551 H 325.153 -3.2806 1.79798 0
M  V30 3552 H 326.486 -4.32568 2.34831 0
M  V30 3553 N 328.138 -0.959301 -1.25041 0
M  V30 3554 C 329.385 -0.616611 -1.92884 0
M  V30 3555 C 329.713 0.847036 -1.75087 0
M  V30 3556 O 328.968 1.62374 -1.09239 0
M  V30 3557 C 329.267 -0.927136 -3.45165 0
M  V30 3558 C 328.933 -2.37757 -3.83122 0
M  V30 3559 C 327.595 -2.77402 -3.93194 0
M  V30 3560 C 329.947 -3.31929 -4.01836 0
M  V30 3561 C 327.275 -4.10277 -4.19392 0
M  V30 3562 C 329.627 -4.64423 -4.29528 0
M  V30 3563 C 328.291 -5.03857 -4.37818 0
M  V30 3564 H 327.561 -0.225634 -0.705812 0
M  V30 3565 H 330.208 -1.20921 -1.48493 0
M  V30 3566 H 328.513 -0.252195 -3.90987 0
M  V30 3567 H 330.21 -0.6405 -3.95852 0
M  V30 3568 H 326.8 -2.06013 -3.75841 0
M  V30 3569 H 330.984 -3.02488 -3.93465 0
M  V30 3570 H 326.24 -4.40467 -4.24027 0
M  V30 3571 H 330.414 -5.37369 -4.42953 0
M  V30 3572 H 328.041 -6.06843 -4.57871 0
M  V30 3573 N 329.616 1.39756 -0.72842 0
M  V30 3574 C 330.548 2.29157 -0.0446202 0
M  V30 3575 C 331.561 1.46484 0.710367 0
M  V30 3576 O 332.75 1.69632 0.55562 0
M  V30 3577 C 329.85 3.24987 0.961071 0
M  V30 3578 C 329.023 4.36572 0.268967 0
M  V30 3579 C 328.082 5.12756 1.18184 0
M  V30 3580 O 327.108 5.6534 0.661794 0
M  V30 3581 N 328.31 5.23331 2.51206 0
M  V30 3582 H 331.075 2.88482 -0.812295 0
M  V30 3583 H 328.636 1.51265 -0.577098 0
M  V30 3584 H 330.628 3.72827 1.57423 0
M  V30 3585 H 329.198 2.66739 1.63 0
M  V30 3586 H 328.418 3.90694 -0.524574 0
M  V30 3587 H 329.706 5.08363 -0.210934 0
M  V30 3588 H 329.104 4.82116 2.9594 0
M  V30 3589 H 327.661 5.74634 3.07634 0
M  V30 3590 N 331.094 0.475555 1.50254 0
M  V30 3591 C 332.026 -0.352649 2.26471 0
M  V30 3592 C 333.039 -0.953165 1.3198 0
M  V30 3593 O 334.228 -0.840815 1.57457 0
M  V30 3594 C 331.328 -1.50902 3.0345 0
M  V30 3595 C 330.501 -1.02047 4.25329 0
M  V30 3596 C 329.56 -2.05142 4.84565 0
M  V30 3597 O 328.586 -1.63023 5.45355 0
M  V30 3598 N 329.788 -3.37987 4.71959 0
M  V30 3599 H 332.553 0.300767 2.98187 0
M  V30 3600 H 330.114 0.306598 1.5897 0
M  V30 3601 H 332.106 -2.19572 3.39956 0
M  V30 3602 H 330.676 -2.06705 2.34504 0
M  V30 3603 H 329.896 -0.159507 3.93877 0
M  V30 3604 H 331.184 -0.672061 5.04342 0
M  V30 3605 H 330.582 -3.74913 4.23623 0
M  V30 3606 H 329.139 -4.02443 5.12721 0
M  V30 3607 N 332.573 -1.56217 0.208337 0
M  V30 3608 C 333.506 -2.15633 -0.746842 0
M  V30 3609 C 334.484 -1.09685 -1.20034 0
M  V30 3610 O 335.668 -1.3787 -1.28547 0
M  V30 3611 C 332.795 -2.72594 -2.01023 0
M  V30 3612 C 331.841 -3.91251 -1.69779 0
M  V30 3613 S 332.674 -5.28962 -0.834209 0
M  V30 3614 C 333.83 -5.89353 -2.10745 0
M  V30 3615 H 334.063 -2.96315 -0.241789 0
M  V30 3616 H 331.596 -1.54398 -0.00682183 0
M  V30 3617 H 333.554 -3.06053 -2.73572 0
M  V30 3618 H 332.215 -1.91929 -2.48641 0
M  V30 3619 H 331.408 -4.29562 -2.63614 0
M  V30 3620 H 331.01 -3.58869 -1.05303 0
M  V30 3621 H 333.302 -6.04522 -3.05875 0
M  V30 3622 H 334.245 -6.85661 -1.76845 0
M  V30 3623 H 334.653 -5.1807 -2.24196 0
M  V30 3624 N 334.051 0.0651679 -1.57465 0
M  V30 3625 C 334.999 1.09542 -2.05191 0
M  V30 3626 C 335.993 1.39675 -0.958509 0
M  V30 3627 O 337.199 1.39003 -1.14359 0
M  V30 3628 H 333.574 0.370623 -0.654326 0
M  V30 3629 H 335.545 0.666802 -2.90854 0
M  V30 3630 C 334.294 2.39881 -2.51699 0
M  V30 3631 H 333.617 2.17547 -3.3543 0
M  V30 3632 H 335.057 3.104 -2.88839 0
M  V30 3633 C 333.516 3.0631 -1.40271 0
M  V30 3634 O 334.046 3.94664 -0.748523 0
M  V30 3635 N 332.252 2.67041 -1.14618 0
M  V30 3636 H 331.799 1.95281 -1.67997 0
M  V30 3637 H 331.757 3.1181 -0.402688 0
M  V30 3638 N 335.529 1.53961 0.336706 0
M  V30 3639 C 336.754 1.75797 1.10046 0
M  V30 3640 C 337.179 0.498985 1.81361 0
M  V30 3641 O 336.537 -0.548769 1.72795 0
M  V30 3642 C 336.585 2.94257 2.08436 0
M  V30 3643 O 335.689 2.64883 3.16087 0
M  V30 3644 H 335.03 0.582936 0.317934 0
M  V30 3645 H 337.56 2.00945 0.38501 0
M  V30 3646 H 337.57 3.21237 2.51537 0
M  V30 3647 H 336.245 3.85564 1.55927 0
M  V30 3648 H 334.822 2.48812 2.77753 0
M  V30 3649 N 337.007 -0.598083 1.45811 0
M  V30 3650 C 338.423 -0.919847 1.30426 0
M  V30 3651 C 338.623 -1.99759 0.264303 0
M  V30 3652 O 337.679 -2.50221 -0.338472 0
M  V30 3653 C 338.992 -1.35176 2.68603 0
M  V30 3654 C 340.54 -1.46546 2.76574 0
M  V30 3655 C 341.015 -1.9311 4.15298 0
M  V30 3656 N 342.506 -2.00328 4.1764 0
M  V30 3657 C 343.241 -2.37599 5.21856 0
M  V30 3658 N 342.737 -2.73771 6.36413 0
M  V30 3659 N 344.53 -2.38021 5.09218 0
M  V30 3660 H 336.681 0.114111 2.12093 0
M  V30 3661 H 338.944 -0.0116121 0.947929 0
M  V30 3662 H 338.65 -0.633969 3.45939 0
M  V30 3663 H 338.524 -2.3164 2.97696 0
M  V30 3664 H 340.911 -2.17415 1.99537 0
M  V30 3665 H 340.992 -0.483727 2.51185 0
M  V30 3666 H 340.636 -1.22824 4.92825 0
M  V30 3667 H 340.566 -2.92213 4.38086 0
M  V30 3668 H 343.057 -1.74925 3.34977 0
M  V30 3669 H 343.37 -3.0112 7.11721 0
M  V30 3670 H 341.715 -2.71445 6.39799 0
M  V30 3671 H 344.906 -2.09174 4.18765 0
M  V30 3672 H 345.079 -2.66741 5.90554 0
M  V30 3673 N 338.485 -1.33259 -0.841409 0
M  V30 3674 C 339.415 -1.25926 -1.96634 0
M  V30 3675 C 340.396 -0.140349 -1.6952 0
M  V30 3676 O 341.581 -0.329707 -1.91381 0
M  V30 3677 C 338.711 -0.99512 -3.32738 0
M  V30 3678 C 337.665 -2.0767 -3.74242 0
M  V30 3679 C 336.991 -1.66474 -5.08125 0
M  V30 3680 C 338.291 -3.49318 -3.88297 0
M  V30 3681 H 339.985 -2.20046 -2.03027 0
M  V30 3682 H 337.531 -1.05931 -0.975425 0
M  V30 3683 H 339.484 -0.930323 -4.11002 0
M  V30 3684 H 338.208 -0.0183004 -3.26595 0
M  V30 3685 H 336.867 -2.13187 -2.98239 0
M  V30 3686 H 336.515 -0.675012 -4.9845 0
M  V30 3687 H 336.215 -2.3885 -5.36865 0
M  V30 3688 H 337.739 -1.61455 -5.88867 0
M  V30 3689 H 339.153 -3.46316 -4.56879 0
M  V30 3690 H 337.55 -4.20158 -4.28471 0
M  V30 3691 H 338.62 -3.8801 -2.9082 0
M  V30 3692 N 339.963 1.05934 -1.16686 0
M  V30 3693 C 340.893 2.1546 -0.899949 0
M  V30 3694 C 341.874 1.69391 0.155154 0
M  V30 3695 O 343.059 1.94199 0.00648693 0
M  V30 3696 C 340.189 3.44939 -0.404241 0
M  V30 3697 C 339.143 4.04536 -1.39767 0
M  V30 3698 C 338.469 5.29268 -0.760216 0
M  V30 3699 C 339.769 4.42893 -2.76845 0
M  V30 3700 H 341.463 2.38046 -1.81588 0
M  V30 3701 H 339.009 1.14404 -0.874514 0
M  V30 3702 H 340.962 4.20901 -0.204971 0
M  V30 3703 H 339.686 3.21983 0.547206 0
M  V30 3704 H 338.345 3.30635 -1.58355 0
M  V30 3705 H 337.993 5.02611 0.197831 0
M  V30 3706 H 337.693 5.70101 -1.42332 0
M  V30 3707 H 339.217 6.07924 -0.57105 0
M  V30 3708 H 340.631 5.09921 -2.62019 0
M  V30 3709 H 339.028 4.94721 -3.39663 0
M  V30 3710 H 340.098 3.53584 -3.31823 0
M  V30 3711 N 341.441 0.965919 1.2453 0
M  V30 3712 C 342.351 0.502154 2.29163 0
M  V30 3713 C 343.367 -0.436017 1.68448 0
M  V30 3714 O 344.543 -0.309497 1.99008 0
M  V30 3715 C 341.608 -0.201956 3.46111 0
M  V30 3716 C 340.669 0.775821 4.22232 0
M  V30 3717 C 339.902 0.105217 5.33596 0
M  V30 3718 O 340.125 -1.10683 5.59558 0
M  V30 3719 O 339.059 0.796475 5.96607 0
M  V30 3720 H 342.885 1.37194 2.70946 0
M  V30 3721 H 340.47 0.732875 1.30189 0
M  V30 3722 H 342.352 -0.597564 4.17142 0
M  V30 3723 H 341.027 -1.04673 3.06309 0
M  V30 3724 H 339.934 1.22185 3.53584 0
M  V30 3725 H 341.267 1.58896 4.65846 0
M  V30 3726 N 342.919 -1.39368 0.735821 0
M  V30 3727 C 344.168 -1.99733 0.281004 0
M  V30 3728 C 344.481 -1.59055 -1.13846 0
M  V30 3729 O 345.687 -2.12262 -1.69284 0
M  V30 3730 C 344.143 -3.57057 0.451462 0
M  V30 3731 C 343.751 -4.06697 1.87886 0
M  V30 3732 C 345.495 -4.2446 0.0584616 0
M  V30 3733 C 343.402 -5.56598 1.99883 0
M  V30 3734 H 342.332 -0.747163 0.101311 0
M  V30 3735 H 344.983 -1.59357 0.909819 0
M  V30 3736 H 343.365 -3.95234 -0.246263 0
M  V30 3737 H 344.539 -3.79853 2.60861 0
M  V30 3738 H 342.854 -3.5196 2.22515 0
M  V30 3739 H 345.451 -5.34549 0.127099 0
M  V30 3740 H 345.794 -4.04444 -0.986433 0
M  V30 3741 H 346.327 -3.9146 0.707374 0
M  V30 3742 H 343.066 -5.81494 3.02564 0
M  V30 3743 H 342.586 -5.85242 1.31346 0
M  V30 3744 H 344.265 -6.22022 1.78039 0
M  V30 3745 N 344.397 -0.483516 -1.5 0
M  V30 3746 C 345.625 0.0644831 -2.06799 0
M  V30 3747 C 346.04 1.32399 -1.34596 0
M  V30 3748 O 345.397 1.77626 -0.418946 0
M  V30 3749 C 345.448 0.339927 -3.59898 0
M  V30 3750 O 345.169 -0.869635 -4.29382 0
M  V30 3751 C 346.67 0.933515 -4.33359 0
M  V30 3752 H 343.89 -0.0126333 -0.670881 0
M  V30 3753 H 346.434 -0.675864 -1.93009 0
M  V30 3754 H 344.589 1.03022 -3.7345 0
M  V30 3755 H 345.003 -0.62179 -5.20801 0
M  V30 3756 H 346.477 1.07593 -5.41413 0
M  V30 3757 H 346.954 1.92685 -3.94676 0
M  V30 3758 H 347.56 0.281221 -4.24369 0
M  V30 3759 N 345.875 1.56104 -0.216619 0
M  V30 3760 C 347.291 1.58995 0.13886 0
M  V30 3761 C 347.491 1.23333 1.59346 0
M  V30 3762 O 346.547 0.966234 2.33281 0
M  V30 3763 C 347.86 3.00143 -0.182968 0
M  V30 3764 C 349.408 3.12751 -0.124807 0
M  V30 3765 C 349.883 4.56068 -0.420241 0
M  V30 3766 N 351.374 4.61723 -0.369634 0
M  V30 3767 C 352.109 5.70542 -0.571789 0
M  V30 3768 N 351.605 6.87744 -0.835453 0
M  V30 3769 N 353.398 5.59831 -0.504563 0
M  V30 3770 H 345.549 1.77562 -1.16557 0
M  V30 3771 H 347.812 0.825091 -0.466828 0
M  V30 3772 H 347.518 3.30871 -1.19237 0
M  V30 3773 H 347.392 3.73813 0.504367 0
M  V30 3774 H 349.779 2.81822 0.875223 0
M  V30 3775 H 349.86 2.41421 -0.845544 0
M  V30 3776 H 349.504 4.87713 -1.41769 0
M  V30 3777 H 349.434 5.25617 0.321631 0
M  V30 3778 H 351.925 3.77502 -0.173338 0
M  V30 3779 H 352.238 7.66587 -0.977938 0
M  V30 3780 H 350.583 6.895 -0.872592 0
M  V30 3781 H 353.774 4.67145 -0.298842 0
M  V30 3782 H 353.947 6.44573 -0.665519 0
M  V30 3783 N 347.353 -0.0568162 1.57498 0
M  V30 3784 C 348.263 -1.08346 2.08083 0
M  V30 3785 C 349.279 -1.41439 1.01346 0
M  V30 3786 O 350.455 -1.51316 1.32912 0
M  V30 3787 C 347.52 -2.37352 2.52715 0
M  V30 3788 C 346.581 -2.11093 3.73816 0
M  V30 3789 C 345.814 -3.33949 4.1631 0
M  V30 3790 O 346.037 -4.43622 3.58547 0
M  V30 3791 O 344.971 -3.21279 5.08983 0
M  V30 3792 H 348.797 -0.683667 2.95905 0
M  V30 3793 H 346.382 -0.271965 1.46904 0
M  V30 3794 H 348.264 -3.13246 2.81877 0
M  V30 3795 H 346.939 -2.76681 1.68016 0
M  V30 3796 H 345.846 -1.32856 3.49714 0
M  V30 3797 H 347.179 -1.76637 4.59413 0
M  V30 3798 N 348.832 -1.54138 -0.328536 0
M  V30 3799 C 350.079 -1.72105 -1.06706 0
M  V30 3800 C 350.407 -0.492111 -1.88171 0
M  V30 3801 O 349.662 0.526153 -1.88494 0
M  V30 3802 C 349.961 -2.9457 -2.02393 0
M  V30 3803 C 349.627 -4.29544 -1.37122 0
M  V30 3804 C 348.289 -4.6624 -1.19052 0
M  V30 3805 C 350.641 -5.1333 -0.902331 0
M  V30 3806 C 347.969 -5.84325 -0.527331 0
M  V30 3807 C 350.321 -6.32094 -0.252988 0
M  V30 3808 C 348.985 -6.67473 -0.0600901 0
M  V30 3809 H 348.255 -0.629775 -0.390466 0
M  V30 3810 H 350.902 -1.88372 -0.34473 0
M  V30 3811 H 349.207 -2.72969 -2.81061 0
M  V30 3812 H 350.904 -3.05665 -2.59557 0
M  V30 3813 H 347.494 -4.0067 -1.52188 0
M  V30 3814 H 351.678 -4.855 -1.02974 0
M  V30 3815 H 346.934 -6.103 -0.366634 0
M  V30 3816 H 351.108 -6.96299 0.118366 0
M  V30 3817 H 348.735 -7.58832 0.455828 0
M  V30 3818 N 350.31 0.590341 -1.46126 0
M  V30 3819 C 351.535 1.37991 -1.54833 0
M  V30 3820 C 351.96 1.87163 -0.187506 0
M  V30 3821 O 351.318 1.61133 0.831008 0
M  V30 3822 C 351.366 2.54867 -2.55098 0
M  V30 3823 O 350.47 3.56061 -2.08073 0
M  V30 3824 H 349.811 0.411265 -0.521303 0
M  V30 3825 H 352.341 0.716819 -1.91632 0
M  V30 3826 H 352.351 3.01886 -2.74461 0
M  V30 3827 H 351.026 2.18429 -3.53923 0
M  V30 3828 H 349.603 3.15574 -1.98664 0
M  V30 3829 N 351.788 1.33704 0.83433 0
M  V30 3830 C 353.034 1.25603 1.59222 0
M  V30 3831 C 353.367 -0.176659 1.93395 0
M  V30 3832 O 352.642 -1.11915 1.59076 0
M  V30 3833 C 352.925 2.13576 2.89926 0
M  V30 3834 C 352.778 3.65326 2.62406 0
M  V30 3835 C 354.097 2.01238 3.91397 0
M  V30 3836 H 351.216 0.457613 0.577719 0
M  V30 3837 H 353.858 1.63848 0.961972 0
M  V30 3838 H 352.008 1.8109 3.43713 0
M  V30 3839 H 353.68 4.08124 2.15017 0
M  V30 3840 H 351.923 3.8698 1.96033 0
M  V30 3841 H 352.594 4.22232 3.55562 0
M  V30 3842 H 355.07 2.29738 3.46929 0
M  V30 3843 H 353.946 2.65036 4.80673 0
M  V30 3844 H 354.207 0.985951 4.30966 0
M  V30 3845 N 353.266 -1.05314 1.17247 0
M  V30 3846 C 354.214 -2.15137 0.884238 0
M  V30 3847 C 355.208 -1.68729 -0.15063 0
M  V30 3848 O 356.414 -1.8 -0.00366673 0
M  V30 3849 H 352.789 -0.702471 0.2684 0
M  V30 3850 H 354.76 -2.36652 1.81764 0
M  V30 3851 C 353.509 -3.45243 0.412659 0
M  V30 3852 H 352.832 -3.81352 1.20043 0
M  V30 3853 H 354.272 -4.23263 0.249858 0
M  V30 3854 C 352.731 -3.25487 -0.86948 0
M  V30 3855 O 353.261 -3.51938 -1.93655 0
M  V30 3856 N 351.467 -2.78875 -0.817147 0
M  V30 3857 H 351.014 -2.57549 0.0514211 0
M  V30 3858 H 350.972 -2.66036 -1.67547 0
M  V30 3859 N 354.744 -0.972509 -1.24016 0
M  V30 3860 C 355.707 -0.511403 -2.23422 0
M  V30 3861 C 356.707 0.394679 -1.55881 0
M  V30 3862 O 357.897 0.189469 -1.73167 0
M  V30 3863 C 355.029 0.258769 -3.39916 0
M  V30 3864 H 356.222 -1.39024 -2.6573 0
M  V30 3865 H 353.775 -0.757585 -1.36713 0
M  V30 3866 H 354.51 1.1545 -3.03054 0
M  V30 3867 H 354.295 -0.391522 -3.9014 0
M  V30 3868 H 355.785 0.570244 -4.13688 0
M  V30 3869 N 356.222 1.38976 -0.743202 0
M  V30 3870 C 357.47 1.99948 -0.29417 0
M  V30 3871 C 357.791 1.59279 1.12495 0
M  V30 3872 O 357.061 0.844808 1.76748 0
M  V30 3873 H 355.641 0.739473 -0.105774 0
M  V30 3874 H 358.303 1.699 -0.954986 0
M  V30 3875 H 357.399 3.10142 -0.349056 0
M  V30 3876 N 357.7 0.491464 1.49741 0
M  V30 3877 C 358.946 -0.0565092 2.02721 0
M  V30 3878 C 359.279 -1.37522 1.37118 0
M  V30 3879 O 358.554 -1.87866 0.503645 0
M  V30 3880 C 358.837 -0.219051 3.59433 0
M  V30 3881 C 358.69 1.12211 4.35579 0
M  V30 3882 C 360.009 -0.964157 4.29409 0
M  V30 3883 H 357.128 -0.0190627 0.736753 0
M  V30 3884 H 359.77 0.641021 1.7886 0
M  V30 3885 H 357.92 -0.813165 3.79895 0
M  V30 3886 H 359.592 1.75437 4.26637 0
M  V30 3887 H 357.835 1.71377 3.98513 0
M  V30 3888 H 358.506 0.961794 5.43556 0
M  V30 3889 H 360.982 -0.460378 4.13545 0
M  V30 3890 H 359.858 -1.04671 5.38828 0
M  V30 3891 H 360.119 -2.00563 3.93988 0
M  V30 3892 N 359.178 -1.55987 0.224894 0
M  V30 3893 C 360.406 -2.02784 -0.410665 0
M  V30 3894 C 360.821 -1.10464 -1.53112 0
M  V30 3895 O 360.178 -0.114871 -1.82138 0
M  V30 3896 C 360.229 -3.49087 -0.939165 0
M  V30 3897 O 359.95 -4.37887 0.136614 0
M  V30 3898 C 361.451 -4.11543 -1.64763 0
M  V30 3899 H 358.671 -0.663484 -0.100148 0
M  V30 3900 H 361.215 -2.01614 0.342326 0
M  V30 3901 H 359.37 -3.50861 -1.64242 0
M  V30 3902 H 359.784 -5.23849 -0.261155 0
M  V30 3903 H 361.258 -5.15673 -1.96939 0
M  V30 3904 H 361.735 -3.56736 -2.56195 0
M  V30 3905 H 362.341 -4.13629 -0.989503 0
M  V30 3906 N 360.656 0.0484629 -1.57525 0
M  V30 3907 C 361.884 0.755421 -1.92616 0
M  V30 3908 C 362.299 1.69919 -0.822984 0
M  V30 3909 O 361.656 1.81378 0.202085 0
M  V30 3910 C 361.707 1.52915 -3.27566 0
M  V30 3911 O 361.428 0.62329 -4.33644 0
M  V30 3912 C 362.929 2.33502 -3.76818 0
M  V30 3913 H 360.149 0.213465 -0.63614 0
M  V30 3914 H 362.693 0.0117698 -2.04497 0
M  V30 3915 H 360.848 2.22486 -3.17142 0
M  V30 3916 H 361.262 1.16383 -5.11425 0
M  V30 3917 H 362.736 2.83214 -4.73808 0
M  V30 3918 H 363.213 3.14068 -3.07014 0
M  V30 3919 H 363.819 1.69043 -3.90262 0
M  V30 3920 N 362.134 1.5431 0.320358 0
M  V30 3921 C 363.545 1.63872 0.894594 0
M  V30 3922 C 363.896 0.534847 1.88769 0
M  V30 3923 O 363.021 -0.331732 2.13842 0
M  V30 3924 C 363.616 2.97049 1.62934 0
M  V30 3925 C 362.175 3.08796 2.15226 0
M  V30 3926 C 361.322 2.59456 0.978671 0
M  V30 3927 H 364.273 1.58398 0.0978544 0
M  V30 3928 H 364.294 2.87388 2.49376 0
M  V30 3929 H 363.806 3.7737 0.906302 0
M  V30 3930 H 361.907 2.33156 2.90636 0
M  V30 3931 H 362.02 4.14649 2.40006 0
M  V30 3932 H 360.384 2.1543 1.35875 0
M  V30 3933 H 361.167 3.42237 0.269895 0
M  V30 3934 N 363.613 -0.582584 1.46437 0
M  V30 3935 C 364.543 -1.70187 1.59871 0
M  V30 3936 C 365.524 -1.64066 0.449042 0
M  V30 3937 O 366.709 -1.82081 0.6753 0
M  V30 3938 C 363.839 -3.08827 1.58881 0
M  V30 3939 C 362.793 -3.29779 2.72819 0
M  V30 3940 C 362.119 -4.68947 2.5689 0
M  V30 3941 C 363.419 -3.17601 4.1464 0
M  V30 3942 H 365.113 -1.592 2.53566 0
M  V30 3943 H 362.659 -0.764472 1.22032 0
M  V30 3944 H 364.612 -3.86951 1.66873 0
M  V30 3945 H 363.336 -3.20713 0.617306 0
M  V30 3946 H 361.995 -2.54054 2.64296 0
M  V30 3947 H 361.643 -4.77599 1.57823 0
M  V30 3948 H 361.343 -4.83919 3.33312 0
M  V30 3949 H 362.867 -5.4924 2.66773 0
M  V30 3950 H 364.281 -3.8557 4.24274 0
M  V30 3951 H 362.678 -3.44094 4.9165 0
M  V30 3952 H 363.748 -2.14681 4.34788 0
M  V30 3953 N 365.091 -1.34144 -0.827227 0
M  V30 3954 C 366.316 -1.29476 -1.62021 0
M  V30 3955 C 366.741 0.129292 -1.87655 0
M  V30 3956 O 366.099 1.08967 -1.449 0
M  V30 3957 C 366.147 -2.08702 -2.94068 0
M  V30 3958 O 365.251 -1.45359 -3.85933 0
M  V30 3959 H 364.592 -0.444881 -0.492927 0
M  V30 3960 H 367.122 -1.76882 -1.02829 0
M  V30 3961 H 367.132 -2.19898 -3.43669 0
M  V30 3962 H 365.807 -3.12241 -2.74734 0
M  V30 3963 H 364.384 -1.42879 -3.44442 0
M  V30 3964 N 366.569 1.04691 -1.17803 0
M  V30 3965 C 367.797 1.81446 -0.99423 0
M  V30 3966 C 368.212 1.83174 0.457459 0
M  V30 3967 O 367.569 1.26265 1.31771 0
M  V30 3968 C 367.62 3.27334 -1.5341 0
M  V30 3969 O 367.341 3.25798 -2.92895 0
M  V30 3970 C 368.842 4.20759 -1.39559 0
M  V30 3971 H 366.062 0.571599 -0.351447 0
M  V30 3972 H 368.606 1.31982 -1.56208 0
M  V30 3973 H 366.761 3.74052 -1.00815 0
M  V30 3974 H 367.175 4.17144 -3.17949 0
M  V30 3975 H 368.649 5.21084 -1.82141 0
M  V30 3976 H 369.126 4.37856 -0.343394 0
M  V30 3977 H 369.732 3.79901 -1.91195 0
M  V30 3978 N 368.047 0.979072 1.23499 0
M  V30 3979 C 369.277 0.664237 1.95631 0
M  V30 3980 C 369.685 -0.772653 1.72704 0
M  V30 3981 O 369.028 -1.53141 1.01457 0
M  V30 3982 C 369.09 0.873115 3.48736 0
M  V30 3983 C 368.754 2.29182 3.95379 0
M  V30 3984 C 369.751 3.2704 4.04155 0
M  V30 3985 C 367.436 2.62256 4.28401 0
M  V30 3986 C 369.43 4.56052 4.45304 0
M  V30 3987 C 367.117 3.91491 4.69231 0
M  V30 3988 C 368.115 4.88201 4.77649 0
M  V30 3989 O 367.803 6.15129 5.17563 0
M  V30 3990 H 367.535 0.245915 0.629684 0
M  V30 3991 H 370.089 1.3127 1.57979 0
M  V30 3992 H 368.319 0.167476 3.86337 0
M  V30 3993 H 370.008 0.555642 4.02079 0
M  V30 3994 H 370.774 3.02819 3.78848 0
M  V30 3995 H 366.653 1.87692 4.21061 0
M  V30 3996 H 370.197 5.31538 4.51789 0
M  V30 3997 H 366.094 4.15508 4.93987 0
M  V30 3998 H 366.862 6.18862 5.35679 0
M  V30 3999 N 369.525 -1.3858 0.750561 0
M  V30 4000 C 370.458 -2.28095 0.0693139 0
M  V30 4001 C 371.436 -1.45217 -0.731491 0
M  V30 4002 O 372.62 -1.74587 -0.71076 0
M  V30 4003 C 369.747 -3.26282 -0.90871 0
M  V30 4004 C 368.793 -4.26056 -0.194507 0
M  V30 4005 S 369.626 -5.24026 1.10257 0
M  V30 4006 C 370.782 -6.2577 0.127542 0
M  V30 4007 H 371.015 -2.85526 0.8284 0
M  V30 4008 H 368.548 -1.44536 0.543014 0
M  V30 4009 H 370.506 -3.83367 -1.46766 0
M  V30 4010 H 369.167 -2.6784 -1.64075 0
M  V30 4011 H 368.36 -4.95249 -0.93512 0
M  V30 4012 H 367.962 -3.72852 0.292837 0
M  V30 4013 H 370.254 -6.73796 -0.707516 0
M  V30 4014 H 371.197 -7.03712 0.787044 0
M  V30 4015 H 371.605 -5.63938 -0.251803 0
M  V30 4016 N 371.003 -0.499398 -1.49478 0
M  V30 4017 C 371.933 0.269244 -2.31943 0
M  V30 4018 C 372.914 0.964054 -1.40143 0
M  V30 4019 O 374.099 0.955767 -1.69052 0
M  V30 4020 C 371.229 1.33504 -3.20615 0
M  V30 4021 C 370.183 0.760202 -4.21195 0
M  V30 4022 C 369.509 1.9264 -4.98792 0
M  V30 4023 C 370.809 -0.247661 -5.21712 0
M  V30 4024 H 372.503 -0.419082 -2.96452 0
M  V30 4025 H 370.049 -0.202988 -1.42562 0
M  V30 4026 H 372.002 1.88048 -3.77115 0
M  V30 4027 H 370.726 2.05253 -2.54045 0
M  V30 4028 H 369.385 0.23653 -3.65836 0
M  V30 4029 H 369.033 2.63154 -4.28671 0
M  V30 4030 H 368.733 1.54785 -5.66847 0
M  V30 4031 H 370.257 2.4762 -5.58137 0
M  V30 4032 H 371.671 0.209579 -5.72917 0
M  V30 4033 H 370.068 -0.541962 -5.97648 0
M  V30 4034 H 371.138 -1.16409 -4.7072 0
M  V30 4035 N 372.481 1.55866 -0.233164 0
M  V30 4036 C 373.709 2.02998 0.399905 0
M  V30 4037 C 374.124 1.11274 1.52524 0
M  V30 4038 O 373.481 0.124528 1.82075 0
M  V30 4039 C 373.532 3.4958 0.920639 0
M  V30 4040 O 373.253 4.37808 -0.159834 0
M  V30 4041 C 374.754 4.12411 1.62578 0
M  V30 4042 H 371.974 0.664006 0.0966281 0
M  V30 4043 H 374.518 2.0143 -0.353013 0
M  V30 4044 H 372.673 3.51727 1.62379 0
M  V30 4045 H 373.087 5.23981 0.23337 0
M  V30 4046 H 374.561 5.16711 1.94201 0
M  V30 4047 H 375.038 3.5809 2.54299 0
M  V30 4048 H 375.644 4.14148 0.967553 0
M  V30 4049 N 373.959 -0.0401083 1.57549 0
M  V30 4050 C 374.907 -1.06264 2.06908 0
M  V30 4051 C 375.901 -1.38132 0.980608 0
M  V30 4052 O 377.107 -1.37167 1.16556 0
M  V30 4053 H 373.482 -0.360166 0.660139 0
M  V30 4054 H 375.453 -0.620445 2.91878 0
M  V30 4055 C 374.202 -2.35846 2.55483 0
M  V30 4056 H 373.525 -2.12183 3.38849 0
M  V30 4057 H 374.965 -3.05765 2.93741 0
M  V30 4058 C 373.424 -3.0404 1.45126 0
M  V30 4059 O 373.954 -3.93424 0.811216 0
M  V30 4060 N 372.16 -2.65184 1.18852 0
M  V30 4061 H 371.707 -1.92584 1.71083 0
M  V30 4062 H 371.665 -3.1113 0.452244 0
M  V30 4063 N 375.437 -1.54477 -0.31217 0
M  V30 4064 C 376.662 -1.77526 -1.07235 0
M  V30 4065 C 377.087 -0.527775 -1.80544 0
M  V30 4066 O 376.445 0.52121 -1.73646 0
M  V30 4067 C 376.493 -2.97535 -2.03728 0
M  V30 4068 O 375.597 -2.69878 -3.11833 0
M  V30 4069 H 374.938 -0.58792 -0.30862 0
M  V30 4070 H 377.468 -2.01532 -0.352993 0
M  V30 4071 H 377.478 -3.25198 -2.46395 0
M  V30 4072 H 376.153 -3.87996 -1.49774 0
M  V30 4073 H 374.73 -2.53199 -2.7376 0
M  V30 4074 N 376.915 0.57481 -1.46744 0
M  V30 4075 C 377.825 1.711 -1.60505 0
M  V30 4076 C 378.841 1.67008 -0.488307 0
M  V30 4077 O 380.017 1.86774 -0.753495 0
M  V30 4078 C 377.082 3.07608 -1.59932 0
M  V30 4079 C 376.143 3.22904 -2.82898 0
M  V30 4080 C 375.376 4.529 -2.82343 0
M  V30 4081 O 375.599 5.37278 -1.91542 0
M  V30 4082 O 374.533 4.71611 -3.73987 0
M  V30 4083 H 378.359 1.62436 -2.56609 0
M  V30 4084 H 375.944 0.742779 -1.29627 0
M  V30 4085 H 377.826 3.88877 -1.62336 0
M  V30 4086 H 376.501 3.16692 -0.669898 0
M  V30 4087 H 375.408 2.41099 -2.86046 0
M  V30 4088 H 376.741 3.18715 -3.75076 0
M  V30 4089 N 378.394 1.34581 0.820102 0
M  V30 4090 C 379.324 1.29038 1.94606 0
M  V30 4091 C 380.305 0.1673 1.69275 0
M  V30 4092 O 381.49 0.360112 1.90832 0
M  V30 4093 C 378.62 1.04793 3.31113 0
M  V30 4094 C 377.574 2.13597 3.70891 0
M  V30 4095 C 376.9 1.74537 5.05412 0
M  V30 4096 C 378.2 3.55451 3.8269 0
M  V30 4097 H 379.894 2.23248 1.99501 0
M  V30 4098 H 377.44 1.0747 0.958449 0
M  V30 4099 H 379.393 0.995592 4.0947 0
M  V30 4100 H 378.117 0.0702565 3.26524 0
M  V30 4101 H 376.776 2.17905 2.9481 0
M  V30 4102 H 376.424 0.754226 4.97313 0
M  V30 4103 H 376.124 2.47361 5.32997 0
M  V30 4104 H 377.648 1.70803 5.86224 0
M  V30 4105 H 379.062 3.5354 4.51312 0
M  V30 4106 H 377.459 4.26922 4.21732 0
M  V30 4107 H 378.529 3.92587 2.84611 0
M  V30 4108 N 379.872 -1.04064 1.18357 0
M  V30 4109 C 380.802 -2.14001 0.934113 0
M  V30 4110 C 381.783 -1.69616 -0.128186 0
M  V30 4111 O 382.968 -1.94185 0.0244093 0
M  V30 4112 C 380.098 -3.44253 0.459066 0
M  V30 4113 C 379.052 -4.02261 1.46185 0
M  V30 4114 C 378.378 -5.27992 0.844322 0
M  V30 4115 C 379.678 -4.38432 2.83856 0
M  V30 4116 H 381.372 -2.35127 1.85352 0
M  V30 4117 H 378.918 -1.12998 0.892604 0
M  V30 4118 H 380.871 -4.20522 0.271907 0
M  V30 4119 H 379.595 -3.22813 -0.495912 0
M  V30 4120 H 378.254 -3.28074 1.63595 0
M  V30 4121 H 377.902 -5.02862 -0.117845 0
M  V30 4122 H 377.602 -5.67765 1.51384 0
M  V30 4123 H 379.126 -6.06938 0.667693 0
M  V30 4124 H 380.54 -5.05688 2.70098 0
M  V30 4125 H 378.937 -4.89254 3.47491 0
M  V30 4126 H 380.007 -3.4826 3.37406 0
M  V30 4127 N 381.35 -0.985608 -1.22978 0
M  V30 4128 C 382.575 -0.675254 -1.961 0
M  V30 4129 C 383 0.752154 -1.72407 0
M  V30 4130 O 382.358 1.5131 -0.998751 0
M  V30 4131 C 382.406 -0.977899 -3.47087 0
M  V30 4132 O 381.51 -0.072685 -4.12336 0
M  V30 4133 H 380.851 -0.253443 -0.613728 0
M  V30 4134 H 383.381 -1.32061 -1.56272 0
M  V30 4135 H 383.391 -0.916739 -3.97567 0
M  V30 4136 H 382.066 -2.01807 -3.63657 0
M  V30 4137 H 380.643 -0.188703 -3.72422 0
M  V30 4138 N 382.828 1.3818 -0.7579 0
M  V30 4139 C 383.758 2.33027 -0.148597 0
M  V30 4140 C 384.739 1.55085 0.69875 0
M  V30 4141 O 385.924 1.83384 0.639053 0
M  V30 4142 C 383.054 3.3928 0.742034 0
M  V30 4143 C 382.008 4.28 -0.00291946 0
M  V30 4144 C 381.334 5.25146 1.00625 0
M  V30 4145 C 382.634 5.08938 -1.17385 0
M  V30 4146 H 384.328 2.84231 -0.940909 0
M  V30 4147 H 381.874 1.36659 -0.453908 0
M  V30 4148 H 383.827 4.046 1.17799 0
M  V30 4149 H 382.551 2.86569 1.56671 0
M  V30 4150 H 381.21 3.64192 -0.419504 0
M  V30 4151 H 380.858 4.68721 1.8251 0
M  V30 4152 H 380.558 5.85361 0.512428 0
M  V30 4153 H 382.082 5.93342 1.44143 0
M  V30 4154 H 383.496 5.67474 -0.815224 0
M  V30 4155 H 381.893 5.7841 -1.59882 0
M  V30 4156 H 382.963 4.42424 -1.98468 0
M  V30 4157 N 384.306 0.507319 1.49211 0
M  V30 4158 C 385.555 -0.0368315 2.01666 0
M  V30 4159 C 385.868 -1.37459 1.39156 0
M  V30 4160 O 387.074 -2.00579 1.82976 0
M  V30 4161 C 385.53 -0.116089 3.59713 0
M  V30 4162 C 385.138 1.2154 4.31198 0
M  V30 4163 C 386.882 -0.610268 4.2009 0
M  V30 4164 C 384.789 1.09796 5.81119 0
M  V30 4165 H 383.719 -0.0175376 0.753796 0
M  V30 4166 H 386.37 0.647691 1.71689 0
M  V30 4167 H 384.752 -0.8652 3.86433 0
M  V30 4168 H 385.926 1.9783 4.16173 0
M  V30 4169 H 384.241 1.64352 3.82593 0
M  V30 4170 H 386.838 -0.715742 5.29888 0
M  V30 4171 H 387.181 -1.61064 3.8388 0
M  V30 4172 H 387.714 0.0824916 3.97714 0
M  V30 4173 H 384.453 2.0728 6.21864 0
M  V30 4174 H 383.973 0.376058 5.9862 0
M  V30 4175 H 385.652 0.779281 6.4229 0
M  V30 4176 N 385.784 -1.5574 0.241426 0
M  V30 4177 C 386.732 -2.22538 -0.676718 0
M  V30 4178 C 387.726 -1.21117 -1.18436 0
M  V30 4179 O 388.932 -1.39144 -1.14188 0
M  V30 4180 H 385.307 -0.713776 -0.236701 0
M  V30 4181 H 387.278 -2.98264 -0.0901187 0
M  V30 4182 C 386.027 -2.93439 -1.86518 0
M  V30 4183 H 385.35 -3.7125 -1.4837 0
M  V30 4184 H 386.79 -3.43549 -2.48495 0
M  V30 4185 C 385.249 -1.97008 -2.73294 0
M  V30 4186 O 385.779 -1.49965 -3.72657 0
M  V30 4187 N 383.985 -1.64227 -2.39745 0
M  V30 4188 H 383.532 -2.02677 -1.58996 0
M  V30 4189 H 383.49 -0.999708 -2.98083 0
M  V30 4190 N 387.262 0.0317525 -1.57568 0
M  V30 4191 C 388.539 0.758366 -1.803 0
M  V30 4192 C 388.919 1.93718 -0.838845 0
M  V30 4193 O 388.267 2.28187 0.119571 0
M  V30 4194 C 388.477 1.19392 -3.27943 0
M  V30 4195 C 389.825 1.61094 -3.92854 0
M  V30 4196 O 390.849 1.28857 -3.32076 0
M  V30 4197 O 389.708 2.20918 -4.99858 0
M  V30 4198 H 386.802 0.366514 -0.741348 0
M  V30 4199 H 389.348 0.00873765 -1.69698 0
M  V30 4200 H 388.12 0.352275 -3.89711 0
M  V30 4201 H 387.743 2.00365 -3.43424 0
M  V30 4202 N 388.74 1.54641 0.303973 0
M  V30 4203 C 389.673 1.80263 1.3993 0
M  V30 4204 C 390.651 0.653657 1.48883 0
M  V30 4205 O 391.835 0.893284 1.6599 0
M  V30 4206 C 388.962 1.9367 2.77866 0
M  V30 4207 C 388.008 3.16078 2.86351 0
M  V30 4208 S 388.841 4.74219 2.4875 0
M  V30 4209 C 389.997 4.90558 3.88721 0
M  V30 4210 H 390.23 2.72886 1.17986 0
M  V30 4211 H 387.763 1.46014 0.501918 0
M  V30 4212 H 389.721 2.0208 3.57315 0
M  V30 4213 H 388.382 1.01991 2.9708 0
M  V30 4214 H 387.575 3.22252 3.87517 0
M  V30 4215 H 387.177 3.06099 2.14893 0
M  V30 4216 H 389.469 4.74398 4.83687 0
M  V30 4217 H 390.412 5.92651 3.87518 0
M  V30 4218 H 390.82 4.18728 3.78585 0
M  V30 4219 N 390.218 -0.567019 1.47046 0
M  V30 4220 C 391.629 -1.14916 1.47143 0
M  V30 4221 C 391.98 -1.94954 0.220767 0
M  V30 4222 O 391.105 -2.05602 -0.67505 0
M  V30 4223 C 391.7 -2.09069 2.666 0
M  V30 4224 C 390.259 -2.62575 2.69687 0
M  V30 4225 C 389.406 -1.38755 2.40088 0
M  V30 4226 H 392.357 -0.354126 1.54699 0
M  V30 4227 H 392.378 -2.92789 2.43011 0
M  V30 4228 H 391.89 -1.50789 3.57609 0
M  V30 4229 H 389.991 -3.24681 1.82792 0
M  V30 4230 H 390.104 -3.04239 3.70102 0
M  V30 4231 H 388.468 -1.69098 1.90468 0
M  V30 4232 H 389.251 -0.822822 3.33293 0
M  V30 4233 N 391.696 -1.35014 -0.812953 0
M  V30 4234 C 392.945 -1.27269 -1.56479 0
M  V30 4235 C 393.258 0.152771 -1.95002 0
M  V30 4236 O 394.464 0.352451 -2.69203 0
M  V30 4237 C 392.92 -2.23159 -2.82362 0
M  V30 4238 C 392.528 -3.71016 -2.511 0
M  V30 4239 C 394.272 -2.24342 -3.60376 0
M  V30 4240 C 392.179 -4.58746 -3.73237 0
M  V30 4241 H 391.109 -0.472829 -0.587324 0
M  V30 4242 H 393.76 -1.6024 -0.894171 0
M  V30 4243 H 392.142 -1.83151 -3.51101 0
M  V30 4244 H 393.316 -4.1962 -1.90409 0
M  V30 4245 H 391.631 -3.72378 -1.86343 0
M  V30 4246 H 394.228 -2.87107 -4.51081 0
M  V30 4247 H 394.571 -1.24542 -3.97234 0
M  V30 4248 H 395.104 -2.62846 -2.98591 0
M  V30 4249 H 391.843 -5.59521 -3.41492 0
M  V30 4250 H 391.363 -4.14871 -4.33176 0
M  V30 4251 H 393.042 -4.73852 -4.40537 0
M  V30 4252 N 393.175 1.03435 -1.18907 0
M  V30 4253 C 394.403 1.80381 -1.01342 0
M  V30 4254 C 394.818 1.83649 0.438005 0
M  V30 4255 O 394.175 1.27655 1.30424 0
M  V30 4256 C 394.226 3.25689 -1.56873 0
M  V30 4257 O 393.947 3.22673 -2.96334 0
M  V30 4258 C 395.448 4.19255 -1.44014 0
M  V30 4259 H 392.668 0.56784 -0.35749 0
M  V30 4260 H 395.212 1.30317 -1.576 0
M  V30 4261 H 393.367 3.72962 -1.04777 0
M  V30 4262 H 393.781 4.13748 -3.22355 0
M  V30 4263 H 395.255 5.19123 -1.87657 0
M  V30 4264 H 395.732 4.37467 -0.389815 0
M  V30 4265 H 396.338 3.77851 -1.95214 0
M  V30 4266 N 394.653 0.992116 1.22453 0
M  V30 4267 C 395.601 0.534644 2.26372 0
M  V30 4268 C 396.595 -0.414293 1.64256 0
M  V30 4269 O 397.801 -0.286899 1.77699 0
M  V30 4270 H 394.176 0.154502 0.735957 0
M  V30 4271 H 396.147 1.42256 2.62309 0
M  V30 4272 C 394.896 -0.135815 3.47435 0
M  V30 4273 H 394.219 0.585311 3.95492 0
M  V30 4274 H 395.659 -0.419374 4.21921 0
M  V30 4275 C 394.118 -1.37089 3.07747 0
M  V30 4276 O 394.648 -2.46629 3.17076 0
M  V30 4277 N 392.854 -1.24585 2.62539 0
M  V30 4278 H 392.401 -0.354542 2.55149 0
M  V30 4279 H 392.359 -2.07327 2.36353 0
M  V30 4280 N 396.131 -1.37776 0.765217 0
M  V30 4281 C 397.408 -1.93975 0.251596 0
M  V30 4282 C 397.788 -1.69949 -1.25222 0
M  V30 4283 O 397.136 -1.04457 -2.03226 0
M  V30 4284 C 397.346 -3.43487 0.617895 0
M  V30 4285 C 398.694 -4.20564 0.584029 0
M  V30 4286 O 399.718 -3.5182 0.556888 0
M  V30 4287 O 398.577 -5.43138 0.605291 0
M  V30 4288 H 395.671 -0.82509 0.0561806 0
M  V30 4289 H 398.217 -1.47101 0.846128 0
M  V30 4290 H 396.989 -3.5453 1.65602 0
M  V30 4291 H 396.612 -3.976 -0.00403411 0
M  V30 4292 N 397.609 -0.515225 -1.4894 0
M  V30 4293 C 398.541 0.292481 -2.27326 0
M  V30 4294 C 399.554 0.917838 -1.3446 0
M  V30 4295 O 400.743 0.798772 -1.5963 0
M  V30 4296 C 397.843 1.42803 -3.07344 0
M  V30 4297 C 397.016 0.907347 -4.27885 0
M  V30 4298 C 396.075 1.92222 -4.89834 0
M  V30 4299 O 395.101 1.48506 -5.49486 0
M  V30 4300 N 396.303 3.25355 -4.80754 0
M  V30 4301 H 399.068 -0.379721 -2.97285 0
M  V30 4302 H 396.629 -0.348638 -1.58102 0
M  V30 4303 H 398.621 2.10481 -3.45658 0
M  V30 4304 H 397.191 2.00414 -2.39902 0
M  V30 4305 H 396.411 0.0550218 -3.94162 0
M  V30 4306 H 397.699 0.538108 -5.05946 0
M  V30 4307 H 397.097 3.6355 -4.33414 0
M  V30 4308 H 395.654 3.88707 -5.23211 0
M  V30 4309 N 399.087 1.5561 -0.249682 0
M  V30 4310 C 400.034 2.21496 0.648694 0
M  V30 4311 C 401.004 1.17977 1.16921 0
M  V30 4312 O 402.189 1.46434 1.22318 0
M  V30 4313 C 399.329 2.92039 1.83868 0
M  V30 4314 C 398.442 4.10219 1.35442 0
M  V30 4315 C 397.577 4.6847 2.50419 0
M  V30 4316 C 396.616 5.78893 1.98869 0
M  V30 4317 N 395.753 6.31315 3.07223 0
M  V30 4318 H 400.593 2.97892 0.0801582 0
M  V30 4319 H 398.13 1.47074 0.0278031 0
M  V30 4320 H 400.088 3.31138 2.53778 0
M  V30 4321 H 398.718 2.18111 2.37965 0
M  V30 4322 H 397.77 3.76413 0.54928 0
M  V30 4323 H 399.082 4.89927 0.936649 0
M  V30 4324 H 398.236 5.10158 3.28366 0
M  V30 4325 H 396.975 3.87984 2.95499 0
M  V30 4326 H 395.98 5.3668 1.19393 0
M  V30 4327 H 397.205 6.61232 1.54755 0
M  V30 4328 H 395.151 5.53733 3.51732 0
M  V30 4329 H 395.068 7.06224 2.69784 0
M  V30 4330 H 396.336 6.77662 3.8522 0
M  V30 4331 N 400.565 -0.0233959 1.57583 0
M  V30 4332 C 401.512 -1.02224 2.06927 0
M  V30 4333 C 402.482 -1.35575 0.959617 0
M  V30 4334 O 403.667 -1.45815 1.23055 0
M  V30 4335 C 400.807 -2.31636 2.5581 0
M  V30 4336 C 399.92 -2.04394 3.80588 0
M  V30 4337 C 399.055 -3.27717 4.18061 0
M  V30 4338 C 398.094 -2.96056 5.3574 0
M  V30 4339 N 397.231 -4.11847 5.68618 0
M  V30 4340 H 402.071 -0.594504 2.9201 0
M  V30 4341 H 399.608 -0.281921 1.44373 0
M  V30 4342 H 401.566 -3.07258 2.82221 0
M  V30 4343 H 400.196 -2.72122 1.73636 0
M  V30 4344 H 399.248 -1.19244 3.61227 0
M  V30 4345 H 400.56 -1.77042 4.66323 0
M  V30 4346 H 399.714 -4.11702 4.4563 0
M  V30 4347 H 398.453 -3.58188 3.30988 0
M  V30 4348 H 397.458 -2.10474 5.07918 0
M  V30 4349 H 398.683 -2.66857 6.24471 0
M  V30 4350 H 396.629 -4.42258 4.84504 0
M  V30 4351 H 396.546 -3.87938 6.48876 0
M  V30 4352 H 397.814 -4.96689 6.00766 0
M  V30 4353 N 402.043 -1.548 -0.295768 0
M  V30 4354 C 402.973 -1.89115 -1.36959 0
M  V30 4355 C 403.954 -0.75059 -1.52644 0
M  V30 4356 O 405.139 -1.00678 -1.66065 0
M  V30 4357 C 402.269 -2.14307 -2.73295 0
M  V30 4358 C 401.223 -3.30151 -2.72368 0
M  V30 4359 C 400.549 -3.40772 -4.12042 0
M  V30 4360 C 401.849 -4.67126 -2.33646 0
M  V30 4361 H 403.543 -2.79053 -1.08488 0
M  V30 4362 H 401.089 -1.34266 -0.520443 0
M  V30 4363 H 403.042 -2.36898 -3.48507 0
M  V30 4364 H 401.766 -1.21145 -3.03301 0
M  V30 4365 H 400.425 -3.0749 -1.99613 0
M  V30 4366 H 400.073 -2.45117 -4.39234 0
M  V30 4367 H 399.773 -4.18645 -4.12322 0
M  V30 4368 H 401.297 -3.6563 -4.89027 0
M  V30 4369 H 402.711 -4.89414 -2.98575 0
M  V30 4370 H 401.108 -5.47751 -2.45129 0
M  V30 4371 H 402.178 -4.67489 -1.28772 0
M  V30 4372 N 403.521 0.559213 -1.47345 0
M  V30 4373 C 404.454 1.68201 -1.5422 0
M  V30 4374 C 405.432 1.57742 -0.394497 0
M  V30 4375 O 406.616 1.78628 -0.60201 0
M  V30 4376 C 403.743 3.0643 -1.44285 0
M  V30 4377 C 402.789 3.3534 -2.63532 0
M  V30 4378 S 403.622 3.24816 -4.25741 0
M  V30 4379 C 404.778 4.65542 -4.18355 0
M  V30 4380 H 405.011 1.62114 -2.49211 0
M  V30 4381 H 402.544 0.739871 -1.35519 0
M  V30 4382 H 404.502 3.86164 -1.3924 0
M  V30 4383 H 403.163 3.09984 -0.506816 0
M  V30 4384 H 402.356 4.36107 -2.52639 0
M  V30 4385 H 401.958 2.63221 -2.65689 0
M  V30 4386 H 404.25 5.56449 -3.86485 0
M  V30 4387 H 405.193 4.81493 -5.19202 0
M  V30 4388 H 405.601 4.43495 -3.49246 0
M  V30 4389 N 404.999 1.35443 0.805782 0
M  V30 4390 C 406.224 1.32037 1.59941 0
M  V30 4391 C 406.649 -0.0994215 1.87837 0
M  V30 4392 O 406.007 -1.06648 1.46615 0
M  V30 4393 C 406.055 2.13354 2.90711 0
M  V30 4394 O 405.159 1.5148 3.83572 0
M  V30 4395 H 404.5 0.452666 0.485787 0
M  V30 4396 H 407.03 1.78496 1.00002 0
M  V30 4397 H 407.04 2.25338 3.40128 0
M  V30 4398 H 405.715 3.16572 2.69732 0
M  V30 4399 H 404.292 1.4834 3.42125 0
M  V30 4400 N 406.477 -1.02803 1.19454 0
M  V30 4401 C 407.702 -1.80378 1.02364 0
M  V30 4402 C 408.127 -1.83282 -0.423007 0
M  V30 4403 O 407.485 -1.25945 -1.30413 0
M  V30 4404 C 407.533 -3.23248 1.59821 0
M  V30 4405 O 406.637 -4.04 0.828105 0
M  V30 4406 H 405.978 -0.556799 0.361761 0
M  V30 4407 H 408.508 -1.29385 1.58495 0
M  V30 4408 H 408.518 -3.73994 1.63073 0
M  V30 4409 H 407.193 -3.2045 2.65113 0
M  V30 4410 H 405.77 -3.62635 0.86891 0
M  V30 4411 N 407.956 -0.998596 -1.21925 0
M  V30 4412 C 408.904 -0.546641 -2.26085 0
M  V30 4413 C 409.898 0.405576 -1.64473 0
M  V30 4414 O 411.104 0.277471 -1.77849 0
M  V30 4415 H 407.479 -0.158403 -0.735127 0
M  V30 4416 H 409.45 -1.43645 -2.61551 0
M  V30 4417 C 408.199 0.117388 -3.47502 0
M  V30 4418 H 407.522 -0.606277 -3.95176 0
M  V30 4419 H 408.962 0.396993 -4.22137 0
M  V30 4420 C 407.421 1.35455 -3.0847 0
M  V30 4421 O 407.951 2.44944 -3.18379 0
M  V30 4422 N 406.157 1.23191 -2.63196 0
M  V30 4423 H 405.704 0.341006 -2.55333 0
M  V30 4424 H 405.662 2.06071 -2.37449 0
M  V30 4425 N 409.434 1.37368 -0.772513 0
M  V30 4426 C 410.68 1.99969 -0.337681 0
M  V30 4427 C 411.013 1.61184 1.08321 0
M  V30 4428 O 410.288 0.858395 1.74533 0
M  V30 4429 C 410.571 3.56858 -0.482121 0
M  V30 4430 C 410.424 4.0555 -1.94549 0
M  V30 4431 C 411.743 4.39955 0.113143 0
M  V30 4432 H 408.862 0.726464 -0.124171 0
M  V30 4433 H 411.504 1.63034 -0.975699 0
M  V30 4434 H 409.654 3.88452 0.0610361 0
M  V30 4435 H 411.326 3.84518 -2.54841 0
M  V30 4436 H 409.569 3.57715 -2.45403 0
M  V30 4437 H 410.24 5.14587 -1.9976 0
M  V30 4438 H 412.716 4.14623 -0.35031 0
M  V30 4439 H 411.592 5.48897 -0.0180514 0
M  V30 4440 H 411.853 4.25403 1.20354 0
M  V30 4441 N 410.912 0.523116 1.48665 0
M  V30 4442 C 411.844 -0.280421 2.27478 0
M  V30 4443 C 412.857 -0.910694 1.34945 0
M  V30 4444 O 414.046 -0.790295 1.60052 0
M  V30 4445 C 411.146 -1.41171 3.08097 0
M  V30 4446 C 410.319 -0.884642 4.28361 0
M  V30 4447 C 409.378 -1.89622 4.90846 0
M  V30 4448 O 408.404 -1.4559 5.50265 0
M  V30 4449 N 409.606 -3.22801 4.82472 0
M  V30 4450 H 412.371 0.395481 2.97079 0
M  V30 4451 H 409.932 0.357018 1.57915 0
M  V30 4452 H 411.924 -2.08645 3.4677 0
M  V30 4453 H 410.494 -1.99139 2.40961 0
M  V30 4454 H 409.714 -0.0341177 3.94185 0
M  V30 4455 H 411.002 -0.511268 5.06225 0
M  V30 4456 H 410.4 -3.61246 4.35336 0
M  V30 4457 H 408.957 -3.85927 5.25265 0
M  V30 4458 N 412.39 -1.55475 0.257931 0
M  V30 4459 C 413.639 -1.98383 -0.364275 0
M  V30 4460 C 413.952 -1.14952 -1.58258 0
M  V30 4461 O 415.158 -1.47924 -2.27664 0
M  V30 4462 C 413.614 -3.53037 -0.699479 0
M  V30 4463 C 413.222 -4.45223 0.498046 0
M  V30 4464 C 414.966 -4.04575 -1.28526 0
M  V30 4465 C 412.873 -5.91238 0.138383 0
M  V30 4466 H 411.803 -0.740911 -0.13988 0
M  V30 4467 H 414.454 -1.79936 0.359883 0
M  V30 4468 H 412.836 -3.6722 -1.48207 0
M  V30 4469 H 414.01 -4.42803 1.27522 0
M  V30 4470 H 412.325 -4.04226 0.999503 0
M  V30 4471 H 414.922 -5.11196 -1.56788 0
M  V30 4472 H 415.265 -3.5258 -2.21344 0
M  V30 4473 H 415.798 -3.93762 -0.565337 0
M  V30 4474 H 412.537 -6.47294 1.03398 0
M  V30 4475 H 412.057 -5.96768 -0.602374 0
M  V30 4476 H 413.736 -6.46413 -0.27553 0
M  V30 4477 N 413.868 0.0150385 -1.57593 0
M  V30 4478 C 415.114 0.704043 -1.90187 0
M  V30 4479 C 415.447 1.74249 -0.857366 0
M  V30 4480 O 414.722 1.94092 0.125843 0
M  V30 4481 C 415.005 1.36087 -3.33395 0
M  V30 4482 C 414.858 0.334981 -4.48551 0
M  V30 4483 C 416.177 2.29112 -3.7576 0
M  V30 4484 H 413.296 0.254475 -0.691673 0
M  V30 4485 H 415.938 -0.0331678 -1.89971 0
M  V30 4486 H 414.088 1.98922 -3.3371 0
M  V30 4487 H 415.76 -0.292534 -4.60372 0
M  V30 4488 H 414.003 -0.344325 -4.32431 0
M  V30 4489 H 414.674 0.833316 -5.45674 0
M  V30 4490 H 417.15 1.76308 -3.76902 0
M  V30 4491 H 416.026 2.72043 -4.76743 0
M  V30 4492 H 416.287 3.16385 -3.08793 0
M  V30 4493 N 415.346 1.54954 0.287554 0
M  V30 4494 C 416.762 1.46469 0.633964 0
M  V30 4495 C 416.962 0.666865 1.90145 0
M  V30 4496 O 416.018 0.179906 2.51858 0
M  V30 4497 C 417.331 2.90556 0.774454 0
M  V30 4498 C 418.879 3.00681 0.869462 0
M  V30 4499 C 419.354 4.45993 1.04184 0
M  V30 4500 N 420.845 4.4976 1.10772 0
M  V30 4501 C 421.58 5.59393 1.25964 0
M  V30 4502 N 421.076 6.78923 1.37968 0
M  V30 4503 N 422.869 5.47107 1.28959 0
M  V30 4504 H 415.02 2.05288 -0.545041 0
M  V30 4505 H 417.283 0.930305 -0.182308 0
M  V30 4506 H 416.989 3.51594 -0.086207 0
M  V30 4507 H 416.863 3.38743 1.6593 0
M  V30 4508 H 419.25 2.39749 1.7206 0
M  V30 4509 H 419.331 2.55769 -0.0396831 0
M  V30 4510 H 418.975 5.07524 0.195422 0
M  V30 4511 H 418.905 4.88548 1.96542 0
M  V30 4512 H 421.396 3.63651 1.02794 0
M  V30 4513 H 421.709 7.58231 1.49353 0
M  V30 4514 H 420.054 6.81763 1.34999 0
M  V30 4515 H 423.245 4.52668 1.19202 0
M  V30 4516 H 423.418 6.32595 1.40455 0
M  V30 4517 N 416.824 -0.551391 1.4764 0
M  V30 4518 C 417.756 -1.67333 1.56628 0
M  V30 4519 C 418.769 -1.56398 0.452045 0
M  V30 4520 O 419.958 -1.6325 0.721926 0
M  V30 4521 C 417.058 -3.05841 1.45994 0
M  V30 4522 C 416.231 -3.42472 2.72088 0
M  V30 4523 C 415.29 -4.60168 2.55209 0
M  V30 4524 O 414.316 -4.64458 3.2904 0
M  V30 4525 N 415.518 -5.57024 1.63416 0
M  V30 4526 H 418.283 -1.60066 2.53375 0
M  V30 4527 H 415.844 -0.738169 1.44093 0
M  V30 4528 H 417.836 -3.8242 1.32428 0
M  V30 4529 H 416.406 -3.07302 0.573071 0
M  V30 4530 H 415.626 -2.55284 3.00373 0
M  V30 4531 H 416.914 -3.63723 3.55785 0
M  V30 4532 H 416.312 -5.56319 1.02594 0
M  V30 4533 H 414.869 -6.32906 1.558 0
M  V30 4534 N 418.302 -1.35869 -0.798587 0
M  V30 4535 C 419.234 -1.25305 -1.91915 0
M  V30 4536 C 420.247 -0.174548 -1.61862 0
M  V30 4537 O 421.436 -0.428499 -1.73281 0
M  V30 4538 C 418.536 -0.9086 -3.26493 0
M  V30 4539 C 417.709 -2.08711 -3.84394 0
M  V30 4540 C 416.768 -1.71717 -4.97393 0
M  V30 4541 O 415.794 -2.43692 -5.14396 0
M  V30 4542 N 416.996 -0.645473 -5.769 0
M  V30 4543 H 419.761 -2.21849 -2.01502 0
M  V30 4544 H 417.322 -1.29143 -0.976408 0
M  V30 4545 H 419.314 -0.642455 -3.99568 0
M  V30 4546 H 417.884 -0.0325815 -3.12583 0
M  V30 4547 H 417.104 -2.51659 -3.03416 0
M  V30 4548 H 418.392 -2.87468 -4.19809 0
M  V30 4549 H 417.79 -0.047648 -5.6568 0
M  V30 4550 H 416.347 -0.43913 -6.50319 0
M  V30 4551 N 419.78 1.02168 -1.19998 0
M  V30 4552 C 421.005 1.79833 -1.03319 0
M  V30 4553 C 421.43 1.83504 0.413281 0
M  V30 4554 O 420.788 1.26635 1.29743 0
M  V30 4555 C 420.836 3.22396 -1.61533 0
M  V30 4556 O 419.94 4.03555 -0.849519 0
M  V30 4557 H 419.281 0.554872 -0.364709 0
M  V30 4558 H 421.811 1.28542 -1.59179 0
M  V30 4559 H 421.821 3.73124 -1.65054 0
M  V30 4560 H 420.496 3.19039 -2.66809 0
M  V30 4561 H 419.073 3.62169 -0.888129 0
M  V30 4562 N 421.258 1.00505 1.21394 0
M  V30 4563 C 422.488 0.705584 1.94178 0
M  V30 4564 C 422.896 -0.735846 1.74304 0
M  V30 4565 O 422.239 -1.50954 1.04683 0
M  V30 4566 C 422.301 0.94689 3.46806 0
M  V30 4567 C 421.965 2.37517 3.90429 0
M  V30 4568 C 422.962 3.35539 3.97127 0
M  V30 4569 C 420.647 2.71284 4.22742 0
M  V30 4570 C 422.641 4.65395 4.3553 0
M  V30 4571 C 420.328 4.01356 4.60822 0
M  V30 4572 C 421.326 4.98223 4.67186 0
M  V30 4573 O 421.014 6.25969 5.04399 0
M  V30 4574 H 420.746 0.259216 0.624326 0
M  V30 4575 H 423.3 1.34592 1.55159 0
M  V30 4576 H 421.53 0.249386 3.85895 0
M  V30 4577 H 423.219 0.640804 4.0081 0
M  V30 4578 H 423.985 3.10786 3.7234 0
M  V30 4579 H 419.864 1.96581 4.16985 0
M  V30 4580 H 423.408 5.41002 4.40412 0
M  V30 4581 H 419.305 4.25893 4.85063 0
M  V30 4582 H 420.073 6.30085 5.22431 0
M  V30 4583 N 422.737 -1.36956 0.779787 0
M  V30 4584 C 423.962 -2.04283 0.358224 0
M  V30 4585 C 424.387 -1.58422 -1.01411 0
M  V30 4586 O 423.745 -0.748179 -1.65142 0
M  V30 4587 C 423.793 -3.58152 0.419479 0
M  V30 4588 O 422.897 -4.08342 -0.577142 0
M  V30 4589 H 422.238 -0.645967 0.153698 0
M  V30 4590 H 424.768 -1.75108 1.05822 0
M  V30 4591 H 424.778 -4.07041 0.279636 0
M  V30 4592 H 423.453 -3.90886 1.42061 0
M  V30 4593 H 422.03 -3.70751 -0.399755 0
M  V30 4594 N 424.215 -0.530993 -1.48385 0
M  V30 4595 C 425.464 0.00474348 -2.01699 0
M  V30 4596 C 425.777 1.35227 -1.41325 0
M  V30 4597 O 426.983 1.97643 -1.86144 0
M  V30 4598 C 425.439 0.0588473 -3.59852 0
M  V30 4599 C 425.047 -1.28385 -4.2921 0
M  V30 4600 C 426.791 0.543358 -4.21008 0
M  V30 4601 C 424.698 -1.19028 -5.79298 0
M  V30 4602 H 423.628 0.00554317 -0.75398 0
M  V30 4603 H 426.279 -0.674924 -1.70637 0
M  V30 4604 H 424.661 0.803612 -3.8776 0
M  V30 4605 H 425.835 -2.04426 -4.12973 0
M  V30 4606 H 424.15 -1.70418 -3.7993 0
M  V30 4607 H 426.747 0.631351 -5.3096 0
M  V30 4608 H 427.09 1.54937 -3.86394 0
M  V30 4609 H 427.623 -0.145754 -3.97533 0
M  V30 4610 H 424.362 -2.17147 -6.18488 0
M  V30 4611 H 423.882 -0.471246 -5.97946 0
M  V30 4612 H 425.561 -0.881365 -6.40969 0
M  V30 4613 N 425.693 1.55336 -0.266172 0
M  V30 4614 C 426.626 2.18256 0.666296 0
M  V30 4615 C 427.604 1.14064 1.1588 0
M  V30 4616 O 428.788 1.42546 1.23341 0
M  V30 4617 C 425.915 2.79867 1.90768 0
M  V30 4618 C 424.961 3.97283 1.55141 0
M  V30 4619 S 425.794 5.31694 0.637313 0
M  V30 4620 C 426.95 5.96769 1.88727 0
M  V30 4621 H 427.183 2.97008 0.131647 0
M  V30 4622 H 424.716 1.54317 -0.0504869 0
M  V30 4623 H 426.674 3.15996 2.62025 0
M  V30 4624 H 425.335 2.01025 2.41346 0
M  V30 4625 H 424.528 4.3905 2.4749 0
M  V30 4626 H 424.13 3.6253 0.919113 0
M  V30 4627 H 426.422 6.15458 2.83227 0
M  V30 4628 H 427.365 6.91752 1.51276 0
M  V30 4629 H 427.773 5.26034 2.04814 0
M  V30 4630 N 427.171 -0.0066808 1.57599 0
M  V30 4631 C 428.396 -0.707738 1.94951 0
M  V30 4632 C 428.821 -1.66882 0.867868 0
M  V30 4633 O 428.179 -1.80457 -0.17458 0
M  V30 4634 C 428.227 -1.42162 3.31394 0
M  V30 4635 O 427.331 -2.53578 3.25226 0
M  V30 4636 H 426.672 -0.188752 0.636607 0
M  V30 4637 H 429.202 0.0445193 2.04552 0
M  V30 4638 H 429.212 -1.78655 3.66806 0
M  V30 4639 H 427.887 -0.716903 4.09675 0
M  V30 4640 H 426.464 -2.19463 3.01481 0
M  V30 4641 N 428.649 -1.55105 -0.279332 0
M  V30 4642 C 429.898 -1.74618 -1.00952 0
M  V30 4643 C 430.211 -0.551096 -1.87676 0
M  V30 4644 O 431.417 -0.628507 -2.64125 0
M  V30 4645 C 429.873 -3.09025 -1.84476 0
M  V30 4646 C 429.481 -4.36081 -1.0265 0
M  V30 4647 C 431.225 -3.37891 -2.56963 0
M  V30 4648 C 429.132 -5.6153 -1.85576 0
M  V30 4649 H 428.062 -0.650868 -0.38064 0
M  V30 4650 H 430.713 -1.81569 -0.265475 0
M  V30 4651 H 429.095 -2.96095 -2.62952 0
M  V30 4652 H 430.269 -4.59909 -0.286354 0
M  V30 4653 H 428.584 -4.14312 -0.416464 0
M  V30 4654 H 431.181 -4.28822 -3.19399 0
M  V30 4655 H 431.524 -2.57737 -3.26921 0
M  V30 4656 H 432.057 -3.5189 -1.85522 0
M  V30 4657 H 428.796 -6.44413 -1.2005 0
M  V30 4658 H 428.316 -5.41854 -2.57204 0
M  V30 4659 H 429.995 -5.99594 -2.43096 0
M  V30 4660 N 430.127 0.543554 -1.4793 0
M  V30 4661 C 431.376 1.29649 -1.54512 0
M  V30 4662 C 431.689 1.94382 -0.217973 0
M  V30 4663 O 432.895 2.71017 -0.161908 0
M  V30 4664 C 431.351 2.35175 -2.72435 0
M  V30 4665 C 430.959 1.76572 -4.11736 0
M  V30 4666 C 432.703 3.11564 -2.8832 0
M  V30 4667 C 430.61 2.79958 -5.20939 0
M  V30 4668 H 429.54 0.487541 -0.57517 0
M  V30 4669 H 432.191 0.575708 -1.74235 0
M  V30 4670 H 430.573 3.10229 -2.46118 0
M  V30 4671 H 431.747 1.07799 -4.48013 0
M  V30 4672 H 430.062 1.12722 -4.00852 0
M  V30 4673 H 432.659 3.88794 -3.67074 0
M  V30 4674 H 433.002 3.66594 -1.97268 0
M  V30 4675 H 433.535 2.43623 -3.14472 0
M  V30 4676 H 430.274 2.29766 -6.13912 0
M  V30 4677 H 429.794 3.47101 -4.89164 0
M  V30 4678 H 431.473 3.43198 -5.48474 0
M  V30 4679 N 431.605 1.3629 0.791371 0
M  V30 4680 C 432.552 1.30458 1.90393 0
M  V30 4681 C 433.522 0.173632 1.6519 0
M  V30 4682 O 434.707 0.35983 1.87376 0
M  V30 4683 C 431.847 1.09777 3.27174 0
M  V30 4684 C 430.96 2.31929 3.64462 0
M  V30 4685 C 430.095 2.04276 4.90352 0
M  V30 4686 C 429.134 3.224 5.20312 0
M  V30 4687 N 428.271 2.94424 6.37385 0
M  V30 4688 H 433.111 2.25589 1.94714 0
M  V30 4689 H 430.648 1.12122 0.952216 0
M  V30 4690 H 432.606 0.958133 4.06049 0
M  V30 4691 H 431.236 0.183014 3.22281 0
M  V30 4692 H 430.288 2.56703 2.80727 0
M  V30 4693 H 431.6 3.20085 3.82553 0
M  V30 4694 H 430.754 1.87231 5.77087 0
M  V30 4695 H 429.493 1.13428 4.74326 0
M  V30 4696 H 428.498 3.40005 4.32061 0
M  V30 4697 H 429.723 4.14071 5.38258 0
M  V30 4698 H 427.669 2.06185 6.22755 0
M  V30 4699 H 427.586 3.76118 6.55798 0
M  V30 4700 H 428.854 2.80953 7.27108 0
M  V30 4701 N 433.083 -1.0153 1.20538 0
M  V30 4702 C 433.993 -2.13557 0.971113 0
M  V30 4703 C 435.009 -1.73845 -0.0734366 0
M  V30 4704 O 436.185 -2.01075 0.114299 0
M  V30 4705 C 433.25 -3.42661 0.527639 0
M  V30 4706 C 432.311 -3.96608 1.64319 0
M  V30 4707 C 431.544 -5.1955 1.22078 0
M  V30 4708 O 431.767 -5.70329 0.0900198 0
M  V30 4709 O 430.701 -5.66681 2.02871 0
M  V30 4710 H 434.527 -2.3619 1.90913 0
M  V30 4711 H 432.112 -1.11946 0.989362 0
M  V30 4712 H 433.994 -4.20404 0.289621 0
M  V30 4713 H 432.669 -3.21441 -0.381779 0
M  V30 4714 H 431.576 -3.20139 1.93551 0
M  V30 4715 H 432.909 -4.22219 2.52966 0
M  V30 4716 N 434.561 -1.01147 -1.20859 0
M  V30 4717 C 435.471 -0.58686 -2.27141 0
M  V30 4718 C 436.487 0.373198 -1.69951 0
M  V30 4719 O 437.663 0.235423 -2.00019 0
M  V30 4720 C 434.728 0.0733602 -3.46622 0
M  V30 4721 C 433.789 -0.931995 -4.19061 0
M  V30 4722 C 433.022 -0.303186 -5.32838 0
M  V30 4723 O 433.245 0.898395 -5.63281 0
M  V30 4724 O 432.179 -1.01735 -5.9324 0
M  V30 4725 H 436.005 -1.47155 -2.65667 0
M  V30 4726 H 433.59 -0.780689 -1.2738 0
M  V30 4727 H 435.472 0.442333 -4.19072 0
M  V30 4728 H 434.147 0.932329 -3.09983 0
M  V30 4729 H 433.054 -1.35224 -3.48805 0
M  V30 4730 H 434.387 -1.76076 -4.59628 0
M  V30 4731 N 436.039 1.36541 -0.78704 0
M  V30 4732 C 437.285 1.99599 -0.358872 0
M  V30 4733 C 437.618 1.62323 1.06606 0
M  V30 4734 O 436.893 0.876858 1.73613 0
M  V30 4735 C 437.176 3.56327 -0.519944 0
M  V30 4736 C 437.029 4.03464 -1.98839 0
M  V30 4737 C 438.348 4.4005 0.0664737 0
M  V30 4738 H 435.467 0.725107 -0.131869 0
M  V30 4739 H 438.109 1.6199 -0.992936 0
M  V30 4740 H 436.259 3.88495 0.0198321 0
M  V30 4741 H 437.931 3.81793 -2.58905 0
M  V30 4742 H 436.174 3.55092 -2.49183 0
M  V30 4743 H 436.845 5.12439 -2.05207 0
M  V30 4744 H 439.321 4.14228 -0.394267 0
M  V30 4745 H 438.197 5.48847 -0.0762682 0
M  V30 4746 H 438.458 4.26655 1.15835 0
M  V30 4747 N 437.518 0.538854 1.48102 0
M  V30 4748 C 438.448 -0.207654 2.32575 0
M  V30 4749 C 439.429 -0.926559 1.4265 0
M  V30 4750 O 440.614 -0.91061 1.71527 0
M  V30 4751 C 437.744 -1.24957 3.24042 0
M  V30 4752 C 436.698 -0.648263 4.23062 0
M  V30 4753 C 436.024 -1.79348 5.03725 0
M  V30 4754 C 437.324 0.385897 5.20872 0
M  V30 4755 H 439.018 0.497534 2.95237 0
M  V30 4756 H 436.564 0.240715 1.41974 0
M  V30 4757 H 438.517 -1.77983 3.81969 0
M  V30 4758 H 437.241 -1.98446 2.59397 0
M  V30 4759 H 435.9 -0.139452 3.66335 0
M  V30 4760 H 435.548 -2.51696 4.35498 0
M  V30 4761 H 435.248 -1.39702 5.70751 0
M  V30 4762 H 436.772 -2.32735 5.64506 0
M  V30 4763 H 438.186 -0.057607 5.73271 0
M  V30 4764 H 436.583 0.700227 5.96001 0
M  V30 4765 H 437.653 1.28848 4.67468 0
M  V30 4766 N 438.996 -1.55193 0.274407 0
M  V30 4767 C 439.959 -2.212 -0.600279 0
M  V30 4768 C 440.959 -1.18963 -1.08187 0
M  V30 4769 O 442.149 -1.43873 -0.982158 0
M  V30 4770 C 439.281 -2.87739 -1.82809 0
M  V30 4771 H 440.474 -2.9989 -0.0239682 0
M  V30 4772 H 438.027 -1.5628 0.0250192 0
M  V30 4773 H 438.762 -2.13058 -2.44493 0
M  V30 4774 H 438.547 -3.62658 -1.49069 0
M  V30 4775 H 440.037 -3.38171 -2.45011 0
M  V30 4776 N 440.474 -0.00167713 -1.576 0
M  V30 4777 C 441.704 0.692754 -1.94639 0
M  V30 4778 C 442.112 1.67744 -0.87513 0
M  V30 4779 O 441.455 1.8305 0.154382 0
M  V30 4780 C 441.517 1.47881 -3.27676 0
M  V30 4781 C 441.181 0.655518 -4.52274 0
M  V30 4782 C 442.178 -0.0575214 -5.19868 0
M  V30 4783 C 439.863 0.600994 -4.98692 0
M  V30 4784 C 441.857 -0.814052 -6.3218 0
M  V30 4785 C 439.544 -0.15926 -6.10892 0
M  V30 4786 C 440.542 -0.865515 -6.77494 0
M  V30 4787 O 440.23 -1.61336 -7.87544 0
M  V30 4788 H 439.962 0.197792 -0.646417 0
M  V30 4789 H 442.516 -0.049423 -2.05341 0
M  V30 4790 H 440.746 2.2655 -3.13388 0
M  V30 4791 H 442.435 2.05874 -3.49816 0
M  V30 4792 H 443.201 -0.0245611 -4.84994 0
M  V30 4793 H 439.08 1.14025 -4.46676 0
M  V30 4794 H 442.624 -1.36584 -6.84098 0
M  V30 4795 H 438.521 -0.194035 -6.45208 0
M  V30 4796 H 439.289 -1.53025 -8.04068 0
M  V30 4797 N 441.952 1.55251 0.271103 0
M  V30 4798 C 443.198 1.76207 1.00394 0
M  V30 4799 C 443.531 0.562604 1.85872 0
M  V30 4800 O 442.806 -0.439785 1.89463 0
M  V30 4801 C 443.089 3.06828 1.8849 0
M  V30 4802 C 442.942 4.37134 1.05992 0
M  V30 4803 C 444.261 3.33503 2.87165 0
M  V30 4804 H 441.38 0.641086 0.363562 0
M  V30 4805 H 444.022 1.87982 0.276189 0
M  V30 4806 H 442.172 2.96921 2.5054 0
M  V30 4807 H 443.844 4.59001 0.459978 0
M  V30 4808 H 442.087 4.32275 0.363443 0
M  V30 4809 H 442.758 5.2486 1.70955 0
M  V30 4810 H 445.234 3.43215 2.3525 0
M  V30 4811 H 444.11 4.2616 3.45946 0
M  V30 4812 H 444.371 2.53235 3.62387 0
M  V30 4813 N 443.43 -0.535701 1.48216 0
M  V30 4814 C 444.676 -1.29375 1.56173 0
M  V30 4815 C 445.009 -1.92804 0.232429 0
M  V30 4816 O 444.284 -1.78992 -0.761048 0
M  V30 4817 C 444.567 -2.38747 2.69577 0
M  V30 4818 C 444.42 -1.80046 4.12193 0
M  V30 4819 C 445.739 -3.40551 2.78771 0
M  V30 4820 H 442.858 -0.469027 0.568491 0
M  V30 4821 H 445.5 -0.597358 1.80365 0
M  V30 4822 H 443.65 -2.98147 2.4908 0
M  V30 4823 H 445.322 -1.24742 4.44114 0
M  V30 4824 H 443.565 -1.10609 4.19462 0
M  V30 4825 H 444.236 -2.59212 4.87353 0
M  V30 4826 H 446.712 -2.91099 2.97322 0
M  V30 4827 H 445.588 -4.1448 3.59857 0
M  V30 4828 H 445.849 -4.00746 1.86696 0
M  V30 4829 N 444.908 -1.36708 -0.784132 0
M  V30 4830 C 445.84 -1.27333 -1.90575 0
M  V30 4831 C 446.853 -0.191706 -1.61667 0
M  V30 4832 O 448.042 -0.446854 -1.72816 0
M  V30 4833 C 445.142 -0.943177 -3.25511 0
M  V30 4834 C 444.315 -2.12776 -3.82158 0
M  V30 4835 C 443.374 -1.76983 -4.95544 0
M  V30 4836 O 442.4 -2.49134 -5.11782 0
M  V30 4837 N 443.602 -0.706624 -5.76183 0
M  V30 4838 H 446.367 -2.23974 -1.99138 0
M  V30 4839 H 443.928 -1.30171 -0.962656 0
M  V30 4840 H 445.92 -0.684799 -3.98864 0
M  V30 4841 H 444.49 -0.0657333 -3.12531 0
M  V30 4842 H 443.71 -2.54863 -3.0073 0
M  V30 4843 H 444.998 -2.91904 -4.16737 0
M  V30 4844 H 444.396 -0.107643 -5.65598 0
M  V30 4845 H 442.953 -0.50808 -6.49817 0
M  V30 4846 N 446.386 1.0089 -1.21074 0
M  V30 4847 C 447.316 2.1145 -0.990523 0
M  V30 4848 C 448.297 1.69897 0.0831699 0
M  V30 4849 O 449.482 1.94052 -0.0758853 0
M  V30 4850 C 446.612 3.42914 -0.550177 0
M  V30 4851 C 445.566 3.98244 -1.56799 0
M  V30 4852 C 444.892 5.25568 -0.984013 0
M  V30 4853 C 446.192 4.30752 -2.95381 0
M  V30 4854 H 447.886 2.3013 -1.91521 0
M  V30 4855 H 445.432 1.10592 -0.92225 0
M  V30 4856 H 447.385 4.19653 -0.383305 0
M  V30 4857 H 446.109 3.24014 0.41015 0
M  V30 4858 H 444.768 3.23621 -1.72236 0
M  V30 4859 H 444.416 5.02998 -0.0155216 0
M  V30 4860 H 444.116 5.63551 -1.66384 0
M  V30 4861 H 445.64 6.04955 -0.828378 0
M  V30 4862 H 447.054 4.98349 -2.8341 0
M  V30 4863 H 445.451 4.79869 -3.60341 0
M  V30 4864 H 446.521 3.39192 -3.46521 0
M  V30 4865 N 447.864 1.01787 1.20321 0
M  V30 4866 C 449.275 0.739307 1.71438 0
M  V30 4867 C 449.626 -0.742041 1.81627 0
M  V30 4868 O 448.751 -1.57903 1.47971 0
M  V30 4869 C 449.346 1.33538 3.11373 0
M  V30 4870 C 447.905 1.10566 3.59795 0
M  V30 4871 C 447.052 1.44028 2.36962 0
M  V30 4872 H 450.003 1.18718 1.05317 0
M  V30 4873 H 450.024 0.726611 3.73498 0
M  V30 4874 H 449.536 2.41352 3.03926 0
M  V30 4875 H 447.637 0.0452405 3.72573 0
M  V30 4876 H 447.75 1.78661 4.44542 0
M  V30 4877 H 446.114 0.85933 2.39766 0
M  V30 4878 H 446.897 2.52901 2.32155 0
M  V30 4879 N 449.342 -1.36122 0.79427 0
M  V30 4880 C 450.591 -1.98361 0.365464 0
M  V30 4881 C 450.904 -1.6374 -1.06997 0
M  V30 4882 O 452.11 -2.19251 -1.60129 0
M  V30 4883 C 450.566 -3.54821 0.602496 0
M  V30 4884 C 450.174 -3.98362 2.04967 0
M  V30 4885 C 451.918 -4.2383 0.238437 0
M  V30 4886 C 449.825 -5.47619 2.2331 0
M  V30 4887 H 448.755 -0.742193 0.13291 0
M  V30 4888 H 451.406 -1.55354 0.976589 0
M  V30 4889 H 449.788 -3.95922 -0.078409 0
M  V30 4890 H 450.962 -3.68447 2.76737 0
M  V30 4891 H 449.277 -3.42206 2.37243 0
M  V30 4892 H 451.874 -5.33529 0.353705 0
M  V30 4893 H 452.217 -4.08264 -0.814006 0
M  V30 4894 H 452.75 -3.88108 0.872769 0
M  V30 4895 H 449.489 -5.68138 3.26955 0
M  V30 4896 H 449.009 -5.79145 1.5605 0
M  V30 4897 H 450.688 -6.13911 2.0426 0
M  V30 4898 N 450.82 -0.546701 -1.47814 0
M  V30 4899 C 452.05 -0.0232519 -2.06587 0
M  V30 4900 C 452.458 1.2712 -1.40133 0
M  V30 4901 O 451.801 1.77091 -0.488305 0
M  V30 4902 C 451.863 0.254117 -3.58601 0
M  V30 4903 C 451.527 -0.949331 -4.47031 0
M  V30 4904 C 452.524 -1.85216 -4.85789 0
M  V30 4905 C 450.209 -1.16104 -4.88697 0
M  V30 4906 C 452.203 -2.95047 -5.65001 0
M  V30 4907 C 449.89 -2.26247 -5.67676 0
M  V30 4908 C 450.888 -3.1555 -6.05737 0
M  V30 4909 O 450.576 -4.23784 -6.83127 0
M  V30 4910 H 450.308 -0.0380082 -0.674931 0
M  V30 4911 H 452.862 -0.756631 -1.90956 0
M  V30 4912 H 451.092 1.04168 -3.72406 0
M  V30 4913 H 452.781 0.72167 -3.99433 0
M  V30 4914 H 453.547 -1.70061 -4.54207 0
M  V30 4915 H 449.426 -0.475159 -4.58545 0
M  V30 4916 H 452.97 -3.64778 -5.94628 0
M  V30 4917 H 448.867 -2.41379 -5.98671 0
M  V30 4918 H 449.635 -4.21701 -7.01506 0
M  V30 4919 N 452.299 1.55045 -0.282633 0
M  V30 4920 C 453.547 1.99365 0.331334 0
M  V30 4921 C 453.868 1.1725 1.55812 0
M  V30 4922 O 453.138 0.263871 1.94115 0
M  V30 4923 H 451.718 0.736397 0.125414 0
M  V30 4924 H 454.38 1.90964 -0.389711 0
M  V30 4925 H 453.476 3.0596 0.616036 0
M  V30 4926 N 453.777 0.010035 1.57597 0
M  V30 4927 C 455.023 -0.673697 1.91283 0
M  V30 4928 C 455.356 -1.72863 0.884979 0
M  V30 4929 O 454.631 -1.94268 -0.0949487 0
M  V30 4930 C 454.914 -1.30766 3.35518 0
M  V30 4931 C 454.767 -0.263578 4.49027 0
M  V30 4932 C 456.086 -2.23105 3.79358 0
M  V30 4933 H 453.205 -0.243439 0.695634 0
M  V30 4934 H 455.847 0.0633864 1.89894 0
M  V30 4935 H 453.997 -1.93588 3.36832 0
M  V30 4936 H 455.669 0.365738 4.59848 0
M  V30 4937 H 453.912 0.413077 4.31829 0
M  V30 4938 H 454.583 -0.746398 5.4693 0
M  V30 4939 H 457.059 -1.70289 3.79659 0
M  V30 4940 H 455.935 -2.64424 4.81011 0
M  V30 4941 H 456.196 -3.11433 3.13787 0
M  V30 4942 N 455.255 -1.55392 -0.262866 0
M  V30 4943 C 456.504 -1.75679 -0.990943 0
M  V30 4944 C 456.817 -0.57097 -1.87081 0
M  V30 4945 O 458.023 -0.656486 -2.63444 0
M  V30 4946 C 456.479 -3.10964 -1.81188 0
M  V30 4947 C 456.087 -4.37146 -0.980188 0
M  V30 4948 C 457.831 -3.40597 -2.53365 0
M  V30 4949 C 455.738 -5.63466 -1.7961 0
M  V30 4950 H 454.668 -0.654868 -0.373716 0
M  V30 4951 H 457.319 -1.81841 -0.246203 0
M  V30 4952 H 455.701 -2.98867 -2.59797 0
M  V30 4953 H 456.875 -4.60187 -0.237558 0
M  V30 4954 H 455.19 -4.14731 -0.372497 0
M  V30 4955 H 457.787 -4.32186 -3.14833 0
M  V30 4956 H 458.13 -2.6119 -3.24169 0
M  V30 4957 H 458.663 -3.53838 -1.81779 0
M  V30 4958 H 455.402 -6.4565 -1.13209 0
M  V30 4959 H 454.922 -5.44552 -2.51443 0
M  V30 4960 H 456.601 -6.02139 -2.36723 0
M  V30 4961 N 456.733 0.527833 -1.48498 0
M  V30 4962 C 458.01 1.28905 -1.47115 0
M  V30 4963 C 458.39 2.10297 -0.184007 0
M  V30 4964 O 457.738 2.12728 0.834218 0
M  V30 4965 C 457.948 2.16866 -2.73441 0
M  V30 4966 C 459.296 2.76936 -3.21857 0
M  V30 4967 O 460.32 2.27152 -2.74373 0
M  V30 4968 O 459.179 3.67496 -4.04486 0
M  V30 4969 H 456.273 0.581918 -0.587623 0
M  V30 4970 H 458.819 0.544311 -1.60734 0
M  V30 4971 H 457.591 1.56521 -3.58632 0
M  V30 4972 H 457.214 2.98583 -2.62553 0
M  V30 4973 N 458.211 1.37122 0.776871 0
M  V30 4974 C 459.439 1.3523 1.5659 0
M  V30 4975 C 459.854 -0.0635518 1.88693 0
M  V30 4976 O 459.211 -1.02394 1.51069 0
M  V30 4977 C 459.262 2.18583 2.8793 0
M  V30 4978 O 458.983 3.5465 2.57206 0
M  V30 4979 C 460.484 2.24612 3.82183 0
M  V30 4980 H 457.704 0.4634 0.485285 0
M  V30 4981 H 460.248 1.80392 0.963266 0
M  V30 4982 H 458.403 1.76943 3.4463 0
M  V30 4983 H 458.817 3.98286 3.41275 0
M  V30 4984 H 460.291 2.87267 4.71361 0
M  V30 4985 H 460.768 1.25309 4.20944 0
M  V30 4986 H 461.374 2.66543 3.31414 0
M  V30 4987 N 459.689 -1.00246 1.21608 0
M  V30 4988 C 461.1 -1.55511 1.03312 0
M  V30 4989 C 461.451 -1.91946 -0.406332 0
M  V30 4990 O 460.576 -1.73753 -1.28992 0
M  V30 4991 C 461.171 -2.82576 1.86913 0
M  V30 4992 C 459.73 -3.34318 1.72941 0
M  V30 4993 C 458.877 -2.07487 1.83968 0
M  V30 4994 H 461.828 -0.824638 1.35593 0
M  V30 4995 H 461.849 -3.54559 1.38087 0
M  V30 4996 H 461.361 -2.56026 2.91672 0
M  V30 4997 H 459.462 -3.65797 0.70877 0
M  V30 4998 H 459.575 -4.05566 2.55055 0
M  V30 4999 H 457.939 -2.20603 1.27304 0
M  V30 5000 H 458.722 -1.83346 2.9024 0
M  V30 5001 N 461.167 -1.02423 -1.1978 0
M  V30 5002 C 462.407 -0.726635 -1.91048 0
M  V30 5003 C 462.771 0.730947 -1.77542 0
M  V30 5004 O 463.972 1.14141 -2.43362 0
M  V30 5005 C 462.243 -1.15964 -3.38064 0
M  V30 5006 S 463.802 -0.985172 -4.27598 0
M  V30 5007 H 460.62 -0.264679 -0.659899 0
M  V30 5008 H 463.222 -1.31309 -1.44838 0
M  V30 5009 H 461.926 -2.21619 -3.45417 0
M  V30 5010 H 461.457 -0.566274 -3.89303 0
M  V30 5011 H 463.472 0.106946 -4.96085 0
M  V30 5012 N 462.645 1.35699 -0.801477 0
M  V30 5013 C 463.891 1.99643 -0.389135 0
M  V30 5014 C 464.246 1.62447 1.03095 0
M  V30 5015 O 463.539 0.875064 1.7045 0
M  V30 5016 C 463.733 3.53828 -0.504041 0
M  V30 5017 C 463.562 4.06 -1.93375 0
M  V30 5018 C 462.332 4.35592 -2.561 0
M  V30 5019 C 464.53 4.24905 -2.89759 0
M  V30 5020 N 462.512 4.73663 -3.90534 0
M  V30 5021 C 463.883 4.65914 -4.09052 0
M  V30 5022 C 465.938 4.07101 -2.86658 0
M  V30 5023 C 464.641 4.90984 -5.25669 0
M  V30 5024 C 466.667 4.33324 -4.02472 0
M  V30 5025 C 466.029 4.74601 -5.20512 0
M  V30 5026 H 462.128 0.758552 -0.19006 0
M  V30 5027 H 464.712 1.64493 -1.04164 0
M  V30 5028 H 462.883 3.88219 0.118437 0
M  V30 5029 H 464.615 4.04645 -0.0667794 0
M  V30 5030 H 461.37 4.25728 -2.07492 0
M  V30 5031 H 461.794 4.96965 -4.59734 0
M  V30 5032 H 466.436 3.74335 -1.96552 0
M  V30 5033 H 464.154 5.22626 -6.1635 0
M  V30 5034 H 467.74 4.21107 -4.01447 0
M  V30 5035 H 466.62 4.94497 -6.08639 0
M  V30 5036 N 464.123 0.554532 1.47522 0
M  V30 5037 C 465.07 -0.19466 2.29978 0
M  V30 5038 C 466.04 -0.910882 1.38896 0
M  V30 5039 O 467.225 -0.907102 1.67858 0
M  V30 5040 C 464.365 -1.22035 3.22802 0
M  V30 5041 C 463.478 -0.510474 4.28973 0
M  V30 5042 C 462.613 -1.52123 5.08952 0
M  V30 5043 C 461.652 -0.796173 6.069 0
M  V30 5044 N 460.789 -1.75363 6.79847 0
M  V30 5045 H 465.629 0.51461 2.93523 0
M  V30 5046 H 463.166 0.265607 1.44682 0
M  V30 5047 H 465.124 -1.8276 3.7504 0
M  V30 5048 H 463.754 -1.89769 2.61127 0
M  V30 5049 H 462.806 0.211234 3.79813 0
M  V30 5050 H 464.118 0.0576503 4.98767 0
M  V30 5051 H 463.272 -2.20207 5.65326 0
M  V30 5052 H 462.011 -2.12327 4.39054 0
M  V30 5053 H 461.016 -0.101388 5.49707 0
M  V30 5054 H 462.241 -0.199911 6.78806 0
M  V30 5055 H 460.187 -2.3443 6.12682 0
M  V30 5056 H 460.104 -1.23759 7.45801 0
M  V30 5057 H 461.372 -2.4257 7.40797 0
M  V30 5058 N 465.601 -1.54893 0.290851 0
M  V30 5059 C 466.531 -2.26103 -0.583084 0
M  V30 5060 C 467.512 -1.25684 -1.14619 0
M  V30 5061 O 468.697 -1.54436 -1.17741 0
M  V30 5062 C 465.827 -2.99409 -1.75987 0
M  V30 5063 C 464.781 -4.0689 -1.32758 0
M  V30 5064 C 464.107 -4.67856 -2.58872 0
M  V30 5065 C 465.407 -5.20215 -0.46624 0
M  V30 5066 H 467.101 -2.99398 0.0108214 0
M  V30 5067 H 464.647 -1.43998 0.00664468 0
M  V30 5068 H 466.6 -3.47943 -2.37727 0
M  V30 5069 H 465.324 -2.23675 -2.37985 0
M  V30 5070 H 463.983 -3.59191 -0.733299 0
M  V30 5071 H 463.631 -3.88772 -3.19163 0
M  V30 5072 H 463.331 -5.40438 -2.30653 0
M  V30 5073 H 464.855 -5.19147 -3.21433 0
M  V30 5074 H 466.269 -5.64704 -0.989047 0
M  V30 5075 H 464.666 -5.99455 -0.27826 0
M  V30 5076 H 465.736 -4.82198 0.511173 0
M  V30 5077 N 467.08 -0.0183926 -1.57589 0
M  V30 5078 C 468.03 0.975944 -2.06057 0
M  V30 5079 C 469.014 1.29204 -0.958908 0
M  V30 5080 O 470.206 1.27995 -1.22255 0
M  V30 5081 C 467.335 2.26194 -2.58247 0
M  V30 5082 C 466.421 1.97467 -3.75323 0
M  V30 5083 N 466.812 1.38968 -4.86335 0
M  V30 5084 C 465.11 2.27515 -3.83605 0
M  V30 5085 C 465.811 1.27131 -5.67638 0
M  V30 5086 N 464.787 1.76319 -5.14211 0
M  V30 5087 H 468.589 0.518444 -2.89291 0
M  V30 5088 H 466.103 0.18688 -1.61321 0
M  V30 5089 H 468.1 2.98289 -2.91255 0
M  V30 5090 H 466.76 2.7258 -1.76438 0
M  V30 5091 H 467.771 1.06608 -5.06809 0
M  V30 5092 H 464.448 2.76649 -3.12684 0
M  V30 5093 H 465.838 0.819882 -6.66879 0
M  V30 5094 N 468.558 1.5553 0.254621 0
M  V30 5095 C 469.786 1.81046 1.00149 0
M  V30 5096 C 470.201 0.593047 1.79244 0
M  V30 5097 O 469.558 -0.438196 1.77161 0
M  V30 5098 C 469.609 3.04684 1.94551 0
M  V30 5099 O 469.33 4.21725 1.18658 0
M  V30 5100 C 470.831 3.42943 2.80901 0
M  V30 5101 H 468.051 0.602653 0.295044 0
M  V30 5102 H 470.595 2.02576 0.279842 0
M  V30 5103 H 468.75 2.85226 2.62154 0
M  V30 5104 H 469.164 4.91746 1.82445 0
M  V30 5105 H 470.638 4.32576 3.42902 0
M  V30 5106 H 471.115 2.63176 3.51617 0
M  V30 5107 H 471.721 3.64724 2.18762 0
M  V30 5108 N 470.036 -0.519951 1.48776 0
M  V30 5109 C 471.261 -1.30447 1.6124 0
M  V30 5110 C 471.686 -1.86055 0.276591 0
M  V30 5111 O 471.044 -1.64915 -0.753183 0
M  V30 5112 C 471.092 -2.42406 2.66967 0
M  V30 5113 O 470.196 -3.45728 2.24824 0
M  V30 5114 H 469.537 -0.385924 0.540332 0
M  V30 5115 H 472.067 -0.624572 1.94834 0
M  V30 5116 H 472.077 -2.88447 2.88552 0
M  V30 5117 H 470.752 -2.01294 3.63941 0
M  V30 5118 H 469.329 -3.05737 2.13494 0
M  V30 5119 N 471.514 -1.37532 -0.769588 0
M  V30 5120 C 472.925 -1.29382 -1.346 0
M  V30 5121 C 473.276 0.0576039 -1.96115 0
M  V30 5122 O 472.401 0.95947 -1.93967 0
M  V30 5123 C 472.996 -2.34298 -2.44724 0
M  V30 5124 C 471.555 -2.29776 -2.98128 0
M  V30 5125 C 470.702 -2.18013 -1.71364 0
M  V30 5126 H 473.653 -1.48123 -0.56968 0
M  V30 5127 H 473.674 -1.99089 -3.24259 0
M  V30 5128 H 473.186 -3.32645 -1.99922 0
M  V30 5129 H 471.287 -1.34959 -3.47299 0
M  V30 5130 H 471.4 -3.23276 -3.53595 0
M  V30 5131 H 469.764 -1.64595 -1.94372 0
M  V30 5132 H 470.547 -3.18278 -1.28662 0
M  V30 5133 N 472.992 0.995999 -1.22138 0
M  V30 5134 C 473.922 2.10387 -1.01289 0
M  V30 5135 C 474.903 1.69975 0.0651454 0
M  V30 5136 O 476.088 1.9396 -0.0964628 0
M  V30 5137 C 473.218 3.42312 -0.586517 0
M  V30 5138 C 472.172 3.96558 -1.61014 0
M  V30 5139 C 471.498 5.24494 -1.0397 0
M  V30 5140 C 472.798 4.27595 -2.99933 0
M  V30 5141 H 474.492 2.28086 -1.93951 0
M  V30 5142 H 472.038 1.09607 -0.933928 0
M  V30 5143 H 473.991 4.19223 -0.427793 0
M  V30 5144 H 472.715 3.24431 0.375761 0
M  V30 5145 H 471.374 3.21776 -1.75658 0
M  V30 5146 H 471.022 5.02953 -0.0688703 0
M  V30 5147 H 470.722 5.61755 -1.72352 0
M  V30 5148 H 472.246 6.04042 -0.892494 0
M  V30 5149 H 473.66 4.95315 -2.8868 0
M  V30 5150 H 472.057 4.76021 -3.6541 0
M  V30 5151 H 473.127 3.35498 -3.50099 0
M  V30 5152 N 474.47 1.03057 1.19235 0
M  V30 5153 C 475.71 0.736757 1.9066 0
M  V30 5154 C 476.074 -0.721521 1.77927 0
M  V30 5155 O 477.275 -1.12849 2.43964 0
M  V30 5156 C 475.546 1.17755 3.37444 0
M  V30 5157 S 477.105 1.00783 4.27069 0
M  V30 5158 H 473.923 0.268174 0.658486 0
M  V30 5159 H 476.525 1.32076 1.4414 0
M  V30 5160 H 475.229 2.23448 3.44237 0
M  V30 5161 H 474.76 0.586912 3.88997 0
M  V30 5162 H 476.775 -0.0806356 4.96134 0
M  V30 5163 N 475.948 -1.35272 0.808662 0
M  V30 5164 C 477.176 -2.02946 0.402537 0
M  V30 5165 C 477.591 -1.60937 -0.987147 0
M  V30 5166 O 476.948 -0.807917 -1.63643 0
M  V30 5167 C 476.999 -3.58317 0.47868 0
M  V30 5168 O 476.72 -3.98799 1.81358 0
M  V30 5169 C 478.221 -4.43251 0.0656281 0
M  V30 5170 H 475.441 -0.650831 0.163279 0
M  V30 5171 H 477.985 -1.72849 1.09286 0
M  V30 5172 H 476.14 -3.87055 -0.163415 0
M  V30 5173 H 476.554 -4.93451 1.77781 0
M  V30 5174 H 478.028 -5.51738 0.170017 0
M  V30 5175 H 478.505 -4.27913 -0.989278 0
M  V30 5176 H 479.111 -4.19813 0.68096 0
M  V30 5177 N 477.426 -0.562348 -1.47226 0
M  V30 5178 C 478.654 -0.0452275 -2.06851 0
M  V30 5179 C 479.069 1.25078 -1.41424 0
M  V30 5180 O 478.426 1.75156 -0.512513 0
M  V30 5181 C 478.477 0.148674 -3.61194 0
M  V30 5182 O 478.198 -1.09602 -4.24169 0
M  V30 5183 C 479.699 0.702488 -4.37699 0
M  V30 5184 H 476.919 -0.0481775 -0.669268 0
M  V30 5185 H 479.463 -0.777223 -1.89155 0
M  V30 5186 H 477.618 0.830817 -3.78386 0
M  V30 5187 H 478.032 -0.896982 -5.16773 0
M  V30 5188 H 479.506 0.78743 -5.46355 0
M  V30 5189 H 479.983 1.71493 -4.04335 0
M  V30 5190 H 480.589 0.0558772 -4.25263 0
M  V30 5191 N 478.904 1.54736 -0.299062 0
M  V30 5192 C 479.852 2.24897 0.593658 0
M  V30 5193 C 480.846 1.25429 1.13859 0
M  V30 5194 O 482.052 1.43286 1.08945 0
M  V30 5195 H 478.427 0.72207 0.210046 0
M  V30 5196 H 480.398 2.98393 -0.0206421 0
M  V30 5197 C 479.147 3.00159 1.75499 0
M  V30 5198 H 478.47 3.76501 1.34489 0
M  V30 5199 H 479.91 3.52535 2.35574 0
M  V30 5200 C 478.369 2.07015 2.65794 0
M  V30 5201 O 478.899 1.63692 3.66835 0
M  V30 5202 N 477.105 1.73012 2.33485 0
M  V30 5203 H 476.652 2.08439 1.51364 0
M  V30 5204 H 476.61 1.10965 2.94167 0
M  V30 5205 N 480.382 0.0267497 1.57577 0
M  V30 5206 C 481.631 -0.651736 1.9088 0
M  V30 5207 C 481.944 -1.73427 0.904576 0
M  V30 5208 O 483.15 -2.46923 1.12877 0
M  V30 5209 C 481.606 -1.21048 3.38933 0
M  V30 5210 C 481.214 -0.161362 4.47709 0
M  V30 5211 C 482.958 -1.86562 3.81307 0
M  V30 5212 C 480.865 -0.731611 5.86857 0
M  V30 5213 H 479.795 -0.247198 0.712326 0
M  V30 5214 H 482.446 0.0916641 1.83271 0
M  V30 5215 H 480.828 -2.00542 3.41466 0
M  V30 5216 H 482.002 0.61094 4.56732 0
M  V30 5217 H 480.317 0.394877 4.14523 0
M  V30 5218 H 482.914 -2.30178 4.8262 0
M  V30 5219 H 483.257 -2.70735 3.16241 0
M  V30 5220 H 483.79 -1.13762 3.81186 0
M  V30 5221 H 480.529 0.0719329 6.55461 0
M  V30 5222 H 480.049 -1.47245 5.81445 0
M  V30 5223 H 481.728 -1.22208 6.35354 0
M  V30 5224 N 481.861 -1.55662 -0.24637 0
M  V30 5225 C 482.808 -1.90361 -1.30504 0
M  V30 5226 C 483.778 -0.757905 -1.47801 0
M  V30 5227 O 484.963 -1.01161 -1.61775 0
M  V30 5228 C 482.103 -2.2042 -2.65535 0
M  V30 5229 C 481.216 -3.47799 -2.56242 0
M  V30 5230 C 480.351 -3.67426 -3.8363 0
M  V30 5231 C 479.39 -4.88403 -3.68956 0
M  V30 5232 N 478.527 -5.04548 -4.88237 0
M  V30 5233 H 483.367 -2.80645 -1.00213 0
M  V30 5234 H 480.904 -1.38924 -0.483577 0
M  V30 5235 H 482.862 -2.35853 -3.44135 0
M  V30 5236 H 481.492 -1.3334 -2.93973 0
M  V30 5237 H 480.544 -3.40694 -1.69208 0
M  V30 5238 H 481.856 -4.36544 -2.4131 0
M  V30 5239 H 481.01 -3.82821 -4.70673 0
M  V30 5240 H 479.749 -2.76914 -4.01459 0
M  V30 5241 H 478.754 -4.72984 -2.80296 0
M  V30 5242 H 479.979 -5.80375 -3.52621 0
M  V30 5243 H 477.925 -4.16974 -5.06427 0
M  V30 5244 H 477.842 -5.87384 -4.75937 0
M  V30 5245 H 479.11 -5.24355 -5.76777 0
M  V30 5246 N 483.339 0.512053 -1.4905 0
M  V30 5247 C 484.249 1.64139 -1.67617 0
M  V30 5248 C 485.265 1.64786 -0.558701 0
M  V30 5249 O 486.441 1.8341 -0.832034 0
M  V30 5250 C 483.506 3.00548 -1.72835 0
M  V30 5251 C 482.567 3.10615 -2.96339 0
M  V30 5252 C 481.8 4.40517 -3.01298 0
M  V30 5253 O 482.023 5.28671 -2.14157 0
M  V30 5254 O 480.957 4.55325 -3.93653 0
M  V30 5255 H 484.783 1.51407 -2.63267 0
M  V30 5256 H 482.368 0.687131 -1.32661 0
M  V30 5257 H 484.25 3.81641 -1.78683 0
M  V30 5258 H 482.925 3.13566 -0.803616 0
M  V30 5259 H 481.832 2.2875 -2.96014 0
M  V30 5260 H 483.165 3.0252 -3.88256 0
M  V30 5261 N 484.817 1.37938 0.762283 0
M  V30 5262 C 486.065 1.33404 1.51815 0
M  V30 5263 C 486.386 -0.0780975 1.94844 0
M  V30 5264 O 485.656 -1.02405 1.67003 0
M  V30 5265 H 484.236 0.490839 0.563104 0
M  V30 5266 H 486.898 1.72527 0.906669 0
M  V30 5267 H 485.994 1.97926 2.41313 0
M  V30 5268 N 486.295 -0.989507 1.22664 0
M  V30 5269 C 487.52 -1.77031 1.08051 0
M  V30 5270 C 487.945 -1.84535 -0.364483 0
M  V30 5271 O 487.303 -1.3003 -1.2634 0
M  V30 5272 C 487.351 -3.18 1.70024 0
M  V30 5273 O 486.455 -4.01161 0.956216 0
M  V30 5274 H 485.796 -0.545008 0.379292 0
M  V30 5275 H 488.326 -1.24277 1.62531 0
M  V30 5276 H 488.336 -3.68616 1.74888 0
M  V30 5277 H 487.011 -3.11853 2.75174 0
M  V30 5278 H 485.588 -3.59687 0.98384 0
M  V30 5279 N 487.773 -1.03688 -1.18687 0
M  V30 5280 C 488.721 -0.618292 -2.24232 0
M  V30 5281 C 489.715 0.353045 -1.6568 0
M  V30 5282 O 490.921 0.220749 -1.78641 0
M  V30 5283 H 487.296 -0.181711 -0.729716 0
M  V30 5284 H 489.267 -1.51893 -2.56848 0
M  V30 5285 C 488.016 0.00677342 -3.47699 0
M  V30 5286 H 487.339 -0.731692 -3.93047 0
M  V30 5287 H 488.779 0.262492 -4.23187 0
M  V30 5288 C 487.238 1.25572 -3.12623 0
M  V30 5289 O 487.768 2.34691 -3.26011 0
M  V30 5290 N 485.974 1.14755 -2.66982 0
M  V30 5291 H 485.521 0.259601 -2.56289 0
M  V30 5292 H 485.479 1.98412 -2.43885 0
M  V30 5293 N 489.251 1.34841 -0.815825 0
M  V30 5294 C 490.5 1.97755 -0.396976 0
M  V30 5295 C 490.813 1.65422 1.04379 0
M  V30 5296 O 492.019 2.21771 1.5662 0
M  V30 5297 C 490.475 3.53818 -0.658869 0
M  V30 5298 C 490.083 3.95051 -2.11278 0
M  V30 5299 C 491.827 4.23397 -0.305834 0
M  V30 5300 C 489.734 5.43997 -2.31994 0
M  V30 5301 H 488.664 0.739985 -0.1447 0
M  V30 5302 H 491.315 1.53781 -1.00118 0
M  V30 5303 H 489.697 3.95997 0.0154112 0
M  V30 5304 H 490.871 3.63998 -2.82564 0
M  V30 5305 H 489.186 3.38388 -2.42657 0
M  V30 5306 H 491.783 5.32899 -0.43854 0
M  V30 5307 H 492.126 4.09508 0.748952 0
M  V30 5308 H 492.659 3.8667 -0.934403 0
M  V30 5309 H 489.398 5.62865 -3.35952 0
M  V30 5310 H 488.918 5.76589 -1.65244 0
M  V30 5311 H 490.597 6.10584 -2.14001 0
M  V30 5312 N 490.729 0.570148 1.46925 0
M  V30 5313 C 491.969 0.0534743 2.0433 0
M  V30 5314 C 492.333 -1.27729 1.4335 0
M  V30 5315 O 493.534 -1.88244 1.91879 0
M  V30 5316 C 491.805 -0.0244296 3.57392 0
M  V30 5317 S 493.364 -0.485351 4.36108 0
M  V30 5318 H 490.182 0.0313908 0.710307 0
M  V30 5319 H 492.784 0.759808 1.80131 0
M  V30 5320 H 491.488 0.948261 3.99295 0
M  V30 5321 H 491.019 -0.753922 3.86108 0
M  V30 5322 H 493.034 -1.74258 4.64595 0
M  V30 5323 N 492.207 -1.54576 0.307264 0
M  V30 5324 C 493.137 -2.26708 -0.55907 0
M  V30 5325 C 494.118 -1.26893 -1.1328 0
M  V30 5326 O 495.303 -1.55677 -1.16097 0
M  V30 5327 C 492.433 -3.01259 -1.72801 0
M  V30 5328 C 491.387 -4.08275 -1.28435 0
M  V30 5329 C 490.713 -4.70575 -2.53895 0
M  V30 5330 C 492.013 -5.2068 -0.411038 0
M  V30 5331 H 493.707 -2.9937 0.042576 0
M  V30 5332 H 491.253 -1.43983 0.0219173 0
M  V30 5333 H 493.206 -3.50444 -2.34023 0
M  V30 5334 H 491.93 -2.26187 -2.356 0
M  V30 5335 H 490.589 -3.59949 -0.695161 0
M  V30 5336 H 490.237 -3.92136 -3.15021 0
M  V30 5337 H 489.937 -5.42854 -2.24908 0
M  V30 5338 H 491.461 -5.22527 -3.15908 0
M  V30 5339 H 492.875 -5.65721 -0.929097 0
M  V30 5340 H 491.272 -5.99716 -0.214664 0
M  V30 5341 H 492.342 -4.81629 0.562287 0
M  V30 5342 N 493.685 -0.035106 -1.57561 0
M  V30 5343 C 494.913 0.652258 -1.9635 0
M  V30 5344 C 495.328 1.65317 -0.911897 0
M  V30 5345 O 494.685 1.82194 0.105657 0
M  V30 5346 C 494.736 1.35337 -3.35211 0
M  V30 5347 O 494.457 0.392548 -4.36338 0
M  V30 5348 C 495.958 2.13199 -3.88666 0
M  V30 5349 H 493.178 0.179444 -0.646561 0
M  V30 5350 H 495.722 -0.0966459 -2.04271 0
M  V30 5351 H 493.877 2.05362 -3.28489 0
M  V30 5352 H 494.291 0.891097 -5.16875 0
M  V30 5353 H 495.765 2.577 -4.88154 0
M  V30 5354 H 496.242 2.97353 -3.23231 0
M  V30 5355 H 496.848 1.48118 -3.98674 0
M  V30 5356 N 495.163 1.55791 0.238111 0
M  V30 5357 C 496.579 1.48411 0.587045 0
M  V30 5358 C 496.779 0.72702 1.87927 0
M  V30 5359 O 495.835 0.259942 2.51158 0
M  V30 5360 C 497.148 2.92873 0.681623 0
M  V30 5361 C 498.696 3.03295 0.773363 0
M  V30 5362 C 499.171 4.49082 0.899428 0
M  V30 5363 N 500.662 4.53056 0.964075 0
M  V30 5364 C 501.397 5.63117 1.08104 0
M  V30 5365 N 500.893 6.82969 1.16299 0
M  V30 5366 N 502.686 5.50933 1.11488 0
M  V30 5367 H 494.837 2.0345 -0.610076 0
M  V30 5368 H 497.1 0.924034 -0.211813 0
M  V30 5369 H 496.806 3.51142 -0.19802 0
M  V30 5370 H 496.68 3.43851 1.55069 0
M  V30 5371 H 499.067 2.45101 1.64346 0
M  V30 5372 H 499.148 2.55513 -0.121034 0
M  V30 5373 H 498.792 5.07889 0.0338586 0
M  V30 5374 H 498.722 4.94553 1.809 0
M  V30 5375 H 501.213 3.66737 0.91173 0
M  V30 5376 H 501.526 7.62598 1.25155 0
M  V30 5377 H 499.871 6.85712 1.13241 0
M  V30 5378 H 503.062 4.56231 1.0474 0
M  V30 5379 H 503.235 6.36743 1.20259 0
M  V30 5380 N 496.642 -0.504142 1.49319 0
M  V30 5381 C 497.87 -1.28256 1.62351 0
M  V30 5382 C 498.285 -1.86502 0.293682 0
M  V30 5383 O 497.642 -1.67678 -0.720449 0
M  V30 5384 C 497.693 -2.41507 2.68992 0
M  V30 5385 O 497.414 -1.85656 3.96817 0
M  V30 5386 C 498.915 -3.32929 2.927 0
M  V30 5387 H 496.135 -0.389115 0.546654 0
M  V30 5388 H 498.679 -0.605531 1.95329 0
M  V30 5389 H 496.834 -3.05046 2.38801 0
M  V30 5390 H 497.248 -2.59981 4.55533 0
M  V30 5391 H 498.722 -4.0868 3.71058 0
M  V30 5392 H 499.199 -3.89733 2.02496 0
M  V30 5393 H 499.805 -2.75158 3.24296 0
M  V30 5394 N 498.12 -1.38341 -0.754957 0
M  V30 5395 C 499.397 -1.24995 -1.50451 0
M  V30 5396 C 499.777 0.149244 -2.10572 0
M  V30 5397 O 499.125 1.15861 -1.96948 0
M  V30 5398 C 499.335 -2.35904 -2.57197 0
M  V30 5399 C 500.683 -2.74262 -3.24138 0
M  V30 5400 O 501.707 -2.35205 -2.67501 0
M  V30 5401 O 500.566 -3.4161 -4.26574 0
M  V30 5402 H 497.66 -0.48872 -0.667144 0
M  V30 5403 H 500.206 -1.50165 -0.790486 0
M  V30 5404 H 498.978 -3.2953 -2.11011 0
M  V30 5405 H 498.601 -2.12291 -3.36182 0
M  V30 5406 N 499.598 0.982988 -1.23187 0
M  V30 5407 C 501.014 1.2487 -0.993967 0
M  V30 5408 C 501.214 1.99155 0.306498 0
M  V30 5409 O 500.27 2.30688 1.0266 0
M  V30 5410 C 501.583 2.05078 -2.19917 0
M  V30 5411 C 503.131 2.18227 -2.2438 0
M  V30 5412 C 503.606 3.01825 -3.44479 0
M  V30 5413 N 505.097 3.09411 -3.44702 0
M  V30 5414 C 505.832 3.74412 -4.34285 0
M  V30 5415 N 505.328 4.41259 -5.341 0
M  V30 5416 N 507.121 3.71273 -4.22035 0
M  V30 5417 H 499.272 0.485253 -2.06783 0
M  V30 5418 H 501.535 0.276979 -0.906635 0
M  V30 5419 H 501.241 1.57867 -3.14279 0
M  V30 5420 H 501.115 3.05829 -2.2079 0
M  V30 5421 H 503.502 2.64648 -1.30559 0
M  V30 5422 H 503.583 1.16873 -2.2754 0
M  V30 5423 H 503.227 2.56102 -4.38605 0
M  V30 5424 H 503.157 4.03342 -3.38559 0
M  V30 5425 H 505.648 2.61845 -2.7248 0
M  V30 5426 H 505.961 4.88629 -5.98717 0
M  V30 5427 H 504.306 4.39975 -5.38002 0
M  V30 5428 H 507.497 3.18217 -3.43301 0
M  V30 5429 H 507.67 4.21649 -4.92053 0
M  V30 5430 N 501.076 1.04316 1.18135 0
M  V30 5431 C 502.324 0.746542 1.87806 0
M  V30 5432 C 502.645 -0.728082 1.80898 0
M  V30 5433 O 501.915 -1.52554 1.22899 0
M  V30 5434 H 500.495 0.273157 0.695265 0
M  V30 5435 H 503.157 1.32044 1.43354 0
M  V30 5436 H 502.253 1.05362 2.93778 0
M  V30 5437 N 502.554 -1.34406 0.822964 0
M  V30 5438 C 503.8 -1.98999 0.420847 0
M  V30 5439 C 504.155 -1.64067 -1.00498 0
M  V30 5440 O 503.448 -0.902071 -1.69036 0
M  V30 5441 C 503.642 -3.52981 0.560268 0
M  V30 5442 C 503.471 -4.02873 1.99809 0
M  V30 5443 C 502.241 -4.31463 2.62998 0
M  V30 5444 C 504.439 -4.20241 2.96483 0
M  V30 5445 N 502.421 -4.6739 3.9802 0
M  V30 5446 C 503.792 -4.59348 4.16413 0
M  V30 5447 C 505.847 -4.02489 2.93098 0
M  V30 5448 C 504.55 -4.82559 5.33413 0
M  V30 5449 C 506.576 -4.26866 4.09315 0
M  V30 5450 C 505.938 -4.6626 5.27997 0
M  V30 5451 H 502.037 -0.755432 0.202104 0
M  V30 5452 H 504.621 -1.62815 1.06767 0
M  V30 5453 H 502.792 -3.88359 -0.0566596 0
M  V30 5454 H 504.524 -4.04487 0.131146 0
M  V30 5455 H 501.279 -4.22373 2.14238 0
M  V30 5456 H 501.703 -4.89588 4.67582 0
M  V30 5457 H 506.345 -3.71161 2.02483 0
M  V30 5458 H 504.063 -5.12754 6.24587 0
M  V30 5459 H 507.649 -4.14667 4.08096 0
M  V30 5460 H 506.529 -4.84752 6.16429 0
M  V30 5461 N 504.032 -0.577932 -1.46621 0
M  V30 5462 C 505.262 -0.0670668 -2.06491 0
M  V30 5463 C 505.67 1.24119 -1.42798 0
M  V30 5464 O 505.013 1.76016 -0.525759 0
M  V30 5465 C 505.075 0.177995 -3.59059 0
M  V30 5466 C 504.739 -1.04394 -4.44917 0
M  V30 5467 C 505.736 -1.95479 -4.81751 0
M  V30 5468 C 503.421 -1.26444 -4.86125 0
M  V30 5469 C 505.415 -3.06965 -5.58615 0
M  V30 5470 C 503.102 -2.38237 -5.62749 0
M  V30 5471 C 504.1 -3.28327 -5.98908 0
M  V30 5472 O 503.788 -4.38179 -6.73984 0
M  V30 5473 H 503.52 -0.0523159 -0.673973 0
M  V30 5474 H 506.074 -0.796966 -1.89308 0
M  V30 5475 H 504.304 0.962451 -3.74531 0
M  V30 5476 H 505.993 0.636782 -4.00874 0
M  V30 5477 H 506.759 -1.79657 -4.50498 0
M  V30 5478 H 502.638 -0.572316 -4.57434 0
M  V30 5479 H 506.182 -3.77309 -5.86757 0
M  V30 5480 H 502.079 -2.54023 -5.93416 0
M  V30 5481 H 502.847 -4.36486 -6.92403 0
M  V30 5482 N 505.51 1.54411 -0.315457 0
M  V30 5483 C 506.75 2.02329 0.290236 0
M  V30 5484 C 507.114 1.19878 1.49977 0
M  V30 5485 O 508.315 1.57562 2.17779 0
M  V30 5486 C 506.586 3.51912 0.623937 0
M  V30 5487 S 508.145 4.21775 1.21044 0
M  V30 5488 H 504.963 0.705499 0.0882739 0
M  V30 5489 H 507.565 1.90328 -0.446694 0
M  V30 5490 H 506.269 4.09546 -0.264624 0
M  V30 5491 H 505.8 3.67977 1.39128 0
M  V30 5492 H 507.815 4.28757 2.49764 0
M  V30 5493 N 506.988 0.0434614 1.5754 0
M  V30 5494 C 508.265 -0.671479 1.83713 0
M  V30 5495 C 508.645 -1.89495 0.930315 0
M  V30 5496 O 507.993 -2.28498 -0.0105639 0
M  V30 5497 C 508.203 -1.0361 3.33266 0
M  V30 5498 C 509.551 -1.42167 4.00092 0
M  V30 5499 O 510.575 -1.12866 3.37846 0
M  V30 5500 O 509.434 -1.96817 5.09829 0
M  V30 5501 H 506.528 -0.330726 0.75799 0
M  V30 5502 H 509.074 0.0722373 1.69546 0
M  V30 5503 H 507.846 -0.165938 3.90948 0
M  V30 5504 H 507.469 -1.83751 3.52592 0
M  V30 5505 N 508.466 -1.55915 -0.229846 0
M  V30 5506 C 509.414 -1.9258 -1.30444 0
M  V30 5507 C 510.408 -0.806839 -1.48951 0
M  V30 5508 O 511.614 -0.991606 -1.50224 0
M  V30 5509 H 507.989 -0.611878 -0.437161 0
M  V30 5510 H 509.96 -2.82264 -0.96797 0
M  V30 5511 C 508.709 -2.25171 -2.6494 0
M  V30 5512 H 508.032 -3.10782 -2.51504 0
M  V30 5513 H 509.472 -2.54716 -3.38963 0
M  V30 5514 C 507.931 -1.07394 -3.19324 0
M  V30 5515 O 508.461 -0.330759 -4.00336 0
M  V30 5516 N 506.667 -0.859984 -2.77584 0
M  V30 5517 H 506.214 -1.46605 -2.11813 0
M  V30 5518 H 506.172 -0.0736671 -3.14314 0
M  V30 5519 N 509.944 0.496216 -1.49584 0
M  V30 5520 C 510.907 1.57952 -1.66084 0
M  V30 5521 C 511.907 1.51729 -0.53244 0
M  V30 5522 O 513.097 1.54796 -0.79899 0
M  V30 5523 C 510.229 2.97604 -1.66268 0
M  V30 5524 H 511.422 1.44649 -2.6271 0
M  V30 5525 H 508.975 0.7208 -1.38687 0
M  V30 5526 H 509.71 3.16378 -0.712432 0
M  V30 5527 H 509.495 3.03528 -2.4822 0
M  V30 5528 H 510.985 3.76301 -1.81073 0
M  V30 5529 N 511.423 1.38739 0.74761 0
M  V30 5530 C 512.671 1.35007 1.50391 0
M  V30 5531 C 512.992 -0.0574274 1.94915 0
M  V30 5532 O 512.262 -1.00628 1.6808 0
M  V30 5533 H 510.842 0.496784 0.557866 0
M  V30 5534 H 513.504 1.73479 0.888319 0
M  V30 5535 H 512.6 2.00474 2.392 0
M  V30 5536 N 512.901 -0.976442 1.23707 0
M  V30 5537 C 514.126 -1.75875 1.09922 0
M  V30 5538 C 514.551 -1.84911 -0.34489 0
M  V30 5539 O 513.909 -1.31363 -1.24954 0
M  V30 5540 C 513.957 -3.16179 1.73388 0
M  V30 5541 O 513.061 -4.00124 0.99871 0
M  V30 5542 H 512.402 -0.540954 0.385052 0
M  V30 5543 H 514.932 -1.22546 1.6384 0
M  V30 5544 H 514.942 -3.66741 1.78788 0
M  V30 5545 H 513.617 -3.08917 2.78466 0
M  V30 5546 H 512.194 -3.58624 1.02193 0
M  V30 5547 N 514.379 -1.04941 -1.1758 0
M  V30 5548 C 515.625 -0.759112 -1.88057 0
M  V30 5549 C 515.958 0.711918 -1.8068 0
M  V30 5550 O 515.233 1.52035 -1.21308 0
M  V30 5551 C 515.516 -1.237 -3.38187 0
M  V30 5552 C 515.369 -2.77078 -3.54327 0
M  V30 5553 C 516.688 -0.834014 -4.32125 0
M  V30 5554 H 513.807 -0.277237 -0.682868 0
M  V30 5555 H 516.449 -1.30296 -1.38286 0
M  V30 5556 H 514.599 -0.774337 -3.80705 0
M  V30 5557 H 516.271 -3.31449 -3.20842 0
M  V30 5558 H 514.514 -3.16477 -2.96689 0
M  V30 5559 H 515.185 -3.05577 -4.59703 0
M  V30 5560 H 517.661 -1.23228 -3.97434 0
M  V30 5561 H 516.537 -1.19603 -5.35711 0
M  V30 5562 H 516.798 0.262195 -4.41322 0
M  V30 5563 N 515.857 1.33968 -0.830081 0
M  V30 5564 C 517.082 2.02813 -0.433796 0
M  V30 5565 C 517.507 1.62076 0.954614 0
M  V30 5566 O 516.865 0.808955 1.62252 0
M  V30 5567 C 516.913 3.56348 -0.552115 0
M  V30 5568 O 516.017 4.10202 0.425191 0
M  V30 5569 H 515.358 0.639817 -0.177567 0
M  V30 5570 H 517.888 1.7106 -1.12248 0
M  V30 5571 H 517.898 4.05722 -0.430513 0
M  V30 5572 H 516.573 3.85344 -1.56471 0
M  V30 5573 H 515.15 3.71979 0.261878 0
M  V30 5574 N 517.335 0.585699 1.46312 0
M  V30 5575 C 518.582 0.0724211 2.0237 0
M  V30 5576 C 518.91 -1.28868 1.45683 0
M  V30 5577 O 518.165 -1.85853 0.612945 0
M  V30 5578 C 518.464 -0.0401312 3.57377 0
M  V30 5579 C 518.13 1.25376 4.33119 0
M  V30 5580 C 516.792 1.60824 4.5353 0
M  V30 5581 C 519.144 2.10987 4.76586 0
M  V30 5582 C 516.472 2.81676 5.14661 0
M  V30 5583 C 518.824 3.31068 5.39052 0
M  V30 5584 C 517.488 3.66794 5.5769 0
M  V30 5585 H 516.758 0.0265007 0.740526 0
M  V30 5586 H 519.405 0.762935 1.75646 0
M  V30 5587 H 517.71 -0.813791 3.83255 0
M  V30 5588 H 519.407 -0.453078 3.98432 0
M  V30 5589 H 515.997 0.967808 4.1753 0
M  V30 5590 H 520.181 1.84904 4.60569 0
M  V30 5591 H 515.437 3.0949 5.27282 0
M  V30 5592 H 519.611 3.97672 5.71691 0
M  V30 5593 H 517.238 4.60529 6.04828 0
M  V30 5594 N 518.813 -1.54241 0.323641 0
M  V30 5595 C 520.06 -2.0057 -0.27891 0
M  V30 5596 C 520.388 -1.21181 -1.52136 0
M  V30 5597 O 519.643 -0.282043 -1.93657 0
M  V30 5598 C 519.942 -3.5129 -0.658031 0
M  V30 5599 C 519.608 -4.48281 0.485252 0
M  V30 5600 C 518.27 -4.74519 0.799055 0
M  V30 5601 C 520.622 -5.05909 1.25322 0
M  V30 5602 C 517.95 -5.55643 1.88354 0
M  V30 5603 C 520.302 -5.88215 2.32779 0
M  V30 5604 C 518.966 -6.12755 2.64741 0
M  V30 5605 H 518.236 -0.733938 -0.10206 0
M  V30 5606 H 520.883 -1.862 0.447435 0
M  V30 5607 H 519.188 -3.63388 -1.4648 0
M  V30 5608 H 520.885 -3.84578 -1.1358 0
M  V30 5609 H 517.475 -4.27979 0.230593 0
M  V30 5610 H 521.659 -4.8562 1.02404 0
M  V30 5611 H 516.915 -5.72888 2.13564 0
M  V30 5612 H 521.089 -6.31888 2.92729 0
M  V30 5613 H 518.716 -6.75404 3.48904 0
M  V30 5614 N 520.291 -0.0518155 -1.57515 0
M  V30 5615 C 521.702 0.483787 -1.80323 0
M  V30 5616 C 522.053 1.70879 -0.964099 0
M  V30 5617 O 521.178 2.15643 -0.180872 0
M  V30 5618 C 521.773 0.884459 -3.27052 0
M  V30 5619 C 520.332 1.36504 -3.50776 0
M  V30 5620 C 519.479 0.340539 -2.75201 0
M  V30 5621 H 522.43 -0.277691 -1.56252 0
M  V30 5622 H 522.451 1.74733 -3.38007 0
M  V30 5623 H 521.963 -0.00731093 -3.88099 0
M  V30 5624 H 520.064 2.27598 -2.95009 0
M  V30 5625 H 520.177 1.35675 -4.59488 0
M  V30 5626 H 518.541 0.81356 -2.41357 0
M  V30 5627 H 519.324 -0.543156 -3.38976 0
M  V30 5628 N 521.769 1.56035 0.221574 0
M  V30 5629 C 522.701 1.889 1.29805 0
M  V30 5630 C 523.714 0.777269 1.43047 0
M  V30 5631 O 524.903 1.05557 1.43945 0
M  V30 5632 C 522.003 2.0825 2.67367 0
M  V30 5633 C 521.176 3.39267 2.76073 0
M  V30 5634 C 520.235 3.48049 3.94649 0
M  V30 5635 O 519.261 4.2108 3.82988 0
M  V30 5636 N 520.463 2.79191 5.08953 0
M  V30 5637 H 523.228 2.81831 1.01938 0
M  V30 5638 H 520.789 1.5658 0.411612 0
M  V30 5639 H 522.781 2.11441 3.45072 0
M  V30 5640 H 521.351 1.21944 2.87834 0
M  V30 5641 H 520.571 3.48175 1.84846 0
M  V30 5642 H 521.859 4.25575 2.7886 0
M  V30 5643 H 521.257 2.19635 5.21322 0
M  V30 5644 H 519.814 2.88043 5.84701 0
M  V30 5645 N 523.247 -0.488276 1.49845 0
M  V30 5646 C 524.21 -1.57069 1.66919 0
M  V30 5647 C 525.21 -1.51445 0.540479 0
M  V30 5648 O 526.4 -1.5437 0.807188 0
M  V30 5649 C 523.532 -2.96718 1.67844 0
M  V30 5650 H 524.725 -1.43254 2.63474 0
M  V30 5651 H 522.278 -0.713435 1.39068 0
M  V30 5652 H 523.013 -3.15996 0.7292 0
M  V30 5653 H 522.798 -3.02208 2.49826 0
M  V30 5654 H 524.288 -3.75335 1.83066 0
M  V30 5655 N 524.725 -1.39134 -0.740242 0
M  V30 5656 C 526.002 -1.26584 -1.49117 0
M  V30 5657 C 526.382 0.126902 -2.10718 0
M  V30 5658 O 525.73 1.13765 -1.98166 0
M  V30 5659 C 525.94 -2.38619 -2.54681 0
M  V30 5660 C 527.288 -2.77685 -3.21211 0
M  V30 5661 O 528.312 -2.38029 -2.64991 0
M  V30 5662 O 527.171 -3.46115 -4.22926 0
M  V30 5663 H 524.265 -0.495769 -0.661923 0
M  V30 5664 H 526.811 -1.50995 -0.774514 0
M  V30 5665 H 525.583 -3.3175 -2.07504 0
M  V30 5666 H 525.206 -2.15845 -3.33911 0
M  V30 5667 N 526.204 0.969867 -1.24223 0
M  V30 5668 C 527.432 1.74756 -1.10761 0
M  V30 5669 C 527.847 1.85713 0.340041 0
M  V30 5670 O 527.204 1.34389 1.23474 0
M  V30 5671 C 527.255 3.16915 -1.73917 0
M  V30 5672 O 526.976 3.06511 -3.13021 0
M  V30 5673 C 528.477 4.11032 -1.66036 0
M  V30 5674 H 525.697 0.548092 -0.387087 0
M  V30 5675 H 528.241 1.2178 -1.64286 0
M  V30 5676 H 526.396 3.66884 -1.244 0
M  V30 5677 H 526.81 3.96079 -3.43834 0
M  V30 5678 H 528.284 5.08446 -2.14911 0
M  V30 5679 H 528.761 4.34785 -0.621159 0
M  V30 5680 H 529.367 3.66972 -2.14969 0
M  V30 5681 N 527.682 1.05563 1.17022 0
M  V30 5682 C 528.922 0.777033 1.89054 0
M  V30 5683 C 529.286 -0.683617 1.79418 0
M  V30 5684 O 530.487 -1.07648 2.46303 0
M  V30 5685 C 528.758 1.24886 3.34871 0
M  V30 5686 S 530.317 1.0982 4.24835 0
M  V30 5687 H 527.135 0.282082 0.652649 0
M  V30 5688 H 529.737 1.35103 1.41306 0
M  V30 5689 H 528.441 2.30699 3.3942 0
M  V30 5690 H 527.972 0.669292 3.87665 0
M  V30 5691 H 529.987 0.02462 4.96194 0
M  V30 5692 N 529.16 -1.33526 0.837174 0
M  V30 5693 C 530.107 -2.29248 0.267169 0
M  V30 5694 C 531.077 -1.54252 -0.616071 0
M  V30 5695 O 532.262 -1.82559 -0.554699 0
M  V30 5696 C 529.402 -3.40638 -0.553152 0
M  V30 5697 C 528.515 -4.30548 0.353921 0
M  V30 5698 C 527.65 -5.29051 -0.477339 0
M  V30 5699 C 526.689 -6.106 0.42823 0
M  V30 5700 N 525.826 -7.01152 -0.364801 0
M  V30 5701 H 530.666 -2.77398 1.08877 0
M  V30 5702 H 528.203 -1.36496 0.54838 0
M  V30 5703 H 530.161 -4.03921 -1.04422 0
M  V30 5704 H 528.791 -2.93685 -1.33973 0
M  V30 5705 H 527.843 -3.68001 0.963289 0
M  V30 5706 H 529.155 -4.87631 1.04964 0
M  V30 5707 H 528.309 -5.97853 -1.0323 0
M  V30 5708 H 527.048 -4.72541 -1.2065 0
M  V30 5709 H 526.053 -5.40718 0.995219 0
M  V30 5710 H 527.278 -6.69193 1.15573 0
M  V30 5711 H 525.224 -6.47092 -1.07738 0
M  V30 5712 H 525.141 -7.5551 0.272238 0
M  V30 5713 H 526.409 -7.74263 -0.902054 0
M  V30 5714 N 530.638 -0.59345 -1.46 0
M  V30 5715 C 531.884 -0.0832754 -2.02629 0
M  V30 5716 C 532.217 1.27749 -1.46266 0
M  V30 5717 O 531.492 1.8395 -0.631866 0
M  V30 5718 C 531.775 -0.0290756 -3.60088 0
M  V30 5719 C 531.628 -1.41951 -4.26814 0
M  V30 5720 C 532.947 0.666055 -4.35031 0
M  V30 5721 H 530.066 -0.031736 -0.736316 0
M  V30 5722 H 532.708 -0.762711 -1.74019 0
M  V30 5723 H 530.858 0.549532 -3.84594 0
M  V30 5724 H 532.53 -2.04411 -4.13538 0
M  V30 5725 H 530.773 -1.98422 -3.8576 0
M  V30 5726 H 531.444 -1.33395 -5.3564 0
M  V30 5727 H 533.92 0.174401 -4.15734 0
M  V30 5728 H 532.796 0.673041 -5.44758 0
M  V30 5729 H 533.057 1.72946 -4.06869 0
M  V30 5730 N 532.116 1.54067 -0.331816 0
M  V30 5731 C 533.048 2.22139 0.564538 0
M  V30 5732 C 534.061 1.22408 1.07332 0
M  V30 5733 O 535.25 1.4883 0.985481 0
M  V30 5734 C 532.35 2.87876 1.78831 0
M  V30 5735 C 531.523 4.13817 1.41682 0
M  V30 5736 C 530.582 4.63072 2.49901 0
M  V30 5737 O 529.608 5.27562 2.13699 0
M  V30 5738 N 530.81 4.38001 3.80967 0
M  V30 5739 H 533.575 2.99694 -0.0183736 0
M  V30 5740 H 531.136 1.61153 -0.155396 0
M  V30 5741 H 533.128 3.17747 2.50637 0
M  V30 5742 H 531.698 2.13977 2.27887 0
M  V30 5743 H 530.918 3.9062 0.530044 0
M  V30 5744 H 532.206 4.95762 1.14443 0
M  V30 5745 H 531.604 3.864 4.13173 0
M  V30 5746 H 530.161 4.72507 4.48977 0
M  V30 5747 N 533.594 0.0601682 1.57485 0
M  V30 5748 C 534.819 -0.624416 1.97777 0
M  V30 5749 C 535.244 -1.63051 0.937867 0
M  V30 5750 O 534.602 -1.81036 -0.0978845 0
M  V30 5751 C 534.65 -1.27979 3.37126 0
M  V30 5752 O 533.754 -2.39556 3.35688 0
M  V30 5753 H 533.095 -0.161581 0.64404 0
M  V30 5754 H 535.625 0.131237 2.04179 0
M  V30 5755 H 535.635 -1.62937 3.74053 0
M  V30 5756 H 534.31 -0.542501 4.12347 0
M  V30 5757 H 532.887 -2.06478 3.10517 0
M  V30 5758 N 535.072 -1.5615 -0.213296 0
M  V30 5759 C 536.02 -1.93953 -1.28394 0
M  V30 5760 C 537.014 -0.822592 -1.48087 0
M  V30 5761 O 538.22 -1.00748 -1.49164 0
M  V30 5762 H 534.595 -0.61648 -0.430646 0
M  V30 5763 H 536.566 -2.83275 -0.937977 0
M  V30 5764 C 535.315 -2.27969 -2.62537 0
M  V30 5765 H 534.638 -3.13432 -2.48194 0
M  V30 5766 H 536.078 -2.58297 -3.36242 0
M  V30 5767 C 534.537 -1.10775 -3.18167 0
M  V30 5768 O 535.067 -0.373201 -3.99963 0
M  V30 5769 N 533.273 -0.889377 -2.76656 0
M  V30 5770 H 532.82 -1.48843 -2.10246 0
M  V30 5771 H 532.778 -0.107 -3.14218 0
M  V30 5772 N 536.55 0.480323 -1.50102 0
M  V30 5773 C 537.966 0.813295 -1.37323 0
M  V30 5774 C 538.166 1.97027 -0.422206 0
M  V30 5775 O 537.222 2.5212 0.138563 0
M  V30 5776 C 538.535 1.13404 -2.78496 0
M  V30 5777 C 540.083 1.24104 -2.87345 0
M  V30 5778 C 540.558 1.59497 -4.29331 0
M  V30 5779 N 542.049 1.66507 -4.32238 0
M  V30 5780 C 542.784 1.95378 -5.39087 0
M  V30 5781 N 542.28 2.22333 -6.56155 0
M  V30 5782 N 544.073 1.96803 -5.26522 0
M  V30 5783 H 536.224 -0.282291 -2.10516 0
M  V30 5784 H 538.487 -0.063752 -0.945854 0
M  V30 5785 H 538.193 0.357064 -3.49883 0
M  V30 5786 H 538.067 2.07251 -3.15162 0
M  V30 5787 H 540.454 2.00871 -2.16183 0
M  V30 5788 H 540.535 0.282593 -2.54234 0
M  V30 5789 H 540.179 0.832736 -5.01027 0
M  V30 5790 H 540.109 2.56477 -4.59921 0
M  V30 5791 H 542.6 1.47753 -3.47818 0
M  V30 5792 H 542.913 2.43611 -7.33399 0
M  V30 5793 H 541.258 2.19745 -6.59346 0
M  V30 5794 H 544.449 1.75235 -4.34062 0
M  V30 5795 H 544.622 2.18969 -6.09883 0
M  V30 5796 N 538.028 1.39524 0.732853 0
M  V30 5797 C 539.274 1.37068 1.49467 0
M  V30 5798 C 539.607 -0.0327166 1.94172 0
M  V30 5799 O 538.882 -0.998071 1.66939 0
M  V30 5800 C 539.165 2.34494 2.73285 0
M  V30 5801 C 539.018 3.83784 2.34585 0
M  V30 5802 C 540.337 2.29717 3.75391 0
M  V30 5803 H 537.456 0.499206 0.542183 0
M  V30 5804 H 540.098 1.70532 0.837783 0
M  V30 5805 H 538.248 2.06087 3.29333 0
M  V30 5806 H 539.92 4.22949 1.84151 0
M  V30 5807 H 538.163 4.00455 1.66787 0
M  V30 5808 H 538.834 4.47444 3.23262 0
M  V30 5809 H 541.31 2.54839 3.28932 0
M  V30 5810 H 540.186 2.99962 4.59689 0
M  V30 5811 H 540.447 1.30291 4.22465 0
M  V30 5812 N 539.506 -0.963266 1.24736 0
M  V30 5813 C 540.753 -1.7068 1.0897 0
M  V30 5814 C 541.081 -1.90934 -0.370751 0
M  V30 5815 O 540.336 -1.47155 -1.29011 0
M  V30 5816 C 540.635 -3.09944 1.7796 0
M  V30 5817 C 540.301 -3.09518 3.27887 0
M  V30 5818 C 538.963 -3.09109 3.68789 0
M  V30 5819 C 541.315 -3.03509 4.23712 0
M  V30 5820 C 538.643 -3.00429 5.03944 0
M  V30 5821 C 540.995 -2.96371 5.5888 0
M  V30 5822 C 539.659 -2.94293 5.99123 0
M  V30 5823 H 538.929 -0.624564 0.398749 0
M  V30 5824 H 541.576 -1.12603 1.54896 0
M  V30 5825 H 539.881 -3.71513 1.2444 0
M  V30 5826 H 541.578 -3.66278 1.63222 0
M  V30 5827 H 538.168 -3.10603 2.95337 0
M  V30 5828 H 542.352 -3.0295 3.93109 0
M  V30 5829 H 537.608 -2.97183 5.34314 0
M  V30 5830 H 541.782 -2.90681 6.32833 0
M  V30 5831 H 539.409 -2.87322 7.03811 0
M  V30 5832 N 540.985 -1.06182 -1.16461 0
M  V30 5833 C 542.225 -0.787048 -1.8864 0
M  V30 5834 C 542.589 0.674093 -1.79778 0
M  V30 5835 O 543.79 1.06341 -2.46871 0
M  V30 5836 C 542.061 -1.2666 -3.34203 0
M  V30 5837 S 543.62 -1.12071 -4.24247 0
M  V30 5838 H 540.438 -0.285539 -0.651144 0
M  V30 5839 H 543.04 -1.35851 -1.40587 0
M  V30 5840 H 541.744 -2.32496 -3.38192 0
M  V30 5841 H 541.275 -0.689841 -3.87304 0
M  V30 5842 H 543.29 -0.0509341 -4.96174 0
M  V30 5843 N 542.463 1.3308 -0.844243 0
M  V30 5844 C 543.74 1.92178 -0.364261 0
M  V30 5845 C 544.12 1.76961 1.15101 0
M  V30 5846 O 543.468 1.16128 1.9679 0
M  V30 5847 C 543.678 3.393 -0.817106 0
M  V30 5848 C 545.026 4.16444 -0.828236 0
M  V30 5849 O 546.05 3.47975 -0.761062 0
M  V30 5850 O 544.909 5.38685 -0.920926 0
M  V30 5851 H 542.003 0.820411 -0.10419 0
M  V30 5852 H 544.549 1.41918 -0.930453 0
M  V30 5853 H 543.321 3.44272 -1.85991 0
M  V30 5854 H 542.944 3.96947 -0.227785 0
M  V30 5855 N 543.941 0.601185 1.45683 0
M  V30 5856 C 545.169 0.100054 2.06658 0
M  V30 5857 C 545.584 -1.21285 1.44691 0
M  V30 5858 O 544.941 -1.73735 0.558772 0
M  V30 5859 C 544.992 -0.0528579 3.61461 0
M  V30 5860 O 544.713 1.20809 4.21114 0
M  V30 5861 C 546.214 -0.586193 4.39407 0
M  V30 5862 H 543.434 0.065905 0.667756 0
M  V30 5863 H 545.978 0.827101 1.87028 0
M  V30 5864 H 544.133 -0.730203 3.80456 0
M  V30 5865 H 544.547 1.03368 5.14213 0
M  V30 5866 H 546.021 -0.642297 5.4825 0
M  V30 5867 H 546.498 -1.60713 4.0874 0
M  V30 5868 H 547.104 0.0568935 4.25262 0
M  V30 5869 N 545.419 -1.53889 0.339982 0
M  V30 5870 C 546.352 -2.21187 -0.561405 0
M  V30 5871 C 547.33 -1.19463 -1.10306 0
M  V30 5872 O 548.514 -1.48268 -1.164 0
M  V30 5873 C 545.641 -2.8865 -1.77198 0
M  V30 5874 C 544.687 -4.04232 -1.3601 0
M  V30 5875 S 545.52 -5.34129 -0.382909 0
M  V30 5876 C 546.676 -6.05094 -1.60039 0
M  V30 5877 H 546.909 -2.97298 0.0102092 0
M  V30 5878 H 544.442 -1.53901 0.124056 0
M  V30 5879 H 546.4 -3.28138 -2.4665 0
M  V30 5880 H 545.061 -2.12311 -2.3148 0
M  V30 5881 H 544.254 -4.50358 -2.2626 0
M  V30 5882 H 543.856 -3.66503 -0.745098 0
M  V30 5883 H 546.148 -6.2827 -2.53541 0
M  V30 5884 H 547.091 -6.98182 -1.18099 0
M  V30 5885 H 547.499 -5.35207 -1.79483 0
M  V30 5886 N 546.897 -0.0685191 -1.57451 0
M  V30 5887 C 547.845 0.917577 -2.13736 0
M  V30 5888 C 548.839 1.31049 -1.07344 0
M  V30 5889 O 550.045 1.28811 -1.25728 0
M  V30 5890 H 546.42 0.313835 -0.683382 0
M  V30 5891 H 548.391 0.417903 -2.95459 0
M  V30 5892 C 547.14 2.17686 -2.71123 0
M  V30 5893 H 546.463 1.88336 -3.52661 0
M  V30 5894 H 547.903 2.84803 -3.14107 0
M  V30 5895 C 546.362 2.9332 -1.65726 0
M  V30 5896 O 546.892 3.86901 -1.08031 0
M  V30 5897 N 545.098 2.56367 -1.36837 0
M  V30 5898 H 544.645 1.80341 -1.83943 0
M  V30 5899 H 544.603 3.07276 -0.665501 0
M  V30 5900 N 548.375 1.56261 0.205012 0
M  V30 5901 C 549.6 1.84491 0.947512 0
M  V30 5902 C 550.025 0.650894 1.76479 0
M  V30 5903 O 549.383 -0.40035 1.76824 0
M  V30 5904 C 549.431 3.10863 1.82747 0
M  V30 5905 O 548.535 2.90719 2.925 0
M  V30 5906 H 547.876 0.607783 0.267386 0
M  V30 5907 H 550.406 2.03485 0.213323 0
M  V30 5908 H 550.416 3.41399 2.23407 0
M  V30 5909 H 549.091 3.97392 1.2269 0
M  V30 5910 H 547.668 2.71457 2.55667 0
M  V30 5911 N 549.853 -0.472356 1.50355 0
M  V30 5912 C 550.783 -1.57859 1.72055 0
M  V30 5913 C 551.764 -1.60283 0.569505 0
M  V30 5914 O 552.949 -1.7657 0.808503 0
M  V30 5915 C 550.079 -2.96191 1.81351 0
M  V30 5916 C 549.033 -3.08633 2.96529 0
M  V30 5917 C 548.359 -4.486 2.90968 0
M  V30 5918 C 549.659 -2.85969 4.37057 0
M  V30 5919 H 551.353 -1.39953 2.64676 0
M  V30 5920 H 548.899 -0.671846 1.27367 0
M  V30 5921 H 550.852 -3.73507 1.95117 0
M  V30 5922 H 549.576 -3.15251 0.853502 0
M  V30 5923 H 548.235 -2.33749 2.82413 0
M  V30 5924 H 547.883 -4.64577 1.92815 0
M  V30 5925 H 547.583 -4.57861 3.68289 0
M  V30 5926 H 549.107 -5.27938 3.0678 0
M  V30 5927 H 550.521 -3.53036 4.51706 0
M  V30 5928 H 548.918 -3.06677 5.15819 0
M  V30 5929 H 549.988 -1.81838 4.49514 0
M  V30 5930 N 551.331 -1.39911 -0.725443 0
M  V30 5931 C 552.559 -1.40949 -1.51463 0
M  V30 5932 C 552.974 -0.0065242 -1.88799 0
M  V30 5933 O 552.331 0.967163 -1.54765 0
M  V30 5934 C 552.382 -2.29119 -2.79619 0
M  V30 5935 O 552.103 -3.63952 -2.43866 0
M  V30 5936 C 553.604 -2.38642 -3.73584 0
M  V30 5937 H 550.824 -0.481091 -0.467752 0
M  V30 5938 H 553.368 -1.83843 -0.895651 0
M  V30 5939 H 551.523 -1.89612 -3.37826 0
M  V30 5940 H 551.937 -4.10677 -3.26258 0
M  V30 5941 H 553.411 -3.04563 -4.60375 0
M  V30 5942 H 553.888 -1.40846 -4.16004 0
M  V30 5943 H 554.494 -2.78659 -3.21293 0
M  V30 5944 N 552.809 0.956637 -1.25245 0
M  V30 5945 C 553.739 2.07058 -1.07931 0
M  V30 5946 C 554.72 1.70096 0.0110361 0
M  V30 5947 O 555.905 1.93555 -0.158121 0
M  V30 5948 C 553.035 3.40272 -0.695124 0
M  V30 5949 C 551.989 3.91235 -1.73549 0
M  V30 5950 C 551.315 5.20921 -1.20604 0
M  V30 5951 C 552.615 4.17837 -3.13385 0
M  V30 5952 H 554.309 2.218 -2.01109 0
M  V30 5953 H 551.855 1.06581 -0.968326 0
M  V30 5954 H 553.808 4.1765 -0.560949 0
M  V30 5955 H 552.532 3.25462 0.272355 0
M  V30 5956 H 551.191 3.16025 -1.85807 0
M  V30 5957 H 550.839 5.02479 -0.228846 0
M  V30 5958 H 550.539 5.55987 -1.90136 0
M  V30 5959 H 552.063 6.00897 -1.08421 0
M  V30 5960 H 553.477 4.8588 -3.04292 0
M  V30 5961 H 551.874 4.64154 -3.80369 0
M  V30 5962 H 552.944 3.2419 -3.60595 0
M  V30 5963 N 554.287 1.06798 1.15896 0
M  V30 5964 C 555.698 0.811355 1.68149 0
M  V30 5965 C 556.049 -0.664339 1.8461 0
M  V30 5966 O 555.174 -1.51485 1.54535 0
M  V30 5967 C 555.769 1.46624 3.05429 0
M  V30 5968 C 554.328 1.25726 3.54781 0
M  V30 5969 C 553.475 1.53949 2.3064 0
M  V30 5970 H 556.426 1.23078 1.00187 0
M  V30 5971 H 556.447 0.88437 3.7008 0
M  V30 5972 H 555.959 2.54025 2.93416 0
M  V30 5973 H 554.06 0.20322 3.72045 0
M  V30 5974 H 554.173 1.97354 4.36564 0
M  V30 5975 H 552.537 0.96025 2.35905 0
M  V30 5976 H 553.32 2.6252 2.2122 0
M  V30 5977 N 555.766 -1.3263 0.851289 0
M  V30 5978 C 556.991 -2.02097 0.466006 0
M  V30 5979 C 557.416 -1.63574 -0.928709 0
M  V30 5980 O 556.774 -0.834665 -1.60944 0
M  V30 5981 C 556.822 -3.55425 0.608737 0
M  V30 5982 O 555.926 -4.10827 -0.359878 0
M  V30 5983 H 555.267 -0.636911 0.187724 0
M  V30 5984 H 557.797 -1.69253 1.14955 0
M  V30 5985 H 557.807 -4.04986 0.495006 0
M  V30 5986 H 556.482 -3.82806 1.62581 0
M  V30 5987 H 555.059 -3.72349 -0.202666 0
M  V30 5988 N 557.244 -0.608902 -1.45362 0
M  V30 5989 C 558.154 0.110969 -2.34337 0
M  V30 5990 C 559.17 0.859007 -1.51318 0
M  V30 5991 O 560.346 0.816296 -1.84116 0
M  V30 5992 C 557.411 1.09494 -3.28956 0
M  V30 5993 C 556.472 0.348718 -4.27881 0
M  V30 5994 C 555.705 1.28582 -5.17979 0
M  V30 5995 O 555.928 2.52369 -5.11533 0
M  V30 5996 O 554.862 0.782172 -5.96796 0
M  V30 5997 H 558.688 -0.620258 -2.97299 0
M  V30 5998 H 556.273 -0.36916 -1.44767 0
M  V30 5999 H 558.155 1.66163 -3.87257 0
M  V30 6000 H 556.83 1.80717 -2.68557 0
M  V30 6001 H 555.737 -0.260465 -3.73192 0
M  V30 6002 H 557.07 -0.323049 -4.91139 0
M  V30 6003 N 558.722 1.53707 -0.348139 0
M  V30 6004 C 559.968 2.01286 0.247332 0
M  V30 6005 C 560.301 1.23546 1.49834 0
M  V30 6006 O 559.576 0.324331 1.91777 0
M  V30 6007 C 559.859 3.55768 0.556858 0
M  V30 6008 C 559.712 4.44216 -0.706564 0
M  V30 6009 C 561.031 4.1841 1.3646 0
M  V30 6010 H 558.15 0.731677 0.0884201 0
M  V30 6011 H 560.792 1.84106 -0.469584 0
M  V30 6012 H 558.942 3.70539 1.16761 0
M  V30 6013 H 560.614 4.41274 -1.34444 0
M  V30 6014 H 558.857 4.12892 -1.33052 0
M  V30 6015 H 559.528 5.50202 -0.445186 0
M  V30 6016 H 562.004 4.07365 0.848113 0
M  V30 6017 H 560.88 5.26563 1.54992 0
M  V30 6018 H 561.141 3.7333 2.36805 0
M  V30 6019 N 560.2 0.0768682 1.57412 0
M  V30 6020 C 561.425 -0.603404 1.98428 0
M  V30 6021 C 561.85 -1.62047 0.955108 0
M  V30 6022 O 561.208 -1.81129 -0.0786778 0
M  V30 6023 C 561.256 -1.24396 3.38464 0
M  V30 6024 O 560.36 -2.35982 3.3821 0
M  V30 6025 H 559.701 -0.154741 0.645718 0
M  V30 6026 H 562.231 0.152885 2.04028 0
M  V30 6027 H 562.241 -1.5896 3.7576 0
M  V30 6028 H 560.916 -0.498735 4.12899 0
M  V30 6029 H 559.493 -2.03173 3.1269 0
M  V30 6030 N 561.678 -1.56367 -0.196722 0
M  V30 6031 C 562.608 -1.97442 -1.24655 0
M  V30 6032 C 563.589 -0.846147 -1.47561 0
M  V30 6033 O 564.774 -1.11035 -1.59326 0
M  V30 6034 C 561.904 -2.31253 -2.59112 0
M  V30 6035 C 560.858 -3.46804 -2.50821 0
M  V30 6036 C 560.184 -3.66286 -3.89536 0
M  V30 6037 C 561.484 -4.8104 -2.03465 0
M  V30 6038 H 563.178 -2.85388 -0.905216 0
M  V30 6039 H 560.724 -1.37304 -0.434002 0
M  V30 6040 H 562.677 -2.58583 -3.32736 0
M  V30 6041 H 561.401 -1.40188 -2.94983 0
M  V30 6042 H 560.06 -3.19563 -1.79653 0
M  V30 6043 H 559.708 -2.72555 -4.22756 0
M  V30 6044 H 559.408 -4.4402 -3.84864 0
M  V30 6045 H 560.932 -3.9599 -4.64784 0
M  V30 6046 H 562.346 -5.07411 -2.66846 0
M  V30 6047 H 560.743 -5.62232 -2.09798 0
M  V30 6048 H 561.813 -4.74732 -0.98781 0
M  V30 6049 N 563.156 0.464375 -1.50603 0
M  V30 6050 C 564.396 1.22573 -1.6357 0
M  V30 6051 C 564.76 1.89111 -0.331834 0
M  V30 6052 O 565.961 2.66679 -0.336999 0
M  V30 6053 C 564.232 2.23643 -2.7878 0
M  V30 6054 S 565.791 3.08628 -3.1192 0
M  V30 6055 H 562.609 0.416058 -0.576556 0
M  V30 6056 H 565.211 0.521637 -1.88412 0
M  V30 6057 H 563.915 1.73354 -3.7199 0
M  V30 6058 H 563.446 2.98672 -2.56044 0
M  V30 6059 H 565.461 4.24904 -2.56264 0
M  V30 6060 N 564.634 1.40294 0.718013 0
M  V30 6061 C 565.582 1.40536 1.85344 0
M  V30 6062 C 566.576 0.286192 1.66965 0
M  V30 6063 O 567.782 0.457105 1.74099 0
M  V30 6064 H 564.157 0.439236 0.61039 0
M  V30 6065 H 566.128 2.36275 1.82255 0
M  V30 6066 C 564.877 1.28245 3.23185 0
M  V30 6067 H 564.2 2.1364 3.37932 0
M  V30 6068 H 565.64 1.32474 4.02774 0
M  V30 6069 C 564.099 -0.0075503 3.36899 0
M  V30 6070 O 564.629 -0.971391 3.89778 0
M  V30 6071 N 562.835 -0.0762479 2.905 0
M  V30 6072 H 562.382 0.708819 2.47656 0
M  V30 6073 H 562.34 -0.938846 3.00055 0
M  V30 6074 N 566.112 -0.949982 1.2575 0
M  V30 6075 C 567.34 -1.72972 1.13527 0
M  V30 6076 C 567.755 -1.8623 -0.310453 0
M  V30 6077 O 567.112 -1.36336 -1.2132 0
M  V30 6078 C 567.163 -3.14108 1.78936 0
M  V30 6079 O 566.884 -3.01493 3.17858 0
M  V30 6080 C 568.385 -4.08338 1.72554 0
M  V30 6081 H 565.605 -0.541864 0.395758 0
M  V30 6082 H 568.149 -1.19151 1.66202 0
M  V30 6083 H 566.304 -3.64858 1.30221 0
M  V30 6084 H 566.718 -3.90559 3.50092 0
M  V30 6085 H 568.192 -5.04963 2.22973 0
M  V30 6086 H 568.669 -4.33742 0.690251 0
M  V30 6087 H 569.275 -3.63506 2.2078 0
M  V30 6088 N 567.59 -1.07411 -1.15328 0
M  V30 6089 C 568.867 -0.710732 -1.82231 0
M  V30 6090 C 569.247 0.806732 -1.95077 0
M  V30 6091 O 568.595 1.72139 -1.50268 0
M  V30 6092 C 568.805 -1.42586 -3.18544 0
M  V30 6093 C 570.153 -1.57836 -3.94174 0
M  V30 6094 O 571.177 -1.38669 -3.281 0
M  V30 6095 O 570.036 -1.8938 -5.12638 0
M  V30 6096 H 567.13 -0.25297 -0.78736 0
M  V30 6097 H 569.676 -1.17508 -1.22434 0
M  V30 6098 H 568.448 -2.46008 -3.04296 0
M  V30 6099 H 568.071 -0.952332 -3.86026 0
M  V30 6100 N 569.068 1.32177 -0.85831 0
M  V30 6101 C 570.317 1.96392 -0.459689 0
M  V30 6102 C 570.63 1.68659 0.990632 0
M  V30 6103 O 571.836 2.26641 1.49485 0
M  V30 6104 C 570.292 3.51542 -0.7711 0
M  V30 6105 C 569.9 3.8813 -2.2374 0
M  V30 6106 C 571.644 4.2221 -0.44038 0
M  V30 6107 C 569.551 5.36341 -2.49183 0
M  V30 6108 H 568.481 0.735007 -0.168169 0
M  V30 6109 H 571.132 1.50518 -1.0496 0
M  V30 6110 H 569.514 3.95846 -0.11058 0
M  V30 6111 H 570.688 3.54824 -2.94001 0
M  V30 6112 H 569.003 3.30497 -2.533 0
M  V30 6113 H 571.6 5.31234 -0.607855 0
M  V30 6114 H 571.943 4.11683 0.618291 0
M  V30 6115 H 572.476 3.83502 -1.05695 0
M  V30 6116 H 569.215 5.51892 -3.53689 0
M  V30 6117 H 568.735 5.7104 -1.83504 0
M  V30 6118 H 570.414 6.03466 -2.33318 0
M  V30 6119 N 570.547 0.616602 1.45037 0
M  V30 6120 C 571.794 0.115331 2.02171 0
M  V30 6121 C 572.122 -1.25748 1.48383 0
M  V30 6122 O 571.377 -1.84511 0.652229 0
M  V30 6123 C 571.676 0.0356829 3.57382 0
M  V30 6124 C 571.342 1.34535 4.30362 0
M  V30 6125 C 570.004 1.70408 4.50016 0
M  V30 6126 C 572.356 2.21049 4.72003 0
M  V30 6127 C 569.684 2.92529 5.0857 0
M  V30 6128 C 572.036 3.42427 5.31908 0
M  V30 6129 C 570.7 3.78541 5.49784 0
M  V30 6130 H 569.97 0.0422024 0.739797 0
M  V30 6131 H 572.617 0.80002 1.73988 0
M  V30 6132 H 570.922 -0.732314 3.84895 0
M  V30 6133 H 572.619 -0.368463 3.99304 0
M  V30 6134 H 569.209 1.05615 4.15383 0
M  V30 6135 H 573.393 1.94632 4.56544 0
M  V30 6136 H 568.649 3.20605 5.20598 0
M  V30 6137 H 572.823 4.09709 5.63127 0
M  V30 6138 H 570.45 4.73255 5.94923 0
M  V30 6139 N 572.025 -1.5352 0.356285 0
M  V30 6140 C 572.973 -2.26945 -0.50978 0
M  V30 6141 C 573.967 -1.29569 -1.09125 0
M  V30 6142 O 575.173 -1.47231 -1.03552 0
M  V30 6143 H 571.548 -0.729368 -0.183102 0
M  V30 6144 H 573.519 -2.98111 0.131374 0
M  V30 6145 C 572.268 -3.06466 -1.64237 0
M  V30 6146 H 571.591 -3.81233 -1.20423 0
M  V30 6147 H 573.031 -3.61035 -2.22327 0
M  V30 6148 C 571.49 -2.16737 -2.57928 0
M  V30 6149 O 572.02 -1.77195 -3.60507 0
M  V30 6150 N 570.226 -1.81558 -2.26903 0
M  V30 6151 H 569.773 -2.13913 -1.43524 0
M  V30 6152 H 569.731 -1.21806 -2.89846 0
M  V30 6153 N 573.503 -0.0852151 -1.57369 0
M  V30 6154 C 574.728 0.592872 -1.98746 0
M  V30 6155 C 575.153 1.61538 -0.963689 0
M  V30 6156 O 574.511 1.81168 0.069071 0
M  V30 6157 C 574.559 1.22599 -3.39119 0
M  V30 6158 O 573.663 2.34185 -3.39457 0
M  V30 6159 H 573.004 0.151314 -0.646529 0
M  V30 6160 H 575.534 -0.163703 -2.03944 0
M  V30 6161 H 575.544 1.56965 -3.76598 0
M  V30 6162 H 574.219 0.476831 -4.13158 0
M  V30 6163 H 572.796 2.01512 -3.13763 0
M  V30 6164 N 574.981 1.5647 0.188427 0
M  V30 6165 C 575.928 1.95073 1.23349 0
M  V30 6166 C 576.898 0.812238 1.44886 0
M  V30 6167 O 578.083 1.07095 1.57909 0
M  V30 6168 C 575.223 2.30124 2.57171 0
M  V30 6169 C 574.336 3.57069 2.43157 0
M  V30 6170 C 573.471 3.81411 3.69729 0
M  V30 6171 C 572.51 5.0176 3.50575 0
M  V30 6172 N 571.647 5.22321 4.69175 0
M  V30 6173 H 576.487 2.84171 0.89728 0
M  V30 6174 H 574.024 1.40623 0.431683 0
M  V30 6175 H 575.982 2.48463 3.35145 0
M  V30 6176 H 574.612 1.44159 2.88822 0
M  V30 6177 H 573.664 3.4674 1.56447 0
M  V30 6178 H 574.976 4.452 2.24942 0
M  V30 6179 H 574.13 4.00026 4.56141 0
M  V30 6180 H 572.869 2.91624 3.90905 0
M  V30 6181 H 571.874 4.83061 2.62549 0
M  V30 6182 H 573.099 5.93063 3.30837 0
M  V30 6183 H 571.045 4.35483 4.90602 0
M  V30 6184 H 570.962 6.04643 4.53809 0
M  V30 6185 H 572.23 5.45401 5.56919 0
M  V30 6186 N 576.459 -0.456382 1.50847 0
M  V30 6187 C 577.689 -1.22848 1.66108 0
M  V30 6188 C 578.097 -1.85936 0.349897 0
M  V30 6189 O 577.44 -1.70664 -0.679665 0
M  V30 6190 C 577.502 -2.36722 2.70561 0
M  V30 6191 C 577.166 -1.94154 4.13707 0
M  V30 6192 C 578.163 -1.4557 4.99105 0
M  V30 6193 C 575.848 -2.02426 4.59705 0
M  V30 6194 C 577.842 -1.0582 6.28555 0
M  V30 6195 C 575.529 -1.62287 5.89157 0
M  V30 6196 C 576.527 -1.14064 6.73408 0
M  V30 6197 O 576.215 -0.744873 8.00442 0
M  V30 6198 H 575.947 -0.377105 0.561042 0
M  V30 6199 H 578.501 -0.549431 1.97915 0
M  V30 6200 H 576.731 -3.07844 2.34027 0
M  V30 6201 H 578.42 -2.98646 2.74892 0
M  V30 6202 H 579.186 -1.38589 4.64777 0
M  V30 6203 H 575.065 -2.38908 3.94264 0
M  V30 6204 H 578.609 -0.6811 6.94267 0
M  V30 6205 H 574.506 -1.68932 6.23003 0
M  V30 6206 H 575.274 -0.87242 8.13837 0
M  V30 6207 N 577.937 -1.40673 -0.710563 0
M  V30 6208 C 579.214 -1.29718 -1.46398 0
M  V30 6209 C 579.594 0.082177 -2.1094 0
M  V30 6210 O 578.942 1.09536 -2.00534 0
M  V30 6211 C 579.152 -2.43967 -2.49562 0
M  V30 6212 C 580.5 -2.84436 -3.15248 0
M  V30 6213 O 581.524 -2.43597 -2.59883 0
M  V30 6214 O 580.383 -3.55008 -4.1549 0
M  V30 6215 H 577.477 -0.509697 -0.651258 0
M  V30 6216 H 580.023 -1.52603 -0.742312 0
M  V30 6217 H 578.795 -3.36076 -2.0042 0
M  V30 6218 H 578.418 -2.22879 -3.29258 0
M  V30 6219 N 579.415 0.9433 -1.26252 0
M  V30 6220 C 580.655 1.70397 -1.1289 0
M  V30 6221 C 581.019 1.89268 0.322713 0
M  V30 6222 O 582.22 2.62503 0.578418 0
M  V30 6223 C 580.491 3.04296 -1.87453 0
M  V30 6224 S 582.05 3.95475 -1.90119 0
M  V30 6225 H 578.868 0.585559 -0.403289 0
M  V30 6226 H 581.47 1.12424 -1.59941 0
M  V30 6227 H 580.174 2.8824 -2.9214 0
M  V30 6228 H 579.705 3.67327 -1.40835 0
M  V30 6229 H 581.72 4.86297 -0.986373 0
M  V30 6230 N 580.893 1.08022 1.14757 0
M  V30 6231 C 581.84 0.706657 2.19716 0
M  V30 6232 C 582.81 -0.30525 1.63271 0
M  V30 6233 O 583.995 -0.19015 1.8985 0
M  V30 6234 C 581.135 0.117914 3.44898 0
M  V30 6235 C 580.248 1.18212 4.15512 0
M  V30 6236 C 579.383 0.557659 5.28265 0
M  V30 6237 C 578.422 1.60418 5.90705 0
M  V30 6238 N 577.559 1.0018 6.94916 0
M  V30 6239 H 582.399 1.60603 2.51019 0
M  V30 6240 H 579.936 0.802664 1.23271 0
M  V30 6241 H 581.894 -0.241112 4.16503 0
M  V30 6242 H 580.524 -0.744788 3.1409 0
M  V30 6243 H 579.576 1.65863 3.42335 0
M  V30 6244 H 580.888 1.97533 4.5802 0
M  V30 6245 H 580.042 0.146654 6.06523 0
M  V30 6246 H 578.781 -0.267249 4.86967 0
M  V30 6247 H 577.786 2.02489 5.11154 0
M  V30 6248 H 579.011 2.43149 6.34078 0
M  V30 6249 H 576.957 0.197917 6.55701 0
M  V30 6250 H 576.874 1.73216 7.35889 0
M  V30 6251 H 578.142 0.616523 7.77058 0
M  V30 6252 N 582.371 -1.3172 0.865308 0
M  V30 6253 C 583.62 -1.96145 0.470098 0
M  V30 6254 C 583.933 -1.69182 -0.981674 0
M  V30 6255 O 585.139 -2.27431 -1.48281 0
M  V30 6256 C 583.595 -3.51129 0.789732 0
M  V30 6257 C 583.203 -3.86938 2.25795 0
M  V30 6258 C 584.947 -4.2197 0.462765 0
M  V30 6259 C 582.854 -5.35012 2.52024 0
M  V30 6260 H 581.784 -0.734105 0.172065 0
M  V30 6261 H 584.435 -1.49959 1.05757 0
M  V30 6262 H 582.817 -3.95781 0.131571 0
M  V30 6263 H 583.991 -3.5326 2.95879 0
M  V30 6264 H 582.306 -3.29149 2.55049 0
M  V30 6265 H 584.903 -5.30904 0.636019 0
M  V30 6266 H 585.246 -4.12005 -0.59645 0
M  V30 6267 H 585.779 -3.82936 1.07727 0
M  V30 6268 H 582.518 -5.50008 3.56611 0
M  V30 6269 H 582.038 -5.70058 1.8653 0
M  V30 6270 H 583.717 -6.0222 2.36515 0
M  V30 6271 N 583.85 -0.624285 -1.44708 0
M  V30 6272 C 584.783 0.133905 -2.27807 0
M  V30 6273 C 585.76 0.857794 -1.38133 0
M  V30 6274 O 586.945 0.863277 -1.6757 0
M  V30 6275 C 584.072 1.19541 -3.16903 0
M  V30 6276 C 583.118 0.572813 -4.22636 0
M  V30 6277 S 583.951 -0.631953 -5.31758 0
M  V30 6278 C 585.106 0.429733 -6.24423 0
M  V30 6279 H 585.34 -0.571072 -2.91764 0
M  V30 6280 H 582.873 -0.412261 -1.48794 0
M  V30 6281 H 584.831 1.80293 -3.68788 0
M  V30 6282 H 583.492 1.87255 -2.5218 0
M  V30 6283 H 582.685 1.37205 -4.84965 0
M  V30 6284 H 582.287 0.0400641 -3.73979 0
M  V30 6285 H 584.579 1.30421 -6.64828 0
M  V30 6286 H 585.522 -0.157804 -7.07924 0
M  V30 6287 H 585.93 0.75256 -5.59461 0
M  V30 6288 N 585.328 1.53329 -0.364422 0
M  V30 6289 C 586.556 2.05657 0.226424 0
M  V30 6290 C 586.971 1.23801 1.42544 0
M  V30 6291 O 586.328 0.27839 1.80364 0
M  V30 6292 C 586.379 3.56125 0.621056 0
M  V30 6293 O 586.1 4.34879 -0.530304 0
M  V30 6294 C 587.601 4.24706 1.27041 0
M  V30 6295 H 584.821 0.669806 0.0400056 0
M  V30 6296 H 587.365 1.97714 -0.522456 0
M  V30 6297 H 585.52 3.64223 1.31985 0
M  V30 6298 H 585.934 5.24073 -0.211546 0
M  V30 6299 H 587.408 5.3131 1.49711 0
M  V30 6300 H 587.885 3.78354 2.23036 0
M  V30 6301 H 588.491 4.20858 0.613079 0
M  V30 6302 N 586.806 0.0935595 1.57322 0
M  V30 6303 C 588.031 -0.582324 1.99057 0
M  V30 6304 C 588.456 -1.61025 0.972242 0
M  V30 6305 O 587.814 -1.81202 -0.0594622 0
M  V30 6306 C 587.862 -1.20799 3.39765 0
M  V30 6307 O 586.966 -2.32382 3.40694 0
M  V30 6308 H 586.307 -0.147884 0.647323 0
M  V30 6309 H 588.837 0.174516 2.03854 0
M  V30 6310 H 588.847 -1.54966 3.77425 0
M  V30 6311 H 587.522 -0.454914 4.13405 0
M  V30 6312 H 586.099 -1.99845 3.14827 0
M  V30 6313 N 588.284 -1.56567 -0.180126 0
M  V30 6314 C 589.231 -1.95725 -1.22313 0
M  V30 6315 C 590.201 -0.819911 -1.44453 0
M  V30 6316 O 591.386 -1.07931 -1.57339 0
M  V30 6317 C 588.526 -2.31484 -2.55947 0
M  V30 6318 C 587.639 -3.58354 -2.4126 0
M  V30 6319 C 586.774 -3.83366 -3.67701 0
M  V30 6320 C 585.813 -5.03612 -3.47909 0
M  V30 6321 N 584.95 -5.24802 -4.66398 0
M  V30 6322 H 589.79 -2.84642 -0.882198 0
M  V30 6323 H 587.327 -1.4085 -0.42422 0
M  V30 6324 H 589.285 -2.50237 -3.33822 0
M  V30 6325 H 587.915 -1.45689 -2.88053 0
M  V30 6326 H 586.967 -3.47565 -1.54606 0
M  V30 6327 H 588.279 -4.46386 -2.22577 0
M  V30 6328 H 587.433 -4.02439 -4.54013 0
M  V30 6329 H 586.172 -2.93692 -3.89353 0
M  V30 6330 H 585.177 -4.84447 -2.59983 0
M  V30 6331 H 586.402 -5.94809 -3.27688 0
M  V30 6332 H 584.348 -4.38079 -4.88286 0
M  V30 6333 H 584.265 -6.07041 -4.50596 0
M  V30 6334 H 585.533 -5.48346 -5.54019 0
M  V30 6335 N 589.762 0.448376 -1.51087 0
M  V30 6336 C 590.99 1.22143 -1.66999 0
M  V30 6337 C 591.405 1.85283 -0.362699 0
M  V30 6338 O 590.762 1.70236 0.65772 0
M  V30 6339 C 590.813 2.31357 -2.7777 0
M  V30 6340 O 590.534 1.70801 -4.03434 0
M  V30 6341 C 592.035 3.21836 -3.04855 0
M  V30 6342 H 589.255 0.368558 -0.560719 0
M  V30 6343 H 591.799 0.532618 -1.97442 0
M  V30 6344 H 589.954 2.95973 -2.49958 0
M  V30 6345 H 590.368 2.42895 -4.64868 0
M  V30 6346 H 591.842 3.94627 -3.85971 0
M  V30 6347 H 592.319 3.81949 -2.16821 0
M  V30 6348 H 592.925 2.62933 -3.34285 0
M  V30 6349 N 591.24 1.41047 0.703093 0
M  V30 6350 C 592.517 1.30493 1.45708 0
M  V30 6351 C 592.897 -0.0709892 2.10981 0
M  V30 6352 O 592.245 -1.08471 2.01113 0
M  V30 6353 C 592.455 2.45287 2.48265 0
M  V30 6354 C 593.803 2.86104 3.13735 0
M  V30 6355 O 594.827 2.44971 2.58587 0
M  V30 6356 O 593.686 3.57206 4.13601 0
M  V30 6357 H 590.78 0.513144 0.648546 0
M  V30 6358 H 593.326 1.52995 0.734208 0
M  V30 6359 H 592.098 3.37135 1.98635 0
M  V30 6360 H 591.721 2.24622 3.28071 0
M  V30 6361 N 592.718 -0.936591 1.26751 0
M  V30 6362 C 593.967 -1.67778 1.11953 0
M  V30 6363 C 594.28 -1.92694 -0.33589 0
M  V30 6364 O 595.486 -2.64682 -0.604618 0
M  V30 6365 C 593.942 -3.02138 1.95551 0
M  V30 6366 C 593.55 -2.84953 3.45696 0
M  V30 6367 C 595.294 -3.79917 1.89377 0
M  V30 6368 C 593.201 -4.14814 4.21525 0
M  V30 6369 H 592.131 -0.629275 0.415366 0
M  V30 6370 H 594.782 -1.04122 1.51099 0
M  V30 6371 H 593.164 -3.668 1.49243 0
M  V30 6372 H 594.338 -2.29112 3.99805 0
M  V30 6373 H 592.653 -2.20612 3.53156 0
M  V30 6374 H 595.25 -4.76134 2.43312 0
M  V30 6375 H 595.593 -4.07204 0.865464 0
M  V30 6376 H 596.126 -3.22037 2.33532 0
M  V30 6377 H 592.865 -3.92709 5.24843 0
M  V30 6378 H 592.385 -4.70352 3.72195 0
M  V30 6379 H 594.064 -4.83239 4.3022 0
M  V30 6380 N 594.196 -1.08629 -1.14182 0
M  V30 6381 C 595.421 -0.83902 -1.89671 0
M  V30 6382 C 595.846 0.603332 -1.78161 0
M  V30 6383 O 595.204 1.42301 -1.12339 0
M  V30 6384 C 595.252 -1.26854 -3.37551 0
M  V30 6385 O 594.356 -0.42188 -4.10236 0
M  V30 6386 H 593.697 -0.304545 -0.590041 0
M  V30 6387 H 596.227 -1.4483 -1.44518 0
M  V30 6388 H 596.237 -1.25038 -3.88368 0
M  V30 6389 H 594.912 -2.31901 -3.45246 0
M  V30 6390 H 593.489 -0.503654 -3.69483 0
M  V30 6391 N 595.674 1.31259 -0.872281 0
M  V30 6392 C 596.899 2.0133 -0.498099 0
M  V30 6393 C 597.324 1.65031 0.902568 0
M  V30 6394 O 596.682 0.860164 1.59596 0
M  V30 6395 C 596.73 3.54411 -0.665205 0
M  V30 6396 O 595.834 4.11347 0.294473 0
M  V30 6397 H 595.175 0.633844 -0.197832 0
M  V30 6398 H 597.705 1.67402 -1.17633 0
M  V30 6399 H 597.715 4.04147 -0.559373 0
M  V30 6400 H 596.39 3.80171 -1.68651 0
M  V30 6401 H 594.967 3.72624 0.143403 0
M  V30 6402 N 597.152 0.631951 1.44375 0
M  V30 6403 C 598.377 0.142146 2.06912 0
M  V30 6404 C 598.802 -1.17456 1.4692 0
M  V30 6405 O 598.16 -1.72074 0.570975 0
M  V30 6406 C 598.208 0.0417952 3.60576 0
M  V30 6407 O 597.312 -1.00194 4.00044 0
M  V30 6408 H 596.653 0.0851491 0.658518 0
M  V30 6409 H 599.183 0.868863 1.85235 0
M  V30 6410 H 599.193 -0.148517 4.0773 0
M  V30 6411 H 597.868 1.0031 4.03622 0
M  V30 6412 H 596.445 -0.786131 3.64519 0
M  V30 6413 N 598.631 -1.53133 0.372548 0
M  V30 6414 C 599.877 -2.01654 -0.215277 0
M  V30 6415 C 600.21 -1.25914 -1.47849 0
M  V30 6416 O 599.485 -0.3548 -1.91237 0
M  V30 6417 C 599.768 -3.56609 -0.500187 0
M  V30 6418 C 599.621 -4.43036 0.777145 0
M  V30 6419 C 600.94 -4.20528 -1.29786 0
M  V30 6420 H 598.059 -0.732991 -0.0767686 0
M  V30 6421 H 600.701 -1.83335 0.498814 0
M  V30 6422 H 598.851 -3.7235 -1.10852 0
M  V30 6423 H 600.523 -4.39079 1.41447 0
M  V30 6424 H 598.766 -4.10723 1.39604 0
M  V30 6425 H 599.437 -5.49424 0.532662 0
M  V30 6426 H 601.913 -4.08663 -0.783198 0
M  V30 6427 H 600.789 -5.28962 -1.46596 0
M  V30 6428 H 601.05 -3.77051 -2.30836 0
M  V30 6429 N 600.109 -0.101901 -1.5727 0
M  V30 6430 C 601.358 0.559922 -1.93772 0
M  V30 6431 C 601.671 1.68913 -0.98629 0
M  V30 6432 O 602.877 2.41256 -1.24529 0
M  V30 6433 C 601.333 1.04739 -3.44322 0
M  V30 6434 C 600.941 -0.05243 -4.47969 0
M  V30 6435 C 602.685 1.68157 -3.89774 0
M  V30 6436 C 600.592 0.450781 -5.8968 0
M  V30 6437 H 599.522 0.212931 -0.723309 0
M  V30 6438 H 602.173 -0.179001 -1.82625 0
M  V30 6439 H 600.555 1.84021 -3.50645 0
M  V30 6440 H 601.729 -0.828157 -4.53297 0
M  V30 6441 H 600.044 -0.592202 -4.12167 0
M  V30 6442 H 602.641 2.0689 -4.93052 0
M  V30 6443 H 602.984 2.55338 -3.28798 0
M  V30 6444 H 603.517 0.954453 -3.8618 0
M  V30 6445 H 600.256 -0.38458 -6.54371 0
M  V30 6446 H 599.776 1.19336 -5.87809 0
M  V30 6447 H 601.455 0.917555 -6.40461 0
M  V30 6448 N 601.587 1.56661 0.17182 0
M  V30 6449 C 602.815 1.861 0.904115 0
M  V30 6450 C 603.23 0.687227 1.75848 0
M  V30 6451 O 602.587 -0.343671 1.79235 0
M  V30 6452 C 602.638 3.14568 1.78127 0
M  V30 6453 O 602.359 4.27422 0.961366 0
M  V30 6454 C 603.86 3.5735 2.62327 0
M  V30 6455 H 601.08 0.617445 0.262684 0
M  V30 6456 H 603.624 2.03775 0.172068 0
M  V30 6457 H 601.779 2.98721 2.46666 0
M  V30 6458 H 602.193 5.00725 1.56123 0
M  V30 6459 H 603.667 4.50144 3.1949 0
M  V30 6460 H 604.144 2.81445 3.37173 0
M  V30 6461 H 604.75 3.75807 1.99121 0
M  V30 6462 N 603.065 -0.440357 1.51323 0
M  V30 6463 C 604.29 -1.21716 1.67928 0
M  V30 6464 C 604.715 -1.84328 0.374826 0
M  V30 6465 O 604.073 -1.68675 -0.664706 0
M  V30 6466 C 604.121 -2.27914 2.79442 0
M  V30 6467 O 603.225 -3.33325 2.42834 0
M  V30 6468 H 602.566 -0.35674 0.560029 0
M  V30 6469 H 605.096 -0.520417 1.97871 0
M  V30 6470 H 605.106 -2.72746 3.03436 0
M  V30 6471 H 603.781 -1.8172 3.741 0
M  V30 6472 H 602.358 -2.9399 2.294 0
M  V30 6473 N 604.543 -1.41418 -0.695603 0
M  V30 6474 C 605.473 -1.46035 -1.82197 0
M  V30 6475 C 606.454 -0.319025 -1.67082 0
M  V30 6476 O 607.639 -0.530462 -1.86815 0
M  V30 6477 C 604.769 -1.34179 -3.20333 0
M  V30 6478 C 603.723 -2.46123 -3.50154 0
M  V30 6479 C 603.049 -2.19332 -4.87645 0
M  V30 6480 C 604.349 -3.88463 -3.49133 0
M  V30 6481 H 606.043 -2.40303 -1.78591 0
M  V30 6482 H 603.589 -1.15663 -0.857797 0
M  V30 6483 H 605.542 -1.36021 -3.98844 0
M  V30 6484 H 604.266 -0.363952 -3.24566 0
M  V30 6485 H 602.925 -2.43563 -2.73994 0
M  V30 6486 H 602.573 -1.19891 -4.88503 0
M  V30 6487 H 602.273 -2.94344 -5.08562 0
M  V30 6488 H 603.797 -2.22889 -5.68465 0
M  V30 6489 H 605.211 -3.92738 -4.17648 0
M  V30 6490 H 603.608 -4.63158 -3.81582 0
M  V30 6491 H 604.678 -4.16617 -2.48109 0
M  V30 6492 N 606.021 0.929856 -1.27246 0
M  V30 6493 C 607.269 1.674 -1.13233 0
M  V30 6494 C 607.59 1.92311 0.322744 0
M  V30 6495 O 606.86 1.52784 1.22612 0
M  V30 6496 H 605.44 0.620411 -0.416052 0
M  V30 6497 H 608.102 1.11663 -1.59741 0
M  V30 6498 H 607.198 2.64308 -1.65975 0
M  V30 6499 N 607.499 1.09233 1.13605 0
M  V30 6500 C 608.462 0.733553 2.17144 0
M  V30 6501 C 609.462 -0.235873 1.59061 0
M  V30 6502 O 610.652 -0.0143167 1.74194 0
M  V30 6503 C 607.784 0.084471 3.40795 0
M  V30 6504 H 608.977 1.65049 2.50397 0
M  V30 6505 H 606.53 0.891264 1.28399 0
M  V30 6506 H 607.265 -0.843795 3.1313 0
M  V30 6507 H 607.05 0.781985 3.84223 0
M  V30 6508 H 608.54 -0.151216 4.17326 0
M  V30 6509 N 608.977 -1.30795 0.87923 0
M  V30 6510 C 610.226 -1.95636 0.490875 0
M  V30 6511 C 610.539 -1.70214 -0.963674 0
M  V30 6512 O 611.745 -2.28991 -1.45861 0
M  V30 6513 C 610.201 -3.50271 0.826929 0
M  V30 6514 C 609.809 -3.84521 2.29886 0
M  V30 6515 C 611.553 -4.21456 0.507494 0
M  V30 6516 C 609.46 -5.32309 2.57685 0
M  V30 6517 H 608.39 -0.732238 0.179841 0
M  V30 6518 H 611.041 -1.48829 1.07341 0
M  V30 6519 H 609.423 -3.9562 0.173542 0
M  V30 6520 H 610.597 -3.50102 2.99609 0
M  V30 6521 H 608.912 -3.26425 2.58526 0
M  V30 6522 H 611.509 -5.30199 0.692293 0
M  V30 6523 H 611.852 -4.12614 -0.552718 0
M  V30 6524 H 612.385 -3.81772 1.11782 0
M  V30 6525 H 609.124 -5.46195 3.62424 0
M  V30 6526 H 608.644 -5.68048 1.92566 0
M  V30 6527 H 610.323 -5.99678 2.42889 0
M  V30 6528 N 610.455 -0.639598 -1.44038 0
M  V30 6529 C 611.701 -0.147698 -2.02261 0
M  V30 6530 C 612.034 1.23031 -1.50256 0
M  V30 6531 O 611.309 1.81847 -0.690068 0
M  V30 6532 C 611.592 -0.14362 -3.59813 0
M  V30 6533 C 611.445 -1.55458 -4.22082 0
M  V30 6534 C 612.764 0.527317 -4.36929 0
M  V30 6535 H 609.883 -0.0551453 -0.734934 0
M  V30 6536 H 612.525 -0.817688 -1.71505 0
M  V30 6537 H 610.675 0.426898 -3.86147 0
M  V30 6538 H 612.347 -2.17464 -4.06826 0
M  V30 6539 H 610.59 -2.10594 -3.79253 0
M  V30 6540 H 611.261 -1.50369 -5.31124 0
M  V30 6541 H 613.737 0.0420504 -4.16079 0
M  V30 6542 H 612.613 0.499389 -5.46624 0
M  V30 6543 H 612.874 1.59914 -4.12165 0
M  V30 6544 N 611.933 1.52934 -0.380664 0
M  V30 6545 C 613.158 2.06363 0.207157 0
M  V30 6546 C 613.583 1.25122 1.4045 0
M  V30 6547 O 612.941 0.274062 1.79217 0
M  V30 6548 C 612.989 3.56162 0.563996 0
M  V30 6549 O 612.093 3.77552 1.65917 0
M  V30 6550 H 611.434 0.663468 0.0265859 0
M  V30 6551 H 613.964 1.9719 -0.545635 0
M  V30 6552 H 613.974 3.99453 0.830752 0
M  V30 6553 H 612.649 4.14732 -0.311427 0
M  V30 6554 H 611.226 3.46154 1.3868 0
M  V30 6555 N 613.412 0.11024 1.57214 0
M  V30 6556 C 614.652 -0.553061 1.96775 0
M  V30 6557 C 615.016 -1.64403 0.991753 0
M  V30 6558 O 616.217 -2.36561 1.27642 0
M  V30 6559 C 614.488 -1.08004 3.4069 0
M  V30 6560 S 616.047 -1.75309 4.02259 0
M  V30 6561 H 612.865 -0.18003 0.68783 0
M  V30 6562 H 615.467 0.193242 1.94543 0
M  V30 6563 H 614.171 -0.274735 4.09479 0
M  V30 6564 H 613.702 -1.86182 3.46554 0
M  V30 6565 H 615.717 -3.03834 3.923 0
M  V30 6566 N 614.89 -1.56749 -0.16351 0
M  V30 6567 C 616.12 -1.86307 -0.892936 0
M  V30 6568 C 616.528 -0.6945 -1.75992 0
M  V30 6569 O 615.871 0.345384 -1.80424 0
M  V30 6570 C 615.933 -3.10372 -1.81409 0
M  V30 6571 C 615.597 -4.42913 -1.12593 0
M  V30 6572 C 616.594 -5.17608 -0.487661 0
M  V30 6573 C 614.279 -4.89646 -1.12035 0
M  V30 6574 C 616.273 -6.3723 0.14699 0
M  V30 6575 C 613.96 -6.09197 -0.481883 0
M  V30 6576 C 614.958 -6.82834 0.150678 0
M  V30 6577 O 614.646 -8.00116 0.779065 0
M  V30 6578 H 614.378 -0.622126 -0.264452 0
M  V30 6579 H 616.932 -2.04728 -0.166063 0
M  V30 6580 H 615.162 -2.87917 -2.58148 0
M  V30 6581 H 616.851 -3.26312 -2.41403 0
M  V30 6582 H 617.617 -4.8258 -0.483888 0
M  V30 6583 H 613.496 -4.32265 -1.60212 0
M  V30 6584 H 617.04 -6.94646 0.641325 0
M  V30 6585 H 612.937 -6.43688 -0.483266 0
M  V30 6586 H 613.705 -8.15678 0.679089 0
M  V30 6587 N 616.368 0.432326 -1.51554 0
M  V30 6588 C 617.616 1.17901 -1.64146 0
M  V30 6589 C 617.937 1.91604 -0.362367 0
M  V30 6590 O 617.207 1.85764 0.621968 0
M  V30 6591 H 615.787 0.438206 -0.604966 0
M  V30 6592 H 618.449 0.495172 -1.88505 0
M  V30 6593 H 617.545 1.90584 -2.47152 0
M  V30 6594 N 617.846 1.41785 0.688094 0
M  V30 6595 C 618.793 1.44221 1.80191 0
M  V30 6596 C 619.763 0.295688 1.63447 0
M  V30 6597 O 620.948 0.49783 1.84191 0
M  V30 6598 C 618.088 1.33743 3.1813 0
M  V30 6599 C 617.201 2.58325 3.46254 0
M  V30 6600 C 616.336 2.40086 4.73848 0
M  V30 6601 C 615.375 3.60107 4.94964 0
M  V30 6602 N 614.512 3.40892 6.13789 0
M  V30 6603 H 619.352 2.39411 1.77444 0
M  V30 6604 H 616.889 1.18876 0.866423 0
M  V30 6605 H 618.847 1.25669 3.97823 0
M  V30 6606 H 617.477 0.42157 3.20035 0
M  V30 6607 H 616.529 2.7682 2.60912 0
M  V30 6608 H 617.841 3.4758 3.57756 0
M  V30 6609 H 616.995 2.29522 5.61609 0
M  V30 6610 H 615.734 1.483 4.64606 0
M  V30 6611 H 614.739 3.71118 4.05649 0
M  V30 6612 H 615.964 4.52857 5.06061 0
M  V30 6613 H 613.91 2.51812 6.05745 0
M  V30 6614 H 613.827 4.23727 6.26092 0
M  V30 6615 H 615.095 3.34114 7.04264 0
M  V30 6616 N 619.324 -0.923095 1.27737 0
M  V30 6617 C 620.552 -1.70525 1.17171 0
M  V30 6618 C 620.967 -1.86847 -0.270881 0
M  V30 6619 O 620.324 -1.38879 -1.18401 0
M  V30 6620 C 620.375 -3.10242 1.85559 0
M  V30 6621 O 620.096 -2.94683 3.24182 0
M  V30 6622 C 621.597 -4.04586 1.81176 0
M  V30 6623 H 618.817 -0.533347 0.407163 0
M  V30 6624 H 621.361 -1.15599 1.68692 0
M  V30 6625 H 619.516 -3.62014 1.3793 0
M  V30 6626 H 619.93 -3.83045 3.58297 0
M  V30 6627 H 621.404 -5.00119 2.33633 0
M  V30 6628 H 621.881 -4.3218 0.782099 0
M  V30 6629 H 622.487 -3.58741 2.2844 0
M  V30 6630 N 620.802 -1.09834 -1.13024 0
M  V30 6631 C 621.749 -0.741522 -2.18564 0
M  V30 6632 C 622.719 0.279236 -1.63736 0
M  V30 6633 O 623.904 0.159923 -1.90129 0
M  V30 6634 C 621.044 -0.17277 -3.44667 0
M  V30 6635 C 620.157 -1.24808 -4.13578 0
M  V30 6636 C 619.292 -0.641631 -5.27311 0
M  V30 6637 C 618.331 -1.69795 -5.88078 0
M  V30 6638 N 617.468 -1.11223 -6.93234 0
M  V30 6639 H 622.308 -1.64576 -2.48432 0
M  V30 6640 H 619.845 -0.822174 -1.21978 0
M  V30 6641 H 621.803 0.17482 -4.16834 0
M  V30 6642 H 620.433 0.694725 -3.15235 0
M  V30 6643 H 619.485 -1.71288 -3.39653 0
M  V30 6644 H 620.797 -2.04795 -4.54819 0
M  V30 6645 H 619.951 -0.243128 -6.06213 0
M  V30 6646 H 618.69 0.189742 -4.87331 0
M  V30 6647 H 617.695 -2.10595 -5.07868 0
M  V30 6648 H 618.92 -2.53206 -6.3013 0
M  V30 6649 H 616.866 -0.302208 -6.55304 0
M  V30 6650 H 616.783 -1.84901 -7.3304 0
M  V30 6651 H 618.051 -0.740068 -7.75979 0
M  V30 6652 N 622.28 1.30327 -0.886154 0
M  V30 6653 C 623.52 1.97886 -0.511912 0
M  V30 6654 C 623.884 1.68417 0.921944 0
M  V30 6655 O 625.085 2.29319 1.40237 0
M  V30 6656 C 623.356 3.48775 -0.780444 0
M  V30 6657 S 624.915 4.35844 -0.508482 0
M  V30 6658 H 621.733 0.685024 -0.190428 0
M  V30 6659 H 624.335 1.58413 -1.14567 0
M  V30 6660 H 623.039 3.67714 -1.82248 0
M  V30 6661 H 622.57 3.93171 -0.134284 0
M  V30 6662 H 624.585 4.91893 0.65239 0
M  V30 6663 N 623.758 0.647228 1.43697 0
M  V30 6664 C 624.986 0.16575 2.06235 0
M  V30 6665 C 625.401 -1.1662 1.48476 0
M  V30 6666 O 624.758 -1.7187 0.613762 0
M  V30 6667 C 624.809 0.0621651 3.61447 0
M  V30 6668 O 624.53 1.34146 4.17057 0
M  V30 6669 C 626.031 -0.446102 4.4105 0
M  V30 6670 H 623.251 0.0871158 0.665321 0
M  V30 6671 H 625.795 0.886183 1.84301 0
M  V30 6672 H 623.95 -0.608794 3.82587 0
M  V30 6673 H 624.364 1.19675 5.10664 0
M  V30 6674 H 625.838 -0.46755 5.50016 0
M  V30 6675 H 626.315 -1.47627 4.13646 0
M  V30 6676 H 626.921 0.192159 4.24866 0
M  V30 6677 N 625.236 -1.5273 0.388769 0
M  V30 6678 C 626.199 -2.25043 -0.434544 0
M  V30 6679 C 627.199 -1.26661 -0.990644 0
M  V30 6680 O 628.389 -1.50762 -0.872731 0
M  V30 6681 C 625.521 -3.00507 -1.60961 0
M  V30 6682 H 626.714 -2.99242 0.198549 0
M  V30 6683 H 624.267 -1.55664 0.140875 0
M  V30 6684 H 625.002 -2.30607 -2.28015 0
M  V30 6685 H 624.787 -3.72716 -1.21757 0
M  V30 6686 H 626.277 -3.55413 -2.19251 0
M  V30 6687 N 626.714 -0.118576 -1.57153 0
M  V30 6688 C 627.939 0.550582 -1.99958 0
M  V30 6689 C 628.364 1.59458 -0.997736 0
M  V30 6690 O 627.722 1.81274 0.0306269 0
M  V30 6691 C 627.77 1.15379 -3.41643 0
M  V30 6692 O 626.874 2.26932 -3.44348 0
M  V30 6693 H 626.215 0.137567 -0.649593 0
M  V30 6694 H 628.745 -0.206926 -2.03551 0
M  V30 6695 H 628.755 1.48942 -3.79843 0
M  V30 6696 H 627.43 0.389087 -4.14076 0
M  V30 6697 H 626.007 1.94812 -3.17967 0
M  V30 6698 N 628.193 1.56834 0.155195 0
M  V30 6699 C 629.141 1.98584 1.21107 0
M  V30 6700 C 630.135 0.876987 1.44932 0
M  V30 6701 O 631.341 1.06215 1.45322 0
M  V30 6702 H 627.716 0.632039 0.407469 0
M  V30 6703 H 629.687 2.86561 0.832195 0
M  V30 6704 C 628.436 2.37555 2.53895 0
M  V30 6705 H 627.759 3.22428 2.3639 0
M  V30 6706 H 629.199 2.70598 3.26424 0
M  V30 6707 C 627.658 1.22507 3.13837 0
M  V30 6708 O 628.188 0.521388 3.98302 0
M  V30 6709 N 626.394 0.991444 2.73164 0
M  V30 6710 H 625.941 1.56544 2.04577 0
M  V30 6711 H 625.899 0.223546 3.13604 0
M  V30 6712 N 629.671 -0.424282 1.51781 0
M  V30 6713 C 630.618 -1.51591 1.74037 0
M  V30 6714 C 631.588 -1.55556 0.582358 0
M  V30 6715 O 632.773 -1.72364 0.818245 0
M  V30 6716 C 629.913 -2.89188 1.8832 0
M  V30 6717 C 629.026 -2.9465 3.1592 0
M  V30 6718 C 628.161 -4.23452 3.20721 0
M  V30 6719 C 627.2 -4.22831 4.42584 0
M  V30 6720 N 626.337 -5.43178 4.44862 0
M  V30 6721 H 631.177 -1.31917 2.67212 0
M  V30 6722 H 628.714 -0.640599 1.32419 0
M  V30 6723 H 630.672 -3.69044 1.94583 0
M  V30 6724 H 629.302 -3.07392 0.985402 0
M  V30 6725 H 628.354 -2.07378 3.18902 0
M  V30 6726 H 629.666 -2.90055 4.05795 0
M  V30 6727 H 628.82 -5.1169 3.25973 0
M  V30 6728 H 627.559 -4.30722 2.28757 0
M  V30 6729 H 626.564 -3.32984 4.37495 0
M  V30 6730 H 627.789 -4.17213 5.35826 0
M  V30 6731 H 625.735 -5.51145 3.55775 0
M  V30 6732 H 625.652 -5.40515 5.28563 0
M  V30 6733 H 626.92 -6.33412 4.54324 0
M  V30 6734 N 631.149 -1.42148 -0.680565 0
M  V30 6735 C 632.097 -1.45401 -1.81552 0
M  V30 6736 C 633.091 -0.33036 -1.66147 0
M  V30 6737 O 634.297 -0.503103 -1.72826 0
M  V30 6738 H 630.672 -0.455265 -0.59853 0
M  V30 6739 H 632.643 -2.41024 -1.75926 0
M  V30 6740 C 631.392 -1.36769 -3.19671 0
M  V30 6741 H 630.715 -2.22525 -3.32149 0
M  V30 6742 H 632.155 -1.43106 -3.9912 0
M  V30 6743 C 630.614 -0.0817752 -3.36801 0
M  V30 6744 O 631.144 0.867707 -3.92216 0
M  V30 6745 N 629.35 -0.000799811 -2.906 0
M  V30 6746 H 628.897 -0.774231 -2.4569 0
M  V30 6747 H 628.855 0.858961 -3.02439 0
M  V30 6748 N 632.627 0.916307 -1.28225 0
M  V30 6749 C 634.043 1.19425 -1.05876 0
M  V30 6750 C 634.243 2.005 0.2005 0
M  V30 6751 O 633.299 2.35806 0.902873 0
M  V30 6752 C 634.612 1.93133 -2.30478 0
M  V30 6753 C 636.16 2.06026 -2.35632 0
M  V30 6754 C 636.635 2.83141 -3.59994 0
M  V30 6755 N 638.126 2.90704 -3.60618 0
M  V30 6756 C 638.861 3.50865 -4.53521 0
M  V30 6757 N 638.357 4.12327 -5.56739 0
M  V30 6758 N 640.15 3.48379 -4.41122 0
M  V30 6759 H 632.301 0.37496 -2.09064 0
M  V30 6760 H 634.564 0.228531 -0.920042 0
M  V30 6761 H 634.27 1.40985 -3.22205 0
M  V30 6762 H 634.144 2.93696 -2.36691 0
M  V30 6763 H 636.531 2.57355 -1.44404 0
M  V30 6764 H 636.612 1.04647 -2.33415 0
M  V30 6765 H 636.256 2.32492 -4.51564 0
M  V30 6766 H 636.186 3.84829 -3.59464 0
M  V30 6767 H 638.677 2.47034 -2.85977 0
M  V30 6768 H 638.99 4.56205 -6.23776 0
M  V30 6769 H 637.335 4.10839 -5.60568 0
M  V30 6770 H 640.526 2.99572 -3.59686 0
M  V30 6771 H 640.699 3.94974 -5.13712 0
M  V30 6772 N 634.105 1.10431 1.1244 0
M  V30 6773 C 635.353 0.845045 1.83585 0
M  V30 6774 C 635.674 -0.631168 1.84503 0
M  V30 6775 O 634.944 -1.45825 1.30813 0
M  V30 6776 H 633.524 0.309628 0.679809 0
M  V30 6777 H 636.186 1.39458 1.36153 0
M  V30 6778 H 635.282 1.20786 2.8778 0
M  V30 6779 N 635.583 -1.29855 0.893053 0
M  V30 6780 C 636.832 -1.95104 0.511597 0
M  V30 6781 C 637.145 -1.71226 -0.945567 0
M  V30 6782 O 638.351 -2.30525 -1.43424 0
M  V30 6783 C 636.807 -3.49374 0.864034 0
M  V30 6784 C 636.415 -3.82061 2.33952 0
M  V30 6785 C 638.159 -4.20894 0.552167 0
M  V30 6786 C 636.066 -5.29546 2.63316 0
M  V30 6787 H 634.996 -0.73029 0.187597 0
M  V30 6788 H 637.647 -1.47682 1.08914 0
M  V30 6789 H 636.029 -3.95413 0.215493 0
M  V30 6790 H 637.203 -3.46904 3.03305 0
M  V30 6791 H 635.518 -3.23665 2.61973 0
M  V30 6792 H 638.115 -5.29435 0.748489 0
M  V30 6793 H 638.458 -4.13178 -0.508924 0
M  V30 6794 H 638.991 -3.80564 1.15825 0
M  V30 6795 H 635.73 -5.4232 3.68197 0
M  V30 6796 H 635.25 -5.65974 1.9858 0
M  V30 6797 H 636.929 -5.97068 2.49236 0
M  V30 6798 N 637.061 -0.65484 -1.43351 0
M  V30 6799 C 638.31 -0.166215 -2.01014 0
M  V30 6800 C 638.623 1.22764 -1.52278 0
M  V30 6801 O 639.829 1.81156 -2.02224 0
M  V30 6802 C 638.285 -0.246341 -3.59056 0
M  V30 6803 C 637.893 -1.64299 -4.16785 0
M  V30 6804 C 639.637 0.184597 -4.24098 0
M  V30 6805 C 637.544 -1.67695 -5.67126 0
M  V30 6806 H 636.474 -0.0583769 -0.751737 0
M  V30 6807 H 639.125 -0.817111 -1.64303 0
M  V30 6808 H 637.507 0.472092 -3.93176 0
M  V30 6809 H 638.681 -2.3869 -3.94162 0
M  V30 6810 H 636.996 -2.02004 -3.6412 0
M  V30 6811 H 639.593 0.179088 -5.344 0
M  V30 6812 H 639.936 1.21632 -3.98135 0
M  V30 6813 H 640.469 -0.482141 -3.94867 0
M  V30 6814 H 637.208 -2.68783 -5.9786 0
M  V30 6815 H 636.728 -0.976313 -5.91801 0
M  V30 6816 H 638.407 -1.42142 -6.31193 0
M  V30 6817 N 638.539 1.52521 -0.396863 0
M  V30 6818 C 639.486 2.26671 0.434624 0
M  V30 6819 C 640.456 1.28584 1.05144 0
M  V30 6820 O 641.641 1.57426 1.07804 0
M  V30 6821 C 638.781 3.08234 1.55196 0
M  V30 6822 C 637.894 4.21261 0.957262 0
M  V30 6823 C 637.029 4.90205 2.04627 0
M  V30 6824 C 636.068 5.95213 1.42787 0
M  V30 6825 N 635.205 6.57723 2.45651 0
M  V30 6826 H 640.045 2.973 -0.204139 0
M  V30 6827 H 637.582 1.46669 -0.112505 0
M  V30 6828 H 639.54 3.53819 2.2106 0
M  V30 6829 H 638.17 2.398 2.16092 0
M  V30 6830 H 637.222 3.79935 0.188005 0
M  V30 6831 H 638.534 4.96624 0.465416 0
M  V30 6832 H 637.688 5.39133 2.78246 0
M  V30 6833 H 636.427 4.14383 2.57174 0
M  V30 6834 H 635.432 5.45616 0.676968 0
M  V30 6835 H 636.657 6.72972 0.910255 0
M  V30 6836 H 634.603 5.84737 2.97353 0
M  V30 6837 H 634.52 7.28723 2.01243 0
M  V30 6838 H 635.788 7.11293 3.18876 0
M  V30 6839 N 640.017 0.126909 1.57088 0
M  V30 6840 C 641.245 -0.53667 1.99819 0
M  V30 6841 C 641.66 -1.5972 1.00673 0
M  V30 6842 O 641.017 -1.825 0.000747365 0
M  V30 6843 C 641.068 -1.15563 3.42531 0
M  V30 6844 O 640.789 -0.137483 4.37884 0
M  V30 6845 C 642.29 -1.90176 4.00435 0
M  V30 6846 H 639.51 -0.141443 0.655923 0
M  V30 6847 H 642.054 0.215578 2.03361 0
M  V30 6848 H 640.209 -1.85861 3.39904 0
M  V30 6849 H 640.623 -0.588229 5.21191 0
M  V30 6850 H 642.097 -2.28801 5.02349 0
M  V30 6851 H 642.574 -2.78002 3.40017 0
M  V30 6852 H 643.18 -1.24623 4.06632 0
M  V30 6853 N 641.495 -1.56914 -0.146875 0
M  V30 6854 C 642.742 -1.83356 -0.859467 0
M  V30 6855 C 643.07 -0.707811 -1.81164 0
M  V30 6856 O 642.325 0.303155 -1.93338 0
M  V30 6857 C 642.624 -3.16128 -1.66727 0
M  V30 6858 C 642.29 -4.42586 -0.861881 0
M  V30 6859 C 640.952 -4.76929 -0.639687 0
M  V30 6860 C 643.304 -5.20344 -0.298643 0
M  V30 6861 C 640.632 -5.86491 0.156451 0
M  V30 6862 C 642.984 -6.30742 0.484536 0
M  V30 6863 C 641.648 -6.63635 0.717306 0
M  V30 6864 H 640.918 -0.670947 -0.314501 0
M  V30 6865 H 643.565 -1.91104 -0.123108 0
M  V30 6866 H 641.87 -3.03831 -2.47374 0
M  V30 6867 H 643.567 -3.33802 -2.2221 0
M  V30 6868 H 640.157 -4.15662 -1.04513 0
M  V30 6869 H 644.341 -4.94186 -0.457585 0
M  V30 6870 H 639.597 -6.10419 0.346292 0
M  V30 6871 H 643.771 -6.90188 0.928105 0
M  V30 6872 H 641.398 -7.48367 1.33607 0
M  V30 6873 N 642.974 0.416227 -1.52004 0
M  V30 6874 C 644.199 1.19029 -1.69843 0
M  V30 6875 C 644.624 1.83708 -0.404103 0
M  V30 6876 O 643.982 1.69711 0.637787 0
M  V30 6877 C 644.03 2.23439 -2.83032 0
M  V30 6878 O 643.134 3.29419 -2.48106 0
M  V30 6879 H 642.475 0.347785 -0.565634 0
M  V30 6880 H 645.005 0.488871 -1.98674 0
M  V30 6881 H 645.015 2.67884 -3.07737 0
M  V30 6882 H 643.69 1.75745 -3.76944 0
M  V30 6883 H 642.267 2.90303 -2.34048 0
M  V30 6884 N 644.452 1.42507 0.673017 0
M  V30 6885 C 645.4 1.46362 1.80779 0
M  V30 6886 C 646.394 0.339166 1.6597 0
M  V30 6887 O 647.6 0.512262 1.72557 0
M  V30 6888 H 643.975 0.458433 0.596107 0
M  V30 6889 H 645.946 2.41953 1.74646 0
M  V30 6890 C 644.695 1.38462 3.18941 0
M  V30 6891 H 644.018 2.24283 3.30964 0
M  V30 6892 H 645.458 1.45221 3.98355 0
M  V30 6893 C 643.917 0.0996354 3.36753 0
M  V30 6894 O 644.447 -0.846894 3.92671 0
M  V30 6895 N 642.653 0.016211 2.90595 0
M  V30 6896 H 642.2 0.78725 2.45276 0
M  V30 6897 H 642.158 -0.84291 3.0289 0
M  V30 6898 N 645.93 -0.909495 1.28709 0
M  V30 6899 C 647.178 -1.65577 1.15882 0
M  V30 6900 C 647.499 -1.928 -0.292108 0
M  V30 6901 O 646.769 -1.54716 -1.20166 0
M  V30 6902 H 645.349 -0.613714 0.425869 0
M  V30 6903 H 648.011 -1.09108 1.61498 0
M  V30 6904 H 647.107 -2.61634 1.70159 0
M  V30 6905 N 647.408 -1.11026 -1.11852 0
M  V30 6906 C 648.648 -0.866348 -1.85132 0
M  V30 6907 C 649.012 0.597236 -1.82475 0
M  V30 6908 O 650.213 0.957744 -2.51159 0
M  V30 6909 C 648.484 -1.40721 -3.28531 0
M  V30 6910 S 650.043 -1.29964 -4.19112 0
M  V30 6911 H 646.861 -0.312899 -0.638447 0
M  V30 6912 H 649.463 -1.41691 -1.34699 0
M  V30 6913 H 648.167 -2.46631 -3.28027 0
M  V30 6914 H 647.698 -0.85349 -3.8403 0
M  V30 6915 H 649.713 -0.261333 -4.95511 0
M  V30 6916 N 648.886 1.2938 -0.899927 0
M  V30 6917 C 650.163 1.9046 -0.445443 0
M  V30 6918 C 650.543 1.81683 1.07492 0
M  V30 6919 O 649.891 1.24371 1.91688 0
M  V30 6920 C 650.101 3.35529 -0.960279 0
M  V30 6921 C 651.449 4.12556 -1.00412 0
M  V30 6922 O 652.473 3.44434 -0.907965 0
M  V30 6923 O 651.332 5.34294 -1.14857 0
M  V30 6924 H 648.426 0.815253 -0.138893 0
M  V30 6925 H 650.972 1.37844 -0.989808 0
M  V30 6926 H 649.744 3.36074 -2.00425 0
M  V30 6927 H 649.367 3.95624 -0.395939 0
M  V30 6928 N 650.364 0.662433 1.43002 0
M  V30 6929 C 651.594 0.187343 2.05749 0
M  V30 6930 C 652.002 -1.15582 1.49791 0
M  V30 6931 O 651.345 -1.72651 0.627487 0
M  V30 6932 C 651.407 0.0316493 3.59486 0
M  V30 6933 C 651.071 1.30156 4.38073 0
M  V30 6934 C 652.068 2.23234 4.69535 0
M  V30 6935 C 649.753 1.54572 4.77926 0
M  V30 6936 C 651.747 3.39012 5.39768 0
M  V30 6937 C 649.434 2.70641 5.47902 0
M  V30 6938 C 650.432 3.62687 5.78746 0
M  V30 6939 O 650.12 4.76728 6.47291 0
M  V30 6940 H 649.852 0.0915214 0.669776 0
M  V30 6941 H 652.406 0.905982 1.8434 0
M  V30 6942 H 650.636 -0.742451 3.79506 0
M  V30 6943 H 652.325 -0.401977 4.03905 0
M  V30 6944 H 653.091 2.05616 4.39257 0
M  V30 6945 H 648.97 0.83804 4.53319 0
M  V30 6946 H 652.514 4.10877 5.63761 0
M  V30 6947 H 648.411 2.88189 5.77596 0
M  V30 6948 H 649.179 4.76113 6.65777 0
M  V30 6949 N 651.842 -1.52309 0.404946 0
M  V30 6950 C 653.088 -2.02065 -0.172455 0
M  V30 6951 C 653.421 -1.29022 -1.45145 0
M  V30 6952 O 652.696 -0.395284 -1.90441 0
M  V30 6953 C 652.979 -3.5759 -0.424433 0
M  V30 6954 C 652.832 -4.41287 0.870945 0
M  V30 6955 C 654.151 -4.23186 -1.20837 0
M  V30 6956 H 651.27 -0.734454 -0.0612035 0
M  V30 6957 H 653.912 -1.82236 0.53759 0
M  V30 6958 H 652.062 -3.74617 -1.02929 0
M  V30 6959 H 653.734 -4.3598 1.50729 0
M  V30 6960 H 651.977 -4.07669 1.48284 0
M  V30 6961 H 652.648 -5.48171 0.649083 0
M  V30 6962 H 655.124 -4.10232 -0.696338 0
M  V30 6963 H 654 -5.31953 -1.35343 0
M  V30 6964 H 654.261 -3.81862 -2.22786 0
M  V30 6965 N 653.32 -0.135238 -1.57019 0
M  V30 6966 C 654.545 0.529343 -2.00531 0
M  V30 6967 C 654.97 1.58391 -1.01459 0
M  V30 6968 O 654.328 1.81296 0.0113986 0
M  V30 6969 C 654.376 1.11748 -3.42848 0
M  V30 6970 O 653.48 2.23267 -3.46736 0
M  V30 6971 H 652.821 0.130669 -0.651016 0
M  V30 6972 H 655.351 -0.228503 -2.0332 0
M  V30 6973 H 655.361 1.44905 -3.81401 0
M  V30 6974 H 654.036 0.345147 -4.14465 0
M  V30 6975 H 652.613 1.91428 -3.20015 0
M  V30 6976 N 654.798 1.5699 0.138552 0
M  V30 6977 C 655.746 1.99858 1.18994 0
M  V30 6978 C 656.74 0.89231 1.43994 0
M  V30 6979 O 657.946 1.0775 1.44187 0
M  V30 6980 H 654.321 0.636325 0.400743 0
M  V30 6981 H 656.292 2.87427 0.801755 0
M  V30 6982 C 655.041 2.40235 2.51361 0
M  V30 6983 H 654.364 3.24917 2.32957 0
M  V30 6984 H 655.804 2.74045 3.23535 0
M  V30 6985 C 654.263 1.25829 3.1252 0
M  V30 6986 O 654.793 0.563604 3.97727 0
M  V30 6987 N 652.999 1.02036 2.72097 0
M  V30 6988 H 652.546 1.58705 2.02905 0
M  V30 6989 H 652.504 0.256796 3.1335 0
M  V30 6990 N 656.276 -0.40816 1.52223 0
M  V30 6991 C 657.223 -1.49737 1.75635 0
M  V30 6992 C 658.193 -1.5493 0.598824 0
M  V30 6993 O 659.378 -1.71487 0.83648 0
M  V30 6994 C 656.518 -2.87174 1.91376 0
M  V30 6995 C 655.631 -2.91283 3.19027 0
M  V30 6996 C 654.766 -4.20026 3.25195 0
M  V30 6997 C 653.805 -4.18113 4.47044 0
M  V30 6998 N 652.942 -5.38429 4.50598 0
M  V30 6999 H 657.782 -1.29075 2.68596 0
M  V30 7000 H 655.319 -0.626518 1.33091 0
M  V30 7001 H 657.277 -3.66959 1.98486 0
M  V30 7002 H 655.907 -3.06329 1.01795 0
M  V30 7003 H 654.959 -2.03984 3.21084 0
M  V30 7004 H 656.271 -2.85734 4.08849 0
M  V30 7005 H 655.425 -5.08204 3.31382 0
M  V30 7006 H 654.164 -4.28271 2.33313 0
M  V30 7007 H 653.169 -3.28325 4.41002 0
M  V30 7008 H 654.394 -4.11507 5.40221 0
M  V30 7009 H 652.34 -5.4734 3.616 0
M  V30 7010 H 652.257 -5.34879 5.34266 0
M  V30 7011 H 653.525 -6.28557 4.61016 0
M  V30 7012 N 657.755 -1.42862 -0.66545 0
M  V30 7013 C 659.003 -1.43546 -1.42264 0
M  V30 7014 C 659.324 -0.0563116 -1.94919 0
M  V30 7015 O 658.594 0.906568 -1.73661 0
M  V30 7016 H 657.174 -0.528464 -0.527953 0
M  V30 7017 H 659.836 -1.78363 -0.785665 0
M  V30 7018 H 658.932 -2.14079 -2.27105 0
M  V30 7019 N 659.233 0.902656 -1.29189 0
M  V30 7020 C 660.479 1.65532 -1.17163 0
M  V30 7021 C 660.812 1.92216 0.276879 0
M  V30 7022 O 660.087 1.53048 1.20027 0
M  V30 7023 C 660.37 3.00629 -1.98228 0
M  V30 7024 C 660.223 2.81029 -3.51202 0
M  V30 7025 C 661.542 4.01321 -1.80635 0
M  V30 7026 H 658.661 0.60071 -0.426985 0
M  V30 7027 H 661.303 1.04578 -1.5863 0
M  V30 7028 H 659.453 3.52656 -1.62991 0
M  V30 7029 H 661.125 2.35927 -3.96404 0
M  V30 7030 H 659.368 2.1587 -3.76275 0
M  V30 7031 H 660.039 3.77014 -4.03192 0
M  V30 7032 H 662.515 3.58394 -2.11406 0
M  V30 7033 H 661.391 4.93792 -2.3971 0
M  V30 7034 H 661.652 4.35505 -0.760754 0
M  V30 7035 N 660.711 1.11618 1.11262 0
M  V30 7036 C 661.988 0.777876 1.79467 0
M  V30 7037 C 662.368 -0.733774 1.97937 0
M  V30 7038 O 661.716 -1.66443 1.56554 0
M  V30 7039 C 661.926 1.5431 3.13032 0
M  V30 7040 C 663.274 1.72357 3.88044 0
M  V30 7041 O 664.298 1.5075 3.22727 0
M  V30 7042 O 663.157 2.08276 5.05256 0
M  V30 7043 H 660.251 0.282018 0.777428 0
M  V30 7044 H 662.797 1.21971 1.17988 0
M  V30 7045 H 661.569 2.57132 2.94956 0
M  V30 7046 H 661.192 1.09495 3.82226 0
M  V30 7047 N 662.189 -1.289 0.906776 0
M  V30 7048 C 663.417 -1.99401 0.551969 0
M  V30 7049 C 663.832 -1.67816 -0.865048 0
M  V30 7050 O 663.189 -0.927078 -1.57199 0
M  V30 7051 C 663.24 -3.53779 0.743152 0
M  V30 7052 O 662.961 -3.84248 2.1044 0
M  V30 7053 C 664.462 -4.41543 0.39424 0
M  V30 7054 H 661.682 -0.636926 0.211106 0
M  V30 7055 H 664.226 -1.64266 1.21807 0
M  V30 7056 H 662.381 -3.87201 0.124143 0
M  V30 7057 H 662.795 -4.78904 2.13895 0
M  V30 7058 H 664.269 -5.48957 0.578814 0
M  V30 7059 H 664.746 -4.34073 -0.669137 0
M  V30 7060 H 665.352 -4.13605 0.990491 0
M  V30 7061 N 663.667 -0.670007 -1.42649 0
M  V30 7062 C 664.913 -0.190568 -2.01903 0
M  V30 7063 C 665.246 1.19817 -1.52832 0
M  V30 7064 O 664.521 1.80342 -0.728485 0
M  V30 7065 C 664.804 -0.21991 -3.59428 0
M  V30 7066 C 664.657 -1.64376 -4.18689 0
M  V30 7067 C 665.976 0.434519 -4.3795 0
M  V30 7068 H 663.095 -0.0707219 -0.733599 0
M  V30 7069 H 665.737 -0.853883 -1.69732 0
M  V30 7070 H 663.887 0.344894 -3.86966 0
M  V30 7071 H 665.559 -2.26044 -4.02122 0
M  V30 7072 H 663.802 -2.18591 -3.747 0
M  V30 7073 H 664.473 -1.61601 -5.27815 0
M  V30 7074 H 666.949 -0.0462156 -4.16074 0
M  V30 7075 H 665.825 0.38333 -5.4756 0
M  V30 7076 H 666.086 1.51135 -4.15464 0
M  V30 7077 N 665.145 1.52092 -0.413018 0
M  V30 7078 C 666.37 2.06756 0.163338 0
M  V30 7079 C 666.795 1.28073 1.37764 0
M  V30 7080 O 666.153 0.312015 1.78595 0
M  V30 7081 C 666.201 3.57278 0.488322 0
M  V30 7082 O 665.305 3.80986 1.57871 0
M  V30 7083 H 664.646 0.663882 0.0125068 0
M  V30 7084 H 667.176 1.95988 -0.587339 0
M  V30 7085 H 667.186 4.01125 0.745836 0
M  V30 7086 H 665.861 4.13978 -0.399327 0
M  V30 7087 H 664.438 3.49017 1.31306 0
M  V30 7088 N 666.623 0.143563 1.56945 0
M  V30 7089 C 667.869 -0.50916 1.96304 0
M  V30 7090 C 668.202 -1.64741 1.0283 0
M  V30 7091 O 667.477 -1.94374 0.0700361 0
M  V30 7092 C 667.76 -1.0186 3.45393 0
M  V30 7093 C 667.613 0.117923 4.49645 0
M  V30 7094 C 668.932 -1.90151 3.96901 0
M  V30 7095 H 666.051 -0.183608 0.713763 0
M  V30 7096 H 668.693 0.224095 1.88674 0
M  V30 7097 H 666.843 -1.64345 3.52027 0
M  V30 7098 H 668.515 0.754145 4.55094 0
M  V30 7099 H 666.758 0.777568 4.26774 0
M  V30 7100 H 667.429 -0.280187 5.51288 0
M  V30 7101 H 669.905 -1.375 3.92725 0
M  V30 7102 H 668.781 -2.22707 5.0169 0
M  V30 7103 H 669.042 -2.83718 3.39052 0
M  V30 7104 N 668.101 -1.57061 -0.130224 0
M  V30 7105 C 669.349 -1.83893 -0.838313 0
M  V30 7106 C 669.67 -0.727046 -1.80939 0
M  V30 7107 O 668.94 0.249927 -1.94299 0
M  V30 7108 H 667.52 -0.67846 -0.312573 0
M  V30 7109 H 670.182 -1.94529 -0.120224 0
M  V30 7110 H 669.278 -2.79419 -1.39038 0
M  V30 7111 N 669.579 0.400081 -1.52437 0
M  V30 7112 C 670.527 1.50851 -1.7705 0
M  V30 7113 C 671.521 1.56928 -0.637969 0
M  V30 7114 O 672.727 1.60226 -0.820212 0
M  V30 7115 H 669.102 0.50186 -0.560036 0
M  V30 7116 H 671.073 1.27281 -2.69893 0
M  V30 7117 C 669.822 2.88117 -1.94638 0
M  V30 7118 H 669.145 2.84187 -2.81208 0
M  V30 7119 H 670.585 3.64942 -2.15855 0
M  V30 7120 C 669.044 3.29206 -0.715899 0
M  V30 7121 O 669.574 4.01544 0.111944 0
M  V30 7122 N 667.78 2.85363 -0.549191 0
M  V30 7123 H 667.327 2.26664 -1.22397 0
M  V30 7124 H 667.285 3.13214 0.27278 0
M  V30 7125 N 671.057 1.43213 0.657864 0
M  V30 7126 C 672.285 1.48015 1.44566 0
M  V30 7127 C 672.7 0.0965951 1.88553 0
M  V30 7128 O 672.057 -0.892221 1.59203 0
M  V30 7129 C 672.108 2.42199 2.68369 0
M  V30 7130 O 671.829 3.75173 2.26223 0
M  V30 7131 C 673.33 2.56195 3.61772 0
M  V30 7132 H 670.55 0.502861 0.444266 0
M  V30 7133 H 673.094 1.87907 0.806917 0
M  V30 7134 H 671.249 2.05514 3.28394 0
M  V30 7135 H 671.663 4.25776 3.06293 0
M  V30 7136 H 673.137 3.26182 4.4532 0
M  V30 7137 H 673.614 1.60534 4.0881 0
M  V30 7138 H 674.22 2.93671 3.07632 0
M  V30 7139 N 672.536 -0.895792 1.29666 0
M  V30 7140 C 673.466 -2.01673 1.17688 0
M  V30 7141 C 674.447 -1.69955 0.0701317 0
M  V30 7142 O 675.632 -1.9258 0.250289 0
M  V30 7143 C 672.762 -3.36568 0.856681 0
M  V30 7144 C 671.716 -3.82509 1.92017 0
M  V30 7145 C 671.042 -5.14574 1.4532 0
M  V30 7146 C 672.342 -4.02409 3.32963 0
M  V30 7147 H 674.036 -2.11953 2.11463 0
M  V30 7148 H 671.582 -1.01839 1.01807 0
M  V30 7149 H 673.535 -4.14498 0.759577 0
M  V30 7150 H 672.259 -3.26391 -0.116763 0
M  V30 7151 H 670.918 -3.068 2.00673 0
M  V30 7152 H 670.566 -5.00815 0.468325 0
M  V30 7153 H 670.266 -5.46283 2.16447 0
M  V30 7154 H 671.79 -5.9504 1.36968 0
M  V30 7155 H 673.204 -4.70808 3.27127 0
M  V30 7156 H 671.601 -4.45478 4.02082 0
M  V30 7157 H 672.671 -3.06616 3.75652 0
M  V30 7158 N 674.014 -1.12206 -1.10668 0
M  V30 7159 C 675.244 -0.897332 -1.86095 0
M  V30 7160 C 675.652 0.556778 -1.80822 0
M  V30 7161 O 674.995 1.39658 -1.19337 0
M  V30 7162 C 675.057 -1.29095 -3.35522 0
M  V30 7163 C 674.721 -2.75586 -3.64556 0
M  V30 7164 C 675.718 -3.73785 -3.6136 0
M  V30 7165 C 673.403 -3.12432 -3.93309 0
M  V30 7166 C 675.397 -5.06845 -3.86506 0
M  V30 7167 C 673.084 -4.45675 -4.18111 0
M  V30 7168 C 674.082 -5.42691 -4.147 0
M  V30 7169 O 673.77 -6.73532 -4.38873 0
M  V30 7170 H 673.502 -0.320704 -0.595084 0
M  V30 7171 H 676.056 -1.49517 -1.40833 0
M  V30 7172 H 674.286 -0.636299 -3.81429 0
M  V30 7173 H 675.975 -1.04073 -3.92331 0
M  V30 7174 H 676.741 -3.46664 -3.39189 0
M  V30 7175 H 672.62 -2.3753 -3.95096 0
M  V30 7176 H 676.164 -5.82559 -3.83758 0
M  V30 7177 H 672.061 -4.72526 -4.39761 0
M  V30 7178 H 672.829 -6.79442 -4.564 0
M  V30 7179 N 675.492 1.28418 -0.913599 0
M  V30 7180 C 676.722 1.98817 -0.56172 0
M  V30 7181 C 677.13 1.68457 0.861321 0
M  V30 7182 O 676.473 0.933653 1.58204 0
M  V30 7183 C 676.535 3.52801 -0.690785 0
M  V30 7184 C 676.199 4.0675 -2.08334 0
M  V30 7185 C 677.196 4.20597 -3.05604 0
M  V30 7186 C 674.881 4.41445 -2.39648 0
M  V30 7187 C 676.875 4.68392 -4.32305 0
M  V30 7188 C 674.562 4.88934 -3.66588 0
M  V30 7189 C 675.56 5.02364 -4.6273 0
M  V30 7190 O 675.248 5.48817 -5.87414 0
M  V30 7191 H 674.98 0.641608 -0.212874 0
M  V30 7192 H 677.534 1.64584 -1.22887 0
M  V30 7193 H 675.764 3.86686 0.0334336 0
M  V30 7194 H 677.453 4.04422 -0.346031 0
M  V30 7195 H 678.219 3.94067 -2.8273 0
M  V30 7196 H 674.098 4.30242 -1.65567 0
M  V30 7197 H 677.642 4.7879 -5.07352 0
M  V30 7198 H 673.539 5.14904 -3.89287 0
M  V30 7199 H 674.307 5.67103 -5.90201 0
M  V30 7200 N 676.97 0.677563 1.42291 0
M  V30 7201 C 678.216 0.201272 2.01799 0
M  V30 7202 C 678.549 -1.19004 1.53465 0
M  V30 7203 O 677.824 -1.79953 0.738039 0
M  V30 7204 C 678.107 0.238968 3.59306 0
M  V30 7205 C 677.96 1.66594 4.17812 0
M  V30 7206 C 679.279 -0.411287 4.38174 0
M  V30 7207 H 676.398 0.0746114 0.733214 0
M  V30 7208 H 679.04 0.862872 1.69276 0
M  V30 7209 H 677.19 -0.324368 3.87144 0
M  V30 7210 H 678.862 2.28173 4.00917 0
M  V30 7211 H 677.105 2.20576 3.73536 0
M  V30 7212 H 677.776 1.64398 5.26951 0
M  V30 7213 H 680.252 0.0682804 4.16044 0
M  V30 7214 H 679.128 -0.354286 5.47755 0
M  V30 7215 H 679.389 -1.4893 4.1626 0
M  V30 7216 N 678.448 -1.51871 0.421078 0
M  V30 7217 C 679.396 -2.28903 -0.413066 0
M  V30 7218 C 680.39 -1.3408 -1.03532 0
M  V30 7219 O 681.596 -1.5149 -0.972146 0
M  V30 7220 H 677.971 -0.736478 -0.152003 0
M  V30 7221 H 679.942 -2.97285 0.257695 0
M  V30 7222 C 678.691 -3.13156 -1.51091 0
M  V30 7223 H 678.014 -3.85997 -1.04145 0
M  V30 7224 H 679.454 -3.7014 -2.06814 0
M  V30 7225 C 677.913 -2.27482 -2.48503 0
M  V30 7226 O 678.443 -1.92325 -3.52667 0
M  V30 7227 N 676.649 -1.91019 -2.18998 0
M  V30 7228 H 676.196 -2.19808 -1.34322 0
M  V30 7229 H 676.154 -1.3399 -2.84419 0
M  V30 7230 N 679.926 -0.151884 -1.56866 0
M  V30 7231 C 680.873 0.785936 -2.17006 0
M  V30 7232 C 681.843 1.2407 -1.10435 0
M  V30 7233 O 683.028 1.31235 -1.38499 0
M  V30 7234 C 680.168 2.01771 -2.79969 0
M  V30 7235 C 679.281 1.6083 -4.00946 0
M  V30 7236 C 678.416 2.79224 -4.51893 0
M  V30 7237 C 677.455 2.3468 -5.65324 0
M  V30 7238 N 676.592 3.461 -6.10867 0
M  V30 7239 H 681.432 0.266286 -2.96808 0
M  V30 7240 H 678.969 0.11972 -1.46612 0
M  V30 7241 H 680.927 2.73989 -3.14621 0
M  V30 7242 H 679.557 2.51139 -2.02803 0
M  V30 7243 H 678.609 0.783592 -3.72242 0
M  V30 7244 H 679.921 1.24119 -4.83111 0
M  V30 7245 H 679.075 3.59625 -4.88625 0
M  V30 7246 H 677.814 3.19183 -3.68746 0
M  V30 7247 H 676.819 1.52721 -5.28163 0
M  V30 7248 H 678.044 1.95801 -6.5026 0
M  V30 7249 H 675.99 3.85671 -5.30654 0
M  V30 7250 H 675.907 3.1342 -6.87971 0
M  V30 7251 H 677.175 4.26844 -6.52246 0
M  V30 7252 N 681.404 1.57128 0.121893 0
M  V30 7253 C 682.334 2.03165 1.15092 0
M  V30 7254 C 683.315 0.915587 1.43356 0
M  V30 7255 O 684.5 1.1851 1.53847 0
M  V30 7256 C 681.63 2.43352 2.47784 0
M  V30 7257 C 680.584 3.58376 2.33989 0
M  V30 7258 C 679.91 3.84454 3.71617 0
M  V30 7259 C 681.21 4.90199 1.80283 0
M  V30 7260 H 682.904 2.89382 0.768023 0
M  V30 7261 H 680.45 1.39218 0.367998 0
M  V30 7262 H 682.403 2.74163 3.20019 0
M  V30 7263 H 681.127 1.54103 2.87958 0
M  V30 7264 H 679.786 3.2777 1.64202 0
M  V30 7265 H 679.434 2.92414 4.09271 0
M  V30 7266 H 679.134 4.61877 3.6324 0
M  V30 7267 H 680.658 4.17714 4.45362 0
M  V30 7268 H 682.072 5.19565 2.42333 0
M  V30 7269 H 680.469 5.71601 1.82735 0
M  V30 7270 H 681.539 4.78904 0.760184 0
M  V30 7271 N 682.882 -0.391992 1.52647 0
M  V30 7272 C 683.792 -1.503 1.80131 0
M  V30 7273 C 684.808 -1.59825 0.687882 0
M  V30 7274 O 685.984 -1.76218 0.975149 0
M  V30 7275 C 683.049 -2.85863 1.96171 0
M  V30 7276 C 682.11 -2.86084 3.20085 0
M  V30 7277 C 681.343 -4.15181 3.35351 0
M  V30 7278 O 681.566 -5.09981 2.55491 0
M  V30 7279 O 680.5 -4.22603 4.28591 0
M  V30 7280 H 684.326 -1.30007 2.74466 0
M  V30 7281 H 681.911 -0.579539 1.37701 0
M  V30 7282 H 683.793 -3.66236 2.08445 0
M  V30 7283 H 682.468 -3.06189 1.05025 0
M  V30 7284 H 681.375 -2.04504 3.13256 0
M  V30 7285 H 682.708 -2.7071 4.11068 0
M  V30 7286 N 684.36 -1.4356 -0.65026 0
M  V30 7287 C 685.608 -1.45046 -1.40734 0
M  V30 7288 C 685.929 -0.0769822 -1.94848 0
M  V30 7289 O 685.199 0.888098 -1.74613 0
M  V30 7290 H 683.779 -0.534034 -0.522318 0
M  V30 7291 H 686.441 -1.79186 -0.766703 0
M  V30 7292 H 685.537 -2.16476 -2.24822 0
M  V30 7293 N 685.838 0.888903 -1.30139 0
M  V30 7294 C 686.785 1.99422 -1.16188 0
M  V30 7295 C 687.755 1.66017 -0.0523869 0
M  V30 7296 O 688.94 1.89506 -0.221864 0
M  V30 7297 C 686.08 3.34325 -0.855612 0
M  V30 7298 C 685.193 3.80445 -2.0466 0
M  V30 7299 C 684.328 5.03975 -1.67876 0
M  V30 7300 C 683.367 5.42492 -2.83493 0
M  V30 7301 N 682.504 6.57206 -2.47032 0
M  V30 7302 H 687.344 2.10687 -2.10749 0
M  V30 7303 H 684.881 1.03165 -1.04859 0
M  V30 7304 H 686.839 4.11968 -0.658681 0
M  V30 7305 H 685.469 3.22756 0.0531155 0
M  V30 7306 H 684.521 2.98745 -2.3549 0
M  V30 7307 H 685.833 4.04933 -2.91257 0
M  V30 7308 H 684.987 5.89232 -1.44535 0
M  V30 7309 H 683.726 4.8135 -0.784431 0
M  V30 7310 H 682.731 4.55764 -3.07505 0
M  V30 7311 H 683.956 5.67093 -3.73607 0
M  V30 7312 H 681.902 6.36164 -1.601 0
M  V30 7313 H 681.819 6.81543 -3.27161 0
M  V30 7314 H 683.087 7.45704 -2.27038 0
M  V30 7315 N 687.317 1.12792 1.10072 0
M  V30 7316 C 688.265 0.794523 2.18609 0
M  V30 7317 C 689.259 -0.220271 1.67962 0
M  V30 7318 O 690.465 -0.0780938 1.79831 0
M  V30 7319 H 686.84 0.239123 0.712969 0
M  V30 7320 H 688.811 1.71823 2.43966 0
M  V30 7321 C 687.56 0.269548 3.46654 0
M  V30 7322 H 686.883 1.04171 3.8599 0
M  V30 7323 H 688.323 0.0746242 4.23934 0
M  V30 7324 C 686.782 -1.00333 3.21613 0
M  V30 7325 O 687.312 -2.08042 3.4363 0
M  V30 7326 N 685.518 -0.931763 2.75257 0
M  V30 7327 H 685.065 -0.0551197 2.57541 0
M  V30 7328 H 685.023 -1.78405 2.58881 0
M  V30 7329 N 688.795 -1.27931 0.920396 0
M  V30 7330 C 689.725 -2.29487 0.431024 0
M  V30 7331 C 690.706 -1.62435 -0.504861 0
M  V30 7332 O 691.891 -1.89797 -0.411176 0
M  V30 7333 C 689.021 -3.45788 -0.323709 0
M  V30 7334 C 687.975 -4.24784 0.523658 0
M  V30 7335 C 687.301 -5.33488 -0.359809 0
M  V30 7336 C 688.601 -4.90874 1.78437 0
M  V30 7337 H 690.295 -2.70671 1.27975 0
M  V30 7338 H 687.841 -1.30121 0.616813 0
M  V30 7339 H 689.794 -4.15927 -0.676952 0
M  V30 7340 H 688.518 -3.03502 -1.2064 0
M  V30 7341 H 687.177 -3.56382 0.85951 0
M  V30 7342 H 686.825 -4.87445 -1.24124 0
M  V30 7343 H 686.525 -5.87247 0.203605 0
M  V30 7344 H 688.049 -6.06472 -0.708787 0
M  V30 7345 H 689.463 -5.53339 1.49963 0
M  V30 7346 H 687.86 -5.54659 2.29071 0
M  V30 7347 H 688.93 -4.14988 2.50824 0
M  V30 7348 N 690.273 -0.685099 -1.4193 0
M  V30 7349 C 691.503 -0.220052 -2.05425 0
M  V30 7350 C 691.911 1.13185 -1.51611 0
M  V30 7351 O 691.254 1.71631 -0.654875 0
M  V30 7352 C 691.316 -0.0888364 -3.5939 0
M  V30 7353 C 690.98 -1.37109 -4.35947 0
M  V30 7354 C 691.977 -2.30675 -4.65924 0
M  V30 7355 C 689.662 -1.62155 -4.75406 0
M  V30 7356 C 691.656 -3.47556 -5.34306 0
M  V30 7357 C 689.343 -2.79324 -5.43527 0
M  V30 7358 C 690.341 -3.71848 -5.72903 0
M  V30 7359 O 690.029 -4.86966 -6.39624 0
M  V30 7360 H 689.761 -0.102165 -0.668235 0
M  V30 7361 H 692.315 -0.935194 -1.82875 0
M  V30 7362 H 690.545 0.681981 -3.80639 0
M  V30 7363 H 692.234 0.337669 -4.04493 0
M  V30 7364 H 693 -2.12579 -4.3593 0
M  V30 7365 H 688.879 -0.910053 -4.51928 0
M  V30 7366 H 692.423 -4.19794 -5.57153 0
M  V30 7367 H 688.32 -2.97342 -5.72938 0
M  V30 7368 H 689.088 -4.86644 -6.58118 0
M  V30 7369 N 691.751 1.51645 -0.429126 0
M  V30 7370 C 692.997 2.02314 0.140286 0
M  V30 7371 C 693.33 1.31314 1.43074 0
M  V30 7372 O 692.605 0.425531 1.89788 0
M  V30 7373 C 692.888 3.5822 0.36749 0
M  V30 7374 C 692.741 4.39846 -0.941039 0
M  V30 7375 C 694.06 4.25055 1.14089 0
M  V30 7376 H 691.179 0.735335 0.0495112 0
M  V30 7377 H 693.821 1.81358 -0.566514 0
M  V30 7378 H 691.971 3.76207 0.969556 0
M  V30 7379 H 693.643 4.33527 -1.57646 0
M  V30 7380 H 691.886 4.05259 -1.54751 0
M  V30 7381 H 692.557 5.47069 -0.73621 0
M  V30 7382 H 695.033 4.11288 0.630986 0
M  V30 7383 H 693.909 5.34038 1.26863 0
M  V30 7384 H 694.17 3.85358 2.16683 0
M  V30 7385 N 693.229 0.160201 1.56784 0
M  V30 7386 C 694.176 -0.774416 2.1742 0
M  V30 7387 C 695.146 -1.23483 1.11091 0
M  V30 7388 O 696.331 -1.30499 1.39193 0
M  V30 7389 C 693.471 -2.00283 2.81035 0
M  V30 7390 C 692.584 -1.58701 4.01793 0
M  V30 7391 C 691.719 -2.76824 4.53367 0
M  V30 7392 C 690.758 -2.31679 5.66561 0
M  V30 7393 N 689.895 -3.42856 6.12694 0
M  V30 7394 H 694.735 -0.250542 2.96945 0
M  V30 7395 H 692.272 -0.111943 1.46673 0
M  V30 7396 H 694.23 -2.72316 3.16069 0
M  V30 7397 H 692.86 -2.5006 2.04132 0
M  V30 7398 H 691.912 -0.76384 3.72652 0
M  V30 7399 H 693.224 -1.21555 4.83762 0
M  V30 7400 H 692.378 -3.57029 4.90525 0
M  V30 7401 H 691.117 -3.17223 3.70433 0
M  V30 7402 H 690.122 -1.49917 5.28966 0
M  V30 7403 H 691.347 -1.9235 6.5129 0
M  V30 7404 H 689.293 -3.82852 5.32692 0
M  V30 7405 H 689.21 -3.09767 6.89624 0
M  V30 7406 H 690.478 -4.23379 6.545 0
M  V30 7407 N 694.707 -1.5719 -0.113559 0
M  V30 7408 C 695.955 -1.84772 -0.818761 0
M  V30 7409 C 696.276 -0.746196 -1.80158 0
M  V30 7410 O 695.546 0.229305 -1.94553 0
M  V30 7411 H 694.126 -0.681737 -0.305359 0
M  V30 7412 H 696.788 -1.94645 -0.0995845 0
M  V30 7413 H 695.884 -2.80878 -1.36067 0
M  V30 7414 N 696.185 0.383891 -1.52853 0
M  V30 7415 C 697.095 1.49343 -1.80925 0
M  V30 7416 C 698.111 1.59458 -0.696348 0
M  V30 7417 O 699.287 1.75698 -0.984481 0
M  V30 7418 C 696.352 2.84819 -1.97684 0
M  V30 7419 C 695.413 2.84382 -3.21598 0
M  V30 7420 C 694.646 4.13397 -3.37548 0
M  V30 7421 O 694.869 5.08619 -2.58192 0
M  V30 7422 O 693.803 4.20325 -4.30826 0
M  V30 7423 H 697.629 1.2855 -2.75152 0
M  V30 7424 H 695.214 0.572229 -1.38007 0
M  V30 7425 H 697.096 3.65125 -2.10385 0
M  V30 7426 H 695.771 3.05627 -1.06647 0
M  V30 7427 H 694.678 2.0284 -3.14336 0
M  V30 7428 H 696.011 2.68526 -4.12498 0
M  V30 7429 N 697.663 1.43903 0.642637 0
M  V30 7430 C 699.074 1.40975 1.22404 0
M  V30 7431 C 699.425 0.1192 1.95838 0
M  V30 7432 O 698.55 -0.780939 2.01818 0
M  V30 7433 C 699.145 2.5538 2.22636 0
M  V30 7434 C 697.704 2.55684 2.76229 0
M  V30 7435 C 696.851 2.32556 1.51039 0
M  V30 7436 H 699.802 1.5265 0.434006 0
M  V30 7437 H 699.823 2.27474 3.05017 0
M  V30 7438 H 699.335 3.49294 1.69161 0
M  V30 7439 H 697.436 1.65679 3.33738 0
M  V30 7440 H 697.549 3.53799 3.23053 0
M  V30 7441 H 695.913 1.81427 1.78764 0
M  V30 7442 H 696.696 3.28569 0.99484 0
M  V30 7443 N 699.141 -0.881989 1.30609 0
M  V30 7444 C 700.39 -1.62878 1.18969 0
M  V30 7445 C 700.703 -1.93946 -0.253859 0
M  V30 7446 O 701.909 -2.67008 -0.491813 0
M  V30 7447 C 700.365 -2.93573 2.0819 0
M  V30 7448 C 699.973 -2.70034 3.57471 0
M  V30 7449 C 701.717 -3.71543 2.0532 0
M  V30 7450 C 699.624 -3.96563 4.38739 0
M  V30 7451 H 698.554 -0.611092 0.441682 0
M  V30 7452 H 701.205 -0.976201 1.55379 0
M  V30 7453 H 699.587 -3.6014 1.64666 0
M  V30 7454 H 700.761 -2.11949 4.09163 0
M  V30 7455 H 699.076 -2.05435 3.62195 0
M  V30 7456 H 701.673 -4.65386 2.63288 0
M  V30 7457 H 702.016 -4.03167 1.03739 0
M  V30 7458 H 702.549 -3.11842 2.46981 0
M  V30 7459 H 699.288 -3.70095 5.41027 0
M  V30 7460 H 698.808 -4.54142 3.9181 0
M  V30 7461 H 700.487 -4.64557 4.50329 0
M  V30 7462 N 700.619 -1.13374 -1.09472 0
M  V30 7463 C 701.868 -0.889844 -1.8101 0
M  V30 7464 C 702.181 0.585686 -1.86625 0
M  V30 7465 O 703.387 0.946497 -2.54467 0
M  V30 7466 C 701.843 -1.54241 -3.25174 0
M  V30 7467 C 701.451 -3.05343 -3.27826 0
M  V30 7468 C 703.195 -1.37919 -4.0147 0
M  V30 7469 C 701.102 -3.63486 -4.6651 0
M  V30 7470 H 700.032 -0.329256 -0.678311 0
M  V30 7471 H 702.683 -1.36139 -1.23038 0
M  V30 7472 H 701.065 -0.998525 -3.83204 0
M  V30 7473 H 702.239 -3.66307 -2.79563 0
M  V30 7474 H 700.554 -3.21175 -2.65019 0
M  V30 7475 H 703.151 -1.78771 -5.03929 0
M  V30 7476 H 703.494 -0.323987 -4.15037 0
M  V30 7477 H 704.027 -1.89284 -3.49881 0
M  V30 7478 H 700.766 -4.68811 -4.58145 0
M  V30 7479 H 700.286 -3.073 -5.15099 0
M  V30 7480 H 701.965 -3.63134 -5.35484 0
M  V30 7481 N 702.098 1.27442 -0.927168 0
M  V30 7482 C 703.046 2.28844 -0.416333 0
M  V30 7483 C 704.04 1.61882 0.499057 0
M  V30 7484 O 705.246 1.75969 0.378817 0
M  V30 7485 H 701.621 0.742989 -0.116065 0
M  V30 7486 H 703.592 2.69344 -1.28438 0
M  V30 7487 C 702.341 3.4626 0.316107 0
M  V30 7488 H 701.664 3.97999 -0.379082 0
M  V30 7489 H 703.104 4.19173 0.637975 0
M  V30 7490 C 701.563 3.00211 1.5289 0
M  V30 7491 O 702.093 3.03837 2.62766 0
M  V30 7492 N 700.299 2.55713 1.38054 0
M  V30 7493 H 699.846 2.52962 0.4866 0
M  V30 7494 H 699.804 2.25264 2.19325 0
M  V30 7495 N 703.576 0.692616 1.41565 0
M  V30 7496 C 704.806 0.230943 2.05305 0
M  V30 7497 C 705.214 -1.12379 1.52209 0
M  V30 7498 O 704.557 -1.71281 0.663968 0
M  V30 7499 C 704.619 0.107894 3.59338 0
M  V30 7500 C 704.283 1.39419 4.35214 0
M  V30 7501 C 705.28 2.33143 4.64694 0
M  V30 7502 C 702.965 1.64674 4.74539 0
M  V30 7503 C 704.959 3.50385 5.32456 0
M  V30 7504 C 702.646 2.82202 5.42038 0
M  V30 7505 C 703.644 3.74881 5.70923 0
M  V30 7506 O 703.332 4.90351 6.37033 0
M  V30 7507 H 703.064 0.105708 0.667684 0
M  V30 7508 H 705.618 0.94488 1.82376 0
M  V30 7509 H 703.848 -0.661785 3.80995 0
M  V30 7510 H 705.537 -0.316213 4.04666 0
M  V30 7511 H 706.303 2.14887 4.34797 0
M  V30 7512 H 702.182 0.934007 4.51439 0
M  V30 7513 H 705.726 4.22743 5.54918 0
M  V30 7514 H 701.623 3.00376 5.71353 0
M  V30 7515 H 702.391 4.90128 6.55528 0
M  V30 7516 N 705.054 -1.51416 0.437162 0
M  V30 7517 C 706.284 -2.06204 -0.127859 0
M  V30 7518 C 706.692 -1.30463 -1.37026 0
M  V30 7519 O 706.035 -0.357516 -1.80187 0
M  V30 7520 C 706.097 -3.55783 -0.515632 0
M  V30 7521 C 705.761 -4.52776 0.619937 0
M  V30 7522 C 706.758 -4.98031 1.49201 0
M  V30 7523 C 704.443 -4.95878 0.800618 0
M  V30 7524 C 706.437 -5.85061 2.52947 0
M  V30 7525 C 704.124 -5.82699 1.84135 0
M  V30 7526 C 705.122 -6.27188 2.70416 0
M  V30 7527 O 704.81 -7.12284 3.72702 0
M  V30 7528 H 704.542 -0.675903 -0.011442 0
M  V30 7529 H 707.096 -1.95977 0.614986 0
M  V30 7530 H 705.326 -3.63793 -1.31118 0
M  V30 7531 H 707.015 -3.93087 -1.01179 0
M  V30 7532 H 707.781 -4.65426 1.36395 0
M  V30 7533 H 703.66 -4.60792 0.138617 0
M  V30 7534 H 707.204 -6.19708 3.20325 0
M  V30 7535 H 703.101 -6.14717 1.9696 0
M  V30 7536 H 703.869 -7.30462 3.69281 0
M  V30 7537 N 706.532 -0.168513 -1.56696 0
M  V30 7538 C 707.809 0.523367 -1.88468 0
M  V30 7539 C 708.189 1.81503 -1.07796 0
M  V30 7540 O 707.537 2.27859 -0.171045 0
M  V30 7541 C 707.747 0.767991 -3.40445 0
M  V30 7542 C 709.095 1.09924 -4.10124 0
M  V30 7543 O 710.119 0.856625 -3.45746 0
M  V30 7544 O 708.978 1.55681 -5.23856 0
M  V30 7545 H 706.072 0.269447 -0.781874 0
M  V30 7546 H 708.618 -0.206739 -1.68436 0
M  V30 7547 H 707.39 -0.145254 -3.9103 0
M  V30 7548 H 707.013 1.55151 -3.66079 0
M  V30 7549 N 708.01 1.57248 0.105221 0
M  V30 7550 C 709.421 1.74612 0.660865 0
M  V30 7551 C 709.772 0.789231 1.79626 0
M  V30 7552 O 708.897 -0.0346611 2.16372 0
M  V30 7553 C 709.492 3.16624 1.20559 0
M  V30 7554 C 708.051 3.35447 1.7074 0
M  V30 7555 C 707.198 2.70445 0.612764 0
M  V30 7556 H 710.149 1.5824 -0.12079 0
M  V30 7557 H 710.17 3.18937 2.07508 0
M  V30 7558 H 709.682 3.86245 0.379012 0
M  V30 7559 H 707.783 2.7089 2.5583 0
M  V30 7560 H 707.896 4.43702 1.80736 0
M  V30 7561 H 706.26 2.32061 1.04975 0
M  V30 7562 H 707.043 3.42699 -0.203066 0
M  V30 7563 N 709.488 -0.375779 1.53054 0
M  V30 7564 C 710.418 -1.46598 1.81745 0
M  V30 7565 C 711.399 -1.56337 0.670286 0
M  V30 7566 O 712.584 -1.71071 0.919158 0
M  V30 7567 C 709.714 -2.84058 1.99821 0
M  V30 7568 C 708.668 -2.8915 3.15557 0
M  V30 7569 C 707.994 -4.29187 3.18908 0
M  V30 7570 C 709.294 -2.57595 4.54359 0
M  V30 7571 H 710.988 -1.22837 2.73041 0
M  V30 7572 H 708.534 -0.589485 1.31381 0
M  V30 7573 H 710.487 -3.60342 2.18475 0
M  V30 7574 H 709.211 -3.09184 1.05226 0
M  V30 7575 H 707.87 -2.15316 2.96706 0
M  V30 7576 H 707.518 -4.51374 2.2197 0
M  V30 7577 H 707.218 -4.33512 3.96662 0
M  V30 7578 H 708.742 -5.07359 3.39734 0
M  V30 7579 H 710.156 -3.23595 4.73243 0
M  V30 7580 H 708.553 -2.73252 5.34279 0
M  V30 7581 H 709.623 -1.52882 4.60169 0
M  V30 7582 N 710.966 -1.44241 -0.634997 0
M  V30 7583 C 712.212 -1.47038 -1.39669 0
M  V30 7584 C 712.545 -0.101122 -1.93937 0
M  V30 7585 O 711.82 0.880699 -1.73418 0
M  V30 7586 C 712.103 -2.52763 -2.56482 0
M  V30 7587 C 711.956 -3.99032 -2.07589 0
M  V30 7588 C 713.275 -2.55031 -3.58674 0
M  V30 7589 H 710.394 -0.53537 -0.506506 0
M  V30 7590 H 713.036 -1.75898 -0.718317 0
M  V30 7591 H 711.186 -2.28284 -3.14354 0
M  V30 7592 H 712.858 -4.3463 -1.54577 0
M  V30 7593 H 711.101 -4.10994 -1.38804 0
M  V30 7594 H 711.772 -4.68649 -2.91671 0
M  V30 7595 H 714.248 -2.76893 -3.10595 0
M  V30 7596 H 713.124 -3.30916 -4.37934 0
M  V30 7597 H 713.385 -1.59085 -4.12486 0
M  V30 7598 N 712.444 0.87505 -1.31075 0
M  V30 7599 C 713.691 1.62768 -1.20469 0
M  V30 7600 C 714.019 1.93034 0.23834 0
M  V30 7601 O 713.274 1.55693 1.18567 0
M  V30 7602 C 713.573 2.96948 -1.98888 0
M  V30 7603 C 713.239 2.86195 -3.4843 0
M  V30 7604 C 711.901 2.82969 -3.89207 0
M  V30 7605 C 714.253 2.73599 -4.43614 0
M  V30 7606 C 711.581 2.64999 -5.23443 0
M  V30 7607 C 713.933 2.57166 -5.77969 0
M  V30 7608 C 712.597 2.52321 -6.17973 0
M  V30 7609 H 711.867 0.595611 -0.440827 0
M  V30 7610 H 714.514 1.01665 -1.62285 0
M  V30 7611 H 712.819 3.62058 -1.49737 0
M  V30 7612 H 714.516 3.54164 -1.88067 0
M  V30 7613 H 711.106 2.8952 -3.16032 0
M  V30 7614 H 715.29 2.7515 -4.13045 0
M  V30 7615 H 710.546 2.5967 -5.53517 0
M  V30 7616 H 714.72 2.46396 -6.51354 0
M  V30 7617 H 712.347 2.38156 -7.21932 0
M  V30 7618 N 713.922 1.13953 1.08869 0
M  V30 7619 C 715.333 0.916649 1.62648 0
M  V30 7620 C 715.684 -0.545589 1.88462 0
M  V30 7621 O 714.809 -1.41351 1.63856 0
M  V30 7622 C 715.404 1.65751 2.95486 0
M  V30 7623 C 713.963 1.48034 3.46068 0
M  V30 7624 C 713.11 1.68305 2.20383 0
M  V30 7625 H 716.061 1.292 0.921572 0
M  V30 7626 H 716.082 1.11794 3.63707 0
M  V30 7627 H 715.594 2.72171 2.76667 0
M  V30 7628 H 713.695 0.439416 3.7 0
M  V30 7629 H 713.808 2.24719 4.23129 0
M  V30 7630 H 712.172 1.10833 2.29321 0
M  V30 7631 H 712.955 2.76057 2.04077 0
M  V30 7632 N 715.4 -1.26948 0.933913 0
M  V30 7633 C 716.625 -1.98724 0.593589 0
M  V30 7634 C 717.05 -1.6915 -0.822801 0
M  V30 7635 O 716.408 -0.93533 -1.5531 0
M  V30 7636 C 716.456 -3.50834 0.833542 0
M  V30 7637 O 715.56 -4.12284 -0.0978788 0
M  V30 7638 H 714.901 -0.623683 0.227849 0
M  V30 7639 H 717.431 -1.61599 1.25486 0
M  V30 7640 H 717.441 -4.01018 0.75156 0
M  V30 7641 H 716.116 -3.71691 1.86597 0
M  V30 7642 H 714.693 -3.72884 0.0345443 0
M  V30 7643 N 716.879 -0.700114 -1.41195 0
M  V30 7644 C 718.156 -0.160836 -1.94938 0
M  V30 7645 C 718.536 1.33014 -1.63922 0
M  V30 7646 O 717.884 2.07878 -0.948636 0
M  V30 7647 C 718.094 -0.456991 -3.45995 0
M  V30 7648 C 719.442 -0.387207 -4.22831 0
M  V30 7649 O 720.466 -0.392164 -3.54035 0
M  V30 7650 O 719.325 -0.351267 -5.4537 0
M  V30 7651 H 716.419 -0.0176304 -0.826812 0
M  V30 7652 H 718.965 -0.776586 -1.50888 0
M  V30 7653 H 717.737 -1.48884 -3.61869 0
M  V30 7654 H 717.36 0.189503 -3.97148 0
M  V30 7655 N 718.357 1.51182 -0.445186 0
M  V30 7656 C 719.267 2.31692 0.368255 0
M  V30 7657 C 720.283 1.40942 1.02036 0
M  V30 7658 O 721.459 1.74011 1.01401 0
M  V30 7659 C 718.524 3.14903 1.45041 0
M  V30 7660 C 717.585 4.21442 0.817615 0
M  V30 7661 C 716.818 5.00677 1.8482 0
M  V30 7662 O 717.041 4.80644 3.07145 0
M  V30 7663 O 715.975 5.84559 1.43438 0
M  V30 7664 H 719.801 3.0232 -0.289219 0
M  V30 7665 H 717.386 1.47951 -0.207555 0
M  V30 7666 H 719.268 3.66612 2.07783 0
M  V30 7667 H 717.943 2.47031 2.09182 0
M  V30 7668 H 716.85 3.73791 0.151931 0
M  V30 7669 H 718.183 4.9171 0.219564 0
M  V30 7670 N 719.835 0.176821 1.56605 0
M  V30 7671 C 721.082 -0.466715 1.97048 0
M  V30 7672 C 721.41 -1.6288 1.06302 0
M  V30 7673 O 720.665 -1.95453 0.0982571 0
M  V30 7674 C 720.964 -0.986208 3.43524 0
M  V30 7675 C 720.63 0.0605667 4.50859 0
M  V30 7676 C 719.292 0.348242 4.79938 0
M  V30 7677 C 721.644 0.770794 5.15469 0
M  V30 7678 C 718.972 1.35144 5.70923 0
M  V30 7679 C 721.324 1.76301 6.07537 0
M  V30 7680 C 719.988 2.05808 6.3498 0
M  V30 7681 H 719.258 -0.170783 0.721051 0
M  V30 7682 H 721.905 0.269942 1.89588 0
M  V30 7683 H 720.21 -1.80079 3.47964 0
M  V30 7684 H 721.907 -1.49323 3.72161 0
M  V30 7685 H 718.497 -0.173823 4.28247 0
M  V30 7686 H 722.681 0.56176 4.9311 0
M  V30 7687 H 717.937 1.58616 5.90467 0
M  V30 7688 H 722.111 2.31868 6.56666 0
M  V30 7689 H 719.738 2.8369 7.05283 0
M  V30 7690 N 721.313 -1.57302 -0.09688 0
M  V30 7691 C 722.59 -1.7701 -0.832272 0
M  V30 7692 C 722.97 -0.758025 -1.97021 0
M  V30 7693 O 722.318 0.213824 -2.27497 0
M  V30 7694 C 722.528 -3.22725 -1.32851 0
M  V30 7695 C 723.876 -3.85856 -1.772 0
M  V30 7696 O 724.9 -3.26464 -1.42478 0
M  V30 7697 O 723.759 -4.90295 -2.41398 0
M  V30 7698 H 720.853 -0.725558 -0.396856 0
M  V30 7699 H 723.399 -1.69516 -0.0789005 0
M  V30 7700 H 722.171 -3.87921 -0.51312 0
M  V30 7701 H 721.794 -3.34845 -2.14394 0
M  V30 7702 N 722.791 0.367657 -1.53252 0
M  V30 7703 C 723.754 1.43308 -1.78873 0
M  V30 7704 C 724.754 1.46671 -0.659115 0
M  V30 7705 O 725.944 1.47468 -0.927306 0
M  V30 7706 C 723.076 2.82442 -1.90892 0
M  V30 7707 H 724.269 1.21864 -2.74024 0
M  V30 7708 H 721.822 0.600668 -1.44297 0
M  V30 7709 H 722.557 3.09202 -0.978 0
M  V30 7710 H 722.342 2.81399 -2.73051 0
M  V30 7711 H 723.832 3.59601 -2.12314 0
M  V30 7712 N 724.269 1.44576 0.627338 0
M  V30 7713 C 725.494 1.51271 1.41887 0
M  V30 7714 C 725.919 0.139814 1.8758 0
M  V30 7715 O 725.277 -0.871746 1.58966 0
M  V30 7716 C 725.325 2.48529 2.61277 0
M  V30 7717 O 724.429 1.98944 3.61241 0
M  V30 7718 H 723.77 0.510668 0.424399 0
M  V30 7719 H 726.3 1.89746 0.765356 0
M  V30 7720 H 726.31 2.66689 3.08773 0
M  V30 7721 H 724.985 3.48249 2.27366 0
M  V30 7722 H 723.562 1.90568 3.20528 0
M  V30 7723 N 725.747 -0.868086 1.31537 0
M  V30 7724 C 726.996 -1.61607 1.20689 0
M  V30 7725 C 727.309 -1.94204 -0.233275 0
M  V30 7726 O 728.515 -2.67515 -0.463465 0
M  V30 7727 C 726.971 -2.91348 2.11292 0
M  V30 7728 C 726.579 -2.66227 3.60315 0
M  V30 7729 C 728.323 -3.69344 2.09249 0
M  V30 7730 C 726.23 -3.91887 4.42921 0
M  V30 7731 H 725.16 -0.606373 0.448138 0
M  V30 7732 H 727.811 -0.959666 1.56405 0
M  V30 7733 H 726.193 -3.58374 1.68477 0
M  V30 7734 H 727.367 -2.07597 4.11388 0
M  V30 7735 H 725.682 -2.01582 3.64354 0
M  V30 7736 H 728.279 -4.62567 2.68209 0
M  V30 7737 H 728.622 -4.02044 1.0801 0
M  V30 7738 H 729.155 -3.09205 2.50274 0
M  V30 7739 H 725.894 -3.64336 5.44922 0
M  V30 7740 H 725.414 -4.49961 3.96605 0
M  V30 7741 H 727.093 -4.59754 4.55231 0
M  V30 7742 N 727.225 -1.14528 -1.08264 0
M  V30 7743 C 728.45 -0.938381 -1.84957 0
M  V30 7744 C 728.875 0.508044 -1.81109 0
M  V30 7745 O 728.233 1.36146 -1.19724 0
M  V30 7746 C 728.281 -1.44568 -3.30352 0
M  V30 7747 O 727.385 -0.638745 -4.07423 0
M  V30 7748 H 726.726 -0.335394 -0.573068 0
M  V30 7749 H 729.256 -1.52287 -1.36637 0
M  V30 7750 H 729.266 -1.45449 -3.81194 0
M  V30 7751 H 727.941 -2.49876 -3.32468 0
M  V30 7752 H 726.518 -0.698801 -3.66294 0
M  V30 7753 N 728.703 1.26451 -0.940633 0
M  V30 7754 C 729.635 2.25556 -0.407104 0
M  V30 7755 C 730.648 1.55888 0.469324 0
M  V30 7756 O 731.837 1.76292 0.279858 0
M  V30 7757 C 728.937 3.36109 0.434064 0
M  V30 7758 C 728.11 4.3532 -0.426082 0
M  V30 7759 C 727.169 5.25004 0.354563 0
M  V30 7760 O 726.195 5.68684 -0.242219 0
M  V30 7761 N 727.397 5.5652 1.65123 0
M  V30 7762 H 730.162 2.7197 -1.25907 0
M  V30 7763 H 727.723 1.40212 -0.809456 0
M  V30 7764 H 729.715 3.93059 0.963684 0
M  V30 7765 H 728.285 2.89194 1.18683 0
M  V30 7766 H 727.505 3.77449 -1.13692 0
M  V30 7767 H 728.793 4.986 -1.01366 0
M  V30 7768 H 728.191 5.22912 2.15822 0
M  V30 7769 H 726.748 6.16115 2.12711 0
M  V30 7770 N 730.181 0.707592 1.40822 0
M  V30 7771 C 731.427 0.244031 2.01326 0
M  V30 7772 C 731.76 -1.15722 1.55955 0
M  V30 7773 O 731.035 -1.78347 0.776044 0
M  V30 7774 C 731.318 0.315128 3.58718 0
M  V30 7775 C 731.171 1.75419 4.14184 0
M  V30 7776 C 732.49 -0.318251 4.38948 0
M  V30 7777 H 729.609 0.0901471 0.731466 0
M  V30 7778 H 732.251 0.898584 1.67408 0
M  V30 7779 H 730.401 -0.242176 3.87744 0
M  V30 7780 H 732.073 2.36626 3.95987 0
M  V30 7781 H 730.316 2.28449 3.68773 0
M  V30 7782 H 730.987 1.75538 5.23345 0
M  V30 7783 H 733.463 0.156514 4.15806 0
M  V30 7784 H 732.339 -0.238019 5.48384 0
M  V30 7785 H 732.6 -1.40067 4.19325 0
M  V30 7786 N 731.66 -1.50943 0.453197 0
M  V30 7787 C 732.608 -2.29728 -0.364419 0
M  V30 7788 C 733.602 -1.36246 -1.00664 0
M  V30 7789 O 734.808 -1.53518 -0.939794 0
M  V30 7790 H 731.183 -0.739536 -0.136347 0
M  V30 7791 H 733.154 -2.96672 0.320696 0
M  V30 7792 C 731.903 -3.1629 -1.44415 0
M  V30 7793 H 731.226 -3.88119 -0.959343 0
M  V30 7794 H 732.666 -3.74444 -1.98917 0
M  V30 7795 C 731.125 -2.32702 -2.43622 0
M  V30 7796 O 731.655 -1.99763 -3.48508 0
M  V30 7797 N 729.861 -1.95621 -2.14897 0
M  V30 7798 H 729.408 -2.22607 -1.29629 0
M  V30 7799 H 729.366 -1.39993 -2.81513 0
M  V30 7800 N 733.138 -0.185124 -1.56509 0
M  V30 7801 C 734.048 0.751908 -2.22224 0
M  V30 7802 C 735.064 1.24244 -1.21817 0
M  V30 7803 O 736.24 1.29169 -1.54523 0
M  V30 7804 C 733.305 1.95837 -2.86092 0
M  V30 7805 C 732.366 1.51337 -4.01741 0
M  V30 7806 C 731.599 2.66233 -4.62554 0
M  V30 7807 O 731.822 3.8346 -4.22273 0
M  V30 7808 O 730.756 2.39517 -5.52191 0
M  V30 7809 H 734.582 0.222304 -3.02885 0
M  V30 7810 H 732.167 0.0437141 -1.49336 0
M  V30 7811 H 734.049 2.66368 -3.26536 0
M  V30 7812 H 732.724 2.47677 -2.08417 0
M  V30 7813 H 731.631 0.777155 -3.65939 0
M  V30 7814 H 732.964 1.04175 -4.81049 0
M  V30 7815 N 734.616 1.57351 0.0885366 0
M  V30 7816 C 735.563 2.02523 1.10693 0
M  V30 7817 C 736.533 0.902736 1.39427 0
M  V30 7818 O 737.718 1.16921 1.50779 0
M  V30 7819 C 734.858 2.46013 2.42016 0
M  V30 7820 C 733.971 3.7181 2.19957 0
M  V30 7821 C 733.106 4.04152 3.44724 0
M  V30 7822 C 732.145 5.2304 3.17956 0
M  V30 7823 N 731.282 5.51102 4.35007 0
M  V30 7824 H 736.122 2.89302 0.714742 0
M  V30 7825 H 733.659 1.43084 0.341378 0
M  V30 7826 H 735.617 2.69274 3.18665 0
M  V30 7827 H 734.247 1.62235 2.79069 0
M  V30 7828 H 733.299 3.55987 1.34079 0
M  V30 7829 H 734.611 4.58604 1.96173 0
M  V30 7830 H 733.765 4.28225 4.29777 0
M  V30 7831 H 732.504 3.15893 3.71568 0
M  V30 7832 H 731.509 4.98781 2.31296 0
M  V30 7833 H 732.734 6.12902 2.92451 0
M  V30 7834 H 730.68 4.65802 4.61914 0
M  V30 7835 H 730.597 6.3228 4.14437 0
M  V30 7836 H 731.865 5.79714 5.21106 0
M  V30 7837 N 736.094 -0.359525 1.53444 0
M  V30 7838 C 737.343 -1.09886 1.69139 0
M  V30 7839 C 737.656 -1.90285 0.452863 0
M  V30 7840 O 738.862 -2.67033 0.490459 0
M  V30 7841 C 737.318 -2.0028 2.99025 0
M  V30 7842 C 736.926 -1.25164 4.30161 0
M  V30 7843 C 738.67 -2.74168 3.24086 0
M  V30 7844 C 736.577 -2.14494 5.51132 0
M  V30 7845 H 735.507 -0.413936 0.630217 0
M  V30 7846 H 738.158 -0.359434 1.79945 0
M  V30 7847 H 736.54 -2.77978 2.82036 0
M  V30 7848 H 737.714 -0.524867 4.57801 0
M  V30 7849 H 736.029 -0.631116 4.11589 0
M  V30 7850 H 738.626 -3.41243 4.11652 0
M  V30 7851 H 738.969 -3.39868 2.40407 0
M  V30 7852 H 739.502 -2.0355 3.41778 0
M  V30 7853 H 736.241 -1.53362 6.37307 0
M  V30 7854 H 735.761 -2.85004 5.27762 0
M  V30 7855 H 737.44 -2.73914 5.86157 0
M  V30 7856 N 737.572 -1.44907 -0.619662 0
M  V30 7857 C 738.52 -1.52971 -1.75222 0
M  V30 7858 C 739.514 -0.400531 -1.64597 0
M  V30 7859 O 740.72 -0.575952 -1.70537 0
M  V30 7860 H 737.095 -0.480241 -0.578682 0
M  V30 7861 H 739.066 -2.48269 -1.65545 0
M  V30 7862 C 737.815 -1.50204 -3.13583 0
M  V30 7863 H 737.138 -2.36412 -3.22412 0
M  V30 7864 H 738.578 -1.59905 -3.92691 0
M  V30 7865 C 737.037 -0.22455 -3.36151 0
M  V30 7866 O 737.567 0.700574 -3.95544 0
M  V30 7867 N 735.773 -0.124052 -2.90335 0
M  V30 7868 H 735.32 -0.87774 -2.42185 0
M  V30 7869 H 735.278 0.729914 -3.0581 0
M  V30 7870 N 739.05 0.861098 -1.31996 0
M  V30 7871 C 739.982 1.97551 -1.16216 0
M  V30 7872 C 740.995 1.625 -0.0988527 0
M  V30 7873 O 742.184 1.75091 -0.3472 0
M  V30 7874 C 739.284 3.30376 -0.755307 0
M  V30 7875 C 738.457 3.93711 -1.90552 0
M  V30 7876 C 737.516 5.04862 -1.48328 0
M  V30 7877 O 736.542 5.25204 -2.19431 0
M  V30 7878 N 737.744 5.79283 -0.375656 0
M  V30 7879 H 740.509 2.11632 -2.12208 0
M  V30 7880 H 738.07 1.03559 -1.24448 0
M  V30 7881 H 740.062 4.0213 -0.455364 0
M  V30 7882 H 738.632 3.12395 0.113269 0
M  V30 7883 H 737.852 3.14825 -2.37231 0
M  V30 7884 H 739.14 4.32762 -2.67571 0
M  V30 7885 H 738.538 5.65286 0.216284 0
M  V30 7886 H 737.095 6.5166 -0.135289 0
M  V30 7887 N 740.528 1.15101 1.07655 0
M  V30 7888 C 741.753 0.948177 1.84457 0
M  V30 7889 C 742.178 -0.498432 1.81376 0
M  V30 7890 O 741.536 -1.35509 1.20445 0
M  V30 7891 C 741.584 1.46318 3.29581 0
M  V30 7892 O 740.688 0.660342 4.07079 0
M  V30 7893 H 740.029 0.338428 0.571281 0
M  V30 7894 H 742.559 1.5301 1.35828 0
M  V30 7895 H 742.569 1.47468 3.80417 0
M  V30 7896 H 741.244 2.51635 3.31138 0
M  V30 7897 H 739.821 0.718216 3.65918 0
M  V30 7898 N 742.006 -1.2595 0.947325 0
M  V30 7899 C 742.936 -2.28521 0.479604 0
M  V30 7900 C 743.917 -1.63469 -0.470293 0
M  V30 7901 O 745.102 -1.90627 -0.370824 0
M  V30 7902 C 742.232 -3.46397 -0.250289 0
M  V30 7903 C 741.186 -4.23578 0.613643 0
M  V30 7904 C 740.512 -5.34131 -0.246568 0
M  V30 7905 C 741.812 -4.86979 1.88809 0
M  V30 7906 H 743.506 -2.67895 1.33688 0
M  V30 7907 H 741.052 -1.28783 0.644274 0
M  V30 7908 H 743.005 -4.17269 -0.588576 0
M  V30 7909 H 741.729 -3.05993 -1.14175 0
M  V30 7910 H 740.388 -3.54478 0.93491 0
M  V30 7911 H 740.036 -4.89968 -1.13756 0
M  V30 7912 H 739.736 -5.86683 0.328123 0
M  V30 7913 H 741.26 -6.07839 -0.579986 0
M  V30 7914 H 742.674 -5.50034 1.61666 0
M  V30 7915 H 741.071 -5.49675 2.40784 0
M  V30 7916 H 742.141 -4.09575 2.5957 0
M  V30 7917 N 743.484 -0.715051 -1.40445 0
M  V30 7918 C 744.447 -0.0708726 -2.2909 0
M  V30 7919 C 745.447 0.687926 -1.45342 0
M  V30 7920 O 746.637 0.519908 -1.66261 0
M  V30 7921 C 743.769 0.909528 -3.28543 0
M  V30 7922 H 744.962 -0.851611 -2.87555 0
M  V30 7923 H 742.515 -0.479674 -1.48758 0
M  V30 7924 H 743.25 1.71734 -2.75096 0
M  V30 7925 H 743.035 0.368318 -3.90366 0
M  V30 7926 H 744.525 1.35744 -3.94922 0
M  V30 7927 N 744.962 1.50701 -0.461195 0
M  V30 7928 C 746.209 2.02267 0.0971971 0
M  V30 7929 C 746.537 1.34387 1.40608 0
M  V30 7930 O 745.792 0.455254 1.90331 0
M  V30 7931 C 746.091 3.55788 0.33908 0
M  V30 7932 C 745.757 4.42092 -0.886885 0
M  V30 7933 C 744.419 4.65398 -1.22304 0
M  V30 7934 C 746.771 4.92571 -1.70361 0
M  V30 7935 C 744.099 5.36429 -2.37616 0
M  V30 7936 C 746.451 5.64868 -2.84793 0
M  V30 7937 C 745.115 5.86431 -3.18834 0
M  V30 7938 H 744.385 0.740146 0.0355669 0
M  V30 7939 H 747.032 1.81415 -0.61326 0
M  V30 7940 H 745.337 3.751 1.13168 0
M  V30 7941 H 747.034 3.93243 0.784937 0
M  V30 7942 H 743.624 4.24165 -0.614981 0
M  V30 7943 H 747.808 4.74428 -1.4571 0
M  V30 7944 H 743.064 5.51333 -2.64276 0
M  V30 7945 H 747.238 6.02966 -3.48432 0
M  V30 7946 H 744.865 6.41248 -4.08296 0
M  V30 7947 N 746.441 0.193421 1.56409 0
M  V30 7948 C 747.69 -0.445995 1.96707 0
M  V30 7949 C 748.003 -1.62876 1.08309 0
M  V30 7950 O 749.209 -2.33586 1.38383 0
M  V30 7951 C 747.665 -0.844863 3.49843 0
M  V30 7952 C 747.273 0.31352 4.46902 0
M  V30 7953 C 749.017 -1.45146 3.98915 0
M  V30 7954 C 746.924 -0.106214 5.91305 0
M  V30 7955 H 745.854 -0.170398 0.734493 0
M  V30 7956 H 748.505 0.285172 1.81271 0
M  V30 7957 H 746.887 -1.63265 3.60778 0
M  V30 7958 H 748.061 1.09103 4.47698 0
M  V30 7959 H 746.376 0.8315 4.08014 0
M  V30 7960 H 748.973 -1.77792 5.04276 0
M  V30 7961 H 749.316 -2.35734 3.43126 0
M  V30 7962 H 749.849 -0.727675 3.91088 0
M  V30 7963 H 746.588 0.765442 6.51016 0
M  V30 7964 H 746.108 -0.848623 5.93766 0
M  V30 7965 H 747.787 -0.542588 6.44721 0
M  V30 7966 N 747.919 -1.57396 -0.0801906 0
M  V30 7967 C 749.335 -1.53564 -0.434778 0
M  V30 7968 C 749.535 -0.912372 -1.79661 0
M  V30 7969 O 748.591 -0.511268 -2.4727 0
M  V30 7970 C 749.904 -2.98244 -0.383561 0
M  V30 7971 C 751.452 -3.09536 -0.46435 0
M  V30 7972 C 751.927 -4.55851 -0.443128 0
M  V30 7973 N 753.418 -4.60456 -0.503448 0
M  V30 7974 C 754.153 -5.71135 -0.509106 0
M  V30 7975 N 753.649 -6.91203 -0.47008 0
M  V30 7976 N 755.442 -5.59353 -0.555035 0
M  V30 7977 H 747.593 -1.96281 0.811635 0
M  V30 7978 H 749.856 -0.898041 0.303689 0
M  V30 7979 H 749.562 -3.47369 0.550236 0
M  V30 7980 H 749.436 -3.57705 -1.19694 0
M  V30 7981 H 751.823 -2.6039 -1.38857 0
M  V30 7982 H 751.904 -2.53 0.377445 0
M  V30 7983 H 751.548 -5.05653 0.477207 0
M  V30 7984 H 751.478 -5.10242 -1.30234 0
M  V30 7985 H 753.969 -3.74048 -0.538199 0
M  V30 7986 H 754.282 -7.7132 -0.478091 0
M  V30 7987 H 752.627 -6.93625 -0.436897 0
M  V30 7988 H 755.818 -4.64453 -0.583158 0
M  V30 7989 H 755.991 -6.4561 -0.555976 0
M  V30 7990 N 749.397 0.351382 -1.53633 0
M  V30 7991 C 750.813 0.693987 -1.43722 0
M  V30 7992 C 751.013 1.9274 -0.587669 0
M  V30 7993 O 750.069 2.52387 -0.0756082 0
M  V30 7994 C 751.382 0.893937 -2.87105 0
M  V30 7995 C 752.93 0.993051 -2.96829 0
M  V30 7996 C 753.405 1.22537 -4.41303 0
M  V30 7997 N 754.896 1.29275 -4.44795 0
M  V30 7998 C 755.631 1.48988 -5.53706 0
M  V30 7999 N 755.127 1.65924 -6.72637 0
M  V30 8000 N 756.92 1.51472 -5.41306 0
M  V30 8001 H 749.071 -0.459688 -2.07366 0
M  V30 8002 H 751.334 -0.143684 -0.937048 0
M  V30 8003 H 751.04 0.0592517 -3.5165 0
M  V30 8004 H 750.914 1.79795 -3.31592 0
M  V30 8005 H 753.301 1.81827 -2.32429 0
M  V30 8006 H 753.382 0.0661119 -2.55715 0
M  V30 8007 H 753.026 0.405117 -5.06282 0
M  V30 8008 H 752.956 2.16575 -4.80003 0
M  V30 8009 H 755.447 1.17743 -3.59089 0
M  V30 8010 H 755.76 1.80578 -7.51406 0
M  V30 8011 H 754.105 1.63075 -6.75597 0
M  V30 8012 H 757.296 1.37818 -4.47352 0
M  V30 8013 H 757.469 1.66493 -6.26246 0
M  V30 8014 N 750.875 1.45233 0.611969 0
M  V30 8015 C 752.1 1.52767 1.40274 0
M  V30 8016 C 752.525 0.159701 1.87421 0
M  V30 8017 O 751.883 -0.854837 1.59882 0
M  V30 8018 C 751.931 2.51286 2.58626 0
M  V30 8019 O 751.035 2.02764 3.59111 0
M  V30 8020 H 750.376 0.515141 0.418958 0
M  V30 8021 H 752.906 1.90547 0.745188 0
M  V30 8022 H 752.916 2.69949 3.05927 0
M  V30 8023 H 751.591 3.50641 2.23659 0
M  V30 8024 H 750.168 1.93957 3.18489 0
M  V30 8025 N 752.353 -0.854086 1.3245 0
M  V30 8026 C 753.63 -1.59188 1.1366 0
M  V30 8027 C 754.01 -2.08917 -0.302807 0
M  V30 8028 O 753.358 -1.8795 -1.29951 0
M  V30 8029 C 753.568 -2.73757 2.16467 0
M  V30 8030 C 754.916 -3.43323 2.49829 0
M  V30 8031 O 755.94 -2.83983 2.15017 0
M  V30 8032 O 754.799 -4.50409 3.09506 0
M  V30 8033 H 751.893 -0.701092 0.438633 0
M  V30 8034 H 754.439 -0.898165 1.43983 0
M  V30 8035 H 753.211 -2.3454 3.1322 0
M  V30 8036 H 752.834 -3.50804 1.87142 0
M  V30 8037 N 753.831 -1.1567 -1.07043 0
M  V30 8038 C 754.741 -0.870435 -2.17855 0
M  V30 8039 C 755.757 0.154452 -1.73313 0
M  V30 8040 O 756.933 -0.0203759 -2.0139 0
M  V30 8041 C 753.998 -0.367219 -3.4475 0
M  V30 8042 C 753.059 -1.45639 -4.03841 0
M  V30 8043 C 752.292 -0.977092 -5.2468 0
M  V30 8044 O 752.515 0.176127 -5.70128 0
M  V30 8045 O 751.449 -1.76215 -5.75527 0
M  V30 8046 H 755.275 -1.79687 -2.44839 0
M  V30 8047 H 752.86 -0.936064 -1.1644 0
M  V30 8048 H 754.742 -0.0931947 -4.21297 0
M  V30 8049 H 753.417 0.53131 -3.1931 0
M  V30 8050 H 752.324 -1.78406 -3.28819 0
M  V30 8051 H 753.657 -2.32995 -4.3356 0
M  V30 8052 N 755.309 1.25446 -0.953992 0
M  V30 8053 C 756.239 2.28264 -0.491717 0
M  V30 8054 C 757.22 1.63717 0.461617 0
M  V30 8055 O 758.405 1.90821 0.36071 0
M  V30 8056 C 755.535 3.46525 0.231915 0
M  V30 8057 C 754.489 4.23247 -0.636098 0
M  V30 8058 C 753.815 5.34254 0.218238 0
M  V30 8059 C 755.115 4.85971 -1.91389 0
M  V30 8060 H 756.809 2.67183 -1.35106 0
M  V30 8061 H 754.355 1.2844 -0.651095 0
M  V30 8062 H 756.308 4.17576 0.566439 0
M  V30 8063 H 755.032 3.06594 1.12551 0
M  V30 8064 H 753.691 3.53978 -0.953696 0
M  V30 8065 H 753.339 4.90564 1.11156 0
M  V30 8066 H 753.039 5.86501 -0.359232 0
M  V30 8067 H 754.563 6.08138 0.547743 0
M  V30 8068 H 755.977 5.49168 -1.64581 0
M  V30 8069 H 754.374 5.48391 -2.43696 0
M  V30 8070 H 755.444 4.08192 -2.61738 0
M  V30 8071 N 756.787 0.722489 1.40064 0
M  V30 8072 C 757.717 0.0892452 2.33329 0
M  V30 8073 C 758.698 -0.737992 1.53257 0
M  V30 8074 O 759.883 -0.685516 1.81698 0
M  V30 8075 C 757.013 -0.828139 3.37282 0
M  V30 8076 C 755.967 -0.106005 4.27869 0
M  V30 8077 C 755.293 -1.13957 5.22415 0
M  V30 8078 C 756.593 1.04395 5.11761 0
M  V30 8079 H 758.287 0.868269 2.86534 0
M  V30 8080 H 755.833 0.418982 1.3777 0
M  V30 8081 H 757.786 -1.28058 4.01471 0
M  V30 8082 H 756.51 -1.63914 2.82489 0
M  V30 8083 H 755.169 0.326683 3.65142 0
M  V30 8084 H 754.817 -1.9438 4.63924 0
M  V30 8085 H 754.517 -0.661233 5.83868 0
M  V30 8086 H 756.041 -1.59197 5.89482 0
M  V30 8087 H 757.455 0.670541 5.69365 0
M  V30 8088 H 755.852 1.4511 5.82291 0
M  V30 8089 H 756.922 1.87144 4.47331 0
M  V30 8090 N 758.265 -1.50454 0.469181 0
M  V30 8091 C 759.215 -2.25381 -0.344582 0
M  V30 8092 C 760.199 -1.28892 -0.963098 0
M  V30 8093 O 761.391 -1.53805 -0.875964 0
M  V30 8094 C 758.52 -3.12232 -1.4271 0
M  V30 8095 C 757.606 -4.16168 -0.816411 0
M  V30 8096 N 757.997 -5.05762 0.0621424 0
M  V30 8097 C 756.295 -4.32712 -1.08056 0
M  V30 8098 C 756.996 -5.80264 0.408519 0
M  V30 8099 N 755.972 -5.43171 -0.215827 0
M  V30 8100 H 759.774 -2.92016 0.332237 0
M  V30 8101 H 757.288 -1.59911 0.283209 0
M  V30 8102 H 759.285 -3.64514 -2.02324 0
M  V30 8103 H 757.945 -2.47145 -2.10593 0
M  V30 8104 H 758.956 -5.16105 0.430841 0
M  V30 8105 H 755.633 -3.78844 -1.75452 0
M  V30 8106 H 757.023 -6.62408 1.12539 0
M  V30 8107 N 759.743 -0.201713 -1.56304 0
M  V30 8108 C 760.691 0.733133 -2.20744 0
M  V30 8109 C 761.685 1.2148 -1.18064 0
M  V30 8110 O 762.891 1.17692 -1.36193 0
M  V30 8111 H 759.266 0.254789 -0.707521 0
M  V30 8112 H 761.237 0.165996 -2.97938 0
M  V30 8113 C 759.986 1.93925 -2.88597 0
M  V30 8114 H 759.309 1.5777 -3.67353 0
M  V30 8115 H 760.749 2.57158 -3.37114 0
M  V30 8116 C 759.208 2.78219 -1.89989 0
M  V30 8117 O 759.738 3.76353 -1.40432 0
M  V30 8118 N 757.944 2.43847 -1.58072 0
M  V30 8119 H 757.491 1.64103 -1.98565 0
M  V30 8120 H 757.449 3.0053 -0.923524 0
M  V30 8121 N 761.222 1.57436 0.0718424 0
M  V30 8122 C 762.468 1.87525 0.772149 0
M  V30 8123 C 762.801 0.79399 1.77227 0
M  V30 8124 O 762.076 -0.195733 1.93513 0
M  V30 8125 C 762.359 3.28272 1.48018 0
M  V30 8126 C 762.212 4.47052 0.49647 0
M  V30 8127 C 763.531 3.67256 2.42509 0
M  V30 8128 H 760.65 0.682049 0.279245 0
M  V30 8129 H 763.292 1.89967 0.03534 0
M  V30 8130 H 761.442 3.26321 2.10824 0
M  V30 8131 H 763.114 4.61127 -0.126375 0
M  V30 8132 H 761.357 4.33392 -0.188205 0
M  V30 8133 H 762.028 5.42315 1.02949 0
M  V30 8134 H 764.504 3.70301 1.89781 0
M  V30 8135 H 763.38 4.66626 2.89053 0
M  V30 8136 H 763.641 2.97186 3.27312 0
M  V30 8137 N 762.7 -0.34323 1.53817 0
M  V30 8138 C 763.648 -1.44176 1.82527 0
M  V30 8139 C 764.642 -1.54452 0.695772 0
M  V30 8140 O 765.848 -1.57072 0.879114 0
M  V30 8141 H 762.223 -0.480729 0.578277 0
M  V30 8142 H 764.194 -1.17176 2.74431 0
M  V30 8143 C 762.943 -2.80695 2.05197 0
M  V30 8144 H 762.266 -2.73554 2.91561 0
M  V30 8145 H 763.706 -3.56679 2.29251 0
M  V30 8146 C 762.165 -3.26322 0.837589 0
M  V30 8147 O 762.695 -4.01683 0.0371631 0
M  V30 8148 N 760.901 -2.83128 0.654724 0
M  V30 8149 H 760.448 -2.21965 1.30725 0
M  V30 8150 H 760.406 -3.14011 -0.156345 0
M  V30 8151 N 764.178 -1.45556 -0.604258 0
M  V30 8152 C 765.406 -1.53278 -1.38973 0
M  V30 8153 C 765.821 -0.166509 -1.88064 0
M  V30 8154 O 765.178 0.832519 -1.62405 0
M  V30 8155 C 765.229 -2.51992 -2.59195 0
M  V30 8156 O 764.95 -3.8331 -2.12143 0
M  V30 8157 C 766.451 -2.69445 -3.52015 0
M  V30 8158 H 763.671 -0.519003 -0.425297 0
M  V30 8159 H 766.215 -1.90773 -0.736621 0
M  V30 8160 H 764.37 -2.17561 -3.2054 0
M  V30 8161 H 764.784 -4.3685 -2.90279 0
M  V30 8162 H 766.258 -3.42485 -4.32907 0
M  V30 8163 H 766.735 -1.75596 -4.0257 0
M  V30 8164 H 767.341 -3.04886 -2.9652 0
M  V30 8165 N 765.656 0.84705 -1.32902 0
M  V30 8166 C 766.904 1.5986 -1.2365 0
M  V30 8167 C 767.225 1.93974 0.199789 0
M  V30 8168 O 766.495 1.60273 1.12648 0
M  V30 8169 H 765.075 0.592696 -0.454665 0
M  V30 8170 H 767.737 1.01278 -1.66519 0
M  V30 8171 H 766.833 2.53218 -1.82448 0
M  V30 8172 N 767.134 1.16236 1.06428 0
M  V30 8173 C 768.081 0.86769 2.13869 0
M  V30 8174 C 769.051 -0.183298 1.65086 0
M  V30 8175 O 770.236 -0.0488002 1.90738 0
M  V30 8176 C 767.376 0.373427 3.43074 0
M  V30 8177 C 766.489 1.48708 4.05598 0
M  V30 8178 C 765.624 0.947977 5.22673 0
M  V30 8179 C 764.663 2.03793 5.77178 0
M  V30 8180 N 763.8 1.51451 6.85571 0
M  V30 8181 H 768.64 1.78781 2.38414 0
M  V30 8182 H 766.177 0.891892 1.16977 0
M  V30 8183 H 768.135 0.0685035 4.17144 0
M  V30 8184 H 766.765 -0.509752 3.1875 0
M  V30 8185 H 765.817 1.908 3.29089 0
M  V30 8186 H 767.129 2.30964 4.42105 0
M  V30 8187 H 766.283 0.596154 6.03764 0
M  V30 8188 H 765.022 0.0947081 4.87608 0
M  V30 8189 H 764.027 2.39847 4.94726 0
M  V30 8190 H 765.252 2.89514 6.14295 0
M  V30 8191 H 763.198 0.683755 6.52427 0
M  V30 8192 H 763.115 2.27325 7.21013 0
M  V30 8193 H 764.383 1.19123 7.70344 0
M  V30 8194 N 768.612 -1.24939 0.960631 0
M  V30 8195 C 769.837 -1.9742 0.635608 0
M  V30 8196 C 770.262 -1.70857 -0.786737 0
M  V30 8197 O 769.62 -0.968063 -1.53291 0
M  V30 8198 C 769.668 -3.48987 0.907771 0
M  V30 8199 O 768.772 -4.12399 -0.0104053 0
M  V30 8200 H 768.113 -0.61871 0.241027 0
M  V30 8201 H 770.643 -1.58901 1.28886 0
M  V30 8202 H 770.653 -3.99334 0.836453 0
M  V30 8203 H 769.328 -3.6765 1.94439 0
M  V30 8204 H 767.905 -3.72727 0.113631 0
M  V30 8205 N 770.09 -0.729906 -1.39679 0
M  V30 8206 C 771.318 -0.285709 -2.04918 0
M  V30 8207 C 771.733 1.07765 -1.55023 0
M  V30 8208 O 771.09 1.67999 -0.712923 0
M  V30 8209 C 771.141 -0.272793 -3.60469 0
M  V30 8210 O 770.862 -1.58233 -4.08527 0
M  V30 8211 C 772.363 0.188199 -4.429 0
M  V30 8212 H 769.583 -0.125758 -0.65911 0
M  V30 8213 H 772.127 -0.992129 -1.78821 0
M  V30 8214 H 770.282 0.384699 -3.85485 0
M  V30 8215 H 770.696 -1.49245 -5.02818 0
M  V30 8216 H 772.17 0.14608 -5.51807 0
M  V30 8217 H 772.647 1.2326 -4.21549 0
M  V30 8218 H 773.253 -0.439541 -4.23023 0
M  V30 8219 N 771.568 1.50203 -0.477153 0
M  V30 8220 C 772.796 2.0677 0.0732489 0
M  V30 8221 C 773.211 1.34033 1.32968 0
M  V30 8222 O 772.568 0.411412 1.77802 0
M  V30 8223 C 772.619 3.59751 0.35518 0
M  V30 8224 O 772.34 4.29747 -0.851425 0
M  V30 8225 C 773.841 4.3296 0.951877 0
M  V30 8226 H 771.061 0.670929 -0.00978923 0
M  V30 8227 H 773.605 1.93293 -0.667676 0
M  V30 8228 H 771.76 3.7301 1.04605 0
M  V30 8229 H 772.174 5.2106 -0.599708 0
M  V30 8230 H 773.648 5.40952 1.09888 0
M  V30 8231 H 774.125 3.93856 1.94356 0
M  V30 8232 H 774.731 4.24246 0.299208 0
M  V30 8233 N 773.046 0.209999 1.56195 0
M  V30 8234 C 773.994 -0.721416 2.2113 0
M  V30 8235 C 774.988 -1.20852 1.18706 0
M  V30 8236 O 776.194 -1.16968 1.36815 0
M  V30 8237 H 772.569 -0.251033 0.708863 0
M  V30 8238 H 774.54 -0.150193 2.98022 0
M  V30 8239 C 773.289 -1.92392 2.89621 0
M  V30 8240 H 772.612 -1.5582 3.68185 0
M  V30 8241 H 774.052 -2.55367 3.38473 0
M  V30 8242 C 772.511 -2.77208 1.91461 0
M  V30 8243 O 773.041 -3.75603 1.42426 0
M  V30 8244 N 771.247 -2.43006 1.59363 0
M  V30 8245 H 770.794 -1.63047 1.99433 0
M  V30 8246 H 770.752 -3.00036 0.939449 0
M  V30 8247 N 774.524 -1.57472 -0.0634922 0
M  V30 8248 C 775.773 -1.86837 -0.759928 0
M  V30 8249 C 776.086 -0.803823 -1.7832 0
M  V30 8250 O 777.292 -0.985578 -2.52979 0
M  V30 8251 C 775.748 -3.31448 -1.4025 0
M  V30 8252 C 775.356 -4.46052 -0.417368 0
M  V30 8253 C 777.1 -3.70003 -2.08082 0
M  V30 8254 C 775.007 -5.81707 -1.06633 0
M  V30 8255 H 773.937 -0.697009 -0.287567 0
M  V30 8256 H 776.588 -1.83495 -0.0133914 0
M  V30 8257 H 774.97 -3.29427 -2.19759 0
M  V30 8258 H 776.144 -4.5948 0.348503 0
M  V30 8259 H 774.459 -4.16104 0.156955 0
M  V30 8260 H 777.056 -4.68653 -2.57426 0
M  V30 8261 H 777.399 -3.00226 -2.88393 0
M  V30 8262 H 777.932 -3.7405 -1.35394 0
M  V30 8263 H 774.671 -6.54798 -0.303374 0
M  V30 8264 H 774.191 -5.72064 -1.80286 0
M  V30 8265 H 775.87 -6.27317 -1.58376 0
M  V30 8266 N 776.003 0.335068 -1.53997 0
M  V30 8267 C 776.936 1.43533 -1.77407 0
M  V30 8268 C 777.914 1.5017 -0.623529 0
M  V30 8269 O 779.098 1.67756 -0.85966 0
M  V30 8270 C 776.225 2.81712 -1.88033 0
M  V30 8271 C 775.271 2.92661 -3.10245 0
M  V30 8272 S 776.104 2.58254 -4.69111 0
M  V30 8273 C 777.26 3.98525 -4.82627 0
M  V30 8274 H 777.493 1.2346 -2.70453 0
M  V30 8275 H 775.026 0.531234 -1.44973 0
M  V30 8276 H 776.984 3.61314 -1.9484 0
M  V30 8277 H 775.645 2.99075 -0.959849 0
M  V30 8278 H 774.838 3.93931 -3.14379 0
M  V30 8279 H 774.44 2.21017 -3.01708 0
M  V30 8280 H 776.732 4.93146 -4.64557 0
M  V30 8281 H 777.675 3.9938 -5.84723 0
M  V30 8282 H 778.083 3.86945 -4.11016 0
M  V30 8283 N 777.481 1.45874 0.596531 0
M  V30 8284 C 778.73 1.49737 1.35135 0
M  V30 8285 C 779.043 0.147755 1.95041 0
M  V30 8286 O 780.249 0.0640984 2.71424 0
M  V30 8287 C 778.705 2.6378 2.44843 0
M  V30 8288 C 778.313 4.05102 1.91301 0
M  V30 8289 C 780.057 2.769 3.21755 0
M  V30 8290 C 777.964 5.10508 2.98557 0
M  V30 8291 H 776.894 0.557219 0.507959 0
M  V30 8292 H 779.545 1.72046 0.638147 0
M  V30 8293 H 777.927 2.34774 3.189 0
M  V30 8294 H 779.101 4.43836 1.2388 0
M  V30 8295 H 777.416 3.96528 1.271 0
M  V30 8296 H 780.013 3.52819 4.01775 0
M  V30 8297 H 780.356 1.83924 3.73467 0
M  V30 8298 H 780.889 3.05485 2.54802 0
M  V30 8299 H 777.628 6.0523 2.51749 0
M  V30 8300 H 777.148 4.76332 3.6451 0
M  V30 8301 H 778.827 5.35745 3.62748 0
M  V30 8302 N 778.959 -0.83999 1.33349 0
M  V30 8303 C 780.187 -1.62728 1.27778 0
M  V30 8304 C 780.602 -1.88191 -0.151505 0
M  V30 8305 O 779.959 -1.46128 -1.09329 0
M  V30 8306 C 780.01 -2.97813 2.04913 0
M  V30 8307 O 779.731 -2.73469 3.42266 0
M  V30 8308 C 781.232 -3.92245 2.0654 0
M  V30 8309 H 778.452 -0.506374 0.440257 0
M  V30 8310 H 780.996 -1.04637 1.75703 0
M  V30 8311 H 779.151 -3.52509 1.60674 0
M  V30 8312 H 779.565 -3.59483 3.81932 0
M  V30 8313 H 781.039 -4.84249 2.64966 0
M  V30 8314 H 781.516 -4.26332 1.05537 0
M  V30 8315 H 782.122 -3.43487 2.50793 0
M  V30 8316 N 780.437 -1.16799 -1.0581 0
M  V30 8317 C 781.665 -0.97687 -1.82387 0
M  V30 8318 C 782.08 0.474917 -1.82729 0
M  V30 8319 O 781.437 1.3297 -1.25001 0
M  V30 8320 C 781.488 -1.50279 -3.28783 0
M  V30 8321 O 781.209 -2.89772 -3.28578 0
M  V30 8322 C 782.71 -1.35538 -4.22071 0
M  V30 8323 H 779.93 -0.345977 -0.574927 0
M  V30 8324 H 782.474 -1.54942 -1.33466 0
M  V30 8325 H 780.629 -0.972414 -3.74997 0
M  V30 8326 H 781.043 -3.13954 -4.20159 0
M  V30 8327 H 782.517 -1.7716 -5.22799 0
M  V30 8328 H 782.994 -0.301598 -4.38163 0
M  V30 8329 H 783.6 -1.87562 -3.81708 0
M  V30 8330 N 781.915 1.24427 -0.967243 0
M  V30 8331 C 783.164 1.91789 -0.624478 0
M  V30 8332 C 783.477 1.76448 0.844129 0
M  V30 8333 O 784.683 2.38495 1.2974 0
M  V30 8334 C 783.139 3.43743 -1.06626 0
M  V30 8335 C 782.747 3.67771 -2.55829 0
M  V30 8336 C 784.491 4.16958 -0.79662 0
M  V30 8337 C 782.398 5.13293 -2.93742 0
M  V30 8338 H 781.328 0.71811 -0.229856 0
M  V30 8339 H 783.979 1.41081 -1.17339 0
M  V30 8340 H 782.361 3.93484 -0.445663 0
M  V30 8341 H 783.535 3.28631 -3.23015 0
M  V30 8342 H 781.85 3.07841 -2.80398 0
M  V30 8343 H 784.447 5.24171 -1.05589 0
M  V30 8344 H 784.79 4.15442 0.267163 0
M  V30 8345 H 785.323 3.73164 -1.37816 0
M  V30 8346 H 782.062 5.19931 -3.9919 0
M  V30 8347 H 781.582 5.53433 -2.3124 0
M  V30 8348 H 783.261 5.81521 -2.83623 0
M  V30 8349 N 783.393 0.737304 1.3929 0
M  V30 8350 C 784.642 0.283129 1.99703 0
M  V30 8351 C 784.955 -1.13677 1.59176 0
M  V30 8352 O 786.161 -1.69058 2.12442 0
M  V30 8353 C 784.617 0.455262 3.57009 0
M  V30 8354 C 784.225 1.88319 4.06497 0
M  V30 8355 C 785.969 0.0629786 4.24453 0
M  V30 8356 C 783.876 2.00475 5.56385 0
M  V30 8357 H 782.806 0.102106 0.747054 0
M  V30 8358 H 785.457 0.911515 1.5926 0
M  V30 8359 H 783.839 -0.242057 3.9526 0
M  V30 8360 H 785.013 2.61265 3.79575 0
M  V30 8361 H 783.328 2.2289 3.51723 0
M  V30 8362 H 785.925 0.132787 5.34535 0
M  V30 8363 H 786.268 -0.982128 4.04549 0
M  V30 8364 H 786.801 0.71154 3.91385 0
M  V30 8365 H 783.54 3.03182 5.81172 0
M  V30 8366 H 783.06 1.31969 5.85102 0
M  V30 8367 H 784.739 1.787 6.21832 0
M  V30 8368 N 784.871 -1.49948 0.485112 0
M  V30 8369 C 786.12 -2.01589 -0.066765 0
M  V30 8370 C 786.433 -1.371 -1.39509 0
M  V30 8371 O 787.639 -1.79978 -2.03274 0
M  V30 8372 C 786.095 -3.59501 -0.169476 0
M  V30 8373 C 785.703 -4.32955 1.15126 0
M  V30 8374 C 787.447 -4.19138 -0.672564 0
M  V30 8375 C 785.354 -5.82684 1.01158 0
M  V30 8376 H 784.284 -0.753453 -0.0287259 0
M  V30 8377 H 786.935 -1.72632 0.622132 0
M  V30 8378 H 785.317 -3.85106 -0.922471 0
M  V30 8379 H 786.491 -4.19064 1.9163 0
M  V30 8380 H 784.806 -3.84991 1.58654 0
M  V30 8381 H 787.403 -5.28767 -0.794325 0
M  V30 8382 H 787.746 -3.81447 -1.66745 0
M  V30 8383 H 788.279 -3.97793 0.0234415 0
M  V30 8384 H 785.018 -6.24873 1.98025 0
M  V30 8385 H 784.538 -5.99112 0.287151 0
M  V30 8386 H 786.217 -6.43376 0.683847 0
M  V30 8387 N 786.349 -0.21828 -1.56081 0
M  V30 8388 C 787.595 0.414921 -1.9851 0
M  V30 8389 C 787.928 1.59648 -1.10573 0
M  V30 8390 O 787.203 1.93818 -0.162695 0
M  V30 8391 C 787.486 0.852647 -3.4986 0
M  V30 8392 C 787.339 -0.33232 -4.48571 0
M  V30 8393 C 788.658 1.70998 -4.05521 0
M  V30 8394 H 785.777 0.149344 -0.72171 0
M  V30 8395 H 788.419 -0.313858 -1.8739 0
M  V30 8396 H 786.569 1.47362 -3.59467 0
M  V30 8397 H 788.241 -0.970418 -4.50977 0
M  V30 8398 H 786.484 -0.980302 -4.22578 0
M  V30 8399 H 787.155 0.0168407 -5.51997 0
M  V30 8400 H 789.631 1.18606 -3.98838 0
M  V30 8401 H 788.507 1.98517 -5.11744 0
M  V30 8402 H 788.768 2.67219 -3.52202 0
M  V30 8403 N 787.827 1.57504 0.0551401 0
M  V30 8404 C 789.076 1.87237 0.750009 0
M  V30 8405 C 789.389 0.813268 1.77891 0
M  V30 8406 O 790.595 0.99898 2.52453 0
M  V30 8407 C 789.051 3.32187 1.38491 0
M  V30 8408 C 788.659 4.46267 0.393707 0
M  V30 8409 C 790.403 3.71101 2.06117 0
M  V30 8410 C 788.31 5.82265 1.03547 0
M  V30 8411 H 787.24 0.698524 0.283866 0
M  V30 8412 H 789.891 1.835 0.00365997 0
M  V30 8413 H 788.273 3.30588 2.18008 0
M  V30 8414 H 789.447 4.59289 -0.372865 0
M  V30 8415 H 787.762 4.16015 -0.17902 0
M  V30 8416 H 790.359 4.70012 2.54937 0
M  V30 8417 H 790.702 3.01751 2.86796 0
M  V30 8418 H 791.235 3.74762 1.33409 0
M  V30 8419 H 787.974 6.54949 0.268644 0
M  V30 8420 H 787.494 5.73012 1.7725 0
M  V30 8421 H 789.173 6.28148 1.55047 0
M  V30 8422 N 789.305 -0.326896 1.54172 0
M  V30 8423 C 790.554 -1.06274 1.71431 0
M  V30 8424 C 790.867 -1.89282 0.493123 0
M  V30 8425 O 792.073 -2.65933 0.54699 0
M  V30 8426 C 790.529 -1.93892 3.03206 0
M  V30 8427 C 790.137 -1.16011 4.32719 0
M  V30 8428 C 791.881 -2.67232 3.29829 0
M  V30 8429 C 789.788 -2.02755 5.55558 0
M  V30 8430 H 788.718 -0.400475 0.638855 0
M  V30 8431 H 791.369 -0.321184 1.80667 0
M  V30 8432 H 789.751 -2.71933 2.87869 0
M  V30 8433 H 790.925 -0.427643 4.58811 0
M  V30 8434 H 789.24 -0.54367 4.12836 0
M  V30 8435 H 791.837 -3.32434 4.18798 0
M  V30 8436 H 792.18 -3.34692 2.47562 0
M  V30 8437 H 792.713 -1.96255 3.46018 0
M  V30 8438 H 789.452 -1.3981 6.40417 0
M  V30 8439 H 788.972 -2.73745 5.33689 0
M  V30 8440 H 790.651 -2.61419 5.91835 0
M  V30 8441 N 790.784 -1.46188 -0.588786 0
M  V30 8442 C 792.03 -1.51407 -1.34921 0
M  V30 8443 C 792.363 -0.162771 -1.93517 0
M  V30 8444 O 791.638 0.825082 -1.76132 0
M  V30 8445 C 791.921 -2.60795 -2.48311 0
M  V30 8446 C 791.774 -4.05435 -1.94789 0
M  V30 8447 C 793.093 -2.66313 -3.50379 0
M  V30 8448 H 790.212 -0.551213 -0.489217 0
M  V30 8449 H 792.854 -1.78095 -0.661993 0
M  V30 8450 H 791.004 -2.3817 -3.06932 0
M  V30 8451 H 792.676 -4.39328 -1.40672 0
M  V30 8452 H 790.919 -4.15202 -1.25659 0
M  V30 8453 H 791.59 -4.77691 -2.76613 0
M  V30 8454 H 794.066 -2.86634 -3.01629 0
M  V30 8455 H 792.942 -3.44681 -4.27184 0
M  V30 8456 H 793.203 -1.72127 -4.07216 0
M  V30 8457 N 792.262 0.832906 -1.33792 0
M  V30 8458 C 793.508 1.59089 -1.25772 0
M  V30 8459 C 793.841 1.93414 0.174601 0
M  V30 8460 O 793.116 1.59195 1.11746 0
M  V30 8461 C 793.399 2.89699 -2.13885 0
M  V30 8462 C 793.252 2.62017 -3.65605 0
M  V30 8463 C 794.571 3.91182 -2.01654 0
M  V30 8464 H 791.69 0.577232 -0.458227 0
M  V30 8465 H 794.332 0.960227 -1.6395 0
M  V30 8466 H 792.482 3.4352 -1.81456 0
M  V30 8467 H 794.154 2.14582 -4.08353 0
M  V30 8468 H 792.397 1.95621 -3.87189 0
M  V30 8469 H 793.068 3.55112 -4.2261 0
M  V30 8470 H 795.544 3.46684 -2.30107 0
M  V30 8471 H 794.42 4.80391 -2.65548 0
M  V30 8472 H 794.681 4.30861 -0.990536 0
M  V30 8473 N 793.74 1.17359 1.05189 0
M  V30 8474 C 794.67 0.91365 2.14883 0
M  V30 8475 C 795.651 -0.144365 1.69486 0
M  V30 8476 O 796.836 0.00587861 1.94199 0
M  V30 8477 C 793.966 0.426196 3.44675 0
M  V30 8478 C 792.92 1.4234 4.03638 0
M  V30 8479 C 792.246 0.793902 5.28773 0
M  V30 8480 C 793.546 2.7966 4.41121 0
M  V30 8481 H 795.24 1.831 2.36885 0
M  V30 8482 H 792.786 0.881781 1.13845 0
M  V30 8483 H 794.739 0.231767 4.20762 0
M  V30 8484 H 793.463 -0.526693 3.22325 0
M  V30 8485 H 792.122 1.60457 3.2962 0
M  V30 8486 H 791.77 -0.165824 5.02727 0
M  V30 8487 H 791.47 1.45959 5.69183 0
M  V30 8488 H 792.994 0.609747 6.07548 0
M  V30 8489 H 794.408 2.6526 5.08242 0
M  V30 8490 H 792.805 3.42807 4.92548 0
M  V30 8491 H 793.875 3.34068 3.51464 0
M  V30 8492 N 795.218 -1.23913 0.973828 0
M  V30 8493 C 796.148 -2.27453 0.527969 0
M  V30 8494 C 797.129 -1.6443 -0.435513 0
M  V30 8495 O 798.314 -1.9137 -0.330306 0
M  V30 8496 C 795.444 -3.4685 -0.176757 0
M  V30 8497 C 794.398 -4.22181 0.703352 0
M  V30 8498 C 793.724 -5.34534 -0.133215 0
M  V30 8499 C 795.024 -4.82865 1.99096 0
M  V30 8500 H 796.718 -2.65 1.3934 0
M  V30 8501 H 794.264 -1.27388 0.671446 0
M  V30 8502 H 796.217 -4.18424 -0.499934 0
M  V30 8503 H 794.941 -3.08346 -1.07659 0
M  V30 8504 H 793.6 -3.52416 1.00989 0
M  V30 8505 H 793.248 -4.92271 -1.03338 0
M  V30 8506 H 792.948 -5.85855 0.452494 0
M  V30 8507 H 794.472 -6.08933 -0.450924 0
M  V30 8508 H 795.886 -5.46481 1.73297 0
M  V30 8509 H 794.283 -5.44444 2.52389 0
M  V30 8510 H 795.353 -4.03977 2.68199 0
M  V30 8511 N 796.696 -0.74468 -1.38897 0
M  V30 8512 C 797.921 -0.306119 -2.05128 0
M  V30 8513 C 798.346 1.0541 -1.55789 0
M  V30 8514 O 797.704 1.66993 -0.705909 0
M  V30 8515 C 797.752 -0.328195 -3.59103 0
M  V30 8516 O 796.856 0.680876 -4.06741 0
M  V30 8517 H 796.197 -0.137209 -0.649669 0
M  V30 8518 H 798.727 -1.01331 -1.77745 0
M  V30 8519 H 798.737 -0.175956 -4.0762 0
M  V30 8520 H 797.412 -1.32067 -3.94374 0
M  V30 8521 H 795.989 0.49398 -3.69614 0
M  V30 8522 N 798.174 1.49689 -0.493057 0
M  V30 8523 C 799.104 2.31826 0.279073 0
M  V30 8524 C 800.085 1.39733 0.969987 0
M  V30 8525 O 801.27 1.68646 0.962925 0
M  V30 8526 C 798.4 3.20046 1.34862 0
M  V30 8527 C 797.354 4.20869 0.77805 0
M  V30 8528 C 796.68 4.97971 1.94753 0
M  V30 8529 C 797.98 5.21813 -0.225543 0
M  V30 8530 H 799.674 2.96627 -0.406512 0
M  V30 8531 H 797.22 1.42647 -0.196943 0
M  V30 8532 H 799.173 3.76315 1.89645 0
M  V30 8533 H 797.897 2.53172 2.06328 0
M  V30 8534 H 796.556 3.65733 0.252036 0
M  V30 8535 H 796.204 4.27552 2.64969 0
M  V30 8536 H 795.904 5.66186 1.57187 0
M  V30 8537 H 797.428 5.57082 2.49984 0
M  V30 8538 H 798.842 5.72823 0.233864 0
M  V30 8539 H 797.239 5.97872 -0.516622 0
M  V30 8540 H 798.309 4.71209 -1.14412 0
M  V30 8541 N 799.652 0.226554 1.55963 0
M  V30 8542 C 800.901 -0.40417 1.97609 0
M  V30 8543 C 801.214 -1.60541 1.1174 0
M  V30 8544 O 802.42 -2.30598 1.43307 0
M  V30 8545 C 800.876 -0.770466 3.51556 0
M  V30 8546 C 800.484 0.408244 4.46136 0
M  V30 8547 C 802.228 -1.36651 4.01904 0
M  V30 8548 C 800.135 0.0192347 5.91397 0
M  V30 8549 H 799.065 -0.15478 0.737943 0
M  V30 8550 H 801.716 0.323558 1.80625 0
M  V30 8551 H 800.098 -1.55575 3.6416 0
M  V30 8552 H 801.272 1.18575 4.45283 0
M  V30 8553 H 799.587 0.917859 4.06158 0
M  V30 8554 H 802.184 -1.67055 5.07934 0
M  V30 8555 H 802.527 -2.28403 3.48049 0
M  V30 8556 H 803.06 -0.644556 3.92543 0
M  V30 8557 H 799.799 0.90336 6.49245 0
M  V30 8558 H 799.319 -0.722485 5.95433 0
M  V30 8559 H 800.998 -0.405711 6.45727 0
M  V30 8560 N 801.13 -1.57531 -0.0467866 0
M  V30 8561 C 802.093 -2.04379 -1.03738 0
M  V30 8562 C 803.093 -0.944881 -1.3011 0
M  V30 8563 O 804.283 -1.20904 -1.25411 0
M  V30 8564 C 801.415 -2.44572 -2.37482 0
M  V30 8565 H 802.608 -2.93142 -0.633063 0
M  V30 8566 H 800.161 -1.53526 -0.293177 0
M  V30 8567 H 800.896 -1.58911 -2.82697 0
M  V30 8568 H 800.681 -3.24785 -2.19675 0
M  V30 8569 H 802.171 -2.81307 -3.08636 0
M  V30 8570 N 802.608 0.318715 -1.54344 0
M  V30 8571 C 803.857 1.05363 -1.71993 0
M  V30 8572 C 804.17 1.89018 -0.503155 0
M  V30 8573 O 805.376 2.65639 -0.561085 0
M  V30 8574 C 803.832 1.92281 -3.0423 0
M  V30 8575 C 803.44 1.13715 -4.33328 0
M  V30 8576 C 805.184 2.65479 -3.31242 0
M  V30 8577 C 803.091 1.99806 -5.56625 0
M  V30 8578 H 802.021 0.397081 -0.64097 0
M  V30 8579 H 804.672 0.311598 -1.80835 0
M  V30 8580 H 803.054 2.70402 -2.89307 0
M  V30 8581 H 804.228 0.403305 -4.59032 0
M  V30 8582 H 802.543 0.521769 -4.13118 0
M  V30 8583 H 805.14 3.30209 -4.20555 0
M  V30 8584 H 805.483 3.33374 -2.49334 0
M  V30 8585 H 806.016 1.94417 -3.47054 0
M  V30 8586 H 802.755 1.36411 -6.41149 0
M  V30 8587 H 802.275 2.70911 -5.35133 0
M  V30 8588 H 803.954 2.58277 -5.93213 0
M  V30 8589 N 804.086 1.46499 0.581025 0
M  V30 8590 C 805.334 1.51596 1.33653 0
M  V30 8591 C 805.655 0.169859 1.94259 0
M  V30 8592 O 804.925 -0.803776 1.78651 0
M  V30 8593 H 803.505 0.558346 0.496244 0
M  V30 8594 H 806.167 1.8264 0.680338 0
M  V30 8595 H 805.263 2.26956 2.14237 0
M  V30 8596 N 805.565 -0.825799 1.34232 0
M  V30 8597 C 806.495 -1.95151 1.28212 0
M  V30 8598 C 807.476 -1.69345 0.160123 0
M  V30 8599 O 808.661 -1.90983 0.352019 0
M  V30 8600 C 805.791 -3.31554 1.03388 0
M  V30 8601 C 804.745 -3.71793 2.12023 0
M  V30 8602 C 804.071 -5.06147 1.72392 0
M  V30 8603 C 805.371 -3.84193 3.53826 0
M  V30 8604 H 807.065 -2.00445 2.22401 0
M  V30 8605 H 804.611 -0.962996 1.07063 0
M  V30 8606 H 806.564 -4.09889 0.978225 0
M  V30 8607 H 805.288 -3.26551 0.0564142 0
M  V30 8608 H 803.947 -2.95731 2.16654 0
M  V30 8609 H 803.595 -4.97628 0.733137 0
M  V30 8610 H 803.295 -5.34041 2.451 0
M  V30 8611 H 804.819 -5.86943 1.68317 0
M  V30 8612 H 806.233 -4.52806 3.51624 0
M  V30 8613 H 804.63 -4.23538 4.2513 0
M  V30 8614 H 805.7 -2.86272 3.91377 0
M  V30 8615 N 807.043 -1.17915 -1.04565 0
M  V30 8616 C 807.973 -0.925033 -2.14395 0
M  V30 8617 C 808.954 0.135375 -1.6956 0
M  V30 8618 O 810.139 -0.0161774 -1.94193 0
M  V30 8619 C 807.269 -0.444469 -3.44444 0
M  V30 8620 C 806.223 -1.44478 -4.02877 0
M  V30 8621 C 805.549 -0.821933 -5.28345 0
M  V30 8622 C 806.849 -2.81995 -4.39632 0
M  V30 8623 H 808.543 -1.84354 -2.35911 0
M  V30 8624 H 806.089 -0.887806 -1.13375 0
M  V30 8625 H 808.042 -0.254078 -4.20633 0
M  V30 8626 H 806.766 0.509592 -3.226 0
M  V30 8627 H 805.425 -1.62203 -3.28764 0
M  V30 8628 H 805.073 0.139161 -5.02807 0
M  V30 8629 H 804.773 -1.48976 -5.68401 0
M  V30 8630 H 806.297 -0.641959 -6.07216 0
M  V30 8631 H 807.711 -2.67952 -5.06828 0
M  V30 8632 H 806.108 -3.45414 -4.90723 0
M  V30 8633 H 807.178 -3.35927 -3.49687 0
M  V30 8634 N 808.521 1.23394 -0.980386 0
M  V30 8635 C 809.451 2.2717 -0.540024 0
M  V30 8636 C 810.432 1.64659 0.426787 0
M  V30 8637 O 811.617 1.91543 0.320153 0
M  V30 8638 C 808.747 3.46939 0.15836 0
M  V30 8639 C 807.701 4.21802 -0.725732 0
M  V30 8640 C 807.027 5.34597 0.104866 0
M  V30 8641 C 808.327 4.81802 -2.01654 0
M  V30 8642 H 810.021 2.64257 -1.40743 0
M  V30 8643 H 807.567 1.2703 -0.678193 0
M  V30 8644 H 809.52 4.18683 0.477737 0
M  V30 8645 H 808.244 3.08912 1.06022 0
M  V30 8646 H 806.903 3.51875 -1.02857 0
M  V30 8647 H 806.551 4.92812 1.00726 0
M  V30 8648 H 806.251 5.85607 -0.483557 0
M  V30 8649 H 807.775 6.09163 0.418624 0
M  V30 8650 H 809.189 5.45554 -1.76193 0
M  V30 8651 H 807.586 5.43098 -2.55273 0
M  V30 8652 H 808.656 4.02549 -2.70338 0
M  V30 8653 N 809.999 0.752036 1.385 0
M  V30 8654 C 811.229 0.317812 2.04141 0
M  V30 8655 C 811.637 -1.05822 1.56839 0
M  V30 8656 O 810.98 -1.68311 0.736016 0
M  V30 8657 C 811.042 0.260205 3.58557 0
M  V30 8658 C 810.706 1.57753 4.28909 0
M  V30 8659 C 811.703 2.52642 4.54387 0
M  V30 8660 C 809.388 1.84653 4.67128 0
M  V30 8661 C 811.382 3.72653 5.17116 0
M  V30 8662 C 809.069 3.04938 5.29581 0
M  V30 8663 C 810.067 3.98759 5.54509 0
M  V30 8664 O 809.755 5.16929 6.15662 0
M  V30 8665 H 809.487 0.133931 0.6626 0
M  V30 8666 H 812.041 1.02138 1.78205 0
M  V30 8667 H 810.271 -0.499596 3.83459 0
M  V30 8668 H 811.96 -0.144295 4.05643 0
M  V30 8669 H 812.726 2.33135 4.25292 0
M  V30 8670 H 808.605 1.12464 4.47071 0
M  V30 8671 H 812.149 4.45898 5.36489 0
M  V30 8672 H 808.046 3.24339 5.58099 0
M  V30 8673 H 808.814 5.1749 6.3415 0
M  V30 8674 N 811.477 -1.49425 0.500989 0
M  V30 8675 C 812.717 -2.04357 -0.0419004 0
M  V30 8676 C 813.081 -1.37236 -1.34277 0
M  V30 8677 O 814.282 -1.82889 -1.9699 0
M  V30 8678 C 812.553 -3.56889 -0.19112 0
M  V30 8679 S 814.112 -4.33369 -0.688259 0
M  V30 8680 H 810.93 -0.710998 -0.00177796 0
M  V30 8681 H 813.532 -1.83479 0.674953 0
M  V30 8682 H 812.236 -4.03283 0.760964 0
M  V30 8683 H 811.767 -3.82171 -0.933214 0
M  V30 8684 H 813.782 -4.55961 -1.9574 0
M  V30 8685 N 812.955 -0.234822 -1.55841 0
M  V30 8686 C 813.902 0.6698 -2.20867 0
M  V30 8687 C 814.872 1.18042 -1.16856 0
M  V30 8688 O 816.057 1.23709 -1.45261 0
M  V30 8689 C 813.197 1.86646 -2.90271 0
M  V30 8690 C 812.31 1.39351 -4.08908 0
M  V30 8691 C 811.445 2.54878 -4.66059 0
M  V30 8692 C 810.484 2.04384 -5.76969 0
M  V30 8693 N 809.621 3.13233 -6.28355 0
M  V30 8694 H 814.461 0.10858 -2.97802 0
M  V30 8695 H 811.998 0.041836 -1.4704 0
M  V30 8696 H 813.956 2.56926 -3.28702 0
M  V30 8697 H 812.586 2.40035 -2.15831 0
M  V30 8698 H 811.638 0.585173 -3.75872 0
M  V30 8699 H 812.95 0.983356 -4.89011 0
M  V30 8700 H 812.104 3.33219 -5.07001 0
M  V30 8701 H 810.843 2.99188 -3.85146 0
M  V30 8702 H 809.848 1.24509 -5.35516 0
M  V30 8703 H 811.073 1.61057 -6.59725 0
M  V30 8704 H 809.019 3.57 -5.50352 0
M  V30 8705 H 808.936 2.76511 -7.03618 0
M  V30 8706 H 810.204 3.91669 -6.73955 0
M  V30 8707 N 814.433 1.57553 0.0384317 0
M  V30 8708 C 815.396 2.04927 1.02653 0
M  V30 8709 C 816.396 0.951768 1.29607 0
M  V30 8710 O 817.586 1.21568 1.24768 0
M  V30 8711 C 814.718 2.45828 2.36181 0
M  V30 8712 H 815.911 2.93474 0.617508 0
M  V30 8713 H 813.464 1.53679 0.285031 0
M  V30 8714 H 814.199 1.60408 2.8185 0
M  V30 8715 H 813.984 3.25945 2.1795 0
M  V30 8716 H 815.474 2.82939 3.0714 0
M  V30 8717 N 815.911 -0.310526 1.54511 0
M  V30 8718 C 816.858 -1.38264 1.84802 0
M  V30 8719 C 817.828 -1.50808 0.696141 0
M  V30 8720 O 819.013 -1.6582 0.943846 0
M  V30 8721 C 816.153 -2.74422 2.09252 0
M  V30 8722 C 815.266 -2.70405 3.36906 0
M  V30 8723 C 814.401 -3.98495 3.51248 0
M  V30 8724 C 813.44 -3.88836 4.72729 0
M  V30 8725 N 812.577 -5.08683 4.83928 0
M  V30 8726 H 817.417 -1.11732 2.76261 0
M  V30 8727 H 814.954 -0.540609 1.36806 0
M  V30 8728 H 816.912 -3.53593 2.21422 0
M  V30 8729 H 815.542 -2.99235 1.2107 0
M  V30 8730 H 814.594 -1.83151 3.33406 0
M  V30 8731 H 815.906 -2.59155 4.26193 0
M  V30 8732 H 815.06 -4.861 3.63031 0
M  V30 8733 H 813.799 -4.12567 2.60077 0
M  V30 8734 H 812.804 -2.99615 4.60989 0
M  V30 8735 H 814.029 -3.76318 5.65298 0
M  V30 8736 H 811.975 -5.23236 3.95677 0
M  V30 8737 H 811.892 -4.99819 5.67201 0
M  V30 8738 H 813.16 -5.97966 5.00057 0
M  V30 8739 N 817.389 -1.46805 -0.573248 0
M  V30 8740 C 818.337 -1.58468 -1.70267 0
M  V30 8741 C 819.331 -0.452694 -1.63239 0
M  V30 8742 O 820.537 -0.629915 -1.68618 0
M  V30 8743 H 816.912 -0.498408 -0.56311 0
M  V30 8744 H 818.883 -2.5341 -1.57563 0
M  V30 8745 C 817.632 -1.60104 -3.08645 0
M  V30 8746 H 816.955 -2.4655 -3.14727 0
M  V30 8747 H 818.395 -1.72318 -3.87405 0
M  V30 8748 C 816.854 -0.33138 -3.35266 0
M  V30 8749 O 817.384 0.57438 -3.97572 0
M  V30 8750 N 815.59 -0.216358 -2.89793 0
M  V30 8751 H 815.137 -0.954345 -2.3927 0
M  V30 8752 H 815.095 0.632253 -3.07977 0
M  V30 8753 N 818.867 0.818669 -1.34668 0
M  V30 8754 C 820.095 1.60674 -1.30351 0
M  V30 8755 C 820.51 1.88408 0.121546 0
M  V30 8756 O 819.867 1.47849 1.06991 0
M  V30 8757 C 819.918 2.94516 -2.09625 0
M  V30 8758 O 819.639 2.6799 -3.46573 0
M  V30 8759 C 821.14 3.8891 -2.12754 0
M  V30 8760 H 818.36 0.499306 -0.448258 0
M  V30 8761 H 820.904 1.01828 -1.77345 0
M  V30 8762 H 819.059 3.49908 -1.66262 0
M  V30 8763 H 819.473 3.53361 -3.87603 0
M  V30 8764 H 820.947 4.79972 -2.72637 0
M  V30 8765 H 821.424 4.24599 -1.12306 0
M  V30 8766 H 822.03 3.39453 -2.56225 0
M  V30 8767 N 820.346 1.18468 1.03938 0
M  V30 8768 C 821.757 0.984808 1.58614 0
M  V30 8769 C 822.108 -0.465165 1.90606 0
M  V30 8770 O 821.233 -1.34274 1.69704 0
M  V30 8771 C 821.828 1.78135 2.8819 0
M  V30 8772 C 820.387 1.62579 3.39478 0
M  V30 8773 C 819.534 1.77501 2.13046 0
M  V30 8774 H 822.485 1.32993 0.865944 0
M  V30 8775 H 822.506 1.27119 3.58638 0
M  V30 8776 H 822.018 2.83661 2.64874 0
M  V30 8777 H 820.119 0.59595 3.67803 0
M  V30 8778 H 820.232 2.42463 4.13217 0
M  V30 8779 H 818.596 1.2046 2.24414 0
M  V30 8780 H 819.379 2.84464 1.92185 0
M  V30 8781 N 821.824 -1.22873 0.986916 0
M  V30 8782 C 823.07 -1.91746 0.660401 0
M  V30 8783 C 823.403 -1.76738 -0.804812 0
M  V30 8784 O 822.678 -1.13246 -1.58131 0
M  V30 8785 C 822.961 -3.44156 1.05966 0
M  V30 8786 C 822.814 -3.68242 2.58298 0
M  V30 8787 C 824.133 -4.35874 0.60842 0
M  V30 8788 H 821.252 -0.696347 0.241391 0
M  V30 8789 H 823.894 -1.44867 1.22937 0
M  V30 8790 H 822.044 -3.84213 0.575534 0
M  V30 8791 H 823.716 -3.37626 3.14335 0
M  V30 8792 H 821.959 -3.12728 3.00638 0
M  V30 8793 H 822.63 -4.74956 2.81285 0
M  V30 8794 H 825.106 -4.03299 1.02417 0
M  V30 8795 H 823.982 -5.41201 0.916142 0
M  V30 8796 H 824.243 -4.39364 -0.491086 0
M  V30 8797 N 823.302 -0.75937 -1.38099 0
M  V30 8798 C 824.53 -0.329111 -2.04266 0
M  V30 8799 C 824.945 1.04453 -1.57274 0
M  V30 8800 O 824.302 1.66449 -0.748397 0
M  V30 8801 C 824.353 -0.349192 -3.5981 0
M  V30 8802 O 824.074 -1.66863 -4.05078 0
M  V30 8803 C 825.575 0.0942106 -4.432 0
M  V30 8804 H 822.795 -0.13971 -0.656294 0
M  V30 8805 H 825.339 -1.02984 -1.76677 0
M  V30 8806 H 823.494 0.302846 -3.86214 0
M  V30 8807 H 823.908 -1.59877 -4.9954 0
M  V30 8808 H 825.382 0.0290004 -5.51992 0
M  V30 8809 H 825.859 1.1429 -4.24069 0
M  V30 8810 H 826.465 -0.529171 -4.21995 0
M  V30 8811 N 824.78 1.49157 -0.508906 0
M  V30 8812 C 825.71 2.32109 0.254469 0
M  V30 8813 C 826.691 1.40754 0.955111 0
M  V30 8814 O 827.876 1.69658 0.944983 0
M  V30 8815 C 825.006 3.21458 1.3146 0
M  V30 8816 C 823.96 4.2167 0.733368 0
M  V30 8817 C 823.286 5.00009 1.8946 0
M  V30 8818 C 824.586 5.21544 -0.280875 0
M  V30 8819 H 826.28 2.9618 -0.43795 0
M  V30 8820 H 823.826 1.4243 -0.212062 0
M  V30 8821 H 825.779 3.78305 1.85643 0
M  V30 8822 H 824.503 2.55346 2.03632 0
M  V30 8823 H 823.162 3.65979 0.213231 0
M  V30 8824 H 822.81 4.30338 2.60419 0
M  V30 8825 H 822.51 5.67821 1.51173 0
M  V30 8826 H 824.034 5.59702 2.44061 0
M  V30 8827 H 825.448 5.73039 0.173095 0
M  V30 8828 H 823.845 5.97291 -0.580006 0
M  V30 8829 H 824.915 4.69969 -1.19404 0
M  V30 8830 N 826.258 0.243083 1.55714 0
M  V30 8831 C 827.483 -0.389944 2.03701 0
M  V30 8832 C 827.908 -1.51025 1.12129 0
M  V30 8833 O 827.266 -1.80944 0.11352 0
M  V30 8834 C 827.314 -0.878649 3.49731 0
M  V30 8835 O 826.418 -1.98851 3.61292 0
M  V30 8836 H 825.759 -0.0855115 0.658471 0
M  V30 8837 H 828.289 0.368023 2.01263 0
M  V30 8838 H 828.299 -1.18287 3.90477 0
M  V30 8839 H 826.974 -0.0588107 4.15858 0
M  V30 8840 H 825.551 -1.68928 3.32442 0
M  V30 8841 N 827.736 -1.57571 -0.0300757 0
M  V30 8842 C 828.683 -2.06492 -1.03101 0
M  V30 8843 C 829.653 -0.953862 -1.3598 0
M  V30 8844 O 830.838 -1.22436 -1.46335 0
M  V30 8845 C 827.978 -2.54826 -2.32718 0
M  V30 8846 C 827.091 -3.79718 -2.06006 0
M  V30 8847 C 826.226 -4.16668 -3.29487 0
M  V30 8848 C 825.265 -5.3448 -2.98324 0
M  V30 8849 N 824.402 -5.66867 -4.14254 0
M  V30 8850 H 829.242 -2.91755 -0.606877 0
M  V30 8851 H 826.779 -1.44252 -0.288038 0
M  V30 8852 H 828.737 -2.80916 -3.08451 0
M  V30 8853 H 827.367 -1.72481 -2.72856 0
M  V30 8854 H 826.419 -3.60718 -1.20774 0
M  V30 8855 H 827.731 -4.65569 -1.79017 0
M  V30 8856 H 826.885 -4.43881 -4.13588 0
M  V30 8857 H 825.624 -3.29466 -3.59588 0
M  V30 8858 H 824.629 -5.07021 -2.12625 0
M  V30 8859 H 825.854 -6.23334 -2.69502 0
M  V30 8860 H 823.8 -4.82625 -4.44308 0
M  V30 8861 H 823.717 -6.47226 -3.90685 0
M  V30 8862 H 824.985 -5.98656 -4.99231 0
M  V30 8863 N 829.214 0.302327 -1.54673 0
M  V30 8864 C 830.491 1.05721 -1.64567 0
M  V30 8865 C 830.871 2.0526 -0.493108 0
M  V30 8866 O 830.219 2.22729 0.510315 0
M  V30 8867 C 830.429 1.74025 -3.02517 0
M  V30 8868 C 831.777 2.26271 -3.59286 0
M  V30 8869 O 832.801 1.8406 -3.0496 0
M  V30 8870 O 831.66 3.0361 -4.54404 0
M  V30 8871 H 828.754 0.488577 -0.667249 0
M  V30 8872 H 831.3 0.300521 -1.67018 0
M  V30 8873 H 830.072 1.0174 -3.77842 0
M  V30 8874 H 829.695 2.56454 -3.03838 0
M  V30 8875 N 830.692 1.47107 0.565454 0
M  V30 8876 C 831.624 1.55024 1.6882 0
M  V30 8877 C 832.637 0.4371 1.56822 0
M  V30 8878 O 833.826 0.706315 1.63931 0
M  V30 8879 C 830.926 1.43069 3.0722 0
M  V30 8880 C 830.099 2.68807 3.45053 0
M  V30 8881 C 829.158 2.50806 4.62583 0
M  V30 8882 O 828.184 3.24593 4.67577 0
M  V30 8883 N 829.386 1.58093 5.58558 0
M  V30 8884 H 832.151 2.51836 1.62477 0
M  V30 8885 H 829.712 1.43382 0.751885 0
M  V30 8886 H 831.704 1.28773 3.83666 0
M  V30 8887 H 830.274 0.543721 3.07835 0
M  V30 8888 H 829.494 2.97923 2.58138 0
M  V30 8889 H 830.782 3.52298 3.67101 0
M  V30 8890 H 830.18 0.972807 5.57273 0
M  V30 8891 H 828.737 1.49753 6.34364 0
M  V30 8892 N 832.17 -0.811516 1.35101 0
M  V30 8893 C 833.1 -1.9378 1.30275 0
M  V30 8894 C 834.081 -1.69165 0.178075 0
M  V30 8895 O 835.266 -1.90599 0.372256 0
M  V30 8896 C 832.396 -3.30439 1.06899 0
M  V30 8897 C 831.35 -3.69523 2.15955 0
M  V30 8898 C 830.676 -5.0429 1.77751 0
M  V30 8899 C 831.976 -3.80419 3.57881 0
M  V30 8900 H 833.67 -1.98075 2.24514 0
M  V30 8901 H 831.216 -0.951586 1.08078 0
M  V30 8902 H 833.169 -4.08828 1.02164 0
M  V30 8903 H 831.893 -3.26473 0.0910462 0
M  V30 8904 H 830.552 -2.93416 2.19778 0
M  V30 8905 H 830.2 -4.96823 0.785876 0
M  V30 8906 H 829.9 -5.31411 2.5075 0
M  V30 8907 H 831.424 -5.85125 1.74533 0
M  V30 8908 H 832.838 -4.49051 3.56407 0
M  V30 8909 H 831.235 -4.19005 4.29598 0
M  V30 8910 H 832.305 -2.82105 3.94391 0
M  V30 8911 N 833.648 -1.19017 -1.03309 0
M  V30 8912 C 834.873 -1.01598 -1.80811 0
M  V30 8913 C 835.298 0.430773 -1.83101 0
M  V30 8914 O 834.656 1.30946 -1.25391 0
M  V30 8915 C 834.704 -1.5845 -3.23923 0
M  V30 8916 O 833.808 -0.810972 -4.04348 0
M  V30 8917 H 833.149 -0.359398 -0.558327 0
M  V30 8918 H 835.679 -1.57945 -1.30055 0
M  V30 8919 H 835.689 -1.61486 -3.74682 0
M  V30 8920 H 834.364 -2.63752 -3.21571 0
M  V30 8921 H 832.941 -0.85353 -3.63 0
M  V30 8922 N 835.127 1.22348 -0.993418 0
M  V30 8923 C 836.375 1.90733 -0.668246 0
M  V30 8924 C 836.696 1.77732 0.802261 0
M  V30 8925 O 835.966 1.16486 1.57505 0
M  V30 8926 H 834.546 0.705966 -0.244174 0
M  V30 8927 H 837.208 1.48691 -1.26004 0
M  V30 8928 H 836.304 2.97883 -0.931239 0
M  V30 8929 N 836.605 0.766683 1.37694 0
M  V30 8930 C 837.854 0.325425 1.99057 0
M  V30 8931 C 838.167 -1.10275 1.61551 0
M  V30 8932 O 839.373 -1.64513 2.1598 0
M  V30 8933 C 837.829 0.530886 3.55963 0
M  V30 8934 C 837.437 1.96899 4.02411 0
M  V30 8935 C 839.181 0.152997 4.24224 0
M  V30 8936 C 837.088 2.12232 5.52007 0
M  V30 8937 H 836.018 0.117929 0.744721 0
M  V30 8938 H 838.669 0.945091 1.5729 0
M  V30 8939 H 837.051 -0.158162 3.95684 0
M  V30 8940 H 838.225 2.69258 3.73948 0
M  V30 8941 H 836.54 2.303 3.46916 0
M  V30 8942 H 839.137 0.24614 5.34133 0
M  V30 8943 H 839.48 -0.896096 4.06541 0
M  V30 8944 H 840.013 0.794398 3.89787 0
M  V30 8945 H 836.752 3.15442 5.7461 0
M  V30 8946 H 836.272 1.4435 5.82171 0
M  V30 8947 H 837.951 1.9185 6.17902 0
M  V30 8948 N 838.083 -1.48885 0.516809 0
M  V30 8949 C 839.031 -2.31066 -0.266656 0
M  V30 8950 C 840.025 -1.40393 -0.94795 0
M  V30 8951 O 841.231 -1.57366 -0.873836 0
M  V30 8952 H 837.606 -0.744654 -0.104858 0
M  V30 8953 H 839.577 -2.95045 0.446236 0
M  V30 8954 C 838.326 -3.22131 -1.3087 0
M  V30 8955 H 837.649 -3.91839 -0.793865 0
M  V30 8956 H 839.089 -3.82544 -1.82856 0
M  V30 8957 C 837.548 -2.42825 -2.33533 0
M  V30 8958 O 838.078 -2.14364 -3.39722 0
M  V30 8959 N 836.284 -2.04559 -2.06407 0
M  V30 8960 H 835.831 -2.27905 -1.20071 0
M  V30 8961 H 835.789 -1.51807 -2.75322 0
M  V30 8962 N 839.561 -0.251338 -1.55583 0
M  V30 8963 C 840.509 0.662534 -2.22965 0
M  V30 8964 C 841.503 1.17662 -1.21869 0
M  V30 8965 O 842.709 1.133 -1.39868 0
M  V30 8966 H 839.084 0.232151 -0.715269 0
M  V30 8967 H 841.055 0.0711252 -2.98315 0
M  V30 8968 C 839.804 1.84646 -2.94621 0
M  V30 8969 H 839.127 1.46003 -3.72187 0
M  V30 8970 H 840.567 2.46303 -3.45124 0
M  V30 8971 C 839.026 2.72034 -1.98744 0
M  V30 8972 O 839.556 3.71695 -1.52335 0
M  V30 8973 N 837.762 2.38695 -1.6575 0
M  V30 8974 H 837.309 1.57702 -2.03685 0
M  V30 8975 H 837.267 2.9744 -1.01867 0
M  V30 8976 N 841.039 1.57585 0.0217189 0
M  V30 8977 C 842.288 1.88786 0.710125 0
M  V30 8978 C 842.601 0.850819 1.76126 0
M  V30 8979 O 843.807 1.0523 2.50277 0
M  V30 8980 C 842.263 3.3505 1.31413 0
M  V30 8981 C 841.871 4.47001 0.298959 0
M  V30 8982 C 843.615 3.7539 1.98199 0
M  V30 8983 C 841.522 5.8433 0.911727 0
M  V30 8984 H 840.452 0.704388 0.268986 0
M  V30 8985 H 843.103 1.83466 -0.0352638 0
M  V30 8986 H 841.485 3.35138 2.10947 0
M  V30 8987 H 842.659 4.58395 -0.470203 0
M  V30 8988 H 840.974 4.15542 -0.267222 0
M  V30 8989 H 843.571 4.75314 2.4491 0
M  V30 8990 H 843.914 3.07766 2.80331 0
M  V30 8991 H 844.447 3.77508 1.2543 0
M  V30 8992 H 841.186 6.55372 0.129659 0
M  V30 8993 H 840.706 5.76643 1.65056 0
M  V30 8994 H 842.385 6.31295 1.41688 0
M  V30 8995 N 842.517 -0.29412 1.54831 0
M  V30 8996 C 843.48 -1.3461 1.85507 0
M  V30 8997 C 844.48 -1.43359 0.728343 0
M  V30 8998 O 845.67 -1.42875 0.996609 0
M  V30 8999 C 842.802 -2.73012 2.0415 0
M  V30 9000 H 843.995 -1.08651 2.79526 0
M  V30 9001 H 841.548 -0.531138 1.46999 0
M  V30 9002 H 842.283 -3.04183 1.12441 0
M  V30 9003 H 842.068 -2.68051 2.86166 0
M  V30 9004 H 843.558 -3.49061 2.29229 0
M  V30 9005 N 843.995 -1.47404 -0.557645 0
M  V30 9006 C 845.242 -1.54007 -1.31484 0
M  V30 9007 C 845.57 -0.202162 -1.93447 0
M  V30 9008 O 844.825 0.804901 -1.78381 0
M  V30 9009 C 845.124 -2.6061 -2.44575 0
M  V30 9010 C 844.79 -4.03896 -2.00446 0
M  V30 9011 C 843.452 -4.42901 -1.88127 0
M  V30 9012 C 845.804 -4.93804 -1.66754 0
M  V30 9013 C 843.132 -5.6965 -1.40411 0
M  V30 9014 C 845.484 -6.21016 -1.20509 0
M  V30 9015 C 844.148 -6.58903 -1.06786 0
M  V30 9016 H 843.418 -0.563552 -0.481134 0
M  V30 9017 H 846.065 -1.81001 -0.625375 0
M  V30 9018 H 844.37 -2.27371 -3.19076 0
M  V30 9019 H 846.067 -2.62941 -3.02759 0
M  V30 9020 H 842.657 -3.73077 -2.10977 0
M  V30 9021 H 846.841 -4.64369 -1.75144 0
M  V30 9022 H 842.097 -5.97755 -1.2845 0
M  V30 9023 H 846.271 -6.90095 -0.935001 0
M  V30 9024 H 843.898 -7.57008 -0.695891 0
M  V30 9025 N 845.473 0.80434 -1.35529 0
M  V30 9026 C 846.698 1.598 -1.32207 0
M  V30 9027 C 847.123 1.87848 0.0974226 0
M  V30 9028 O 846.481 1.46728 1.06492 0
M  V30 9029 C 846.529 2.90483 -2.13663 0
M  V30 9030 O 845.633 3.83411 -1.51888 0
M  V30 9031 H 844.974 0.485305 -0.453183 0
M  V30 9032 H 847.504 0.998119 -1.78602 0
M  V30 9033 H 847.514 3.39888 -2.257 0
M  V30 9034 H 846.189 2.69395 -3.16859 0
M  V30 9035 H 844.766 3.41967 -1.48704 0
M  V30 9036 N 846.951 1.19563 1.02676 0
M  V30 9037 C 847.898 0.935291 2.11 0
M  V30 9038 C 848.868 -0.130685 1.65585 0
M  V30 9039 O 850.053 0.0119062 1.90796 0
M  V30 9040 C 847.193 0.482384 3.41712 0
M  V30 9041 C 846.306 1.61537 4.00662 0
M  V30 9042 C 845.441 1.11378 5.19392 0
M  V30 9043 C 844.48 2.22052 5.70403 0
M  V30 9044 N 843.617 1.73185 6.80405 0
M  V30 9045 H 848.457 1.86275 2.32606 0
M  V30 9046 H 845.994 0.928656 1.14081 0
M  V30 9047 H 847.952 0.20118 4.16715 0
M  V30 9048 H 846.582 -0.408086 3.2021 0
M  V30 9049 H 845.634 2.01173 3.22852 0
M  V30 9050 H 846.946 2.44912 4.34534 0
M  V30 9051 H 846.1 0.787935 6.01562 0
M  V30 9052 H 844.839 0.249789 4.8706 0
M  V30 9053 H 843.844 2.55465 4.86845 0
M  V30 9054 H 845.069 3.08911 6.04774 0
M  V30 9055 H 843.015 0.890973 6.49921 0
M  V30 9056 H 842.932 2.50148 7.13416 0
M  V30 9057 H 844.2 1.4357 7.66164 0
M  V30 9058 O 848.468 -1.15601 1.12777 0
M  V30 9059 H 849.159 -1.74498 0.840847 0
M  V30 END ATOM
M  V30 BEGIN BOND
M  V30 END BOND
M  V30 END CTAB
M  END
$$$$
