drugbank_target|Q46604 FMN-binding protein (DB03247)
 OpenBabel12092120273D

  0  0  0     0  0            999 V3000
M  V30 BEGIN CTAB
M  V30 COUNTS 1866 1883 0 0 0
M  V30 BEGIN ATOM
M  V30 1 H -0.908 1.98254 -0.117106 0
M  V30 2 N 0 1.576 0 0
M  V30 3 C 0.933 2.03868 1.02534 0
M  V30 4 C 1.911 0.928543 1.3348 0
M  V30 5 O 3.095 1.19667 1.45644 0
M  V30 6 C 0.222 2.43627 2.35294 0
M  V30 7 C -0.732 3.65373 2.2001 0
M  V30 8 S 0.101 5.13292 1.52614 0
M  V30 9 C 1.257 5.56322 2.86805 0
M  V30 10 H 1.49 2.90518 0.631377 0
M  V30 11 H -0.977 1.52953 0.210867 0
M  V30 12 H 0.981 2.67203 3.11629 0
M  V30 13 H -0.358 1.57376 2.7183 0
M  V30 14 H -1.165 3.90944 3.18086 0
M  V30 15 H -1.563 3.418 1.51819 0
M  V30 16 H 0.729 5.58782 3.83104 0
M  V30 17 H 1.672 6.56266 2.65933 0
M  V30 18 H 2.08 4.83886 2.90714 0
M  V30 19 N 1.4781 -0.272755 1.55222 0
M  V30 20 C 2.4081 -1.34136 1.91127 0
M  V30 21 C 3.3891 -1.51513 0.773168 0
M  V30 22 O 4.5741 -1.64552 1.03132 0
M  V30 23 C 1.7041 -2.70083 2.1834 0
M  V30 24 C 0.6581 -2.67437 3.34158 0
M  V30 25 C -0.0159 -4.06938 3.46851 0
M  V30 26 C 1.2841 -2.26686 4.70543 0
M  V30 27 H 2.9781 -1.04333 2.80633 0
M  V30 28 H 0.5241 -0.500454 1.35024 0
M  V30 29 H 2.4771 -3.44952 2.42046 0
M  V30 30 H 1.2011 -3.01469 1.25634 0
M  V30 31 H -0.1399 -1.95026 3.1042 0
M  V30 32 H -0.4919 -4.35547 2.51611 0
M  V30 33 H -0.7919 -4.06062 4.2472 0
M  V30 34 H 0.7321 -4.83545 3.72849 0
M  V30 35 H 2.1461 -2.91277 4.93792 0
M  V30 36 H 0.5431 -2.36971 5.5133 0
M  V30 37 H 1.6131 -1.21818 4.69349 0
M  V30 38 N 2.9562 -1.48159 -0.537278 0
M  V30 39 C 4.3672 -1.49429 -1.11928 0
M  V30 40 C 4.7182 -0.26 -1.9447 0
M  V30 41 O 3.8432 0.633489 -2.0692 0
M  V30 42 C 4.4382 -2.70758 -2.03656 0
M  V30 43 C 2.9972 -2.74923 -2.57088 0
M  V30 44 C 2.1442 -2.42835 -1.3389 0
M  V30 45 H 5.0952 -1.55381 -0.322886 0
M  V30 46 H 5.1162 -2.48861 -2.87834 0
M  V30 47 H 4.6282 -3.60575 -1.43553 0
M  V30 48 H 2.7292 -1.89296 -3.20933 0
M  V30 49 H 2.8422 -3.76157 -2.9672 0
M  V30 50 H 1.2062 -1.93836 -1.65226 0
M  V30 51 H 1.9892 -3.34884 -0.755504 0
M  V30 52 N 4.4343 0.785586 -1.36625 0
M  V30 53 C 5.6823 1.54057 -1.30808 0
M  V30 54 C 6.0033 1.94683 0.111157 0
M  V30 55 O 5.2733 1.65241 1.05224 0
M  V30 56 H 3.8533 0.571354 -0.481211 0
M  V30 57 H 6.5153 0.935821 -1.70963 0
M  V30 58 H 5.6113 2.44637 -1.93801 0
M  V30 59 N 5.9124 1.20967 1.01018 0
M  V30 60 C 7.1404 1.04956 1.78303 0
M  V30 61 C 7.5554 -0.400915 1.84494 0
M  V30 62 O 6.9124 -1.27826 1.30257 0
M  V30 63 C 6.9634 1.63403 3.22462 0
M  V30 64 O 6.6844 3.02775 3.16637 0
M  V30 65 C 8.1854 1.52432 4.16268 0
M  V30 66 H 5.4054 0.368858 0.560522 0
M  V30 67 H 7.9494 1.60193 1.27116 0
M  V30 68 H 6.1044 1.1227 3.70775 0
M  V30 69 H 6.5184 3.30626 4.07169 0
M  V30 70 H 7.9924 1.98078 5.15237 0
M  V30 71 H 8.4694 0.477875 4.36592 0
M  V30 72 H 9.0754 2.02787 3.73841 0
M  V30 73 N 7.3905 -1.2043 1.01659 0
M  V30 74 C 8.6375 -1.89797 0.705917 0
M  V30 75 C 8.9655 -1.78848 -0.764439 0
M  V30 76 O 8.2205 -1.16694 -1.57102 0
M  V30 77 C 8.5195 -3.40464 1.08714 0
M  V30 78 C 8.1855 -3.71614 2.5537 0
M  V30 79 C 6.8475 -3.79826 2.95441 0
M  V30 80 C 9.1995 -3.85915 3.50313 0
M  V30 81 C 6.5275 -3.99797 4.29394 0
M  V30 82 C 8.8795 -4.07396 4.83954 0
M  V30 83 C 7.5435 -4.13837 5.23732 0
M  V30 84 H 6.8135 -0.694518 0.258313 0
M  V30 85 H 9.4605 -1.42691 1.27717 0
M  V30 86 H 7.7655 -3.89385 0.434309 0
M  V30 87 H 9.4625 -3.92433 0.824461 0
M  V30 88 H 6.0525 -3.65822 2.23321 0
M  V30 89 H 10.2365 -3.78926 3.20513 0
M  V30 90 H 5.4925 -4.03018 4.59768 0
M  V30 91 H 9.6665 -4.17404 5.57447 0
M  V30 92 H 7.2935 -4.29064 6.27541 0
M  V30 93 N 8.8686 -0.792821 -1.36206 0
M  V30 94 C 10.1156 -0.366786 -1.99151 0
M  V30 95 C 10.4436 1.06243 -1.62919 0
M  V30 96 O 9.6986 1.74927 -0.877442 0
M  V30 97 C 9.9976 -0.481501 -3.54142 0
M  V30 98 C 9.6636 -1.87202 -4.10203 0
M  V30 99 C 8.3256 -2.25248 -4.25226 0
M  V30 100 C 10.6776 -2.78237 -4.40719 0
M  V30 101 C 8.0056 -3.53723 -4.68078 0
M  V30 102 C 10.3576 -4.06144 -4.85005 0
M  V30 103 C 9.0216 -4.44207 -4.98234 0
M  V30 104 H 8.2916 -0.134217 -0.728743 0
M  V30 105 H 10.9386 -1.01094 -1.62641 0
M  V30 106 H 9.2436 0.246146 -3.91026 0
M  V30 107 H 10.9406 -0.132844 -4.0078 0
M  V30 108 H 7.5306 -1.56639 -3.98951 0
M  V30 109 H 11.7146 -2.50097 -4.28679 0
M  V30 110 H 6.9706 -3.8308 -4.76508 0
M  V30 111 H 11.1446 -4.76796 -5.07581 0
M  V30 112 H 8.7716 -5.43814 -5.31197 0
M  V30 113 N 10.3467 1.47872 -0.545128 0
M  V30 114 C 11.2567 2.33633 0.212746 0
M  V30 115 C 12.2727 1.4744 0.923983 0
M  V30 116 O 13.4487 1.80393 0.895572 0
M  V30 117 C 10.5137 3.23884 1.23693 0
M  V30 118 C 9.5747 4.25961 0.534417 0
M  V30 119 C 8.8077 5.11899 1.5098 0
M  V30 120 O 9.0307 5.00077 2.7437 0
M  V30 121 O 7.9647 5.92831 1.0409 0
M  V30 122 H 11.7907 2.99714 -0.490416 0
M  V30 123 H 9.3757 1.46235 -0.305871 0
M  V30 124 H 11.2577 3.79666 1.82843 0
M  V30 125 H 9.9327 2.60446 1.92222 0
M  V30 126 H 8.8397 3.73972 -0.0979679 0
M  V30 127 H 10.1727 4.92079 -0.109213 0
M  V30 128 N 11.8248 0.280983 1.55075 0
M  V30 129 C 13.0708 -0.33461 2.00021 0
M  V30 130 C 13.4038 -1.55063 1.16915 0
M  V30 131 O 12.6788 -1.93006 0.240646 0
M  V30 132 C 12.9618 -0.711007 3.53011 0
M  V30 133 C 12.8148 0.512766 4.46868 0
M  V30 134 C 14.1338 -1.54522 4.12081 0
M  V30 135 H 11.2528 -0.120147 0.727141 0
M  V30 136 H 13.8948 0.389097 1.85973 0
M  V30 137 H 12.0448 -1.32761 3.65112 0
M  V30 138 H 13.7168 1.15131 4.46702 0
M  V30 139 H 11.9598 1.14975 4.18286 0
M  V30 140 H 12.6308 0.205556 5.51617 0
M  V30 141 H 15.1068 -1.02442 4.03293 0
M  V30 142 H 13.9828 -1.77739 5.19327 0
M  V30 143 H 14.2438 -2.52813 3.62682 0
M  V30 144 N 13.3029 -1.57598 0.00835791 0
M  V30 145 C 14.2329 -2.1198 -0.979113 0
M  V30 146 C 15.2139 -1.03091 -1.35301 0
M  V30 147 O 16.3989 -1.30818 -1.43528 0
M  V30 148 C 13.5289 -2.62995 -2.26828 0
M  V30 149 C 12.4829 -3.76485 -2.03576 0
M  V30 150 C 11.8089 -4.13846 -3.38579 0
M  V30 151 C 13.1089 -5.0342 -1.39161 0
M  V30 152 H 14.8029 -2.94738 -0.526281 0
M  V30 153 H 12.3489 -1.41783 -0.251704 0
M  V30 154 H 14.3019 -2.99669 -2.96271 0
M  V30 155 H 13.0259 -1.7737 -2.7424 0
M  V30 156 H 11.6849 -3.40217 -1.36557 0
M  V30 157 H 11.3329 -3.25232 -3.83709 0
M  V30 158 H 11.0329 -4.90312 -3.23834 0
M  V30 159 H 12.5569 -4.53086 -4.09323 0
M  V30 160 H 13.9709 -5.37812 -1.98573 0
M  V30 161 H 12.3679 -5.84746 -1.34878 0
M  V30 162 H 13.4379 -4.83548 -0.361868 0
M  V30 163 N 14.781 0.264519 -1.55364 0
M  V30 164 C 15.728 1.32717 -1.88825 0
M  V30 165 C 16.698 1.48675 -0.740605 0
M  V30 166 O 17.883 1.62945 -0.992657 0
M  V30 167 C 15.023 2.68089 -2.17307 0
M  V30 168 C 14.136 2.60284 -3.44785 0
M  V30 169 C 13.271 3.87892 -3.62924 0
M  V30 170 C 12.31 3.74631 -4.84064 0
M  V30 171 N 11.447 4.94092 -4.98816 0
M  V30 172 H 16.287 1.03481 -2.79456 0
M  V30 173 H 13.824 0.499757 -1.3835 0
M  V30 174 H 15.782 3.46864 -2.31821 0
M  V30 175 H 14.412 2.95509 -1.299 0
M  V30 176 H 13.464 1.73173 -3.38697 0
M  V30 177 H 14.776 2.46388 -4.33698 0
M  V30 178 H 13.93 4.75109 -3.77302 0
M  V30 179 H 12.669 4.04664 -2.7221 0
M  V30 180 H 11.674 2.85797 -4.69681 0
M  V30 181 H 12.899 3.5937 -5.76221 0
M  V30 182 H 10.845 5.11259 -4.11036 0
M  V30 183 H 10.762 4.8276 -5.81789 0
M  V30 184 H 12.03 5.82857 -5.17588 0
M  V30 185 N 16.2591 1.48442 0.529413 0
M  V30 186 C 17.2071 1.63452 1.65487 0
M  V30 187 C 18.2011 0.500955 1.61823 0
M  V30 188 O 19.4071 0.679695 1.66674 0
M  V30 189 H 15.7821 0.514905 0.548066 0
M  V30 190 H 17.7531 2.57975 1.49971 0
M  V30 191 C 16.5021 1.69196 3.03756 0
M  V30 192 H 15.8251 2.55784 3.07269 0
M  V30 193 H 17.2651 1.83743 3.82119 0
M  V30 194 C 15.7241 0.430765 3.34135 0
M  V30 195 O 16.2541 -0.4561 3.99102 0
M  V30 196 N 14.4601 0.302293 2.89023 0
M  V30 197 H 14.0071 1.02496 2.36331 0
M  V30 198 H 13.9651 -0.540546 3.09718 0
M  V30 199 N 17.7372 -0.778329 1.37039 0
M  V30 200 C 18.6472 -1.92253 1.34446 0
M  V30 201 C 19.6632 -1.72267 0.244991 0
M  V30 202 O 20.8392 -1.95615 0.479258 0
M  V30 203 C 17.9042 -3.27282 1.144 0
M  V30 204 C 16.9652 -3.59969 2.33925 0
M  V30 205 C 16.1982 -4.88555 2.14825 0
M  V30 206 O 16.4212 -5.59113 1.12912 0
M  V30 207 O 15.3552 -5.20153 3.02861 0
M  V30 208 H 19.1812 -1.97392 2.30803 0
M  V30 209 H 16.7662 -0.920154 1.17701 0
M  V30 210 H 18.6482 -4.08062 1.05182 0
M  V30 211 H 17.3232 -3.23011 0.211124 0
M  V30 212 H 16.2302 -2.7945 2.48714 0
M  V30 213 H 17.5632 -3.68976 3.25757 0
M  V30 214 N 19.2153 -1.21501 -1.00376 0
M  V30 215 C 20.4633 -1.03095 -1.73827 0
M  V30 216 C 20.7843 0.436341 -1.90055 0
M  V30 217 O 20.0543 1.31466 -1.45236 0
M  V30 218 H 18.6343 -0.378487 -0.644016 0
M  V30 219 H 21.2963 -1.52831 -1.20949 0
M  V30 220 H 20.3923 -1.49991 -2.73695 0
M  V30 221 N 20.6934 1.19889 -1.02296 0
M  V30 222 C 21.9394 1.89701 -0.717033 0
M  V30 223 C 22.2724 1.7905 0.751989 0
M  V30 224 O 21.5474 1.17891 1.547 0
M  V30 225 C 21.8304 3.40858 -1.16136 0
M  V30 226 C 21.6834 3.60411 -2.69117 0
M  V30 227 C 23.0024 4.33876 -0.737549 0
M  V30 228 H 20.1214 0.688874 -0.261957 0
M  V30 229 H 22.7634 1.41154 -1.27183 0
M  V30 230 H 20.9134 3.82335 -0.689342 0
M  V30 231 H 22.5854 3.28145 -3.2422 0
M  V30 232 H 20.8284 3.03665 -3.0979 0
M  V30 233 H 21.4994 4.66396 -2.95261 0
M  V30 234 H 23.9754 4.00081 -1.14344 0
M  V30 235 H 22.8514 5.38242 -1.0764 0
M  V30 236 H 23.1124 4.40628 0.360436 0
M  V30 237 N 22.1715 0.800033 1.35784 0
M  V30 238 C 23.4175 0.377901 1.99248 0
M  V30 239 C 23.7505 -1.05052 1.63333 0
M  V30 240 O 23.0255 -1.72768 0.893385 0
M  V30 241 C 23.3085 0.553922 3.55814 0
M  V30 242 C 23.1615 2.0268 4.01548 0
M  V30 243 C 24.4805 -0.0244802 4.40093 0
M  V30 244 H 21.5995 0.138782 0.723815 0
M  V30 245 H 24.2415 1.00835 1.61035 0
M  V30 246 H 22.3915 0.0172398 3.88496 0
M  V30 247 H 24.0635 2.62536 3.79305 0
M  V30 248 H 22.3065 2.5256 3.52698 0
M  V30 249 H 22.9775 2.10087 5.10458 0
M  V30 250 H 25.4535 0.433775 4.13833 0
M  V30 251 H 24.3295 0.128637 5.48749 0
M  V30 252 H 24.5905 -1.11758 4.27741 0
M  V30 253 N 23.6496 -1.47581 0.552962 0
M  V30 254 C 24.6126 -2.28439 -0.186605 0
M  V30 255 C 25.6126 -1.36706 -0.84665 0
M  V30 256 O 26.8026 -1.59378 -0.703164 0
M  V30 257 C 23.9346 -3.16264 -1.2724 0
M  V30 258 H 25.1276 -2.95294 0.523609 0
M  V30 259 H 22.6806 -1.532 0.309745 0
M  V30 260 H 23.4156 -2.54091 -2.01514 0
M  V30 261 H 23.2006 -3.83769 -0.803968 0
M  V30 262 H 24.6906 -3.77198 -1.79196 0
M  V30 263 N 25.1277 -0.289203 -1.54924 0
M  V30 264 C 26.3767 0.324231 -1.99077 0
M  V30 265 C 26.6897 1.5591 -1.18117 0
M  V30 266 O 27.8957 2.24637 -1.52481 0
M  V30 267 C 26.3517 0.628209 -3.54375 0
M  V30 268 C 25.9597 -0.587647 -4.44129 0
M  V30 269 C 27.7037 1.20349 -4.07083 0
M  V30 270 C 25.6107 -0.257475 -5.90839 0
M  V30 271 H 24.5407 0.124924 -0.743579 0
M  V30 272 H 27.1917 -0.396063 -1.79175 0
M  V30 273 H 25.5737 1.40778 -3.70132 0
M  V30 274 H 26.7477 -1.36418 -4.40144 0
M  V30 275 H 25.0627 -1.08074 -4.0213 0
M  V30 276 H 27.6597 1.46456 -5.14252 0
M  V30 277 H 28.0027 2.14195 -3.56968 0
M  V30 278 H 28.5357 0.485889 -3.94821 0
M  V30 279 H 25.2747 -1.16419 -6.45079 0
M  V30 280 H 24.7947 0.482018 -5.9786 0
M  V30 281 H 26.4737 0.145238 -6.46837 0
M  V30 282 N 26.6058 1.57591 -0.0167156 0
M  V30 283 C 27.5688 2.08393 0.954204 0
M  V30 284 C 28.5688 0.996531 1.26198 0
M  V30 285 O 29.7588 1.25858 1.20438 0
M  V30 286 C 26.8908 2.5394 2.27436 0
M  V30 287 H 28.0838 2.95455 0.514451 0
M  V30 288 H 25.6368 1.54582 0.231089 0
M  V30 289 H 26.3718 1.70171 2.76066 0
M  V30 290 H 26.1568 3.33371 2.06412 0
M  V30 291 H 27.6468 2.93512 2.97053 0
M  V30 292 N 28.0839 -0.256276 1.55502 0
M  V30 293 C 29.3119 -1.00342 1.8094 0
M  V30 294 C 29.7269 -1.79307 0.59114 0
M  V30 295 O 29.0839 -1.77114 -0.440081 0
M  V30 296 C 29.1349 -1.94875 3.04476 0
M  V30 297 O 28.8559 -1.19107 4.21598 0
M  V30 298 C 30.3569 -2.81266 3.42644 0
M  V30 299 H 27.5769 -0.295685 0.602338 0
M  V30 300 H 30.1209 -0.281998 2.02546 0
M  V30 301 H 28.2759 -2.62457 2.84947 0
M  V30 302 H 28.6899 -1.82969 4.91551 0
M  V30 303 H 30.1639 -3.43362 4.32211 0
M  V30 304 H 30.6409 -3.51897 2.62802 0
M  V30 305 H 31.2469 -2.1915 3.64491 0
M  V30 306 N 29.562 -1.4872 -0.521534 0
M  V30 307 C 30.494 -1.59968 -1.64143 0
M  V30 308 C 31.507 -0.483463 -1.55456 0
M  V30 309 O 32.696 -0.75467 -1.61762 0
M  V30 310 C 29.796 -1.52127 -3.02838 0
M  V30 311 C 28.969 -2.78932 -3.36921 0
M  V30 312 C 28.028 -2.64428 -4.54933 0
M  V30 313 O 27.054 -3.38331 -4.57735 0
M  V30 314 N 28.256 -1.74606 -5.53618 0
M  V30 315 H 31.021 -2.56548 -1.54929 0
M  V30 316 H 28.582 -1.45551 -0.708988 0
M  V30 317 H 30.574 -1.40106 -3.79674 0
M  V30 318 H 29.144 -0.634868 -3.06085 0
M  V30 319 H 28.364 -3.05455 -2.4918 0
M  V30 320 H 29.652 -3.63041 -3.56481 0
M  V30 321 H 29.05 -1.13782 -5.54139 0
M  V30 322 H 27.607 -1.6852 -6.29638 0
M  V30 323 N 31.0401 0.771051 -1.3745 0
M  V30 324 C 32.2881 1.52661 -1.32435 0
M  V30 325 C 32.6091 1.9479 0.0905024 0
M  V30 326 O 31.8791 1.66348 1.03466 0
M  V30 327 H 30.4591 0.566218 -0.487244 0
M  V30 328 H 33.1211 0.917636 -1.71946 0
M  V30 329 H 32.2171 2.42568 -1.96385 0
M  V30 330 N 32.5182 1.22032 0.997298 0
M  V30 331 C 33.4282 1.00271 2.12092 0
M  V30 332 C 34.4442 -0.047621 1.73935 0
M  V30 333 O 35.6202 0.144136 2.00884 0
M  V30 334 C 32.6852 0.578449 3.4184 0
M  V30 335 C 31.7462 1.70189 3.94125 0
M  V30 336 C 30.9792 1.29778 5.17681 0
M  V30 337 O 31.2022 0.174676 5.70132 0
M  V30 338 O 30.1362 2.11261 5.63607 0
M  V30 339 H 33.9622 1.94398 2.3333 0
M  V30 340 H 31.5472 1.00587 1.10465 0
M  V30 341 H 33.4292 0.351998 4.19927 0
M  V30 342 H 32.1042 -0.334019 3.21972 0
M  V30 343 H 31.0112 1.98282 3.1723 0
M  V30 344 H 32.3442 2.59206 4.18417 0
M  V30 345 N 33.9963 -1.19345 1.0293 0
M  V30 346 C 35.2733 -1.84811 0.640642 0
M  V30 347 C 35.6533 -1.91855 -0.88062 0
M  V30 348 O 35.0013 -1.43587 -1.7775 0
M  V30 349 C 35.2113 -3.23755 1.30321 0
M  V30 350 C 36.5593 -3.99912 1.42673 0
M  V30 351 O 37.5833 -3.33155 1.26041 0
M  V30 352 O 36.4423 -5.19494 1.6967 0
M  V30 353 H 33.5363 -0.796443 0.222726 0
M  V30 354 H 36.0823 -1.26831 1.12748 0
M  V30 355 H 34.8543 -3.13466 2.34211 0
M  V30 356 H 34.4773 -3.89381 0.804261 0
M  V30 357 N 35.4744 -0.807222 -1.35358 0
M  V30 358 C 36.7224 -0.387122 -1.98358 0
M  V30 359 C 37.0434 1.04942 -1.64354 0
M  V30 360 O 36.3134 1.72615 -0.926339 0
M  V30 361 H 34.8934 -0.140154 -0.733734 0
M  V30 362 H 37.5554 -1.0332 -1.6526 0
M  V30 363 H 36.6514 -0.493352 -3.08176 0
M  V30 364 N 36.9525 1.47285 -0.560781 0
M  V30 365 C 38.3635 1.86258 -0.128343 0
M  V30 366 C 38.7145 1.46699 1.30284 0
M  V30 367 O 37.8395 0.871698 1.98067 0
M  V30 368 C 38.4345 3.38044 -0.22614 0
M  V30 369 C 36.9935 3.76096 0.151283 0
M  V30 370 C 36.1405 2.71335 -0.572084 0
M  V30 371 H 39.0915 1.38752 -0.770297 0
M  V30 372 H 39.1125 3.76441 0.554322 0
M  V30 373 H 38.6245 3.66806 -1.26788 0
M  V30 374 H 36.7255 3.52951 1.19399 0
M  V30 375 H 36.8385 4.78641 -0.209765 0
M  V30 376 H 35.2025 2.54696 -0.0147653 0
M  V30 377 H 35.9855 3.02938 -1.61504 0
M  V30 378 N 38.4306 0.297415 1.54768 0
M  V30 379 C 39.3806 -0.595275 2.20092 0
M  V30 380 C 40.3646 -1.10163 1.17273 0
M  V30 381 O 41.5566 -1.043 1.43006 0
M  V30 382 C 38.6856 -1.7684 2.94249 0
M  V30 383 C 37.7716 -1.27818 4.0438 0
M  V30 384 N 38.1626 -0.505695 5.03266 0
M  V30 385 C 36.4606 -1.55923 4.17857 0
M  V30 386 C 37.1616 -0.245094 5.81183 0
M  V30 387 N 36.1376 -0.823881 5.3732 0
M  V30 388 H 39.9396 0.00250837 2.939 0
M  V30 389 H 37.4536 0.102007 1.62079 0
M  V30 390 H 39.4506 -2.41944 3.39513 0
M  V30 391 H 38.1106 -2.36992 2.21957 0
M  V30 392 H 39.1216 -0.150928 5.1768 0
M  V30 393 H 35.7986 -2.16849 3.56767 0
M  V30 394 H 37.1886 0.375084 6.70852 0
M  V30 395 N 39.9087 -1.5758 0.0250728 0
M  V30 396 C 40.8387 -2.13007 -0.956575 0
M  V30 397 C 41.8197 -1.0452 -1.342 0
M  V30 398 O 43.0047 -1.32332 -1.42133 0
M  V30 399 C 40.1347 -2.65386 -2.24026 0
M  V30 400 C 39.0887 -3.78623 -1.99571 0
M  V30 401 C 38.4147 -4.17414 -3.3417 0
M  V30 402 C 39.7147 -5.04867 -1.33814 0
M  V30 403 H 41.4087 -2.9528 -0.494991 0
M  V30 404 H 38.9547 -1.42042 -0.236651 0
M  V30 405 H 40.9077 -3.02794 -2.93076 0
M  V30 406 H 39.6317 -1.80268 -2.72343 0
M  V30 407 H 38.2907 -3.41646 -1.32941 0
M  V30 408 H 37.9387 -3.29284 -3.80238 0
M  V30 409 H 37.6387 -4.93719 -3.18615 0
M  V30 410 H 39.1627 -4.57402 -4.04495 0
M  V30 411 H 40.5767 -5.39888 -1.92857 0
M  V30 412 H 38.9737 -5.86144 -1.28669 0
M  V30 413 H 40.0437 -4.83904 -0.310561 0
M  V30 414 N 41.3868 0.248026 -1.55636 0
M  V30 415 C 42.6328 0.97767 -1.77678 0
M  V30 416 C 42.9658 1.85016 -0.590135 0
M  V30 417 O 42.2408 1.90095 0.411611 0
M  V30 418 C 42.5238 1.83914 -3.09593 0
M  V30 419 C 42.3768 0.99491 -4.38659 0
M  V30 420 C 43.6958 2.82183 -3.37729 0
M  V30 421 H 40.8148 0.354005 -0.646413 0
M  V30 422 H 43.4568 0.248253 -1.88371 0
M  V30 423 H 41.6068 2.46104 -3.00608 0
M  V30 424 H 43.2788 0.391789 -4.59633 0
M  V30 425 H 41.5218 0.299231 -4.32767 0
M  V30 426 H 42.1928 1.63145 -5.2734 0
M  V30 427 H 44.6688 2.30129 -3.4667 0
M  V30 428 H 43.5448 3.39582 -4.31249 0
M  V30 429 H 43.8058 3.58588 -2.58586 0
M  V30 430 N 42.8649 1.48995 0.513639 0
M  V30 431 C 43.8129 1.65199 1.63744 0
M  V30 432 C 44.8069 0.51809 1.61283 0
M  V30 433 O 46.0129 0.697335 1.65943 0
M  V30 434 H 42.3879 0.52069 0.542574 0
M  V30 435 H 44.3589 2.59552 1.47226 0
M  V30 436 C 43.1079 1.72409 3.01945 0
M  V30 437 H 42.4309 2.59029 3.04539 0
M  V30 438 H 43.8709 1.87785 3.80148 0
M  V30 439 C 42.3299 0.46618 3.33659 0
M  V30 440 O 42.8599 -0.413744 3.99564 0
M  V30 441 N 41.0659 0.332931 2.88687 0
M  V30 442 H 40.6129 1.04996 2.35231 0
M  V30 443 H 40.5709 -0.507665 3.10274 0
M  V30 444 N 44.343 -0.763751 1.37857 0
M  V30 445 C 45.571 -1.55293 1.36718 0
M  V30 446 C 45.986 -1.88745 -0.0455434 0
M  V30 447 O 45.343 -1.52039 -1.00947 0
M  V30 448 C 45.394 -2.85831 2.2132 0
M  V30 449 O 45.115 -2.5381 3.57089 0
M  V30 450 C 46.616 -3.80023 2.28249 0
M  V30 451 H 43.836 -0.480841 0.468009 0
M  V30 452 H 46.38 -0.946009 1.81303 0
M  V30 453 H 44.535 -3.42926 1.80223 0
M  V30 454 H 44.949 -3.37459 4.01524 0
M  V30 455 H 46.423 -4.68599 2.91752 0
M  V30 456 H 46.9 -4.1973 1.2932 0
M  V30 457 H 47.506 -3.28855 2.69693 0
M  V30 458 N 45.8211 -1.22559 -0.990812 0
M  V30 459 C 47.0671 -1.06303 -1.73411 0
M  V30 460 C 47.4221 0.397442 -1.8825 0
M  V30 461 O 46.7151 1.29062 -1.41611 0
M  V30 462 C 46.9091 -1.71011 -3.13831 0
M  V30 463 C 46.7381 -3.232 -3.12685 0
M  V30 464 C 45.5081 -3.92314 -3.18461 0
M  V30 465 C 47.7061 -4.20107 -2.96673 0
M  V30 466 N 45.6881 -5.31571 -3.07091 0
M  V30 467 C 47.0591 -5.46208 -2.93354 0
M  V30 468 C 49.1141 -4.10973 -2.8108 0
M  V30 469 C 47.8171 -6.64225 -2.76039 0
M  V30 470 C 49.8431 -5.28642 -2.65126 0
M  V30 471 C 49.2051 -6.53663 -2.62496 0
M  V30 472 H 45.3041 -0.443441 -0.644115 0
M  V30 473 H 47.8881 -1.55131 -1.17654 0
M  V30 474 H 46.0591 -1.2473 -3.67827 0
M  V30 475 H 47.7911 -1.47828 -3.76735 0
M  V30 476 H 44.5461 -3.43326 -3.26227 0
M  V30 477 H 44.9701 -6.0455 -3.0471 0
M  V30 478 H 49.6121 -3.15098 -2.8191 0
M  V30 479 H 47.3301 -7.60246 -2.73954 0
M  V30 480 H 50.9161 -5.23407 -2.54039 0
M  V30 481 H 49.7961 -7.43182 -2.50302 0
M  V30 482 N 47.2992 1.18797 -1.03562 0
M  V30 483 C 48.2472 2.24297 -0.615905 0
M  V30 484 C 49.2412 1.65643 0.354808 0
M  V30 485 O 50.4472 1.78618 0.22265 0
M  V30 486 H 46.8222 0.729909 -0.180934 0
M  V30 487 H 48.7932 2.5701 -1.5162 0
M  V30 488 C 47.5422 3.47698 0.0104735 0
M  V30 489 H 46.8652 3.93125 -0.727509 0
M  V30 490 H 48.3052 4.23159 0.266995 0
M  V30 491 C 46.7642 3.12489 1.25905 0
M  V30 492 O 47.2942 3.25761 2.35038 0
M  V30 493 N 45.5002 2.6686 1.15039 0
M  V30 494 H 45.0472 2.56261 0.262328 0
M  V30 495 H 45.0052 2.43674 1.98672 0
M  V30 496 N 48.7773 0.814389 1.34928 0
M  V30 497 C 50.0023 0.410097 2.03305 0
M  V30 498 C 50.4273 -0.973464 1.60951 0
M  V30 499 O 49.7853 -1.63185 0.789964 0
M  V30 500 C 49.8333 0.51049 3.56968 0
M  V30 501 O 48.9373 -0.473035 4.09678 0
M  V30 502 H 48.2783 0.170088 0.641846 0
M  V30 503 H 50.8083 1.10244 1.72358 0
M  V30 504 H 50.8183 0.383135 4.06197 0
M  V30 505 H 49.4933 1.51963 3.87144 0
M  V30 506 H 48.0703 -0.305272 3.71648 0
M  V30 507 N 50.2554 -1.46986 0.568584 0
M  V30 508 C 51.4854 -2.0653 0.0539173 0
M  V30 509 C 51.8934 -1.42004 -1.25026 0
M  V30 510 O 51.2364 -0.514541 -1.76347 0
M  V30 511 C 51.2984 -3.58938 -0.200854 0
M  V30 512 C 50.9624 -4.45572 1.01559 0
M  V30 513 C 51.9594 -4.82986 1.92407 0
M  V30 514 C 49.6444 -4.8692 1.23346 0
M  V30 515 C 51.6384 -5.60559 3.03402 0
M  V30 516 C 49.3254 -5.64255 2.34649 0
M  V30 517 C 50.3234 -6.00986 3.24507 0
M  V30 518 O 50.0114 -6.76761 4.33878 0
M  V30 519 H 49.7434 -0.674292 0.0480234 0
M  V30 520 H 52.2974 -1.89812 0.784896 0
M  V30 521 H 50.5274 -3.73911 -0.986279 0
M  V30 522 H 52.2164 -4.0046 -0.662294 0
M  V30 523 H 52.9824 -4.51633 1.76785 0
M  V30 524 H 48.8614 -4.57789 0.543178 0
M  V30 525 H 52.4054 -5.89147 3.73565 0
M  V30 526 H 48.3024 -5.95021 2.5024 0
M  V30 527 H 49.0704 -6.95168 4.32068 0
M  V30 528 N 51.7335 -0.305618 -1.54608 0
M  V30 529 C 52.6635 0.561482 -2.26649 0
M  V30 530 C 53.6445 1.13415 -1.26772 0
M  V30 531 O 54.8295 1.16262 -1.55553 0
M  V30 532 C 51.9595 1.73122 -3.01075 0
M  V30 533 C 50.9135 1.2887 -4.08138 0
M  V30 534 C 50.2395 2.54396 -4.70305 0
M  V30 535 C 51.5395 0.416578 -5.20636 0
M  V30 536 H 53.2335 -0.0393902 -2.99374 0
M  V30 537 H 50.7795 -0.020385 -1.43986 0
M  V30 538 H 52.7325 2.34396 -3.50195 0
M  V30 539 H 51.4565 2.3584 -2.25936 0
M  V30 540 H 50.1155 0.698991 -3.59875 0
M  V30 541 H 49.7635 3.15439 -3.918 0
M  V30 542 H 49.4635 2.25486 -5.42614 0
M  V30 543 H 50.9875 3.16464 -5.2219 0
M  V30 544 H 52.4015 0.935116 -5.65622 0
M  V30 545 H 50.7985 0.221046 -5.99693 0
M  V30 546 H 51.8685 -0.557162 -4.81688 0
M  V30 547 N 53.2116 1.57565 -0.0334293 0
M  V30 548 C 54.1586 2.10478 0.946981 0
M  V30 549 C 55.1286 1.00787 1.32027 0
M  V30 550 O 56.3136 1.28232 1.41284 0
M  V30 551 C 53.4536 2.63994 2.22263 0
M  V30 552 C 52.5666 3.87709 1.90541 0
M  V30 553 C 51.7016 4.29604 3.12433 0
M  V30 554 C 50.7406 5.46065 2.76549 0
M  V30 555 N 49.8776 5.83096 3.9108 0
M  V30 556 H 54.7176 2.93963 0.488846 0
M  V30 557 H 52.2546 1.45296 0.22969 0
M  V30 558 H 54.2126 2.93114 2.96884 0
M  V30 559 H 52.8426 1.83333 2.65685 0
M  V30 560 H 51.8946 3.65291 1.06144 0
M  V30 561 H 53.2066 4.72403 1.60116 0
M  V30 562 H 52.3606 4.60182 3.9537 0
M  V30 563 H 51.0996 3.43685 3.46023 0
M  V30 564 H 50.1046 5.15176 1.92026 0
M  V30 565 H 51.3296 6.33685 2.44171 0
M  V30 566 H 49.2756 5.00132 4.24504 0
M  V30 567 H 49.1926 6.6244 3.64293 0
M  V30 568 H 50.4606 6.18282 4.74708 0
M  V30 569 N 54.6897 -0.239769 1.55765 0
M  V30 570 C 55.9357 -0.968234 1.78194 0
M  V30 571 C 56.2687 -1.84701 0.599938 0
M  V30 572 O 55.5437 -1.9031 -0.401524 0
M  V30 573 C 55.8267 -1.8227 3.10564 0
M  V30 574 C 55.6797 -0.971633 4.3918 0
M  V30 575 C 56.9987 -2.80388 3.39221 0
M  V30 576 H 54.1177 -0.350572 0.648281 0
M  V30 577 H 56.7597 -0.238259 1.885 0
M  V30 578 H 54.9097 -2.44507 3.01908 0
M  V30 579 H 56.5817 -0.367408 4.59835 0
M  V30 580 H 54.8247 -0.276276 4.32919 0
M  V30 581 H 55.4957 -1.60346 5.28198 0
M  V30 582 H 57.9717 -2.28287 3.47885 0
M  V30 583 H 56.8477 -3.3729 4.33044 0
M  V30 584 H 57.1087 -3.57212 2.60484 0
M  V30 585 N 56.1678 -1.49265 -0.50573 0
M  V30 586 C 57.0978 -1.68495 -1.61653 0
M  V30 587 C 58.0788 -0.53366 -1.61512 0
M  V30 588 O 59.2638 -0.76897 -1.78327 0
M  V30 589 C 56.3938 -1.74709 -3.00157 0
M  V30 590 C 55.3478 -2.89581 -3.15162 0
M  V30 591 C 54.6738 -2.80903 -4.5497 0
M  V30 592 C 55.9738 -4.30578 -2.95634 0
M  V30 593 H 57.6678 -2.61493 -1.45814 0
M  V30 594 H 55.2138 -1.25838 -0.70005 0
M  V30 595 H 57.1668 -1.86748 -3.77761 0
M  V30 596 H 55.8908 -0.783067 -3.17074 0
M  V30 597 H 54.5498 -2.77136 -2.39982 0
M  V30 598 H 54.1978 -1.82419 -4.68756 0
M  V30 599 H 53.8978 -3.57999 -4.65951 0
M  V30 600 H 55.4218 -2.94944 -5.34641 0
M  V30 601 H 56.8358 -4.4373 -3.63011 0
M  V30 602 H 55.2328 -5.0886 -3.18091 0
M  V30 603 H 56.3028 -4.45352 -1.91806 0
M  V30 604 N 57.6459 0.756429 -1.3826 0
M  V30 605 C 58.9229 1.50584 -1.24835 0
M  V30 606 C 59.3029 2.10556 0.151485 0
M  V30 607 O 58.6509 1.96825 1.1607 0
M  V30 608 C 58.8609 2.57448 -2.3563 0
M  V30 609 C 60.2089 3.24429 -2.73917 0
M  V30 610 O 61.2329 2.67751 -2.34921 0
M  V30 611 O 60.0919 4.26937 -3.41156 0
M  V30 612 H 57.1859 0.667664 -0.48801 0
M  V30 613 H 59.7319 0.792083 -1.5008 0
M  V30 614 H 58.5039 2.11362 -3.29305 0
M  V30 615 H 58.1269 3.36408 -2.11933 0
M  V30 616 N 59.124 1.23083 0.984299 0
M  V30 617 C 60.372 1.05848 1.72165 0
M  V30 618 C 60.693 -0.406049 1.90726 0
M  V30 619 O 59.963 -1.29139 1.47309 0
M  V30 620 H 58.543 0.388685 0.637913 0
M  V30 621 H 61.205 1.54736 1.18503 0
M  V30 622 H 60.301 1.54327 2.71274 0
M  V30 623 N 60.6021 -1.18246 1.0419 0
M  V30 624 C 61.5501 -2.23968 0.627792 0
M  V30 625 C 62.5441 -1.65828 -0.346019 0
M  V30 626 O 63.7501 -1.78733 -0.213175 0
M  V30 627 H 60.1251 -0.728939 0.184802 0
M  V30 628 H 62.0961 -2.56202 1.52981 0
M  V30 629 C 60.8451 -3.47699 0.00796591 0
M  V30 630 H 60.1681 -3.92734 0.748347 0
M  V30 631 H 61.6081 -4.23294 -0.24455 0
M  V30 632 C 60.0671 -3.13153 -1.24246 0
M  V30 633 O 60.5971 -3.27003 -2.33307 0
M  V30 634 N 58.8031 -2.67467 -1.13622 0
M  V30 635 H 58.3501 -2.56396 -0.248734 0
M  V30 636 H 58.3081 -2.44724 -1.97377 0
M  V30 637 N 62.0802 -0.821533 -1.34494 0
M  V30 638 C 63.4962 -0.507117 -1.51329 0
M  V30 639 C 63.6962 0.968964 -1.76673 0
M  V30 640 O 62.7522 1.75348 -1.81685 0
M  V30 641 C 64.0652 -1.36544 -2.67911 0
M  V30 642 C 65.6132 -1.36242 -2.81793 0
M  V30 643 C 66.0882 -2.2052 -4.01416 0
M  V30 644 N 67.5792 -2.18136 -4.08621 0
M  V30 645 C 68.3142 -2.80095 -5.00334 0
M  V30 646 N 67.8102 -3.51039 -5.9728 0
M  V30 647 N 69.6032 -2.69656 -4.93196 0
M  V30 648 H 61.7542 -1.77729 -1.16302 0
M  V30 649 H 64.0172 -0.757291 -0.570276 0
M  V30 650 H 63.7232 -2.41361 -2.55808 0
M  V30 651 H 63.5972 -1.02917 -3.62888 0
M  V30 652 H 65.9842 -0.322041 -2.93338 0
M  V30 653 H 66.0652 -1.73866 -1.87628 0
M  V30 654 H 65.7092 -3.24607 -3.90631 0
M  V30 655 H 65.6392 -1.80247 -4.94791 0
M  V30 656 H 68.1302 -1.6653 -3.39229 0
M  V30 657 H 68.4432 -3.95565 -6.63889 0
M  V30 658 H 66.7882 -3.55145 -5.97409 0
M  V30 659 H 69.9792 -2.13808 -4.16418 0
M  V30 660 H 70.1522 -3.1823 -5.64476 0
M  V30 661 N 63.5583 1.46682 -0.576371 0
M  V30 662 C 64.8073 2.01619 -0.0572825 0
M  V30 663 C 65.1203 1.45417 1.30818 0
M  V30 664 O 66.3263 1.92133 1.91825 0
M  V30 665 C 64.7823 3.59863 -0.0518371 0
M  V30 666 C 64.3903 4.25059 -1.41523 0
M  V30 667 C 66.1343 4.2248 0.413639 0
M  V30 668 C 64.0413 5.75364 -1.36785 0
M  V30 669 H 62.9713 0.753794 -0.0176448 0
M  V30 670 H 65.6223 1.68481 -0.727076 0
M  V30 671 H 64.0043 3.90048 0.683994 0
M  V30 672 H 65.1783 4.06491 -2.17029 0
M  V30 673 H 63.4933 3.7451 -1.8202 0
M  V30 674 H 66.0903 5.3265 0.467779 0
M  V30 675 H 66.4333 3.90976 1.42982 0
M  V30 676 H 66.9663 3.96897 -0.267929 0
M  V30 677 H 63.7053 6.11518 -2.36063 0
M  V30 678 H 63.2253 5.96214 -0.654895 0
M  V30 679 H 64.9043 6.37955 -1.07805 0
M  V30 680 N 65.0364 0.313813 1.54444 0
M  V30 681 C 66.2824 -0.292108 2.00685 0
M  V30 682 C 66.6154 -1.52548 1.20177 0
M  V30 683 O 65.8904 -1.92452 0.281531 0
M  V30 684 C 66.1734 -0.635968 3.5444 0
M  V30 685 C 66.0264 0.607437 4.4568 0
M  V30 686 C 67.3454 -1.45747 4.15266 0
M  V30 687 H 64.4644 -0.104697 0.729526 0
M  V30 688 H 67.1064 0.428457 1.85106 0
M  V30 689 H 65.2564 -1.24986 3.67846 0
M  V30 690 H 66.9284 1.24581 4.44159 0
M  V30 691 H 65.1714 1.23822 4.15753 0
M  V30 692 H 65.8424 0.322515 5.51057 0
M  V30 693 H 68.3184 -0.938645 4.05375 0
M  V30 694 H 67.1944 -1.66683 5.2298 0
M  V30 695 H 67.4554 -2.45063 3.67963 0
M  V30 696 N 66.5145 -1.57545 0.0417849 0
M  V30 697 C 67.7605 -1.92601 -0.635021 0
M  V30 698 C 68.0935 -0.919627 -1.71045 0
M  V30 699 O 67.3685 0.0557892 -1.9442 0
M  V30 700 C 67.6515 -3.38085 -1.23979 0
M  V30 701 C 67.5045 -4.49467 -0.173057 0
M  V30 702 C 68.8235 -3.83776 -2.15416 0
M  V30 703 H 65.9425 -0.700397 -0.229374 0
M  V30 704 H 68.5845 -1.89728 0.101633 0
M  V30 705 H 66.7345 -3.40664 -1.86762 0
M  V30 706 H 68.4065 -4.59018 0.458312 0
M  V30 707 H 66.6495 -4.30909 0.499996 0
M  V30 708 H 67.3205 -5.48323 -0.636054 0
M  V30 709 H 69.7965 -3.83013 -1.62605 0
M  V30 710 H 68.6725 -4.8624 -2.54679 0
M  V30 711 H 68.9335 -3.19998 -3.05047 0
M  V30 712 N 67.9926 0.231505 -1.5589 0
M  V30 713 C 69.4036 0.799327 -1.68724 0
M  V30 714 C 69.7546 1.85398 -0.642022 0
M  V30 715 O 68.8796 2.1539 0.208784 0
M  V30 716 C 69.4746 1.45664 -3.05888 0
M  V30 717 C 68.0336 1.97197 -3.20609 0
M  V30 718 C 67.1806 0.828552 -2.64632 0
M  V30 719 H 70.1316 0.00702616 -1.58698 0
M  V30 720 H 70.1526 2.32517 -3.01191 0
M  V30 721 H 69.6646 0.688808 -3.81939 0
M  V30 722 H 67.7656 2.76813 -2.4941 0
M  V30 723 H 67.8786 2.15878 -4.27707 0
M  V30 724 H 66.2426 1.23321 -2.22854 0
M  V30 725 H 67.0256 0.0735544 -3.43221 0
M  V30 726 N 69.4707 1.49531 0.497807 0
M  V30 727 C 70.7167 1.59415 1.25358 0
M  V30 728 C 71.0497 0.281422 1.9215 0
M  V30 729 O 70.3247 -0.715249 1.80871 0
M  V30 730 C 70.6077 2.75566 2.3181 0
M  V30 731 C 70.4607 4.16642 1.69498 0
M  V30 732 C 71.7797 2.87347 3.33346 0
M  V30 733 H 68.8987 0.580244 0.454408 0
M  V30 734 H 71.5407 1.81827 0.551262 0
M  V30 735 H 69.6907 2.56587 2.91711 0
M  V30 736 H 71.3627 4.47145 1.13399 0
M  V30 737 H 69.6057 4.22141 0.998978 0
M  V30 738 H 70.2767 4.93792 2.46725 0
M  V30 739 H 72.7527 3.04634 2.83438 0
M  V30 740 H 71.6287 3.70289 4.05188 0
M  V30 741 H 71.8897 1.96834 3.95865 0
M  V30 742 N 70.9488 -0.749086 1.3866 0
M  V30 743 C 72.1968 -1.50535 1.34847 0
M  V30 744 C 72.5178 -1.94909 -0.0595016 0
M  V30 745 O 71.7878 -1.67973 -1.00806 0
M  V30 746 H 70.3678 -0.558395 0.49619 0
M  V30 747 H 73.0298 -0.890165 1.73384 0
M  V30 748 H 72.1258 -2.39413 2.00219 0
M  V30 749 N 72.4269 -1.23603 -0.977757 0
M  V30 750 C 73.6749 -1.06759 -1.71601 0
M  V30 751 C 73.9959 0.395929 -1.90938 0
M  V30 752 O 73.2659 1.28356 -1.47992 0
M  V30 753 H 71.8459 -0.392062 -0.635843 0
M  V30 754 H 74.5079 -1.55362 -1.1768 0
M  V30 755 H 73.6039 -1.55763 -2.70452 0
M  V30 756 N 73.905 1.17692 -1.04816 0
M  V30 757 C 74.838 2.20436 -0.590173 0
M  V30 758 C 75.816 1.58115 0.379244 0
M  V30 759 O 77 1.86228 0.291762 0
M  V30 760 C 74.127 3.38424 0.136817 0
M  V30 761 C 73.173 4.19176 -0.787023 0
M  V30 762 S 74.006 4.84815 -2.27409 0
M  V30 763 C 75.162 6.06195 -1.55817 0
M  V30 764 H 75.395 2.58944 -1.46067 0
M  V30 765 H 72.928 1.28246 -0.859784 0
M  V30 766 H 74.886 4.06798 0.550076 0
M  V30 767 H 73.547 2.98312 0.983299 0
M  V30 768 H 72.74 5.03499 -0.224681 0
M  V30 769 H 72.342 3.56219 -1.13947 0
M  V30 770 H 74.634 6.72078 -0.855387 0
M  V30 771 H 75.577 6.6695 -2.37873 0
M  V30 772 H 75.985 5.54701 -1.04722 0
M  V30 773 N 75.3831 0.828654 1.34056 0
M  V30 774 C 76.3331 0.226828 2.26869 0
M  V30 775 C 77.3171 -0.612243 1.48796 0
M  V30 776 O 78.5091 -0.465884 1.70759 0
M  V30 777 C 75.6381 -0.605654 3.37915 0
M  V30 778 C 74.7241 0.244361 4.23395 0
M  V30 779 N 75.1151 1.31815 4.88322 0
M  V30 780 C 73.4131 0.0296616 4.4599 0
M  V30 781 C 74.1141 1.83895 5.51867 0
M  V30 782 N 73.0901 1.14196 5.3147 0
M  V30 783 H 76.8921 1.04811 2.74576 0
M  V30 784 H 74.4061 0.67205 1.47842 0
M  V30 785 H 76.4031 -1.05302 4.03382 0
M  V30 786 H 75.0631 -1.42504 2.91758 0
M  V30 787 H 76.0741 1.70099 4.8917 0
M  V30 788 H 72.7511 -0.757097 4.10578 0
M  V30 789 H 74.1411 2.7376 6.136 0
M  V30 790 N 76.8612 -1.46375 0.584142 0
M  V30 791 C 77.8082 -2.30323 -0.148286 0
M  V30 792 C 78.7782 -1.40703 -0.882713 0
M  V30 793 O 79.9632 -1.69651 -0.873099 0
M  V30 794 C 77.1032 -3.25196 -1.15507 0
M  V30 795 C 76.2162 -4.29915 -0.423943 0
M  V30 796 C 75.3512 -5.11914 -1.41838 0
M  V30 797 C 74.3902 -6.08381 -0.673736 0
M  V30 798 N 73.5272 -6.83242 -1.6163 0
M  V30 799 H 78.3672 -2.92427 0.573644 0
M  V30 800 H 75.9042 -1.44118 0.294703 0
M  V30 801 H 77.8622 -3.78646 -1.75166 0
M  V30 802 H 76.4922 -2.64898 -1.8447 0
M  V30 803 H 75.5442 -3.7931 0.287714 0
M  V30 804 H 76.8562 -4.98549 0.158128 0
M  V30 805 H 76.0102 -5.69648 -2.08773 0
M  V30 806 H 74.7492 -4.43243 -2.03438 0
M  V30 807 H 73.7542 -5.49799 0.00938483 0
M  V30 808 H 74.9792 -6.79071 -0.0631082 0
M  V30 809 H 72.9252 -6.1728 -2.22038 0
M  V30 810 H 72.8422 -7.48144 -1.08707 0
M  V30 811 H 74.1102 -7.45534 -2.27596 0
M  V30 812 N 78.3393 -0.321999 -1.54275 0
M  V30 813 C 79.5673 0.283052 -2.04955 0
M  V30 814 C 79.9823 1.45904 -1.19823 0
M  V30 815 O 79.3393 1.81063 -0.228545 0
M  V30 816 C 79.3903 0.719028 -3.54277 0
M  V30 817 O 79.1113 -0.410175 -4.36176 0
M  V30 818 C 80.6123 1.38705 -4.21041 0
M  V30 819 H 77.8323 0.0584616 -0.668448 0
M  V30 820 H 80.3763 -0.467734 -1.99079 0
M  V30 821 H 78.5313 1.41979 -3.60445 0
M  V30 822 H 78.9453 -0.0669416 -5.24457 0
M  V30 823 H 80.4193 1.64306 -5.2698 0
M  V30 824 H 80.8963 2.33385 -3.72059 0
M  V30 825 H 81.5023 0.728906 -4.19007 0
M  V30 826 N 79.8174 1.5752 -0.0501392 0
M  V30 827 C 80.7274 2.14952 0.939827 0
M  V30 828 C 81.7434 1.10706 1.34239 0
M  V30 829 O 82.9194 1.42869 1.41952 0
M  V30 830 C 79.9844 2.68232 2.19665 0
M  V30 831 C 79.0454 3.87272 1.85253 0
M  V30 832 C 78.2784 4.38002 3.04943 0
M  V30 833 O 78.5014 3.87811 4.18281 0
M  V30 834 O 77.4354 5.29602 2.86017 0
M  V30 835 H 81.2614 2.9986 0.481392 0
M  V30 836 H 78.8464 1.4841 0.171699 0
M  V30 837 H 80.7284 3.02475 2.93406 0
M  V30 838 H 79.4034 1.86395 2.64648 0
M  V30 839 H 78.3104 3.5792 1.0883 0
M  V30 840 H 79.6434 4.70336 1.4507 0
M  V30 841 N 81.2955 -0.223234 1.56011 0
M  V30 842 C 82.2585 -1.26014 1.9145 0
M  V30 843 C 83.2585 -1.3989 0.792937 0
M  V30 844 O 84.4485 -1.38184 1.0607 0
M  V30 845 C 81.5805 -2.63422 2.16383 0
M  V30 846 H 82.7735 -0.95796 2.84189 0
M  V30 847 H 80.3265 -0.463576 1.49267 0
M  V30 848 H 81.0615 -2.98741 1.2619 0
M  V30 849 H 80.8465 -2.54728 2.98088 0
M  V30 850 H 82.3365 -3.38249 2.44903 0
M  V30 851 N 82.7736 -1.49793 -0.48987 0
M  V30 852 C 83.7216 -1.67783 -1.61095 0
M  V30 853 C 84.7156 -0.543683 -1.60438 0
M  V30 854 O 85.9216 -0.723647 -1.64813 0
M  V30 855 H 82.2966 -0.529255 -0.534222 0
M  V30 856 H 84.2676 -2.61861 -1.43078 0
M  V30 857 C 83.0166 -1.77191 -2.99164 0
M  V30 858 H 82.3396 -2.63841 -3.0038 0
M  V30 859 H 83.7796 -1.93809 -3.77113 0
M  V30 860 C 82.2386 -0.519203 -3.32875 0
M  V30 861 O 82.7686 0.350124 -4.00171 0
M  V30 862 N 80.9746 -0.378816 -2.8812 0
M  V30 863 H 80.5216 -1.08725 -2.33531 0
M  V30 864 H 80.4796 0.458239 -3.11043 0
M  V30 865 N 84.2517 0.741722 -1.39055 0
M  V30 866 C 85.4977 1.50336 -1.36113 0
M  V30 867 C 85.8307 1.94148 0.0450796 0
M  V30 868 O 85.1057 1.66301 1.00868 0
M  V30 869 C 85.3887 2.74773 -2.32749 0
M  V30 870 C 85.2417 2.37023 -3.82283 0
M  V30 871 C 86.5607 3.76846 -2.27322 0
M  V30 872 H 83.6797 0.545351 -0.495743 0
M  V30 873 H 86.3217 0.848624 -1.69995 0
M  V30 874 H 84.4717 3.30639 -2.03986 0
M  V30 875 H 86.1437 1.8684 -4.21768 0
M  V30 876 H 84.3867 1.69334 -3.99385 0
M  V30 877 H 85.0577 3.26104 -4.45376 0
M  V30 878 H 87.5337 3.30548 -2.5274 0
M  V30 879 H 86.4097 4.6159 -2.97028 0
M  V30 880 H 86.6707 4.23286 -1.27599 0
M  V30 881 N 85.7298 1.2412 0.971189 0
M  V30 882 C 86.6928 1.03156 2.04674 0
M  V30 883 C 87.6928 -0.00990322 1.60797 0
M  V30 884 O 88.8828 0.230729 1.72665 0
M  V30 885 C 86.0148 0.562765 3.36223 0
M  V30 886 H 87.2078 1.98614 2.24705 0
M  V30 887 H 84.7608 1.06293 1.14593 0
M  V30 888 H 85.4958 -0.395176 3.21883 0
M  V30 889 H 85.2808 1.31441 3.69413 0
M  V30 890 H 86.7708 0.437015 4.15307 0
M  V30 891 N 87.2079 -1.17134 1.05439 0
M  V30 892 C 88.6239 -1.39454 0.776201 0
M  V30 893 C 88.8239 -1.91454 -0.628307 0
M  V30 894 O 87.8799 -2.10777 -1.39031 0
M  V30 895 C 89.1929 -2.38305 1.83388 0
M  V30 896 C 90.7409 -2.52006 1.85639 0
M  V30 897 C 91.2159 -3.54133 2.90437 0
M  V30 898 N 92.7069 -3.61653 2.89415 0
M  V30 899 C 93.4419 -4.4044 3.67152 0
M  V30 900 N 92.9379 -5.22721 4.54681 0
M  V30 901 N 94.7309 -4.35337 3.55581 0
M  V30 902 H 86.8819 -0.817134 1.96053 0
M  V30 903 H 89.1449 -0.421626 0.849079 0
M  V30 904 H 88.8509 -2.07173 2.84204 0
M  V30 905 H 88.7249 -3.37841 1.67761 0
M  V30 906 H 91.1119 -2.82447 0.85486 0
M  V30 907 H 91.1929 -1.52537 2.05344 0
M  V30 908 H 90.8369 -3.24431 3.90777 0
M  V30 909 H 90.7669 -4.53313 2.67983 0
M  V30 910 H 93.2579 -3.02909 2.25952 0
M  V30 911 H 93.5709 -5.80027 5.10674 0
M  V30 912 H 91.9159 -5.22093 4.58741 0
M  V30 913 H 95.1069 -3.70112 2.86592 0
M  V30 914 H 95.2799 -4.96494 4.1641 0
M  V30 915 N 88.686 -0.835752 -1.33615 0
M  V30 916 C 89.963 -0.352017 -1.92406 0
M  V30 917 C 90.343 1.16225 -1.76224 0
M  V30 918 O 89.691 1.97526 -1.14873 0
M  V30 919 C 89.901 -0.795485 -3.39813 0
M  V30 920 C 91.249 -0.801703 -4.16963 0
M  V30 921 O 92.273 -0.738889 -3.48452 0
M  V30 922 O 91.132 -0.886607 -5.3926 0
M  V30 923 H 88.226 -0.0989641 -0.821057 0
M  V30 924 H 90.772 -0.921397 -1.42507 0
M  V30 925 H 89.544 -1.83795 -3.45449 0
M  V30 926 H 89.167 -0.202505 -3.97084 0
M  V30 927 N 90.1641 1.46063 -0.591896 0
M  V30 928 C 91.0741 2.34192 0.13831 0
M  V30 929 C 92.0901 1.50305 0.876608 0
M  V30 930 O 93.2661 1.8315 0.837728 0
M  V30 931 C 90.3311 3.27656 1.13326 0
M  V30 932 C 89.3921 4.27445 0.39863 0
M  V30 933 C 88.6251 5.16443 1.34618 0
M  V30 934 O 88.8481 5.08553 2.58321 0
M  V30 935 O 87.7821 5.95843 0.851768 0
M  V30 936 H 91.6081 2.98002 -0.58552 0
M  V30 937 H 89.1931 1.45188 -0.352239 0
M  V30 938 H 91.0751 3.85291 1.70671 0
M  V30 939 H 89.7501 2.6643 1.83839 0
M  V30 940 H 88.6571 3.73471 -0.216895 0
M  V30 941 H 89.9901 4.91482 -0.265709 0
M  V30 942 N 91.6422 0.330177 1.54103 0
M  V30 943 C 93.0582 -0.0222371 1.59585 0
M  V30 944 C 93.2582 -1.49902 1.34654 0
M  V30 945 O 92.3142 -2.25592 1.13421 0
M  V30 946 C 93.6272 0.401932 2.98002 0
M  V30 947 C 95.1752 0.353145 3.11001 0
M  V30 948 C 95.6502 0.752576 4.51775 0
M  V30 949 N 97.1412 0.706239 4.57784 0
M  V30 950 C 97.8762 0.987417 5.64834 0
M  V30 951 N 97.3722 1.33607 6.79795 0
M  V30 952 N 99.1652 0.91254 5.54643 0
M  V30 953 H 91.3162 1.29228 1.68564 0
M  V30 954 H 93.5792 0.525906 0.78875 0
M  V30 955 H 93.2852 1.4311 3.21267 0
M  V30 956 H 93.1592 -0.229699 3.765 0
M  V30 957 H 95.5462 -0.666822 2.87467 0
M  V30 958 H 95.6272 1.0198 2.34593 0
M  V30 959 H 95.2712 1.77049 4.76042 0
M  V30 960 H 95.2012 0.0635409 5.26562 0
M  V30 961 H 97.6922 0.44889 3.75224 0
M  V30 962 H 98.0052 1.53582 7.57385 0
M  V30 963 H 96.3502 1.37439 6.81275 0
M  V30 964 H 99.5412 0.639601 4.6371 0
M  V30 965 H 99.7142 1.13503 6.37982 0
M  V30 966 N 93.1203 -1.57491 0.0584922 0
M  V30 967 C 94.3663 -1.93264 -0.614558 0
M  V30 968 C 94.6993 -0.937717 -1.7006 0
M  V30 969 O 93.9743 0.0351652 -1.94468 0
M  V30 970 C 94.2573 -3.3938 -1.20386 0
M  V30 971 C 94.1103 -4.49625 -0.125375 0
M  V30 972 C 95.4293 -3.86039 -2.11334 0
M  V30 973 H 92.5483 -0.702791 -0.221933 0
M  V30 974 H 95.1903 -1.8961 0.12175 0
M  V30 975 H 93.3403 -3.42626 -1.83139 0
M  V30 976 H 95.0123 -4.58506 0.506971 0
M  V30 977 H 93.2553 -4.30354 0.545672 0
M  V30 978 H 93.9263 -5.48967 -0.577861 0
M  V30 979 H 96.4023 -3.84716 -1.58534 0
M  V30 980 H 95.2783 -4.88914 -2.49507 0
M  V30 981 H 95.5393 -3.23215 -3.01636 0
M  V30 982 N 94.5984 0.214957 -1.56127 0
M  V30 983 C 95.5284 1.2695 -1.95974 0
M  V30 984 C 96.5094 1.48539 -0.828868 0
M  V30 985 O 97.6944 1.60611 -1.09168 0
M  V30 986 C 94.8244 2.61794 -2.28214 0
M  V30 987 C 93.7784 2.54851 -3.43853 0
M  V30 988 C 93.1044 3.93785 -3.61715 0
M  V30 989 C 94.4044 2.09065 -4.78632 0
M  V30 990 H 96.0984 0.93846 -2.84312 0
M  V30 991 H 93.6444 0.449996 -1.36788 0
M  V30 992 H 95.5974 3.35731 -2.54682 0
M  V30 993 H 94.3214 2.96599 -1.36736 0
M  V30 994 H 92.9804 1.8337 -3.17444 0
M  V30 995 H 92.6284 4.25908 -2.67602 0
M  V30 996 H 92.3284 3.90019 -4.39498 0
M  V30 997 H 93.8524 4.69374 -3.90539 0
M  V30 998 H 95.2664 2.7275 -5.04262 0
M  V30 999 H 93.6634 2.16346 -5.59745 0
M  V30 1000 H 94.7334 1.04315 -4.73547 0
M  V30 1001 N 96.0765 1.50051 0.48192 0
M  V30 1002 C 97.0095 1.62749 1.59963 0
M  V30 1003 C 97.9875 0.475903 1.5548 0
M  V30 1004 O 99.1715 0.693986 1.7526 0
M  V30 1005 C 96.2985 1.60008 2.98522 0
M  V30 1006 C 95.3445 2.80596 3.21198 0
M  V30 1007 S 96.1775 4.42038 3.02262 0
M  V30 1008 C 97.3335 4.41973 4.43182 0
M  V30 1009 H 97.5665 2.57296 1.4895 0
M  V30 1010 H 95.0995 1.39179 0.668477 0
M  V30 1011 H 97.0575 1.59112 3.78409 0
M  V30 1012 H 95.7185 0.667153 3.06933 0
M  V30 1013 H 94.9115 2.74952 4.22395 0
M  V30 1014 H 94.5135 2.79003 2.49065 0
M  V30 1015 H 96.8055 4.14868 5.35622 0
M  V30 1016 H 97.7485 5.43512 4.53873 0
M  V30 1017 H 98.1565 3.71812 4.24755 0
M  V30 1018 N 97.5546 -0.734337 1.39446 0
M  V30 1019 C 98.7826 -1.52358 1.39981 0
M  V30 1020 C 99.1976 -1.88799 -0.0054975 0
M  V30 1021 O 98.5546 -1.54146 -0.976998 0
M  V30 1022 C 98.6056 -2.81072 2.27333 0
M  V30 1023 O 98.3266 -2.46178 3.62392 0
M  V30 1024 C 99.8276 -3.75096 2.36259 0
M  V30 1025 H 97.0476 -0.470806 0.478103 0
M  V30 1026 H 99.5916 -0.907339 1.83269 0
M  V30 1027 H 97.7466 -3.39026 1.87457 0
M  V30 1028 H 98.1606 -3.28866 4.08592 0
M  V30 1029 H 99.6346 -4.62305 3.01626 0
M  V30 1030 H 100.112 -4.16892 1.38194 0
M  V30 1031 H 100.718 -3.23061 2.76608 0
M  V30 1032 N 99.0327 -1.24633 -0.964593 0
M  V30 1033 C 99.9627 -1.06611 -2.07741 0
M  V30 1034 C 100.944 0.0218666 -1.70086 0
M  V30 1035 O 102.129 -0.145793 -1.93652 0
M  V30 1036 C 99.2587 -0.673444 -3.40708 0
M  V30 1037 C 98.2127 -1.71054 -3.92332 0
M  V30 1038 C 97.5387 -1.17285 -5.21678 0
M  V30 1039 C 98.8387 -3.10718 -4.19824 0
M  V30 1040 H 100.533 -1.99693 -2.23076 0
M  V30 1041 H 98.0787 -0.96152 -1.07195 0
M  V30 1042 H 100.032 -0.534345 -4.17998 0
M  V30 1043 H 98.7557 0.293073 -3.25282 0
M  V30 1044 H 97.4147 -1.83791 -3.17201 0
M  V30 1045 H 97.0627 -0.196847 -5.02615 0
M  V30 1046 H 96.7627 -1.86592 -5.57187 0
M  V30 1047 H 98.2867 -1.04593 -6.01575 0
M  V30 1048 H 99.7007 -3.01192 -4.87808 0
M  V30 1049 H 98.0977 -3.77406 -4.66567 0
M  V30 1050 H 99.1677 -3.58524 -3.26479 0
M  V30 1051 N 100.511 1.16574 -1.06058 0
M  V30 1052 C 101.759 1.86677 -0.77434 0
M  V30 1053 C 102.08 1.81959 0.701147 0
M  V30 1054 O 101.35 1.2515 1.50713 0
M  V30 1055 H 99.9298 0.691134 -0.283449 0
M  V30 1056 H 102.592 1.41378 -1.34158 0
M  V30 1057 H 101.688 2.92181 -1.09711 0
M  V30 1058 N 101.989 0.842826 1.3317 0
M  V30 1059 C 103.214 0.453129 2.02389 0
M  V30 1060 C 103.639 -0.939105 1.6298 0
M  V30 1061 O 102.997 -1.61472 0.8244 0
M  V30 1062 C 103.045 0.586094 3.55805 0
M  V30 1063 O 102.149 -0.386029 4.10589 0
M  V30 1064 H 101.49 0.183664 0.638094 0
M  V30 1065 H 104.02 1.13875 1.69981 0
M  V30 1066 H 104.03 0.469209 4.05293 0
M  V30 1067 H 102.705 1.6014 3.83833 0
M  V30 1068 H 101.282 -0.226371 3.72212 0
M  V30 1069 N 103.467 -1.45747 0.599634 0
M  V30 1070 C 104.883 -1.57424 0.26264 0
M  V30 1071 C 105.083 -1.59222 -1.23493 0
M  V30 1072 O 104.139 -1.51825 -2.01756 0
M  V30 1073 C 105.452 -2.86061 0.926795 0
M  V30 1074 C 107 -2.99722 0.901967 0
M  V30 1075 C 107.475 -4.31119 1.54598 0
M  V30 1076 N 108.966 -4.37858 1.5111 0
M  V30 1077 C 109.701 -5.3818 1.97863 0
M  V30 1078 N 109.197 -6.45083 2.52666 0
M  V30 1079 N 110.99 -5.29487 1.88679 0
M  V30 1080 H 103.141 -1.42823 1.57211 0
M  V30 1081 H 105.404 -0.68235 0.658105 0
M  V30 1082 H 105.11 -2.90605 1.98095 0
M  V30 1083 H 104.984 -3.74563 0.445238 0
M  V30 1084 H 107.371 -2.9475 -0.143617 0
M  V30 1085 H 107.452 -2.12652 1.42171 0
M  V30 1086 H 107.096 -4.36849 2.59085 0
M  V30 1087 H 107.026 -5.16992 1.00132 0
M  V30 1088 H 109.517 -3.61209 1.11068 0
M  V30 1089 H 109.83 -7.17869 2.86155 0
M  V30 1090 H 108.175 -6.45856 2.56701 0
M  V30 1091 H 111.366 -4.44877 1.4561 0
M  V30 1092 H 111.539 -6.07524 2.25429 0
M  V30 1093 N 104.945 -0.338344 -1.53925 0
M  V30 1094 C 105.892 0.520845 -2.24846 0
M  V30 1095 C 106.862 1.09976 -1.24477 0
M  V30 1096 O 108.047 1.13735 -1.53196 0
M  V30 1097 C 105.187 1.6685 -3.02084 0
M  V30 1098 C 104.3 1.11739 -4.17299 0
M  V30 1099 C 103.435 2.23193 -4.82036 0
M  V30 1100 C 102.474 1.65407 -5.89328 0
M  V30 1101 N 101.611 2.70582 -6.47866 0
M  V30 1102 H 106.451 -0.0904881 -2.97863 0
M  V30 1103 H 103.988 -0.0564282 -1.46992 0
M  V30 1104 H 105.946 2.34407 -3.45122 0
M  V30 1105 H 104.576 2.2509 -2.31375 0
M  V30 1106 H 103.628 0.332919 -3.7894 0
M  V30 1107 H 104.94 0.654677 -4.94485 0
M  V30 1108 H 104.094 2.98626 -5.28117 0
M  V30 1109 H 102.833 2.72807 -4.04262 0
M  V30 1110 H 101.838 0.884779 -5.42634 0
M  V30 1111 H 103.063 1.16652 -6.69006 0
M  V30 1112 H 101.009 3.1946 -5.72959 0
M  V30 1113 H 100.926 2.28917 -7.20509 0
M  V30 1114 H 102.194 3.45799 -6.98601 0
M  V30 1115 N 106.423 1.57458 -0.0668435 0
M  V30 1116 C 107.669 1.93587 0.6043 0
M  V30 1117 C 108.002 0.946722 1.69561 0
M  V30 1118 O 107.277 -0.0248516 1.94484 0
M  V30 1119 C 107.56 3.40014 1.18585 0
M  V30 1120 C 107.413 4.49685 0.101529 0
M  V30 1121 C 108.732 3.87154 2.09284 0
M  V30 1122 H 105.851 0.703958 0.218202 0
M  V30 1123 H 108.493 1.89542 -0.131804 0
M  V30 1124 H 106.643 3.43592 1.81319 0
M  V30 1125 H 108.315 4.5823 -0.531279 0
M  V30 1126 H 106.558 4.30059 -0.568487 0
M  V30 1127 H 107.229 5.49266 0.54874 0
M  V30 1128 H 109.705 3.85551 1.56491 0
M  V30 1129 H 108.581 4.90231 2.46911 0
M  V30 1130 H 108.842 3.2481 2.99918 0
M  V30 1131 N 107.901 -0.206675 1.56239 0
M  V30 1132 C 108.864 -1.23976 1.92776 0
M  V30 1133 C 109.864 -1.39041 0.807729 0
M  V30 1134 O 111.054 -1.37051 1.0753 0
M  V30 1135 C 108.186 -2.61112 2.19165 0
M  V30 1136 H 109.379 -0.927764 2.85189 0
M  V30 1137 H 106.932 -0.447718 1.4975 0
M  V30 1138 H 107.667 -2.97386 1.29352 0
M  V30 1139 H 107.452 -2.51552 3.00772 0
M  V30 1140 H 108.942 -3.35633 2.48476 0
M  V30 1141 N 109.379 -1.50304 -0.473955 0
M  V30 1142 C 110.627 -1.60832 -1.22382 0
M  V30 1143 C 110.948 -0.30939 -1.9253 0
M  V30 1144 O 110.218 0.67296 -1.83978 0
M  V30 1145 H 108.798 -0.592652 -0.454723 0
M  V30 1146 H 111.46 -1.87068 -0.546968 0
M  V30 1147 H 110.556 -2.41803 -1.97327 0
M  V30 1148 N 110.857 0.726932 -1.39834 0
M  V30 1149 C 112.273 1.03354 -1.21615 0
M  V30 1150 C 112.473 2.01327 -0.08338 0
M  V30 1151 O 111.529 2.46158 0.56238 0
M  V30 1152 C 112.842 1.58811 -2.55342 0
M  V30 1153 C 114.39 1.70851 -2.62257 0
M  V30 1154 C 114.865 2.29716 -3.96225 0
M  V30 1155 N 116.356 2.37116 -3.97907 0
M  V30 1156 C 117.091 2.83619 -4.98345 0
M  V30 1157 N 116.587 3.29958 -6.09179 0
M  V30 1158 N 118.38 2.82901 -4.8572 0
M  V30 1159 H 110.531 0.0773069 -2.12259 0
M  V30 1160 H 112.794 0.0969102 -0.943034 0
M  V30 1161 H 112.5 0.942855 -3.38826 0
M  V30 1162 H 112.374 2.57502 -2.75632 0
M  V30 1163 H 114.761 2.34497 -1.79152 0
M  V30 1164 H 114.842 0.707913 -2.45809 0
M  V30 1165 H 114.486 1.66696 -4.79765 0
M  V30 1166 H 114.416 3.30469 -4.09997 0
M  V30 1167 H 116.907 2.04374 -3.17868 0
M  V30 1168 H 117.22 3.63976 -6.8172 0
M  V30 1169 H 115.565 3.27946 -6.12761 0
M  V30 1170 H 118.756 2.46027 -3.98231 0
M  V30 1171 H 118.929 3.18827 -5.6414 0
M  V30 1172 N 112.336 1.25143 0.95797 0
M  V30 1173 C 113.284 1.05019 2.07542 0
M  V30 1174 C 114.278 -0.0178751 1.69391 0
M  V30 1175 O 115.484 0.137472 1.79474 0
M  V30 1176 H 111.859 0.32265 0.679265 0
M  V30 1177 H 113.83 1.99759 2.21673 0
M  V30 1178 C 112.579 0.682074 3.40944 0
M  V30 1179 H 111.902 1.49573 3.70767 0
M  V30 1180 H 113.342 0.580945 4.20001 0
M  V30 1181 C 111.801 -0.611608 3.31302 0
M  V30 1182 O 112.331 -1.65465 3.66038 0
M  V30 1183 N 110.537 -0.595982 2.84423 0
M  V30 1184 H 110.084 0.253192 2.56353 0
M  V30 1185 H 110.042 -1.46173 2.78354 0
M  V30 1186 N 113.814 -1.1601 1.06675 0
M  V30 1187 C 115.062 -1.86264 0.784229 0
M  V30 1188 C 115.383 -1.82328 -0.691488 0
M  V30 1189 O 114.653 -1.25947 -1.50047 0
M  V30 1190 H 113.233 -0.689621 0.28711 0
M  V30 1191 H 115.895 -1.40664 1.34906 0
M  V30 1192 H 114.991 -2.91595 1.11259 0
M  V30 1193 N 115.292 -0.849877 -1.32721 0
M  V30 1194 C 116.703 -0.506188 -1.79707 0
M  V30 1195 C 117.054 0.975627 -1.70223 0
M  V30 1196 O 116.179 1.76078 -1.25799 0
M  V30 1197 C 116.774 -0.912044 -3.26293 0
M  V30 1198 C 115.333 -0.620326 -3.71253 0
M  V30 1199 C 114.48 -1.11439 -2.53922 0
M  V30 1200 H 117.431 -1.03754 -1.20087 0
M  V30 1201 H 117.452 -0.226493 -3.79825 0
M  V30 1202 H 116.964 -1.99057 -3.33164 0
M  V30 1203 H 115.065 0.447674 -3.69901 0
M  V30 1204 H 115.178 -1.18327 -4.64258 0
M  V30 1205 H 113.542 -0.534834 -2.49021 0
M  V30 1206 H 114.325 -2.19992 -2.6355 0
M  V30 1207 N 116.77 1.45427 -0.607355 0
M  V30 1208 C 118.018 2.01841 -0.102253 0
M  V30 1209 C 118.339 1.47832 1.27164 0
M  V30 1210 O 117.609 0.672497 1.83995 0
M  V30 1211 H 116.189 0.746188 -0.0348101 0
M  V30 1212 H 118.851 1.78229 -0.7887 0
M  V30 1213 H 117.947 3.12057 -0.0518585 0
M  V30 1214 N 118.248 0.346503 1.53744 0
M  V30 1215 C 119.476 -0.25041 2.05379 0
M  V30 1216 C 119.891 -1.43979 1.22129 0
M  V30 1217 O 119.248 -1.80677 0.257321 0
M  V30 1218 C 119.299 -0.662575 3.55376 0
M  V30 1219 O 119.02 0.479515 4.35468 0
M  V30 1220 C 120.521 -1.31989 4.23195 0
M  V30 1221 H 117.741 -0.0478198 0.669294 0
M  V30 1222 H 120.285 0.499346 1.9831 0
M  V30 1223 H 118.44 -1.36227 3.62658 0
M  V30 1224 H 118.854 0.15037 5.24284 0
M  V30 1225 H 120.328 -1.55902 5.29527 0
M  V30 1226 H 120.805 -2.27436 3.75725 0
M  V30 1227 H 121.411 -0.662154 4.20114 0
M  V30 1228 N 119.726 -1.57421 0.075193 0
M  V30 1229 C 120.974 -1.93236 -0.591974 0
M  V30 1230 C 121.295 -0.956241 -1.69944 0
M  V30 1231 O 120.565 -0.00494792 -1.95899 0
M  V30 1232 H 119.145 -0.713355 -0.22166 0
M  V30 1233 H 121.807 -1.9444 0.133848 0
M  V30 1234 H 120.903 -2.95131 -1.01509 0
M  V30 1235 N 121.204 0.198386 -1.56346 0
M  V30 1236 C 122.451 0.919286 -1.80431 0
M  V30 1237 C 122.779 1.83393 -0.647866 0
M  V30 1238 O 122.034 1.92236 0.366556 0
M  V30 1239 C 122.333 1.77031 -3.10475 0
M  V30 1240 C 121.999 1.00693 -4.39513 0
M  V30 1241 C 120.661 0.796145 -4.74568 0
M  V30 1242 C 123.013 0.469559 -5.19081 0
M  V30 1243 C 120.341 0.0364588 -5.86689 0
M  V30 1244 C 122.693 -0.2769 -6.31994 0
M  V30 1245 C 121.357 -0.49873 -6.65634 0
M  V30 1246 H 120.627 0.336391 -0.660244 0
M  V30 1247 H 123.274 0.185872 -1.90596 0
M  V30 1248 H 121.579 2.5723 -2.95533 0
M  V30 1249 H 123.276 2.33065 -3.26315 0
M  V30 1250 H 119.866 1.18122 -4.12001 0
M  V30 1251 H 124.05 0.619816 -4.92414 0
M  V30 1252 H 119.306 -0.145412 -6.11227 0
M  V30 1253 H 123.48 -0.700684 -6.92866 0
M  V30 1254 H 121.107 -1.0893 -7.52355 0
M  V30 1255 N 122.682 1.50554 0.465978 0
M  V30 1256 C 123.612 1.72722 1.57128 0
M  V30 1257 C 124.593 0.576294 1.6004 0
M  V30 1258 O 125.778 0.81598 1.76225 0
M  V30 1259 C 122.908 1.82605 2.95419 0
M  V30 1260 C 121.862 2.97835 3.07373 0
M  V30 1261 C 121.188 2.92867 4.47363 0
M  V30 1262 C 122.488 4.38265 2.84114 0
M  V30 1263 H 124.182 2.65267 1.38829 0
M  V30 1264 H 121.728 1.2765 0.666441 0
M  V30 1265 H 123.681 1.96698 3.72677 0
M  V30 1266 H 122.405 0.866858 3.14886 0
M  V30 1267 H 121.064 2.83401 2.3255 0
M  V30 1268 H 120.712 1.94783 4.63755 0
M  V30 1269 H 120.412 3.70227 4.56296 0
M  V30 1270 H 121.936 3.09015 5.26633 0
M  V30 1271 H 123.35 4.53198 3.51118 0
M  V30 1272 H 121.747 5.17115 3.04487 0
M  V30 1273 H 122.817 4.50281 1.7993 0
M  V30 1274 N 124.16 -0.719506 1.40217 0
M  V30 1275 C 125.409 -1.47486 1.37589 0
M  V30 1276 C 125.722 -1.9559 -0.0201568 0
M  V30 1277 O 126.928 -2.70973 -0.169049 0
M  V30 1278 C 125.384 -2.66575 2.41796 0
M  V30 1279 C 124.992 -2.25358 3.87192 0
M  V30 1280 C 126.736 -3.4433 2.48269 0
M  V30 1281 C 124.643 -3.41262 4.83005 0
M  V30 1282 H 123.573 -0.553901 0.511576 0
M  V30 1283 H 126.224 -0.783427 1.65936 0
M  V30 1284 H 124.606 -3.3787 2.06543 0
M  V30 1285 H 125.78 -1.61509 4.31569 0
M  V30 1286 H 124.095 -1.60657 3.84159 0
M  V30 1287 H 126.692 -4.30569 3.17041 0
M  V30 1288 H 127.035 -3.87872 1.51198 0
M  V30 1289 H 127.568 -2.80076 2.82493 0
M  V30 1290 H 124.307 -3.02755 5.81394 0
M  V30 1291 H 123.827 -4.0404 4.43297 0
M  V30 1292 H 125.506 -4.07383 5.02641 0
M  V30 1293 N 125.638 -1.25649 -0.95132 0
M  V30 1294 C 127.054 -1.02542 -1.223 0
M  V30 1295 C 127.254 0.255715 -1.99871 0
M  V30 1296 O 126.31 0.967558 -2.33226 0
M  V30 1297 C 127.623 -2.25065 -1.99415 0
M  V30 1298 C 129.171 -2.29861 -2.12446 0
M  V30 1299 C 129.646 -3.52048 -2.92961 0
M  V30 1300 N 131.137 -3.52465 -3.00538 0
M  V30 1301 C 131.872 -4.43672 -3.63239 0
M  V30 1302 N 131.368 -5.45157 -4.27523 0
M  V30 1303 N 133.161 -4.31346 -3.60412 0
M  V30 1304 H 125.312 -2.07951 -0.432471 0
M  V30 1305 H 127.575 -0.91339 -0.253816 0
M  V30 1306 H 127.281 -3.18194 -1.49817 0
M  V30 1307 H 127.155 -2.28502 -3.00111 0
M  V30 1308 H 129.542 -1.37252 -2.61239 0
M  V30 1309 H 129.623 -2.3044 -1.11044 0
M  V30 1310 H 129.267 -4.44981 -2.44856 0
M  V30 1311 H 129.197 -3.48715 -3.94596 0
M  V30 1312 H 131.688 -2.79056 -2.54826 0
M  V30 1313 H 132.001 -6.10958 -4.73234 0
M  V30 1314 H 130.346 -5.49025 -4.26141 0
M  V30 1315 H 133.537 -3.51288 -3.09377 0
M  V30 1316 H 133.71 -5.02624 -4.0899 0
M  V30 1317 N 127.117 1.15442 -1.07289 0
M  V30 1318 C 128.365 1.85845 -0.794096 0
M  V30 1319 C 128.686 1.82692 0.681809 0
M  V30 1320 O 127.956 1.26741 1.49377 0
M  V30 1321 H 126.536 0.688089 -0.290763 0
M  V30 1322 H 129.198 1.39947 -1.3565 0
M  V30 1323 H 128.294 2.91001 -1.12804 0
M  V30 1324 N 128.595 0.856903 1.32268 0
M  V30 1325 C 129.82 0.474569 2.01897 0
M  V30 1326 C 130.245 -0.921766 1.63967 0
M  V30 1327 O 129.603 -1.60589 0.84148 0
M  V30 1328 C 129.651 0.623799 3.55164 0
M  V30 1329 O 128.755 -0.342459 4.10976 0
M  V30 1330 H 128.096 0.190422 0.63611 0
M  V30 1331 H 130.626 1.15672 1.68764 0
M  V30 1332 H 130.636 0.512169 4.04773 0
M  V30 1333 H 129.311 1.64202 3.82113 0
M  V30 1334 H 127.888 -0.18688 3.72431 0
M  V30 1335 N 130.073 -1.45103 0.615059 0
M  V30 1336 C 131.036 -2.29025 -0.0895485 0
M  V30 1337 C 132.036 -1.40174 -0.787906 0
M  V30 1338 O 133.226 -1.62217 -0.634933 0
M  V30 1339 C 130.358 -3.21376 -1.13711 0
M  V30 1340 H 131.551 -2.92807 0.648382 0
M  V30 1341 H 129.104 -1.51749 0.374444 0
M  V30 1342 H 129.839 -2.6241 -1.90556 0
M  V30 1343 H 129.624 -3.86834 -0.640475 0
M  V30 1344 H 131.114 -3.84459 -1.63036 0
M  V30 1345 N 131.551 -0.354651 -1.53558 0
M  V30 1346 C 132.514 0.484566 -2.24019 0
M  V30 1347 C 133.514 1.01861 -1.24422 0
M  V30 1348 O 134.704 0.906097 -1.4878 0
M  V30 1349 C 131.836 1.67615 -2.96847 0
M  V30 1350 H 133.029 -0.131843 -2.9961 0
M  V30 1351 H 130.582 -0.106165 -1.55939 0
M  V30 1352 H 131.317 2.33095 -2.25471 0
M  V30 1353 H 131.102 1.30029 -3.69912 0
M  V30 1354 H 132.592 2.27114 -3.50441 0
M  V30 1355 N 133.029 1.57378 -0.0835403 0
M  V30 1356 C 134.276 1.9393 0.58287 0
M  V30 1357 C 134.604 0.964455 1.68904 0
M  V30 1358 O 133.859 -0.0179474 1.95692 0
M  V30 1359 C 134.158 3.37063 1.1884 0
M  V30 1360 C 133.824 4.50424 0.207194 0
M  V30 1361 C 132.486 4.81159 -0.0627115 0
M  V30 1362 C 134.838 5.19136 -0.463426 0
M  V30 1363 C 132.166 5.77939 -1.01012 0
M  V30 1364 C 134.518 6.16931 -1.39924 0
M  V30 1365 C 133.182 6.46078 -1.67749 0
M  V30 1366 H 132.452 0.70964 0.213287 0
M  V30 1367 H 135.099 1.90856 -0.156916 0
M  V30 1368 H 133.404 3.3666 2.00418 0
M  V30 1369 H 135.101 3.6264 1.71153 0
M  V30 1370 H 131.691 4.2646 0.427747 0
M  V30 1371 H 135.875 4.95576 -0.268034 0
M  V30 1372 H 131.131 5.98842 -1.23283 0
M  V30 1373 H 135.305 6.69273 -1.92476 0
M  V30 1374 H 132.932 7.2088 -2.41321 0
M  V30 1375 N 134.507 -0.190092 1.56449 0
M  V30 1376 C 135.923 -0.54113 1.50146 0
M  V30 1377 C 136.123 -1.85603 0.784465 0
M  V30 1378 O 135.179 -2.5024 0.337051 0
M  V30 1379 C 136.492 -0.591241 2.9483 0
M  V30 1380 C 138.04 -0.679732 3.0553 0
M  V30 1381 C 138.515 -0.760908 4.51635 0
M  V30 1382 N 140.006 -0.824302 4.55806 0
M  V30 1383 C 140.741 -0.907365 5.66175 0
M  V30 1384 N 140.237 -0.952422 6.86222 0
M  V30 1385 N 142.03 -0.94494 5.541 0
M  V30 1386 H 134.181 0.67235 2.01478 0
M  V30 1387 H 136.444 0.240127 0.917084 0
M  V30 1388 H 136.15 0.305905 3.50367 0
M  V30 1389 H 136.024 -1.44422 3.48457 0
M  V30 1390 H 138.411 -1.56731 2.50039 0
M  V30 1391 H 138.492 0.199549 2.5502 0
M  V30 1392 H 138.136 0.122336 5.07753 0
M  V30 1393 H 138.066 -1.65606 4.99882 0
M  V30 1394 H 140.557 -0.798526 3.69367 0
M  V30 1395 H 140.87 -1.01645 7.66086 0
M  V30 1396 H 139.215 -0.921014 6.8887 0
M  V30 1397 H 142.406 -0.906612 4.59236 0
M  V30 1398 H 142.579 -1.00622 6.4014 0
M  V30 1399 N 135.985 -1.50799 -0.457987 0
M  V30 1400 C 137.213 -1.66218 -1.23203 0
M  V30 1401 C 137.628 -0.350894 -1.85511 0
M  V30 1402 O 136.985 0.668546 -1.69814 0
M  V30 1403 C 137.036 -2.76291 -2.33121 0
M  V30 1404 O 136.757 -4.02338 -1.73366 0
M  V30 1405 C 138.258 -3.028 -3.2377 0
M  V30 1406 H 135.478 -0.558361 -0.372121 0
M  V30 1407 H 138.022 -1.97099 -0.545179 0
M  V30 1408 H 136.177 -2.48068 -2.97558 0
M  V30 1409 H 136.591 -4.63312 -2.4585 0
M  V30 1410 H 138.065 -3.8345 -3.97077 0
M  V30 1411 H 138.542 -2.14385 -3.83322 0
M  V30 1412 H 139.148 -3.32604 -2.65056 0
M  V30 1413 N 137.463 0.71206 -1.40597 0
M  V30 1414 C 138.74 1.46536 -1.29563 0
M  V30 1415 C 139.12 2.10931 0.0844217 0
M  V30 1416 O 138.468 2.00418 1.0975 0
M  V30 1417 C 138.678 2.49821 -2.43701 0
M  V30 1418 C 140.026 3.15551 -2.841 0
M  V30 1419 O 141.05 2.60142 -2.4332 0
M  V30 1420 O 139.909 4.15867 -3.54566 0
M  V30 1421 H 137.003 0.651801 -0.509004 0
M  V30 1422 H 139.549 0.743935 -1.52524 0
M  V30 1423 H 138.321 2.00778 -3.35863 0
M  V30 1424 H 137.944 3.29495 -2.22528 0
M  V30 1425 N 138.941 1.26152 0.944643 0
M  V30 1426 C 140.189 1.11271 1.6871 0
M  V30 1427 C 140.51 -0.345166 1.91921 0
M  V30 1428 O 139.78 -1.24387 1.51343 0
M  V30 1429 H 138.36 0.408783 0.625224 0
M  V30 1430 H 141.022 1.58427 1.1352 0
M  V30 1431 H 140.118 1.62879 2.66227 0
M  V30 1432 N 140.419 -1.14872 1.07899 0
M  V30 1433 C 141.83 -1.67367 0.827363 0
M  V30 1434 C 142.181 -1.85236 -0.646693 0
M  V30 1435 O 141.306 -1.55974 -1.50004 0
M  V30 1436 C 141.901 -3.04016 1.49532 0
M  V30 1437 C 140.46 -3.53566 1.29106 0
M  V30 1438 C 139.607 -2.29161 1.56143 0
M  V30 1439 H 142.558 -0.990083 1.24028 0
M  V30 1440 H 142.579 -3.69219 0.919643 0
M  V30 1441 H 142.091 -2.90978 2.56814 0
M  V30 1442 H 140.192 -3.71835 0.238713 0
M  V30 1443 H 140.305 -4.34661 2.01511 0
M  V30 1444 H 138.669 -2.34978 0.982717 0
M  V30 1445 H 139.452 -2.18705 2.64619 0
M  V30 1446 N 141.898 -0.863906 -1.31812 0
M  V30 1447 C 142.808 -0.318461 -2.32428 0
M  V30 1448 C 143.824 0.568496 -1.64451 0
M  V30 1449 O 145 0.46666 -1.95919 0
M  V30 1450 C 142.065 0.476355 -3.43412 0
M  V30 1451 C 141.126 -0.43784 -4.27061 0
M  V30 1452 C 140.359 0.319138 -5.32745 0
M  V30 1453 O 140.582 1.54799 -5.48993 0
M  V30 1454 O 139.516 -0.319861 -6.01049 0
M  V30 1455 H 143.342 -1.15229 -2.80991 0
M  V30 1456 H 140.927 -0.627103 -1.35602 0
M  V30 1457 H 142.809 0.927156 -4.11074 0
M  V30 1458 H 141.484 1.28683 -2.97022 0
M  V30 1459 H 140.391 -0.937013 -3.62175 0
M  V30 1460 H 141.724 -1.21375 -4.77 0
M  V30 1461 N 143.376 1.44774 -0.622745 0
M  V30 1462 C 144.623 2.02121 -0.1239 0
M  V30 1463 C 144.951 1.48915 1.25118 0
M  V30 1464 O 144.206 0.660045 1.84233 0
M  V30 1465 C 144.505 3.57364 -0.0508323 0
M  V30 1466 C 144.171 4.29787 -1.36358 0
M  V30 1467 C 142.833 4.4929 -1.72314 0
M  V30 1468 C 145.185 4.71062 -2.23048 0
M  V30 1469 C 142.513 5.07325 -2.94682 0
M  V30 1470 C 144.865 5.30452 -3.44679 0
M  V30 1471 C 143.529 5.48175 -3.80868 0
M  V30 1472 H 142.799 0.739612 -0.0453381 0
M  V30 1473 H 145.446 1.73648 -0.807389 0
M  V30 1474 H 143.751 3.85202 0.715991 0
M  V30 1475 H 145.448 3.99456 0.351533 0
M  V30 1476 H 142.038 4.14932 -1.07375 0
M  V30 1477 H 146.222 4.55715 -1.96565 0
M  V30 1478 H 141.478 5.19235 -3.22809 0
M  V30 1479 H 145.652 5.61385 -4.12092 0
M  V30 1480 H 143.279 5.92912 -4.75773 0
M  V30 1481 N 144.854 0.36279 1.53368 0
M  V30 1482 C 145.764 -0.492994 2.29362 0
M  V30 1483 C 146.78 -1.09507 1.35219 0
M  V30 1484 O 147.956 -1.10662 1.68273 0
M  V30 1485 C 145.021 -1.61855 3.066 0
M  V30 1486 C 144.082 -1.04429 4.16405 0
M  V30 1487 C 143.315 -2.11621 4.89951 0
M  V30 1488 O 143.538 -3.32684 4.63333 0
M  V30 1489 O 142.472 -1.74835 5.75948 0
M  V30 1490 H 146.298 0.125331 3.03441 0
M  V30 1491 H 143.883 0.127253 1.48857 0
M  V30 1492 H 145.765 -2.27302 3.54841 0
M  V30 1493 H 144.44 -2.22233 2.3536 0
M  V30 1494 H 143.347 -0.353819 3.72423 0
M  V30 1495 H 144.68 -0.485113 4.89804 0
M  V30 1496 N 146.332 -1.57332 0.0918853 0
M  V30 1497 C 147.295 -2.12708 -0.85369 0
M  V30 1498 C 148.295 -1.05561 -1.213 0
M  V30 1499 O 149.485 -1.31461 -1.14296 0
M  V30 1500 C 146.617 -2.64503 -2.15061 0
M  V30 1501 H 147.81 -2.97573 -0.3729 0
M  V30 1502 H 145.363 -1.55509 -0.157072 0
M  V30 1503 H 146.098 -1.83149 -2.67632 0
M  V30 1504 H 145.883 -3.4284 -1.90272 0
M  V30 1505 H 147.373 -3.07351 -2.82711 0
M  V30 1506 N 147.81 0.181792 -1.56548 0
M  V30 1507 C 149.059 0.898348 -1.8059 0
M  V30 1508 C 149.372 1.83862 -0.667379 0
M  V30 1509 O 150.578 2.59678 -0.792446 0
M  V30 1510 C 149.034 1.64791 -3.19956 0
M  V30 1511 C 148.642 0.751789 -4.41647 0
M  V30 1512 C 150.386 2.35331 -3.53298 0
M  V30 1513 C 148.293 1.50098 -5.72035 0
M  V30 1514 H 147.223 0.339194 -0.673397 0
M  V30 1515 H 149.874 0.151413 -1.82874 0
M  V30 1516 H 148.256 2.43921 -3.11959 0
M  V30 1517 H 149.43 -0.0018076 -4.608 0
M  V30 1518 H 147.745 0.156562 -4.16106 0
M  V30 1519 H 150.342 2.91958 -4.47956 0
M  V30 1520 H 150.685 3.10164 -2.77676 0
M  V30 1521 H 151.218 1.63154 -3.62803 0
M  V30 1522 H 147.957 0.795175 -6.50659 0
M  V30 1523 H 147.477 2.22817 -5.56878 0
M  V30 1524 H 149.156 2.05125 -6.13622 0
M  V30 1525 N 149.288 1.51039 0.449983 0
M  V30 1526 C 150.251 1.70863 1.5277 0
M  V30 1527 C 151.251 0.578846 1.5002 0
M  V30 1528 O 152.441 0.846213 1.52266 0
M  V30 1529 C 149.573 1.75341 2.9235 0
M  V30 1530 H 150.766 2.67034 1.36502 0
M  V30 1531 H 148.319 1.40838 0.677812 0
M  V30 1532 H 149.054 0.809383 3.14037 0
M  V30 1533 H 148.839 2.57436 2.95752 0
M  V30 1534 H 150.329 1.92559 3.70555 0
M  V30 1535 N 150.766 -0.704594 1.40972 0
M  V30 1536 C 152.182 -1.01406 1.23244 0
M  V30 1537 C 152.382 -2.01169 0.115399 0
M  V30 1538 O 151.438 -2.47021 -0.523147 0
M  V30 1539 C 152.751 -1.54728 2.57836 0
M  V30 1540 C 154.299 -1.66658 2.64942 0
M  V30 1541 C 154.774 -2.23383 3.9983 0
M  V30 1542 N 156.265 -2.30756 4.01629 0
M  V30 1543 C 157 -2.75655 5.02794 0
M  V30 1544 N 156.496 -3.20225 6.14352 0
M  V30 1545 N 158.289 -2.75138 4.90159 0
M  V30 1546 H 150.44 -0.0435285 2.12355 0
M  V30 1547 H 152.703 -0.0818951 0.944456 0
M  V30 1548 H 152.409 -0.888832 3.40283 0
M  V30 1549 H 152.283 -2.53084 2.79693 0
M  V30 1550 H 154.67 -2.31617 1.8286 0
M  V30 1551 H 154.751 -0.668717 2.46904 0
M  V30 1552 H 154.395 -1.59043 4.82357 0
M  V30 1553 H 154.325 -3.23904 4.15203 0
M  V30 1554 H 156.816 -1.99291 3.21079 0
M  V30 1555 H 157.129 -3.53084 6.87424 0
M  V30 1556 H 155.474 -3.18156 6.17901 0
M  V30 1557 H 158.665 -2.39661 4.02095 0
M  V30 1558 H 158.838 -3.09812 5.6914 0
M  V30 1559 N 152.244 -1.26651 -0.937939 0
M  V30 1560 C 153.491 -1.12387 -1.6845 0
M  V30 1561 C 153.819 0.332208 -1.91642 0
M  V30 1562 O 153.074 1.2602 -1.49725 0
M  V30 1563 C 153.373 -1.84168 -3.06295 0
M  V30 1564 C 153.039 -3.34056 -3.02849 0
M  V30 1565 C 151.701 -3.74942 -3.01616 0
M  V30 1566 C 154.053 -4.29741 -2.9491 0
M  V30 1567 C 151.381 -5.09894 -2.90215 0
M  V30 1568 C 153.733 -5.64738 -2.8505 0
M  V30 1569 C 152.397 -6.0493 -2.82162 0
M  V30 1570 H 151.667 -0.411252 -0.616403 0
M  V30 1571 H 154.314 -1.57134 -1.09459 0
M  V30 1572 H 152.619 -1.319 -3.6893 0
M  V30 1573 H 154.316 -1.70569 -3.62915 0
M  V30 1574 H 150.906 -3.01534 -3.0459 0
M  V30 1575 H 155.09 -3.99133 -2.94969 0
M  V30 1576 H 150.346 -5.40194 -2.86358 0
M  V30 1577 H 154.52 -6.38561 -2.77872 0
M  V30 1578 H 152.147 -7.09457 -2.73084 0
M  V30 1579 N 153.722 1.14298 -1.08507 0
M  V30 1580 C 154.669 2.19414 -0.715965 0
M  V30 1581 C 155.639 1.63399 0.298326 0
M  V30 1582 O 156.824 1.89929 0.182101 0
M  V30 1583 C 153.964 3.44845 -0.132534 0
M  V30 1584 C 153.077 4.15007 -1.19973 0
M  V30 1585 C 152.212 5.28024 -0.580048 0
M  V30 1586 C 151.251 5.9002 -1.62921 0
M  V30 1587 N 150.388 6.94485 -1.03125 0
M  V30 1588 H 155.228 2.50336 -1.61666 0
M  V30 1589 H 152.765 1.2293 -0.807882 0
M  V30 1590 H 154.723 4.16601 0.223454 0
M  V30 1591 H 153.353 3.14403 0.731467 0
M  V30 1592 H 152.405 3.41629 -1.67313 0
M  V30 1593 H 153.717 4.57178 -1.99473 0
M  V30 1594 H 152.871 6.06455 -0.172364 0
M  V30 1595 H 151.61 4.87076 0.246603 0
M  V30 1596 H 150.615 5.10291 -2.04654 0
M  V30 1597 H 151.84 6.33042 -2.45835 0
M  V30 1598 H 149.786 6.55612 -0.225711 0
M  V30 1599 H 149.703 7.35148 -1.76334 0
M  V30 1600 H 150.971 7.7679 -0.649458 0
M  V30 1601 N 155.201 0.870884 1.31352 0
M  V30 1602 C 156.447 0.492314 1.97352 0
M  V30 1603 C 156.802 -0.945174 1.67583 0
M  V30 1604 O 156.095 -1.65674 0.962423 0
M  V30 1605 C 156.289 0.687157 3.50732 0
M  V30 1606 C 156.118 2.14203 3.95407 0
M  V30 1607 C 154.888 2.78382 4.21701 0
M  V30 1608 C 157.086 3.1144 4.09279 0
M  V30 1609 N 155.068 4.14611 4.52737 0
M  V30 1610 C 156.439 4.32702 4.44037 0
M  V30 1611 C 158.494 3.07418 3.91661 0
M  V30 1612 C 157.197 5.50463 4.63015 0
M  V30 1613 C 159.223 4.24438 4.11833 0
M  V30 1614 C 158.585 5.44463 4.46923 0
M  V30 1615 H 154.684 0.229206 0.747655 0
M  V30 1616 H 157.268 1.12568 1.5886 0
M  V30 1617 H 155.439 0.083384 3.8831 0
M  V30 1618 H 157.171 0.276883 4.03752 0
M  V30 1619 H 153.926 2.29326 4.14375 0
M  V30 1620 H 154.35 4.84928 4.72413 0
M  V30 1621 H 158.992 2.15732 3.6362 0
M  V30 1622 H 156.71 6.42666 4.89904 0
M  V30 1623 H 160.296 4.2278 3.99685 0
M  V30 1624 H 159.176 6.33504 4.62214 0
M  V30 1625 N 156.679 -1.44442 0.630414 0
M  V30 1626 C 157.642 -2.29107 -0.0652523 0
M  V30 1627 C 158.642 -1.41002 -0.772995 0
M  V30 1628 O 159.832 -1.62881 -0.617692 0
M  V30 1629 C 156.964 -3.22564 -1.10296 0
M  V30 1630 H 158.157 -2.92103 0.679401 0
M  V30 1631 H 155.71 -1.51343 0.390517 0
M  V30 1632 H 156.445 -2.64416 -1.87762 0
M  V30 1633 H 156.23 -3.87491 -0.59941 0
M  V30 1634 H 157.72 -3.86167 -1.5895 0
M  V30 1635 N 158.157 -0.370918 -1.53173 0
M  V30 1636 C 159.573 -0.0200818 -1.59587 0
M  V30 1637 C 159.773 1.46279 -1.38581 0
M  V30 1638 O 158.829 2.22506 -1.19363 0
M  V30 1639 C 160.142 -0.4808 -2.96831 0
M  V30 1640 C 161.69 -0.435477 -3.09956 0
M  V30 1641 C 162.165 -0.872092 -4.4962 0
M  V30 1642 N 163.656 -0.827364 -4.55751 0
M  V30 1643 C 164.391 -1.13683 -5.62018 0
M  V30 1644 N 163.887 -1.51584 -6.76014 0
M  V30 1645 N 165.68 -1.05927 -5.52029 0
M  V30 1646 H 157.831 -1.33652 -1.65079 0
M  V30 1647 H 160.094 -0.546634 -0.774529 0
M  V30 1648 H 159.8 -1.51577 -3.1736 0
M  V30 1649 H 159.674 0.129796 -3.76977 0
M  V30 1650 H 162.061 0.590371 -2.89134 0
M  V30 1651 H 162.142 -1.08164 -2.31806 0
M  V30 1652 H 161.786 -1.89608 -4.71181 0
M  V30 1653 H 161.716 -0.203127 -5.26208 0
M  V30 1654 H 164.207 -0.548216 -3.73902 0
M  V30 1655 H 164.52 -1.73609 -7.53047 0
M  V30 1656 H 162.865 -1.55454 -6.77391 0
M  V30 1657 H 166.056 -0.762321 -4.61851 0
M  V30 1658 H 166.229 -1.30378 -6.34749 0
M  V30 1659 N 159.635 1.57281 -0.100228 0
M  V30 1660 C 160.598 2.13158 0.842398 0
M  V30 1661 C 161.598 1.06202 1.20738 0
M  V30 1662 O 162.788 1.32066 1.13597 0
M  V30 1663 C 159.92 2.65639 2.13655 0
M  V30 1664 H 161.113 2.97766 0.357114 0
M  V30 1665 H 158.666 1.5559 0.148823 0
M  V30 1666 H 159.401 1.84566 2.66657 0
M  V30 1667 H 159.186 3.43844 1.88451 0
M  V30 1668 H 160.676 3.08846 2.81077 0
M  V30 1669 N 161.113 -0.173488 1.56642 0
M  V30 1670 C 162.076 -1.19859 1.95362 0
M  V30 1671 C 163.076 -1.37296 0.83704 0
M  V30 1672 O 164.266 -1.34739 1.10413 0
M  V30 1673 C 161.398 -2.56405 2.24654 0
M  V30 1674 H 162.591 -0.867062 2.87092 0
M  V30 1675 H 160.144 -0.415853 1.50666 0
M  V30 1676 H 160.879 -2.94576 1.35631 0
M  V30 1677 H 160.664 -2.45115 3.06041 0
M  V30 1678 H 162.154 -3.30287 2.5554 0
M  V30 1679 N 162.591 -1.51276 -0.441967 0
M  V30 1680 C 163.521 -1.752 -1.54361 0
M  V30 1681 C 164.502 -0.601682 -1.59103 0
M  V30 1682 O 165.687 -0.843913 -1.74905 0
M  V30 1683 C 162.817 -1.87282 -2.92477 0
M  V30 1684 C 161.771 -3.02687 -3.02596 0
M  V30 1685 C 161.097 -2.99947 -4.42647 0
M  V30 1686 C 162.397 -4.4273 -2.77106 0
M  V30 1687 H 164.091 -2.67442 -1.34592 0
M  V30 1688 H 161.637 -1.28694 -0.646048 0
M  V30 1689 H 163.59 -2.02602 -3.695 0
M  V30 1690 H 162.314 -0.916844 -3.13467 0
M  V30 1691 H 160.973 -2.87065 -2.28012 0
M  V30 1692 H 160.621 -2.02136 -4.60597 0
M  V30 1693 H 160.321 -3.77439 -4.50348 0
M  V30 1694 H 161.845 -3.17354 -5.2165 0
M  V30 1695 H 163.259 -4.58727 -3.43864 0
M  V30 1696 H 161.656 -5.21893 -2.96222 0
M  V30 1697 H 162.726 -4.53087 -1.72744 0
M  V30 1698 N 164.069 0.697108 -1.41344 0
M  V30 1699 C 165.315 1.4593 -1.40827 0
M  V30 1700 C 165.648 1.94193 -0.0167098 0
M  V30 1701 O 164.923 1.69425 0.955263 0
M  V30 1702 C 165.206 2.67229 -2.41373 0
M  V30 1703 C 165.059 2.24741 -3.8963 0
M  V30 1704 C 166.378 3.69423 -2.39196 0
M  V30 1705 H 163.497 0.529303 -0.512842 0
M  V30 1706 H 166.139 0.794112 -1.72609 0
M  V30 1707 H 164.289 3.23982 -2.14401 0
M  V30 1708 H 165.961 1.73327 -4.27499 0
M  V30 1709 H 164.204 1.56542 -4.0457 0
M  V30 1710 H 164.875 3.1177 -4.55525 0
M  V30 1711 H 167.351 3.2234 -2.63128 0
M  V30 1712 H 166.227 4.51907 -3.11563 0
M  V30 1713 H 166.488 4.19012 -1.41001 0
M  V30 1714 N 165.547 1.27147 0.931209 0
M  V30 1715 C 166.796 1.12664 1.67302 0
M  V30 1716 C 167.109 -0.327718 1.92835 0
M  V30 1717 O 168.315 -0.593392 2.64936 0
M  V30 1718 C 166.771 1.9683 3.01307 0
M  V30 1719 C 166.379 3.46901 2.83485 0
M  V30 1720 C 168.123 1.90985 3.79111 0
M  V30 1721 C 166.03 4.23279 4.13024 0
M  V30 1722 H 164.96 0.41803 0.627509 0
M  V30 1723 H 167.611 1.51539 1.03481 0
M  V30 1724 H 165.993 1.50797 3.66164 0
M  V30 1725 H 167.167 4.00773 2.27415 0
M  V30 1726 H 165.482 3.54088 2.19113 0
M  V30 1727 H 168.079 2.45328 4.75098 0
M  V30 1728 H 168.422 0.882718 4.06834 0
M  V30 1729 H 168.955 2.34895 3.21044 0
M  V30 1730 H 165.694 5.26503 3.90481 0
M  V30 1731 H 165.214 3.74186 4.6877 0
M  V30 1732 H 166.893 4.32265 4.81411 0
M  V30 1733 N 167.025 -1.13721 1.09112 0
M  V30 1734 C 168.253 -1.88773 0.846899 0
M  V30 1735 C 168.668 -1.7896 -0.601572 0
M  V30 1736 O 168.025 -1.15394 -1.41388 0
M  V30 1737 C 168.076 -3.3849 1.26913 0
M  V30 1738 O 167.797 -3.48043 2.66079 0
M  V30 1739 C 169.298 -4.30518 1.05682 0
M  V30 1740 H 166.518 -0.59772 0.304914 0
M  V30 1741 H 169.062 -1.43977 1.45227 0
M  V30 1742 H 167.217 -3.80881 0.707723 0
M  V30 1743 H 167.631 -4.4109 2.83795 0
M  V30 1744 H 169.105 -5.3391 1.40156 0
M  V30 1745 H 169.582 -4.392 -0.00563416 0
M  V30 1746 H 170.188 -3.93893 1.60402 0
M  V30 1747 N 168.503 -0.877838 -1.30888 0
M  V30 1748 C 169.749 -0.493426 -1.96706 0
M  V30 1749 C 170.082 0.953504 -1.6918 0
M  V30 1750 O 169.357 1.67266 -0.992594 0
M  V30 1751 C 169.64 -0.760429 -3.51979 0
M  V30 1752 C 169.493 -2.25747 -3.89048 0
M  V30 1753 C 170.812 -0.232148 -4.39487 0
M  V30 1754 H 167.931 -0.180746 -0.714493 0
M  V30 1755 H 170.573 -1.10052 -1.54882 0
M  V30 1756 H 168.723 -0.243715 -3.87735 0
M  V30 1757 H 170.395 -2.84204 -3.63354 0
M  V30 1758 H 168.638 -2.72694 -3.37373 0
M  V30 1759 H 169.309 -2.39491 -4.97341 0
M  V30 1760 H 171.785 -0.674314 -4.106 0
M  V30 1761 H 170.661 -0.448355 -5.47066 0
M  V30 1762 H 170.922 0.866297 -4.33529 0
M  V30 1763 N 169.982 1.44106 -0.638065 0
M  V30 1764 C 171.228 2.02277 -0.145546 0
M  V30 1765 C 171.561 1.50125 1.23191 0
M  V30 1766 O 170.836 0.688133 1.8192 0
M  V30 1767 C 171.119 3.59829 -0.139791 0
M  V30 1768 C 170.972 4.22247 -1.55008 0
M  V30 1769 C 172.291 4.36873 0.531966 0
M  V30 1770 H 169.41 0.734992 -0.0543632 0
M  V30 1771 H 172.052 1.71592 -0.815863 0
M  V30 1772 H 170.202 3.86102 0.431007 0
M  V30 1773 H 171.874 4.07057 -2.1703 0
M  V30 1774 H 170.117 3.79476 -2.10191 0
M  V30 1775 H 170.788 5.31284 -1.49804 0
M  V30 1776 H 173.264 4.16074 0.0464781 0
M  V30 1777 H 172.14 5.4657 0.505206 0
M  V30 1778 H 172.401 4.11995 1.60352 0
M  V30 1779 N 171.46 0.379036 1.52974 0
M  V30 1780 C 172.685 -0.209353 2.06341 0
M  V30 1781 C 173.11 -1.40583 1.24972 0
M  V30 1782 O 172.468 -1.79246 0.272155 0
M  V30 1783 C 172.516 -0.567786 3.56102 0
M  V30 1784 O 171.62 -1.66318 3.77375 0
M  V30 1785 H 170.961 -0.0272919 0.663439 0
M  V30 1786 H 173.491 0.543536 1.97248 0
M  V30 1787 H 173.501 -0.835003 3.99364 0
M  V30 1788 H 172.176 0.307013 4.14765 0
M  V30 1789 H 170.753 -1.39048 3.46006 0
M  V30 1790 N 172.938 -1.57226 0.108567 0
M  V30 1791 C 173.901 -2.13602 -0.831082 0
M  V30 1792 C 174.901 -1.06841 -1.20173 0
M  V30 1793 O 176.091 -1.32666 -1.12895 0
M  V30 1794 C 173.223 -2.66769 -2.12243 0
M  V30 1795 H 174.416 -2.97951 -0.341317 0
M  V30 1796 H 171.969 -1.55667 -0.14057 0
M  V30 1797 H 172.704 -1.85977 -2.65675 0
M  V30 1798 H 172.489 -3.44839 -1.86625 0
M  V30 1799 H 173.979 -3.10332 -2.79435 0
M  V30 1800 N 174.416 0.165178 -1.56732 0
M  V30 1801 C 175.326 1.22423 -2.00125 0
M  V30 1802 C 176.342 1.48084 -0.913619 0
M  V30 1803 O 177.518 1.60112 -1.22172 0
M  V30 1804 C 174.583 2.54197 -2.35764 0
M  V30 1805 C 173.644 2.36343 -3.58386 0
M  V30 1806 C 172.877 3.61834 -3.92316 0
M  V30 1807 O 173.1 4.67267 -3.27135 0
M  V30 1808 O 172.034 3.55579 -4.85641 0
M  V30 1809 H 175.86 0.885886 -2.90492 0
M  V30 1810 H 173.445 0.372518 -1.44681 0
M  V30 1811 H 175.327 3.3192 -2.59629 0
M  V30 1812 H 174.002 2.87598 -1.48557 0
M  V30 1813 H 172.909 1.56632 -3.39731 0
M  V30 1814 H 174.242 2.07865 -4.46154 0
M  V30 1815 N 175.894 1.51508 0.433938 0
M  V30 1816 C 176.826 1.69266 1.54537 0
M  V30 1817 C 177.839 0.573276 1.52373 0
M  V30 1818 O 179.028 0.847698 1.57087 0
M  V30 1819 C 176.128 1.69524 2.93453 0
M  V30 1820 C 175.301 2.98101 3.20085 0
M  V30 1821 C 174.36 2.90502 4.38742 0
M  V30 1822 O 173.386 3.64442 4.3723 0
M  V30 1823 N 174.588 2.06586 5.42496 0
M  V30 1824 H 177.353 2.65145 1.39708 0
M  V30 1825 H 174.914 1.49437 0.622922 0
M  V30 1826 H 176.906 1.62004 3.70859 0
M  V30 1827 H 175.476 0.812245 3.01863 0
M  V30 1828 H 174.696 3.19464 2.30947 0
M  V30 1829 H 175.984 3.83207 3.34708 0
M  V30 1830 H 175.382 1.45896 5.46563 0
M  V30 1831 H 173.939 2.04943 6.18742 0
M  V30 1832 N 177.372 -0.689602 1.41712 0
M  V30 1833 C 178.6 -1.47827 1.44758 0
M  V30 1834 C 179.015 -1.88721 0.0545703 0
M  V30 1835 O 178.372 -1.57176 -0.927463 0
M  V30 1836 C 178.423 -2.73698 2.3616 0
M  V30 1837 O 178.144 -2.34524 3.7004 0
M  V30 1838 C 179.645 -3.67389 2.48072 0
M  V30 1839 H 176.865 -0.455357 0.49284 0
M  V30 1840 H 179.409 -0.848574 1.86063 0
M  V30 1841 H 177.564 -3.32891 1.98148 0
M  V30 1842 H 177.978 -3.15701 4.18847 0
M  V30 1843 H 179.452 -4.52475 3.16181 0
M  V30 1844 H 179.929 -4.12284 1.51388 0
M  V30 1845 H 180.535 -3.14097 2.86746 0
M  V30 1846 N 178.85 -1.27639 -0.924453 0
M  V30 1847 C 179.78 -1.13166 -2.04244 0
M  V30 1848 C 180.761 -0.032256 -1.70069 0
M  V30 1849 O 181.946 -0.207328 -1.9309 0
M  V30 1850 C 179.076 -0.781496 -3.38393 0
M  V30 1851 C 178.03 -1.83449 -3.86692 0
M  V30 1852 C 177.356 -1.33822 -5.17683 0
M  V30 1853 C 178.656 -3.23917 -4.09726 0
M  V30 1854 H 180.35 -2.06689 -2.1661 0
M  V30 1855 H 177.896 -0.995136 -1.04082 0
M  V30 1856 H 179.849 -0.667057 -4.16087 0
M  V30 1857 H 178.573 0.189439 -3.2605 0
M  V30 1858 H 177.232 -1.93789 -3.11193 0
M  V30 1859 H 176.88 -0.35665 -5.01734 0
M  V30 1860 H 176.58 -2.04224 -5.50968 0
M  V30 1861 H 178.104 -1.23679 -5.97943 0
M  V30 1862 H 179.518 -3.16559 -4.77978 0
M  V30 1863 H 177.915 -3.92059 -4.54324 0
M  V30 1864 H 178.985 -3.68729 -3.14908 0
M  V30 1865 O 180.367 1.05887 -1.21944 0
M  V30 1866 H 181.058 1.66953 -0.982159 0
M  V30 END ATOM
M  V30 BEGIN BOND
M  V30 END BOND
M  V30 END CTAB
M  END
$$$$
