drugbank_target|Q8NER1 Transient receptor potential cation channel subfamily V member 1 (DB00132; DB00159; DB00168; DB00193; DB00316; DB01744; DB02955; DB06515; DB06774; DB09061; DB09120; DB09288; DB11131; DB11324; DB11345; DB14009; DB14011; DB14050)
 OpenBabel12092119453D

  0  0  0     0  0            999 V3000
M  V30 BEGIN CTAB
M  V30 COUNTS 13366 13518 0 0 0
M  V30 BEGIN ATOM
M  V30 1 H -0.908 1.98254 -0.117106 0
M  V30 2 N 0 1.576 0 0
M  V30 3 C 0.933 2.03868 1.02534 0
M  V30 4 C 1.911 0.928543 1.3348 0
M  V30 5 O 3.095 1.19667 1.45644 0
M  V30 6 C 0.222 2.43627 2.35294 0
M  V30 7 C -0.732 3.65373 2.2001 0
M  V30 8 S 0.101 5.13292 1.52614 0
M  V30 9 C 1.257 5.56322 2.86805 0
M  V30 10 H 1.49 2.90518 0.631377 0
M  V30 11 H -0.977 1.52953 0.210867 0
M  V30 12 H 0.981 2.67203 3.11629 0
M  V30 13 H -0.358 1.57376 2.7183 0
M  V30 14 H -1.165 3.90944 3.18086 0
M  V30 15 H -1.563 3.418 1.51819 0
M  V30 16 H 0.729 5.58782 3.83104 0
M  V30 17 H 1.672 6.56266 2.65933 0
M  V30 18 H 2.08 4.83886 2.90714 0
M  V30 19 N 1.4781 -0.272755 1.55222 0
M  V30 20 C 2.4251 -1.33716 1.88119 0
M  V30 21 C 3.3951 -1.49066 0.73271 0
M  V30 22 O 4.5801 -1.63469 0.984002 0
M  V30 23 C 1.7201 -2.69238 2.15882 0
M  V30 24 C 0.8331 -2.62108 3.43399 0
M  V30 25 C -0.0319 -3.89811 3.60861 0
M  V30 26 C -0.9929 -3.77193 4.8207 0
M  V30 27 N -1.8559 -4.9673 4.96189 0
M  V30 28 H 2.9841 -1.04962 2.78903 0
M  V30 29 H 0.5211 -0.507088 1.38083 0
M  V30 30 H 2.4791 -3.48089 2.29978 0
M  V30 31 H 1.1091 -2.96194 1.28331 0
M  V30 32 H 0.1611 -1.74967 3.37773 0
M  V30 33 H 1.4731 -2.48685 4.32386 0
M  V30 34 H 0.6271 -4.77103 3.74777 0
M  V30 35 H -0.6339 -4.06102 2.7006 0
M  V30 36 H -1.6289 -2.88284 4.68159 0
M  V30 37 H -0.4039 -3.62421 5.74307 0
M  V30 38 H -2.4579 -5.13431 4.08319 0
M  V30 39 H -2.5409 -4.85839 5.79221 0
M  V30 40 H -1.2729 -5.85594 5.1449 0
M  V30 41 N 2.9562 -1.48159 -0.537278 0
M  V30 42 C 3.9032 -1.62138 -1.64256 0
M  V30 43 C 4.8732 -0.463668 -1.59497 0
M  V30 44 O 6.0582 -0.686241 -1.78032 0
M  V30 45 C 3.1982 -1.66028 -3.02537 0
M  V30 46 C 2.3112 -2.92855 -3.17585 0
M  V30 47 C 1.4462 -2.87952 -4.46382 0
M  V30 48 C 0.4852 -4.09516 -4.54932 0
M  V30 49 N -0.3778 -4.02733 -5.75109 0
M  V30 50 H 4.4622 -2.56529 -1.51647 0
M  V30 51 H 1.9992 -1.27224 -0.738414 0
M  V30 52 H 3.9572 -1.66265 -3.82638 0
M  V30 53 H 2.5872 -0.751331 -3.13934 0
M  V30 54 H 1.6392 -3.02395 -2.30784 0
M  V30 55 H 2.9512 -3.82822 -3.19764 0
M  V30 56 H 2.1052 -2.8655 -5.34765 0
M  V30 57 H 0.8442 -1.95702 -4.46712 0
M  V30 58 H -0.1508 -4.11201 -3.64957 0
M  V30 59 H 1.0742 -5.02917 -4.56346 0
M  V30 60 H -0.9798 -3.13299 -5.76351 0
M  V30 61 H -1.0628 -4.86397 -5.78752 0
M  V30 62 H 0.2052 -4.05379 -6.65799 0
M  V30 63 N 4.4343 0.785586 -1.36625 0
M  V30 64 C 5.6803 1.5452 -1.32269 0
M  V30 65 C 6.0353 1.92159 0.0962266 0
M  V30 66 O 5.3283 1.60158 1.05167 0
M  V30 67 C 5.5223 2.83007 -2.1827 0
M  V30 68 C 5.3513 2.57925 -3.68382 0
M  V30 69 C 4.1213 2.52752 -4.37544 0
M  V30 70 C 6.3193 2.26861 -4.61561 0
M  V30 71 N 4.3013 2.19608 -5.73276 0
M  V30 72 C 5.6723 2.03738 -5.85569 0
M  V30 73 C 7.7273 2.129 -4.50087 0
M  V30 74 C 6.4303 1.68065 -6.9939 0
M  V30 75 C 8.4563 1.78626 -5.63779 0
M  V30 76 C 7.8183 1.56353 -6.86828 0
M  V30 77 H 3.9173 0.566301 -0.539283 0
M  V30 78 H 6.5013 0.917736 -1.71714 0
M  V30 79 H 4.6723 3.43614 -1.81063 0
M  V30 80 H 6.4043 3.48775 -2.05275 0
M  V30 81 H 3.1593 2.6813 -3.90389 0
M  V30 82 H 3.5833 2.05771 -6.44971 0
M  V30 83 H 8.2253 2.28808 -3.55537 0
M  V30 84 H 5.9433 1.50895 -7.93887 0
M  V30 85 H 9.5293 1.68502 -5.56865 0
M  V30 86 H 8.4093 1.30223 -7.73312 0
M  V30 87 N 5.9124 1.20967 1.01018 0
M  V30 88 C 7.1374 1.0503 1.78839 0
M  V30 89 C 7.5624 -0.395752 1.8389 0
M  V30 90 O 6.9204 -1.28529 1.27867 0
M  V30 91 C 6.9684 1.64602 3.2084 0
M  V30 92 O 6.0724 0.887988 4.02726 0
M  V30 93 H 5.4134 0.369987 0.551367 0
M  V30 94 H 7.9434 1.60399 1.27018 0
M  V30 95 H 7.9534 1.68607 3.71532 0
M  V30 96 H 6.6284 2.69841 3.16479 0
M  V30 97 H 5.2054 0.922648 3.61305 0
M  V30 98 N 7.3905 -1.2043 1.01659 0
M  V30 99 C 8.6155 -1.94318 0.724942 0
M  V30 100 C 9.0405 -1.74266 -0.708034 0
M  V30 101 O 8.3985 -1.03694 -1.48719 0
M  V30 102 C 8.4465 -3.44486 1.06591 0
M  V30 103 O 7.5505 -4.12017 0.177599 0
M  V30 104 H 6.8915 -0.60708 0.26898 0
M  V30 105 H 9.4215 -1.52861 1.35995 0
M  V30 106 H 9.4315 -3.95106 1.01762 0
M  V30 107 H 8.1065 -3.58404 2.10997 0
M  V30 108 H 6.6835 -3.71821 0.283421 0
M  V30 109 N 8.8686 -0.792821 -1.36206 0
M  V30 110 C 10.0966 -0.378825 -2.03402 0
M  V30 111 C 10.5116 1.00586 -1.59774 0
M  V30 112 O 9.8686 1.64574 -0.788764 0
M  V30 113 C 9.9196 -0.43683 -3.58851 0
M  V30 114 O 9.6406 -1.76691 -4.00889 0
M  V30 115 C 11.1416 -0.0138943 -4.43298 0
M  V30 116 H 8.3616 -0.155673 -0.652692 0
M  V30 117 H 10.9056 -1.07261 -1.74113 0
M  V30 118 H 9.0606 0.208575 -3.86838 0
M  V30 119 H 9.4746 -1.72011 -4.95492 0
M  V30 120 H 10.9486 -0.105615 -5.51899 0
M  V30 121 H 11.4256 1.03915 -4.2673 0
M  V30 122 H 12.0316 -0.63192 -4.20579 0
M  V30 123 N 10.3467 1.47872 -0.545128 0
M  V30 124 C 11.6237 1.9554 0.0485222 0
M  V30 125 C 12.0037 1.4876 1.49779 0
M  V30 126 O 11.3517 0.720925 2.16829 0
M  V30 127 C 11.5617 3.48898 -0.084417 0
M  V30 128 C 12.9097 4.24547 0.0671239 0
M  V30 129 O 13.9337 3.56198 -0.0113649 0
M  V30 130 O 12.7927 5.45999 0.233882 0
M  V30 131 H 9.8867 0.823957 0.0708773 0
M  V30 132 H 12.4327 1.58327 -0.610798 0
M  V30 133 H 11.2047 3.75714 -1.09337 0
M  V30 134 H 10.8277 3.92845 0.613066 0
M  V30 135 N 11.8248 0.280983 1.55075 0
M  V30 136 C 12.7548 -0.597469 2.25727 0
M  V30 137 C 13.7358 -1.15417 1.24952 0
M  V30 138 O 14.9208 -1.18722 1.53684 0
M  V30 139 C 12.0508 -1.7789 2.98283 0
M  V30 140 C 11.0048 -1.35347 4.06036 0
M  V30 141 C 10.3308 -2.61846 4.66198 0
M  V30 142 C 11.6308 -0.499354 5.19907 0
M  V30 143 H 13.3248 -0.00824265 2.99399 0
M  V30 144 H 10.8708 -0.0025244 1.44 0
M  V30 145 H 12.8238 -2.39937 3.46422 0
M  V30 146 H 11.5478 -2.39405 2.22155 0
M  V30 147 H 10.2068 -0.756156 3.58717 0
M  V30 148 H 9.8548 -3.21632 3.86732 0
M  V30 149 H 9.5548 -2.3409 5.38958 0
M  V30 150 H 11.0788 -3.24732 5.1709 0
M  V30 151 H 12.4928 -1.02498 5.64063 0
M  V30 152 H 10.8898 -0.316424 5.99265 0
M  V30 153 H 11.9598 0.480459 4.82514 0
M  V30 154 N 13.3029 -1.57598 0.00835791 0
M  V30 155 C 14.5509 -1.90551 -0.6734 0
M  V30 156 C 14.8719 -0.883301 -1.73847 0
M  V30 157 O 14.1419 0.0781442 -1.95744 0
M  V30 158 H 12.7219 -0.703312 -0.251717 0
M  V30 159 H 15.3839 -1.94833 0.0512592 0
M  V30 160 H 14.4799 -2.9056 -1.13935 0
M  V30 161 N 14.781 0.264519 -1.55364 0
M  V30 162 C 15.744 1.31046 -1.88042 0
M  V30 163 C 16.744 1.41943 -0.755569 0
M  V30 164 O 17.934 1.40947 -1.02369 0
M  V30 165 C 15.066 2.69067 -2.09323 0
M  V30 166 H 16.259 1.03297 -2.81549 0
M  V30 167 H 13.812 0.502989 -1.47986 0
M  V30 168 H 14.547 3.01982 -1.18226 0
M  V30 169 H 14.332 2.62542 -2.91229 0
M  V30 170 H 15.822 3.44623 -2.35848 0
M  V30 171 N 16.2591 1.48442 0.529413 0
M  V30 172 C 17.2221 1.62524 1.61612 0
M  V30 173 C 18.2221 0.498509 1.52877 0
M  V30 174 O 19.4121 0.76431 1.56537 0
M  V30 175 C 16.5441 1.59597 3.01233 0
M  V30 176 H 17.7371 2.59423 1.50465 0
M  V30 177 H 15.2901 1.37047 0.751514 0
M  V30 178 H 16.0251 0.641781 3.17886 0
M  V30 179 H 15.8101 2.41397 3.08982 0
M  V30 180 H 17.3001 1.72646 3.80241 0
M  V30 181 N 17.7372 -0.778329 1.37039 0
M  V30 182 C 18.7002 -1.87301 1.32102 0
M  V30 183 C 19.7002 -1.59198 0.226405 0
M  V30 184 O 20.8902 -1.67403 0.481861 0
M  V30 185 C 18.0222 -3.24309 1.05055 0
M  V30 186 H 19.2152 -1.93093 2.29467 0
M  V30 187 H 16.7682 -0.977358 1.21973 0
M  V30 188 H 17.5032 -3.24196 0.0819373 0
M  V30 189 H 17.2882 -3.46098 1.84279 0
M  V30 190 H 18.7782 -4.04382 1.04234 0
M  V30 191 N 19.2153 -1.21501 -1.00376 0
M  V30 192 C 20.4923 -0.941745 -1.71437 0
M  V30 193 C 20.8723 0.546114 -2.03914 0
M  V30 194 O 20.2203 1.51128 -1.71384 0
M  V30 195 C 20.4303 -1.82812 -2.97289 0
M  V30 196 C 21.7783 -2.07771 -3.70292 0
M  V30 197 O 22.8023 -1.80171 -3.07273 0
M  V30 198 O 21.6613 -2.54456 -4.83647 0
M  V30 199 H 18.7553 -0.353243 -0.747762 0
M  V30 200 H 21.3013 -1.32436 -1.06108 0
M  V30 201 H 20.0733 -2.83501 -2.69709 0
M  V30 202 H 19.6963 -1.4464 -3.70358 0
M  V30 203 N 20.6934 1.19889 -1.02296 0
M  V30 204 C 22.1044 1.71124 -0.746568 0
M  V30 205 C 22.4554 1.81939 0.734335 0
M  V30 206 O 21.5804 1.48639 1.57275 0
M  V30 207 C 22.1754 3.10804 -1.34857 0
M  V30 208 C 20.7344 3.59323 -1.1209 0
M  V30 209 C 19.8814 2.3635 -1.45031 0
M  V30 210 H 22.8324 1.04813 -1.19163 0
M  V30 211 H 22.8534 3.73186 -0.742437 0
M  V30 212 H 22.3654 3.029 -2.42638 0
M  V30 213 H 20.4664 3.7255 -0.0610337 0
M  V30 214 H 20.5794 4.4378 -1.80544 0
M  V30 215 H 18.9434 2.39399 -0.869487 0
M  V30 216 H 19.7264 2.31081 -2.53883 0
M  V30 217 N 22.1715 0.800033 1.35784 0
M  V30 218 C 23.1015 0.220184 2.3246 0
M  V30 219 C 24.0825 -0.65073 1.57161 0
M  V30 220 O 25.2675 -0.582359 1.85263 0
M  V30 221 C 22.3975 -0.637353 3.41402 0
M  V30 222 C 21.3515 0.134531 4.27789 0
M  V30 223 C 20.6775 -0.844285 5.27992 0
M  V30 224 C 21.9775 1.32979 5.05088 0
M  V30 225 H 23.6715 1.02787 2.81203 0
M  V30 226 H 21.2175 0.495717 1.35199 0
M  V30 227 H 23.1705 -1.05302 4.08031 0
M  V30 228 H 21.8945 -1.47785 2.91251 0
M  V30 229 H 20.5535 0.531296 3.6273 0
M  V30 230 H 20.2015 -1.68011 4.74111 0
M  V30 231 H 19.9015 -0.332184 5.8666 0
M  V30 232 H 21.4255 -1.2583 5.97494 0
M  V30 233 H 22.8395 0.98934 5.64699 0
M  V30 234 H 21.2365 1.77593 5.7322 0
M  V30 235 H 22.3065 2.11978 4.36111 0
M  V30 236 N 23.6496 -1.47581 0.552962 0
M  V30 237 C 24.5816 -2.27997 -0.234533 0
M  V30 238 C 25.5946 -1.36753 -0.883321 0
M  V30 239 O 26.7836 -1.61612 -0.757889 0
M  V30 240 C 23.8836 -3.10879 -1.34935 0
M  V30 241 C 23.0566 -4.30056 -0.798158 0
M  V30 242 C 22.1156 -4.94567 -1.79694 0
M  V30 243 O 21.1416 -5.53087 -1.34474 0
M  V30 244 N 22.3436 -4.88878 -3.13015 0
M  V30 245 H 25.1086 -2.96222 0.455255 0
M  V30 246 H 22.6696 -1.57163 0.388761 0
M  V30 247 H 24.6616 -3.50903 -2.01616 0
M  V30 248 H 23.2316 -2.44924 -1.94244 0
M  V30 249 H 22.4516 -3.94174 0.0453079 0
M  V30 250 H 23.7396 -5.07152 -0.409173 0
M  V30 251 H 23.1376 -4.42526 -3.52402 0
M  V30 252 H 21.6946 -5.32934 -3.75266 0
M  V30 253 N 25.1277 -0.289203 -1.54924 0
M  V30 254 C 26.0747 0.592115 -2.23075 0
M  V30 255 C 27.0447 1.13881 -1.20915 0
M  V30 256 O 28.2297 1.18551 -1.495 0
M  V30 257 C 25.3697 1.76376 -2.96623 0
M  V30 258 C 24.4827 1.24959 -4.13533 0
M  V30 259 C 23.6177 2.38416 -4.74691 0
M  V30 260 C 22.6567 1.84072 -5.83767 0
M  V30 261 N 21.7937 2.91057 -6.38929 0
M  V30 262 H 26.6337 0.00432038 -2.98 0
M  V30 263 H 24.1707 -0.00963529 -1.47097 0
M  V30 264 H 26.1287 2.45268 -3.3749 0
M  V30 265 H 24.7587 2.32337 -2.24097 0
M  V30 266 H 23.8107 0.453307 -3.77689 0
M  V30 267 H 25.1227 0.811662 -4.92152 0
M  V30 268 H 24.2767 3.15276 -5.18349 0
M  V30 269 H 23.0157 2.8553 -3.95378 0
M  V30 270 H 22.0207 1.05697 -5.39545 0
M  V30 271 H 23.2457 1.37877 -6.64956 0
M  V30 272 H 21.1917 3.37526 -5.62505 0
M  V30 273 H 21.1087 2.51724 -7.12861 0
M  V30 274 H 22.3767 3.6785 -6.87246 0
M  V30 275 N 26.6058 1.57591 -0.0167156 0
M  V30 276 C 27.8828 1.82547 0.702564 0
M  V30 277 C 28.2628 0.898018 1.91047 0
M  V30 278 O 27.6108 -0.0493456 2.28447 0
M  V30 279 C 27.8208 3.31459 1.09251 0
M  V30 280 C 29.1688 3.97622 1.48937 0
M  V30 281 O 30.1928 3.35881 1.18584 0
M  V30 282 O 29.0518 5.06415 2.05442 0
M  V30 283 H 26.1458 0.752268 0.343544 0
M  V30 284 H 28.6918 1.69644 -0.0434495 0
M  V30 285 H 27.4638 3.9061 0.23227 0
M  V30 286 H 27.0868 3.49422 1.89709 0
M  V30 287 N 28.0839 -0.256276 1.55502 0
M  V30 288 C 29.3119 -1.00342 1.8094 0
M  V30 289 C 29.7269 -1.79307 0.59114 0
M  V30 290 O 29.0839 -1.77114 -0.440081 0
M  V30 291 C 29.1349 -1.94875 3.04476 0
M  V30 292 O 28.8559 -1.19107 4.21598 0
M  V30 293 C 30.3569 -2.81266 3.42644 0
M  V30 294 H 27.5769 -0.295685 0.602338 0
M  V30 295 H 30.1209 -0.281998 2.02546 0
M  V30 296 H 28.2759 -2.62457 2.84947 0
M  V30 297 H 28.6899 -1.82969 4.91551 0
M  V30 298 H 30.1639 -3.43362 4.32211 0
M  V30 299 H 30.6409 -3.51897 2.62802 0
M  V30 300 H 31.2469 -2.1915 3.64491 0
M  V30 301 N 29.562 -1.4872 -0.521534 0
M  V30 302 C 30.802 -1.58771 -1.28729 0
M  V30 303 C 31.166 -0.259394 -1.9024 0
M  V30 304 O 32.367 -0.234942 -2.67771 0
M  V30 305 C 30.638 -2.70039 -2.34124 0
M  V30 306 S 32.197 -2.9991 -3.20312 0
M  V30 307 H 29.015 -0.560251 -0.437767 0
M  V30 308 H 31.617 -1.86283 -0.593188 0
M  V30 309 H 30.321 -3.65101 -1.87429 0
M  V30 310 H 29.852 -2.44455 -3.08229 0
M  V30 311 H 31.867 -2.39855 -4.34378 0
M  V30 312 N 31.0401 0.771051 -1.3745 0
M  V30 313 C 32.4511 1.34737 -1.29239 0
M  V30 314 C 32.8021 1.96109 0.0596908 0
M  V30 315 O 31.9271 1.93865 0.961534 0
M  V30 316 C 32.5221 2.44973 -2.34037 0
M  V30 317 C 31.0811 2.98372 -2.29458 0
M  V30 318 C 30.2281 1.71595 -2.17831 0
M  V30 319 H 33.1791 0.571256 -1.48062 0
M  V30 320 H 33.2001 3.24471 -1.98744 0
M  V30 321 H 32.7121 2.00276 -3.32432 0
M  V30 322 H 30.8131 3.47443 -1.34589 0
M  V30 323 H 30.9261 3.53939 -3.229 0
M  V30 324 H 29.2901 1.94547 -1.64388 0
M  V30 325 H 30.0731 1.29001 -3.18141 0
M  V30 326 N 32.5182 1.22032 0.997298 0
M  V30 327 C 33.7952 0.950823 1.70935 0
M  V30 328 C 34.1752 -0.535292 2.042 0
M  V30 329 O 33.5232 -1.50217 1.72183 0
M  V30 330 C 33.7332 1.84386 2.96315 0
M  V30 331 C 35.0812 2.09732 3.69185 0
M  V30 332 O 36.1052 1.81798 3.06314 0
M  V30 333 O 34.9642 2.57018 4.82291 0
M  V30 334 H 32.0582 0.357204 0.745878 0
M  V30 335 H 34.6042 1.32997 1.05404 0
M  V30 336 H 33.3762 2.84928 2.68201 0
M  V30 337 H 32.9992 1.46602 3.69586 0
M  V30 338 N 33.9963 -1.19345 1.0293 0
M  V30 339 C 35.4073 -1.70725 0.755633 0
M  V30 340 C 35.7583 -1.82326 -0.724676 0
M  V30 341 O 34.8833 -1.49471 -1.56484 0
M  V30 342 C 35.4783 -3.10084 1.36503 0
M  V30 343 C 34.0373 -3.58723 1.13994 0
M  V30 344 C 33.1843 -2.35577 1.46283 0
M  V30 345 H 36.1353 -1.0418 1.19718 0
M  V30 346 H 36.1563 -3.72787 0.762217 0
M  V30 347 H 35.6683 -3.01609 2.44241 0
M  V30 348 H 33.7693 -3.72512 0.0807901 0
M  V30 349 H 33.8823 -4.42816 1.82894 0
M  V30 350 H 32.2463 -2.38935 0.88217 0
M  V30 351 H 33.0293 -2.29731 2.55105 0
M  V30 352 N 35.4744 -0.807222 -1.35358 0
M  V30 353 C 36.4044 -0.232509 -2.3234 0
M  V30 354 C 37.3854 0.642386 -1.57504 0
M  V30 355 O 38.5704 0.572526 -1.85569 0
M  V30 356 C 35.7004 0.619238 -3.41735 0
M  V30 357 C 34.6544 -0.157215 -4.27711 0
M  V30 358 C 33.9804 0.816273 -5.28433 0
M  V30 359 C 35.2804 -1.35656 -5.04376 0
M  V30 360 H 36.9744 -1.04276 -2.80654 0
M  V30 361 H 34.5204 -0.50288 -1.34934 0
M  V30 362 H 36.4734 1.03137 -4.08584 0
M  V30 363 H 35.1974 1.46239 -2.92031 0
M  V30 364 H 33.8564 -0.550525 -3.62443 0
M  V30 365 H 33.5044 1.65494 -4.74996 0
M  V30 366 H 33.2044 0.301067 -5.86828 0
M  V30 367 H 34.7284 1.22659 -5.98153 0
M  V30 368 H 36.1424 -1.01927 -5.64166 0
M  V30 369 H 34.5394 -1.8063 -5.7227 0
M  V30 370 H 35.6094 -2.14288 -4.34981 0
M  V30 371 N 36.9525 1.47285 -0.560781 0
M  V30 372 C 38.2295 1.9558 0.0277798 0
M  V30 373 C 38.6095 1.5034 1.48192 0
M  V30 374 O 37.9575 0.743882 2.16052 0
M  V30 375 C 38.1675 3.48789 -0.121418 0
M  V30 376 C 39.5155 4.24594 0.0220912 0
M  V30 377 O 40.5395 3.56166 -0.0491439 0
M  V30 378 O 39.3985 5.46217 0.175958 0
M  V30 379 H 36.4925 0.824663 0.0621342 0
M  V30 380 H 39.0385 1.5767 -0.627556 0
M  V30 381 H 37.8105 3.74533 -1.13316 0
M  V30 382 H 37.4335 3.93473 0.571366 0
M  V30 383 N 38.4306 0.297415 1.54768 0
M  V30 384 C 39.6786 -0.312295 1.99673 0
M  V30 385 C 39.9996 -1.54686 1.18732 0
M  V30 386 O 39.2696 -1.93854 0.282382 0
M  V30 387 H 37.8496 -0.118381 0.73756 0
M  V30 388 H 40.5116 0.407915 1.90583 0
M  V30 389 H 39.6076 -0.586813 3.06534 0
M  V30 390 N 39.9087 -1.5758 0.0250728 0
M  V30 391 C 41.1857 -1.82917 -0.692873 0
M  V30 392 C 41.5657 -0.908137 -1.90568 0
M  V30 393 O 40.9137 0.0372298 -2.2847 0
M  V30 394 C 41.1237 -3.32034 -1.07492 0
M  V30 395 C 42.4717 -3.98406 -1.46826 0
M  V30 396 O 43.4957 -3.36505 -1.16801 0
M  V30 397 O 42.3547 -5.07497 -2.02754 0
M  V30 398 H 39.4487 -0.754079 -0.33955 0
M  V30 399 H 41.9947 -1.69619 0.0524456 0
M  V30 400 H 40.7667 -3.90728 -0.211552 0
M  V30 401 H 40.3897 -3.50424 -1.87854 0
M  V30 402 N 41.3868 0.248026 -1.55636 0
M  V30 403 C 42.7978 0.817177 -1.67866 0
M  V30 404 C 43.1488 1.86069 -0.622322 0
M  V30 405 O 42.2738 2.15157 0.231618 0
M  V30 406 C 42.8688 1.489 -3.04326 0
M  V30 407 C 41.4278 2.00587 -3.185 0
M  V30 408 C 40.5748 0.856573 -2.63739 0
M  V30 409 H 43.5258 0.0238579 -1.58682 0
M  V30 410 H 43.5468 2.35698 -2.98708 0
M  V30 411 H 43.0588 0.729279 -3.81186 0
M  V30 412 H 41.1598 2.79443 -2.4646 0
M  V30 413 H 41.2728 2.20402 -4.25393 0
M  V30 414 H 39.6368 1.25678 -2.21534 0
M  V30 415 H 40.4198 0.109953 -3.43124 0
M  V30 416 N 42.8649 1.48995 0.513639 0
M  V30 417 C 43.8129 1.65199 1.63744 0
M  V30 418 C 44.8069 0.51809 1.61283 0
M  V30 419 O 46.0129 0.697335 1.65943 0
M  V30 420 H 42.3879 0.52069 0.542574 0
M  V30 421 H 44.3589 2.59552 1.47226 0
M  V30 422 C 43.1079 1.72409 3.01945 0
M  V30 423 H 42.4309 2.59029 3.04539 0
M  V30 424 H 43.8709 1.87785 3.80148 0
M  V30 425 C 42.3299 0.46618 3.33659 0
M  V30 426 O 42.8599 -0.413744 3.99564 0
M  V30 427 N 41.0659 0.332931 2.88687 0
M  V30 428 H 40.6129 1.04996 2.35231 0
M  V30 429 H 40.5709 -0.507665 3.10274 0
M  V30 430 N 44.343 -0.763751 1.37857 0
M  V30 431 C 45.568 -1.55805 1.36893 0
M  V30 432 C 45.993 -1.88054 -0.0416135 0
M  V30 433 O 45.351 -1.49825 -1.02089 0
M  V30 434 C 45.399 -2.84012 2.22192 0
M  V30 435 O 44.503 -3.78732 1.63204 0
M  V30 436 H 43.844 -0.471638 0.46739 0
M  V30 437 H 46.374 -0.944657 1.81487 0
M  V30 438 H 46.384 -3.33037 2.35691 0
M  V30 439 H 45.059 -2.59869 3.24716 0
M  V30 440 H 43.636 -3.37402 1.58791 0
M  V30 441 N 45.8211 -1.22559 -0.990812 0
M  V30 442 C 47.2371 -0.985996 -1.255 0
M  V30 443 C 47.4371 0.319173 -1.98956 0
M  V30 444 O 46.4931 1.04127 -2.3003 0
M  V30 445 C 47.8061 -2.18607 -2.06474 0
M  V30 446 C 49.3541 -2.22985 -2.19651 0
M  V30 447 C 49.8291 -3.4255 -3.04012 0
M  V30 448 N 51.3201 -3.42725 -3.11599 0
M  V30 449 C 52.0551 -4.31892 -3.7717 0
M  V30 450 N 51.5511 -5.31279 -4.44651 0
M  V30 451 N 53.3441 -4.19662 -3.73952 0
M  V30 452 H 45.4951 -2.06469 -0.49841 0
M  V30 453 H 47.7581 -0.904853 -0.282747 0
M  V30 454 H 47.4641 -3.13267 -1.59865 0
M  V30 455 H 47.3381 -2.18838 -3.07229 0
M  V30 456 H 49.7251 -1.28871 -2.65474 0
M  V30 457 H 49.8061 -2.26791 -1.18319 0
M  V30 458 H 49.4501 -4.36965 -2.58889 0
M  V30 459 H 49.3801 -3.35984 -4.0549 0
M  V30 460 H 51.8711 -2.70807 -2.63575 0
M  V30 461 H 52.1841 -5.95593 -4.92431 0
M  V30 462 H 50.5291 -5.3519 -4.43392 0
M  V30 463 H 53.7201 -3.41268 -3.20396 0
M  V30 464 H 53.8931 -4.89358 -4.24774 0
M  V30 465 N 47.2992 1.18797 -1.03562 0
M  V30 466 C 48.7102 1.70322 -0.764676 0
M  V30 467 C 49.0612 1.82708 0.714996 0
M  V30 468 O 48.1862 1.50299 1.55689 0
M  V30 469 C 48.7812 3.09356 -1.38145 0
M  V30 470 C 47.3402 3.58114 -1.15895 0
M  V30 471 C 46.4872 2.34798 -1.4753 0
M  V30 472 H 49.4382 1.03543 -1.20268 0
M  V30 473 H 49.4592 3.72378 -0.781977 0
M  V30 474 H 48.9712 3.00309 -2.45837 0
M  V30 475 H 47.0722 3.72464 -0.100544 0
M  V30 476 H 47.1852 4.4184 -1.8524 0
M  V30 477 H 45.5492 2.38464 -0.894829 0
M  V30 478 H 46.3322 2.28375 -2.56319 0
M  V30 479 N 48.7773 0.814389 1.34928 0
M  V30 480 C 50.1883 0.458364 1.80986 0
M  V30 481 C 50.5393 -1.02042 1.67577 0
M  V30 482 O 49.6643 -1.79352 1.21086 0
M  V30 483 C 50.2593 0.825212 3.28597 0
M  V30 484 C 48.8183 0.521677 3.72767 0
M  V30 485 C 47.9653 1.04668 2.56788 0
M  V30 486 H 50.9163 1.00533 1.22795 0
M  V30 487 H 50.9373 0.12571 3.80292 0
M  V30 488 H 50.4493 1.90154 3.38324 0
M  V30 489 H 48.5503 -0.545589 3.68584 0
M  V30 490 H 48.6633 1.05977 4.67232 0
M  V30 491 H 47.0273 0.468622 2.50352 0
M  V30 492 H 47.8103 2.12927 2.6929 0
M  V30 493 N 50.2554 -1.46986 0.568584 0
M  V30 494 C 51.6664 -1.86188 0.138219 0
M  V30 495 C 52.0174 -1.47388 -1.29504 0
M  V30 496 O 51.1424 -0.88219 -1.97602 0
M  V30 497 C 51.7374 -3.3792 0.244065 0
M  V30 498 C 50.2964 -3.76171 -0.131335 0
M  V30 499 C 49.4434 -2.71027 0.586465 0
M  V30 500 H 52.3944 -1.38342 0.777645 0
M  V30 501 H 52.4154 -3.76729 -0.534351 0
M  V30 502 H 51.9274 -3.66128 1.28731 0
M  V30 503 H 50.0284 -3.5358 -1.17526 0
M  V30 504 H 50.1414 -4.78523 0.235146 0
M  V30 505 H 48.5054 -2.54684 0.0282722 0
M  V30 506 H 49.2884 -3.02077 1.63109 0
M  V30 507 N 51.7335 -0.305618 -1.54608 0
M  V30 508 C 52.6965 0.555591 -2.22364 0
M  V30 509 C 53.6965 1.05768 -1.21119 0
M  V30 510 O 54.8865 0.952972 -1.45822 0
M  V30 511 C 52.0185 1.76974 -2.91364 0
M  V30 512 H 53.2115 -0.0364572 -2.99878 0
M  V30 513 H 50.7645 -0.0565007 -1.56198 0
M  V30 514 H 51.4995 2.40151 -2.17941 0
M  V30 515 H 51.2845 1.41732 -3.65588 0
M  V30 516 H 52.7745 2.38148 -3.43038 0
M  V30 517 N 53.2116 1.57565 -0.0334293 0
M  V30 518 C 54.1586 2.10478 0.946981 0
M  V30 519 C 55.1286 1.00787 1.32027 0
M  V30 520 O 56.3136 1.28232 1.41284 0
M  V30 521 C 53.4536 2.63994 2.22263 0
M  V30 522 C 52.5666 3.87709 1.90541 0
M  V30 523 C 51.7016 4.29604 3.12433 0
M  V30 524 C 50.7406 5.46065 2.76549 0
M  V30 525 N 49.8776 5.83096 3.9108 0
M  V30 526 H 54.7176 2.93963 0.488846 0
M  V30 527 H 52.2546 1.45296 0.22969 0
M  V30 528 H 54.2126 2.93114 2.96884 0
M  V30 529 H 52.8426 1.83333 2.65685 0
M  V30 530 H 51.8946 3.65291 1.06144 0
M  V30 531 H 53.2066 4.72403 1.60116 0
M  V30 532 H 52.3606 4.60182 3.9537 0
M  V30 533 H 51.0996 3.43685 3.46023 0
M  V30 534 H 50.1046 5.15176 1.92026 0
M  V30 535 H 51.3296 6.33685 2.44171 0
M  V30 536 H 49.2756 5.00132 4.24504 0
M  V30 537 H 49.1926 6.6244 3.64293 0
M  V30 538 H 50.4606 6.18282 4.74708 0
M  V30 539 N 54.6897 -0.239769 1.55765 0
M  V30 540 C 56.1007 -0.808263 1.68297 0
M  V30 541 C 56.4517 -1.85736 0.632181 0
M  V30 542 O 55.5767 -2.15277 -0.220204 0
M  V30 543 C 56.1717 -1.47284 3.05111 0
M  V30 544 C 54.7307 -1.98895 3.19559 0
M  V30 545 C 53.8777 -0.842575 2.64189 0
M  V30 546 H 56.8287 -0.0154422 1.58692 0
M  V30 547 H 56.8497 -2.34111 2.99954 0
M  V30 548 H 56.3617 -0.709053 3.81568 0
M  V30 549 H 54.4627 -2.78132 2.47938 0
M  V30 550 H 54.5757 -2.18143 4.26556 0
M  V30 551 H 52.9397 -1.24501 2.22197 0
M  V30 552 H 53.7227 -0.0917552 3.43177 0
M  V30 553 N 56.1678 -1.49265 -0.50573 0
M  V30 554 C 57.0998 -1.617 -1.62437 0
M  V30 555 C 58.1128 -0.499924 -1.54934 0
M  V30 556 O 59.3018 -0.771785 -1.60953 0
M  V30 557 C 56.4018 -1.5533 -3.01207 0
M  V30 558 C 55.5748 -2.8249 -3.33943 0
M  V30 559 C 54.6338 -2.69238 -4.52103 0
M  V30 560 O 53.6598 -3.43167 -4.5412 0
M  V30 561 N 54.8618 -1.80468 -5.51735 0
M  V30 562 H 57.6268 -2.58177 -1.52199 0
M  V30 563 H 55.1878 -1.46294 -0.693511 0
M  V30 564 H 57.1798 -1.44125 -3.78167 0
M  V30 565 H 55.7498 -0.667297 -3.05395 0
M  V30 566 H 54.9698 -3.08081 -2.45926 0
M  V30 567 H 56.2578 -3.66802 -3.5261 0
M  V30 568 H 55.6558 -1.19653 -5.52901 0
M  V30 569 H 54.2128 -1.75188 -6.27816 0
M  V30 570 N 57.6459 0.756429 -1.3826 0
M  V30 571 C 58.5759 1.88374 -1.37976 0
M  V30 572 C 59.5569 1.68311 -0.246082 0
M  V30 573 O 60.7419 1.88944 -0.44874 0
M  V30 574 C 57.8719 3.25864 -1.20125 0
M  V30 575 C 56.8259 3.60523 -2.30666 0
M  V30 576 C 56.1519 4.9672 -1.97923 0
M  V30 577 C 57.4519 3.65692 -3.72916 0
M  V30 578 H 59.1459 1.88869 -2.32312 0
M  V30 579 H 56.6919 0.907272 -1.11824 0
M  V30 580 H 58.6449 4.0438 -1.18552 0
M  V30 581 H 57.3689 3.25841 -0.222498 0
M  V30 582 H 56.0279 2.84324 -2.3142 0
M  V30 583 H 55.6759 4.93253 -0.985393 0
M  V30 584 H 55.3759 5.20878 -2.71955 0
M  V30 585 H 56.8999 5.77618 -1.97964 0
M  V30 586 H 58.3139 4.34328 -3.74208 0
M  V30 587 H 56.7109 4.01358 -4.4613 0
M  V30 588 H 57.7809 2.65987 -4.05436 0
M  V30 589 N 59.124 1.23083 0.984299 0
M  V30 590 C 60.349 1.088 1.76571 0
M  V30 591 C 60.774 -0.356657 1.84688 0
M  V30 592 O 60.132 -1.25788 1.30565 0
M  V30 593 C 60.18 1.71371 3.17277 0
M  V30 594 O 59.284 0.973213 4.00752 0
M  V30 595 H 58.625 0.381599 0.543395 0
M  V30 596 H 61.155 1.63057 1.23587 0
M  V30 597 H 61.165 1.76449 3.67872 0
M  V30 598 H 59.84 2.76493 3.10684 0
M  V30 599 H 58.417 0.999078 3.59267 0
M  V30 600 N 60.6021 -1.18246 1.0419 0
M  V30 601 C 61.8301 -1.92195 0.766072 0
M  V30 602 C 62.2451 -1.76247 -0.676933 0
M  V30 603 O 61.6021 -1.09293 -1.46155 0
M  V30 604 C 61.6531 -3.43568 1.12442 0
M  V30 605 O 61.3741 -3.59015 2.51078 0
M  V30 606 C 62.8751 -4.34613 0.873275 0
M  V30 607 H 60.0951 -0.610114 0.279288 0
M  V30 608 H 62.6391 -1.50007 1.38989 0
M  V30 609 H 60.7941 -3.8354 0.545542 0
M  V30 610 H 61.2081 -4.5273 2.64831 0
M  V30 611 H 62.6821 -5.39374 1.17385 0
M  V30 612 H 63.1591 -4.38781 -0.191909 0
M  V30 613 H 63.7651 -4.00341 1.43551 0
M  V30 614 N 62.0802 -0.821533 -1.34494 0
M  V30 615 C 63.0432 -0.247847 -2.27856 0
M  V30 616 C 64.0432 0.573453 -1.50227 0
M  V30 617 O 65.2332 0.389759 -1.69784 0
M  V30 618 C 62.3652 0.652698 -3.34593 0
M  V30 619 H 63.5582 -1.07146 -2.80107 0
M  V30 620 H 61.1112 -0.593291 -1.44602 0
M  V30 621 H 61.8462 1.49943 -2.87555 0
M  V30 622 H 61.6312 0.065292 -3.92046 0
M  V30 623 H 63.1212 1.04793 -4.04238 0
M  V30 624 N 63.5583 1.46682 -0.576371 0
M  V30 625 C 64.5053 2.30241 0.160499 0
M  V30 626 C 65.4753 1.40233 0.890162 0
M  V30 627 O 66.6603 1.69186 0.882084 0
M  V30 628 C 63.8003 3.24578 1.1723 0
M  V30 629 C 62.9133 4.29684 0.446736 0
M  V30 630 C 62.0483 5.11154 1.44551 0
M  V30 631 C 61.0873 6.08015 0.70599 0
M  V30 632 N 60.2243 6.82376 1.65251 0
M  V30 633 H 65.0643 2.92727 -0.558127 0
M  V30 634 H 62.6013 1.44272 -0.287056 0
M  V30 635 H 64.5593 3.77711 1.77172 0
M  V30 636 H 63.1893 2.63916 1.85872 0
M  V30 637 H 62.2413 3.79458 -0.267594 0
M  V30 638 H 63.5533 4.98626 -0.131686 0
M  V30 639 H 62.7073 5.68533 2.11791 0
M  V30 640 H 61.4463 4.42158 2.05786 0
M  V30 641 H 60.4513 5.49796 0.0197725 0
M  V30 642 H 61.6763 6.79028 0.09912 0
M  V30 643 H 59.6223 6.16094 2.25308 0
M  V30 644 H 59.5393 7.47556 1.12673 0
M  V30 645 H 60.8073 7.44316 2.31546 0
M  V30 646 N 65.0364 0.313813 1.54444 0
M  V30 647 C 66.2614 -0.296681 2.05267 0
M  V30 648 C 66.6864 -1.45757 1.18897 0
M  V30 649 O 66.0444 -1.80239 0.195886 0
M  V30 650 C 66.0924 -0.71831 3.53373 0
M  V30 651 O 65.1964 -1.82175 3.69981 0
M  V30 652 H 64.5374 -0.0554061 0.661684 0
M  V30 653 H 67.0674 0.459387 1.99376 0
M  V30 654 H 67.0774 -1.00364 3.95463 0
M  V30 655 H 65.7524 0.130821 4.15694 0
M  V30 656 H 64.3294 -1.53598 3.39797 0
M  V30 657 N 66.5145 -1.57545 0.0417849 0
M  V30 658 C 67.9305 -1.56467 -0.314704 0
M  V30 659 C 68.1305 -1.04859 -1.72066 0
M  V30 660 O 67.1865 -0.700983 -2.42575 0
M  V30 661 C 68.4995 -3.00317 -0.15174 0
M  V30 662 C 70.0475 -3.12201 -0.223553 0
M  V30 663 C 70.5225 -4.57913 -0.0892295 0
M  V30 664 N 72.0135 -4.6297 -0.145808 0
M  V30 665 C 72.7485 -5.73362 -0.0658459 0
M  V30 666 N 72.2445 -6.92769 0.0659282 0
M  V30 667 N 74.0375 -5.6197 -0.12075 0
M  V30 668 H 66.1885 -1.89416 0.961014 0
M  V30 669 H 68.4515 -0.871862 0.372237 0
M  V30 670 H 68.1575 -3.42073 0.817254 0
M  V30 671 H 68.0315 -3.65892 -0.916692 0
M  V30 672 H 70.4185 -2.70349 -1.18301 0
M  V30 673 H 70.4995 -2.49323 0.571994 0
M  V30 674 H 70.1435 -5.00448 0.866867 0
M  V30 675 H 70.0735 -5.18786 -0.903802 0
M  V30 676 H 72.5645 -3.7709 -0.247286 0
M  V30 677 H 72.8775 -7.72707 0.119905 0
M  V30 678 H 71.2225 -6.94927 0.100885 0
M  V30 679 H 74.4135 -4.67572 -0.222187 0
M  V30 680 H 74.5865 -6.47977 -0.0549735 0
M  V30 681 N 67.9926 0.231505 -1.5589 0
M  V30 682 C 69.2206 0.974505 -1.82513 0
M  V30 683 C 69.6356 1.78344 -0.619591 0
M  V30 684 O 68.9926 1.77792 0.411848 0
M  V30 685 C 69.0436 1.90007 -3.07538 0
M  V30 686 O 68.7646 1.12385 -4.2344 0
M  V30 687 C 70.2656 2.75779 -3.47075 0
M  V30 688 H 67.4856 0.286065 -0.606966 0
M  V30 689 H 70.0296 0.249739 -2.02969 0
M  V30 690 H 68.1846 2.57891 -2.89086 0
M  V30 691 H 68.5986 1.75125 -4.944 0
M  V30 692 H 70.0726 3.36443 -4.37619 0
M  V30 693 H 70.5496 3.47672 -2.68367 0
M  V30 694 H 71.1556 2.13323 -3.67931 0
M  V30 695 N 69.4707 1.49531 0.497807 0
M  V30 696 C 70.8867 1.36365 0.829266 0
M  V30 697 C 71.0867 0.399184 1.97506 0
M  V30 698 O 70.1427 -0.167977 2.51941 0
M  V30 699 C 71.4557 2.77153 1.16647 0
M  V30 700 C 73.0037 2.85877 1.27449 0
M  V30 701 C 73.4787 4.2744 1.64497 0
M  V30 702 N 74.9697 4.30265 1.7154 0
M  V30 703 C 75.7047 5.3677 2.01656 0
M  V30 704 N 75.2007 6.53516 2.29976 0
M  V30 705 N 76.9937 5.24189 2.02934 0
M  V30 706 H 69.1447 2.10831 -0.257703 0
M  V30 707 H 71.4077 0.946534 -0.0527091 0
M  V30 708 H 71.1137 3.49442 0.397872 0
M  V30 709 H 70.9877 3.12722 2.10915 0
M  V30 710 H 73.3747 2.13824 2.0338 0
M  V30 711 H 73.4557 2.53887 0.312244 0
M  V30 712 H 73.0997 5.00021 0.891151 0
M  V30 713 H 73.0297 4.56896 2.61827 0
M  V30 714 H 75.5207 3.4607 1.51802 0
M  V30 715 H 75.8337 7.30506 2.52153 0
M  V30 716 H 74.1787 6.56737 2.27425 0
M  V30 717 H 77.3697 4.31988 1.80289 0
M  V30 718 H 77.5427 6.07286 2.26071 0
M  V30 719 N 70.9488 -0.749086 1.3866 0
M  V30 720 C 71.8788 -1.8764 1.38973 0
M  V30 721 C 72.8598 -1.68178 0.255004 0
M  V30 722 O 74.0448 -1.88704 0.458754 0
M  V30 723 C 71.1748 -3.25222 1.21851 0
M  V30 724 C 70.1288 -3.59295 2.32575 0
M  V30 725 C 69.4548 -4.95663 2.00555 0
M  V30 726 C 70.7548 -3.63709 3.7485 0
M  V30 727 H 72.4488 -1.87635 2.3331 0
M  V30 728 H 69.9948 -0.901329 1.12303 0
M  V30 729 H 71.9478 -4.03746 1.20695 0
M  V30 730 H 70.6718 -3.25719 0.239775 0
M  V30 731 H 69.3308 -2.83093 2.32925 0
M  V30 732 H 68.9788 -4.92724 1.01154 0
M  V30 733 H 68.6788 -5.19429 2.74714 0
M  V30 734 H 70.2028 -5.7656 2.01024 0
M  V30 735 H 71.6168 -4.32338 3.76506 0
M  V30 736 H 70.0138 -3.98986 4.48252 0
M  V30 737 H 71.0838 -2.63834 4.06841 0
M  V30 738 N 72.4269 -1.23603 -0.977757 0
M  V30 739 C 73.6739 -1.06971 -1.71941 0
M  V30 740 C 74.0019 0.393009 -1.90488 0
M  V30 741 O 73.2569 1.30719 -1.4564 0
M  V30 742 C 73.5559 -1.7433 -3.11999 0
M  V30 743 C 73.2219 -3.24252 -3.13323 0
M  V30 744 C 71.8839 -3.65156 -3.13392 0
M  V30 745 C 74.2359 -4.20141 -3.08433 0
M  V30 746 C 71.5639 -5.00403 -3.0629 0
M  V30 747 C 73.9159 -5.55384 -3.02873 0
M  V30 748 C 72.5799 -5.95647 -3.01265 0
M  V30 749 H 71.8499 -0.391433 -0.629175 0
M  V30 750 H 74.4969 -1.53572 -1.14403 0
M  V30 751 H 72.8019 -1.20096 -3.7294 0
M  V30 752 H 74.4989 -1.58936 -3.68158 0
M  V30 753 H 71.0889 -2.91692 -3.14029 0
M  V30 754 H 75.2729 -3.89547 -3.07517 0
M  V30 755 H 70.5289 -5.3081 -3.03399 0
M  V30 756 H 74.7029 -6.29398 -2.98046 0
M  V30 757 H 72.3299 -7.0041 -2.95516 0
M  V30 758 N 73.905 1.17692 -1.04816 0
M  V30 759 C 75.153 1.87488 -0.754497 0
M  V30 760 C 75.474 1.81205 0.720407 0
M  V30 761 O 74.744 1.23544 1.52032 0
M  V30 762 H 73.324 0.694101 -0.276102 0
M  V30 763 H 75.986 1.42793 -1.32651 0
M  V30 764 H 75.082 2.93328 -1.06606 0
M  V30 765 N 75.3831 0.828654 1.34056 0
M  V30 766 C 76.3301 0.252567 2.29414 0
M  V30 767 C 77.3001 -0.62588 1.53857 0
M  V30 768 O 78.4851 -0.566312 1.82202 0
M  V30 769 C 75.6251 -0.574831 3.40279 0
M  V30 770 C 74.7381 0.326499 4.30764 0
M  V30 771 C 73.8731 -0.511016 5.28736 0
M  V30 772 C 72.9121 0.389342 6.1086 0
M  V30 773 N 72.0491 -0.409439 7.00905 0
M  V30 774 H 76.8891 1.07108 2.78086 0
M  V30 775 H 74.4261 0.539677 1.36843 0
M  V30 776 H 76.3841 -1.06992 4.03248 0
M  V30 777 H 75.0141 -1.35841 2.92826 0
M  V30 778 H 74.0661 0.939837 3.68607 0
M  V30 779 H 75.3781 1.01857 4.88289 0
M  V30 780 H 74.5321 -1.07035 5.97184 0
M  V30 781 H 73.2711 -1.23657 4.71763 0
M  V30 782 H 72.2761 0.960769 5.4134 0
M  V30 783 H 73.5011 1.1131 6.69916 0
M  V30 784 H 71.4471 -1.11856 6.46393 0
M  V30 785 H 71.3641 0.224126 7.55668 0
M  V30 786 H 72.6321 -0.951336 7.73673 0
M  V30 787 N 76.8612 -1.46375 0.584142 0
M  V30 788 C 78.1092 -2.01978 0.0701287 0
M  V30 789 C 78.4302 -1.4579 -1.295 0
M  V30 790 O 77.7002 -0.64314 -1.85042 0
M  V30 791 H 76.2802 -0.746648 0.0229345 0
M  V30 792 H 78.9422 -1.79461 0.760245 0
M  V30 793 H 78.0382 -3.121 0.0022064 0
M  V30 794 N 78.3393 -0.321999 -1.54275 0
M  V30 795 C 79.6163 0.335232 -1.92706 0
M  V30 796 C 79.9963 1.70006 -1.25145 0
M  V30 797 O 79.3443 2.25067 -0.394596 0
M  V30 798 C 79.5543 0.429008 -3.46353 0
M  V30 799 C 80.9023 0.690029 -4.18956 0
M  V30 800 O 81.9263 0.511992 -3.52501 0
M  V30 801 O 80.7853 1.03338 -5.36641 0
M  V30 802 H 77.8793 0.191143 -0.804608 0
M  V30 803 H 80.4253 -0.3716 -1.65581 0
M  V30 804 H 79.1973 -0.529611 -3.87699 0
M  V30 805 H 78.8203 1.18348 -3.79578 0
M  V30 806 N 79.8174 1.5752 -0.0501392 0
M  V30 807 C 81.0424 1.97376 0.636997 0
M  V30 808 C 81.4674 0.927466 1.63645 0
M  V30 809 O 80.8254 -0.10941 1.8097 0
M  V30 810 C 80.8734 3.36304 1.30123 0
M  V30 811 O 79.9774 3.34156 2.41689 0
M  V30 812 H 79.3184 0.642998 0.165679 0
M  V30 813 H 81.8484 2.04258 -0.118233 0
M  V30 814 H 81.8584 3.73008 1.65315 0
M  V30 815 H 80.5334 4.11993 0.568746 0
M  V30 816 H 79.1104 3.09196 2.08451 0
M  V30 817 N 81.2955 -0.223234 1.56011 0
M  V30 818 C 82.2055 -1.29766 1.95443 0
M  V30 819 C 83.2215 -1.51373 0.858028 0
M  V30 820 O 84.3975 -1.64536 1.16146 0
M  V30 821 C 81.4625 -2.62772 2.26167 0
M  V30 822 C 80.5235 -2.49482 3.49367 0
M  V30 823 C 79.7565 -3.76145 3.78616 0
M  V30 824 O 79.9795 -4.79087 3.09568 0
M  V30 825 O 78.9135 -3.73358 4.72109 0
M  V30 826 H 82.7395 -0.99309 2.87004 0
M  V30 827 H 80.3245 -0.425958 1.43199 0
M  V30 828 H 82.2065 -3.41327 2.47131 0
M  V30 829 H 80.8815 -2.92913 1.37781 0
M  V30 830 H 79.7885 -1.69133 3.33684 0
M  V30 831 H 81.1215 -2.2428 4.38131 0
M  V30 832 N 82.7736 -1.49793 -0.48987 0
M  V30 833 C 83.6836 -1.70036 -1.61632 0
M  V30 834 C 84.6996 -0.583102 -1.63939 0
M  V30 835 O 85.8756 -0.859169 -1.82154 0
M  V30 836 C 82.9406 -1.77277 -2.97949 0
M  V30 837 C 82.0016 -3.00918 -3.06181 0
M  V30 838 C 81.2346 -3.07804 -4.35996 0
M  V30 839 O 81.4576 -2.21982 -5.25433 0
M  V30 840 O 80.3916 -4.00369 -4.49431 0
M  V30 841 H 84.2176 -2.65486 -1.47482 0
M  V30 842 H 81.8026 -1.33666 -0.667362 0
M  V30 843 H 83.6846 -1.84329 -3.78947 0
M  V30 844 H 82.3596 -0.850076 -3.12339 0
M  V30 845 H 81.2666 -2.99377 -2.2433 0
M  V30 846 H 82.5996 -3.92704 -2.96723 0
M  V30 847 N 84.2517 0.741722 -1.39055 0
M  V30 848 C 85.2147 1.83733 -1.37021 0
M  V30 849 C 86.2147 1.58542 -0.268534 0
M  V30 850 O 87.4047 1.66067 -0.526076 0
M  V30 851 C 84.5367 3.2141 -1.13617 0
M  V30 852 H 85.7297 1.86941 -2.34506 0
M  V30 853 H 83.2827 0.944676 -1.24521 0
M  V30 854 H 84.0177 3.23865 -0.167863 0
M  V30 855 H 83.8027 3.4109 -1.93391 0
M  V30 856 H 85.2927 4.01477 -1.14918 0
M  V30 857 N 85.7298 1.2412 0.971189 0
M  V30 858 C 86.9768 1.07881 1.71371 0
M  V30 859 C 87.3048 -0.382901 1.90694 0
M  V30 860 O 86.5598 -1.29945 1.46331 0
M  V30 861 C 86.8588 1.75983 3.11071 0
M  V30 862 C 86.5248 3.25909 3.11599 0
M  V30 863 C 85.1868 3.66813 3.11451 0
M  V30 864 C 87.5388 4.21771 3.062 0
M  V30 865 C 84.8668 5.02021 3.03631 0
M  V30 866 C 87.2188 5.56982 2.99923 0
M  V30 867 C 85.8828 5.97237 2.98102 0
M  V30 868 H 85.1528 0.394764 0.62709 0
M  V30 869 H 87.7998 1.54176 1.13587 0
M  V30 870 H 86.1048 1.22072 3.72298 0
M  V30 871 H 87.8018 1.60887 3.6731 0
M  V30 872 H 84.3918 2.93353 3.12477 0
M  V30 873 H 88.5758 3.91172 3.05447 0
M  V30 874 H 83.8318 5.32411 3.0058 0
M  V30 875 H 88.0058 6.30969 2.94704 0
M  V30 876 H 85.6328 7.01967 2.91798 0
M  V30 877 N 87.2079 -1.17134 1.05439 0
M  V30 878 C 88.6189 -1.69084 0.791676 0
M  V30 879 C 88.9699 -1.83822 -0.685839 0
M  V30 880 O 88.0949 -1.52757 -1.53278 0
M  V30 881 C 88.6899 -3.07119 1.4305 0
M  V30 882 C 87.2489 -3.56225 1.21577 0
M  V30 883 C 86.3959 -2.32421 1.51247 0
M  V30 884 H 89.3469 -1.01617 1.219 0
M  V30 885 H 89.3679 -3.71087 0.84112 0
M  V30 886 H 88.8799 -2.9636 2.50584 0
M  V30 887 H 86.9809 -3.72257 0.159787 0
M  V30 888 H 87.0939 -4.38837 1.92246 0
M  V30 889 H 85.4579 -2.3701 0.932653 0
M  V30 890 H 86.2409 -2.24268 2.5992 0
M  V30 891 N 88.686 -0.835752 -1.33615 0
M  V30 892 C 89.932 -0.430596 -1.98176 0
M  V30 893 C 90.265 1.00684 -1.66061 0
M  V30 894 O 89.54 1.70339 -0.938877 0
M  V30 895 C 89.823 -0.648065 -3.5422 0
M  V30 896 C 89.676 -2.13255 -3.96033 0
M  V30 897 C 90.995 -0.0922113 -4.40003 0
M  V30 898 H 88.114 -0.157924 -0.719881 0
M  V30 899 H 90.756 -1.05069 -1.58305 0
M  V30 900 H 88.906 -0.120237 -3.88314 0
M  V30 901 H 90.578 -2.725 -3.72211 0
M  V30 902 H 88.821 -2.61823 -3.45878 0
M  V30 903 H 89.492 -2.23547 -5.04708 0
M  V30 904 H 91.968 -0.543343 -4.12537 0
M  V30 905 H 90.844 -0.274083 -5.48215 0
M  V30 906 H 91.105 1.00378 -4.30554 0
M  V30 907 N 90.1641 1.46063 -0.591896 0
M  V30 908 C 91.4411 1.95595 -0.0137119 0
M  V30 909 C 91.8211 1.5345 1.4497 0
M  V30 910 O 91.1691 0.789543 2.14426 0
M  V30 911 C 91.3791 3.48453 -0.195373 0
M  V30 912 C 92.7271 4.24546 -0.0679765 0
M  V30 913 O 93.7511 3.55982 -0.124681 0
M  V30 914 O 92.6101 5.46467 0.0600579 0
M  V30 915 H 89.7041 0.825795 0.0446279 0
M  V30 916 H 92.2501 1.56303 -0.660859 0
M  V30 917 H 91.0221 3.72045 -1.21235 0
M  V30 918 H 90.6451 3.94597 0.487775 0
M  V30 919 N 91.6422 0.330177 1.54103 0
M  V30 920 C 92.8822 -0.270916 2.02597 0
M  V30 921 C 93.2462 -1.48826 1.21304 0
M  V30 922 O 94.4472 -2.16266 1.59633 0
M  V30 923 C 92.7182 -0.590328 3.52491 0
M  V30 924 S 94.2772 -1.17014 4.2291 0
M  V30 925 H 91.0952 -0.0815379 0.706309 0
M  V30 926 H 93.6972 0.464835 1.89893 0
M  V30 927 H 92.4012 0.303691 4.09275 0
M  V30 928 H 91.9322 -1.3561 3.69288 0
M  V30 929 H 93.9472 -2.45662 4.3112 0
M  V30 930 N 93.1203 -1.57491 0.0584922 0
M  V30 931 C 94.5313 -1.80526 -0.476138 0
M  V30 932 C 94.8823 -0.971334 -1.70469 0
M  V30 933 O 94.0073 -0.190012 -2.15564 0
M  V30 934 C 94.6023 -3.27424 -0.870587 0
M  V30 935 C 93.1613 -3.51351 -1.35015 0
M  V30 936 C 92.3083 -2.75343 -0.32887 0
M  V30 937 H 95.2593 -1.56133 0.284312 0
M  V30 938 H 95.2803 -3.38745 -1.73299 0
M  V30 939 H 94.7923 -3.88093 0.0237627 0
M  V30 940 H 92.8933 -2.95971 -2.26345 0
M  V30 941 H 93.0063 -4.60059 -1.33726 0
M  V30 942 H 91.3703 -2.417 -0.803321 0
M  V30 943 H 92.1533 -3.38743 0.557521 0
M  V30 944 N 94.5984 0.214957 -1.56127 0
M  V30 945 C 95.5484 1.27006 -1.8935 0
M  V30 946 C 96.5324 1.41969 -0.757202 0
M  V30 947 O 97.7244 1.44673 -1.01973 0
M  V30 948 C 94.8534 2.61911 -2.2194 0
M  V30 949 C 93.9394 2.50822 -3.41978 0
M  V30 950 N 94.3304 2.09391 -4.60423 0
M  V30 951 C 92.6284 2.81765 -3.45723 0
M  V30 952 C 93.3294 2.09712 -5.42582 0
M  V30 953 N 92.3054 2.50454 -4.82466 0
M  V30 954 H 96.1074 0.940734 -2.78437 0
M  V30 955 H 93.6214 0.423492 -1.56781 0
M  V30 956 H 95.6184 3.38096 -2.43919 0
M  V30 957 H 94.2784 2.95684 -1.34169 0
M  V30 958 H 95.2894 1.80416 -4.85459 0
M  V30 959 H 91.9664 3.19865 -2.68314 0
M  V30 960 H 93.3564 1.79748 -6.4741 0
M  V30 961 N 96.0765 1.50051 0.48192 0
M  V30 962 C 96.9865 1.7089 1.60728 0
M  V30 963 C 98.0025 0.591788 1.63627 0
M  V30 964 O 99.1785 0.868817 1.81696 0
M  V30 965 C 96.2435 1.78855 2.97005 0
M  V30 966 C 95.3045 3.02537 3.04581 0
M  V30 967 C 94.5375 3.10112 4.34357 0
M  V30 968 O 94.7605 2.24765 5.24249 0
M  V30 969 O 93.6945 4.02747 4.47301 0
M  V30 970 H 97.5205 2.66264 1.46072 0
M  V30 971 H 95.1055 1.34018 0.660264 0
M  V30 972 H 96.9875 1.86336 3.77964 0
M  V30 973 H 95.6625 0.866628 3.11883 0
M  V30 974 H 94.5695 3.00563 2.22739 0
M  V30 975 H 95.9025 3.94272 2.94636 0
M  V30 976 N 97.5546 -0.734337 1.39446 0
M  V30 977 C 98.4646 -1.87879 1.40495 0
M  V30 978 C 99.4806 -1.714 0.299672 0
M  V30 979 O 100.657 -1.93991 0.541249 0
M  V30 980 C 97.7216 -3.23477 1.24754 0
M  V30 981 C 96.7826 -3.52344 2.45259 0
M  V30 982 C 96.0156 -4.81473 2.30259 0
M  V30 983 O 96.2386 -5.55237 1.30643 0
M  V30 984 O 95.1726 -5.10254 3.19256 0
M  V30 985 H 98.9986 -1.89949 2.36966 0
M  V30 986 H 96.5836 -0.882243 1.20569 0
M  V30 987 H 98.4656 -4.04509 1.18111 0
M  V30 988 H 97.1406 -3.22176 0.313781 0
M  V30 989 H 96.0476 -2.71396 2.57478 0
M  V30 990 H 97.3806 -3.58426 3.37331 0
M  V30 991 N 99.0327 -1.24633 -0.964593 0
M  V30 992 C 100.281 -1.08573 -1.70459 0
M  V30 993 C 100.602 0.375655 -1.91347 0
M  V30 994 O 99.8717 1.26779 -1.49345 0
M  V30 995 H 98.4517 -0.398784 -0.631649 0
M  V30 996 H 101.114 -1.56601 -1.16026 0
M  V30 997 H 100.21 -1.58623 -2.68785 0
M  V30 998 N 100.511 1.16574 -1.06058 0
M  V30 999 C 101.421 2.2452 -0.680282 0
M  V30 1000 C 102.437 1.71348 0.302604 0
M  V30 1001 O 103.613 2.00822 0.152513 0
M  V30 1002 C 100.678 3.46629 -0.0700315 0
M  V30 1003 C 99.7388 4.14849 -1.10448 0
M  V30 1004 C 98.9718 5.31129 -0.523256 0
M  V30 1005 O 99.1948 5.66514 0.664709 0
M  V30 1006 O 98.1288 5.88526 -1.26179 0
M  V30 1007 H 101.955 2.59355 -1.58015 0
M  V30 1008 H 99.5398 1.24043 -0.832694 0
M  V30 1009 H 101.422 4.20543 0.268667 0
M  V30 1010 H 100.097 3.13573 0.803353 0
M  V30 1011 H 99.0038 3.42916 -1.49532 0
M  V30 1012 H 100.337 4.51954 -1.94931 0
M  V30 1013 N 101.989 0.842826 1.3317 0
M  V30 1014 C 102.919 0.294028 2.31641 0
M  V30 1015 C 103.9 -0.600401 1.59151 0
M  V30 1016 O 105.085 -0.523124 1.87022 0
M  V30 1017 C 102.215 -0.528416 3.43257 0
M  V30 1018 C 101.169 0.27056 4.27144 0
M  V30 1019 C 100.495 -0.675881 5.30411 0
M  V30 1020 C 101.795 1.48981 5.00602 0
M  V30 1021 H 103.489 1.11681 2.77791 0
M  V30 1022 H 101.035 0.538478 1.33553 0
M  V30 1023 H 102.988 -0.922674 4.11175 0
M  V30 1024 H 101.712 -1.38445 2.95805 0
M  V30 1025 H 100.371 0.646427 3.60856 0
M  V30 1026 H 100.019 -1.52842 4.79216 0
M  V30 1027 H 99.7189 -0.145374 5.8742 0
M  V30 1028 H 101.243 -1.06757 6.01195 0
M  V30 1029 H 102.657 1.16849 5.61266 0
M  V30 1030 H 101.054 1.95739 5.6728 0
M  V30 1031 H 102.124 2.25746 4.29147 0
M  V30 1032 N 103.467 -1.45747 0.599634 0
M  V30 1033 C 104.744 -1.95585 0.0240846 0
M  V30 1034 C 105.124 -1.54217 -1.44154 0
M  V30 1035 O 104.472 -0.800903 -2.14004 0
M  V30 1036 C 104.682 -3.48344 0.21385 0
M  V30 1037 C 106.03 -4.24504 0.0904902 0
M  V30 1038 O 107.054 -3.55911 0.143558 0
M  V30 1039 O 105.913 -5.46491 -0.0310766 0
M  V30 1040 H 103.007 -0.82602 -0.0402478 0
M  V30 1041 H 105.553 -1.55951 0.669139 0
M  V30 1042 H 104.325 -3.71397 1.23206 0
M  V30 1043 H 103.948 -3.9485 -0.466842 0
M  V30 1044 N 104.945 -0.338344 -1.53925 0
M  V30 1045 C 106.17 0.263987 -2.05713 0
M  V30 1046 C 106.595 1.43847 -1.21201 0
M  V30 1047 O 105.953 1.79904 -0.224535 0
M  V30 1048 C 106.001 0.662 -3.54471 0
M  V30 1049 O 105.105 1.76265 -3.72833 0
M  V30 1050 H 104.446 0.0448722 -0.662482 0
M  V30 1051 H 106.976 -0.491048 -1.9862 0
M  V30 1052 H 106.986 0.940594 -3.9701 0
M  V30 1053 H 105.661 -0.196937 -4.15433 0
M  V30 1054 H 104.238 1.48173 -3.42198 0
M  V30 1055 N 106.423 1.57458 -0.0668435 0
M  V30 1056 C 107.663 1.95175 0.607116 0
M  V30 1057 C 108.027 0.946039 1.67075 0
M  V30 1058 O 109.228 1.2107 2.39991 0
M  V30 1059 C 107.499 3.37582 1.17358 0
M  V30 1060 S 109.058 3.97271 1.86336 0
M  V30 1061 H 105.876 0.682604 0.19893 0
M  V30 1062 H 108.478 1.95002 -0.139519 0
M  V30 1063 H 107.182 4.08566 0.387553 0
M  V30 1064 H 106.713 3.41288 1.95669 0
M  V30 1065 H 108.728 3.83772 3.14537 0
M  V30 1066 N 107.901 -0.206675 1.56239 0
M  V30 1067 C 109.312 -0.772383 1.69974 0
M  V30 1068 C 109.663 -1.84353 0.671436 0
M  V30 1069 O 108.788 -2.15695 -0.174491 0
M  V30 1070 C 109.383 -1.40779 3.08167 0
M  V30 1071 C 107.942 -1.92072 3.23706 0
M  V30 1072 C 107.089 -0.786347 2.65917 0
M  V30 1073 H 110.04 0.0182223 1.5869 0
M  V30 1074 H 110.061 -2.27696 3.04852 0
M  V30 1075 H 109.573 -0.627958 3.82986 0
M  V30 1076 H 107.674 -2.7281 2.53782 0
M  V30 1077 H 107.787 -2.09046 4.31087 0
M  V30 1078 H 106.151 -1.1976 2.24788 0
M  V30 1079 H 106.934 -0.0189416 3.43295 0
M  V30 1080 N 109.379 -1.50304 -0.473955 0
M  V30 1081 C 110.607 -1.64902 -1.24959 0
M  V30 1082 C 111.022 -0.331198 -1.85872 0
M  V30 1083 O 110.379 0.68652 -1.69095 0
M  V30 1084 C 110.43 -2.73803 -2.36038 0
M  V30 1085 O 110.151 -4.00477 -1.77624 0
M  V30 1086 C 111.652 -2.99349 -3.26964 0
M  V30 1087 H 108.872 -0.554383 -0.378022 0
M  V30 1088 H 111.416 -1.9651 -0.566054 0
M  V30 1089 H 109.571 -2.44898 -3.00173 0
M  V30 1090 H 109.985 -4.60678 -2.5075 0
M  V30 1091 H 111.459 -3.79217 -4.01121 0
M  V30 1092 H 111.936 -2.10307 -3.85574 0
M  V30 1093 H 112.542 -3.29774 -2.68569 0
M  V30 1094 N 110.857 0.726932 -1.39834 0
M  V30 1095 C 112.106 1.48214 -1.36805 0
M  V30 1096 C 112.419 1.95576 0.0305291 0
M  V30 1097 O 113.625 2.7088 0.183417 0
M  V30 1098 C 112.081 2.67854 -2.40379 0
M  V30 1099 C 111.689 2.27408 -3.85992 0
M  V30 1100 C 113.433 3.45641 -2.46439 0
M  V30 1101 C 111.34 3.43819 -4.81189 0
M  V30 1102 H 110.27 0.556606 -0.508631 0
M  V30 1103 H 112.921 0.792216 -1.65518 0
M  V30 1104 H 111.303 3.3896 -2.04749 0
M  V30 1105 H 112.477 1.63795 -4.30706 0
M  V30 1106 H 110.792 1.62692 -3.83302 0
M  V30 1107 H 113.389 4.32244 -3.14753 0
M  V30 1108 H 113.732 3.88669 -1.49139 0
M  V30 1109 H 114.265 2.8157 -2.81004 0
M  V30 1110 H 111.004 3.05834 -5.79781 0
M  V30 1111 H 110.524 4.06385 -4.41148 0
M  V30 1112 H 112.203 4.10043 -5.00474 0
M  V30 1113 N 112.336 1.25143 0.95797 0
M  V30 1114 C 113.564 1.12424 1.73691 0
M  V30 1115 C 113.979 -0.322304 1.86029 0
M  V30 1116 O 113.336 -1.22186 1.35561 0
M  V30 1117 C 113.387 1.76933 3.15241 0
M  V30 1118 O 113.108 3.15932 3.03511 0
M  V30 1119 C 114.609 1.6995 4.09429 0
M  V30 1120 H 111.829 0.3923 0.544373 0
M  V30 1121 H 114.373 1.6544 1.20207 0
M  V30 1122 H 112.528 1.27895 3.6568 0
M  V30 1123 H 112.942 3.47598 3.9278 0
M  V30 1124 H 114.416 2.19753 5.06372 0
M  V30 1125 H 114.893 0.662619 4.34173 0
M  V30 1126 H 115.499 2.18461 3.64904 0
M  V30 1127 N 113.814 -1.1601 1.06675 0
M  V30 1128 C 115.06 -1.86909 0.786945 0
M  V30 1129 C 115.393 -1.81717 -0.685018 0
M  V30 1130 O 114.668 -1.23551 -1.50218 0
M  V30 1131 C 114.951 -3.36313 1.28707 0
M  V30 1132 C 114.804 -3.50175 2.82308 0
M  V30 1133 C 116.123 -4.3084 0.898071 0
M  V30 1134 H 113.242 -0.678677 0.287343 0
M  V30 1135 H 115.884 -1.36336 1.32334 0
M  V30 1136 H 114.034 -3.79513 0.830768 0
M  V30 1137 H 115.706 -3.15886 3.36175 0
M  V30 1138 H 113.949 -2.91959 3.20847 0
M  V30 1139 H 114.62 -4.55116 3.12368 0
M  V30 1140 H 117.096 -3.95561 1.29114 0
M  V30 1141 H 115.972 -5.33876 1.27543 0
M  V30 1142 H 116.233 -4.41662 -0.196651 0
M  V30 1143 N 115.292 -0.849877 -1.32721 0
M  V30 1144 C 116.517 -0.463856 -2.02146 0
M  V30 1145 C 116.942 0.930449 -1.63476 0
M  V30 1146 O 116.3 1.61033 -0.832952 0
M  V30 1147 C 116.348 -0.604955 -3.55489 0
M  V30 1148 O 115.452 0.36425 -4.10788 0
M  V30 1149 H 114.793 -0.187046 -0.637111 0
M  V30 1150 H 117.323 -1.14775 -1.69375 0
M  V30 1151 H 117.333 -0.490696 -4.05038 0
M  V30 1152 H 116.008 -1.62174 -3.82978 0
M  V30 1153 H 114.585 0.206628 -3.72327 0
M  V30 1154 N 116.77 1.45427 -0.607355 0
M  V30 1155 C 118.181 1.85756 -0.187535 0
M  V30 1156 C 118.532 1.5077 1.25551 0
M  V30 1157 O 117.657 0.93427 1.95193 0
M  V30 1158 C 118.252 3.37154 -0.333572 0
M  V30 1159 C 116.811 3.76387 0.0315542 0
M  V30 1160 C 115.958 2.69377 -0.658117 0
M  V30 1161 H 118.909 1.36231 -0.81405 0
M  V30 1162 H 118.93 3.78014 0.43428 0
M  V30 1163 H 118.442 3.62586 -1.38393 0
M  V30 1164 H 116.543 3.56571 1.0811 0
M  V30 1165 H 116.656 4.77731 -0.361935 0
M  V30 1166 H 115.02 2.5452 -0.0957873 0
M  V30 1167 H 115.803 2.97646 -1.7106 0
M  V30 1168 N 118.248 0.346503 1.53744 0
M  V30 1169 C 119.494 -0.249473 2.0126 0
M  V30 1170 C 119.827 -1.49965 1.23386 0
M  V30 1171 O 119.102 -1.91811 0.32229 0
M  V30 1172 C 119.385 -0.560643 3.55709 0
M  V30 1173 C 119.238 0.701836 4.44291 0
M  V30 1174 C 120.557 -1.36905 4.18264 0
M  V30 1175 H 117.676 -0.0891987 0.731582 0
M  V30 1176 H 120.318 0.467624 1.84156 0
M  V30 1177 H 118.468 -1.17156 3.70414 0
M  V30 1178 H 120.14 1.33974 4.41417 0
M  V30 1179 H 118.383 1.32612 4.13033 0
M  V30 1180 H 119.054 0.43933 5.50249 0
M  V30 1181 H 121.53 -0.852448 4.07275 0
M  V30 1182 H 120.406 -1.55553 5.26398 0
M  V30 1183 H 120.667 -2.37203 3.73078 0
M  V30 1184 N 119.726 -1.57421 0.075193 0
M  V30 1185 C 120.975 -1.92794 -0.592731 0
M  V30 1186 C 121.288 -0.957478 -1.70563 0
M  V30 1187 O 122.494 -1.20417 -2.43335 0
M  V30 1188 C 120.95 -3.42495 -1.10569 0
M  V30 1189 C 120.558 -4.47994 -0.0236121 0
M  V30 1190 C 122.302 -3.86864 -1.74748 0
M  V30 1191 C 120.209 -5.88829 -0.550803 0
M  V30 1192 H 119.139 -0.719591 -0.225177 0
M  V30 1193 H 121.79 -1.82902 0.147978 0
M  V30 1194 H 120.172 -3.47471 -1.89947 0
M  V30 1195 H 121.346 -4.54637 0.751099 0
M  V30 1196 H 119.661 -4.13113 0.522159 0
M  V30 1197 H 122.258 -4.8947 -2.15229 0
M  V30 1198 H 122.601 -3.24417 -2.60882 0
M  V30 1199 H 123.134 -3.84504 -1.01986 0
M  V30 1200 H 119.873 -6.54929 0.273457 0
M  V30 1201 H 119.393 -5.85698 -1.29296 0
M  V30 1202 H 121.072 -6.38811 -1.02613 0
M  V30 1203 N 121.204 0.198386 -1.56346 0
M  V30 1204 C 122.432 0.935572 -1.84539 0
M  V30 1205 C 122.847 1.76989 -0.657281 0
M  V30 1206 O 122.204 1.78626 0.374043 0
M  V30 1207 C 122.255 1.8344 -3.11499 0
M  V30 1208 O 121.976 1.03377 -4.25728 0
M  V30 1209 C 123.477 2.68355 -3.52846 0
M  V30 1210 H 120.697 0.273126 -0.612897 0
M  V30 1211 H 123.241 0.20663 -2.03453 0
M  V30 1212 H 121.396 2.51701 -2.94492 0
M  V30 1213 H 121.81 1.64599 -4.98003 0
M  V30 1214 H 123.284 3.27085 -4.44657 0
M  V30 1215 H 123.761 3.41901 -2.75681 0
M  V30 1216 H 124.367 2.05471 -3.72373 0
M  V30 1217 N 122.682 1.50554 0.465978 0
M  V30 1218 C 123.931 1.61038 1.21448 0
M  V30 1219 C 124.244 0.31865 1.92987 0
M  V30 1220 O 125.45 0.302469 2.6981 0
M  V30 1221 C 123.906 2.84283 2.20706 0
M  V30 1222 C 123.514 4.20352 1.54946 0
M  V30 1223 C 125.258 3.04115 2.96166 0
M  V30 1224 C 123.165 5.34778 2.5252 0
M  V30 1225 H 122.095 0.599718 0.457005 0
M  V30 1226 H 124.746 1.7699 0.484424 0
M  V30 1227 H 123.128 2.61901 2.97025 0
M  V30 1228 H 124.302 4.53008 0.843811 0
M  V30 1229 H 122.617 4.06167 0.917475 0
M  V30 1230 H 125.214 3.86774 3.69202 0
M  V30 1231 H 125.557 2.16045 3.55852 0
M  V30 1232 H 126.09 3.26702 2.26959 0
M  V30 1233 H 122.829 6.25018 1.97566 0
M  V30 1234 H 122.349 5.06534 3.21222 0
M  V30 1235 H 124.028 5.65561 3.14245 0
M  V30 1236 N 124.16 -0.719506 1.40217 0
M  V30 1237 C 125.092 -1.84428 1.36084 0
M  V30 1238 C 126.105 -1.60597 0.266913 0
M  V30 1239 O 127.294 -1.70544 0.526983 0
M  V30 1240 C 124.394 -3.20757 1.094 0
M  V30 1241 C 123.567 -3.71817 2.30372 0
M  V30 1242 C 122.626 -4.86748 1.99907 0
M  V30 1243 O 121.652 -4.99603 2.72737 0
M  V30 1244 N 122.854 -5.7226 0.974635 0
M  V30 1245 H 125.619 -1.88473 2.33019 0
M  V30 1246 H 123.18 -0.900885 1.3452 0
M  V30 1247 H 125.172 -3.95235 0.870116 0
M  V30 1248 H 123.742 -3.11884 0.211452 0
M  V30 1249 H 122.962 -2.88514 2.68614 0
M  V30 1250 H 124.25 -4.02666 3.11026 0
M  V30 1251 H 123.648 -5.6448 0.371368 0
M  V30 1252 H 122.205 -6.46739 0.810656 0
M  V30 1253 N 125.638 -1.25649 -0.95132 0
M  V30 1254 C 127.054 -1.02542 -1.223 0
M  V30 1255 C 127.254 0.255715 -1.99871 0
M  V30 1256 O 126.31 0.967558 -2.33226 0
M  V30 1257 C 127.623 -2.25065 -1.99415 0
M  V30 1258 C 129.171 -2.29861 -2.12446 0
M  V30 1259 C 129.646 -3.52048 -2.92961 0
M  V30 1260 N 131.137 -3.52465 -3.00538 0
M  V30 1261 C 131.872 -4.43672 -3.63239 0
M  V30 1262 N 131.368 -5.45157 -4.27523 0
M  V30 1263 N 133.161 -4.31346 -3.60412 0
M  V30 1264 H 125.312 -2.07951 -0.432471 0
M  V30 1265 H 127.575 -0.91339 -0.253816 0
M  V30 1266 H 127.281 -3.18194 -1.49817 0
M  V30 1267 H 127.155 -2.28502 -3.00111 0
M  V30 1268 H 129.542 -1.37252 -2.61239 0
M  V30 1269 H 129.623 -2.3044 -1.11044 0
M  V30 1270 H 129.267 -4.44981 -2.44856 0
M  V30 1271 H 129.197 -3.48715 -3.94596 0
M  V30 1272 H 131.688 -2.79056 -2.54826 0
M  V30 1273 H 132.001 -6.10958 -4.73234 0
M  V30 1274 H 130.346 -5.49025 -4.26141 0
M  V30 1275 H 133.537 -3.51288 -3.09377 0
M  V30 1276 H 133.71 -5.02624 -4.0899 0
M  V30 1277 N 127.117 1.15442 -1.07289 0
M  V30 1278 C 128.528 1.67803 -0.818475 0
M  V30 1279 C 128.879 1.8489 0.656507 0
M  V30 1280 O 128.004 1.55176 1.50829 0
M  V30 1281 C 128.599 3.04805 -1.47917 0
M  V30 1282 C 127.158 3.54245 -1.27229 0
M  V30 1283 C 126.305 2.29986 -1.54925 0
M  V30 1284 H 129.256 0.996646 -1.23502 0
M  V30 1285 H 129.277 3.69702 -0.90005 0
M  V30 1286 H 128.789 2.92336 -2.55267 0
M  V30 1287 H 126.89 3.71956 -0.21899 0
M  V30 1288 H 127.003 4.35723 -1.99203 0
M  V30 1289 H 125.367 2.35496 -0.970242 0
M  V30 1290 H 126.15 2.20105 -2.63455 0
M  V30 1291 N 128.595 0.856903 1.32268 0
M  V30 1292 C 129.843 0.460474 1.96784 0
M  V30 1293 C 130.164 -0.987701 1.68135 0
M  V30 1294 O 129.434 -1.69058 0.989765 0
M  V30 1295 H 128.014 0.167289 0.728027 0
M  V30 1296 H 130.676 1.09383 1.61312 0
M  V30 1297 H 129.772 0.60739 3.06133 0
M  V30 1298 N 130.073 -1.45103 0.615059 0
M  V30 1299 C 131.35 -1.95549 0.0448276 0
M  V30 1300 C 131.73 -1.55737 -1.4251 0
M  V30 1301 O 131.078 -0.823556 -2.13143 0
M  V30 1302 C 131.288 -3.48098 0.250785 0
M  V30 1303 C 132.636 -4.24384 0.135509 0
M  V30 1304 O 133.66 -3.55738 0.181299 0
M  V30 1305 O 132.519 -5.46493 0.0268878 0
M  V30 1306 H 129.613 -0.8264 -0.0314845 0
M  V30 1307 H 132.159 -1.55232 0.685642 0
M  V30 1308 H 130.931 -3.7007 1.27139 0
M  V30 1309 H 130.554 -3.95323 -0.424937 0
M  V30 1310 N 131.551 -0.354651 -1.53558 0
M  V30 1311 C 132.799 0.237972 -2.00694 0
M  V30 1312 C 133.12 1.50173 -1.24391 0
M  V30 1313 O 132.39 1.92673 -0.354135 0
M  V30 1314 H 130.97 0.0909256 -0.741446 0
M  V30 1315 H 133.632 -0.478368 -1.88938 0
M  V30 1316 H 132.728 0.47264 -3.085 0
M  V30 1317 N 133.029 1.57378 -0.0835403 0
M  V30 1318 C 134.44 1.81261 0.447358 0
M  V30 1319 C 134.791 0.998331 1.68902 0
M  V30 1320 O 133.916 0.224282 2.15235 0
M  V30 1321 C 134.511 3.28767 0.818386 0
M  V30 1322 C 133.07 3.53455 1.29409 0
M  V30 1323 C 132.217 2.75831 0.285024 0
M  V30 1324 H 135.168 1.5566 -0.309115 0
M  V30 1325 H 135.189 3.41459 1.67887 0
M  V30 1326 H 134.701 3.88006 -0.0855019 0
M  V30 1327 H 132.802 2.99534 2.21608 0
M  V30 1328 H 132.915 4.62128 1.2639 0
M  V30 1329 H 131.279 2.42947 0.764767 0
M  V30 1330 H 132.062 3.37813 -0.611341 0
M  V30 1331 N 134.507 -0.190092 1.56449 0
M  V30 1332 C 135.735 -0.925772 1.85033 0
M  V30 1333 C 136.15 -1.76638 0.666658 0
M  V30 1334 O 135.507 -1.78822 -0.364565 0
M  V30 1335 C 135.558 -1.81786 3.12468 0
M  V30 1336 O 135.279 -1.01118 4.26271 0
M  V30 1337 C 136.78 -2.6648 3.54265 0
M  V30 1338 H 134 -0.269872 0.614337 0
M  V30 1339 H 136.544 -0.195837 2.0356 0
M  V30 1340 H 134.699 -2.50136 2.95822 0
M  V30 1341 H 135.113 -1.61956 4.98869 0
M  V30 1342 H 136.587 -3.24722 4.46385 0
M  V30 1343 H 137.064 -3.40434 2.77491 0
M  V30 1344 H 137.67 -2.03493 3.73458 0
M  V30 1345 N 135.985 -1.50799 -0.457987 0
M  V30 1346 C 137.233 -1.62121 -1.2067 0
M  V30 1347 C 137.554 -0.329793 -1.92191 0
M  V30 1348 O 136.824 0.653409 -1.84682 0
M  V30 1349 H 135.404 -0.597441 -0.448411 0
M  V30 1350 H 138.066 -1.87637 -0.527096 0
M  V30 1351 H 137.162 -2.43882 -1.94751 0
M  V30 1352 N 137.463 0.71206 -1.40597 0
M  V30 1353 C 138.426 1.80785 -1.40888 0
M  V30 1354 C 139.426 1.57937 -0.302103 0
M  V30 1355 O 140.616 1.64913 -0.561182 0
M  V30 1356 C 137.748 3.18927 -1.20409 0
M  V30 1357 H 138.941 1.81924 -2.38419 0
M  V30 1358 H 136.494 0.91805 -1.26497 0
M  V30 1359 H 137.229 3.23436 -0.236522 0
M  V30 1360 H 137.014 3.36911 -2.00582 0
M  V30 1361 H 138.504 3.98949 -1.23408 0
M  V30 1362 N 138.941 1.26152 0.944643 0
M  V30 1363 C 140.357 1.03189 1.21754 0
M  V30 1364 C 140.557 -0.245112 2.00004 0
M  V30 1365 O 139.613 -0.955176 2.33736 0
M  V30 1366 C 140.926 2.26119 1.98219 0
M  V30 1367 C 142.474 2.30984 2.11224 0
M  V30 1368 C 142.949 3.53597 2.91089 0
M  V30 1369 N 144.44 3.54053 2.98664 0
M  V30 1370 C 145.175 4.45593 3.60881 0
M  V30 1371 N 144.671 5.47416 4.24626 0
M  V30 1372 N 146.464 4.33252 3.58119 0
M  V30 1373 H 138.615 2.08177 0.421437 0
M  V30 1374 H 140.878 0.914723 0.248969 0
M  V30 1375 H 140.584 3.18984 1.48128 0
M  V30 1376 H 140.458 2.3009 2.98895 0
M  V30 1377 H 142.845 1.38635 2.60508 0
M  V30 1378 H 142.926 2.31026 1.09821 0
M  V30 1379 H 142.57 4.46273 2.42493 0
M  V30 1380 H 142.5 3.50802 3.92741 0
M  V30 1381 H 144.991 2.80403 2.53343 0
M  V30 1382 H 145.304 6.13459 4.69987 0
M  V30 1383 H 143.649 5.51278 4.23223 0
M  V30 1384 H 146.84 3.52924 3.0751 0
M  V30 1385 H 147.013 5.04786 4.06319 0
M  V30 1386 N 140.419 -1.14872 1.07899 0
M  V30 1387 C 141.349 -2.2193 0.725887 0
M  V30 1388 C 142.33 -1.67622 -0.28927 0
M  V30 1389 O 143.515 -1.93533 -0.160787 0
M  V30 1390 C 140.645 -3.47061 0.128856 0
M  V30 1391 C 139.599 -4.14363 1.07178 0
M  V30 1392 C 138.925 -5.33636 0.337229 0
M  V30 1393 C 140.225 -4.63492 2.40775 0
M  V30 1394 H 141.919 -2.51724 1.62097 0
M  V30 1395 H 139.465 -1.20991 0.780838 0
M  V30 1396 H 141.418 -4.21199 -0.130147 0
M  V30 1397 H 140.142 -3.16617 -0.80134 0
M  V30 1398 H 138.801 -3.42173 1.3158 0
M  V30 1399 H 138.449 -4.99449 -0.596606 0
M  V30 1400 H 138.149 -5.79609 0.965788 0
M  V30 1401 H 139.673 -6.10539 0.0861567 0
M  V30 1402 H 141.087 -5.2913 2.20669 0
M  V30 1403 H 139.484 -5.20148 2.99276 0
M  V30 1404 H 140.554 -3.78834 3.02676 0
M  V30 1405 N 141.898 -0.863906 -1.31812 0
M  V30 1406 C 142.828 -0.330843 -2.31144 0
M  V30 1407 C 143.809 0.575005 -1.60087 0
M  V30 1408 O 144.994 0.493304 -1.8783 0
M  V30 1409 C 142.124 0.47374 -3.44054 0
M  V30 1410 C 141.078 -0.338481 -4.26659 0
M  V30 1411 C 140.404 0.591412 -5.31419 0
M  V30 1412 C 141.704 -1.56926 -4.98168 0
M  V30 1413 H 143.398 -1.16086 -2.75979 0
M  V30 1414 H 140.944 -0.559657 -1.32679 0
M  V30 1415 H 142.897 0.857143 -4.12591 0
M  V30 1416 H 141.621 1.33721 -2.9797 0
M  V30 1417 H 140.28 -0.703754 -3.59782 0
M  V30 1418 H 139.928 1.45199 -4.81587 0
M  V30 1419 H 139.628 0.0519022 -5.87577 0
M  V30 1420 H 141.152 0.97179 -6.02817 0
M  V30 1421 H 142.566 -1.25764 -5.59336 0
M  V30 1422 H 140.963 -2.04739 -5.64094 0
M  V30 1423 H 142.033 -2.32544 -4.25501 0
M  V30 1424 N 143.376 1.44774 -0.622745 0
M  V30 1425 C 144.601 2.06999 -0.128968 0
M  V30 1426 C 145.026 1.4617 1.1839 0
M  V30 1427 O 144.384 0.560007 1.72434 0
M  V30 1428 C 144.432 3.60595 -0.0188351 0
M  V30 1429 O 143.536 3.99398 1.02739 0
M  V30 1430 H 142.877 0.659047 -0.0809544 0
M  V30 1431 H 145.407 1.85784 -0.85705 0
M  V30 1432 H 145.417 4.07627 0.174476 0
M  V30 1433 H 144.092 4.04252 -0.977384 0
M  V30 1434 H 142.669 3.64011 0.809326 0
M  V30 1435 N 144.854 0.36279 1.53368 0
M  V30 1436 C 145.786 -0.519668 2.23231 0
M  V30 1437 C 146.799 -1.04844 1.24546 0
M  V30 1438 O 147.988 -0.955296 1.50786 0
M  V30 1439 C 145.088 -1.72995 2.9142 0
M  V30 1440 C 144.261 -1.33316 4.16588 0
M  V30 1441 C 143.32 -2.40521 4.68013 0
M  V30 1442 O 142.346 -2.03027 5.3176 0
M  V30 1443 N 143.548 -3.72065 4.45587 0
M  V30 1444 H 146.313 0.078751 2.99597 0
M  V30 1445 H 143.874 0.187833 1.60807 0
M  V30 1446 H 145.866 -2.44184 3.22733 0
M  V30 1447 H 144.436 -2.2353 2.18525 0
M  V30 1448 H 143.656 -0.451236 3.91609 0
M  V30 1449 H 144.944 -1.04432 4.97967 0
M  V30 1450 H 144.342 -4.05304 3.94646 0
M  V30 1451 H 142.899 -4.39366 4.81457 0
M  V30 1452 N 146.332 -1.57332 0.0918853 0
M  V30 1453 C 147.609 -1.85691 -0.614668 0
M  V30 1454 C 147.989 -0.988146 -1.86545 0
M  V30 1455 O 147.337 -0.0597055 -2.28422 0
M  V30 1456 C 147.547 -3.36294 -0.933126 0
M  V30 1457 C 148.895 -4.04275 -1.29796 0
M  V30 1458 O 149.919 -3.41157 -1.02424 0
M  V30 1459 O 148.778 -5.1564 -1.81047 0
M  V30 1460 H 145.872 -0.767802 -0.307261 0
M  V30 1461 H 148.418 -1.69244 0.12434 0
M  V30 1462 H 147.19 -3.91273 -0.0456404 0
M  V30 1463 H 146.813 -3.58076 -1.72822 0
M  V30 1464 N 147.81 0.181792 -1.56548 0
M  V30 1465 C 149.035 0.920019 -1.85877 0
M  V30 1466 C 149.46 1.75494 -0.677021 0
M  V30 1467 O 148.818 1.77399 0.374056 0
M  V30 1468 C 148.866 1.78112 -3.13542 0
M  V30 1469 O 147.97 2.88152 -2.95029 0
M  V30 1470 H 147.311 0.258334 -0.611686 0
M  V30 1471 H 149.841 0.183092 -2.03779 0
M  V30 1472 H 149.851 2.18314 -3.44678 0
M  V30 1473 H 148.526 1.16777 -3.99169 0
M  V30 1474 H 147.103 2.51609 -2.75222 0
M  V30 1475 N 149.288 1.51039 0.449983 0
M  V30 1476 C 150.534 1.63322 1.20223 0
M  V30 1477 C 150.867 0.34241 1.91158 0
M  V30 1478 O 150.142 -0.657344 1.83055 0
M  V30 1479 C 150.425 2.82801 2.22925 0
M  V30 1480 C 150.278 4.21823 1.56157 0
M  V30 1481 C 151.597 2.97807 3.24035 0
M  V30 1482 H 148.716 0.594407 0.435718 0
M  V30 1483 H 151.358 1.83489 0.493136 0
M  V30 1484 H 149.508 2.65738 2.834 0
M  V30 1485 H 151.18 4.50526 0.991162 0
M  V30 1486 H 149.423 4.25105 0.864172 0
M  V30 1487 H 150.094 5.01391 2.30891 0
M  V30 1488 H 152.57 3.13497 2.73603 0
M  V30 1489 H 151.446 3.82992 3.93202 0
M  V30 1490 H 151.707 2.09328 3.89402 0
M  V30 1491 N 150.766 -0.704594 1.40972 0
M  V30 1492 C 151.729 -1.80035 1.41845 0
M  V30 1493 C 152.729 -1.57774 0.310474 0
M  V30 1494 O 153.919 -1.64613 0.56992 0
M  V30 1495 C 151.051 -3.18284 1.22098 0
M  V30 1496 H 152.244 -1.80658 2.3938 0
M  V30 1497 H 149.797 -0.911329 1.26982 0
M  V30 1498 H 150.532 -3.23306 0.253672 0
M  V30 1499 H 150.317 -3.35843 2.02366 0
M  V30 1500 H 151.807 -3.98289 1.25522 0
M  V30 1501 N 152.244 -1.26651 -0.937939 0
M  V30 1502 C 153.207 -1.08546 -2.01867 0
M  V30 1503 C 154.207 -0.0327327 -1.60767 0
M  V30 1504 O 155.397 -0.276427 -1.71993 0
M  V30 1505 C 152.529 -0.651711 -3.34613 0
M  V30 1506 H 153.722 -2.04502 -2.1936 0
M  V30 1507 H 151.275 -1.09294 -1.11734 0
M  V30 1508 H 152.01 0.309696 -3.22818 0
M  V30 1509 H 151.795 -1.41189 -3.65798 0
M  V30 1510 H 153.285 -0.546973 -4.14002 0
M  V30 1511 N 153.722 1.14298 -1.08507 0
M  V30 1512 C 154.947 1.8976 -0.837001 0
M  V30 1513 C 155.372 1.78097 0.605228 0
M  V30 1514 O 154.73 1.12188 1.4242 0
M  V30 1515 C 154.778 3.37685 -1.26495 0
M  V30 1516 O 153.882 4.10281 -0.417514 0
M  V30 1517 H 153.223 0.590365 -0.303917 0
M  V30 1518 H 155.753 1.44672 -1.44676 0
M  V30 1519 H 155.763 3.88501 -1.24625 0
M  V30 1520 H 154.438 3.45492 -2.31534 0
M  V30 1521 H 153.015 3.69536 -0.499722 0
M  V30 1522 N 155.201 0.870884 1.31352 0
M  V30 1523 C 156.429 0.49677 2.00848 0
M  V30 1524 C 156.844 -0.910998 1.65367 0
M  V30 1525 O 156.201 -1.59696 0.883374 0
M  V30 1526 C 156.252 0.645308 3.55694 0
M  V30 1527 O 155.973 1.99764 3.89905 0
M  V30 1528 C 157.474 0.272326 4.42463 0
M  V30 1529 H 154.694 0.193462 0.642506 0
M  V30 1530 H 157.238 1.1723 1.67563 0
M  V30 1531 H 155.393 0.0173176 3.87396 0
M  V30 1532 H 155.807 2.00607 4.84621 0
M  V30 1533 H 157.281 0.427208 5.50344 0
M  V30 1534 H 157.758 -0.788587 4.32062 0
M  V30 1535 H 158.364 0.876054 4.1618 0
M  V30 1536 N 156.679 -1.44442 0.630414 0
M  V30 1537 C 157.589 -2.34476 -0.0761693 0
M  V30 1538 C 158.605 -1.52576 -0.836449 0
M  V30 1539 O 159.781 -1.85307 -0.788874 0
M  V30 1540 C 156.846 -3.30545 -1.04599 0
M  V30 1541 C 155.907 -4.28352 -0.28516 0
M  V30 1542 C 155.14 -5.19831 -1.20878 0
M  V30 1543 O 155.363 -5.15223 -2.44747 0
M  V30 1544 O 154.297 -5.97892 -0.693491 0
M  V30 1545 H 158.123 -2.96345 0.664324 0
M  V30 1546 H 155.708 -1.44203 0.39061 0
M  V30 1547 H 157.59 -3.89681 -1.60396 0
M  V30 1548 H 156.265 -2.7121 -1.76711 0
M  V30 1549 H 155.172 -3.72764 0.315837 0
M  V30 1550 H 156.505 -4.90605 0.395924 0
M  V30 1551 N 158.157 -0.370918 -1.53173 0
M  V30 1552 C 159.104 0.473035 -2.259 0
M  V30 1553 C 160.074 1.07311 -1.26781 0
M  V30 1554 O 161.259 1.1046 -1.55574 0
M  V30 1555 C 158.399 1.60405 -3.05556 0
M  V30 1556 C 157.512 1.02863 -4.19575 0
M  V30 1557 C 156.647 2.12918 -4.86661 0
M  V30 1558 C 155.686 1.52869 -5.92704 0
M  V30 1559 N 154.823 2.56779 -6.53459 0
M  V30 1560 H 159.663 -0.153649 -2.97604 0
M  V30 1561 H 157.2 -0.0875946 -1.46839 0
M  V30 1562 H 159.158 2.27034 -3.50016 0
M  V30 1563 H 157.788 2.20131 -2.36097 0
M  V30 1564 H 156.84 0.252465 -3.79561 0
M  V30 1565 H 158.152 0.549642 -4.95762 0
M  V30 1566 H 157.306 2.87356 -5.34333 0
M  V30 1567 H 156.045 2.6417 -4.09958 0
M  V30 1568 H 155.05 0.769479 -5.44389 0
M  V30 1569 H 156.275 1.02435 -6.7133 0
M  V30 1570 H 154.221 3.07235 -5.79606 0
M  V30 1571 H 154.138 2.13583 -7.25202 0
M  V30 1572 H 155.406 3.30903 -7.05779 0
M  V30 1573 N 159.635 1.57281 -0.100228 0
M  V30 1574 C 160.863 1.98879 0.570509 0
M  V30 1575 C 161.278 0.979476 1.61405 0
M  V30 1576 O 160.635 -0.0302288 1.82475 0
M  V30 1577 C 160.686 3.4052 1.2136 0
M  V30 1578 O 160.407 4.37588 0.211786 0
M  V30 1579 C 161.908 3.97149 1.96945 0
M  V30 1580 H 159.128 0.653428 0.152555 0
M  V30 1581 H 161.672 2.03697 -0.18103 0
M  V30 1582 H 159.827 3.367 1.91603 0
M  V30 1583 H 160.241 5.20118 0.676607 0
M  V30 1584 H 161.715 4.98393 2.37294 0
M  V30 1585 H 162.192 3.3525 2.83733 0
M  V30 1586 H 162.798 4.04458 1.31506 0
M  V30 1587 N 161.113 -0.173488 1.56642 0
M  V30 1588 C 162.043 -1.2171 1.99271 0
M  V30 1589 C 163.024 -1.46289 0.867959 0
M  V30 1590 O 164.209 -1.5766 1.13388 0
M  V30 1591 C 161.339 -2.55651 2.35074 0
M  V30 1592 C 160.293 -2.45645 3.50489 0
M  V30 1593 C 159.619 -3.84056 3.72028 0
M  V30 1594 C 160.919 -1.96302 4.84007 0
M  V30 1595 H 162.613 -0.86275 2.867 0
M  V30 1596 H 160.159 -0.413571 1.37933 0
M  V30 1597 H 162.112 -3.2886 2.63494 0
M  V30 1598 H 160.836 -2.92869 1.44552 0
M  V30 1599 H 159.495 -1.7489 3.22194 0
M  V30 1600 H 159.143 -4.18664 2.788 0
M  V30 1601 H 158.843 -3.7823 4.49684 0
M  V30 1602 H 160.367 -4.58854 4.02846 0
M  V30 1603 H 161.781 -2.59284 5.11317 0
M  V30 1604 H 160.178 -2.01429 5.65284 0
M  V30 1605 H 161.248 -0.917226 4.76146 0
M  V30 1606 N 162.591 -1.51276 -0.441967 0
M  V30 1607 C 164.007 -1.39349 -0.778083 0
M  V30 1608 C 164.207 -0.472212 -1.95889 0
M  V30 1609 O 163.263 0.0743551 -2.5239 0
M  V30 1610 C 164.576 -2.81292 -1.0628 0
M  V30 1611 C 166.124 -2.9041 -1.16751 0
M  V30 1612 C 166.599 -4.33251 -1.48519 0
M  V30 1613 N 168.09 -4.36336 -1.55453 0
M  V30 1614 C 168.825 -5.43885 -1.81596 0
M  V30 1615 N 168.321 -6.61601 -2.05562 0
M  V30 1616 N 170.114 -5.3136 -1.8334 0
M  V30 1617 H 162.265 -2.09729 0.335774 0
M  V30 1618 H 164.528 -0.943925 0.0878028 0
M  V30 1619 H 164.234 -3.50678 -0.267905 0
M  V30 1620 H 164.108 -3.20334 -1.99163 0
M  V30 1621 H 166.495 -2.21225 -1.95304 0
M  V30 1622 H 166.576 -2.54871 -0.217801 0
M  V30 1623 H 166.22 -5.02984 -0.704958 0
M  V30 1624 H 166.15 -4.66299 -2.44689 0
M  V30 1625 H 168.641 -3.51466 -1.38853 0
M  V30 1626 H 168.954 -7.39361 -2.24867 0
M  V30 1627 H 167.299 -6.64725 -2.02894 0
M  V30 1628 H 170.49 -4.38382 -1.64132 0
M  V30 1629 H 170.663 -6.15258 -2.03377 0
M  V30 1630 N 164.069 0.697108 -1.41344 0
M  V30 1631 C 164.999 1.82353 -1.45841 0
M  V30 1632 C 165.98 1.67115 -0.317247 0
M  V30 1633 O 167.165 1.86871 -0.528474 0
M  V30 1634 C 164.295 3.20476 -1.33838 0
M  V30 1635 C 163.249 3.50415 -2.4575 0
M  V30 1636 C 162.575 4.87878 -2.18813 0
M  V30 1637 C 163.875 3.49546 -3.88091 0
M  V30 1638 H 165.569 1.78846 -2.40113 0
M  V30 1639 H 163.115 0.859028 -1.15571 0
M  V30 1640 H 165.068 3.98988 -1.35596 0
M  V30 1641 H 163.792 3.24604 -0.360498 0
M  V30 1642 H 162.451 2.74253 -2.43271 0
M  V30 1643 H 162.099 4.8863 -1.19371 0
M  V30 1644 H 161.799 5.08875 -2.93803 0
M  V30 1645 H 163.323 5.68702 -2.22284 0
M  V30 1646 H 164.737 4.18066 -3.92293 0
M  V30 1647 H 163.134 3.82075 -4.62751 0
M  V30 1648 H 164.204 2.48552 -4.16353 0
M  V30 1649 N 165.547 1.27147 0.931209 0
M  V30 1650 C 166.777 1.15914 1.71019 0
M  V30 1651 C 167.185 -0.287112 1.87009 0
M  V30 1652 O 166.528 -1.20761 1.38429 0
M  V30 1653 C 166.59 1.76647 3.13107 0
M  V30 1654 C 166.254 3.25807 3.20467 0
M  V30 1655 C 167.251 4.22489 3.02983 0
M  V30 1656 C 164.936 3.66452 3.43538 0
M  V30 1657 C 166.93 5.57794 3.08454 0
M  V30 1658 C 164.617 5.01888 3.48643 0
M  V30 1659 C 165.615 5.97369 3.31119 0
M  V30 1660 O 165.303 7.30337 3.35952 0
M  V30 1661 H 165.035 0.404062 0.54195 0
M  V30 1662 H 167.589 1.68457 1.17521 0
M  V30 1663 H 165.819 1.18578 3.68071 0
M  V30 1664 H 167.508 1.60179 3.72958 0
M  V30 1665 H 168.274 3.92425 2.85004 0
M  V30 1666 H 164.153 2.92611 3.5623 0
M  V30 1667 H 167.697 6.32298 2.94694 0
M  V30 1668 H 163.594 5.31609 3.66145 0
M  V30 1669 H 164.362 7.38739 3.5243 0
M  V30 1670 N 167.025 -1.13721 1.09112 0
M  V30 1671 C 168.302 -1.81155 0.737706 0
M  V30 1672 C 168.682 -1.96253 -0.777683 0
M  V30 1673 O 168.03 -1.52807 -1.69889 0
M  V30 1674 C 168.24 -3.16392 1.47299 0
M  V30 1675 C 169.588 -3.91787 1.63671 0
M  V30 1676 O 170.612 -3.26005 1.43524 0
M  V30 1677 O 169.471 -5.0977 1.96969 0
M  V30 1678 H 166.565 -0.783518 0.26463 0
M  V30 1679 H 169.111 -1.20676 1.19312 0
M  V30 1680 H 167.883 -3.0061 2.50498 0
M  V30 1681 H 167.506 -3.8457 1.00953 0
M  V30 1682 N 168.503 -0.877838 -1.30888 0
M  V30 1683 C 169.919 -0.570844 -1.49042 0
M  V30 1684 C 170.119 0.893159 -1.80624 0
M  V30 1685 O 169.175 1.67485 -1.88958 0
M  V30 1686 C 170.488 -1.47784 -2.61878 0
M  V30 1687 C 172.036 -1.48071 -2.75761 0
M  V30 1688 C 172.511 -2.37347 -3.91702 0
M  V30 1689 N 174.002 -2.35271 -3.99001 0
M  V30 1690 C 174.737 -3.01063 -4.88004 0
M  V30 1691 N 174.233 -3.76055 -5.81854 0
M  V30 1692 N 176.026 -2.90332 -4.81315 0
M  V30 1693 H 168.177 -1.82502 -1.0866 0
M  V30 1694 H 170.44 -0.780797 -0.537644 0
M  V30 1695 H 170.146 -2.51993 -2.45341 0
M  V30 1696 H 170.02 -1.18215 -3.58197 0
M  V30 1697 H 172.407 -0.446166 -2.91708 0
M  V30 1698 H 172.488 -1.81668 -1.80085 0
M  V30 1699 H 172.132 -3.40883 -3.76512 0
M  V30 1700 H 172.062 -2.01071 -4.86701 0
M  V30 1701 H 174.553 -1.80768 -3.3186 0
M  V30 1702 H 174.866 -4.23366 -6.46514 0
M  V30 1703 H 173.211 -3.80163 -5.81808 0
M  V30 1704 H 176.402 -2.31278 -4.06974 0
M  V30 1705 H 176.575 -3.41885 -5.50471 0
M  V30 1706 N 169.982 1.44106 -0.638065 0
M  V30 1707 C 171.398 1.56672 -0.304286 0
M  V30 1708 C 171.598 1.6244 1.19228 0
M  V30 1709 O 170.654 1.57121 1.9766 0
M  V30 1710 C 171.967 2.83503 -1.00231 0
M  V30 1711 C 173.515 2.97226 -0.981116 0
M  V30 1712 C 173.99 4.26868 -1.65974 0
M  V30 1713 N 175.481 4.33698 -1.62666 0
M  V30 1714 C 176.216 5.32745 -2.12063 0
M  V30 1715 N 175.712 6.38157 -2.6968 0
M  V30 1716 N 177.505 5.24299 -2.02651 0
M  V30 1717 H 169.656 1.38605 -1.60942 0
M  V30 1718 H 171.919 0.664661 -0.675965 0
M  V30 1719 H 171.625 2.85251 -2.0573 0
M  V30 1720 H 171.499 3.73251 -0.54439 0
M  V30 1721 H 173.886 2.95027 0.0654188 0
M  V30 1722 H 173.967 2.08808 -1.47759 0
M  V30 1723 H 173.611 4.29826 -2.70576 0
M  V30 1724 H 173.541 5.14156 -1.13804 0
M  V30 1725 H 176.032 3.58138 -1.20606 0
M  V30 1726 H 176.345 7.10029 -3.05087 0
M  V30 1727 H 174.69 6.38823 -2.73734 0
M  V30 1728 H 177.881 4.4086 -1.57353 0
M  V30 1729 H 178.054 6.01334 -2.41457 0
M  V30 1730 N 171.46 0.379036 1.52974 0
M  V30 1731 C 172.685 -0.209353 2.06341 0
M  V30 1732 C 173.11 -1.40583 1.24972 0
M  V30 1733 O 172.468 -1.79246 0.272155 0
M  V30 1734 C 172.516 -0.567786 3.56102 0
M  V30 1735 O 171.62 -1.66318 3.77375 0
M  V30 1736 H 170.961 -0.0272919 0.663439 0
M  V30 1737 H 173.491 0.543536 1.97248 0
M  V30 1738 H 173.501 -0.835003 3.99364 0
M  V30 1739 H 172.176 0.307013 4.14765 0
M  V30 1740 H 170.753 -1.39048 3.46006 0
M  V30 1741 N 172.938 -1.57226 0.108567 0
M  V30 1742 C 174.187 -1.94008 -0.551703 0
M  V30 1743 C 174.5 -0.993442 -1.68494 0
M  V30 1744 O 175.706 -1.25551 -2.40726 0
M  V30 1745 C 174.162 -3.44763 -1.03279 0
M  V30 1746 C 173.77 -4.47943 0.0714193 0
M  V30 1747 C 175.514 -3.90483 -1.66503 0
M  V30 1748 C 173.421 -5.89865 -0.425779 0
M  V30 1749 H 172.351 -0.724206 -0.209863 0
M  V30 1750 H 175.002 -1.82547 0.186741 0
M  V30 1751 H 173.384 -3.51422 -1.82533 0
M  V30 1752 H 174.558 -4.52942 0.847365 0
M  V30 1753 H 172.873 -4.11913 0.609669 0
M  V30 1754 H 175.47 -4.93925 -2.04798 0
M  V30 1755 H 175.813 -3.29877 -2.53942 0
M  V30 1756 H 176.346 -3.86581 -0.938074 0
M  V30 1757 H 173.085 -6.54202 0.412316 0
M  V30 1758 H 172.605 -5.88309 -1.16843 0
M  V30 1759 H 174.284 -6.40844 -0.890397 0
M  V30 1760 N 174.416 0.165178 -1.56732 0
M  V30 1761 C 175.663 0.880807 -1.8234 0
M  V30 1762 C 175.991 1.81977 -0.686621 0
M  V30 1763 O 175.246 1.92971 0.325697 0
M  V30 1764 C 175.545 1.70405 -3.1416 0
M  V30 1765 C 175.211 0.913475 -4.4155 0
M  V30 1766 C 173.873 0.695303 -4.7615 0
M  V30 1767 C 176.225 0.359349 -5.1996 0
M  V30 1768 C 173.553 -0.0879947 -5.86634 0
M  V30 1769 C 175.905 -0.410893 -6.31264 0
M  V30 1770 C 174.569 -0.639808 -6.64427 0
M  V30 1771 H 173.839 0.32231 -0.667231 0
M  V30 1772 H 176.486 0.145402 -1.90947 0
M  V30 1773 H 174.791 2.50903 -3.00923 0
M  V30 1774 H 176.488 2.26091 -3.31186 0
M  V30 1775 H 173.078 1.09357 -4.14414 0
M  V30 1776 H 177.262 0.515228 -4.93618 0
M  V30 1777 H 172.518 -0.27503 -6.10781 0
M  V30 1778 H 176.692 -0.847494 -6.91224 0
M  V30 1779 H 174.319 -1.24864 -7.49875 0
M  V30 1780 N 175.894 1.51508 0.433938 0
M  V30 1781 C 176.804 1.75917 1.5521 0
M  V30 1782 C 177.82 0.643545 1.61662 0
M  V30 1783 O 178.996 0.926183 1.7884 0
M  V30 1784 C 176.061 1.88213 2.91164 0
M  V30 1785 C 175.122 3.12074 2.94802 0
M  V30 1786 C 174.355 3.23774 4.24271 0
M  V30 1787 O 174.578 2.4133 5.16833 0
M  V30 1788 O 173.512 4.16774 4.34262 0
M  V30 1789 H 177.338 2.70777 1.37527 0
M  V30 1790 H 174.923 1.36051 0.617293 0
M  V30 1791 H 176.805 1.98267 3.71845 0
M  V30 1792 H 175.48 0.965413 3.08968 0
M  V30 1793 H 174.387 3.07497 2.13065 0
M  V30 1794 H 175.72 4.03446 2.81943 0
M  V30 1795 N 177.372 -0.689602 1.41712 0
M  V30 1796 C 178.335 -1.78521 1.43746 0
M  V30 1797 C 179.335 -1.57436 0.327191 0
M  V30 1798 O 180.525 -1.64 0.587348 0
M  V30 1799 C 177.657 -3.16971 1.25467 0
M  V30 1800 H 178.85 -1.78108 2.41283 0
M  V30 1801 H 176.403 -0.89781 1.27942 0
M  V30 1802 H 177.138 -3.23019 0.287948 0
M  V30 1803 H 176.923 -3.33678 2.05917 0
M  V30 1804 H 178.413 -3.96935 1.2974 0
M  V30 1805 N 178.85 -1.27639 -0.924453 0
M  V30 1806 C 180.096 -1.14336 -1.67497 0
M  V30 1807 C 180.429 0.309465 -1.91718 0
M  V30 1808 O 179.704 1.22608 -1.50989 0
M  V30 1809 C 179.987 -1.93096 -3.0395 0
M  V30 1810 C 179.84 -3.46381 -2.8695 0
M  V30 1811 C 181.159 -1.73798 -4.0433 0
M  V30 1812 H 178.278 -0.416728 -0.607871 0
M  V30 1813 H 180.92 -1.56832 -1.07256 0
M  V30 1814 H 179.07 -1.56982 -3.55372 0
M  V30 1815 H 180.742 -3.92343 -2.42621 0
M  V30 1816 H 178.985 -3.72557 -2.22225 0
M  V30 1817 H 179.656 -3.96735 -3.83804 0
M  V30 1818 H 182.132 -2.05293 -3.61931 0
M  V30 1819 H 181.008 -2.31294 -4.97789 0
M  V30 1820 H 181.269 -0.686725 -4.36734 0
M  V30 1821 N 180.328 1.1314 -1.09713 0
M  V30 1822 C 181.291 2.16831 -0.742751 0
M  V30 1823 C 182.291 1.59159 0.229129 0
M  V30 1824 O 183.481 1.74199 0.00693237 0
M  V30 1825 C 180.613 3.40756 -0.0989168 0
M  V30 1826 H 181.806 2.49695 -1.66109 0
M  V30 1827 H 179.359 1.2802 -0.896699 0
M  V30 1828 H 180.094 3.13485 0.830514 0
M  V30 1829 H 179.879 3.83888 -0.798265 0
M  V30 1830 H 181.369 4.17386 0.133524 0
M  V30 1831 N 181.806 0.884767 1.30421 0
M  V30 1832 C 182.738 0.308655 2.27112 0
M  V30 1833 C 183.751 -0.536655 1.53701 0
M  V30 1834 O 184.94 -0.35624 1.74909 0
M  V30 1835 C 182.04 -0.579782 3.33904 0
M  V30 1836 C 181.213 0.236417 4.36761 0
M  V30 1837 C 180.272 -0.582482 5.22966 0
M  V30 1838 O 179.298 -0.00525502 5.692 0
M  V30 1839 N 180.5 -1.89163 5.48815 0
M  V30 1840 H 183.265 1.13964 2.77186 0
M  V30 1841 H 180.826 0.747731 1.43599 0
M  V30 1842 H 182.818 -1.13366 3.88497 0
M  V30 1843 H 181.388 -1.31144 2.83761 0
M  V30 1844 H 180.608 0.97174 3.82035 0
M  V30 1845 H 181.896 0.795924 5.02536 0
M  V30 1846 H 181.294 -2.38352 5.13035 0
M  V30 1847 H 179.851 -2.39296 6.06284 0
M  V30 1848 N 183.284 -1.43765 0.645699 0
M  V30 1849 C 184.232 -2.32516 -0.0624849 0
M  V30 1850 C 185.226 -1.48183 -0.820855 0
M  V30 1851 O 186.432 -1.64439 -0.732106 0
M  V30 1852 H 182.807 -0.750989 -0.0389864 0
M  V30 1853 H 184.778 -2.89979 0.703892 0
M  V30 1854 C 183.527 -3.32389 -1.02044 0
M  V30 1855 H 182.85 -3.97301 -0.446312 0
M  V30 1856 H 184.29 -3.97138 -1.48517 0
M  V30 1857 C 182.749 -2.62416 -2.11281 0
M  V30 1858 O 183.279 -2.434 -3.19561 0
M  V30 1859 N 181.485 -2.21913 -1.87624 0
M  V30 1860 H 181.032 -2.37578 -0.995703 0
M  V30 1861 H 180.99 -1.75424 -2.6091 0
M  V30 1862 N 184.763 -0.387143 -1.52771 0
M  V30 1863 C 185.711 0.463953 -2.27926 0
M  V30 1864 C 186.705 1.06493 -1.31741 0
M  V30 1865 O 187.911 1.00565 -1.49287 0
M  V30 1866 H 184.286 0.16837 -0.732909 0
M  V30 1867 H 186.257 -0.19141 -2.97785 0
M  V30 1868 C 185.006 1.5803 -3.09713 0
M  V30 1869 H 184.329 1.12718 -3.83581 0
M  V30 1870 H 185.769 2.15008 -3.65442 0
M  V30 1871 C 184.228 2.53509 -2.2189 0
M  V30 1872 O 184.758 3.56863 -1.84422 0
M  V30 1873 N 182.964 2.23199 -1.86093 0
M  V30 1874 H 182.511 1.39185 -2.16761 0
M  V30 1875 H 182.469 2.87333 -1.27621 0
M  V30 1876 N 186.241 1.57166 -0.116904 0
M  V30 1877 C 187.481 1.97008 0.544715 0
M  V30 1878 C 187.845 0.998713 1.63981 0
M  V30 1879 O 189.046 1.28644 2.36018 0
M  V30 1880 C 187.317 3.41145 1.06559 0
M  V30 1881 S 188.876 4.02998 1.73603 0
M  V30 1882 H 185.694 0.688587 0.177112 0
M  V30 1883 H 188.296 1.94459 -0.201487 0
M  V30 1884 H 187 4.09592 0.257374 0
M  V30 1885 H 186.531 3.4734 1.84712 0
M  V30 1886 H 188.546 3.93585 3.02168 0
M  V30 1887 N 187.719 -0.156864 1.56817 0
M  V30 1888 C 188.651 -1.21883 1.94106 0
M  V30 1889 C 189.664 -1.3971 0.835754 0
M  V30 1890 O 190.853 -1.39457 1.11418 0
M  V30 1891 C 187.953 -2.58527 2.19127 0
M  V30 1892 C 187.126 -2.61809 3.50393 0
M  V30 1893 C 186.185 -3.7992 3.64071 0
M  V30 1894 O 185.211 -3.65249 4.36557 0
M  V30 1895 N 186.413 -4.96973 2.99997 0
M  V30 1896 H 189.178 -0.901974 2.85805 0
M  V30 1897 H 186.739 -0.346513 1.58148 0
M  V30 1898 H 188.731 -3.36034 2.25529 0
M  V30 1899 H 187.301 -2.82545 1.33742 0
M  V30 1900 H 186.521 -1.7029 3.5552 0
M  V30 1901 H 187.809 -2.61024 4.36742 0
M  V30 1902 H 187.207 -5.11794 2.41004 0
M  V30 1903 H 185.764 -5.7229 3.11974 0
M  V30 1904 N 189.197 -1.51736 -0.425897 0
M  V30 1905 C 190.474 -1.55519 -1.1863 0
M  V30 1906 C 190.854 -0.326219 -2.08564 0
M  V30 1907 O 190.202 0.688012 -2.17896 0
M  V30 1908 C 190.412 -2.87521 -1.9782 0
M  V30 1909 C 191.76 -3.39899 -2.54468 0
M  V30 1910 O 192.784 -2.89148 -2.08019 0
M  V30 1911 O 191.643 -4.2848 -3.39215 0
M  V30 1912 H 188.737 -0.625739 -0.540721 0
M  V30 1913 H 191.283 -1.64055 -0.434038 0
M  V30 1914 H 190.055 -3.68422 -1.31836 0
M  V30 1915 H 189.678 -2.822 -2.80088 0
M  V30 1916 N 190.675 0.682077 -1.42076 0
M  V30 1917 C 191.605 1.80796 -1.47767 0
M  V30 1918 C 192.586 1.6677 -0.334954 0
M  V30 1919 O 193.771 1.863 -0.548264 0
M  V30 1920 C 190.901 3.19038 -1.37229 0
M  V30 1921 C 189.855 3.47789 -2.49453 0
M  V30 1922 C 189.181 4.8553 -2.23975 0
M  V30 1923 C 190.481 3.45411 -3.91776 0
M  V30 1924 H 192.175 1.7629 -2.41997 0
M  V30 1925 H 189.721 0.846721 -1.16476 0
M  V30 1926 H 191.674 3.97528 -1.39821 0
M  V30 1927 H 190.398 3.24204 -0.394907 0
M  V30 1928 H 189.057 2.71657 -2.46166 0
M  V30 1929 H 188.705 4.87337 -1.24547 0
M  V30 1930 H 188.405 5.0573 -2.99184 0
M  V30 1931 H 189.929 5.66312 -2.28304 0
M  V30 1932 H 191.343 4.13882 -3.96705 0
M  V30 1933 H 189.74 3.77145 -4.66778 0
M  V30 1934 H 190.81 2.44122 -4.18966 0
M  V30 1935 N 192.153 1.28127 0.917671 0
M  V30 1936 C 193.063 1.13556 2.05286 0
M  V30 1937 C 194.079 0.0630914 1.73886 0
M  V30 1938 O 195.255 0.271598 1.9956 0
M  V30 1939 C 192.32 0.794676 3.3747 0
M  V30 1940 C 191.381 1.94909 3.82504 0
M  V30 1941 C 190.614 1.62437 5.0838 0
M  V30 1942 O 190.837 0.536905 5.67867 0
M  V30 1943 O 189.771 2.46677 5.4903 0
M  V30 1944 H 193.597 2.08844 2.20495 0
M  V30 1945 H 191.182 1.07409 1.03845 0
M  V30 1946 H 193.064 0.618344 4.16839 0
M  V30 1947 H 191.739 -0.128581 3.23445 0
M  V30 1948 H 190.646 2.18055 3.03978 0
M  V30 1949 H 191.979 2.85291 4.01086 0
M  V30 1950 N 193.631 -1.12557 1.10312 0
M  V30 1951 C 194.856 -1.88405 0.867085 0
M  V30 1952 C 195.281 -1.79038 -0.576817 0
M  V30 1953 O 194.639 -1.14439 -1.40618 0
M  V30 1954 C 194.687 -3.3563 1.31851 0
M  V30 1955 O 193.791 -4.09565 0.482734 0
M  V30 1956 H 193.132 -0.585455 0.313271 0
M  V30 1957 H 195.662 -1.42352 1.4696 0
M  V30 1958 H 195.672 -3.86469 1.3079 0
M  V30 1959 H 194.347 -3.41765 2.37001 0
M  V30 1960 H 192.924 -3.68695 0.558448 0
M  V30 1961 N 195.109 -0.891671 -1.2995 0
M  V30 1962 C 196.039 -0.379797 -2.30391 0
M  V30 1963 C 197.02 0.540919 -1.6127 0
M  V30 1964 O 198.205 0.453352 -1.88834 0
M  V30 1965 C 195.335 0.400654 -3.44981 0
M  V30 1966 C 194.289 -0.428905 -4.25846 0
M  V30 1967 C 193.615 0.478557 -5.32554 0
M  V30 1968 C 194.915 -1.67458 -4.94727 0
M  V30 1969 H 196.609 -1.21914 -2.73454 0
M  V30 1970 H 194.155 -0.587675 -1.31462 0
M  V30 1971 H 196.108 0.769434 -4.14316 0
M  V30 1972 H 194.832 1.27371 -3.0074 0
M  V30 1973 H 193.491 -0.779911 -3.58208 0
M  V30 1974 H 193.139 1.34951 -4.84559 0
M  V30 1975 H 192.839 -0.0727433 -5.87555 0
M  V30 1976 H 194.363 0.843705 -6.04743 0
M  V30 1977 H 195.777 -1.376 -5.56542 0
M  V30 1978 H 194.174 -2.16659 -5.59624 0
M  V30 1979 H 195.244 -2.41518 -4.20473 0
M  V30 1980 N 196.587 1.43421 -0.653314 0
M  V30 1981 C 197.517 2.33487 0.0246656 0
M  V30 1982 C 198.498 1.49475 0.811863 0
M  V30 1983 O 199.683 1.78139 0.773322 0
M  V30 1984 C 196.813 3.32841 0.99166 0
M  V30 1985 C 195.767 4.26842 0.314568 0
M  V30 1986 C 195.093 5.16236 1.39302 0
M  V30 1987 C 196.393 5.16243 -0.793095 0
M  V30 1988 H 198.087 2.90427 -0.727481 0
M  V30 1989 H 195.633 1.39649 -0.351287 0
M  V30 1990 H 197.586 3.94747 1.47487 0
M  V30 1991 H 196.31 2.74158 1.77497 0
M  V30 1992 H 194.969 3.663 -0.148199 0
M  V30 1993 H 194.617 4.53891 2.16776 0
M  V30 1994 H 194.317 5.79948 0.945223 0
M  V30 1995 H 195.841 5.81015 1.87759 0
M  V30 1996 H 197.255 5.71958 -0.392039 0
M  V30 1997 H 195.652 5.88676 -1.16536 0
M  V30 1998 H 196.722 4.55927 -1.65103 0
M  V30 1999 N 198.065 0.39524 1.52563 0
M  V30 2000 C 198.995 -0.428384 2.29537 0
M  V30 2001 C 199.976 -1.05831 1.33169 0
M  V30 2002 O 201.161 -1.06995 1.62067 0
M  V30 2003 C 198.291 -1.55274 3.10656 0
M  V30 2004 C 197.245 -1.04855 4.14957 0
M  V30 2005 C 196.571 -2.26543 4.84337 0
M  V30 2006 C 197.871 -0.112324 5.22179 0
M  V30 2007 H 199.565 0.213867 2.98635 0
M  V30 2008 H 197.111 0.104298 1.43622 0
M  V30 2009 H 199.064 -2.1358 3.63265 0
M  V30 2010 H 197.788 -2.22266 2.39302 0
M  V30 2011 H 196.447 -0.487985 3.63338 0
M  V30 2012 H 196.095 -2.92059 4.09525 0
M  V30 2013 H 195.795 -1.93466 5.54837 0
M  V30 2014 H 197.319 -2.85481 5.39753 0
M  V30 2015 H 198.733 -0.603752 5.70112 0
M  V30 2016 H 197.13 0.128968 5.99961 0
M  V30 2017 H 198.2 0.837052 4.77621 0
M  V30 2018 N 199.544 -1.57102 0.125237 0
M  V30 2019 C 200.791 -1.95407 -0.531248 0
M  V30 2020 C 201.119 -1.0089 -1.66287 0
M  V30 2021 O 200.374 -0.0339431 -1.95671 0
M  V30 2022 C 200.673 -3.40096 -1.09862 0
M  V30 2023 C 200.339 -4.50815 -0.0876989 0
M  V30 2024 C 199.001 -4.80824 0.19026 0
M  V30 2025 C 201.353 -5.17724 0.600902 0
M  V30 2026 C 198.681 -5.75058 1.163 0
M  V30 2027 C 201.033 -6.13005 1.56231 0
M  V30 2028 C 199.697 -6.41403 1.8482 0
M  V30 2029 H 198.967 -0.715046 -0.194397 0
M  V30 2030 H 201.614 -1.90373 0.207463 0
M  V30 2031 H 199.919 -3.41855 -1.91422 0
M  V30 2032 H 201.616 -3.6705 -1.61478 0
M  V30 2033 H 198.206 -4.27444 -0.314528 0
M  V30 2034 H 202.39 -4.94691 0.399333 0
M  V30 2035 H 197.646 -5.95362 1.39117 0
M  V30 2036 H 201.82 -6.63934 2.10153 0
M  V30 2037 H 199.447 -7.14229 2.60349 0
M  V30 2038 N 201.022 0.148545 -1.56898 0
M  V30 2039 C 201.952 1.18524 -2.01182 0
M  V30 2040 C 202.933 1.4489 -0.891123 0
M  V30 2041 O 204.118 1.55836 -1.15882 0
M  V30 2042 C 201.248 2.51879 -2.39112 0
M  V30 2043 C 200.202 2.40038 -3.54353 0
M  V30 2044 C 199.528 3.78089 -3.78091 0
M  V30 2045 C 200.828 1.88577 -4.87069 0
M  V30 2046 H 202.522 0.817029 -2.88036 0
M  V30 2047 H 200.068 0.391575 -1.38574 0
M  V30 2048 H 202.021 3.24627 -2.68692 0
M  V30 2049 H 200.745 2.90532 -1.49193 0
M  V30 2050 H 199.404 1.69742 -3.24936 0
M  V30 2051 H 199.052 4.14175 -2.85426 0
M  V30 2052 H 198.752 3.71028 -4.55645 0
M  V30 2053 H 200.276 4.52387 -4.10095 0
M  V30 2054 H 201.69 2.51117 -5.15377 0
M  V30 2055 H 200.087 1.9241 -5.68417 0
M  V30 2056 H 201.157 0.84136 -4.77545 0
M  V30 2057 N 202.5 1.5196 0.417844 0
M  V30 2058 C 203.432 1.70895 1.52733 0
M  V30 2059 C 204.445 0.589405 1.51756 0
M  V30 2060 O 205.634 0.864312 1.56179 0
M  V30 2061 C 202.734 1.72627 2.91639 0
M  V30 2062 C 201.907 3.01479 3.16905 0
M  V30 2063 C 200.966 2.95139 4.35637 0
M  V30 2064 O 199.992 3.69059 4.3334 0
M  V30 2065 N 201.194 2.12328 5.40275 0
M  V30 2066 H 203.959 2.66612 1.36888 0
M  V30 2067 H 201.52 1.50089 0.607037 0
M  V30 2068 H 203.512 1.65928 3.6912 0
M  V30 2069 H 202.082 0.844216 3.00985 0
M  V30 2070 H 201.302 3.21895 2.27546 0
M  V30 2071 H 202.59 3.86736 3.30625 0
M  V30 2072 H 201.988 1.51685 5.44985 0
M  V30 2073 H 200.545 2.11494 6.16534 0
M  V30 2074 N 203.978 -0.674533 1.42435 0
M  V30 2075 C 204.925 -1.78807 1.45934 0
M  V30 2076 C 205.895 -1.63157 0.311271 0
M  V30 2077 O 207.08 -1.83707 0.515383 0
M  V30 2078 C 204.22 -3.16839 1.36773 0
M  V30 2079 C 203.333 -3.43774 2.61617 0
M  V30 2080 C 202.468 -4.71536 2.44597 0
M  V30 2081 C 201.507 -4.91505 3.64814 0
M  V30 2082 N 200.644 -6.10508 3.46734 0
M  V30 2083 H 205.484 -1.75151 2.41093 0
M  V30 2084 H 203.021 -0.85504 1.19697 0
M  V30 2085 H 204.979 -3.96606 1.29459 0
M  V30 2086 H 203.609 -3.19619 0.452089 0
M  V30 2087 H 202.661 -2.58259 2.79297 0
M  V30 2088 H 203.973 -3.54423 3.50978 0
M  V30 2089 H 203.127 -5.59393 2.3487 0
M  V30 2090 H 201.866 -4.6317 1.52726 0
M  V30 2091 H 200.871 -4.0209 3.74972 0
M  V30 2092 H 202.096 -5.01716 4.57665 0
M  V30 2093 H 200.042 -6.03315 2.5758 0
M  V30 2094 H 199.959 -6.2202 4.29682 0
M  V30 2095 H 201.227 -7.01044 3.40819 0
M  V30 2096 N 205.456 -1.28612 -0.910864 0
M  V30 2097 C 206.681 -1.1891 -1.69927 0
M  V30 2098 C 207.106 0.248372 -1.86453 0
M  V30 2099 O 206.464 1.17961 -1.37676 0
M  V30 2100 C 206.512 -1.89578 -3.06745 0
M  V30 2101 O 205.616 -1.20521 -3.94396 0
M  V30 2102 H 204.957 -0.412632 -0.520222 0
M  V30 2103 H 207.487 -1.69985 -1.1387 0
M  V30 2104 H 207.497 -1.97597 -3.56958 0
M  V30 2105 H 206.172 -2.94136 -2.94035 0
M  V30 2106 H 204.749 -1.20684 -3.52831 0
M  V30 2107 N 206.934 1.1197 -1.10907 0
M  V30 2108 C 207.881 2.17846 -0.762345 0
M  V30 2109 C 208.851 1.63995 0.263599 0
M  V30 2110 O 210.036 1.90273 0.141773 0
M  V30 2111 C 207.176 3.44487 -0.205651 0
M  V30 2112 C 206.289 4.12369 -1.28748 0
M  V30 2113 C 205.424 5.26674 -0.691919 0
M  V30 2114 C 204.463 5.86431 -1.75399 0
M  V30 2115 N 203.6 6.92142 -1.17833 0
M  V30 2116 H 208.44 2.46851 -1.6694 0
M  V30 2117 H 205.977 1.21188 -0.833776 0
M  V30 2118 H 207.935 4.16981 0.135037 0
M  V30 2119 H 206.565 3.15884 0.664613 0
M  V30 2120 H 205.617 3.38003 -1.74522 0
M  V30 2121 H 206.929 4.52844 -2.09125 0
M  V30 2122 H 206.083 6.05953 -0.300963 0
M  V30 2123 H 204.822 4.8749 0.143232 0
M  V30 2124 H 203.827 5.05835 -2.15432 0
M  V30 2125 H 205.052 6.27685 -2.59208 0
M  V30 2126 H 202.998 6.54985 -0.364725 0
M  V30 2127 H 202.915 7.31242 -1.91887 0
M  V30 2128 H 204.183 7.75237 -0.81408 0
M  V30 2129 N 208.412 0.89855 1.29475 0
M  V30 2130 C 209.359 0.373819 2.27753 0
M  V30 2131 C 210.329 -0.543444 1.56958 0
M  V30 2132 O 211.514 -0.468934 1.84948 0
M  V30 2133 C 208.654 -0.393648 3.42848 0
M  V30 2134 C 207.767 0.554379 4.28428 0
M  V30 2135 C 206.902 -0.230026 5.30702 0
M  V30 2136 C 205.941 0.712599 6.07938 0
M  V30 2137 N 205.078 -0.0373283 7.0209 0
M  V30 2138 H 209.918 1.21699 2.72017 0
M  V30 2139 H 207.455 0.611456 1.33789 0
M  V30 2140 H 209.413 -0.85466 4.08352 0
M  V30 2141 H 208.043 -1.20128 2.99615 0
M  V30 2142 H 207.095 1.13391 3.63107 0
M  V30 2143 H 208.407 1.27597 4.82204 0
M  V30 2144 H 207.561 -0.752288 6.02018 0
M  V30 2145 H 206.3 -0.984758 4.77654 0
M  V30 2146 H 205.305 1.24637 5.35486 0
M  V30 2147 H 206.53 1.46664 6.63074 0
M  V30 2148 H 204.476 -0.774348 6.51414 0
M  V30 2149 H 204.393 0.624374 7.53417 0
M  V30 2150 H 205.661 -0.539891 7.77628 0
M  V30 2151 N 209.89 -1.43072 0.660911 0
M  V30 2152 C 210.84 -2.27948 -0.04847 0
M  V30 2153 C 211.824 -1.40325 -0.787246 0
M  V30 2154 O 213.016 -1.63893 -0.668446 0
M  V30 2155 C 210.145 -3.28143 -1.00881 0
M  V30 2156 C 209.231 -4.23252 -0.268108 0
M  V30 2157 N 209.622 -5.00656 0.719528 0
M  V30 2158 C 207.92 -4.43092 -0.508493 0
M  V30 2159 C 208.621 -5.70019 1.15988 0
M  V30 2160 N 207.597 -5.41364 0.492584 0
M  V30 2161 H 211.399 -2.85213 0.709279 0
M  V30 2162 H 208.913 -1.54869 0.488822 0
M  V30 2163 H 210.91 -3.87736 -1.53188 0
M  V30 2164 H 209.57 -2.7244 -1.76654 0
M  V30 2165 H 210.581 -5.06115 1.09855 0
M  V30 2166 H 207.258 -3.98449 -1.24679 0
M  V30 2167 H 208.648 -6.4214 1.97751 0
M  V30 2168 N 211.368 -0.403325 -1.52352 0
M  V30 2169 C 212.298 0.416205 -2.29761 0
M  V30 2170 C 213.279 1.05123 -1.33728 0
M  V30 2171 O 214.464 1.06134 -1.62632 0
M  V30 2172 C 211.594 1.53624 -3.11475 0
M  V30 2173 C 210.548 1.02653 -4.15507 0
M  V30 2174 C 209.874 2.23971 -4.85532 0
M  V30 2175 C 211.174 0.08463 -5.22231 0
M  V30 2176 H 212.868 -0.229701 -2.98518 0
M  V30 2177 H 210.414 -0.111913 -1.43564 0
M  V30 2178 H 212.367 2.1165 -3.64393 0
M  V30 2179 H 211.091 2.20994 -2.40477 0
M  V30 2180 H 209.75 0.46871 -3.63591 0
M  V30 2181 H 209.398 2.89883 -4.11068 0
M  V30 2182 H 209.098 1.90521 -5.55856 0
M  V30 2183 H 210.622 2.82614 -5.41259 0
M  V30 2184 H 212.036 0.573509 -5.70424 0
M  V30 2185 H 210.433 -0.160783 -5.99885 0
M  V30 2186 H 211.503 -0.86237 -4.7717 0
M  V30 2187 N 212.846 1.57033 -0.133567 0
M  V30 2188 C 214.074 2.00044 0.528195 0
M  V30 2189 C 214.489 1.01349 1.59291 0
M  V30 2190 O 213.846 0.00848369 1.82498 0
M  V30 2191 C 213.897 3.43018 1.1411 0
M  V30 2192 O 213.618 4.37939 0.11892 0
M  V30 2193 C 215.119 4.01237 1.88477 0
M  V30 2194 H 212.339 0.656517 0.138661 0
M  V30 2195 H 214.883 2.03267 -0.224196 0
M  V30 2196 H 213.038 3.40688 1.84418 0
M  V30 2197 H 213.452 5.21436 0.56613 0
M  V30 2198 H 214.926 5.03314 2.26669 0
M  V30 2199 H 215.403 3.41193 2.76558 0
M  V30 2200 H 216.009 4.07156 1.22898 0
M  V30 2201 N 214.325 -0.140222 1.56975 0
M  V30 2202 C 215.602 -0.880769 1.74648 0
M  V30 2203 C 215.982 -1.99036 0.703404 0
M  V30 2204 O 215.33 -2.26821 -0.27648 0
M  V30 2205 C 215.54 -1.417 3.18939 0
M  V30 2206 C 216.888 -1.87774 3.80823 0
M  V30 2207 O 217.912 -1.51427 3.2241 0
M  V30 2208 O 216.771 -2.54827 4.83452 0
M  V30 2209 H 213.865 -0.416713 0.714338 0
M  V30 2210 H 216.411 -0.125618 1.69234 0
M  V30 2211 H 215.183 -0.619902 3.86359 0
M  V30 2212 H 214.806 -2.23546 3.28805 0
M  V30 2213 N 215.803 -1.52179 -0.40978 0
M  V30 2214 C 216.751 -1.76086 -1.51975 0
M  V30 2215 C 217.745 -0.627964 -1.57331 0
M  V30 2216 O 218.951 -0.809993 -1.60745 0
M  V30 2217 H 215.326 -0.556829 -0.505416 0
M  V30 2218 H 217.297 -2.69077 -1.28996 0
M  V30 2219 C 216.046 -1.92799 -2.8935 0
M  V30 2220 H 215.369 -2.79392 -2.85972 0
M  V30 2221 H 216.809 -2.13527 -3.66309 0
M  V30 2222 C 215.268 -0.694923 -3.29655 0
M  V30 2223 O 215.798 0.13751 -4.01465 0
M  V30 2224 N 214.004 -0.53101 -2.85707 0
M  V30 2225 H 213.551 -1.20952 -2.27439 0
M  V30 2226 H 213.509 0.292718 -3.13034 0
M  V30 2227 N 217.281 0.66697 -1.42791 0
M  V30 2228 C 218.191 1.80962 -1.49299 0
M  V30 2229 C 219.207 1.69775 -0.381108 0
M  V30 2230 O 220.383 1.91188 -0.633188 0
M  V30 2231 C 217.448 3.17156 -1.40045 0
M  V30 2232 C 216.509 3.40242 -2.6179 0
M  V30 2233 C 215.742 4.69939 -2.52969 0
M  V30 2234 O 215.965 5.48372 -1.56985 0
M  V30 2235 O 214.899 4.94441 -3.43237 0
M  V30 2236 H 218.725 1.78427 -2.45759 0
M  V30 2237 H 216.31 0.823713 -1.24641 0
M  V30 2238 H 218.192 3.98413 -1.37276 0
M  V30 2239 H 216.867 3.20312 -0.467138 0
M  V30 2240 H 215.774 2.58802 -2.70134 0
M  V30 2241 H 217.107 3.41923 -3.54047 0
M  V30 2242 N 218.759 1.29093 0.90403 0
M  V30 2243 C 220.006 1.16813 1.65411 0
M  V30 2244 C 220.334 -0.28128 1.92455 0
M  V30 2245 O 219.589 -1.22006 1.53013 0
M  V30 2246 C 219.888 1.92224 3.01305 0
M  V30 2247 C 219.554 3.41968 2.93885 0
M  V30 2248 C 218.216 3.82807 2.91569 0
M  V30 2249 C 220.568 4.37409 2.83413 0
M  V30 2250 C 217.896 5.1741 2.76594 0
M  V30 2251 C 220.248 5.72097 2.69977 0
M  V30 2252 C 218.912 6.12199 2.66024 0
M  V30 2253 H 218.182 0.42745 0.605283 0
M  V30 2254 H 220.829 1.59981 1.05254 0
M  V30 2255 H 219.134 1.41635 3.65304 0
M  V30 2256 H 220.831 1.80131 3.58265 0
M  V30 2257 H 217.421 3.09504 2.96488 0
M  V30 2258 H 221.605 4.06813 2.84283 0
M  V30 2259 H 216.861 5.47596 2.71935 0
M  V30 2260 H 221.035 6.45704 2.60844 0
M  V30 2261 H 218.662 7.16448 2.54178 0
M  V30 2262 N 220.237 -1.11381 1.11499 0
M  V30 2263 C 221.184 -2.17439 0.773887 0
M  V30 2264 C 222.154 -1.64132 -0.254899 0
M  V30 2265 O 223.339 -1.90345 -0.13168 0
M  V30 2266 C 220.479 -3.44373 0.223917 0
M  V30 2267 C 219.592 -4.1168 1.30934 0
M  V30 2268 C 218.727 -5.263 0.71984 0
M  V30 2269 C 217.766 -5.85493 1.78507 0
M  V30 2270 N 216.903 -6.91507 1.21502 0
M  V30 2271 H 221.743 -2.45962 1.68246 0
M  V30 2272 H 219.28 -1.20744 0.840191 0
M  V30 2273 H 221.238 -4.17047 -0.112921 0
M  V30 2274 H 219.868 -3.16232 -0.647851 0
M  V30 2275 H 218.92 -3.37073 1.76312 0
M  V30 2276 H 220.232 -4.51729 2.11524 0
M  V30 2277 H 219.386 -6.05785 0.333094 0
M  V30 2278 H 218.125 -4.87559 -0.117377 0
M  V30 2279 H 217.13 -5.04686 2.18111 0
M  V30 2280 H 218.355 -6.26301 2.62533 0
M  V30 2281 H 216.301 -6.54783 0.399455 0
M  V30 2282 H 216.218 -7.30214 1.95763 0
M  V30 2283 H 217.486 -7.74795 0.855181 0
M  V30 2284 N 221.715 -0.905404 -1.28997 0
M  V30 2285 C 222.992 -0.453513 -1.9027 0
M  V30 2286 C 223.372 1.06721 -1.82137 0
M  V30 2287 O 222.72 1.91159 -1.25182 0
M  V30 2288 C 222.93 -0.974494 -3.35119 0
M  V30 2289 C 224.278 -1.0216 -4.12127 0
M  V30 2290 O 225.302 -0.922557 -3.44046 0
M  V30 2291 O 224.161 -1.17121 -5.33802 0
M  V30 2292 H 221.255 -0.142347 -0.814657 0
M  V30 2293 H 223.801 -0.995642 -1.37423 0
M  V30 2294 H 222.573 -2.01848 -3.35221 0
M  V30 2295 H 222.196 -0.412706 -3.95452 0
M  V30 2296 N 223.193 1.4272 -0.668489 0
M  V30 2297 C 224.604 1.84793 -0.266151 0
M  V30 2298 C 224.955 1.55959 1.19043 0
M  V30 2299 O 224.08 1.01622 1.91055 0
M  V30 2300 C 224.675 3.35436 -0.476271 0
M  V30 2301 C 223.234 3.76182 -0.128113 0
M  V30 2302 C 222.381 2.66344 -0.771777 0
M  V30 2303 H 225.332 1.32656 -0.871098 0
M  V30 2304 H 225.353 3.79515 0.273561 0
M  V30 2305 H 224.865 3.5639 -1.53647 0
M  V30 2306 H 222.966 3.60836 0.928891 0
M  V30 2307 H 223.079 4.75766 -0.564231 0
M  V30 2308 H 221.443 2.53885 -0.203652 0
M  V30 2309 H 222.226 2.90123 -1.83531 0
M  V30 2310 N 224.671 0.411399 1.52136 0
M  V30 2311 C 225.581 -0.419774 2.30814 0
M  V30 2312 C 226.597 -1.0515 1.38634 0
M  V30 2313 O 227.773 -1.05252 1.71709 0
M  V30 2314 C 224.838 -1.52019 3.11594 0
M  V30 2315 C 223.899 -0.91129 4.19516 0
M  V30 2316 C 223.132 -1.95927 4.96436 0
M  V30 2317 O 223.355 -3.17775 4.73683 0
M  V30 2318 O 222.289 -1.56423 5.81219 0
M  V30 2319 H 226.115 0.221805 3.02889 0
M  V30 2320 H 223.7 0.174547 1.48377 0
M  V30 2321 H 225.582 -2.15898 3.61892 0
M  V30 2322 H 224.257 -2.14633 2.42311 0
M  V30 2323 H 223.164 -0.235157 3.7336 0
M  V30 2324 H 224.497 -0.32904 4.91099 0
M  V30 2325 N 226.149 -1.5696 0.141893 0
M  V30 2326 C 227.377 -2.00322 -0.517579 0
M  V30 2327 C 227.792 -1.02193 -1.58752 0
M  V30 2328 O 227.149 -0.0181619 -1.82491 0
M  V30 2329 C 227.2 -3.43618 -1.12289 0
M  V30 2330 O 226.921 -4.37995 -0.0956929 0
M  V30 2331 C 228.422 -4.02231 -1.86347 0
M  V30 2332 H 225.642 -0.657243 -0.135177 0
M  V30 2333 H 228.186 -2.03146 0.234973 0
M  V30 2334 H 226.341 -3.41662 -1.82609 0
M  V30 2335 H 226.755 -5.21729 -0.538469 0
M  V30 2336 H 228.229 -5.04509 -2.23997 0
M  V30 2337 H 228.706 -3.42655 -2.74744 0
M  V30 2338 H 229.312 -4.07802 -1.20737 0
M  V30 2339 N 227.627 0.131896 -1.57047 0
M  V30 2340 C 228.875 0.840269 -1.83804 0
M  V30 2341 C 229.196 1.81017 -0.72512 0
M  V30 2342 O 228.466 1.94272 0.251995 0
M  V30 2343 H 227.046 0.313294 -0.678127 0
M  V30 2344 H 229.708 0.122294 -1.94516 0
M  V30 2345 H 228.804 1.39335 -2.79271 0
M  V30 2346 N 229.106 1.52395 0.401703 0
M  V30 2347 C 230.053 1.76268 1.48991 0
M  V30 2348 C 231.023 0.605386 1.54675 0
M  V30 2349 O 232.208 0.843742 1.7113 0
M  V30 2350 C 229.348 1.92592 2.86361 0
M  V30 2351 C 228.461 3.20259 2.89928 0
M  V30 2352 C 227.596 3.26972 4.18644 0
M  V30 2353 C 226.635 4.48812 4.16214 0
M  V30 2354 N 225.772 4.52877 5.36514 0
M  V30 2355 H 230.612 2.6914 1.27935 0
M  V30 2356 H 228.149 1.33355 0.620871 0
M  V30 2357 H 230.107 2.0004 3.66115 0
M  V30 2358 H 228.737 1.03093 3.05895 0
M  V30 2359 H 227.789 3.21945 2.02621 0
M  V30 2360 H 229.101 4.10056 2.83999 0
M  V30 2361 H 228.255 3.33533 5.06794 0
M  V30 2362 H 226.994 2.35126 4.27278 0
M  V30 2363 H 225.999 4.4239 3.26453 0
M  V30 2364 H 227.224 5.41961 4.09213 0
M  V30 2365 H 225.17 3.63917 5.45802 0
M  V30 2366 H 225.087 5.36529 5.32609 0
M  V30 2367 H 226.355 4.63676 6.26597 0
M  V30 2368 N 230.584 -0.659388 1.43143 0
M  V30 2369 C 231.812 -1.44723 1.47861 0
M  V30 2370 C 232.227 -1.88563 0.0945886 0
M  V30 2371 O 231.584 -1.59108 -0.893915 0
M  V30 2372 C 231.635 -2.68627 2.41913 0
M  V30 2373 O 231.356 -2.26623 3.74932 0
M  V30 2374 C 232.857 -3.62045 2.55809 0
M  V30 2375 H 230.077 -0.444801 0.502387 0
M  V30 2376 H 232.621 -0.808916 1.87821 0
M  V30 2377 H 230.776 -3.28613 2.05164 0
M  V30 2378 H 231.19 -3.06745 4.2545 0
M  V30 2379 H 232.664 -4.45666 3.25708 0
M  V30 2380 H 233.141 -4.08981 1.60099 0
M  V30 2381 H 233.747 -3.07944 2.93344 0
M  V30 2382 N 232.062 -1.29571 -0.897171 0
M  V30 2383 C 233.302 -1.18959 -1.66217 0
M  V30 2384 C 233.666 0.254271 -1.90309 0
M  V30 2385 O 234.867 0.483407 -2.64417 0
M  V30 2386 C 233.138 -1.98302 -2.9734 0
M  V30 2387 S 234.697 -2.04253 -3.88364 0
M  V30 2388 H 231.515 -0.424137 -0.570639 0
M  V30 2389 H 234.117 -1.6389 -1.06585 0
M  V30 2390 H 232.821 -3.02342 -2.77521 0
M  V30 2391 H 232.352 -1.53986 -3.62011 0
M  V30 2392 H 234.367 -1.16105 -4.82425 0
M  V30 2393 N 233.54 1.10788 -1.12088 0
M  V30 2394 C 234.47 2.19083 -0.807755 0
M  V30 2395 C 235.451 1.6858 0.226859 0
M  V30 2396 O 236.636 1.93997 0.0888475 0
M  V30 2397 C 233.766 3.46344 -0.257576 0
M  V30 2398 C 232.72 4.101 -1.22483 0
M  V30 2399 C 232.046 5.32016 -0.535052 0
M  V30 2400 C 233.346 4.54236 -2.57811 0
M  V30 2401 H 235.04 2.45534 -1.71328 0
M  V30 2402 H 232.586 1.1801 -0.825205 0
M  V30 2403 H 234.539 4.21392 -0.0262679 0
M  V30 2404 H 233.263 3.19373 0.683278 0
M  V30 2405 H 231.922 3.37054 -1.44189 0
M  V30 2406 H 231.57 5.01319 0.410827 0
M  V30 2407 H 231.27 5.75625 -1.18024 0
M  V30 2408 H 232.794 6.09799 -0.312695 0
M  V30 2409 H 234.208 5.20575 -2.40155 0
M  V30 2410 H 232.605 5.08682 -3.18375 0
M  V30 2411 H 233.675 3.6734 -3.16528 0
M  V30 2412 N 235.018 0.912232 1.28515 0
M  V30 2413 C 235.948 0.416403 2.29757 0
M  V30 2414 C 236.929 -0.515194 1.6211 0
M  V30 2415 O 238.114 -0.423253 1.89532 0
M  V30 2416 C 235.244 -0.34572 3.45575 0
M  V30 2417 C 234.198 0.496599 4.25109 0
M  V30 2418 C 233.524 -0.393771 5.33248 0
M  V30 2419 C 234.824 1.75307 4.92001 0
M  V30 2420 H 236.518 1.26249 2.7148 0
M  V30 2421 H 234.064 0.608515 1.30511 0
M  V30 2422 H 236.017 -0.703422 4.15488 0
M  V30 2423 H 234.741 -1.2257 3.02728 0
M  V30 2424 H 233.4 0.8368 3.56922 0
M  V30 2425 H 233.048 -1.27225 4.86644 0
M  V30 2426 H 232.748 0.166209 5.87365 0
M  V30 2427 H 234.272 -0.747389 6.06009 0
M  V30 2428 H 235.686 1.46437 5.54283 0
M  V30 2429 H 234.083 2.25534 5.56106 0
M  V30 2430 H 235.153 2.48176 4.16577 0
M  V30 2431 N 236.496 -1.42363 0.676048 0
M  V30 2432 C 237.443 -2.308 -0.00150904 0
M  V30 2433 C 238.413 -1.46032 -0.791444 0
M  V30 2434 O 239.598 -1.74861 -0.76344 0
M  V30 2435 C 236.738 -3.31883 -0.945919 0
M  V30 2436 C 235.851 -4.31741 -0.149675 0
M  V30 2437 C 234.986 -5.19898 -1.08995 0
M  V30 2438 C 234.025 -6.11434 -0.285465 0
M  V30 2439 N 233.162 -6.92138 -1.17851 0
M  V30 2440 H 238.002 -2.88187 0.758455 0
M  V30 2441 H 235.539 -1.41952 0.38576 0
M  V30 2442 H 237.497 -3.89019 -1.50731 0
M  V30 2443 H 236.127 -2.76093 -1.6725 0
M  V30 2444 H 235.179 -3.76713 0.528359 0
M  V30 2445 H 236.491 -4.96534 0.474866 0
M  V30 2446 H 235.645 -5.81772 -1.72123 0
M  V30 2447 H 234.384 -4.55284 -1.74837 0
M  V30 2448 H 233.389 -5.48627 0.359018 0
M  V30 2449 H 234.614 -6.78097 0.368883 0
M  V30 2450 H 232.56 -6.30152 -1.82332 0
M  V30 2451 H 232.477 -7.53542 -0.609082 0
M  V30 2452 H 233.745 -7.58499 -1.79722 0
M  V30 2453 N 237.974 -0.419461 -1.51915 0
M  V30 2454 C 238.937 0.389116 -2.25873 0
M  V30 2455 C 239.937 0.964924 -1.28631 0
M  V30 2456 O 241.127 0.842179 -1.52489 0
M  V30 2457 C 238.259 1.54874 -3.03689 0
M  V30 2458 H 239.452 -0.258799 -2.98781 0
M  V30 2459 H 237.005 -0.172209 -1.55348 0
M  V30 2460 H 237.74 2.23323 -2.35154 0
M  V30 2461 H 237.525 1.14223 -3.75094 0
M  V30 2462 H 239.015 2.12046 -3.59759 0
M  V30 2463 N 239.452 1.56882 -0.150215 0
M  V30 2464 C 240.385 2.12712 0.826358 0
M  V30 2465 C 241.363 1.05154 1.24022 0
M  V30 2466 O 242.547 1.33004 1.33575 0
M  V30 2467 C 239.674 2.64945 2.11002 0
M  V30 2468 C 238.72 3.8468 1.84183 0
M  V30 2469 S 239.553 5.25502 1.02995 0
M  V30 2470 C 240.709 5.81125 2.32474 0
M  V30 2471 H 240.942 2.95214 0.351598 0
M  V30 2472 H 238.475 1.54267 0.0641211 0
M  V30 2473 H 240.433 2.95689 2.84742 0
M  V30 2474 H 239.094 1.82568 2.55593 0
M  V30 2475 H 238.287 4.19482 2.79375 0
M  V30 2476 H 237.889 3.54714 1.1855 0
M  V30 2477 H 240.181 5.92753 3.281 0
M  V30 2478 H 241.124 6.78625 2.02171 0
M  V30 2479 H 241.532 5.09392 2.43269 0
M  V30 2480 N 240.93 -0.123565 1.57115 0
M  V30 2481 C 241.86 -1.15309 2.03042 0
M  V30 2482 C 242.841 -1.43454 0.914061 0
M  V30 2483 O 244.026 -1.53973 1.18347 0
M  V30 2484 C 241.156 -2.48043 2.43089 0
M  V30 2485 C 240.11 -2.3437 3.58127 0
M  V30 2486 C 239.436 -3.72026 3.84059 0
M  V30 2487 C 240.736 -1.80804 4.90007 0
M  V30 2488 H 242.43 -0.771102 2.893 0
M  V30 2489 H 239.976 -0.369479 1.39179 0
M  V30 2490 H 241.929 -3.20311 2.73823 0
M  V30 2491 H 240.653 -2.88122 1.53796 0
M  V30 2492 H 239.312 -1.64551 3.27595 0
M  V30 2493 H 238.96 -4.09582 2.91979 0
M  V30 2494 H 238.66 -3.63732 4.6149 0
M  V30 2495 H 240.184 -4.45806 4.1724 0
M  V30 2496 H 241.598 -2.42886 5.19307 0
M  V30 2497 H 239.995 -1.83343 5.71407 0
M  V30 2498 H 241.065 -0.76528 4.78823 0
M  V30 2499 N 242.408 -1.52605 -0.393616 0
M  V30 2500 C 243.356 -1.77688 -1.50099 0
M  V30 2501 C 244.35 -0.644615 -1.56656 0
M  V30 2502 O 245.556 -0.826997 -1.59877 0
M  V30 2503 H 241.931 -0.562159 -0.499481 0
M  V30 2504 H 243.902 -2.7043 -1.26135 0
M  V30 2505 C 242.651 -1.95858 -2.87289 0
M  V30 2506 H 241.974 -2.8241 -2.82992 0
M  V30 2507 H 243.414 -2.174 -3.64024 0
M  V30 2508 C 241.873 -0.729848 -3.28899 0
M  V30 2509 O 242.403 0.0949217 -4.01588 0
M  V30 2510 N 240.609 -0.561283 -2.85128 0
M  V30 2511 H 240.156 -1.23357 -2.26143 0
M  V30 2512 H 240.114 0.2595 -3.13327 0
M  V30 2513 N 243.887 0.651787 -1.4349 0
M  V30 2514 C 244.817 1.77621 -1.51569 0
M  V30 2515 C 245.798 1.66022 -0.370253 0
M  V30 2516 O 246.983 1.85095 -0.587658 0
M  V30 2517 C 244.113 3.16056 -1.43966 0
M  V30 2518 C 243.067 3.4242 -2.56774 0
M  V30 2519 C 242.393 4.8067 -2.34223 0
M  V30 2520 C 243.693 3.37023 -3.99015 0
M  V30 2521 H 245.387 1.71117 -2.45681 0
M  V30 2522 H 242.933 0.821825 -1.18246 0
M  V30 2523 H 244.886 3.94472 -1.48221 0
M  V30 2524 H 243.61 3.23293 -0.463586 0
M  V30 2525 H 242.269 2.66375 -2.51873 0
M  V30 2526 H 241.917 4.84585 -1.34856 0
M  V30 2527 H 241.617 4.9927 -3.09844 0
M  V30 2528 H 243.141 5.61342 -2.40265 0
M  V30 2529 H 244.555 4.05374 -4.05395 0
M  V30 2530 H 242.952 3.67159 -4.74673 0
M  V30 2531 H 244.022 2.3518 -4.2405 0
M  V30 2532 N 245.365 1.30045 0.890287 0
M  V30 2533 C 246.315 1.12592 1.9826 0
M  V30 2534 C 247.299 0.0426021 1.60844 0
M  V30 2535 O 248.491 0.265346 1.75 0
M  V30 2536 C 245.62 0.814301 3.33503 0
M  V30 2537 C 244.706 1.93761 3.7725 0
M  V30 2538 N 245.097 3.18232 3.93143 0
M  V30 2539 C 243.395 1.83277 4.06602 0
M  V30 2540 C 244.096 3.9158 4.30163 0
M  V30 2541 N 243.072 3.19591 4.3973 0
M  V30 2542 H 246.874 2.07003 2.08631 0
M  V30 2543 H 244.388 1.21307 1.07974 0
M  V30 2544 H 246.385 0.67029 4.11476 0
M  V30 2545 H 245.045 -0.121797 3.24471 0
M  V30 2546 H 246.056 3.53581 3.78419 0
M  V30 2547 H 242.733 0.97001 4.06075 0
M  V30 2548 H 244.123 4.98744 4.50226 0
M  V30 2549 N 246.843 -1.10192 1.12674 0
M  V30 2550 C 248.12 -1.78717 0.794965 0
M  V30 2551 C 248.5 -1.98628 -0.714853 0
M  V30 2552 O 247.848 -1.58135 -1.64941 0
M  V30 2553 C 248.058 -3.11546 1.5729 0
M  V30 2554 C 249.406 -3.86382 1.76052 0
M  V30 2555 O 250.43 -3.21274 1.53823 0
M  V30 2556 O 249.289 -5.03246 2.13087 0
M  V30 2557 H 246.383 -0.774702 0.289423 0
M  V30 2558 H 248.929 -1.16819 1.23091 0
M  V30 2559 H 247.701 -2.92489 2.59935 0
M  V30 2560 H 247.324 -3.81164 1.13137 0
M  V30 2561 N 248.321 -0.919034 -1.28029 0
M  V30 2562 C 249.569 -0.553838 -1.94363 0
M  V30 2563 C 249.89 0.906357 -1.72656 0
M  V30 2564 O 249.16 1.64143 -1.0693 0
M  V30 2565 H 247.74 -0.201834 -0.719216 0
M  V30 2566 H 250.402 -1.16954 -1.55909 0
M  V30 2567 H 249.498 -0.752758 -3.02886 0
M  V30 2568 N 249.799 1.42003 -0.683588 0
M  V30 2569 C 250.731 2.29183 0.0283068 0
M  V30 2570 C 251.744 1.4415 0.756611 0
M  V30 2571 O 252.933 1.67779 0.609306 0
M  V30 2572 C 250.033 3.21765 1.06398 0
M  V30 2573 C 249.206 4.35496 0.407723 0
M  V30 2574 C 248.265 5.08737 1.34437 0
M  V30 2575 O 247.291 5.62948 0.841318 0
M  V30 2576 N 248.493 5.15075 2.67728 0
M  V30 2577 H 251.258 2.9092 -0.720105 0
M  V30 2578 H 248.819 1.53025 -0.528682 0
M  V30 2579 H 250.811 3.6763 1.69204 0
M  V30 2580 H 249.381 2.61418 1.71404 0
M  V30 2581 H 248.601 3.92165 -0.400012 0
M  V30 2582 H 249.889 5.08776 -0.0490956 0
M  V30 2583 H 249.287 4.72457 3.11129 0
M  V30 2584 H 247.844 5.64556 3.2576 0
M  V30 2585 N 251.277 0.427512 1.51691 0
M  V30 2586 C 252.225 -0.403359 2.29076 0
M  V30 2587 C 253.219 -1.02962 1.34518 0
M  V30 2588 O 254.425 -0.965715 1.51901 0
M  V30 2589 H 250.8 -0.148879 0.737115 0
M  V30 2590 H 252.771 0.270295 2.97173 0
M  V30 2591 C 251.52 -1.49763 3.13794 0
M  V30 2592 H 250.843 -1.02508 3.86435 0
M  V30 2593 H 252.283 -2.05244 3.71014 0
M  V30 2594 C 250.742 -2.47536 2.28533 0
M  V30 2595 O 251.272 -3.51848 1.93819 0
M  V30 2596 N 249.478 -2.18187 1.91945 0
M  V30 2597 H 249.025 -1.33389 2.20375 0
M  V30 2598 H 248.983 -2.83848 1.35195 0
M  V30 2599 N 252.755 -1.56801 0.158532 0
M  V30 2600 C 253.983 -2.00859 -0.496303 0
M  V30 2601 C 254.398 -1.03871 -1.57659 0
M  V30 2602 O 253.755 -0.0375165 -1.82461 0
M  V30 2603 C 253.806 -3.4479 -1.08638 0
M  V30 2604 O 253.527 -4.38072 -0.0492322 0
M  V30 2605 C 255.028 -4.04185 -1.8207 0
M  V30 2606 H 252.248 -0.65864 -0.128199 0
M  V30 2607 H 254.792 -2.02885 0.256506 0
M  V30 2608 H 252.947 -3.43579 -1.78975 0
M  V30 2609 H 253.361 -5.2227 -0.483102 0
M  V30 2610 H 254.835 -5.06857 -2.18633 0
M  V30 2611 H 255.312 -3.45549 -2.71095 0
M  V30 2612 H 255.918 -4.0906 -1.16405 0
M  V30 2613 N 254.233 0.115231 -1.57178 0
M  V30 2614 C 255.461 0.836437 -1.89239 0
M  V30 2615 C 255.876 1.73256 -0.750175 0
M  V30 2616 O 255.233 1.80357 0.278832 0
M  V30 2617 C 255.284 1.66671 -3.20785 0
M  V30 2618 O 255.005 0.806652 -4.3061 0
M  V30 2619 C 256.506 2.49274 -3.66575 0
M  V30 2620 H 253.726 0.240253 -0.626514 0
M  V30 2621 H 256.27 0.0984932 -2.04263 0
M  V30 2622 H 254.425 2.35737 -3.0742 0
M  V30 2623 H 254.839 1.37969 -5.06028 0
M  V30 2624 H 256.313 3.03055 -4.6137 0
M  V30 2625 H 256.79 3.26807 -2.93417 0
M  V30 2626 H 257.396 1.85443 -3.82741 0
M  V30 2627 N 255.711 1.52812 0.385517 0
M  V30 2628 C 256.96 1.67249 1.12741 0
M  V30 2629 C 257.273 0.4205 1.91027 0
M  V30 2630 O 258.479 0.445064 2.67827 0
M  V30 2631 C 256.935 2.95583 2.05326 0
M  V30 2632 C 256.543 4.27974 1.32447 0
M  V30 2633 C 258.287 3.19386 2.7963 0
M  V30 2634 C 256.194 5.47412 2.23818 0
M  V30 2635 H 255.124 0.6231 0.424573 0
M  V30 2636 H 257.775 1.79309 0.389924 0
M  V30 2637 H 256.157 2.77277 2.82725 0
M  V30 2638 H 257.331 4.56844 0.602495 0
M  V30 2639 H 255.646 4.10459 0.700885 0
M  V30 2640 H 258.243 4.05801 3.48181 0
M  V30 2641 H 258.586 2.34604 3.43899 0
M  V30 2642 H 259.119 3.38274 2.09322 0
M  V30 2643 H 255.858 6.34612 1.64157 0
M  V30 2644 H 255.378 5.22849 2.93921 0
M  V30 2645 H 257.057 5.81423 2.83824 0
M  V30 2646 N 257.189 -0.644168 1.43834 0
M  V30 2647 C 258.6 -1.22554 1.40845 0
M  V30 2648 C 258.951 -1.9585 0.117115 0
M  V30 2649 O 258.076 -2.01734 -0.783086 0
M  V30 2650 C 258.671 -2.22907 2.55143 0
M  V30 2651 C 257.23 -2.76501 2.5539 0
M  V30 2652 C 256.377 -1.51287 2.32396 0
M  V30 2653 H 259.328 -0.43563 1.52604 0
M  V30 2654 H 259.349 -3.05259 2.2715 0
M  V30 2655 H 258.861 -1.69533 3.49114 0
M  V30 2656 H 256.962 -3.33914 1.65324 0
M  V30 2657 H 257.075 -3.23429 3.53455 0
M  V30 2658 H 255.439 -1.78957 1.81236 0
M  V30 2659 H 256.222 -0.998336 3.28463 0
M  V30 2660 N 258.668 -1.30515 -0.883378 0
M  V30 2661 C 259.598 -1.19607 -2.00541 0
M  V30 2662 C 260.579 -0.086346 -1.69881 0
M  V30 2663 O 261.764 -0.268654 -1.92333 0
M  V30 2664 C 258.894 -0.888758 -3.35736 0
M  V30 2665 C 257.848 -1.95659 -3.8066 0
M  V30 2666 C 257.174 -1.50224 -5.13164 0
M  V30 2667 C 258.474 -3.36788 -3.99213 0
M  V30 2668 H 260.168 -2.13476 -2.09925 0
M  V30 2669 H 257.714 -1.02775 -1.00863 0
M  V30 2670 H 259.667 -0.799094 -4.13754 0
M  V30 2671 H 258.391 0.0856125 -3.26488 0
M  V30 2672 H 257.05 -2.03591 -3.04871 0
M  V30 2673 H 256.698 -0.516092 -5.00345 0
M  V30 2674 H 256.398 -2.2165 -5.44192 0
M  V30 2675 H 257.922 -1.42639 -5.93706 0
M  V30 2676 H 259.336 -3.31605 -4.67665 0
M  V30 2677 H 257.733 -4.06314 -4.41621 0
M  V30 2678 H 258.803 -3.78561 -3.03017 0
M  V30 2679 N 260.146 1.09593 -1.13257 0
M  V30 2680 C 261.076 2.18214 -0.830946 0
M  V30 2681 C 262.057 1.68812 0.208966 0
M  V30 2682 O 263.242 1.9408 0.0682666 0
M  V30 2683 C 260.372 3.46051 -0.294296 0
M  V30 2684 C 259.326 4.08778 -1.26826 0
M  V30 2685 C 258.652 5.31419 -0.591449 0
M  V30 2686 C 259.952 4.51476 -2.62615 0
M  V30 2687 H 261.646 2.43703 -1.73923 0
M  V30 2688 H 259.192 1.17128 -0.837675 0
M  V30 2689 H 261.145 4.2134 -0.0709606 0
M  V30 2690 H 259.869 3.20079 0.649366 0
M  V30 2691 H 258.528 3.35505 -1.47756 0
M  V30 2692 H 258.176 5.01727 0.357633 0
M  V30 2693 H 257.876 5.74341 -1.24123 0
M  V30 2694 H 259.4 6.09433 -0.377355 0
M  V30 2695 H 260.814 5.17999 -2.45663 0
M  V30 2696 H 259.211 5.05277 -3.23752 0
M  V30 2697 H 260.281 3.63962 -3.20406 0
M  V30 2698 N 261.624 0.925811 1.2754 0
M  V30 2699 C 262.554 0.440748 2.29303 0
M  V30 2700 C 263.535 -0.497971 1.62648 0
M  V30 2701 O 264.72 -0.403126 1.8997 0
M  V30 2702 C 261.85 -0.309048 3.45922 0
M  V30 2703 C 260.804 0.54166 4.24559 0
M  V30 2704 C 260.13 -0.337191 5.33636 0
M  V30 2705 C 261.43 1.80516 4.90114 0
M  V30 2706 H 263.124 1.29121 2.70126 0
M  V30 2707 H 260.67 0.622323 1.29858 0
M  V30 2708 H 262.623 -0.659315 4.1621 0
M  V30 2709 H 261.347 -1.19352 3.04011 0
M  V30 2710 H 260.006 0.874609 3.56014 0
M  V30 2711 H 259.654 -1.22056 4.87966 0
M  V30 2712 H 259.354 0.228497 5.87156 0
M  V30 2713 H 260.878 -0.683072 6.06767 0
M  V30 2714 H 262.292 1.52307 5.52698 0
M  V30 2715 H 260.689 2.3142 5.53683 0
M  V30 2716 H 261.759 2.52581 4.13921 0
M  V30 2717 N 263.102 -1.41638 0.69111 0
M  V30 2718 C 264.012 -2.34588 0.0233487 0
M  V30 2719 C 265.028 -1.55987 -0.770984 0
M  V30 2720 O 266.204 -1.88486 -0.709569 0
M  V30 2721 C 263.269 -3.34684 -0.904851 0
M  V30 2722 C 262.33 -4.29176 -0.103225 0
M  V30 2723 C 261.563 -5.2449 -0.987216 0
M  V30 2724 O 261.786 -5.2514 -2.22674 0
M  V30 2725 O 260.72 -6.00295 -0.439281 0
M  V30 2726 H 264.546 -2.93261 0.789416 0
M  V30 2727 H 262.131 -1.42417 0.45142 0
M  V30 2728 H 264.013 -3.96133 -1.43724 0
M  V30 2729 H 262.688 -2.78461 -1.65049 0
M  V30 2730 H 261.595 -3.71089 0.473655 0
M  V30 2731 H 262.928 -4.88484 0.60365 0
M  V30 2732 N 264.58 -0.43555 -1.51462 0
M  V30 2733 C 265.829 0.133007 -2.01261 0
M  V30 2734 C 266.142 1.43942 -1.32439 0
M  V30 2735 O 267.348 2.09081 -1.73198 0
M  V30 2736 C 265.804 0.287581 -3.58749 0
M  V30 2737 C 265.412 -1.00829 -4.36506 0
M  V30 2738 C 267.156 0.810004 -4.167 0
M  V30 2739 C 265.063 -0.819454 -5.85695 0
M  V30 2740 H 263.993 0.0534822 -0.752101 0
M  V30 2741 H 266.644 -0.565038 -1.74584 0
M  V30 2742 H 265.026 1.04859 -3.81865 0
M  V30 2743 H 266.2 -1.77749 -4.25138 0
M  V30 2744 H 264.515 -1.45911 -3.89999 0
M  V30 2745 H 267.112 0.967743 -5.2587 0
M  V30 2746 H 267.455 1.79196 -3.75758 0
M  V30 2747 H 267.988 0.107357 -3.97655 0
M  V30 2748 H 264.727 -1.77374 -6.31046 0
M  V30 2749 H 264.247 -0.0900208 -5.99732 0
M  V30 2750 H 265.926 -0.471949 -6.45276 0
M  V30 2751 N 266.058 1.56714 -0.166846 0
M  V30 2752 C 267.021 2.16539 0.751232 0
M  V30 2753 C 268.021 1.11228 1.16125 0
M  V30 2754 O 269.211 1.36765 1.07894 0
M  V30 2755 C 266.343 2.74462 2.02196 0
M  V30 2756 H 267.536 2.99013 0.230499 0
M  V30 2757 H 265.089 1.56081 0.0826982 0
M  V30 2758 H 265.824 1.95709 2.58589 0
M  V30 2759 H 265.609 3.51527 1.73698 0
M  V30 2760 H 267.099 3.20489 2.67725 0
M  V30 2761 N 267.536 -0.106894 1.57237 0
M  V30 2762 C 268.952 -0.46078 1.52804 0
M  V30 2763 C 269.152 -1.81184 0.881746 0
M  V30 2764 O 268.208 -2.48102 0.469224 0
M  V30 2765 C 269.521 -0.434127 2.9755 0
M  V30 2766 C 271.069 -0.516821 3.08704 0
M  V30 2767 C 271.544 -0.520436 4.55033 0
M  V30 2768 N 273.035 -0.58153 4.59535 0
M  V30 2769 C 273.77 -0.605973 5.70189 0
M  V30 2770 N 273.266 -0.587331 6.90306 0
M  V30 2771 N 275.059 -0.649895 5.5833 0
M  V30 2772 H 267.21 0.778203 1.9763 0
M  V30 2773 H 269.473 0.288403 0.903066 0
M  V30 2774 H 269.179 0.491197 3.48253 0
M  V30 2775 H 269.053 -1.25748 3.55622 0
M  V30 2776 H 271.44 -1.43256 2.57995 0
M  V30 2777 H 271.521 0.334449 2.53604 0
M  V30 2778 H 271.165 0.391313 5.0639 0
M  V30 2779 H 271.095 -1.38876 5.07958 0
M  V30 2780 H 273.586 -0.60161 3.73081 0
M  V30 2781 H 273.899 -0.60894 7.70397 0
M  V30 2782 H 272.244 -0.554564 6.92784 0
M  V30 2783 H 275.435 -0.661907 4.63397 0
M  V30 2784 H 275.608 -0.665476 6.44574 0
M  V30 2785 N 269.014 -1.53014 -0.377408 0
M  V30 2786 C 269.946 -1.74884 -1.48149 0
M  V30 2787 C 270.959 -0.629433 -1.5014 0
M  V30 2788 O 272.148 -0.905416 -1.53833 0
M  V30 2789 C 269.248 -1.80299 -2.86959 0
M  V30 2790 C 268.421 -3.09776 -3.08801 0
M  V30 2791 C 267.48 -3.06586 -4.27658 0
M  V30 2792 O 266.506 -3.80419 -4.23403 0
M  V30 2793 N 267.708 -2.26578 -5.34455 0
M  V30 2794 H 270.473 -2.70147 -1.29771 0
M  V30 2795 H 268.034 -1.51646 -0.56703 0
M  V30 2796 H 270.026 -1.75657 -3.64591 0
M  V30 2797 H 268.596 -0.92372 -2.98641 0
M  V30 2798 H 267.816 -3.27815 -2.18931 0
M  V30 2799 H 269.104 -3.95366 -3.20255 0
M  V30 2800 H 268.502 -1.66081 -5.40771 0
M  V30 2801 H 267.059 -2.27766 -6.10709 0
M  V30 2802 N 270.492 0.636531 -1.44174 0
M  V30 2803 C 271.72 1.42353 -1.50144 0
M  V30 2804 C 272.135 1.88389 -0.124575 0
M  V30 2805 O 271.492 1.6051 0.868489 0
M  V30 2806 C 271.543 2.64744 -2.46156 0
M  V30 2807 O 271.264 2.20629 -3.7849 0
M  V30 2808 C 272.765 3.57929 -2.61537 0
M  V30 2809 H 269.985 0.436752 -0.5094 0
M  V30 2810 H 272.529 0.778933 -1.89084 0
M  V30 2811 H 270.684 3.25307 -2.10366 0
M  V30 2812 H 271.098 2.99938 -4.30276 0
M  V30 2813 H 272.572 4.40428 -3.32757 0
M  V30 2814 H 273.049 4.06382 -1.66585 0
M  V30 2815 H 273.655 3.03238 -2.98206 0
M  V30 2816 N 271.97 1.30982 0.876444 0
M  V30 2817 C 273.247 1.10942 1.61094 0
M  V30 2818 C 273.627 -0.338223 2.08373 0
M  V30 2819 O 272.975 -1.33122 1.85717 0
M  V30 2820 C 273.185 2.11789 2.77392 0
M  V30 2821 C 274.533 2.43965 3.47514 0
M  V30 2822 O 275.557 2.10166 2.87591 0
M  V30 2823 O 274.416 3.01817 4.55597 0
M  V30 2824 H 271.51 0.42667 0.708436 0
M  V30 2825 H 274.056 1.42438 0.922474 0
M  V30 2826 H 272.828 3.09194 2.39823 0
M  V30 2827 H 272.451 1.81161 3.5393 0
M  V30 2828 N 273.449 -1.08991 1.13837 0
M  V30 2829 C 274.674 -1.85551 0.926585 0
M  V30 2830 C 275.099 -1.80782 -0.519566 0
M  V30 2831 O 274.457 -1.18855 -1.36906 0
M  V30 2832 C 274.505 -3.31266 1.42462 0
M  V30 2833 O 273.609 -4.07822 0.612789 0
M  V30 2834 H 272.95 -0.575192 0.331738 0
M  V30 2835 H 275.48 -1.37604 1.51414 0
M  V30 2836 H 275.49 -3.82112 1.43019 0
M  V30 2837 H 274.165 -3.34052 2.47754 0
M  V30 2838 H 272.742 -3.66731 0.675463 0
M  V30 2839 N 274.927 -0.932562 -1.27047 0
M  V30 2840 C 275.857 -0.452902 -2.29066 0
M  V30 2841 C 276.838 0.489338 -1.62909 0
M  V30 2842 O 278.023 0.393046 -1.90181 0
M  V30 2843 C 275.153 0.290698 -3.46081 0
M  V30 2844 C 274.107 -0.564168 -4.24265 0
M  V30 2845 C 273.433 0.308886 -5.33807 0
M  V30 2846 C 274.733 -1.83112 -4.89149 0
M  V30 2847 H 276.427 -1.30552 -2.69437 0
M  V30 2848 H 273.973 -0.629201 -1.29526 0
M  V30 2849 H 275.926 0.637233 -4.16554 0
M  V30 2850 H 274.65 1.17738 -3.0464 0
M  V30 2851 H 273.309 -0.893477 -3.55545 0
M  V30 2852 H 272.957 1.19467 -4.88607 0
M  V30 2853 H 272.657 -0.259633 -5.87026 0
M  V30 2854 H 274.181 0.650884 -6.07121 0
M  V30 2855 H 275.595 -1.55236 -5.51883 0
M  V30 2856 H 273.992 -2.34353 -5.52448 0
M  V30 2857 H 275.062 -2.54772 -4.12576 0
M  V30 2858 N 276.405 1.4127 -0.698611 0
M  V30 2859 C 277.352 2.30773 -0.0352094 0
M  V30 2860 C 278.322 1.47273 0.768111 0
M  V30 2861 O 279.507 1.76053 0.735524 0
M  V30 2862 C 276.647 3.33346 0.893 0
M  V30 2863 C 275.76 4.31924 0.0809695 0
M  V30 2864 C 274.895 5.21566 1.0071 0
M  V30 2865 C 273.934 6.11811 0.188155 0
M  V30 2866 N 273.071 6.93926 1.06825 0
M  V30 2867 H 277.911 2.86943 -0.804207 0
M  V30 2868 H 275.448 1.4132 -0.408294 0
M  V30 2869 H 277.406 3.91368 1.44523 0
M  V30 2870 H 276.036 2.78719 1.62836 0
M  V30 2871 H 275.088 3.75825 -0.588224 0
M  V30 2872 H 276.4 4.95716 -0.553801 0
M  V30 2873 H 275.554 5.84437 1.62845 0
M  V30 2874 H 274.293 4.58008 1.67572 0
M  V30 2875 H 273.298 5.47986 -0.446254 0
M  V30 2876 H 274.523 6.77425 -0.476716 0
M  V30 2877 H 272.469 6.32973 1.72283 0
M  V30 2878 H 272.386 7.54416 0.489123 0
M  V30 2879 H 273.654 7.61262 1.67632 0
M  V30 2880 N 277.883 0.443576 1.51229 0
M  V30 2881 C 278.793 -0.370721 2.31652 0
M  V30 2882 C 279.809 -1.02186 1.40833 0
M  V30 2883 O 280.985 -1.01586 1.73903 0
M  V30 2884 C 278.05 -1.45376 3.14749 0
M  V30 2885 C 277.111 -0.822099 4.21355 0
M  V30 2886 C 276.344 -1.85353 5.0048 0
M  V30 2887 O 276.567 -3.07656 4.80316 0
M  V30 2888 O 275.501 -1.4406 5.84406 0
M  V30 2889 H 279.327 0.286002 3.0235 0
M  V30 2890 H 276.912 0.20598 1.47973 0
M  V30 2891 H 278.794 -2.08173 3.66391 0
M  V30 2892 H 277.469 -2.09445 2.46809 0
M  V30 2893 H 276.376 -0.155909 3.73775 0
M  V30 2894 H 277.709 -0.224797 4.91686 0
M  V30 2895 N 279.361 -1.56624 0.175154 0
M  V30 2896 C 280.291 -2.21155 -0.749195 0
M  V30 2897 C 281.272 -1.16836 -1.23626 0
M  V30 2898 O 282.457 -1.45277 -1.28873 0
M  V30 2899 C 279.587 -2.8553 -1.97711 0
M  V30 2900 C 278.541 -3.95921 -1.62575 0
M  V30 2901 C 277.867 -4.47365 -2.92864 0
M  V30 2902 C 279.167 -5.15323 -0.850838 0
M  V30 2903 H 280.861 -2.98653 -0.211295 0
M  V30 2904 H 278.407 -1.43651 -0.100188 0
M  V30 2905 H 280.36 -3.2935 -2.62881 0
M  V30 2906 H 279.084 -2.05406 -2.53921 0
M  V30 2907 H 277.743 -3.52762 -0.997719 0
M  V30 2908 H 277.391 -3.64027 -3.47122 0
M  V30 2909 H 277.091 -5.21839 -2.70106 0
M  V30 2910 H 278.615 -4.93873 -3.59056 0
M  V30 2911 H 280.029 -5.55812 -1.40521 0
M  V30 2912 H 278.426 -5.95739 -0.722154 0
M  V30 2913 H 279.496 -4.84661 0.152082 0
M  V30 2914 N 280.839 0.0985539 -1.57292 0
M  V30 2915 C 282.085 0.803867 -1.86188 0
M  V30 2916 C 282.418 1.78549 -0.763794 0
M  V30 2917 O 281.693 1.93153 0.22855 0
M  V30 2918 C 281.976 1.53568 -3.25713 0
M  V30 2919 C 281.829 0.572277 -4.46145 0
M  V30 2920 C 283.148 2.48708 -3.63087 0
M  V30 2921 H 280.267 0.290781 -0.677211 0
M  V30 2922 H 282.909 0.0675783 -1.8988 0
M  V30 2923 H 281.059 2.16332 -3.22696 0
M  V30 2924 H 282.731 -0.0480894 -4.61275 0
M  V30 2925 H 280.974 -0.114618 -4.33649 0
M  V30 2926 H 281.645 1.12139 -5.40489 0
M  V30 2927 H 284.121 1.96039 -3.67026 0
M  V30 2928 H 282.997 2.96932 -4.61652 0
M  V30 2929 H 283.258 3.32309 -2.91588 0
M  V30 2930 N 282.317 1.53212 0.369288 0
M  V30 2931 C 283.265 1.80054 1.47253 0
M  V30 2932 C 284.259 0.669456 1.55611 0
M  V30 2933 O 285.465 0.852328 1.58541 0
M  V30 2934 H 281.84 0.570034 0.490475 0
M  V30 2935 H 283.811 2.72403 1.21817 0
M  V30 2936 C 282.56 2.00403 2.84137 0
M  V30 2937 H 281.883 2.86876 2.78464 0
M  V30 2938 H 283.323 2.23164 3.60519 0
M  V30 2939 C 281.782 0.782081 3.27697 0
M  V30 2940 O 282.312 -0.0310205 4.01688 0
M  V30 2941 N 280.518 0.606573 2.84199 0
M  V30 2942 H 280.065 1.26939 2.24152 0
M  V30 2943 H 280.023 -0.20962 3.137 0
M  V30 2944 N 283.795 -0.628877 1.44509 0
M  V30 2945 C 284.758 -1.72263 1.51188 0
M  V30 2946 C 285.758 -1.55907 0.39367 0
M  V30 2947 O 286.948 -1.61361 0.656377 0
M  V30 2948 C 284.08 -3.11365 1.38798 0
M  V30 2949 H 285.273 -1.67714 2.4862 0
M  V30 2950 H 282.826 -0.842737 1.31634 0
M  V30 2951 H 283.561 -3.21507 0.424693 0
M  V30 2952 H 283.346 -3.24644 2.19884 0
M  V30 2953 H 284.836 -3.91075 1.46458 0
M  V30 2954 N 285.273 -1.31445 -0.869486 0
M  V30 2955 C 286.498 -1.24256 -1.66058 0
M  V30 2956 C 286.923 0.188928 -1.87149 0
M  V30 2957 O 286.281 1.13522 -1.4136 0
M  V30 2958 C 286.329 -1.9924 -3.00559 0
M  V30 2959 O 285.433 -1.33007 -3.90362 0
M  V30 2960 H 284.774 -0.428973 -0.506831 0
M  V30 2961 H 287.304 -1.73521 -1.08404 0
M  V30 2962 H 287.314 -2.08854 -3.50491 0
M  V30 2963 H 285.989 -3.03342 -2.84528 0
M  V30 2964 H 284.566 -1.31848 -3.48813 0
M  V30 2965 N 286.751 1.08385 -1.14413 0
M  V30 2966 C 287.981 1.8425 -0.934644 0
M  V30 2967 C 288.389 1.81907 0.520234 0
M  V30 2968 O 287.732 1.22126 1.37226 0
M  V30 2969 C 287.794 3.32853 -1.35828 0
M  V30 2970 C 287.458 3.5893 -2.82875 0
M  V30 2971 C 288.455 3.53756 -3.80989 0
M  V30 2972 C 286.14 3.86934 -3.20293 0
M  V30 2973 C 288.134 3.76216 -5.14529 0
M  V30 2974 C 285.821 4.09047 -4.54008 0
M  V30 2975 C 286.819 4.03682 -5.50936 0
M  V30 2976 O 286.507 4.25214 -6.82238 0
M  V30 2977 H 286.239 0.588502 -0.332628 0
M  V30 2978 H 288.793 1.37792 -1.52324 0
M  V30 2979 H 287.023 3.8007 -0.713019 0
M  V30 2980 H 288.712 3.90154 -1.11957 0
M  V30 2981 H 289.478 3.32135 -3.53428 0
M  V30 2982 H 285.357 3.9023 -2.45442 0
M  V30 2983 H 288.901 3.71943 -5.90173 0
M  V30 2984 H 284.798 4.30151 -4.8129 0
M  V30 2985 H 285.566 4.42619 -6.88499 0
M  V30 2986 N 288.23 0.939286 1.26551 0
M  V30 2987 C 289.458 0.602536 1.97932 0
M  V30 2988 C 289.873 -0.82206 1.69964 0
M  V30 2989 O 289.23 -1.54789 0.966784 0
M  V30 2990 C 289.281 0.832946 3.51773 0
M  V30 2991 O 289.002 2.20151 3.78768 0
M  V30 2992 C 290.503 0.506483 4.40397 0
M  V30 2993 H 287.723 0.227248 0.631347 0
M  V30 2994 H 290.267 1.25948 1.61113 0
M  V30 2995 H 288.422 0.222644 3.8676 0
M  V30 2996 H 288.836 2.26013 4.73306 0
M  V30 2997 H 290.31 0.718333 5.47306 0
M  V30 2998 H 290.787 -0.558451 4.35635 0
M  V30 2999 H 291.393 1.09543 4.10951 0
M  V30 3000 N 289.708 -1.40897 0.706093 0
M  V30 3001 C 290.985 -1.94868 0.169099 0
M  V30 3002 C 291.365 -1.64485 -1.32318 0
M  V30 3003 O 290.713 -0.95744 -2.07474 0
M  V30 3004 C 290.923 -3.45798 0.471654 0
M  V30 3005 C 292.271 -4.22663 0.405127 0
M  V30 3006 O 293.295 -3.53865 0.407168 0
M  V30 3007 O 292.154 -5.45216 0.374383 0
M  V30 3008 H 289.248 -0.82673 0.0211352 0
M  V30 3009 H 291.794 -1.50558 0.782976 0
M  V30 3010 H 290.566 -3.61235 1.50416 0
M  V30 3011 H 290.189 -3.97225 -0.172666 0
M  V30 3012 N 291.186 -0.45159 -1.50991 0
M  V30 3013 C 292.411 0.110667 -2.07105 0
M  V30 3014 C 292.836 1.3446 -1.31538 0
M  V30 3015 O 292.194 1.77743 -0.357365 0
M  V30 3016 C 292.242 0.397238 -3.58405 0
M  V30 3017 O 291.346 1.48124 -3.84881 0
M  V30 3018 H 290.687 -0.00439271 -0.663985 0
M  V30 3019 H 293.217 -0.637026 -1.9443 0
M  V30 3020 H 293.227 0.64351 -4.02893 0
M  V30 3021 H 291.902 -0.504553 -4.12828 0
M  V30 3022 H 290.479 1.22381 -3.52246 0
M  V30 3023 N 292.664 1.56529 -0.183458 0
M  V30 3024 C 293.894 2.01331 0.463612 0
M  V30 3025 C 294.302 1.06278 1.5653 0
M  V30 3026 O 293.645 0.0577976 1.83609 0
M  V30 3027 C 293.707 3.42547 1.09096 0
M  V30 3028 C 293.371 4.56817 0.129442 0
M  V30 3029 C 294.368 5.15734 -0.656807 0
M  V30 3030 C 292.053 5.02295 0.02174 0
M  V30 3031 C 294.047 6.1857 -1.53784 0
M  V30 3032 C 291.734 6.04978 -0.862864 0
M  V30 3033 C 292.732 6.62988 -1.64123 0
M  V30 3034 O 292.42 7.63677 -2.51103 0
M  V30 3035 H 292.152 0.664917 0.121907 0
M  V30 3036 H 294.706 2.034 -0.285954 0
M  V30 3037 H 292.936 3.37428 1.88889 0
M  V30 3038 H 294.625 3.71228 1.64148 0
M  V30 3039 H 295.391 4.81473 -0.583839 0
M  V30 3040 H 291.27 4.56847 0.617392 0
M  V30 3041 H 294.814 6.63777 -2.14583 0
M  V30 3042 H 290.711 6.38663 -0.93699 0
M  V30 3043 H 291.479 7.81049 -2.44753 0
M  V30 3044 N 294.142 -0.090211 1.57342 0
M  V30 3045 C 295.372 -0.805055 1.90269 0
M  V30 3046 C 295.78 -1.72561 0.775842 0
M  V30 3047 O 295.123 -1.81839 -0.260843 0
M  V30 3048 C 295.185 -1.66734 3.18497 0
M  V30 3049 C 294.849 -0.918092 4.47683 0
M  V30 3050 C 295.846 -0.245674 5.19319 0
M  V30 3051 C 293.531 -0.890724 4.94339 0
M  V30 3052 C 295.525 0.444088 6.35851 0
M  V30 3053 C 293.212 -0.197179 6.10782 0
M  V30 3054 C 294.21 0.469044 6.81388 0
M  V30 3055 O 293.898 1.15146 7.95611 0
M  V30 3056 H 293.63 -0.235143 0.633785 0
M  V30 3057 H 296.184 -0.0703805 2.05279 0
M  V30 3058 H 294.414 -2.44437 2.99646 0
M  V30 3059 H 296.103 -2.25919 3.37217 0
M  V30 3060 H 296.869 -0.258246 4.84312 0
M  V30 3061 H 292.748 -1.39873 4.39268 0
M  V30 3062 H 296.292 0.964667 6.90898 0
M  V30 3063 H 292.189 -0.18247 6.45242 0
M  V30 3064 H 292.957 1.05885 8.11622 0
M  V30 3065 N 295.62 -1.53406 -0.361157 0
M  V30 3066 C 296.567 -1.80156 -1.44265 0
M  V30 3067 C 297.537 -0.646183 -1.53015 0
M  V30 3068 O 298.722 -0.888818 -1.68833 0
M  V30 3069 C 295.862 -2.00116 -2.81154 0
M  V30 3070 C 294.975 -3.27833 -2.81335 0
M  V30 3071 C 294.11 -3.37957 -4.09828 0
M  V30 3072 C 293.149 -4.59689 -4.04168 0
M  V30 3073 N 292.286 -4.66942 -5.24318 0
M  V30 3074 H 297.126 -2.72438 -1.20754 0
M  V30 3075 H 294.663 -1.34954 -0.585296 0
M  V30 3076 H 296.621 -2.09677 -3.60682 0
M  V30 3077 H 295.251 -1.11167 -3.03054 0
M  V30 3078 H 294.303 -3.27204 -1.94014 0
M  V30 3079 H 295.615 -4.17442 -2.73027 0
M  V30 3080 H 294.769 -3.46853 -4.97773 0
M  V30 3081 H 293.508 -2.46372 -4.20894 0
M  V30 3082 H 292.513 -4.50889 -3.14609 0
M  V30 3083 H 293.738 -5.5262 -3.947 0
M  V30 3084 H 291.684 -3.7826 -5.35962 0
M  V30 3085 H 291.601 -5.50462 -5.18197 0
M  V30 3086 H 292.869 -4.80127 -6.14084 0
M  V30 3087 N 297.098 0.621204 -1.44841 0
M  V30 3088 C 298.346 1.37783 -1.47852 0
M  V30 3089 C 298.667 1.94653 -0.116224 0
M  V30 3090 O 297.937 1.76367 0.852737 0
M  V30 3091 H 296.517 0.511453 -0.544449 0
M  V30 3092 H 299.179 0.730446 -1.80694 0
M  V30 3093 H 298.275 2.20414 -2.20961 0
M  V30 3094 N 298.576 1.31904 0.862503 0
M  V30 3095 C 299.508 1.16005 1.97675 0
M  V30 3096 C 300.521 0.0971234 1.6251 0
M  V30 3097 O 301.71 0.345337 1.75128 0
M  V30 3098 C 298.81 0.751791 3.30456 0
M  V30 3099 C 297.983 1.90133 3.93914 0
M  V30 3100 C 297.042 1.4779 5.05019 0
M  V30 3101 O 296.068 2.18872 5.25437 0
M  V30 3102 N 297.27 0.369491 5.79323 0
M  V30 3103 H 300.035 2.11982 2.11857 0
M  V30 3104 H 297.596 1.24337 1.03691 0
M  V30 3105 H 299.588 0.451084 4.02178 0
M  V30 3106 H 298.158 -0.116593 3.12382 0
M  V30 3107 H 297.378 2.36896 3.15078 0
M  V30 3108 H 298.666 2.67111 4.33047 0
M  V30 3109 H 298.064 -0.222299 5.65263 0
M  V30 3110 H 296.621 0.128354 6.51674 0
M  V30 3111 N 300.054 -1.07777 1.14986 0
M  V30 3112 C 301.282 -1.84018 0.945773 0
M  V30 3113 C 301.697 -1.81897 -0.505863 0
M  V30 3114 O 301.054 -1.22726 -1.35072 0
M  V30 3115 C 301.105 -3.31287 1.44677 0
M  V30 3116 O 300.826 -3.33449 2.84154 0
M  V30 3117 C 302.327 -4.24311 1.28355 0
M  V30 3118 H 299.547 -0.580716 0.336169 0
M  V30 3119 H 302.091 -1.36077 1.52654 0
M  V30 3120 H 300.246 -3.76594 0.908625 0
M  V30 3121 H 300.66 -4.25427 3.06777 0
M  V30 3122 H 302.134 -5.2573 1.68261 0
M  V30 3123 H 302.611 -4.38612 0.227184 0
M  V30 3124 H 303.217 -3.84836 1.81056 0
M  V30 3125 N 301.532 -0.945985 -1.26051 0
M  V30 3126 C 302.495 -0.463897 -2.24456 0
M  V30 3127 C 303.495 0.427655 -1.55009 0
M  V30 3128 O 304.685 0.226157 -1.72726 0
M  V30 3129 C 301.817 0.330812 -3.39291 0
M  V30 3130 H 303.01 -1.33357 -2.68619 0
M  V30 3131 H 300.563 -0.728416 -1.38289 0
M  V30 3132 H 301.298 1.21852 -3.00537 0
M  V30 3133 H 301.083 -0.308679 -3.90883 0
M  V30 3134 H 302.573 0.657865 -4.12386 0
M  V30 3135 N 303.011 1.40521 -0.713556 0
M  V30 3136 C 303.941 2.33381 -0.0743864 0
M  V30 3137 C 304.922 1.52784 0.747735 0
M  V30 3138 O 306.107 1.81258 0.697071 0
M  V30 3139 C 303.237 3.36748 0.849598 0
M  V30 3140 C 302.191 4.27793 0.133247 0
M  V30 3141 C 301.517 5.21679 1.17281 0
M  V30 3142 C 302.817 5.12415 -1.01134 0
M  V30 3143 H 304.511 2.87081 -0.850007 0
M  V30 3144 H 302.057 1.38034 -0.410201 0
M  V30 3145 H 304.01 4.00648 1.30612 0
M  V30 3146 H 302.734 2.81439 1.65709 0
M  V30 3147 H 301.393 3.65342 -0.303426 0
M  V30 3148 H 301.041 4.62677 1.9733 0
M  V30 3149 H 300.741 5.83435 0.698397 0
M  V30 3150 H 302.265 5.88456 1.62947 0
M  V30 3151 H 303.679 5.69781 -0.634274 0
M  V30 3152 H 302.076 5.83203 -1.41399 0
M  V30 3153 H 303.146 4.48514 -1.84292 0
M  V30 3154 N 304.489 0.459591 1.5075 0
M  V30 3155 C 305.439 -0.358926 2.25157 0
M  V30 3156 C 306.423 -0.971285 1.28276 0
M  V30 3157 O 307.615 -0.885739 1.53244 0
M  V30 3158 C 304.744 -1.44695 3.11317 0
M  V30 3159 C 303.83 -0.842894 4.15639 0
M  V30 3160 N 304.221 0.0299373 5.05791 0
M  V30 3161 C 302.519 -1.10809 4.32015 0
M  V30 3162 C 303.22 0.371563 5.80512 0
M  V30 3163 N 302.196 -0.250409 5.43023 0
M  V30 3164 H 305.998 0.313636 2.92222 0
M  V30 3165 H 303.512 0.273021 1.60089 0
M  V30 3166 H 305.509 -2.04641 3.63218 0
M  V30 3167 H 304.169 -2.12162 2.45799 0
M  V30 3168 H 305.18 0.39797 5.16369 0
M  V30 3169 H 301.857 -1.7786 3.77719 0
M  V30 3170 H 303.247 1.08319 6.63111 0
M  V30 3171 N 305.967 -1.56429 0.191757 0
M  V30 3172 C 307.216 -1.9666 -0.448088 0
M  V30 3173 C 307.529 -1.08136 -1.62991 0
M  V30 3174 O 308.735 -1.38135 -2.33733 0
M  V30 3175 C 307.191 -3.49753 -0.848585 0
M  V30 3176 C 306.799 -4.46935 0.308764 0
M  V30 3177 C 308.543 -3.9876 -1.4557 0
M  V30 3178 C 306.45 -5.91293 -0.112506 0
M  V30 3179 H 305.38 -0.734312 -0.171179 0
M  V30 3180 H 308.031 -1.81301 0.283242 0
M  V30 3181 H 306.413 -3.60604 -1.63649 0
M  V30 3182 H 307.587 -4.47813 1.08627 0
M  V30 3183 H 305.902 -4.08102 0.827158 0
M  V30 3184 H 308.499 -5.04086 -1.78328 0
M  V30 3185 H 308.842 -3.42875 -2.36099 0
M  V30 3186 H 309.375 -3.9101 -0.731836 0
M  V30 3187 H 306.114 -6.51097 0.758514 0
M  V30 3188 H 305.634 -5.93676 -0.854941 0
M  V30 3189 H 307.313 -6.44663 -0.549448 0
M  V30 3190 N 307.445 0.0818655 -1.57387 0
M  V30 3191 C 308.408 1.08265 -2.02018 0
M  V30 3192 C 309.408 1.32183 -0.915664 0
M  V30 3193 O 310.598 1.28073 -1.18081 0
M  V30 3194 C 307.73 2.42871 -2.39221 0
M  V30 3195 H 308.923 0.698204 -2.91659 0
M  V30 3196 H 306.476 0.327303 -1.52835 0
M  V30 3197 H 307.211 2.86167 -1.52575 0
M  V30 3198 H 306.996 2.26855 -3.19811 0
M  V30 3199 H 308.486 3.14826 -2.74362 0
M  V30 3200 N 308.923 1.53595 0.353017 0
M  V30 3201 C 310.172 1.69603 1.09168 0
M  V30 3202 C 310.485 0.460925 1.90092 0
M  V30 3203 O 311.691 0.501774 2.66823 0
M  V30 3204 C 310.147 2.99872 1.9901 0
M  V30 3205 C 309.755 4.30687 1.23339 0
M  V30 3206 C 311.499 3.25246 2.72792 0
M  V30 3207 C 309.406 5.52036 2.12156 0
M  V30 3208 H 308.336 0.631966 0.411261 0
M  V30 3209 H 310.987 1.80096 0.351802 0
M  V30 3210 H 309.369 2.83212 2.7678 0
M  V30 3211 H 310.543 4.58019 0.505456 0
M  V30 3212 H 308.858 4.11853 0.613663 0
M  V30 3213 H 311.455 4.13095 3.39495 0
M  V30 3214 H 311.798 2.41846 3.38846 0
M  V30 3215 H 312.331 3.42638 2.021 0
M  V30 3216 H 309.07 6.37951 1.50659 0
M  V30 3217 H 308.59 5.28966 2.82764 0
M  V30 3218 H 310.269 5.87313 2.71427 0
M  V30 3219 N 310.401 -0.613514 1.45168 0
M  V30 3220 C 311.311 -1.75296 1.55912 0
M  V30 3221 C 312.327 -1.68244 0.443856 0
M  V30 3222 O 313.503 -1.88706 0.70371 0
M  V30 3223 C 310.568 -3.1174 1.5172 0
M  V30 3224 C 309.629 -3.30291 2.74238 0
M  V30 3225 C 308.862 -4.60226 2.70236 0
M  V30 3226 O 309.085 -5.42168 1.77229 0
M  V30 3227 O 308.019 -4.81361 3.61352 0
M  V30 3228 H 311.845 -1.69183 2.52212 0
M  V30 3229 H 309.43 -0.776886 1.27612 0
M  V30 3230 H 311.312 -3.93044 1.51968 0
M  V30 3231 H 309.987 -3.18357 0.585697 0
M  V30 3232 H 308.894 -2.48598 2.79553 0
M  V30 3233 H 310.227 -3.28547 3.66494 0
M  V30 3234 N 311.879 -1.3236 -0.855495 0
M  V30 3235 C 313.295 -1.11332 -1.14356 0
M  V30 3236 C 313.495 0.106751 -2.01217 0
M  V30 3237 O 312.551 0.791891 -2.39761 0
M  V30 3238 C 313.864 -2.39237 -1.82171 0
M  V30 3239 C 315.412 -2.44986 -1.9481 0
M  V30 3240 C 315.887 -3.7281 -2.66039 0
M  V30 3241 N 317.378 -3.73787 -2.73565 0
M  V30 3242 C 318.113 -4.69394 -3.29327 0
M  V30 3243 N 317.609 -5.75367 -3.85907 0
M  V30 3244 N 319.402 -4.56893 -3.27423 0
M  V30 3245 H 311.553 -2.10586 -0.277027 0
M  V30 3246 H 313.816 -0.929701 -0.185364 0
M  V30 3247 H 313.522 -3.28431 -1.25802 0
M  V30 3248 H 313.396 -2.50134 -2.82335 0
M  V30 3249 H 315.783 -1.56252 -2.50338 0
M  V30 3250 H 315.864 -2.38043 -0.936448 0
M  V30 3251 H 315.508 -4.61918 -2.11174 0
M  V30 3252 H 315.438 -3.77024 -3.67642 0
M  V30 3253 H 317.929 -2.97189 -2.33424 0
M  V30 3254 H 318.242 -6.44378 -4.26611 0
M  V30 3255 H 316.587 -5.79123 -3.84242 0
M  V30 3256 H 319.778 -3.73269 -2.82467 0
M  V30 3257 H 319.951 -5.31577 -3.7058 0
M  V30 3258 N 313.357 1.07166 -1.15556 0
M  V30 3259 C 314.773 1.31899 -0.898603 0
M  V30 3260 C 314.973 1.96333 0.453383 0
M  V30 3261 O 314.029 2.22438 1.19489 0
M  V30 3262 C 315.342 2.20826 -2.04099 0
M  V30 3263 C 316.89 2.34269 -2.07574 0
M  V30 3264 C 317.365 3.26546 -3.21141 0
M  V30 3265 N 318.856 3.34127 -3.20801 0
M  V30 3266 C 319.591 4.05595 -4.05315 0
M  V30 3267 N 319.087 4.79661 -4.99897 0
M  V30 3268 N 320.88 4.01555 -3.93332 0
M  V30 3269 H 313.031 0.637302 -2.02613 0
M  V30 3270 H 315.294 0.343468 -0.883591 0
M  V30 3271 H 315 1.80744 -3.01703 0
M  V30 3272 H 314.874 3.21364 -1.97496 0
M  V30 3273 H 317.261 2.73603 -1.10568 0
M  V30 3274 H 317.342 1.33429 -2.18244 0
M  V30 3275 H 316.986 2.87931 -4.184 0
M  V30 3276 H 316.916 4.27345 -3.07708 0
M  V30 3277 H 319.407 2.81336 -2.52306 0
M  V30 3278 H 319.72 5.31694 -5.60822 0
M  V30 3279 H 318.065 4.78671 -5.03884 0
M  V30 3280 H 321.256 3.42806 -3.18751 0
M  V30 3281 H 321.429 4.56987 -4.5942 0
M  V30 3282 N 314.835 0.952656 1.25548 0
M  V30 3283 C 315.783 0.462354 2.27958 0
M  V30 3284 C 316.777 -0.46634 1.62855 0
M  V30 3285 O 317.983 -0.343287 1.76696 0
M  V30 3286 H 314.358 0.13101 0.7405 0
M  V30 3287 H 316.329 1.33839 2.66702 0
M  V30 3288 C 315.078 -0.24628 3.46827 0
M  V30 3289 H 314.401 0.459192 3.97154 0
M  V30 3290 H 315.841 -0.553393 4.20373 0
M  V30 3291 C 314.3 -1.4681 3.0323 0
M  V30 3292 O 314.83 -2.56591 3.09069 0
M  V30 3293 N 313.036 -1.32874 2.58443 0
M  V30 3294 H 312.583 -0.435536 2.53891 0
M  V30 3295 H 312.541 -2.14742 2.29637 0
M  V30 3296 N 316.313 -1.40141 0.720998 0
M  V30 3297 C 317.246 -2.2819 0.020916 0
M  V30 3298 C 318.224 -1.43633 -0.762129 0
M  V30 3299 O 319.408 -1.7304 -0.747633 0
M  V30 3300 C 316.535 -3.24281 -0.977715 0
M  V30 3301 C 315.581 -4.25548 -0.284836 0
M  V30 3302 S 316.414 -5.26247 0.991169 0
M  V30 3303 C 317.57 -6.259 -0.0052214 0
M  V30 3304 H 317.803 -2.87218 0.767649 0
M  V30 3305 H 315.336 -1.45656 0.512233 0
M  V30 3306 H 317.294 -3.80167 -1.54865 0
M  V30 3307 H 315.955 -2.643 -1.69719 0
M  V30 3308 H 315.148 -4.93154 -1.03996 0
M  V30 3309 H 314.75 -3.73389 0.213684 0
M  V30 3310 H 317.042 -6.72143 -0.850279 0
M  V30 3311 H 317.985 -7.05224 0.637599 0
M  V30 3312 H 318.393 -5.63277 -0.371366 0
M  V30 3313 N 317.792 -0.46758 -1.50504 0
M  V30 3314 C 318.755 0.317059 -2.26996 0
M  V30 3315 C 319.755 0.923513 -1.31635 0
M  V30 3316 O 320.945 0.793239 -1.55091 0
M  V30 3317 C 318.077 1.45134 -3.08462 0
M  V30 3318 H 319.27 -0.353723 -2.97807 0
M  V30 3319 H 316.823 -0.221545 -1.54722 0
M  V30 3320 H 317.558 2.15728 -2.4214 0
M  V30 3321 H 317.343 1.02232 -3.78538 0
M  V30 3322 H 318.833 2.00493 -3.66323 0
M  V30 3323 N 319.27 1.56325 -0.20005 0
M  V30 3324 C 320.2 2.22318 0.713916 0
M  V30 3325 C 321.181 1.18788 1.21752 0
M  V30 3326 O 322.366 1.47309 1.26545 0
M  V30 3327 C 319.496 2.88639 1.93144 0
M  V30 3328 C 318.45 3.98457 1.56255 0
M  V30 3329 C 317.776 4.51967 2.85709 0
M  V30 3330 C 319.076 5.16612 0.768747 0
M  V30 3331 H 320.77 2.98952 0.163755 0
M  V30 3332 H 318.316 1.43792 0.0773219 0
M  V30 3333 H 320.269 3.33491 2.57608 0
M  V30 3334 H 318.993 2.09419 2.50621 0
M  V30 3335 H 317.652 3.54305 0.941471 0
M  V30 3336 H 317.3 3.69503 3.41287 0
M  V30 3337 H 317 5.26071 2.6177 0
M  V30 3338 H 318.524 4.99523 3.51154 0
M  V30 3339 H 319.938 5.57977 1.3166 0
M  V30 3340 H 318.335 5.96812 0.627286 0
M  V30 3341 H 319.405 4.84358 -0.229168 0
M  V30 3342 N 320.748 -0.0735177 1.57428 0
M  V30 3343 C 321.994 -0.774145 1.87443 0
M  V30 3344 C 322.327 -1.77311 0.792103 0
M  V30 3345 O 321.602 -1.93492 -0.197793 0
M  V30 3346 C 321.885 -1.48367 3.28115 0
M  V30 3347 C 321.738 -0.501227 4.46999 0
M  V30 3348 C 323.057 -2.429 3.66998 0
M  V30 3349 H 320.176 -0.279971 0.681752 0
M  V30 3350 H 322.818 -0.0373616 1.89963 0
M  V30 3351 H 320.968 -2.11171 3.26097 0
M  V30 3352 H 322.64 0.121468 4.6114 0
M  V30 3353 H 320.883 0.183593 4.33411 0
M  V30 3354 H 321.554 -1.03526 5.42205 0
M  V30 3355 H 324.03 -1.90175 3.70098 0
M  V30 3356 H 322.906 -2.89549 4.66318 0
M  V30 3357 H 323.167 -3.27628 2.96837 0
M  V30 3358 N 322.226 -1.5378 -0.344866 0
M  V30 3359 C 323.454 -1.74899 -1.10534 0
M  V30 3360 C 323.869 -0.487534 -1.82397 0
M  V30 3361 O 323.226 0.540741 -1.74305 0
M  V30 3362 C 323.277 -2.92822 -2.11984 0
M  V30 3363 O 322.998 -4.14089 -1.43044 0
M  V30 3364 C 324.499 -3.25982 -3.00417 0
M  V30 3365 H 321.719 -0.584426 -0.329678 0
M  V30 3366 H 324.263 -2.006 -0.397474 0
M  V30 3367 H 322.418 -2.69457 -2.78338 0
M  V30 3368 H 322.832 -4.80272 -2.10805 0
M  V30 3369 H 324.306 -4.11848 -3.67539 0
M  V30 3370 H 324.783 -2.42228 -3.66363 0
M  V30 3371 H 325.389 -3.51349 -2.39654 0
M  V30 3372 N 323.704 0.605807 -1.45491 0
M  V30 3373 C 324.634 1.72709 -1.57143 0
M  V30 3374 C 325.615 1.6476 -0.422884 0
M  V30 3375 O 326.8 1.83132 -0.646247 0
M  V30 3376 C 323.93 3.11316 -1.53948 0
M  V30 3377 C 322.884 3.34077 -2.67537 0
M  V30 3378 C 322.21 4.72975 -2.49397 0
M  V30 3379 C 323.51 3.24158 -4.09535 0
M  V30 3380 H 325.204 1.63214 -2.51001 0
M  V30 3381 H 322.75 0.78379 -1.208 0
M  V30 3382 H 324.703 3.89557 -1.60696 0
M  V30 3383 H 323.427 3.21655 -0.566205 0
M  V30 3384 H 322.086 2.58227 -2.6022 0
M  V30 3385 H 321.734 4.8005 -1.50205 0
M  V30 3386 H 321.434 4.8916 -3.25571 0
M  V30 3387 H 322.958 5.53414 -2.58002 0
M  V30 3388 H 324.372 3.92271 -4.18086 0
M  V30 3389 H 322.769 3.51872 -4.86113 0
M  V30 3390 H 323.839 2.2157 -4.31317 0
M  V30 3391 N 325.182 1.32811 0.848464 0
M  V30 3392 C 326.112 1.24882 1.97299 0
M  V30 3393 C 327.093 0.131357 1.69592 0
M  V30 3394 O 328.278 0.319553 1.91553 0
M  V30 3395 C 325.408 0.97746 3.33261 0
M  V30 3396 C 324.362 2.05682 3.75338 0
M  V30 3397 C 323.688 1.63777 5.09 0
M  V30 3398 C 324.988 3.47254 3.90144 0
M  V30 3399 H 326.682 2.18966 2.04191 0
M  V30 3400 H 324.228 1.05413 0.981029 0
M  V30 3401 H 326.181 0.908513 4.1149 0
M  V30 3402 H 324.905 0.000980011 3.266 0
M  V30 3403 H 323.564 2.11603 2.99366 0
M  V30 3404 H 323.212 0.648569 4.98801 0
M  V30 3405 H 322.912 2.36 5.38124 0
M  V30 3406 H 324.436 1.5833 5.89715 0
M  V30 3407 H 325.85 3.43888 4.58709 0
M  V30 3408 H 324.247 4.1788 4.30693 0
M  V30 3409 H 325.317 3.86462 2.92874 0
M  V30 3410 N 326.66 -1.06551 1.16123 0
M  V30 3411 C 327.906 -1.79567 0.94252 0
M  V30 3412 C 328.239 -1.86869 -0.528547 0
M  V30 3413 O 327.514 -1.35838 -1.39206 0
M  V30 3414 C 327.797 -3.24195 1.56747 0
M  V30 3415 C 327.65 -3.24989 3.10969 0
M  V30 3416 C 328.969 -4.21678 1.25998 0
M  V30 3417 H 326.088 -0.651883 0.343828 0
M  V30 3418 H 328.73 -1.2463 1.43413 0
M  V30 3419 H 326.88 -3.71107 1.14942 0
M  V30 3420 H 328.552 -2.86258 3.61737 0
M  V30 3421 H 326.795 -2.63716 3.44436 0
M  V30 3422 H 327.466 -4.27005 3.49815 0
M  V30 3423 H 329.942 -3.83196 1.62174 0
M  V30 3424 H 328.818 -5.21146 1.7233 0
M  V30 3425 H 329.079 -4.4174 0.178367 0
M  V30 3426 N 328.138 -0.959301 -1.25041 0
M  V30 3427 C 329.048 -0.489994 -2.29426 0
M  V30 3428 C 330.064 0.444944 -1.68215 0
M  V30 3429 O 331.24 0.320046 -1.98841 0
M  V30 3430 C 328.305 0.220309 -3.45999 0
M  V30 3431 C 327.366 -0.753418 -4.22637 0
M  V30 3432 C 326.599 -0.076918 -5.33645 0
M  V30 3433 O 326.822 1.13649 -5.58963 0
M  V30 3434 O 325.756 -0.764824 -5.97021 0
M  V30 3435 H 329.582 -1.35755 -2.71669 0
M  V30 3436 H 327.167 -0.725961 -1.30576 0
M  V30 3437 H 329.049 0.619677 -4.16819 0
M  V30 3438 H 327.724 1.06296 -3.0575 0
M  V30 3439 H 326.631 -1.20308 -3.54227 0
M  V30 3440 H 327.964 -1.56423 -4.66683 0
M  V30 3441 N 329.616 1.39756 -0.72842 0
M  V30 3442 C 330.564 2.32485 -0.0731849 0
M  V30 3443 C 331.558 1.52717 0.733063 0
M  V30 3444 O 332.764 1.68428 0.634988 0
M  V30 3445 H 329.139 0.751984 -0.00486469 0
M  V30 3446 H 331.11 2.85382 -0.871761 0
M  V30 3447 C 329.859 3.37773 0.824908 0
M  V30 3448 H 329.182 3.99227 0.213915 0
M  V30 3449 H 330.622 4.05121 1.25111 0
M  V30 3450 C 329.081 2.74287 1.95622 0
M  V30 3451 O 329.611 2.61618 3.04826 0
M  V30 3452 N 327.817 2.32475 1.74367 0
M  V30 3453 H 327.364 2.4298 0.855494 0
M  V30 3454 H 327.322 1.90337 2.50238 0
M  V30 3455 N 331.094 0.475555 1.50254 0
M  V30 3456 C 332.342 -0.077738 2.0195 0
M  V30 3457 C 332.663 -1.39813 1.35931 0
M  V30 3458 O 331.933 -1.89249 0.506123 0
M  V30 3459 H 330.513 -0.031719 0.746326 0
M  V30 3460 H 333.175 0.626995 1.84539 0
M  V30 3461 H 332.271 -0.225995 3.11281 0
M  V30 3462 N 332.573 -1.56217 0.208337 0
M  V30 3463 C 333.536 -2.18455 -0.693557 0
M  V30 3464 C 334.536 -1.14268 -1.13135 0
M  V30 3465 O 335.726 -1.39577 -1.0423 0
M  V30 3466 C 332.858 -2.79727 -1.94848 0
M  V30 3467 H 334.051 -2.99519 -0.15114 0
M  V30 3468 H 331.604 -1.56245 -0.041287 0
M  V30 3469 H 332.339 -2.02497 -2.53309 0
M  V30 3470 H 332.124 -3.56009 -1.64316 0
M  V30 3471 H 333.614 -3.27475 -2.59133 0
M  V30 3472 N 334.051 0.0651679 -1.57465 0
M  V30 3473 C 335.328 0.79644 -1.78651 0
M  V30 3474 C 335.708 1.95454 -0.797566 0
M  V30 3475 O 335.056 2.27882 0.167946 0
M  V30 3476 C 335.266 1.26322 -3.25337 0
M  V30 3477 C 336.614 1.6939 -3.89348 0
M  V30 3478 O 337.638 1.35872 -3.29268 0
M  V30 3479 O 336.497 2.31471 -4.95059 0
M  V30 3480 H 333.591 0.382157 -0.733407 0
M  V30 3481 H 336.137 0.0447311 -1.69641 0
M  V30 3482 H 334.909 0.434859 -3.88876 0
M  V30 3483 H 334.532 2.07604 -3.39096 0
M  V30 3484 N 335.529 1.53961 0.336706 0
M  V30 3485 C 336.775 1.7179 1.07777 0
M  V30 3486 C 337.108 0.483263 1.88091 0
M  V30 3487 O 336.383 -0.519747 1.87427 0
M  V30 3488 C 336.666 2.98558 2.01334 0
M  V30 3489 C 336.519 4.32245 1.24437 0
M  V30 3490 C 337.838 3.21023 3.01052 0
M  V30 3491 H 334.957 0.625089 0.390426 0
M  V30 3492 H 337.599 1.86641 0.35567 0
M  V30 3493 H 335.749 2.86028 2.62908 0
M  V30 3494 H 337.421 4.56637 0.654243 0
M  V30 3495 H 335.664 4.30344 0.546458 0
M  V30 3496 H 336.335 5.17137 1.93063 0
M  V30 3497 H 338.811 3.32929 2.49595 0
M  V30 3498 H 337.687 4.11104 3.6371 0
M  V30 3499 H 337.948 2.37637 3.72802 0
M  V30 3500 N 337.007 -0.598083 1.45811 0
M  V30 3501 C 337.939 -1.72231 1.51225 0
M  V30 3502 C 338.952 -1.57757 0.402059 0
M  V30 3503 O 340.141 -1.65464 0.669624 0
M  V30 3504 C 337.241 -3.10331 1.3619 0
M  V30 3505 C 336.414 -3.50955 2.61054 0
M  V30 3506 C 335.473 -4.68055 2.40439 0
M  V30 3507 O 334.499 -4.74691 3.14097 0
M  V30 3508 N 335.701 -5.61941 1.45612 0
M  V30 3509 H 338.466 -1.68046 2.48154 0
M  V30 3510 H 336.027 -0.783637 1.41671 0
M  V30 3511 H 338.019 -3.86439 1.20195 0
M  V30 3512 H 336.589 -3.0897 0.475015 0
M  V30 3513 H 335.809 -2.64711 2.92099 0
M  V30 3514 H 337.097 -3.74858 3.44034 0
M  V30 3515 H 336.495 -5.59301 0.848431 0
M  V30 3516 H 335.052 -6.37542 1.35585 0
M  V30 3517 N 338.485 -1.33259 -0.841409 0
M  V30 3518 C 339.448 -1.23221 -1.9326 0
M  V30 3519 C 340.448 -0.151895 -1.60081 0
M  V30 3520 O 341.638 -0.403246 -1.69468 0
M  V30 3521 C 338.77 -0.898123 -3.28856 0
M  V30 3522 H 339.963 -2.2021 -2.03587 0
M  V30 3523 H 337.516 -1.17281 -1.03319 0
M  V30 3524 H 338.251 0.0693841 -3.24226 0
M  V30 3525 H 338.036 -1.67934 -3.54317 0
M  V30 3526 H 339.526 -0.852563 -4.08805 0
M  V30 3527 N 339.963 1.05934 -1.16686 0
M  V30 3528 C 340.926 2.11669 -0.879144 0
M  V30 3529 C 341.926 1.60294 0.127445 0
M  V30 3530 O 343.116 1.7389 -0.103865 0
M  V30 3531 C 340.248 3.39438 -0.315425 0
M  V30 3532 H 341.441 2.38626 -1.81653 0
M  V30 3533 H 338.994 1.22058 -0.976299 0
M  V30 3534 H 339.729 3.18132 0.629468 0
M  V30 3535 H 339.514 3.78034 -1.04079 0
M  V30 3536 H 341.004 4.17391 -0.132189 0
M  V30 3537 N 341.441 0.965919 1.2453 0
M  V30 3538 C 342.404 0.499547 2.2369 0
M  V30 3539 C 343.404 -0.40294 1.5567 0
M  V30 3540 O 344.594 -0.19865 1.73064 0
M  V30 3541 C 341.726 -0.276792 3.39774 0
M  V30 3542 H 342.919 1.37613 2.66463 0
M  V30 3543 H 340.472 0.750324 1.37112 0
M  V30 3544 H 341.207 -1.17055 3.02438 0
M  V30 3545 H 340.992 0.370826 3.90343 0
M  V30 3546 H 342.482 -0.592175 4.1338 0
M  V30 3547 N 342.919 -1.39368 0.735821 0
M  V30 3548 C 343.869 -2.27885 0.0724287 0
M  V30 3549 C 344.853 -1.44301 -0.711756 0
M  V30 3550 O 346.045 -1.67206 -0.58063 0
M  V30 3551 C 343.174 -3.33029 -0.833454 0
M  V30 3552 C 342.26 -4.24078 -0.0433749 0
M  V30 3553 N 342.651 -4.96138 0.983903 0
M  V30 3554 C 340.949 -4.45164 -0.272905 0
M  V30 3555 C 341.65 -5.63069 1.4604 0
M  V30 3556 N 340.626 -5.37991 0.778857 0
M  V30 3557 H 344.428 -2.81052 0.859467 0
M  V30 3558 H 341.942 -1.5206 0.570227 0
M  V30 3559 H 343.939 -3.95311 -1.32419 0
M  V30 3560 H 342.599 -2.81421 -1.61964 0
M  V30 3561 H 343.61 -4.9958 1.36528 0
M  V30 3562 H 340.287 -4.04497 -1.03383 0
M  V30 3563 H 341.677 -6.30755 2.31511 0
M  V30 3564 N 344.397 -0.483516 -1.5 0
M  V30 3565 C 345.645 0.067027 -2.01989 0
M  V30 3566 C 345.966 1.3909 -1.36671 0
M  V30 3567 O 345.236 1.88978 -0.516152 0
M  V30 3568 H 343.816 0.0277606 -0.746484 0
M  V30 3569 H 346.478 -0.636773 -1.84204 0
M  V30 3570 H 345.574 0.209484 -3.11396 0
M  V30 3571 N 345.875 1.56104 -0.216619 0
M  V30 3572 C 347.152 1.89988 0.465165 0
M  V30 3573 C 347.532 1.13326 1.78102 0
M  V30 3574 O 346.88 0.241033 2.27225 0
M  V30 3575 C 347.09 3.42646 0.662939 0
M  V30 3576 C 348.438 4.13311 0.972602 0
M  V30 3577 O 349.462 3.48217 0.749901 0
M  V30 3578 O 348.321 5.28396 1.39499 0
M  V30 3579 H 345.415 0.78979 0.245276 0
M  V30 3580 H 347.961 1.67721 -0.258436 0
M  V30 3581 H 346.733 3.90399 -0.26543 0
M  V30 3582 H 346.356 3.70677 1.43821 0
M  V30 3583 N 347.353 -0.0568162 1.57498 0
M  V30 3584 C 348.6 -0.753104 1.87975 0
M  V30 3585 C 348.928 -1.76815 0.81035 0
M  V30 3586 O 348.183 -1.94756 -0.19199 0
M  V30 3587 C 348.482 -1.48359 3.25153 0
M  V30 3588 C 348.148 -0.60713 4.46794 0
M  V30 3589 C 346.81 -0.365642 4.79809 0
M  V30 3590 C 349.162 -0.000305978 5.212 0
M  V30 3591 C 346.49 0.491905 5.84634 0
M  V30 3592 C 348.842 0.844781 6.26934 0
M  V30 3593 C 347.506 1.096 6.58441 0
M  V30 3594 H 346.776 -0.27558 0.687849 0
M  V30 3595 H 349.423 -0.0135173 1.91495 0
M  V30 3596 H 347.728 -2.29577 3.17492 0
M  V30 3597 H 349.425 -2.02739 3.45974 0
M  V30 3598 H 346.015 -0.805487 4.20963 0
M  V30 3599 H 350.199 -0.173961 4.95995 0
M  V30 3600 H 345.455 0.695131 6.07436 0
M  V30 3601 H 349.629 1.32165 6.83744 0
M  V30 3602 H 347.256 1.76224 7.39492 0
M  V30 3603 N 348.832 -1.54138 -0.328536 0
M  V30 3604 C 350.079 -1.72105 -1.06706 0
M  V30 3605 C 350.407 -0.492111 -1.88171 0
M  V30 3606 O 349.662 0.526153 -1.88494 0
M  V30 3607 C 349.961 -2.9457 -2.02393 0
M  V30 3608 C 349.627 -4.29544 -1.37122 0
M  V30 3609 C 348.289 -4.6624 -1.19052 0
M  V30 3610 C 350.641 -5.1333 -0.902331 0
M  V30 3611 C 347.969 -5.84325 -0.527331 0
M  V30 3612 C 350.321 -6.32094 -0.252988 0
M  V30 3613 C 348.985 -6.67473 -0.0600901 0
M  V30 3614 H 348.255 -0.629775 -0.390466 0
M  V30 3615 H 350.902 -1.88372 -0.34473 0
M  V30 3616 H 349.207 -2.72969 -2.81061 0
M  V30 3617 H 350.904 -3.05665 -2.59557 0
M  V30 3618 H 347.494 -4.0067 -1.52188 0
M  V30 3619 H 351.678 -4.855 -1.02974 0
M  V30 3620 H 346.934 -6.103 -0.366634 0
M  V30 3621 H 351.108 -6.96299 0.118366 0
M  V30 3622 H 348.735 -7.58832 0.455828 0
M  V30 3623 N 350.31 0.590341 -1.46126 0
M  V30 3624 C 351.257 1.69994 -1.56111 0
M  V30 3625 C 352.227 1.61065 -0.405867 0
M  V30 3626 O 353.412 1.8039 -0.621613 0
M  V30 3627 C 350.552 3.08326 -1.55013 0
M  V30 3628 C 349.665 3.27936 -2.81215 0
M  V30 3629 C 348.8 4.56473 -2.71673 0
M  V30 3630 C 347.839 4.694 -3.92849 0
M  V30 3631 N 346.976 5.89254 -3.81738 0
M  V30 3632 H 351.816 1.60797 -2.50895 0
M  V30 3633 H 349.353 0.783799 -1.24479 0
M  V30 3634 H 351.311 3.88383 -1.52362 0
M  V30 3635 H 349.941 3.16439 -0.637667 0
M  V30 3636 H 348.993 2.41536 -2.93879 0
M  V30 3637 H 350.305 3.33357 -3.71045 0
M  V30 3638 H 349.459 5.44748 -2.67085 0
M  V30 3639 H 348.198 4.53477 -1.7947 0
M  V30 3640 H 347.203 3.79544 -3.97777 0
M  V30 3641 H 348.428 4.7418 -4.86138 0
M  V30 3642 H 346.374 5.87271 -2.92317 0
M  V30 3643 H 346.291 5.95911 -4.65217 0
M  V30 3644 H 347.559 6.79981 -3.81112 0
M  V30 3645 N 351.788 1.33704 0.83433 0
M  V30 3646 C 352.735 1.24335 1.94447 0
M  V30 3647 C 353.705 0.120991 1.65659 0
M  V30 3648 O 354.89 0.300035 1.88426 0
M  V30 3649 C 352.03 0.993124 3.30501 0
M  V30 3650 C 351.143 2.20217 3.71657 0
M  V30 3651 C 350.278 1.88572 4.96602 0
M  V30 3652 C 349.317 3.05683 5.30306 0
M  V30 3653 N 348.454 2.73997 6.46429 0
M  V30 3654 H 353.294 2.1928 2.01792 0
M  V30 3655 H 350.831 1.09035 0.987404 0
M  V30 3656 H 352.789 0.828467 4.08892 0
M  V30 3657 H 351.419 0.0803902 3.227 0
M  V30 3658 H 350.471 2.47642 2.88752 0
M  V30 3659 H 351.783 3.07752 3.92543 0
M  V30 3660 H 350.937 1.68776 5.82752 0
M  V30 3661 H 349.676 0.982799 4.77695 0
M  V30 3662 H 348.681 3.26088 4.42659 0
M  V30 3663 H 349.906 3.96737 5.51159 0
M  V30 3664 H 347.852 1.86268 6.28999 0
M  V30 3665 H 347.769 3.55064 6.67432 0
M  V30 3666 H 349.037 2.57679 7.35678 0
M  V30 3667 N 353.266 -1.05314 1.17247 0
M  V30 3668 C 354.494 -1.81971 0.984593 0
M  V30 3669 C 354.909 -1.82929 -0.467166 0
M  V30 3670 O 354.266 -1.25564 -1.32438 0
M  V30 3671 C 354.317 -3.28143 1.51672 0
M  V30 3672 O 354.038 -3.27347 2.91163 0
M  V30 3673 C 355.539 -4.21493 1.37326 0
M  V30 3674 H 352.759 -0.573455 0.348411 0
M  V30 3675 H 355.303 -1.32808 1.55506 0
M  V30 3676 H 353.458 -3.74582 0.988302 0
M  V30 3677 H 353.872 -4.18824 3.15732 0
M  V30 3678 H 355.346 -5.22043 1.79375 0
M  V30 3679 H 355.823 -4.38031 0.320169 0
M  V30 3680 H 356.429 -3.80909 1.89178 0
M  V30 3681 N 354.744 -0.972509 -1.24016 0
M  V30 3682 C 355.691 -0.505969 -2.25186 0
M  V30 3683 C 356.661 0.451009 -1.5986 0
M  V30 3684 O 357.846 0.360307 -1.87367 0
M  V30 3685 C 354.986 0.193089 -3.44559 0
M  V30 3686 C 354.099 -0.803222 -4.24467 0
M  V30 3687 C 353.234 -0.0797793 -5.3114 0
M  V30 3688 C 352.273 -1.06583 -6.02749 0
M  V30 3689 N 351.41 -0.372074 -7.01113 0
M  V30 3690 H 356.25 -1.37351 -2.64459 0
M  V30 3691 H 353.787 -0.688419 -1.29997 0
M  V30 3692 H 355.745 0.615125 -4.1264 0
M  V30 3693 H 354.375 1.02455 -3.06109 0
M  V30 3694 H 353.427 -1.34368 -3.55878 0
M  V30 3695 H 354.739 -1.55494 -4.73944 0
M  V30 3696 H 353.893 0.400015 -6.0538 0
M  V30 3697 H 352.632 0.704597 -4.82583 0
M  V30 3698 H 351.637 -1.55645 -5.27309 0
M  V30 3699 H 352.862 -1.85074 -6.53395 0
M  V30 3700 H 350.808 0.393238 -6.5482 0
M  V30 3701 H 350.725 -1.06258 -7.48495 0
M  V30 3702 H 351.993 0.0855932 -7.79453 0
M  V30 3703 N 356.222 1.38976 -0.743202 0
M  V30 3704 C 357.47 1.99948 -0.29417 0
M  V30 3705 C 357.791 1.59279 1.12495 0
M  V30 3706 O 357.061 0.844808 1.76748 0
M  V30 3707 H 355.641 0.739473 -0.105774 0
M  V30 3708 H 358.303 1.699 -0.954986 0
M  V30 3709 H 357.399 3.10142 -0.349056 0
M  V30 3710 N 357.7 0.491464 1.49741 0
M  V30 3711 C 359.116 0.146835 1.58923 0
M  V30 3712 C 359.316 -1.34804 1.49767 0
M  V30 3713 O 358.372 -2.12317 1.36667 0
M  V30 3714 C 359.685 0.715157 2.92072 0
M  V30 3715 C 361.233 0.680407 3.05515 0
M  V30 3716 C 361.708 1.22663 4.41269 0
M  V30 3717 N 363.199 1.18691 4.47735 0
M  V30 3718 C 363.934 1.57984 5.51207 0
M  V30 3719 N 363.43 2.04824 6.6183 0
M  V30 3720 N 365.223 1.49459 5.41866 0
M  V30 3721 H 357.374 1.46347 1.53936 0
M  V30 3722 H 359.637 0.606453 0.728642 0
M  V30 3723 H 359.343 1.76317 3.04311 0
M  V30 3724 H 359.217 0.17018 3.76816 0
M  V30 3725 H 361.604 -0.358743 2.92911 0
M  V30 3726 H 361.685 1.26242 2.22478 0
M  V30 3727 H 361.329 2.26451 4.54623 0
M  V30 3728 H 361.259 0.620637 5.2293 0
M  V30 3729 H 363.75 0.843605 3.68364 0
M  V30 3730 H 364.063 2.32901 7.3687 0
M  V30 3731 H 362.408 2.08791 6.62896 0
M  V30 3732 H 365.599 1.12692 4.54333 0
M  V30 3733 H 365.772 1.80406 6.22381 0
M  V30 3734 N 359.178 -1.55987 0.224894 0
M  V30 3735 C 360.589 -1.84553 -0.282345 0
M  V30 3736 C 360.94 -1.14634 -1.59227 0
M  V30 3737 O 360.065 -0.417155 -2.12341 0
M  V30 3738 C 360.66 -3.348 -0.519062 0
M  V30 3739 C 359.219 -3.63671 -0.970604 0
M  V30 3740 C 358.366 -2.77277 -0.0355261 0
M  V30 3741 H 361.317 -1.52245 0.448006 0
M  V30 3742 H 361.338 -3.55187 -1.36463 0
M  V30 3743 H 360.85 -3.8566 0.43449 0
M  V30 3744 H 358.951 -3.1827 -1.9374 0
M  V30 3745 H 359.064 -4.71631 -0.842698 0
M  V30 3746 H 357.428 -2.48846 -0.542927 0
M  V30 3747 H 358.211 -3.30937 0.913003 0
M  V30 3748 N 360.656 0.0484629 -1.57525 0
M  V30 3749 C 361.904 0.741657 -1.88 0
M  V30 3750 C 362.225 1.76918 -0.820054 0
M  V30 3751 O 361.495 1.95335 0.148661 0
M  V30 3752 H 360.075 0.276908 -0.69378 0
M  V30 3753 H 362.737 0.019013 -1.94891 0
M  V30 3754 H 361.833 1.24336 -2.86264 0
M  V30 3755 N 362.134 1.5431 0.320358 0
M  V30 3756 C 363.381 1.72668 1.05792 0
M  V30 3757 C 363.709 0.502084 1.87908 0
M  V30 3758 O 362.964 -0.516149 1.88771 0
M  V30 3759 C 363.263 2.95639 2.00828 0
M  V30 3760 C 362.929 4.30265 1.34843 0
M  V30 3761 C 361.591 4.66865 1.16578 0
M  V30 3762 C 363.943 5.13801 0.875095 0
M  V30 3763 C 361.271 5.84597 0.496336 0
M  V30 3764 C 363.623 6.32219 0.219463 0
M  V30 3765 C 362.287 6.67495 0.0246915 0
M  V30 3766 H 361.557 0.631837 0.387121 0
M  V30 3767 H 364.204 1.88552 0.334735 0
M  V30 3768 H 362.509 2.74456 2.79609 0
M  V30 3769 H 364.206 3.07038 2.57932 0
M  V30 3770 H 360.796 4.01472 1.50061 0
M  V30 3771 H 364.98 4.86039 1.00398 0
M  V30 3772 H 360.236 6.10486 0.334264 0
M  V30 3773 H 364.41 6.96227 -0.155291 0
M  V30 3774 H 362.037 7.5858 -0.496065 0
M  V30 3775 N 363.613 -0.582584 1.46437 0
M  V30 3776 C 364.843 -1.36484 1.55099 0
M  V30 3777 C 365.251 -1.88233 0.191056 0
M  V30 3778 O 364.594 -1.6429 -0.821858 0
M  V30 3779 C 364.656 -2.588 2.49525 0
M  V30 3780 C 364.32 -2.28517 3.95764 0
M  V30 3781 C 365.317 -1.87346 4.84972 0
M  V30 3782 C 363.002 -2.40658 4.40896 0
M  V30 3783 C 364.996 -1.5871 6.17325 0
M  V30 3784 C 362.683 -2.11635 5.73284 0
M  V30 3785 C 363.681 -1.70725 6.61318 0
M  V30 3786 O 363.369 -1.42057 7.91249 0
M  V30 3787 H 363.101 -0.423297 0.527063 0
M  V30 3788 H 365.655 -0.715188 1.92547 0
M  V30 3789 H 363.885 -3.26571 2.07095 0
M  V30 3790 H 365.574 -3.20868 2.48593 0
M  V30 3791 H 366.34 -1.77481 4.5136 0
M  V30 3792 H 362.219 -2.71463 3.72598 0
M  V30 3793 H 365.763 -1.26704 6.85997 0
M  V30 3794 H 361.66 -2.21124 6.06444 0
M  V30 3795 H 362.428 -1.55901 8.03515 0
M  V30 3796 N 365.091 -1.34144 -0.827227 0
M  V30 3797 C 366.338 -1.26258 -1.58319 0
M  V30 3798 C 366.666 0.168595 -1.93768 0
M  V30 3799 O 365.921 1.12877 -1.59866 0
M  V30 3800 C 366.22 -2.09464 -2.89585 0
M  V30 3801 C 365.886 -3.58521 -2.73448 0
M  V30 3802 C 364.548 -3.99155 -2.68754 0
M  V30 3803 C 366.9 -4.53189 -2.57428 0
M  V30 3804 C 364.228 -5.32656 -2.45957 0
M  V30 3805 C 366.58 -5.86864 -2.36163 0
M  V30 3806 C 365.244 -6.26667 -2.29879 0
M  V30 3807 H 364.514 -0.462013 -0.579332 0
M  V30 3808 H 367.161 -1.65845 -0.95748 0
M  V30 3809 H 365.466 -1.62692 -3.56425 0
M  V30 3810 H 367.163 -2.00712 -3.47154 0
M  V30 3811 H 363.753 -3.26264 -2.77939 0
M  V30 3812 H 367.937 -4.22696 -2.60081 0
M  V30 3813 H 363.193 -5.62519 -2.39546 0
M  V30 3814 H 367.367 -6.59813 -2.22754 0
M  V30 3815 H 364.994 -7.30049 -2.11975 0
M  V30 3816 N 366.569 1.04691 -1.17803 0
M  V30 3817 C 367.817 1.7743 -0.967617 0
M  V30 3818 C 368.138 1.88359 0.504574 0
M  V30 3819 O 367.408 1.40402 1.36617 0
M  V30 3820 H 365.988 0.657242 -0.355024 0
M  V30 3821 H 368.65 1.2638 -1.48371 0
M  V30 3822 H 367.746 2.78924 -1.40027 0
M  V30 3823 N 368.047 0.979072 1.23499 0
M  V30 3824 C 368.957 0.526431 2.28617 0
M  V30 3825 C 369.973 -0.418126 1.68901 0
M  V30 3826 O 371.149 -0.288372 1.99325 0
M  V30 3827 C 368.214 -0.165235 3.46306 0
M  V30 3828 C 367.275 0.82056 4.21385 0
M  V30 3829 C 366.508 0.161807 5.33455 0
M  V30 3830 O 366.731 -1.04742 5.60701 0
M  V30 3831 O 365.665 0.859708 5.95729 0
M  V30 3832 H 369.491 1.4006 2.69475 0
M  V30 3833 H 367.076 0.746643 1.29405 0
M  V30 3834 H 368.958 -0.553287 4.17752 0
M  V30 3835 H 367.633 -1.01419 3.07402 0
M  V30 3836 H 366.54 1.25929 3.52268 0
M  V30 3837 H 367.873 1.63828 4.64135 0
M  V30 3838 N 369.525 -1.3858 0.750561 0
M  V30 3839 C 370.455 -2.33102 0.136237 0
M  V30 3840 C 371.436 -1.54713 -0.706965 0
M  V30 3841 O 372.621 -1.83043 -0.648769 0
M  V30 3842 C 369.751 -3.38882 -0.760017 0
M  V30 3843 C 368.705 -4.27995 -0.0197785 0
M  V30 3844 C 368.031 -5.24605 -1.03408 0
M  V30 3845 C 369.331 -5.09554 1.14684 0
M  V30 3846 H 371.025 -2.84726 0.925822 0
M  V30 3847 H 368.571 -1.36898 0.446654 0
M  V30 3848 H 370.524 -4.0397 -1.19943 0
M  V30 3849 H 369.248 -2.85734 -1.58189 0
M  V30 3850 H 367.907 -3.64409 0.400184 0
M  V30 3851 H 367.555 -4.67746 -1.84994 0
M  V30 3852 H 367.255 -5.85081 -0.543464 0
M  V30 3853 H 368.779 -5.9257 -1.47288 0
M  V30 3854 H 370.193 -5.67899 0.785118 0
M  V30 3855 H 368.59 -5.7925 1.56812 0
M  V30 3856 H 369.66 -4.4347 1.96118 0
M  V30 3857 N 371.003 -0.499398 -1.49478 0
M  V30 3858 C 372.414 -0.051215 -1.8663 0
M  V30 3859 C 372.765 1.36238 -1.41186 0
M  V30 3860 O 371.89 2.01502 -0.789051 0
M  V30 3861 C 372.485 -0.0861651 -3.3869 0
M  V30 3862 C 371.044 0.30667 -3.75149 0
M  V30 3863 C 370.191 -0.459397 -2.73468 0
M  V30 3864 H 373.142 -0.712264 -1.41818 0
M  V30 3865 H 373.163 0.709507 -3.73826 0
M  V30 3866 H 372.675 -1.11512 -3.71735 0
M  V30 3867 H 370.776 1.33892 -3.47712 0
M  V30 3868 H 370.889 -0.0116669 -4.79099 0
M  V30 3869 H 369.253 0.0905645 -2.54539 0
M  V30 3870 H 370.036 -1.4884 -3.09357 0
M  V30 3871 N 372.481 1.55866 -0.233164 0
M  V30 3872 C 373.411 2.23783 0.666599 0
M  V30 3873 C 374.392 1.21343 1.19205 0
M  V30 3874 O 375.577 1.4996 1.23392 0
M  V30 3875 C 372.707 2.92671 1.86978 0
M  V30 3876 C 371.661 4.01682 1.47768 0
M  V30 3877 C 370.987 4.57926 2.76058 0
M  V30 3878 C 372.287 5.18126 0.658993 0
M  V30 3879 H 373.981 2.99232 0.100306 0
M  V30 3880 H 371.527 1.43924 0.046804 0
M  V30 3881 H 373.48 3.3888 2.50476 0
M  V30 3882 H 372.204 2.14688 2.46123 0
M  V30 3883 H 370.863 3.56222 0.866106 0
M  V30 3884 H 370.511 3.76659 3.33372 0
M  V30 3885 H 370.211 5.31505 2.50552 0
M  V30 3886 H 371.735 5.06859 3.40479 0
M  V30 3887 H 373.149 5.60644 1.19795 0
M  V30 3888 H 371.546 5.98009 0.500552 0
M  V30 3889 H 372.616 4.83763 -0.331856 0
M  V30 3890 N 373.959 -0.0401083 1.57549 0
M  V30 3891 C 375.184 -0.748931 1.93406 0
M  V30 3892 C 375.609 -1.68686 0.832274 0
M  V30 3893 O 374.967 -1.80047 -0.212818 0
M  V30 3894 C 375.015 -1.4916 3.28304 0
M  V30 3895 O 374.119 -2.6042 3.19774 0
M  V30 3896 H 373.46 -0.202212 0.63246 0
M  V30 3897 H 375.99 0.00112086 2.046 0
M  V30 3898 H 376 -1.86395 3.62934 0
M  V30 3899 H 374.675 -0.80364 4.08062 0
M  V30 3900 H 373.252 -2.25808 2.96758 0
M  V30 3901 N 375.437 -1.54477 -0.31217 0
M  V30 3902 C 376.367 -1.87652 -1.38957 0
M  V30 3903 C 377.348 -0.734358 -1.53431 0
M  V30 3904 O 378.533 -0.98911 -1.67123 0
M  V30 3905 C 375.663 -2.11396 -2.75552 0
M  V30 3906 C 374.617 -3.27243 -2.75855 0
M  V30 3907 C 373.943 -3.36382 -4.15633 0
M  V30 3908 C 375.243 -4.64622 -2.38587 0
M  V30 3909 H 376.937 -2.77887 -1.11442 0
M  V30 3910 H 374.483 -1.33707 -0.534655 0
M  V30 3911 H 376.436 -2.33189 -3.51 0
M  V30 3912 H 375.16 -1.17921 -3.04569 0
M  V30 3913 H 373.819 -3.05356 -2.02863 0
M  V30 3914 H 373.467 -2.40445 -4.41809 0
M  V30 3915 H 373.167 -4.14249 -4.1674 0
M  V30 3916 H 374.691 -3.60422 -4.92877 0
M  V30 3917 H 376.105 -4.86219 -3.03749 0
M  V30 3918 H 374.502 -5.45121 -2.50925 0
M  V30 3919 H 375.572 -4.66097 -1.33723 0
M  V30 3920 N 376.915 0.57481 -1.46744 0
M  V30 3921 C 377.878 1.66533 -1.57478 0
M  V30 3922 C 378.878 1.54338 -0.451263 0
M  V30 3923 O 380.068 1.58814 -0.715813 0
M  V30 3924 C 377.2 3.05999 -1.50259 0
M  V30 3925 H 378.393 1.58372 -2.54673 0
M  V30 3926 H 375.946 0.793301 -1.34672 0
M  V30 3927 H 376.681 3.19709 -0.543725 0
M  V30 3928 H 376.466 3.16259 -2.31781 0
M  V30 3929 H 377.956 3.8537 -1.60872 0
M  V30 3930 N 378.394 1.34581 0.820102 0
M  V30 3931 C 379.357 1.2628 1.91275 0
M  V30 3932 C 380.357 0.177344 1.59819 0
M  V30 3933 O 381.547 0.430156 1.68806 0
M  V30 3934 C 378.679 0.950327 3.27386 0
M  V30 3935 H 379.872 2.23421 2.00057 0
M  V30 3936 H 377.425 1.1891 1.0144 0
M  V30 3937 H 378.16 -0.0177938 3.24295 0
M  V30 3938 H 377.945 1.73549 3.51601 0
M  V30 3939 H 379.435 0.917492 4.07396 0
M  V30 3940 N 379.872 -1.04064 1.18357 0
M  V30 3941 C 381.112 -1.78829 0.989921 0
M  V30 3942 C 381.476 -1.86106 -0.472095 0
M  V30 3943 O 382.677 -2.57076 -0.785187 0
M  V30 3944 C 380.948 -3.1823 1.6268 0
M  V30 3945 S 382.507 -4.09332 1.58091 0
M  V30 3946 H 379.325 -0.615754 0.355482 0
M  V30 3947 H 381.927 -1.24778 1.50501 0
M  V30 3948 H 380.631 -3.10543 2.68311 0
M  V30 3949 H 380.162 -3.77357 1.112 0
M  V30 3950 H 382.177 -4.92598 0.596817 0
M  V30 3951 N 381.35 -0.985608 -1.22978 0
M  V30 3952 C 382.578 -0.675582 -1.95559 0
M  V30 3953 C 382.993 0.758413 -1.72897 0
M  V30 3954 O 382.35 1.51094 -1.02357 0
M  V30 3955 C 382.401 -0.96293 -3.48439 0
M  V30 3956 O 382.122 -2.34057 -3.70336 0
M  V30 3957 C 383.623 -0.669585 -4.38214 0
M  V30 3958 H 380.843 -0.250523 -0.622478 0
M  V30 3959 H 383.387 -1.3184 -1.56328 0
M  V30 3960 H 381.542 -0.366033 -3.85667 0
M  V30 3961 H 381.956 -2.43424 -4.64591 0
M  V30 3962 H 383.43 -0.920967 -5.44263 0
M  V30 3963 H 383.907 0.396383 -4.37408 0
M  V30 3964 H 384.513 -1.2472 -4.06602 0
M  V30 3965 N 382.828 1.3818 -0.7579 0
M  V30 3966 C 383.776 2.32277 -0.122482 0
M  V30 3967 C 384.77 1.54238 0.700505 0
M  V30 3968 O 385.976 1.69737 0.599119 0
M  V30 3969 H 382.351 0.751712 -0.0208143 0
M  V30 3970 H 384.322 2.83469 -0.932099 0
M  V30 3971 C 383.071 3.39447 0.753076 0
M  V30 3972 H 382.394 3.99591 0.129184 0
M  V30 3973 H 383.834 4.07684 1.16489 0
M  V30 3974 C 382.293 2.78375 1.8976 0
M  V30 3975 O 382.823 2.68025 2.99208 0
M  V30 3976 N 381.029 2.36121 1.69397 0
M  V30 3977 H 380.576 2.4474 0.803762 0
M  V30 3978 H 380.534 1.95602 2.46145 0
M  V30 3979 N 384.306 0.507319 1.49211 0
M  V30 3980 C 385.238 -0.304532 2.27168 0
M  V30 3981 C 386.251 -0.924956 1.33972 0
M  V30 3982 O 387.44 -0.807227 1.59205 0
M  V30 3983 C 384.54 -1.44431 3.06583 0
M  V30 3984 C 383.713 -0.930026 4.27398 0
M  V30 3985 C 382.772 -1.94817 4.88807 0
M  V30 3986 O 381.798 -1.51418 5.4869 0
M  V30 3987 N 383 -3.279 4.79022 0
M  V30 3988 H 385.765 0.36395 2.97482 0
M  V30 3989 H 383.326 0.340249 1.58284 0
M  V30 3990 H 385.318 -2.12311 3.44537 0
M  V30 3991 H 383.888 -2.01684 2.38835 0
M  V30 3992 H 383.108 -0.0759244 3.94127 0
M  V30 3993 H 384.396 -0.564932 5.05654 0
M  V30 3994 H 383.794 -3.65843 4.3148 0
M  V30 3995 H 382.351 -3.91476 5.21142 0
M  V30 3996 N 385.784 -1.5574 0.241426 0
M  V30 3997 C 386.714 -2.24133 -0.654722 0
M  V30 3998 C 387.695 -1.21974 -1.1856 0
M  V30 3999 O 388.88 -1.50612 -1.22595 0
M  V30 4000 C 386.01 -2.93659 -1.85423 0
M  V30 4001 C 384.964 -4.0246 -1.45636 0
M  V30 4002 C 384.29 -4.59383 -2.73626 0
M  V30 4003 C 385.59 -5.18468 -0.631506 0
M  V30 4004 H 387.284 -2.99281 -0.0844353 0
M  V30 4005 H 384.83 -1.43947 -0.0391707 0
M  V30 4006 H 386.783 -3.40203 -2.48676 0
M  V30 4007 H 385.507 -2.15991 -2.44981 0
M  V30 4008 H 384.166 -3.56676 -0.847202 0
M  V30 4009 H 383.814 -3.78422 -3.3137 0
M  V30 4010 H 383.514 -5.32826 -2.4773 0
M  V30 4011 H 385.038 -5.08658 -3.37786 0
M  V30 4012 H 386.452 -5.61272 -1.1682 0
M  V30 4013 H 384.849 -5.98266 -0.468831 0
M  V30 4014 H 385.919 -4.8358 0.357506 0
M  V30 4015 N 387.262 0.0317525 -1.57568 0
M  V30 4016 C 388.51 0.721676 -1.88776 0
M  V30 4017 C 388.831 1.76039 -0.838772 0
M  V30 4018 O 388.101 1.95482 0.127935 0
M  V30 4019 H 386.681 0.269534 -0.696678 0
M  V30 4020 H 389.343 -0.00165879 -1.949 0
M  V30 4021 H 388.439 1.21293 -2.87566 0
M  V30 4022 N 388.74 1.54641 0.303973 0
M  V30 4023 C 389.989 1.7299 1.03717 0
M  V30 4024 C 390.302 0.521168 1.88529 0
M  V30 4025 O 391.508 0.586408 2.65092 0
M  V30 4026 C 389.964 3.06051 1.89369 0
M  V30 4027 C 389.572 4.34393 1.09574 0
M  V30 4028 C 391.316 3.3376 2.62306 0
M  V30 4029 C 389.223 5.58506 1.94486 0
M  V30 4030 H 388.153 0.64473 0.390947 0
M  V30 4031 H 390.804 1.81124 0.294328 0
M  V30 4032 H 389.186 2.91874 2.67629 0
M  V30 4033 H 390.36 4.59396 0.359485 0
M  V30 4034 H 388.675 4.13597 0.482324 0
M  V30 4035 H 391.272 4.23687 3.26181 0
M  V30 4036 H 391.615 2.52503 3.3098 0
M  V30 4037 H 392.148 3.48894 1.91097 0
M  V30 4038 H 388.887 6.42422 1.30287 0
M  V30 4039 H 388.407 5.37694 2.65792 0
M  V30 4040 H 390.086 5.95651 2.52605 0
M  V30 4041 N 390.218 -0.567019 1.47046 0
M  V30 4042 C 391.464 -1.32658 1.53394 0
M  V30 4043 C 391.797 -1.93254 0.19148 0
M  V30 4044 O 391.072 -1.77338 -0.798844 0
M  V30 4045 C 391.355 -2.44412 2.64452 0
M  V30 4046 C 391.208 -1.88749 4.08282 0
M  V30 4047 C 392.527 -3.46387 2.71485 0
M  V30 4048 H 389.646 -0.48098 0.558415 0
M  V30 4049 H 392.288 -0.635481 1.79058 0
M  V30 4050 H 390.438 -3.03363 2.427 0
M  V30 4051 H 392.11 -1.34134 4.41368 0
M  V30 4052 H 390.353 -1.19481 4.17021 0
M  V30 4053 H 391.024 -2.69491 4.81745 0
M  V30 4054 H 393.5 -2.9734 2.91081 0
M  V30 4055 H 392.376 -4.2202 3.50985 0
M  V30 4056 H 392.637 -4.04616 1.78153 0
M  V30 4057 N 391.696 -1.35014 -0.812953 0
M  V30 4058 C 392.643 -1.27412 -1.92444 0
M  V30 4059 C 393.613 -0.14733 -1.65445 0
M  V30 4060 O 394.798 -0.329974 -1.87925 0
M  V30 4061 C 391.938 -1.04558 -3.28879 0
M  V30 4062 C 391.051 -2.26101 -3.68106 0
M  V30 4063 C 390.186 -1.96449 -4.9354 0
M  V30 4064 C 389.225 -3.14081 -5.25376 0
M  V30 4065 N 388.362 -2.84246 -6.41988 0
M  V30 4066 H 393.202 -2.22463 -1.98278 0
M  V30 4067 H 390.739 -1.10593 -0.969933 0
M  V30 4068 H 392.697 -0.893413 -4.07522 0
M  V30 4069 H 391.327 -0.131719 -3.22531 0
M  V30 4070 H 390.379 -2.52204 -2.84775 0
M  V30 4071 H 391.691 -3.13959 -3.87597 0
M  V30 4072 H 390.845 -1.78026 -5.79993 0
M  V30 4073 H 389.584 -1.05867 -4.76071 0
M  V30 4074 H 388.589 -3.33089 -4.37415 0
M  V30 4075 H 389.814 -4.05455 -5.44778 0
M  V30 4076 H 387.76 -1.96252 -6.25956 0
M  V30 4077 H 387.677 -3.65637 -6.61699 0
M  V30 4078 H 388.945 -2.6935 -7.31485 0
M  V30 4079 N 393.175 1.03435 -1.18907 0
M  V30 4080 C 394.422 1.76743 -0.988334 0
M  V30 4081 C 394.75 1.88447 0.481441 0
M  V30 4082 O 394.005 1.39383 1.37371 0
M  V30 4083 C 394.304 3.19792 -1.59586 0
M  V30 4084 C 393.97 3.28108 -3.09283 0
M  V30 4085 C 392.632 3.30084 -3.5014 0
M  V30 4086 C 394.984 3.27696 -4.05296 0
M  V30 4087 C 392.312 3.29299 -4.85571 0
M  V30 4088 C 394.664 3.28451 -5.4065 0
M  V30 4089 C 393.328 3.28723 -5.80946 0
M  V30 4090 H 392.598 0.64675 -0.361657 0
M  V30 4091 H 395.245 1.21442 -1.48068 0
M  V30 4092 H 393.55 3.78136 -1.02568 0
M  V30 4093 H 395.247 3.75171 -1.41589 0
M  V30 4094 H 391.837 3.27294 -2.76725 0
M  V30 4095 H 396.021 3.25354 -3.74778 0
M  V30 4096 H 391.277 3.2783 -5.16079 0
M  V30 4097 H 395.451 3.27082 -6.14809 0
M  V30 4098 H 393.078 3.27868 -6.85862 0
M  V30 4099 N 394.653 0.992116 1.22453 0
M  V30 4100 C 395.583 0.561677 2.26644 0
M  V30 4101 C 396.564 -0.411055 1.65059 0
M  V30 4102 O 397.749 -0.301861 1.9184 0
M  V30 4103 C 394.879 -0.125247 3.47074 0
M  V30 4104 C 393.833 0.765948 4.21091 0
M  V30 4105 C 393.159 -0.0538484 5.34673 0
M  V30 4106 C 394.459 2.06242 4.79856 0
M  V30 4107 H 396.153 1.43259 2.62902 0
M  V30 4108 H 393.699 0.690283 1.26377 0
M  V30 4109 H 395.652 -0.437764 4.1912 0
M  V30 4110 H 394.376 -1.03069 3.0991 0
M  V30 4111 H 393.035 1.0621 3.50878 0
M  V30 4112 H 392.683 -0.960188 4.9375 0
M  V30 4113 H 392.383 0.539415 5.85119 0
M  V30 4114 H 393.907 -0.360477 6.09535 0
M  V30 4115 H 395.321 1.8139 5.43848 0
M  V30 4116 H 393.718 2.60444 5.40638 0
M  V30 4117 H 394.788 2.74167 3.99951 0
M  V30 4118 N 396.131 -1.37776 0.765217 0
M  V30 4119 C 397.061 -2.32945 0.160953 0
M  V30 4120 C 398.042 -1.55454 -0.690516 0
M  V30 4121 O 399.227 -1.83721 -0.629318 0
M  V30 4122 C 396.357 -3.39669 -0.724031 0
M  V30 4123 C 395.311 -4.27992 0.0256173 0
M  V30 4124 C 394.637 -5.25673 -0.978383 0
M  V30 4125 C 395.937 -5.08309 1.20082 0
M  V30 4126 H 397.631 -2.83728 0.955969 0
M  V30 4127 H 395.177 -1.36416 0.461149 0
M  V30 4128 H 397.13 -4.05219 -1.15652 0
M  V30 4129 H 395.854 -2.87396 -1.5515 0
M  V30 4130 H 394.513 -3.63964 0.438812 0
M  V30 4131 H 394.161 -4.69682 -1.80022 0
M  V30 4132 H 393.861 -5.85625 -0.481378 0
M  V30 4133 H 395.385 -5.94098 -1.40995 0
M  V30 4134 H 396.799 -5.67034 0.845307 0
M  V30 4135 H 395.196 -5.77554 1.62947 0
M  V30 4136 H 396.266 -4.41365 2.00811 0
M  V30 4137 N 397.609 -0.515225 -1.4894 0
M  V30 4138 C 398.541 0.292481 -2.27326 0
M  V30 4139 C 399.554 0.917838 -1.3446 0
M  V30 4140 O 400.743 0.798772 -1.5963 0
M  V30 4141 C 397.843 1.42803 -3.07344 0
M  V30 4142 C 397.016 0.907347 -4.27885 0
M  V30 4143 C 396.075 1.92222 -4.89834 0
M  V30 4144 O 395.101 1.48506 -5.49486 0
M  V30 4145 N 396.303 3.25355 -4.80754 0
M  V30 4146 H 399.068 -0.379721 -2.97285 0
M  V30 4147 H 396.629 -0.348638 -1.58102 0
M  V30 4148 H 398.621 2.10481 -3.45658 0
M  V30 4149 H 397.191 2.00414 -2.39902 0
M  V30 4150 H 396.411 0.0550218 -3.94162 0
M  V30 4151 H 397.699 0.538108 -5.05946 0
M  V30 4152 H 397.097 3.6355 -4.33414 0
M  V30 4153 H 395.654 3.88707 -5.23211 0
M  V30 4154 N 399.087 1.5561 -0.249682 0
M  V30 4155 C 400.035 2.22894 0.664906 0
M  V30 4156 C 401.029 1.21743 1.17792 0
M  V30 4157 O 402.235 1.39748 1.13449 0
M  V30 4158 H 398.61 0.715022 0.232912 0
M  V30 4159 H 400.581 2.98307 0.0742998 0
M  V30 4160 C 399.33 2.94424 1.84959 0
M  V30 4161 H 398.653 3.72031 1.46399 0
M  V30 4162 H 400.093 3.44862 2.4667 0
M  V30 4163 C 398.552 1.98454 2.72245 0
M  V30 4164 O 399.082 1.51939 3.71857 0
M  V30 4165 N 397.288 1.65496 2.38871 0
M  V30 4166 H 396.835 2.03517 1.57919 0
M  V30 4167 H 396.793 1.0155 2.97548 0
M  V30 4168 N 400.565 -0.0233959 1.57583 0
M  V30 4169 C 401.79 -0.728376 1.94189 0
M  V30 4170 C 402.215 -1.67793 0.850119 0
M  V30 4171 O 401.573 -1.80262 -0.19371 0
M  V30 4172 C 401.621 -1.45669 3.29868 0
M  V30 4173 O 400.725 -2.57013 3.22518 0
M  V30 4174 H 400.066 -0.195493 0.63457 0
M  V30 4175 H 402.596 0.0228214 2.04587 0
M  V30 4176 H 402.606 -1.82535 3.6489 0
M  V30 4177 H 401.281 -0.760314 4.08891 0
M  V30 4178 H 399.858 -2.22648 2.99136 0
M  V30 4179 N 402.043 -1.548 -0.295768 0
M  V30 4180 C 403.289 -1.75517 -1.02789 0
M  V30 4181 C 403.644 -0.537266 -1.84746 0
M  V30 4182 O 402.937 0.470299 -1.85738 0
M  V30 4183 C 403.131 -2.98797 -1.961 0
M  V30 4184 C 402.96 -4.3246 -1.23321 0
M  V30 4185 C 401.73 -4.96131 -0.95822 0
M  V30 4186 C 403.928 -5.10365 -0.635024 0
M  V30 4187 N 401.91 -6.1357 -0.201257 0
M  V30 4188 C 403.281 -6.19999 -0.0110937 0
M  V30 4189 C 405.336 -4.94957 -0.540594 0
M  V30 4190 C 404.039 -7.15904 0.698136 0
M  V30 4191 C 406.065 -5.91197 0.154992 0
M  V30 4192 C 405.427 -7.00203 0.767752 0
M  V30 4193 H 401.526 -0.694786 -0.358882 0
M  V30 4194 H 404.11 -1.92281 -0.305943 0
M  V30 4195 H 402.281 -2.83448 -2.6554 0
M  V30 4196 H 404.013 -3.08017 -2.62502 0
M  V30 4197 H 400.768 -4.56595 -1.25771 0
M  V30 4198 H 401.192 -6.76802 0.16389 0
M  V30 4199 H 405.834 -4.10803 -1.00003 0
M  V30 4200 H 403.552 -7.99595 1.16933 0
M  V30 4201 H 407.138 -5.81353 0.228069 0
M  V30 4202 H 406.018 -7.73393 1.29743 0
M  V30 4203 N 403.521 0.559213 -1.47345 0
M  V30 4204 C 404.453 1.68161 -1.55738 0
M  V30 4205 C 405.466 1.56636 -0.443744 0
M  V30 4206 O 406.655 1.6363 -0.713258 0
M  V30 4207 C 403.755 3.06611 -1.4437 0
M  V30 4208 C 402.928 3.4391 -2.70268 0
M  V30 4209 C 401.987 4.61515 -2.52765 0
M  V30 4210 O 401.013 4.66197 -3.26572 0
M  V30 4211 N 402.215 5.57883 -1.6046 0
M  V30 4212 H 404.98 1.61408 -2.52522 0
M  V30 4213 H 402.541 0.7458 -1.43699 0
M  V30 4214 H 404.533 3.83117 -1.30398 0
M  V30 4215 H 403.103 3.07602 -0.556766 0
M  V30 4216 H 402.323 2.56873 -2.99015 0
M  V30 4217 H 403.611 3.65605 -3.53851 0
M  V30 4218 H 403.009 5.56855 -0.996422 0
M  V30 4219 H 401.566 6.33723 -1.52441 0
M  V30 4220 N 404.999 1.35443 0.805782 0
M  V30 4221 C 406.227 1.31878 1.59423 0
M  V30 4222 C 406.642 -0.103562 1.88516 0
M  V30 4223 O 405.999 -1.05575 1.48863 0
M  V30 4224 C 406.05 2.12426 2.92502 0
M  V30 4225 O 405.771 3.49115 2.6467 0
M  V30 4226 C 407.272 2.16455 3.86862 0
M  V30 4227 H 404.492 0.453002 0.495005 0
M  V30 4228 H 407.036 1.78309 1.00131 0
M  V30 4229 H 405.191 1.69593 3.48306 0
M  V30 4230 H 405.605 3.90957 3.49647 0
M  V30 4231 H 407.079 2.77204 4.77349 0
M  V30 4232 H 407.556 1.16352 4.23508 0
M  V30 4233 H 408.162 2.59453 3.36993 0
M  V30 4234 N 406.477 -1.02803 1.19454 0
M  V30 4235 C 407.44 -2.09264 0.934955 0
M  V30 4236 C 408.44 -1.60576 -0.0849015 0
M  V30 4237 O 409.63 -1.73554 0.149933 0
M  V30 4238 C 406.762 -3.38482 0.40531 0
M  V30 4239 H 407.955 -2.33726 1.87916 0
M  V30 4240 H 405.508 -1.19426 1.00832 0
M  V30 4241 H 406.243 -3.19689 -0.544899 0
M  V30 4242 H 406.028 -3.75142 1.14065 0
M  V30 4243 H 407.518 -4.16894 0.242806 0
M  V30 4244 N 407.956 -0.998596 -1.21925 0
M  V30 4245 C 409.233 -0.593401 -1.86382 0
M  V30 4246 C 409.613 0.92916 -1.89552 0
M  V30 4247 O 408.961 1.81347 -1.39017 0
M  V30 4248 C 409.171 -1.22039 -3.26967 0
M  V30 4249 C 410.519 -1.32449 -4.03413 0
M  V30 4250 O 411.543 -1.17522 -3.36254 0
M  V30 4251 O 410.402 -1.56395 -5.23644 0
M  V30 4252 H 407.496 -0.202385 -0.801854 0
M  V30 4253 H 410.042 -1.09484 -1.29659 0
M  V30 4254 H 408.814 -2.26158 -3.19325 0
M  V30 4255 H 408.437 -0.704906 -3.91301 0
M  V30 4256 N 409.434 1.37368 -0.772513 0
M  V30 4257 C 410.683 1.98918 -0.333861 0
M  V30 4258 C 410.996 1.62017 1.09589 0
M  V30 4259 O 412.202 2.16676 1.63596 0
M  V30 4260 C 410.658 3.55735 -0.545971 0
M  V30 4261 C 410.266 4.01573 -1.98603 0
M  V30 4262 C 412.01 4.24156 -0.170979 0
M  V30 4263 C 409.917 5.51102 -2.1457 0
M  V30 4264 H 408.847 0.744214 -0.121085 0
M  V30 4265 H 411.498 1.56888 -0.95175 0
M  V30 4266 H 409.88 3.95748 0.141387 0
M  V30 4267 H 411.054 3.72803 -2.7084 0
M  V30 4268 H 409.369 3.45937 -2.31769 0
M  V30 4269 H 411.966 5.34024 -0.26878 0
M  V30 4270 H 412.309 4.06917 0.878855 0
M  V30 4271 H 412.842 3.89447 -0.810914 0
M  V30 4272 H 409.581 5.73268 -3.17875 0
M  V30 4273 H 409.101 5.81554 -1.46817 0
M  V30 4274 H 410.78 6.17083 -1.94468 0
M  V30 4275 N 410.912 0.523116 1.48665 0
M  V30 4276 C 412.137 -0.0117284 2.07397 0
M  V30 4277 C 412.562 -1.28031 1.37803 0
M  V30 4278 O 411.92 -1.75836 0.441762 0
M  V30 4279 C 411.968 -0.225786 3.59892 0
M  V30 4280 O 411.072 -1.29592 3.91509 0
M  V30 4281 H 410.413 0.0360673 0.66302 0
M  V30 4282 H 412.943 0.729066 1.9117 0
M  V30 4283 H 412.953 -0.450552 4.05505 0
M  V30 4284 H 411.628 0.700944 4.09951 0
M  V30 4285 H 410.205 -1.05436 3.57684 0
M  V30 4286 N 412.39 -1.55475 0.257931 0
M  V30 4287 C 413.353 -2.20551 -0.623706 0
M  V30 4288 C 414.353 -1.17809 -1.09443 0
M  V30 4289 O 415.543 -1.42823 -0.997362 0
M  V30 4290 C 412.675 -2.85784 -1.8585 0
M  V30 4291 H 413.868 -2.99848 -0.0557743 0
M  V30 4292 H 411.421 -1.56298 0.0084422 0
M  V30 4293 H 412.156 -2.10453 -2.46739 0
M  V30 4294 H 411.941 -3.61057 -1.52907 0
M  V30 4295 H 413.431 -3.35553 -2.48584 0
M  V30 4296 N 413.868 0.0150385 -1.57593 0
M  V30 4297 C 415.284 0.370907 -1.5523 0
M  V30 4298 C 415.484 1.75735 -0.985882 0
M  V30 4299 O 414.54 2.44944 -0.613077 0
M  V30 4300 C 415.853 0.259908 -2.99575 0
M  V30 4301 C 417.401 0.335959 -3.11192 0
M  V30 4302 C 417.876 0.254253 -4.57294 0
M  V30 4303 N 419.367 0.312618 -4.62144 0
M  V30 4304 C 420.102 0.272505 -5.72752 0
M  V30 4305 N 419.598 0.183864 -6.92556 0
M  V30 4306 N 421.391 0.323267 -5.6117 0
M  V30 4307 H 413.542 -0.892104 -1.92757 0
M  V30 4308 H 415.805 -0.340563 -0.884715 0
M  V30 4309 H 415.511 -0.693403 -3.44797 0
M  V30 4310 H 415.385 1.048 -3.62349 0
M  V30 4311 H 417.772 1.27971 -2.65909 0
M  V30 4312 H 417.853 -0.481739 -2.51223 0
M  V30 4313 H 417.497 -0.685887 -5.03247 0
M  V30 4314 H 417.427 1.09024 -5.15191 0
M  V30 4315 H 419.918 0.38307 -3.75953 0
M  V30 4316 H 420.231 0.15874 -7.72637 0
M  V30 4317 H 418.576 0.149708 -6.94839 0
M  V30 4318 H 421.767 0.390607 -4.66467 0
M  V30 4319 H 421.94 0.288539 -6.47357 0
M  V30 4320 N 415.346 1.54954 0.287554 0
M  V30 4321 C 416.623 1.65569 1.04146 0
M  V30 4322 C 417.003 0.512672 2.0478 0
M  V30 4323 O 416.351 -0.489038 2.23205 0
M  V30 4324 C 416.561 3.04163 1.71131 0
M  V30 4325 C 417.909 3.61429 2.22832 0
M  V30 4326 O 418.933 3.06702 1.81141 0
M  V30 4327 O 417.792 4.57281 2.9926 0
M  V30 4328 H 414.886 0.671881 0.482188 0
M  V30 4329 H 417.432 1.67297 0.28457 0
M  V30 4330 H 416.204 3.78796 0.981303 0
M  V30 4331 H 415.827 3.06271 2.53543 0
M  V30 4332 N 416.824 -0.551391 1.4764 0
M  V30 4333 C 418.049 -1.33837 1.58437 0
M  V30 4334 C 418.474 -1.866 0.237063 0
M  V30 4335 O 417.832 -1.6328 -0.787994 0
M  V30 4336 C 417.88 -2.48014 2.61766 0
M  V30 4337 O 416.984 -3.50419 2.1744 0
M  V30 4338 H 416.325 -0.397299 0.532024 0
M  V30 4339 H 418.855 -0.665759 1.93465 0
M  V30 4340 H 418.865 -2.94503 2.82369 0
M  V30 4341 H 417.54 -2.08969 3.5959 0
M  V30 4342 H 416.117 -3.10196 2.06961 0
M  V30 4343 N 418.302 -1.35869 -0.798587 0
M  V30 4344 C 419.548 -1.2978 -1.55836 0
M  V30 4345 C 419.881 0.125322 -1.93795 0
M  V30 4346 O 419.156 1.07658 -1.61987 0
M  V30 4347 C 419.439 -2.21188 -2.84162 0
M  V30 4348 C 419.292 -3.72155 -2.52628 0
M  V30 4349 C 420.611 -2.11545 -3.85923 0
M  V30 4350 H 417.73 -0.472769 -0.565383 0
M  V30 4351 H 420.372 -1.66341 -0.918192 0
M  V30 4352 H 418.522 -1.90139 -3.38791 0
M  V30 4353 H 420.194 -4.13682 -2.04121 0
M  V30 4354 H 418.437 -3.92042 -1.85704 0
M  V30 4355 H 419.108 -4.31511 -3.44242 0
M  V30 4356 H 421.584 -2.38855 -3.40716 0
M  V30 4357 H 420.46 -2.77688 -4.73477 0
M  V30 4358 H 420.721 -1.09987 -4.282 0
M  V30 4359 N 419.78 1.02168 -1.19998 0
M  V30 4360 C 421.028 1.75338 -1.00504 0
M  V30 4361 C 421.349 1.89387 0.464506 0
M  V30 4362 O 420.619 1.43268 1.33608 0
M  V30 4363 H 419.199 0.649564 -0.368885 0
M  V30 4364 H 421.861 1.23205 -1.51018 0
M  V30 4365 H 420.957 2.75892 -1.45912 0
M  V30 4366 N 421.258 1.00505 1.21394 0
M  V30 4367 C 422.206 0.558623 2.25792 0
M  V30 4368 C 423.2 -0.396848 1.64686 0
M  V30 4369 O 424.406 -0.268035 1.77993 0
M  V30 4370 H 420.781 0.1623 0.734277 0
M  V30 4371 H 422.752 1.4503 2.60785 0
M  V30 4372 C 421.501 -0.0989574 3.47559 0
M  V30 4373 H 420.824 0.627225 3.94849 0
M  V30 4374 H 422.264 -0.3746 4.22342 0
M  V30 4375 C 420.723 -1.33817 3.09184 0
M  V30 4376 O 421.253 -2.43252 3.19674 0
M  V30 4377 N 419.459 -1.21793 2.63846 0
M  V30 4378 H 419.006 -0.32746 2.5551 0
M  V30 4379 H 418.964 -2.04809 2.38539 0
M  V30 4380 N 422.737 -1.36956 0.779787 0
M  V30 4381 C 423.965 -2.03755 0.359398 0
M  V30 4382 C 424.38 -1.58807 -1.02106 0
M  V30 4383 O 423.737 -0.773024 -1.6532 0
M  V30 4384 C 423.788 -3.59251 0.402568 0
M  V30 4385 O 423.509 -4.02557 1.72858 0
M  V30 4386 C 425.01 -4.43291 -0.0284068 0
M  V30 4387 H 422.23 -0.654148 0.149437 0
M  V30 4388 H 424.774 -1.75128 1.05595 0
M  V30 4389 H 422.929 -3.86621 -0.245478 0
M  V30 4390 H 423.343 -4.97111 1.67275 0
M  V30 4391 H 424.817 -5.51975 0.0529466 0
M  V30 4392 H 425.294 -4.25719 -1.07982 0
M  V30 4393 H 425.9 -4.21163 0.591758 0
M  V30 4394 N 424.215 -0.530993 -1.48385 0
M  V30 4395 C 425.461 0.00274135 -2.028 0
M  V30 4396 C 425.794 1.33838 -1.40716 0
M  V30 4397 O 425.069 1.86465 -0.553277 0
M  V30 4398 C 425.352 0.123676 -3.59888 0
M  V30 4399 C 425.205 -1.2372 -4.3245 0
M  V30 4400 C 426.524 0.849967 -4.31814 0
M  V30 4401 H 423.643 -0.000477758 -0.737 0
M  V30 4402 H 426.285 -0.688217 -1.77098 0
M  V30 4403 H 424.435 0.712157 -3.81917 0
M  V30 4404 H 426.107 -1.86687 -4.21836 0
M  V30 4405 H 424.35 -1.81882 -3.93829 0
M  V30 4406 H 425.021 -1.10557 -5.40815 0
M  V30 4407 H 427.497 0.350572 -4.14621 0
M  V30 4408 H 426.373 0.903486 -5.41413 0
M  V30 4409 H 426.634 1.90047 -3.99167 0
M  V30 4410 N 425.693 1.55336 -0.266172 0
M  V30 4411 C 426.623 2.25146 0.618981 0
M  V30 4412 C 427.604 1.23845 1.16604 0
M  V30 4413 O 428.789 1.52544 1.20183 0
M  V30 4414 C 425.919 2.96572 1.80728 0
M  V30 4415 C 424.873 4.04726 1.39215 0
M  V30 4416 C 424.199 4.63678 2.66283 0
M  V30 4417 C 425.499 5.19407 0.548942 0
M  V30 4418 H 427.193 2.99377 0.0368116 0
M  V30 4419 H 424.739 1.43991 0.0162651 0
M  V30 4420 H 426.692 3.44116 2.43232 0
M  V30 4421 H 425.416 2.19861 2.41514 0
M  V30 4422 H 424.075 3.57979 0.790351 0
M  V30 4423 H 423.723 3.83646 3.25308 0
M  V30 4424 H 423.423 5.367 2.39222 0
M  V30 4425 H 424.947 5.13967 3.29651 0
M  V30 4426 H 426.361 5.63059 1.07876 0
M  V30 4427 H 424.758 5.98936 0.373593 0
M  V30 4428 H 425.828 4.8295 -0.434394 0
M  V30 4429 N 427.171 -0.0066808 1.57599 0
M  V30 4430 C 428.121 -1.0086 2.04478 0
M  V30 4431 C 429.105 -1.30714 0.938231 0
M  V30 4432 O 430.297 -1.29924 1.20203 0
M  V30 4433 C 427.426 -2.30273 2.54615 0
M  V30 4434 C 426.512 -2.03413 3.72134 0
M  V30 4435 N 426.903 -1.46688 4.84062 0
M  V30 4436 C 425.201 -2.33589 3.79937 0
M  V30 4437 C 425.902 -1.36146 5.65543 0
M  V30 4438 N 424.878 -1.84477 5.1134 0
M  V30 4439 H 428.68 -0.564402 2.8843 0
M  V30 4440 H 426.194 -0.212521 1.61003 0
M  V30 4441 H 428.191 -3.02885 2.86472 0
M  V30 4442 H 426.851 -2.75352 1.72079 0
M  V30 4443 H 427.862 -1.14658 5.05049 0
M  V30 4444 H 424.539 -2.81589 3.08243 0
M  V30 4445 H 425.929 -0.925873 6.6549 0
M  V30 4446 N 428.649 -1.55105 -0.279332 0
M  V30 4447 C 429.612 -1.86783 -1.32834 0
M  V30 4448 C 430.612 -0.74199 -1.42657 0
M  V30 4449 O 431.802 -1.0102 -1.41918 0
M  V30 4450 C 428.934 -2.06746 -2.71052 0
M  V30 4451 H 430.127 -2.8055 -1.05979 0
M  V30 4452 H 427.68 -1.47499 -0.517087 0
M  V30 4453 H 428.415 -1.15339 -3.03097 0
M  V30 4454 H 428.2 -2.88711 -2.65309 0
M  V30 4455 H 429.69 -2.32549 -3.46858 0
M  V30 4456 N 430.127 0.543554 -1.4793 0
M  V30 4457 C 431.057 1.65888 -1.64327 0
M  V30 4458 C 432.038 1.62818 -0.492383 0
M  V30 4459 O 433.223 1.80226 -0.723338 0
M  V30 4460 C 430.353 3.04506 -1.67013 0
M  V30 4461 C 429.307 3.2243 -2.81466 0
M  V30 4462 C 428.633 4.61972 -2.69233 0
M  V30 4463 C 429.933 3.06496 -4.22915 0
M  V30 4464 H 431.627 1.52421 -2.57698 0
M  V30 4465 H 429.173 0.731849 -1.24016 0
M  V30 4466 H 431.126 3.82391 -1.77074 0
M  V30 4467 H 429.85 3.18964 -0.70212 0
M  V30 4468 H 428.509 2.46957 -2.70938 0
M  V30 4469 H 428.157 4.73247 -1.7043 0
M  V30 4470 H 427.857 4.74911 -3.46025 0
M  V30 4471 H 429.381 5.41974 -2.81242 0
M  V30 4472 H 430.795 3.74186 -4.34348 0
M  V30 4473 H 429.192 3.30938 -5.006 0
M  V30 4474 H 430.262 2.03077 -4.40327 0
M  V30 4475 N 431.605 1.3629 0.791371 0
M  V30 4476 C 432.851 1.30605 1.55146 0
M  V30 4477 C 433.184 -0.115042 1.93859 0
M  V30 4478 O 432.459 -1.06798 1.62556 0
M  V30 4479 C 432.742 2.22692 2.82985 0
M  V30 4480 C 432.595 3.73489 2.50651 0
M  V30 4481 C 433.914 2.13588 3.84796 0
M  V30 4482 H 431.033 0.475761 0.562868 0
M  V30 4483 H 433.675 1.66825 0.909358 0
M  V30 4484 H 431.825 1.91933 3.37778 0
M  V30 4485 H 433.497 4.14758 2.01924 0
M  V30 4486 H 431.74 3.93021 1.83622 0
M  V30 4487 H 432.411 4.3333 3.41949 0
M  V30 4488 H 434.887 2.40659 3.39445 0
M  V30 4489 H 433.763 2.80195 4.71998 0
M  V30 4490 H 434.024 1.12256 4.27611 0
M  V30 4491 N 433.083 -1.0153 1.20538 0
M  V30 4492 C 433.993 -2.13557 0.971113 0
M  V30 4493 C 435.009 -1.73845 -0.0734366 0
M  V30 4494 O 436.185 -2.01075 0.114299 0
M  V30 4495 C 433.25 -3.42661 0.527639 0
M  V30 4496 C 432.311 -3.96608 1.64319 0
M  V30 4497 C 431.544 -5.1955 1.22078 0
M  V30 4498 O 431.767 -5.70329 0.0900198 0
M  V30 4499 O 430.701 -5.66681 2.02871 0
M  V30 4500 H 434.527 -2.3619 1.90913 0
M  V30 4501 H 432.112 -1.11946 0.989362 0
M  V30 4502 H 433.994 -4.20404 0.289621 0
M  V30 4503 H 432.669 -3.21441 -0.381779 0
M  V30 4504 H 431.576 -3.20139 1.93551 0
M  V30 4505 H 432.909 -4.22219 2.52966 0
M  V30 4506 N 434.561 -1.01147 -1.20859 0
M  V30 4507 C 435.807 -0.698899 -1.90377 0
M  V30 4508 C 436.14 0.76904 -1.78324 0
M  V30 4509 O 435.415 1.55817 -1.16409 0
M  V30 4510 C 435.698 -1.12878 -3.41951 0
M  V30 4511 C 435.551 -2.65665 -3.62963 0
M  V30 4512 C 436.87 -0.696114 -4.3456 0
M  V30 4513 H 433.989 -0.255372 -0.691342 0
M  V30 4514 H 436.631 -1.25831 -1.42361 0
M  V30 4515 H 434.781 -0.652827 -3.82976 0
M  V30 4516 H 436.453 -3.21074 -3.31224 0
M  V30 4517 H 434.696 -3.06878 -3.06608 0
M  V30 4518 H 435.367 -2.90797 -4.69192 0
M  V30 4519 H 437.843 -1.10521 -4.01154 0
M  V30 4520 H 436.719 -1.025 -5.39245 0
M  V30 4521 H 436.98 0.402465 -4.40264 0
M  V30 4522 N 436.039 1.36541 -0.78704 0
M  V30 4523 C 437.002 2.28413 -0.189778 0
M  V30 4524 C 438.002 1.48719 0.611499 0
M  V30 4525 O 439.192 1.68737 0.432842 0
M  V30 4526 C 436.324 3.32824 0.737638 0
M  V30 4527 H 437.517 2.82743 -0.999831 0
M  V30 4528 H 435.07 1.46065 -0.556298 0
M  V30 4529 H 435.805 2.83646 1.57212 0
M  V30 4530 H 435.59 3.91752 0.165044 0
M  V30 4531 H 437.08 4.0144 1.15047 0
M  V30 4532 N 437.518 0.538854 1.48102 0
M  V30 4533 C 438.795 -0.0568108 1.95517 0
M  V30 4534 C 439.175 -1.50408 1.48124 0
M  V30 4535 O 438.523 -2.17133 0.711727 0
M  V30 4536 C 438.733 0.0696262 3.48931 0
M  V30 4537 C 440.081 -0.0851202 4.24515 0
M  V30 4538 O 441.105 -0.0037347 3.562 0
M  V30 4539 O 439.964 -0.257025 5.45895 0
M  V30 4540 H 437.058 -0.0743695 0.823649 0
M  V30 4541 H 439.604 0.604081 1.58584 0
M  V30 4542 H 438.376 1.07744 3.76174 0
M  V30 4543 H 437.999 -0.629714 3.92582 0
M  V30 4544 N 438.996 -1.55193 0.274407 0
M  V30 4545 C 439.944 -2.23924 -0.629362 0
M  V30 4546 C 440.938 -1.23602 -1.1584 0
M  V30 4547 O 442.144 -1.41535 -1.11211 0
M  V30 4548 H 438.519 -0.718637 -0.221507 0
M  V30 4549 H 440.49 -2.98388 -0.0268322 0
M  V30 4550 C 439.239 -2.97329 -1.80252 0
M  V30 4551 H 438.562 -3.74313 -1.40462 0
M  V30 4552 H 440.002 -3.48743 -2.41152 0
M  V30 4553 C 438.461 -2.0276 -2.69054 0
M  V30 4554 O 438.991 -1.57836 -3.69392 0
M  V30 4555 N 437.197 -1.69275 -2.36208 0
M  V30 4556 H 436.744 -2.06004 -1.54661 0
M  V30 4557 H 436.702 -1.06271 -2.95895 0
M  V30 4558 N 440.474 -0.00167713 -1.576 0
M  V30 4559 C 441.702 0.693759 -1.94922 0
M  V30 4560 C 442.117 1.67215 -0.876626 0
M  V30 4561 O 441.474 1.81929 0.144279 0
M  V30 4562 C 441.525 1.42416 -3.32265 0
M  V30 4563 O 441.246 0.485014 -4.35407 0
M  V30 4564 C 442.747 2.21395 -3.84056 0
M  V30 4565 H 439.967 0.193118 -0.642609 0
M  V30 4566 H 442.511 -0.0532952 -2.04431 0
M  V30 4567 H 440.666 2.12284 -3.24059 0
M  V30 4568 H 441.08 1.00053 -5.14868 0
M  V30 4569 H 442.554 2.67996 -4.82578 0
M  V30 4570 H 443.031 3.04142 -3.16851 0
M  V30 4571 H 443.637 1.56542 -3.95443 0
M  V30 4572 N 441.952 1.55251 0.271103 0
M  V30 4573 C 442.915 1.87484 1.31842 0
M  V30 4574 C 443.915 0.749545 1.42262 0
M  V30 4575 O 445.105 1.01771 1.4138 0
M  V30 4576 C 442.237 2.0818 2.69951 0
M  V30 4577 H 443.43 2.81108 1.0449 0
M  V30 4578 H 440.983 1.47771 0.509258 0
M  V30 4579 H 441.718 1.16944 3.02481 0
M  V30 4580 H 441.503 2.90114 2.63774 0
M  V30 4581 H 442.993 2.34385 3.4562 0
M  V30 4582 N 443.43 -0.535701 1.48216 0
M  V30 4583 C 444.707 -1.29683 1.46429 0
M  V30 4584 C 445.087 -2.10391 0.172852 0
M  V30 4585 O 444.435 -2.12282 -0.845488 0
M  V30 4586 C 444.645 -2.18313 2.72287 0
M  V30 4587 C 445.993 -2.78639 3.20383 0
M  V30 4588 O 447.017 -2.28604 2.73164 0
M  V30 4589 O 445.876 -3.69636 4.02531 0
M  V30 4590 H 442.97 -0.585026 0.584529 0
M  V30 4591 H 445.516 -0.552827 1.60443 0
M  V30 4592 H 444.288 -1.58421 3.57797 0
M  V30 4593 H 443.911 -2.99971 2.60966 0
M  V30 4594 N 444.908 -1.36708 -0.784132 0
M  V30 4595 C 445.856 -1.31533 -1.91838 0
M  V30 4596 C 446.85 -0.206205 -1.6814 0
M  V30 4597 O 448.056 -0.373519 -1.76082 0
M  V30 4598 H 444.431 -0.409613 -0.630651 0
M  V30 4599 H 446.402 -2.2731 -1.9332 0
M  V30 4600 C 445.151 -1.12679 -3.28936 0
M  V30 4601 H 444.474 -1.97274 -3.4774 0
M  V30 4602 H 445.914 -1.13106 -4.08636 0
M  V30 4603 C 444.373 0.168281 -3.36479 0
M  V30 4604 O 444.903 1.15625 -3.84699 0
M  V30 4605 N 443.109 0.214762 -2.89805 0
M  V30 4606 H 442.656 -0.589852 -2.50756 0
M  V30 4607 H 442.614 1.08094 -2.95234 0
M  V30 4608 N 446.386 1.0089 -1.21074 0
M  V30 4609 C 447.614 1.78191 -1.05145 0
M  V30 4610 C 448.029 1.84537 0.398952 0
M  V30 4611 O 447.386 1.30393 1.27687 0
M  V30 4612 C 447.437 3.22288 -1.63746 0
M  V30 4613 O 447.158 3.16315 -3.03111 0
M  V30 4614 C 448.659 4.16106 -1.52875 0
M  V30 4615 H 445.879 0.560129 -0.369454 0
M  V30 4616 H 448.423 1.26945 -1.60328 0
M  V30 4617 H 446.578 3.70655 -1.12664 0
M  V30 4618 H 446.992 4.06817 -3.31059 0
M  V30 4619 H 448.466 5.15026 -1.98626 0
M  V30 4620 H 448.943 4.36541 -0.482521 0
M  V30 4621 H 449.549 3.73625 -2.03185 0
M  V30 4622 N 447.864 1.01787 1.20321 0
M  V30 4623 C 448.811 0.589197 2.23153 0
M  V30 4624 C 449.781 -0.391367 1.61423 0
M  V30 4625 O 450.966 -0.290518 1.88575 0
M  V30 4626 C 448.106 -0.0650747 3.45039 0
M  V30 4627 C 447.219 0.960207 4.21194 0
M  V30 4628 C 446.354 0.276854 5.30478 0
M  V30 4629 C 445.393 1.2888 5.98378 0
M  V30 4630 N 444.53 0.632031 6.99249 0
M  V30 4631 H 449.37 1.47071 2.59179 0
M  V30 4632 H 446.907 0.736192 1.27352 0
M  V30 4633 H 448.865 -0.461552 4.14639 0
M  V30 4634 H 447.495 -0.910233 3.09701 0
M  V30 4635 H 446.547 1.47484 3.50646 0
M  V30 4636 H 447.859 1.72977 4.67847 0
M  V30 4637 H 447.013 -0.175056 6.06447 0
M  V30 4638 H 445.752 -0.525004 4.84866 0
M  V30 4639 H 444.757 1.75109 5.21169 0
M  V30 4640 H 445.982 2.09196 6.46076 0
M  V30 4641 H 443.928 -0.149935 6.55829 0
M  V30 4642 H 443.845 1.33964 7.44036 0
M  V30 4643 H 445.113 0.203755 7.79234 0
M  V30 4644 N 449.342 -1.36122 0.79427 0
M  V30 4645 C 450.589 -1.99111 0.368905 0
M  V30 4646 C 450.917 -1.63032 -1.0607 0
M  V30 4647 O 450.172 -0.879303 -1.74833 0
M  V30 4648 C 450.471 -3.5409 0.48527 0
M  V30 4649 C 450.137 -4.10003 1.87638 0
M  V30 4650 C 448.799 -4.24986 2.257 0
M  V30 4651 C 451.151 -4.40423 2.78706 0
M  V30 4652 C 448.479 -4.67701 3.54221 0
M  V30 4653 C 450.831 -4.84573 4.0666 0
M  V30 4654 C 449.495 -4.97761 4.44737 0
M  V30 4655 H 448.765 -0.7286 0.134992 0
M  V30 4656 H 451.412 -1.62534 1.01267 0
M  V30 4657 H 449.717 -3.91052 -0.241984 0
M  V30 4658 H 451.414 -4.00766 0.137109 0
M  V30 4659 H 448.004 -3.98784 1.57064 0
M  V30 4660 H 452.188 -4.28412 2.50553 0
M  V30 4661 H 447.444 -4.761 3.83587 0
M  V30 4662 H 451.618 -5.07074 4.77336 0
M  V30 4663 H 449.245 -5.30618 5.44379 0
M  V30 4664 N 450.82 -0.546701 -1.47814 0
M  V30 4665 C 452.066 -0.0187684 -2.02791 0
M  V30 4666 C 452.399 1.32338 -1.42128 0
M  V30 4667 O 451.674 1.85867 -0.573023 0
M  V30 4668 C 451.957 0.0854985 -3.59998 0
M  V30 4669 C 451.81 -1.283 -4.31114 0
M  V30 4670 C 453.129 0.80412 -4.32691 0
M  V30 4671 H 450.248 -0.0082946 -0.736953 0
M  V30 4672 H 452.89 -0.706962 -1.76358 0
M  V30 4673 H 451.04 0.671609 -3.82651 0
M  V30 4674 H 452.712 -1.91151 -4.19832 0
M  V30 4675 H 450.955 -1.86049 -3.91878 0
M  V30 4676 H 451.626 -1.16287 -5.39612 0
M  V30 4677 H 454.102 0.306576 -4.14969 0
M  V30 4678 H 452.978 0.846011 -5.42341 0
M  V30 4679 H 453.239 1.85802 -4.01161 0
M  V30 4680 N 452.299 1.55045 -0.282633 0
M  V30 4681 C 453.527 2.04168 0.33512 0
M  V30 4682 C 453.942 1.16071 1.48906 0
M  V30 4683 O 453.299 0.182391 1.81586 0
M  V30 4684 C 453.35 3.52332 0.808957 0
M  V30 4685 O 453.071 4.37078 -0.299038 0
M  V30 4686 C 454.572 4.17375 1.49375 0
M  V30 4687 H 451.792 0.666744 0.0754543 0
M  V30 4688 H 454.336 2.00205 -0.416918 0
M  V30 4689 H 452.491 3.56715 1.51106 0
M  V30 4690 H 452.905 5.24458 0.0665514 0
M  V30 4691 H 454.379 5.22627 1.77664 0
M  V30 4692 H 454.856 3.65999 2.42778 0
M  V30 4693 H 455.462 4.17016 0.835305 0
M  V30 4694 N 453.777 0.010035 1.57597 0
M  V30 4695 C 455.002 -0.687021 1.95691 0
M  V30 4696 C 455.427 -1.65952 0.885519 0
M  V30 4697 O 454.785 -1.80633 -0.15543 0
M  V30 4698 C 454.833 -1.3864 3.32884 0
M  V30 4699 O 453.937 -2.50115 3.27897 0
M  V30 4700 H 453.278 -0.181989 0.638573 0
M  V30 4701 H 455.808 0.0662122 2.04493 0
M  V30 4702 H 455.818 -1.74754 3.6868 0
M  V30 4703 H 454.493 -0.673411 4.10412 0
M  V30 4704 H 453.07 -2.16253 3.03791 0
M  V30 4705 N 455.255 -1.55392 -0.262866 0
M  V30 4706 C 456.188 -1.8391 -1.35101 0
M  V30 4707 C 457.166 -0.692901 -1.47097 0
M  V30 4708 O 458.35 -0.936979 -1.63563 0
M  V30 4709 C 455.477 -2.00969 -2.72634 0
M  V30 4710 C 454.523 -3.23559 -2.7787 0
M  V30 4711 S 455.356 -4.80647 -2.3609 0
M  V30 4712 C 456.512 -5.00692 -3.75578 0
M  V30 4713 H 456.745 -2.75918 -1.1071 0
M  V30 4714 H 454.278 -1.47294 -0.463029 0
M  V30 4715 H 456.236 -2.11482 -3.51832 0
M  V30 4716 H 454.897 -1.09832 -2.94272 0
M  V30 4717 H 454.09 -3.32413 -3.78837 0
M  V30 4718 H 453.692 -3.11689 -2.06702 0
M  V30 4719 H 455.984 -4.87055 -4.70939 0
M  V30 4720 H 456.927 -6.02717 -3.71669 0
M  V30 4721 H 457.335 -4.28619 -3.6735 0
M  V30 4722 N 456.733 0.527833 -1.48498 0
M  V30 4723 C 457.963 1.30633 -1.60058 0
M  V30 4724 C 458.371 1.87394 -0.260786 0
M  V30 4725 O 457.714 1.67227 0.760317 0
M  V30 4726 C 457.776 2.49361 -2.58958 0
M  V30 4727 C 457.44 2.13671 -4.03972 0
M  V30 4728 C 458.437 1.69217 -4.91591 0
M  V30 4729 C 456.122 2.24129 -4.49524 0
M  V30 4730 C 458.116 1.35689 -6.2279 0
M  V30 4731 C 455.803 1.90212 -5.80743 0
M  V30 4732 C 456.801 1.46063 -6.67199 0
M  V30 4733 O 456.489 1.12593 -7.95976 0
M  V30 4734 H 456.221 0.403444 -0.54241 0
M  V30 4735 H 458.775 0.643233 -1.95068 0
M  V30 4736 H 457.005 3.18659 -2.19073 0
M  V30 4737 H 458.694 3.11421 -2.6033 0
M  V30 4738 H 459.46 1.60607 -4.57636 0
M  V30 4739 H 455.339 2.57447 -3.82416 0
M  V30 4740 H 458.883 1.01157 -6.90227 0
M  V30 4741 H 454.78 1.98464 -6.14233 0
M  V30 4742 H 455.548 1.25972 -8.08748 0
M  V30 4743 N 458.211 1.37122 0.776871 0
M  V30 4744 C 459.159 1.32549 1.91138 0
M  V30 4745 C 460.153 0.215119 1.68029 0
M  V30 4746 O 461.359 0.382852 1.75881 0
M  V30 4747 H 457.734 0.412952 0.62847 0
M  V30 4748 H 459.705 2.28332 1.92112 0
M  V30 4749 C 458.454 1.14422 3.28333 0
M  V30 4750 H 457.777 1.99115 3.46689 0
M  V30 4751 H 459.217 1.15272 4.0803 0
M  V30 4752 C 457.676 -0.150434 3.36564 0
M  V30 4753 O 458.206 -1.13584 3.85307 0
M  V30 4754 N 456.412 -0.19939 2.89915 0
M  V30 4755 H 455.959 0.603142 2.5044 0
M  V30 4756 H 455.917 -1.06526 2.95803 0
M  V30 4757 N 459.689 -1.00246 1.21608 0
M  V30 4758 C 460.599 -2.12515 0.993709 0
M  V30 4759 C 461.615 -1.73913 -0.0549939 0
M  V30 4760 O 462.791 -2.00943 0.135619 0
M  V30 4761 C 459.856 -3.42083 0.563953 0
M  V30 4762 C 458.917 -3.94843 1.68516 0
M  V30 4763 C 458.15 -5.18226 1.27582 0
M  V30 4764 O 458.373 -5.70201 0.150506 0
M  V30 4765 O 457.307 -5.64497 2.0887 0
M  V30 4766 H 461.133 -2.34152 1.93407 0
M  V30 4767 H 458.718 -1.10891 1.00118 0
M  V30 4768 H 460.6 -4.20073 0.334194 0
M  V30 4769 H 459.275 -3.21828 -0.347665 0
M  V30 4770 H 458.182 -3.18068 1.96935 0
M  V30 4771 H 459.515 -4.19512 2.5743 0
M  V30 4772 N 461.167 -1.02423 -1.1978 0
M  V30 4773 C 462.416 -0.713265 -1.88667 0
M  V30 4774 C 462.729 0.7609 -1.80193 0
M  V30 4775 O 463.935 1.18473 -2.44288 0
M  V30 4776 C 462.391 -1.22545 -3.38394 0
M  V30 4777 C 461.999 -2.72706 -3.55437 0
M  V30 4778 C 463.743 -0.990257 -4.12788 0
M  V30 4779 C 461.65 -3.17367 -4.99031 0
M  V30 4780 H 460.58 -0.263105 -0.706606 0
M  V30 4781 H 463.231 -1.23792 -1.35454 0
M  V30 4782 H 461.613 -0.628732 -3.90977 0
M  V30 4783 H 462.787 -3.37993 -3.13205 0
M  V30 4784 H 461.102 -2.94453 -2.94425 0
M  V30 4785 H 463.699 -1.29926 -5.18675 0
M  V30 4786 H 464.042 0.0730761 -4.16236 0
M  V30 4787 H 464.575 -1.55074 -3.66329 0
M  V30 4788 H 461.314 -4.23009 -5.00743 0
M  V30 4789 H 460.834 -2.56805 -5.42044 0
M  V30 4790 H 462.513 -3.10441 -5.67658 0
M  V30 4791 N 462.645 1.35699 -0.801477 0
M  V30 4792 C 463.575 2.32436 -0.222658 0
M  V30 4793 C 464.556 1.5723 0.649057 0
M  V30 4794 O 465.741 1.85324 0.580387 0
M  V30 4795 C 462.871 3.41469 0.633719 0
M  V30 4796 C 461.825 4.27774 -0.139083 0
M  V30 4797 C 461.151 5.28082 0.838666 0
M  V30 4798 C 462.451 5.04946 -1.33517 0
M  V30 4799 H 464.145 2.81094 -1.03086 0
M  V30 4800 H 461.691 1.35146 -0.497155 0
M  V30 4801 H 463.644 4.08143 1.04868 0
M  V30 4802 H 462.368 2.91408 1.47475 0
M  V30 4803 H 461.027 3.62673 -0.535156 0
M  V30 4804 H 460.675 4.7429 1.67506 0
M  V30 4805 H 460.375 5.86695 0.32594 0
M  V30 4806 H 461.899 5.97628 1.25194 0
M  V30 4807 H 463.313 5.64593 -0.995349 0
M  V30 4808 H 461.71 5.7303 -1.78202 0
M  V30 4809 H 462.78 4.35886 -2.12442 0
M  V30 4810 N 464.123 0.554532 1.47522 0
M  V30 4811 C 465.056 -0.242442 2.26908 0
M  V30 4812 C 466.034 -0.922722 1.33883 0
M  V30 4813 O 467.218 -0.942244 1.63261 0
M  V30 4814 C 464.345 -1.34525 3.10839 0
M  V30 4815 C 463.391 -0.773805 4.19422 0
M  V30 4816 S 464.224 0.377525 5.34168 0
M  V30 4817 C 465.38 -0.727164 6.21662 0
M  V30 4818 H 465.613 0.431218 2.94156 0
M  V30 4819 H 463.146 0.3408 1.50592 0
M  V30 4820 H 465.104 -1.97683 3.59766 0
M  V30 4821 H 463.765 -1.99073 2.42958 0
M  V30 4822 H 462.958 -1.60187 4.77866 0
M  V30 4823 H 462.56 -0.218448 3.73361 0
M  V30 4824 H 464.852 -1.61992 6.57849 0
M  V30 4825 H 465.795 -0.180135 7.07871 0
M  V30 4826 H 466.203 -1.01863 5.55233 0
M  V30 4827 N 465.601 -1.54893 0.290851 0
M  V30 4828 C 466.531 -2.26103 -0.583084 0
M  V30 4829 C 467.512 -1.25684 -1.14619 0
M  V30 4830 O 468.697 -1.54436 -1.17741 0
M  V30 4831 C 465.827 -2.99409 -1.75987 0
M  V30 4832 C 464.781 -4.0689 -1.32758 0
M  V30 4833 C 464.107 -4.67856 -2.58872 0
M  V30 4834 C 465.407 -5.20215 -0.46624 0
M  V30 4835 H 467.101 -2.99398 0.0108214 0
M  V30 4836 H 464.647 -1.43998 0.00664468 0
M  V30 4837 H 466.6 -3.47943 -2.37727 0
M  V30 4838 H 465.324 -2.23675 -2.37985 0
M  V30 4839 H 463.983 -3.59191 -0.733299 0
M  V30 4840 H 463.631 -3.88772 -3.19163 0
M  V30 4841 H 463.331 -5.40438 -2.30653 0
M  V30 4842 H 464.855 -5.19147 -3.21433 0
M  V30 4843 H 466.269 -5.64704 -0.989047 0
M  V30 4844 H 464.666 -5.99455 -0.27826 0
M  V30 4845 H 465.736 -4.82198 0.511173 0
M  V30 4846 N 467.08 -0.0183926 -1.57589 0
M  V30 4847 C 468.328 0.661253 -1.90976 0
M  V30 4848 C 468.649 1.73281 -0.894353 0
M  V30 4849 O 467.919 1.9579 0.0656788 0
M  V30 4850 H 466.499 0.247233 -0.704901 0
M  V30 4851 H 469.161 -0.0636639 -1.94796 0
M  V30 4852 H 468.257 1.12083 -2.9128 0
M  V30 4853 N 468.558 1.5553 0.254621 0
M  V30 4854 C 469.521 1.88872 1.29846 0
M  V30 4855 C 470.521 0.764591 1.41459 0
M  V30 4856 O 471.711 1.03265 1.40293 0
M  V30 4857 C 468.843 2.11032 2.67728 0
M  V30 4858 H 470.036 2.82201 1.01502 0
M  V30 4859 H 467.589 1.48303 0.493556 0
M  V30 4860 H 468.324 1.20146 3.01223 0
M  V30 4861 H 468.109 2.92895 2.60682 0
M  V30 4862 H 469.599 2.38038 3.43115 0
M  V30 4863 N 470.036 -0.519951 1.48776 0
M  V30 4864 C 470.983 -1.62352 1.64044 0
M  V30 4865 C 471.953 -1.58945 0.482251 0
M  V30 4866 O 473.138 -1.77219 0.706971 0
M  V30 4867 C 470.278 -3.00579 1.69547 0
M  V30 4868 C 469.391 -3.14145 2.96541 0
M  V30 4869 C 468.526 -4.42991 2.93142 0
M  V30 4870 C 467.565 -4.50122 4.14797 0
M  V30 4871 N 466.702 -5.7037 4.09418 0
M  V30 4872 H 471.542 -1.48643 2.58281 0
M  V30 4873 H 469.079 -0.723516 1.28077 0
M  V30 4874 H 471.037 -3.80671 1.70719 0
M  V30 4875 H 469.667 -3.13036 0.787918 0
M  V30 4876 H 468.719 -2.27239 3.05068 0
M  V30 4877 H 470.031 -3.15275 3.86527 0
M  V30 4878 H 469.185 -5.31385 2.92772 0
M  V30 4879 H 467.924 -4.44398 2.00902 0
M  V30 4880 H 466.929 -3.60133 4.15433 0
M  V30 4881 H 468.154 -4.50445 5.08208 0
M  V30 4882 H 466.1 -5.72655 3.20004 0
M  V30 4883 H 466.017 -5.73036 4.93119 0
M  V30 4884 H 467.285 -6.61023 4.13121 0
M  V30 4885 N 471.514 -1.37532 -0.769588 0
M  V30 4886 C 472.444 -1.36172 -1.89682 0
M  V30 4887 C 473.425 -0.23001 -1.68538 0
M  V30 4888 O 474.61 -0.43069 -1.89364 0
M  V30 4889 C 471.74 -1.1701 -3.26995 0
M  V30 4890 C 470.694 -2.27216 -3.62708 0
M  V30 4891 C 470.02 -1.93174 -4.98586 0
M  V30 4892 C 471.32 -3.6941 -3.69234 0
M  V30 4893 H 473.014 -2.30499 -1.91078 0
M  V30 4894 H 470.56 -1.10953 -0.917902 0
M  V30 4895 H 472.513 -1.14688 -4.05493 0
M  V30 4896 H 471.237 -0.191395 -3.26039 0
M  V30 4897 H 469.896 -2.28697 -2.86519 0
M  V30 4898 H 469.544 -0.938281 -4.94171 0
M  V30 4899 H 469.244 -2.66973 -5.23449 0
M  V30 4900 H 470.768 -1.92443 -5.79481 0
M  V30 4901 H 472.182 -3.70047 -4.37879 0
M  V30 4902 H 470.579 -4.4228 -4.05597 0
M  V30 4903 H 471.649 -4.0288 -2.69844 0
M  V30 4904 N 472.992 0.995999 -1.22138 0
M  V30 4905 C 473.942 2.06988 -0.956042 0
M  V30 4906 C 474.926 1.60636 0.0921576 0
M  V30 4907 O 476.118 1.76607 -0.117958 0
M  V30 4908 C 473.247 3.39148 -0.532335 0
M  V30 4909 C 472.333 3.92142 -1.61509 0
M  V30 4910 N 472.724 4.18397 -2.84214 0
M  V30 4911 C 471.022 4.20514 -1.48606 0
M  V30 4912 C 471.723 4.61425 -3.54206 0
M  V30 4913 N 470.699 4.64934 -2.81669 0
M  V30 4914 H 474.501 2.25223 -1.88816 0
M  V30 4915 H 472.015 1.17748 -1.11845 0
M  V30 4916 H 474.012 4.15642 -0.323574 0
M  V30 4917 H 472.672 3.22314 0.392921 0
M  V30 4918 H 473.683 4.06682 -3.20671 0
M  V30 4919 H 470.36 4.12769 -0.626762 0
M  V30 4920 H 471.75 4.90387 -4.59315 0
M  V30 4921 N 474.47 1.03057 1.19235 0
M  V30 4922 C 475.881 0.757449 1.70645 0
M  V30 4923 C 476.232 -0.722735 1.82403 0
M  V30 4924 O 475.357 -1.56325 1.49638 0
M  V30 4925 C 475.952 1.36833 3.09939 0
M  V30 4926 C 474.511 1.14375 3.58602 0
M  V30 4927 C 473.658 1.46533 2.35422 0
M  V30 4928 H 476.609 1.19828 1.04052 0
M  V30 4929 H 476.63 0.766184 3.72706 0
M  V30 4930 H 476.142 2.44562 3.01349 0
M  V30 4931 H 474.243 0.0847542 3.72504 0
M  V30 4932 H 474.356 1.83366 4.42622 0
M  V30 4933 H 472.72 0.884712 2.38841 0
M  V30 4934 H 473.503 2.55349 2.2946 0
M  V30 4935 N 475.948 -1.35272 0.808662 0
M  V30 4936 C 477.176 -2.02946 0.402537 0
M  V30 4937 C 477.591 -1.60937 -0.987147 0
M  V30 4938 O 476.948 -0.807917 -1.63643 0
M  V30 4939 C 476.999 -3.58317 0.47868 0
M  V30 4940 O 476.72 -3.98799 1.81358 0
M  V30 4941 C 478.221 -4.43251 0.0656281 0
M  V30 4942 H 475.441 -0.650831 0.163279 0
M  V30 4943 H 477.985 -1.72849 1.09286 0
M  V30 4944 H 476.14 -3.87055 -0.163415 0
M  V30 4945 H 476.554 -4.93451 1.77781 0
M  V30 4946 H 478.028 -5.51738 0.170017 0
M  V30 4947 H 478.505 -4.27913 -0.989278 0
M  V30 4948 H 479.111 -4.19813 0.68096 0
M  V30 4949 N 477.426 -0.562348 -1.47226 0
M  V30 4950 C 478.356 0.170627 -2.32876 0
M  V30 4951 C 479.337 0.903748 -1.44106 0
M  V30 4952 O 480.522 0.883206 -1.72954 0
M  V30 4953 C 477.652 1.19786 -3.25989 0
M  V30 4954 C 476.606 0.580875 -4.2404 0
M  V30 4955 C 475.932 1.71311 -5.06514 0
M  V30 4956 C 477.232 -0.468714 -5.20193 0
M  V30 4957 H 478.926 -0.544441 -2.94408 0
M  V30 4958 H 476.472 -0.263271 -1.41573 0
M  V30 4959 H 478.425 1.71884 -3.84752 0
M  V30 4960 H 477.149 1.94294 -2.62521 0
M  V30 4961 H 475.808 0.0811538 -3.6651 0
M  V30 4962 H 475.456 2.44736 -4.39447 0
M  V30 4963 H 475.156 1.30604 -5.72902 0
M  V30 4964 H 476.68 2.23725 -5.68137 0
M  V30 4965 H 478.094 -0.0336028 -5.7329 0
M  V30 4966 H 476.491 -0.794957 -5.94811 0
M  V30 4967 H 477.561 -1.36269 -4.65359 0
M  V30 4968 N 478.904 1.54736 -0.299062 0
M  V30 4969 C 479.851 2.23448 0.577899 0
M  V30 4970 C 480.821 1.21637 1.13109 0
M  V30 4971 O 482.006 1.50252 1.17597 0
M  V30 4972 C 479.146 2.9774 1.74484 0
M  V30 4973 C 478.259 4.1432 1.22323 0
M  V30 4974 C 477.394 4.76199 2.35388 0
M  V30 4975 C 476.433 5.84927 1.80351 0
M  V30 4976 N 475.57 6.4077 2.86982 0
M  V30 4977 H 480.41 2.97996 -0.0146545 0
M  V30 4978 H 477.947 1.47088 -0.0190013 0
M  V30 4979 H 479.905 3.39045 2.43114 0
M  V30 4980 H 478.535 2.25572 2.30905 0
M  V30 4981 H 477.587 3.7797 0.429249 0
M  V30 4982 H 478.899 4.92659 0.780309 0
M  V30 4983 H 478.053 5.20346 3.11969 0
M  V30 4984 H 476.792 3.97188 2.83006 0
M  V30 4985 H 475.797 5.40207 1.02259 0
M  V30 4986 H 477.022 6.65821 1.3364 0
M  V30 4987 H 474.968 5.64643 3.33938 0
M  V30 4988 H 474.885 7.1445 2.4718 0
M  V30 4989 H 476.153 6.89574 3.63466 0
M  V30 4990 N 480.382 0.0267497 1.57577 0
M  V30 4991 C 481.312 -0.954308 2.13108 0
M  V30 4992 C 482.293 -1.34088 1.04663 0
M  V30 4993 O 483.478 -1.41992 1.32484 0
M  V30 4994 C 480.608 -2.23744 2.65624 0
M  V30 4995 C 479.562 -1.99168 3.78835 0
M  V30 4996 C 478.888 -3.33726 4.17769 0
M  V30 4997 C 480.188 -1.33277 5.0501 0
M  V30 4998 H 481.882 -0.491848 2.95332 0
M  V30 4999 H 479.428 -0.23514 1.42067 0
M  V30 5000 H 481.381 -2.92754 3.03106 0
M  V30 5001 H 480.105 -2.72151 1.80558 0
M  V30 5002 H 478.764 -1.32577 3.41788 0
M  V30 5003 H 478.412 -3.79888 3.29688 0
M  V30 5004 H 478.112 -3.18089 4.94058 0
M  V30 5005 H 479.636 -4.04008 4.57832 0
M  V30 5006 H 481.05 -1.92283 5.40093 0
M  V30 5007 H 479.447 -1.28045 5.8628 0
M  V30 5008 H 480.517 -0.305411 4.83937 0
M  V30 5009 N 481.861 -1.55662 -0.24637 0
M  V30 5010 C 482.771 -1.93495 -1.32653 0
M  V30 5011 C 483.787 -0.835462 -1.5263 0
M  V30 5012 O 484.963 -1.1369 -1.66242 0
M  V30 5013 C 482.028 -2.22242 -2.66101 0
M  V30 5014 C 481.089 -3.45625 -2.54641 0
M  V30 5015 C 480.322 -3.72991 -3.81724 0
M  V30 5016 O 480.545 -3.02421 -4.8363 0
M  V30 5017 O 479.479 -4.66515 -3.80325 0
M  V30 5018 H 483.305 -2.85498 -1.03559 0
M  V30 5019 H 480.89 -1.42551 -0.44717 0
M  V30 5020 H 482.772 -2.42037 -3.44958 0
M  V30 5021 H 481.447 -1.33417 -2.94926 0
M  V30 5022 H 480.354 -3.31136 -1.74067 0
M  V30 5023 H 481.687 -4.34754 -2.3076 0
M  V30 5024 N 483.339 0.512053 -1.4905 0
M  V30 5025 C 484.249 1.64139 -1.67617 0
M  V30 5026 C 485.265 1.64786 -0.558701 0
M  V30 5027 O 486.441 1.8341 -0.832034 0
M  V30 5028 C 483.506 3.00548 -1.72835 0
M  V30 5029 C 482.567 3.10615 -2.96339 0
M  V30 5030 C 481.8 4.40517 -3.01298 0
M  V30 5031 O 482.023 5.28671 -2.14157 0
M  V30 5032 O 480.957 4.55325 -3.93653 0
M  V30 5033 H 484.783 1.51407 -2.63267 0
M  V30 5034 H 482.368 0.687131 -1.32661 0
M  V30 5035 H 484.25 3.81641 -1.78683 0
M  V30 5036 H 482.925 3.13566 -0.803616 0
M  V30 5037 H 481.832 2.2875 -2.96014 0
M  V30 5038 H 483.165 3.0252 -3.88256 0
M  V30 5039 N 484.817 1.37938 0.762283 0
M  V30 5040 C 485.747 1.37176 1.88958 0
M  V30 5041 C 486.728 0.238945 1.68413 0
M  V30 5042 O 487.913 0.440726 1.89133 0
M  V30 5043 C 485.043 1.18742 3.2637 0
M  V30 5044 C 483.997 2.29136 3.61498 0
M  V30 5045 C 483.323 1.95816 4.97554 0
M  V30 5046 C 484.623 3.71363 3.6727 0
M  V30 5047 H 486.317 2.31509 1.89853 0
M  V30 5048 H 483.863 1.11438 0.912005 0
M  V30 5049 H 485.816 1.16837 4.04879 0
M  V30 5050 H 484.54 0.208683 3.25933 0
M  V30 5051 H 483.199 2.30213 2.85303 0
M  V30 5052 H 482.847 0.964475 4.93667 0
M  V30 5053 H 482.547 2.69745 5.22026 0
M  V30 5054 H 484.071 1.95513 5.78452 0
M  V30 5055 H 485.485 3.72364 4.35911 0
M  V30 5056 H 483.882 4.44425 4.03245 0
M  V30 5057 H 484.952 4.04305 2.67704 0
M  V30 5058 N 486.295 -0.989507 1.22664 0
M  V30 5059 C 487.523 -1.76496 1.07967 0
M  V30 5060 C 487.938 -1.85148 -0.369543 0
M  V30 5061 O 487.295 -1.32408 -1.25596 0
M  V30 5062 C 487.346 -3.19642 1.68853 0
M  V30 5063 O 487.067 -3.11453 3.08105 0
M  V30 5064 C 488.568 -4.13621 1.59475 0
M  V30 5065 H 485.788 -0.55418 0.378319 0
M  V30 5066 H 488.332 -1.24378 1.62328 0
M  V30 5067 H 486.487 -3.68816 1.18547 0
M  V30 5068 H 486.901 -4.01499 3.37489 0
M  V30 5069 H 488.375 -5.11801 2.06795 0
M  V30 5070 H 488.852 -4.35718 0.55191 0
M  V30 5071 H 489.458 -3.70346 2.09103 0
M  V30 5072 N 487.773 -1.03688 -1.18687 0
M  V30 5073 C 488.721 -0.618292 -2.24232 0
M  V30 5074 C 489.715 0.353045 -1.6568 0
M  V30 5075 O 490.921 0.220749 -1.78641 0
M  V30 5076 H 487.296 -0.181711 -0.729716 0
M  V30 5077 H 489.267 -1.51893 -2.56848 0
M  V30 5078 C 488.016 0.00677342 -3.47699 0
M  V30 5079 H 487.339 -0.731692 -3.93047 0
M  V30 5080 H 488.779 0.262492 -4.23187 0
M  V30 5081 C 487.238 1.25572 -3.12623 0
M  V30 5082 O 487.768 2.34691 -3.26011 0
M  V30 5083 N 485.974 1.14755 -2.66982 0
M  V30 5084 H 485.521 0.259601 -2.56289 0
M  V30 5085 H 485.479 1.98412 -2.43885 0
M  V30 5086 N 489.251 1.34841 -0.815825 0
M  V30 5087 C 490.198 2.29644 -0.230664 0
M  V30 5088 C 491.168 1.53253 0.640533 0
M  V30 5089 O 492.353 1.81653 0.583672 0
M  V30 5090 C 489.493 3.39715 0.607275 0
M  V30 5091 C 488.606 4.31056 -0.28538 0
M  V30 5092 C 487.741 5.28225 0.561446 0
M  V30 5093 C 486.78 6.11204 -0.331035 0
M  V30 5094 N 485.917 7.00483 0.476302 0
M  V30 5095 H 490.757 2.79095 -1.0445 0
M  V30 5096 H 488.294 1.37351 -0.526595 0
M  V30 5097 H 490.252 4.02208 1.10835 0
M  V30 5098 H 488.882 2.91517 1.38629 0
M  V30 5099 H 487.934 3.69487 -0.904621 0
M  V30 5100 H 489.246 4.89239 -0.97193 0
M  V30 5101 H 488.4 5.96135 1.12728 0
M  V30 5102 H 487.139 4.70562 1.28153 0
M  V30 5103 H 486.144 5.42232 -0.909069 0
M  V30 5104 H 487.369 6.70947 -1.04912 0
M  V30 5105 H 485.315 6.45296 1.18019 0
M  V30 5106 H 485.232 7.55847 -0.152008 0
M  V30 5107 H 486.5 7.7273 1.02512 0
M  V30 5108 N 490.729 0.570148 1.46925 0
M  V30 5109 C 491.676 -0.170257 2.30171 0
M  V30 5110 C 492.646 -0.896099 1.39855 0
M  V30 5111 O 493.831 -0.889248 1.68811 0
M  V30 5112 C 490.971 -1.18605 3.24079 0
M  V30 5113 C 490.084 -0.464947 4.29491 0
M  V30 5114 C 489.219 -1.46716 5.10537 0
M  V30 5115 C 488.258 -0.731758 6.0771 0
M  V30 5116 N 487.395 -1.68142 6.81669 0
M  V30 5117 H 492.235 0.545713 2.92961 0
M  V30 5118 H 489.772 0.280938 1.44392 0
M  V30 5119 H 491.73 -1.78771 3.76957 0
M  V30 5120 H 490.36 -1.86989 2.63125 0
M  V30 5121 H 489.412 0.251506 3.79568 0
M  V30 5122 H 490.724 0.110548 4.98677 0
M  V30 5123 H 489.878 -2.14199 5.6763 0
M  V30 5124 H 488.617 -2.07658 4.41282 0
M  V30 5125 H 487.622 -0.0430787 5.49783 0
M  V30 5126 H 488.847 -0.127904 6.7898 0
M  V30 5127 H 486.793 -2.27918 6.15134 0
M  V30 5128 H 486.71 -1.15841 7.47072 0
M  V30 5129 H 487.978 -2.347 7.43328 0
M  V30 5130 N 492.207 -1.54576 0.307264 0
M  V30 5131 C 493.455 -1.99867 -0.299574 0
M  V30 5132 C 493.776 -1.19714 -1.53927 0
M  V30 5133 O 493.046 -0.29472 -1.9367 0
M  V30 5134 H 491.626 -0.738299 -0.113683 0
M  V30 5135 H 494.288 -1.9032 0.420042 0
M  V30 5136 H 493.384 -3.06901 -0.567283 0
M  V30 5137 N 493.685 -0.035106 -1.57561 0
M  V30 5138 C 494.618 0.979673 -2.06101 0
M  V30 5139 C 495.596 1.31378 -0.958046 0
M  V30 5140 O 496.78 1.42942 -1.22881 0
M  V30 5141 C 493.907 2.29809 -2.48808 0
M  V30 5142 C 492.953 2.11817 -3.70184 0
M  V30 5143 S 493.786 1.41143 -5.16565 0
M  V30 5144 C 494.942 2.74341 -5.62572 0
M  V30 5145 H 495.175 0.566506 -2.91853 0
M  V30 5146 H 492.708 0.176744 -1.53385 0
M  V30 5147 H 494.666 3.056 -2.74078 0
M  V30 5148 H 493.327 2.68257 -1.63392 0
M  V30 5149 H 492.52 3.09299 -3.97933 0
M  V30 5150 H 492.122 1.44168 -3.45097 0
M  V30 5151 H 494.414 3.70562 -5.67177 0
M  V30 5152 H 495.357 2.51249 -6.62027 0
M  V30 5153 H 495.765 2.79863 -4.90242 0
M  V30 5154 N 495.163 1.55791 0.238111 0
M  V30 5155 C 496.391 1.82098 0.982233 0
M  V30 5156 C 496.806 0.612025 1.78605 0
M  V30 5157 O 496.163 -0.419381 1.77616 0
M  V30 5158 C 496.214 3.0673 1.91309 0
M  V30 5159 O 495.935 4.2296 1.14179 0
M  V30 5160 C 497.436 3.45903 2.77248 0
M  V30 5161 H 494.656 0.605748 0.288635 0
M  V30 5162 H 497.2 2.02862 0.258341 0
M  V30 5163 H 495.355 2.87991 2.59114 0
M  V30 5164 H 495.769 4.93653 1.7722 0
M  V30 5165 H 497.243 4.36189 3.38295 0
M  V30 5166 H 497.72 2.66891 3.48806 0
M  V30 5167 H 498.326 3.67024 2.14881 0
M  V30 5168 N 496.642 -0.504142 1.49319 0
M  V30 5169 C 498.053 -1.08572 1.51885 0
M  V30 5170 C 498.404 -1.93842 0.303255 0
M  V30 5171 O 497.529 -2.0828 -0.58724 0
M  V30 5172 C 498.124 -1.97574 2.75227 0
M  V30 5173 C 496.683 -2.509 2.80581 0
M  V30 5174 C 495.83 -1.28447 2.45757 0
M  V30 5175 H 498.781 -0.288194 1.56061 0
M  V30 5176 H 498.802 -2.82219 2.55211 0
M  V30 5177 H 498.314 -1.35486 3.63683 0
M  V30 5178 H 496.415 -3.16636 1.96398 0
M  V30 5179 H 496.528 -2.88268 3.82673 0
M  V30 5180 H 494.892 -1.60868 1.97468 0
M  V30 5181 H 495.675 -0.68072 3.36483 0
M  V30 5182 N 498.12 -1.38341 -0.754957 0
M  V30 5183 C 499.05 -1.38176 -1.88227 0
M  V30 5184 C 500.031 -0.247873 -1.68284 0
M  V30 5185 O 501.216 -0.45075 -1.88896 0
M  V30 5186 C 498.346 -1.20471 -3.25736 0
M  V30 5187 C 497.3 -2.3105 -3.60278 0
M  V30 5188 C 496.626 -1.98452 -4.96509 0
M  V30 5189 C 497.926 -3.73305 -3.65295 0
M  V30 5190 H 499.62 -2.32512 -1.88622 0
M  V30 5191 H 497.166 -1.1192 -0.906082 0
M  V30 5192 H 499.119 -1.18982 -4.04254 0
M  V30 5193 H 497.843 -0.225965 -3.25817 0
M  V30 5194 H 496.502 -2.31723 -2.84078 0
M  V30 5195 H 496.15 -0.990641 -4.93148 0
M  V30 5196 H 495.85 -2.7251 -5.20588 0
M  V30 5197 H 497.374 -1.98578 -5.77407 0
M  V30 5198 H 498.788 -3.7467 -4.3393 0
M  V30 5199 H 497.185 -4.46557 -4.00883 0
M  V30 5200 H 498.255 -4.05719 -2.65556 0
M  V30 5201 N 499.598 0.982988 -1.23187 0
M  V30 5202 C 500.561 2.05649 -1.01198 0
M  V30 5203 C 501.561 1.6078 0.0252464 0
M  V30 5204 O 502.751 1.72878 -0.214243 0
M  V30 5205 C 499.883 3.36744 -0.530656 0
M  V30 5206 H 501.076 2.2659 -1.96461 0
M  V30 5207 H 498.629 1.15602 -1.05195 0
M  V30 5208 H 499.364 3.21492 0.425873 0
M  V30 5209 H 499.149 3.7065 -1.2791 0
M  V30 5210 H 500.639 4.15705 -0.397366 0
M  V30 5211 N 501.076 1.04316 1.18135 0
M  V30 5212 C 502.006 0.657299 2.24058 0
M  V30 5213 C 502.987 -0.340678 1.66654 0
M  V30 5214 O 504.172 -0.220223 1.92947 0
M  V30 5215 C 501.302 0.0220715 3.47293 0
M  V30 5216 C 500.256 0.943857 4.17463 0
M  V30 5217 C 499.582 0.172973 5.3442 0
M  V30 5218 C 500.882 2.26409 4.70677 0
M  V30 5219 H 502.576 1.5428 2.56589 0
M  V30 5220 H 500.122 0.743263 1.23335 0
M  V30 5221 H 502.075 -0.259607 4.206 0
M  V30 5222 H 500.799 -0.898323 3.14003 0
M  V30 5223 H 499.458 1.20996 3.46057 0
M  V30 5224 H 499.106 -0.749907 4.97379 0
M  V30 5225 H 498.806 0.787098 5.82304 0
M  V30 5226 H 500.33 -0.101628 6.10515 0
M  V30 5227 H 501.744 2.04294 5.35665 0
M  V30 5228 H 500.141 2.8314 5.29105 0
M  V30 5229 H 501.211 2.90883 3.87962 0
M  V30 5230 N 502.554 -1.34406 0.822964 0
M  V30 5231 C 503.517 -2.2783 0.250271 0
M  V30 5232 C 504.517 -1.50288 -0.571854 0
M  V30 5233 O 505.707 -1.69825 -0.387952 0
M  V30 5234 C 502.839 -3.34663 -0.649137 0
M  V30 5235 H 504.032 -2.79992 1.07444 0
M  V30 5236 H 501.585 -1.44539 0.594829 0
M  V30 5237 H 502.32 -2.87714 -1.49637 0
M  V30 5238 H 502.105 -3.92052 -0.0611199 0
M  V30 5239 H 503.595 -4.04349 -1.04363 0
M  V30 5240 N 504.032 -0.577932 -1.46621 0
M  V30 5241 C 504.995 0.147805 -2.28723 0
M  V30 5242 C 505.995 0.823325 -1.38123 0
M  V30 5243 O 507.185 0.676011 -1.60548 0
M  V30 5244 C 504.317 1.21853 -3.18378 0
M  V30 5245 H 505.51 -0.573654 -2.94362 0
M  V30 5246 H 503.063 -0.335703 -1.52652 0
M  V30 5247 H 503.798 1.97173 -2.57475 0
M  V30 5248 H 503.583 0.738714 -3.85078 0
M  V30 5249 H 505.073 1.72768 -3.80186 0
M  V30 5250 N 505.51 1.54411 -0.315457 0
M  V30 5251 C 506.758 2.00023 0.288971 0
M  V30 5252 C 507.079 1.20529 1.5329 0
M  V30 5253 O 506.349 0.304986 1.93511 0
M  V30 5254 H 504.929 0.738891 0.109766 0
M  V30 5255 H 507.591 1.90094 -0.430129 0
M  V30 5256 H 506.687 3.07198 0.550999 0
M  V30 5257 N 506.988 0.0434614 1.5754 0
M  V30 5258 C 508.216 -0.641835 1.96693 0
M  V30 5259 C 508.631 -1.64832 0.920652 0
M  V30 5260 O 507.988 -1.82247 -0.095993 0
M  V30 5261 C 508.039 -1.33557 3.35924 0
M  V30 5262 O 507.76 -0.369403 4.3654 0
M  V30 5263 C 509.261 -2.11135 3.89791 0
M  V30 5264 H 506.481 -0.176013 0.647503 0
M  V30 5265 H 509.025 0.107478 2.04217 0
M  V30 5266 H 507.18 -2.03617 3.29574 0
M  V30 5267 H 507.594 -0.863674 5.1734 0
M  V30 5268 H 509.068 -2.55107 4.89514 0
M  V30 5269 H 509.545 -2.95634 3.24803 0
M  V30 5270 H 510.151 -1.46002 3.99454 0
M  V30 5271 N 508.466 -1.55915 -0.229846 0
M  V30 5272 C 509.714 -1.7819 -0.953565 0
M  V30 5273 C 510.035 -0.610504 -1.85197 0
M  V30 5274 O 509.305 0.372988 -1.92316 0
M  V30 5275 H 507.885 -0.657208 -0.355087 0
M  V30 5276 H 510.547 -1.9337 -0.243693 0
M  V30 5277 H 509.643 -2.70011 -1.56527 0
M  V30 5278 N 509.944 0.496216 -1.49584 0
M  V30 5279 C 510.891 1.59722 -1.66606 0
M  V30 5280 C 511.861 1.58158 -0.507477 0
M  V30 5281 O 513.046 1.76072 -0.735076 0
M  V30 5282 C 510.186 2.97844 -1.74308 0
M  V30 5283 C 509.299 3.09388 -3.01502 0
M  V30 5284 C 508.434 4.38271 -3.00153 0
M  V30 5285 C 507.473 4.43466 -4.21906 0
M  V30 5286 N 506.61 5.63784 -4.1844 0
M  V30 5287 H 511.45 1.44515 -2.60613 0
M  V30 5288 H 508.987 0.703048 -1.29212 0
M  V30 5289 H 510.945 3.77907 -1.76754 0
M  V30 5290 H 509.575 3.11743 -0.837619 0
M  V30 5291 H 508.627 2.22357 -3.08645 0
M  V30 5292 H 509.939 3.09085 -3.91494 0
M  V30 5293 H 509.093 5.2666 -3.01188 0
M  V30 5294 H 507.832 4.41146 -2.07947 0
M  V30 5295 H 506.837 3.53478 -4.21109 0
M  V30 5296 H 508.062 4.42303 -5.1531 0
M  V30 5297 H 506.008 5.67491 -3.29074 0
M  V30 5298 H 505.925 5.65118 -5.02173 0
M  V30 5299 H 507.193 6.54367 -4.23585 0
M  V30 5300 N 511.423 1.38739 0.74761 0
M  V30 5301 C 512.672 1.3459 1.50228 0
M  V30 5302 C 512.985 -0.0595592 1.95509 0
M  V30 5303 O 514.191 -0.22361 2.70578 0
M  V30 5304 C 512.647 2.36377 2.71393 0
M  V30 5305 C 512.255 3.82573 2.33113 0
M  V30 5306 C 513.999 2.41281 3.49262 0
M  V30 5307 C 511.906 4.76032 3.50924 0
M  V30 5308 H 510.836 0.500312 0.564096 0
M  V30 5309 H 513.487 1.64324 0.8167 0
M  V30 5310 H 511.869 1.99694 3.41962 0
M  V30 5311 H 513.043 4.28227 1.70171 0
M  V30 5312 H 511.358 3.80844 1.68365 0
M  V30 5313 H 513.955 3.08301 4.36869 0
M  V30 5314 H 514.298 1.43353 3.9084 0
M  V30 5315 H 514.831 2.76793 2.85711 0
M  V30 5316 H 511.57 5.75177 3.14408 0
M  V30 5317 H 511.09 4.35066 4.12889 0
M  V30 5318 H 512.769 4.94331 4.17427 0
M  V30 5319 N 512.901 -0.976442 1.23707 0
M  V30 5320 C 514.149 -1.71487 1.06942 0
M  V30 5321 C 514.47 -1.9098 -0.393897 0
M  V30 5322 O 513.74 -1.48128 -1.28198 0
M  V30 5323 H 512.32 -0.635425 0.392739 0
M  V30 5324 H 514.982 -1.17515 1.55487 0
M  V30 5325 H 514.078 -2.70286 1.56051 0
M  V30 5326 N 514.379 -1.04941 -1.1758 0
M  V30 5327 C 515.625 -0.759112 -1.88057 0
M  V30 5328 C 515.958 0.711918 -1.8068 0
M  V30 5329 O 515.233 1.52035 -1.21308 0
M  V30 5330 C 515.516 -1.237 -3.38187 0
M  V30 5331 C 515.369 -2.77078 -3.54327 0
M  V30 5332 C 516.688 -0.834014 -4.32125 0
M  V30 5333 H 513.807 -0.277237 -0.682868 0
M  V30 5334 H 516.449 -1.30296 -1.38286 0
M  V30 5335 H 514.599 -0.774337 -3.80705 0
M  V30 5336 H 516.271 -3.31449 -3.20842 0
M  V30 5337 H 514.514 -3.16477 -2.96689 0
M  V30 5338 H 515.185 -3.05577 -4.59703 0
M  V30 5339 H 517.661 -1.23228 -3.97434 0
M  V30 5340 H 516.537 -1.19603 -5.35711 0
M  V30 5341 H 516.798 0.262195 -4.41322 0
M  V30 5342 N 515.857 1.33968 -0.830081 0
M  V30 5343 C 516.787 2.31911 -0.271911 0
M  V30 5344 C 517.768 1.58571 0.61556 0
M  V30 5345 O 518.953 1.86514 0.540946 0
M  V30 5346 C 516.083 3.42737 0.561146 0
M  V30 5347 C 515.037 4.27383 -0.229789 0
M  V30 5348 C 514.363 5.29742 0.726463 0
M  V30 5349 C 515.663 5.02 -1.44197 0
M  V30 5350 H 517.357 2.78844 -1.09025 0
M  V30 5351 H 514.903 1.34061 -0.52571 0
M  V30 5352 H 516.856 4.10276 0.961867 0
M  V30 5353 H 515.58 2.94471 1.41261 0
M  V30 5354 H 514.239 3.61456 -0.611964 0
M  V30 5355 H 513.887 4.77736 1.57408 0
M  V30 5356 H 513.587 5.87255 0.20142 0
M  V30 5357 H 515.111 6.00149 1.12489 0
M  V30 5358 H 516.525 5.62355 -1.11488 0
M  V30 5359 H 514.922 5.69122 -1.90317 0
M  V30 5360 H 515.992 4.31281 -2.2164 0
M  V30 5361 N 517.335 0.585699 1.46312 0
M  V30 5362 C 518.298 -0.135673 2.28798 0
M  V30 5363 C 519.298 -0.815988 1.38558 0
M  V30 5364 O 520.488 -0.667487 1.60904 0
M  V30 5365 C 517.62 -1.20163 3.1902 0
M  V30 5366 H 518.813 0.589257 2.94054 0
M  V30 5367 H 516.366 0.343794 1.52472 0
M  V30 5368 H 517.101 -1.95804 2.58517 0
M  V30 5369 H 516.886 -0.718282 3.85465 0
M  V30 5370 H 518.376 -1.70749 3.81096 0
M  V30 5371 N 518.813 -1.54241 0.323641 0
M  V30 5372 C 520.043 -2.04687 -0.280464 0
M  V30 5373 C 520.451 -1.19939 -1.46326 0
M  V30 5374 O 519.794 -0.222872 -1.82343 0
M  V30 5375 C 519.856 -3.50978 -0.778123 0
M  V30 5376 C 519.52 -4.56127 0.282371 0
M  V30 5377 C 520.517 -5.07726 1.11847 0
M  V30 5378 C 518.202 -5.00451 0.430582 0
M  V30 5379 C 520.196 -6.02212 2.08851 0
M  V30 5380 C 517.883 -5.94752 1.40404 0
M  V30 5381 C 518.881 -6.45519 2.23147 0
M  V30 5382 O 518.569 -7.37968 3.1884 0
M  V30 5383 H 518.301 -0.673192 -0.0615473 0
M  V30 5384 H 520.855 -1.99999 0.467921 0
M  V30 5385 H 519.085 -3.53064 -1.57742 0
M  V30 5386 H 520.774 -3.84499 -1.30058 0
M  V30 5387 H 521.54 -4.74261 1.01496 0
M  V30 5388 H 517.419 -4.6055 -0.203569 0
M  V30 5389 H 520.963 -6.41761 2.73474 0
M  V30 5390 H 516.86 -6.27633 1.5082 0
M  V30 5391 H 517.628 -7.55841 3.14079 0
M  V30 5392 N 520.291 -0.0518155 -1.57515 0
M  V30 5393 C 521.54 0.621286 -1.91893 0
M  V30 5394 C 521.853 1.71966 -0.932052 0
M  V30 5395 O 523.059 2.45096 -1.16791 0
M  V30 5396 C 521.515 1.15641 -3.40816 0
M  V30 5397 C 521.123 0.0901146 -4.47909 0
M  V30 5398 C 522.867 1.80472 -3.84227 0
M  V30 5399 C 520.774 0.638154 -5.87947 0
M  V30 5400 H 519.704 0.235835 -0.716169 0
M  V30 5401 H 522.355 -0.120809 -1.83102 0
M  V30 5402 H 520.737 1.95084 -3.44613 0
M  V30 5403 H 521.911 -0.683525 -4.55702 0
M  V30 5404 H 520.226 -0.460774 -4.13843 0
M  V30 5405 H 522.823 2.22471 -4.86221 0
M  V30 5406 H 523.166 2.65669 -3.20508 0
M  V30 5407 H 523.699 1.07683 -3.82948 0
M  V30 5408 H 520.438 -0.176202 -6.55263 0
M  V30 5409 H 519.958 1.37976 -5.83714 0
M  V30 5410 H 521.637 1.12085 -6.37217 0
M  V30 5411 N 521.769 1.56035 0.221574 0
M  V30 5412 C 522.699 1.95434 1.2778 0
M  V30 5413 C 523.68 0.822564 1.48889 0
M  V30 5414 O 524.865 1.08486 1.61072 0
M  V30 5415 C 521.995 2.27102 2.62759 0
M  V30 5416 C 520.949 3.4277 2.56306 0
M  V30 5417 C 520.275 3.60043 3.95314 0
M  V30 5418 C 521.575 4.77742 2.11093 0
M  V30 5419 H 523.269 2.83912 0.950504 0
M  V30 5420 H 520.815 1.36596 0.455791 0
M  V30 5421 H 522.768 2.53256 3.36807 0
M  V30 5422 H 521.492 1.35478 2.97176 0
M  V30 5423 H 520.151 3.16664 1.84715 0
M  V30 5424 H 519.799 2.65794 4.27039 0
M  V30 5425 H 519.499 4.37841 3.91879 0
M  V30 5426 H 521.023 3.88545 4.71025 0
M  V30 5427 H 522.437 5.03102 2.74885 0
M  V30 5428 H 520.834 5.58823 2.18716 0
M  V30 5429 H 521.904 4.731 1.06321 0
M  V30 5430 N 523.247 -0.488276 1.49845 0
M  V30 5431 C 524.179 -1.60539 1.63584 0
M  V30 5432 C 525.192 -1.5434 0.517972 0
M  V30 5433 O 526.381 -1.60041 0.790516 0
M  V30 5434 C 523.481 -2.99374 1.58835 0
M  V30 5435 C 522.654 -3.30624 2.86368 0
M  V30 5436 C 521.713 -4.4893 2.74496 0
M  V30 5437 O 520.739 -4.50085 3.48443 0
M  V30 5438 N 521.941 -5.49591 1.86894 0
M  V30 5439 H 524.706 -1.49176 2.59936 0
M  V30 5440 H 522.267 -0.67639 1.47094 0
M  V30 5441 H 524.259 -3.76459 1.48529 0
M  V30 5442 H 522.829 -3.04595 0.702892 0
M  V30 5443 H 522.049 -2.42314 3.1093 0
M  V30 5444 H 523.337 -3.48305 3.70892 0
M  V30 5445 H 522.735 -5.51467 1.26097 0
M  V30 5446 H 521.292 -6.25728 1.82503 0
M  V30 5447 N 524.725 -1.39134 -0.740242 0
M  V30 5448 C 526.141 -1.20623 -1.0451 0
M  V30 5449 C 526.341 -0.0641651 -2.01398 0
M  V30 5450 O 525.397 0.585843 -2.4561 0
M  V30 5451 C 526.71 -2.53815 -1.6124 0
M  V30 5452 C 528.258 -2.60615 -1.73346 0
M  V30 5453 C 528.733 -3.94015 -2.33486 0
M  V30 5454 N 530.224 -3.95627 -2.40902 0
M  V30 5455 C 530.959 -4.95616 -2.88361 0
M  V30 5456 N 530.455 -6.06003 -3.35756 0
M  V30 5457 N 532.248 -4.82998 -2.87523 0
M  V30 5458 H 524.399 -2.12176 -0.0975576 0
M  V30 5459 H 526.662 -0.942066 -0.105904 0
M  V30 5460 H 526.368 -3.37911 -0.975144 0
M  V30 5461 H 526.242 -2.73162 -2.6012 0
M  V30 5462 H 528.629 -1.76906 -2.36195 0
M  V30 5463 H 528.71 -2.45123 -0.731336 0
M  V30 5464 H 528.354 -4.78153 -1.71267 0
M  V30 5465 H 528.284 -4.06825 -3.34366 0
M  V30 5466 H 530.775 -3.15903 -2.07398 0
M  V30 5467 H 531.088 -6.78215 -3.70464 0
M  V30 5468 H 529.433 -6.09604 -3.33778 0
M  V30 5469 H 532.624 -3.95866 -2.49816 0
M  V30 5470 H 532.797 -5.61072 -3.24196 0
M  V30 5471 N 526.204 0.969867 -1.24223 0
M  V30 5472 C 527.114 2.09806 -1.0497 0
M  V30 5473 C 528.13 1.73998 0.00886455 0
M  V30 5474 O 529.306 2.00513 -0.188848 0
M  V30 5475 C 526.371 3.40467 -0.654452 0
M  V30 5476 C 525.432 3.90236 -1.78926 0
M  V30 5477 C 524.665 5.14662 -1.41277 0
M  V30 5478 O 524.888 5.69602 -0.301632 0
M  V30 5479 O 523.822 5.58761 -2.23763 0
M  V30 5480 H 527.648 2.28942 -1.99548 0
M  V30 5481 H 525.233 1.08197 -1.03023 0
M  V30 5482 H 527.115 4.19039 -0.445452 0
M  V30 5483 H 525.79 3.22636 0.262216 0
M  V30 5484 H 524.697 3.12735 -2.05299 0
M  V30 5485 H 526.03 4.1254 -2.68462 0
M  V30 5486 N 527.682 1.05563 1.17022 0
M  V30 5487 C 528.931 0.763036 1.8671 0
M  V30 5488 C 529.244 -0.712857 1.82147 0
M  V30 5489 O 530.45 -1.11955 2.47343 0
M  V30 5490 C 528.906 1.31474 3.35026 0
M  V30 5491 C 528.514 2.82034 3.48081 0
M  V30 5492 C 530.258 1.09935 4.10018 0
M  V30 5493 C 528.165 3.30486 4.90442 0
M  V30 5494 H 527.095 0.281747 0.699382 0
M  V30 5495 H 529.746 1.2734 1.32124 0
M  V30 5496 H 528.128 0.732171 3.89173 0
M  V30 5497 H 529.302 3.46178 3.04133 0
M  V30 5498 H 527.617 3.02156 2.86515 0
M  V30 5499 H 530.214 1.43632 5.15048 0
M  V30 5500 H 530.557 0.0373072 4.16283 0
M  V30 5501 H 531.09 1.64732 3.62089 0
M  V30 5502 H 527.829 4.36137 4.89352 0
M  V30 5503 H 527.349 2.71086 5.35044 0
M  V30 5504 H 529.028 3.25382 5.59227 0
M  V30 5505 N 529.16 -1.33526 0.837174 0
M  V30 5506 C 530.092 -2.28077 0.226579 0
M  V30 5507 C 531.105 -1.51666 -0.591717 0
M  V30 5508 O 532.294 -1.73511 -0.419064 0
M  V30 5509 C 529.394 -3.31597 -0.69978 0
M  V30 5510 C 528.567 -4.37329 0.0788067 0
M  V30 5511 C 527.626 -5.20526 -0.770637 0
M  V30 5512 O 526.652 -5.68811 -0.210453 0
M  V30 5513 N 527.854 -5.41639 -2.08825 0
M  V30 5514 H 530.619 -2.81115 1.03897 0
M  V30 5515 H 528.18 -1.46201 0.695476 0
M  V30 5516 H 530.172 -3.84158 -1.27298 0
M  V30 5517 H 528.742 -2.78848 -1.41288 0
M  V30 5518 H 527.962 -3.8529 0.833381 0
M  V30 5519 H 529.25 -5.05079 0.614238 0
M  V30 5520 H 528.648 -5.04108 -2.56693 0
M  V30 5521 H 527.205 -5.97263 -2.60998 0
M  V30 5522 N 530.638 -0.59345 -1.46 0
M  V30 5523 C 531.548 0.135817 -2.34207 0
M  V30 5524 C 532.564 0.875008 -1.50398 0
M  V30 5525 O 533.74 0.835778 -1.83239 0
M  V30 5526 C 530.805 1.12977 -3.27776 0
M  V30 5527 C 529.866 0.394081 -4.27487 0
M  V30 5528 C 529.099 1.34068 -5.16586 0
M  V30 5529 O 529.322 2.5778 -5.08828 0
M  V30 5530 O 528.256 0.845426 -5.95933 0
M  V30 5531 H 532.082 -0.588691 -2.9794 0
M  V30 5532 H 529.667 -0.353784 -1.45151 0
M  V30 5533 H 531.549 1.70261 -3.85473 0
M  V30 5534 H 530.224 1.83556 -2.66625 0
M  V30 5535 H 529.131 -0.220869 -3.73447 0
M  V30 5536 H 530.464 -0.270939 -4.91454 0
M  V30 5537 N 532.116 1.54067 -0.331816 0
M  V30 5538 C 533.527 1.86059 0.15454 0
M  V30 5539 C 533.878 1.25331 1.50952 0
M  V30 5540 O 533.003 0.562441 2.08963 0
M  V30 5541 C 533.598 3.37581 0.287192 0
M  V30 5542 C 532.157 3.69493 0.717773 0
M  V30 5543 C 531.304 2.76863 -0.155569 0
M  V30 5544 H 534.255 1.48797 -0.55182 0
M  V30 5545 H 534.276 3.63744 1.11671 0
M  V30 5546 H 533.788 3.81751 -0.699131 0
M  V30 5547 H 531.889 3.3086 1.71354 0
M  V30 5548 H 532.002 4.76315 0.5158 0
M  V30 5549 H 530.366 2.51995 0.370213 0
M  V30 5550 H 531.149 3.23861 -1.13881 0
M  V30 5551 N 533.594 0.0601682 1.57485 0
M  V30 5552 C 534.504 -0.926121 2.15546 0
M  V30 5553 C 535.52 -1.33532 1.11558 0
M  V30 5554 O 536.696 -1.4104 1.4377 0
M  V30 5555 C 533.761 -2.17952 2.69625 0
M  V30 5556 C 532.822 -1.82783 3.88444 0
M  V30 5557 C 532.055 -3.02148 4.39935 0
M  V30 5558 O 532.278 -4.15803 3.90466 0
M  V30 5559 O 531.212 -2.82639 5.31412 0
M  V30 5560 H 535.038 -0.462289 3.00161 0
M  V30 5561 H 532.623 -0.162246 1.48516 0
M  V30 5562 H 534.505 -2.91474 3.04337 0
M  V30 5563 H 533.18 -2.63456 1.88077 0
M  V30 5564 H 532.087 -1.06549 3.58606 0
M  V30 5565 H 533.42 -1.42072 4.7125 0
M  V30 5566 N 535.072 -1.5615 -0.213296 0
M  V30 5567 C 536.312 -1.81325 -0.943435 0
M  V30 5568 C 536.676 -0.634934 -1.81198 0
M  V30 5569 O 537.877 -0.766166 -2.5765 0
M  V30 5570 C 536.148 -3.11437 -1.75334 0
M  V30 5571 S 537.707 -3.57955 -2.53799 0
M  V30 5572 H 534.525 -0.636538 -0.316766 0
M  V30 5573 H 537.127 -1.94387 -0.208313 0
M  V30 5574 H 535.831 -3.95228 -1.10556 0
M  V30 5575 H 535.362 -3.01204 -2.53061 0
M  V30 5576 H 537.377 -3.21947 -3.77577 0
M  V30 5577 N 536.55 0.480323 -1.50102 0
M  V30 5578 C 537.966 0.813295 -1.37323 0
M  V30 5579 C 538.166 1.97027 -0.422206 0
M  V30 5580 O 537.222 2.5212 0.138563 0
M  V30 5581 C 538.535 1.13404 -2.78496 0
M  V30 5582 C 540.083 1.24104 -2.87345 0
M  V30 5583 C 540.558 1.59497 -4.29331 0
M  V30 5584 N 542.049 1.66507 -4.32238 0
M  V30 5585 C 542.784 1.95378 -5.39087 0
M  V30 5586 N 542.28 2.22333 -6.56155 0
M  V30 5587 N 544.073 1.96803 -5.26522 0
M  V30 5588 H 536.224 -0.282291 -2.10516 0
M  V30 5589 H 538.487 -0.063752 -0.945854 0
M  V30 5590 H 538.193 0.357064 -3.49883 0
M  V30 5591 H 538.067 2.07251 -3.15162 0
M  V30 5592 H 540.454 2.00871 -2.16183 0
M  V30 5593 H 540.535 0.282593 -2.54234 0
M  V30 5594 H 540.179 0.832736 -5.01027 0
M  V30 5595 H 540.109 2.56477 -4.59921 0
M  V30 5596 H 542.6 1.47753 -3.47818 0
M  V30 5597 H 542.913 2.43611 -7.33399 0
M  V30 5598 H 541.258 2.19745 -6.59346 0
M  V30 5599 H 544.449 1.75235 -4.34062 0
M  V30 5600 H 544.622 2.18969 -6.09883 0
M  V30 5601 N 538.028 1.39524 0.732853 0
M  V30 5602 C 538.978 1.34905 1.83806 0
M  V30 5603 C 539.962 0.229546 1.59254 0
M  V30 5604 O 541.154 0.467255 1.70721 0
M  V30 5605 C 538.283 1.19699 3.21756 0
M  V30 5606 C 537.369 2.36359 3.5213 0
M  V30 5607 N 537.76 3.61834 3.53426 0
M  V30 5608 C 536.058 2.29363 3.82503 0
M  V30 5609 C 536.759 4.38992 3.81655 0
M  V30 5610 N 535.735 3.68606 3.99538 0
M  V30 5611 H 539.537 2.29882 1.83116 0
M  V30 5612 H 537.051 1.33051 0.931194 0
M  V30 5613 H 539.048 1.14472 4.00876 0
M  V30 5614 H 537.708 0.256739 3.23683 0
M  V30 5615 H 538.719 3.95228 3.34686 0
M  V30 5616 H 535.396 1.43612 3.92023 0
M  V30 5617 H 536.786 5.47763 3.89108 0
M  V30 5618 N 539.506 -0.963266 1.24736 0
M  V30 5619 C 540.436 -2.07628 1.06832 0
M  V30 5620 C 541.417 -1.70088 -0.0200566 0
M  V30 5621 O 542.602 -1.93636 0.147854 0
M  V30 5622 C 539.732 -3.40636 0.677069 0
M  V30 5623 C 538.686 -3.9215 1.71471 0
M  V30 5624 C 538.012 -5.21553 1.1784 0
M  V30 5625 C 539.312 -4.19493 3.11164 0
M  V30 5626 H 541.006 -2.22864 1.9993 0
M  V30 5627 H 538.552 -1.07093 0.96266 0
M  V30 5628 H 540.505 -4.17941 0.538792 0
M  V30 5629 H 539.229 -3.25313 -0.289612 0
M  V30 5630 H 537.888 -3.17005 1.84128 0
M  V30 5631 H 537.536 -5.02593 0.202195 0
M  V30 5632 H 537.236 -5.56988 1.87185 0
M  V30 5633 H 538.76 -6.01463 1.05233 0
M  V30 5634 H 540.174 -4.87487 3.01711 0
M  V30 5635 H 538.571 -4.66165 3.77902 0
M  V30 5636 H 539.641 -3.26097 3.58871 0
M  V30 5637 N 540.985 -1.06182 -1.16461 0
M  V30 5638 C 542.21 -0.798599 -1.91408 0
M  V30 5639 C 542.635 0.640987 -1.76842 0
M  V30 5640 O 541.993 1.44652 -1.09296 0
M  V30 5641 C 542.041 -1.19665 -3.40165 0
M  V30 5642 O 541.145 -0.334768 -4.11039 0
M  V30 5643 H 540.486 -0.291961 -0.596368 0
M  V30 5644 H 543.016 -1.41732 -1.47557 0
M  V30 5645 H 543.026 -1.16772 -3.90933 0
M  V30 5646 H 541.701 -2.24526 -3.50087 0
M  V30 5647 H 540.278 -0.425168 -3.70468 0
M  V30 5648 N 542.463 1.3308 -0.844243 0
M  V30 5649 C 543.879 1.50447 -0.532729 0
M  V30 5650 C 544.079 1.78292 0.938837 0
M  V30 5651 O 543.135 1.84635 1.72239 0
M  V30 5652 C 544.448 2.65555 -1.41072 0
M  V30 5653 C 545.996 2.7944 -1.41005 0
M  V30 5654 C 546.471 3.97616 -2.27301 0
M  V30 5655 N 547.962 4.0486 -2.2504 0
M  V30 5656 C 548.697 4.95508 -2.88547 0
M  V30 5657 N 548.193 5.91236 -3.61126 0
M  V30 5658 N 549.986 4.88548 -2.77989 0
M  V30 5659 H 542.137 1.13269 -1.79677 0
M  V30 5660 H 544.4 0.55734 -0.766861 0
M  V30 5661 H 544.106 2.51675 -2.45668 0
M  V30 5662 H 543.98 3.61089 -1.09061 0
M  V30 5663 H 546.367 2.92749 -0.371784 0
M  V30 5664 H 546.448 1.8465 -1.77026 0
M  V30 5665 H 546.092 3.85066 -3.3119 0
M  V30 5666 H 546.022 4.91661 -1.88619 0
M  V30 5667 H 548.513 3.36353 -1.72264 0
M  V30 5668 H 548.826 6.57079 -4.06776 0
M  V30 5669 H 547.171 5.91295 -3.65234 0
M  V30 5670 H 550.362 4.12729 -2.20846 0
M  V30 5671 H 550.535 5.58994 -3.27765 0
M  V30 5672 N 543.941 0.601185 1.45683 0
M  V30 5673 C 544.888 -0.121396 2.30481 0
M  V30 5674 C 545.858 -0.866232 1.41724 0
M  V30 5675 O 547.043 -0.85324 1.70659 0
M  V30 5676 C 544.183 -1.11704 3.26521 0
M  V30 5677 C 543.296 -0.373741 4.3038 0
M  V30 5678 C 542.431 -1.35854 5.13534 0
M  V30 5679 C 541.47 -0.602689 6.09126 0
M  V30 5680 N 540.607 -1.53645 6.85082 0
M  V30 5681 H 545.447 0.607732 2.91737 0
M  V30 5682 H 542.984 0.311502 1.43764 0
M  V30 5683 H 544.942 -1.70735 3.80664 0
M  V30 5684 H 543.572 -1.81366 2.67032 0
M  V30 5685 H 542.624 0.331962 3.78949 0
M  V30 5686 H 543.936 0.2163 4.98331 0
M  V30 5687 H 543.09 -2.02111 5.72046 0
M  V30 5688 H 541.829 -1.98251 4.45587 0
M  V30 5689 H 540.834 0.0735482 5.49751 0
M  V30 5690 H 542.059 0.0161467 6.79098 0
M  V30 5691 H 540.005 -2.14819 6.1983 0
M  V30 5692 H 539.922 -0.999688 7.49361 0
M  V30 5693 H 541.19 -2.1888 7.48139 0
M  V30 5694 N 545.419 -1.53889 0.339982 0
M  V30 5695 C 546.666 -2.00855 -0.257621 0
M  V30 5696 C 546.994 -1.22788 -1.50842 0
M  V30 5697 O 546.249 -0.302567 -1.93347 0
M  V30 5698 C 546.548 -3.51968 -0.620735 0
M  V30 5699 C 546.214 -4.47741 0.532771 0
M  V30 5700 C 544.876 -4.73645 0.849339 0
M  V30 5701 C 547.228 -5.04551 1.3068 0
M  V30 5702 C 544.556 -5.53614 1.94237 0
M  V30 5703 C 546.908 -5.85713 2.39005 0
M  V30 5704 C 545.572 -6.09912 2.71225 0
M  V30 5705 H 544.842 -0.734979 -0.0942703 0
M  V30 5706 H 547.489 -1.85714 0.467159 0
M  V30 5707 H 545.794 -3.64921 -1.42618 0
M  V30 5708 H 547.491 -3.85762 -1.09495 0
M  V30 5709 H 544.081 -4.27711 0.275973 0
M  V30 5710 H 548.265 -4.84507 1.07549 0
M  V30 5711 H 543.521 -5.7059 2.19628 0
M  V30 5712 H 547.695 -6.28748 2.99415 0
M  V30 5713 H 545.322 -6.71665 3.56047 0
M  V30 5714 N 546.897 -0.0685191 -1.57451 0
M  V30 5715 C 548.125 0.610462 -1.97689 0
M  V30 5716 C 548.54 1.63346 -0.946758 0
M  V30 5717 O 547.897 1.82377 0.0669868 0
M  V30 5718 C 547.948 1.28196 -3.38006 0
M  V30 5719 O 547.669 0.299906 -4.37072 0
M  V30 5720 C 549.17 2.04907 -3.931 0
M  V30 5721 H 546.39 0.165689 -0.650222 0
M  V30 5722 H 548.934 -0.139953 -2.04021 0
M  V30 5723 H 547.089 1.98348 -3.32771 0
M  V30 5724 H 547.503 0.78126 -5.18649 0
M  V30 5725 H 548.977 2.47287 -4.93511 0
M  V30 5726 H 549.454 2.9043 -3.29465 0
M  V30 5727 H 550.06 1.39629 -4.01726 0
M  V30 5728 N 548.375 1.56261 0.205012 0
M  V30 5729 C 549.285 1.96944 1.27476 0
M  V30 5730 C 550.301 0.875636 1.50362 0
M  V30 5731 O 551.477 1.18058 1.6317 0
M  V30 5732 C 548.542 2.29219 2.60115 0
M  V30 5733 C 547.603 3.52255 2.45387 0
M  V30 5734 C 546.836 3.8298 3.71701 0
M  V30 5735 O 547.059 3.15138 4.75441 0
M  V30 5736 O 545.993 4.76435 3.67823 0
M  V30 5737 H 549.819 2.88144 0.959527 0
M  V30 5738 H 547.404 1.43686 0.409217 0
M  V30 5739 H 549.286 2.51098 3.3842 0
M  V30 5740 H 547.961 1.4119 2.91285 0
M  V30 5741 H 546.868 3.35635 1.65227 0
M  V30 5742 H 548.201 4.40719 2.19152 0
M  V30 5743 N 549.853 -0.472356 1.50355 0
M  V30 5744 C 551.099 -1.22348 1.62488 0
M  V30 5745 C 551.454 -1.89711 0.320574 0
M  V30 5746 O 550.747 -1.79074 -0.68141 0
M  V30 5747 C 550.941 -2.29257 2.74182 0
M  V30 5748 C 550.77 -1.72383 4.15348 0
M  V30 5749 C 549.54 -1.52411 4.81766 0
M  V30 5750 C 551.738 -1.21949 4.99633 0
M  V30 5751 N 549.72 -0.907669 6.07153 0
M  V30 5752 C 551.091 -0.726191 6.15732 0
M  V30 5753 C 553.146 -1.10792 4.85417 0
M  V30 5754 C 551.849 -0.132322 7.19178 0
M  V30 5755 C 553.875 -0.52799 5.89038 0
M  V30 5756 C 553.237 -0.0450604 7.04386 0
M  V30 5757 H 549.336 -0.436631 0.648751 0
M  V30 5758 H 551.92 -0.525698 1.87469 0
M  V30 5759 H 550.091 -2.96464 2.50926 0
M  V30 5760 H 551.823 -2.9628 2.75681 0
M  V30 5761 H 548.578 -1.776 4.39039 0
M  V30 5762 H 549.002 -0.617897 6.74174 0
M  V30 5763 H 553.644 -1.46722 3.96525 0
M  V30 5764 H 551.362 0.239187 8.07746 0
M  V30 5765 H 554.948 -0.444046 5.80103 0
M  V30 5766 H 553.828 0.396659 7.83196 0
M  V30 5767 N 551.331 -1.39911 -0.725443 0
M  V30 5768 C 552.294 -1.39156 -1.82121 0
M  V30 5769 C 553.294 -0.287018 -1.58218 0
M  V30 5770 O 554.484 -0.545421 -1.65441 0
M  V30 5771 C 551.616 -1.1736 -3.20062 0
M  V30 5772 H 552.809 -2.36672 -1.84191 0
M  V30 5773 H 550.362 -1.25615 -0.930079 0
M  V30 5774 H 551.097 -0.205648 -3.23647 0
M  V30 5775 H 550.882 -1.97358 -3.3881 0
M  V30 5776 H 552.372 -1.19596 -4.00108 0
M  V30 5777 N 552.809 0.956637 -1.25245 0
M  V30 5778 C 554.039 1.7332 -1.12445 0
M  V30 5779 C 554.447 1.86392 0.324732 0
M  V30 5780 O 553.79 1.35967 1.23526 0
M  V30 5781 C 553.852 3.16603 -1.70303 0
M  V30 5782 C 553.516 3.26966 -3.19284 0
M  V30 5783 C 554.513 3.11434 -4.16299 0
M  V30 5784 C 552.198 3.50851 -3.59456 0
M  V30 5785 C 554.192 3.1963 -5.51467 0
M  V30 5786 C 551.879 3.58684 -4.94761 0
M  V30 5787 C 552.877 3.43087 -5.90576 0
M  V30 5788 O 552.565 3.50598 -7.2342 0
M  V30 5789 H 552.297 0.549981 -0.393061 0
M  V30 5790 H 554.851 1.20892 -1.66055 0
M  V30 5791 H 553.081 3.70385 -1.11138 0
M  V30 5792 H 554.77 3.76109 -1.52632 0
M  V30 5793 H 555.536 2.92853 -3.86604 0
M  V30 5794 H 551.415 3.62053 -2.85375 0
M  V30 5795 H 554.959 3.07373 -6.26233 0
M  V30 5796 H 550.856 3.76782 -5.24124 0
M  V30 5797 H 551.624 3.67242 -7.31489 0
M  V30 5798 N 554.287 1.06798 1.15896 0
M  V30 5799 C 555.535 0.786211 1.8618 0
M  V30 5800 C 555.856 -0.689547 1.82401 0
M  V30 5801 O 555.126 -1.49913 1.26107 0
M  V30 5802 H 553.706 0.287843 0.689315 0
M  V30 5803 H 556.368 1.35055 1.40521 0
M  V30 5804 H 555.464 1.1157 2.91477 0
M  V30 5805 N 555.766 -1.3263 0.851289 0
M  V30 5806 C 557.177 -1.79653 0.5081 0
M  V30 5807 C 557.528 -1.70327 -0.973815 0
M  V30 5808 O 556.653 -1.25986 -1.75944 0
M  V30 5809 C 557.248 -3.26196 0.915515 0
M  V30 5810 C 555.807 -3.71187 0.624277 0
M  V30 5811 C 554.954 -2.53804 1.11709 0
M  V30 5812 H 557.905 -1.19976 1.03882 0
M  V30 5813 H 557.926 -3.79801 0.230535 0
M  V30 5814 H 557.438 -3.32952 1.99411 0
M  V30 5815 H 555.539 -3.69948 -0.443737 0
M  V30 5816 H 555.652 -4.64132 1.18821 0
M  V30 5817 H 554.016 -2.48964 0.537484 0
M  V30 5818 H 554.799 -2.63315 2.20272 0
M  V30 5819 N 557.244 -0.608902 -1.45362 0
M  V30 5820 C 558.49 -0.104762 -2.02529 0
M  V30 5821 C 558.823 1.26191 -1.47613 0
M  V30 5822 O 558.098 1.8327 -0.65134 0
M  V30 5823 C 558.381 -0.0672661 -3.60037 0
M  V30 5824 C 558.234 -1.4647 -4.25284 0
M  V30 5825 C 559.553 0.619877 -4.35713 0
M  V30 5826 H 556.672 -0.0395438 -0.735938 0
M  V30 5827 H 559.314 -0.781126 -1.73201 0
M  V30 5828 H 557.464 0.50871 -3.85155 0
M  V30 5829 H 559.136 -2.08785 -4.11347 0
M  V30 5830 H 557.379 -2.02502 -3.83634 0
M  V30 5831 H 558.05 -1.39069 -5.34195 0
M  V30 5832 H 560.526 0.130297 -4.15896 0
M  V30 5833 H 559.402 0.615224 -5.45441 0
M  V30 5834 H 559.663 1.68621 -4.0868 0
M  V30 5835 N 558.722 1.53707 -0.348139 0
M  V30 5836 C 559.672 2.2193 0.522592 0
M  V30 5837 C 560.656 1.20831 1.06248 0
M  V30 5838 O 561.848 1.46357 0.995415 0
M  V30 5839 C 558.977 2.99904 1.6707 0
M  V30 5840 C 558.063 4.08364 1.14454 0
M  V30 5841 N 558.454 5.04656 0.339958 0
M  V30 5842 C 556.752 4.22757 1.421 0
M  V30 5843 C 557.453 5.81675 0.0538806 0
M  V30 5844 N 556.429 5.39739 0.646776 0
M  V30 5845 H 560.231 2.93733 -0.099135 0
M  V30 5846 H 557.745 1.61656 -0.15524 0
M  V30 5847 H 559.742 3.47284 2.30651 0
M  V30 5848 H 558.402 2.29629 2.29566 0
M  V30 5849 H 559.413 5.17896 -0.0193552 0
M  V30 5850 H 556.09 3.63704 2.05002 0
M  V30 5851 H 557.48 6.69256 -0.595443 0
M  V30 5852 N 560.2 0.0768682 1.57412 0
M  V30 5853 C 561.425 -0.603404 1.98428 0
M  V30 5854 C 561.85 -1.62047 0.955108 0
M  V30 5855 O 561.208 -1.81129 -0.0786778 0
M  V30 5856 C 561.256 -1.24396 3.38464 0
M  V30 5857 O 560.36 -2.35982 3.3821 0
M  V30 5858 H 559.701 -0.154741 0.645718 0
M  V30 5859 H 562.231 0.152885 2.04028 0
M  V30 5860 H 562.241 -1.5896 3.7576 0
M  V30 5861 H 560.916 -0.498735 4.12899 0
M  V30 5862 H 559.493 -2.03173 3.1269 0
M  V30 5863 N 561.678 -1.56367 -0.196722 0
M  V30 5864 C 562.903 -1.84991 -0.937714 0
M  V30 5865 C 563.328 -0.660244 -1.76132 0
M  V30 5866 O 562.686 0.390967 -1.77034 0
M  V30 5867 C 562.734 -3.11828 -1.81096 0
M  V30 5868 O 561.838 -2.92266 -2.90955 0
M  V30 5869 H 561.179 -0.609193 -0.264159 0
M  V30 5870 H 563.709 -2.03595 -0.202529 0
M  V30 5871 H 563.719 -3.42579 -2.21594 0
M  V30 5872 H 562.394 -3.98037 -1.2058 0
M  V30 5873 H 560.971 -2.72809 -2.54224 0
M  V30 5874 N 563.156 0.464375 -1.50603 0
M  V30 5875 C 564.086 1.56944 -1.72889 0
M  V30 5876 C 565.067 1.59979 -0.577997 0
M  V30 5877 O 566.252 1.76138 -0.817855 0
M  V30 5878 C 563.382 2.95225 -1.8292 0
M  V30 5879 C 562.336 3.07056 -2.98162 0
M  V30 5880 C 561.662 4.47051 -2.93343 0
M  V30 5881 C 562.962 2.83648 -4.38567 0
M  V30 5882 H 564.656 1.38547 -2.65415 0
M  V30 5883 H 562.202 0.665082 -1.27721 0
M  V30 5884 H 564.155 3.72467 -1.97095 0
M  V30 5885 H 562.879 3.14793 -0.870209 0
M  V30 5886 H 561.538 2.32248 -2.83648 0
M  V30 5887 H 561.186 4.63547 -1.95276 0
M  V30 5888 H 560.886 4.55902 -3.70712 0
M  V30 5889 H 562.41 5.26304 -3.09575 0
M  V30 5890 H 563.824 3.50636 -4.53572 0
M  V30 5891 H 562.221 3.03937 -5.17438 0
M  V30 5892 H 563.291 1.79451 -4.50472 0
M  V30 5893 N 564.634 1.40294 0.718013 0
M  V30 5894 C 565.864 1.41544 1.50495 0
M  V30 5895 C 566.272 0.0127877 1.89196 0
M  V30 5896 O 565.615 -0.97305 1.55812 0
M  V30 5897 C 565.677 2.24021 2.81167 0
M  V30 5898 C 565.341 3.72463 2.64803 0
M  V30 5899 C 566.338 4.65154 2.32223 0
M  V30 5900 C 564.023 4.1625 2.81143 0
M  V30 5901 C 566.017 5.99618 2.16189 0
M  V30 5902 C 563.704 5.50784 2.64727 0
M  V30 5903 C 564.702 6.42283 2.32297 0
M  V30 5904 O 564.39 7.74337 2.16004 0
M  V30 5905 H 564.122 0.484819 0.471091 0
M  V30 5906 H 566.676 1.84948 0.893488 0
M  V30 5907 H 564.906 1.75393 3.44636 0
M  V30 5908 H 566.595 2.17243 3.42871 0
M  V30 5909 H 567.361 4.32622 2.19234 0
M  V30 5910 H 563.24 3.45352 3.05373 0
M  V30 5911 H 566.784 6.71 1.90799 0
M  V30 5912 H 562.681 5.82902 2.773 0
M  V30 5913 H 563.449 7.85244 2.30942 0
M  V30 5914 N 566.112 -0.949982 1.2575 0
M  V30 5915 C 567.389 -1.6718 1.01539 0
M  V30 5916 C 567.769 -2.06095 -0.456942 0
M  V30 5917 O 567.117 -1.77792 -1.43534 0
M  V30 5918 C 567.327 -2.8906 1.95564 0
M  V30 5919 C 568.675 -3.60909 2.23673 0
M  V30 5920 O 569.699 -2.9915 1.9336 0
M  V30 5921 O 568.558 -4.72127 2.75243 0
M  V30 5922 H 565.652 -0.731697 0.385419 0
M  V30 5923 H 568.198 -1.00249 1.36924 0
M  V30 5924 H 566.97 -2.57128 2.94959 0
M  V30 5925 H 566.593 -3.63719 1.60605 0
M  V30 5926 N 567.59 -1.07411 -1.15328 0
M  V30 5927 C 568.52 -0.716472 -2.22236 0
M  V30 5928 C 569.501 0.296373 -1.67498 0
M  V30 5929 O 570.686 0.168989 -1.93463 0
M  V30 5930 C 567.816 -0.114142 -3.47112 0
M  V30 5931 C 566.77 -1.05421 -4.14814 0
M  V30 5932 C 566.096 -0.314604 -5.33774 0
M  V30 5933 C 567.396 -2.38808 -4.64508 0
M  V30 5934 H 569.09 -1.61029 -2.52408 0
M  V30 5935 H 566.636 -0.775702 -1.21321 0
M  V30 5936 H 568.589 0.148001 -4.2114 0
M  V30 5937 H 567.313 0.814755 -3.16274 0
M  V30 5938 H 565.972 -1.30128 -3.42728 0
M  V30 5939 H 565.62 0.617772 -4.99192 0
M  V30 5940 H 565.32 -0.941209 -5.80013 0
M  V30 5941 H 566.844 -0.0602747 -6.1057 0
M  V30 5942 H 568.258 -2.18424 -5.3006 0
M  V30 5943 H 566.655 -2.97069 -5.21412 0
M  V30 5944 H 567.725 -3.01067 -3.80114 0
M  V30 5945 N 569.068 1.32177 -0.85831 0
M  V30 5946 C 570.293 2.01847 -0.476718 0
M  V30 5947 C 570.718 1.64065 0.920021 0
M  V30 5948 O 570.076 0.843189 1.60499 0
M  V30 5949 C 570.124 3.55097 -0.627578 0
M  V30 5950 O 569.228 4.11012 0.338086 0
M  V30 5951 H 568.569 0.635907 -0.191099 0
M  V30 5952 H 571.099 1.68641 -1.15851 0
M  V30 5953 H 571.109 4.04718 -0.516476 0
M  V30 5954 H 569.784 3.81938 -1.64609 0
M  V30 5955 H 568.361 3.72451 0.182917 0
M  V30 5956 N 570.547 0.616602 1.45037 0
M  V30 5957 C 571.787 0.118453 2.04056 0
M  V30 5958 C 572.151 -1.23104 1.47341 0
M  V30 5959 O 573.352 -1.82044 1.97771 0
M  V30 5960 C 571.623 0.0892842 3.57288 0
M  V30 5961 S 573.182 -0.346361 4.37431 0
M  V30 5962 H 570 0.0539728 0.708948 0
M  V30 5963 H 572.602 0.816731 1.77623 0
M  V30 5964 H 571.306 1.07481 3.96076 0
M  V30 5965 H 570.837 -0.630703 3.88311 0
M  V30 5966 H 572.852 -1.59389 4.69904 0
M  V30 5967 N 572.025 -1.5352 0.356285 0
M  V30 5968 C 573.274 -2.00298 -0.237373 0
M  V30 5969 C 573.587 -1.24784 -1.50627 0
M  V30 5970 O 574.793 -1.62103 -2.17795 0
M  V30 5971 C 573.249 -3.56771 -0.473545 0
M  V30 5972 C 572.857 -4.41154 0.780183 0
M  V30 5973 C 574.601 -4.1193 -1.02537 0
M  V30 5974 C 572.508 -5.89161 0.514108 0
M  V30 5975 H 571.438 -0.748307 -0.092478 0
M  V30 5976 H 574.089 -1.77283 0.473588 0
M  V30 5977 H 572.471 -3.75902 -1.24553 0
M  V30 5978 H 573.645 -4.33797 1.55425 0
M  V30 5979 H 571.96 -3.97052 1.25455 0
M  V30 5980 H 574.557 -5.20133 -1.2396 0
M  V30 5981 H 574.9 -3.65943 -1.98473 0
M  V30 5982 H 575.433 -3.96561 -0.313775 0
M  V30 5983 H 572.172 -6.39408 1.44355 0
M  V30 5984 H 571.692 -5.9939 -0.221632 0
M  V30 5985 H 573.371 -6.46857 0.136122 0
M  V30 5986 N 573.503 -0.0852151 -1.57369 0
M  V30 5987 C 574.78 0.622534 -1.85429 0
M  V30 5988 C 575.16 1.86962 -0.980229 0
M  V30 5989 O 574.508 2.28445 -0.0500219 0
M  V30 5990 C 574.718 0.947374 -3.35896 0
M  V30 5991 C 576.066 1.31509 -4.03721 0
M  V30 5992 O 577.09 1.03869 -3.40719 0
M  V30 5993 O 575.949 1.83231 -5.14868 0
M  V30 5994 H 573.043 0.310513 -0.766492 0
M  V30 5995 H 575.589 -0.117164 -1.69295 0
M  V30 5996 H 574.361 0.0622264 -3.91251 0
M  V30 5997 H 573.984 1.74338 -3.5734 0
M  V30 5998 N 574.981 1.5647 0.188427 0
M  V30 5999 C 576.209 1.85131 0.923803 0
M  V30 6000 C 576.624 0.668537 1.76567 0
M  V30 6001 O 575.981 -0.362662 1.7886 0
M  V30 6002 C 576.032 3.12661 1.81453 0
M  V30 6003 O 575.753 4.26378 1.00665 0
M  V30 6004 C 577.254 3.54548 2.66103 0
M  V30 6005 H 574.474 0.614624 0.269218 0
M  V30 6006 H 577.018 2.03581 0.193671 0
M  V30 6007 H 575.173 2.96088 2.49821 0
M  V30 6008 H 575.587 4.99041 1.61425 0
M  V30 6009 H 577.061 4.4673 3.24247 0
M  V30 6010 H 577.538 2.77853 3.40139 0
M  V30 6011 H 578.144 3.73674 2.03096 0
M  V30 6012 N 576.459 -0.456382 1.50847 0
M  V30 6013 C 577.699 -1.21704 1.64218 0
M  V30 6014 C 578.063 -1.88932 0.341859 0
M  V30 6015 O 579.264 -2.66497 0.351137 0
M  V30 6016 C 577.535 -2.22162 2.79962 0
M  V30 6017 S 579.094 -3.0697 3.13552 0
M  V30 6018 H 575.912 -0.412995 0.578754 0
M  V30 6019 H 578.514 -0.511637 1.88686 0
M  V30 6020 H 577.218 -1.71379 3.72904 0
M  V30 6021 H 576.749 -2.9731 2.57624 0
M  V30 6022 H 578.764 -4.23539 2.58513 0
M  V30 6023 N 577.937 -1.40673 -0.710563 0
M  V30 6024 C 578.847 -1.43663 -1.85467 0
M  V30 6025 C 579.863 -0.328721 -1.70867 0
M  V30 6026 O 581.039 -0.574098 -1.93044 0
M  V30 6027 C 578.104 -1.30226 -3.21313 0
M  V30 6028 C 577.165 -2.51204 -3.48131 0
M  V30 6029 C 576.398 -2.38398 -4.77495 0
M  V30 6030 O 576.621 -1.40048 -5.5294 0
M  V30 6031 O 575.555 -3.2787 -5.04762 0
M  V30 6032 H 579.381 -2.40156 -1.859 0
M  V30 6033 H 576.966 -1.22049 -0.861652 0
M  V30 6034 H 578.848 -1.2496 -4.02446 0
M  V30 6035 H 577.523 -0.368419 -3.21597 0
M  V30 6036 H 576.43 -2.62048 -2.66987 0
M  V30 6037 H 577.763 -3.43366 -3.52648 0
M  V30 6038 N 579.415 0.9433 -1.26252 0
M  V30 6039 C 580.362 2.0417 -1.07625 0
M  V30 6040 C 581.332 1.6609 0.0180738 0
M  V30 6041 O 582.517 1.90276 -0.141289 0
M  V30 6042 C 579.657 3.37653 -0.713043 0
M  V30 6043 C 578.77 3.88783 -1.8834 0
M  V30 6044 C 577.905 5.10642 -1.4635 0
M  V30 6045 C 576.944 5.54028 -2.60229 0
M  V30 6046 N 576.081 6.67092 -2.18936 0
M  V30 6047 H 580.921 2.19436 -2.01623 0
M  V30 6048 H 578.458 1.07519 -1.00389 0
M  V30 6049 H 580.416 4.14391 -0.483358 0
M  V30 6050 H 579.046 3.22241 0.18996 0
M  V30 6051 H 578.098 3.08464 -2.22608 0
M  V30 6052 H 579.41 4.16922 -2.73821 0
M  V30 6053 H 578.564 5.94832 -1.19414 0
M  V30 6054 H 577.303 4.84244 -0.579568 0
M  V30 6055 H 576.308 4.68396 -2.87898 0
M  V30 6056 H 577.533 5.82429 -3.49219 0
M  V30 6057 H 575.479 6.42381 -1.32974 0
M  V30 6058 H 575.396 6.94806 -2.97961 0
M  V30 6059 H 576.664 7.54662 -1.95206 0
M  V30 6060 N 580.893 1.08022 1.14757 0
M  V30 6061 C 581.841 0.701088 2.21783 0
M  V30 6062 C 582.835 -0.291311 1.66876 0
M  V30 6063 O 584.041 -0.154296 1.79337 0
M  V30 6064 H 580.416 0.208668 0.722469 0
M  V30 6065 H 582.387 1.61321 2.51034 0
M  V30 6066 C 581.136 0.122278 3.47485 0
M  V30 6067 H 580.459 0.877065 3.90061 0
M  V30 6068 H 581.899 -0.105248 4.23869 0
M  V30 6069 C 580.358 -1.13883 3.17068 0
M  V30 6070 O 580.888 -2.22429 3.34497 0
M  V30 6071 N 579.094 -1.04767 2.71058 0
M  V30 6072 H 578.641 -0.164302 2.57075 0
M  V30 6073 H 578.599 -1.89224 2.51081 0
M  V30 6074 N 582.371 -1.3172 0.865308 0
M  V30 6075 C 583.596 -2.01591 0.487415 0
M  V30 6076 C 584.021 -1.6455 -0.911307 0
M  V30 6077 O 583.379 -0.851689 -1.6005 0
M  V30 6078 C 583.427 -3.54759 0.646401 0
M  V30 6079 O 582.531 -4.11185 -0.316284 0
M  V30 6080 H 581.872 -0.634884 0.194468 0
M  V30 6081 H 584.402 -1.68024 1.16744 0
M  V30 6082 H 584.412 -4.04438 0.537932 0
M  V30 6083 H 583.087 -3.8106 1.66632 0
M  V30 6084 H 581.664 -3.72543 -0.163162 0
M  V30 6085 N 583.85 -0.624285 -1.44708 0
M  V30 6086 C 585.096 -0.126237 -2.02407 0
M  V30 6087 C 585.428 1.24618 -1.48943 0
M  V30 6088 O 584.704 1.82569 -0.670742 0
M  V30 6089 C 584.986 -0.105449 -3.59946 0
M  V30 6090 C 584.84 -1.50972 -4.23707 0
M  V30 6091 C 586.159 0.573629 -4.36346 0
M  V30 6092 H 583.278 -0.0473472 -0.735478 0
M  V30 6093 H 585.92 -0.799452 -1.72362 0
M  V30 6094 H 584.07 0.46783 -3.85673 0
M  V30 6095 H 585.742 -2.13136 -4.0911 0
M  V30 6096 H 583.985 -2.0656 -3.81465 0
M  V30 6097 H 584.656 -1.44727 -5.32689 0
M  V30 6098 H 587.132 0.0861787 -4.16011 0
M  V30 6099 H 586.008 0.557338 -5.46063 0
M  V30 6100 H 586.269 1.64276 -4.10446 0
M  V30 6101 N 585.328 1.53329 -0.364422 0
M  V30 6102 C 586.258 2.28627 0.474543 0
M  V30 6103 C 587.239 1.31009 1.08492 0
M  V30 6104 O 588.424 1.59878 1.10239 0
M  V30 6105 C 585.554 3.07465 1.61501 0
M  V30 6106 C 584.508 4.1276 1.13194 0
M  V30 6107 C 583.834 4.79674 2.36255 0
M  V30 6108 C 585.134 5.21847 0.217507 0
M  V30 6109 H 586.828 2.99005 -0.153656 0
M  V30 6110 H 584.374 1.43803 -0.0753406 0
M  V30 6111 H 586.327 3.58889 2.20855 0
M  V30 6112 H 585.051 2.34775 2.27042 0
M  V30 6113 H 583.71 3.62281 0.56109 0
M  V30 6114 H 583.358 4.03557 3.00251 0
M  V30 6115 H 583.058 5.50827 2.04606 0
M  V30 6116 H 584.582 5.33892 2.96297 0
M  V30 6117 H 585.996 5.6878 0.718493 0
M  V30 6118 H 584.393 6.00099 -0.00806408 0
M  V30 6119 H 585.463 4.7921 -0.740653 0
M  V30 6120 N 586.806 0.0935595 1.57322 0
M  V30 6121 C 587.716 -0.880192 2.17462 0
M  V30 6122 C 588.732 -1.31135 1.14366 0
M  V30 6123 O 589.908 -1.37958 1.46729 0
M  V30 6124 C 586.973 -2.12184 2.74188 0
M  V30 6125 C 586.034 -1.74503 3.92234 0
M  V30 6126 C 585.267 -2.92748 4.46245 0
M  V30 6127 O 585.49 -4.07427 3.99198 0
M  V30 6128 O 584.424 -2.71303 5.37288 0
M  V30 6129 H 588.25 -0.398516 3.01074 0
M  V30 6130 H 585.835 -0.130707 1.48827 0
M  V30 6131 H 587.717 -2.84953 3.10451 0
M  V30 6132 H 586.392 -2.59407 1.93623 0
M  V30 6133 H 585.299 -0.989186 3.60785 0
M  V30 6134 H 586.632 -1.32044 4.74157 0
M  V30 6135 N 588.284 -1.56567 -0.180126 0
M  V30 6136 C 589.53 -1.81761 -0.899497 0
M  V30 6137 C 589.863 -0.670015 -1.82276 0
M  V30 6138 O 589.138 0.328575 -1.91705 0
M  V30 6139 C 589.421 -3.17296 -1.7028 0
M  V30 6140 C 589.274 -4.4257 -0.803255 0
M  V30 6141 C 590.593 -3.49678 -2.67233 0
M  V30 6142 H 587.712 -0.661192 -0.325567 0
M  V30 6143 H 590.354 -1.89272 -0.16612 0
M  V30 6144 H 588.504 -3.11023 -2.32802 0
M  V30 6145 H 590.176 -4.60902 -0.191585 0
M  V30 6146 H 588.419 -4.33658 -0.110796 0
M  V30 6147 H 589.09 -5.33935 -1.40064 0
M  V30 6148 H 591.566 -3.56347 -2.14839 0
M  V30 6149 H 590.442 -4.45605 -3.20511 0
M  V30 6150 H 590.703 -2.73932 -3.47007 0
M  V30 6151 N 589.762 0.448376 -1.51087 0
M  V30 6152 C 591.011 1.19561 -1.62444 0
M  V30 6153 C 591.324 1.92602 -0.341151 0
M  V30 6154 O 592.53 2.69439 -0.333936 0
M  V30 6155 C 590.986 2.17373 -2.8684 0
M  V30 6156 C 590.594 1.5003 -4.22131 0
M  V30 6157 C 592.338 2.92597 -3.0755 0
M  V30 6158 C 590.245 2.46262 -5.37689 0
M  V30 6159 H 589.175 0.449975 -0.605011 0
M  V30 6160 H 591.826 0.463735 -1.77544 0
M  V30 6161 H 590.208 2.93948 -2.65349 0
M  V30 6162 H 591.382 0.790886 -4.53962 0
M  V30 6163 H 589.697 0.870011 -4.0721 0
M  V30 6164 H 592.294 3.64663 -3.91056 0
M  V30 6165 H 592.637 3.53306 -2.20183 0
M  V30 6166 H 593.17 2.23131 -3.29329 0
M  V30 6167 H 589.909 1.90258 -6.27281 0
M  V30 6168 H 589.429 3.15289 -5.10248 0
M  V30 6169 H 591.108 3.07623 -5.6919 0
M  V30 6170 N 591.24 1.41047 0.703093 0
M  V30 6171 C 592.203 1.42036 1.79884 0
M  V30 6172 C 593.203 0.312153 1.57741 0
M  V30 6173 O 594.393 0.571672 1.64553 0
M  V30 6174 C 591.525 1.22437 3.18154 0
M  V30 6175 H 592.718 2.39572 1.80403 0
M  V30 6176 H 590.271 1.27079 0.909977 0
M  V30 6177 H 591.006 0.257112 3.23279 0
M  V30 6178 H 590.791 2.02723 3.35627 0
M  V30 6179 H 592.281 1.25946 3.98155 0
M  V30 6180 N 592.718 -0.936591 1.26751 0
M  V30 6181 C 593.948 -1.71509 1.15188 0
M  V30 6182 C 594.356 -1.86885 -0.295037 0
M  V30 6183 O 593.699 -1.37915 -1.21347 0
M  V30 6184 C 593.761 -3.13853 1.75318 0
M  V30 6185 C 593.425 -3.21845 3.24445 0
M  V30 6186 C 594.422 -3.04771 4.21201 0
M  V30 6187 C 592.107 -3.45088 3.64992 0
M  V30 6188 C 594.101 -3.10816 5.56482 0
M  V30 6189 C 591.788 -3.50767 5.00405 0
M  V30 6190 C 592.786 -3.33648 5.9596 0
M  V30 6191 O 592.474 -3.39045 7.28906 0
M  V30 6192 H 592.206 -0.543658 0.401761 0
M  V30 6193 H 594.76 -1.18234 1.67958 0
M  V30 6194 H 592.99 -3.6857 1.17016 0
M  V30 6195 H 594.679 -3.73634 1.58596 0
M  V30 6196 H 595.445 -2.86665 3.91214 0
M  V30 6197 H 591.324 -3.57467 2.91098 0
M  V30 6198 H 594.868 -2.97372 6.31043 0
M  V30 6199 H 590.765 -3.68396 5.30052 0
M  V30 6200 H 591.533 -3.55558 7.37238 0
M  V30 6201 N 594.196 -1.08629 -1.14182 0
M  V30 6202 C 595.421 -0.83902 -1.89671 0
M  V30 6203 C 595.846 0.603332 -1.78161 0
M  V30 6204 O 595.204 1.42301 -1.12339 0
M  V30 6205 C 595.252 -1.26854 -3.37551 0
M  V30 6206 O 594.356 -0.42188 -4.10236 0
M  V30 6207 H 593.697 -0.304545 -0.590041 0
M  V30 6208 H 596.227 -1.4483 -1.44518 0
M  V30 6209 H 596.237 -1.25038 -3.88368 0
M  V30 6210 H 594.912 -2.31901 -3.45246 0
M  V30 6211 H 593.489 -0.503654 -3.69483 0
M  V30 6212 N 595.674 1.31259 -0.872281 0
M  V30 6213 C 596.899 2.0133 -0.498099 0
M  V30 6214 C 597.324 1.65031 0.902568 0
M  V30 6215 O 596.682 0.860164 1.59596 0
M  V30 6216 C 596.73 3.54411 -0.665205 0
M  V30 6217 O 595.834 4.11347 0.294473 0
M  V30 6218 H 595.175 0.633844 -0.197832 0
M  V30 6219 H 597.705 1.67402 -1.17633 0
M  V30 6220 H 597.715 4.04147 -0.559373 0
M  V30 6221 H 596.39 3.80171 -1.68651 0
M  V30 6222 H 594.967 3.72624 0.143403 0
M  V30 6223 N 597.152 0.631951 1.44375 0
M  V30 6224 C 598.377 0.142146 2.06912 0
M  V30 6225 C 598.802 -1.17456 1.4692 0
M  V30 6226 O 598.16 -1.72074 0.570975 0
M  V30 6227 C 598.208 0.0417952 3.60576 0
M  V30 6228 O 597.312 -1.00194 4.00044 0
M  V30 6229 H 596.653 0.0851491 0.658518 0
M  V30 6230 H 599.183 0.868863 1.85235 0
M  V30 6231 H 599.193 -0.148517 4.0773 0
M  V30 6232 H 597.868 1.0031 4.03622 0
M  V30 6233 H 596.445 -0.786131 3.64519 0
M  V30 6234 N 598.631 -1.53133 0.372548 0
M  V30 6235 C 599.541 -2.29671 -0.478379 0
M  V30 6236 C 600.557 -1.35913 -1.08644 0
M  V30 6237 O 601.733 -1.68975 -1.09588 0
M  V30 6238 C 598.798 -3.07625 -1.599 0
M  V30 6239 C 597.859 -4.17061 -1.01776 0
M  V30 6240 C 597.092 -4.91289 -2.08497 0
M  V30 6241 O 597.315 -4.65442 -3.29727 0
M  V30 6242 O 596.249 -5.7705 -1.71164 0
M  V30 6243 H 600.075 -3.03355 0.144649 0
M  V30 6244 H 597.66 -1.48773 0.136729 0
M  V30 6245 H 599.542 -3.56281 -2.25038 0
M  V30 6246 H 598.217 -2.3677 -2.2073 0
M  V30 6247 H 597.124 -3.72641 -0.330098 0
M  V30 6248 H 598.457 -4.90102 -0.453915 0
M  V30 6249 N 600.109 -0.101901 -1.5727 0
M  V30 6250 C 601.337 0.568392 -1.98939 0
M  V30 6251 C 601.752 1.61301 -0.981194 0
M  V30 6252 O 601.109 1.82478 0.0282869 0
M  V30 6253 C 601.16 1.20997 -3.40649 0
M  V30 6254 O 600.881 0.207129 -4.3761 0
M  V30 6255 C 602.382 1.96523 -3.97358 0
M  V30 6256 H 599.602 0.15186 -0.65359 0
M  V30 6257 H 602.146 -0.183198 -2.03678 0
M  V30 6258 H 600.301 1.91245 -3.36904 0
M  V30 6259 H 600.715 0.671071 -5.20189 0
M  V30 6260 H 602.189 2.36764 -4.98645 0
M  V30 6261 H 602.666 2.83376 -3.35552 0
M  V30 6262 H 603.272 1.31076 -4.04598 0
M  V30 6263 N 601.587 1.56661 0.17182 0
M  V30 6264 C 602.998 1.71652 0.734329 0
M  V30 6265 C 603.349 0.712335 1.82812 0
M  V30 6266 O 602.474 -0.126401 2.16031 0
M  V30 6267 C 603.069 3.11226 1.3388 0
M  V30 6268 C 601.628 3.27904 1.84813 0
M  V30 6269 C 600.775 2.67603 0.726917 0
M  V30 6270 H 603.726 1.5861 -0.0535665 0
M  V30 6271 H 603.747 3.09849 2.20849 0
M  V30 6272 H 603.259 3.8429 0.54249 0
M  V30 6273 H 601.36 2.59796 2.6709 0
M  V30 6274 H 601.473 4.35637 1.99392 0
M  V30 6275 H 599.837 2.274 1.14723 0
M  V30 6276 H 600.62 3.43252 -0.0575334 0
M  V30 6277 N 603.065 -0.440357 1.51323 0
M  V30 6278 C 604.013 -1.55492 1.72988 0
M  V30 6279 C 605.007 -1.58564 0.596138 0
M  V30 6280 O 606.213 -1.62345 0.777443 0
M  V30 6281 H 602.588 -0.516532 0.546533 0
M  V30 6282 H 604.559 -1.34392 2.66423 0
M  V30 6283 C 603.308 -2.93176 1.86931 0
M  V30 6284 H 602.631 -2.91543 2.73574 0
M  V30 6285 H 604.071 -3.70537 2.06103 0
M  V30 6286 C 602.53 -3.30988 0.628365 0
M  V30 6287 O 603.06 -4.01106 -0.218367 0
M  V30 6288 N 601.266 -2.86719 0.473339 0
M  V30 6289 H 600.813 -2.2983 1.16345 0
M  V30 6290 H 600.771 -3.12381 -0.355727 0
M  V30 6291 N 604.543 -1.41418 -0.695603 0
M  V30 6292 C 605.959 -1.23887 -1.00619 0
M  V30 6293 C 606.159 -0.128206 -2.01092 0
M  V30 6294 O 605.215 0.507408 -2.47349 0
M  V30 6295 C 606.528 -2.58816 -1.53083 0
M  V30 6296 C 608.076 -2.65998 -1.64967 0
M  V30 6297 C 608.551 -4.01244 -2.20833 0
M  V30 6298 N 610.042 -4.0309 -2.28194 0
M  V30 6299 C 610.777 -5.04539 -2.72448 0
M  V30 6300 N 610.273 -6.16378 -3.16306 0
M  V30 6301 N 612.066 -4.91901 -2.72011 0
M  V30 6302 H 604.217 -2.12379 -0.0300061 0
M  V30 6303 H 606.48 -0.944958 -0.0758797 0
M  V30 6304 H 606.186 -3.40842 -0.867147 0
M  V30 6305 H 606.06 -2.81299 -2.51298 0
M  V30 6306 H 608.447 -1.84331 -2.30448 0
M  V30 6307 H 608.528 -2.47325 -0.652982 0
M  V30 6308 H 608.172 -4.83359 -1.55968 0
M  V30 6309 H 608.102 -4.17257 -3.21254 0
M  V30 6310 H 610.593 -3.22341 -1.97242 0
M  V30 6311 H 610.906 -6.89658 -3.487 0
M  V30 6312 H 609.251 -6.19914 -3.14215 0
M  V30 6313 H 612.442 -4.03613 -2.37095 0
M  V30 6314 H 612.615 -5.71102 -3.06181 0
M  V30 6315 N 606.021 0.929856 -1.27246 0
M  V30 6316 C 606.971 2.01629 -1.06442 0
M  V30 6317 C 607.955 1.60899 0.00687842 0
M  V30 6318 O 609.147 1.75733 -0.211407 0
M  V30 6319 C 606.276 3.35849 -0.711361 0
M  V30 6320 C 605.362 3.8303 -1.82069 0
M  V30 6321 N 605.753 4.02743 -3.05993 0
M  V30 6322 C 604.051 4.12046 -1.70687 0
M  V30 6323 C 604.752 4.42001 -3.78167 0
M  V30 6324 N 603.728 4.4935 -3.05918 0
M  V30 6325 H 607.53 2.14898 -2.00489 0
M  V30 6326 H 605.044 1.11654 -1.17929 0
M  V30 6327 H 607.041 4.13343 -0.543442 0
M  V30 6328 H 605.701 3.23944 0.221517 0
M  V30 6329 H 606.712 3.89112 -3.41778 0
M  V30 6330 H 603.389 4.08866 -0.844681 0
M  V30 6331 H 604.779 4.6535 -4.84664 0
M  V30 6332 N 607.499 1.09233 1.13605 0
M  V30 6333 C 608.776 0.739633 1.81077 0
M  V30 6334 C 609.156 -0.775595 1.96336 0
M  V30 6335 O 608.504 -1.69726 1.52988 0
M  V30 6336 C 608.714 1.47636 3.16235 0
M  V30 6337 C 610.062 1.64087 3.91613 0
M  V30 6338 O 611.086 1.43871 3.25852 0
M  V30 6339 O 609.945 1.97511 5.0956 0
M  V30 6340 H 607.039 0.265464 0.783236 0
M  V30 6341 H 609.585 1.19441 1.20549 0
M  V30 6342 H 608.357 2.50818 3.00344 0
M  V30 6343 H 607.98 1.01362 3.84462 0
M  V30 6344 N 608.977 -1.30795 0.87923 0
M  V30 6345 C 609.91 -2.26396 0.286404 0
M  V30 6346 C 610.888 -1.51528 -0.589748 0
M  V30 6347 O 612.072 -1.80566 -0.541119 0
M  V30 6348 C 609.199 -3.33458 -0.593581 0
M  V30 6349 C 608.245 -4.2597 0.21247 0
M  V30 6350 S 609.078 -5.11132 1.59702 0
M  V30 6351 C 610.234 -6.21705 0.723408 0
M  V30 6352 H 610.467 -2.7633 1.09677 0
M  V30 6353 H 608 -1.38703 0.678305 0
M  V30 6354 H 609.958 -3.9561 -1.09557 0
M  V30 6355 H 608.619 -2.82259 -1.37799 0
M  V30 6356 H 607.812 -5.01907 -0.458822 0
M  V30 6357 H 607.414 -3.68363 0.646883 0
M  V30 6358 H 609.706 -6.77472 -0.0620739 0
M  V30 6359 H 610.649 -6.93007 1.4542 0
M  V30 6360 H 611.057 -5.63771 0.286855 0
M  V30 6361 N 610.455 -0.639598 -1.44038 0
M  V30 6362 C 611.385 0.0469443 -2.33453 0
M  V30 6363 C 612.366 0.82609 -1.48694 0
M  V30 6364 O 613.551 0.790285 -1.77393 0
M  V30 6365 C 610.681 1.02338 -3.3188 0
M  V30 6366 C 609.635 0.355284 -4.26523 0
M  V30 6367 C 608.961 1.44221 -5.14883 0
M  V30 6368 C 610.261 -0.743798 -5.16977 0
M  V30 6369 H 611.955 -0.699735 -2.91108 0
M  V30 6370 H 609.501 -0.337946 -1.39978 0
M  V30 6371 H 611.454 1.51247 -3.93322 0
M  V30 6372 H 610.178 1.80105 -2.72451 0
M  V30 6373 H 608.837 -0.113239 -3.66425 0
M  V30 6374 H 608.485 2.21097 -4.51802 0
M  V30 6375 H 608.185 1.00052 -5.79019 0
M  V30 6376 H 609.709 1.93295 -5.79197 0
M  V30 6377 H 611.123 -0.337444 -5.72306 0
M  V30 6378 H 609.52 -1.10914 -5.89761 0
M  V30 6379 H 610.59 -1.60745 -4.57481 0
M  V30 6380 N 611.933 1.52934 -0.380664 0
M  V30 6381 C 612.863 2.29118 0.450268 0
M  V30 6382 C 613.844 1.32153 1.07096 0
M  V30 6383 O 615.029 1.61038 1.08537 0
M  V30 6384 C 612.159 3.09161 1.58231 0
M  V30 6385 C 611.113 4.13938 1.0881 0
M  V30 6386 C 610.439 4.82153 2.31155 0
M  V30 6387 C 611.739 5.22048 0.162146 0
M  V30 6388 H 613.433 2.98826 -0.185361 0
M  V30 6389 H 610.979 1.43715 -0.0905886 0
M  V30 6390 H 612.932 3.61211 2.17036 0
M  V30 6391 H 611.656 2.3717 2.2454 0
M  V30 6392 H 610.315 3.62855 0.522633 0
M  V30 6393 H 609.963 4.06719 2.95953 0
M  V30 6394 H 609.663 5.52966 1.98752 0
M  V30 6395 H 611.187 5.37004 2.90618 0
M  V30 6396 H 612.601 5.6951 0.658126 0
M  V30 6397 H 610.998 6.00057 -0.0717122 0
M  V30 6398 H 612.068 4.78398 -0.791438 0
M  V30 6399 N 613.412 0.11024 1.57214 0
M  V30 6400 C 614.658 -0.550684 1.9518 0
M  V30 6401 C 614.991 -1.66885 0.993122 0
M  V30 6402 O 614.266 -1.94479 0.0287907 0
M  V30 6403 C 614.549 -1.09163 3.43155 0
M  V30 6404 C 614.402 0.0225198 4.49794 0
M  V30 6405 C 615.721 -1.98527 3.92778 0
M  V30 6406 H 612.84 -0.198706 0.709708 0
M  V30 6407 H 615.482 0.184024 1.89107 0
M  V30 6408 H 613.632 -1.71775 3.48462 0
M  V30 6409 H 615.304 0.657443 4.56591 0
M  V30 6410 H 613.547 0.686868 4.28328 0
M  V30 6411 H 614.218 -0.39706 5.5057 0
M  V30 6412 H 616.694 -1.458 3.8972 0
M  V30 6413 H 615.57 -2.33298 4.96853 0
M  V30 6414 H 615.831 -2.90846 3.32958 0
M  V30 6415 N 614.89 -1.56749 -0.16351 0
M  V30 6416 C 615.8 -2.00255 -1.2221 0
M  V30 6417 C 616.816 -0.915194 -1.47987 0
M  V30 6418 O 617.992 -1.22342 -1.59982 0
M  V30 6419 C 615.057 -2.36035 -2.53946 0
M  V30 6420 C 614.118 -3.58637 -2.35962 0
M  V30 6421 C 613.351 -3.92701 -3.61416 0
M  V30 6422 O 613.574 -3.27632 -4.66919 0
M  V30 6423 O 612.508 -4.86019 -3.55062 0
M  V30 6424 H 616.334 -2.90586 -0.882794 0
M  V30 6425 H 613.919 -1.44721 -0.370978 0
M  V30 6426 H 615.801 -2.59982 -3.31643 0
M  V30 6427 H 614.476 -1.48863 -2.8744 0
M  V30 6428 H 613.383 -3.39898 -1.5627 0
M  V30 6429 H 614.716 -4.46374 -2.0739 0
M  V30 6430 N 616.368 0.432326 -1.51554 0
M  V30 6431 C 617.779 1.01202 -1.56892 0
M  V30 6432 C 618.13 1.92175 -0.395394 0
M  V30 6433 O 617.255 2.10844 0.487198 0
M  V30 6434 C 617.85 1.84217 -2.8434 0
M  V30 6435 C 616.409 2.37228 -2.92233 0
M  V30 6436 C 615.556 1.16576 -2.51606 0
M  V30 6437 H 618.507 0.213407 -1.57259 0
M  V30 6438 H 618.528 2.69721 -2.68385 0
M  V30 6439 H 618.04 1.17979 -3.69733 0
M  V30 6440 H 616.141 3.06905 -2.11282 0
M  V30 6441 H 616.254 2.69682 -3.95991 0
M  V30 6442 H 614.618 1.51263 -2.04919 0
M  V30 6443 H 615.401 0.519404 -3.39348 0
M  V30 6444 N 617.846 1.41785 0.688094 0
M  V30 6445 C 618.776 1.47 1.8142 0
M  V30 6446 C 619.757 0.327881 1.6691 0
M  V30 6447 O 620.942 0.540362 1.86531 0
M  V30 6448 C 618.072 1.35876 3.19617 0
M  V30 6449 C 617.026 2.47976 3.48844 0
M  V30 6450 C 616.352 2.21915 4.86475 0
M  V30 6451 C 617.652 3.90309 3.47068 0
M  V30 6452 H 619.346 2.41247 1.77314 0
M  V30 6453 H 616.892 1.16116 0.851651 0
M  V30 6454 H 618.845 1.38134 3.98117 0
M  V30 6455 H 617.569 0.38116 3.24368 0
M  V30 6456 H 616.228 2.45013 2.72698 0
M  V30 6457 H 615.876 1.2248 4.8786 0
M  V30 6458 H 615.576 2.97037 5.06994 0
M  V30 6459 H 617.1 2.25901 5.67275 0
M  V30 6460 H 618.514 3.94947 4.1556 0
M  V30 6461 H 616.911 4.65175 3.7912 0
M  V30 6462 H 617.981 4.17927 2.45896 0
M  V30 6463 N 619.324 -0.923095 1.27737 0
M  V30 6464 C 620.272 -2.04567 1.10703 0
M  V30 6465 C 621.266 -1.69375 0.0288445 0
M  V30 6466 O 622.472 -1.79027 0.186913 0
M  V30 6467 H 618.847 -0.670109 0.34126 0
M  V30 6468 H 620.818 -2.1608 2.05796 0
M  V30 6469 C 619.567 -3.38934 0.775837 0
M  V30 6470 H 618.89 -3.66501 1.59741 0
M  V30 6471 H 620.33 -4.18239 0.696548 0
M  V30 6472 C 618.789 -3.32863 -0.520012 0
M  V30 6473 O 619.319 -3.70462 -1.55308 0
M  V30 6474 N 617.525 -2.85958 -0.51732 0
M  V30 6475 H 617.072 -2.55557 0.32379 0
M  V30 6476 H 617.03 -2.82279 -1.38441 0
M  V30 6477 N 620.802 -1.09834 -1.13024 0
M  V30 6478 C 622.218 -0.828875 -1.36388 0
M  V30 6479 C 622.418 0.554756 -1.93713 0
M  V30 6480 O 621.474 1.30882 -2.15931 0
M  V30 6481 C 622.787 -1.92352 -2.3113 0
M  V30 6482 C 624.335 -1.95124 -2.44735 0
M  V30 6483 C 624.81 -3.03745 -3.42787 0
M  V30 6484 N 626.301 -3.03012 -3.5034 0
M  V30 6485 C 627.036 -3.83699 -4.26101 0
M  V30 6486 N 626.532 -4.74306 -5.04981 0
M  V30 6487 N 628.325 -3.71942 -4.21445 0
M  V30 6488 H 620.476 -1.99029 -0.74169 0
M  V30 6489 H 622.739 -0.864557 -0.388903 0
M  V30 6490 H 622.445 -2.91906 -1.96172 0
M  V30 6491 H 622.319 -1.80536 -3.3119 0
M  V30 6492 H 624.706 -0.962069 -2.78977 0
M  V30 6493 H 624.787 -2.11018 -1.44586 0
M  V30 6494 H 624.431 -4.02878 -3.09276 0
M  V30 6495 H 624.361 -2.85094 -4.42752 0
M  V30 6496 H 626.852 -2.37352 -2.94062 0
M  V30 6497 H 627.165 -5.32446 -5.60108 0
M  V30 6498 H 625.51 -4.78339 -5.04199 0
M  V30 6499 H 628.701 -3.00513 -3.589 0
M  V30 6500 H 628.874 -4.35062 -4.80235 0
M  V30 6501 N 622.28 1.30327 -0.886154 0
M  V30 6502 C 623.21 2.30549 -0.370028 0
M  V30 6503 C 624.191 1.61039 0.547751 0
M  V30 6504 O 625.376 1.8864 0.461353 0
M  V30 6505 C 622.506 3.44808 0.415275 0
M  V30 6506 C 621.46 4.26024 -0.41085 0
M  V30 6507 C 620.786 5.32347 0.501128 0
M  V30 6508 C 622.086 4.95433 -1.65359 0
M  V30 6509 H 623.78 2.73969 -1.20754 0
M  V30 6510 H 621.326 1.3171 -0.582097 0
M  V30 6511 H 623.279 4.13986 0.78699 0
M  V30 6512 H 622.003 3.00197 1.28644 0
M  V30 6513 H 620.662 3.58535 -0.764719 0
M  V30 6514 H 620.31 4.83982 1.37004 0
M  V30 6515 H 620.01 5.87581 -0.0478356 0
M  V30 6516 H 621.534 6.0438 0.869333 0
M  V30 6517 H 622.948 5.5712 -1.35239 0
M  V30 6518 H 621.345 5.60537 -2.14284 0
M  V30 6519 H 622.415 4.21493 -2.39733 0
M  V30 6520 N 623.758 0.647228 1.43697 0
M  V30 6521 C 624.688 -0.0345631 2.33474 0
M  V30 6522 C 625.669 -0.818193 1.4913 0
M  V30 6523 O 626.854 -0.780867 1.77809 0
M  V30 6524 C 623.984 -1.00576 3.32418 0
M  V30 6525 C 622.938 -0.33266 4.26705 0
M  V30 6526 C 622.264 -1.41489 5.1564 0
M  V30 6527 C 623.564 0.771204 5.16575 0
M  V30 6528 H 625.258 0.715163 2.90733 0
M  V30 6529 H 622.804 0.345364 1.39797 0
M  V30 6530 H 624.757 -1.49159 3.94119 0
M  V30 6531 H 623.481 -1.78657 2.73403 0
M  V30 6532 H 622.14 0.13267 3.6636 0
M  V30 6533 H 621.788 -2.18698 4.52968 0
M  V30 6534 H 621.488 -0.969799 5.79542 0
M  V30 6535 H 623.012 -1.9022 5.80214 0
M  V30 6536 H 624.426 0.36779 5.72119 0
M  V30 6537 H 622.823 1.1404 5.89165 0
M  V30 6538 H 623.893 1.63169 4.56622 0
M  V30 6539 N 625.236 -1.5273 0.388769 0
M  V30 6540 C 626.168 -2.24081 -0.481704 0
M  V30 6541 C 627.181 -1.26307 -1.02715 0
M  V30 6542 O 628.37 -1.52386 -0.929565 0
M  V30 6543 C 625.47 -2.94315 -1.68024 0
M  V30 6544 C 624.643 -4.18791 -1.26226 0
M  V30 6545 C 623.702 -4.72028 -2.32542 0
M  V30 6546 O 622.728 -5.35129 -1.93972 0
M  V30 6547 N 623.93 -4.51838 -3.64448 0
M  V30 6548 H 626.695 -2.9942 0.129591 0
M  V30 6549 H 624.256 -1.60465 0.2151 0
M  V30 6550 H 626.248 -3.26831 -2.38671 0
M  V30 6551 H 624.818 -2.22287 -2.19789 0
M  V30 6552 H 624.038 -3.92318 -0.384703 0
M  V30 6553 H 625.326 -4.99668 -0.959647 0
M  V30 6554 H 624.724 -4.01468 -3.98547 0
M  V30 6555 H 623.281 -4.88845 -4.31131 0
M  V30 6556 N 626.714 -0.118576 -1.57153 0
M  V30 6557 C 627.991 0.583062 -1.86708 0
M  V30 6558 C 628.371 1.84841 -1.01967 0
M  V30 6559 O 627.719 2.28288 -0.0984673 0
M  V30 6560 C 627.929 0.875912 -3.3783 0
M  V30 6561 C 629.277 1.22916 -4.0642 0
M  V30 6562 O 630.301 0.966188 -3.42846 0
M  V30 6563 O 629.16 1.72269 -5.18638 0
M  V30 6564 H 626.254 0.294185 -0.772906 0
M  V30 6565 H 628.8 -0.153048 -1.69008 0
M  V30 6566 H 627.572 -0.0207776 -3.91294 0
M  V30 6567 H 627.195 1.66719 -3.60958 0
M  V30 6568 N 628.193 1.56834 0.155195 0
M  V30 6569 C 629.14 1.97646 1.19184 0
M  V30 6570 C 630.11 0.842788 1.4313 0
M  V30 6571 O 631.295 1.1042 1.55602 0
M  V30 6572 C 628.435 2.35527 2.52232 0
M  V30 6573 C 627.548 3.62147 2.35529 0
M  V30 6574 C 626.683 3.89167 3.61555 0
M  V30 6575 C 625.722 5.09084 3.39853 0
M  V30 6576 N 624.859 5.32156 4.5799 0
M  V30 6577 H 629.699 2.8601 0.836802 0
M  V30 6578 H 627.236 1.41507 0.401758 0
M  V30 6579 H 629.194 2.55516 3.29799 0
M  V30 6580 H 627.824 1.50253 2.85699 0
M  V30 6581 H 626.876 3.4998 1.49057 0
M  V30 6582 H 628.188 4.49871 2.15448 0
M  V30 6583 H 627.342 4.09611 4.47553 0
M  V30 6584 H 626.081 2.9985 3.84632 0
M  V30 6585 H 625.086 4.88522 2.52243 0
M  V30 6586 H 626.311 5.99947 3.18183 0
M  V30 6587 H 624.257 4.45791 4.81255 0
M  V30 6588 H 624.174 6.14133 4.40882 0
M  V30 6589 H 625.442 5.57091 5.45225 0
M  V30 6590 N 629.671 -0.424282 1.51781 0
M  V30 6591 C 630.917 -1.17117 1.66298 0
M  V30 6592 C 631.272 -1.88595 0.380767 0
M  V30 6593 O 630.565 -1.81151 -0.624094 0
M  V30 6594 C 630.759 -2.20418 2.81337 0
M  V30 6595 C 630.588 -1.59081 4.20622 0
M  V30 6596 C 629.358 -1.37007 4.86371 0
M  V30 6597 C 631.556 -1.05992 5.0326 0
M  V30 6598 N 629.538 -0.714049 6.09733 0
M  V30 6599 C 630.909 -0.529933 6.17731 0
M  V30 6600 C 632.964 -0.952927 4.88696 0
M  V30 6601 C 631.667 0.0965457 7.19235 0
M  V30 6602 C 633.693 -0.340325 5.9042 0
M  V30 6603 C 633.055 0.179057 7.04172 0
M  V30 6604 H 629.154 -0.41577 0.662314 0
M  V30 6605 H 631.738 -0.46579 1.89046 0
M  V30 6606 H 629.909 -2.8833 2.60231 0
M  V30 6607 H 631.641 -2.8736 2.84968 0
M  V30 6608 H 628.396 -1.63543 4.44467 0
M  V30 6609 H 628.82 -0.403101 6.75799 0
M  V30 6610 H 633.462 -1.34033 4.00993 0
M  V30 6611 H 631.18 0.496044 8.06576 0
M  V30 6612 H 634.766 -0.259266 5.81222 0
M  V30 6613 H 633.646 0.645626 7.81538 0
M  V30 6614 N 631.149 -1.42148 -0.680565 0
M  V30 6615 C 632.426 -1.32795 -1.43614 0
M  V30 6616 C 632.806 0.037415 -2.11067 0
M  V30 6617 O 632.154 1.05258 -2.02813 0
M  V30 6618 C 632.364 -2.49206 -2.44331 0
M  V30 6619 C 633.712 -2.91059 -3.09144 0
M  V30 6620 O 634.736 -2.49054 -2.54657 0
M  V30 6621 O 633.595 -3.63741 -4.07866 0
M  V30 6622 H 630.689 -0.523397 -0.640301 0
M  V30 6623 H 633.235 -1.54144 -0.709775 0
M  V30 6624 H 632.007 -3.40252 -1.93247 0
M  V30 6625 H 631.63 -2.29813 -3.24456 0
M  V30 6626 N 632.627 0.916307 -1.28225 0
M  V30 6627 C 634.043 1.19425 -1.05876 0
M  V30 6628 C 634.243 2.005 0.2005 0
M  V30 6629 O 633.299 2.35806 0.902873 0
M  V30 6630 C 634.612 1.93133 -2.30478 0
M  V30 6631 C 636.16 2.06026 -2.35632 0
M  V30 6632 C 636.635 2.83141 -3.59994 0
M  V30 6633 N 638.126 2.90704 -3.60618 0
M  V30 6634 C 638.861 3.50865 -4.53521 0
M  V30 6635 N 638.357 4.12327 -5.56739 0
M  V30 6636 N 640.15 3.48379 -4.41122 0
M  V30 6637 H 632.301 0.37496 -2.09064 0
M  V30 6638 H 634.564 0.228531 -0.920042 0
M  V30 6639 H 634.27 1.40985 -3.22205 0
M  V30 6640 H 634.144 2.93696 -2.36691 0
M  V30 6641 H 636.531 2.57355 -1.44404 0
M  V30 6642 H 636.612 1.04647 -2.33415 0
M  V30 6643 H 636.256 2.32492 -4.51564 0
M  V30 6644 H 636.186 3.84829 -3.59464 0
M  V30 6645 H 638.677 2.47034 -2.85977 0
M  V30 6646 H 638.99 4.56205 -6.23776 0
M  V30 6647 H 637.335 4.10839 -5.60568 0
M  V30 6648 H 640.526 2.99572 -3.59686 0
M  V30 6649 H 640.699 3.94974 -5.13712 0
M  V30 6650 N 634.105 1.10431 1.1244 0
M  V30 6651 C 635.352 0.846717 1.83948 0
M  V30 6652 C 635.68 -0.627709 1.84093 0
M  V30 6653 O 634.935 -1.47876 1.28184 0
M  V30 6654 C 635.234 1.34022 3.3132 0
M  V30 6655 C 634.9 2.82606 3.51347 0
M  V30 6656 C 633.562 3.23182 3.56521 0
M  V30 6657 C 635.914 3.78356 3.58464 0
M  V30 6658 C 633.242 4.58258 3.66356 0
M  V30 6659 C 635.594 5.13234 3.69829 0
M  V30 6660 C 634.258 5.53384 3.73259 0
M  V30 6661 H 633.528 0.309836 0.673114 0
M  V30 6662 H 636.175 1.38091 1.32677 0
M  V30 6663 H 634.48 0.726047 3.85014 0
M  V30 6664 H 636.177 1.11739 3.85118 0
M  V30 6665 H 632.767 2.50212 3.47983 0
M  V30 6666 H 636.951 3.48115 3.53737 0
M  V30 6667 H 632.207 4.88787 3.67284 0
M  V30 6668 H 636.381 5.87272 3.74279 0
M  V30 6669 H 634.008 6.58045 3.80633 0
M  V30 6670 N 635.583 -1.29855 0.893053 0
M  V30 6671 C 636.829 -1.96116 0.516349 0
M  V30 6672 C 637.162 -1.70281 -0.933695 0
M  V30 6673 O 636.437 -1.01205 -1.66096 0
M  V30 6674 C 636.72 -3.51068 0.801455 0
M  V30 6675 C 636.573 -3.86387 2.30272 0
M  V30 6676 C 637.892 -4.39186 0.283423 0
M  V30 6677 H 635.011 -0.712335 0.189072 0
M  V30 6678 H 637.653 -1.53587 1.11852 0
M  V30 6679 H 635.803 -3.87424 0.288949 0
M  V30 6680 H 637.475 -3.60012 2.88425 0
M  V30 6681 H 635.718 -3.34167 2.76613 0
M  V30 6682 H 636.389 -4.94512 2.45279 0
M  V30 6683 H 638.865 -4.09785 0.722187 0
M  V30 6684 H 637.741 -5.46505 0.512169 0
M  V30 6685 H 638.002 -4.34511 -0.815643 0
M  V30 6686 N 637.061 -0.65484 -1.43351 0
M  V30 6687 C 638.008 0.0357713 -2.30772 0
M  V30 6688 C 638.978 0.813035 -1.44841 0
M  V30 6689 O 640.163 0.789314 -1.73708 0
M  V30 6690 C 637.303 0.995084 -3.30442 0
M  V30 6691 C 636.416 0.21375 -4.31471 0
M  V30 6692 C 635.551 1.16701 -5.18222 0
M  V30 6693 C 634.59 0.376201 -6.10943 0
M  V30 6694 N 633.727 1.28113 -6.90313 0
M  V30 6695 H 638.567 -0.71559 -2.89281 0
M  V30 6696 H 636.104 -0.364645 -1.42509 0
M  V30 6697 H 638.062 1.5649 -3.86739 0
M  V30 6698 H 636.692 1.7133 -2.7358 0
M  V30 6699 H 635.744 -0.472377 -3.77456 0
M  V30 6700 H 637.056 -0.401103 -4.97185 0
M  V30 6701 H 636.21 1.8074 -5.79153 0
M  V30 6702 H 634.949 1.81577 -4.52638 0
M  V30 6703 H 633.954 -0.277534 -5.49099 0
M  V30 6704 H 635.179 -0.268178 -6.7857 0
M  V30 6705 H 633.125 1.91666 -6.27376 0
M  V30 6706 H 633.042 0.720879 -7.52555 0
M  V30 6707 H 634.31 1.90962 -7.55747 0
M  V30 6708 N 638.539 1.52521 -0.396863 0
M  V30 6709 C 639.955 1.5953 -0.0471659 0
M  V30 6710 C 640.155 1.41044 1.43906 0
M  V30 6711 O 639.211 1.23122 2.20448 0
M  V30 6712 C 640.524 2.95972 -0.531113 0
M  V30 6713 C 642.072 3.09172 -0.488024 0
M  V30 6714 C 642.547 4.48075 -0.948281 0
M  V30 6715 N 644.038 4.54281 -0.9046 0
M  V30 6716 C 644.773 5.60007 -1.23205 0
M  V30 6717 N 644.269 6.73343 -1.63036 0
M  V30 6718 N 646.062 5.50151 -1.15282 0
M  V30 6719 H 638.213 1.62786 -1.36435 0
M  V30 6720 H 640.476 0.76514 -0.559701 0
M  V30 6721 H 640.182 3.14741 -1.56942 0
M  V30 6722 H 640.056 3.77143 0.0657922 0
M  V30 6723 H 642.443 2.90095 0.541211 0
M  V30 6724 H 642.524 2.29937 -1.12083 0
M  V30 6725 H 642.168 4.67894 -1.97578 0
M  V30 6726 H 642.098 5.25788 -0.292412 0
M  V30 6727 H 644.589 3.72918 -0.6116 0
M  V30 6728 H 644.902 7.49992 -1.86365 0
M  V30 6729 H 643.247 6.74655 -1.66929 0
M  V30 6730 H 646.438 4.6049 -0.840602 0
M  V30 6731 H 646.611 6.32444 -1.41133 0
M  V30 6732 N 640.017 0.126909 1.57088 0
M  V30 6733 C 641.266 -0.529024 1.94639 0
M  V30 6734 C 641.579 -1.67323 1.01304 0
M  V30 6735 O 642.785 -2.39245 1.28352 0
M  V30 6736 C 641.241 -0.992483 3.45945 0
M  V30 6737 C 640.849 0.123691 4.47829 0
M  V30 6738 C 642.593 -1.61934 3.924 0
M  V30 6739 C 640.5 -0.356911 5.90322 0
M  V30 6740 H 639.43 -0.201397 0.726605 0
M  V30 6741 H 642.081 0.208032 1.82317 0
M  V30 6742 H 640.463 -1.7842 3.53528 0
M  V30 6743 H 641.637 0.900168 4.51922 0
M  V30 6744 H 639.952 0.657699 4.11173 0
M  V30 6745 H 642.549 -1.9902 4.96281 0
M  V30 6746 H 642.892 -2.50075 3.32819 0
M  V30 6747 H 643.425 -0.892894 3.8765 0
M  V30 6748 H 640.164 0.488636 6.53676 0
M  V30 6749 H 639.684 -1.0997 5.89633 0
M  V30 6750 H 641.363 -0.815547 6.41839 0
M  V30 6751 N 641.495 -1.56914 -0.146875 0
M  V30 6752 C 642.742 -1.83356 -0.859467 0
M  V30 6753 C 643.07 -0.707811 -1.81164 0
M  V30 6754 O 642.325 0.303155 -1.93338 0
M  V30 6755 C 642.624 -3.16128 -1.66727 0
M  V30 6756 C 642.29 -4.42586 -0.861881 0
M  V30 6757 C 640.952 -4.76929 -0.639687 0
M  V30 6758 C 643.304 -5.20344 -0.298643 0
M  V30 6759 C 640.632 -5.86491 0.156451 0
M  V30 6760 C 642.984 -6.30742 0.484536 0
M  V30 6761 C 641.648 -6.63635 0.717306 0
M  V30 6762 H 640.918 -0.670947 -0.314501 0
M  V30 6763 H 643.565 -1.91104 -0.123108 0
M  V30 6764 H 641.87 -3.03831 -2.47374 0
M  V30 6765 H 643.567 -3.33802 -2.2221 0
M  V30 6766 H 640.157 -4.15662 -1.04513 0
M  V30 6767 H 644.341 -4.94186 -0.457585 0
M  V30 6768 H 639.597 -6.10419 0.346292 0
M  V30 6769 H 643.771 -6.90188 0.928105 0
M  V30 6770 H 641.398 -7.48367 1.33607 0
M  V30 6771 N 642.974 0.416227 -1.52004 0
M  V30 6772 C 644.204 1.18401 -1.69307 0
M  V30 6773 C 644.612 1.84943 -0.399072 0
M  V30 6774 O 643.955 1.72406 0.634177 0
M  V30 6775 C 644.017 2.29465 -2.76742 0
M  V30 6776 C 643.681 1.83117 -4.18709 0
M  V30 6777 C 644.678 1.32286 -5.02789 0
M  V30 6778 C 642.363 1.90167 -4.64911 0
M  V30 6779 C 644.357 0.891178 -6.31139 0
M  V30 6780 C 642.044 1.4661 -5.93253 0
M  V30 6781 C 643.042 0.961696 -6.76196 0
M  V30 6782 O 642.73 0.532388 -8.02135 0
M  V30 6783 H 642.462 0.362098 -0.570843 0
M  V30 6784 H 645.016 0.496764 -1.99302 0
M  V30 6785 H 643.246 3.01531 -2.42107 0
M  V30 6786 H 644.935 2.91252 -2.82713 0
M  V30 6787 H 645.701 1.26218 -4.68288 0
M  V30 6788 H 641.58 2.28371 -4.00459 0
M  V30 6789 H 645.124 0.496788 -6.95829 0
M  V30 6790 H 641.021 1.52355 -6.27263 0
M  V30 6791 H 641.789 0.656339 -8.15864 0
M  V30 6792 N 644.452 1.42507 0.673017 0
M  V30 6793 C 645.699 1.43072 1.43306 0
M  V30 6794 C 646.027 0.0478004 1.94441 0
M  V30 6795 O 645.282 -0.944106 1.71421 0
M  V30 6796 C 645.581 2.40351 2.64511 0
M  V30 6797 C 645.247 3.8669 2.31908 0
M  V30 6798 C 643.909 4.26551 2.22728 0
M  V30 6799 C 646.261 4.78991 2.05467 0
M  V30 6800 C 643.589 5.56691 1.85234 0
M  V30 6801 C 645.941 6.09476 1.69477 0
M  V30 6802 C 644.605 6.48334 1.58808 0
M  V30 6803 H 643.875 0.523536 0.524395 0
M  V30 6804 H 646.522 1.75459 0.76723 0
M  V30 6805 H 644.827 2.01297 3.36135 0
M  V30 6806 H 646.524 2.38051 3.22696 0
M  V30 6807 H 643.114 3.55132 2.39956 0
M  V30 6808 H 647.298 4.48982 2.11492 0
M  V30 6809 H 642.554 5.85657 1.75545 0
M  V30 6810 H 646.728 6.80482 1.48043 0
M  V30 6811 H 644.355 7.49084 1.29525 0
M  V30 6812 N 645.93 -0.909495 1.28709 0
M  V30 6813 C 646.878 -2.03381 1.12866 0
M  V30 6814 C 647.872 -1.69335 0.0468074 0
M  V30 6815 O 649.078 -1.78819 0.205891 0
M  V30 6816 H 645.453 -0.666452 0.348348 0
M  V30 6817 H 647.424 -2.13885 2.08077 0
M  V30 6818 C 646.173 -3.38092 0.811742 0
M  V30 6819 H 645.496 -3.64786 1.63619 0
M  V30 6820 H 646.936 -4.17477 0.740869 0
M  V30 6821 C 645.395 -3.33395 -0.484679 0
M  V30 6822 O 645.925 -3.72089 -1.5137 0
M  V30 6823 N 644.131 -2.86491 -0.486961 0
M  V30 6824 H 643.678 -2.55199 0.350877 0
M  V30 6825 H 643.636 -2.83731 -1.3544 0
M  V30 6826 N 647.408 -1.11026 -1.11852 0
M  V30 6827 C 648.655 -0.85646 -1.83497 0
M  V30 6828 C 648.983 0.617938 -1.84423 0
M  V30 6829 O 648.238 1.47194 -1.28966 0
M  V30 6830 C 648.537 -1.35777 -3.30604 0
M  V30 6831 C 648.203 -2.84465 -3.49843 0
M  V30 6832 C 646.865 -3.25068 -3.54802 0
M  V30 6833 C 649.217 -3.80251 -3.56453 0
M  V30 6834 C 646.545 -4.60194 -3.63921 0
M  V30 6835 C 648.897 -5.15188 -3.67102 0
M  V30 6836 C 647.561 -5.55356 -3.70319 0
M  V30 6837 H 646.831 -0.313401 -0.671462 0
M  V30 6838 H 649.478 -1.38792 -1.31943 0
M  V30 6839 H 647.783 -0.746455 -3.84624 0
M  V30 6840 H 649.48 -1.13779 -3.8452 0
M  V30 6841 H 646.07 -2.52054 -3.46651 0
M  V30 6842 H 650.254 -3.49986 -3.51886 0
M  V30 6843 H 645.51 -4.90728 -3.64686 0
M  V30 6844 H 649.684 -5.89248 -3.71159 0
M  V30 6845 H 647.311 -6.60054 -3.77138 0
M  V30 6846 N 648.886 1.2938 -0.899927 0
M  V30 6847 C 649.816 2.30144 -0.39446 0
M  V30 6848 C 650.797 1.61611 0.530639 0
M  V30 6849 O 651.982 1.89119 0.441319 0
M  V30 6850 C 649.112 3.45229 0.37868 0
M  V30 6851 C 648.066 4.25564 -0.456012 0
M  V30 6852 C 647.392 5.32848 0.444637 0
M  V30 6853 C 648.692 4.93651 -1.70605 0
M  V30 6854 H 650.386 2.72673 -1.23653 0
M  V30 6855 H 647.932 1.31086 -0.596034 0
M  V30 6856 H 649.885 4.14797 0.743037 0
M  V30 6857 H 648.609 3.01545 1.25453 0
M  V30 6858 H 647.268 3.57704 -0.802704 0
M  V30 6859 H 646.916 4.85408 1.31863 0
M  V30 6860 H 646.616 5.87497 -0.110154 0
M  V30 6861 H 648.14 6.05268 0.805182 0
M  V30 6862 H 649.554 5.55655 -1.41141 0
M  V30 6863 H 647.951 5.58233 -2.20217 0
M  V30 6864 H 649.021 4.18926 -2.4419 0
M  V30 6865 N 650.364 0.662433 1.43002 0
M  V30 6866 C 651.61 0.179857 2.02001 0
M  V30 6867 C 651.943 -1.20625 1.52195 0
M  V30 6868 O 651.218 -1.80726 0.718911 0
M  V30 6869 C 651.501 0.200845 3.59539 0
M  V30 6870 C 651.354 1.62153 4.19555 0
M  V30 6871 C 652.673 -0.457738 4.37713 0
M  V30 6872 H 649.792 0.0668305 0.733964 0
M  V30 6873 H 652.434 0.84487 1.70182 0
M  V30 6874 H 650.584 -0.365411 3.86778 0
M  V30 6875 H 652.256 2.23908 4.03315 0
M  V30 6876 H 650.499 2.16601 3.75854 0
M  V30 6877 H 651.17 1.58799 5.28665 0
M  V30 6878 H 653.646 0.0241495 4.16093 0
M  V30 6879 H 652.522 -0.412363 5.47349 0
M  V30 6880 H 652.783 -1.53336 4.14657 0
M  V30 6881 N 651.842 -1.52309 0.404946 0
M  V30 6882 C 653.072 -2.05886 -0.171569 0
M  V30 6883 C 653.48 -1.27527 -1.39762 0
M  V30 6884 O 652.823 -0.319215 -1.80905 0
M  V30 6885 C 652.885 -3.54609 -0.590983 0
M  V30 6886 C 652.549 -4.53989 0.523757 0
M  V30 6887 C 653.546 -5.01084 1.38604 0
M  V30 6888 C 651.231 -4.97465 0.695255 0
M  V30 6889 C 653.225 -5.90295 2.4048 0
M  V30 6890 C 650.912 -5.86473 1.71733 0
M  V30 6891 C 651.91 -6.32782 2.57051 0
M  V30 6892 O 651.598 -7.20029 3.57509 0
M  V30 6893 H 651.33 -0.675508 -0.0257763 0
M  V30 6894 H 653.884 -1.97238 0.573278 0
M  V30 6895 H 652.114 -3.60929 -1.38805 0
M  V30 6896 H 653.803 -3.90853 -1.09494 0
M  V30 6897 H 654.569 -4.68214 1.26492 0
M  V30 6898 H 650.448 -4.60982 0.0408447 0
M  V30 6899 H 653.992 -6.26363 3.07108 0
M  V30 6900 H 649.889 -6.18756 1.83877 0
M  V30 6901 H 650.657 -7.3813 3.53703 0
M  V30 6902 N 653.32 -0.135238 -1.57019 0
M  V30 6903 C 654.56 0.521686 -1.9763 0
M  V30 6904 C 654.924 1.62804 -1.01778 0
M  V30 6905 O 656.125 2.345 -1.31389 0
M  V30 6906 C 654.396 1.0257 -3.42365 0
M  V30 6907 S 655.955 1.68888 -4.04997 0
M  V30 6908 H 652.773 0.169064 -0.690607 0
M  V30 6909 H 655.375 -0.224168 -1.94211 0
M  V30 6910 H 654.079 0.209556 -4.09865 0
M  V30 6911 H 653.61 1.80645 -3.49472 0
M  V30 6912 H 655.625 2.97554 -3.97084 0
M  V30 6913 N 654.798 1.5699 0.138552 0
M  V30 6914 C 655.728 2.01933 1.17241 0
M  V30 6915 C 656.709 0.90033 1.44319 0
M  V30 6916 O 657.894 1.16872 1.55095 0
M  V30 6917 C 655.024 2.40711 2.50351 0
M  V30 6918 C 653.978 3.55874 2.37776 0
M  V30 6919 C 653.304 3.80491 3.75674 0
M  V30 6920 C 654.604 4.8826 1.85472 0
M  V30 6921 H 656.298 2.88551 0.798672 0
M  V30 6922 H 653.844 1.3882 0.382743 0
M  V30 6923 H 655.797 2.70754 3.22909 0
M  V30 6924 H 654.521 1.5104 2.89576 0
M  V30 6925 H 653.18 3.2601 1.67669 0
M  V30 6926 H 652.828 2.88057 4.12349 0
M  V30 6927 H 652.528 4.57998 3.68119 0
M  V30 6928 H 654.052 4.12967 4.49767 0
M  V30 6929 H 655.466 5.16965 2.4783 0
M  V30 6930 H 653.863 5.69631 1.88787 0
M  V30 6931 H 654.933 4.78071 0.810935 0
M  V30 6932 N 656.276 -0.40816 1.52223 0
M  V30 6933 C 657.506 -1.17501 1.69932 0
M  V30 6934 C 657.914 -1.84729 0.408874 0
M  V30 6935 O 657.257 -1.7274 -0.625025 0
M  V30 6936 C 657.319 -2.27994 2.77955 0
M  V30 6937 C 656.983 -1.80894 4.19674 0
M  V30 6938 C 657.98 -1.29618 5.03483 0
M  V30 6939 C 655.665 -1.87698 4.65913 0
M  V30 6940 C 657.659 -0.857695 6.31603 0
M  V30 6941 C 655.346 -1.43461 5.94022 0
M  V30 6942 C 656.344 -0.925822 6.76696 0
M  V30 6943 O 656.032 -0.489841 8.02406 0
M  V30 6944 H 655.764 -0.359065 0.572755 0
M  V30 6945 H 658.318 -0.486188 1.99563 0
M  V30 6946 H 656.548 -3.00243 2.43703 0
M  V30 6947 H 658.237 -2.89749 2.84254 0
M  V30 6948 H 659.003 -1.23733 4.68951 0
M  V30 6949 H 654.882 -2.26244 4.01665 0
M  V30 6950 H 658.426 -0.459879 6.96083 0
M  V30 6951 H 654.323 -1.49026 6.28062 0
M  V30 6952 H 655.091 -0.613062 8.16201 0
M  V30 6953 N 657.755 -1.42862 -0.66545 0
M  V30 6954 C 658.688 -1.41509 -1.79026 0
M  V30 6955 C 659.666 -0.278106 -1.60204 0
M  V30 6956 O 660.85 -0.469792 -1.82552 0
M  V30 6957 C 657.977 -1.21494 -3.1616 0
M  V30 6958 C 657.023 -2.38308 -3.53711 0
M  V30 6959 S 657.856 -4.00852 -3.55075 0
M  V30 6960 C 659.012 -3.83197 -4.94885 0
M  V30 6961 H 659.245 -2.36691 -1.79902 0
M  V30 6962 H 656.778 -1.29746 -0.836977 0
M  V30 6963 H 658.736 -1.10633 -3.95311 0
M  V30 6964 H 657.397 -0.27881 -3.1286 0
M  V30 6965 H 656.59 -2.20076 -4.53412 0
M  V30 6966 H 656.192 -2.45732 -2.81943 0
M  V30 6967 H 658.484 -3.44765 -5.83218 0
M  V30 6968 H 659.427 -4.82607 -5.18166 0
M  V30 6969 H 659.835 -3.15884 -4.67843 0
M  V30 6970 N 659.233 0.902656 -1.29189 0
M  V30 6971 C 660.482 1.6475 -1.16362 0
M  V30 6972 C 660.795 1.93517 0.284682 0
M  V30 6973 O 662.001 2.66192 0.534229 0
M  V30 6974 C 660.457 2.96848 -2.03493 0
M  V30 6975 C 660.065 2.75687 -3.5313 0
M  V30 6976 C 661.809 3.74762 -1.99383 0
M  V30 6977 C 659.716 4.03492 -4.32375 0
M  V30 6978 H 658.646 0.618041 -0.431904 0
M  V30 6979 H 661.297 1.0008 -1.53806 0
M  V30 6980 H 659.679 3.62715 -1.58916 0
M  V30 6981 H 660.853 2.18431 -4.05739 0
M  V30 6982 H 659.168 2.11171 -3.58881 0
M  V30 6983 H 661.765 4.69515 -2.5585 0
M  V30 6984 H 662.108 4.04767 -0.973123 0
M  V30 6985 H 662.641 3.15732 -2.41988 0
M  V30 6986 H 659.38 3.78656 -5.3507 0
M  V30 6987 H 658.9 4.60318 -3.84535 0
M  V30 6988 H 660.579 4.71662 -4.42881 0
M  V30 6989 N 660.711 1.11618 1.11262 0
M  V30 6990 C 661.96 0.860934 1.82403 0
M  V30 6991 C 662.273 -0.615303 1.8567 0
M  V30 6992 O 663.479 -0.986861 2.52929 0
M  V30 6993 C 661.935 1.49048 3.27586 0
M  V30 6994 C 661.543 3.00089 3.32642 0
M  V30 6995 C 663.287 1.31515 4.03614 0
M  V30 6996 C 661.194 3.56019 4.72234 0
M  V30 6997 H 660.124 0.318423 0.683464 0
M  V30 6998 H 662.775 1.34165 1.25188 0
M  V30 6999 H 661.157 0.937434 3.84744 0
M  V30 7000 H 662.331 3.61813 2.85356 0
M  V30 7001 H 660.646 3.16919 2.70096 0
M  V30 7002 H 663.243 1.70732 5.0671 0
M  V30 7003 H 663.586 0.257917 4.155 0
M  V30 7004 H 664.119 1.83694 3.52848 0
M  V30 7005 H 660.858 4.61463 4.65545 0
M  V30 7006 H 660.378 2.99066 5.19923 0
M  V30 7007 H 662.057 3.54568 5.41193 0
M  V30 7008 N 662.189 -1.289 0.906776 0
M  V30 7009 C 663.436 -1.95269 0.536326 0
M  V30 7010 C 663.764 -1.71435 -0.918711 0
M  V30 7011 O 663.019 -1.02431 -1.66752 0
M  V30 7012 C 663.318 -3.48704 0.783617 0
M  V30 7013 C 662.984 -3.92626 2.21711 0
M  V30 7014 C 661.646 -4.04329 2.60906 0
M  V30 7015 C 663.998 -4.15218 3.15029 0
M  V30 7016 C 661.326 -4.35998 3.92584 0
M  V30 7017 C 663.678 -4.48365 4.46264 0
M  V30 7018 C 662.342 -4.58278 4.85322 0
M  V30 7019 H 661.612 -0.714538 0.196256 0
M  V30 7020 H 664.259 -1.53366 1.14678 0
M  V30 7021 H 662.564 -3.91696 0.0903048 0
M  V30 7022 H 664.261 -3.98162 0.476267 0
M  V30 7023 H 660.851 -3.84038 1.90296 0
M  V30 7024 H 665.035 -4.05636 2.8596 0
M  V30 7025 H 660.291 -4.41878 4.22557 0
M  V30 7026 H 664.465 -4.64795 5.18593 0
M  V30 7027 H 662.092 -4.82573 5.87391 0
M  V30 7028 N 663.667 -0.670007 -1.42649 0
M  V30 7029 C 664.895 -0.19854 -2.05945 0
M  V30 7030 C 665.31 1.14243 -1.50313 0
M  V30 7031 O 664.667 1.70872 -0.641027 0
M  V30 7032 C 664.718 -0.11966 -3.61302 0
M  V30 7033 O 664.439 -1.40764 -4.1487 0
M  V30 7034 C 665.94 0.375878 -4.41704 0
M  V30 7035 H 663.16 -0.0976894 -0.663851 0
M  V30 7036 H 665.704 -0.915392 -1.82868 0
M  V30 7037 H 663.859 0.547851 -3.83507 0
M  V30 7038 H 664.273 -1.27784 -5.08696 0
M  V30 7039 H 665.747 0.379988 -5.50691 0
M  V30 7040 H 666.224 1.41028 -4.15942 0
M  V30 7041 H 666.83 -0.259727 -4.24506 0
M  V30 7042 N 665.145 1.52092 -0.413018 0
M  V30 7043 C 666.078 2.23613 0.455234 0
M  V30 7044 C 667.056 1.2459 1.04481 0
M  V30 7045 O 668.24 1.53653 1.09193 0
M  V30 7046 C 665.367 2.96775 1.63224 0
M  V30 7047 C 664.413 4.10261 1.16568 0
M  V30 7048 S 665.246 5.35348 0.127633 0
M  V30 7049 C 666.402 6.1204 1.30987 0
M  V30 7050 H 666.635 2.96911 -0.152042 0
M  V30 7051 H 664.168 1.53134 -0.197343 0
M  V30 7052 H 666.126 3.39532 2.30713 0
M  V30 7053 H 664.787 2.23113 2.21087 0
M  V30 7054 H 663.98 4.6064 2.04515 0
M  V30 7055 H 663.582 3.6964 0.569386 0
M  V30 7056 H 665.874 6.39651 2.23276 0
M  V30 7057 H 666.817 7.03022 0.846533 0
M  V30 7058 H 667.225 5.43161 1.53743 0
M  V30 7059 N 666.623 0.143563 1.56945 0
M  V30 7060 C 667.586 -0.783295 2.154 0
M  V30 7061 C 668.586 -1.17763 1.09492 0
M  V30 7062 O 669.776 -1.09912 1.35148 0
M  V30 7063 C 666.908 -2.06248 2.7143 0
M  V30 7064 H 668.101 -0.274863 2.98638 0
M  V30 7065 H 665.654 -0.105859 1.55941 0
M  V30 7066 H 666.389 -2.61466 1.91849 0
M  V30 7067 H 666.174 -1.78897 3.4891 0
M  V30 7068 H 667.664 -2.72453 3.16479 0
M  V30 7069 N 668.101 -1.57061 -0.130224 0
M  V30 7070 C 669.064 -1.98593 -1.14426 0
M  V30 7071 C 670.064 -0.874584 -1.34936 0
M  V30 7072 O 671.254 -1.14086 -1.31643 0
M  V30 7073 C 668.386 -2.31639 -2.50112 0
M  V30 7074 H 669.579 -2.89374 -0.787561 0
M  V30 7075 H 667.132 -1.51756 -0.374146 0
M  V30 7076 H 667.867 -1.43703 -2.90723 0
M  V30 7077 H 667.652 -3.12684 -2.36583 0
M  V30 7078 H 669.142 -2.64551 -3.23114 0
M  V30 7079 N 669.579 0.400081 -1.52437 0
M  V30 7080 C 670.809 1.16598 -1.70553 0
M  V30 7081 C 671.217 1.8451 -0.418665 0
M  V30 7082 O 670.56 1.73069 0.615855 0
M  V30 7083 C 670.622 2.26517 -2.7916 0
M  V30 7084 C 670.286 1.78666 -4.20628 0
M  V30 7085 C 671.283 1.26946 -5.04163 0
M  V30 7086 C 668.968 1.85225 -4.66902 0
M  V30 7087 C 670.962 0.824187 -6.32049 0
M  V30 7088 C 668.649 1.40309 -5.94774 0
M  V30 7089 C 669.647 0.889922 -6.77178 0
M  V30 7090 O 669.335 0.447281 -8.02655 0
M  V30 7091 H 669.067 0.356023 -0.574651 0
M  V30 7092 H 671.621 0.475598 -1.99818 0
M  V30 7093 H 669.851 2.98946 -2.45292 0
M  V30 7094 H 671.54 2.88237 -2.85787 0
M  V30 7095 H 672.306 1.21244 -4.69601 0
M  V30 7096 H 668.185 2.24111 -4.02859 0
M  V30 7097 H 671.729 0.422958 -6.96317 0
M  V30 7098 H 667.626 1.45693 -6.28843 0
M  V30 7099 H 668.394 0.569768 -8.16514 0
M  V30 7100 N 671.057 1.43213 0.657864 0
M  V30 7101 C 672.287 1.478 1.44356 0
M  V30 7102 C 672.695 0.0930206 1.88971 0
M  V30 7103 O 672.038 -0.906089 1.59799 0
M  V30 7104 C 672.1 2.35745 2.71412 0
M  V30 7105 C 671.764 3.83359 2.48767 0
M  V30 7106 C 672.761 4.74585 2.12285 0
M  V30 7107 C 670.446 4.27799 2.63235 0
M  V30 7108 C 672.44 6.08247 1.90562 0
M  V30 7109 C 670.127 5.61516 2.41128 0
M  V30 7110 C 671.125 6.51557 2.04847 0
M  V30 7111 O 670.813 7.82802 1.82967 0
M  V30 7112 H 670.545 0.504363 0.450104 0
M  V30 7113 H 673.099 1.88572 0.814241 0
M  V30 7114 H 671.329 1.89852 3.36887 0
M  V30 7115 H 673.018 2.31589 3.33348 0
M  V30 7116 H 673.784 4.41531 2.00687 0
M  V30 7117 H 669.663 3.57993 2.90451 0
M  V30 7118 H 673.207 6.78489 1.62168 0
M  V30 7119 H 669.104 5.94139 2.52327 0
M  V30 7120 H 669.872 7.94332 1.97429 0
M  V30 7121 N 672.536 -0.895792 1.29666 0
M  V30 7122 C 673.952 -1.17726 1.07763 0
M  V30 7123 C 674.152 -2.00794 -0.168576 0
M  V30 7124 O 673.208 -2.37213 -0.865244 0
M  V30 7125 C 674.521 -1.89441 2.33522 0
M  V30 7126 C 676.069 -2.02251 2.3888 0
M  V30 7127 C 676.544 -2.77378 3.64452 0
M  V30 7128 N 678.035 -2.8493 3.65198 0
M  V30 7129 C 678.77 -3.43606 4.59045 0
M  V30 7130 N 678.266 -4.03417 5.63228 0
M  V30 7131 N 680.059 -3.41317 4.46608 0
M  V30 7132 H 672.21 -0.341652 2.09634 0
M  V30 7133 H 674.473 -0.213865 0.923561 0
M  V30 7134 H 674.179 -1.35842 3.24407 0
M  V30 7135 H 674.053 -2.89893 2.41334 0
M  V30 7136 H 676.44 -2.55025 1.4848 0
M  V30 7137 H 676.521 -1.0092 2.3505 0
M  V30 7138 H 676.165 -2.25279 4.55205 0
M  V30 7139 H 676.095 -3.79062 3.65541 0
M  V30 7140 H 678.586 -2.42453 2.89871 0
M  V30 7141 H 678.899 -4.46224 6.30955 0
M  V30 7142 H 677.244 -4.01868 5.67033 0
M  V30 7143 H 680.435 -2.93812 3.64407 0
M  V30 7144 H 680.608 -3.86751 5.1993 0
M  V30 7145 N 674.014 -1.12206 -1.10668 0
M  V30 7146 C 675.425 -0.890657 -1.64086 0
M  V30 7147 C 675.776 0.575502 -1.8757 0
M  V30 7148 O 674.901 1.4394 -1.61587 0
M  V30 7149 C 675.496 -1.61029 -2.98085 0
M  V30 7150 C 674.055 -1.4251 -3.48379 0
M  V30 7151 C 673.202 -1.64778 -2.23033 0
M  V30 7152 H 676.153 -1.27718 -0.94201 0
M  V30 7153 H 676.174 -1.05993 -3.65439 0
M  V30 7154 H 675.686 -2.67735 -2.80962 0
M  V30 7155 H 673.787 -0.380497 -3.70652 0
M  V30 7156 H 673.9 -2.17959 -4.26651 0
M  V30 7157 H 672.264 -1.07171 -2.31055 0
M  V30 7158 H 673.047 -2.72776 -2.08443 0
M  V30 7159 N 675.492 1.28418 -0.913599 0
M  V30 7160 C 676.738 1.9527 -0.547484 0
M  V30 7161 C 677.071 1.71745 0.906486 0
M  V30 7162 O 676.346 1.03834 1.64465 0
M  V30 7163 C 676.629 3.49748 -0.857205 0
M  V30 7164 C 676.482 3.82675 -2.3639 0
M  V30 7165 C 677.801 4.3868 -0.353258 0
M  V30 7166 H 674.92 0.709236 -0.200381 0
M  V30 7167 H 677.562 1.51789 -1.14281 0
M  V30 7168 H 675.712 3.86915 -0.350548 0
M  V30 7169 H 677.384 3.55378 -2.94116 0
M  V30 7170 H 675.627 3.29724 -2.81894 0
M  V30 7171 H 676.298 4.90547 -2.53115 0
M  V30 7172 H 678.774 4.08584 -0.787288 0
M  V30 7173 H 677.65 5.45621 -0.599049 0
M  V30 7174 H 677.911 4.35753 0.746413 0
M  V30 7175 N 676.97 0.677563 1.42291 0
M  V30 7176 C 678.247 0.129803 1.95169 0
M  V30 7177 C 678.627 -1.35605 1.61786 0
M  V30 7178 O 677.975 -2.09361 0.915444 0
M  V30 7179 C 678.185 0.401889 3.46678 0
M  V30 7180 C 679.533 0.319889 4.23393 0
M  V30 7181 O 680.557 0.33579 3.54614 0
M  V30 7182 O 679.416 0.264459 5.4586 0
M  V30 7183 H 676.51 0.00447433 0.826988 0
M  V30 7184 H 679.056 0.752483 1.52105 0
M  V30 7185 H 677.828 1.43108 3.64192 0
M  V30 7186 H 677.451 -0.252662 3.96796 0
M  V30 7187 N 678.448 -1.51871 0.421078 0
M  V30 7188 C 679.696 -2.01539 -0.150492 0
M  V30 7189 C 680.017 -1.30803 -1.44623 0
M  V30 7190 O 679.287 -0.437568 -1.90951 0
M  V30 7191 H 677.867 -0.744698 -0.0586041 0
M  V30 7192 H 680.529 -1.8668 0.560059 0
M  V30 7193 H 679.625 -3.10264 -0.338068 0
M  V30 7194 N 679.926 -0.151884 -1.56866 0
M  V30 7195 C 680.856 0.781943 -2.20018 0
M  V30 7196 C 681.837 1.25347 -1.14987 0
M  V30 7197 O 683.022 1.31015 -1.43348 0
M  V30 7198 C 680.152 2.01928 -2.82564 0
M  V30 7199 C 679.106 1.68434 -3.93464 0
M  V30 7200 C 678.432 2.99472 -4.42968 0
M  V30 7201 C 679.732 0.927244 -5.14003 0
M  V30 7202 H 681.426 0.255607 -2.98307 0
M  V30 7203 H 678.972 0.121502 -1.43486 0
M  V30 7204 H 680.925 2.67741 -3.25411 0
M  V30 7205 H 679.649 2.56943 -2.01614 0
M  V30 7206 H 678.308 1.04998 -3.51242 0
M  V30 7207 H 677.956 3.52488 -3.58834 0
M  V30 7208 H 677.656 2.77823 -5.17772 0
M  V30 7209 H 679.18 3.66348 -4.88489 0
M  V30 7210 H 680.594 1.48756 -5.53665 0
M  V30 7211 H 678.991 0.810513 -5.94601 0
M  V30 7212 H 680.061 -0.0801163 -4.84834 0
M  V30 7213 N 681.404 1.57128 0.121893 0
M  V30 7214 C 682.815 1.73902 0.679348 0
M  V30 7215 C 683.166 0.770135 1.80453 0
M  V30 7216 O 682.291 -0.0576083 2.16323 0
M  V30 7217 C 682.886 3.15328 1.2391 0
M  V30 7218 C 681.445 3.33618 1.74288 0
M  V30 7219 C 680.592 2.6978 0.641414 0
M  V30 7220 H 683.543 1.58359 -0.104 0
M  V30 7221 H 683.564 3.16718 2.10879 0
M  V30 7222 H 683.076 3.85821 0.419957 0
M  V30 7223 H 681.177 2.68162 2.58689 0
M  V30 7224 H 681.29 4.4176 1.85432 0
M  V30 7225 H 679.654 2.30935 1.0743 0
M  V30 7226 H 680.437 3.42895 -0.166707 0
M  V30 7227 N 682.882 -0.391992 1.52647 0
M  V30 7228 C 684.293 -0.970064 1.5952 0
M  V30 7229 C 684.644 -1.91059 0.446207 0
M  V30 7230 O 683.769 -2.12062 -0.431125 0
M  V30 7231 C 684.364 -1.76614 2.89125 0
M  V30 7232 C 682.923 -2.29396 2.9842 0
M  V30 7233 C 682.07 -1.09864 2.54608 0
M  V30 7234 H 685.021 -0.171638 1.57769 0
M  V30 7235 H 685.042 -2.62511 2.75442 0
M  V30 7236 H 684.554 -1.08135 3.72731 0
M  V30 7237 H 682.655 -3.01196 2.19344 0
M  V30 7238 H 682.768 -2.59088 4.03002 0
M  V30 7239 H 681.132 -1.45777 2.08857 0
M  V30 7240 H 681.915 -0.429249 3.40606 0
M  V30 7241 N 684.36 -1.4356 -0.65026 0
M  V30 7242 C 685.607 -1.45333 -1.41012 0
M  V30 7243 C 685.935 -0.0787282 -1.94341 0
M  V30 7244 O 685.19 0.916715 -1.72901 0
M  V30 7245 C 685.489 -2.44528 -2.60654 0
M  V30 7246 C 685.155 -3.90331 -2.25727 0
M  V30 7247 C 683.817 -4.3004 -2.15914 0
M  V30 7248 C 686.169 -4.822 -1.97821 0
M  V30 7249 C 683.497 -5.59568 -1.76354 0
M  V30 7250 C 685.849 -6.12095 -1.59759 0
M  V30 7251 C 684.513 -6.50778 -1.48473 0
M  V30 7252 H 683.783 -0.531813 -0.516 0
M  V30 7253 H 686.43 -1.76657 -0.739219 0
M  V30 7254 H 684.735 -2.06619 -3.3289 0
M  V30 7255 H 686.432 -2.43155 -3.18868 0
M  V30 7256 H 683.022 -3.58905 -2.34276 0
M  V30 7257 H 687.206 -4.5229 -2.04322 0
M  V30 7258 H 682.462 -5.88376 -1.66205 0
M  V30 7259 H 686.636 -6.82751 -1.37198 0
M  V30 7260 H 684.263 -7.5105 -1.17591 0
M  V30 7261 N 685.838 0.888903 -1.30139 0
M  V30 7262 C 686.785 1.99422 -1.16188 0
M  V30 7263 C 687.755 1.66017 -0.0523869 0
M  V30 7264 O 688.94 1.89506 -0.221864 0
M  V30 7265 C 686.08 3.34325 -0.855612 0
M  V30 7266 C 685.193 3.80445 -2.0466 0
M  V30 7267 C 684.328 5.03975 -1.67876 0
M  V30 7268 C 683.367 5.42492 -2.83493 0
M  V30 7269 N 682.504 6.57206 -2.47032 0
M  V30 7270 H 687.344 2.10687 -2.10749 0
M  V30 7271 H 684.881 1.03165 -1.04859 0
M  V30 7272 H 686.839 4.11968 -0.658681 0
M  V30 7273 H 685.469 3.22756 0.0531155 0
M  V30 7274 H 684.521 2.98745 -2.3549 0
M  V30 7275 H 685.833 4.04933 -2.91257 0
M  V30 7276 H 684.987 5.89232 -1.44535 0
M  V30 7277 H 683.726 4.8135 -0.784431 0
M  V30 7278 H 682.731 4.55764 -3.07505 0
M  V30 7279 H 683.956 5.67093 -3.73607 0
M  V30 7280 H 681.902 6.36164 -1.601 0
M  V30 7281 H 681.819 6.81543 -3.27161 0
M  V30 7282 H 683.087 7.45704 -2.27038 0
M  V30 7283 N 687.317 1.12792 1.10072 0
M  V30 7284 C 688.25 0.742921 2.15768 0
M  V30 7285 C 689.228 -0.267714 1.60381 0
M  V30 7286 O 690.412 -0.160782 1.87813 0
M  V30 7287 C 687.539 0.100244 3.38552 0
M  V30 7288 C 686.585 1.07831 4.12644 0
M  V30 7289 S 687.418 2.60765 4.6772 0
M  V30 7290 C 688.574 1.97838 5.9381 0
M  V30 7291 H 688.807 1.63822 2.48092 0
M  V30 7292 H 686.34 0.947385 1.21918 0
M  V30 7293 H 688.298 -0.264175 4.09649 0
M  V30 7294 H 686.959 -0.772223 3.04459 0
M  V30 7295 H 686.152 0.576325 5.00694 0
M  V30 7296 H 685.754 1.38586 3.47376 0
M  V30 7297 H 688.046 1.32341 6.64449 0
M  V30 7298 H 688.989 2.83943 6.48677 0
M  V30 7299 H 689.397 1.43267 5.46017 0
M  V30 7300 N 688.795 -1.27931 0.920396 0
M  V30 7301 C 689.705 -2.30824 0.419212 0
M  V30 7302 C 690.721 -1.66767 -0.496461 0
M  V30 7303 O 691.897 -1.97763 -0.38104 0
M  V30 7304 C 688.962 -3.45158 -0.326601 0
M  V30 7305 C 688.023 -4.24754 0.623098 0
M  V30 7306 C 687.256 -5.33629 -0.0872172 0
M  V30 7307 O 687.479 -5.55204 -1.30784 0
M  V30 7308 O 686.413 -5.99091 0.580875 0
M  V30 7309 H 690.239 -2.75716 1.27337 0
M  V30 7310 H 687.824 -1.32747 0.685465 0
M  V30 7311 H 689.706 -4.14716 -0.747559 0
M  V30 7312 H 688.381 -3.02336 -1.15648 0
M  V30 7313 H 687.288 -3.57759 1.09359 0
M  V30 7314 H 688.621 -4.71272 1.41998 0
M  V30 7315 N 690.273 -0.685099 -1.4193 0
M  V30 7316 C 691.22 -0.0131869 -2.30796 0
M  V30 7317 C 692.19 0.782129 -1.46533 0
M  V30 7318 O 693.375 0.75229 -1.75343 0
M  V30 7319 C 690.515 0.924768 -3.32479 0
M  V30 7320 C 689.628 0.122181 -4.31827 0
M  V30 7321 C 688.763 1.05682 -5.20581 0
M  V30 7322 C 687.802 0.246526 -6.11603 0
M  V30 7323 N 686.939 1.13442 -6.92875 0
M  V30 7324 H 691.779 -0.776789 -2.87698 0
M  V30 7325 H 689.316 -0.394791 -1.41703 0
M  V30 7326 H 691.274 1.48251 -3.89971 0
M  V30 7327 H 689.904 1.65488 -2.77152 0
M  V30 7328 H 688.956 -0.552335 -3.76369 0
M  V30 7329 H 690.268 -0.506473 -4.96222 0
M  V30 7330 H 689.422 1.68415 -5.82856 0
M  V30 7331 H 688.161 1.71935 -4.56388 0
M  V30 7332 H 687.166 -0.393944 -5.48387 0
M  V30 7333 H 688.391 -0.412053 -6.77849 0
M  V30 7334 H 686.337 1.78316 -6.313 0
M  V30 7335 H 686.254 0.561089 -7.53915 0
M  V30 7336 H 687.522 1.74889 -7.59628 0
M  V30 7337 N 691.751 1.51645 -0.429126 0
M  V30 7338 C 692.979 2.06433 0.138994 0
M  V30 7339 C 693.394 1.29735 1.37165 0
M  V30 7340 O 692.751 0.354638 1.79021 0
M  V30 7341 C 692.802 3.58439 0.469452 0
M  V30 7342 O 692.523 4.32238 -0.714273 0
M  V30 7343 C 694.024 4.29712 1.08914 0
M  V30 7344 H 691.244 0.6709 0.0115608 0
M  V30 7345 H 693.788 1.9532 -0.605843 0
M  V30 7346 H 691.943 3.69494 1.16419 0
M  V30 7347 H 692.357 5.22704 -0.433633 0
M  V30 7348 H 693.831 5.37182 1.27042 0
M  V30 7349 H 694.308 3.87473 2.06788 0
M  V30 7350 H 694.914 4.2308 0.434028 0
M  V30 7351 N 693.229 0.160201 1.56784 0
M  V30 7352 C 694.477 -0.486625 1.96154 0
M  V30 7353 C 694.798 -1.64525 1.04673 0
M  V30 7354 O 694.068 -1.95586 0.110864 0
M  V30 7355 H 692.648 -0.182764 0.724297 0
M  V30 7356 H 695.31 0.238787 1.93432 0
M  V30 7357 H 694.406 -0.854025 3.00188 0
M  V30 7358 N 694.707 -1.5719 -0.113559 0
M  V30 7359 C 695.984 -1.76117 -0.850999 0
M  V30 7360 C 696.364 -0.737085 -1.97814 0
M  V30 7361 O 695.712 0.237942 -2.27258 0
M  V30 7362 C 695.922 -3.21298 -1.36266 0
M  V30 7363 C 697.27 -3.83955 -1.81283 0
M  V30 7364 O 698.294 -3.24934 -1.45933 0
M  V30 7365 O 697.153 -4.87707 -2.46585 0
M  V30 7366 H 694.247 -0.721308 -0.404529 0
M  V30 7367 H 696.793 -1.69423 -0.0968756 0
M  V30 7368 H 695.565 -3.87355 -0.554235 0
M  V30 7369 H 695.188 -3.32552 -2.17933 0
M  V30 7370 N 696.185 0.383891 -1.52853 0
M  V30 7371 C 697.415 1.14783 -1.7178 0
M  V30 7372 C 697.823 1.84055 -0.438211 0
M  V30 7373 O 697.166 1.73713 0.597465 0
M  V30 7374 C 697.228 2.23543 -2.81547 0
M  V30 7375 C 696.892 1.74195 -4.22499 0
M  V30 7376 C 697.889 1.21591 -5.05481 0
M  V30 7377 C 695.574 1.80262 -4.6884 0
M  V30 7378 C 697.568 0.757104 -6.32888 0
M  V30 7379 C 695.255 1.33993 -5.96229 0
M  V30 7380 C 696.253 0.818049 -6.78083 0
M  V30 7381 O 695.941 0.362123 -8.03084 0
M  V30 7382 H 695.673 0.349908 -0.578395 0
M  V30 7383 H 698.227 0.454377 -2.00311 0
M  V30 7384 H 696.457 2.96328 -2.48449 0
M  V30 7385 H 698.146 2.8519 -2.88828 0
M  V30 7386 H 698.912 1.16257 -4.7086 0
M  V30 7387 H 694.791 2.19825 -4.05213 0
M  V30 7388 H 698.335 0.34908 -6.96726 0
M  V30 7389 H 694.232 1.39015 -6.30353 0
M  V30 7390 H 695 0.483134 -8.17073 0
M  V30 7391 N 697.663 1.43903 0.642637 0
M  V30 7392 C 698.91 1.46079 1.40239 0
M  V30 7393 C 699.238 0.0890335 1.94296 0
M  V30 7394 O 698.493 -0.907533 1.73385 0
M  V30 7395 C 698.792 2.45907 2.59354 0
M  V30 7396 C 698.458 3.91522 2.23654 0
M  V30 7397 C 697.12 4.31179 2.1363 0
M  V30 7398 C 699.472 4.83242 1.95261 0
M  V30 7399 C 696.8 5.60495 1.73384 0
M  V30 7400 C 699.152 6.12933 1.56511 0
M  V30 7401 C 697.816 6.51556 1.4502 0
M  V30 7402 H 697.086 0.534542 0.513172 0
M  V30 7403 H 699.733 1.77047 0.72984 0
M  V30 7404 H 698.038 2.08381 3.3179 0
M  V30 7405 H 699.735 2.44842 3.17574 0
M  V30 7406 H 696.325 3.60142 2.32369 0
M  V30 7407 H 700.509 4.53367 2.0192 0
M  V30 7408 H 695.765 5.89249 1.63082 0
M  V30 7409 H 699.939 6.83469 1.33576 0
M  V30 7410 H 697.566 7.51663 1.13606 0
M  V30 7411 N 699.141 -0.881989 1.30609 0
M  V30 7412 C 700.557 -1.16576 1.09005 0
M  V30 7413 C 700.757 -2.00961 -0.14727 0
M  V30 7414 O 699.813 -2.38117 -0.840036 0
M  V30 7415 C 701.126 -1.86954 2.35518 0
M  V30 7416 C 702.674 -1.99706 2.41011 0
M  V30 7417 C 703.149 -2.73497 3.67374 0
M  V30 7418 N 704.64 -2.8104 3.68199 0
M  V30 7419 C 705.375 -3.38718 4.62664 0
M  V30 7420 N 704.871 -3.97421 5.67475 0
M  V30 7421 N 706.664 -3.36561 4.50203 0
M  V30 7422 H 698.815 -0.319398 2.09985 0
M  V30 7423 H 701.078 -0.204058 0.925778 0
M  V30 7424 H 700.784 -1.32393 3.2583 0
M  V30 7425 H 700.658 -2.87317 2.44395 0
M  V30 7426 H 703.045 -2.53436 1.51176 0
M  V30 7427 H 703.126 -0.984218 2.36108 0
M  V30 7428 H 702.77 -2.20438 4.57569 0
M  V30 7429 H 702.7 -3.75163 3.6954 0
M  V30 7430 H 705.191 -2.39365 2.92426 0
M  V30 7431 H 705.504 -4.39507 6.35652 0
M  V30 7432 H 703.849 -3.95832 5.71264 0
M  V30 7433 H 707.04 -2.8993 3.67503 0
M  V30 7434 H 707.213 -3.81215 5.24003 0
M  V30 7435 N 700.619 -1.13374 -1.09472 0
M  V30 7436 C 701.865 -0.896516 -1.81908 0
M  V30 7437 C 702.198 0.575933 -1.85463 0
M  V30 7438 O 701.473 1.42618 -1.32251 0
M  V30 7439 C 701.756 -1.48445 -3.28079 0
M  V30 7440 C 701.609 -3.02598 -3.32798 0
M  V30 7441 C 702.928 -1.15226 -4.24748 0
M  V30 7442 H 700.047 -0.327127 -0.660422 0
M  V30 7443 H 702.689 -1.40195 -1.2824 0
M  V30 7444 H 700.839 -1.0546 -3.73912 0
M  V30 7445 H 702.511 -3.54335 -2.95372 0
M  V30 7446 H 700.754 -3.37613 -2.72397 0
M  V30 7447 H 701.425 -3.38835 -4.3577 0
M  V30 7448 H 703.901 -1.52369 -3.87199 0
M  V30 7449 H 702.777 -1.59012 -5.25363 0
M  V30 7450 H 703.038 -0.0658891 -4.42051 0
M  V30 7451 N 702.098 1.27442 -0.927168 0
M  V30 7452 C 703.326 1.98498 -0.583622 0
M  V30 7453 C 703.741 1.69171 0.838241 0
M  V30 7454 O 703.098 0.951969 1.55704 0
M  V30 7455 C 703.149 3.52552 -0.799341 0
M  V30 7456 O 702.87 3.80851 -2.16527 0
M  V30 7457 C 704.371 4.4086 -0.464436 0
M  V30 7458 H 701.591 0.633487 -0.221213 0
M  V30 7459 H 704.135 1.62308 -1.24404 0
M  V30 7460 H 702.29 3.86955 -0.185728 0
M  V30 7461 H 702.704 4.75441 -2.21487 0
M  V30 7462 H 704.178 5.47967 -0.666075 0
M  V30 7463 H 704.655 4.35082 0.599995 0
M  V30 7464 H 705.261 4.11977 -1.05617 0
M  V30 7465 N 703.576 0.692616 1.41565 0
M  V30 7466 C 704.824 0.221896 2.00878 0
M  V30 7467 C 705.145 -1.18164 1.5512 0
M  V30 7468 O 704.415 -1.79679 0.78054 0
M  V30 7469 H 702.995 0.0790463 0.742806 0
M  V30 7470 H 705.657 0.893115 1.73232 0
M  V30 7471 H 704.753 0.23702 3.11199 0
M  V30 7472 N 705.054 -1.51416 0.437162 0
M  V30 7473 C 705.964 -2.31493 -0.380537 0
M  V30 7474 C 706.98 -1.40399 -1.02782 0
M  V30 7475 O 708.156 -1.73471 -1.02323 0
M  V30 7476 C 705.221 -3.1413 -1.46709 0
M  V30 7477 C 704.282 -4.21003 -0.839953 0
M  V30 7478 C 703.515 -4.9969 -1.87473 0
M  V30 7479 O 703.738 -4.79008 -3.09689 0
M  V30 7480 O 702.672 -5.8379 -1.46536 0
M  V30 7481 H 706.498 -3.02469 0.273183 0
M  V30 7482 H 704.083 -1.48059 0.199706 0
M  V30 7483 H 705.965 -3.65505 -2.09724 0
M  V30 7484 H 704.64 -2.45919 -2.10489 0
M  V30 7485 H 703.547 -3.73706 -0.171752 0
M  V30 7486 H 704.88 -4.91587 -0.245638 0
M  V30 7487 N 706.532 -0.168513 -1.56696 0
M  V30 7488 C 707.781 0.477233 -1.95973 0
M  V30 7489 C 708.094 1.64578 -1.05704 0
M  V30 7490 O 709.3 2.35758 -1.3465 0
M  V30 7491 C 707.756 0.900413 -3.48455 0
M  V30 7492 C 707.364 -0.242382 -4.47344 0
M  V30 7493 C 709.108 1.51474 -3.96555 0
M  V30 7494 C 707.015 0.200272 -5.91061 0
M  V30 7495 H 705.945 0.182061 -0.73169 0
M  V30 7496 H 708.596 -0.256297 -1.81701 0
M  V30 7497 H 706.978 1.68984 -3.58135 0
M  V30 7498 H 708.152 -1.01967 -4.49377 0
M  V30 7499 H 706.467 -0.766484 -4.09285 0
M  V30 7500 H 709.064 1.85792 -5.01384 0
M  V30 7501 H 709.407 2.41163 -3.39332 0
M  V30 7502 H 709.94 0.789802 -3.89881 0
M  V30 7503 H 706.679 -0.661775 -6.52151 0
M  V30 7504 H 706.199 0.942979 -5.92341 0
M  V30 7505 H 707.878 0.645088 -6.43776 0
M  V30 7506 N 708.01 1.57248 0.105221 0
M  V30 7507 C 708.94 2.04374 1.12931 0
M  V30 7508 C 709.921 0.93074 1.42377 0
M  V30 7509 O 711.106 1.20136 1.52581 0
M  V30 7510 C 708.236 2.45967 2.45189 0
M  V30 7511 C 707.19 3.60838 2.30174 0
M  V30 7512 C 706.516 3.88374 3.67518 0
M  V30 7513 C 707.816 4.92084 1.75073 0
M  V30 7514 H 709.51 2.9018 0.737287 0
M  V30 7515 H 707.056 1.39601 0.353211 0
M  V30 7516 H 709.009 2.77542 3.17094 0
M  V30 7517 H 707.733 1.57148 2.86308 0
M  V30 7518 H 706.392 3.29493 1.60716 0
M  V30 7519 H 706.04 2.96739 4.06147 0
M  V30 7520 H 705.74 4.65703 3.58321 0
M  V30 7521 H 707.264 4.22415 4.40906 0
M  V30 7522 H 708.678 5.22106 2.36809 0
M  V30 7523 H 707.075 5.73507 1.76662 0
M  V30 7524 H 708.145 4.79684 0.709347 0
M  V30 7525 N 709.488 -0.375779 1.53054 0
M  V30 7526 C 710.713 -1.14484 1.7294 0
M  V30 7527 C 711.138 -1.82572 0.452668 0
M  V30 7528 O 710.496 -1.71343 -0.592567 0
M  V30 7529 C 710.544 -2.15857 2.88857 0
M  V30 7530 O 709.648 -3.22725 2.56753 0
M  V30 7531 H 708.989 -0.332666 0.574656 0
M  V30 7532 H 711.519 -0.436025 1.999 0
M  V30 7533 H 711.529 -2.59631 3.14731 0
M  V30 7534 H 710.204 -1.65689 3.81471 0
M  V30 7535 H 708.781 -2.83996 2.41663 0
M  V30 7536 N 710.966 -1.44241 -0.634997 0
M  V30 7537 C 712.212 -1.47038 -1.39669 0
M  V30 7538 C 712.545 -0.101122 -1.93937 0
M  V30 7539 O 711.82 0.880699 -1.73418 0
M  V30 7540 C 712.103 -2.52763 -2.56482 0
M  V30 7541 C 711.956 -3.99032 -2.07589 0
M  V30 7542 C 713.275 -2.55031 -3.58674 0
M  V30 7543 H 710.394 -0.53537 -0.506506 0
M  V30 7544 H 713.036 -1.75898 -0.718317 0
M  V30 7545 H 711.186 -2.28284 -3.14354 0
M  V30 7546 H 712.858 -4.3463 -1.54577 0
M  V30 7547 H 711.101 -4.10994 -1.38804 0
M  V30 7548 H 711.772 -4.68649 -2.91671 0
M  V30 7549 H 714.248 -2.76893 -3.10595 0
M  V30 7550 H 713.124 -3.30916 -4.37934 0
M  V30 7551 H 713.385 -1.59085 -4.12486 0
M  V30 7552 N 712.444 0.87505 -1.31075 0
M  V30 7553 C 713.374 1.99775 -1.20881 0
M  V30 7554 C 714.355 1.69822 -0.0971612 0
M  V30 7555 O 715.54 1.92158 -0.280895 0
M  V30 7556 C 712.67 3.35163 -0.910118 0
M  V30 7557 C 711.624 3.79406 -1.98078 0
M  V30 7558 C 710.95 5.12197 -1.53488 0
M  V30 7559 C 712.25 3.97061 -3.39323 0
M  V30 7560 H 713.944 2.08562 -2.14808 0
M  V30 7561 H 711.49 1.00207 -1.03415 0
M  V30 7562 H 713.443 4.13237 -0.825423 0
M  V30 7563 H 712.167 3.26536 0.064822 0
M  V30 7564 H 710.826 3.03568 -2.05528 0
M  V30 7565 H 710.474 5.00007 -0.547941 0
M  V30 7566 H 710.174 5.4277 -2.2511 0
M  V30 7567 H 711.698 5.92785 -1.46417 0
M  V30 7568 H 713.112 4.65545 -3.34576 0
M  V30 7569 H 711.509 4.39025 -4.09118 0
M  V30 7570 H 712.579 3.00601 -3.80483 0
M  V30 7571 N 713.922 1.13953 1.08869 0
M  V30 7572 C 715.17 0.903023 1.80803 0
M  V30 7573 C 715.491 -0.572151 1.86417 0
M  V30 7574 O 714.761 -1.41589 1.35386 0
M  V30 7575 H 713.341 0.331099 0.669614 0
M  V30 7576 H 716.003 1.43719 1.31647 0
M  V30 7577 H 715.099 1.29881 2.83791 0
M  V30 7578 N 715.4 -1.26948 0.933913 0
M  V30 7579 C 716.648 -1.93704 0.576484 0
M  V30 7580 C 716.969 -1.73702 -0.886145 0
M  V30 7581 O 716.239 -1.08838 -1.62884 0
M  V30 7582 H 714.819 -0.716812 0.210214 0
M  V30 7583 H 717.481 -1.54534 1.18766 0
M  V30 7584 H 716.577 -3.01987 0.788055 0
M  V30 7585 N 716.879 -0.700114 -1.41195 0
M  V30 7586 C 718.125 -0.233351 -2.01453 0
M  V30 7587 C 718.458 1.16548 -1.55339 0
M  V30 7588 O 717.733 1.78756 -0.766575 0
M  V30 7589 C 718.016 -0.2961 -3.58881 0
M  V30 7590 C 717.869 -1.7322 -4.15108 0
M  V30 7591 C 719.188 0.341525 -4.38773 0
M  V30 7592 H 716.307 -0.0862667 -0.731934 0
M  V30 7593 H 718.949 -0.889693 -1.67882 0
M  V30 7594 H 717.099 0.262736 -3.87611 0
M  V30 7595 H 718.771 -2.34523 -3.97236 0
M  V30 7596 H 717.014 -2.2649 -3.69979 0
M  V30 7597 H 717.685 -1.7276 -5.24269 0
M  V30 7598 H 720.161 -0.134461 -4.15883 0
M  V30 7599 H 719.037 0.267098 -5.4825 0
M  V30 7600 H 719.298 1.42289 -4.18577 0
M  V30 7601 N 718.357 1.51182 -0.445186 0
M  V30 7602 C 719.587 2.06269 0.116922 0
M  V30 7603 C 719.995 1.31188 1.36332 0
M  V30 7604 O 719.338 0.367067 1.79995 0
M  V30 7605 C 719.4 3.56051 0.496757 0
M  V30 7606 C 719.064 4.52441 -0.64394 0
M  V30 7607 C 720.061 4.97233 -1.5184 0
M  V30 7608 C 717.746 4.95447 -0.826905 0
M  V30 7609 C 719.74 5.83712 -2.56046 0
M  V30 7610 C 717.427 5.81714 -1.87222 0
M  V30 7611 C 718.425 6.25745 -2.73738 0
M  V30 7612 O 718.113 7.10298 -3.76474 0
M  V30 7613 H 717.845 0.675954 0.00785733 0
M  V30 7614 H 720.399 1.95648 -0.625371 0
M  V30 7615 H 718.629 3.64483 1.29187 0
M  V30 7616 H 720.318 3.93618 0.990928 0
M  V30 7617 H 721.084 4.64696 -1.38862 0
M  V30 7618 H 716.963 4.60712 -0.163052 0
M  V30 7619 H 720.507 6.18 -3.23607 0
M  V30 7620 H 716.404 6.13664 -2.00218 0
M  V30 7621 H 717.172 7.28493 -3.73149 0
M  V30 7622 N 719.835 0.176821 1.56605 0
M  V30 7623 C 721.082 -0.466715 1.97048 0
M  V30 7624 C 721.41 -1.6288 1.06302 0
M  V30 7625 O 720.665 -1.95453 0.0982571 0
M  V30 7626 C 720.964 -0.986208 3.43524 0
M  V30 7627 C 720.63 0.0605667 4.50859 0
M  V30 7628 C 719.292 0.348242 4.79938 0
M  V30 7629 C 721.644 0.770794 5.15469 0
M  V30 7630 C 718.972 1.35144 5.70923 0
M  V30 7631 C 721.324 1.76301 6.07537 0
M  V30 7632 C 719.988 2.05808 6.3498 0
M  V30 7633 H 719.258 -0.170783 0.721051 0
M  V30 7634 H 721.905 0.269942 1.89588 0
M  V30 7635 H 720.21 -1.80079 3.47964 0
M  V30 7636 H 721.907 -1.49323 3.72161 0
M  V30 7637 H 718.497 -0.173823 4.28247 0
M  V30 7638 H 722.681 0.56176 4.9311 0
M  V30 7639 H 717.937 1.58616 5.90467 0
M  V30 7640 H 722.111 2.31868 6.56666 0
M  V30 7641 H 719.738 2.8369 7.05283 0
M  V30 7642 N 721.313 -1.57302 -0.09688 0
M  V30 7643 C 722.56 -1.85997 -0.800699 0
M  V30 7644 C 722.888 -0.765089 -1.7882 0
M  V30 7645 O 722.143 0.241492 -1.94204 0
M  V30 7646 C 722.442 -3.21272 -1.56586 0
M  V30 7647 C 722.108 -4.45104 -0.72064 0
M  V30 7648 C 720.77 -4.78723 -0.487632 0
M  V30 7649 C 723.122 -5.2103 -0.132948 0
M  V30 7650 C 720.45 -5.85697 0.34296 0
M  V30 7651 C 722.802 -6.28881 0.684957 0
M  V30 7652 C 721.466 -6.61017 0.928073 0
M  V30 7653 H 720.736 -0.680613 -0.292997 0
M  V30 7654 H 723.383 -1.91399 -0.0622474 0
M  V30 7655 H 721.688 -3.11547 -2.37583 0
M  V30 7656 H 723.385 -3.40702 -2.11478 0
M  V30 7657 H 719.975 -4.18777 -0.912359 0
M  V30 7658 H 724.159 -4.95392 -0.300132 0
M  V30 7659 H 719.415 -6.09008 0.540317 0
M  V30 7660 H 723.589 -6.86886 1.14721 0
M  V30 7661 H 721.216 -7.43738 1.57348 0
M  V30 7662 N 722.791 0.367657 -1.53252 0
M  V30 7663 C 724.038 1.11052 -1.69333 0
M  V30 7664 C 724.366 1.89363 -0.444064 0
M  V30 7665 O 723.621 1.87094 0.573953 0
M  V30 7666 C 723.92 2.09825 -2.89324 0
M  V30 7667 C 723.586 1.4801 -4.25915 0
M  V30 7668 C 722.248 1.30879 -4.6306 0
M  V30 7669 C 724.6 1.03268 -5.10867 0
M  V30 7670 C 721.928 0.675868 -5.82794 0
M  V30 7671 C 724.28 0.41377 -6.31245 0
M  V30 7672 C 722.944 0.229939 -6.67104 0
M  V30 7673 H 722.214 0.406367 -0.619634 0
M  V30 7674 H 724.861 0.392558 -1.87433 0
M  V30 7675 H 723.166 2.87917 -2.65728 0
M  V30 7676 H 724.863 2.67252 -2.98961 0
M  V30 7677 H 721.453 1.62336 -3.96667 0
M  V30 7678 H 725.637 1.15297 -4.82722 0
M  V30 7679 H 720.893 0.521833 -6.09169 0
M  V30 7680 H 725.067 0.0588768 -6.96375 0
M  V30 7681 H 722.694 -0.262562 -7.59746 0
M  V30 7682 N 724.269 1.44576 0.627338 0
M  V30 7683 C 725.685 1.28546 0.945938 0
M  V30 7684 C 725.885 0.224003 2.00251 0
M  V30 7685 O 724.941 -0.388817 2.49488 0
M  V30 7686 C 726.254 2.65825 1.40561 0
M  V30 7687 C 727.802 2.73566 1.52088 0
M  V30 7688 C 728.277 4.11323 2.01438 0
M  V30 7689 N 729.768 4.13519 2.08702 0
M  V30 7690 C 730.503 5.16964 2.48065 0
M  V30 7691 N 729.999 6.30768 2.86538 0
M  V30 7692 N 731.792 5.04319 2.48232 0
M  V30 7693 H 723.943 2.1228 -0.0713567 0
M  V30 7694 H 726.206 0.947503 0.0307081 0
M  V30 7695 H 725.912 3.44591 0.703539 0
M  V30 7696 H 725.786 2.92969 2.37591 0
M  V30 7697 H 728.173 1.95116 2.21391 0
M  V30 7698 H 728.254 2.50159 0.534237 0
M  V30 7699 H 727.898 4.9025 1.32729 0
M  V30 7700 H 727.828 4.32109 3.0098 0
M  V30 7701 H 730.319 3.31385 1.81638 0
M  V30 7702 H 730.632 7.0551 3.15398 0
M  V30 7703 H 728.977 6.342 2.84281 0
M  V30 7704 H 732.168 4.14465 2.17569 0
M  V30 7705 H 732.341 5.85059 2.78585 0
M  V30 7706 N 725.747 -0.868086 1.31537 0
M  V30 7707 C 726.995 -1.61807 1.21091 0
M  V30 7708 C 727.316 -1.93631 -0.230623 0
M  V30 7709 O 726.586 -1.5846 -1.15183 0
M  V30 7710 H 725.166 -0.599854 0.445178 0
M  V30 7711 H 727.828 -1.03915 1.64887 0
M  V30 7712 H 726.924 -2.56088 1.78396 0
M  V30 7713 N 727.225 -1.14528 -1.08264 0
M  V30 7714 C 728.474 -0.908992 -1.80056 0
M  V30 7715 C 728.787 0.565859 -1.87236 0
M  V30 7716 O 729.993 0.919454 -2.55457 0
M  V30 7717 C 728.449 -1.57681 -3.23519 0
M  V30 7718 C 728.057 -3.08803 -3.24569 0
M  V30 7719 C 729.801 -1.4217 -3.99985 0
M  V30 7720 C 727.708 -3.68414 -4.62629 0
M  V30 7721 H 726.638 -0.336432 -0.674781 0
M  V30 7722 H 729.289 -1.37437 -1.21587 0
M  V30 7723 H 727.671 -1.03911 -3.82124 0
M  V30 7724 H 728.845 -3.69252 -2.75663 0
M  V30 7725 H 727.16 -3.23968 -2.61598 0
M  V30 7726 H 729.757 -1.84106 -5.02005 0
M  V30 7727 H 730.1 -0.367989 -4.1467 0
M  V30 7728 H 730.633 -1.92984 -3.47853 0
M  V30 7729 H 727.372 -4.73644 -4.53147 0
M  V30 7730 H 726.892 -3.12746 -5.11811 0
M  V30 7731 H 728.571 -3.68793 -5.31602 0
M  V30 7732 N 728.703 1.26451 -0.940633 0
M  V30 7733 C 729.635 2.25556 -0.407104 0
M  V30 7734 C 730.648 1.55888 0.469324 0
M  V30 7735 O 731.837 1.76292 0.279858 0
M  V30 7736 C 728.937 3.36109 0.434064 0
M  V30 7737 C 728.11 4.3532 -0.426082 0
M  V30 7738 C 727.169 5.25004 0.354563 0
M  V30 7739 O 726.195 5.68684 -0.242219 0
M  V30 7740 N 727.397 5.5652 1.65123 0
M  V30 7741 H 730.162 2.7197 -1.25907 0
M  V30 7742 H 727.723 1.40212 -0.809456 0
M  V30 7743 H 729.715 3.93059 0.963684 0
M  V30 7744 H 728.285 2.89194 1.18683 0
M  V30 7745 H 727.505 3.77449 -1.13692 0
M  V30 7746 H 728.793 4.986 -1.01366 0
M  V30 7747 H 728.191 5.22912 2.15822 0
M  V30 7748 H 726.748 6.16115 2.12711 0
M  V30 7749 N 730.181 0.707592 1.40822 0
M  V30 7750 C 731.411 0.252706 2.05049 0
M  V30 7751 C 731.819 -1.10758 1.53393 0
M  V30 7752 O 731.162 -1.70567 0.682097 0
M  V30 7753 C 731.224 0.146001 3.59203 0
M  V30 7754 C 730.888 1.44027 4.33711 0
M  V30 7755 C 731.885 2.38058 4.62195 0
M  V30 7756 C 729.57 1.69698 4.72766 0
M  V30 7757 C 731.564 3.56013 5.28709 0
M  V30 7758 C 729.251 2.87936 5.39014 0
M  V30 7759 C 730.249 3.80915 5.66915 0
M  V30 7760 O 729.937 4.9708 6.31796 0
M  V30 7761 H 729.669 0.112784 0.666525 0
M  V30 7762 H 732.223 0.96417 1.81364 0
M  V30 7763 H 730.453 -0.621338 3.81676 0
M  V30 7764 H 732.142 -0.273275 4.04979 0
M  V30 7765 H 732.908 2.19487 4.32493 0
M  V30 7766 H 728.787 0.981835 4.50423 0
M  V30 7767 H 732.331 4.28604 5.50404 0
M  V30 7768 H 728.228 3.06419 5.68135 0
M  V30 7769 H 728.996 4.97053 6.50293 0
M  V30 7770 N 731.66 -1.50943 0.453197 0
M  V30 7771 C 732.907 -2.02212 -0.107922 0
M  V30 7772 C 733.235 -1.33639 -1.41318 0
M  V30 7773 O 732.49 -0.445154 -1.9057 0
M  V30 7774 C 732.789 -3.55603 -0.357944 0
M  V30 7775 C 732.455 -4.42556 0.863427 0
M  V30 7776 C 731.117 -4.6604 1.19834 0
M  V30 7777 C 733.469 -4.93468 1.67747 0
M  V30 7778 C 730.797 -5.37681 2.34768 0
M  V30 7779 C 733.149 -5.6637 2.81793 0
M  V30 7780 C 731.813 -5.88113 3.1572 0
M  V30 7781 H 731.083 -0.739947 -0.0394916 0
M  V30 7782 H 733.73 -1.81738 0.60363 0
M  V30 7783 H 732.035 -3.74495 -1.15156 0
M  V30 7784 H 733.732 -3.92821 -0.805781 0
M  V30 7785 H 730.322 -4.24485 0.592478 0
M  V30 7786 H 734.506 -4.75194 1.43192 0
M  V30 7787 H 729.762 -5.52727 2.61348 0
M  V30 7788 H 733.936 -6.04806 3.45229 0
M  V30 7789 H 731.563 -6.43404 4.04889 0
M  V30 7790 N 733.138 -0.185124 -1.56509 0
M  V30 7791 C 734.068 0.735098 -2.21627 0
M  V30 7792 C 735.049 1.2288 -1.1762 0
M  V30 7793 O 736.234 1.27945 -1.46095 0
M  V30 7794 C 733.364 1.95889 -2.86783 0
M  V30 7795 C 732.318 1.6005 -3.96948 0
M  V30 7796 C 731.644 2.90009 -4.4922 0
M  V30 7797 C 732.944 0.818008 -5.15855 0
M  V30 7798 H 734.638 0.192274 -2.98782 0
M  V30 7799 H 732.184 0.0910393 -1.43712 0
M  V30 7800 H 734.137 2.60779 -3.31017 0
M  V30 7801 H 732.861 2.52608 -2.07018 0
M  V30 7802 H 731.52 0.975237 -3.5339 0
M  V30 7803 H 731.168 3.44797 -3.6623 0
M  V30 7804 H 730.868 2.66778 -5.23549 0
M  V30 7805 H 732.392 3.55904 -4.9615 0
M  V30 7806 H 733.806 1.36979 -5.56695 0
M  V30 7807 H 732.203 0.684207 -5.96187 0
M  V30 7808 H 733.273 -0.182939 -4.84555 0
M  V30 7809 N 734.616 1.57351 0.0885366 0
M  V30 7810 C 735.548 1.99221 1.13329 0
M  V30 7811 C 736.561 0.895705 1.35945 0
M  V30 7812 O 737.75 1.17376 1.34481 0
M  V30 7813 C 734.85 2.3016 2.48756 0
M  V30 7814 C 734.023 3.61444 2.46327 0
M  V30 7815 C 733.082 3.80244 3.63732 0
M  V30 7816 O 732.108 4.52024 3.45924 0
M  V30 7817 N 733.31 3.2132 4.8346 0
M  V30 7818 H 736.075 2.89456 0.776862 0
M  V30 7819 H 733.636 1.59505 0.277428 0
M  V30 7820 H 735.628 2.39925 3.25911 0
M  V30 7821 H 734.198 1.459 2.76464 0
M  V30 7822 H 733.418 3.62588 1.54673 0
M  V30 7823 H 734.706 4.47678 2.41789 0
M  V30 7824 H 734.104 2.63028 5.00832 0
M  V30 7825 H 732.661 3.3656 5.58185 0
M  V30 7826 N 736.094 -0.359525 1.53444 0
M  V30 7827 C 737.51 -0.701599 1.43352 0
M  V30 7828 C 737.71 -1.93049 0.577439 0
M  V30 7829 O 736.766 -2.52423 0.0622224 0
M  V30 7830 C 738.079 -0.90915 2.86627 0
M  V30 7831 C 739.627 -1.00878 2.96298 0
M  V30 7832 C 740.102 -1.24876 4.40647 0
M  V30 7833 N 741.593 -1.31632 4.44103 0
M  V30 7834 C 742.328 -1.51922 5.52908 0
M  V30 7835 N 741.824 -1.69489 6.71748 0
M  V30 7836 N 743.617 -1.54341 5.40496 0
M  V30 7837 H 735.768 0.448685 2.07607 0
M  V30 7838 H 738.031 0.138713 0.937797 0
M  V30 7839 H 737.737 -0.0778997 3.51614 0
M  V30 7840 H 737.611 -1.81551 3.30634 0
M  V30 7841 H 739.998 -1.83057 2.31461 0
M  V30 7842 H 740.079 -0.0796721 2.55676 0
M  V30 7843 H 739.723 -0.431961 5.0606 0
M  V30 7844 H 739.653 -2.19118 4.78848 0
M  V30 7845 H 742.144 -1.19646 3.5846 0
M  V30 7846 H 742.457 -1.84561 7.50438 0
M  V30 7847 H 740.802 -1.66655 6.74723 0
M  V30 7848 H 743.993 -1.40188 4.46615 0
M  V30 7849 H 744.166 -1.69812 6.25354 0
M  V30 7850 N 737.572 -1.44907 -0.619662 0
M  V30 7851 C 738.988 -1.29046 -0.939107 0
M  V30 7852 C 739.188 -0.23462 -2.00129 0
M  V30 7853 O 738.244 0.37558 -2.49691 0
M  V30 7854 C 739.557 -2.66567 -1.39149 0
M  V30 7855 C 741.105 -2.74368 -1.50635 0
M  V30 7856 C 741.58 -4.12386 -1.99253 0
M  V30 7857 N 743.071 -4.1462 -2.06506 0
M  V30 7858 C 743.806 -5.18272 -2.4532 0
M  V30 7859 N 743.302 -6.32278 -2.83189 0
M  V30 7860 N 745.095 -5.05628 -2.45554 0
M  V30 7861 H 737.246 -2.12239 0.0826135 0
M  V30 7862 H 739.509 -0.947652 -0.0256829 0
M  V30 7863 H 739.215 -3.4496 -0.685254 0
M  V30 7864 H 739.089 -2.94224 -2.36034 0
M  V30 7865 H 741.476 -1.96287 -2.20353 0
M  V30 7866 H 741.557 -2.50439 -0.520963 0
M  V30 7867 H 741.201 -4.90947 -1.30127 0
M  V30 7868 H 741.131 -4.33699 -2.98684 0
M  V30 7869 H 743.622 -3.32343 -1.79878 0
M  V30 7870 H 743.935 -7.07172 -3.11652 0
M  V30 7871 H 742.28 -6.35699 -2.80913 0
M  V30 7872 H 745.471 -4.15613 -2.15367 0
M  V30 7873 H 745.644 -5.86529 -2.75478 0
M  V30 7874 N 739.05 0.861098 -1.31996 0
M  V30 7875 C 740.461 1.43065 -1.19955 0
M  V30 7876 C 740.812 1.95273 0.190489 0
M  V30 7877 O 739.937 1.87012 1.08882 0
M  V30 7878 C 740.532 2.60052 -2.1716 0
M  V30 7879 C 739.091 3.13026 -2.09026 0
M  V30 7880 C 738.238 1.85756 -2.05888 0
M  V30 7881 H 741.189 0.668834 -1.43918 0
M  V30 7882 H 741.21 3.37016 -1.76637 0
M  V30 7883 H 740.722 2.22024 -3.18319 0
M  V30 7884 H 738.823 3.55653 -1.11092 0
M  V30 7885 H 738.936 3.74707 -2.98549 0
M  V30 7886 H 737.3 2.05088 -1.51033 0
M  V30 7887 H 738.083 1.49954 -3.08818 0
M  V30 7888 N 740.528 1.15101 1.07655 0
M  V30 7889 C 741.753 0.948177 1.84457 0
M  V30 7890 C 742.178 -0.498432 1.81376 0
M  V30 7891 O 741.536 -1.35509 1.20445 0
M  V30 7892 C 741.584 1.46318 3.29581 0
M  V30 7893 O 740.688 0.660342 4.07079 0
M  V30 7894 H 740.029 0.338428 0.571281 0
M  V30 7895 H 742.559 1.5301 1.35828 0
M  V30 7896 H 742.569 1.47468 3.80417 0
M  V30 7897 H 741.244 2.51635 3.31138 0
M  V30 7898 H 739.821 0.718216 3.65918 0
M  V30 7899 N 742.006 -1.2595 0.947325 0
M  V30 7900 C 742.939 -2.24559 0.406009 0
M  V30 7901 C 743.917 -1.54441 -0.508598 0
M  V30 7902 O 745.101 -1.83181 -0.444644 0
M  V30 7903 C 742.228 -3.36136 -0.415987 0
M  V30 7904 C 741.274 -4.24245 0.437969 0
M  V30 7905 S 742.107 -5.01948 1.86572 0
M  V30 7906 C 743.263 -6.16997 1.05194 0
M  V30 7907 H 743.496 -2.70128 1.24171 0
M  V30 7908 H 741.029 -1.34912 0.750874 0
M  V30 7909 H 742.987 -4.00861 -0.88433 0
M  V30 7910 H 741.648 -2.89167 -1.22643 0
M  V30 7911 H 740.841 -5.03634 -0.192127 0
M  V30 7912 H 740.443 -3.64416 0.841235 0
M  V30 7913 H 742.735 -6.76848 0.297126 0
M  V30 7914 H 743.678 -6.84324 1.8195 0
M  V30 7915 H 744.086 -5.61458 0.585294 0
M  V30 7916 N 743.484 -0.715051 -1.40445 0
M  V30 7917 C 744.431 -0.0621393 -2.30716 0
M  V30 7918 C 745.401 0.750871 -1.48159 0
M  V30 7919 O 746.586 0.714928 -1.76899 0
M  V30 7920 C 743.726 0.854036 -3.34365 0
M  V30 7921 C 742.839 0.0305565 -4.31989 0
M  V30 7922 C 741.974 0.946162 -5.22706 0
M  V30 7923 C 741.013 0.116741 -6.11989 0
M  V30 7924 N 740.15 0.987194 -6.95125 0
M  V30 7925 H 744.99 -0.83764 -2.85985 0
M  V30 7926 H 742.527 -0.424759 -1.40834 0
M  V30 7927 H 744.485 1.39946 -3.93028 0
M  V30 7928 H 743.115 1.59572 -2.806 0
M  V30 7929 H 742.167 -0.632044 -3.75112 0
M  V30 7930 H 743.479 -0.611615 -4.95036 0
M  V30 7931 H 742.633 1.56014 -5.86297 0
M  V30 7932 H 741.372 1.62216 -4.59932 0
M  V30 7933 H 740.377 -0.510176 -5.47428 0
M  V30 7934 H 741.602 -0.555742 -6.76822 0
M  V30 7935 H 739.548 1.64885 -6.3494 0
M  V30 7936 H 739.465 0.401046 -7.54936 0
M  V30 7937 H 740.733 1.58737 -7.63166 0
M  V30 7938 N 744.962 1.50701 -0.461195 0
M  V30 7939 C 746.19 2.06681 0.0951756 0
M  V30 7940 C 746.605 1.32615 1.34382 0
M  V30 7941 O 745.962 0.392531 1.78229 0
M  V30 7942 C 746.013 3.59354 0.393316 0
M  V30 7943 O 745.734 4.30626 -0.805797 0
M  V30 7944 C 747.235 4.31926 0.997744 0
M  V30 7945 H 744.455 0.670995 -0.00267259 0
M  V30 7946 H 746.999 1.93991 -0.647137 0
M  V30 7947 H 745.154 3.7188 1.08555 0
M  V30 7948 H 745.568 5.21667 -0.544409 0
M  V30 7949 H 747.042 5.39756 1.15619 0
M  V30 7950 H 747.519 3.91772 1.98523 0
M  V30 7951 H 748.125 4.23905 0.344188 0
M  V30 7952 N 746.441 0.193421 1.56409 0
M  V30 7953 C 747.371 -0.723334 2.22014 0
M  V30 7954 C 748.352 -1.22254 1.1827 0
M  V30 7955 O 749.537 -1.27168 1.46771 0
M  V30 7956 C 746.667 -1.94366 2.87818 0
M  V30 7957 C 745.621 -1.57943 3.97791 0
M  V30 7958 C 744.947 -2.87623 4.50752 0
M  V30 7959 C 746.247 -0.790639 5.16281 0
M  V30 7960 H 747.941 -0.176426 2.9888 0
M  V30 7961 H 745.487 -0.0834166 1.43758 0
M  V30 7962 H 747.44 -2.5902 3.32396 0
M  V30 7963 H 746.164 -2.51507 2.08355 0
M  V30 7964 H 744.823 -0.956482 3.53903 0
M  V30 7965 H 744.471 -3.4285 3.68053 0
M  V30 7966 H 744.171 -2.63998 5.24956 0
M  V30 7967 H 745.695 -3.53268 4.9803 0
M  V30 7968 H 747.109 -1.34024 5.57414 0
M  V30 7969 H 745.506 -0.65258 5.96541 0
M  V30 7970 H 746.576 0.208633 4.84451 0
M  V30 7971 N 747.919 -1.57396 -0.0801906 0
M  V30 7972 C 749.166 -1.86836 -0.780927 0
M  V30 7973 C 749.494 -0.784012 -1.77999 0
M  V30 7974 O 748.749 0.220881 -1.94449 0
M  V30 7975 C 749.048 -3.22915 -1.53169 0
M  V30 7976 C 748.714 -4.45843 -0.67339 0
M  V30 7977 C 747.376 -4.79213 -0.436829 0
M  V30 7978 C 749.728 -5.21142 -0.0776786 0
M  V30 7979 C 747.056 -5.853 0.405062 0
M  V30 7980 C 749.408 -6.28119 0.751619 0
M  V30 7981 C 748.072 -6.59995 0.998131 0
M  V30 7982 H 747.342 -0.683682 -0.285761 0
M  V30 7983 H 749.989 -1.91454 -0.0419435 0
M  V30 7984 H 748.294 -3.14049 -2.34265 0
M  V30 7985 H 749.991 -3.42926 -2.07853 0
M  V30 7986 H 746.581 -4.19721 -0.867891 0
M  V30 7987 H 750.765 -4.95682 -0.247572 0
M  V30 7988 H 746.021 -6.084 0.60488 0
M  V30 7989 H 750.195 -6.8563 1.22 0
M  V30 7990 H 747.822 -7.42027 1.65227 0
M  V30 7991 N 749.397 0.351382 -1.53633 0
M  V30 7992 C 750.643 1.09411 -1.70754 0
M  V30 7993 C 750.976 1.88544 -0.465293 0
M  V30 7994 O 750.251 1.86923 0.537608 0
M  V30 7995 C 750.534 2.04173 -2.96623 0
M  V30 7996 C 750.387 1.28556 -4.31038 0
M  V30 7997 C 751.706 3.04102 -3.18136 0
M  V30 7998 H 748.825 0.396373 -0.621335 0
M  V30 7999 H 751.467 0.373464 -1.86293 0
M  V30 8000 H 749.617 2.65625 -2.83506 0
M  V30 8001 H 751.289 0.697786 -4.55992 0
M  V30 8002 H 749.532 0.587498 -4.29803 0
M  V30 8003 H 750.203 1.97989 -5.15271 0
M  V30 8004 H 752.679 2.5276 -3.30532 0
M  V30 8005 H 751.555 3.67616 -4.07615 0
M  V30 8006 H 751.816 3.75053 -2.34068 0
M  V30 8007 N 750.875 1.45233 0.611969 0
M  V30 8008 C 752.152 1.39495 1.37115 0
M  V30 8009 C 752.532 0.0633303 2.11005 0
M  V30 8010 O 751.88 -0.954617 2.07604 0
M  V30 8011 C 752.09 2.60579 2.32163 0
M  V30 8012 C 753.438 3.05477 2.94905 0
M  V30 8013 O 754.462 2.60921 2.42485 0
M  V30 8014 O 753.321 3.82787 3.90047 0
M  V30 8015 H 750.415 0.55335 0.614599 0
M  V30 8016 H 752.961 1.57355 0.635423 0
M  V30 8017 H 751.733 3.49085 1.76793 0
M  V30 8018 H 751.356 2.45031 3.13122 0
M  V30 8019 N 752.353 -0.854086 1.3245 0
M  V30 8020 C 753.578 -1.64597 1.26185 0
M  V30 8021 C 754.003 -1.87357 -0.167074 0
M  V30 8022 O 753.361 -1.42675 -1.11864 0
M  V30 8023 C 753.409 -2.98213 2.02734 0
M  V30 8024 O 752.513 -3.88784 1.37554 0
M  V30 8025 H 751.854 -0.50179 0.434859 0
M  V30 8026 H 754.384 -1.06372 1.74775 0
M  V30 8027 H 754.394 -3.4803 2.1293 0
M  V30 8028 H 753.069 -2.80969 3.06642 0
M  V30 8029 H 751.646 -3.4725 1.3591 0
M  V30 8030 N 753.831 -1.1567 -1.07043 0
M  V30 8031 C 755.061 -0.956083 -1.83146 0
M  V30 8032 C 755.469 0.498969 -1.82502 0
M  V30 8033 O 754.812 1.35791 -1.23719 0
M  V30 8034 C 754.874 -1.39704 -3.31245 0
M  V30 8035 C 754.538 -2.87045 -3.55604 0
M  V30 8036 C 755.535 -3.85092 -3.49285 0
M  V30 8037 C 753.22 -3.24787 -3.8317 0
M  V30 8038 C 755.214 -5.18885 -3.70185 0
M  V30 8039 C 752.901 -4.58751 -4.03721 0
M  V30 8040 C 753.899 -5.55609 -3.97224 0
M  V30 8041 O 753.587 -6.87154 -4.17223 0
M  V30 8042 H 753.319 -0.339473 -0.58458 0
M  V30 8043 H 755.873 -1.53922 -1.36005 0
M  V30 8044 H 754.103 -0.757326 -3.79212 0
M  V30 8045 H 755.792 -1.16503 -3.88821 0
M  V30 8046 H 756.558 -3.5728 -3.27988 0
M  V30 8047 H 752.437 -2.49979 -3.87339 0
M  V30 8048 H 755.981 -5.94473 -3.6503 0
M  V30 8049 H 751.878 -4.86277 -4.24505 0
M  V30 8050 H 752.646 -6.93618 -4.34553 0
M  V30 8051 N 755.309 1.25446 -0.953992 0
M  V30 8052 C 756.534 1.97755 -0.625129 0
M  V30 8053 C 756.959 1.70437 0.795787 0
M  V30 8054 O 756.317 0.95992 1.53803 0
M  V30 8055 C 756.365 3.49463 -0.889251 0
M  V30 8056 O 755.469 4.12387 0.0322757 0
M  V30 8057 H 754.81 0.61998 -0.237742 0
M  V30 8058 H 757.34 1.59582 -1.28041 0
M  V30 8059 H 757.35 3.99772 -0.815263 0
M  V30 8060 H 756.025 3.68676 -1.92487 0
M  V30 8061 H 754.602 3.72782 -0.0938625 0
M  V30 8062 N 756.787 0.722489 1.40064 0
M  V30 8063 C 757.697 0.0755984 2.34478 0
M  V30 8064 C 758.713 -0.736046 1.57665 0
M  V30 8065 O 759.889 -0.667407 1.9002 0
M  V30 8066 C 756.954 -0.830075 3.36616 0
M  V30 8067 C 756.015 -0.00759884 4.29299 0
M  V30 8068 C 755.248 -0.870139 5.26559 0
M  V30 8069 O 755.471 -2.10921 5.2997 0
M  V30 8070 O 754.405 -0.305454 6.01124 0
M  V30 8071 H 758.231 0.854545 2.9143 0
M  V30 8072 H 755.816 0.483032 1.41376 0
M  V30 8073 H 757.698 -1.34864 3.99236 0
M  V30 8074 H 756.373 -1.58805 2.82069 0
M  V30 8075 H 755.28 0.556199 3.69942 0
M  V30 8076 H 756.613 0.712312 4.87018 0
M  V30 8077 N 758.265 -1.50454 0.469181 0
M  V30 8078 C 759.198 -2.25149 -0.371928 0
M  V30 8079 C 760.176 -1.28382 -0.997845 0
M  V30 8080 O 761.36 -1.57599 -1.03415 0
M  V30 8081 C 758.487 -3.02629 -1.52097 0
M  V30 8082 C 757.533 -4.14305 -1.01262 0
M  V30 8083 S 758.366 -5.35453 0.0711459 0
M  V30 8084 C 759.522 -6.1648 -1.08181 0
M  V30 8085 H 759.755 -2.96142 0.262134 0
M  V30 8086 H 757.288 -1.52296 0.254042 0
M  V30 8087 H 759.246 -3.47861 -2.17952 0
M  V30 8088 H 757.907 -2.31165 -2.12654 0
M  V30 8089 H 757.1 -4.67913 -1.87278 0
M  V30 8090 H 756.702 -3.71499 -0.431804 0
M  V30 8091 H 758.994 -6.47497 -1.99382 0
M  V30 8092 H 759.937 -7.05679 -0.585028 0
M  V30 8093 H 760.345 -5.48492 -1.33478 0
M  V30 8094 N 759.743 -0.201713 -1.56304 0
M  V30 8095 C 760.673 0.71155 -2.22394 0
M  V30 8096 C 761.654 1.21625 -1.18917 0
M  V30 8097 O 762.839 1.26388 -1.47444 0
M  V30 8098 C 759.969 1.92837 -2.88845 0
M  V30 8099 C 758.923 1.55831 -3.98623 0
M  V30 8100 C 758.249 2.85228 -4.52271 0
M  V30 8101 C 759.549 0.763249 -5.16693 0
M  V30 8102 H 761.243 0.160573 -2.98969 0
M  V30 8103 H 758.789 0.0757916 -1.438 0
M  V30 8104 H 760.742 2.57253 -3.33764 0
M  V30 8105 H 759.466 2.50398 -2.09686 0
M  V30 8106 H 758.125 0.9377 -3.54405 0
M  V30 8107 H 757.773 3.40893 -3.69866 0
M  V30 8108 H 757.473 2.6121 -5.26349 0
M  V30 8109 H 758.997 3.50622 -4.99897 0
M  V30 8110 H 760.411 1.31066 -5.58117 0
M  V30 8111 H 758.808 0.620935 -5.96879 0
M  V30 8112 H 759.878 -0.234322 -4.84334 0
M  V30 8113 N 761.222 1.57436 0.0718424 0
M  V30 8114 C 762.469 1.87248 0.771007 0
M  V30 8115 C 762.797 0.793441 1.7758 0
M  V30 8116 O 762.052 -0.210565 1.94564 0
M  V30 8117 C 762.351 3.23723 1.51455 0
M  V30 8118 C 762.017 4.46194 0.649736 0
M  V30 8119 C 760.679 4.79438 0.411409 0
M  V30 8120 C 763.031 5.21176 0.05004 0
M  V30 8121 C 760.359 5.85077 -0.436096 0
M  V30 8122 C 762.711 6.27712 -0.784919 0
M  V30 8123 C 761.375 6.59457 -1.03312 0
M  V30 8124 H 760.645 0.685188 0.282132 0
M  V30 8125 H 763.292 1.91474 0.0317896 0
M  V30 8126 H 761.597 3.15287 2.32597 0
M  V30 8127 H 763.294 3.44023 2.06031 0
M  V30 8128 H 759.884 4.20175 0.84562 0
M  V30 8129 H 764.068 4.95806 0.221282 0
M  V30 8130 H 759.324 6.08071 -0.637136 0
M  V30 8131 H 763.498 6.84974 -1.25635 0
M  V30 8132 H 761.125 7.4114 -1.6916 0
M  V30 8133 N 762.7 -0.34323 1.53817 0
M  V30 8134 C 763.947 -1.08344 1.71079 0
M  V30 8135 C 764.275 -1.88633 0.474133 0
M  V30 8136 O 763.53 -1.87984 -0.544116 0
M  V30 8137 C 763.829 -2.05195 2.92626 0
M  V30 8138 C 763.495 -1.41215 4.28216 0
M  V30 8139 C 762.157 -1.23495 4.65083 0
M  V30 8140 C 764.509 -0.951273 5.12445 0
M  V30 8141 C 761.837 -0.583065 5.83796 0
M  V30 8142 C 764.189 -0.313292 6.31824 0
M  V30 8143 C 762.853 -0.123779 6.67385 0
M  V30 8144 H 762.123 -0.396458 0.626021 0
M  V30 8145 H 764.77 -0.362689 1.88034 0
M  V30 8146 H 763.075 -2.83653 2.70275 0
M  V30 8147 H 764.772 -2.62462 3.03175 0
M  V30 8148 H 761.362 -1.56005 3.992 0
M  V30 8149 H 765.546 -1.07602 4.84495 0
M  V30 8150 H 760.802 -0.424854 6.09922 0
M  V30 8151 H 764.976 0.0519179 6.96381 0
M  V30 8152 H 762.603 0.383398 7.59233 0
M  V30 8153 N 764.178 -1.45556 -0.604258 0
M  V30 8154 C 765.108 -1.57327 -1.72541 0
M  V30 8155 C 766.089 -0.424637 -1.64714 0
M  V30 8156 O 767.274 -0.648196 -1.83063 0
M  V30 8157 C 764.404 -1.54279 -3.11152 0
M  V30 8158 C 763.358 -2.67893 -3.33792 0
M  V30 8159 C 762.684 -2.499 -4.72709 0
M  V30 8160 C 763.984 -4.0988 -3.23722 0
M  V30 8161 H 765.678 -2.51175 -1.62947 0
M  V30 8162 H 763.224 -1.20884 -0.782504 0
M  V30 8163 H 765.177 -1.6111 -3.89386 0
M  V30 8164 H 763.901 -0.569627 -3.21594 0
M  V30 8165 H 762.56 -2.60495 -2.57949 0
M  V30 8166 H 762.208 -1.50715 -4.79889 0
M  V30 8167 H 761.908 -3.26091 -4.88813 0
M  V30 8168 H 763.432 -2.5859 -5.5314 0
M  V30 8169 H 764.846 -4.18503 -3.91826 0
M  V30 8170 H 763.243 -4.86487 -3.51355 0
M  V30 8171 H 764.313 -4.31553 -2.21111 0
M  V30 8172 N 765.656 0.84705 -1.32902 0
M  V30 8173 C 766.588 1.96308 -1.18304 0
M  V30 8174 C 767.601 1.62386 -0.116082 0
M  V30 8175 O 768.79 1.74713 -0.365751 0
M  V30 8176 C 765.89 3.29556 -0.790305 0
M  V30 8177 C 765.063 3.91668 -1.94717 0
M  V30 8178 C 764.122 5.0326 -1.53674 0
M  V30 8179 O 763.148 5.22847 -2.24989 0
M  V30 8180 N 764.35 5.78852 -0.437075 0
M  V30 8181 H 767.115 2.09369 -2.14441 0
M  V30 8182 H 764.676 1.02233 -1.25539 0
M  V30 8183 H 766.668 4.01624 -0.49799 0
M  V30 8184 H 765.238 3.12497 0.0801286 0
M  V30 8185 H 764.458 3.12292 -2.40557 0
M  V30 8186 H 765.746 4.299 -2.72146 0
M  V30 8187 H 765.144 5.65484 0.156316 0
M  V30 8188 H 763.701 6.51479 -0.204399 0
M  V30 8189 N 767.134 1.16236 1.06428 0
M  V30 8190 C 768.359 0.967688 1.83441 0
M  V30 8191 C 768.784 -0.479167 1.81894 0
M  V30 8192 O 768.142 -1.34224 1.21875 0
M  V30 8193 C 768.19 1.49806 3.2801 0
M  V30 8194 O 767.294 0.703481 4.06356 0
M  V30 8195 H 766.635 0.344468 0.56766 0
M  V30 8196 H 769.165 1.54442 1.34197 0
M  V30 8197 H 769.175 1.51495 3.78831 0
M  V30 8198 H 767.85 2.55133 3.2845 0
M  V30 8199 H 766.427 0.756986 3.65136 0
M  V30 8200 N 768.612 -1.24939 0.960631 0
M  V30 8201 C 769.542 -2.28 0.503815 0
M  V30 8202 C 770.523 -1.63959 -0.452928 0
M  V30 8203 O 771.708 -1.91009 -0.350585 0
M  V30 8204 C 768.838 -3.46643 -0.213535 0
M  V30 8205 C 767.792 -4.22903 0.658535 0
M  V30 8206 C 767.118 -5.34363 -0.189902 0
M  V30 8207 C 768.418 -4.84949 1.93963 0
M  V30 8208 H 770.112 -2.66462 1.36521 0
M  V30 8209 H 767.658 -1.28093 0.657897 0
M  V30 8210 H 769.611 -4.1787 -0.544286 0
M  V30 8211 H 768.335 -3.07187 -1.10923 0
M  V30 8212 H 766.994 -3.53467 0.972455 0
M  V30 8213 H 766.642 -4.91147 -1.08553 0
M  V30 8214 H 766.342 -5.86302 0.390331 0
M  V30 8215 H 767.866 -6.0842 -0.515484 0
M  V30 8216 H 769.28 -5.48288 1.67491 0
M  V30 8217 H 767.677 -5.47091 2.46601 0
M  V30 8218 H 768.747 -4.06799 2.639 0
M  V30 8219 N 770.09 -0.729906 -1.39679 0
M  V30 8220 C 771.337 -0.275622 -2.00615 0
M  V30 8221 C 771.665 1.13559 -1.57907 0
M  V30 8222 O 770.92 1.78745 -0.796789 0
M  V30 8223 C 771.219 -0.319564 -3.55968 0
M  V30 8224 C 770.885 -1.68308 -4.1831 0
M  V30 8225 C 769.547 -2.05629 -4.35052 0
M  V30 8226 C 771.899 -2.57857 -4.52945 0
M  V30 8227 C 769.227 -3.32018 -4.83716 0
M  V30 8228 C 771.579 -3.83613 -5.03015 0
M  V30 8229 C 770.243 -4.21033 -5.17965 0
M  V30 8230 H 769.513 -0.100857 -0.734104 0
M  V30 8231 H 772.16 -0.93575 -1.67081 0
M  V30 8232 H 770.465 0.42414 -3.89497 0
M  V30 8233 H 772.162 0.0499905 -4.00969 0
M  V30 8234 H 768.752 -1.3829 -4.05677 0
M  V30 8235 H 772.936 -2.30295 -4.39634 0
M  V30 8236 H 768.192 -3.6096 -4.93475 0
M  V30 8237 H 772.366 -4.53162 -5.28788 0
M  V30 8238 H 769.993 -5.19034 -5.55435 0
M  V30 8239 N 771.568 1.50203 -0.477153 0
M  V30 8240 C 772.501 2.25343 0.359983 0
M  V30 8241 C 773.479 1.28909 0.991022 0
M  V30 8242 O 774.663 1.58146 1.02578 0
M  V30 8243 C 771.79 3.03431 1.5049 0
M  V30 8244 C 770.836 4.14836 0.99063 0
M  V30 8245 S 771.669 5.35407 -0.0995413 0
M  V30 8246 C 772.825 6.17045 1.04911 0
M  V30 8247 H 773.058 2.95999 -0.277836 0
M  V30 8248 H 770.591 1.52159 -0.262115 0
M  V30 8249 H 772.549 3.49012 2.16105 0
M  V30 8250 H 771.21 2.32289 2.11425 0
M  V30 8251 H 770.403 4.689 1.84794 0
M  V30 8252 H 770.005 3.71723 0.412097 0
M  V30 8253 H 772.297 6.48546 1.95946 0
M  V30 8254 H 773.24 7.05979 0.547596 0
M  V30 8255 H 773.648 5.49193 1.30567 0
M  V30 8256 N 773.046 0.209999 1.56195 0
M  V30 8257 C 773.976 -0.699746 2.22769 0
M  V30 8258 C 774.957 -1.20993 1.1956 0
M  V30 8259 O 776.142 -1.25605 1.48112 0
M  V30 8260 C 773.272 -1.91302 2.89863 0
M  V30 8261 C 772.226 -1.53715 3.99444 0
M  V30 8262 C 771.552 -2.82826 4.53777 0
M  V30 8263 C 772.852 -0.735836 5.17091 0
M  V30 8264 H 774.546 -0.144716 2.9905 0
M  V30 8265 H 772.092 -0.0681645 1.43839 0
M  V30 8266 H 774.045 -2.5548 3.35124 0
M  V30 8267 H 772.769 -2.49283 2.11011 0
M  V30 8268 H 771.428 -0.918892 3.54897 0
M  V30 8269 H 771.076 -3.38927 3.71669 0
M  V30 8270 H 770.776 -2.58415 5.27727 0
M  V30 8271 H 772.3 -3.47966 5.01749 0
M  V30 8272 H 773.714 -1.28105 5.58804 0
M  V30 8273 H 772.111 -0.589272 5.972 0
M  V30 8274 H 773.181 0.260004 4.84202 0
M  V30 8275 N 774.524 -1.57472 -0.0634922 0
M  V30 8276 C 775.487 -2.03268 -1.059 0
M  V30 8277 C 776.487 -0.931028 -1.31105 0
M  V30 8278 O 777.677 -1.19567 -1.26686 0
M  V30 8279 C 774.809 -2.42039 -2.40062 0
M  V30 8280 H 776.002 -2.92454 -0.664119 0
M  V30 8281 H 773.555 -1.53206 -0.309444 0
M  V30 8282 H 774.29 -1.55904 -2.84367 0
M  V30 8283 H 774.075 -3.22437 -2.23108 0
M  V30 8284 H 775.565 -2.78017 -3.11603 0
M  V30 8285 N 776.003 0.335068 -1.53997 0
M  V30 8286 C 777.231 1.09418 -1.756 0
M  V30 8287 C 777.646 1.82083 -0.499138 0
M  V30 8288 O 777.003 1.74646 0.529631 0
M  V30 8289 C 777.054 2.10115 -2.94166 0
M  V30 8290 O 776.775 1.40404 -4.14992 0
M  V30 8291 C 778.276 2.98336 -3.27888 0
M  V30 8292 H 775.496 0.32595 -0.586513 0
M  V30 8293 H 778.04 0.384693 -2.00849 0
M  V30 8294 H 776.195 2.76616 -2.71224 0
M  V30 8295 H 776.609 2.07743 -4.81605 0
M  V30 8296 H 778.083 3.6491 -4.1418 0
M  V30 8297 H 778.56 3.64814 -2.44556 0
M  V30 8298 H 779.166 2.37412 -3.52868 0
M  V30 8299 N 777.481 1.45874 0.596531 0
M  V30 8300 C 778.727 1.5069 1.35722 0
M  V30 8301 C 779.06 0.152506 1.936 0
M  V30 8302 O 778.335 -0.834411 1.75692 0
M  V30 8303 C 778.618 2.59474 2.4969 0
M  V30 8304 C 778.471 4.04396 1.96937 0
M  V30 8305 C 779.79 2.64451 3.51787 0
M  V30 8306 H 776.909 0.548611 0.492133 0
M  V30 8307 H 779.551 1.77741 0.671428 0
M  V30 8308 H 777.701 2.36539 3.08191 0
M  V30 8309 H 779.373 4.38576 1.43 0
M  V30 8310 H 777.616 4.14529 1.27859 0
M  V30 8311 H 778.287 4.76218 2.79143 0
M  V30 8312 H 780.763 2.85031 3.03145 0
M  V30 8313 H 779.639 3.42411 4.29006 0
M  V30 8314 H 779.9 1.69965 4.08123 0
M  V30 8315 N 778.959 -0.83999 1.33349 0
M  V30 8316 C 780.205 -1.59753 1.24927 0
M  V30 8317 C 780.538 -1.93318 -0.184855 0
M  V30 8318 O 779.813 -1.586 -1.12589 0
M  V30 8319 C 780.096 -2.90829 2.12345 0
M  V30 8320 C 779.949 -2.63953 3.6421 0
M  V30 8321 C 781.268 -3.92246 1.99577 0
M  V30 8322 H 778.387 -0.579654 0.45516 0
M  V30 8323 H 781.029 -0.968909 1.63439 0
M  V30 8324 H 779.179 -3.44478 1.79631 0
M  V30 8325 H 780.851 -2.16745 4.07209 0
M  V30 8326 H 779.094 -1.97671 3.86146 0
M  V30 8327 H 779.765 -3.57348 4.20721 0
M  V30 8328 H 782.241 -3.479 2.28265 0
M  V30 8329 H 781.117 -4.81793 2.62996 0
M  V30 8330 H 781.378 -4.3138 0.967673 0
M  V30 8331 N 780.437 -1.16799 -1.0581 0
M  V30 8332 C 781.367 -0.902241 -2.15364 0
M  V30 8333 C 782.348 0.153351 -1.69407 0
M  V30 8334 O 783.533 0.00442032 -1.94199 0
M  V30 8335 C 780.663 -0.407911 -3.44896 0
M  V30 8336 C 779.617 -1.40197 -4.04387 0
M  V30 8337 C 778.943 -0.765848 -5.29187 0
M  V30 8338 C 780.243 -2.77316 -4.42598 0
M  V30 8339 H 781.937 -1.81841 -2.37853 0
M  V30 8340 H 779.483 -0.875731 -1.14311 0
M  V30 8341 H 781.436 -0.20945 -4.20879 0
M  V30 8342 H 780.16 0.54378 -3.22041 0
M  V30 8343 H 778.819 -1.58707 -3.30466 0
M  V30 8344 H 778.467 0.192482 -5.02632 0
M  V30 8345 H 778.167 -1.42939 -5.69949 0
M  V30 8346 H 779.691 -0.577519 -6.07863 0
M  V30 8347 H 781.105 -2.62561 -5.09642 0
M  V30 8348 H 779.502 -3.4019 -4.94359 0
M  V30 8349 H 780.572 -3.32199 -3.53231 0
M  V30 8350 N 781.915 1.24427 -0.967243 0
M  V30 8351 C 783.145 1.96256 -0.64554 0
M  V30 8352 C 783.553 1.71959 0.789098 0
M  V30 8353 O 782.896 0.999913 1.54102 0
M  V30 8354 C 782.958 3.49553 -0.839798 0
M  V30 8355 C 782.622 3.97548 -2.25399 0
M  V30 8356 C 783.619 4.07257 -3.23168 0
M  V30 8357 C 781.304 4.30884 -2.58156 0
M  V30 8358 C 783.298 4.49635 -4.51782 0
M  V30 8359 C 780.985 4.72946 -3.86996 0
M  V30 8360 C 781.983 4.82286 -4.83621 0
M  V30 8361 O 781.671 5.23409 -6.10162 0
M  V30 8362 H 781.403 0.632002 -0.239895 0
M  V30 8363 H 783.957 1.59224 -1.29757 0
M  V30 8364 H 782.187 3.86479 -0.130603 0
M  V30 8365 H 783.876 4.02591 -0.517249 0
M  V30 8366 H 784.642 3.8172 -2.9919 0
M  V30 8367 H 780.521 4.22833 -1.83666 0
M  V30 8368 H 784.065 4.5684 -5.27203 0
M  V30 8369 H 779.962 4.9793 -4.10775 0
M  V30 8370 H 780.73 5.4156 -6.13722 0
M  V30 8371 N 783.393 0.737304 1.3929 0
M  V30 8372 C 784.64 0.286257 2.00467 0
M  V30 8373 C 784.968 -1.1272 1.58507 0
M  V30 8374 O 784.223 -1.7832 0.806257 0
M  V30 8375 C 784.522 0.338438 3.55794 0
M  V30 8376 C 784.188 1.70524 4.17411 0
M  V30 8377 C 782.85 2.07934 4.33955 0
M  V30 8378 C 785.202 2.60256 4.51571 0
M  V30 8379 C 782.53 3.34578 4.81948 0
M  V30 8380 C 784.882 3.86275 5.00974 0
M  V30 8381 C 783.546 4.23774 5.15725 0
M  V30 8382 H 782.816 0.104749 0.733559 0
M  V30 8383 H 785.463 0.944598 1.66582 0
M  V30 8384 H 783.768 -0.403478 3.89717 0
M  V30 8385 H 785.465 -0.0287255 4.0099 0
M  V30 8386 H 782.055 1.40439 4.04938 0
M  V30 8387 H 786.239 2.32624 4.38406 0
M  V30 8388 H 781.495 3.63572 4.91554 0
M  V30 8389 H 785.669 4.5596 5.26378 0
M  V30 8390 H 783.296 5.21972 5.52674 0
M  V30 8391 N 784.871 -1.49948 0.485112 0
M  V30 8392 C 786.096 -2.073 -0.0645059 0
M  V30 8393 C 786.521 -1.345 -1.31497 0
M  V30 8394 O 785.879 -0.39687 -1.76903 0
M  V30 8395 C 785.927 -3.59201 -0.317304 0
M  V30 8396 O 785.031 -3.88085 -1.39514 0
M  V30 8397 H 784.372 -0.663723 0.0191822 0
M  V30 8398 H 786.902 -1.92963 0.680179 0
M  V30 8399 H 786.912 -4.04227 -0.553604 0
M  V30 8400 H 785.587 -4.11602 0.596387 0
M  V30 8401 H 784.164 -3.54885 -1.14504 0
M  V30 8402 N 786.349 -0.21828 -1.56081 0
M  V30 8403 C 787.299 0.706492 -2.16778 0
M  V30 8404 C 788.283 1.15987 -1.11516 0
M  V30 8405 O 789.475 1.11441 -1.37513 0
M  V30 8406 C 786.604 1.91583 -2.8487 0
M  V30 8407 C 785.69 1.48228 -3.97353 0
M  V30 8408 N 786.081 0.761113 -5.00041 0
M  V30 8409 C 784.379 1.76982 -4.09382 0
M  V30 8410 C 785.08 0.540496 -5.79184 0
M  V30 8411 N 784.056 1.09622 -5.32432 0
M  V30 8412 H 787.858 0.147038 -2.93532 0
M  V30 8413 H 785.372 -0.0194049 -1.62388 0
M  V30 8414 H 787.369 2.58906 -3.26762 0
M  V30 8415 H 786.029 2.47979 -2.09611 0
M  V30 8416 H 787.04 0.414141 -5.16241 0
M  V30 8417 H 783.717 2.34721 -3.45271 0
M  V30 8418 H 785.107 -0.0332531 -6.71892 0
M  V30 8419 N 787.827 1.57504 0.0551401 0
M  V30 8420 C 788.757 2.07864 1.06372 0
M  V30 8421 C 789.738 0.975565 1.39344 0
M  V30 8422 O 790.923 1.24929 1.48682 0
M  V30 8423 C 788.053 2.53643 2.3724 0
M  V30 8424 C 787.007 3.67978 2.18578 0
M  V30 8425 C 786.333 3.9987 3.54976 0
M  V30 8426 C 787.633 4.97405 1.59329 0
M  V30 8427 H 789.327 2.92379 0.644595 0
M  V30 8428 H 786.873 1.40654 0.308619 0
M  V30 8429 H 788.826 2.8749 3.08103 0
M  V30 8430 H 787.55 1.66177 2.81163 0
M  V30 8431 H 786.209 3.3444 1.50152 0
M  V30 8432 H 785.857 3.0951 3.965 0
M  V30 8433 H 785.557 4.76867 3.43324 0
M  V30 8434 H 787.081 4.36228 4.27244 0
M  V30 8435 H 788.495 5.29375 2.20078 0
M  V30 8436 H 786.892 5.78837 1.58327 0
M  V30 8437 H 787.962 4.81697 0.55638 0
M  V30 8438 N 789.305 -0.326896 1.54172 0
M  V30 8439 C 790.252 -1.40216 1.83325 0
M  V30 8440 C 791.222 -1.51538 0.680107 0
M  V30 8441 O 792.407 -1.66811 0.926206 0
M  V30 8442 C 789.547 -2.76626 2.0633 0
M  V30 8443 C 788.66 -2.73963 3.34019 0
M  V30 8444 C 787.795 -4.02198 3.47002 0
M  V30 8445 C 786.834 -3.93828 4.68578 0
M  V30 8446 N 785.971 -5.13787 4.78506 0
M  V30 8447 H 790.811 -1.14656 2.7506 0
M  V30 8448 H 788.348 -0.555089 1.36225 0
M  V30 8449 H 790.306 -3.55922 2.17659 0
M  V30 8450 H 788.936 -3.00503 1.1789 0
M  V30 8451 H 787.988 -1.86677 3.31445 0
M  V30 8452 H 789.3 -2.6366 4.2342 0
M  V30 8453 H 788.454 -4.89923 3.57855 0
M  V30 8454 H 787.193 -4.15302 2.55687 0
M  V30 8455 H 786.198 -3.04487 4.57786 0
M  V30 8456 H 787.423 -3.82292 5.61275 0
M  V30 8457 H 785.369 -5.27403 3.90105 0
M  V30 8458 H 785.286 -5.05807 5.61868 0
M  V30 8459 H 786.554 -6.03236 4.93686 0
M  V30 8460 N 790.784 -1.46188 -0.588786 0
M  V30 8461 C 791.694 -1.58865 -1.72624 0
M  V30 8462 C 792.71 -0.472348 -1.67466 0
M  V30 8463 O 793.886 -0.735638 -1.87484 0
M  V30 8464 C 790.951 -1.56989 -3.0912 0
M  V30 8465 C 790.012 -2.79804 -3.25589 0
M  V30 8466 C 789.245 -2.78009 -4.55573 0
M  V30 8467 O 789.468 -1.86406 -5.39082 0
M  V30 8468 O 788.402 -3.6947 -4.75159 0
M  V30 8469 H 792.228 -2.55047 -1.64878 0
M  V30 8470 H 789.813 -1.28912 -0.755115 0
M  V30 8471 H 791.695 -1.58618 -3.90408 0
M  V30 8472 H 790.37 -0.639648 -3.17317 0
M  V30 8473 H 789.277 -2.83732 -2.43818 0
M  V30 8474 H 790.61 -3.72017 -3.22279 0
M  V30 8475 N 792.262 0.832906 -1.33792 0
M  V30 8476 C 793.492 1.61813 -1.28453 0
M  V30 8477 C 793.9 1.88639 0.145595 0
M  V30 8478 O 793.243 1.47122 1.10004 0
M  V30 8479 C 793.305 2.98929 -1.99704 0
M  V30 8480 C 792.969 2.95045 -3.48995 0
M  V30 8481 C 793.966 2.70337 -4.44088 0
M  V30 8482 C 791.651 3.14993 -3.91261 0
M  V30 8483 C 793.645 2.65612 -5.79421 0
M  V30 8484 C 791.332 3.09893 -5.26697 0
M  V30 8485 C 792.33 2.85235 -6.20588 0
M  V30 8486 O 792.018 2.8005 -7.53543 0
M  V30 8487 H 791.75 0.510013 -0.443693 0
M  V30 8488 H 794.304 1.04514 -1.76822 0
M  V30 8489 H 792.534 3.58106 -1.45935 0
M  V30 8490 H 794.223 3.59849 -1.87786 0
M  V30 8491 H 794.989 2.54671 -4.12756 0
M  V30 8492 H 790.868 3.33204 -3.18584 0
M  V30 8493 H 794.412 2.46285 -6.52679 0
M  V30 8494 H 790.309 3.2511 -5.5765 0
M  V30 8495 H 791.077 2.95849 -7.63162 0
M  V30 8496 N 793.74 1.17359 1.05189 0
M  V30 8497 C 794.986 0.963413 1.78455 0
M  V30 8498 C 795.319 -0.506703 1.87473 0
M  V30 8499 O 794.594 -1.37611 1.37453 0
M  V30 8500 C 794.877 1.60519 3.22344 0
M  V30 8501 C 794.73 3.14741 3.21338 0
M  V30 8502 C 796.049 1.3091 4.20179 0
M  V30 8503 H 793.168 0.351412 0.647826 0
M  V30 8504 H 795.81 1.44858 1.22948 0
M  V30 8505 H 793.96 1.19265 3.69741 0
M  V30 8506 H 795.632 3.65053 2.82017 0
M  V30 8507 H 793.875 3.4749 2.59679 0
M  V30 8508 H 794.546 3.54775 4.22894 0
M  V30 8509 H 797.022 1.66635 3.81277 0
M  V30 8510 H 795.898 1.784 5.191 0
M  V30 8511 H 796.159 0.229908 4.41502 0
M  V30 8512 N 795.218 -1.23913 0.973828 0
M  V30 8513 C 796.181 -2.23367 0.51378 0
M  V30 8514 C 797.181 -1.55923 -0.39302 0
M  V30 8515 O 798.371 -1.73187 -0.187626 0
M  V30 8516 C 795.503 -3.39944 -0.255152 0
M  V30 8517 H 796.696 -2.65581 1.39307 0
M  V30 8518 H 794.249 -1.36632 0.759039 0
M  V30 8519 H 794.984 -3.03177 -1.15127 0
M  V30 8520 H 794.769 -3.90098 0.395673 0
M  V30 8521 H 796.259 -4.13749 -0.565842 0
M  V30 8522 N 796.696 -0.74468 -1.38897 0
M  V30 8523 C 797.921 -0.306119 -2.05128 0
M  V30 8524 C 798.346 1.0541 -1.55789 0
M  V30 8525 O 797.704 1.66993 -0.705909 0
M  V30 8526 C 797.752 -0.328195 -3.59103 0
M  V30 8527 O 796.856 0.680876 -4.06741 0
M  V30 8528 H 796.197 -0.137209 -0.649669 0
M  V30 8529 H 798.727 -1.01331 -1.77745 0
M  V30 8530 H 798.737 -0.175956 -4.0762 0
M  V30 8531 H 797.412 -1.32067 -3.94374 0
M  V30 8532 H 795.989 0.49398 -3.69614 0
M  V30 8533 N 798.174 1.49689 -0.493057 0
M  V30 8534 C 799.107 2.25712 0.336062 0
M  V30 8535 C 800.085 1.29953 0.977294 0
M  V30 8536 O 801.269 1.59225 1.00895 0
M  V30 8537 C 798.396 3.0501 1.47263 0
M  V30 8538 C 797.442 4.15863 0.946575 0
M  V30 8539 S 798.275 5.35272 -0.156323 0
M  V30 8540 C 799.431 6.18123 0.983601 0
M  V30 8541 H 799.664 2.95688 -0.309215 0
M  V30 8542 H 797.197 1.51872 -0.278238 0
M  V30 8543 H 799.155 3.51284 2.12391 0
M  V30 8544 H 797.816 2.34519 2.08949 0
M  V30 8545 H 797.009 4.70834 1.7981 0
M  V30 8546 H 796.611 3.72139 0.372647 0
M  V30 8547 H 798.903 6.50588 1.89056 0
M  V30 8548 H 799.846 7.06521 0.472687 0
M  V30 8549 H 800.254 5.50547 1.24735 0
M  V30 8550 N 799.652 0.226554 1.55963 0
M  V30 8551 C 800.898 -0.404387 1.98727 0
M  V30 8552 C 801.231 -1.59059 1.11418 0
M  V30 8553 O 800.506 -1.93729 0.172971 0
M  V30 8554 C 800.789 -0.834081 3.50307 0
M  V30 8555 C 800.642 0.356104 4.48388 0
M  V30 8556 C 801.961 -1.68845 4.06423 0
M  V30 8557 H 799.08 -0.145515 0.722492 0
M  V30 8558 H 801.722 0.323791 1.87221 0
M  V30 8559 H 799.872 -1.45454 3.60244 0
M  V30 8560 H 801.544 0.99432 4.50456 0
M  V30 8561 H 799.787 1.0027 4.22053 0
M  V30 8562 H 800.458 0.0124333 5.51999 0
M  V30 8563 H 802.934 -1.16489 3.99461 0
M  V30 8564 H 801.81 -1.958 5.1279 0
M  V30 8565 H 802.071 -2.65347 3.53615 0
M  V30 8566 N 801.13 -1.57531 -0.0467866 0
M  V30 8567 C 802.377 -1.88451 -0.74112 0
M  V30 8568 C 802.705 -0.821592 -1.76296 0
M  V30 8569 O 801.96 0.179585 -1.94874 0
M  V30 8570 C 802.259 -3.26091 -1.46285 0
M  V30 8571 C 801.925 -4.47171 -0.578669 0
M  V30 8572 C 800.587 -4.80032 -0.335083 0
M  V30 8573 C 802.939 -5.2119 0.0328809 0
M  V30 8574 C 800.267 -5.84309 0.529121 0
M  V30 8575 C 802.619 -6.26383 0.884684 0
M  V30 8576 C 801.283 -6.57729 1.1379 0
M  V30 8577 H 800.553 -0.68959 -0.271195 0
M  V30 8578 H 803.2 -1.915 -0.00132378 0
M  V30 8579 H 801.505 -3.18948 -2.27551 0
M  V30 8580 H 803.202 -3.47258 -2.00532 0
M  V30 8581 H 799.792 -4.21467 -0.778666 0
M  V30 8582 H 803.976 -4.96096 -0.142375 0
M  V30 8583 H 799.232 -6.06981 0.733794 0
M  V30 8584 H 803.406 -6.82888 1.36516 0
M  V30 8585 H 801.033 -7.38355 1.80929 0
M  V30 8586 N 802.608 0.318715 -1.54344 0
M  V30 8587 C 803.833 1.07987 -1.77069 0
M  V30 8588 C 804.258 1.80766 -0.520117 0
M  V30 8589 O 803.616 1.73424 0.528566 0
M  V30 8590 C 803.664 2.04987 -2.96669 0
M  V30 8591 O 802.768 3.12974 -2.68554 0
M  V30 8592 H 802.109 0.311109 -0.586606 0
M  V30 8593 H 804.639 0.361533 -2.0138 0
M  V30 8594 H 804.649 2.47771 -3.2415 0
M  V30 8595 H 803.324 1.51417 -3.87357 0
M  V30 8596 H 801.901 2.74831 -2.52037 0
M  V30 8597 N 804.086 1.46499 0.581025 0
M  V30 8598 C 805.016 1.60052 1.70017 0
M  V30 8599 C 805.997 0.450788 1.64018 0
M  V30 8600 O 807.182 0.677237 1.82009 0
M  V30 8601 C 804.312 1.5921 3.08658 0
M  V30 8602 C 803.266 2.73169 3.29488 0
M  V30 8603 C 802.592 2.57389 4.68674 0
M  V30 8604 C 803.892 4.14978 3.1716 0
M  V30 8605 H 805.586 2.53735 1.5893 0
M  V30 8606 H 803.132 1.22113 0.763173 0
M  V30 8607 H 805.085 1.67285 3.86773 0
M  V30 8608 H 803.809 0.620718 3.20647 0
M  V30 8609 H 802.468 2.64566 2.53773 0
M  V30 8610 H 802.116 1.58331 4.77431 0
M  V30 8611 H 801.816 3.33826 4.83564 0
M  V30 8612 H 803.34 2.67358 5.48956 0
M  V30 8613 H 804.754 4.24684 3.85119 0
M  V30 8614 H 803.151 4.92016 3.4357 0
M  V30 8615 H 804.221 4.35016 2.14218 0
M  V30 8616 N 805.565 -0.825799 1.34232 0
M  V30 8617 C 806.528 -1.91808 1.25468 0
M  V30 8618 C 807.528 -1.59893 0.170567 0
M  V30 8619 O 808.718 -1.68986 0.422996 0
M  V30 8620 C 805.85 -3.27786 0.93644 0
M  V30 8621 H 807.043 -2.01003 2.22571 0
M  V30 8622 H 804.596 -1.01944 1.18479 0
M  V30 8623 H 805.331 -3.24285 -0.0315408 0
M  V30 8624 H 805.116 -3.52333 1.72057 0
M  V30 8625 H 806.606 -4.07782 0.900214 0
M  V30 8626 N 807.043 -1.17915 -1.04565 0
M  V30 8627 C 807.973 -0.925033 -2.14395 0
M  V30 8628 C 808.954 0.135375 -1.6956 0
M  V30 8629 O 810.139 -0.0161774 -1.94193 0
M  V30 8630 C 807.269 -0.444469 -3.44444 0
M  V30 8631 C 806.223 -1.44478 -4.02877 0
M  V30 8632 C 805.549 -0.821933 -5.28345 0
M  V30 8633 C 806.849 -2.81995 -4.39632 0
M  V30 8634 H 808.543 -1.84354 -2.35911 0
M  V30 8635 H 806.089 -0.887806 -1.13375 0
M  V30 8636 H 808.042 -0.254078 -4.20633 0
M  V30 8637 H 806.766 0.509592 -3.226 0
M  V30 8638 H 805.425 -1.62203 -3.28764 0
M  V30 8639 H 805.073 0.139161 -5.02807 0
M  V30 8640 H 804.773 -1.48976 -5.68401 0
M  V30 8641 H 806.297 -0.641959 -6.07216 0
M  V30 8642 H 807.711 -2.67952 -5.06828 0
M  V30 8643 H 806.108 -3.45414 -4.90723 0
M  V30 8644 H 807.178 -3.35927 -3.49687 0
M  V30 8645 N 808.521 1.23394 -0.980386 0
M  V30 8646 C 809.769 1.91431 -0.647978 0
M  V30 8647 C 810.09 1.76871 0.821066 0
M  V30 8648 O 809.36 1.14808 1.58732 0
M  V30 8649 H 807.94 0.708516 -0.236673 0
M  V30 8650 H 810.602 1.50019 -1.2442 0
M  V30 8651 H 809.698 2.98854 -0.899592 0
M  V30 8652 N 809.999 0.752036 1.385 0
M  V30 8653 C 811.245 0.316909 2.00916 0
M  V30 8654 C 811.6 -1.08884 1.58625 0
M  V30 8655 O 810.893 -1.73494 0.813047 0
M  V30 8656 C 811.087 0.376155 3.55415 0
M  V30 8657 C 810.916 1.78612 4.12708 0
M  V30 8658 C 809.686 2.4023 4.44542 0
M  V30 8659 C 811.884 2.74253 4.35075 0
M  V30 8660 N 809.866 3.73204 4.87434 0
M  V30 8661 C 811.237 3.9199 4.80358 0
M  V30 8662 C 813.292 2.71795 4.17171 0
M  V30 8663 C 811.995 5.07627 5.09615 0
M  V30 8664 C 814.021 3.86589 4.47552 0
M  V30 8665 C 813.383 5.03064 4.93058 0
M  V30 8666 H 809.482 0.16259 0.764911 0
M  V30 8667 H 812.066 0.981657 1.68142 0
M  V30 8668 H 810.237 -0.258317 3.8754 0
M  V30 8669 H 811.969 -0.0791421 4.04623 0
M  V30 8670 H 808.724 1.92009 4.32931 0
M  V30 8671 H 809.148 4.41519 5.13215 0
M  V30 8672 H 813.79 1.82929 3.81178 0
M  V30 8673 H 811.508 5.97109 5.44506 0
M  V30 8674 H 815.094 3.86005 4.35306 0
M  V30 8675 H 813.974 5.90417 5.16118 0
M  V30 8676 N 811.477 -1.49425 0.500989 0
M  V30 8677 C 812.705 -2.06861 -0.0403443 0
M  V30 8678 C 813.12 -1.36132 -1.30819 0
M  V30 8679 O 812.477 -0.439647 -1.77125 0
M  V30 8680 C 812.528 -3.6027 -0.297902 0
M  V30 8681 O 812.249 -4.28338 0.919686 0
M  V30 8682 C 813.75 -4.34419 -0.882876 0
M  V30 8683 H 810.97 -0.670688 0.0204619 0
M  V30 8684 H 813.514 -1.92207 0.698342 0
M  V30 8685 H 811.669 -3.74627 -0.98657 0
M  V30 8686 H 812.083 -5.2004 0.682528 0
M  V30 8687 H 813.557 -5.42631 -1.01268 0
M  V30 8688 H 814.034 -3.96898 -1.88066 0
M  V30 8689 H 814.64 -4.24669 -0.231677 0
M  V30 8690 N 812.955 -0.234822 -1.55841 0
M  V30 8691 C 813.903 0.686145 -2.22249 0
M  V30 8692 C 814.897 1.18948 -1.20614 0
M  V30 8693 O 816.103 1.14777 -1.38659 0
M  V30 8694 H 812.478 0.239724 -0.712767 0
M  V30 8695 H 814.449 0.102762 -2.98223 0
M  V30 8696 C 813.198 1.8776 -2.92646 0
M  V30 8697 H 812.521 1.49943 -3.70617 0
M  V30 8698 H 813.961 2.4995 -3.42493 0
M  V30 8699 C 812.42 2.74127 -1.95847 0
M  V30 8700 O 812.95 3.7329 -1.48384 0
M  V30 8701 N 811.156 2.4044 -1.63209 0
M  V30 8702 H 810.703 1.59854 -2.02001 0
M  V30 8703 H 810.661 2.98504 -0.987063 0
M  V30 8704 N 814.433 1.57553 0.0384317 0
M  V30 8705 C 815.366 2.01307 1.07475 0
M  V30 8706 C 816.344 0.895717 1.35704 0
M  V30 8707 O 817.528 1.16079 1.48519 0
M  V30 8708 C 814.655 2.37817 2.41165 0
M  V30 8709 C 813.701 3.599 2.28855 0
M  V30 8710 S 814.534 5.09418 1.65086 0
M  V30 8711 C 815.69 5.49162 3.00286 0
M  V30 8712 H 815.923 2.88892 0.702034 0
M  V30 8713 H 813.456 1.52394 0.248103 0
M  V30 8714 H 815.414 2.59524 3.18053 0
M  V30 8715 H 814.075 1.507 2.75587 0
M  V30 8716 H 813.268 3.83071 3.27525 0
M  V30 8717 H 812.87 3.37996 1.60109 0
M  V30 8718 H 815.162 5.49274 3.96617 0
M  V30 8719 H 816.105 6.49586 2.81858 0
M  V30 8720 H 816.513 4.76653 3.02427 0
M  V30 8721 N 815.911 -0.310526 1.54511 0
M  V30 8722 C 816.841 -1.38757 1.878 0
M  V30 8723 C 817.822 -1.53353 0.735991 0
M  V30 8724 O 819.007 -1.67018 0.990887 0
M  V30 8725 C 816.137 -2.75327 2.11689 0
M  V30 8726 C 815.091 -2.75506 3.27537 0
M  V30 8727 C 814.417 -4.15275 3.36824 0
M  V30 8728 C 815.717 -2.38093 4.64875 0
M  V30 8729 H 817.411 -1.11146 2.78005 0
M  V30 8730 H 814.957 -0.533232 1.33763 0
M  V30 8731 H 816.91 -3.50752 2.33562 0
M  V30 8732 H 815.634 -3.04443 1.18245 0
M  V30 8733 H 814.293 -2.02538 3.05572 0
M  V30 8734 H 813.941 -4.41553 2.40915 0
M  V30 8735 H 813.641 -4.16299 4.14692 0
M  V30 8736 H 815.165 -4.92493 3.60947 0
M  V30 8737 H 816.579 -3.03232 4.86542 0
M  V30 8738 H 814.976 -2.50345 5.45387 0
M  V30 8739 H 816.046 -1.33227 4.66239 0
M  V30 8740 N 817.389 -1.46805 -0.573248 0
M  V30 8741 C 818.619 -1.55965 -1.35494 0
M  V30 8742 C 819.027 -0.203038 -1.88107 0
M  V30 8743 O 818.37 0.81138 -1.6481 0
M  V30 8744 C 818.432 -2.51168 -2.57206 0
M  V30 8745 C 818.096 -3.97211 -2.25993 0
M  V30 8746 C 819.093 -4.86155 -1.84254 0
M  V30 8747 C 816.778 -4.42419 -2.37846 0
M  V30 8748 C 818.772 -6.18323 -1.54776 0
M  V30 8749 C 816.459 -5.74619 -2.0798 0
M  V30 8750 C 817.457 -6.62392 -1.66511 0
M  V30 8751 O 817.145 -7.92137 -1.37016 0
M  V30 8752 H 816.877 -0.529748 -0.419932 0
M  V30 8753 H 819.431 -1.92998 -0.702914 0
M  V30 8754 H 817.661 -2.09171 -3.25245 0
M  V30 8755 H 819.35 -2.50631 -3.19279 0
M  V30 8756 H 820.116 -4.52481 -1.74603 0
M  V30 8757 H 815.995 -3.74319 -2.69085 0
M  V30 8758 H 819.539 -6.8679 -1.22334 0
M  V30 8759 H 815.436 -6.0784 -2.17258 0
M  V30 8760 H 816.204 -8.04492 -1.50782 0
M  V30 8761 N 818.867 0.818669 -1.34668 0
M  V30 8762 C 820.097 1.60441 -1.30162 0
M  V30 8763 C 820.505 1.88783 0.125579 0
M  V30 8764 O 819.848 1.48281 1.08437 0
M  V30 8765 C 819.91 2.96794 -2.02864 0
M  V30 8766 C 819.574 2.91327 -3.52105 0
M  V30 8767 C 820.571 2.65611 -4.4693 0
M  V30 8768 C 818.256 3.10825 -3.9458 0
M  V30 8769 C 820.25 2.59452 -5.82206 0
M  V30 8770 C 817.937 3.0429 -5.29954 0
M  V30 8771 C 818.935 2.78637 -6.23579 0
M  V30 8772 O 818.623 2.72042 -7.56471 0
M  V30 8773 H 818.355 0.505278 -0.449077 0
M  V30 8774 H 820.909 1.02632 -1.77921 0
M  V30 8775 H 819.139 3.56538 -1.49725 0
M  V30 8776 H 820.828 3.57837 -1.91592 0
M  V30 8777 H 821.594 2.50278 -4.15434 0
M  V30 8778 H 817.473 3.29807 -3.221 0
M  V30 8779 H 821.017 2.39349 -6.55254 0
M  V30 8780 H 816.914 3.19177 -5.61067 0
M  V30 8781 H 817.682 2.87738 -7.66257 0
M  V30 8782 N 820.346 1.18468 1.03938 0
M  V30 8783 C 821.574 1.00576 1.80809 0
M  V30 8784 C 821.989 -0.445786 1.83462 0
M  V30 8785 O 821.346 -1.30964 1.27101 0
M  V30 8786 C 821.397 1.55491 3.26351 0
M  V30 8787 O 821.118 2.94963 3.23926 0
M  V30 8788 C 822.619 1.42236 4.19862 0
M  V30 8789 H 819.839 0.35508 0.56935 0
M  V30 8790 H 822.383 1.57046 1.30984 0
M  V30 8791 H 820.538 1.03195 3.73403 0
M  V30 8792 H 820.952 3.20598 4.15111 0
M  V30 8793 H 822.426 1.85455 5.19914 0
M  V30 8794 H 822.903 0.371267 4.37628 0
M  V30 8795 H 823.509 1.9361 3.78675 0
M  V30 8796 N 821.824 -1.22873 0.986916 0
M  V30 8797 C 823.24 -1.43594 0.696633 0
M  V30 8798 C 823.44 -1.87622 -0.734869 0
M  V30 8799 O 822.496 -2.02633 -1.50652 0
M  V30 8800 C 823.809 -2.48231 1.69711 0
M  V30 8801 C 825.357 -2.62037 1.71188 0
M  V30 8802 C 825.832 -3.6989 2.70084 0
M  V30 8803 N 827.323 -3.77341 2.68641 0
M  V30 8804 C 828.058 -4.6037 3.41829 0
M  V30 8805 N 827.554 -5.47438 4.24598 0
M  V30 8806 N 829.347 -4.54626 3.30563 0
M  V30 8807 H 821.498 -0.925982 1.91153 0
M  V30 8808 H 823.761 -0.46866 0.824052 0
M  V30 8809 H 823.467 -2.22812 2.72117 0
M  V30 8810 H 823.341 -3.46731 1.48516 0
M  V30 8811 H 825.728 -2.86803 0.694837 0
M  V30 8812 H 825.809 -1.63831 1.96451 0
M  V30 8813 H 825.453 -3.45872 3.71934 0
M  V30 8814 H 825.383 -4.67652 2.42093 0
M  V30 8815 H 827.874 -3.15124 2.08578 0
M  V30 8816 H 828.187 -6.078 4.77283 0
M  V30 8817 H 826.532 -5.4704 4.28687 0
M  V30 8818 H 829.723 -3.85627 2.65347 0
M  V30 8819 H 829.896 -5.19103 3.8786 0
M  V30 8820 N 823.302 -0.75937 -1.38099 0
M  V30 8821 C 824.55 -0.317485 -1.99591 0
M  V30 8822 C 824.871 1.10628 -1.60581 0
M  V30 8823 O 824.141 1.7575 -0.865378 0
M  V30 8824 H 822.721 -0.114397 -0.738189 0
M  V30 8825 H 825.383 -0.974749 -1.68774 0
M  V30 8826 H 824.479 -0.385227 -3.09713 0
M  V30 8827 N 824.78 1.49157 -0.508906 0
M  V30 8828 C 826.027 2.02473 0.0327983 0
M  V30 8829 C 826.355 1.38792 1.36261 0
M  V30 8830 O 825.61 0.515576 1.88786 0
M  V30 8831 C 825.909 3.56687 0.225717 0
M  V30 8832 C 825.575 4.39046 -1.02708 0
M  V30 8833 C 824.237 4.61271 -1.37048 0
M  V30 8834 C 826.589 4.86902 -1.85946 0
M  V30 8835 C 823.917 5.28598 -2.54562 0
M  V30 8836 C 826.269 5.55521 -3.0262 0
M  V30 8837 C 824.933 5.7599 -3.3733 0
M  V30 8838 H 824.203 0.740903 0.0120017 0
M  V30 8839 H 826.85 1.79372 -0.670665 0
M  V30 8840 H 825.155 3.78511 1.01177 0
M  V30 8841 H 826.852 3.95541 0.659433 0
M  V30 8842 H 823.442 4.21994 -0.749615 0
M  V30 8843 H 827.626 4.69553 -1.6073 0
M  V30 8844 H 822.882 5.42646 -2.81682 0
M  V30 8845 H 827.056 5.91576 -3.67438 0
M  V30 8846 H 824.683 6.27934 -4.2849 0
M  V30 8847 N 826.258 0.243083 1.55714 0
M  V30 8848 C 827.19 -0.690766 2.18543 0
M  V30 8849 C 828.203 -1.14163 1.16064 0
M  V30 8850 O 829.392 -1.06906 1.42946 0
M  V30 8851 C 826.492 -1.95016 2.77168 0
M  V30 8852 C 825.665 -1.65137 4.05029 0
M  V30 8853 C 824.724 -2.75998 4.48009 0
M  V30 8854 O 823.75 -2.43547 5.14464 0
M  V30 8855 N 824.952 -4.05414 4.15476 0
M  V30 8856 H 827.717 -0.153203 2.99308 0
M  V30 8857 H 825.278 0.0628968 1.61778 0
M  V30 8858 H 827.27 -2.68414 3.0288 0
M  V30 8859 H 825.84 -2.39762 2.00582 0
M  V30 8860 H 825.06 -0.752768 3.86946 0
M  V30 8861 H 826.348 -1.42633 4.88399 0
M  V30 8862 H 825.746 -4.34613 3.62116 0
M  V30 8863 H 824.303 -4.75288 4.46032 0
M  V30 8864 N 827.736 -1.57571 -0.0300757 0
M  V30 8865 C 828.668 -2.0329 -1.05857 0
M  V30 8866 C 829.681 -0.945543 -1.32527 0
M  V30 8867 O 830.87 -1.22287 -1.30032 0
M  V30 8868 C 827.97 -2.39234 -2.40042 0
M  V30 8869 C 827.143 -3.70337 -2.32743 0
M  V30 8870 C 826.202 -3.93482 -3.49369 0
M  V30 8871 O 825.228 -4.64551 -3.28909 0
M  V30 8872 N 826.43 -3.39042 -4.71201 0
M  V30 8873 H 829.195 -2.9214 -0.668897 0
M  V30 8874 H 826.756 -1.60425 -0.218038 0
M  V30 8875 H 828.748 -2.51856 -3.16782 0
M  V30 8876 H 827.318 -1.5606 -2.70858 0
M  V30 8877 H 826.538 -3.68079 -1.41109 0
M  V30 8878 H 827.826 -4.56343 -2.25007 0
M  V30 8879 H 827.224 -2.81434 -4.90725 0
M  V30 8880 H 825.781 -3.57045 -5.45309 0
M  V30 8881 N 829.214 0.302327 -1.54673 0
M  V30 8882 C 830.147 1.39738 -1.80412 0
M  V30 8883 C 831.125 1.48813 -0.655241 0
M  V30 8884 O 832.309 1.65895 -0.89505 0
M  V30 8885 C 829.436 2.7766 -1.93966 0
M  V30 8886 C 828.482 2.86014 -3.16383 0
M  V30 8887 S 829.315 2.48246 -4.74483 0
M  V30 8888 C 830.471 3.88198 -4.90971 0
M  V30 8889 H 830.704 1.17696 -2.73011 0
M  V30 8890 H 828.237 0.500364 -1.46068 0
M  V30 8891 H 830.195 3.571 -2.0246 0
M  V30 8892 H 828.856 2.96971 -1.02307 0
M  V30 8893 H 828.049 3.87174 -3.22664 0
M  V30 8894 H 827.651 2.14568 -3.06328 0
M  V30 8895 H 829.943 4.83181 -4.74913 0
M  V30 8896 H 830.886 3.86887 -5.93063 0
M  V30 8897 H 831.294 3.78139 -4.19131 0
M  V30 8898 N 830.692 1.47107 0.565454 0
M  V30 8899 C 831.94 1.53005 1.32038 0
M  V30 8900 C 832.261 0.190453 1.94068 0
M  V30 8901 O 831.531 -0.784783 1.79494 0
M  V30 8902 H 830.111 0.563578 0.490294 0
M  V30 8903 H 832.773 1.83351 0.660928 0
M  V30 8904 H 831.869 2.29215 2.11818 0
M  V30 8905 N 832.17 -0.811516 1.35101 0
M  V30 8906 C 833.419 -1.56343 1.27435 0
M  V30 8907 C 833.732 -1.95019 -0.150696 0
M  V30 8908 O 834.938 -2.6924 -0.349586 0
M  V30 8909 C 833.394 -2.82124 2.23459 0
M  V30 8910 C 833.002 -2.50706 3.71283 0
M  V30 8911 C 834.746 -3.60137 2.24726 0
M  V30 8912 C 832.653 -3.72748 4.59143 0
M  V30 8913 H 831.583 -0.58682 0.473453 0
M  V30 8914 H 834.234 -0.892465 1.60335 0
M  V30 8915 H 832.616 -3.50905 1.83525 0
M  V30 8916 H 833.79 -1.89962 4.19823 0
M  V30 8917 H 832.105 -1.85947 3.72576 0
M  V30 8918 H 834.702 -4.50775 2.87587 0
M  V30 8919 H 835.045 -3.97101 1.24965 0
M  V30 8920 H 835.578 -2.98311 2.63164 0
M  V30 8921 H 832.317 -3.40896 5.59884 0
M  V30 8922 H 831.837 -4.32735 4.15332 0
M  V30 8923 H 833.516 -4.40033 4.74321 0
M  V30 8924 N 833.648 -1.19017 -1.03309 0
M  V30 8925 C 834.878 -1.01387 -1.80012 0
M  V30 8926 C 835.286 0.440655 -1.83997 0
M  V30 8927 O 834.629 1.31786 -1.27977 0
M  V30 8928 C 834.691 -1.50171 -3.26633 0
M  V30 8929 C 834.355 -2.98213 -3.46292 0
M  V30 8930 C 835.352 -3.96009 -3.36857 0
M  V30 8931 C 833.037 -3.36812 -3.72643 0
M  V30 8932 C 835.031 -5.30399 -3.5349 0
M  V30 8933 C 832.718 -4.71363 -3.88922 0
M  V30 8934 C 833.716 -5.67966 -3.79347 0
M  V30 8935 O 833.404 -7.00079 -3.95151 0
M  V30 8936 H 833.136 -0.357899 -0.573484 0
M  V30 8937 H 835.69 -1.58171 -1.31039 0
M  V30 8938 H 833.92 -0.877586 -3.7661 0
M  V30 8939 H 835.609 -1.28814 -3.84918 0
M  V30 8940 H 836.375 -3.67534 -3.16455 0
M  V30 8941 H 832.254 -2.62175 -3.7919 0
M  V30 8942 H 835.798 -6.05786 -3.45933 0
M  V30 8943 H 831.695 -4.99536 -4.0882 0
M  V30 8944 H 832.463 -7.07092 -4.12266 0
M  V30 8945 N 835.127 1.22348 -0.993418 0
M  V30 8946 C 836.09 2.22522 -0.549251 0
M  V30 8947 C 837.09 1.56529 0.368164 0
M  V30 8948 O 838.28 1.73463 0.16005 0
M  V30 8949 C 835.412 3.40307 0.201037 0
M  V30 8950 H 836.605 2.63332 -1.43515 0
M  V30 8951 H 834.158 1.35407 -0.78068 0
M  V30 8952 H 834.893 3.0497 1.10289 0
M  V30 8953 H 834.678 3.8942 -0.457685 0
M  V30 8954 H 836.168 4.14597 0.499946 0
M  V30 8955 N 836.605 0.766683 1.37694 0
M  V30 8956 C 837.851 0.329201 2.0011 0
M  V30 8957 C 838.184 -1.09004 1.60723 0
M  V30 8958 O 837.459 -1.74895 0.850989 0
M  V30 8959 C 837.742 0.466989 3.57059 0
M  V30 8960 C 837.595 1.92828 4.06371 0
M  V30 8961 C 838.914 -0.131792 4.39903 0
M  V30 8962 H 836.033 0.12109 0.726984 0
M  V30 8963 H 838.675 0.968779 1.63446 0
M  V30 8964 H 836.825 -0.0775023 3.88423 0
M  V30 8965 H 838.497 2.53208 3.85595 0
M  V30 8966 H 836.74 2.43884 3.58752 0
M  V30 8967 H 837.411 1.97577 5.15429 0
M  V30 8968 H 839.887 0.332731 4.14768 0
M  V30 8969 H 838.763 -0.005217 5.489 0
M  V30 8970 H 839.024 -1.22156 4.24889 0
M  V30 8971 N 838.083 -1.48885 0.516809 0
M  V30 8972 C 839.016 -2.26218 -0.30011 0
M  V30 8973 C 839.994 -1.31491 -0.956496 0
M  V30 8974 O 841.178 -1.6081 -0.983488 0
M  V30 8975 C 838.305 -3.07315 -1.42392 0
M  V30 8976 C 837.351 -4.17316 -0.880295 0
M  V30 8977 S 838.184 -5.34955 0.24146 0
M  V30 8978 C 839.34 -6.1961 -0.885138 0
M  V30 8979 H 839.573 -2.95158 0.356217 0
M  V30 8980 H 837.106 -1.5141 0.302365 0
M  V30 8981 H 839.064 -3.54619 -2.06775 0
M  V30 8982 H 837.725 -2.37813 -2.05192 0
M  V30 8983 H 836.918 -4.73635 -1.72297 0
M  V30 8984 H 836.52 -3.72685 -0.313396 0
M  V30 8985 H 838.812 -6.53513 -1.78682 0
M  V30 8986 H 839.755 -7.07183 -0.360226 0
M  V30 8987 H 840.163 -5.52461 -1.1596 0
M  V30 8988 N 839.561 -0.251338 -1.55583 0
M  V30 8989 C 840.81 0.372681 -1.98227 0
M  V30 8990 C 841.123 1.58743 -1.1428 0
M  V30 8991 O 842.329 2.28289 -1.46957 0
M  V30 8992 C 840.785 0.714439 -3.52738 0
M  V30 8993 C 840.393 -0.479168 -4.4543 0
M  V30 8994 C 842.137 1.3024 -4.04027 0
M  V30 8995 C 840.044 -0.113318 -5.91291 0
M  V30 8996 H 838.974 0.14302 -0.740312 0
M  V30 8997 H 841.625 -0.352253 -1.80087 0
M  V30 8998 H 840.007 1.49762 -3.66589 0
M  V30 8999 H 841.181 -1.25644 -4.4334 0
M  V30 9000 H 839.496 -0.982359 -4.04646 0
M  V30 9001 H 842.093 1.58953 -5.10527 0
M  V30 9002 H 842.436 2.22837 -3.51638 0
M  V30 9003 H 842.969 0.582024 -3.93519 0
M  V30 9004 H 839.708 -1.00654 -6.47726 0
M  V30 9005 H 839.228 0.627666 -5.96507 0
M  V30 9006 H 840.907 0.30293 -6.4629 0
M  V30 9007 N 841.039 1.57585 0.0217189 0
M  V30 9008 C 841.949 2.10444 1.03684 0
M  V30 9009 C 842.965 1.04472 1.39146 0
M  V30 9010 O 844.141 1.36249 1.48317 0
M  V30 9011 C 841.206 2.5794 2.31664 0
M  V30 9012 C 840.267 3.78425 2.02714 0
M  V30 9013 C 839.5 4.23646 3.24592 0
M  V30 9014 O 839.723 3.6834 4.35525 0
M  V30 9015 O 838.657 5.16013 3.09862 0
M  V30 9016 H 842.483 2.97354 0.617584 0
M  V30 9017 H 840.068 1.47473 0.239174 0
M  V30 9018 H 841.95 2.88785 3.06889 0
M  V30 9019 H 840.625 1.74138 2.7287 0
M  V30 9020 H 839.532 3.52587 1.25033 0
M  V30 9021 H 840.865 4.63234 1.66359 0
M  V30 9022 N 842.517 -0.29412 1.54831 0
M  V30 9023 C 843.464 -1.36296 1.86258 0
M  V30 9024 C 844.434 -1.50061 0.712097 0
M  V30 9025 O 845.619 -1.64809 0.961381 0
M  V30 9026 C 842.759 -2.72187 2.12151 0
M  V30 9027 C 841.872 -2.66816 3.39755 0
M  V30 9028 C 841.007 -3.94747 3.55455 0
M  V30 9029 C 840.046 -3.838 4.76827 0
M  V30 9030 N 839.183 -5.03521 4.89296 0
M  V30 9031 H 844.023 -1.08796 2.7743 0
M  V30 9032 H 841.56 -0.526069 1.37371 0
M  V30 9033 H 843.518 -3.51225 2.25159 0
M  V30 9034 H 842.148 -2.97934 1.24237 0
M  V30 9035 H 841.2 -1.79605 3.3533 0
M  V30 9036 H 842.512 -2.5462 4.28917 0
M  V30 9037 H 841.666 -4.82223 3.68166 0
M  V30 9038 H 840.405 -4.09785 2.64438 0
M  V30 9039 H 839.41 -2.94708 4.64141 0
M  V30 9040 H 840.635 -3.70301 5.69258 0
M  V30 9041 H 838.581 -5.1901 4.01204 0
M  V30 9042 H 838.498 -4.93775 5.72471 0
M  V30 9043 H 839.766 -5.92629 5.06371 0
M  V30 9044 N 843.995 -1.47404 -0.557645 0
M  V30 9045 C 844.928 -1.54399 -1.68036 0
M  V30 9046 C 845.906 -0.396175 -1.577 0
M  V30 9047 O 847.09 -0.603911 -1.78564 0
M  V30 9048 C 844.217 -1.44611 -3.06277 0
M  V30 9049 C 843.263 -2.63889 -3.35059 0
M  V30 9050 S 844.096 -4.26086 -3.24362 0
M  V30 9051 C 845.252 -4.1885 -4.65097 0
M  V30 9052 H 845.485 -2.49384 -1.61849 0
M  V30 9053 H 843.018 -1.35597 -0.738429 0
M  V30 9054 H 844.976 -1.39651 -3.86015 0
M  V30 9055 H 843.637 -0.510114 -3.0993 0
M  V30 9056 H 842.83 -2.53103 -4.35838 0
M  V30 9057 H 842.432 -2.65969 -2.62938 0
M  V30 9058 H 844.724 -3.87077 -5.56037 0
M  V30 9059 H 845.667 -5.19714 -4.8094 0
M  V30 9060 H 846.075 -3.49717 -4.43123 0
M  V30 9061 N 845.473 0.80434 -1.35529 0
M  V30 9062 C 846.722 1.55665 -1.28263 0
M  V30 9063 C 847.035 1.95096 0.140352 0
M  V30 9064 O 848.241 2.69422 0.335303 0
M  V30 9065 C 846.697 2.80935 -2.24952 0
M  V30 9066 C 846.305 2.48733 -3.72607 0
M  V30 9067 C 848.049 3.5894 -2.26632 0
M  V30 9068 C 845.956 3.70308 -4.61114 0
M  V30 9069 H 844.886 0.584301 -0.476559 0
M  V30 9070 H 847.537 0.88395 -1.60806 0
M  V30 9071 H 845.919 3.49927 -1.85383 0
M  V30 9072 H 847.093 1.87733 -4.20824 0
M  V30 9073 H 845.408 1.83969 -3.73557 0
M  V30 9074 H 848.005 4.49244 -2.89973 0
M  V30 9075 H 848.348 3.96433 -1.27069 0
M  V30 9076 H 848.881 2.96912 -2.64742 0
M  V30 9077 H 845.62 3.37922 -5.61684 0
M  V30 9078 H 845.14 4.30526 -4.17621 0
M  V30 9079 H 846.819 4.37511 -4.76648 0
M  V30 9080 N 846.951 1.19563 1.02676 0
M  V30 9081 C 847.881 0.959024 2.12897 0
M  V30 9082 C 848.862 -0.108382 1.69754 0
M  V30 9083 O 850.047 0.0470698 1.94143 0
M  V30 9084 C 847.177 0.499211 3.43693 0
M  V30 9085 C 846.131 1.5087 4.00528 0
M  V30 9086 C 845.457 0.905884 5.2697 0
M  V30 9087 C 846.757 2.88954 4.3509 0
M  V30 9088 H 848.451 1.88084 2.32948 0
M  V30 9089 H 845.997 0.905731 1.11949 0
M  V30 9090 H 847.95 0.320965 4.20176 0
M  V30 9091 H 846.674 -0.458205 3.2337 0
M  V30 9092 H 845.333 1.67413 3.26142 0
M  V30 9093 H 844.981 -0.0591506 5.02965 0
M  V30 9094 H 844.681 1.58 5.65959 0
M  V30 9095 H 846.205 0.73848 6.06118 0
M  V30 9096 H 847.619 2.75981 5.02501 0
M  V30 9097 H 846.016 3.53177 4.85166 0
M  V30 9098 H 847.086 3.41447 3.44299 0
M  V30 9099 N 848.429 -1.21819 0.999893 0
M  V30 9100 C 849.845 -1.42847 0.711824 0
M  V30 9101 C 850.045 -1.88391 -0.714928 0
M  V30 9102 O 849.101 -2.0422 -1.48494 0
M  V30 9103 C 850.414 -2.46417 1.72334 0
M  V30 9104 C 851.962 -2.60207 1.73958 0
M  V30 9105 C 852.437 -3.67005 2.73992 0
M  V30 9106 N 853.928 -3.7447 2.72628 0
M  V30 9107 C 854.663 -4.56718 3.46693 0
M  V30 9108 N 854.159 -5.42904 4.3038 0
M  V30 9109 N 855.952 -4.51094 3.35366 0
M  V30 9110 H 848.103 -0.905656 1.92124 0
M  V30 9111 H 850.366 -0.459893 0.828977 0
M  V30 9112 H 850.072 -2.19914 2.74465 0
M  V30 9113 H 849.946 -3.45137 1.52186 0
M  V30 9114 H 852.333 -2.8605 0.725217 0
M  V30 9115 H 852.414 -1.61739 1.98177 0
M  V30 9116 H 852.058 -3.41908 3.75582 0
M  V30 9117 H 851.988 -4.65058 2.4704 0
M  V30 9118 H 854.479 -3.12895 2.11909 0
M  V30 9119 H 854.792 -6.02704 4.83702 0
M  V30 9120 H 853.137 -5.42463 4.34464 0
M  V30 9121 H 856.328 -3.82791 2.69423 0
M  V30 9122 H 856.501 -5.1496 3.93344 0
M  V30 9123 N 849.908 -0.773975 -1.37286 0
M  V30 9124 C 851.185 -0.263942 -1.93811 0
M  V30 9125 C 851.565 1.24138 -1.70743 0
M  V30 9126 O 850.913 2.02557 -1.05749 0
M  V30 9127 C 851.123 -0.639753 -3.43086 0
M  V30 9128 C 852.471 -0.610796 -4.20184 0
M  V30 9129 O 853.495 -0.579278 -3.51458 0
M  V30 9130 O 852.354 -0.639862 -5.42741 0
M  V30 9131 H 849.448 -0.0614331 -0.824715 0
M  V30 9132 H 851.994 -0.855477 -1.46559 0
M  V30 9133 H 850.766 -1.67856 -3.53469 0
M  V30 9134 H 850.389 -0.0212827 -3.97594 0
M  V30 9135 N 851.386 1.48609 -0.524698 0
M  V30 9136 C 852.316 2.32366 0.229837 0
M  V30 9137 C 853.297 1.41759 0.940129 0
M  V30 9138 O 854.482 1.7065 0.926936 0
M  V30 9139 C 851.612 3.22835 1.28043 0
M  V30 9140 C 850.566 4.22424 0.688603 0
M  V30 9141 C 849.892 5.0199 1.84146 0
M  V30 9142 C 851.192 5.21217 -0.336176 0
M  V30 9143 H 852.886 2.95698 -0.469339 0
M  V30 9144 H 850.432 1.42197 -0.227156 0
M  V30 9145 H 852.385 3.80253 1.8162 0
M  V30 9146 H 851.109 2.57492 2.00912 0
M  V30 9147 H 849.768 3.66185 0.174402 0
M  V30 9148 H 849.416 4.33076 2.5584 0
M  V30 9149 H 849.116 5.69392 1.45142 0
M  V30 9150 H 850.64 5.62259 2.38111 0
M  V30 9151 H 852.054 5.7319 0.112307 0
M  V30 9152 H 850.451 5.96642 -0.643324 0
M  V30 9153 H 851.521 4.68676 -1.24381 0
M  V30 9154 N 852.864 0.259585 1.55447 0
M  V30 9155 C 854.104 -0.362989 2.01151 0
M  V30 9156 C 854.468 -1.54201 1.14394 0
M  V30 9157 O 855.669 -2.23318 1.49608 0
M  V30 9158 C 853.94 -0.750399 3.49434 0
M  V30 9159 S 855.499 -1.3617 4.17137 0
M  V30 9160 H 852.317 -0.11365 0.701858 0
M  V30 9161 H 854.919 0.377788 1.91815 0
M  V30 9162 H 853.623 0.116807 4.10234 0
M  V30 9163 H 853.154 -1.52303 3.62722 0
M  V30 9164 H 855.169 -2.65059 4.19474 0
M  V30 9165 N 854.342 -1.57594 -0.0133615 0
M  V30 9166 C 855.758 -1.5527 -0.369255 0
M  V30 9167 C 855.958 -0.987751 -1.7563 0
M  V30 9168 O 855.014 -0.615683 -2.44879 0
M  V30 9169 C 856.327 -2.99602 -0.25672 0
M  V30 9170 C 857.875 -3.11227 -0.332647 0
M  V30 9171 C 858.35 -4.57321 -0.249387 0
M  V30 9172 N 859.841 -4.62177 -0.3077 0
M  V30 9173 C 860.576 -5.72781 -0.26641 0
M  V30 9174 N 860.072 -6.92575 -0.176494 0
M  V30 9175 N 861.865 -5.61204 -0.317295 0
M  V30 9176 H 854.016 -1.92662 0.894154 0
M  V30 9177 H 856.279 -0.884352 0.341505 0
M  V30 9178 H 855.985 -3.44723 0.697072 0
M  V30 9179 H 855.859 -3.6246 -1.04415 0
M  V30 9180 H 858.246 -2.66045 -1.27688 0
M  V30 9181 H 858.327 -2.51171 0.484412 0
M  V30 9182 H 857.971 -5.03174 0.691242 0
M  V30 9183 H 857.901 -5.15306 -1.08476 0
M  V30 9184 H 860.392 -3.75994 -0.379069 0
M  V30 9185 H 860.705 -7.72653 -0.150518 0
M  V30 9186 H 859.05 -6.94854 -0.142314 0
M  V30 9187 H 862.241 -4.66509 -0.385643 0
M  V30 9188 H 862.414 -6.47388 -0.28165 0
M  V30 9189 N 855.82 0.285905 -1.54985 0
M  V30 9190 C 857.067 1.0192 -1.74982 0
M  V30 9191 C 857.395 1.86743 -0.543816 0
M  V30 9192 O 856.65 1.89874 0.473972 0
M  V30 9193 C 856.949 1.94193 -3.0004 0
M  V30 9194 C 856.615 1.25225 -4.33162 0
M  V30 9195 C 855.277 1.06149 -4.69346 0
M  V30 9196 C 857.629 0.760427 -5.15623 0
M  V30 9197 C 854.957 0.365991 -5.85557 0
M  V30 9198 C 857.309 0.0785787 -6.32551 0
M  V30 9199 C 855.973 -0.124002 -6.67385 0
M  V30 9200 H 855.243 0.372951 -0.640304 0
M  V30 9201 H 857.89 0.292652 -1.89251 0
M  V30 9202 H 856.195 2.73426 -2.80616 0
M  V30 9203 H 857.892 2.51029 -3.12707 0
M  V30 9204 H 854.482 1.41081 -4.04715 0
M  V30 9205 H 858.666 0.895466 -4.88155 0
M  V30 9206 H 853.922 0.198193 -6.11079 0
M  V30 9207 H 858.096 -0.310339 -6.95708 0
M  V30 9208 H 855.723 -0.664918 -7.57287 0
M  V30 9209 N 857.298 1.47698 0.54982 0
M  V30 9210 C 858.231 1.55288 1.67215 0
M  V30 9211 C 859.209 0.404533 1.57487 0
M  V30 9212 O 860.393 0.613372 1.78241 0
M  V30 9213 C 857.52 1.46233 3.05505 0
M  V30 9214 C 856.566 2.65662 3.33655 0
M  V30 9215 S 857.399 4.278 3.22098 0
M  V30 9216 C 858.555 4.21311 4.62869 0
M  V30 9217 H 858.788 2.50238 1.60524 0
M  V30 9218 H 856.321 1.35987 0.731227 0
M  V30 9219 H 858.279 1.41696 3.85269 0
M  V30 9220 H 856.94 0.526543 3.09655 0
M  V30 9221 H 856.133 2.55411 4.3449 0
M  V30 9222 H 855.735 2.67359 2.61524 0
M  V30 9223 H 858.027 3.90021 5.53977 0
M  V30 9224 H 858.97 5.22257 4.78177 0
M  V30 9225 H 859.378 3.52063 4.41262 0
M  V30 9226 N 858.776 -0.797141 1.35954 0
M  V30 9227 C 860.023 -1.55468 1.29754 0
M  V30 9228 C 860.351 -1.94095 -0.125391 0
M  V30 9229 O 859.606 -1.62341 -1.09288 0
M  V30 9230 C 859.905 -2.84847 2.15863 0
M  V30 9231 C 859.571 -2.65394 3.64523 0
M  V30 9232 C 858.233 -2.59796 4.05042 0
M  V30 9233 C 860.585 -2.4727 4.58811 0
M  V30 9234 C 857.913 -2.3403 5.38002 0
M  V30 9235 C 860.265 -2.23032 5.91979 0
M  V30 9236 C 858.929 -2.15862 6.31633 0
M  V30 9237 H 858.199 -0.568897 0.474803 0
M  V30 9238 H 860.846 -0.920299 1.67937 0
M  V30 9239 H 859.151 -3.52712 1.70591 0
M  V30 9240 H 860.848 -3.42597 2.08395 0
M  V30 9241 H 857.438 -2.70602 3.32374 0
M  V30 9242 H 861.622 -2.506 4.28384 0
M  V30 9243 H 856.878 -2.26956 5.67715 0
M  V30 9244 H 861.052 -2.08001 6.64612 0
M  V30 9245 H 858.679 -1.9566 7.34589 0
M  V30 9246 N 860.254 -1.20106 -1.0204 0
M  V30 9247 C 861.5 -1.01039 -1.75838 0
M  V30 9248 C 861.833 0.456819 -1.88751 0
M  V30 9249 O 861.108 1.33919 -1.41053 0
M  V30 9250 C 861.391 -1.69009 -3.17975 0
M  V30 9251 C 861.244 -3.2315 -3.1288 0
M  V30 9252 C 862.563 -1.42005 -4.16561 0
M  V30 9253 H 859.682 -0.368465 -0.638281 0
M  V30 9254 H 862.324 -1.48066 -1.19064 0
M  V30 9255 H 860.474 -1.29026 -3.66449 0
M  V30 9256 H 862.146 -3.72402 -2.72239 0
M  V30 9257 H 860.389 -3.54253 -2.50374 0
M  V30 9258 H 861.06 -3.65862 -4.13339 0
M  V30 9259 H 863.536 -1.76685 -3.76725 0
M  V30 9260 H 862.412 -1.92101 -5.14187 0
M  V30 9261 H 862.673 -0.346884 -4.40737 0
M  V30 9262 N 861.732 1.21287 -1.00634 0
M  V30 9263 C 862.962 1.94103 -0.70765 0
M  V30 9264 C 863.37 1.74382 0.733991 0
M  V30 9265 O 862.713 1.04843 1.50843 0
M  V30 9266 C 862.775 3.46705 -0.950581 0
M  V30 9267 C 862.439 3.90176 -2.37932 0
M  V30 9268 C 863.436 3.96769 -3.35961 0
M  V30 9269 C 861.121 4.22453 -2.71733 0
M  V30 9270 C 863.115 4.35034 -4.65858 0
M  V30 9271 C 860.802 4.60394 -4.01846 0
M  V30 9272 C 861.8 4.66656 -4.9872 0
M  V30 9273 O 861.488 5.03732 -6.26505 0
M  V30 9274 H 861.22 0.62405 -0.259881 0
M  V30 9275 H 863.774 1.55015 -1.34757 0
M  V30 9276 H 862.004 3.85868 -0.253492 0
M  V30 9277 H 863.693 4.00741 -0.645069 0
M  V30 9278 H 864.459 3.72009 -3.11182 0
M  V30 9279 H 860.338 4.16776 -1.97025 0
M  V30 9280 H 863.882 4.39836 -5.4147 0
M  V30 9281 H 859.779 4.84609 -4.26409 0
M  V30 9282 H 860.547 5.21761 -6.30641 0
M  V30 9283 N 863.21 0.781244 1.36873 0
M  V30 9284 C 864.459 0.34652 1.98701 0
M  V30 9285 C 864.772 -1.08555 1.62712 0
M  V30 9286 O 865.978 -1.62213 2.17713 0
M  V30 9287 C 864.434 0.568611 3.5538 0
M  V30 9288 C 864.042 2.01156 4.003 0
M  V30 9289 C 865.786 0.197983 4.24038 0
M  V30 9290 C 863.693 2.18074 5.49725 0
M  V30 9291 H 862.623 0.125821 0.743428 0
M  V30 9292 H 865.274 0.961721 1.56279 0
M  V30 9293 H 863.656 -0.116185 3.9583 0
M  V30 9294 H 864.83 2.73209 3.71071 0
M  V30 9295 H 863.145 2.33967 3.44454 0
M  V30 9296 H 865.742 0.302778 5.33842 0
M  V30 9297 H 866.085 -0.852927 4.07469 0
M  V30 9298 H 866.618 0.835696 3.88923 0
M  V30 9299 H 863.357 3.21519 5.71232 0
M  V30 9300 H 862.877 1.50517 5.80607 0
M  V30 9301 H 864.556 1.98393 6.15832 0
M  V30 9302 N 864.689 -1.48329 0.532571 0
M  V30 9303 C 865.935 -2.028 -0.000583219 0
M  V30 9304 C 866.268 -1.40858 -1.33688 0
M  V30 9305 O 865.543 -0.555261 -1.86406 0
M  V30 9306 C 865.826 -3.59901 -0.119846 0
M  V30 9307 C 865.679 -4.32318 1.2418 0
M  V30 9308 C 866.998 -4.31904 -0.845372 0
M  V30 9309 H 864.117 -0.736999 0.00126205 0
M  V30 9310 H 866.759 -1.77024 0.690102 0
M  V30 9311 H 864.909 -3.81993 -0.708092 0
M  V30 9312 H 866.581 -4.21637 1.87136 0
M  V30 9313 H 864.824 -3.93635 1.82301 0
M  V30 9314 H 865.495 -5.40697 1.11132 0
M  V30 9315 H 867.971 -4.14658 -0.346159 0
M  V30 9316 H 866.847 -5.41509 -0.897723 0
M  V30 9317 H 867.108 -3.99369 -1.89622 0
M  V30 9318 N 866.167 -0.267825 -1.55308 0
M  V30 9319 C 867.414 0.351036 -1.99434 0
M  V30 9320 C 867.742 1.56406 -1.15618 0
M  V30 9321 O 866.997 1.94548 -0.212045 0
M  V30 9322 C 867.296 0.784247 -3.48689 0
M  V30 9323 C 866.962 -0.323328 -4.49739 0
M  V30 9324 C 865.624 -0.627467 -4.77091 0
M  V30 9325 C 867.976 -1.07002 -5.10098 0
M  V30 9326 C 865.304 -1.682 -5.62073 0
M  V30 9327 C 867.656 -2.11422 -5.96224 0
M  V30 9328 C 866.32 -2.42479 -6.21901 0
M  V30 9329 H 865.59 0.128453 -0.729781 0
M  V30 9330 H 868.237 -0.380018 -1.87692 0
M  V30 9331 H 866.542 1.59485 -3.57871 0
M  V30 9332 H 868.239 1.2737 -3.80234 0
M  V30 9333 H 864.829 -0.0761528 -4.28532 0
M  V30 9334 H 869.013 -0.848302 -4.88996 0
M  V30 9335 H 864.269 -1.92772 -5.80215 0
M  V30 9336 H 868.443 -2.69759 -6.4203 0
M  V30 9337 H 866.07 -3.24328 -6.87543 0
M  V30 9338 N 867.645 1.57599 0.00500368 0
M  V30 9339 C 868.575 2.11143 0.99705 0
M  V30 9340 C 869.556 1.0194 1.3617 0
M  V30 9341 O 870.741 1.29596 1.44632 0
M  V30 9342 C 867.871 2.61062 2.2905 0
M  V30 9343 C 866.825 3.74745 2.0676 0
M  V30 9344 C 866.151 4.10961 3.42075 0
M  V30 9345 C 867.451 5.02222 1.43424 0
M  V30 9346 H 869.145 2.94281 0.551251 0
M  V30 9347 H 866.691 1.41565 0.263715 0
M  V30 9348 H 868.644 2.97146 2.98801 0
M  V30 9349 H 867.368 1.75038 2.75734 0
M  V30 9350 H 866.027 3.39047 1.39436 0
M  V30 9351 H 865.675 3.21968 3.86453 0
M  V30 9352 H 865.375 4.87549 3.27979 0
M  V30 9353 H 866.899 4.49599 4.1315 0
M  V30 9354 H 868.313 5.36109 2.03125 0
M  V30 9355 H 866.71 5.83581 1.39831 0
M  V30 9356 H 867.78 4.83224 0.40285 0
M  V30 9357 N 869.123 -0.277682 1.55134 0
M  V30 9358 C 870.37 -1.0099 1.7552 0
M  V30 9359 C 870.698 -1.86452 0.553712 0
M  V30 9360 O 869.953 -1.90122 -0.463896 0
M  V30 9361 C 870.252 -1.92599 3.01065 0
M  V30 9362 C 869.918 -1.22926 4.3382 0
M  V30 9363 C 868.58 -1.03659 4.69902 0
M  V30 9364 C 870.932 -0.733071 5.16019 0
M  V30 9365 C 868.26 -0.334933 5.85743 0
M  V30 9366 C 870.612 -0.0450319 6.32584 0
M  V30 9367 C 869.276 0.159393 6.6731 0
M  V30 9368 H 868.546 -0.36955 0.642273 0
M  V30 9369 H 871.193 -0.282611 1.89403 0
M  V30 9370 H 869.498 -2.71934 2.82062 0
M  V30 9371 H 871.195 -2.49367 3.14034 0
M  V30 9372 H 867.785 -1.38933 4.05457 0
M  V30 9373 H 871.969 -0.869565 4.88623 0
M  V30 9374 H 867.225 -0.165783 6.11175 0
M  V30 9375 H 871.399 0.34723 6.95534 0
M  V30 9376 H 869.026 0.70507 7.56923 0
M  V30 9377 N 870.601 -1.47988 -0.541979 0
M  V30 9378 C 871.849 -1.55086 -1.29587 0
M  V30 9379 C 872.17 -0.221304 -1.9374 0
M  V30 9380 O 871.44 0.756128 -1.80719 0
M  V30 9381 H 870.02 -0.571307 -0.481266 0
M  V30 9382 H 872.682 -1.8438 -0.631675 0
M  V30 9383 H 871.778 -2.32556 -2.08144 0
M  V30 9384 N 872.079 0.78992 -1.36375 0
M  V30 9385 C 873.326 1.54777 -1.30576 0
M  V30 9386 C 873.654 1.94159 0.115095 0
M  V30 9387 O 872.909 1.62918 1.08426 0
M  V30 9388 C 873.208 2.83698 -2.17371 0
M  V30 9389 C 872.874 2.63457 -3.65925 0
M  V30 9390 C 871.536 2.57645 -4.06415 0
M  V30 9391 C 873.888 2.44833 -4.60115 0
M  V30 9392 C 871.216 2.31174 -5.39236 0
M  V30 9393 C 873.568 2.19889 -5.93154 0
M  V30 9394 C 872.232 2.1251 -6.32768 0
M  V30 9395 H 871.502 0.566371 -0.477813 0
M  V30 9396 H 874.149 0.91138 -1.68422 0
M  V30 9397 H 872.454 3.51802 -1.72459 0
M  V30 9398 H 874.151 3.41487 -2.10209 0
M  V30 9399 H 870.741 2.68836 -3.33804 0
M  V30 9400 H 874.925 2.48325 -4.29707 0
M  V30 9401 H 870.181 2.23942 -5.68911 0
M  V30 9402 H 874.355 2.04473 -6.65705 0
M  V30 9403 H 871.982 1.91761 -7.35616 0
M  V30 9404 N 873.557 1.20646 1.01402 0
M  V30 9405 C 874.782 1.04462 1.79172 0
M  V30 9406 C 875.207 -0.401588 1.83763 0
M  V30 9407 O 874.565 -1.28934 1.27459 0
M  V30 9408 C 874.613 1.63583 3.21361 0
M  V30 9409 O 873.717 0.875198 4.03006 0
M  V30 9410 H 873.058 0.368235 0.552539 0
M  V30 9411 H 875.588 1.59994 1.27526 0
M  V30 9412 H 875.598 1.67426 3.72065 0
M  V30 9413 H 874.273 2.68835 3.17334 0
M  V30 9414 H 872.85 0.911172 3.61597 0
M  V30 9415 N 875.035 -1.20752 1.01276 0
M  V30 9416 C 876.263 -1.94006 0.718976 0
M  V30 9417 C 876.678 -1.74544 -0.719711 0
M  V30 9418 O 876.035 -1.05697 -1.48776 0
M  V30 9419 C 876.086 -3.46208 1.04031 0
M  V30 9420 O 875.807 -3.65031 2.42248 0
M  V30 9421 C 877.308 -4.36614 0.767032 0
M  V30 9422 H 874.528 -0.616743 0.264327 0
M  V30 9423 H 877.072 -1.53352 1.3529 0
M  V30 9424 H 875.227 -3.84756 0.451852 0
M  V30 9425 H 875.641 -4.59054 2.53712 0
M  V30 9426 H 877.115 -5.42076 1.04198 0
M  V30 9427 H 877.592 -4.38182 -0.298851 0
M  V30 9428 H 878.198 -4.03723 1.33746 0
M  V30 9429 N 876.513 -0.788492 -1.36457 0
M  V30 9430 C 877.476 -0.192209 -2.28393 0
M  V30 9431 C 878.476 0.609916 -1.48784 0
M  V30 9432 O 879.666 0.431046 -1.68783 0
M  V30 9433 C 876.798 0.734096 -3.32902 0
M  V30 9434 H 877.991 -1.00284 -2.82636 0
M  V30 9435 H 875.544 -0.557852 -1.46006 0
M  V30 9436 H 876.279 1.5691 -2.83813 0
M  V30 9437 H 876.064 0.160875 -3.9177 0
M  V30 9438 H 877.554 1.1462 -4.01562 0
M  V30 9439 N 877.991 1.48044 -0.54043 0
M  V30 9440 C 879.237 2.02797 -0.0101718 0
M  V30 9441 C 879.57 1.41565 1.32939 0
M  V30 9442 O 878.845 0.565139 1.86109 0
M  V30 9443 C 879.128 3.59959 0.100758 0
M  V30 9444 C 878.981 4.31654 -1.26471 0
M  V30 9445 C 880.3 4.32347 0.822455 0
M  V30 9446 H 877.419 0.736982 -0.00517052 0
M  V30 9447 H 880.061 1.76656 -0.69948 0
M  V30 9448 H 878.211 3.82363 0.687824 0
M  V30 9449 H 879.883 4.20639 -1.89369 0
M  V30 9450 H 878.126 3.92663 -1.84386 0
M  V30 9451 H 878.797 5.401 -1.13998 0
M  V30 9452 H 881.273 4.14835 0.324164 0
M  V30 9453 H 880.149 5.41978 0.868993 0
M  V30 9454 H 880.41 4.00369 1.87501 0
M  V30 9455 N 879.47 0.276058 1.55163 0
M  V30 9456 C 880.716 -0.340959 1.99913 0
M  V30 9457 C 881.049 -1.55434 1.16422 0
M  V30 9458 O 880.324 -1.93081 0.234517 0
M  V30 9459 C 880.607 -0.722211 3.52783 0
M  V30 9460 C 880.46 0.498575 4.47028 0
M  V30 9461 C 881.779 -1.5583 4.11589 0
M  V30 9462 H 878.898 -0.122455 0.726756 0
M  V30 9463 H 881.54 0.38319 1.86096 0
M  V30 9464 H 879.69 -1.33919 3.64689 0
M  V30 9465 H 881.362 1.13713 4.47065 0
M  V30 9466 H 879.605 1.13646 4.18649 0
M  V30 9467 H 880.276 0.188041 5.5168 0
M  V30 9468 H 882.752 -1.03722 4.02965 0
M  V30 9469 H 881.628 -1.79387 5.1876 0
M  V30 9470 H 881.889 -2.53963 3.61877 0
M  V30 9471 N 880.948 -1.576 0.00335426 0
M  V30 9472 C 882.176 -1.94996 -0.691685 0
M  V30 9473 C 882.591 -0.878405 -1.67121 0
M  V30 9474 O 881.948 0.142343 -1.81944 0
M  V30 9475 C 881.999 -3.32416 -1.42063 0
M  V30 9476 O 881.72 -4.35458 -0.48038 0
M  V30 9477 C 883.221 -3.84291 -2.20987 0
M  V30 9478 H 880.441 -0.642814 -0.192434 0
M  V30 9479 H 882.985 -2.04425 0.0554706 0
M  V30 9480 H 881.14 -3.24285 -2.11939 0
M  V30 9481 H 881.554 -5.14975 -0.995054 0
M  V30 9482 H 883.028 -4.82863 -2.67483 0
M  V30 9483 H 883.505 -3.17174 -3.03805 0
M  V30 9484 H 884.111 -3.95609 -1.56121 0
M  V30 9485 N 882.426 0.269451 -1.5528 0
M  V30 9486 C 883.356 1.33729 -1.91413 0
M  V30 9487 C 884.337 1.51348 -0.776391 0
M  V30 9488 O 885.522 1.64332 -1.03482 0
M  V30 9489 C 882.652 2.69618 -2.18914 0
M  V30 9490 C 881.606 2.66725 -3.34726 0
M  V30 9491 C 880.932 4.06199 -3.47716 0
M  V30 9492 C 882.232 2.25684 -4.71025 0
M  V30 9493 H 883.926 1.03736 -2.80854 0
M  V30 9494 H 881.472 0.497579 -1.3513 0
M  V30 9495 H 883.425 3.44436 -2.42779 0
M  V30 9496 H 882.149 3.01201 -1.26275 0
M  V30 9497 H 880.808 1.94365 -3.10834 0
M  V30 9498 H 880.456 4.3501 -2.52537 0
M  V30 9499 H 880.156 4.05157 -4.25583 0
M  V30 9500 H 881.68 4.8275 -3.73877 0
M  V30 9501 H 883.094 2.90225 -4.94411 0
M  V30 9502 H 881.491 2.35797 -5.51833 0
M  V30 9503 H 882.561 1.20819 -4.69607 0
M  V30 9504 N 883.904 1.48273 0.534124 0
M  V30 9505 C 885.153 1.55334 1.28663 0
M  V30 9506 C 885.466 0.230345 1.94239 0
M  V30 9507 O 886.672 0.179161 2.70908 0
M  V30 9508 C 885.128 2.73927 2.33435 0
M  V30 9509 C 884.736 4.12852 1.73947 0
M  V30 9510 C 886.48 2.90298 3.09722 0
M  V30 9511 C 884.387 5.22711 2.76636 0
M  V30 9512 H 883.317 0.578262 0.483869 0
M  V30 9513 H 885.968 1.74598 0.564602 0
M  V30 9514 H 884.35 2.48089 3.08655 0
M  V30 9515 H 885.524 4.48691 1.04944 0
M  V30 9516 H 883.839 4.01562 1.10167 0
M  V30 9517 H 886.436 3.69542 3.86449 0
M  V30 9518 H 886.779 1.99598 3.6533 0
M  V30 9519 H 887.312 3.16017 2.41616 0
M  V30 9520 H 884.051 6.15362 2.25852 0
M  V30 9521 H 883.571 4.91364 3.43979 0
M  V30 9522 H 885.25 5.50648 3.39699 0
M  V30 9523 N 885.382 -0.782676 1.36792 0
M  V30 9524 C 886.292 -1.92679 1.33835 0
M  V30 9525 C 887.308 -1.72344 0.23952 0
M  V30 9526 O 888.484 -1.95766 0.473045 0
M  V30 9527 C 885.549 -3.27644 1.1336 0
M  V30 9528 C 884.61 -3.6071 2.32781 0
M  V30 9529 C 883.843 -4.89234 2.13273 0
M  V30 9530 O 884.066 -5.59468 1.11136 0
M  V30 9531 O 883 -5.21112 3.01208 0
M  V30 9532 H 886.826 -1.98124 2.30175 0
M  V30 9533 H 884.411 -0.923887 1.17408 0
M  V30 9534 H 886.293 -4.08394 1.03886 0
M  V30 9535 H 884.968 -3.23076 0.200868 0
M  V30 9536 H 883.875 -2.80238 2.47825 0
M  V30 9537 H 885.208 -3.70008 3.24584 0
M  V30 9538 N 886.86 -1.21182 -1.00761 0
M  V30 9539 C 888.137 -0.936297 -1.71735 0
M  V30 9540 C 888.517 0.552585 -2.03739 0
M  V30 9541 O 887.865 1.51672 -1.70903 0
M  V30 9542 C 888.075 -1.81867 -2.97868 0
M  V30 9543 C 889.423 -2.06594 -3.7095 0
M  V30 9544 O 890.447 -1.79194 -3.07844 0
M  V30 9545 O 889.306 -2.5292 -4.84452 0
M  V30 9546 H 886.4 -0.350867 -0.74888 0
M  V30 9547 H 888.946 -1.32098 -1.06527 0
M  V30 9548 H 887.718 -2.82643 -2.70607 0
M  V30 9549 H 887.341 -1.43463 -3.70815 0
M  V30 9550 N 888.338 1.20213 -1.01915 0
M  V30 9551 C 889.586 1.89272 -0.708552 0
M  V30 9552 C 889.907 1.79394 0.76438 0
M  V30 9553 O 889.177 1.198 1.54999 0
M  V30 9554 H 887.757 0.700628 -0.259094 0
M  V30 9555 H 890.419 1.45985 -1.29129 0
M  V30 9556 H 889.515 2.95841 -0.994215 0
M  V30 9557 N 889.816 0.795718 1.36037 0
M  V30 9558 C 890.763 0.196548 2.29962 0
M  V30 9559 C 891.733 -0.663213 1.52285 0
M  V30 9560 O 892.918 -0.610574 1.80767 0
M  V30 9561 C 890.058 -0.657639 3.38776 0
M  V30 9562 C 889.171 0.221358 4.31433 0
M  V30 9563 C 888.306 -0.6398 5.27333 0
M  V30 9564 C 887.345 0.240265 6.11628 0
M  V30 9565 N 886.482 -0.580237 6.99698 0
M  V30 9566 H 891.322 1.00295 2.80615 0
M  V30 9567 H 888.859 0.506147 1.38118 0
M  V30 9568 H 890.817 -1.16793 4.00519 0
M  V30 9569 H 889.447 -1.42941 2.89426 0
M  V30 9570 H 888.499 0.84967 3.70789 0
M  V30 9571 H 889.811 0.899195 4.90628 0
M  V30 9572 H 888.965 -1.21566 5.94396 0
M  V30 9573 H 887.704 -1.35124 4.68607 0
M  V30 9574 H 886.709 0.828474 5.43522 0
M  V30 9575 H 887.934 0.949403 6.72431 0
M  V30 9576 H 885.88 -1.27585 6.43473 0
M  V30 9577 H 885.797 0.0397853 7.5599 0
M  V30 9578 H 887.065 -1.13972 7.71123 0
M  V30 9579 N 891.294 -1.47756 0.548274 0
M  V30 9580 C 892.242 -2.3158 -0.217584 0
M  V30 9581 C 893.236 -1.42372 -0.917957 0
M  V30 9582 O 894.442 -1.59184 -0.840259 0
M  V30 9583 H 890.817 -0.74671 -0.0890388 0
M  V30 9584 H 892.788 -2.94032 0.508719 0
M  V30 9585 C 891.537 -3.24834 -1.24008 0
M  V30 9586 H 890.86 -3.93435 -0.710572 0
M  V30 9587 H 892.3 -3.86336 -1.74701 0
M  V30 9588 C 890.759 -2.47724 -2.2833 0
M  V30 9589 O 891.289 -2.21522 -3.35098 0
M  V30 9590 N 889.495 -2.08891 -2.02022 0
M  V30 9591 H 889.042 -2.30401 -1.1521 0
M  V30 9592 H 889 -1.57613 -2.7204 0
M  V30 9593 N 892.772 -0.284283 -1.55015 0
M  V30 9594 C 894.049 0.382125 -1.91831 0
M  V30 9595 C 894.429 1.73007 -1.20962 0
M  V30 9596 O 893.777 2.25962 -0.339594 0
M  V30 9597 C 893.987 0.513341 -3.45204 0
M  V30 9598 C 895.335 0.791989 -4.17148 0
M  V30 9599 O 896.359 0.597799 -3.51148 0
M  V30 9600 O 895.218 1.16394 -5.33961 0
M  V30 9601 H 892.312 0.210707 -0.799707 0
M  V30 9602 H 894.858 -0.331111 -1.66438 0
M  V30 9603 H 893.63 -0.434911 -3.88876 0
M  V30 9604 H 893.253 1.27569 -3.76579 0
M  V30 9605 N 894.251 1.57596 -0.0117121 0
M  V30 9606 C 895.476 1.95764 0.684938 0
M  V30 9607 C 895.901 0.887285 1.65858 0
M  V30 9608 O 895.259 -0.153508 1.80649 0
M  V30 9609 C 895.307 3.33031 1.38285 0
M  V30 9610 O 894.411 3.28163 2.49765 0
M  V30 9611 H 893.752 0.638767 0.181309 0
M  V30 9612 H 896.282 2.04486 -0.0683883 0
M  V30 9613 H 896.292 3.68866 1.74362 0
M  V30 9614 H 894.967 4.10483 0.669043 0
M  V30 9615 H 893.544 3.04021 2.15929 0
M  V30 9616 N 895.729 -0.261212 1.5542 0
M  V30 9617 C 896.659 -1.32712 1.92119 0
M  V30 9618 C 897.64 -1.50934 0.784406 0
M  V30 9619 O 898.825 -1.63781 1.04352 0
M  V30 9620 C 895.955 -2.68453 2.20341 0
M  V30 9621 C 894.909 -2.64947 3.36136 0
M  V30 9622 C 894.235 -4.04349 3.49865 0
M  V30 9623 C 895.535 -2.23182 4.72215 0
M  V30 9624 H 897.229 -1.02245 2.81401 0
M  V30 9625 H 894.775 -0.490406 1.35392 0
M  V30 9626 H 896.728 -3.43144 2.44603 0
M  V30 9627 H 895.452 -3.00527 1.27871 0
M  V30 9628 H 894.111 -1.92714 3.11861 0
M  V30 9629 H 893.759 -4.33665 2.5484 0
M  V30 9630 H 893.459 -4.02895 4.27726 0
M  V30 9631 H 894.983 -4.80761 3.76432 0
M  V30 9632 H 896.397 -2.87599 4.95943 0
M  V30 9633 H 894.794 -2.32867 5.53076 0
M  V30 9634 H 895.864 -1.18327 4.70241 0
M  V30 9635 N 897.207 -1.48554 -0.526253 0
M  V30 9636 C 898.618 -1.50256 -1.10815 0
M  V30 9637 C 898.969 -0.274445 -1.94271 0
M  V30 9638 O 898.094 0.618094 -2.07385 0
M  V30 9639 C 898.689 -2.72264 -2.01638 0
M  V30 9640 C 897.248 -2.76826 -2.55038 0
M  V30 9641 C 896.395 -2.43823 -1.32081 0
M  V30 9642 H 899.346 -1.55616 -0.31133 0
M  V30 9643 H 899.367 -2.50993 -2.85977 0
M  V30 9644 H 898.879 -3.61632 -1.4087 0
M  V30 9645 H 896.98 -1.91676 -3.19517 0
M  V30 9646 H 897.093 -3.78351 -2.93917 0
M  V30 9647 H 895.457 -1.95058 -1.63781 0
M  V30 9648 H 896.24 -3.35436 -0.730596 0
M  V30 9649 N 898.685 0.775411 -1.37205 0
M  V30 9650 C 899.91 1.5696 -1.35567 0
M  V30 9651 C 900.335 1.88012 0.0575554 0
M  V30 9652 O 899.693 1.48954 1.03355 0
M  V30 9653 C 899.741 2.85886 -2.19776 0
M  V30 9654 O 898.845 3.80103 -1.59987 0
M  V30 9655 H 898.186 0.475583 -0.463375 0
M  V30 9656 H 900.716 0.96001 -1.80679 0
M  V30 9657 H 900.726 3.35024 -2.32859 0
M  V30 9658 H 899.401 2.62613 -3.22502 0
M  V30 9659 H 897.978 3.38736 -1.55924 0
M  V30 9660 N 900.163 1.21714 1.00117 0
M  V30 9661 C 901.073 0.99597 2.12409 0
M  V30 9662 C 902.089 -0.0531431 1.73919 0
M  V30 9663 O 903.265 0.137757 2.00928 0
M  V30 9664 C 900.33 0.567593 3.42022 0
M  V30 9665 C 899.391 1.68936 3.94663 0
M  V30 9666 C 898.624 1.28133 5.1809 0
M  V30 9667 O 898.847 0.156574 5.70185 0
M  V30 9668 O 897.781 2.0947 5.64275 0
M  V30 9669 H 901.607 1.93657 2.33946 0
M  V30 9670 H 899.192 1.00236 1.10784 0
M  V30 9671 H 901.074 0.338664 4.20037 0
M  V30 9672 H 899.749 -0.34424 3.21864 0
M  V30 9673 H 898.656 1.97274 3.17858 0
M  V30 9674 H 899.989 2.57876 4.19238 0
M  V30 9675 N 901.641 -1.19671 1.02551 0
M  V30 9676 C 902.866 -1.93774 0.739363 0
M  V30 9677 C 903.291 -1.74787 -0.695064 0
M  V30 9678 O 902.649 -1.04796 -1.47944 0
M  V30 9679 C 902.697 -3.43684 1.09149 0
M  V30 9680 O 901.801 -4.11874 0.208213 0
M  V30 9681 H 901.142 -0.605064 0.273484 0
M  V30 9682 H 903.672 -1.51846 1.37128 0
M  V30 9683 H 903.682 -3.94339 1.04695 0
M  V30 9684 H 902.357 -3.56826 2.13654 0
M  V30 9685 H 900.934 -3.716 0.311045 0
M  V30 9686 N 903.119 -0.802921 -1.35613 0
M  V30 9687 C 904.347 -0.39393 -2.03115 0
M  V30 9688 C 904.762 0.993961 -1.60517 0
M  V30 9689 O 904.119 1.63984 -0.800973 0
M  V30 9690 C 904.17 -0.463486 -3.58516 0
M  V30 9691 O 903.891 -1.79666 -3.99565 0
M  V30 9692 C 905.392 -0.0468377 -4.43275 0
M  V30 9693 H 902.612 -0.160519 -0.651517 0
M  V30 9694 H 905.156 -1.08552 -1.73311 0
M  V30 9695 H 903.311 0.179821 -3.86982 0
M  V30 9696 H 903.725 -1.75688 -4.942 0
M  V30 9697 H 905.199 -0.146626 -5.51805 0
M  V30 9698 H 905.676 1.00741 -4.2749 0
M  V30 9699 H 906.282 -0.663158 -4.20098 0
M  V30 9700 N 904.597 1.47463 -0.556102 0
M  V30 9701 C 905.822 2.07371 -0.0344729 0
M  V30 9702 C 906.247 1.40621 1.2493 0
M  V30 9703 O 905.605 0.48082 1.74808 0
M  V30 9704 C 905.653 3.60306 0.145563 0
M  V30 9705 O 904.757 3.94299 1.20839 0
M  V30 9706 H 904.098 0.662052 -0.0508274 0
M  V30 9707 H 906.628 1.89498 -0.771469 0
M  V30 9708 H 906.638 4.06408 0.360112 0
M  V30 9709 H 905.313 4.08288 -0.792089 0
M  V30 9710 H 903.89 3.59944 0.97442 0
M  V30 9711 N 906.075 0.2925 1.54862 0
M  V30 9712 C 907.025 -0.60226 2.19902 0
M  V30 9713 C 908.009 -1.10535 1.16923 0
M  V30 9714 O 909.201 -1.04753 1.42674 0
M  V30 9715 C 906.33 -1.77774 2.93686 0
M  V30 9716 C 905.416 -1.29101 4.03972 0
M  V30 9717 N 905.807 -0.521671 5.03103 0
M  V30 9718 C 904.105 -1.57248 4.17359 0
M  V30 9719 C 904.806 -0.263545 5.81103 0
M  V30 9720 N 903.782 -0.840937 5.37056 0
M  V30 9721 H 907.584 -0.00682274 2.93899 0
M  V30 9722 H 905.098 0.0968604 1.62111 0
M  V30 9723 H 907.095 -2.43021 3.38743 0
M  V30 9724 H 905.755 -2.37696 2.21203 0
M  V30 9725 H 906.766 -0.167364 5.1763 0
M  V30 9726 H 903.443 -2.1798 3.56077 0
M  V30 9727 H 904.833 0.353783 6.70968 0
M  V30 9728 N 907.553 -1.57587 0.0200696 0
M  V30 9729 C 908.969 -1.56018 -0.336237 0
M  V30 9730 C 909.169 -1.02478 -1.73495 0
M  V30 9731 O 908.225 -0.667487 -2.43518 0
M  V30 9732 C 909.538 -3.00079 -0.193112 0
M  V30 9733 C 911.086 -3.11863 -0.266557 0
M  V30 9734 C 911.561 -4.57747 -0.152326 0
M  V30 9735 N 913.052 -4.62726 -0.209596 0
M  V30 9736 C 913.787 -5.73217 -0.144855 0
M  V30 9737 N 913.283 -6.92794 -0.0295487 0
M  V30 9738 N 915.076 -5.61751 -0.198184 0
M  V30 9739 H 907.227 -1.90722 0.93482 0
M  V30 9740 H 909.49 -0.876909 0.360186 0
M  V30 9741 H 909.196 -3.43167 0.770036 0
M  V30 9742 H 909.07 -3.64593 -0.967029 0
M  V30 9743 H 911.457 -2.68693 -1.22016 0
M  V30 9744 H 911.538 -2.50087 0.53758 0
M  V30 9745 H 911.182 -5.01595 0.797817 0
M  V30 9746 H 911.112 -5.17491 -0.97521 0
M  V30 9747 H 913.603 -3.76713 -0.299229 0
M  V30 9748 H 913.916 -7.72799 0.0134071 0
M  V30 9749 H 912.261 -6.95 0.00510737 0
M  V30 9750 H 915.452 -4.67222 -0.286603 0
M  V30 9751 H 915.625 -6.47839 -0.144266 0
M  V30 9752 N 909.032 0.252966 -1.55557 0
M  V30 9753 C 910.278 0.979092 -1.78284 0
M  V30 9754 C 910.633 1.83194 -0.588009 0
M  V30 9755 O 909.926 1.86965 0.418899 0
M  V30 9756 C 910.12 1.87785 -3.04091 0
M  V30 9757 C 909.949 1.11349 -4.35697 0
M  V30 9758 C 908.719 0.821038 -4.98585 0
M  V30 9759 C 910.917 0.494039 -5.11922 0
M  V30 9760 N 908.899 0.0319767 -6.13892 0
M  V30 9761 C 910.27 -0.159888 -6.19794 0
M  V30 9762 C 912.325 0.403894 -4.96259 0
M  V30 9763 C 911.028 -0.895295 -7.13706 0
M  V30 9764 C 913.054 -0.317968 -5.90545 0
M  V30 9765 C 912.416 -0.960555 -6.9782 0
M  V30 9766 H 908.515 0.339586 -0.704419 0
M  V30 9767 H 911.099 0.252801 -1.93052 0
M  V30 9768 H 909.27 2.57623 -2.90663 0
M  V30 9769 H 911.002 2.53908 -3.15139 0
M  V30 9770 H 907.757 1.13132 -4.59889 0
M  V30 9771 H 908.181 -0.35047 -6.76092 0
M  V30 9772 H 912.823 0.886366 -4.13405 0
M  V30 9773 H 910.541 -1.38939 -7.96066 0
M  V30 9774 H 914.127 -0.388302 -5.80503 0
M  V30 9775 H 913.007 -1.51022 -7.69521 0
M  V30 9776 N 910.51 1.48831 0.518367 0
M  V30 9777 C 911.926 1.35209 0.847979 0
M  V30 9778 C 912.126 0.371927 1.98038 0
M  V30 9779 O 911.182 -0.202681 2.51685 0
M  V30 9780 C 912.495 2.7552 1.20455 0
M  V30 9781 C 914.043 2.84094 1.31377 0
M  V30 9782 C 914.518 4.25132 1.70372 0
M  V30 9783 N 916.009 4.27861 1.77453 0
M  V30 9784 C 916.744 5.3394 2.09035 0
M  V30 9785 N 916.24 6.50285 2.3896 0
M  V30 9786 N 918.033 5.21343 2.10139 0
M  V30 9787 H 910.184 2.11166 -0.228624 0
M  V30 9788 H 912.447 0.94717 -0.0396599 0
M  V30 9789 H 912.153 3.48861 0.445991 0
M  V30 9790 H 912.027 3.09785 2.15204 0
M  V30 9791 H 914.414 2.11001 2.06307 0
M  V30 9792 H 914.495 2.53433 0.347203 0
M  V30 9793 H 914.139 4.98745 0.959975 0
M  V30 9794 H 914.069 4.53245 2.68098 0
M  V30 9795 H 916.56 3.43945 1.56557 0
M  V30 9796 H 916.873 7.26961 2.62196 0
M  V30 9797 H 915.218 6.5354 2.36454 0
M  V30 9798 H 918.409 4.29462 1.86225 0
M  V30 9799 H 918.582 6.04112 2.34419 0
M  V30 9800 N 911.988 -0.768124 1.37614 0
M  V30 9801 C 913.236 -1.52379 1.3276 0
M  V30 9802 C 913.557 -1.94809 -0.0863564 0
M  V30 9803 O 912.827 -1.66568 -1.03112 0
M  V30 9804 H 911.407 -0.565179 0.488448 0
M  V30 9805 H 914.069 -0.913974 1.72141 0
M  V30 9806 H 913.165 -2.4215 1.96901 0
M  V30 9807 N 913.466 -1.22244 -0.994698 0
M  V30 9808 C 914.877 -1.043 -1.5485 0
M  V30 9809 C 915.228 0.394102 -1.92201 0
M  V30 9810 O 914.353 1.27883 -1.74571 0
M  V30 9811 C 914.948 -1.88708 -2.8138 0
M  V30 9812 C 913.507 -1.75067 -3.3321 0
M  V30 9813 C 912.654 -1.85286 -2.06312 0
M  V30 9814 H 915.605 -1.36115 -0.815988 0
M  V30 9815 H 915.626 -1.40342 -3.53673 0
M  V30 9816 H 915.138 -2.93296 -2.54164 0
M  V30 9817 H 913.239 -0.732047 -3.65338 0
M  V30 9818 H 913.352 -2.57632 -4.03934 0
M  V30 9819 H 911.716 -1.28706 -2.19788 0
M  V30 9820 H 912.499 -2.91401 -1.81494 0
M  V30 9821 N 914.944 1.19125 -1.03184 0
M  V30 9822 C 915.907 2.20662 -0.619766 0
M  V30 9823 C 916.907 1.57621 0.318179 0
M  V30 9824 O 918.097 1.73885 0.104783 0
M  V30 9825 C 915.229 3.40774 0.0926696 0
M  V30 9826 H 916.422 2.58633 -1.5182 0
M  V30 9827 H 913.975 1.32855 -0.823364 0
M  V30 9828 H 914.71 3.08324 1.00531 0
M  V30 9829 H 914.495 3.87766 -0.581344 0
M  V30 9830 H 915.985 4.15977 0.367792 0
M  V30 9831 N 916.422 0.810101 1.35185 0
M  V30 9832 C 917.662 0.397802 2.00492 0
M  V30 9833 C 918.026 -1.01684 1.62863 0
M  V30 9834 O 919.227 -1.53133 2.20916 0
M  V30 9835 C 917.498 0.579524 3.5267 0
M  V30 9836 S 919.057 0.258169 4.3804 0
M  V30 9837 H 915.875 0.150904 0.694801 0
M  V30 9838 H 918.477 1.05312 1.64711 0
M  V30 9839 H 917.181 1.60901 3.77543 0
M  V30 9840 H 916.712 -0.0909886 3.93295 0
M  V30 9841 H 918.727 -0.932882 4.87352 0
M  V30 9842 N 917.9 -1.47166 0.563914 0
M  V30 9843 C 919.316 -1.58018 0.224173 0
M  V30 9844 C 919.516 -1.56163 -1.27339 0
M  V30 9845 O 918.572 -1.4686 -2.05398 0
M  V30 9846 C 919.885 -2.88236 0.856762 0
M  V30 9847 C 921.433 -3.01833 0.82861 0
M  V30 9848 C 921.908 -4.34761 1.44039 0
M  V30 9849 N 923.399 -4.41413 1.40388 0
M  V30 9850 C 924.134 -5.42845 1.84681 0
M  V30 9851 N 923.63 -6.51052 2.3686 0
M  V30 9852 N 925.423 -5.33931 1.75711 0
M  V30 9853 H 917.574 -1.46615 1.53681 0
M  V30 9854 H 919.837 -0.698195 0.64127 0
M  V30 9855 H 919.543 -2.95349 1.90949 0
M  V30 9856 H 919.417 -3.75537 0.353766 0
M  V30 9857 H 921.804 -2.94312 -0.215451 0
M  V30 9858 H 921.885 -2.16056 1.36943 0
M  V30 9859 H 921.529 -4.43037 2.48355 0
M  V30 9860 H 921.459 -5.1928 0.874953 0
M  V30 9861 H 923.95 -3.63811 1.02227 0
M  V30 9862 H 924.263 -7.24633 2.68564 0
M  V30 9863 H 922.608 -6.51924 2.40875 0
M  V30 9864 H 925.799 -4.48295 1.34718 0
M  V30 9865 H 925.972 -6.12841 2.10547 0
M  V30 9866 N 919.378 -0.300708 -1.54705 0
M  V30 9867 C 920.789 0.191995 -1.8571 0
M  V30 9868 C 921.14 1.53447 -1.22264 0
M  V30 9869 O 920.265 2.10054 -0.520226 0
M  V30 9870 C 920.86 0.355148 -3.36933 0
M  V30 9871 C 919.419 0.792071 -3.67972 0
M  V30 9872 C 918.566 -0.099756 -2.77121 0
M  V30 9873 H 921.517 -0.521729 -1.49879 0
M  V30 9874 H 921.538 1.18977 -3.61421 0
M  V30 9875 H 921.05 -0.622075 -3.83082 0
M  V30 9876 H 919.151 1.77986 -3.27341 0
M  V30 9877 H 919.264 0.611661 -4.75179 0
M  V30 9878 H 917.628 0.420909 -2.51198 0
M  V30 9879 H 918.411 -1.07333 -3.2609 0
M  V30 9880 N 920.856 1.57574 -0.0284266 0
M  V30 9881 C 922.267 1.79585 0.510502 0
M  V30 9882 C 922.618 0.938625 1.72291 0
M  V30 9883 O 921.743 0.14884 2.15888 0
M  V30 9884 C 922.338 3.25703 0.932912 0
M  V30 9885 C 920.897 3.48711 1.41696 0
M  V30 9886 C 920.044 2.74665 0.381356 0
M  V30 9887 H 922.995 1.56647 -0.254464 0
M  V30 9888 H 923.016 3.35376 1.79731 0
M  V30 9889 H 922.528 3.88067 0.0503036 0
M  V30 9890 H 920.629 2.91597 2.31952 0
M  V30 9891 H 920.742 4.57423 1.42481 0
M  V30 9892 H 919.106 2.40123 0.8493 0
M  V30 9893 H 919.889 3.39745 -0.492775 0
M  V30 9894 N 922.334 -0.244713 1.55689 0
M  V30 9895 C 923.611 -0.995407 1.68378 0
M  V30 9896 C 923.991 -2.03288 0.568949 0
M  V30 9897 O 923.339 -2.24469 -0.427299 0
M  V30 9898 C 923.549 -1.62678 3.08767 0
M  V30 9899 C 924.897 -2.1278 3.67437 0
M  V30 9900 O 925.921 -1.72614 3.11581 0
M  V30 9901 O 924.78 -2.86536 4.65359 0
M  V30 9902 H 921.874 -0.463476 0.684923 0
M  V30 9903 H 924.42 -0.238326 1.68018 0
M  V30 9904 H 923.192 -0.876469 3.81358 0
M  V30 9905 H 922.815 -2.45 3.13146 0
M  V30 9906 N 923.813 -1.49104 -0.510467 0
M  V30 9907 C 925.038 -1.62068 -1.29417 0
M  V30 9908 C 925.463 -0.288432 -1.85875 0
M  V30 9909 O 924.821 0.742667 -1.65391 0
M  V30 9910 C 924.869 -2.68506 -2.40701 0
M  V30 9911 O 923.973 -2.27021 -3.4429 0
M  V30 9912 H 923.314 -0.542778 -0.382476 0
M  V30 9913 H 925.844 -1.95228 -0.612154 0
M  V30 9914 H 925.854 -2.90383 -2.86604 0
M  V30 9915 H 924.529 -3.65216 -1.98973 0
M  V30 9916 H 923.106 -2.15436 -3.04371 0
M  V30 9917 N 925.291 0.760815 -1.38019 0
M  V30 9918 C 926.516 1.55513 -1.37224 0
M  V30 9919 C 926.941 1.88062 0.037611 0
M  V30 9920 O 926.299 1.50042 1.0177 0
M  V30 9921 C 926.347 2.83539 -2.22796 0
M  V30 9922 O 925.451 3.78384 -1.64009 0
M  V30 9923 H 924.792 0.470642 -0.468393 0
M  V30 9924 H 927.322 0.940792 -1.81687 0
M  V30 9925 H 927.332 3.32535 -2.36399 0
M  V30 9926 H 926.007 2.59178 -3.25269 0
M  V30 9927 H 924.584 3.37063 -1.59508 0
M  V30 9928 N 926.769 1.22769 0.988202 0
M  V30 9929 C 927.999 1.07998 1.76125 0
M  V30 9930 C 928.407 -0.372062 1.85506 0
M  V30 9931 O 927.75 -1.26946 1.3278 0
M  V30 9932 C 927.812 1.6219 3.20834 0
M  V30 9933 C 927.476 3.1086 3.34986 0
M  V30 9934 C 928.473 4.08239 3.21927 0
M  V30 9935 C 926.158 3.50411 3.59886 0
M  V30 9936 C 928.152 5.43154 3.33561 0
M  V30 9937 C 925.839 4.85473 3.71159 0
M  V30 9938 C 926.837 5.81653 3.58006 0
M  V30 9939 O 926.525 7.14263 3.68895 0
M  V30 9940 H 926.257 0.378937 0.559806 0
M  V30 9941 H 928.811 1.62925 1.25078 0
M  V30 9942 H 927.041 1.01676 3.73094 0
M  V30 9943 H 928.73 1.43011 3.79872 0
M  V30 9944 H 929.496 3.79025 3.02597 0
M  V30 9945 H 925.375 2.76068 3.69198 0
M  V30 9946 H 928.919 6.18207 3.23211 0
M  V30 9947 H 924.816 5.14365 3.89998 0
M  V30 9948 H 925.584 7.21906 3.85739 0
M  V30 9949 N 928.247 -1.18576 1.03814 0
M  V30 9950 C 929.195 -2.24166 0.620678 0
M  V30 9951 C 930.189 -1.65718 -0.351282 0
M  V30 9952 O 931.395 -1.78665 -0.218848 0
M  V30 9953 H 927.77 -0.729522 0.182487 0
M  V30 9954 H 929.741 -2.56686 1.52166 0
M  V30 9955 C 928.49 -3.477 -0.00307331 0
M  V30 9956 H 927.813 -3.92969 0.735874 0
M  V30 9957 H 929.253 -4.23214 -0.257988 0
M  V30 9958 C 927.712 -3.12757 -1.2524 0
M  V30 9959 O 928.242 -3.26261 -2.34344 0
M  V30 9960 N 926.448 -2.67104 -1.14471 0
M  V30 9961 H 925.995 -2.56316 -0.256873 0
M  V30 9962 H 925.953 -2.44096 -1.98153 0
M  V30 9963 N 929.725 -0.817259 -1.34754 0
M  V30 9964 C 930.95 -0.414423 -2.03217 0
M  V30 9965 C 931.375 0.970037 -1.61158 0
M  V30 9966 O 930.733 1.63016 -0.793436 0
M  V30 9967 C 930.781 -0.518087 -3.56859 0
M  V30 9968 O 929.885 0.464314 -4.09778 0
M  V30 9969 H 929.226 -0.171454 -0.641482 0
M  V30 9970 H 931.756 -1.10611 -1.72123 0
M  V30 9971 H 931.766 -0.391779 -4.06115 0
M  V30 9972 H 930.441 -1.52786 -3.86819 0
M  V30 9973 H 929.018 0.297361 -3.71712 0
M  V30 9974 N 931.203 1.46865 -0.571711 0
M  V30 9975 C 932.133 2.3298 0.155795 0
M  V30 9976 C 933.114 1.44678 0.894553 0
M  V30 9977 O 934.299 1.73513 0.872176 0
M  V30 9978 C 931.429 3.26745 1.17708 0
M  V30 9979 C 930.383 4.24401 0.553863 0
M  V30 9980 C 929.709 5.07595 1.68083 0
M  V30 9981 C 931.009 5.19884 -0.501827 0
M  V30 9982 H 932.703 2.94056 -0.563176 0
M  V30 9983 H 930.249 1.41402 -0.27228 0
M  V30 9984 H 932.202 3.85838 1.6943 0
M  V30 9985 H 930.926 2.63753 1.92618 0
M  V30 9986 H 929.585 3.66554 0.057815 0
M  V30 9987 H 929.233 4.40996 2.41933 0
M  V30 9988 H 928.933 5.73722 1.26953 0
M  V30 9989 H 930.457 5.6955 2.20103 0
M  V30 9990 H 931.871 5.73257 -0.0701057 0
M  V30 9991 H 930.268 5.94293 -0.832815 0
M  V30 9992 H 931.338 4.64482 -1.39229 0
M  V30 9993 N 932.681 0.308908 1.54543 0
M  V30 9994 C 933.911 -0.299983 2.04411 0
M  V30 9995 C 934.319 -1.47463 1.18538 0
M  V30 9996 O 933.662 -1.82547 0.205463 0
M  V30 9997 C 933.724 -0.811579 3.50219 0
M  V30 9998 C 933.388 0.238834 4.56375 0
M  V30 9999 C 934.385 1.06997 5.08771 0
M  V30 10000 C 932.07 0.382808 5.00839 0
M  V30 10001 C 934.064 2.03096 6.04178 0
M  V30 10002 C 931.751 1.34723 5.96065 0
M  V30 10003 C 932.749 2.16978 6.47618 0
M  V30 10004 O 932.437 3.11783 7.40977 0
M  V30 10005 H 932.169 -0.0679682 0.672574 0
M  V30 10006 H 934.723 0.448815 2.00437 0
M  V30 10007 H 932.953 -1.61104 3.51543 0
M  V30 10008 H 934.642 -1.33721 3.83241 0
M  V30 10009 H 935.408 0.969654 4.75208 0
M  V30 10010 H 931.287 -0.247507 4.60335 0
M  V30 10011 H 934.831 2.67338 6.44342 0
M  V30 10012 H 930.728 1.44824 6.29044 0
M  V30 10013 H 931.496 3.06853 7.58804 0
M  V30 10014 N 934.159 -1.57557 0.0367827 0
M  V30 10015 C 935.384 -1.96828 -0.653707 0
M  V30 10016 C 935.809 -0.913559 -1.64425 0
M  V30 10017 O 935.167 0.124749 -1.8087 0
M  V30 10018 C 935.215 -3.35189 -1.32969 0
M  V30 10019 O 934.319 -3.32095 -2.44513 0
M  V30 10020 H 933.66 -0.64157 -0.171124 0
M  V30 10021 H 936.19 -2.04351 0.100912 0
M  V30 10022 H 936.2 -3.71593 -1.68472 0
M  V30 10023 H 934.875 -4.11496 -0.603654 0
M  V30 10024 H 933.452 -3.07418 -2.11065 0
M  V30 10025 N 935.637 0.236453 -1.55816 0
M  V30 10026 C 936.865 0.980295 -1.82203 0
M  V30 10027 C 937.28 1.7854 -0.613926 0
M  V30 10028 O 936.637 1.77661 0.417491 0
M  V30 10029 C 936.688 1.90982 -3.06933 0
M  V30 10030 O 936.409 1.13728 -4.23081 0
M  V30 10031 C 937.91 2.76879 -3.46198 0
M  V30 10032 H 935.13 0.28799 -0.606055 0
M  V30 10033 H 937.674 0.256182 -2.02889 0
M  V30 10034 H 935.829 2.58808 -2.88266 0
M  V30 10035 H 936.243 1.76694 -4.93842 0
M  V30 10036 H 937.717 3.37831 -4.36548 0
M  V30 10037 H 938.194 3.48522 -2.67262 0
M  V30 10038 H 938.8 2.1449 -3.67252 0
M  V30 10039 N 937.115 1.49373 0.502552 0
M  V30 10040 C 938.355 1.60398 1.26696 0
M  V30 10041 C 938.719 0.283599 1.89894 0
M  V30 10042 O 939.92 0.269022 2.6745 0
M  V30 10043 C 938.191 2.72998 2.30666 0
M  V30 10044 S 939.75 3.03964 3.16466 0
M  V30 10045 H 936.568 0.565781 0.430596 0
M  V30 10046 H 939.17 1.87024 0.569418 0
M  V30 10047 H 937.874 3.67458 1.82765 0
M  V30 10048 H 937.405 2.4836 3.05091 0
M  V30 10049 H 939.42 2.45367 4.31288 0
M  V30 10050 N 938.594 -0.753485 1.38421 0
M  V30 10051 C 939.524 -1.8808 1.38377 0
M  V30 10052 C 940.505 -1.68258 0.249664 0
M  V30 10053 O 941.69 -1.88848 0.45276 0
M  V30 10054 C 938.82 -3.25608 1.20818 0
M  V30 10055 C 937.774 -3.60032 2.31433 0
M  V30 10056 C 937.1 -4.96297 1.9898 0
M  V30 10057 C 938.4 -3.64898 3.73694 0
M  V30 10058 H 940.094 -1.88375 2.32713 0
M  V30 10059 H 937.64 -0.90489 1.12017 0
M  V30 10060 H 939.593 -4.04127 1.19412 0
M  V30 10061 H 938.317 -3.25793 0.229433 0
M  V30 10062 H 936.976 -2.83831 2.32025 0
M  V30 10063 H 936.624 -4.93043 0.995889 0
M  V30 10064 H 936.324 -5.20298 2.73063 0
M  V30 10065 H 937.848 -5.77196 1.99193 0
M  V30 10066 H 939.262 -4.33531 3.75132 0
M  V30 10067 H 937.659 -4.00407 4.46983 0
M  V30 10068 H 938.729 -2.65124 4.06002 0
M  V30 10069 N 940.072 -1.23292 -0.981677 0
M  V30 10070 C 940.982 -1.02964 -2.10798 0
M  V30 10071 C 941.998 0.0254674 -1.73981 0
M  V30 10072 O 943.174 -0.169706 -2.00684 0
M  V30 10073 C 940.239 -0.621934 -3.41076 0
M  V30 10074 C 939.3 -1.75194 -3.91926 0
M  V30 10075 C 938.533 -1.36359 -5.15986 0
M  V30 10076 O 938.756 -0.247265 -5.69864 0
M  V30 10077 O 937.69 -2.18421 -5.60871 0
M  V30 10078 H 941.516 -1.97354 -2.30836 0
M  V30 10079 H 939.101 -1.01986 -1.09175 0
M  V30 10080 H 940.983 -0.405446 -4.19445 0
M  V30 10081 H 939.658 0.29299 -3.22371 0
M  V30 10082 H 938.565 -2.02305 -3.1468 0
M  V30 10083 H 939.898 -2.64513 -4.15083 0
M  V30 10084 N 941.55 1.18024 -1.04442 0
M  V30 10085 C 942.48 2.23988 -0.659683 0
M  V30 10086 C 943.461 1.6669 0.338904 0
M  V30 10087 O 944.646 1.92971 0.21817 0
M  V30 10088 C 941.776 3.4729 -0.0257672 0
M  V30 10089 C 940.73 4.17362 -0.948299 0
M  V30 10090 C 940.056 5.34401 -0.17866 0
M  V30 10091 C 941.356 4.70435 -2.26909 0
M  V30 10092 H 943.05 2.56425 -1.54553 0
M  V30 10093 H 940.596 1.23256 -0.744575 0
M  V30 10094 H 942.549 4.20627 0.255131 0
M  V30 10095 H 941.273 3.14098 0.894981 0
M  V30 10096 H 939.932 3.45928 -1.21364 0
M  V30 10097 H 939.58 4.97458 0.744614 0
M  V30 10098 H 939.28 5.8222 -0.793294 0
M  V30 10099 H 940.804 6.10526 0.0951315 0
M  V30 10100 H 942.218 5.35447 -2.04864 0
M  V30 10101 H 940.615 5.28803 -2.83703 0
M  V30 10102 H 941.685 3.87653 -2.91296 0
M  V30 10103 N 943.028 0.824394 1.34319 0
M  V30 10104 C 944.275 0.413167 1.9824 0
M  V30 10105 C 944.603 -1.02412 1.65354 0
M  V30 10106 O 943.858 -1.72831 0.91803 0
M  V30 10107 C 944.157 0.564024 3.52921 0
M  V30 10108 C 943.823 1.96725 4.05722 0
M  V30 10109 C 942.485 2.35111 4.19853 0
M  V30 10110 C 944.837 2.88447 4.34106 0
M  V30 10111 C 942.165 3.64551 4.59695 0
M  V30 10112 C 944.517 4.17353 4.75394 0
M  V30 10113 C 943.181 4.55714 4.8773 0
M  V30 10114 H 942.451 0.151188 0.725412 0
M  V30 10115 H 945.098 1.04863 1.60238 0
M  V30 10116 H 943.403 -0.154816 3.91494 0
M  V30 10117 H 945.1 0.226347 4.00361 0
M  V30 10118 H 941.69 1.65908 3.95187 0
M  V30 10119 H 945.874 2.60034 4.22725 0
M  V30 10120 H 941.13 3.94097 4.67437 0
M  V30 10121 H 945.304 4.88512 4.96315 0
M  V30 10122 H 942.931 5.56064 5.1836 0
M  V30 10123 N 944.506 -1.46559 0.579492 0
M  V30 10124 C 945.453 -2.30275 -0.155598 0
M  V30 10125 C 946.423 -1.40422 -0.887175 0
M  V30 10126 O 947.608 -1.69373 -0.878481 0
M  V30 10127 C 944.748 -3.24827 -1.16539 0
M  V30 10128 C 943.861 -4.29778 -0.43759 0
M  V30 10129 C 942.996 -5.11461 -1.43462 0
M  V30 10130 C 942.035 -6.08164 -0.693048 0
M  V30 10131 N 941.172 -6.82726 -1.63799 0
M  V30 10132 H 946.012 -2.92607 0.564356 0
M  V30 10133 H 943.549 -1.44211 0.290126 0
M  V30 10134 H 945.507 -3.78088 -1.76368 0
M  V30 10135 H 944.137 -2.64311 -1.8531 0
M  V30 10136 H 943.189 -3.794 0.27567 0
M  V30 10137 H 944.501 -4.98597 0.142298 0
M  V30 10138 H 943.655 -5.68982 -2.1058 0
M  V30 10139 H 942.394 -4.42595 -2.04844 0
M  V30 10140 H 941.399 -5.49799 -0.00807093 0
M  V30 10141 H 942.624 -6.79047 -0.0846678 0
M  V30 10142 H 940.57 -6.16572 -2.23997 0
M  V30 10143 H 940.487 -7.47795 -1.11082 0
M  V30 10144 H 941.755 -7.44807 -2.29962 0
M  V30 10145 N 945.984 -0.3171 -1.54377 0
M  V30 10146 C 947.231 0.28741 -2.0045 0
M  V30 10147 C 947.559 1.52648 -1.20535 0
M  V30 10148 O 946.814 1.93775 -0.273831 0
M  V30 10149 C 947.113 0.672917 -3.51008 0
M  V30 10150 C 946.779 -0.466245 -4.48483 0
M  V30 10151 C 945.441 -0.778933 -4.74854 0
M  V30 10152 C 947.793 -1.23176 -5.06436 0
M  V30 10153 C 945.121 -1.85997 -5.56437 0
M  V30 10154 C 947.473 -2.30284 -5.89196 0
M  V30 10155 C 946.137 -2.62141 -6.13872 0
M  V30 10156 H 945.407 0.105171 -0.733499 0
M  V30 10157 H 948.054 -0.439538 -1.86388 0
M  V30 10158 H 946.359 1.48019 -3.62764 0
M  V30 10159 H 948.056 1.15209 -3.84094 0
M  V30 10160 H 944.646 -0.212449 -4.28073 0
M  V30 10161 H 948.83 -1.00344 -4.8605 0
M  V30 10162 H 944.086 -2.11134 -5.73788 0
M  V30 10163 H 948.26 -2.90048 -6.33123 0
M  V30 10164 H 945.887 -3.46037 -6.76877 0
M  V30 10165 N 947.462 1.57535 -0.0451378 0
M  V30 10166 C 948.69 1.96761 0.639742 0
M  V30 10167 C 949.105 0.922405 1.64734 0
M  V30 10168 O 948.462 -0.0940535 1.82257 0
M  V30 10169 C 948.513 3.36066 1.33199 0
M  V30 10170 O 948.234 4.36579 0.364757 0
M  V30 10171 C 949.735 3.90015 2.1072 0
M  V30 10172 H 946.955 0.64769 0.175324 0
M  V30 10173 H 949.499 2.04206 -0.109651 0
M  V30 10174 H 947.654 3.2979 2.03266 0
M  V30 10175 H 948.068 5.17432 0.858168 0
M  V30 10176 H 949.542 4.89785 2.54586 0
M  V30 10177 H 950.019 3.25117 2.95288 0
M  V30 10178 H 950.625 3.99609 1.45577 0
M  V30 10179 N 948.94 -0.228186 1.55939 0
M  V30 10180 C 950.189 -0.951563 1.77843 0
M  V30 10181 C 950.502 -1.85763 0.612501 0
M  V30 10182 O 951.708 -2.61916 0.715006 0
M  V30 10183 C 950.164 -1.74216 3.14923 0
M  V30 10184 C 949.772 -0.882569 4.39221 0
M  V30 10185 C 951.516 -2.45715 3.46156 0
M  V30 10186 C 949.423 -1.67014 5.67327 0
M  V30 10187 H 948.353 -0.359035 0.663031 0
M  V30 10188 H 951.004 -0.205636 1.82344 0
M  V30 10189 H 949.386 -2.53075 3.0458 0
M  V30 10190 H 950.56 -0.13499 4.60602 0
M  V30 10191 H 948.875 -0.280022 4.15457 0
M  V30 10192 H 951.472 -3.05127 4.39092 0
M  V30 10193 H 951.815 -3.1827 2.68346 0
M  V30 10194 H 952.348 -1.73852 3.57799 0
M  V30 10195 H 949.087 -0.987985 6.48012 0
M  V30 10196 H 948.607 -2.3925 5.50018 0
M  V30 10197 H 950.286 -2.23252 6.07262 0
M  V30 10198 N 950.418 -1.49637 -0.494624 0
M  V30 10199 C 951.666 -1.5913 -1.24587 0
M  V30 10200 C 951.987 -0.282828 -1.92938 0
M  V30 10201 O 951.257 0.69825 -1.83034 0
M  V30 10202 H 949.837 -0.586329 -0.462847 0
M  V30 10203 H 952.499 -1.86296 -0.572696 0
M  V30 10204 H 951.595 -2.3906 -2.00641 0
M  V30 10205 N 951.896 0.746133 -1.38819 0
M  V30 10206 C 952.829 1.86833 -1.31029 0
M  V30 10207 C 953.807 1.61533 -0.185948 0
M  V30 10208 O 954.991 1.84942 -0.364529 0
M  V30 10209 C 952.118 3.22596 -1.03198 0
M  V30 10210 C 951.164 3.66772 -2.17671 0
M  V30 10211 S 951.997 3.77438 -3.7987 0
M  V30 10212 C 953.153 5.16008 -3.54241 0
M  V30 10213 H 953.386 1.93155 -2.26005 0
M  V30 10214 H 950.919 0.909872 -1.24742 0
M  V30 10215 H 952.877 4.00995 -0.878237 0
M  V30 10216 H 951.538 3.13943 -0.0992704 0
M  V30 10217 H 950.731 4.65266 -1.93762 0
M  V30 10218 H 950.333 2.95547 -2.2919 0
M  V30 10219 H 952.625 6.01996 -3.10816 0
M  V30 10220 H 953.568 5.44941 -4.52156 0
M  V30 10221 H 953.976 4.85158 -2.88587 0
M  V30 10222 N 953.375 1.23811 0.975125 0
M  V30 10223 C 954.623 1.07124 1.71373 0
M  V30 10224 C 954.944 -0.391864 1.91022 0
M  V30 10225 O 954.214 -1.28041 1.48265 0
M  V30 10226 H 952.794 0.393415 0.635007 0
M  V30 10227 H 955.456 1.55612 1.17349 0
M  V30 10228 H 954.552 1.56338 2.7012 0
M  V30 10229 N 954.853 -1.17469 1.05066 0
M  V30 10230 C 956.13 -1.83625 0.673872 0
M  V30 10231 C 956.51 -1.93412 -0.845871 0
M  V30 10232 O 955.858 -1.4677 -1.75131 0
M  V30 10233 C 956.068 -3.21352 1.36139 0
M  V30 10234 C 957.416 -3.97274 1.49863 0
M  V30 10235 O 958.44 -3.30827 1.3203 0
M  V30 10236 O 957.299 -5.16349 1.79013 0
M  V30 10237 H 954.393 -0.792297 0.237055 0
M  V30 10238 H 956.939 -1.24776 1.15017 0
M  V30 10239 H 955.711 -3.0919 2.39827 0
M  V30 10240 H 955.334 -3.87867 0.874364 0
M  V30 10241 N 956.331 -0.831506 -1.3388 0
M  V30 10242 C 957.261 -0.274378 -2.31882 0
M  V30 10243 C 958.242 0.613872 -1.58637 0
M  V30 10244 O 959.427 0.538961 -1.86571 0
M  V30 10245 C 956.557 0.557498 -3.42796 0
M  V30 10246 C 955.511 -0.234337 -4.27358 0
M  V30 10247 C 954.837 0.720825 -5.29819 0
M  V30 10248 C 956.137 -1.44732 -5.01847 0
M  V30 10249 H 957.831 -1.09322 -2.78728 0
M  V30 10250 H 955.377 -0.527136 -1.34005 0
M  V30 10251 H 957.33 0.957501 -4.10378 0
M  V30 10252 H 956.054 1.40947 -2.94621 0
M  V30 10253 H 954.713 -0.61581 -3.61391 0
M  V30 10254 H 954.361 1.569 -4.77903 0
M  V30 10255 H 954.061 0.195171 -5.87276 0
M  V30 10256 H 955.585 1.1185 -6.00268 0
M  V30 10257 H 956.999 -1.12087 -5.62236 0
M  V30 10258 H 955.396 -1.90923 -5.68919 0
M  V30 10259 H 956.466 -2.22099 -4.31045 0
M  V30 10260 N 957.809 1.4625 -0.587256 0
M  V30 10261 C 958.719 2.34147 0.145744 0
M  V30 10262 C 959.735 1.50026 0.881376 0
M  V30 10263 O 960.911 1.82884 0.843539 0
M  V30 10264 C 957.976 3.27294 1.14366 0
M  V30 10265 C 957.037 4.27317 0.412199 0
M  V30 10266 C 956.27 5.16013 1.36257 0
M  V30 10267 O 956.493 5.0773 2.59934 0
M  V30 10268 O 955.427 5.95569 0.870681 0
M  V30 10269 H 959.253 2.98187 -0.576055 0
M  V30 10270 H 956.838 1.45299 -0.347628 0
M  V30 10271 H 958.72 3.84747 1.71894 0
M  V30 10272 H 957.395 2.65845 1.84684 0
M  V30 10273 H 956.302 3.73538 -0.205036 0
M  V30 10274 H 957.635 4.91564 -0.250104 0
M  V30 10275 N 959.287 0.325282 1.54207 0
M  V30 10276 C 960.534 -0.276775 2.006 0
M  V30 10277 C 960.862 -1.52007 1.21343 0
M  V30 10278 O 960.117 -1.93627 0.284104 0
M  V30 10279 C 960.416 -0.654292 3.5136 0
M  V30 10280 C 960.082 0.490023 4.48229 0
M  V30 10281 C 958.744 0.804104 4.74434 0
M  V30 10282 C 961.096 1.2586 5.05775 0
M  V30 10283 C 958.424 1.88945 5.55443 0
M  V30 10284 C 960.776 2.33405 5.87967 0
M  V30 10285 C 959.44 2.65393 6.12473 0
M  V30 10286 H 958.71 -0.101279 0.734046 0
M  V30 10287 H 961.357 0.449416 1.86152 0
M  V30 10288 H 959.662 -1.46093 3.63544 0
M  V30 10289 H 961.359 -1.13171 3.84699 0
M  V30 10290 H 957.949 0.235147 4.27954 0
M  V30 10291 H 962.133 1.02921 4.85511 0
M  V30 10292 H 957.389 2.14174 5.7266 0
M  V30 10293 H 961.563 2.93402 6.31576 0
M  V30 10294 H 959.19 3.49622 6.75032 0
M  V30 10295 N 960.765 -1.57509 0.0534917 0
M  V30 10296 C 961.993 -1.97098 -0.629298 0
M  V30 10297 C 962.408 -0.931128 -1.64242 0
M  V30 10298 O 961.765 0.0843866 -1.82305 0
M  V30 10299 C 961.816 -3.36767 -1.31415 0
M  V30 10300 O 961.537 -4.36766 -0.341599 0
M  V30 10301 C 963.038 -3.91127 -2.08649 0
M  V30 10302 H 960.258 -0.648611 -0.171886 0
M  V30 10303 H 962.802 -2.04145 0.120479 0
M  V30 10304 H 960.957 -3.30863 -2.01515 0
M  V30 10305 H 961.371 -5.1788 -0.830715 0
M  V30 10306 H 962.845 -4.91129 -2.51985 0
M  V30 10307 H 963.322 -3.26679 -2.9356 0
M  V30 10308 H 963.928 -4.00376 -1.43456 0
M  V30 10309 N 962.243 0.219913 -1.56058 0
M  V30 10310 C 963.153 1.29349 -1.95719 0
M  V30 10311 C 964.169 1.5119 -0.861248 0
M  V30 10312 O 965.345 1.64289 -1.16495 0
M  V30 10313 C 962.41 2.6229 -2.26726 0
M  V30 10314 C 961.471 2.48738 -3.49897 0
M  V30 10315 C 960.704 3.75339 -3.79416 0
M  V30 10316 O 960.927 4.78427 -3.10586 0
M  V30 10317 O 959.861 3.72352 -4.72903 0
M  V30 10318 H 963.687 0.986979 -2.87215 0
M  V30 10319 H 961.272 0.42291 -1.43289 0
M  V30 10320 H 963.154 3.408 -2.47857 0
M  V30 10321 H 961.829 2.92619 -1.38404 0
M  V30 10322 H 960.736 1.68422 -3.34043 0
M  V30 10323 H 962.069 2.23347 -4.38608 0
M  V30 10324 N 963.721 1.49897 0.486681 0
M  V30 10325 C 964.669 1.68125 1.60738 0
M  V30 10326 C 965.663 0.547097 1.60322 0
M  V30 10327 O 966.869 0.727153 1.64659 0
M  V30 10328 H 963.244 0.530391 0.533094 0
M  V30 10329 H 965.215 2.62165 1.42521 0
M  V30 10330 C 963.964 1.77827 2.98786 0
M  V30 10331 H 963.287 2.6448 2.99818 0
M  V30 10332 H 964.727 1.94611 3.76699 0
M  V30 10333 C 963.186 0.526287 3.32764 0
M  V30 10334 O 963.716 -0.341607 4.00245 0
M  V30 10335 N 961.922 0.384947 2.88039 0
M  V30 10336 H 961.469 1.09222 2.33299 0
M  V30 10337 H 961.427 -0.451618 3.11139 0
M  V30 10338 N 965.199 -0.738761 1.39212 0
M  V30 10339 C 966.429 -1.5258 1.39295 0
M  V30 10340 C 966.837 -1.89194 -0.0153 0
M  V30 10341 O 966.18 -1.5435 -0.996073 0
M  V30 10342 C 966.242 -2.84462 2.19822 0
M  V30 10343 C 965.906 -2.70303 3.68491 0
M  V30 10344 C 966.903 -2.39102 4.61656 0
M  V30 10345 C 964.588 -2.87291 4.1203 0
M  V30 10346 C 966.582 -2.25066 5.96342 0
M  V30 10347 C 964.269 -2.72874 5.46793 0
M  V30 10348 C 965.267 -2.41807 6.38763 0
M  V30 10349 O 964.955 -2.27475 7.71045 0
M  V30 10350 H 964.687 -0.478236 0.477772 0
M  V30 10351 H 967.241 -0.920846 1.83602 0
M  V30 10352 H 965.471 -3.47202 1.70257 0
M  V30 10353 H 967.16 -3.46058 2.12129 0
M  V30 10354 H 967.926 -2.25632 4.2932 0
M  V30 10355 H 963.805 -3.10466 3.40781 0
M  V30 10356 H 967.349 -2.00739 6.68094 0
M  V30 10357 H 963.246 -2.85922 5.78722 0
M  V30 10358 H 964.014 -2.42574 7.81729 0
M  V30 10359 N 966.677 -1.24326 -0.968545 0
M  V30 10360 C 967.954 -0.990459 -1.68669 0
M  V30 10361 C 968.334 0.487487 -2.05394 0
M  V30 10362 O 967.682 1.46158 -1.75642 0
M  V30 10363 C 967.892 -1.91251 -2.91931 0
M  V30 10364 C 969.24 -2.18291 -3.6419 0
M  V30 10365 O 970.264 -1.88897 -3.01987 0
M  V30 10366 O 969.123 -2.68204 -4.76161 0
M  V30 10367 H 966.217 -0.374515 -0.737338 0
M  V30 10368 H 968.763 -1.35421 -1.02271 0
M  V30 10369 H 967.535 -2.9111 -2.61478 0
M  V30 10370 H 967.158 -1.55188 -3.66064 0
M  V30 10371 N 968.156 1.1691 -1.05688 0
M  V30 10372 C 969.403 1.87292 -0.76993 0
M  V30 10373 C 969.731 1.81339 0.703295 0
M  V30 10374 O 968.986 1.21959 1.5305 0
M  V30 10375 C 969.285 3.36578 -1.20207 0
M  V30 10376 C 968.951 3.62732 -2.67836 0
M  V30 10377 C 967.613 3.69579 -3.08163 0
M  V30 10378 C 969.965 3.73803 -3.63209 0
M  V30 10379 C 967.293 3.84992 -4.42717 0
M  V30 10380 C 969.645 3.90735 -4.97503 0
M  V30 10381 C 968.309 3.95823 -5.37476 0
M  V30 10382 H 967.579 0.68535 -0.281737 0
M  V30 10383 H 970.226 1.38274 -1.32486 0
M  V30 10384 H 968.531 3.87687 -0.566222 0
M  V30 10385 H 970.228 3.89409 -0.957183 0
M  V30 10386 H 966.818 3.58031 -2.35609 0
M  V30 10387 H 971.002 3.67829 -3.3319 0
M  V30 10388 H 966.258 3.87181 -4.73182 0
M  V30 10389 H 970.432 3.98243 -5.71293 0
M  V30 10390 H 968.059 4.07518 -6.41742 0
M  V30 10391 N 969.634 0.838594 1.33437 0
M  V30 10392 C 970.581 0.269609 2.2922 0
M  V30 10393 C 971.551 -0.614429 1.54318 0
M  V30 10394 O 972.736 -0.552756 1.82618 0
M  V30 10395 C 969.876 -0.549527 3.40697 0
M  V30 10396 C 968.989 0.358502 4.3051 0
M  V30 10397 C 968.124 -0.471709 5.29101 0
M  V30 10398 C 967.163 0.434728 6.10554 0
M  V30 10399 N 966.3 -0.357339 7.0119 0
M  V30 10400 H 971.14 1.09172 2.77282 0
M  V30 10401 H 968.677 0.549832 1.36438 0
M  V30 10402 H 970.635 -1.03992 4.04032 0
M  V30 10403 H 969.265 -1.33661 2.93828 0
M  V30 10404 H 968.317 0.967204 3.67899 0
M  V30 10405 H 969.629 1.05483 4.87519 0
M  V30 10406 H 968.783 -1.02594 5.97963 0
M  V30 10407 H 967.522 -1.20147 4.72669 0
M  V30 10408 H 966.527 1.00097 5.40611 0
M  V30 10409 H 967.752 1.16285 6.6907 0
M  V30 10410 H 965.698 -1.07049 6.47207 0
M  V30 10411 H 965.615 0.280277 7.5548 0
M  V30 10412 H 966.883 -0.893814 7.74359 0
M  V30 10413 N 971.112 -1.45937 0.595003 0
M  V30 10414 C 972.075 -2.2888 -0.121102 0
M  V30 10415 C 973.075 -1.39075 -0.807149 0
M  V30 10416 O 974.265 -1.61326 -0.657228 0
M  V30 10417 C 971.397 -3.19778 -1.1813 0
M  V30 10418 H 972.59 -2.93673 0.607968 0
M  V30 10419 H 970.143 -1.5225 0.353495 0
M  V30 10420 H 970.878 -2.59759 -1.94154 0
M  V30 10421 H 970.663 -3.85914 -0.693724 0
M  V30 10422 H 972.153 -3.82176 -1.68319 0
M  V30 10423 N 972.59 -0.333456 -1.54032 0
M  V30 10424 C 973.836 0.266527 -2.01041 0
M  V30 10425 C 974.169 1.51006 -1.2211 0
M  V30 10426 O 973.444 1.92078 -0.306016 0
M  V30 10427 C 973.727 0.59078 -3.55221 0
M  V30 10428 C 973.58 -0.664143 -4.4487 0
M  V30 10429 C 974.899 1.40447 -4.17088 0
M  V30 10430 H 972.018 0.0953979 -0.7308 0
M  V30 10431 H 974.66 -0.451995 -1.84545 0
M  V30 10432 H 972.81 1.20292 -3.69408 0
M  V30 10433 H 974.482 -1.30227 -4.42537 0
M  V30 10434 H 972.725 -1.29106 -4.14143 0
M  V30 10435 H 973.396 -0.392664 -5.50602 0
M  V30 10436 H 975.872 0.886946 -4.06537 0
M  V30 10437 H 974.748 1.6001 -5.2506 0
M  V30 10438 H 975.009 2.40357 -3.71054 0
M  V30 10439 N 974.068 1.57479 -0.061844 0
M  V30 10440 C 975.315 1.93108 0.60954 0
M  V30 10441 C 975.643 0.941086 1.70217 0
M  V30 10442 O 974.898 -0.044914 1.95648 0
M  V30 10443 C 975.197 3.35394 1.23474 0
M  V30 10444 C 974.863 4.50095 0.269247 0
M  V30 10445 C 973.525 4.812 0.00360316 0
M  V30 10446 C 975.877 5.19725 -0.391839 0
M  V30 10447 C 973.205 5.79276 -0.930383 0
M  V30 10448 C 975.557 6.18801 -1.31408 0
M  V30 10449 C 974.221 6.48328 -1.58829 0
M  V30 10450 H 973.491 0.706634 0.223046 0
M  V30 10451 H 976.138 1.91054 -0.1306 0
M  V30 10452 H 974.443 3.33866 2.05039 0
M  V30 10453 H 976.14 3.60247 1.76134 0
M  V30 10454 H 972.73 4.2583 0.486477 0
M  V30 10455 H 976.914 4.95898 -0.199713 0
M  V30 10456 H 972.17 6.00484 -1.15019 0
M  V30 10457 H 976.344 6.71862 -1.83234 0
M  V30 10458 H 973.971 7.24137 -2.31363 0
M  V30 10459 N 975.546 -0.211634 1.56173 0
M  V30 10460 C 976.795 -0.932647 1.78842 0
M  V30 10461 C 977.108 -1.85103 0.63217 0
M  V30 10462 O 978.314 -2.61143 0.742746 0
M  V30 10463 C 976.77 -1.70866 3.16753 0
M  V30 10464 C 976.378 -0.835934 4.40132 0
M  V30 10465 C 978.122 -2.4203 3.48743 0
M  V30 10466 C 976.029 -1.60987 5.69067 0
M  V30 10467 H 974.959 -0.351983 0.666801 0
M  V30 10468 H 977.61 -0.186284 1.82552 0
M  V30 10469 H 975.992 -2.4983 3.07247 0
M  V30 10470 H 977.166 -0.0861298 4.60719 0
M  V30 10471 H 975.481 -0.235941 4.15731 0
M  V30 10472 H 978.078 -3.00453 4.42303 0
M  V30 10473 H 978.421 -3.15406 2.71707 0
M  V30 10474 H 978.954 -1.70048 3.59623 0
M  V30 10475 H 975.693 -0.9192 6.49023 0
M  V30 10476 H 975.213 -2.33403 5.52524 0
M  V30 10477 H 976.892 -2.16798 6.09596 0
M  V30 10478 N 977.024 -1.50153 -0.478725 0
M  V30 10479 C 978.273 -1.60002 -1.22809 0
M  V30 10480 C 978.586 -0.302277 -1.9325 0
M  V30 10481 O 979.792 -0.279583 -2.70057 0
M  V30 10482 C 978.248 -2.82402 -2.23108 0
M  V30 10483 C 977.856 -4.19023 -1.58505 0
M  V30 10484 C 979.6 -3.01593 -2.98734 0
M  V30 10485 C 977.507 -5.32618 -2.57045 0
M  V30 10486 H 976.437 -0.595822 -0.462073 0
M  V30 10487 H 979.088 -1.76573 -0.499412 0
M  V30 10488 H 977.47 -2.59373 -2.99235 0
M  V30 10489 H 978.644 -4.52277 -0.882187 0
M  V30 10490 H 976.959 -4.05374 -0.951877 0
M  V30 10491 H 979.556 -3.8363 -3.72468 0
M  V30 10492 H 979.899 -2.1302 -3.57671 0
M  V30 10493 H 980.432 -3.24766 -2.29721 0
M  V30 10494 H 977.171 -6.23321 -2.02858 0
M  V30 10495 H 976.691 -5.03792 -3.25505 0
M  V30 10496 H 978.37 -5.62877 -3.19028 0
M  V30 10497 N 978.502 0.731368 -1.39602 0
M  V30 10498 C 979.432 1.85855 -1.41351 0
M  V30 10499 C 980.413 1.67839 -0.2764 0
M  V30 10500 O 981.598 1.88104 -0.482747 0
M  V30 10501 C 978.728 3.23644 -1.25983 0
M  V30 10502 C 977.682 3.56304 -2.37132 0
M  V30 10503 C 977.008 4.93069 -2.0685 0
M  V30 10504 C 978.308 3.58906 -3.79452 0
M  V30 10505 H 980.002 1.84648 -2.3568 0
M  V30 10506 H 977.548 0.886955 -1.13442 0
M  V30 10507 H 979.501 4.02176 -1.25826 0
M  V30 10508 H 978.225 3.25387 -0.281234 0
M  V30 10509 H 976.884 2.80104 -2.36511 0
M  V30 10510 H 976.532 4.91396 -1.0742 0
M  V30 10511 H 976.232 5.15888 -2.81306 0
M  V30 10512 H 977.756 5.73953 -2.0835 0
M  V30 10513 H 979.17 4.27508 -3.81982 0
M  V30 10514 H 977.567 3.93246 -4.53297 0
M  V30 10515 H 978.637 2.58631 -4.10168 0
M  V30 10516 N 979.98 1.24838 0.961938 0
M  V30 10517 C 980.91 1.07053 2.07514 0
M  V30 10518 C 981.891 -0.0182465 1.7009 0
M  V30 10519 O 983.076 0.149915 1.9362 0
M  V30 10520 C 980.206 0.680693 3.40564 0
M  V30 10521 C 979.16 1.71889 3.91967 0
M  V30 10522 C 978.486 1.18395 5.21428 0
M  V30 10523 C 979.786 3.1161 4.19161 0
M  V30 10524 H 981.48 2.00167 2.22651 0
M  V30 10525 H 979.026 0.963799 1.0699 0
M  V30 10526 H 980.979 0.54324 4.17884 0
M  V30 10527 H 979.703 -0.28615 3.25344 0
M  V30 10528 H 978.362 1.84465 3.16809 0
M  V30 10529 H 978.01 0.207543 5.02572 0
M  V30 10530 H 977.71 1.87778 5.56788 0
M  V30 10531 H 979.234 1.05873 6.01351 0
M  V30 10532 H 980.648 3.0223 4.87165 0
M  V30 10533 H 979.045 3.78398 4.65763 0
M  V30 10534 H 980.115 3.59218 3.25715 0
M  V30 10535 N 981.458 -1.16348 1.06306 0
M  V30 10536 C 982.388 -2.2291 0.695234 0
M  V30 10537 C 983.369 -1.67208 -0.312343 0
M  V30 10538 O 984.554 -1.93293 -0.187442 0
M  V30 10539 C 981.684 -3.47205 0.0810149 0
M  V30 10540 C 980.638 -4.15801 1.01458 0
M  V30 10541 C 979.964 -5.3405 0.263656 0
M  V30 10542 C 981.264 -4.66766 2.34365 0
M  V30 10543 H 982.958 -2.53934 1.58613 0
M  V30 10544 H 980.504 -1.22056 0.76409 0
M  V30 10545 H 982.457 -4.2098 -0.18818 0
M  V30 10546 H 981.181 -3.15482 -0.844897 0
M  V30 10547 H 979.84 -3.43954 1.26852 0
M  V30 10548 H 979.488 -4.9858 -0.665378 0
M  V30 10549 H 979.188 -5.80885 0.88582 0
M  V30 10550 H 980.712 -6.106 0.00200994 0
M  V30 10551 H 982.126 -5.3212 2.13356 0
M  V30 10552 H 980.523 -5.24223 2.9208 0
M  V30 10553 H 981.593 -3.82969 2.97426 0
M  V30 10554 N 982.937 -0.845659 -1.3299 0
M  V30 10555 C 983.9 -0.288905 -2.27372 0
M  V30 10556 C 984.9 0.546263 -1.51237 0
M  V30 10557 O 986.09 0.359072 -1.70459 0
M  V30 10558 C 983.222 0.59224 -3.35716 0
M  V30 10559 H 984.415 -1.12181 -2.78128 0
M  V30 10560 H 981.968 -0.619276 -1.43508 0
M  V30 10561 H 982.703 1.44732 -2.90212 0
M  V30 10562 H 982.488 -0.00543255 -3.921 0
M  V30 10563 H 983.978 0.974848 -4.06062 0
M  V30 10564 N 984.415 1.45619 -0.602734 0
M  V30 10565 C 985.645 2.06348 -0.102105 0
M  V30 10566 C 986.053 1.44884 1.21677 0
M  V30 10567 O 985.396 0.555559 1.75098 0
M  V30 10568 C 985.458 3.59309 0.117026 0
M  V30 10569 C 985.122 4.43081 -1.11931 0
M  V30 10570 C 986.119 4.78364 -2.03627 0
M  V30 10571 C 983.804 4.83908 -1.34677 0
M  V30 10572 C 985.798 5.53325 -3.16403 0
M  V30 10573 C 983.485 5.58624 -2.47754 0
M  V30 10574 C 984.483 5.93249 -3.38445 0
M  V30 10575 O 984.171 6.6645 -4.49555 0
M  V30 10576 H 983.903 0.672988 -0.0637478 0
M  V30 10577 H 986.457 1.87928 -0.828983 0
M  V30 10578 H 984.687 3.76111 0.898742 0
M  V30 10579 H 986.376 4.01897 0.568649 0
M  V30 10580 H 987.142 4.47384 -1.87277 0
M  V30 10581 H 983.021 4.56396 -0.649875 0
M  V30 10582 H 986.565 5.80268 -3.87214 0
M  V30 10583 H 982.462 5.89019 -2.64059 0
M  V30 10584 H 983.23 6.84895 -4.48175 0
M  V30 10585 N 985.893 0.34162 1.53853 0
M  V30 10586 C 987.139 -0.255862 2.01179 0
M  V30 10587 C 987.472 -1.50356 1.22909 0
M  V30 10588 O 986.747 -1.91913 0.316198 0
M  V30 10589 C 987.03 -0.571934 3.55529 0
M  V30 10590 C 986.883 0.687727 4.44511 0
M  V30 10591 C 988.202 -1.38233 4.17827 0
M  V30 10592 H 985.321 -0.091521 0.731295 0
M  V30 10593 H 987.963 0.461775 1.84303 0
M  V30 10594 H 986.113 -1.18331 3.70041 0
M  V30 10595 H 987.785 1.32572 4.4184 0
M  V30 10596 H 986.028 1.313 4.13452 0
M  V30 10597 H 986.699 0.421858 5.50386 0
M  V30 10598 H 989.175 -0.865374 4.07002 0
M  V30 10599 H 988.051 -1.57223 5.25901 0
M  V30 10600 H 988.312 -2.38386 3.72323 0
M  V30 10601 N 987.371 -1.57444 0.0701946 0
M  V30 10602 C 988.62 -1.92605 -0.598849 0
M  V30 10603 C 988.933 -0.952058 -1.70866 0
M  V30 10604 O 990.139 -1.19643 -2.43716 0
M  V30 10605 C 988.595 -3.42142 -1.11655 0
M  V30 10606 C 988.203 -4.47984 -0.0378355 0
M  V30 10607 C 989.947 -3.86307 -1.75975 0
M  V30 10608 C 987.854 -5.88652 -0.569495 0
M  V30 10609 H 986.784 -0.718873 -0.22746 0
M  V30 10610 H 989.435 -1.82948 0.14217 0
M  V30 10611 H 987.817 -3.46866 -1.91049 0
M  V30 10612 H 988.991 -4.54874 0.736661 0
M  V30 10613 H 987.306 -4.13277 0.50904 0
M  V30 10614 H 989.903 -4.88784 -2.16782 0
M  V30 10615 H 990.246 -3.23587 -2.61911 0
M  V30 10616 H 990.779 -3.84179 -1.03206 0
M  V30 10617 H 987.518 -6.55013 0.252662 0
M  V30 10618 H 987.038 -5.85285 -1.31155 0
M  V30 10619 H 988.717 -6.38482 -1.04641 0
M  V30 10620 N 988.849 0.203349 -1.56283 0
M  V30 10621 C 989.779 1.2549 -1.96912 0
M  V30 10622 C 990.76 1.47919 -0.839884 0
M  V30 10623 O 991.945 1.59795 -1.10359 0
M  V30 10624 C 989.075 2.6009 -2.30153 0
M  V30 10625 C 988.029 2.52289 -3.45738 0
M  V30 10626 C 987.355 3.91086 -3.64632 0
M  V30 10627 C 988.655 2.05503 -4.80173 0
M  V30 10628 H 990.349 0.917306 -2.85002 0
M  V30 10629 H 987.895 0.439818 -1.37119 0
M  V30 10630 H 989.848 3.33829 -2.5717 0
M  V30 10631 H 988.572 2.95574 -1.38937 0
M  V30 10632 H 987.231 1.81006 -3.18798 0
M  V30 10633 H 986.879 4.23908 -2.7076 0
M  V30 10634 H 986.579 3.86742 -4.42385 0
M  V30 10635 H 988.103 4.66459 -3.94016 0
M  V30 10636 H 989.517 2.68995 -5.06275 0
M  V30 10637 H 987.914 2.1218 -5.61337 0
M  V30 10638 H 988.984 1.00793 -4.74309 0
M  V30 10639 N 990.327 1.50405 0.470755 0
M  V30 10640 C 991.555 1.65168 1.24608 0
M  V30 10641 C 991.97 0.335153 1.85801 0
M  V30 10642 O 991.327 -0.682919 1.69241 0
M  V30 10643 C 991.378 2.74305 2.35455 0
M  V30 10644 O 991.099 4.00854 1.76771 0
M  V30 10645 C 992.6 3.00044 3.26326 0
M  V30 10646 H 989.82 0.555186 0.376842 0
M  V30 10647 H 992.364 1.9663 0.56187 0
M  V30 10648 H 990.519 2.45536 2.99651 0
M  V30 10649 H 990.933 4.61211 2.49769 0
M  V30 10650 H 992.407 3.8007 4.00313 0
M  V30 10651 H 992.884 2.11128 3.85126 0
M  V30 10652 H 993.49 3.30345 2.67866 0
M  V30 10653 N 991.805 -0.723954 1.39988 0
M  V30 10654 C 993.035 -1.51094 1.40905 0
M  V30 10655 C 993.443 -1.89199 0.00476744 0
M  V30 10656 O 992.786 -1.55398 -0.979646 0
M  V30 10657 C 992.848 -2.82114 2.22827 0
M  V30 10658 C 992.512 -2.66379 3.71337 0
M  V30 10659 C 993.509 -2.34192 4.64166 0
M  V30 10660 C 991.194 -2.82905 4.15054 0
M  V30 10661 C 993.188 -2.18729 5.98696 0
M  V30 10662 C 990.875 -2.67059 5.49657 0
M  V30 10663 C 991.873 -2.35018 6.41292 0
M  V30 10664 O 991.561 -2.19284 7.73414 0
M  V30 10665 H 991.293 -0.473142 0.482818 0
M  V30 10666 H 993.847 -0.901321 1.84568 0
M  V30 10667 H 992.077 -3.45377 1.7393 0
M  V30 10668 H 993.766 -3.43789 2.15787 0
M  V30 10669 H 994.532 -2.21065 4.31689 0
M  V30 10670 H 990.411 -3.06834 3.44055 0
M  V30 10671 H 993.955 -1.93641 6.70186 0
M  V30 10672 H 989.852 -2.79768 5.81722 0
M  V30 10673 H 990.62 -2.34269 7.84258 0
M  V30 10674 N 993.283 -1.25346 -0.955304 0
M  V30 10675 C 994.532 -1.0945 -1.69421 0
M  V30 10676 C 994.845 0.364459 -1.92175 0
M  V30 10677 O 996.051 0.643843 -2.63755 0
M  V30 10678 C 994.507 -1.91045 -3.05008 0
M  V30 10679 C 994.115 -3.41428 -2.90053 0
M  V30 10680 C 995.859 -1.83716 -3.82686 0
M  V30 10681 C 993.766 -4.1532 -4.21026 0
M  V30 10682 H 992.696 -0.405978 -0.635372 0
M  V30 10683 H 995.347 -1.49536 -1.06354 0
M  V30 10684 H 993.729 -1.43781 -3.68975 0
M  V30 10685 H 994.903 -3.9636 -2.35022 0
M  V30 10686 H 993.218 -3.49842 -2.25831 0
M  V30 10687 H 995.815 -2.36217 -4.79693 0
M  V30 10688 H 996.158 -0.804919 -4.08444 0
M  V30 10689 H 996.691 -2.28726 -3.25468 0
M  V30 10690 H 993.43 -5.18955 -4.00457 0
M  V30 10691 H 992.95 -3.65172 -4.75825 0
M  V30 10692 H 994.629 -4.22999 -4.89572 0
M  V30 10693 N 994.761 1.15782 -1.06922 0
M  V30 10694 C 995.691 2.22538 -0.707045 0
M  V30 10695 C 996.672 1.67371 0.303471 0
M  V30 10696 O 997.857 1.9339 0.177189 0
M  V30 10697 C 994.987 3.47158 -0.0994269 0
M  V30 10698 C 993.941 4.15257 -1.03661 0
M  V30 10699 C 993.267 5.33902 -0.291974 0
M  V30 10700 C 994.567 4.65516 -2.36837 0
M  V30 10701 H 996.261 2.53089 -1.59958 0
M  V30 10702 H 993.807 1.21649 -0.770552 0
M  V30 10703 H 995.76 4.21073 0.165852 0
M  V30 10704 H 994.484 3.15926 0.828155 0
M  V30 10705 H 993.143 3.43276 -1.28674 0
M  V30 10706 H 992.791 4.98926 0.638928 0
M  V30 10707 H 992.491 5.80407 -0.916613 0
M  V30 10708 H 994.015 6.1059 -0.0343915 0
M  V30 10709 H 995.429 5.30981 -2.16175 0
M  V30 10710 H 993.826 5.22666 -2.94856 0
M  V30 10711 H 994.896 3.81387 -2.99453 0
M  V30 10712 N 996.239 0.8527 1.3254 0
M  V30 10713 C 997.169 0.311234 2.31416 0
M  V30 10714 C 998.15 -0.588557 1.59593 0
M  V30 10715 O 999.335 -0.509211 1.87405 0
M  V30 10716 C 996.465 -0.502892 3.4364 0
M  V30 10717 C 995.419 0.302296 4.26931 0
M  V30 10718 C 994.745 -0.636445 5.30899 0
M  V30 10719 C 996.045 1.52697 4.99481 0
M  V30 10720 H 997.739 1.13742 2.76953 0
M  V30 10721 H 995.285 0.548389 1.33149 0
M  V30 10722 H 997.238 -0.892092 4.11849 0
M  V30 10723 H 995.962 -1.36242 2.96826 0
M  V30 10724 H 994.621 0.673226 3.60365 0
M  V30 10725 H 994.269 -1.49277 4.80339 0
M  V30 10726 H 993.969 -0.101716 5.87512 0
M  V30 10727 H 995.493 -1.02286 6.01972 0
M  V30 10728 H 996.907 1.21017 5.60382 0
M  V30 10729 H 995.304 1.9995 5.65809 0
M  V30 10730 H 996.374 2.28929 4.27457 0
M  V30 10731 N 997.718 -1.45297 0.610449 0
M  V30 10732 C 998.648 -2.33311 -0.0939698 0
M  V30 10733 C 999.629 -1.46999 -0.85588 0
M  V30 10734 O 1000.81 -1.75764 -0.825865 0
M  V30 10735 C 997.944 -3.29751 -1.09003 0
M  V30 10736 C 996.898 -4.2572 -0.441146 0
M  V30 10737 C 996.224 -5.11873 -1.54566 0
M  V30 10738 C 997.524 -5.1837 0.639489 0
M  V30 10739 H 999.218 -2.92459 0.640941 0
M  V30 10740 H 996.764 -1.40631 0.309675 0
M  V30 10741 H 998.717 -3.90195 -1.59141 0
M  V30 10742 H 997.441 -2.68768 -1.85557 0
M  V30 10743 H 996.1 -3.66579 0.0393908 0
M  V30 10744 H 995.748 -4.47256 -2.30155 0
M  V30 10745 H 995.448 -5.76886 -1.11698 0
M  V30 10746 H 996.972 -5.75185 -2.04925 0
M  V30 10747 H 998.386 -5.7287 0.22207 0
M  V30 10748 H 996.783 -5.91876 0.990089 0
M  V30 10749 H 997.853 -4.60627 1.51495 0
M  V30 10750 N 999.196 -0.349774 -1.5367 0
M  V30 10751 C 1000.14 0.519396 -2.26727 0
M  V30 10752 C 1001.14 1.09673 -1.29105 0
M  V30 10753 O 1002.34 1.04176 -1.46791 0
M  V30 10754 H 998.719 0.186192 -0.728585 0
M  V30 10755 H 1000.69 -0.118736 -2.98164 0
M  V30 10756 C 999.439 1.65535 -3.05767 0
M  V30 10757 H 998.762 1.22038 -3.80719 0
M  V30 10758 H 1000.2 2.23856 -3.6009 0
M  V30 10759 C 998.661 2.58844 -2.15642 0
M  V30 10760 O 999.191 3.61254 -1.75665 0
M  V30 10761 N 997.397 2.27671 -1.80595 0
M  V30 10762 H 996.944 1.44429 -2.13302 0
M  V30 10763 H 996.902 2.90359 -1.20577 0
M  V30 10764 N 1000.67 1.57404 -0.0785433 0
M  V30 10765 C 1001.61 2.08724 0.922464 0
M  V30 10766 C 1002.58 0.993912 1.28686 0
M  V30 10767 O 1003.77 1.26776 1.39499 0
M  V30 10768 C 1000.9 2.55051 2.2286 0
M  V30 10769 C 999.942 3.75884 2.01528 0
M  V30 10770 S 1000.77 5.2026 1.26844 0
M  V30 10771 C 1001.93 5.69924 2.58723 0
M  V30 10772 H 1002.16 2.93304 0.485807 0
M  V30 10773 H 999.697 1.53814 0.134377 0
M  V30 10774 H 1001.65 2.82402 2.97926 0
M  V30 10775 H 1000.32 1.70727 2.63649 0
M  V30 10776 H 999.509 4.06311 2.98207 0
M  V30 10777 H 999.111 3.48941 1.34596 0
M  V30 10778 H 1001.4 5.7718 3.5478 0
M  V30 10779 H 1002.35 6.68704 2.32897 0
M  V30 10780 H 1002.75 4.97773 2.66237 0
M  V30 10781 N 1002.15 -0.195058 1.56388 0
M  V30 10782 C 1003.08 -1.24444 1.97575 0
M  V30 10783 C 1004.06 -1.47471 0.847717 0
M  V30 10784 O 1005.25 -1.59208 1.11205 0
M  V30 10785 C 1002.38 -2.58866 2.31529 0
M  V30 10786 C 1001.33 -2.50451 3.47071 0
M  V30 10787 C 1000.66 -3.89146 3.667 0
M  V30 10788 C 1001.96 -2.02953 4.81256 0
M  V30 10789 H 1003.65 -0.902178 2.85484 0
M  V30 10790 H 1001.2 -0.43254 1.3735 0
M  V30 10791 H 1003.15 -3.3246 2.58936 0
M  V30 10792 H 1001.87 -2.94833 1.40502 0
M  V30 10793 H 1000.53 -1.79313 3.19754 0
M  V30 10794 H 1000.18 -4.22466 2.73004 0
M  V30 10795 H 999.882 -3.84391 4.44429 0
M  V30 10796 H 1001.41 -4.64363 3.96484 0
M  V30 10797 H 1002.82 -2.66306 5.07695 0
M  V30 10798 H 1001.22 -2.092 5.62455 0
M  V30 10799 H 1002.29 -0.982757 4.74837 0
M  V30 10800 N 1003.63 -1.50653 -0.462772 0
M  V30 10801 C 1004.88 -1.61296 -1.21105 0
M  V30 10802 C 1005.19 -0.322757 -1.92919 0
M  V30 10803 O 1006.4 -0.308211 -2.69745 0
M  V30 10804 C 1004.85 -2.84752 -2.201 0
M  V30 10805 C 1004.46 -4.20681 -1.54051 0
M  V30 10806 C 1006.21 -3.04744 -2.95518 0
M  V30 10807 C 1004.11 -5.35314 -2.51381 0
M  V30 10808 H 1003.04 -0.60069 -0.455728 0
M  V30 10809 H 1005.69 -1.77093 -0.480656 0
M  V30 10810 H 1004.08 -2.62532 -2.96467 0
M  V30 10811 H 1005.25 -4.53187 -0.834168 0
M  V30 10812 H 1003.56 -4.06361 -0.908828 0
M  V30 10813 H 1006.16 -3.87559 -3.68378 0
M  V30 10814 H 1006.5 -2.16802 -3.55391 0
M  V30 10815 H 1007.04 -3.27185 -2.26263 0
M  V30 10816 H 1003.78 -6.25437 -1.96235 0
M  V30 10817 H 1003.3 -5.07216 -3.20144 0
M  V30 10818 H 1004.98 -5.66229 -3.1304 0
M  V30 10819 N 1005.11 0.71652 -1.4037 0
M  V30 10820 C 1006.07 1.81231 -1.40313 0
M  V30 10821 C 1007.07 1.58032 -0.297087 0
M  V30 10822 O 1008.26 1.65091 -0.555944 0
M  V30 10823 C 1005.39 3.19308 -1.19395 0
M  V30 10824 H 1006.59 1.8268 -2.3784 0
M  V30 10825 H 1004.14 0.922062 -1.26205 0
M  V30 10826 H 1004.87 3.2351 -0.226252 0
M  V30 10827 H 1004.66 3.37546 -1.99512 0
M  V30 10828 H 1006.15 3.99339 -1.22141 0
M  V30 10829 N 1006.59 1.25851 0.948643 0
M  V30 10830 C 1007.52 1.09248 2.06367 0
M  V30 10831 C 1008.5 -0.000205168 1.701 0
M  V30 10832 O 1009.68 0.170442 1.93451 0
M  V30 10833 C 1006.81 0.716777 3.39823 0
M  V30 10834 C 1005.77 1.76036 3.90122 0
M  V30 10835 C 1005.09 1.23918 5.20143 0
M  V30 10836 C 1006.39 3.16039 4.15833 0
M  V30 10837 H 1008.09 2.02518 2.20515 0
M  V30 10838 H 1005.63 0.975093 1.05962 0
M  V30 10839 H 1007.59 0.587531 4.17284 0
M  V30 10840 H 1006.31 -0.251626 3.25629 0
M  V30 10841 H 1004.97 1.87815 3.14835 0
M  V30 10842 H 1004.62 0.260836 5.02323 0
M  V30 10843 H 1004.32 1.93673 5.54765 0
M  V30 10844 H 1005.84 1.12245 6.00194 0
M  V30 10845 H 1007.25 3.0738 4.83933 0
M  V30 10846 H 1005.65 3.83317 4.61723 0
M  V30 10847 H 1006.72 3.62652 3.21887 0
M  V30 10848 N 1008.06 -1.15214 1.07534 0
M  V30 10849 C 1009 -2.18999 0.641461 0
M  V30 10850 C 1009.98 -1.58958 -0.342238 0
M  V30 10851 O 1011.16 -1.86859 -0.248218 0
M  V30 10852 C 1008.29 -3.38651 -0.0577939 0
M  V30 10853 C 1007.33 -4.17225 0.884641 0
M  V30 10854 S 1008.17 -4.79375 2.38663 0
M  V30 10855 C 1009.32 -6.02393 1.69923 0
M  V30 10856 H 1009.55 -2.55464 1.52071 0
M  V30 10857 H 1007.09 -1.26205 0.889481 0
M  V30 10858 H 1009.05 -4.07971 -0.454982 0
M  V30 10859 H 1007.71 -3.00526 -0.913407 0
M  V30 10860 H 1006.9 -5.02837 0.342133 0
M  V30 10861 H 1006.5 -3.53463 1.2223 0
M  V30 10862 H 1008.79 -6.69899 1.01201 0
M  V30 10863 H 1009.74 -6.61216 2.53375 0
M  V30 10864 H 1010.14 -5.52106 1.1764 0
M  V30 10865 N 1009.54 -0.859717 -1.32086 0
M  V30 10866 C 1010.79 -0.464662 -1.96686 0
M  V30 10867 C 1011.11 0.98412 -1.68345 0
M  V30 10868 O 1010.38 1.68847 -0.993361 0
M  V30 10869 H 1008.96 -0.168838 -0.727669 0
M  V30 10870 H 1011.62 -1.09726 -1.61079 0
M  V30 10871 H 1010.72 -0.613904 -3.06003 0
M  V30 10872 N 1011.02 1.44971 -0.618145 0
M  V30 10873 C 1011.93 2.34403 0.0960457 0
M  V30 10874 C 1012.95 1.51862 0.849355 0
M  V30 10875 O 1014.12 1.84632 0.804557 0
M  V30 10876 C 1011.19 3.29646 1.07397 0
M  V30 10877 C 1010.25 4.28095 0.321466 0
M  V30 10878 C 1009.48 5.18787 1.25281 0
M  V30 10879 O 1009.7 5.1313 2.49106 0
M  V30 10880 O 1008.64 5.97282 0.744156 0
M  V30 10881 H 1012.46 2.96898 -0.639176 0
M  V30 10882 H 1010.05 1.44529 -0.37837 0
M  V30 10883 H 1011.93 3.88307 1.63694 0
M  V30 10884 H 1010.61 2.69702 1.79004 0
M  V30 10885 H 1009.51 3.73019 -0.284223 0
M  V30 10886 H 1010.85 4.90923 -0.354315 0
M  V30 10887 N 1012.5 0.357919 1.53482 0
M  V30 10888 C 1013.73 -0.23514 2.05559 0
M  V30 10889 C 1014.14 -1.43068 1.23195 0
M  V30 10890 O 1013.5 -1.80481 0.270741 0
M  V30 10891 C 1013.55 -0.636147 3.55859 0
M  V30 10892 O 1013.27 0.511864 4.35099 0
M  V30 10893 C 1014.77 -1.28841 4.24164 0
M  V30 10894 H 1011.99 -0.0428446 0.669631 0
M  V30 10895 H 1014.54 0.51407 1.97933 0
M  V30 10896 H 1012.69 -1.33528 3.63661 0
M  V30 10897 H 1013.1 0.189328 5.24158 0
M  V30 10898 H 1014.58 -1.51962 5.30671 0
M  V30 10899 H 1015.06 -2.24638 3.77405 0
M  V30 10900 H 1015.66 -0.630914 4.20594 0
M  V30 10901 N 1013.98 -1.5736 0.0868897 0
M  V30 10902 C 1015.22 -1.94341 -0.579598 0
M  V30 10903 C 1015.56 -0.968238 -1.68341 0
M  V30 10904 O 1014.83 8.29649e-05 -1.945 0
M  V30 10905 C 1015.11 -3.41497 -1.14245 0
M  V30 10906 C 1014.97 -4.49778 -0.044255 0
M  V30 10907 C 1016.29 -3.89788 -2.04336 0
M  V30 10908 H 1013.4 -0.70668 -0.20922 0
M  V30 10909 H 1016.05 -1.89359 0.15593 0
M  V30 10910 H 1014.2 -3.45873 -1.76929 0
M  V30 10911 H 1015.87 -4.57517 0.58959 0
M  V30 10912 H 1014.11 -4.293 0.623207 0
M  V30 10913 H 1014.78 -5.4992 -0.478749 0
M  V30 10914 H 1017.26 -3.87513 -1.51569 0
M  V30 10915 H 1016.13 -4.93335 -2.40648 0
M  V30 10916 H 1016.4 -3.28603 -2.95757 0
M  V30 10917 N 1015.45 0.186762 -1.56489 0
M  V30 10918 C 1016.4 1.25084 -1.96104 0
M  V30 10919 C 1017.4 1.4667 -0.847609 0
M  V30 10920 O 1018.6 1.47432 -1.03266 0
M  V30 10921 H 1014.98 0.420121 -0.623701 0
M  V30 10922 H 1016.95 0.889761 -2.84826 0
M  V30 10923 C 1015.7 2.5863 -2.32392 0
M  V30 10924 H 1015.02 2.42838 -3.176 0
M  V30 10925 H 1016.46 3.3181 -2.63967 0
M  V30 10926 C 1014.92 3.16241 -1.16159 0
M  V30 10927 O 1015.45 3.99272 -0.441034 0
M  V30 10928 N 1013.66 2.75106 -0.936206 0
M  V30 10929 H 1013.2 2.0769 -1.5239 0
M  V30 10930 H 1013.16 3.13991 -0.160317 0
M  V30 10931 N 1016.93 1.50896 0.454776 0
M  V30 10932 C 1017.88 1.70947 1.55067 0
M  V30 10933 C 1018.85 0.550899 1.56698 0
M  V30 10934 O 1020.03 0.783352 1.73978 0
M  V30 10935 C 1017.17 1.82455 2.92924 0
M  V30 10936 C 1016.29 3.09919 3.00956 0
M  V30 10937 C 1015.42 3.12125 4.29827 0
M  V30 10938 C 1014.46 4.33975 4.31662 0
M  V30 10939 N 1013.6 4.33828 5.5203 0
M  V30 10940 H 1018.44 2.645 1.37273 0
M  V30 10941 H 1015.98 1.31101 0.667148 0
M  V30 10942 H 1017.93 1.87108 3.72889 0
M  V30 10943 H 1016.56 0.92327 3.09315 0
M  V30 10944 H 1015.62 3.14659 2.13761 0
M  V30 10945 H 1016.93 3.99869 2.98172 0
M  V30 10946 H 1016.08 3.15598 5.18154 0
M  V30 10947 H 1014.82 2.20033 4.35243 0
M  V30 10948 H 1013.83 4.30697 3.41731 0
M  V30 10949 H 1015.05 5.27312 4.27924 0
M  V30 10950 H 1013 3.44598 5.58201 0
M  V30 10951 H 1012.91 5.17566 5.51055 0
M  V30 10952 H 1014.18 4.4147 6.42437 0
M  V30 10953 N 1018.41 -0.709066 1.40748 0
M  V30 10954 C 1019.66 -1.4646 1.38681 0
M  V30 10955 C 1019.97 -1.95599 -0.0056209 0
M  V30 10956 O 1021.18 -2.71091 -0.148907 0
M  V30 10957 C 1019.63 -2.64771 2.43771 0
M  V30 10958 C 1019.24 -2.22474 3.88856 0
M  V30 10959 C 1020.99 -3.42475 2.50821 0
M  V30 10960 C 1018.89 -3.37663 4.85528 0
M  V30 10961 H 1017.82 -0.550084 0.515678 0
M  V30 10962 H 1020.47 -0.771074 1.66513 0
M  V30 10963 H 1018.86 -3.36325 2.09048 0
M  V30 10964 H 1020.03 -1.58297 4.32757 0
M  V30 10965 H 1018.35 -1.57798 3.85342 0
M  V30 10966 H 1020.94 -4.28201 3.20232 0
M  V30 10967 H 1021.29 -3.86738 1.54076 0
M  V30 10968 H 1021.82 -2.77969 2.84567 0
M  V30 10969 H 1018.56 -2.98426 5.83628 0
M  V30 10970 H 1018.08 -4.00734 4.46287 0
M  V30 10971 H 1019.76 -4.03636 5.05655 0
M  V30 10972 N 1019.89 -1.26353 -0.941956 0
M  V30 10973 C 1020.85 -1.07904 -2.02211 0
M  V30 10974 C 1021.85 -0.0276283 -1.60776 0
M  V30 10975 O 1023.04 -0.270965 -1.7208 0
M  V30 10976 C 1020.17 -0.641084 -3.34818 0
M  V30 10977 H 1021.37 -2.03804 -2.20009 0
M  V30 10978 H 1018.92 -1.08939 -1.12081 0
M  V30 10979 H 1019.66 0.319943 -3.22718 0
M  V30 10980 H 1019.44 -1.40027 -3.66244 0
M  V30 10981 H 1020.93 -0.533826 -4.14174 0
M  V30 10982 N 1021.37 1.14642 -1.08144 0
M  V30 10983 C 1022.3 2.19283 -0.6669 0
M  V30 10984 C 1023.31 1.60292 0.284668 0
M  V30 10985 O 1024.5 1.78352 0.0727383 0
M  V30 10986 C 1021.6 3.38877 0.0398572 0
M  V30 10987 C 1020.77 4.274 -0.929929 0
M  V30 10988 C 1019.83 5.25562 -0.258991 0
M  V30 10989 O 1018.86 5.61999 -0.902563 0
M  V30 10990 N 1020.06 5.71958 0.992177 0
M  V30 10991 H 1022.83 2.55464 -1.5671 0
M  V30 10992 H 1020.39 1.29836 -0.96717 0
M  V30 10993 H 1022.38 4.01605 0.499583 0
M  V30 10994 H 1020.95 3.01043 0.842118 0
M  V30 10995 H 1020.17 3.61649 -1.56857 0
M  V30 10996 H 1021.46 4.83411 -1.58717 0
M  V30 10997 H 1020.86 5.44481 1.53484 0
M  V30 10998 H 1019.41 6.36687 1.39544 0
M  V30 10999 N 1022.85 0.866709 1.31628 0
M  V30 11000 C 1023.76 0.323408 2.3236 0
M  V30 11001 C 1024.77 -0.564995 1.64572 0
M  V30 11002 O 1025.95 -0.462489 1.96018 0
M  V30 11003 C 1023.01 -0.469045 3.43513 0
M  V30 11004 C 1022.07 0.446928 4.26967 0
M  V30 11005 C 1021.31 -0.307799 5.32812 0
M  V30 11006 O 1021.53 -1.5363 5.49321 0
M  V30 11007 O 1020.46 0.332653 6.0098 0
M  V30 11008 H 1024.29 1.15827 2.80745 0
M  V30 11009 H 1021.87 0.629987 1.35468 0
M  V30 11010 H 1023.76 -0.918405 4.1127 0
M  V30 11011 H 1022.43 -1.28051 2.97296 0
M  V30 11012 H 1021.34 0.944719 3.61975 0
M  V30 11013 H 1022.67 1.2239 4.76741 0
M  V30 11014 N 1024.32 -1.44642 0.625825 0
M  V30 11015 C 1025.55 -2.06971 0.133373 0
M  V30 11016 C 1025.97 -1.46421 -1.18078 0
M  V30 11017 O 1025.33 -0.563676 -1.72315 0
M  V30 11018 C 1025.38 -3.6059 0.0265097 0
M  V30 11019 O 1024.48 -3.99615 -1.01889 0
M  V30 11020 H 1023.82 -0.658873 0.0823568 0
M  V30 11021 H 1026.35 -1.85601 0.861002 0
M  V30 11022 H 1026.36 -4.07663 -0.1658 0
M  V30 11023 H 1025.04 -4.04043 0.985986 0
M  V30 11024 H 1023.62 -3.64183 -0.801577 0
M  V30 11025 N 1025.8 -0.366053 -1.5329 0
M  V30 11026 C 1026.75 0.480205 -2.25749 0
M  V30 11027 C 1027.72 1.07713 -1.2644 0
M  V30 11028 O 1028.9 1.10953 -1.55222 0
M  V30 11029 C 1026.04 1.61374 -3.05045 0
M  V30 11030 C 1025.16 1.04194 -4.19246 0
M  V30 11031 C 1024.29 2.14462 -4.85983 0
M  V30 11032 C 1023.33 1.5475 -5.92215 0
M  V30 11033 N 1022.47 2.58852 -6.52641 0
M  V30 11034 H 1027.31 -0.144199 -2.97651 0
M  V30 11035 H 1024.84 -0.0829321 -1.46866 0
M  V30 11036 H 1026.8 2.28144 -3.49294 0
M  V30 11037 H 1025.43 2.2088 -2.35397 0
M  V30 11038 H 1024.48 0.264514 -3.79479 0
M  V30 11039 H 1025.8 0.565379 -4.95585 0
M  V30 11040 H 1024.95 2.89051 -5.33418 0
M  V30 11041 H 1023.69 2.6547 -4.09117 0
M  V30 11042 H 1022.69 0.786759 -5.44142 0
M  V30 11043 H 1023.92 1.04566 -6.71001 0
M  V30 11044 H 1021.87 3.09073 -5.78627 0
M  V30 11045 H 1021.78 2.15884 -7.24521 0
M  V30 11046 H 1023.05 3.33142 -7.04724 0
M  V30 11047 N 1027.28 1.57312 -0.0952337 0
M  V30 11048 C 1028.23 2.15263 0.881167 0
M  V30 11049 C 1029.22 1.09552 1.29208 0
M  V30 11050 O 1030.43 1.27897 1.26659 0
M  V30 11051 H 1026.8 0.688611 0.302191 0
M  V30 11052 H 1028.77 2.96126 0.367694 0
M  V30 11053 C 1027.52 2.74779 2.13053 0
M  V30 11054 H 1026.85 3.55807 1.82323 0
M  V30 11055 H 1028.29 3.18895 2.79431 0
M  V30 11056 C 1026.74 1.7068 2.90465 0
M  V30 11057 O 1027.27 1.14582 3.85011 0
M  V30 11058 N 1025.48 1.41169 2.54007 0
M  V30 11059 H 1025.03 1.86977 1.77193 0
M  V30 11060 H 1024.99 0.717559 3.06102 0
M  V30 11061 N 1028.76 -0.17846 1.56586 0
M  V30 11062 C 1030.01 -0.894502 1.8078 0
M  V30 11063 C 1030.32 -1.8372 0.67129 0
M  V30 11064 O 1031.53 -2.59509 0.797971 0
M  V30 11065 C 1029.98 -1.64109 3.20306 0
M  V30 11066 C 1029.59 -0.742387 4.41806 0
M  V30 11067 C 1031.33 -2.34578 3.53798 0
M  V30 11068 C 1029.24 -1.4888 5.72354 0
M  V30 11069 H 1028.17 -0.33776 0.674117 0
M  V30 11070 H 1030.82 -0.14752 1.82906 0
M  V30 11071 H 1029.2 -2.43257 3.12477 0
M  V30 11072 H 1030.38 0.011615 4.60799 0
M  V30 11073 H 1028.69 -0.147705 4.16138 0
M  V30 11074 H 1031.29 -2.91004 4.48577 0
M  V30 11075 H 1031.63 -3.09572 2.78336 0
M  V30 11076 H 1032.17 -1.62381 3.63149 0
M  V30 11077 H 1028.9 -0.781325 6.50827 0
M  V30 11078 H 1028.42 -2.21631 5.57351 0
M  V30 11079 H 1030.1 -2.03819 6.14058 0
M  V30 11080 N 1030.24 -1.51135 -0.446768 0
M  V30 11081 C 1031.48 -1.64542 -1.19573 0
M  V30 11082 C 1031.84 -0.352728 -1.89139 0
M  V30 11083 O 1031.13 0.650917 -1.80204 0
M  V30 11084 C 1031.32 -2.78034 -2.2457 0
M  V30 11085 C 1031.15 -4.18214 -1.65308 0
M  V30 11086 C 1029.92 -4.84284 -1.44212 0
M  V30 11087 C 1032.12 -5.01631 -1.13451 0
M  V30 11088 N 1030.1 -6.08606 -0.804486 0
M  V30 11089 C 1031.47 -6.16876 -0.621577 0
M  V30 11090 C 1033.53 -4.87227 -1.02537 0
M  V30 11091 C 1032.23 -7.19299 -0.0102361 0
M  V30 11092 C 1034.26 -5.8985 -0.427936 0
M  V30 11093 C 1033.62 -7.04361 0.0745026 0
M  V30 11094 H 1029.72 -0.656068 -0.425556 0
M  V30 11095 H 1032.3 -1.88334 -0.493802 0
M  V30 11096 H 1030.47 -2.55922 -2.92162 0
M  V30 11097 H 1032.21 -2.8067 -2.91558 0
M  V30 11098 H 1028.96 -4.4199 -1.70123 0
M  V30 11099 H 1029.38 -6.75126 -0.503379 0
M  V30 11100 H 1034.03 -3.98959 -1.39971 0
M  V30 11101 H 1031.74 -8.07224 0.376252 0
M  V30 11102 H 1035.33 -5.80773 -0.34552 0
M  V30 11103 H 1034.21 -7.8241 0.529535 0
M  V30 11104 N 1031.71 0.701592 -1.41122 0
M  V30 11105 C 1032.66 1.81559 -1.42495 0
M  V30 11106 C 1033.63 1.63722 -0.280078 0
M  V30 11107 O 1034.82 1.84658 -0.480231 0
M  V30 11108 C 1031.96 3.19392 -1.30702 0
M  V30 11109 C 1031.07 3.48704 -2.55009 0
M  V30 11110 C 1030.2 4.76118 -2.35554 0
M  V30 11111 C 1029.24 4.98378 -3.55367 0
M  V30 11112 N 1028.38 6.17014 -3.3502 0
M  V30 11113 H 1033.22 1.7972 -2.37707 0
M  V30 11114 H 1030.76 0.877727 -1.18044 0
M  V30 11115 H 1032.71 3.99004 -1.21867 0
M  V30 11116 H 1031.34 3.20423 -0.391012 0
M  V30 11117 H 1030.4 2.63542 -2.74317 0
M  V30 11118 H 1031.71 3.61057 -3.44151 0
M  V30 11119 H 1030.86 5.63774 -2.24152 0
M  V30 11120 H 1029.6 4.66 -1.43859 0
M  V30 11121 H 1028.61 4.09172 -3.6723 0
M  V30 11122 H 1029.83 5.10359 -4.48007 0
M  V30 11123 H 1027.78 6.0812 -2.4602 0
M  V30 11124 H 1027.69 6.30107 -4.17733 0
M  V30 11125 H 1028.96 7.0742 -3.27379 0
M  V30 11126 N 1033.19 1.2685 0.935242 0
M  V30 11127 C 1034.12 1.1143 2.05196 0
M  V30 11128 C 1035.1 0.0178362 1.70091 0
M  V30 11129 O 1036.29 0.190951 1.93259 0
M  V30 11130 C 1033.42 0.752779 3.39044 0
M  V30 11131 C 1032.37 1.80164 3.88233 0
M  V30 11132 C 1031.7 1.29428 5.18799 0
M  V30 11133 C 1033 3.20431 4.12457 0
M  V30 11134 H 1034.69 2.04845 2.18355 0
M  V30 11135 H 1032.24 0.986276 1.04922 0
M  V30 11136 H 1034.19 0.631757 4.16637 0
M  V30 11137 H 1032.91 -0.217075 3.25878 0
M  V30 11138 H 1031.57 1.91144 3.12825 0
M  V30 11139 H 1031.22 0.3141 5.02018 0
M  V30 11140 H 1030.92 1.99546 5.5268 0
M  V30 11141 H 1032.45 1.18605 5.9897 0
M  V30 11142 H 1033.86 3.12495 4.80645 0
M  V30 11143 H 1032.26 3.88193 4.57631 0
M  V30 11144 H 1033.33 3.66046 3.18023 0
M  V30 11145 N 1034.67 -1.14067 1.0875 0
M  V30 11146 C 1035.6 -2.18926 0.67852 0
M  V30 11147 C 1036.62 -1.60441 -0.276163 0
M  V30 11148 O 1037.8 -1.78388 -0.0632788 0
M  V30 11149 C 1034.9 -3.38893 -0.0218852 0
M  V30 11150 C 1034.08 -4.26901 0.952582 0
M  V30 11151 C 1033.14 -5.25418 0.286859 0
M  V30 11152 O 1032.16 -5.61512 0.932354 0
M  V30 11153 N 1033.36 -5.72476 -0.961831 0
M  V30 11154 H 1036.13 -2.54629 1.58063 0
M  V30 11155 H 1033.69 -1.29321 0.974042 0
M  V30 11156 H 1035.68 -4.01864 -0.478278 0
M  V30 11157 H 1034.25 -3.01486 -0.826141 0
M  V30 11158 H 1033.47 -3.60812 1.58772 0
M  V30 11159 H 1034.76 -4.82563 1.61279 0
M  V30 11160 H 1034.16 -5.45287 -1.50594 0
M  V30 11161 H 1032.72 -6.37418 -1.36166 0
M  V30 11162 N 1036.15 -0.873678 -1.31166 0
M  V30 11163 C 1037.56 -0.566109 -1.49223 0
M  V30 11164 C 1037.76 0.898889 -1.80339 0
M  V30 11165 O 1036.82 1.68084 -1.88425 0
M  V30 11166 C 1038.13 -1.46952 -2.62346 0
M  V30 11167 C 1039.68 -1.47195 -2.76229 0
M  V30 11168 C 1040.16 -2.36102 -3.92454 0
M  V30 11169 N 1041.65 -2.34003 -3.99746 0
M  V30 11170 C 1042.38 -2.99513 -4.88958 0
M  V30 11171 N 1041.88 -3.74206 -5.83045 0
M  V30 11172 N 1043.67 -2.88802 -4.82234 0
M  V30 11173 H 1035.82 -1.82156 -1.09239 0
M  V30 11174 H 1038.09 -0.779086 -0.54012 0
M  V30 11175 H 1037.79 -2.51213 -2.4614 0
M  V30 11176 H 1037.67 -1.17077 -3.5857 0
M  V30 11177 H 1040.05 -0.436902 -2.91848 0
M  V30 11178 H 1040.13 -1.81095 -1.80661 0
M  V30 11179 H 1039.78 -3.39685 -3.77593 0
M  V30 11180 H 1039.71 -1.99524 -4.87337 0
M  V30 11181 H 1042.2 -1.79713 -3.32433 0
M  V30 11182 H 1042.51 -4.21312 -6.47855 0
M  V30 11183 H 1040.86 -3.78314 -5.83012 0
M  V30 11184 H 1044.05 -2.29984 -4.07707 0
M  V30 11185 H 1044.22 -3.40136 -5.51554 0
M  V30 11186 N 1037.63 1.44308 -0.633487 0
M  V30 11187 C 1038.59 2.2912 0.060376 0
M  V30 11188 C 1039.59 1.41166 0.769992 0
M  V30 11189 O 1040.78 1.63012 0.614224 0
M  V30 11190 C 1037.91 3.22798 1.0961 0
M  V30 11191 H 1039.1 2.91958 -0.685617 0
M  V30 11192 H 1036.66 1.51259 -0.393738 0
M  V30 11193 H 1037.39 2.64815 1.87199 0
M  V30 11194 H 1037.18 3.87618 0.591161 0
M  V30 11195 H 1038.67 3.86504 1.58127 0
M  V30 11196 N 1039.1 0.374177 1.53094 0
M  V30 11197 C 1040.35 -0.213981 2.00562 0
M  V30 11198 C 1040.67 -1.4916 1.26533 0
M  V30 11199 O 1041.87 -2.15889 1.64634 0
M  V30 11200 C 1040.33 -0.431876 3.57299 0
M  V30 11201 C 1039.94 0.831615 4.40214 0
M  V30 11202 C 1041.68 -0.977222 4.13099 0
M  V30 11203 C 1039.59 0.582831 5.88521 0
M  V30 11204 H 1038.52 -0.0837386 0.749336 0
M  V30 11205 H 1041.17 0.494245 1.76719 0
M  V30 11206 H 1039.55 -1.20158 3.7733 0
M  V30 11207 H 1040.72 1.60477 4.31953 0
M  V30 11208 H 1039.04 1.30081 3.9556 0
M  V30 11209 H 1041.64 -1.17881 5.21544 0
M  V30 11210 H 1041.98 -1.94189 3.68234 0
M  V30 11211 H 1042.51 -0.267473 3.969 0
M  V30 11212 H 1039.25 1.51807 6.37679 0
M  V30 11213 H 1038.77 -0.151666 5.99608 0
M  V30 11214 H 1040.45 0.211604 6.46654 0
M  V30 11215 N 1040.58 -1.57259 0.103575 0
M  V30 11216 C 1041.81 -1.99 -0.566275 0
M  V30 11217 C 1042.23 -0.982909 -1.61197 0
M  V30 11218 O 1041.58 0.026345 -1.82481 0
M  V30 11219 C 1041.63 -3.40778 -1.20635 0
M  V30 11220 O 1041.35 -4.37632 -0.202472 0
M  V30 11221 C 1042.86 -3.97567 -1.961 0
M  V30 11222 H 1040.08 -0.653751 -0.151164 0
M  V30 11223 H 1042.62 -2.03658 0.185365 0
M  V30 11224 H 1040.77 -3.37107 -1.90886 0
M  V30 11225 H 1041.19 -5.2026 -0.665535 0
M  V30 11226 H 1042.66 -4.98897 -2.36233 0
M  V30 11227 H 1043.14 -3.35853 -2.83018 0
M  V30 11228 H 1043.75 -4.04737 -1.30645 0
M  V30 11229 N 1042.06 0.170153 -1.56679 0
M  V30 11230 C 1043.31 0.884902 -1.81252 0
M  V30 11231 C 1043.62 1.83361 -0.681024 0
M  V30 11232 O 1044.83 2.59082 -0.811722 0
M  V30 11233 C 1043.28 1.62408 -3.21172 0
M  V30 11234 C 1042.89 0.718947 -4.42194 0
M  V30 11235 C 1044.64 2.32699 -3.55037 0
M  V30 11236 C 1042.54 1.45843 -5.73135 0
M  V30 11237 H 1041.47 0.33418 -0.675899 0
M  V30 11238 H 1044.12 0.137818 -1.82982 0
M  V30 11239 H 1042.51 2.41596 -3.13763 0
M  V30 11240 H 1043.68 -0.0360521 -4.60786 0
M  V30 11241 H 1042 0.125634 -4.1621 0
M  V30 11242 H 1044.59 2.88621 -4.50114 0
M  V30 11243 H 1044.94 3.08092 -2.79974 0
M  V30 11244 H 1045.47 1.60453 -3.64005 0
M  V30 11245 H 1042.21 0.746799 -6.51232 0
M  V30 11246 H 1041.73 2.18672 -5.58518 0
M  V30 11247 H 1043.41 2.0056 -6.1513 0
M  V30 11248 N 1043.54 1.5137 0.438746 0
M  V30 11249 C 1044.47 1.75528 1.53987 0
M  V30 11250 C 1045.45 0.605067 1.58975 0
M  V30 11251 O 1046.63 0.847634 1.74725 0
M  V30 11252 C 1043.76 1.87904 2.92078 0
M  V30 11253 C 1042.72 3.0333 3.01951 0
M  V30 11254 C 1042.04 3.00888 4.42007 0
M  V30 11255 C 1043.34 4.43319 2.76163 0
M  V30 11256 H 1045.04 2.67728 1.34022 0
M  V30 11257 H 1042.58 1.28831 0.643308 0
M  V30 11258 H 1044.54 2.03388 3.69068 0
M  V30 11259 H 1043.26 0.923514 3.13271 0
M  V30 11260 H 1041.92 2.87549 2.274 0
M  V30 11261 H 1041.57 2.03116 4.60166 0
M  V30 11262 H 1041.27 3.78397 4.49544 0
M  V30 11263 H 1042.79 3.18464 5.20973 0
M  V30 11264 H 1044.21 4.59458 3.42887 0
M  V30 11265 H 1042.6 5.22523 2.9511 0
M  V30 11266 H 1043.67 4.53453 1.71779 0
M  V30 11267 N 1045.02 -0.694098 1.41492 0
M  V30 11268 C 1046.29 -1.44875 1.31418 0
M  V30 11269 C 1046.67 -2.11022 -0.0575538 0
M  V30 11270 O 1046.02 -2.01799 -1.07188 0
M  V30 11271 C 1046.23 -2.46698 2.46863 0
M  V30 11272 C 1047.58 -3.11907 2.88095 0
M  V30 11273 O 1048.6 -2.57022 2.46613 0
M  V30 11274 O 1047.46 -4.11318 3.59833 0
M  V30 11275 H 1044.56 -0.645266 0.517263 0
M  V30 11276 H 1047.1 -0.724452 1.53459 0
M  V30 11277 H 1045.87 -1.96485 3.38392 0
M  V30 11278 H 1045.5 -3.26634 2.26706 0
M  V30 11279 N 1046.49 -1.27344 -0.928501 0
M  V30 11280 C 1047.72 -1.16447 -1.7102 0
M  V30 11281 C 1048.14 0.278799 -1.8673 0
M  V30 11282 O 1047.49 1.18989 -1.38376 0
M  V30 11283 C 1047.55 -1.84242 -3.11026 0
M  V30 11284 O 1047.27 -3.2293 -2.96054 0
M  V30 11285 C 1048.77 -1.7946 -4.05351 0
M  V30 11286 H 1045.99 -0.404898 -0.535069 0
M  V30 11287 H 1048.53 -1.68201 -1.16313 0
M  V30 11288 H 1046.69 -1.36395 -3.62595 0
M  V30 11289 H 1047.1 -3.5667 -3.8456 0
M  V30 11290 H 1048.57 -2.31511 -5.01105 0
M  V30 11291 H 1049.05 -0.763771 -4.32508 0
M  V30 11292 H 1049.66 -2.26918 -3.59706 0
M  V30 11293 N 1047.97 1.13488 -1.09353 0
M  V30 11294 C 1048.88 2.2248 -0.744307 0
M  V30 11295 C 1049.9 1.72145 0.253404 0
M  V30 11296 O 1051.07 2.01176 0.0949339 0
M  V30 11297 C 1048.14 3.46286 -0.16928 0
M  V30 11298 C 1047.2 4.11516 -1.22284 0
M  V30 11299 C 1046.43 5.29412 -0.675161 0
M  V30 11300 O 1046.66 5.68185 0.502182 0
M  V30 11301 O 1045.59 5.8467 -1.42983 0
M  V30 11302 H 1049.42 2.54723 -1.65378 0
M  V30 11303 H 1047 1.21607 -0.867879 0
M  V30 11304 H 1048.88 4.2114 0.14811 0
M  V30 11305 H 1047.56 3.15745 0.713214 0
M  V30 11306 H 1046.47 3.38492 -1.59292 0
M  V30 11307 H 1047.8 4.46186 -2.07796 0
M  V30 11308 N 1049.45 0.880621 1.30701 0
M  V30 11309 C 1050.4 0.342397 2.28246 0
M  V30 11310 C 1051.37 -0.565023 1.56194 0
M  V30 11311 O 1052.55 -0.494377 1.84284 0
M  V30 11312 C 1049.69 -0.440859 3.42272 0
M  V30 11313 C 1048.81 0.495284 4.29151 0
M  V30 11314 C 1047.94 -0.303141 5.30334 0
M  V30 11315 C 1046.98 0.628751 6.08862 0
M  V30 11316 N 1046.12 -0.13408 7.01972 0
M  V30 11317 H 1050.96 1.17938 2.73669 0
M  V30 11318 H 1048.49 0.59296 1.34619 0
M  V30 11319 H 1050.45 -0.910854 4.07135 0
M  V30 11320 H 1049.08 -1.24245 2.97931 0
M  V30 11321 H 1048.13 1.08376 3.64635 0
M  V30 11322 H 1049.45 1.2094 4.83916 0
M  V30 11323 H 1048.6 -0.835181 6.00924 0
M  V30 11324 H 1047.34 -1.05049 4.76252 0
M  V30 11325 H 1046.34 1.17246 5.37153 0
M  V30 11326 H 1047.57 1.37512 6.65032 0
M  V30 11327 H 1045.52 -0.864046 6.50285 0
M  V30 11328 H 1045.43 0.520486 7.54206 0
M  V30 11329 H 1046.7 -0.647005 7.7681 0
M  V30 11330 N 1050.93 -1.4397 0.641131 0
M  V30 11331 C 1052.15 -2.06818 0.155318 0
M  V30 11332 C 1052.58 -1.47665 -1.16519 0
M  V30 11333 O 1051.94 -0.58192 -1.71707 0
M  V30 11334 C 1051.99 -3.60542 0.0647537 0
M  V30 11335 O 1051.09 -4.00674 -0.976447 0
M  V30 11336 H 1050.43 -0.657962 0.0893404 0
M  V30 11337 H 1052.96 -1.84678 0.88064 0
M  V30 11338 H 1052.97 -4.07816 -0.122552 0
M  V30 11339 H 1051.65 -4.02975 1.02878 0
M  V30 11340 H 1050.22 -3.65013 -0.762905 0
M  V30 11341 N 1052.41 -0.382291 -1.52893 0
M  V30 11342 C 1053.65 0.202133 -2.01489 0
M  V30 11343 C 1053.98 1.47399 -1.26901 0
M  V30 11344 O 1053.24 1.92439 -0.355771 0
M  V30 11345 C 1053.54 0.523437 -3.53546 0
M  V30 11346 C 1053.2 -0.656042 -4.46102 0
M  V30 11347 C 1051.86 -0.979633 -4.71123 0
M  V30 11348 C 1054.22 -1.44545 -5.00756 0
M  V30 11349 C 1051.54 -2.0943 -5.48047 0
M  V30 11350 C 1053.9 -2.55066 -5.78899 0
M  V30 11351 C 1052.56 -2.87942 -6.02201 0
M  V30 11352 H 1051.83 0.0739659 -0.737299 0
M  V30 11353 H 1054.48 -0.518196 -1.84356 0
M  V30 11354 H 1052.78 1.325 -3.68715 0
M  V30 11355 H 1054.48 0.988148 -3.88634 0
M  V30 11356 H 1051.07 -0.393818 -4.26787 0
M  V30 11357 H 1055.25 -1.20869 -4.81357 0
M  V30 11358 H 1050.51 -2.3528 -5.64317 0
M  V30 11359 H 1054.68 -3.1664 -6.20252 0
M  V30 11360 H 1052.31 -3.74435 -6.61591 0
M  V30 11361 N 1053.89 1.57202 -0.111913 0
M  V30 11362 C 1054.82 2.17957 0.837683 0
M  V30 11363 C 1055.8 1.1176 1.28233 0
M  V30 11364 O 1056.98 1.39967 1.34621 0
M  V30 11365 C 1054.11 2.77333 2.09054 0
M  V30 11366 C 1053.07 3.8905 1.78393 0
M  V30 11367 C 1052.39 4.35203 3.10649 0
M  V30 11368 C 1053.69 5.11477 1.05775 0
M  V30 11369 H 1055.39 2.9756 0.331441 0
M  V30 11370 H 1052.93 1.43131 0.157979 0
M  V30 11371 H 1054.88 3.18492 2.75936 0
M  V30 11372 H 1053.61 1.95009 2.6199 0
M  V30 11373 H 1052.27 3.48456 1.13903 0
M  V30 11374 H 1051.92 3.49747 3.61506 0
M  V30 11375 H 1051.62 5.10534 2.9091 0
M  V30 11376 H 1053.14 4.79007 3.78661 0
M  V30 11377 H 1054.55 5.497 1.62798 0
M  V30 11378 H 1052.95 5.92346 0.961573 0
M  V30 11379 H 1054.02 4.84881 0.043297 0
M  V30 11380 N 1055.36 -0.161842 1.56767 0
M  V30 11381 C 1056.31 -1.2002 1.97139 0
M  V30 11382 C 1057.28 -1.43486 0.836713 0
M  V30 11383 O 1058.47 -1.56069 1.0976 0
M  V30 11384 C 1055.61 -2.53228 2.34456 0
M  V30 11385 C 1054.72 -2.37062 3.61145 0
M  V30 11386 C 1053.85 -3.63202 3.87631 0
M  V30 11387 C 1052.89 -3.42008 5.07638 0
M  V30 11388 N 1052.03 -4.60242 5.30209 0
M  V30 11389 H 1056.87 -0.848918 2.85653 0
M  V30 11390 H 1054.41 -0.407753 1.41336 0
M  V30 11391 H 1056.36 -3.30879 2.54116 0
M  V30 11392 H 1054.99 -2.86333 1.4904 0
M  V30 11393 H 1054.05 -1.50539 3.49345 0
M  V30 11394 H 1055.36 -2.17353 4.48953 0
M  V30 11395 H 1054.51 -4.49285 4.0771 0
M  V30 11396 H 1053.25 -3.85899 2.98216 0
M  V30 11397 H 1052.26 -2.54312 4.87448 0
M  V30 11398 H 1053.48 -3.20724 5.98593 0
M  V30 11399 H 1051.43 -4.8314 4.43747 0
M  V30 11400 H 1051.34 -4.43481 6.12259 0
M  V30 11401 H 1052.61 -5.47581 5.54775 0
M  V30 11402 N 1056.84 -1.516 -0.430713 0
M  V30 11403 C 1058.08 -1.6626 -1.18899 0
M  V30 11404 C 1058.45 -0.373877 -1.88325 0
M  V30 11405 O 1059.65 -0.39632 -2.65862 0
M  V30 11406 C 1057.92 -2.83693 -2.17378 0
M  V30 11407 S 1059.48 -3.18717 -3.01604 0
M  V30 11408 H 1056.29 -0.585681 -0.403112 0
M  V30 11409 H 1058.9 -1.89528 -0.479538 0
M  V30 11410 H 1057.6 -3.75759 -1.65025 0
M  V30 11411 H 1057.13 -2.62634 -2.92894 0
M  V30 11412 H 1059.15 -2.65665 -4.1909 0
M  V30 11413 N 1058.32 0.686584 -1.41858 0
M  V30 11414 C 1059.25 1.81107 -1.38836 0
M  V30 11415 C 1060.23 1.60599 -0.254293 0
M  V30 11416 O 1061.41 1.83229 -0.442641 0
M  V30 11417 C 1058.54 3.17928 -1.16787 0
M  V30 11418 C 1057.59 3.5721 -2.33031 0
M  V30 11419 S 1058.42 3.60986 -3.95536 0
M  V30 11420 C 1059.58 5.00519 -3.75808 0
M  V30 11421 H 1059.81 1.83396 -2.33994 0
M  V30 11422 H 1057.34 0.856146 -1.28489 0
M  V30 11423 H 1059.3 3.9691 -1.04752 0
M  V30 11424 H 1057.96 3.1324 -0.232335 0
M  V30 11425 H 1057.15 4.56629 -2.13321 0
M  V30 11426 H 1056.76 2.8556 -2.41519 0
M  V30 11427 H 1059.05 5.88272 -3.36069 0
M  V30 11428 H 1059.99 5.25273 -4.74862 0
M  V30 11429 H 1060.4 4.72481 -3.08904 0
M  V30 11430 N 1059.8 1.27835 0.921735 0
M  V30 11431 C 1061.21 1.05369 1.19873 0
M  V30 11432 C 1061.41 -0.208997 2.00413 0
M  V30 11433 O 1060.47 -0.912861 2.35421 0
M  V30 11434 C 1061.78 2.29658 1.94108 0
M  V30 11435 C 1063.33 2.34756 2.07023 0
M  V30 11436 C 1063.81 3.5879 2.84664 0
M  V30 11437 N 1065.3 3.59383 2.9223 0
M  V30 11438 C 1066.03 4.52029 3.52785 0
M  V30 11439 N 1065.53 5.54986 4.14683 0
M  V30 11440 N 1067.32 4.39641 3.50246 0
M  V30 11441 H 1059.47 2.08903 0.383819 0
M  V30 11442 H 1061.73 0.919065 0.232429 0
M  V30 11443 H 1061.44 3.21604 1.4235 0
M  V30 11444 H 1061.31 2.35444 2.94696 0
M  V30 11445 H 1063.7 1.43312 2.57965 0
M  V30 11446 H 1063.78 2.32969 1.05636 0
M  V30 11447 H 1063.43 4.50574 2.34404 0
M  V30 11448 H 1063.36 3.57829 3.86349 0
M  V30 11449 H 1065.85 2.84927 2.48244 0
M  V30 11450 H 1066.16 6.21837 4.58845 0
M  V30 11451 H 1064.51 5.58822 4.13211 0
M  V30 11452 H 1067.7 3.58413 3.01094 0
M  V30 11453 H 1067.87 5.12033 3.97148 0
M  V30 11454 N 1061.28 -1.12907 1.09954 0
M  V30 11455 C 1062.22 -2.18485 0.743848 0
M  V30 11456 C 1063.19 -1.63766 -0.277494 0
M  V30 11457 O 1064.38 -1.90146 -0.157899 0
M  V30 11458 C 1061.52 -3.44649 0.176437 0
M  V30 11459 C 1060.63 -4.13445 1.25248 0
M  V30 11460 C 1059.77 -5.27242 0.647242 0
M  V30 11461 C 1058.8 -5.87897 1.70421 0
M  V30 11462 N 1057.94 -6.93116 1.1196 0
M  V30 11463 H 1062.78 -2.48257 1.64841 0
M  V30 11464 H 1060.32 -1.21891 0.823471 0
M  V30 11465 H 1062.28 -4.16852 -0.170384 0
M  V30 11466 H 1060.91 -3.15309 -0.69137 0
M  V30 11467 H 1059.96 -3.39471 1.7165 0
M  V30 11468 H 1061.27 -4.54601 2.05279 0
M  V30 11469 H 1060.42 -6.06186 0.249579 0
M  V30 11470 H 1059.16 -4.87351 -0.184556 0
M  V30 11471 H 1058.17 -5.07643 2.11136 0
M  V30 11472 H 1059.39 -6.2986 2.53877 0
M  V30 11473 H 1057.34 -6.55271 0.309181 0
M  V30 11474 H 1057.26 -7.32843 1.85681 0
M  V30 11475 H 1058.52 -7.759 0.748326 0
M  V30 11476 N 1062.75 -0.88754 -1.30232 0
M  V30 11477 C 1063.72 -0.361095 -2.26338 0
M  V30 11478 C 1064.72 0.497871 -1.52898 0
M  V30 11479 O 1065.91 0.30466 -1.71515 0
M  V30 11480 C 1063.04 0.485135 -3.3743 0
M  V30 11481 H 1064.23 -1.20973 -2.74419 0
M  V30 11482 H 1061.78 -0.664619 -1.41466 0
M  V30 11483 H 1062.52 1.35425 -2.9467 0
M  V30 11484 H 1062.3 -0.130173 -3.91884 0
M  V30 11485 H 1063.79 0.845169 -4.08958 0
M  V30 11486 N 1064.23 1.43628 -0.648757 0
M  V30 11487 C 1065.48 2.01864 -0.160336 0
M  V30 11488 C 1065.81 1.51148 1.22412 0
M  V30 11489 O 1065.06 0.693168 1.83013 0
M  V30 11490 C 1065.36 3.57214 -0.115282 0
M  V30 11491 C 1065.03 4.27258 -1.44088 0
M  V30 11492 C 1063.69 4.46109 -1.8039 0
M  V30 11493 C 1066.04 4.66962 -2.31508 0
M  V30 11494 C 1063.37 5.01928 -3.03785 0
M  V30 11495 C 1065.72 5.24148 -3.54191 0
M  V30 11496 C 1064.39 5.41216 -3.90694 0
M  V30 11497 H 1063.66 0.738674 -0.0586712 0
M  V30 11498 H 1066.3 1.72163 -0.838578 0
M  V30 11499 H 1064.61 3.86431 0.646395 0
M  V30 11500 H 1066.3 4.00025 0.279425 0
M  V30 11501 H 1062.89 4.12928 -1.14842 0
M  V30 11502 H 1067.08 4.52095 -2.04753 0
M  V30 11503 H 1062.33 5.13328 -3.32122 0
M  V30 11504 H 1066.51 5.53861 -4.22151 0
M  V30 11505 H 1064.14 5.84234 -4.8639 0
M  V30 11506 N 1065.71 0.390394 1.52688 0
M  V30 11507 C 1067.13 0.0404028 1.59549 0
M  V30 11508 C 1067.33 -1.44503 1.40432 0
M  V30 11509 O 1066.38 -2.20968 1.22187 0
M  V30 11510 C 1067.7 0.518561 2.96195 0
M  V30 11511 C 1069.24 0.474913 3.09376 0
M  V30 11512 C 1069.72 0.929278 4.48473 0
M  V30 11513 N 1071.21 0.885335 4.5466 0
M  V30 11514 C 1071.94 1.2083 5.60524 0
M  V30 11515 N 1071.44 1.6018 6.74028 0
M  V30 11516 N 1073.23 1.12949 5.50635 0
M  V30 11517 H 1065.38 1.35743 1.63363 0
M  V30 11518 H 1067.65 0.556453 0.767505 0
M  V30 11519 H 1067.35 1.55606 3.15404 0
M  V30 11520 H 1067.23 -0.081779 3.77111 0
M  V30 11521 H 1069.61 -0.553503 2.89863 0
M  V30 11522 H 1069.7 1.11107 2.3041 0
M  V30 11523 H 1069.34 1.95593 4.68728 0
M  V30 11524 H 1069.27 0.270121 5.25907 0
M  V30 11525 H 1071.76 0.595787 3.73174 0
M  V30 11526 H 1072.07 1.83184 7.50775 0
M  V30 11527 H 1070.42 1.64067 6.75357 0
M  V30 11528 H 1073.61 0.821074 4.60843 0
M  V30 11529 H 1073.78 1.3845 6.33037 0
M  V30 11530 N 1067.19 -1.57141 0.120249 0
M  V30 11531 C 1068.41 -2.00017 -0.548454 0
M  V30 11532 C 1068.84 -0.999433 -1.59352 0
M  V30 11533 O 1068.2 0.0286978 -1.81277 0
M  V30 11534 C 1068.24 -3.41766 -1.15015 0
M  V30 11535 O 1067.35 -3.44589 -2.26566 0
M  V30 11536 H 1066.69 -0.649739 -0.136875 0
M  V30 11537 H 1069.22 -2.03529 0.209092 0
M  V30 11538 H 1069.23 -3.80001 -1.48537 0
M  V30 11539 H 1067.9 -4.14117 -0.384681 0
M  V30 11540 H 1066.48 -3.18174 -1.94473 0
M  V30 11541 N 1068.67 0.153526 -1.5685 0
M  V30 11542 C 1069.91 0.865519 -1.82629 0
M  V30 11543 C 1070.24 1.81999 -0.700105 0
M  V30 11544 O 1069.51 1.93907 0.278744 0
M  V30 11545 H 1068.09 0.32261 -0.673745 0
M  V30 11546 H 1070.75 0.149088 -1.94329 0
M  V30 11547 H 1069.84 1.43171 -2.77324 0
M  V30 11548 N 1070.14 1.51827 0.422667 0
M  V30 11549 C 1071.09 1.74198 1.51406 0
M  V30 11550 C 1072.06 0.584013 1.55494 0
M  V30 11551 O 1073.25 0.820079 1.72277 0
M  V30 11552 C 1070.39 1.88627 2.88988 0
M  V30 11553 C 1069.5 3.16233 2.94314 0
M  V30 11554 C 1068.63 3.21172 4.2311 0
M  V30 11555 C 1067.67 4.43033 4.2236 0
M  V30 11556 N 1066.81 4.4544 5.42704 0
M  V30 11557 H 1071.65 2.67352 1.31632 0
M  V30 11558 H 1069.19 1.32487 0.63919 0
M  V30 11559 H 1071.15 1.94976 3.68837 0
M  V30 11560 H 1069.78 0.988673 3.07287 0
M  V30 11561 H 1068.83 3.19123 2.07039 0
M  V30 11562 H 1070.14 4.06104 2.89623 0
M  V30 11563 H 1069.29 3.26517 5.11343 0
M  V30 11564 H 1068.03 2.29216 4.30478 0
M  V30 11565 H 1067.04 4.37849 3.32518 0
M  V30 11566 H 1068.26 5.3627 4.16643 0
M  V30 11567 H 1066.21 3.56361 5.50766 0
M  V30 11568 H 1066.13 5.29138 5.39953 0
M  V30 11569 H 1067.39 4.54997 6.32928 0
M  V30 11570 N 1071.62 -0.679052 1.4222 0
M  V30 11571 C 1072.55 -1.80481 1.48152 0
M  V30 11572 C 1073.53 -1.66698 0.338502 0
M  V30 11573 O 1074.72 -1.86183 0.552228 0
M  V30 11574 C 1071.85 -3.18746 1.37908 0
M  V30 11575 C 1070.8 -3.47258 2.50192 0
M  V30 11576 C 1070.13 -4.85052 2.25008 0
M  V30 11577 C 1071.43 -3.44576 3.92511 0
M  V30 11578 H 1073.12 -1.75774 2.42371 0
M  V30 11579 H 1070.67 -0.844241 1.16656 0
M  V30 11580 H 1072.62 -3.97229 1.40666 0
M  V30 11581 H 1071.35 -3.24119 0.401806 0
M  V30 11582 H 1070 -2.71133 2.46744 0
M  V30 11583 H 1069.65 -4.8707 1.25584 0
M  V30 11584 H 1069.35 -5.05092 3.00259 0
M  V30 11585 H 1070.88 -5.65825 2.29508 0
M  V30 11586 H 1072.29 -4.13036 3.97585 0
M  V30 11587 H 1070.69 -3.76151 4.67579 0
M  V30 11588 H 1071.76 -2.4323 4.19484 0
M  V30 11589 N 1073.1 -1.28322 -0.914942 0
M  V30 11590 C 1074.03 -1.14681 -2.03398 0
M  V30 11591 C 1075.01 -0.0448939 -1.70041 0
M  V30 11592 O 1076.2 -0.221672 -1.92931 0
M  V30 11593 C 1073.33 -0.806623 -3.37803 0
M  V30 11594 C 1072.28 -1.86318 -3.85318 0
M  V30 11595 C 1071.61 -1.37665 -5.16674 0
M  V30 11596 C 1072.91 -3.26953 -4.07307 0
M  V30 11597 H 1074.6 -2.08293 -2.15068 0
M  V30 11598 H 1072.15 -1.00284 -1.03339 0
M  V30 11599 H 1074.1 -0.69796 -4.1558 0
M  V30 11600 H 1072.82 0.165203 -3.26182 0
M  V30 11601 H 1071.48 -1.96096 -3.09745 0
M  V30 11602 H 1071.13 -0.393927 -5.01455 0
M  V30 11603 H 1070.83 -2.08313 -5.49435 0
M  V30 11604 H 1072.35 -1.28119 -5.97007 0
M  V30 11605 H 1073.77 -3.20102 -4.75613 0
M  V30 11606 H 1072.17 -3.95424 -4.51398 0
M  V30 11607 H 1073.24 -3.71059 -3.12159 0
M  V30 11608 N 1074.58 1.12322 -1.10551 0
M  V30 11609 C 1075.51 2.17819 -0.713263 0
M  V30 11610 C 1076.52 1.6086 0.250604 0
M  V30 11611 O 1077.71 1.78466 0.0348909 0
M  V30 11612 C 1074.81 3.38885 -0.0320325 0
M  V30 11613 C 1073.99 4.25332 -1.02038 0
M  V30 11614 C 1073.04 5.24895 -0.370412 0
M  V30 11615 O 1072.07 5.59958 -1.02157 0
M  V30 11616 N 1073.27 5.73934 0.870633 0
M  V30 11617 H 1076.04 2.52083 -1.62094 0
M  V30 11618 H 1073.6 1.27755 -0.994492 0
M  V30 11619 H 1075.59 4.02574 0.414285 0
M  V30 11620 H 1074.16 3.02762 0.778072 0
M  V30 11621 H 1073.38 3.5824 -1.64492 0
M  V30 11622 H 1074.67 4.79936 -1.68936 0
M  V30 11623 H 1074.07 5.47614 1.419 0
M  V30 11624 H 1072.62 6.39504 1.26008 0
M  V30 11625 N 1076.06 0.894434 1.2976 0
M  V30 11626 C 1077.3 0.518435 1.96061 0
M  V30 11627 C 1077.64 -0.931882 1.70381 0
M  V30 11628 O 1076.91 -1.65988 1.01381 0
M  V30 11629 C 1077.19 0.80519 3.50982 0
M  V30 11630 C 1077.05 2.30683 3.86142 0
M  V30 11631 C 1078.37 0.288096 4.39156 0
M  V30 11632 H 1075.48 0.18983 0.712133 0
M  V30 11633 H 1078.13 1.12016 1.53468 0
M  V30 11634 H 1076.28 0.293071 3.87393 0
M  V30 11635 H 1077.95 2.88808 3.59705 0
M  V30 11636 H 1076.19 2.76968 3.33873 0
M  V30 11637 H 1076.86 2.45805 4.94251 0
M  V30 11638 H 1079.34 0.726547 4.09708 0
M  V30 11639 H 1078.21 0.517985 5.4645 0
M  V30 11640 H 1078.48 -0.811018 4.34597 0
M  V30 11641 N 1077.53 -1.43282 0.656365 0
M  V30 11642 C 1078.78 -2.01378 0.170702 0
M  V30 11643 C 1079.1 -1.52063 -1.22073 0
M  V30 11644 O 1078.37 -0.73456 -1.81607 0
M  V30 11645 H 1076.95 -0.744577 0.0601168 0
M  V30 11646 H 1079.62 -1.75449 0.848739 0
M  V30 11647 H 1078.71 -3.11701 0.157745 0
M  V30 11648 N 1079.01 -0.398486 -1.52479 0
M  V30 11649 C 1080.24 0.180295 -2.05812 0
M  V30 11650 C 1080.65 1.40301 -1.26934 0
M  V30 11651 O 1079.99 1.81039 -0.311544 0
M  V30 11652 C 1080.06 0.60601 -3.54355 0
M  V30 11653 C 1079.72 -0.504508 -4.54207 0
M  V30 11654 C 1080.72 -1.36478 -5.01667 0
M  V30 11655 C 1078.4 -0.674161 -4.97755 0
M  V30 11656 C 1080.4 -2.37975 -5.91309 0
M  V30 11657 C 1078.08 -1.69246 -5.87196 0
M  V30 11658 C 1079.08 -2.54367 -6.33866 0
M  V30 11659 O 1078.77 -3.54454 -7.21538 0
M  V30 11660 H 1078.5 0.0286396 -0.675393 0
M  V30 11661 H 1081.06 -0.564912 -1.97479 0
M  V30 11662 H 1079.29 1.40334 -3.60338 0
M  V30 11663 H 1080.97 1.1115 -3.90385 0
M  V30 11664 H 1081.74 -1.24506 -4.68746 0
M  V30 11665 H 1077.62 -0.0213029 -4.60995 0
M  V30 11666 H 1081.16 -3.0445 -6.27659 0
M  V30 11667 H 1077.06 -1.81252 -6.1953 0
M  V30 11668 H 1077.83 -3.50571 -7.39623 0
M  V30 11669 N 1080.49 1.57075 -0.12858 0
M  V30 11670 C 1081.72 1.99876 0.534544 0
M  V30 11671 C 1082.13 1.00843 1.59612 0
M  V30 11672 O 1081.49 0.00268947 1.825 0
M  V30 11673 C 1081.54 3.42654 1.15198 0
M  V30 11674 O 1081.26 4.37899 0.132823 0
M  V30 11675 C 1082.76 4.00637 1.8975 0
M  V30 11676 H 1079.98 0.656073 0.140744 0
M  V30 11677 H 1082.53 2.03337 -0.217742 0
M  V30 11678 H 1080.68 3.40101 1.85499 0
M  V30 11679 H 1081.1 5.21253 0.582682 0
M  V30 11680 H 1082.57 5.02592 2.28266 0
M  V30 11681 H 1083.05 3.40313 2.7764 0
M  V30 11682 H 1083.65 4.06764 1.2419 0
M  V30 11683 N 1081.97 -0.145205 1.5693 0
M  V30 11684 C 1083.38 -0.705089 1.72874 0
M  V30 11685 C 1083.73 -1.81577 0.743261 0
M  V30 11686 O 1082.86 -2.16214 -0.0897153 0
M  V30 11687 C 1083.45 -1.28578 3.13454 0
M  V30 11688 C 1082.01 -1.79221 3.30994 0
M  V30 11689 C 1081.16 -0.681392 2.68798 0
M  V30 11690 H 1084.11 0.0804798 1.58496 0
M  V30 11691 H 1084.13 -2.15558 3.13552 0
M  V30 11692 H 1083.64 -0.477186 3.85155 0
M  V30 11693 H 1081.74 -2.62642 2.64292 0
M  V30 11694 H 1081.86 -1.91969 4.38959 0
M  V30 11695 H 1080.22 -1.10847 2.29314 0
M  V30 11696 H 1081 0.115786 3.43105 0
M  V30 11697 N 1083.45 -1.52049 -0.414609 0
M  V30 11698 C 1084.72 -1.56397 -1.17471 0
M  V30 11699 C 1085.1 -0.34171 -2.08316 0
M  V30 11700 O 1084.45 0.6718 -2.18401 0
M  V30 11701 C 1084.66 -2.88983 -1.95678 0
M  V30 11702 C 1086.01 -3.41781 -2.51935 0
M  V30 11703 O 1087.03 -2.90686 -2.05865 0
M  V30 11704 O 1085.89 -4.30989 -3.36022 0
M  V30 11705 H 1082.99 -0.62974 -0.536056 0
M  V30 11706 H 1085.53 -1.64374 -0.421834 0
M  V30 11707 H 1084.31 -3.69392 -1.29094 0
M  V30 11708 H 1083.93 -2.84274 -2.77983 0
M  V30 11709 N 1084.93 0.6715 -1.42579 0
M  V30 11710 C 1086.17 1.42871 -1.42941 0
M  V30 11711 C 1086.49 1.94941 -0.0480483 0
M  V30 11712 O 1085.76 1.73275 0.913921 0
M  V30 11713 H 1084.34 0.530189 -0.526221 0
M  V30 11714 H 1087.01 0.793219 -1.78028 0
M  V30 11715 H 1086.1 2.2801 -2.13114 0
M  V30 11716 N 1086.4 1.28806 0.908124 0
M  V30 11717 C 1087.35 1.13215 2.01125 0
M  V30 11718 C 1088.32 0.0277357 1.66077 0
M  V30 11719 O 1089.51 0.193707 1.89814 0
M  V30 11720 C 1086.65 0.805887 3.35558 0
M  V30 11721 C 1085.76 1.9899 3.83441 0
M  V30 11722 C 1084.89 1.60376 5.06412 0
M  V30 11723 C 1083.93 2.75409 5.46641 0
M  V30 11724 N 1083.07 2.37249 6.60801 0
M  V30 11725 H 1087.91 2.07598 2.13792 0
M  V30 11726 H 1085.45 1.03316 1.0471 0
M  V30 11727 H 1087.4 0.597451 4.129 0
M  V30 11728 H 1086.03 -0.101023 3.22642 0
M  V30 11729 H 1085.09 2.31029 3.02208 0
M  V30 11730 H 1086.4 2.85214 4.09212 0
M  V30 11731 H 1085.55 1.35772 5.91313 0
M  V30 11732 H 1084.29 0.712888 4.82462 0
M  V30 11733 H 1083.3 3.00705 4.60279 0
M  V30 11734 H 1084.52 3.65148 5.72577 0
M  V30 11735 H 1082.47 1.50638 6.3847 0
M  V30 11736 H 1082.38 3.17008 6.86325 0
M  V30 11737 H 1083.65 2.15943 7.48992 0
M  V30 11738 N 1087.88 -1.11734 1.11145 0
M  V30 11739 C 1089.16 -1.79795 0.770261 0
M  V30 11740 C 1089.54 -1.97624 -0.742158 0
M  V30 11741 O 1088.89 -1.55847 -1.67105 0
M  V30 11742 C 1089.1 -3.13684 1.52982 0
M  V30 11743 C 1090.44 -3.88771 1.70711 0
M  V30 11744 O 1091.47 -3.23363 1.49381 0
M  V30 11745 O 1090.33 -5.06134 2.06132 0
M  V30 11746 H 1087.42 -0.778617 0.27872 0
M  V30 11747 H 1089.97 -1.18504 1.2147 0
M  V30 11748 H 1088.74 -2.96043 2.55879 0
M  V30 11749 H 1088.36 -3.82687 1.07873 0
M  V30 11750 N 1089.36 -0.901303 -1.29284 0
M  V30 11751 C 1090.64 -0.44747 -1.90413 0
M  V30 11752 C 1091.02 1.07298 -1.81797 0
M  V30 11753 O 1090.36 1.91555 -1.24574 0
M  V30 11754 C 1090.57 -0.963849 -3.35427 0
M  V30 11755 C 1091.92 -1.00851 -4.12449 0
M  V30 11756 O 1092.95 -0.91163 -3.44337 0
M  V30 11757 O 1091.81 -1.15426 -5.34171 0
M  V30 11758 H 1088.9 -0.13976 -0.815105 0
M  V30 11759 H 1091.45 -0.991274 -1.37738 0
M  V30 11760 H 1090.22 -2.00782 -3.3586 0
M  V30 11761 H 1089.84 -0.400149 -3.95581 0
M  V30 11762 N 1090.84 1.42931 -0.663954 0
M  V30 11763 C 1092.07 2.05729 -0.189532 0
M  V30 11764 C 1092.48 1.49914 1.15423 0
M  V30 11765 O 1091.82 0.629324 1.72584 0
M  V30 11766 C 1091.88 3.59482 -0.0354748 0
M  V30 11767 C 1091.54 4.37935 -1.30622 0
M  V30 11768 C 1092.54 4.69297 -2.23733 0
M  V30 11769 C 1090.23 4.77761 -1.5508 0
M  V30 11770 C 1092.22 5.39407 -3.39586 0
M  V30 11771 C 1089.91 5.47613 -2.71224 0
M  V30 11772 C 1090.91 5.7836 -3.63302 0
M  V30 11773 O 1090.59 6.46783 -4.77417 0
M  V30 11774 H 1090.33 0.669678 -0.0922342 0
M  V30 11775 H 1092.88 1.84243 -0.907943 0
M  V30 11776 H 1091.11 3.79584 0.738412 0
M  V30 11777 H 1092.8 4.03947 0.397679 0
M  V30 11778 H 1093.56 4.39038 -2.06084 0
M  V30 11779 H 1089.44 4.53229 -0.842863 0
M  V30 11780 H 1092.99 5.63323 -4.11476 0
M  V30 11781 H 1088.88 5.77289 -2.88804 0
M  V30 11782 H 1089.65 6.6527 -4.76821 0
M  V30 11783 N 1092.32 0.406567 1.52266 0
M  V30 11784 C 1093.73 0.0573228 1.59497 0
M  V30 11785 C 1093.93 -1.43005 1.41957 0
M  V30 11786 O 1092.99 -2.19659 1.24523 0
M  V30 11787 C 1094.3 0.549947 2.95628 0
M  V30 11788 C 1095.85 0.5077 3.08855 0
M  V30 11789 C 1096.32 0.976792 4.47463 0
M  V30 11790 N 1097.81 0.933508 4.53696 0
M  V30 11791 C 1098.55 1.26769 5.59211 0
M  V30 11792 N 1098.05 1.6732 6.72292 0
M  V30 11793 N 1099.84 1.18782 5.49406 0
M  V30 11794 H 1091.99 1.37468 1.61914 0
M  V30 11795 H 1094.25 0.564562 0.76156 0
M  V30 11796 H 1093.96 1.58943 3.13736 0
M  V30 11797 H 1093.83 -0.0417767 3.77177 0
M  V30 11798 H 1096.22 -0.522728 2.90433 0
M  V30 11799 H 1096.3 1.13545 2.29219 0
M  V30 11800 H 1095.94 2.00554 4.66627 0
M  V30 11801 H 1095.87 0.325885 5.25591 0
M  V30 11802 H 1098.37 0.635333 3.72521 0
M  V30 11803 H 1098.68 1.91137 7.4879 0
M  V30 11804 H 1097.02 1.71221 6.73579 0
M  V30 11805 H 1100.21 0.869906 4.59946 0
M  V30 11806 H 1100.39 1.45157 6.31533 0
M  V30 11807 N 1093.79 -1.57004 0.136909 0
M  V30 11808 C 1095.04 -1.96873 -0.511137 0
M  V30 11809 C 1095.4 -1.02001 -1.63137 0
M  V30 11810 O 1094.69 -0.0532138 -1.91526 0
M  V30 11811 C 1094.88 -3.40903 -1.07331 0
M  V30 11812 C 1094.71 -4.49699 -0.00908112 0
M  V30 11813 C 1093.48 -5.03477 0.42889 0
M  V30 11814 C 1095.68 -5.08372 0.778631 0
M  V30 11815 N 1093.66 -5.95867 1.47702 0
M  V30 11816 C 1095.03 -5.96875 1.67751 0
M  V30 11817 C 1097.09 -4.90975 0.827538 0
M  V30 11818 C 1095.79 -6.69845 2.62108 0
M  V30 11819 C 1097.82 -5.64639 1.75889 0
M  V30 11820 C 1097.18 -6.52842 2.64531 0
M  V30 11821 H 1093.28 -0.766253 -0.156141 0
M  V30 11822 H 1095.86 -1.93347 0.229176 0
M  V30 11823 H 1094.03 -3.45042 -1.78327 0
M  V30 11824 H 1095.76 -3.67855 -1.68715 0
M  V30 11825 H 1092.52 -4.73588 0.03306 0
M  V30 11826 H 1092.94 -6.46767 2.00055 0
M  V30 11827 H 1097.59 -4.22511 0.156318 0
M  V30 11828 H 1095.3 -7.37544 3.30235 0
M  V30 11829 H 1098.89 -5.53177 1.80241 0
M  V30 11830 H 1097.77 -7.08843 3.35426 0
M  V30 11831 N 1095.27 0.136881 -1.57004 0
M  V30 11832 C 1096.51 0.853873 -1.8571 0
M  V30 11833 C 1096.88 1.77885 -0.722556 0
M  V30 11834 O 1098.08 2.53606 -0.89092 0
M  V30 11835 C 1096.35 1.59935 -3.19618 0
M  V30 11836 S 1097.91 2.36038 -3.69908 0
M  V30 11837 H 1094.73 0.285342 -0.65123 0
M  V30 11838 H 1097.33 0.113254 -1.95172 0
M  V30 11839 H 1096.03 0.91148 -4.0015 0
M  V30 11840 H 1095.56 2.38069 -3.13188 0
M  V30 11841 H 1097.58 3.61425 -3.3998 0
M  V30 11842 N 1096.75 1.52266 0.40654 0
M  V30 11843 C 1098 1.66452 1.15325 0
M  V30 11844 C 1098.33 0.395728 1.90432 0
M  V30 11845 O 1097.58 -0.621382 1.85573 0
M  V30 11846 C 1097.88 2.8389 2.1712 0
M  V30 11847 C 1097.55 4.22011 1.58801 0
M  V30 11848 C 1096.21 4.59579 1.42621 0
M  V30 11849 C 1098.56 5.08074 1.16236 0
M  V30 11850 C 1095.89 5.80885 0.823967 0
M  V30 11851 C 1098.24 6.29988 0.574284 0
M  V30 11852 C 1096.9 6.66303 0.399638 0
M  V30 11853 H 1096.17 0.609092 0.422005 0
M  V30 11854 H 1098.82 1.86374 0.440131 0
M  V30 11855 H 1097.13 2.58314 2.94586 0
M  V30 11856 H 1098.82 2.92063 2.74774 0
M  V30 11857 H 1095.41 3.92408 1.72378 0
M  V30 11858 H 1099.6 4.79631 1.27544 0
M  V30 11859 H 1094.85 6.07644 0.676694 0
M  V30 11860 H 1099.03 6.96 0.236081 0
M  V30 11861 H 1096.65 7.60169 -0.0691262 0
M  V30 11862 N 1098.23 -0.663929 1.42933 0
M  V30 11863 C 1099.64 -0.978346 1.26097 0
M  V30 11864 C 1099.84 -2.00756 0.172968 0
M  V30 11865 O 1098.9 -2.48418 -0.452184 0
M  V30 11866 C 1100.21 -1.4728 2.62162 0
M  V30 11867 C 1101.76 -1.59001 2.69606 0
M  V30 11868 C 1102.24 -2.1184 4.06064 0
M  V30 11869 N 1103.73 -2.19158 4.08074 0
M  V30 11870 C 1104.46 -2.61141 5.10483 0
M  V30 11871 N 1103.96 -3.02498 6.23271 0
M  V30 11872 N 1105.75 -2.60986 4.97838 0
M  V30 11873 H 1097.9 0.0173096 2.12393 0
M  V30 11874 H 1100.17 -0.0548116 0.946414 0
M  V30 11875 H 1099.87 -0.791008 3.42689 0
M  V30 11876 H 1099.75 -2.4497 2.86827 0
M  V30 11877 H 1102.13 -2.26284 1.89418 0
M  V30 11878 H 1102.21 -0.597728 2.48718 0
M  V30 11879 H 1101.86 -1.45162 4.86714 0
M  V30 11880 H 1101.79 -3.1188 4.2431 0
M  V30 11881 H 1104.28 -1.90013 3.26655 0
M  V30 11882 H 1104.59 -3.33251 6.97254 0
M  V30 11883 H 1102.94 -3.00328 6.2676 0
M  V30 11884 H 1106.13 -2.28046 4.08794 0
M  V30 11885 H 1106.3 -2.93384 5.7778 0
M  V30 11886 N 1099.71 -1.29285 -0.901281 0
M  V30 11887 C 1100.95 -1.17339 -1.65407 0
M  V30 11888 C 1101.29 0.274834 -1.92245 0
M  V30 11889 O 1100.56 1.19865 -1.53176 0
M  V30 11890 C 1100.84 -1.98547 -3.00418 0
M  V30 11891 C 1100.7 -3.51501 -2.80655 0
M  V30 11892 C 1102.02 -1.81062 -4.01129 0
M  V30 11893 H 1099.13 -0.427624 -0.600255 0
M  V30 11894 H 1101.78 -1.58741 -1.0441 0
M  V30 11895 H 1099.93 -1.63366 -3.52482 0
M  V30 11896 H 1101.6 -3.96655 -2.35505 0
M  V30 11897 H 1099.84 -3.76504 -2.15469 0
M  V30 11898 H 1100.51 -4.03593 -3.76585 0
M  V30 11899 H 1102.99 -2.11788 -3.58169 0
M  V30 11900 H 1101.86 -2.40235 -4.93536 0
M  V30 11901 H 1102.13 -0.765388 -4.35424 0
M  V30 11902 N 1101.18 1.11143 -1.11736 0
M  V30 11903 C 1102.46 1.79384 -0.779785 0
M  V30 11904 C 1102.84 1.98015 0.731668 0
M  V30 11905 O 1102.19 1.56731 1.66276 0
M  V30 11906 C 1102.4 3.12868 -1.54643 0
M  V30 11907 C 1103.75 3.8786 -1.7277 0
M  V30 11908 O 1104.77 3.22566 -1.51094 0
M  V30 11909 O 1103.63 5.05034 -2.08813 0
M  V30 11910 H 1100.72 0.777128 -0.282845 0
M  V30 11911 H 1103.27 1.17858 -1.22096 0
M  V30 11912 H 1102.04 2.94682 -2.57446 0
M  V30 11913 H 1101.67 3.82109 -1.09901 0
M  V30 11914 N 1102.66 0.908147 1.28804 0
M  V30 11915 C 1103.57 0.397167 2.31214 0
M  V30 11916 C 1104.59 -0.512352 1.66286 0
M  V30 11917 O 1105.76 -0.399893 1.9739 0
M  V30 11918 C 1102.83 -0.359522 3.44831 0
M  V30 11919 C 1101.89 0.582539 4.25329 0
M  V30 11920 C 1101.12 -0.138133 5.33521 0
M  V30 11921 O 1101.35 -1.36076 5.53931 0
M  V30 11922 O 1100.28 0.523682 5.99618 0
M  V30 11923 H 1104.11 1.247 2.76918 0
M  V30 11924 H 1101.69 0.672766 1.33395 0
M  V30 11925 H 1103.57 -0.787098 4.13984 0
M  V30 11926 H 1102.25 -1.18528 3.01219 0
M  V30 11927 H 1101.16 1.0594 3.58786 0
M  V30 11928 H 1102.49 1.37495 4.72605 0
M  V30 11929 N 1104.14 -1.42577 0.671525 0
M  V30 11930 C 1105.39 -2.01882 0.192716 0
M  V30 11931 C 1105.72 -1.52959 -1.19654 0
M  V30 11932 O 1104.99 -0.730404 -1.80265 0
M  V30 11933 C 1105.28 -3.59404 0.223734 0
M  V30 11934 C 1105.13 -4.18514 1.64821 0
M  V30 11935 C 1106.45 -4.37996 -0.429858 0
M  V30 11936 H 1103.57 -0.733523 0.0715026 0
M  V30 11937 H 1106.21 -1.69641 0.855689 0
M  V30 11938 H 1104.36 -3.87003 -0.340776 0
M  V30 11939 H 1106.03 -4.01881 2.26472 0
M  V30 11940 H 1104.28 -3.74467 2.1899 0
M  V30 11941 H 1104.95 -5.27643 1.62162 0
M  V30 11942 H 1107.42 -4.16069 0.0506433 0
M  V30 11943 H 1106.3 -5.476 -0.377503 0
M  V30 11944 H 1106.56 -4.15625 -1.50693 0
M  V30 11945 N 1105.62 -0.414636 -1.52048 0
M  V30 11946 C 1106.57 0.422766 -2.28726 0
M  V30 11947 C 1107.56 1.04099 -1.3364 0
M  V30 11948 O 1108.77 0.978559 -1.51077 0
M  V30 11949 H 1105.14 0.155123 -0.735827 0
M  V30 11950 H 1107.11 -0.245091 -2.97392 0
M  V30 11951 C 1105.86 1.52418 -3.12513 0
M  V30 11952 H 1105.18 1.05781 -3.85552 0
M  V30 11953 H 1106.62 2.08382 -3.6926 0
M  V30 11954 C 1105.08 2.49465 -2.26426 0
M  V30 11955 O 1105.61 3.53479 -1.90829 0
M  V30 11956 N 1103.82 2.19806 -1.90088 0
M  V30 11957 H 1103.37 1.35253 -2.19236 0
M  V30 11958 H 1103.32 2.84984 -1.32783 0
M  V30 11959 N 1107.1 1.56929 -0.145233 0
M  V30 11960 C 1108.34 1.97141 0.500689 0
M  V30 11961 C 1108.7 1.02864 1.62594 0
M  V30 11962 O 1107.99 0.0633701 1.91495 0
M  V30 11963 C 1108.18 3.41467 1.05522 0
M  V30 11964 C 1108.01 4.49698 -0.0147676 0
M  V30 11965 C 1106.78 5.03242 -0.455585 0
M  V30 11966 C 1108.98 5.07952 -0.80558 0
M  V30 11967 N 1106.96 5.95075 -1.5086 0
M  V30 11968 C 1108.33 5.95977 -1.70914 0
M  V30 11969 C 1110.39 4.90529 -0.853564 0
M  V30 11970 C 1109.09 6.68445 -2.65656 0
M  V30 11971 C 1111.12 5.63698 -1.78881 0
M  V30 11972 C 1110.48 6.5143 -2.6799 0
M  V30 11973 H 1106.58 0.767071 0.152075 0
M  V30 11974 H 1109.16 1.93222 -0.239426 0
M  V30 11975 H 1107.33 3.45983 1.76495 0
M  V30 11976 H 1109.07 3.68745 1.66762 0
M  V30 11977 H 1105.82 4.73564 -0.0581751 0
M  V30 11978 H 1106.25 6.45697 -2.03482 0
M  V30 11979 H 1110.89 4.22422 -0.178723 0
M  V30 11980 H 1108.61 7.35782 -3.34141 0
M  V30 11981 H 1112.19 5.52213 -1.83172 0
M  V30 11982 H 1111.07 7.07054 -3.39181 0
M  V30 11983 N 1108.58 -0.128553 1.57075 0
M  V30 11984 C 1109.8 -0.85245 1.88523 0
M  V30 11985 C 1110.22 -1.73886 0.735459 0
M  V30 11986 O 1109.58 -1.80114 -0.294113 0
M  V30 11987 C 1109.63 -1.69384 3.19361 0
M  V30 11988 O 1109.35 -0.84313 4.2991 0
M  V30 11989 C 1110.85 -2.52373 3.64449 0
M  V30 11990 H 1108.07 -0.245556 0.624454 0
M  V30 11991 H 1110.61 -0.115807 2.04172 0
M  V30 11992 H 1108.77 -2.38335 3.0541 0
M  V30 11993 H 1109.18 -1.42255 5.0484 0
M  V30 11994 H 1110.66 -3.06955 4.58784 0
M  V30 11995 H 1111.13 -3.29283 2.90636 0
M  V30 11996 H 1111.74 -1.88681 3.81155 0
M  V30 11997 N 1110.05 -1.5248 -0.398459 0
M  V30 11998 C 1111.28 -1.70925 -1.16586 0
M  V30 11999 C 1111.7 -0.42342 -1.83991 0
M  V30 12000 O 1111.05 0.601395 -1.72306 0
M  V30 12001 C 1111.1 -2.85226 -2.22099 0
M  V30 12002 O 1110.83 -4.08831 -1.57444 0
M  V30 12003 C 1112.33 -3.15272 -3.11639 0
M  V30 12004 H 1109.55 -0.572533 -0.349924 0
M  V30 12005 H 1112.09 -1.99087 -0.467416 0
M  V30 12006 H 1110.25 -2.59553 -2.87595 0
M  V30 12007 H 1110.66 -4.72603 -2.2748 0
M  V30 12008 H 1112.13 -3.98737 -3.81724 0
M  V30 12009 H 1112.61 -2.29262 -3.74614 0
M  V30 12010 H 1113.22 -3.42749 -2.518 0
M  V30 12011 N 1111.53 0.65634 -1.43283 0
M  V30 12012 C 1112.78 1.41674 -1.45946 0
M  V30 12013 C 1113.13 1.92228 -0.0812633 0
M  V30 12014 O 1112.43 1.69167 0.899607 0
M  V30 12015 C 1112.62 2.61688 -2.43421 0
M  V30 12016 C 1112.45 2.2288 -3.90583 0
M  V30 12017 C 1111.22 2.11355 -4.58974 0
M  V30 12018 C 1113.42 1.83361 -4.80503 0
M  V30 12019 N 1111.4 1.65844 -5.91074 0
M  V30 12020 C 1112.77 1.48909 -6.01852 0
M  V30 12021 C 1114.82 1.70517 -4.67791 0
M  V30 12022 C 1113.53 1.02899 -7.11902 0
M  V30 12023 C 1115.55 1.25912 -5.77841 0
M  V30 12024 C 1114.92 0.923948 -6.98314 0
M  V30 12025 H 1111.01 0.514195 -0.589175 0
M  V30 12026 H 1113.6 0.755591 -1.79441 0
M  V30 12027 H 1111.77 3.25466 -2.11958 0
M  V30 12028 H 1113.5 3.28374 -2.36542 0
M  V30 12029 H 1110.26 2.31014 -4.13436 0
M  V30 12030 H 1110.68 1.45459 -6.61189 0
M  V30 12031 H 1115.32 1.9507 -3.7511 0
M  V30 12032 H 1113.04 0.770942 -8.04414 0
M  V30 12033 H 1116.63 1.16468 -5.70023 0
M  V30 12034 H 1115.51 0.584057 -7.82022 0
M  V30 12035 N 1113.01 1.29761 0.894412 0
M  V30 12036 C 1113.96 1.15232 2.0205 0
M  V30 12037 C 1114.95 0.0665664 1.69269 0
M  V30 12038 O 1116.16 0.226746 1.78566 0
M  V30 12039 H 1112.53 0.356102 0.662341 0
M  V30 12040 H 1114.5 2.10559 2.11442 0
M  V30 12041 C 1113.25 0.851143 3.37121 0
M  V30 12042 H 1112.58 1.67865 3.62852 0
M  V30 12043 H 1114.02 0.78954 4.16584 0
M  V30 12044 C 1112.47 -0.445737 3.33938 0
M  V30 12045 O 1113 -1.47017 3.7383 0
M  V30 12046 N 1111.21 -0.453493 2.8704 0
M  V30 12047 H 1110.76 0.380636 2.54772 0
M  V30 12048 H 1110.72 -1.32119 2.85293 0
M  V30 12049 N 1114.49 -1.10549 1.12324 0
M  V30 12050 C 1115.72 -1.8627 0.900618 0
M  V30 12051 C 1116.13 -1.80609 -0.550069 0
M  V30 12052 O 1115.49 -1.19396 -1.38025 0
M  V30 12053 C 1115.54 -3.34716 1.36556 0
M  V30 12054 O 1115.26 -3.40279 2.75938 0
M  V30 12055 C 1116.76 -4.27315 1.17969 0
M  V30 12056 H 1113.98 -0.588741 0.321908 0
M  V30 12057 H 1116.52 -1.39759 1.49291 0
M  V30 12058 H 1114.68 -3.78697 0.81652 0
M  V30 12059 H 1115.09 -4.32781 2.96312 0
M  V30 12060 H 1116.57 -5.29677 1.55391 0
M  V30 12061 H 1117.04 -4.39036 0.120158 0
M  V30 12062 H 1117.65 -3.89137 1.71617 0
M  V30 12063 N 1115.97 -0.914965 -1.28321 0
M  V30 12064 C 1116.91 -0.394477 -2.29231 0
M  V30 12065 C 1117.91 0.514481 -1.61398 0
M  V30 12066 O 1119.11 0.395591 -1.75599 0
M  V30 12067 H 1115.49 -0.108969 -0.744063 0
M  V30 12068 H 1117.46 -1.25862 -2.70557 0
M  V30 12069 C 1116.21 0.349134 -3.45943 0
M  V30 12070 H 1115.53 -0.341087 -3.98342 0
M  V30 12071 H 1116.97 0.677944 -4.18545 0
M  V30 12072 C 1115.43 1.55747 -2.98738 0
M  V30 12073 O 1115.96 2.65654 -3.01315 0
M  V30 12074 N 1114.17 1.40488 -2.54384 0
M  V30 12075 H 1113.71 0.510716 -2.52487 0
M  V30 12076 H 1113.67 2.21464 -2.23161 0
M  V30 12077 N 1117.44 1.42219 -0.679077 0
M  V30 12078 C 1118.69 2.01777 -0.20342 0
M  V30 12079 C 1119.02 1.53592 1.18841 0
M  V30 12080 O 1118.3 0.739954 1.79875 0
M  V30 12081 C 1118.58 3.59281 -0.242791 0
M  V30 12082 C 1118.43 4.17634 -1.67038 0
M  V30 12083 C 1119.75 4.38218 0.406624 0
M  V30 12084 H 1116.87 0.733134 -0.0753916 0
M  V30 12085 H 1119.51 1.69185 -0.864673 0
M  V30 12086 H 1117.66 3.87178 0.320248 0
M  V30 12087 H 1119.34 4.00674 -2.286 0
M  V30 12088 H 1117.58 3.73301 -2.20973 0
M  V30 12089 H 1118.25 5.26776 -1.64958 0
M  V30 12090 H 1120.73 4.16036 -0.0727077 0
M  V30 12091 H 1119.6 5.47793 0.348457 0
M  V30 12092 H 1119.86 4.16418 1.48487 0
M  V30 12093 N 1118.92 0.422693 1.51826 0
M  V30 12094 C 1120.17 -0.148348 2.01555 0
M  V30 12095 C 1120.49 -1.44483 1.30956 0
M  V30 12096 O 1119.76 -1.90904 0.439599 0
M  V30 12097 H 1118.34 -0.0578116 0.74476 0
M  V30 12098 H 1121 0.562046 1.8662 0
M  V30 12099 H 1120.1 -0.334766 3.10299 0
M  V30 12100 N 1120.4 -1.5685 0.153553 0
M  V30 12101 C 1121.65 -1.95509 -0.495911 0
M  V30 12102 C 1121.96 -1.04129 -1.65579 0
M  V30 12103 O 1123.17 -1.32394 -2.37032 0
M  V30 12104 C 1121.62 -3.47579 -0.933622 0
M  V30 12105 C 1121.23 -4.47555 0.199684 0
M  V30 12106 C 1122.98 -3.95092 -1.55251 0
M  V30 12107 C 1120.88 -5.90843 -0.256663 0
M  V30 12108 H 1119.81 -0.729919 -0.189035 0
M  V30 12109 H 1122.46 -1.81938 0.238947 0
M  V30 12110 H 1120.85 -3.56506 -1.72394 0
M  V30 12111 H 1122.02 -4.50329 0.976744 0
M  V30 12112 H 1120.33 -4.09997 0.727394 0
M  V30 12113 H 1122.93 -4.99588 -1.90567 0
M  V30 12114 H 1123.27 -3.37015 -2.4439 0
M  V30 12115 H 1123.81 -3.89109 -0.826969 0
M  V30 12116 H 1120.55 -6.52753 0.599515 0
M  V30 12117 H 1120.07 -5.91414 -0.999458 0
M  V30 12118 H 1121.75 -6.43131 -0.70649 0
M  V30 12119 N 1121.88 0.120221 -1.57141 0
M  V30 12120 C 1123.13 0.826791 -1.83976 0
M  V30 12121 C 1123.44 1.81102 -0.739014 0
M  V30 12122 O 1124.65 2.56368 -0.893736 0
M  V30 12123 C 1123.1 1.52108 -3.26176 0
M  V30 12124 C 1122.71 0.577902 -4.44257 0
M  V30 12125 C 1124.45 2.21286 -3.62261 0
M  V30 12126 C 1122.36 1.27535 -5.77485 0
M  V30 12127 H 1121.29 0.312508 -0.686189 0
M  V30 12128 H 1123.94 0.0795343 -1.83328 0
M  V30 12129 H 1122.32 2.31492 -3.2129 0
M  V30 12130 H 1123.5 -0.182629 -4.60438 0
M  V30 12131 H 1121.81 -0.00684348 -4.16399 0
M  V30 12132 H 1124.41 2.74154 -4.59068 0
M  V30 12133 H 1124.75 2.99029 -2.89634 0
M  V30 12134 H 1125.29 1.48791 -3.68925 0
M  V30 12135 H 1122.02 0.539237 -6.53278 0
M  V30 12136 H 1121.54 2.00792 -5.65192 0
M  V30 12137 H 1123.22 1.80888 -6.21199 0
M  V30 12138 N 1123.36 1.52689 0.390367 0
M  V30 12139 C 1124.3 1.78007 1.4972 0
M  V30 12140 C 1125.3 0.647948 1.56518 0
M  V30 12141 O 1126.5 0.830398 1.59701 0
M  V30 12142 H 1122.88 0.56322 0.498284 0
M  V30 12143 H 1124.85 2.70698 1.25559 0
M  V30 12144 C 1123.6 1.96469 2.86872 0
M  V30 12145 H 1122.92 2.83012 2.82391 0
M  V30 12146 H 1124.36 2.18174 3.6356 0
M  V30 12147 C 1122.82 0.736847 3.28743 0
M  V30 12148 O 1123.35 -0.0863743 4.01607 0
M  V30 12149 N 1121.56 0.56735 2.85008 0
M  V30 12150 H 1121.1 1.23838 2.2588 0
M  V30 12151 H 1121.06 -0.252831 3.13382 0
M  V30 12152 N 1124.83 -0.648732 1.43629 0
M  V30 12153 C 1125.74 -1.79046 1.51591 0
M  V30 12154 C 1126.76 -1.69276 0.402697 0
M  V30 12155 O 1127.94 -1.90366 0.657484 0
M  V30 12156 C 1125 -3.15347 1.44073 0
M  V30 12157 C 1124.06 -3.3688 2.66102 0
M  V30 12158 C 1123.3 -4.66679 2.58933 0
M  V30 12159 O 1123.52 -5.46328 1.63956 0
M  V30 12160 O 1122.45 -4.9003 3.49506 0
M  V30 12161 H 1126.28 -1.75283 2.48011 0
M  V30 12162 H 1123.86 -0.807774 1.2568 0
M  V30 12163 H 1125.75 -3.96633 1.42339 0
M  V30 12164 H 1124.42 -3.19691 0.50789 0
M  V30 12165 H 1123.33 -2.55341 2.73407 0
M  V30 12166 H 1124.66 -3.37386 3.58373 0
M  V30 12167 N 1126.31 -1.30234 -0.887518 0
M  V30 12168 C 1127.59 -1.09572 -1.62029 0
M  V30 12169 C 1127.97 0.355877 -2.08079 0
M  V30 12170 O 1127.32 1.34692 -1.84582 0
M  V30 12171 C 1127.53 -2.0943 -2.79177 0
M  V30 12172 C 1128.88 -2.4101 -3.4957 0
M  V30 12173 O 1129.9 -2.0772 -2.89363 0
M  V30 12174 O 1128.76 -2.97943 -4.5814 0
M  V30 12175 H 1125.85 -0.420648 -0.712028 0
M  V30 12176 H 1128.4 -1.41651 -0.934517 0
M  V30 12177 H 1127.17 -3.07149 -2.42436 0
M  V30 12178 H 1126.79 -1.78154 -3.55453 0
M  V30 12179 N 1127.79 1.09952 -1.12909 0
M  V30 12180 C 1129.2 1.63516 -0.901087 0
M  V30 12181 C 1129.55 1.87932 0.563547 0
M  V30 12182 O 1128.68 1.625 1.42908 0
M  V30 12183 C 1129.27 2.97054 -1.62924 0
M  V30 12184 C 1127.83 3.47464 -1.44725 0
M  V30 12185 C 1126.98 2.21979 -1.66194 0
M  V30 12186 H 1129.93 0.933858 -1.28315 0
M  V30 12187 H 1129.95 3.64757 -1.08318 0
M  V30 12188 H 1129.46 2.79251 -2.69519 0
M  V30 12189 H 1127.56 3.70402 -0.40409 0
M  V30 12190 H 1127.68 4.25254 -2.20671 0
M  V30 12191 H 1126.04 2.30368 -1.0864 0
M  V30 12192 H 1126.82 2.06702 -2.74097 0
M  V30 12193 N 1129.27 0.921757 1.27833 0
M  V30 12194 C 1130.52 0.557974 1.94245 0
M  V30 12195 C 1130.84 -0.90268 1.72849 0
M  V30 12196 O 1130.11 -1.63915 1.07279 0
M  V30 12197 H 1128.69 0.203364 0.718785 0
M  V30 12198 H 1131.35 1.17286 1.5566 0
M  V30 12199 H 1130.45 0.759202 3.02725 0
M  V30 12200 N 1130.75 -1.41857 0.686609 0
M  V30 12201 C 1131.69 -2.326 0.0041351 0
M  V30 12202 C 1132.69 -1.50474 -0.778077 0
M  V30 12203 O 1133.89 -1.66468 -0.684709 0
M  V30 12204 H 1130.27 -0.751797 -0.0174615 0
M  V30 12205 H 1132.24 -2.87844 0.786656 0
M  V30 12206 C 1130.99 -3.35175 -0.924819 0
M  V30 12207 H 1130.31 -3.98416 -0.332339 0
M  V30 12208 H 1131.75 -4.01229 -1.37082 0
M  V30 12209 C 1130.21 -2.68359 -2.03679 0
M  V30 12210 O 1130.74 -2.52453 -3.12459 0
M  V30 12211 N 1128.95 -2.27196 -1.81192 0
M  V30 12212 H 1128.49 -2.40333 -0.92725 0
M  V30 12213 H 1128.45 -1.82824 -2.55778 0
M  V30 12214 N 1132.22 -0.430739 -1.51599 0
M  V30 12215 C 1133.46 0.137184 -2.03939 0
M  V30 12216 C 1133.83 1.40533 -1.30823 0
M  V30 12217 O 1135.03 2.05307 -1.73501 0
M  V30 12218 C 1133.3 0.357395 -3.55609 0
M  V30 12219 S 1134.86 0.889669 -4.29686 0
M  V30 12220 H 1131.68 0.0349429 -0.710141 0
M  V30 12221 H 1134.28 -0.588628 -1.86428 0
M  V30 12222 H 1132.98 -0.572011 -4.06394 0
M  V30 12223 H 1132.51 1.11047 -3.77402 0
M  V30 12224 H 1134.53 2.16797 -4.46333 0
M  V30 12225 N 1133.7 1.56767 -0.161869 0
M  V30 12226 C 1134.61 2.21083 0.784814 0
M  V30 12227 C 1135.63 1.19959 1.26039 0
M  V30 12228 O 1136.8 1.52588 1.31449 0
M  V30 12229 C 1133.87 2.83153 2.00063 0
M  V30 12230 C 1132.93 3.9945 1.57285 0
M  V30 12231 C 1132.16 4.5855 2.7307 0
M  V30 12232 O 1132.39 4.16534 3.89686 0
M  V30 12233 O 1131.32 5.48575 2.47688 0
M  V30 12234 H 1135.15 3.02522 0.267243 0
M  V30 12235 H 1132.73 1.49255 0.0658783 0
M  V30 12236 H 1134.61 3.22546 2.71186 0
M  V30 12237 H 1133.29 2.04718 2.50744 0
M  V30 12238 H 1132.2 3.64745 0.831393 0
M  V30 12239 H 1133.53 4.7945 1.11304 0
M  V30 12240 N 1135.18 -0.111886 1.57202 0
M  V30 12241 C 1136.43 -0.816794 1.84859 0
M  V30 12242 C 1136.75 -1.80079 0.748113 0
M  V30 12243 O 1136.02 -1.94578 -0.227235 0
M  V30 12244 H 1134.6 -0.304633 0.682061 0
M  V30 12245 H 1137.26 -0.097513 1.94656 0
M  V30 12246 H 1136.36 -1.35768 2.81022 0
M  V30 12247 N 1136.66 -1.52894 -0.382264 0
M  V30 12248 C 1137.9 -1.68515 -1.12829 0
M  V30 12249 C 1138.24 -0.427211 -1.89443 0
M  V30 12250 O 1137.51 0.57516 -1.85801 0
M  V30 12251 C 1137.8 -2.92449 -2.10108 0
M  V30 12252 C 1137.65 -4.2836 -1.37214 0
M  V30 12253 C 1138.97 -3.11944 -3.1045 0
M  V30 12254 H 1136.09 -0.613223 -0.408811 0
M  V30 12255 H 1138.73 -1.85503 -0.410921 0
M  V30 12256 H 1136.88 -2.78097 -2.71283 0
M  V30 12257 H 1138.55 -4.54493 -0.789516 0
M  V30 12258 H 1136.79 -4.28532 -0.673973 0
M  V30 12259 H 1137.46 -5.11178 -2.0833 0
M  V30 12260 H 1139.94 -3.25372 -2.59369 0
M  V30 12261 H 1138.82 -4.00125 -3.75754 0
M  V30 12262 H 1139.08 -2.26465 -3.79692 0
M  V30 12263 N 1138.14 0.641106 -1.43971 0
M  V30 12264 C 1139.08 1.75352 -1.50068 0
M  V30 12265 C 1140.05 1.62386 -0.349266 0
M  V30 12266 O 1141.24 1.82455 -0.558118 0
M  V30 12267 C 1138.38 3.13561 -1.4413 0
M  V30 12268 C 1137.49 3.37574 -2.6957 0
M  V30 12269 C 1136.63 4.65698 -2.55535 0
M  V30 12270 C 1135.67 4.82857 -3.76186 0
M  V30 12271 N 1134.8 6.02249 -3.60888 0
M  V30 12272 H 1139.64 1.69477 -2.45116 0
M  V30 12273 H 1137.18 0.826871 -1.2166 0
M  V30 12274 H 1139.14 3.93476 -1.38681 0
M  V30 12275 H 1137.77 3.18476 -0.526563 0
M  V30 12276 H 1136.82 2.5167 -2.85248 0
M  V30 12277 H 1138.13 3.46135 -3.59154 0
M  V30 12278 H 1137.29 5.53759 -2.47862 0
M  V30 12279 H 1136.03 4.59479 -1.63495 0
M  V30 12280 H 1135.03 3.93229 -3.84254 0
M  V30 12281 H 1136.26 4.90898 -4.6925 0
M  V30 12282 H 1134.2 5.97138 -2.71591 0
M  V30 12283 H 1134.12 6.11822 -4.44083 0
M  V30 12284 H 1135.39 6.92898 -3.57088 0
M  V30 12285 N 1139.62 1.30703 0.880598 0
M  V30 12286 C 1141.03 1.09129 1.1646 0
M  V30 12287 C 1141.23 -0.145131 2.00977 0
M  V30 12288 O 1140.29 -0.837502 2.38206 0
M  V30 12289 C 1141.6 2.35717 1.86703 0
M  V30 12290 C 1143.15 2.41224 1.9945 0
M  V30 12291 C 1143.62 3.67665 2.73105 0
M  V30 12292 N 1145.11 3.68498 2.80648 0
M  V30 12293 C 1145.85 4.63024 3.38225 0
M  V30 12294 N 1145.35 5.67898 3.96817 0
M  V30 12295 N 1147.14 4.50561 3.36082 0
M  V30 12296 H 1139.29 2.10019 0.317164 0
M  V30 12297 H 1141.55 0.925994 0.203072 0
M  V30 12298 H 1141.26 3.2597 1.32046 0
M  V30 12299 H 1141.13 2.447 2.87057 0
M  V30 12300 H 1143.52 1.51446 2.53275 0
M  V30 12301 H 1143.6 2.36212 0.981704 0
M  V30 12302 H 1143.24 4.57803 2.19951 0
M  V30 12303 H 1143.17 3.69939 3.7477 0
M  V30 12304 H 1145.67 2.92681 2.39053 0
M  V30 12305 H 1145.98 6.3612 4.3883 0
M  V30 12306 H 1144.32 5.71685 3.95223 0
M  V30 12307 H 1147.51 3.67811 2.89539 0
M  V30 12308 H 1147.69 5.24408 3.80657 0
M  V30 12309 N 1141.09 -1.09351 1.1349 0
M  V30 12310 C 1142.32 -1.85304 0.920324 0
M  V30 12311 C 1142.74 -1.81182 -0.530883 0
M  V30 12312 O 1142.09 -1.20853 -1.36751 0
M  V30 12313 C 1142.14 -3.33249 1.40098 0
M  V30 12314 O 1141.87 -3.37333 2.79531 0
M  V30 12315 C 1143.37 -4.2604 1.22495 0
M  V30 12316 H 1140.59 -0.585294 0.328134 0
M  V30 12317 H 1143.13 -1.38168 1.50765 0
M  V30 12318 H 1141.29 -3.7781 0.85664 0
M  V30 12319 H 1141.7 -4.29614 3.00885 0
M  V30 12320 H 1143.17 -5.27999 1.61 0
M  V30 12321 H 1143.65 -4.38883 0.166717 0
M  V30 12322 H 1144.26 -3.87295 1.75735 0
M  V30 12323 N 1142.57 -0.928524 -1.27343 0
M  V30 12324 C 1143.5 -0.445627 -2.29208 0
M  V30 12325 C 1144.48 0.494508 -1.62753 0
M  V30 12326 O 1145.67 0.399082 -1.90055 0
M  V30 12327 C 1142.8 0.301684 -3.45987 0
M  V30 12328 C 1141.75 -0.550695 -4.24442 0
M  V30 12329 C 1141.08 0.325833 -5.33706 0
M  V30 12330 C 1142.38 -1.81559 -4.89728 0
M  V30 12331 H 1144.07 -1.29696 -2.69851 0
M  V30 12332 H 1141.62 -0.625085 -1.29725 0
M  V30 12333 H 1143.57 0.650455 -4.1635 0
M  V30 12334 H 1142.29 1.18705 -3.04264 0
M  V30 12335 H 1140.95 -0.882185 -3.55827 0
M  V30 12336 H 1140.6 1.21018 -4.88225 0
M  V30 12337 H 1140.3 -0.240994 -5.87106 0
M  V30 12338 H 1141.83 0.670156 -6.06911 0
M  V30 12339 H 1143.24 -1.53483 -5.52373 0
M  V30 12340 H 1141.64 -2.32598 -5.53189 0
M  V30 12341 H 1142.71 -2.53461 -4.13383 0
M  V30 12342 N 1144.05 1.41491 -0.694123 0
M  V30 12343 C 1145.27 2.06099 -0.23197 0
M  V30 12344 C 1145.7 1.51888 1.10958 0
M  V30 12345 O 1145.06 0.645247 1.69429 0
M  V30 12346 C 1145.11 3.60053 -0.198522 0
M  V30 12347 O 1144.21 4.04021 0.827067 0
M  V30 12348 H 1143.55 0.654193 -0.113699 0
M  V30 12349 H 1146.08 1.81282 -0.948575 0
M  V30 12350 H 1146.09 4.0799 -0.0288904 0
M  V30 12351 H 1144.77 3.98879 -1.17764 0
M  V30 12352 H 1143.34 3.67593 0.626908 0
M  V30 12353 N 1145.53 0.438773 1.51369 0
M  V30 12354 C 1146.77 -0.127213 2.021 0
M  V30 12355 C 1147.1 -1.42587 1.32284 0
M  V30 12356 O 1146.36 -1.90986 0.426949 0
M  V30 12357 C 1146.66 -0.39186 3.55245 0
M  V30 12358 C 1146.32 0.821158 4.4336 0
M  V30 12359 C 1144.98 1.15381 4.67162 0
M  V30 12360 C 1147.34 1.6303 4.95046 0
M  V30 12361 C 1144.66 2.29626 5.39897 0
M  V30 12362 C 1147.02 2.76376 5.69033 0
M  V30 12363 C 1145.68 3.10094 5.91099 0
M  V30 12364 H 1144.95 -0.0465505 0.739536 0
M  V30 12365 H 1147.6 0.586261 1.82305 0
M  V30 12366 H 1145.9 -1.18724 3.73379 0
M  V30 12367 H 1147.6 -0.843228 3.92034 0
M  V30 12368 H 1144.19 0.551946 4.25031 0
M  V30 12369 H 1148.37 1.38651 4.76539 0
M  V30 12370 H 1143.63 2.56062 5.55196 0
M  V30 12371 H 1147.8 3.39442 6.08072 0
M  V30 12372 H 1145.43 3.98731 6.47238 0
M  V30 12373 N 1147.01 -1.56678 0.170181 0
M  V30 12374 C 1148.23 -2.0166 -0.484543 0
M  V30 12375 C 1148.66 -1.04962 -1.56091 0
M  V30 12376 O 1148.01 -0.0289887 -1.81277 0
M  V30 12377 C 1148.06 -3.45252 -1.04084 0
M  V30 12378 O 1147.17 -3.51623 -2.15488 0
M  V30 12379 H 1146.51 -0.653765 -0.116135 0
M  V30 12380 H 1149.04 -2.02761 0.273737 0
M  V30 12381 H 1149.05 -3.84534 -1.36373 0
M  V30 12382 H 1147.72 -4.15131 -0.252738 0
M  V30 12383 H 1146.3 -3.242 -1.84252 0
M  V30 12384 N 1148.48 0.103547 -1.57259 0
M  V30 12385 C 1149.41 1.12714 -2.04494 0
M  V30 12386 C 1150.39 1.42278 -0.932255 0
M  V30 12387 O 1151.58 1.52453 -1.20298 0
M  V30 12388 C 1148.71 2.44927 -2.46228 0
M  V30 12389 C 1147.66 2.2979 -3.61082 0
M  V30 12390 C 1146.99 3.67105 -3.88765 0
M  V30 12391 C 1148.29 1.7455 -4.9227 0
M  V30 12392 H 1149.98 0.734198 -2.90258 0
M  V30 12393 H 1147.53 0.351725 -1.39638 0
M  V30 12394 H 1149.48 3.16798 -2.77879 0
M  V30 12395 H 1148.21 2.8614 -1.57453 0
M  V30 12396 H 1146.87 1.60366 -3.29664 0
M  V30 12397 H 1146.51 4.05831 -2.97171 0
M  V30 12398 H 1146.21 3.57825 -4.66084 0
M  V30 12399 H 1147.74 4.40456 -4.22884 0
M  V30 12400 H 1149.15 2.36253 -5.22358 0
M  V30 12401 H 1147.55 1.76051 -5.73695 0
M  V30 12402 H 1148.62 0.704242 -4.79759 0
M  V30 12403 N 1149.96 1.53094 0.37415 0
M  V30 12404 C 1151.38 1.42676 0.715246 0
M  V30 12405 C 1151.58 0.558992 1.93591 0
M  V30 12406 O 1150.63 0.0381328 2.52471 0
M  V30 12407 C 1151.95 2.85746 0.936459 0
M  V30 12408 C 1153.49 2.95322 1.03701 0
M  V30 12409 C 1153.97 4.39436 1.29075 0
M  V30 12410 N 1155.46 4.42826 1.35864 0
M  V30 12411 C 1156.2 5.51433 1.57191 0
M  V30 12412 N 1155.69 6.701 1.75891 0
M  V30 12413 N 1157.48 5.38998 1.59491 0
M  V30 12414 H 1149.64 2.08025 -0.428854 0
M  V30 12415 H 1151.9 0.939078 -0.129758 0
M  V30 12416 H 1151.6 3.51523 0.111448 0
M  V30 12417 H 1151.48 3.28887 1.84698 0
M  V30 12418 H 1153.87 2.29704 1.85257 0
M  V30 12419 H 1153.95 2.55588 0.104066 0
M  V30 12420 H 1153.59 5.05625 0.480231 0
M  V30 12421 H 1153.52 4.76735 2.23677 0
M  V30 12422 H 1156.01 3.57301 1.23061 0
M  V30 12423 H 1156.32 7.48643 1.91713 0
M  V30 12424 H 1154.67 6.73102 1.73086 0
M  V30 12425 H 1157.86 4.45257 1.44444 0
M  V30 12426 H 1158.03 6.23705 1.75771 0
M  V30 12427 N 1151.44 -0.633461 1.44309 0
M  V30 12428 C 1152.66 -1.42527 1.50668 0
M  V30 12429 C 1153.09 -1.87637 0.131861 0
M  V30 12430 O 1152.45 -1.58595 -0.878477 0
M  V30 12431 C 1152.5 -2.62328 2.47419 0
M  V30 12432 O 1151.6 -3.62081 1.97411 0
M  V30 12433 H 1150.94 -0.426559 0.508864 0
M  V30 12434 H 1153.47 -0.773392 1.8942 0
M  V30 12435 H 1153.48 -3.09901 2.65378 0
M  V30 12436 H 1152.16 -2.2884 3.47283 0
M  V30 12437 H 1150.73 -3.21333 1.89208 0
M  V30 12438 N 1152.92 -1.31168 -0.873655 0
M  V30 12439 C 1154.14 -1.23728 -1.66452 0
M  V30 12440 C 1154.57 0.194869 -1.87088 0
M  V30 12441 O 1153.93 1.1397 -1.40998 0
M  V30 12442 C 1153.97 -1.98285 -3.0119 0
M  V30 12443 O 1153.08 -1.31767 -3.90783 0
M  V30 12444 H 1152.42 -0.427362 -0.508191 0
M  V30 12445 H 1154.95 -1.73176 -1.08955 0
M  V30 12446 H 1154.96 -2.0774 -3.51153 0
M  V30 12447 H 1153.63 -3.02437 -2.8549 0
M  V30 12448 H 1152.21 -1.3074 -3.4923 0
M  V30 12449 N 1154.4 1.08748 -1.14068 0
M  V30 12450 C 1155.81 1.33125 -0.880341 0
M  V30 12451 C 1156.01 1.9569 0.480396 0
M  V30 12452 O 1155.07 2.2077 1.22543 0
M  V30 12453 C 1156.38 2.23618 -2.01036 0
M  V30 12454 C 1157.93 2.37108 -2.04326 0
M  V30 12455 C 1158.4 3.30941 -3.1661 0
M  V30 12456 N 1159.9 3.38517 -3.16166 0
M  V30 12457 C 1160.63 4.11142 -3.99687 0
M  V30 12458 N 1160.13 4.86505 -4.93239 0
M  V30 12459 N 1161.92 4.06938 -3.87761 0
M  V30 12460 H 1154.07 0.665164 -2.01716 0
M  V30 12461 H 1156.33 0.355612 -0.878774 0
M  V30 12462 H 1156.04 1.84885 -2.99183 0
M  V30 12463 H 1155.91 3.24056 -1.93049 0
M  V30 12464 H 1158.3 2.75101 -1.06787 0
M  V30 12465 H 1158.38 1.36424 -2.16384 0
M  V30 12466 H 1158.03 2.93669 -4.14392 0
M  V30 12467 H 1157.96 4.31545 -3.01789 0
M  V30 12468 H 1160.45 2.84786 -2.48405 0
M  V30 12469 H 1160.76 5.39372 -5.53441 0
M  V30 12470 H 1159.1 4.8557 -4.9724 0
M  V30 12471 H 1162.3 3.47166 -3.13996 0
M  V30 12472 H 1162.47 4.63275 -4.53079 0
M  V30 12473 N 1155.87 0.935264 1.26849 0
M  V30 12474 C 1157.12 0.580548 1.94313 0
M  V30 12475 C 1157.45 -0.877205 1.73259 0
M  V30 12476 O 1156.73 -1.62679 1.06611 0
M  V30 12477 C 1157.01 0.916445 3.48243 0
M  V30 12478 C 1156.86 2.42851 3.78607 0
M  V30 12479 C 1158.18 0.427665 4.38017 0
M  V30 12480 H 1155.3 0.21239 0.705733 0
M  V30 12481 H 1157.94 1.16841 1.49827 0
M  V30 12482 H 1156.09 0.416169 3.86265 0
M  V30 12483 H 1157.77 3.00106 3.50335 0
M  V30 12484 H 1156.01 2.8745 3.24892 0
M  V30 12485 H 1156.68 2.61405 4.8618 0
M  V30 12486 H 1159.16 0.856525 4.07189 0
M  V30 12487 H 1158.03 0.691571 5.44526 0
M  V30 12488 H 1158.29 -0.672344 4.36958 0
M  V30 12489 N 1157.35 -1.41121 0.701616 0
M  V30 12490 C 1158.58 -2.05973 0.242896 0
M  V30 12491 C 1159 -1.52474 -1.10151 0
M  V30 12492 O 1158.36 -0.654224 -1.69085 0
M  V30 12493 C 1158.41 -3.59943 0.217614 0
M  V30 12494 O 1157.51 -4.04454 -0.805629 0
M  V30 12495 H 1156.85 -0.653581 0.117166 0
M  V30 12496 H 1159.38 -1.80777 0.958175 0
M  V30 12497 H 1159.39 -4.07969 0.0505267 0
M  V30 12498 H 1158.07 -3.98249 1.19877 0
M  V30 12499 H 1156.65 -3.6792 -0.607404 0
M  V30 12500 N 1158.83 -0.446794 -1.51134 0
M  V30 12501 C 1160.08 0.116263 -2.01765 0
M  V30 12502 C 1160.4 1.42382 -1.33238 0
M  V30 12503 O 1159.67 1.9018 -0.469915 0
M  V30 12504 H 1158.25 0.0459558 -0.745585 0
M  V30 12505 H 1160.91 -0.591664 -1.85702 0
M  V30 12506 H 1160.01 0.285358 -3.10793 0
M  V30 12507 N 1160.31 1.56586 -0.178487 0
M  V30 12508 C 1161.72 1.58609 0.17759 0
M  V30 12509 C 1161.92 1.19411 1.62306 0
M  V30 12510 O 1160.98 0.90906 2.35568 0
M  V30 12511 C 1162.29 3.005 -0.109722 0
M  V30 12512 C 1163.84 3.12962 -0.0485036 0
M  V30 12513 C 1164.32 4.56957 -0.308901 0
M  V30 12514 N 1165.81 4.62487 -0.25693 0
M  V30 12515 C 1166.54 5.71767 -0.432488 0
M  V30 12516 N 1166.04 6.89577 -0.667494 0
M  V30 12517 N 1167.83 5.60895 -0.367895 0
M  V30 12518 H 1159.98 1.80351 -1.12193 0
M  V30 12519 H 1162.25 0.83623 -0.446569 0
M  V30 12520 H 1161.95 3.3368 -1.11133 0
M  V30 12521 H 1161.83 3.72472 0.595373 0
M  V30 12522 H 1164.21 2.79604 0.943687 0
M  V30 12523 H 1164.29 2.43411 -0.78642 0
M  V30 12524 H 1163.94 4.91025 -1.29833 0
M  V30 12525 H 1163.87 5.24676 0.449711 0
M  V30 12526 H 1166.36 3.77813 -0.0812308 0
M  V30 12527 H 1166.67 7.68744 -0.79071 0
M  V30 12528 H 1165.02 6.91423 -0.704193 0
M  V30 12529 H 1168.21 4.67735 -0.184837 0
M  V30 12530 H 1168.38 6.46005 -0.508138 0
M  V30 12531 N 1161.79 -0.095206 1.57312 0
M  V30 12532 C 1162.74 -1.12188 1.98489 0
M  V30 12533 C 1163.72 -1.35778 0.863317 0
M  V30 12534 O 1164.91 -1.36471 1.12715 0
M  V30 12535 C 1162.04 -2.44214 2.41277 0
M  V30 12536 C 1161.13 -2.23998 3.60119 0
M  V30 12537 N 1161.52 -1.7365 4.75057 0
M  V30 12538 C 1159.82 -2.54565 3.66214 0
M  V30 12539 C 1160.52 -1.67702 5.57002 0
M  V30 12540 N 1159.49 -2.12912 5.00169 0
M  V30 12541 H 1163.3 -0.725545 2.84804 0
M  V30 12542 H 1160.81 -0.302634 1.59555 0
M  V30 12543 H 1162.81 -3.185 2.69004 0
M  V30 12544 H 1161.47 -2.84585 1.56339 0
M  V30 12545 H 1162.48 -1.42849 4.9781 0
M  V30 12546 H 1159.15 -2.98461 2.91937 0
M  V30 12547 H 1160.54 -1.29827 6.59238 0
M  V30 12548 N 1163.26 -1.53291 -0.366026 0
M  V30 12549 C 1164.51 -1.70649 -1.10683 0
M  V30 12550 C 1164.87 -0.45249 -1.87003 0
M  V30 12551 O 1164.16 0.55448 -1.83401 0
M  V30 12552 C 1164.35 -2.89547 -2.09517 0
M  V30 12553 C 1164.18 -4.26389 -1.42907 0
M  V30 12554 C 1162.95 -4.91247 -1.18339 0
M  V30 12555 C 1165.15 -5.06939 -0.867015 0
M  V30 12556 N 1163.13 -6.12015 -0.480746 0
M  V30 12557 C 1164.5 -6.19304 -0.29371 0
M  V30 12558 C 1166.56 -4.91978 -0.765659 0
M  V30 12559 C 1165.26 -7.18342 0.371063 0
M  V30 12560 C 1167.29 -5.91289 -0.114668 0
M  V30 12561 C 1166.65 -7.02975 0.447764 0
M  V30 12562 H 1162.75 -0.677704 -0.390181 0
M  V30 12563 H 1165.33 -1.90687 -0.393276 0
M  V30 12564 H 1163.5 -2.71049 -2.78185 0
M  V30 12565 H 1165.23 -2.95731 -2.76271 0
M  V30 12566 H 1161.99 -4.50387 -1.46455 0
M  V30 12567 H 1162.41 -6.76845 -0.144802 0
M  V30 12568 H 1167.06 -4.05817 -1.18626 0
M  V30 12569 H 1164.77 -8.04094 0.803615 0
M  V30 12570 H 1168.36 -5.81788 -0.037179 0
M  V30 12571 H 1167.24 -7.78503 0.943529 0
M  V30 12572 N 1164.74 0.6258 -1.44643 0
M  V30 12573 C 1165.69 1.73751 -1.51919 0
M  V30 12574 C 1166.66 1.62007 -0.36647 0
M  V30 12575 O 1167.84 1.81852 -0.577439 0
M  V30 12576 C 1164.98 3.12015 -1.47448 0
M  V30 12577 C 1164.1 3.34696 -2.73135 0
M  V30 12578 C 1163.23 4.62962 -2.6046 0
M  V30 12579 C 1162.27 4.7884 -3.81286 0
M  V30 12580 N 1161.41 5.98388 -3.67255 0
M  V30 12581 H 1166.25 1.66867 -2.46899 0
M  V30 12582 H 1163.79 0.813921 -1.22531 0
M  V30 12583 H 1165.74 3.91983 -1.42846 0
M  V30 12584 H 1164.37 3.179 -0.560312 0
M  V30 12585 H 1163.43 2.4863 -2.87901 0
M  V30 12586 H 1164.74 3.42306 -3.62806 0
M  V30 12587 H 1163.89 5.51099 -2.53722 0
M  V30 12588 H 1162.63 4.57719 -1.68359 0
M  V30 12589 H 1161.64 3.89131 -3.88403 0
M  V30 12590 H 1162.86 4.85893 -4.74431 0
M  V30 12591 H 1160.81 5.94224 -2.77909 0
M  V30 12592 H 1160.72 6.07078 -4.50547 0
M  V30 12593 H 1161.99 6.89072 -3.64417 0
M  V30 12594 N 1166.22 1.31629 0.866686 0
M  V30 12595 C 1167.17 1.19492 1.99561 0
M  V30 12596 C 1168.16 0.102456 1.6909 0
M  V30 12597 O 1169.37 0.264571 1.78045 0
M  V30 12598 H 1165.74 0.370071 0.654638 0
M  V30 12599 H 1167.71 2.14996 2.06928 0
M  V30 12600 C 1166.46 0.92246 3.3524 0
M  V30 12601 H 1165.79 1.75524 3.59209 0
M  V30 12602 H 1167.23 0.877726 4.14816 0
M  V30 12603 C 1165.69 -0.374803 3.34809 0
M  V30 12604 O 1166.22 -1.39055 3.76864 0
M  V30 12605 N 1164.42 -0.392506 2.87937 0
M  V30 12606 H 1163.97 0.434591 2.53908 0
M  V30 12607 H 1163.93 -1.26038 2.88031 0
M  V30 12608 N 1167.7 -1.08142 1.14644 0
M  V30 12609 C 1168.95 -1.80582 0.916327 0
M  V30 12610 C 1169.27 -1.86355 -0.556969 0
M  V30 12611 O 1168.53 -1.33736 -1.42875 0
M  V30 12612 C 1168.83 -3.25962 1.46573 0
M  V30 12613 C 1168.49 -3.40302 2.95814 0
M  V30 12614 C 1167.16 -3.43922 3.36557 0
M  V30 12615 C 1169.51 -3.43758 3.91765 0
M  V30 12616 C 1166.84 -3.48594 4.7191 0
M  V30 12617 C 1169.19 -3.49965 5.26979 0
M  V30 12618 C 1167.85 -3.5186 5.67231 0
M  V30 12619 H 1167.12 -0.660795 0.335308 0
M  V30 12620 H 1169.77 -1.27309 1.43055 0
M  V30 12621 H 1168.07 -3.81961 0.872507 0
M  V30 12622 H 1169.77 -3.80571 1.2636 0
M  V30 12623 H 1166.36 -3.38176 2.63315 0
M  V30 12624 H 1170.55 -3.40189 3.61366 0
M  V30 12625 H 1165.8 -3.48355 5.02453 0
M  V30 12626 H 1169.98 -3.51585 6.01133 0
M  V30 12627 H 1167.6 -3.55233 6.72097 0
M  V30 12628 N 1169.18 -0.941978 -1.26351 0
M  V30 12629 C 1170.14 -0.456768 -2.24602 0
M  V30 12630 C 1171.14 0.432574 -1.54872 0
M  V30 12631 O 1172.33 0.23164 -1.72653 0
M  V30 12632 C 1169.46 0.341583 -3.39184 0
M  V30 12633 H 1170.66 -1.32503 -2.69041 0
M  V30 12634 H 1168.21 -0.724021 -1.38519 0
M  V30 12635 H 1168.94 1.22806 -3.00149 0
M  V30 12636 H 1168.73 -0.296268 -3.90979 0
M  V30 12637 H 1170.22 0.670955 -4.12175 0
M  V30 12638 N 1170.66 1.40747 -0.709091 0
M  V30 12639 C 1171.59 2.33404 -0.0669763 0
M  V30 12640 C 1172.57 1.52546 0.752582 0
M  V30 12641 O 1173.75 1.81036 0.702823 0
M  V30 12642 C 1170.88 3.36476 0.860285 0
M  V30 12643 C 1169.84 4.27748 0.146828 0
M  V30 12644 C 1169.16 5.21304 1.18937 0
M  V30 12645 C 1170.46 5.12734 -0.995064 0
M  V30 12646 H 1172.16 2.87349 -0.840888 0
M  V30 12647 H 1169.7 1.38163 -0.405817 0
M  V30 12648 H 1171.65 4.00231 1.31883 0
M  V30 12649 H 1170.38 2.80912 1.66602 0
M  V30 12650 H 1169.04 3.65437 -0.291826 0
M  V30 12651 H 1168.69 4.62048 1.98798 0
M  V30 12652 H 1168.39 5.8321 0.716917 0
M  V30 12653 H 1169.91 5.87936 1.64815 0
M  V30 12654 H 1171.32 5.69979 -0.61618 0
M  V30 12655 H 1169.72 5.83649 -1.39547 0
M  V30 12656 H 1170.79 4.49097 -1.82867 0
M  V30 12657 N 1172.13 0.454803 1.50895 0
M  V30 12658 C 1173.38 -0.105927 2.02523 0
M  V30 12659 C 1173.71 -1.40825 1.33724 0
M  V30 12660 O 1172.99 -1.89038 0.457683 0
M  V30 12661 C 1173.27 -0.306635 3.58792 0
M  V30 12662 C 1173.12 1.01556 4.38185 0
M  V30 12663 C 1174.44 -1.06858 4.2693 0
M  V30 12664 H 1171.56 -0.0370232 0.736069 0
M  V30 12665 H 1174.2 0.597215 1.8037 0
M  V30 12666 H 1172.35 -0.905563 3.77799 0
M  V30 12667 H 1174.03 1.64981 4.30789 0
M  V30 12668 H 1172.27 1.61608 4.02574 0
M  V30 12669 H 1172.94 0.828959 5.4574 0
M  V30 12670 H 1175.42 -0.561086 4.123 0
M  V30 12671 H 1174.29 -1.1778 5.36115 0
M  V30 12672 H 1174.55 -2.10111 3.8898 0
M  V30 12673 N 1173.61 -1.56489 0.186789 0
M  V30 12674 C 1175.02 -1.83809 -0.327265 0
M  V30 12675 C 1175.37 -1.10718 -1.61976 0
M  V30 12676 O 1174.5 -0.36525 -2.13295 0
M  V30 12677 C 1175.09 -3.33435 -0.600551 0
M  V30 12678 C 1173.65 -3.61195 -1.059 0
M  V30 12679 C 1172.8 -2.77108 -0.103131 0
M  V30 12680 H 1175.75 -1.53292 0.410747 0
M  V30 12681 H 1175.77 -3.51754 -1.45084 0
M  V30 12682 H 1175.28 -3.86605 0.340315 0
M  V30 12683 H 1173.38 -3.13451 -2.01443 0
M  V30 12684 H 1173.5 -4.69435 -0.957458 0
M  V30 12685 H 1171.86 -2.47448 -0.603449 0
M  V30 12686 H 1172.64 -3.33065 0.832031 0
M  V30 12687 N 1175.09 0.086862 -1.5736 0
M  V30 12688 C 1176.02 1.10538 -2.05678 0
M  V30 12689 C 1177 1.41281 -0.947293 0
M  V30 12690 O 1178.19 1.51169 -1.21908 0
M  V30 12691 C 1175.32 2.42302 -2.48812 0
M  V30 12692 C 1174.27 2.25948 -3.63499 0
M  V30 12693 C 1173.6 3.62961 -3.92637 0
M  V30 12694 C 1174.9 1.69319 -4.94094 0
M  V30 12695 H 1176.59 0.703371 -2.91021 0
M  V30 12696 H 1174.14 0.336895 -1.40004 0
M  V30 12697 H 1176.09 3.13833 -2.81224 0
M  V30 12698 H 1174.81 2.84454 -1.60479 0
M  V30 12699 H 1173.47 1.5686 -3.31347 0
M  V30 12700 H 1173.12 4.02656 -3.01459 0
M  V30 12701 H 1172.82 3.52862 -4.69853 0
M  V30 12702 H 1174.34 4.35946 -4.27531 0
M  V30 12703 H 1175.76 2.30699 -5.24834 0
M  V30 12704 H 1174.15 1.69957 -5.7553 0
M  V30 12705 H 1175.22 0.653318 -4.80479 0
M  V30 12706 N 1176.57 1.53483 0.357892 0
M  V30 12707 C 1177.5 1.83444 1.44466 0
M  V30 12708 C 1178.48 0.688486 1.55544 0
M  V30 12709 O 1179.66 0.93906 1.69986 0
M  V30 12710 C 1176.79 2.03122 2.81707 0
M  V30 12711 C 1175.75 3.1891 2.85448 0
M  V30 12712 C 1175.07 3.23895 4.25436 0
M  V30 12713 C 1176.37 4.57334 2.52275 0
M  V30 12714 H 1178.07 2.74456 1.19642 0
M  V30 12715 H 1175.61 1.3206 0.574112 0
M  V30 12716 H 1177.57 2.22666 3.57768 0
M  V30 12717 H 1176.29 1.08827 3.07935 0
M  V30 12718 H 1174.95 2.99199 2.11838 0
M  V30 12719 H 1174.6 2.27223 4.48753 0
M  V30 12720 H 1174.3 4.01694 4.28854 0
M  V30 12721 H 1175.82 3.45632 5.0336 0
M  V30 12722 H 1177.24 4.76988 3.1805 0
M  V30 12723 H 1175.63 5.37431 2.66998 0
M  V30 12724 H 1176.7 4.61921 1.47501 0
M  V30 12725 N 1178.05 -0.61812 1.44973 0
M  V30 12726 C 1179.46 -0.937734 1.29146 0
M  V30 12727 C 1179.66 -2.00104 0.236749 0
M  V30 12728 O 1178.72 -2.49731 -0.372923 0
M  V30 12729 C 1180.03 -1.38865 2.66715 0
M  V30 12730 C 1181.58 -1.50343 2.74529 0
M  V30 12731 C 1182.05 -1.98814 4.12598 0
M  V30 12732 N 1183.54 -2.06064 4.14839 0
M  V30 12733 C 1184.28 -2.44768 5.18533 0
M  V30 12734 N 1183.78 -2.82516 6.32579 0
M  V30 12735 N 1185.57 -2.45016 5.05889 0
M  V30 12736 H 1177.72 0.084872 2.1223 0
M  V30 12737 H 1179.98 -0.0246744 0.947679 0
M  V30 12738 H 1179.69 -0.681583 3.45032 0
M  V30 12739 H 1179.56 -2.3572 2.94475 0
M  V30 12740 H 1181.95 -2.20144 1.96522 0
M  V30 12741 H 1182.03 -0.518297 2.50494 0
M  V30 12742 H 1181.67 -1.29604 4.91086 0
M  V30 12743 H 1181.6 -2.98223 4.34017 0
M  V30 12744 H 1184.1 -1.79525 3.32535 0
M  V30 12745 H 1184.41 -3.109 7.07504 0
M  V30 12746 H 1182.75 -2.80237 6.35997 0
M  V30 12747 H 1185.94 -2.14925 4.15842 0
M  V30 12748 H 1186.12 -2.74854 5.86821 0
M  V30 12749 N 1179.52 -1.32087 -0.859693 0
M  V30 12750 C 1180.43 -1.22587 -2.00024 0
M  V30 12751 C 1181.45 -0.140477 -1.73432 0
M  V30 12752 O 1182.63 -0.360213 -1.98153 0
M  V30 12753 C 1179.69 -0.944195 -3.33595 0
M  V30 12754 C 1178.75 -2.11752 -3.73443 0
M  V30 12755 C 1177.98 -1.84919 -5.0064 0
M  V30 12756 O 1178.21 -0.789299 -5.64913 0
M  V30 12757 O 1177.14 -2.70885 -5.37499 0
M  V30 12758 H 1180.97 -2.18457 -2.10974 0
M  V30 12759 H 1178.55 -1.11927 -0.989577 0
M  V30 12760 H 1180.43 -0.803389 -4.13671 0
M  V30 12761 H 1179.11 -0.0156083 -3.23696 0
M  V30 12762 H 1178.02 -2.31378 -2.93965 0
M  V30 12763 H 1179.35 -3.02872 -3.87981 0
M  V30 12764 N 1181 1.07532 -1.15215 0
M  V30 12765 C 1181.96 2.1286 -0.84989 0
M  V30 12766 C 1182.96 1.60103 0.149524 0
M  V30 12767 O 1184.15 1.74017 -0.0798918 0
M  V30 12768 C 1181.29 3.3984 -0.268617 0
M  V30 12769 H 1182.48 2.41106 -1.78347 0
M  V30 12770 H 1180.03 1.23392 -0.959386 0
M  V30 12771 H 1180.77 3.17235 0.67325 0
M  V30 12772 H 1180.55 3.79433 -0.988592 0
M  V30 12773 H 1182.04 4.17533 -0.0746554 0
M  V30 12774 N 1182.48 0.948665 1.2585 0
M  V30 12775 C 1183.71 0.616741 1.98018 0
M  V30 12776 C 1184.13 -0.803005 1.70098 0
M  V30 12777 O 1183.49 -1.54208 0.953392 0
M  V30 12778 C 1183.54 0.874429 3.49837 0
M  V30 12779 O 1182.64 -0.0497568 4.1237 0
M  V30 12780 H 1181.98 0.235112 0.620982 0
M  V30 12781 H 1184.51 1.27364 1.60124 0
M  V30 12782 H 1184.52 0.798309 4.00114 0
M  V30 12783 H 1183.2 1.90922 3.69488 0
M  V30 12784 H 1181.77 0.0780591 3.72818 0
M  V30 12785 N 1183.96 -1.40369 0.716545 0
M  V30 12786 C 1184.92 -2.29083 0.0733105 0
M  V30 12787 C 1185.92 -1.45415 -0.686378 0
M  V30 12788 O 1187.11 -1.66316 -0.518139 0
M  V30 12789 C 1184.24 -3.28639 -0.906032 0
M  V30 12790 H 1185.44 -2.87464 0.85467 0
M  V30 12791 H 1182.99 -1.48706 0.481256 0
M  V30 12792 H 1183.72 -2.75279 -1.71441 0
M  V30 12793 H 1183.51 -3.90405 -0.364163 0
M  V30 12794 H 1185 -3.95066 -1.35324 0
M  V30 12795 N 1185.44 -0.462799 -1.50652 0
M  V30 12796 C 1186.85 -0.11648 -1.59174 0
M  V30 12797 C 1187.05 1.37638 -1.47167 0
M  V30 12798 O 1186.11 2.14886 -1.3259 0
M  V30 12799 C 1187.42 -0.659289 -2.93383 0
M  V30 12800 C 1188.97 -0.62198 -3.06758 0
M  V30 12801 C 1189.44 -1.14219 -4.43529 0
M  V30 12802 N 1190.94 -1.10125 -4.49919 0
M  V30 12803 C 1191.67 -1.47436 -5.54121 0
M  V30 12804 N 1191.17 -1.92156 -6.65618 0
M  V30 12805 N 1192.96 -1.39091 -5.44619 0
M  V30 12806 H 1185.11 -1.43383 -1.56701 0
M  V30 12807 H 1187.37 -0.592438 -0.740082 0
M  V30 12808 H 1187.08 -1.70477 -3.07621 0
M  V30 12809 H 1186.95 -0.0982388 -3.77072 0
M  V30 12810 H 1189.34 0.414576 -2.92173 0
M  V30 12811 H 1189.42 -1.21974 -2.24847 0
M  V30 12812 H 1189.07 -2.17734 -4.58862 0
M  V30 12813 H 1189 -0.52073 -5.24019 0
M  V30 12814 H 1191.49 -0.773154 -3.69906 0
M  V30 12815 H 1191.8 -2.18796 -7.4118 0
M  V30 12816 H 1190.14 -1.96103 -6.6676 0
M  V30 12817 H 1193.34 -1.04001 -4.564 0
M  V30 12818 H 1193.51 -1.68496 -6.2571 0
M  V30 12819 N 1186.91 1.56388 -0.195085 0
M  V30 12820 C 1188.19 1.89329 0.491303 0
M  V30 12821 C 1188.57 1.10861 1.79647 0
M  V30 12822 O 1187.92 0.209696 2.27536 0
M  V30 12823 C 1188.13 3.417 0.710096 0
M  V30 12824 C 1189.48 4.11931 1.02947 0
M  V30 12825 O 1190.5 3.4715 0.797817 0
M  V30 12826 O 1189.36 5.26423 1.46767 0
M  V30 12827 H 1186.45 0.786335 0.256137 0
M  V30 12828 H 1189 1.68061 -0.235298 0
M  V30 12829 H 1187.77 3.90727 -0.211604 0
M  V30 12830 H 1187.4 3.6866 1.48916 0
M  V30 12831 N 1188.39 -0.0785156 1.57404 0
M  V30 12832 C 1189.81 -0.433143 1.5361 0
M  V30 12833 C 1190.01 -1.79564 0.914283 0
M  V30 12834 O 1189.06 -2.47215 0.513899 0
M  V30 12835 C 1190.38 -0.380387 2.98284 0
M  V30 12836 C 1191.93 -0.461056 3.09586 0
M  V30 12837 C 1192.4 -0.438276 4.55898 0
M  V30 12838 N 1193.89 -0.498548 4.60509 0
M  V30 12839 C 1194.63 -0.503028 5.71189 0
M  V30 12840 N 1194.12 -0.462724 6.91253 0
M  V30 12841 N 1195.92 -0.549083 5.59412 0
M  V30 12842 H 1188.07 0.813724 1.96195 0
M  V30 12843 H 1190.33 0.304644 0.897717 0
M  V30 12844 H 1190.04 0.553932 3.4731 0
M  V30 12845 H 1189.91 -1.19313 3.57833 0
M  V30 12846 H 1192.3 -1.3858 2.60537 0
M  V30 12847 H 1192.38 0.380138 2.5296 0
M  V30 12848 H 1192.02 0.482588 5.05602 0
M  V30 12849 H 1191.95 -1.29691 5.1038 0
M  V30 12850 H 1194.44 -0.534219 3.74105 0
M  V30 12851 H 1194.76 -0.469883 7.7137 0
M  V30 12852 H 1193.1 -0.429515 6.93672 0
M  V30 12853 H 1196.29 -0.578215 4.64515 0
M  V30 12854 H 1196.46 -0.549105 6.45669 0
M  V30 12855 N 1189.87 -1.5367 -0.349747 0
M  V30 12856 C 1190.8 -1.77528 -1.4497 0
M  V30 12857 C 1191.82 -0.656412 -1.4898 0
M  V30 12858 O 1193 -0.933016 -1.52174 0
M  V30 12859 C 1190.1 -1.85445 -2.8366 0
M  V30 12860 C 1189.28 -3.15295 -3.03163 0
M  V30 12861 C 1188.34 -3.1425 -4.22059 0
M  V30 12862 O 1187.36 -3.87994 -4.16472 0
M  V30 12863 N 1188.56 -2.36181 -5.30282 0
M  V30 12864 H 1191.33 -2.72444 -1.24877 0
M  V30 12865 H 1188.89 -1.52644 -0.539586 0
M  V30 12866 H 1190.88 -1.82204 -3.61364 0
M  V30 12867 H 1189.45 -0.977436 -2.96926 0
M  V30 12868 H 1188.67 -3.31711 -2.12983 0
M  V30 12869 H 1189.96 -4.01078 -3.13072 0
M  V30 12870 H 1189.36 -1.75808 -5.37688 0
M  V30 12871 H 1187.92 -2.38744 -6.06502 0
M  V30 12872 N 1191.35 0.610423 -1.45298 0
M  V30 12873 C 1192.57 1.40112 -1.52917 0
M  V30 12874 C 1193 1.87404 -0.161696 0
M  V30 12875 O 1192.36 1.59973 0.853135 0
M  V30 12876 C 1192.4 2.58359 -2.51561 0
M  V30 12877 O 1191.51 3.58895 -2.03146 0
M  V30 12878 H 1190.85 0.41841 -0.515586 0
M  V30 12879 H 1193.38 0.743159 -1.90626 0
M  V30 12880 H 1193.39 3.0564 -2.70275 0
M  V30 12881 H 1192.06 2.23286 -3.50879 0
M  V30 12882 H 1190.64 3.18282 -1.94296 0
M  V30 12883 N 1192.83 1.32541 0.852676 0
M  V30 12884 C 1193.79 1.21578 1.94297 0
M  V30 12885 C 1194.79 0.138318 1.60204 0
M  V30 12886 O 1195.98 0.388864 1.69804 0
M  V30 12887 C 1193.11 0.870209 3.29606 0
M  V30 12888 H 1194.3 2.18476 2.05446 0
M  V30 12889 H 1191.86 1.16401 1.0431 0
M  V30 12890 H 1192.59 -0.0968698 3.24155 0
M  V30 12891 H 1192.38 1.64924 3.55728 0
M  V30 12892 H 1193.87 0.817874 4.09513 0
M  V30 12893 N 1194.3 -1.0692 1.15784 0
M  V30 12894 C 1195.24 -2.14168 0.816375 0
M  V30 12895 C 1196.25 -1.61872 -0.17357 0
M  V30 12896 O 1197.44 -1.78429 0.0502973 0
M  V30 12897 C 1194.54 -3.38346 0.193682 0
M  V30 12898 C 1193.71 -4.19979 1.22215 0
M  V30 12899 C 1192.77 -5.2253 0.620424 0
M  V30 12900 O 1191.8 -5.54446 1.28757 0
M  V30 12901 N 1193 -5.77434 -0.595811 0
M  V30 12902 H 1195.76 -2.44062 1.73937 0
M  V30 12903 H 1193.32 -1.22865 1.05431 0
M  V30 12904 H 1195.32 -4.04092 -0.22174 0
M  V30 12905 H 1193.89 -3.06129 -0.632735 0
M  V30 12906 H 1193.11 -3.49984 1.81397 0
M  V30 12907 H 1194.39 -4.71329 1.91641 0
M  V30 12908 H 1193.79 -5.5376 -1.15611 0
M  V30 12909 H 1192.35 -6.44788 -0.953529 0
M  V30 12910 N 1195.78 -0.955326 -1.25345 0
M  V30 12911 C 1197.19 -0.651118 -1.74978 0
M  V30 12912 C 1197.54 0.833495 -1.77616 0
M  V30 12913 O 1196.67 1.65228 -1.39745 0
M  V30 12914 C 1197.26 -1.17521 -3.17764 0
M  V30 12915 C 1195.82 -0.921151 -3.64954 0
M  V30 12916 C 1194.97 -1.31784 -2.43984 0
M  V30 12917 H 1197.92 -1.13205 -1.11222 0
M  V30 12918 H 1197.94 -0.535625 -3.76711 0
M  V30 12919 H 1197.45 -2.25575 -3.15813 0
M  V30 12920 H 1195.56 0.144392 -3.7232 0
M  V30 12921 H 1195.67 -1.5581 -4.53056 0
M  V30 12922 H 1194.03 -0.736219 -2.43828 0
M  V30 12923 H 1194.82 -2.40761 -2.44723 0
M  V30 12924 N 1197.26 1.39987 -0.723979 0
M  V30 12925 C 1198.17 2.3447 -0.0780936 0
M  V30 12926 C 1199.19 1.57744 0.734368 0
M  V30 12927 O 1200.36 1.90091 0.665385 0
M  V30 12928 C 1197.43 3.36705 0.826492 0
M  V30 12929 C 1196.49 4.293 0.00303036 0
M  V30 12930 C 1195.72 5.26651 0.864535 0
M  V30 12931 O 1195.95 5.30194 2.10357 0
M  V30 12932 O 1194.88 6.01157 0.299057 0
M  V30 12933 H 1198.71 2.91338 -0.857646 0
M  V30 12934 H 1196.29 1.41324 -0.484536 0
M  V30 12935 H 1198.17 3.9938 1.34439 0
M  V30 12936 H 1196.85 2.82237 1.58505 0
M  V30 12937 H 1195.75 3.69883 -0.560136 0
M  V30 12938 H 1197.09 4.86942 -0.717494 0
M  V30 12939 N 1198.74 0.470782 1.50404 0
M  V30 12940 C 1199.65 -0.328877 2.32283 0
M  V30 12941 C 1200.67 -0.99629 1.42654 0
M  V30 12942 O 1201.84 -0.984331 1.75707 0
M  V30 12943 C 1198.91 -1.39675 3.1732 0
M  V30 12944 C 1197.97 -0.745965 4.22769 0
M  V30 12945 C 1197.2 -1.76295 5.03742 0
M  V30 12946 O 1197.42 -2.98943 4.85788 0
M  V30 12947 O 1196.36 -1.33495 5.86909 0
M  V30 12948 H 1200.18 0.340491 3.01785 0
M  V30 12949 H 1197.77 0.232637 1.47578 0
M  V30 12950 H 1199.65 -2.0153 3.70086 0
M  V30 12951 H 1198.33 -2.04959 2.50546 0
M  V30 12952 H 1197.23 -0.0884647 3.73995 0
M  V30 12953 H 1198.57 -0.136074 4.92012 0
M  V30 12954 N 1200.22 -1.56282 0.203376 0
M  V30 12955 C 1201.46 -1.98105 -0.433844 0
M  V30 12956 C 1201.8 -1.09044 -1.60695 0
M  V30 12957 O 1201.07 -0.144193 -1.93965 0
M  V30 12958 C 1201.35 -3.4903 -0.885992 0
M  V30 12959 C 1201.21 -4.48867 0.289501 0
M  V30 12960 C 1202.53 -4.03871 -1.7486 0
M  V30 12961 H 1199.65 -0.720252 -0.156224 0
M  V30 12962 H 1202.29 -1.87681 0.295963 0
M  V30 12963 H 1200.44 -3.58045 -1.50785 0
M  V30 12964 H 1202.11 -4.51883 0.92734 0
M  V30 12965 H 1200.35 -4.23495 0.939934 0
M  V30 12966 H 1201.02 -5.51956 -0.0695128 0
M  V30 12967 H 1203.5 -3.97688 -1.22407 0
M  V30 12968 H 1202.38 -5.09827 -2.03391 0
M  V30 12969 H 1202.64 -3.49637 -2.70567 0
M  V30 12970 N 1201.7 0.070167 -1.57444 0
M  V30 12971 C 1202.93 0.78076 -1.91279 0
M  V30 12972 C 1203.33 1.71559 -0.797754 0
M  V30 12973 O 1202.68 1.82156 0.237665 0
M  V30 12974 C 1202.74 1.62664 -3.20594 0
M  V30 12975 C 1202.4 0.861007 -4.48816 0
M  V30 12976 C 1203.4 0.179522 -5.1959 0
M  V30 12977 C 1201.08 0.8277 -4.95434 0
M  V30 12978 C 1203.08 -0.525024 -6.35234 0
M  V30 12979 C 1200.77 0.119382 -6.10983 0
M  V30 12980 C 1201.76 -0.555778 -6.80735 0
M  V30 12981 O 1201.45 -1.25268 -7.9408 0
M  V30 12982 H 1201.18 0.227053 -0.636728 0
M  V30 12983 H 1203.74 0.0442334 -2.05352 0
M  V30 12984 H 1201.97 2.40601 -3.02734 0
M  V30 12985 H 1203.66 2.21606 -3.40067 0
M  V30 12986 H 1204.42 0.19655 -4.84602 0
M  V30 12987 H 1200.3 1.34268 -4.41014 0
M  V30 12988 H 1203.85 -1.05257 -6.89613 0
M  V30 12989 H 1199.74 0.100287 -6.45422 0
M  V30 12990 H 1200.51 -1.16212 -8.10208 0
M  V30 12991 N 1203.17 1.53854 0.341593 0
M  V30 12992 C 1204.1 1.84966 1.42513 0
M  V30 12993 C 1205.08 0.704944 1.54805 0
M  V30 12994 O 1206.27 0.957036 1.68981 0
M  V30 12995 C 1203.4 2.06099 2.79536 0
M  V30 12996 C 1202.35 3.21919 2.82049 0
M  V30 12997 C 1201.68 3.28389 4.21977 0
M  V30 12998 C 1202.98 4.59984 2.4741 0
M  V30 12999 H 1204.67 2.7571 1.16724 0
M  V30 13000 H 1202.22 1.32662 0.560073 0
M  V30 13001 H 1204.17 2.26448 3.55386 0
M  V30 13002 H 1202.9 1.12087 3.06764 0
M  V30 13003 H 1201.56 3.01429 2.08653 0
M  V30 13004 H 1201.2 2.3197 4.46317 0
M  V30 13005 H 1200.9 4.0622 4.24569 0
M  V30 13006 H 1202.43 3.50951 4.99666 0
M  V30 13007 H 1203.84 4.80334 3.12973 0
M  V30 13008 H 1202.24 5.40233 2.61282 0
M  V30 13009 H 1203.31 4.6346 1.42594 0
M  V30 13010 N 1204.65 -0.602709 1.4562 0
M  V30 13011 C 1206.07 -0.923983 1.30133 0
M  V30 13012 C 1206.27 -1.99842 0.25796 0
M  V30 13013 O 1205.32 -2.50112 -0.346414 0
M  V30 13014 C 1206.64 -1.36029 2.68173 0
M  V30 13015 C 1208.18 -1.47423 2.76108 0
M  V30 13016 C 1208.66 -1.94427 4.14683 0
M  V30 13017 N 1210.15 -2.01653 4.17002 0
M  V30 13018 C 1210.89 -2.39255 5.211 0
M  V30 13019 N 1210.38 -2.75791 6.3554 0
M  V30 13020 N 1212.17 -2.39636 5.08459 0
M  V30 13021 H 1204.33 0.107377 2.12128 0
M  V30 13022 H 1206.59 -0.0146216 0.947887 0
M  V30 13023 H 1206.29 -0.644949 3.45736 0
M  V30 13024 H 1206.17 -2.32584 2.96959 0
M  V30 13025 H 1208.56 -2.18047 1.98845 0
M  V30 13026 H 1208.64 -0.4917 2.5103 0
M  V30 13027 H 1208.28 -1.24389 4.92433 0
M  V30 13028 H 1208.21 -2.93603 4.37156 0
M  V30 13029 H 1210.7 -1.75988 3.3442 0
M  V30 13030 H 1211.01 -3.03378 7.10761 0
M  V30 13031 H 1209.36 -2.73475 6.38934 0
M  V30 13032 H 1212.55 -2.10502 4.18098 0
M  V30 13033 H 1212.72 -2.68614 5.89704 0
M  V30 13034 N 1206.13 -1.32992 -0.845635 0
M  V30 13035 C 1207.06 -1.18513 -1.96182 0
M  V30 13036 C 1208.07 -0.11781 -1.62373 0
M  V30 13037 O 1209.26 -0.36761 -1.74674 0
M  V30 13038 C 1206.36 -0.793812 -3.29472 0
M  V30 13039 C 1205.54 -1.95134 -3.91461 0
M  V30 13040 C 1204.6 -1.54209 -5.03096 0
M  V30 13041 O 1203.62 -2.25545 -5.22607 0
M  V30 13042 N 1204.82 -0.443235 -5.78805 0
M  V30 13043 H 1207.59 -2.14663 -2.09141 0
M  V30 13044 H 1205.15 -1.25648 -1.02099 0
M  V30 13045 H 1207.14 -0.502263 -4.01571 0
M  V30 13046 H 1205.71 0.0768031 -3.12506 0
M  V30 13047 H 1204.93 -2.40889 -3.12035 0
M  V30 13048 H 1206.22 -2.72604 -4.2961 0
M  V30 13049 H 1205.62 0.150298 -5.655 0
M  V30 13050 H 1204.17 -0.211331 -6.51457 0
M  V30 13051 N 1207.61 1.06304 -1.1635 0
M  V30 13052 C 1208.85 1.79101 -0.94494 0
M  V30 13053 C 1209.18 1.87217 0.527251 0
M  V30 13054 O 1208.44 1.35992 1.40729 0
M  V30 13055 C 1208.74 3.23589 -1.51741 0
M  V30 13056 C 1208.4 3.35552 -3.0119 0
M  V30 13057 C 1207.06 3.38525 -3.41986 0
M  V30 13058 C 1209.42 3.37482 -3.97184 0
M  V30 13059 C 1206.74 3.41042 -4.77396 0
M  V30 13060 C 1209.1 3.41537 -5.3248 0
M  V30 13061 C 1207.76 3.42792 -5.72757 0
M  V30 13062 H 1207.03 0.655377 -0.345778 0
M  V30 13063 H 1209.68 1.25017 -1.45062 0
M  V30 13064 H 1207.98 3.80525 -0.933164 0
M  V30 13065 H 1209.68 3.78512 -1.32399 0
M  V30 13066 H 1206.27 3.33944 -2.68662 0
M  V30 13067 H 1210.45 3.34397 -3.66732 0
M  V30 13068 H 1205.71 3.40317 -5.07931 0
M  V30 13069 H 1209.88 3.41977 -6.0665 0
M  V30 13070 H 1207.51 3.44495 -6.77663 0
M  V30 13071 N 1209.09 0.96196 1.24836 0
M  V30 13072 C 1210.31 0.637709 1.97353 0
M  V30 13073 C 1210.74 -0.784919 1.7094 0
M  V30 13074 O 1210.09 -1.53188 0.969694 0
M  V30 13075 C 1210.14 0.911485 3.4889 0
M  V30 13076 O 1209.25 -0.00601668 4.124 0
M  V30 13077 H 1208.59 0.241685 0.618453 0
M  V30 13078 H 1211.12 1.29055 1.58764 0
M  V30 13079 H 1211.13 0.840702 3.99245 0
M  V30 13080 H 1209.8 1.9483 3.67442 0
M  V30 13081 H 1208.38 0.117597 3.72715 0
M  V30 13082 N 1210.56 -1.39601 0.731392 0
M  V30 13083 C 1211.81 -2.0019 0.277208 0
M  V30 13084 C 1212.13 -1.5832 -1.13841 0
M  V30 13085 O 1211.4 -0.829793 -1.77458 0
M  V30 13086 H 1209.98 -0.740344 0.0995006 0
M  V30 13087 H 1212.64 -1.70704 0.940547 0
M  V30 13088 H 1211.74 -3.10427 0.322749 0
M  V30 13089 N 1212.04 -0.478751 -1.50152 0
M  V30 13090 C 1213.27 0.0732929 -2.0727 0
M  V30 13091 C 1213.69 1.32066 -1.33941 0
M  V30 13092 O 1213.05 1.7707 -0.389367 0
M  V30 13093 C 1213.1 0.332528 -3.59064 0
M  V30 13094 O 1212.2 1.41158 -3.8749 0
M  V30 13095 H 1211.54 -0.0163684 -0.663798 0
M  V30 13096 H 1214.07 -0.671993 -1.9325 0
M  V30 13097 H 1214.08 0.570735 -4.03988 0
M  V30 13098 H 1212.76 -0.578934 -4.11851 0
M  V30 13099 H 1211.34 1.16008 -3.54396 0
M  V30 13100 N 1213.52 1.56172 -0.211661 0
M  V30 13101 C 1214.45 2.22843 0.697375 0
M  V30 13102 C 1215.43 1.19689 1.20866 0
M  V30 13103 O 1216.62 1.48245 1.25447 0
M  V30 13104 C 1213.75 2.90067 1.90993 0
M  V30 13105 C 1212.7 3.99608 1.5329 0
M  V30 13106 C 1212.03 4.54078 2.82343 0
M  V30 13107 C 1213.33 5.17169 0.730333 0
M  V30 13108 H 1215.02 2.99065 0.141533 0
M  V30 13109 H 1212.57 1.43846 0.0666337 0
M  V30 13110 H 1214.52 3.35396 2.55123 0
M  V30 13111 H 1213.24 2.11276 2.49058 0
M  V30 13112 H 1211.9 3.54995 0.915115 0
M  V30 13113 H 1211.55 3.72029 3.38531 0
M  V30 13114 H 1211.25 5.28001 2.57853 0
M  V30 13115 H 1212.77 5.02119 3.47432 0
M  V30 13116 H 1214.19 5.5894 1.2751 0
M  V30 13117 H 1212.59 5.97262 0.582916 0
M  V30 13118 H 1213.66 4.84174 -0.265157 0
M  V30 13119 N 1215 -0.0618163 1.57479 0
M  V30 13120 C 1215.95 -1.0724 2.04373 0
M  V30 13121 C 1216.92 -1.37875 0.926271 0
M  V30 13122 O 1218.1 -1.48772 1.19463 0
M  V30 13123 C 1215.24 -2.37805 2.50085 0
M  V30 13124 C 1214.35 -2.13614 3.7549 0
M  V30 13125 C 1213.49 -3.37814 4.09945 0
M  V30 13126 C 1212.53 -3.09032 5.28361 0
M  V30 13127 N 1211.66 -4.25591 5.58406 0
M  V30 13128 H 1216.5 -0.665536 2.90473 0
M  V30 13129 H 1214.04 -0.317043 1.43643 0
M  V30 13130 H 1216 -3.14048 2.74644 0
M  V30 13131 H 1214.63 -2.76275 1.66948 0
M  V30 13132 H 1213.68 -1.28017 3.58212 0
M  V30 13133 H 1214.99 -1.88361 4.61867 0
M  V30 13134 H 1214.15 -4.22447 4.35458 0
M  V30 13135 H 1212.89 -3.66153 3.22154 0
M  V30 13136 H 1211.89 -2.22797 5.02635 0
M  V30 13137 H 1213.12 -2.82006 6.17778 0
M  V30 13138 H 1211.06 -4.53941 4.73575 0
M  V30 13139 H 1210.98 -4.03646 6.39223 0
M  V30 13140 H 1212.25 -5.11191 5.88476 0
M  V30 13141 N 1216.48 -1.54033 -0.333429 0
M  V30 13142 C 1217.89 -1.63107 -0.908455 0
M  V30 13143 C 1218.24 -0.518823 -1.89216 0
M  V30 13144 O 1217.36 0.34985 -2.13553 0
M  V30 13145 C 1217.96 -2.95657 -1.65447 0
M  V30 13146 C 1216.52 -3.0696 -2.17836 0
M  V30 13147 C 1215.66 -2.58617 -1.00063 0
M  V30 13148 H 1218.62 -1.58309 -0.11128 0
M  V30 13149 H 1218.64 -2.85263 -2.51804 0
M  V30 13150 H 1218.15 -3.76588 -0.938263 0
M  V30 13151 H 1216.25 -2.30683 -2.92602 0
M  V30 13152 H 1216.36 -4.12599 -2.43513 0
M  V30 13153 H 1214.73 -2.1427 -1.37697 0
M  V30 13154 H 1215.51 -3.41996 -0.298901 0
M  V30 13155 N 1217.95 0.594978 -1.45938 0
M  V30 13156 C 1218.86 1.73296 -1.58132 0
M  V30 13157 C 1219.88 1.67665 -0.465245 0
M  V30 13158 O 1221.06 1.87794 -0.727684 0
M  V30 13159 C 1218.12 3.09783 -1.55677 0
M  V30 13160 C 1217.18 3.26772 -2.78422 0
M  V30 13161 C 1216.42 4.56748 -2.76075 0
M  V30 13162 O 1216.64 5.39867 -1.84119 0
M  V30 13163 O 1215.57 4.76721 -3.67452 0
M  V30 13164 H 1219.4 1.65957 -2.54346 0
M  V30 13165 H 1216.98 0.760572 -1.28591 0
M  V30 13166 H 1218.87 3.91077 -1.56961 0
M  V30 13167 H 1217.54 3.17585 -0.626191 0
M  V30 13168 H 1216.45 2.45018 -2.82696 0
M  V30 13169 H 1217.78 3.23853 -3.70648 0
M  V30 13170 N 1219.43 1.33438 0.838571 0
M  V30 13171 C 1220.71 1.1551 1.5785 0
M  V30 13172 C 1221.09 -0.278405 2.09256 0
M  V30 13173 O 1220.44 -1.27748 1.89453 0
M  V30 13174 C 1220.65 2.19647 2.71212 0
M  V30 13175 C 1222 2.53818 3.40384 0
M  V30 13176 O 1223.02 2.18317 2.81454 0
M  V30 13177 O 1221.88 3.14741 4.46766 0
M  V30 13178 H 1218.97 0.446785 0.695925 0
M  V30 13179 H 1221.52 1.45021 0.8813 0
M  V30 13180 H 1220.29 3.15936 2.30869 0
M  V30 13181 H 1219.91 1.91224 3.48596 0
M  V30 13182 N 1220.91 -1.05686 1.16912 0
M  V30 13183 C 1221.87 -2.11481 0.883647 0
M  V30 13184 C 1222.87 -1.60321 -0.124034 0
M  V30 13185 O 1224.06 -1.73868 0.107566 0
M  V30 13186 C 1221.2 -3.3937 0.322649 0
M  V30 13187 H 1222.39 -2.38239 1.8216 0
M  V30 13188 H 1219.94 -1.2185 0.978895 0
M  V30 13189 H 1220.68 -3.18266 -0.622695 0
M  V30 13190 H 1220.46 -3.77812 1.04883 0
M  V30 13191 H 1221.95 -4.17362 0.141072 0
M  V30 13192 N 1222.39 -0.968567 -1.24324 0
M  V30 13193 C 1223.3 -0.50703 -2.29055 0
M  V30 13194 C 1224.31 0.432431 -1.68541 0
M  V30 13195 O 1225.49 0.30526 -1.99073 0
M  V30 13196 C 1222.56 0.194589 -3.46153 0
M  V30 13197 C 1221.62 -0.784805 -4.22066 0
M  V30 13198 C 1220.85 -0.116574 -5.33573 0
M  V30 13199 O 1221.07 1.09492 -5.59792 0
M  V30 13200 O 1220.01 -0.809171 -5.96436 0
M  V30 13201 H 1223.83 -1.3777 -2.70653 0
M  V30 13202 H 1221.42 -0.735645 -1.30033 0
M  V30 13203 H 1223.3 0.588684 -4.17268 0
M  V30 13204 H 1221.97 1.04021 -3.06531 0
M  V30 13205 H 1220.88 -1.22938 -3.53323 0
M  V30 13206 H 1222.21 -1.59887 -4.65507 0
M  V30 13207 N 1223.87 1.39211 -0.738786 0
M  V30 13208 C 1225.11 2.00733 -0.288817 0
M  V30 13209 C 1225.45 1.58494 1.1222 0
M  V30 13210 O 1224.72 0.815579 1.76575 0
M  V30 13211 C 1225 3.57928 -0.394956 0
M  V30 13212 C 1224.86 4.10174 -1.84601 0
M  V30 13213 C 1226.18 4.39548 0.220395 0
M  V30 13214 H 1223.29 0.729276 -0.106418 0
M  V30 13215 H 1225.94 1.65365 -0.935652 0
M  V30 13216 H 1224.09 3.88188 0.155744 0
M  V30 13217 H 1225.76 3.90618 -2.45388 0
M  V30 13218 H 1224 3.63593 -2.36607 0
M  V30 13219 H 1224.67 5.19305 -1.87152 0
M  V30 13220 H 1227.15 4.15354 -0.249098 0
M  V30 13221 H 1226.02 5.48778 0.115806 0
M  V30 13222 H 1226.29 4.22341 1.30691 0
M  V30 13223 N 1225.34 0.486708 1.49896 0
M  V30 13224 C 1226.59 -0.062852 2.02402 0
M  V30 13225 C 1226.92 -1.38306 1.36754 0
M  V30 13226 O 1226.17 -1.89531 0.487493 0
M  V30 13227 C 1226.47 -0.278643 3.56312 0
M  V30 13228 C 1226.14 0.961794 4.40523 0
M  V30 13229 C 1224.8 1.30185 4.63255 0
M  V30 13230 C 1227.15 1.78697 4.89609 0
M  V30 13231 C 1224.48 2.46686 5.32318 0
M  V30 13232 C 1226.83 2.9434 5.59953 0
M  V30 13233 C 1225.5 3.28742 5.80935 0
M  V30 13234 H 1224.77 -0.0229992 0.740643 0
M  V30 13235 H 1227.41 0.643963 1.80348 0
M  V30 13236 H 1225.72 -1.06785 3.76967 0
M  V30 13237 H 1227.42 -0.718078 3.94518 0
M  V30 13238 H 1224.01 0.686887 4.2306 0
M  V30 13239 H 1228.19 1.53742 4.71887 0
M  V30 13240 H 1223.45 2.73596 5.46768 0
M  V30 13241 H 1227.62 3.58616 5.96965 0
M  V30 13242 H 1225.25 4.19121 6.34225 0
M  V30 13243 N 1226.82 -1.56058 0.219941 0
M  V30 13244 C 1227.77 -2.20218 -0.690846 0
M  V30 13245 C 1228.74 -1.15725 -1.19151 0
M  V30 13246 O 1229.93 -1.44073 -1.2509 0
M  V30 13247 C 1227.07 -2.88477 -1.89408 0
M  V30 13248 C 1226.18 -4.07559 -1.43246 0
M  V30 13249 C 1225.31 -4.63605 -2.59314 0
M  V30 13250 C 1224.35 -5.74993 -2.0988 0
M  V30 13251 N 1223.49 -6.25337 -3.19214 0
M  V30 13252 H 1228.33 -2.97685 -0.136992 0
M  V30 13253 H 1225.87 -1.46994 -0.055865 0
M  V30 13254 H 1227.82 -3.26235 -2.60051 0
M  V30 13255 H 1226.45 -2.1353 -2.42084 0
M  V30 13256 H 1225.51 -3.75297 -0.621013 0
M  V30 13257 H 1226.82 -4.8805 -1.02997 0
M  V30 13258 H 1225.97 -5.03798 -3.38041 0
M  V30 13259 H 1224.71 -3.82274 -3.0285 0
M  V30 13260 H 1223.72 -5.34304 -1.29613 0
M  V30 13261 H 1224.94 -6.58158 -1.67345 0
M  V30 13262 H 1222.89 -5.4692 -3.62236 0
M  V30 13263 H 1222.8 -7.00947 -2.83213 0
M  V30 13264 H 1224.07 -6.70187 -3.98083 0
M  V30 13265 N 1228.3 0.053464 -1.57509 0
M  V30 13266 C 1229.53 0.765301 -1.92764 0
M  V30 13267 C 1229.95 1.69385 -0.817943 0
M  V30 13268 O 1229.31 1.7986 0.228075 0
M  V30 13269 C 1229.36 1.51938 -3.27028 0
M  V30 13270 O 1228.46 2.63121 -3.17555 0
M  V30 13271 H 1227.8 0.207567 -0.630723 0
M  V30 13272 H 1230.33 0.0162254 -2.04594 0
M  V30 13273 H 1230.34 1.89466 -3.6134 0
M  V30 13274 H 1229.02 0.838207 -4.07366 0
M  V30 13275 H 1227.59 2.28316 -2.94832 0
M  V30 13276 N 1229.78 1.54207 0.325255 0
M  V30 13277 C 1231.19 1.63587 0.899793 0
M  V30 13278 C 1231.54 0.528851 1.88938 0
M  V30 13279 O 1230.67 -0.33852 2.13736 0
M  V30 13280 C 1231.26 2.9653 1.63877 0
M  V30 13281 C 1229.82 3.08111 2.16205 0
M  V30 13282 C 1228.97 2.59144 0.986903 0
M  V30 13283 H 1231.92 1.58366 0.102883 0
M  V30 13284 H 1231.94 2.86595 2.50287 0
M  V30 13285 H 1231.45 3.7708 0.918279 0
M  V30 13286 H 1229.55 2.32232 2.91375 0
M  V30 13287 H 1229.67 4.13885 2.41322 0
M  V30 13288 H 1228.03 2.14997 1.36558 0
M  V30 13289 H 1228.81 3.4215 0.28076 0
M  V30 13290 N 1231.26 -0.58723 1.46251 0
M  V30 13291 C 1232.22 -1.67863 1.5606 0
M  V30 13292 C 1233.22 -1.54715 0.438162 0
M  V30 13293 O 1234.41 -1.59415 0.702323 0
M  V30 13294 C 1231.54 -3.07262 1.47659 0
M  V30 13295 H 1232.74 -1.60525 2.53321 0
M  V30 13296 H 1230.29 -0.804691 1.33994 0
M  V30 13297 H 1231.02 -3.20159 0.5166 0
M  V30 13298 H 1230.81 -3.18213 2.29092 0
M  V30 13299 H 1232.3 -3.8672 1.57599 0
M  V30 13300 N 1232.74 -1.33881 -0.831482 0
M  V30 13301 C 1233.7 -1.24654 -1.92339 0
M  V30 13302 C 1234.7 -0.163788 -1.59964 0
M  V30 13303 O 1235.89 -0.415829 -1.69164 0
M  V30 13304 C 1233.02 -0.922537 -3.2818 0
M  V30 13305 H 1234.21 -2.21717 -2.01944 0
M  V30 13306 H 1231.77 -1.18046 -1.02445 0
M  V30 13307 H 1232.5 0.0452872 -3.24268 0
M  V30 13308 H 1232.29 -1.70562 -3.53059 0
M  V30 13309 H 1233.78 -0.88292 -4.0816 0
M  V30 13310 N 1234.21 1.05064 -1.1747 0
M  V30 13311 C 1235.44 1.82299 -0.98903 0
M  V30 13312 C 1235.86 1.82441 0.457907 0
M  V30 13313 O 1235.22 1.23433 1.32793 0
M  V30 13314 C 1235.27 3.26239 -1.53624 0
M  V30 13315 O 1234.37 4.05507 -0.750857 0
M  V30 13316 H 1233.71 0.563601 -0.35107 0
M  V30 13317 H 1236.24 1.32386 -1.55997 0
M  V30 13318 H 1236.25 3.77038 -1.55906 0
M  V30 13319 H 1234.93 3.25451 -2.58949 0
M  V30 13320 H 1233.51 3.64227 -0.799548 0
M  V30 13321 N 1235.69 0.975146 1.23809 0
M  V30 13322 C 1236.94 0.639858 1.91704 0
M  V30 13323 C 1237.26 -0.828557 1.76522 0
M  V30 13324 O 1236.53 -1.59217 1.14135 0
M  V30 13325 H 1235.11 0.233667 0.709513 0
M  V30 13326 H 1237.77 1.23782 1.50545 0
M  V30 13327 H 1236.87 0.886915 2.99233 0
M  V30 13328 N 1237.17 -1.38817 0.746158 0
M  V30 13329 C 1238.08 -2.34316 0.115386 0
M  V30 13330 C 1239.1 -1.58892 -0.709179 0
M  V30 13331 O 1240.27 -1.91126 -0.635059 0
M  V30 13332 C 1237.34 -3.37977 -0.772821 0
M  V30 13333 C 1236.4 -4.2925 0.0652679 0
M  V30 13334 C 1235.63 -5.2796 -0.78064 0
M  V30 13335 O 1235.85 -5.33474 -2.01896 0
M  V30 13336 O 1234.79 -6.01556 -0.20338 0
M  V30 13337 H 1238.61 -2.89937 0.903887 0
M  V30 13338 H 1236.2 -1.40536 0.506958 0
M  V30 13339 H 1238.08 -4.01468 -1.28068 0
M  V30 13340 H 1236.76 -2.84723 -1.53994 0
M  V30 13341 H 1235.66 -3.68945 0.61891 0
M  V30 13342 H 1237 -4.85739 0.794871 0
M  V30 13343 N 1238.65 -0.49465 -1.49636 0
M  V30 13344 C 1239.59 0.287153 -2.29007 0
M  V30 13345 C 1240.56 0.966099 -1.35114 0
M  V30 13346 O 1241.75 0.973991 -1.64067 0
M  V30 13347 C 1238.89 1.34941 -3.17624 0
M  V30 13348 C 1238 0.682879 -4.26569 0
M  V30 13349 C 1237.14 1.72503 -5.0241 0
M  V30 13350 C 1236.18 1.04003 -6.032 0
M  V30 13351 N 1235.31 2.0261 -6.7223 0
M  V30 13352 H 1240.15 -0.395941 -2.95358 0
M  V30 13353 H 1237.69 -0.207103 -1.45635 0
M  V30 13354 H 1239.65 1.9772 -3.67372 0
M  V30 13355 H 1238.28 2.00135 -2.5327 0
M  V30 13356 H 1237.33 -0.0580477 -3.80356 0
M  V30 13357 H 1238.64 0.143334 -4.98594 0
M  V30 13358 H 1237.8 2.42804 -5.55996 0
M  V30 13359 H 1236.54 2.29843 -4.30144 0
M  V30 13360 H 1235.54 0.322765 -5.48852 0
M  V30 13361 H 1236.77 0.473219 -6.77449 0
M  V30 13362 H 1234.71 2.58922 -6.0274 0
M  V30 13363 H 1234.63 1.53704 -7.4021 0
M  V30 13364 H 1235.9 2.72218 -7.30423 0
M  V30 13365 O 1240.16 1.57208 -0.369845 0
M  V30 13366 H 1240.86 1.92864 0.179772 0
M  V30 END ATOM
M  V30 BEGIN BOND
M  V30 END BOND
M  V30 END CTAB
M  END
$$$$
