drugbank_target|Q5SJ76 30S ribosomal protein S15 (DB08185)
 OpenBabel12092120483D

  0  0  0     0  0            999 V3000
M  V30 BEGIN CTAB
M  V30 COUNTS 1524 1535 0 0 0
M  V30 BEGIN ATOM
M  V30 1 H -0.908 1.98254 -0.117106 0
M  V30 2 N 0 1.576 0 0
M  V30 3 C 0.933 2.03868 1.02534 0
M  V30 4 C 1.911 0.928543 1.3348 0
M  V30 5 O 3.095 1.19667 1.45644 0
M  V30 6 C 0.222 2.43627 2.35294 0
M  V30 7 C -0.732 3.65373 2.2001 0
M  V30 8 S 0.101 5.13292 1.52614 0
M  V30 9 C 1.257 5.56322 2.86805 0
M  V30 10 H 1.49 2.90518 0.631377 0
M  V30 11 H -0.977 1.52953 0.210867 0
M  V30 12 H 0.981 2.67203 3.11629 0
M  V30 13 H -0.358 1.57376 2.7183 0
M  V30 14 H -1.165 3.90944 3.18086 0
M  V30 15 H -1.563 3.418 1.51819 0
M  V30 16 H 0.729 5.58782 3.83104 0
M  V30 17 H 1.672 6.56266 2.65933 0
M  V30 18 H 2.08 4.83886 2.90714 0
M  V30 19 N 1.4781 -0.272755 1.55222 0
M  V30 20 C 2.8891 -0.84378 1.66545 0
M  V30 21 C 3.2401 -1.87035 0.592641 0
M  V30 22 O 2.3651 -2.14761 -0.265818 0
M  V30 23 C 2.9601 -1.53723 3.01918 0
M  V30 24 C 1.5191 -2.05628 3.15268 0
M  V30 25 C 0.6661 -0.898424 2.62343 0
M  V30 26 H 3.6171 -0.0490998 1.58624 0
M  V30 27 H 3.6381 -2.40421 2.94921 0
M  V30 28 H 3.1501 -0.78983 3.79978 0
M  V30 29 H 1.2511 -2.83329 2.41983 0
M  V30 30 H 1.3641 -2.27142 4.21833 0
M  V30 31 H -0.2719 -1.29186 2.19506 0
M  V30 32 H 0.5111 -0.164528 3.42906 0
M  V30 33 N 2.9562 -1.48159 -0.537278 0
M  V30 34 C 4.2052 -1.5506 -1.28993 0
M  V30 35 C 4.5182 -0.226211 -1.94288 0
M  V30 36 O 5.7242 -0.173395 -2.70946 0
M  V30 37 C 4.1802 -2.73429 -2.34018 0
M  V30 38 C 3.7882 -4.1248 -1.74825 0
M  V30 39 C 5.5322 -2.89638 -3.10339 0
M  V30 40 C 3.4392 -5.22121 -2.77747 0
M  V30 41 H 2.3692 -0.577231 -0.485098 0
M  V30 42 H 5.0202 -1.74478 -0.568317 0
M  V30 43 H 3.4022 -2.47431 -3.09182 0
M  V30 44 H 4.5762 -4.48466 -1.05899 0
M  V30 45 H 2.8912 -4.01327 -1.11022 0
M  V30 46 H 5.4882 -3.68718 -3.87235 0
M  V30 47 H 5.8312 -1.9882 -3.65754 0
M  V30 48 H 6.3642 -3.15502 -2.42288 0
M  V30 49 H 3.1032 -6.1488 -2.27161 0
M  V30 50 H 2.6232 -4.90631 -3.45024 0
M  V30 51 H 4.3022 -5.49924 -3.4087 0
M  V30 52 N 4.4343 0.785586 -1.36625 0
M  V30 53 C 5.6623 1.57448 -1.3423 0
M  V30 54 C 6.0773 1.88649 0.0755653 0
M  V30 55 O 5.4343 1.50414 1.03354 0
M  V30 56 C 5.4853 2.89316 -2.16745 0
M  V30 57 O 5.2063 2.59459 -3.53005 0
M  V30 58 C 6.7073 3.83606 -2.22174 0
M  V30 59 H 3.9273 0.488226 -0.4603 0
M  V30 60 H 6.4713 0.974733 -1.79775 0
M  V30 61 H 4.6263 3.4575 -1.74745 0
M  V30 62 H 5.0403 3.43804 -3.96105 0
M  V30 63 H 6.5143 4.73181 -2.8426 0
M  V30 64 H 6.9913 4.21734 -1.22627 0
M  V30 65 H 7.5973 3.33104 -2.64427 0
M  V30 66 N 5.9124 1.20967 1.01018 0
M  V30 67 C 6.8594 0.964281 2.09691 0
M  V30 68 C 7.8294 -0.107853 1.65749 0
M  V30 69 O 9.0144 0.0381987 1.90762 0
M  V30 70 C 6.1544 0.52943 3.41015 0
M  V30 71 C 5.2674 1.67043 3.98398 0
M  V30 72 C 4.4024 1.18525 5.17808 0
M  V30 73 C 3.4414 2.29892 5.67288 0
M  V30 74 N 2.5784 1.82546 6.77954 0
M  V30 75 H 7.4184 1.89463 2.30017 0
M  V30 76 H 4.9554 0.944289 1.1279 0
M  V30 77 H 6.9134 0.258588 4.16398 0
M  V30 78 H 5.5434 -0.363919 3.20742 0
M  V30 79 H 4.5954 2.05603 3.20049 0
M  V30 80 H 5.9074 2.50877 4.31117 0
M  V30 81 H 5.0614 0.870762 6.00419 0
M  V30 82 H 3.8004 0.316887 4.86669 0
M  V30 83 H 2.8054 2.6215 4.83278 0
M  V30 84 H 4.0304 3.17216 6.00459 0
M  V30 85 H 1.9764 0.980454 6.48632 0
M  V30 86 H 1.8934 2.59956 7.09901 0
M  V30 87 H 3.1614 1.54115 7.64113 0
M  V30 88 N 7.3905 -1.2043 1.01659 0
M  V30 89 C 8.3005 -2.2689 0.596484 0
M  V30 90 C 9.3165 -1.70107 -0.36599 0
M  V30 91 O 10.4925 -2.00117 -0.226942 0
M  V30 92 C 7.5575 -3.4665 -0.0586659 0
M  V30 93 C 6.6185 -4.18662 0.949751 0
M  V30 94 C 5.8515 -5.32705 0.32577 0
M  V30 95 O 6.0745 -5.63656 -0.874509 0
M  V30 96 O 5.0085 -5.92803 1.04249 0
M  V30 97 H 8.8345 -2.65041 1.4828 0
M  V30 98 H 6.4195 -1.27048 0.786082 0
M  V30 99 H 8.3015 -4.19256 -0.424564 0
M  V30 100 H 6.9765 -3.10375 -0.91918 0
M  V30 101 H 5.8835 -3.48229 1.36702 0
M  V30 102 H 7.2165 -4.58878 1.78023 0
M  V30 103 N 8.8686 -0.792821 -1.36206 0
M  V30 104 C 9.7786 -0.194808 -2.3379 0
M  V30 105 C 10.7946 0.654869 -1.61206 0
M  V30 106 O 11.9706 0.569856 -1.9317 0
M  V30 107 C 9.0356 0.657721 -3.40404 0
M  V30 108 C 8.0966 -0.210849 -4.28782 0
M  V30 109 C 7.3296 0.601086 -5.30304 0
M  V30 110 O 7.5526 1.83682 -5.40016 0
M  V30 111 O 6.4866 -0.000808277 -6.019 0
M  V30 112 H 10.3126 -1.00172 -2.86704 0
M  V30 113 H 7.8976 -0.554341 -1.38735 0
M  V30 114 H 9.7796 1.14375 -4.05581 0
M  V30 115 H 8.4546 1.44247 -2.89784 0
M  V30 116 H 7.3616 -0.743714 -3.66633 0
M  V30 117 H 8.6946 -0.959195 -4.82763 0
M  V30 118 N 10.3467 1.47872 -0.545128 0
M  V30 119 C 11.2937 2.29849 0.2093 0
M  V30 120 C 12.2637 1.38313 0.919707 0
M  V30 121 O 13.4487 1.67277 0.917772 0
M  V30 122 C 10.5887 3.22019 1.24088 0
M  V30 123 C 9.7017 4.2864 0.537778 0
M  V30 124 C 8.8367 5.07973 1.5536 0
M  V30 125 C 7.8757 6.06381 0.8348 0
M  V30 126 N 7.0127 6.78717 1.79688 0
M  V30 127 H 11.8527 2.93845 -0.49591 0
M  V30 128 H 9.3897 1.44848 -0.256389 0
M  V30 129 H 11.3477 3.73868 1.85144 0
M  V30 130 H 9.9777 2.59914 1.91428 0
M  V30 131 H 9.0297 3.7994 -0.187046 0
M  V30 132 H 10.3417 4.98793 -0.0258907 0
M  V30 133 H 9.4957 5.63912 2.23803 0
M  V30 134 H 8.2347 4.37693 2.15118 0
M  V30 135 H 7.2397 5.49631 0.136388 0
M  V30 136 H 8.4647 6.78665 0.24313 0
M  V30 137 H 6.4107 6.11177 2.38326 0
M  V30 138 H 6.3277 7.44998 1.28505 0
M  V30 139 H 7.5957 7.39237 2.47282 0
M  V30 140 N 11.8248 0.280983 1.55075 0
M  V30 141 C 12.7568 -0.637268 2.20163 0
M  V30 142 C 13.7698 -1.11298 1.18813 0
M  V30 143 O 14.9588 -1.03388 1.4551 0
M  V30 144 C 12.0588 -1.88199 2.81841 0
M  V30 145 C 11.2318 -1.55211 4.08936 0
M  V30 146 C 10.2908 -2.64991 4.54606 0
M  V30 147 O 9.3168 -2.30929 5.2025 0
M  V30 148 N 10.5188 -3.95161 4.25238 0
M  V30 149 H 13.2838 -0.0801694 2.99593 0
M  V30 150 H 10.8448 0.102329 1.61576 0
M  V30 151 H 12.8368 -2.60948 3.09335 0
M  V30 152 H 11.4068 -2.34799 2.06369 0
M  V30 153 H 10.6268 -0.658185 3.88666 0
M  V30 154 H 11.9148 -1.30681 4.91732 0
M  V30 155 H 11.3128 -4.25653 3.72607 0
M  V30 156 H 9.8698 -4.6427 4.5749 0
M  V30 157 N 13.3029 -1.57598 0.00835791 0
M  V30 158 C 14.2499 -2.08945 -0.980346 0
M  V30 159 C 15.2199 -0.986738 -1.33614 0
M  V30 160 O 16.4049 -1.25968 -1.43306 0
M  V30 161 C 13.5449 -2.60425 -2.26435 0
M  V30 162 C 12.6579 -3.84628 -1.96685 0
M  V30 163 C 11.7929 -4.24579 -3.19228 0
M  V30 164 C 10.8319 -5.41596 -2.85202 0
M  V30 165 N 9.9689 -5.768 -4.00307 0
M  V30 166 H 14.8089 -2.93148 -0.535551 0
M  V30 167 H 12.3459 -1.44912 -0.252776 0
M  V30 168 H 14.3039 -2.88354 -3.01509 0
M  V30 169 H 12.9339 -1.79083 -2.68568 0
M  V30 170 H 11.9859 -3.63556 -1.11942 0
M  V30 171 H 13.2979 -4.69796 -1.67611 0
M  V30 172 H 12.4519 -4.53834 -4.02641 0
M  V30 173 H 11.1909 -3.38137 -3.51447 0
M  V30 174 H 10.1959 -5.12056 -2.00198 0
M  V30 175 H 11.4209 -6.29721 -2.54222 0
M  V30 176 H 9.3669 -4.93316 -4.32407 0
M  V30 177 H 9.2839 -6.5656 -3.74786 0
M  V30 178 H 10.5519 -6.10652 -4.84484 0
M  V30 179 N 14.781 0.264519 -1.55364 0
M  V30 180 C 16.027 0.99646 -1.76631 0
M  V30 181 C 16.36 1.85632 -0.570478 0
M  V30 182 O 15.635 1.89647 0.43175 0
M  V30 183 C 15.918 1.87187 -3.07625 0
M  V30 184 C 15.771 1.04138 -4.37579 0
M  V30 185 C 17.09 2.85749 -3.34717 0
M  V30 186 H 14.209 0.360841 -0.642622 0
M  V30 187 H 16.851 0.268218 -1.88097 0
M  V30 188 H 15.001 2.49279 -2.9798 0
M  V30 189 H 16.673 0.440517 -4.59192 0
M  V30 190 H 14.916 0.345115 -4.32425 0
M  V30 191 H 15.587 1.68729 -5.2558 0
M  V30 192 H 18.063 2.33793 -3.4421 0
M  V30 193 H 16.939 3.44136 -4.27623 0
M  V30 194 H 17.2 3.61311 -2.54768 0
M  V30 195 N 16.2591 1.48442 0.529413 0
M  V30 196 C 17.5081 1.55742 1.28169 0
M  V30 197 C 17.8211 0.236511 1.94165 0
M  V30 198 O 19.0271 0.187761 2.7085 0
M  V30 199 C 17.4831 2.74667 2.32564 0
M  V30 200 C 17.0911 4.13402 1.72636 0
M  V30 201 C 18.8351 2.9128 3.08798 0
M  V30 202 C 16.7421 5.23587 2.74975 0
M  V30 203 H 15.6721 0.579796 0.48203 0
M  V30 204 H 18.3231 1.74776 0.559056 0
M  V30 205 H 16.7051 2.49067 3.07866 0
M  V30 206 H 17.8791 4.49022 1.03519 0
M  V30 207 H 16.1941 4.0191 1.08892 0
M  V30 208 H 18.7911 3.70767 3.85274 0
M  V30 209 H 19.1341 2.00757 3.64695 0
M  V30 210 H 19.6671 3.16782 2.40611 0
M  V30 211 H 16.4061 6.16076 2.23897 0
M  V30 212 H 15.9261 4.92454 3.42417 0
M  V30 213 H 17.6051 5.51724 3.37949 0
M  V30 214 N 17.7372 -0.778329 1.37039 0
M  V30 215 C 18.6692 -1.90034 1.2814 0
M  V30 216 C 19.6822 -1.61585 0.198558 0
M  V30 217 O 20.8712 -1.72625 0.454175 0
M  V30 218 C 17.9712 -3.25108 0.956968 0
M  V30 219 C 17.1442 -3.81253 2.14394 0
M  V30 220 C 16.2032 -4.94789 1.79082 0
M  V30 221 O 15.2292 -5.10721 2.51301 0
M  V30 222 N 16.4312 -5.75878 0.731043 0
M  V30 223 H 19.1962 -1.98186 2.24816 0
M  V30 224 H 16.7572 -0.957129 1.30578 0
M  V30 225 H 18.7492 -3.9857 0.701701 0
M  V30 226 H 17.3192 -3.125 0.0789812 0
M  V30 227 H 16.5392 -2.99647 2.56135 0
M  V30 228 H 17.8272 -4.15495 2.93668 0
M  V30 229 H 17.2252 -5.65547 0.131618 0
M  V30 230 H 15.7822 -6.49596 0.535622 0
M  V30 231 N 19.2153 -1.21501 -1.00376 0
M  V30 232 C 20.1253 -0.991447 -2.12621 0
M  V30 233 C 21.1413 0.0568446 -1.73907 0
M  V30 234 O 22.3173 -0.13348 -2.00957 0
M  V30 235 C 19.3823 -0.560312 -3.42142 0
M  V30 236 C 18.4433 -1.68096 -3.95022 0
M  V30 237 C 17.6763 -1.2703 -5.18362 0
M  V30 238 O 17.8993 -0.144438 -5.70217 0
M  V30 239 O 16.8333 -2.08269 -5.64719 0
M  V30 240 H 20.6593 -1.93158 -2.34358 0
M  V30 241 H 18.2443 -0.999999 -1.10997 0
M  V30 242 H 20.1263 -0.329724 -4.20108 0
M  V30 243 H 18.8013 0.351089 -3.2179 0
M  V30 244 H 17.7083 -1.96597 -3.18278 0
M  V30 245 H 19.0413 -2.56983 -4.19786 0
M  V30 246 N 20.6934 1.19889 -1.02296 0
M  V30 247 C 21.9404 1.8942 -0.715972 0
M  V30 248 C 22.2684 1.79251 0.754944 0
M  V30 249 O 21.5234 1.17526 1.56481 0
M  V30 250 C 21.8224 3.39883 -1.10518 0
M  V30 251 C 21.4884 3.70254 -2.57337 0
M  V30 252 C 20.1504 3.78254 -2.97452 0
M  V30 253 C 22.5024 3.84052 -3.52354 0
M  V30 254 C 19.8304 3.97514 -4.31509 0
M  V30 255 C 22.1824 4.04824 -4.86108 0
M  V30 256 C 20.8464 4.11054 -5.25919 0
M  V30 257 H 20.1164 0.693138 -0.261993 0
M  V30 258 H 22.7634 1.42012 -1.28472 0
M  V30 259 H 21.0684 3.8915 -0.454953 0
M  V30 260 H 22.7654 3.9199 -0.845261 0
M  V30 261 H 19.3554 3.64632 -2.25258 0
M  V30 262 H 23.5394 3.77221 -3.22518 0
M  V30 263 H 18.7954 4.00574 -4.61898 0
M  V30 264 H 22.9694 4.14442 -5.59653 0
M  V30 265 H 20.5964 4.2573 -6.29808 0
M  V30 266 N 22.1715 0.800033 1.35784 0
M  V30 267 C 23.1345 0.211565 2.28221 0
M  V30 268 C 24.1345 -0.59728 1.49296 0
M  V30 269 O 25.3245 -0.416721 1.69142 0
M  V30 270 C 22.4565 -0.705846 3.33513 0
M  V30 271 H 23.6495 1.02677 2.81776 0
M  V30 272 H 21.2025 0.570211 1.45528 0
M  V30 273 H 21.9375 -1.54498 2.85133 0
M  V30 274 H 21.7225 -0.127655 3.91892 0
M  V30 275 H 23.2125 -1.11211 4.02519 0
M  V30 276 N 23.6496 -1.47581 0.552962 0
M  V30 277 C 25.0656 -1.5818 0.212424 0
M  V30 278 C 25.2656 -1.55213 -1.28496 0
M  V30 279 O 24.3216 -1.45329 -2.06484 0
M  V30 280 C 25.6346 -2.88865 0.835318 0
M  V30 281 C 27.1826 -3.0244 0.806156 0
M  V30 282 C 27.6576 -4.35819 1.40804 0
M  V30 283 N 29.1486 -4.42444 1.37103 0
M  V30 284 C 29.8836 -5.44202 1.80641 0
M  V30 285 N 29.3796 -6.52795 2.32015 0
M  V30 286 N 31.1726 -5.35222 1.71738 0
M  V30 287 H 23.3236 -1.47753 1.52587 0
M  V30 288 H 25.5866 -0.702941 0.636064 0
M  V30 289 H 25.2926 -2.9676 1.88749 0
M  V30 290 H 25.1666 -3.7579 0.325848 0
M  V30 291 H 27.5536 -2.94144 -0.237317 0
M  V30 292 H 27.6346 -2.17068 1.35334 0
M  V30 293 H 27.2786 -4.44871 2.45056 0
M  V30 294 H 27.2086 -5.19916 0.836338 0
M  V30 295 H 29.6996 -3.6456 0.995202 0
M  V30 296 H 30.0126 -7.26609 2.63171 0
M  V30 297 H 28.3576 -6.53696 2.36023 0
M  V30 298 H 31.5486 -4.49284 1.31382 0
M  V30 299 H 31.7216 -6.14389 2.05987 0
M  V30 300 N 25.1277 -0.289203 -1.54924 0
M  V30 301 C 26.3747 0.323519 -1.99899 0
M  V30 302 C 26.7027 1.54797 -1.17762 0
M  V30 303 O 25.9577 1.94237 -0.238835 0
M  V30 304 C 26.2567 0.736119 -3.49737 0
M  V30 305 C 25.9227 -0.385276 -4.49251 0
M  V30 306 C 24.5847 -0.693156 -4.76181 0
M  V30 307 C 26.9367 -1.14021 -5.08575 0
M  V30 308 C 24.2647 -1.7593 -5.59701 0
M  V30 309 C 26.6167 -2.19619 -5.93254 0
M  V30 310 C 25.2807 -2.51026 -6.185 0
M  V30 311 H 24.5507 0.118384 -0.731482 0
M  V30 312 H 27.1977 -0.405847 -1.8715 0
M  V30 313 H 25.5027 1.54539 -3.60035 0
M  V30 314 H 27.1997 1.22118 -3.81953 0
M  V30 315 H 23.7897 -0.135202 -4.28387 0
M  V30 316 H 27.9737 -0.915611 -4.87781 0
M  V30 317 H 23.2297 -2.0075 -5.77503 0
M  V30 318 H 27.4037 -2.78581 -6.38252 0
M  V30 319 H 25.0307 -3.33772 -6.83008 0
M  V30 320 N 26.6058 1.57591 -0.0167156 0
M  V30 321 C 28.0168 1.79201 0.523834 0
M  V30 322 C 28.3678 0.925796 1.72984 0
M  V30 323 O 27.4928 0.132792 2.15992 0
M  V30 324 C 28.0878 3.25 0.957091 0
M  V30 325 C 26.6468 3.47648 1.44283 0
M  V30 326 C 25.7938 2.74374 0.401757 0
M  V30 327 H 28.7448 1.56831 -0.242816 0
M  V30 328 H 28.7658 3.34031 1.82219 0
M  V30 329 H 28.2778 3.88019 0.0791415 0
M  V30 330 H 26.3788 2.89866 2.34113 0
M  V30 331 H 26.4918 4.56352 1.45877 0
M  V30 332 H 24.8558 2.39485 0.867121 0
M  V30 333 H 25.6388 3.40102 -0.467513 0
M  V30 334 N 28.0839 -0.256276 1.55502 0
M  V30 335 C 29.3319 -0.983672 1.76545 0
M  V30 336 C 29.6529 -1.86206 0.578982 0
M  V30 337 O 28.9229 -1.91656 -0.405577 0
M  V30 338 H 27.5029 -0.366191 0.651086 0
M  V30 339 H 30.1649 -0.276479 1.92929 0
M  V30 340 H 29.2609 -1.61087 2.67315 0
M  V30 341 N 29.562 -1.4872 -0.521534 0
M  V30 342 C 30.839 -1.4766 -1.2828 0
M  V30 343 C 31.219 -0.19292 -2.10217 0
M  V30 344 O 30.567 0.825193 -2.13079 0
M  V30 345 C 30.777 -2.74358 -2.15705 0
M  V30 346 C 32.125 -3.23028 -2.75569 0
M  V30 347 O 33.149 -2.75333 -2.25987 0
M  V30 348 O 32.008 -4.0604 -3.65778 0
M  V30 349 H 29.102 -0.590085 -0.579421 0
M  V30 350 H 31.648 -1.60963 -0.537492 0
M  V30 351 H 30.42 -3.59292 -1.54999 0
M  V30 352 H 30.043 -2.63816 -2.97467 0
M  V30 353 N 31.0401 0.771051 -1.3745 0
M  V30 354 C 32.2681 1.56015 -1.35893 0
M  V30 355 C 32.6831 1.88718 0.0555523 0
M  V30 356 O 32.0401 1.51502 1.01752 0
M  V30 357 C 32.0911 2.87001 -2.19801 0
M  V30 358 O 31.8121 2.557 -3.55738 0
M  V30 359 C 33.3131 3.81228 -2.26231 0
M  V30 360 H 30.5331 0.483317 -0.465453 0
M  V30 361 H 33.0771 0.955611 -1.80799 0
M  V30 362 H 31.2321 3.43877 -1.78402 0
M  V30 363 H 31.6461 3.39584 -3.99729 0
M  V30 364 H 33.1201 4.70139 -2.89263 0
M  V30 365 H 33.5971 4.20409 -1.27093 0
M  V30 366 H 34.2031 3.30281 -2.67945 0
M  V30 367 N 32.5182 1.22032 0.997298 0
M  V30 368 C 33.7662 1.04016 1.73278 0
M  V30 369 C 34.0872 -0.426255 1.90284 0
M  V30 370 O 33.3572 -1.30694 1.45931 0
M  V30 371 H 31.9372 0.381897 0.642 0
M  V30 372 H 34.5992 1.5347 1.20137 0
M  V30 373 H 33.6952 1.51441 2.72896 0
M  V30 374 N 33.9963 -1.19345 1.0293 0
M  V30 375 C 35.2213 -1.93538 0.745511 0
M  V30 376 C 35.6463 -1.75007 -0.689511 0
M  V30 377 O 35.0043 -1.05265 -1.47611 0
M  V30 378 C 35.0523 -3.43336 1.10239 0
M  V30 379 O 34.1563 -4.11806 0.221289 0
M  V30 380 H 33.4973 -0.604193 0.275404 0
M  V30 381 H 36.0273 -1.5141 1.37609 0
M  V30 382 H 36.0373 -3.94004 1.05947 0
M  V30 383 H 34.7123 -3.56146 2.14786 0
M  V30 384 H 33.2893 -3.715 0.322842 0
M  V30 385 N 35.4744 -0.807222 -1.35358 0
M  V30 386 C 36.7024 -0.400377 -2.02989 0
M  V30 387 C 37.1174 0.988859 -1.60832 0
M  V30 388 O 36.4744 1.63729 -0.806175 0
M  V30 389 C 36.5254 -0.474867 -3.58368 0
M  V30 390 O 36.2464 -1.80933 -3.98992 0
M  V30 391 C 37.7474 -0.0609112 -4.43258 0
M  V30 392 H 34.9674 -0.162587 -0.651004 0
M  V30 393 H 37.5114 -1.09102 -1.72965 0
M  V30 394 H 35.6664 0.167534 -3.87038 0
M  V30 395 H 36.0804 -1.77256 -4.9364 0
M  V30 396 H 37.5544 -0.164145 -5.51756 0
M  V30 397 H 38.0314 0.993831 -4.27808 0
M  V30 398 H 38.6374 -0.676492 -4.19885 0
M  V30 399 N 36.9525 1.47285 -0.560781 0
M  V30 400 C 37.8625 2.33846 0.187954 0
M  V30 401 C 38.8785 1.48412 0.908293 0
M  V30 402 O 40.0545 1.81332 0.876388 0
M  V30 403 C 37.1195 3.25178 1.2025 0
M  V30 404 C 36.1805 4.26504 0.489208 0
M  V30 405 C 35.4135 5.13472 1.45542 0
M  V30 406 O 35.6365 5.02959 2.6905 0
M  V30 407 O 34.5705 5.93902 0.977963 0
M  V30 408 H 38.3965 2.99177 -0.522177 0
M  V30 409 H 35.9815 1.45903 -0.321364 0
M  V30 410 H 37.8635 3.81584 1.78805 0
M  V30 411 H 36.5385 2.6247 1.89449 0
M  V30 412 H 35.4455 3.73847 -0.137627 0
M  V30 413 H 36.7785 4.91935 -0.161399 0
M  V30 414 N 38.4306 0.297415 1.54768 0
M  V30 415 C 39.6766 -0.313376 2.00364 0
M  V30 416 C 40.0096 -1.53815 1.18553 0
M  V30 417 O 39.2846 -1.92739 0.261103 0
M  V30 418 C 39.5676 -0.673525 3.53745 0
M  V30 419 C 39.4206 0.560133 4.46299 0
M  V30 420 C 40.7396 -1.50143 4.13697 0
M  V30 421 H 37.8586 -0.112428 0.728374 0
M  V30 422 H 40.5006 0.4088 1.8555 0
M  V30 423 H 38.6506 -1.28881 3.665 0
M  V30 424 H 40.3226 1.19863 4.45455 0
M  V30 425 H 38.5656 1.19405 4.17043 0
M  V30 426 H 39.2366 0.26405 5.51368 0
M  V30 427 H 41.7126 -0.981588 4.04356 0
M  V30 428 H 40.5886 -1.72221 5.21182 0
M  V30 429 H 40.8496 -2.48952 3.65343 0
M  V30 430 N 39.9087 -1.5758 0.0250728 0
M  V30 431 C 40.8407 -2.06869 -0.986796 0
M  V30 432 C 41.8537 -0.991332 -1.29137 0
M  V30 433 O 43.0427 -1.26761 -1.25674 0
M  V30 434 C 40.1427 -2.47486 -2.31525 0
M  V30 435 C 39.3157 -3.78253 -2.19643 0
M  V30 436 C 38.3747 -4.05464 -3.35388 0
M  V30 437 O 37.4007 -4.75774 -3.12454 0
M  V30 438 N 38.6027 -3.55321 -4.59051 0
M  V30 439 H 41.3677 -2.94302 -0.566276 0
M  V30 440 H 38.9287 -1.6109 -0.161776 0
M  V30 441 H 40.9207 -2.62785 -3.07776 0
M  V30 442 H 39.4907 -1.65441 -2.65232 0
M  V30 443 H 38.7107 -3.7279 -1.28144 0
M  V30 444 H 39.9987 -4.63936 -2.08903 0
M  V30 445 H 39.3967 -2.98431 -4.80578 0
M  V30 446 H 37.9537 -3.75905 -5.32483 0
M  V30 447 N 41.3868 0.248026 -1.55636 0
M  V30 448 C 42.6328 0.97767 -1.77678 0
M  V30 449 C 42.9658 1.85016 -0.590135 0
M  V30 450 O 42.2408 1.90095 0.411611 0
M  V30 451 C 42.5238 1.83914 -3.09593 0
M  V30 452 C 42.3768 0.99491 -4.38659 0
M  V30 453 C 43.6958 2.82183 -3.37729 0
M  V30 454 H 40.8148 0.354005 -0.646413 0
M  V30 455 H 43.4568 0.248253 -1.88371 0
M  V30 456 H 41.6068 2.46104 -3.00608 0
M  V30 457 H 43.2788 0.391789 -4.59633 0
M  V30 458 H 41.5218 0.299231 -4.32767 0
M  V30 459 H 42.1928 1.63145 -5.2734 0
M  V30 460 H 44.6688 2.30129 -3.4667 0
M  V30 461 H 43.5448 3.39582 -4.31249 0
M  V30 462 H 43.8058 3.58588 -2.58586 0
M  V30 463 N 42.8649 1.48995 0.513639 0
M  V30 464 C 43.8279 1.64229 1.59879 0
M  V30 465 C 44.8279 0.514696 1.5234 0
M  V30 466 O 46.0179 0.78087 1.55718 0
M  V30 467 C 43.1499 1.62783 2.99524 0
M  V30 468 H 44.3429 2.61004 1.47705 0
M  V30 469 H 41.8959 1.37837 0.736936 0
M  V30 470 H 42.6309 0.675461 3.17188 0
M  V30 471 H 42.4159 2.4466 3.06404 0
M  V30 472 H 43.9059 1.76669 3.78388 0
M  V30 473 N 44.343 -0.763751 1.37857 0
M  V30 474 C 45.273 -1.89103 1.36975 0
M  V30 475 C 46.254 -1.68439 0.237152 0
M  V30 476 O 47.439 -1.8918 0.438713 0
M  V30 477 C 44.569 -3.26496 1.18395 0
M  V30 478 C 43.523 -3.61741 2.28751 0
M  V30 479 C 42.849 -4.97762 1.95286 0
M  V30 480 C 44.149 -3.67665 3.70972 0
M  V30 481 H 45.843 -1.90099 2.31307 0
M  V30 482 H 43.389 -0.91319 1.11341 0
M  V30 483 H 45.342 -4.05003 1.16406 0
M  V30 484 H 44.066 -3.25955 0.205215 0
M  V30 485 H 42.725 -2.85547 2.29909 0
M  V30 486 H 42.373 -4.93769 0.959221 0
M  V30 487 H 42.073 -5.22313 2.69189 0
M  V30 488 H 43.597 -5.7866 1.94898 0
M  V30 489 H 45.011 -4.36307 3.719 0
M  V30 490 H 43.408 -4.03718 4.43995 0
M  V30 491 H 44.478 -2.68134 4.0402 0
M  V30 492 N 45.8211 -1.22559 -0.990812 0
M  V30 493 C 46.7511 -1.0218 -2.09956 0
M  V30 494 C 47.7321 0.0579394 -1.70001 0
M  V30 495 O 48.9171 -0.104684 -1.93918 0
M  V30 496 C 46.0471 -0.601023 -3.4206 0
M  V30 497 C 45.0011 -1.62694 -3.95872 0
M  V30 498 C 44.3271 -1.06193 -5.24049 0
M  V30 499 C 45.6271 -3.01743 -4.2632 0
M  V30 500 H 47.3211 -1.94916 -2.27262 0
M  V30 501 H 44.8671 -0.938566 -1.09211 0
M  V30 502 H 46.8201 -0.445561 -4.19038 0
M  V30 503 H 45.5441 0.362005 -3.24588 0
M  V30 504 H 44.2031 -1.77021 -3.21028 0
M  V30 505 H 43.8511 -0.0901903 -5.02919 0
M  V30 506 H 43.5511 -1.74732 -5.61019 0
M  V30 507 H 45.0751 -0.918092 -6.03658 0
M  V30 508 H 46.4891 -2.90777 -4.94087 0
M  V30 509 H 44.8861 -3.67425 -4.74467 0
M  V30 510 H 45.9561 -3.51518 -3.34011 0
M  V30 511 N 47.2992 1.18797 -1.03562 0
M  V30 512 C 48.5272 1.92599 -0.755869 0
M  V30 513 C 48.9422 1.75886 0.686271 0
M  V30 514 O 48.2992 1.08517 1.46732 0
M  V30 515 C 48.3502 3.44159 -1.10619 0
M  V30 516 O 48.0712 3.60341 -2.4917 0
M  V30 517 C 49.5722 4.3507 -0.850214 0
M  V30 518 H 46.7922 0.611587 -0.276048 0
M  V30 519 H 49.3362 1.50742 -1.38192 0
M  V30 520 H 47.4912 3.83823 -0.525194 0
M  V30 521 H 47.9052 4.54128 -2.62427 0
M  V30 522 H 49.3792 5.39989 -1.14523 0
M  V30 523 H 49.8562 4.38673 0.215176 0
M  V30 524 H 50.4622 4.01097 -1.41426 0
M  V30 525 N 48.7773 0.814389 1.34928 0
M  V30 526 C 49.7073 0.244827 2.32213 0
M  V30 527 C 50.6883 -0.634024 1.57842 0
M  V30 528 O 51.8733 -0.562676 1.8587 0
M  V30 529 C 49.0033 -0.601106 3.42058 0
M  V30 530 C 47.9573 0.179896 4.27622 0
M  V30 531 C 47.2833 -0.788237 5.28858 0
M  V30 532 C 48.5833 1.38329 5.03649 0
M  V30 533 H 50.2773 1.05763 2.80097 0
M  V30 534 H 47.8233 0.510029 1.34665 0
M  V30 535 H 49.7763 -1.00968 4.09125 0
M  V30 536 H 48.5003 -1.44688 2.92802 0
M  V30 537 H 47.1593 0.569739 3.62146 0
M  V30 538 H 46.8073 -1.62973 4.75866 0
M  V30 539 H 46.5073 -0.269942 5.8698 0
M  V30 540 H 48.0313 -1.19485 5.98795 0
M  V30 541 H 49.4453 1.04918 5.63618 0
M  V30 542 H 47.8423 1.83662 5.71304 0
M  V30 543 H 48.9123 2.16592 4.33839 0
M  V30 544 N 50.2554 -1.46986 0.568584 0
M  V30 545 C 51.6714 -1.57946 0.229189 0
M  V30 546 C 51.8714 -1.56567 -1.26843 0
M  V30 547 O 50.9274 -1.47511 -2.04931 0
M  V30 548 C 52.2404 -2.87963 0.865909 0
M  V30 549 C 53.7884 -3.01568 0.838188 0
M  V30 550 C 54.2634 -4.34301 1.45419 0
M  V30 551 N 55.7544 -4.40965 1.41788 0
M  V30 552 C 56.4894 -5.42256 1.86403 0
M  V30 553 N 55.9854 -6.50297 2.38926 0
M  V30 554 N 57.7784 -5.3337 1.77405 0
M  V30 555 H 49.9294 -1.46126 1.54146 0
M  V30 556 H 52.1924 -0.696156 0.643484 0
M  V30 557 H 51.8984 -2.94742 1.91886 0
M  V30 558 H 51.7724 -3.75423 0.365687 0
M  V30 559 H 54.1594 -2.94379 -0.206106 0
M  V30 560 H 54.2404 -2.1562 1.37629 0
M  V30 561 H 53.8844 -4.42247 2.49761 0
M  V30 562 H 53.8144 -5.19 0.891435 0
M  V30 563 H 56.3054 -3.63484 1.03381 0
M  V30 564 H 56.6184 -7.23777 2.70863 0
M  V30 565 H 54.9634 -6.51155 2.42944 0
M  V30 566 H 58.1544 -4.47865 1.3614 0
M  V30 567 H 58.3274 -6.12169 2.12492 0
M  V30 568 N 51.7335 -0.305618 -1.54608 0
M  V30 569 C 52.9825 0.303098 -1.9941 0
M  V30 570 C 53.2955 1.54648 -1.19764 0
M  V30 571 O 54.5015 2.23007 -1.54855 0
M  V30 572 C 52.9575 0.590588 -3.55021 0
M  V30 573 C 52.5655 -0.634719 -4.43481 0
M  V30 574 C 54.3095 1.16025 -4.08336 0
M  V30 575 C 52.2165 -0.320126 -5.90533 0
M  V30 576 H 51.1465 0.117031 -0.744862 0
M  V30 577 H 53.7975 -0.415045 -1.78745 0
M  V30 578 H 52.1795 1.36845 -3.71604 0
M  V30 579 H 53.3535 -1.41079 -4.38672 0
M  V30 580 H 51.6685 -1.12333 -4.00962 0
M  V30 581 H 54.2655 1.40994 -5.15776 0
M  V30 582 H 54.6085 2.10397 -3.5922 0
M  V30 583 H 55.1415 0.443985 -3.95315 0
M  V30 584 H 51.8805 -1.23254 -6.43808 0
M  V30 585 H 51.4005 0.418579 -5.98338 0
M  V30 586 H 53.0795 0.0766241 -6.46955 0
M  V30 587 N 53.2116 1.57565 -0.0334293 0
M  V30 588 C 54.1596 2.1164 0.96496 0
M  V30 589 C 55.1536 1.04398 1.33407 0
M  V30 590 O 56.3596 1.22828 1.3158 0
M  V30 591 H 52.7346 0.676222 0.32898 0
M  V30 592 H 54.7056 2.94455 0.483614 0
M  V30 593 C 53.4546 2.66207 2.23672 0
M  V30 594 H 52.7776 3.48378 1.96145 0
M  V30 595 H 54.2176 3.07685 2.9173 0
M  V30 596 C 52.6766 1.59151 2.96939 0
M  V30 597 O 53.2066 0.993858 3.89211 0
M  V30 598 N 51.4126 1.31093 2.59351 0
M  V30 599 H 50.9596 1.7988 1.84393 0
M  V30 600 H 50.9176 0.596889 3.08682 0
M  V30 601 N 54.6897 -0.239769 1.55765 0
M  V30 602 C 56.1057 -0.588624 1.48349 0
M  V30 603 C 56.3057 -1.88005 0.72502 0
M  V30 604 O 55.3617 -2.51186 0.257269 0
M  V30 605 C 56.6747 -0.68474 2.928 0
M  V30 606 C 58.2227 -0.77659 3.03213 0
M  V30 607 C 58.6977 -0.904207 4.48986 0
M  V30 608 N 60.1887 -0.968896 4.52953 0
M  V30 609 C 60.9237 -1.08703 5.63002 0
M  V30 610 N 60.4197 -1.17026 6.82845 0
M  V30 611 N 62.2127 -1.12074 5.50814 0
M  V30 612 H 54.3637 0.607911 2.03515 0
M  V30 613 H 56.6267 0.21083 0.924259 0
M  V30 614 H 56.3327 0.194284 3.51163 0
M  V30 615 H 56.2067 -1.55435 3.43686 0
M  V30 616 H 58.5937 -1.64606 2.44926 0
M  V30 617 H 58.6747 0.118315 2.55526 0
M  V30 618 H 58.3187 -0.0392633 5.07885 0
M  V30 619 H 58.2487 -1.81426 4.9436 0
M  V30 620 H 60.7397 -0.915633 3.6664 0
M  V30 621 H 61.0527 -1.25966 7.62465 0
M  V30 622 H 59.3977 -1.13971 6.85591 0
M  V30 623 H 62.5887 -1.05226 4.5612 0
M  V30 624 H 62.7617 -1.20936 6.36615 0
M  V30 625 N 56.1678 -1.49265 -0.50573 0
M  V30 626 C 57.0978 -1.68495 -1.61653 0
M  V30 627 C 58.0788 -0.53366 -1.61512 0
M  V30 628 O 59.2638 -0.76897 -1.78327 0
M  V30 629 C 56.3938 -1.74709 -3.00157 0
M  V30 630 C 55.3478 -2.89581 -3.15162 0
M  V30 631 C 54.6738 -2.80903 -4.5497 0
M  V30 632 C 55.9738 -4.30578 -2.95634 0
M  V30 633 H 57.6678 -2.61493 -1.45814 0
M  V30 634 H 55.2138 -1.25838 -0.70005 0
M  V30 635 H 57.1668 -1.86748 -3.77761 0
M  V30 636 H 55.8908 -0.783067 -3.17074 0
M  V30 637 H 54.5498 -2.77136 -2.39982 0
M  V30 638 H 54.1978 -1.82419 -4.68756 0
M  V30 639 H 53.8978 -3.57999 -4.65951 0
M  V30 640 H 55.4218 -2.94944 -5.34641 0
M  V30 641 H 56.8358 -4.4373 -3.63011 0
M  V30 642 H 55.2328 -5.0886 -3.18091 0
M  V30 643 H 56.3028 -4.45352 -1.91806 0
M  V30 644 N 57.6459 0.756429 -1.3826 0
M  V30 645 C 58.8709 1.55077 -1.37717 0
M  V30 646 C 59.2959 1.88073 0.03164 0
M  V30 647 O 58.6539 1.50364 1.01293 0
M  V30 648 C 58.7019 2.8283 -2.23695 0
M  V30 649 O 57.8059 3.77862 -1.6521 0
M  V30 650 H 57.1469 0.469152 -0.469885 0
M  V30 651 H 59.6769 0.935019 -1.81985 0
M  V30 652 H 59.6869 3.31783 -2.37453 0
M  V30 653 H 58.3619 2.58144 -3.2609 0
M  V30 654 H 56.9389 3.36555 -1.60578 0
M  V30 655 N 59.124 1.23083 0.984299 0
M  V30 656 C 60.034 1.02515 2.11016 0
M  V30 657 C 61.05 -0.0291702 1.73976 0
M  V30 658 O 62.226 0.165434 2.00719 0
M  V30 659 C 59.291 0.614673 3.41208 0
M  V30 660 C 58.352 1.74359 3.92297 0
M  V30 661 C 57.585 1.35261 5.16275 0
M  V30 662 O 57.808 0.235136 5.69915 0
M  V30 663 O 56.742 2.17227 5.61334 0
M  V30 664 H 60.568 1.96862 2.31255 0
M  V30 665 H 58.153 1.01753 1.09392 0
M  V30 666 H 60.035 0.396518 4.1953 0
M  V30 667 H 58.71 -0.299851 3.22308 0
M  V30 668 H 57.617 2.01635 3.1511 0
M  V30 669 H 58.95 2.63629 4.15645 0
M  V30 670 N 60.6021 -1.18246 1.0419 0
M  V30 671 C 61.5521 -2.19843 0.604392 0
M  V30 672 C 62.5361 -1.56962 -0.353814 0
M  V30 673 O 63.7281 -1.76156 -0.17267 0
M  V30 674 C 60.8571 -3.43287 -0.0298975 0
M  V30 675 C 59.9431 -4.13288 0.951531 0
M  V30 676 N 60.3341 -4.59271 2.11906 0
M  V30 677 C 58.6321 -4.39165 0.7778 0
M  V30 678 C 59.3331 -5.13173 2.73912 0
M  V30 679 N 58.3091 -5.04763 2.01779 0
M  V30 680 H 62.1111 -2.53089 1.4941 0
M  V30 681 H 59.6251 -1.34465 0.910658 0
M  V30 682 H 61.6221 -4.15334 -0.361037 0
M  V30 683 H 60.2821 -3.11537 -0.915127 0
M  V30 684 H 61.2931 -4.5368 2.49789 0
M  V30 685 H 57.9701 -4.17461 -0.0572331 0
M  V30 686 H 59.3601 -5.58947 3.72864 0
M  V30 687 N 62.0802 -0.821533 -1.34494 0
M  V30 688 C 63.0102 -0.257138 -2.3208 0
M  V30 689 C 63.9912 0.625645 -1.58176 0
M  V30 690 O 65.1762 0.552811 -1.86166 0
M  V30 691 C 62.3062 0.582958 -3.42372 0
M  V30 692 C 61.2602 -0.202571 -4.2752 0
M  V30 693 C 60.5862 0.760179 -5.29269 0
M  V30 694 C 61.8862 -1.40998 -5.02908 0
M  V30 695 H 63.5802 -1.07247 -2.79532 0
M  V30 696 H 61.1262 -0.517163 -1.34393 0
M  V30 697 H 63.0792 0.987972 -4.09655 0
M  V30 698 H 61.8032 1.43133 -2.93565 0
M  V30 699 H 60.4622 -0.588936 -3.61838 0
M  V30 700 H 60.1102 1.60447 -4.76724 0
M  V30 701 H 59.8102 0.238809 -5.87115 0
M  V30 702 H 61.3342 1.16308 -5.9942 0
M  V30 703 H 62.7482 -1.07905 -5.63054 0
M  V30 704 H 61.1452 -1.86689 -5.70322 0
M  V30 705 H 62.2152 -2.1889 -4.32684 0
M  V30 706 N 63.5583 1.46682 -0.576371 0
M  V30 707 C 64.5053 2.30241 0.160499 0
M  V30 708 C 65.4753 1.40233 0.890162 0
M  V30 709 O 66.6603 1.69186 0.882084 0
M  V30 710 C 63.8003 3.24578 1.1723 0
M  V30 711 C 62.9133 4.29684 0.446736 0
M  V30 712 C 62.0483 5.11154 1.44551 0
M  V30 713 C 61.0873 6.08015 0.70599 0
M  V30 714 N 60.2243 6.82376 1.65251 0
M  V30 715 H 65.0643 2.92727 -0.558127 0
M  V30 716 H 62.6013 1.44272 -0.287056 0
M  V30 717 H 64.5593 3.77711 1.77172 0
M  V30 718 H 63.1893 2.63916 1.85872 0
M  V30 719 H 62.2413 3.79458 -0.267594 0
M  V30 720 H 63.5533 4.98626 -0.131686 0
M  V30 721 H 62.7073 5.68533 2.11791 0
M  V30 722 H 61.4463 4.42158 2.05786 0
M  V30 723 H 60.4513 5.49796 0.0197725 0
M  V30 724 H 61.6763 6.79028 0.09912 0
M  V30 725 H 59.6223 6.16094 2.25308 0
M  V30 726 H 59.5393 7.47556 1.12673 0
M  V30 727 H 60.8073 7.44316 2.31546 0
M  V30 728 N 65.0364 0.313813 1.54444 0
M  V30 729 C 66.2824 -0.292108 2.00685 0
M  V30 730 C 66.6154 -1.52548 1.20177 0
M  V30 731 O 65.8904 -1.92452 0.281531 0
M  V30 732 C 66.1734 -0.635968 3.5444 0
M  V30 733 C 66.0264 0.607437 4.4568 0
M  V30 734 C 67.3454 -1.45747 4.15266 0
M  V30 735 H 64.4644 -0.104697 0.729526 0
M  V30 736 H 67.1064 0.428457 1.85106 0
M  V30 737 H 65.2564 -1.24986 3.67846 0
M  V30 738 H 66.9284 1.24581 4.44159 0
M  V30 739 H 65.1714 1.23822 4.15753 0
M  V30 740 H 65.8424 0.322515 5.51057 0
M  V30 741 H 68.3184 -0.938645 4.05375 0
M  V30 742 H 67.1944 -1.66683 5.2298 0
M  V30 743 H 67.4554 -2.45063 3.67963 0
M  V30 744 N 66.5145 -1.57545 0.0417849 0
M  V30 745 C 67.4645 -2.07483 -0.945247 0
M  V30 746 C 68.4485 -0.977983 -1.27767 0
M  V30 747 O 69.6405 -1.24142 -1.26166 0
M  V30 748 C 66.7695 -2.61576 -2.22335 0
M  V30 749 C 65.8555 -3.78213 -1.91874 0
M  V30 750 N 66.2465 -4.88344 -1.31733 0
M  V30 751 C 64.5445 -3.8694 -2.21796 0
M  V30 752 C 65.2455 -5.69462 -1.1869 0
M  V30 753 N 64.2215 -5.16771 -1.68666 0
M  V30 754 H 68.0235 -2.90029 -0.475441 0
M  V30 755 H 65.5375 -1.61581 -0.162911 0
M  V30 756 H 67.5345 -2.95651 -2.93932 0
M  V30 757 H 66.1945 -1.80465 -2.69931 0
M  V30 758 H 67.2055 -5.08335 -0.990729 0
M  V30 759 H 63.8825 -3.16757 -2.71977 0
M  V30 760 H 65.2725 -6.68023 -0.720793 0
M  V30 761 N 67.9926 0.231505 -1.5589 0
M  V30 762 C 68.9396 1.28682 -1.91598 0
M  V30 763 C 69.9096 1.47071 -0.771974 0
M  V30 764 O 71.0946 1.60802 -1.027 0
M  V30 765 C 68.2346 2.6342 -2.22944 0
M  V30 766 C 67.3476 2.52912 -3.50228 0
M  V30 767 C 66.4826 3.80106 -3.7107 0
M  V30 768 C 65.5216 3.64279 -4.91902 0
M  V30 769 N 64.6586 4.834 -5.09184 0
M  V30 770 H 69.4986 0.975305 -2.81588 0
M  V30 771 H 67.0356 0.470299 -1.39379 0
M  V30 772 H 68.9936 3.41869 -2.39126 0
M  V30 773 H 67.6236 2.92687 -1.36139 0
M  V30 774 H 66.6756 1.6595 -3.42294 0
M  V30 775 H 67.9876 2.37133 -4.38827 0
M  V30 776 H 67.1416 4.66999 -3.87295 0
M  V30 777 H 65.8806 3.98799 -2.80733 0
M  V30 778 H 64.8856 2.7577 -4.75637 0
M  V30 779 H 66.1106 3.47067 -5.83714 0
M  V30 780 H 64.0566 5.02425 -4.21788 0
M  V30 781 H 63.9736 4.70311 -5.91898 0
M  V30 782 H 65.2416 5.71747 -5.29835 0
M  V30 783 N 69.4707 1.49531 0.497807 0
M  V30 784 C 70.4177 1.66436 1.59899 0
M  V30 785 C 71.3877 0.505793 1.58212 0
M  V30 786 O 72.5727 0.733202 1.7615 0
M  V30 787 C 69.7127 1.7399 2.98029 0
M  V30 788 C 68.8257 3.01172 3.09708 0
M  V30 789 C 67.9607 2.99686 4.38591 0
M  V30 790 C 66.9997 4.21434 4.43914 0
M  V30 791 N 66.1367 4.1784 5.64229 0
M  V30 792 H 70.9767 2.60459 1.44793 0
M  V30 793 H 68.5137 1.29137 0.704423 0
M  V30 794 H 70.4717 1.76352 3.78095 0
M  V30 795 H 69.1017 0.834301 3.11832 0
M  V30 796 H 68.1537 3.08408 2.22685 0
M  V30 797 H 69.4657 3.91165 3.09502 0
M  V30 798 H 68.6197 3.00628 5.2698 0
M  V30 799 H 67.3587 2.07477 4.41367 0
M  V30 800 H 66.3637 4.20733 3.53926 0
M  V30 801 H 67.5887 5.14839 4.42851 0
M  V30 802 H 65.5347 3.28469 5.67841 0
M  V30 803 H 65.4517 5.01571 5.65652 0
M  V30 804 H 66.7197 4.22889 6.54817 0
M  V30 805 N 70.9488 -0.749086 1.3866 0
M  V30 806 C 72.2258 -1.4992 1.25632 0
M  V30 807 C 72.6058 -2.10633 -0.140317 0
M  V30 808 O 71.9538 -1.97437 -1.15025 0
M  V30 809 C 72.1638 -2.56195 2.36992 0
M  V30 810 C 73.5118 -3.22972 2.75634 0
M  V30 811 O 74.5358 -2.66502 2.36337 0
M  V30 812 O 73.3948 -4.25122 3.43415 0
M  V30 813 H 70.4888 -0.665067 0.491544 0
M  V30 814 H 73.0348 -0.784113 1.50498 0
M  V30 815 H 71.8068 -2.09612 3.30422 0
M  V30 816 H 71.4298 -3.35279 2.13714 0
M  V30 817 N 72.4269 -1.23603 -0.977757 0
M  V30 818 C 73.3769 -0.986664 -2.05545 0
M  V30 819 C 74.3609 0.0683009 -1.60755 0
M  V30 820 O 75.5529 -0.144162 -1.76412 0
M  V30 821 C 72.6819 -0.582623 -3.3832 0
M  V30 822 C 71.7679 -1.67313 -3.89701 0
M  V30 823 N 72.1589 -2.90394 -4.14132 0
M  V30 824 C 70.4569 -1.54832 -4.18262 0
M  V30 825 C 71.1579 -3.61017 -4.56116 0
M  V30 826 N 70.1339 -2.8854 -4.60701 0
M  V30 827 H 73.9359 -1.92139 -2.22396 0
M  V30 828 H 71.4499 -1.1358 -1.16074 0
M  V30 829 H 73.4469 -0.38524 -4.15116 0
M  V30 830 H 72.1069 0.34503 -3.22862 0
M  V30 831 H 73.1179 -3.26673 -4.01877 0
M  V30 832 H 69.7949 -0.687969 -4.11793 0
M  V30 833 H 71.1849 -4.66544 -4.83514 0
M  V30 834 N 73.905 1.17692 -1.04816 0
M  V30 835 C 74.855 2.1952 -0.616042 0
M  V30 836 C 75.839 1.57147 0.345485 0
M  V30 837 O 77.031 1.76245 0.163325 0
M  V30 838 C 74.16 3.43298 0.0116917 0
M  V30 839 C 73.246 4.12777 -0.973435 0
M  V30 840 N 73.637 4.5814 -2.14339 0
M  V30 841 C 71.935 4.38747 -0.80108 0
M  V30 842 C 72.636 5.11713 -2.7663 0
M  V30 843 N 71.612 5.03686 -2.04453 0
M  V30 844 H 75.414 2.52293 -1.5075 0
M  V30 845 H 72.928 1.3398 -0.917776 0
M  V30 846 H 74.925 4.15519 0.339006 0
M  V30 847 H 73.585 3.12018 0.898593 0
M  V30 848 H 74.596 4.52349 -2.52191 0
M  V30 849 H 71.273 4.17485 0.0350934 0
M  V30 850 H 72.663 5.56962 -3.75823 0
M  V30 851 N 75.3831 0.828654 1.34056 0
M  V30 852 C 76.6081 0.431637 2.02859 0
M  V30 853 C 77.0331 -0.956339 1.61975 0
M  V30 854 O 76.3911 -1.62338 0.807228 0
M  V30 855 C 76.4391 0.548323 3.56407 0
M  V30 856 O 75.5431 -0.429556 4.10157 0
M  V30 857 H 74.8841 0.176886 0.640006 0
M  V30 858 H 77.4141 1.12066 1.71179 0
M  V30 859 H 77.4241 0.426196 4.05768 0
M  V30 860 H 76.0991 1.5606 3.8551 0
M  V30 861 H 74.6761 -0.265836 3.71951 0
M  V30 862 N 76.8612 -1.46375 0.584142 0
M  V30 863 C 77.8112 -2.27371 -0.169232 0
M  V30 864 C 78.7952 -1.35955 -0.860523 0
M  V30 865 O 79.9872 -1.60119 -0.754382 0
M  V30 866 C 77.1162 -3.22334 -1.18134 0
M  V30 867 C 76.2022 -4.21235 -0.492088 0
M  V30 868 N 76.5932 -5.03766 0.453129 0
M  V30 869 C 74.8912 -4.39773 -0.742652 0
M  V30 870 C 75.5922 -5.75366 0.85609 0
M  V30 871 N 74.5682 -5.43214 0.204926 0
M  V30 872 H 78.3702 -2.88572 0.557097 0
M  V30 873 H 75.8842 -1.57242 0.406042 0
M  V30 874 H 77.8812 -3.79071 -1.73525 0
M  V30 875 H 76.5412 -2.62693 -1.90847 0
M  V30 876 H 77.5522 -5.11227 0.828723 0
M  V30 877 H 74.2292 -3.91279 -1.45625 0
M  V30 878 H 75.6192 -6.5172 1.63434 0
M  V30 879 N 78.3393 -0.321999 -1.54275 0
M  V30 880 C 79.7553 0.0306999 -1.5957 0
M  V30 881 C 79.9553 1.50614 -1.33857 0
M  V30 882 O 79.0113 2.2619 -1.12223 0
M  V30 883 C 80.3243 -0.386122 -2.98211 0
M  V30 884 C 81.8723 -0.336647 -3.11184 0
M  V30 885 C 82.3473 -0.728607 -4.52167 0
M  V30 886 N 83.8383 -0.681952 -4.58152 0
M  V30 887 C 84.5733 -0.957449 -5.6535 0
M  V30 888 N 84.0693 -1.3 -6.80494 0
M  V30 889 N 85.8623 -0.883113 -5.55119 0
M  V30 890 H 78.0133 -1.28332 -1.69247 0
M  V30 891 H 80.2763 -0.521716 -0.791528 0
M  V30 892 H 79.9823 -1.41404 -3.22022 0
M  V30 893 H 79.8563 0.249662 -3.76373 0
M  V30 894 H 82.2433 0.682058 -2.8711 0
M  V30 895 H 82.3243 -1.00734 -2.3513 0
M  V30 896 H 81.9683 -1.74522 -4.76974 0
M  V30 897 H 81.8983 -0.0356152 -5.26588 0
M  V30 898 H 84.3893 -0.428985 -3.75457 0
M  V30 899 H 84.7023 -1.49563 -7.58189 0
M  V30 900 H 83.0473 -1.33824 -6.81994 0
M  V30 901 H 86.2383 -0.615001 -4.64042 0
M  V30 902 H 86.4113 -1.10118 -6.38575 0
M  V30 903 N 79.8174 1.5752 -0.0501392 0
M  V30 904 C 81.0654 1.9227 0.622642 0
M  V30 905 C 81.3864 0.929083 1.71444 0
M  V30 906 O 80.6564 -0.0262186 1.95882 0
M  V30 907 H 79.2364 0.709739 0.232981 0
M  V30 908 H 81.8984 1.94628 -0.102898 0
M  V30 909 H 80.9944 2.93479 1.06191 0
M  V30 910 N 81.2955 -0.223234 1.56011 0
M  V30 911 C 82.2255 -1.27988 1.95298 0
M  V30 912 C 83.2065 -1.48976 0.820979 0
M  V30 913 O 84.3915 -1.61188 1.08315 0
M  V30 914 C 81.5215 -2.63 2.26822 0
M  V30 915 C 80.4755 -2.56671 3.42497 0
M  V30 916 C 79.8015 -3.95697 3.59622 0
M  V30 917 C 81.1015 -2.11601 4.77517 0
M  V30 918 H 82.7955 -0.953525 2.8381 0
M  V30 919 H 80.3415 -0.457244 1.36548 0
M  V30 920 H 82.2945 -3.37077 2.52898 0
M  V30 921 H 81.0185 -2.9732 1.35161 0
M  V30 922 H 79.6775 -1.85051 3.16467 0
M  V30 923 H 79.3255 -4.27322 2.6534 0
M  V30 924 H 79.0255 -3.92345 4.37424 0
M  V30 925 H 80.5495 -4.71438 3.88044 0
M  V30 926 H 81.9635 -2.7542 5.02809 0
M  V30 927 H 80.3605 -2.19311 5.5859 0
M  V30 928 H 81.4305 -1.06824 4.72987 0
M  V30 929 N 82.7736 -1.49793 -0.48987 0
M  V30 930 C 83.7036 -1.70201 -1.59856 0
M  V30 931 C 84.6846 -0.55076 -1.60937 0
M  V30 932 O 85.8696 -0.787841 -1.77501 0
M  V30 933 C 82.9996 -1.77882 -2.98287 0
M  V30 934 C 81.9536 -2.92907 -3.12073 0
M  V30 935 C 81.2796 -2.85712 -4.51965 0
M  V30 936 C 82.5796 -4.3369 -2.91051 0
M  V30 937 H 84.2736 -2.63025 -1.43032 0
M  V30 938 H 81.8196 -1.26574 -0.686664 0
M  V30 939 H 83.7726 -1.90744 -3.75759 0
M  V30 940 H 82.4966 -0.816653 -3.16225 0
M  V30 941 H 81.1556 -2.79665 -2.37029 0
M  V30 942 H 80.8036 -1.8738 -4.66795 0
M  V30 943 H 80.5036 -3.62921 -4.62128 0
M  V30 944 H 82.0276 -3.00598 -5.31482 0
M  V30 945 H 83.4416 -4.47555 -3.58284 0
M  V30 946 H 81.8386 -5.12205 -3.12675 0
M  V30 947 H 82.9086 -4.47362 -1.87071 0
M  V30 948 N 84.2517 0.741722 -1.39055 0
M  V30 949 C 85.1847 1.86416 -1.31622 0
M  V30 950 C 86.1627 1.61473 -0.191076 0
M  V30 951 O 87.3467 1.84825 -0.370399 0
M  V30 952 C 84.4737 3.22266 -1.04221 0
M  V30 953 C 83.5197 3.66079 -2.18834 0
M  V30 954 S 84.3527 3.7623 -3.81066 0
M  V30 955 C 85.5087 5.14881 -3.55877 0
M  V30 956 H 85.7417 1.92437 -2.26617 0
M  V30 957 H 83.2747 0.905907 -1.25031 0
M  V30 958 H 85.2327 4.00714 -0.890964 0
M  V30 959 H 83.8937 3.1391 -0.109237 0
M  V30 960 H 83.0867 4.64648 -1.95238 0
M  V30 961 H 82.6887 2.94817 -2.30128 0
M  V30 962 H 84.9807 6.01006 -3.12726 0
M  V30 963 H 85.9237 5.43503 -4.53884 0
M  V30 964 H 86.3317 4.84239 -2.90126 0
M  V30 965 N 85.7298 1.2412 0.971189 0
M  V30 966 C 86.6628 0.97373 2.06382 0
M  V30 967 C 87.6408 -0.0912662 1.62344 0
M  V30 968 O 88.8248 0.0449365 1.88446 0
M  V30 969 C 85.9518 0.468746 3.35441 0
M  V30 970 C 84.9978 1.52176 3.98428 0
M  V30 971 S 85.8308 3.10203 4.36503 0
M  V30 972 C 86.9868 2.61398 5.68702 0
M  V30 973 H 87.2198 1.89893 2.28753 0
M  V30 974 H 84.7528 1.07466 1.10862 0
M  V30 975 H 86.7108 0.184012 4.10087 0
M  V30 976 H 85.3718 -0.435688 3.11064 0
M  V30 977 H 84.5648 1.11876 4.91426 0
M  V30 978 H 84.1668 1.75632 3.30196 0
M  V30 979 H 86.4588 2.03992 6.4606 0
M  V30 980 H 87.4018 3.52972 6.13854 0
M  V30 981 H 87.8098 2.01941 5.27143 0
M  V30 982 N 87.2079 -1.17134 1.05439 0
M  V30 983 C 88.4539 -1.87733 0.767077 0
M  V30 984 C 88.7869 -1.8098 -0.704253 0
M  V30 985 O 88.0619 -1.21951 -1.5152 0
M  V30 986 C 88.3449 -3.37659 1.25133 0
M  V30 987 C 88.1979 -3.53149 2.78578 0
M  V30 988 C 89.5169 -4.31768 0.852324 0
M  V30 989 H 86.6359 -0.681687 0.280129 0
M  V30 990 H 89.2779 -1.37732 1.30881 0
M  V30 991 H 87.4279 -3.80373 0.790469 0
M  V30 992 H 89.0999 -3.19434 3.32806 0
M  V30 993 H 87.3429 -2.95345 3.17732 0
M  V30 994 H 88.0139 -4.58403 3.07523 0
M  V30 995 H 90.4899 -3.96909 1.24911 0
M  V30 996 H 89.3659 -5.35199 1.21873 0
M  V30 997 H 89.6269 -4.41429 -0.243485 0
M  V30 998 N 88.686 -0.835752 -1.33615 0
M  V30 999 C 89.934 -0.429109 -1.97492 0
M  V30 1000 C 90.255 1.01433 -1.66543 0
M  V30 1001 O 89.525 1.70611 -0.962744 0
M  V30 1002 H 88.105 -0.155686 -0.730596 0
M  V30 1003 H 90.767 -1.06802 -1.63031 0
M  V30 1004 H 89.863 -0.55861 -3.0706 0
M  V30 1005 N 90.1641 1.46063 -0.591896 0
M  V30 1006 C 91.0961 2.28539 0.174001 0
M  V30 1007 C 92.1091 1.39047 0.846753 0
M  V30 1008 O 93.2981 1.63564 0.714774 0
M  V30 1009 C 90.3981 3.14347 1.26645 0
M  V30 1010 C 89.5711 4.32021 0.683856 0
M  V30 1011 C 88.6301 4.99157 1.66518 0
M  V30 1012 O 87.6561 5.56458 1.19763 0
M  V30 1013 N 88.8581 4.97005 2.99943 0
M  V30 1014 H 91.6231 2.94911 -0.533633 0
M  V30 1015 H 89.1841 1.56077 -0.430294 0
M  V30 1016 H 91.1761 3.56125 1.92242 0
M  V30 1017 H 89.7461 2.49988 1.87682 0
M  V30 1018 H 88.9661 3.93915 -0.1498 0
M  V30 1019 H 90.2541 5.08059 0.274567 0
M  V30 1020 H 89.6521 4.51714 3.40545 0
M  V30 1021 H 88.2091 5.42696 3.61004 0
M  V30 1022 N 91.6422 0.330177 1.54103 0
M  V30 1023 C 93.0582 -0.0222371 1.59585 0
M  V30 1024 C 93.2582 -1.49902 1.34654 0
M  V30 1025 O 92.3142 -2.25592 1.13421 0
M  V30 1026 C 93.6272 0.401932 2.98002 0
M  V30 1027 C 95.1752 0.353145 3.11001 0
M  V30 1028 C 95.6502 0.752576 4.51775 0
M  V30 1029 N 97.1412 0.706239 4.57784 0
M  V30 1030 C 97.8762 0.987417 5.64834 0
M  V30 1031 N 97.3722 1.33607 6.79795 0
M  V30 1032 N 99.1652 0.91254 5.54643 0
M  V30 1033 H 91.3162 1.29228 1.68564 0
M  V30 1034 H 93.5792 0.525906 0.78875 0
M  V30 1035 H 93.2852 1.4311 3.21267 0
M  V30 1036 H 93.1592 -0.229699 3.765 0
M  V30 1037 H 95.5462 -0.666822 2.87467 0
M  V30 1038 H 95.6272 1.0198 2.34593 0
M  V30 1039 H 95.2712 1.77049 4.76042 0
M  V30 1040 H 95.2012 0.0635409 5.26562 0
M  V30 1041 H 97.6922 0.44889 3.75224 0
M  V30 1042 H 98.0052 1.53582 7.57385 0
M  V30 1043 H 96.3502 1.37439 6.81275 0
M  V30 1044 H 99.5412 0.639601 4.6371 0
M  V30 1045 H 99.7142 1.13503 6.37982 0
M  V30 1046 N 93.1203 -1.57491 0.0584922 0
M  V30 1047 C 94.5363 -1.56792 -0.298091 0
M  V30 1048 C 94.7363 -1.06679 -1.70944 0
M  V30 1049 O 93.7923 -0.726672 -2.41818 0
M  V30 1050 C 95.1053 -3.00461 -0.119879 0
M  V30 1051 C 96.6533 -3.1242 -0.190428 0
M  V30 1052 C 97.1283 -4.57982 -0.0406567 0
M  V30 1053 N 98.6193 -4.63099 -0.0966958 0
M  V30 1054 C 99.3543 -5.734 -0.00502943 0
M  V30 1055 N 98.8503 -6.9266 0.139402 0
M  V30 1056 N 100.643 -5.62067 -0.0611391 0
M  V30 1057 H 92.7943 -1.88386 0.98105 0
M  V30 1058 H 95.0573 -0.867865 0.381463 0
M  V30 1059 H 94.7633 -3.41187 0.85349 0
M  V30 1060 H 94.6373 -3.66843 -0.877833 0
M  V30 1061 H 97.0243 -2.71589 -1.15427 0
M  V30 1062 H 97.1053 -2.48702 0.598405 0
M  V30 1063 H 96.7493 -4.995 0.919897 0
M  V30 1064 H 96.6793 -5.19715 -0.848727 0
M  V30 1065 H 99.1703 -3.77331 -0.207277 0
M  V30 1066 H 99.4833 -7.72536 0.201855 0
M  V30 1067 H 97.8283 -6.94781 0.174586 0
M  V30 1068 H 101.019 -4.67782 -0.172583 0
M  V30 1069 H 101.192 -6.47999 0.0137562 0
M  V30 1070 N 94.5984 0.214957 -1.56127 0
M  V30 1071 C 96.0144 0.564948 -1.49267 0
M  V30 1072 C 96.2144 1.86827 -0.754838 0
M  V30 1073 O 95.2704 2.50745 -0.297198 0
M  V30 1074 C 96.5834 0.638071 -2.93852 0
M  V30 1075 C 98.1314 0.728253 -3.0441 0
M  V30 1076 C 98.6064 0.832663 -4.50367 0
M  V30 1077 N 100.097 0.896712 -4.54437 0
M  V30 1078 C 100.832 0.997324 -5.6466 0
M  V30 1079 N 100.328 1.06147 -6.8462 0
M  V30 1080 N 102.121 1.03297 -5.52527 0
M  V30 1081 H 94.2724 -0.640211 -2.02522 0
M  V30 1082 H 96.5354 -0.225507 -0.920788 0
M  V30 1083 H 96.2414 -0.250126 -3.50809 0
M  V30 1084 H 96.1154 1.49947 -3.46115 0
M  V30 1085 H 98.5024 1.60689 -2.47514 0
M  V30 1086 H 98.5834 -0.158952 -2.55306 0
M  V30 1087 H 98.2274 -0.0415417 -5.07883 0
M  V30 1088 H 98.1574 1.73538 -4.97184 0
M  V30 1089 H 100.648 0.857188 -3.6805 0
M  V30 1090 H 100.961 1.1382 -7.64372 0
M  V30 1091 H 99.3064 1.03049 -6.87318 0
M  V30 1092 H 102.497 0.979558 -4.57736 0
M  V30 1093 H 102.67 1.10793 -6.38458 0
M  V30 1094 N 96.0765 1.50051 0.48192 0
M  V30 1095 C 97.0065 1.71046 1.58951 0
M  V30 1096 C 97.9875 0.559288 1.60642 0
M  V30 1097 O 99.1725 0.797243 1.77081 0
M  V30 1098 C 96.3025 1.79462 2.97339 0
M  V30 1099 C 95.2565 2.94558 3.10515 0
M  V30 1100 C 94.5825 2.88105 4.50444 0
M  V30 1101 C 95.8825 4.35227 2.88747 0
M  V30 1102 H 97.5765 2.6378 1.41635 0
M  V30 1103 H 95.1225 1.26936 0.679942 0
M  V30 1104 H 97.0755 1.92734 3.74742 0
M  V30 1105 H 95.7995 0.833412 3.15788 0
M  V30 1106 H 94.4585 2.80918 2.35543 0
M  V30 1107 H 94.1065 1.89853 4.65795 0
M  V30 1108 H 93.8065 3.65366 4.60197 0
M  V30 1109 H 95.3305 3.03412 5.29881 0
M  V30 1110 H 96.7445 4.49449 3.55905 0
M  V30 1111 H 95.1415 5.13856 3.09955 0
M  V30 1112 H 96.2115 4.48347 1.84696 0
M  V30 1113 N 97.5546 -0.734337 1.39446 0
M  V30 1114 C 98.4846 -1.86155 1.40955 0
M  V30 1115 C 99.4656 -1.67898 0.272827 0
M  V30 1116 O 100.651 -1.88207 0.478743 0
M  V30 1117 C 97.7806 -3.23912 1.25294 0
M  V30 1118 C 96.7346 -3.56808 2.36373 0
M  V30 1119 C 96.0606 -4.93508 2.058 0
M  V30 1120 C 97.3606 -3.59713 3.78687 0
M  V30 1121 H 99.0546 -1.8515 2.35287 0
M  V30 1122 H 96.6006 -0.889367 1.13253 0
M  V30 1123 H 98.5536 -4.02443 1.2497 0
M  V30 1124 H 97.2776 -3.25446 0.274308 0
M  V30 1125 H 95.9366 -2.80606 2.35914 0
M  V30 1126 H 95.5846 -4.91623 1.06374 0
M  V30 1127 H 95.2846 -5.16486 2.80208 0
M  V30 1128 H 96.8086 -5.74396 2.07128 0
M  V30 1129 H 98.2226 -4.2832 3.81071 0
M  V30 1130 H 96.6196 -3.94209 4.52459 0
M  V30 1131 H 97.6896 -2.59504 4.09617 0
M  V30 1132 N 99.0327 -1.24633 -0.964593 0
M  V30 1133 C 100.449 -1.01239 -1.2338 0
M  V30 1134 C 100.649 0.2769 -1.99588 0
M  V30 1135 O 99.7047 0.992241 -2.32187 0
M  V30 1136 C 101.018 -2.22937 -2.01791 0
M  V30 1137 C 102.566 -2.27594 -2.14872 0
M  V30 1138 C 103.041 -3.48921 -2.96678 0
M  V30 1139 N 104.532 -3.49257 -3.04259 0
M  V30 1140 C 105.267 -4.39795 -3.67924 0
M  V30 1141 N 104.763 -5.40591 -4.33281 0
M  V30 1142 N 106.556 -4.275 -3.64966 0
M  V30 1143 H 98.7067 -2.0748 -0.454502 0
M  V30 1144 H 100.97 -0.910647 -0.26349 0
M  V30 1145 H 100.676 -3.16587 -1.53184 0
M  V30 1146 H 100.55 -2.25306 -3.02518 0
M  V30 1147 H 102.937 -1.34473 -2.6268 0
M  V30 1148 H 103.018 -2.2925 -1.13482 0
M  V30 1149 H 102.662 -4.42359 -2.49562 0
M  V30 1150 H 102.592 -3.4451 -3.98272 0
M  V30 1151 H 105.083 -2.76337 -2.57771 0
M  V30 1152 H 105.396 -6.05904 -4.79687 0
M  V30 1153 H 103.741 -5.44475 -4.3194 0
M  V30 1154 H 106.932 -3.47987 -3.13086 0
M  V30 1155 H 107.105 -4.98258 -4.14298 0
M  V30 1156 N 100.511 1.16574 -1.06058 0
M  V30 1157 C 101.741 1.90675 -0.795397 0
M  V30 1158 C 102.149 1.77547 0.653735 0
M  V30 1159 O 101.492 1.11611 1.45907 0
M  V30 1160 C 101.554 3.42011 -1.10764 0
M  V30 1161 C 101.218 3.78924 -2.55471 0
M  V30 1162 C 102.215 3.81042 -3.53699 0
M  V30 1163 C 99.8998 4.09626 -2.90708 0
M  V30 1164 C 101.894 4.13346 -4.85205 0
M  V30 1165 C 99.5808 4.41597 -4.22416 0
M  V30 1166 C 100.579 4.43436 -5.19474 0
M  V30 1167 O 100.267 4.74649 -6.48817 0
M  V30 1168 H 99.9988 0.611554 -0.288058 0
M  V30 1169 H 102.553 1.48711 -1.41683 0
M  V30 1170 H 100.783 3.84312 -0.429128 0
M  V30 1171 H 102.472 3.97384 -0.827077 0
M  V30 1172 H 103.238 3.57437 -3.27817 0
M  V30 1173 H 99.1168 4.07361 -2.15819 0
M  V30 1174 H 102.661 4.14696 -5.60957 0
M  V30 1175 H 98.5578 4.64667 -4.48056 0
M  V30 1176 H 99.3258 4.9247 -6.5377 0
M  V30 1177 N 101.989 0.842826 1.3317 0
M  V30 1178 C 102.919 0.294028 2.31641 0
M  V30 1179 C 103.9 -0.600401 1.59151 0
M  V30 1180 O 105.085 -0.523124 1.87022 0
M  V30 1181 C 102.215 -0.528416 3.43257 0
M  V30 1182 C 101.169 0.27056 4.27144 0
M  V30 1183 C 100.495 -0.675881 5.30411 0
M  V30 1184 C 101.795 1.48981 5.00602 0
M  V30 1185 H 103.489 1.11681 2.77791 0
M  V30 1186 H 101.035 0.538478 1.33553 0
M  V30 1187 H 102.988 -0.922674 4.11175 0
M  V30 1188 H 101.712 -1.38445 2.95805 0
M  V30 1189 H 100.371 0.646427 3.60856 0
M  V30 1190 H 100.019 -1.52842 4.79216 0
M  V30 1191 H 99.7189 -0.145374 5.8742 0
M  V30 1192 H 101.243 -1.06757 6.01195 0
M  V30 1193 H 102.657 1.16849 5.61266 0
M  V30 1194 H 101.054 1.95739 5.6728 0
M  V30 1195 H 102.124 2.25746 4.29147 0
M  V30 1196 N 103.467 -1.45747 0.599634 0
M  V30 1197 C 104.399 -2.28628 -0.161879 0
M  V30 1198 C 105.412 -1.39494 -0.839367 0
M  V30 1199 O 106.601 -1.63941 -0.706089 0
M  V30 1200 C 103.701 -3.15014 -1.24976 0
M  V30 1201 C 102.874 -4.32378 -0.660935 0
M  V30 1202 C 101.933 -5.00033 -1.63869 0
M  V30 1203 O 100.959 -5.57085 -1.1681 0
M  V30 1204 N 102.161 -4.98589 -2.97303 0
M  V30 1205 H 104.926 -2.94624 0.549265 0
M  V30 1206 H 102.487 -1.55847 0.438565 0
M  V30 1207 H 104.479 -3.5714 -1.9035 0
M  V30 1208 H 103.049 -2.5098 -1.86354 0
M  V30 1209 H 102.269 -3.9383 0.170688 0
M  V30 1210 H 103.557 -5.08197 -0.247619 0
M  V30 1211 H 102.955 -4.53514 -3.38145 0
M  V30 1212 H 101.512 -5.44603 -3.58121 0
M  V30 1213 N 104.945 -0.338344 -1.53925 0
M  V30 1214 C 106.361 0.0137736 -1.59594 0
M  V30 1215 C 106.561 1.49186 -1.35447 0
M  V30 1216 O 105.617 2.24987 -1.14616 0
M  V30 1217 C 106.93 -0.41773 -2.97784 0
M  V30 1218 C 108.478 -0.369633 -3.1081 0
M  V30 1219 C 108.953 -0.776524 -4.51369 0
M  V30 1220 N 110.444 -0.730506 -4.57403 0
M  V30 1221 C 111.179 -1.01736 -5.64303 0
M  V30 1222 N 110.675 -1.3721 -6.79077 0
M  V30 1223 N 112.468 -0.941942 -5.54151 0
M  V30 1224 H 104.619 -1.3012 -1.67876 0
M  V30 1225 H 106.882 -0.530082 -0.78595 0
M  V30 1226 H 106.588 -1.44811 -3.20504 0
M  V30 1227 H 106.462 0.209729 -3.76616 0
M  V30 1228 H 108.849 0.651568 -2.87817 0
M  V30 1229 H 108.93 -1.03223 -2.34049 0
M  V30 1230 H 108.574 -1.79571 -4.75096 0
M  V30 1231 H 108.504 -0.0914649 -5.26521 0
M  V30 1232 H 110.995 -0.468783 -3.74981 0
M  V30 1233 H 111.308 -1.57597 -7.5656 0
M  V30 1234 H 109.653 -1.4105 -6.80536 0
M  V30 1235 H 112.844 -0.664184 -4.63364 0
M  V30 1236 H 113.017 -1.16884 -6.37371 0
M  V30 1237 N 106.423 1.57458 -0.0668435 0
M  V30 1238 C 107.333 2.15937 0.916975 0
M  V30 1239 C 108.349 1.12123 1.33058 0
M  V30 1240 O 109.525 1.44366 1.40429 0
M  V30 1241 C 106.59 2.70547 2.16807 0
M  V30 1242 C 105.651 3.89215 1.81135 0
M  V30 1243 C 104.884 4.41211 3.0028 0
M  V30 1244 O 105.107 3.92225 4.14144 0
M  V30 1245 O 104.041 5.32605 2.80384 0
M  V30 1246 H 107.867 3.00354 0.449561 0
M  V30 1247 H 105.452 1.48584 0.155949 0
M  V30 1248 H 107.334 3.0557 2.90181 0
M  V30 1249 H 106.009 1.89192 2.62656 0
M  V30 1250 H 104.916 3.59054 1.05028 0
M  V30 1251 H 106.249 4.71848 1.40073 0
M  V30 1252 N 107.901 -0.206675 1.56239 0
M  V30 1253 C 109.178 -0.954051 1.70755 0
M  V30 1254 C 109.558 -2.01841 0.618353 0
M  V30 1255 O 108.906 -2.25444 -0.372434 0
M  V30 1256 C 109.116 -1.551 3.12642 0
M  V30 1257 C 110.464 -2.03757 3.72516 0
M  V30 1258 O 111.488 -1.64965 3.15698 0
M  V30 1259 O 110.347 -2.75103 4.72208 0
M  V30 1260 H 107.441 -0.446636 0.696021 0
M  V30 1261 H 109.987 -0.197283 1.68549 0
M  V30 1262 H 108.759 -0.783212 3.83382 0
M  V30 1263 H 108.382 -2.37291 3.19028 0
M  V30 1264 N 109.379 -1.50304 -0.473955 0
M  V30 1265 C 110.79 -1.54042 -1.0549 0
M  V30 1266 C 111.141 -0.342248 -1.93192 0
M  V30 1267 O 110.266 0.545157 -2.09421 0
M  V30 1268 C 110.861 -2.79152 -1.91989 0
M  V30 1269 C 109.42 -2.8558 -2.45196 0
M  V30 1270 C 108.567 -2.48295 -1.2347 0
M  V30 1271 H 111.518 -1.5661 -0.256693 0
M  V30 1272 H 111.539 -2.60845 -2.7702 0
M  V30 1273 H 111.051 -3.66339 -1.28131 0
M  V30 1274 H 109.152 -2.02738 -3.12615 0
M  V30 1275 H 109.265 -3.88403 -2.80499 0
M  V30 1276 H 107.629 -2.00669 -1.56856 0
M  V30 1277 H 108.412 -3.37787 -0.612789 0
M  V30 1278 N 110.857 0.726932 -1.39834 0
M  V30 1279 C 111.767 1.87131 -1.41489 0
M  V30 1280 C 112.783 1.71239 -0.308757 0
M  V30 1281 O 113.959 1.93701 -0.551529 0
M  V30 1282 C 111.024 3.22811 -1.26468 0
M  V30 1283 C 110.085 3.51039 -2.47124 0
M  V30 1284 C 109.318 4.80245 -2.3281 0
M  V30 1285 O 109.541 5.54537 -1.33585 0
M  V30 1286 O 108.475 5.08554 -3.21957 0
M  V30 1287 H 112.301 1.8869 -2.3797 0
M  V30 1288 H 109.886 0.875837 -1.21035 0
M  V30 1289 H 111.768 4.03877 -1.20255 0
M  V30 1290 H 110.443 3.22005 -0.330862 0
M  V30 1291 H 109.35 2.70027 -2.58914 0
M  V30 1292 H 110.683 3.56632 -3.39227 0
M  V30 1293 N 112.336 1.25143 0.95797 0
M  V30 1294 C 113.752 1.01892 1.22842 0
M  V30 1295 C 113.952 -0.266311 1.99732 0
M  V30 1296 O 113.008 -0.979913 2.3271 0
M  V30 1297 C 114.321 2.24004 2.00606 0
M  V30 1298 C 115.869 2.28731 2.13662 0
M  V30 1299 C 116.344 3.5049 2.94823 0
M  V30 1300 N 117.835 3.50866 3.02403 0
M  V30 1301 C 118.57 4.4174 3.65586 0
M  V30 1302 N 118.066 5.42882 4.30408 0
M  V30 1303 N 119.859 4.29429 3.62694 0
M  V30 1304 H 112.01 2.07718 0.443493 0
M  V30 1305 H 114.273 0.912031 0.258657 0
M  V30 1306 H 113.979 3.17395 1.51503 0
M  V30 1307 H 113.853 2.26907 3.01319 0
M  V30 1308 H 116.24 1.35865 2.61963 0
M  V30 1309 H 116.321 2.29848 1.12265 0
M  V30 1310 H 115.965 4.43676 2.47213 0
M  V30 1311 H 115.895 3.46617 3.96439 0
M  V30 1312 H 118.386 2.777 2.56302 0
M  V30 1313 H 118.699 6.0844 4.76467 0
M  V30 1314 H 117.044 5.46758 4.29047 0
M  V30 1315 H 120.235 3.49643 3.11236 0
M  V30 1316 H 120.408 5.00448 4.1165 0
M  V30 1317 N 113.814 -1.1601 1.06675 0
M  V30 1318 C 115.044 -1.90251 0.805497 0
M  V30 1319 C 115.452 -1.77891 -0.64431 0
M  V30 1320 O 114.795 -1.12383 -1.45313 0
M  V30 1321 C 114.857 -3.41419 1.12576 0
M  V30 1322 C 114.521 -3.77564 2.57477 0
M  V30 1323 C 115.518 -3.79161 3.55715 0
M  V30 1324 C 113.203 -4.08079 2.92877 0
M  V30 1325 C 115.197 -4.10767 4.8739 0
M  V30 1326 C 112.884 -4.39351 4.24751 0
M  V30 1327 C 113.882 -4.40675 5.21818 0
M  V30 1328 O 113.57 -4.71202 6.51325 0
M  V30 1329 H 113.302 -0.610018 0.291297 0
M  V30 1330 H 115.856 -1.47958 1.4247 0
M  V30 1331 H 114.086 -3.84079 0.449503 0
M  V30 1332 H 115.775 -3.9694 0.84814 0
M  V30 1333 H 116.541 -3.55693 3.29708 0
M  V30 1334 H 112.42 -4.06211 2.17976 0
M  V30 1335 H 115.964 -4.11715 5.63148 0
M  V30 1336 H 111.861 -4.62285 4.50514 0
M  V30 1337 H 112.629 -4.88996 6.56373 0
M  V30 1338 N 115.292 -0.849877 -1.32721 0
M  V30 1339 C 116.708 -0.539102 -1.50219 0
M  V30 1340 C 116.908 0.931271 -1.78689 0
M  V30 1341 O 115.964 1.71455 -1.85363 0
M  V30 1342 C 117.277 -1.42196 -2.64954 0
M  V30 1343 C 118.825 -1.42189 -2.78839 0
M  V30 1344 C 119.3 -2.28985 -3.96648 0
M  V30 1345 N 120.791 -2.26754 -4.03902 0
M  V30 1346 C 121.526 -2.90644 -4.94281 0
M  V30 1347 N 121.022 -3.63629 -5.897 0
M  V30 1348 N 122.815 -2.80057 -4.87365 0
M  V30 1349 H 114.966 -1.80156 -1.12506 0
M  V30 1350 H 117.229 -0.769217 -0.554085 0
M  V30 1351 H 116.935 -2.46733 -2.50631 0
M  V30 1352 H 116.809 -1.10591 -3.60624 0
M  V30 1353 H 119.196 -0.38419 -2.92588 0
M  V30 1354 H 119.277 -1.77807 -1.83898 0
M  V30 1355 H 118.921 -3.32819 -3.83658 0
M  V30 1356 H 118.851 -1.90702 -4.90857 0
M  V30 1357 H 121.342 -1.73688 -3.3562 0
M  V30 1358 H 121.655 -4.09558 -6.55349 0
M  V30 1359 H 120 -3.67737 -5.89741 0
M  V30 1360 H 123.191 -2.22593 -4.11789 0
M  V30 1361 H 123.364 -3.30132 -5.57599 0
M  V30 1362 N 116.77 1.45427 -0.607355 0
M  V30 1363 C 117.733 2.28974 0.101693 0
M  V30 1364 C 118.733 1.39754 0.795329 0
M  V30 1365 O 119.923 1.61878 0.643527 0
M  V30 1366 C 117.055 3.20768 1.15414 0
M  V30 1367 H 118.248 2.93147 -0.632844 0
M  V30 1368 H 115.801 1.51945 -0.366391 0
M  V30 1369 H 116.536 2.61395 1.91945 0
M  V30 1370 H 116.321 3.86489 0.66098 0
M  V30 1371 H 117.811 3.83589 1.65073 0
M  V30 1372 N 118.248 0.346503 1.53744 0
M  V30 1373 C 119.178 -0.501193 2.28058 0
M  V30 1374 C 120.159 -1.10014 1.29734 0
M  V30 1375 O 121.344 -1.12097 1.58581 0
M  V30 1376 C 118.474 -1.65078 3.05559 0
M  V30 1377 C 117.428 -1.18003 4.11411 0
M  V30 1378 C 116.754 -2.41837 4.76884 0
M  V30 1379 C 118.054 -0.278394 5.21558 0
M  V30 1380 H 119.748 0.11875 2.99164 0
M  V30 1381 H 117.294 0.0585531 1.43881 0
M  V30 1382 H 119.247 -2.25028 3.56287 0
M  V30 1383 H 117.971 -2.29767 2.32109 0
M  V30 1384 H 116.63 -0.603331 3.61601 0
M  V30 1385 H 116.278 -3.0494 4.00026 0
M  V30 1386 H 115.978 -2.1102 5.48402 0
M  V30 1387 H 117.502 -3.02508 5.30397 0
M  V30 1388 H 118.916 -0.784823 5.67903 0
M  V30 1389 H 117.313 -0.0619707 6.00068 0
M  V30 1390 H 118.383 0.684677 4.80042 0
M  V30 1391 N 119.726 -1.57421 0.075193 0
M  V30 1392 C 120.975 -1.92794 -0.592731 0
M  V30 1393 C 121.288 -0.957478 -1.70563 0
M  V30 1394 O 122.494 -1.20417 -2.43335 0
M  V30 1395 C 120.95 -3.42495 -1.10569 0
M  V30 1396 C 120.558 -4.47994 -0.0236121 0
M  V30 1397 C 122.302 -3.86864 -1.74748 0
M  V30 1398 C 120.209 -5.88829 -0.550803 0
M  V30 1399 H 119.139 -0.719591 -0.225177 0
M  V30 1400 H 121.79 -1.82902 0.147978 0
M  V30 1401 H 120.172 -3.47471 -1.89947 0
M  V30 1402 H 121.346 -4.54637 0.751099 0
M  V30 1403 H 119.661 -4.13113 0.522159 0
M  V30 1404 H 122.258 -4.8947 -2.15229 0
M  V30 1405 H 122.601 -3.24417 -2.60882 0
M  V30 1406 H 123.134 -3.84504 -1.01986 0
M  V30 1407 H 119.873 -6.54929 0.273457 0
M  V30 1408 H 119.393 -5.85698 -1.29296 0
M  V30 1409 H 121.072 -6.38811 -1.02613 0
M  V30 1410 N 121.204 0.198386 -1.56346 0
M  V30 1411 C 122.114 1.2664 -1.97483 0
M  V30 1412 C 123.13 1.49989 -0.882002 0
M  V30 1413 O 124.306 1.62668 -1.18748 0
M  V30 1414 C 121.371 2.59141 -2.30319 0
M  V30 1415 C 120.432 2.43892 -3.53292 0
M  V30 1416 C 119.665 3.70074 -3.84553 0
M  V30 1417 O 119.888 4.74101 -3.1715 0
M  V30 1418 O 118.822 3.658 -4.7799 0
M  V30 1419 H 122.648 0.947304 -2.88548 0
M  V30 1420 H 120.233 0.403123 -1.43859 0
M  V30 1421 H 122.115 3.37352 -2.5253 0
M  V30 1422 H 120.79 2.90684 -1.42423 0
M  V30 1423 H 119.697 1.63803 -3.36332 0
M  V30 1424 H 121.03 2.17282 -4.41644 0
M  V30 1425 N 122.682 1.50554 0.465978 0
M  V30 1426 C 123.629 1.6979 1.56333 0
M  V30 1427 C 124.599 0.539239 1.57103 0
M  V30 1428 O 125.784 0.770401 1.74555 0
M  V30 1429 C 122.924 1.80273 2.94271 0
M  V30 1430 C 122.037 3.07674 3.0325 0
M  V30 1431 C 121.172 3.08922 4.32135 0
M  V30 1432 C 120.211 4.30755 4.34875 0
M  V30 1433 N 119.348 4.29714 5.55239 0
M  V30 1434 H 124.188 2.63472 1.39235 0
M  V30 1435 H 121.725 1.30602 0.676873 0
M  V30 1436 H 123.683 1.84332 3.74269 0
M  V30 1437 H 122.313 0.900258 3.09992 0
M  V30 1438 H 121.365 3.13062 2.16094 0
M  V30 1439 H 122.677 3.97642 3.01135 0
M  V30 1440 H 121.831 3.11738 5.20485 0
M  V30 1441 H 120.57 2.16792 4.36866 0
M  V30 1442 H 119.575 4.28146 3.44922 0
M  V30 1443 H 120.8 5.24117 4.31831 0
M  V30 1444 H 118.746 3.4044 5.60746 0
M  V30 1445 H 118.663 5.13456 5.54886 0
M  V30 1446 H 119.931 4.36683 6.457 0
M  V30 1447 N 124.16 -0.719506 1.40217 0
M  V30 1448 C 125.09 -1.8465 1.42922 0
M  V30 1449 C 126.071 -1.67599 0.29062 0
M  V30 1450 O 127.256 -1.87688 0.498677 0
M  V30 1451 C 124.386 -3.22565 1.28722 0
M  V30 1452 C 123.34 -3.54281 2.40144 0
M  V30 1453 C 122.666 -4.91298 2.11023 0
M  V30 1454 C 123.966 -3.55676 3.82481 0
M  V30 1455 H 125.66 -1.82644 2.37237 0
M  V30 1456 H 123.206 -0.877305 1.1419 0
M  V30 1457 H 125.159 -4.01095 1.29232 0
M  V30 1458 H 123.883 -3.25137 0.308811 0
M  V30 1459 H 122.542 -2.78088 2.38877 0
M  V30 1460 H 122.19 -4.90468 1.11582 0
M  V30 1461 H 121.89 -5.13485 2.8567 0
M  V30 1462 H 123.414 -5.72166 2.13209 0
M  V30 1463 H 124.828 -4.24254 3.85592 0
M  V30 1464 H 123.225 -3.89388 4.56614 0
M  V30 1465 H 124.295 -2.55144 4.12346 0
M  V30 1466 N 125.638 -1.25649 -0.95132 0
M  V30 1467 C 126.886 -1.10375 -1.69298 0
M  V30 1468 C 127.207 0.355339 -1.91735 0
M  V30 1469 O 126.477 1.25188 -1.50681 0
M  V30 1470 H 125.057 -0.405461 -0.627384 0
M  V30 1471 H 127.719 -1.57823 -1.14358 0
M  V30 1472 H 126.815 -1.61465 -2.67087 0
M  V30 1473 N 127.117 1.15442 -1.07289 0
M  V30 1474 C 128.366 1.85557 -0.790669 0
M  V30 1475 C 128.679 1.83186 0.685739 0
M  V30 1476 O 129.885 2.48977 1.0827 0
M  V30 1477 C 128.341 3.33038 -1.36433 0
M  V30 1478 C 127.949 3.43856 -2.8717 0
M  V30 1479 C 129.693 4.0834 -1.1601 0
M  V30 1480 C 127.6 4.85482 -3.3773 0
M  V30 1481 H 126.53 0.695122 -0.292098 0
M  V30 1482 H 129.181 1.30219 -1.29287 0
M  V30 1483 H 127.563 3.88043 -0.789864 0
M  V30 1484 H 128.737 2.98961 -3.50655 0
M  V30 1485 H 127.052 2.81998 -3.06376 0
M  V30 1486 H 129.649 5.12859 -1.51262 0
M  V30 1487 H 129.992 4.16182 -0.0991007 0
M  V30 1488 H 130.525 3.59603 -1.70089 0
M  V30 1489 H 127.264 4.82823 -4.43353 0
M  V30 1490 H 126.784 5.30961 -2.78999 0
M  V30 1491 H 128.463 5.54335 -3.33648 0
M  V30 1492 N 128.595 0.856903 1.32268 0
M  V30 1493 C 130.011 0.547061 1.49931 0
M  V30 1494 C 130.211 -0.921781 1.7918 0
M  V30 1495 O 129.267 -1.70469 1.8627 0
M  V30 1496 C 130.58 1.43599 2.64196 0
M  V30 1497 C 132.128 1.43665 2.78081 0
M  V30 1498 C 132.603 2.31085 3.95428 0
M  V30 1499 N 134.094 2.28893 4.02694 0
M  V30 1500 C 134.829 2.93262 4.92732 0
M  V30 1501 N 134.325 3.66751 5.87763 0
M  V30 1502 N 136.118 2.82638 4.85873 0
M  V30 1503 H 128.269 1.8075 1.11549 0
M  V30 1504 H 130.532 0.772144 0.549997 0
M  V30 1505 H 130.238 2.48058 2.49319 0
M  V30 1506 H 130.112 1.12502 3.60032 0
M  V30 1507 H 132.499 0.399701 2.92381 0
M  V30 1508 H 132.58 1.7878 1.82952 0
M  V30 1509 H 132.224 3.34849 3.81888 0
M  V30 1510 H 132.154 1.93302 4.89839 0
M  V30 1511 H 134.645 1.75466 3.34694 0
M  V30 1512 H 134.958 4.13027 6.53168 0
M  V30 1513 H 133.303 3.70859 5.87783 0
M  V30 1514 H 136.494 2.24774 4.10602 0
M  V30 1515 H 136.667 3.33084 5.55841 0
M  V30 1516 N 130.073 -1.45103 0.615059 0
M  V30 1517 C 131.321 -2.01784 0.112955 0
M  V30 1518 C 131.642 -1.48504 -1.26378 0
M  V30 1519 O 130.912 -0.682245 -1.83636 0
M  V30 1520 H 129.492 -0.745993 0.0387668 0
M  V30 1521 H 132.154 -1.77808 0.798141 0
M  V30 1522 H 131.25 -3.12025 0.0684069 0
M  V30 1523 O 131.59 -0.496846 -1.53667 0
M  V30 1524 H 132.281 0.021856 -1.93688 0
M  V30 END ATOM
M  V30 BEGIN BOND
M  V30 END BOND
M  V30 END CTAB
M  END
$$$$
