drugbank_target|O35000 Glucosamine-6-phosphate deaminase 1 (DB02726; DB04277)
 OpenBabel12092119593D

  0  0  0     0  0            999 V3000
M  V30 BEGIN CTAB
M  V30 COUNTS 3776 3809 0 0 0
M  V30 BEGIN ATOM
M  V30 1 H -0.908 1.98254 -0.117106 0
M  V30 2 N 0 1.576 0 0
M  V30 3 C 0.933 2.03868 1.02534 0
M  V30 4 C 1.911 0.928543 1.3348 0
M  V30 5 O 3.095 1.19667 1.45644 0
M  V30 6 C 0.222 2.43627 2.35294 0
M  V30 7 C -0.732 3.65373 2.2001 0
M  V30 8 S 0.101 5.13292 1.52614 0
M  V30 9 C 1.257 5.56322 2.86805 0
M  V30 10 H 1.49 2.90518 0.631377 0
M  V30 11 H -0.977 1.52953 0.210867 0
M  V30 12 H 0.981 2.67203 3.11629 0
M  V30 13 H -0.358 1.57376 2.7183 0
M  V30 14 H -1.165 3.90944 3.18086 0
M  V30 15 H -1.563 3.418 1.51819 0
M  V30 16 H 0.729 5.58782 3.83104 0
M  V30 17 H 1.672 6.56266 2.65933 0
M  V30 18 H 2.08 4.83886 2.90714 0
M  V30 19 N 1.4781 -0.272755 1.55222 0
M  V30 20 C 2.4251 -1.33716 1.88119 0
M  V30 21 C 3.3951 -1.49066 0.73271 0
M  V30 22 O 4.5801 -1.63469 0.984002 0
M  V30 23 C 1.7201 -2.69238 2.15882 0
M  V30 24 C 0.8331 -2.62108 3.43399 0
M  V30 25 C -0.0319 -3.89811 3.60861 0
M  V30 26 C -0.9929 -3.77193 4.8207 0
M  V30 27 N -1.8559 -4.9673 4.96189 0
M  V30 28 H 2.9841 -1.04962 2.78903 0
M  V30 29 H 0.5211 -0.507088 1.38083 0
M  V30 30 H 2.4791 -3.48089 2.29978 0
M  V30 31 H 1.1091 -2.96194 1.28331 0
M  V30 32 H 0.1611 -1.74967 3.37773 0
M  V30 33 H 1.4731 -2.48685 4.32386 0
M  V30 34 H 0.6271 -4.77103 3.74777 0
M  V30 35 H -0.6339 -4.06102 2.7006 0
M  V30 36 H -1.6289 -2.88284 4.68159 0
M  V30 37 H -0.4039 -3.62421 5.74307 0
M  V30 38 H -2.4579 -5.13431 4.08319 0
M  V30 39 H -2.5409 -4.85839 5.79221 0
M  V30 40 H -1.2729 -5.85594 5.1449 0
M  V30 41 N 2.9562 -1.48159 -0.537278 0
M  V30 42 C 4.2022 -1.56035 -1.29541 0
M  V30 43 C 4.5352 -0.230377 -1.92829 0
M  V30 44 O 3.8102 0.762952 -1.78911 0
M  V30 45 C 4.0932 -2.69323 -2.39034 0
M  V30 46 C 3.9462 -4.12002 -1.80485 0
M  V30 47 C 5.2652 -2.78408 -3.40847 0
M  V30 48 H 2.3842 -0.567992 -0.469632 0
M  V30 49 H 5.0262 -1.80302 -0.599277 0
M  V30 50 H 3.1762 -2.48763 -2.98412 0
M  V30 51 H 4.8482 -4.43981 -1.25215 0
M  V30 52 H 3.0912 -4.19344 -1.11055 0
M  V30 53 H 3.7622 -4.87077 -2.59731 0
M  V30 54 H 6.2382 -2.97012 -2.91416 0
M  V30 55 H 5.1142 -3.59416 -4.14863 0
M  V30 56 H 5.3752 -1.86269 -4.00944 0
M  V30 57 N 4.4343 0.785586 -1.36625 0
M  V30 58 C 5.3673 1.90509 -1.25625 0
M  V30 59 C 6.3453 1.62 -0.139607 0
M  V30 60 O 7.5293 1.8591 -0.31141 0
M  V30 61 C 4.6563 3.25419 -0.939158 0
M  V30 62 C 3.7023 3.72856 -2.07077 0
M  V30 63 S 4.5353 3.88162 -3.68904 0
M  V30 64 C 5.6913 5.25942 -3.39317 0
M  V30 65 H 5.9243 1.99549 -2.20381 0
M  V30 66 H 3.4573 0.945226 -1.22085 0
M  V30 67 H 5.4153 4.03346 -0.763029 0
M  V30 68 H 4.0763 3.14099 -0.00931402 0
M  V30 69 H 3.2693 4.70624 -1.80357 0
M  V30 70 H 2.8713 3.01989 -2.20632 0
M  V30 71 H 5.1633 6.10651 -2.93447 0
M  V30 72 H 6.1063 5.57668 -4.36363 0
M  V30 73 H 6.5143 4.93224 -2.74573 0
M  V30 74 N 5.9124 1.20967 1.01018 0
M  V30 75 C 6.8224 0.980157 2.13143 0
M  V30 76 C 7.8384 -0.0660665 1.73875 0
M  V30 77 O 9.0144 0.122821 2.01025 0
M  V30 78 C 6.0794 0.54216 3.42435 0
M  V30 79 C 5.1404 1.65999 3.95908 0
M  V30 80 C 4.3734 1.2428 5.19028 0
M  V30 81 O 4.5964 0.114196 5.70286 0
M  V30 82 O 3.5304 2.05271 5.65816 0
M  V30 83 H 7.3564 1.91913 2.35379 0
M  V30 84 H 4.9414 0.994099 1.11526 0
M  V30 85 H 6.8234 0.30744 4.20277 0
M  V30 86 H 5.4984 -0.36815 3.216 0
M  V30 87 H 4.4054 1.94906 3.19316 0
M  V30 88 H 5.7384 2.54753 4.21143 0
M  V30 89 N 7.3905 -1.2043 1.01659 0
M  V30 90 C 8.6305 -1.91507 0.714456 0
M  V30 91 C 8.9945 -1.77073 -0.742237 0
M  V30 92 O 10.1955 -2.42631 -1.15688 0
M  V30 93 C 8.4665 -3.38795 1.13809 0
M  V30 94 S 10.0255 -4.28216 0.957925 0
M  V30 95 H 6.8435 -0.661571 0.260471 0
M  V30 96 H 9.4455 -1.45671 1.30384 0
M  V30 97 H 8.1495 -3.46822 2.19415 0
M  V30 98 H 7.6805 -3.89656 0.541474 0
M  V30 99 H 9.6955 -4.96007 -0.138531 0
M  V30 100 N 8.8686 -0.792821 -1.36206 0
M  V30 101 C 9.8006 -0.151469 -2.28699 0
M  V30 102 C 10.8136 0.641262 -1.49638 0
M  V30 103 O 12.0026 0.475885 -1.72039 0
M  V30 104 C 9.1026 0.808424 -3.29117 0
M  V30 105 C 8.2756 0.0650202 -4.37352 0
M  V30 106 C 7.3346 0.941358 -5.17711 0
M  V30 107 O 6.3606 0.397352 -5.67811 0
M  V30 108 N 7.5626 2.2652 -5.3448 0
M  V30 109 H 10.3276 -0.945982 -2.84379 0
M  V30 110 H 7.8886 -0.647032 -1.48409 0
M  V30 111 H 9.8806 1.3986 -3.79765 0
M  V30 112 H 8.4506 1.5038 -2.74052 0
M  V30 113 H 7.6706 -0.706255 -3.87822 0
M  V30 114 H 8.9586 -0.447847 -5.06825 0
M  V30 115 H 8.3566 2.73128 -4.95396 0
M  V30 116 H 6.9136 2.80493 -5.88359 0
M  V30 117 N 10.3467 1.47872 -0.545128 0
M  V30 118 C 11.5747 2.06889 -0.021084 0
M  V30 119 C 11.9897 1.39955 1.2672 0
M  V30 120 O 11.3467 0.492036 1.75742 0
M  V30 121 C 11.3977 3.60996 0.190817 0
M  V30 122 O 11.1187 4.25419 -1.04644 0
M  V30 123 C 12.6197 4.36849 0.753521 0
M  V30 124 H 9.8397 0.669785 -0.0403635 0
M  V30 125 H 12.3837 1.90049 -0.755095 0
M  V30 126 H 10.5387 3.77391 0.87492 0
M  V30 127 H 10.9527 5.17785 -0.836611 0
M  V30 128 H 12.4267 5.45399 0.851139 0
M  V30 129 H 12.9037 4.02306 1.762 0
M  V30 130 H 13.5097 4.25169 0.105503 0
M  V30 131 N 11.8248 0.280983 1.55075 0
M  V30 132 C 13.0548 -0.336804 2.03836 0
M  V30 133 C 13.4628 -1.49577 1.15859 0
M  V30 134 O 12.8058 -1.82888 0.172503 0
M  V30 135 C 12.8678 -0.874616 3.48699 0
M  V30 136 C 12.5318 0.156478 4.56732 0
M  V30 137 C 13.5288 0.978032 5.10618 0
M  V30 138 C 11.2138 0.292409 5.01448 0
M  V30 139 C 13.2078 1.92165 6.07743 0
M  V30 140 C 10.8948 1.23949 5.98398 0
M  V30 141 C 11.8928 2.05261 6.51427 0
M  V30 142 O 11.5808 2.98367 7.4648 0
M  V30 143 H 11.3128 -0.0800885 0.671239 0
M  V30 144 H 13.8668 0.412589 2.01213 0
M  V30 145 H 12.0968 -1.67418 3.4858 0
M  V30 146 H 13.7858 -1.40612 3.80766 0
M  V30 147 H 14.5518 0.883782 4.7688 0
M  V30 148 H 10.4308 -0.330498 4.59814 0
M  V30 149 H 13.9748 2.55672 6.49059 0
M  V30 150 H 9.8718 1.33454 6.31554 0
M  V30 151 H 10.6398 2.93116 7.64215 0
M  V30 152 N 13.3029 -1.57598 0.00835791 0
M  V30 153 C 14.2129 -2.12385 -0.996487 0
M  V30 154 C 15.2289 -1.07108 -1.37127 0
M  V30 155 O 16.4049 -1.39055 -1.4569 0
M  V30 156 C 13.4699 -2.62314 -2.26699 0
M  V30 157 C 12.5309 -3.82225 -1.95456 0
M  V30 158 C 11.7639 -4.29763 -3.16449 0
M  V30 159 O 11.9869 -3.76584 -4.28416 0
M  V30 160 O 10.9209 -5.21832 -2.99958 0
M  V30 161 H 14.7469 -2.98479 -0.560725 0
M  V30 162 H 12.3319 -1.47903 -0.210987 0
M  V30 163 H 14.2139 -2.94589 -3.01322 0
M  V30 164 H 12.8889 -1.79313 -2.69497 0
M  V30 165 H 11.7959 -3.54909 -1.18282 0
M  V30 166 H 13.1289 -4.66324 -1.57489 0
M  V30 167 N 14.781 0.264519 -1.55364 0
M  V30 168 C 15.691 1.34902 -1.91934 0
M  V30 169 C 16.707 1.53595 -0.817593 0
M  V30 170 O 17.883 1.67558 -1.11742 0
M  V30 171 C 14.948 2.68676 -2.19121 0
M  V30 172 C 14.009 2.58657 -3.4263 0
M  V30 173 C 13.242 3.86051 -3.68511 0
M  V30 174 O 13.465 4.87126 -2.96757 0
M  V30 175 O 12.399 3.85744 -4.62045 0
M  V30 176 H 16.225 1.06883 -2.8427 0
M  V30 177 H 13.81 0.463775 -1.42019 0
M  V30 178 H 15.692 3.47759 -2.37995 0
M  V30 179 H 14.367 2.96463 -1.29966 0
M  V30 180 H 13.274 1.7792 -3.29082 0
M  V30 181 H 14.607 2.35818 -4.32031 0
M  V30 182 N 16.2591 1.48442 0.529413 0
M  V30 183 C 17.1891 1.65902 1.64313 0
M  V30 184 C 18.1701 0.507897 1.6234 0
M  V30 185 O 19.3551 0.740503 1.79528 0
M  V30 186 C 16.4851 1.69911 3.02898 0
M  V30 187 C 15.4391 2.8453 3.19729 0
M  V30 188 C 14.7651 2.73629 4.59381 0
M  V30 189 C 16.0651 4.25821 3.02447 0
M  V30 190 H 17.7591 2.5914 1.49955 0
M  V30 191 H 15.3051 1.24709 0.719982 0
M  V30 192 H 17.2581 1.80715 3.80684 0
M  V30 193 H 15.9821 0.732524 3.18279 0
M  V30 194 H 14.6411 2.73283 2.44361 0
M  V30 195 H 14.2891 1.74938 4.71599 0
M  V30 196 H 13.9891 3.50541 4.71588 0
M  V30 197 H 15.5131 2.86401 5.39265 0
M  V30 198 H 16.9271 4.37898 3.70024 0
M  V30 199 H 15.3241 5.03735 3.26146 0
M  V30 200 H 16.3941 4.42244 1.98867 0
M  V30 201 N 17.7372 -0.778329 1.37039 0
M  V30 202 C 18.9622 -1.57248 1.35233 0
M  V30 203 C 19.3872 -1.87999 -0.0615568 0
M  V30 204 O 18.7452 -1.48734 -1.03672 0
M  V30 205 C 18.7932 -2.86353 2.19167 0
M  V30 206 O 17.8972 -3.80442 1.59178 0
M  V30 207 H 17.2382 -0.476569 0.462362 0
M  V30 208 H 19.7682 -0.963853 1.80474 0
M  V30 209 H 19.7782 -3.35519 2.32145 0
M  V30 210 H 18.4532 -2.63299 3.21942 0
M  V30 211 H 17.0302 -3.39067 1.55203 0
M  V30 212 N 19.2153 -1.21501 -1.00376 0
M  V30 213 C 20.1473 -0.933174 -2.09343 0
M  V30 214 C 21.1603 0.0840896 -1.62583 0
M  V30 215 O 22.3493 -0.148563 -1.77881 0
M  V30 216 C 19.4493 -0.379869 -3.36764 0
M  V30 217 C 18.6223 -1.45176 -4.12605 0
M  V30 218 C 17.6813 -0.907476 -5.18316 0
M  V30 219 O 16.7073 -1.5912 -5.46507 0
M  V30 220 N 17.9093 0.276649 -5.7984 0
M  V30 221 H 20.6743 -1.87124 -2.34104 0
M  V30 222 H 18.2353 -1.12043 -1.16867 0
M  V30 223 H 20.2273 -0.00131488 -4.047 0
M  V30 224 H 18.7973 0.463048 -3.09151 0
M  V30 225 H 18.0173 -2.00411 -3.39454 0
M  V30 226 H 19.3053 -2.17328 -4.6005 0
M  V30 227 H 18.7033 0.849147 -5.59291 0
M  V30 228 H 17.2603 0.596702 -6.49063 0
M  V30 229 N 20.6934 1.19889 -1.02296 0
M  V30 230 C 21.9424 1.88743 -0.711257 0
M  V30 231 C 22.2554 1.80112 0.762817 0
M  V30 232 O 23.4614 2.44161 1.18733 0
M  V30 233 C 21.9174 3.38525 -1.22185 0
M  V30 234 C 21.5254 3.55727 -2.72328 0
M  V30 235 C 23.2694 4.12893 -0.985864 0
M  V30 236 C 21.1764 4.99369 -3.16835 0
M  V30 237 H 20.1064 0.706885 -0.262353 0
M  V30 238 H 22.7574 1.35586 -1.23648 0
M  V30 239 H 21.1394 3.91044 -0.624571 0
M  V30 240 H 22.3134 3.13564 -3.3766 0
M  V30 241 H 20.6284 2.94739 -2.9414 0
M  V30 242 H 23.2254 5.18813 -1.29374 0
M  V30 243 H 23.5684 4.16228 0.0775055 0
M  V30 244 H 24.1014 3.66494 -1.54684 0
M  V30 245 H 20.8404 5.01193 -4.22476 0
M  V30 246 H 20.3604 5.42317 -2.56228 0
M  V30 247 H 22.0394 5.67988 -3.09837 0
M  V30 248 N 22.1715 0.800033 1.35784 0
M  V30 249 C 23.1345 0.211565 2.28221 0
M  V30 250 C 24.1345 -0.59728 1.49296 0
M  V30 251 O 25.3245 -0.416721 1.69142 0
M  V30 252 C 22.4565 -0.705846 3.33513 0
M  V30 253 H 23.6495 1.02677 2.81776 0
M  V30 254 H 21.2025 0.570211 1.45528 0
M  V30 255 H 21.9375 -1.54498 2.85133 0
M  V30 256 H 21.7225 -0.127655 3.91892 0
M  V30 257 H 23.2125 -1.11211 4.02519 0
M  V30 258 N 23.6496 -1.47581 0.552962 0
M  V30 259 C 24.6126 -2.28439 -0.186605 0
M  V30 260 C 25.6126 -1.36706 -0.84665 0
M  V30 261 O 26.8026 -1.59378 -0.703164 0
M  V30 262 C 23.9346 -3.16264 -1.2724 0
M  V30 263 H 25.1276 -2.95294 0.523609 0
M  V30 264 H 22.6806 -1.532 0.309745 0
M  V30 265 H 23.4156 -2.54091 -2.01514 0
M  V30 266 H 23.2006 -3.83769 -0.803968 0
M  V30 267 H 24.6906 -3.77198 -1.79196 0
M  V30 268 N 25.1277 -0.289203 -1.54924 0
M  V30 269 C 26.5437 0.0645403 -1.59469 0
M  V30 270 C 26.7437 1.53419 -1.30632 0
M  V30 271 O 25.7997 2.2852 -1.074 0
M  V30 272 C 27.1127 -0.32278 -2.98963 0
M  V30 273 C 28.6607 -0.270564 -3.11828 0
M  V30 274 C 29.1357 -0.632532 -4.53611 0
M  V30 275 N 30.6267 -0.584617 -4.59496 0
M  V30 276 C 31.3617 -0.837314 -5.67254 0
M  V30 277 N 30.8577 -1.15536 -6.83098 0
M  V30 278 N 32.6507 -0.765166 -5.56868 0
M  V30 279 H 24.8017 -1.24714 -1.71931 0
M  V30 280 H 27.0647 -0.504809 -0.802416 0
M  V30 281 H 26.7707 -1.34541 -3.24948 0
M  V30 282 H 26.6447 0.32944 -3.75759 0
M  V30 283 H 29.0317 0.742805 -2.85598 0
M  V30 284 H 29.1127 -0.957242 -2.37214 0
M  V30 285 H 28.7567 -1.64365 -4.80569 0
M  V30 286 H 28.6867 0.07609 -5.26545 0
M  V30 287 H 31.1777 -0.349248 -3.76283 0
M  V30 288 H 31.4907 -1.33447 -7.61191 0
M  V30 289 H 29.8357 -1.19328 -6.84679 0
M  V30 290 H 33.0267 -0.516432 -4.65243 0
M  V30 291 H 33.1997 -0.965477 -6.40767 0
M  V30 292 N 26.6058 1.57591 -0.0167156 0
M  V30 293 C 27.8548 1.90461 0.663877 0
M  V30 294 C 28.1678 0.893515 1.73999 0
M  V30 295 O 29.3738 1.11302 2.47637 0
M  V30 296 C 27.8298 3.38155 1.23204 0
M  V30 297 C 27.4378 4.47597 0.189866 0
M  V30 298 C 29.1818 3.80111 1.88986 0
M  V30 299 C 27.0888 5.86379 0.768964 0
M  V30 300 H 26.0188 0.710738 0.251729 0
M  V30 301 H 28.6698 1.83326 -0.0799926 0
M  V30 302 H 27.0518 3.40182 2.02712 0
M  V30 303 H 28.2258 4.57112 -0.581846 0
M  V30 304 H 26.5408 4.14766 -0.368475 0
M  V30 305 H 29.1378 4.81145 2.33247 0
M  V30 306 H 29.4808 3.14511 2.72743 0
M  V30 307 H 30.0138 3.80454 1.16187 0
M  V30 308 H 26.7528 6.55493 -0.0301957 0
M  V30 309 H 26.2728 5.80496 1.50945 0
M  V30 310 H 27.9518 6.34563 1.26251 0
M  V30 311 N 28.0839 -0.256276 1.55502 0
M  V30 312 C 29.3119 -1.00342 1.8094 0
M  V30 313 C 29.7269 -1.79307 0.59114 0
M  V30 314 O 29.0839 -1.77114 -0.440081 0
M  V30 315 C 29.1349 -1.94875 3.04476 0
M  V30 316 O 28.8559 -1.19107 4.21598 0
M  V30 317 C 30.3569 -2.81266 3.42644 0
M  V30 318 H 27.5769 -0.295685 0.602338 0
M  V30 319 H 30.1209 -0.281998 2.02546 0
M  V30 320 H 28.2759 -2.62457 2.84947 0
M  V30 321 H 28.6899 -1.82969 4.91551 0
M  V30 322 H 30.1639 -3.43362 4.32211 0
M  V30 323 H 30.6409 -3.51897 2.62802 0
M  V30 324 H 31.2469 -2.1915 3.64491 0
M  V30 325 N 29.562 -1.4872 -0.521534 0
M  V30 326 C 30.525 -1.63379 -1.60748 0
M  V30 327 C 31.525 -0.50661 -1.52611 0
M  V30 328 O 32.715 -0.772601 -1.5613 0
M  V30 329 C 29.847 -1.61192 -3.00383 0
M  V30 330 H 31.04 -2.60217 -1.49087 0
M  V30 331 H 28.593 -1.37444 -0.744235 0
M  V30 332 H 29.328 -0.65863 -3.17541 0
M  V30 333 H 29.113 -2.43032 -3.07698 0
M  V30 334 H 30.603 -1.7466 -3.7932 0
M  V30 335 N 31.0401 0.771051 -1.3745 0
M  V30 336 C 32.3171 1.519 -1.23231 0
M  V30 337 C 32.6971 2.10383 0.173809 0
M  V30 338 O 32.0451 1.95583 1.18151 0
M  V30 339 C 32.2551 2.59933 -2.32886 0
M  V30 340 C 33.6031 3.27316 -2.70461 0
M  V30 341 O 34.6271 2.70228 -2.32068 0
M  V30 342 O 33.4861 4.30531 -3.36608 0
M  V30 343 H 30.5801 0.672803 -0.480901 0
M  V30 344 H 33.1261 0.807957 -1.49232 0
M  V30 345 H 31.8981 2.14842 -3.27045 0
M  V30 346 H 31.5211 3.38637 -2.08353 0
M  V30 347 N 32.5182 1.22032 0.997298 0
M  V30 348 C 33.7462 1.06841 1.7718 0
M  V30 349 C 34.1612 -0.381325 1.84909 0
M  V30 350 O 33.5182 -1.26437 1.31605 0
M  V30 351 C 33.5692 1.66814 3.20711 0
M  V30 352 O 33.2902 3.06116 3.13408 0
M  V30 353 C 34.7912 1.56838 4.14628 0
M  V30 354 H 32.0112 0.374782 0.556578 0
M  V30 355 H 34.5552 1.61532 1.2541 0
M  V30 356 H 32.7102 1.16196 3.69564 0
M  V30 357 H 33.1242 3.34926 4.0364 0
M  V30 358 H 34.5982 2.03532 5.13107 0
M  V30 359 H 35.0752 0.524155 4.36061 0
M  V30 360 H 35.6812 2.06741 3.7167 0
M  V30 361 N 33.9963 -1.19345 1.0293 0
M  V30 362 C 35.2453 -1.88363 0.721256 0
M  V30 363 C 35.5583 -1.80514 -0.753254 0
M  V30 364 O 36.7643 -2.44788 -1.17436 0
M  V30 365 C 35.2203 -3.37872 1.23978 0
M  V30 366 C 34.8283 -3.54278 2.74211 0
M  V30 367 C 36.5723 -4.12365 1.00775 0
M  V30 368 C 34.4793 -4.97682 3.19479 0
M  V30 369 H 33.4093 -0.705484 0.266098 0
M  V30 370 H 36.0603 -1.34928 1.24365 0
M  V30 371 H 34.4423 -3.90707 0.6453 0
M  V30 372 H 35.6163 -3.11769 3.39318 0
M  V30 373 H 33.9313 -2.93174 2.95699 0
M  V30 374 H 36.5283 -5.18119 1.32123 0
M  V30 375 H 36.8713 -4.16263 -0.0554308 0
M  V30 376 H 37.4043 -3.65668 1.56625 0
M  V30 377 H 34.1433 -4.98945 4.25128 0
M  V30 378 H 33.6633 -5.4095 2.591 0
M  V30 379 H 35.3423 -5.66337 3.12845 0
M  V30 380 N 35.4744 -0.807222 -1.35358 0
M  V30 381 C 36.4214 -0.216037 -2.29787 0
M  V30 382 C 37.3914 0.650278 -1.52842 0
M  V30 383 O 38.5764 0.595227 -1.81278 0
M  V30 384 C 35.7164 0.628893 -3.39321 0
M  V30 385 C 34.8294 -0.257927 -4.31229 0
M  V30 386 C 33.9644 0.595069 -5.27856 0
M  V30 387 C 33.0034 -0.292111 -6.11403 0
M  V30 388 N 32.1404 0.520895 -7.00165 0
M  V30 389 H 36.9804 -1.02671 -2.79755 0
M  V30 390 H 34.5174 -0.517839 -1.37684 0
M  V30 391 H 36.4754 1.13393 -4.01494 0
M  V30 392 H 35.1054 1.40482 -2.90628 0
M  V30 393 H 34.1574 -0.881076 -3.70056 0
M  V30 394 H 35.4694 -0.940759 -4.89848 0
M  V30 395 H 34.6234 1.16522 -5.95405 0
M  V30 396 H 33.3624 1.31146 -4.69736 0
M  V30 397 H 32.3674 -0.874525 -5.428 0
M  V30 398 H 33.5924 -1.00638 -6.71602 0
M  V30 399 H 31.5384 1.22125 -6.44532 0
M  V30 400 H 31.4554 -0.103877 -7.55929 0
M  V30 401 H 32.7234 1.0743 -7.72062 0
M  V30 402 N 36.9525 1.47285 -0.560781 0
M  V30 403 C 37.8625 2.33846 0.187954 0
M  V30 404 C 38.8785 1.48412 0.908293 0
M  V30 405 O 40.0545 1.81332 0.876388 0
M  V30 406 C 37.1195 3.25178 1.2025 0
M  V30 407 C 36.1805 4.26504 0.489208 0
M  V30 408 C 35.4135 5.13472 1.45542 0
M  V30 409 O 35.6365 5.02959 2.6905 0
M  V30 410 O 34.5705 5.93902 0.977963 0
M  V30 411 H 38.3965 2.99177 -0.522177 0
M  V30 412 H 35.9815 1.45903 -0.321364 0
M  V30 413 H 37.8635 3.81584 1.78805 0
M  V30 414 H 36.5385 2.6247 1.89449 0
M  V30 415 H 35.4455 3.73847 -0.137627 0
M  V30 416 H 36.7785 4.91935 -0.161399 0
M  V30 417 N 38.4306 0.297415 1.54768 0
M  V30 418 C 39.3776 -0.580276 2.23386 0
M  V30 419 C 40.3476 -1.13238 1.21517 0
M  V30 420 O 41.5326 -1.17757 1.50126 0
M  V30 421 C 38.6726 -1.74801 2.97555 0
M  V30 422 C 37.7856 -1.22764 4.1419 0
M  V30 423 C 36.9206 -2.35895 4.75949 0
M  V30 424 C 35.9596 -1.80974 5.84735 0
M  V30 425 N 35.0966 -2.87664 6.40464 0
M  V30 426 H 39.9366 0.0114833 2.97998 0
M  V30 427 H 37.4736 0.0174361 1.4709 0
M  V30 428 H 39.4316 -2.43475 3.38786 0
M  V30 429 H 38.0616 -2.31145 2.25326 0
M  V30 430 H 37.1136 -0.433271 3.77924 0
M  V30 431 H 38.4256 -0.785551 4.92575 0
M  V30 432 H 37.5796 -3.12523 5.20014 0
M  V30 433 H 36.3186 -2.83429 3.96887 0
M  V30 434 H 35.3236 -1.02834 5.40097 0
M  V30 435 H 36.5486 -1.34348 6.65678 0
M  V30 436 H 34.4946 -3.34538 5.64287 0
M  V30 437 H 34.4116 -2.4794 7.14186 0
M  V30 438 H 35.6796 -3.642 6.89187 0
M  V30 439 N 39.9087 -1.5758 0.0250728 0
M  V30 440 C 41.3197 -1.79476 -0.514323 0
M  V30 441 C 41.6707 -0.934956 -1.72491 0
M  V30 442 O 40.7957 -0.144245 -2.15919 0
M  V30 443 C 41.3907 -3.25503 -0.939842 0
M  V30 444 C 39.9497 -3.48408 -1.42438 0
M  V30 445 C 39.0967 -2.74583 -0.387201 0
M  V30 446 H 42.0477 -1.567 0.25113 0
M  V30 447 H 42.0687 -3.34992 -1.80445 0
M  V30 448 H 41.5807 -3.88056 -0.0585628 0
M  V30 449 H 39.6817 -2.91103 -2.32572 0
M  V30 450 H 39.7947 -4.57119 -1.43455 0
M  V30 451 H 38.1587 -2.39942 -0.854409 0
M  V30 452 H 38.9417 -3.39849 0.485543 0
M  V30 453 N 41.3868 0.248026 -1.55636 0
M  V30 454 C 42.6638 0.998988 -1.68165 0
M  V30 455 C 43.0438 2.03409 -0.564621 0
M  V30 456 O 42.3918 2.24378 0.432076 0
M  V30 457 C 42.6018 1.63334 -3.0842 0
M  V30 458 C 43.9498 2.13562 -3.66983 0
M  V30 459 O 44.9738 1.73277 -3.11213 0
M  V30 460 O 43.8328 2.87526 -4.64749 0
M  V30 461 H 40.9268 0.464933 -0.683935 0
M  V30 462 H 43.4728 0.241902 -1.67967 0
M  V30 463 H 42.2448 0.884583 -3.8117 0
M  V30 464 H 41.8678 2.45666 -3.12624 0
M  V30 465 N 42.8649 1.48995 0.513639 0
M  V30 466 C 43.8279 1.64229 1.59879 0
M  V30 467 C 44.8279 0.514696 1.5234 0
M  V30 468 O 46.0179 0.78087 1.55718 0
M  V30 469 C 43.1499 1.62783 2.99524 0
M  V30 470 H 44.3429 2.61004 1.47705 0
M  V30 471 H 41.8959 1.37837 0.736936 0
M  V30 472 H 42.6309 0.675461 3.17188 0
M  V30 473 H 42.4159 2.4466 3.06404 0
M  V30 474 H 43.9059 1.76669 3.78388 0
M  V30 475 N 44.343 -0.763751 1.37857 0
M  V30 476 C 45.589 -1.52483 1.33704 0
M  V30 477 C 45.922 -1.94051 -0.0759612 0
M  V30 478 O 45.197 -1.64675 -1.03501 0
M  V30 479 C 45.48 -2.78441 2.28348 0
M  V30 480 C 45.333 -2.43075 3.78463 0
M  V30 481 C 46.652 -3.80415 2.21298 0
M  V30 482 H 43.771 -0.553169 0.487005 0
M  V30 483 H 46.413 -0.875562 1.68624 0
M  V30 484 H 44.563 -3.33842 1.987 0
M  V30 485 H 46.235 -1.93527 4.18742 0
M  V30 486 H 44.478 -1.75666 3.96641 0
M  V30 487 H 45.149 -3.33149 4.40132 0
M  V30 488 H 47.625 -3.34527 2.47449 0
M  V30 489 H 46.501 -4.66257 2.89647 0
M  V30 490 H 46.762 -4.25262 1.20849 0
M  V30 491 N 45.8211 -1.22559 -0.990812 0
M  V30 492 C 46.7511 -1.0218 -2.09956 0
M  V30 493 C 47.7321 0.0579394 -1.70001 0
M  V30 494 O 48.9171 -0.104684 -1.93918 0
M  V30 495 C 46.0471 -0.601023 -3.4206 0
M  V30 496 C 45.0011 -1.62694 -3.95872 0
M  V30 497 C 44.3271 -1.06193 -5.24049 0
M  V30 498 C 45.6271 -3.01743 -4.2632 0
M  V30 499 H 47.3211 -1.94916 -2.27262 0
M  V30 500 H 44.8671 -0.938566 -1.09211 0
M  V30 501 H 46.8201 -0.445561 -4.19038 0
M  V30 502 H 45.5441 0.362005 -3.24588 0
M  V30 503 H 44.2031 -1.77021 -3.21028 0
M  V30 504 H 43.8511 -0.0901903 -5.02919 0
M  V30 505 H 43.5511 -1.74732 -5.61019 0
M  V30 506 H 45.0751 -0.918092 -6.03658 0
M  V30 507 H 46.4891 -2.90777 -4.94087 0
M  V30 508 H 44.8861 -3.67425 -4.74467 0
M  V30 509 H 45.9561 -3.51518 -3.34011 0
M  V30 510 N 47.2992 1.18797 -1.03562 0
M  V30 511 C 48.5472 1.88278 -0.734569 0
M  V30 512 C 48.8682 1.8043 0.739586 0
M  V30 513 O 48.1382 1.21925 1.53333 0
M  V30 514 H 46.7182 0.696991 -0.268725 0
M  V30 515 H 49.3802 1.44192 -1.31129 0
M  V30 516 H 48.4762 2.94443 -1.03489 0
M  V30 517 N 48.7773 0.814389 1.34928 0
M  V30 518 C 49.7073 0.244827 2.32213 0
M  V30 519 C 50.6883 -0.634024 1.57842 0
M  V30 520 O 51.8733 -0.562676 1.8587 0
M  V30 521 C 49.0033 -0.601106 3.42058 0
M  V30 522 C 47.9573 0.179896 4.27622 0
M  V30 523 C 47.2833 -0.788237 5.28858 0
M  V30 524 C 48.5833 1.38329 5.03649 0
M  V30 525 H 50.2773 1.05763 2.80097 0
M  V30 526 H 47.8233 0.510029 1.34665 0
M  V30 527 H 49.7763 -1.00968 4.09125 0
M  V30 528 H 48.5003 -1.44688 2.92802 0
M  V30 529 H 47.1593 0.569739 3.62146 0
M  V30 530 H 46.8073 -1.62973 4.75866 0
M  V30 531 H 46.5073 -0.269942 5.8698 0
M  V30 532 H 48.0313 -1.19485 5.98795 0
M  V30 533 H 49.4453 1.04918 5.63618 0
M  V30 534 H 47.8423 1.83662 5.71304 0
M  V30 535 H 48.9123 2.16592 4.33839 0
M  V30 536 N 50.2554 -1.46986 0.568584 0
M  V30 537 C 51.2184 -2.28624 -0.162366 0
M  V30 538 C 52.2184 -1.37596 -0.832103 0
M  V30 539 O 53.4084 -1.60115 -0.68622 0
M  V30 540 C 50.5404 -3.17596 -1.23878 0
M  V30 541 H 51.7334 -2.94722 0.554899 0
M  V30 542 H 49.2864 -1.52863 0.325976 0
M  V30 543 H 50.0214 -2.56214 -1.98808 0
M  V30 544 H 49.8064 -3.846 -0.763219 0
M  V30 545 H 51.2964 -3.79078 -1.75185 0
M  V30 546 N 51.7335 -0.305618 -1.54608 0
M  V30 547 C 52.9615 0.304775 -2.04643 0
M  V30 548 C 53.3765 1.47167 -1.18268 0
M  V30 549 O 52.7335 1.81296 -0.209328 0
M  V30 550 C 52.7845 0.756564 -3.53495 0
M  V30 551 O 52.5055 -0.36389 -4.36586 0
M  V30 552 C 54.0065 1.43163 -4.19546 0
M  V30 553 H 51.2265 0.0655481 -0.667791 0
M  V30 554 H 53.7705 -0.446592 -1.99564 0
M  V30 555 H 51.9255 1.45794 -3.58919 0
M  V30 556 H 52.3395 -0.0113121 -5.24499 0
M  V30 557 H 53.8135 1.69886 -5.25207 0
M  V30 558 H 54.2905 2.37318 -3.69563 0
M  V30 559 H 54.8965 0.773307 -4.18211 0
M  V30 560 N 53.2116 1.57565 -0.0334293 0
M  V30 561 C 54.4596 1.91598 0.642999 0
M  V30 562 C 54.7806 0.910847 1.7242 0
M  V30 563 O 54.0506 -0.0469931 1.95844 0
M  V30 564 H 52.6306 0.707228 0.240496 0
M  V30 565 H 55.2926 1.94726 -0.0822488 0
M  V30 566 H 54.3886 2.92336 1.09298 0
M  V30 567 N 54.6897 -0.239769 1.55765 0
M  V30 568 C 55.9377 -0.964892 1.77579 0
M  V30 569 C 56.2587 -1.85582 0.598699 0
M  V30 570 O 55.5287 -1.92075 -0.385226 0
M  V30 571 H 54.1087 -0.359265 0.654933 0
M  V30 572 H 56.7707 -0.256001 1.93211 0
M  V30 573 H 55.8667 -1.58243 2.69009 0
M  V30 574 N 56.1678 -1.49265 -0.50573 0
M  V30 575 C 57.3958 -1.62215 -1.28429 0
M  V30 576 C 57.8108 -0.291697 -1.86533 0
M  V30 577 O 57.1678 0.722233 -1.67601 0
M  V30 578 C 57.2188 -2.68735 -2.41793 0
M  V30 579 O 56.9398 -3.96619 -1.86078 0
M  V30 580 C 58.4408 -2.92346 -3.3324 0
M  V30 581 H 55.6608 -0.546239 -0.389697 0
M  V30 582 H 58.2048 -1.95265 -0.607609 0
M  V30 583 H 56.3598 -2.38476 -3.053 0
M  V30 584 H 56.7738 -4.55256 -2.60465 0
M  V30 585 H 58.2478 -3.70623 -4.09075 0
M  V30 586 H 58.7248 -2.02081 -3.89948 0
M  V30 587 H 59.3308 -3.24003 -2.75503 0
M  V30 588 N 57.6459 0.756429 -1.3826 0
M  V30 589 C 59.0569 1.33359 -1.30661 0
M  V30 590 C 59.4079 1.96161 0.0388875 0
M  V30 591 O 58.5329 1.94874 0.940918 0
M  V30 592 C 59.1279 2.42477 -2.36622 0
M  V30 593 C 57.6869 2.95922 -2.3261 0
M  V30 594 C 56.8339 1.69275 -2.19639 0
M  V30 595 H 59.7849 0.55552 -1.4866 0
M  V30 596 H 59.8059 3.22345 -2.02174 0
M  V30 597 H 59.3179 1.96739 -3.34538 0
M  V30 598 H 57.4189 3.45996 -1.38267 0
M  V30 599 H 57.5319 3.50494 -3.26636 0
M  V30 600 H 55.8959 1.92793 -1.66442 0
M  V30 601 H 56.6789 1.25619 -3.19491 0
M  V30 602 N 59.124 1.23083 0.984299 0
M  V30 603 C 60.034 1.02515 2.11016 0
M  V30 604 C 61.05 -0.0291702 1.73976 0
M  V30 605 O 62.226 0.165434 2.00719 0
M  V30 606 C 59.291 0.614673 3.41208 0
M  V30 607 C 58.352 1.74359 3.92297 0
M  V30 608 C 57.585 1.35261 5.16275 0
M  V30 609 O 57.808 0.235136 5.69915 0
M  V30 610 O 56.742 2.17227 5.61334 0
M  V30 611 H 60.568 1.96862 2.31255 0
M  V30 612 H 58.153 1.01753 1.09392 0
M  V30 613 H 60.035 0.396518 4.1953 0
M  V30 614 H 58.71 -0.299851 3.22308 0
M  V30 615 H 57.617 2.01635 3.1511 0
M  V30 616 H 58.95 2.63629 4.15645 0
M  V30 617 N 60.6021 -1.18246 1.0419 0
M  V30 618 C 61.8501 -1.87886 0.744543 0
M  V30 619 C 62.1711 -1.8082 -0.730006 0
M  V30 620 O 61.4411 -1.22736 -1.52685 0
M  V30 621 H 60.0211 -0.695556 0.272417 0
M  V30 622 H 62.6831 -1.43494 1.31892 0
M  V30 623 H 61.7791 -2.9389 1.05049 0
M  V30 624 N 62.0802 -0.821533 -1.34494 0
M  V30 625 C 63.3082 -0.421884 -2.02553 0
M  V30 626 C 63.7232 0.971745 -1.61872 0
M  V30 627 O 63.0802 1.62864 -0.823496 0
M  V30 628 C 63.1312 -0.51285 -3.57844 0
M  V30 629 O 62.8522 -1.85155 -3.97051 0
M  V30 630 C 64.3532 -0.107921 -4.43169 0
M  V30 631 H 61.5732 -0.169482 -0.649243 0
M  V30 632 H 64.1172 -1.1093 -1.71798 0
M  V30 633 H 62.2722 0.126474 -3.87193 0
M  V30 634 H 62.6862 -1.82482 -4.91732 0
M  V30 635 H 64.1602 -0.222657 -5.51551 0
M  V30 636 H 64.6372 0.948401 -4.28838 0
M  V30 637 H 65.2432 -0.720989 -4.19144 0
M  V30 638 N 63.5583 1.46682 -0.576371 0
M  V30 639 C 64.7883 2.06498 -0.0648694 0
M  V30 640 C 65.1963 1.42665 1.24271 0
M  V30 641 O 64.5393 0.523886 1.76071 0
M  V30 642 C 64.6013 3.5904 0.181816 0
M  V30 643 C 64.2653 4.45028 -1.0392 0
M  V30 644 C 65.2623 4.81959 -1.94966 0
M  V30 645 C 62.9473 4.86259 -1.25927 0
M  V30 646 C 64.9413 5.58942 -3.06371 0
M  V30 647 C 62.6283 5.63002 -2.37638 0
M  V30 648 C 63.6263 5.99257 -3.2769 0
M  V30 649 O 63.3143 6.7445 -4.37461 0
M  V30 650 H 63.0463 0.674028 -0.0515987 0
M  V30 651 H 65.6003 1.89393 -0.794951 0
M  V30 652 H 63.8303 3.74429 0.966436 0
M  V30 653 H 65.5193 4.00806 0.641047 0
M  V30 654 H 66.2853 4.50689 -1.79177 0
M  V30 655 H 62.1643 4.57494 -0.567448 0
M  V30 656 H 65.7083 5.87158 -3.76684 0
M  V30 657 H 61.6053 5.93686 -2.53392 0
M  V30 658 H 62.3733 6.92867 -4.35749 0
M  V30 659 N 65.0364 0.313813 1.54444 0
M  V30 660 C 66.4524 -0.0391619 1.59552 0
M  V30 661 C 66.6524 -1.51322 1.33056 0
M  V30 662 O 65.7084 -2.26782 1.11022 0
M  V30 663 C 67.0214 0.370302 2.98411 0
M  V30 664 C 68.5694 0.320139 3.11358 0
M  V30 665 C 69.0444 0.704617 4.52547 0
M  V30 666 N 70.5354 0.657645 4.58508 0
M  V30 667 C 71.2704 0.927453 5.6585 0
M  V30 668 N 70.7664 1.26389 6.81174 0
M  V30 669 N 72.5594 0.853662 5.5558 0
M  V30 670 H 64.7104 1.27433 1.69925 0
M  V30 671 H 66.9734 0.517511 0.794284 0
M  V30 672 H 66.6794 1.39694 3.22767 0
M  V30 673 H 66.5534 -0.269619 3.76235 0
M  V30 674 H 68.9404 -0.697275 2.86744 0
M  V30 675 H 69.0214 0.99486 2.35661 0
M  V30 676 H 68.6654 1.7199 4.77893 0
M  V30 677 H 68.5954 0.00768843 5.26599 0
M  V30 678 H 71.0864 0.409067 3.75679 0
M  V30 679 H 71.3994 1.4554 7.58972 0
M  V30 680 H 69.7444 1.30206 6.82694 0
M  V30 681 H 72.9354 0.590383 4.64362 0
M  V30 682 H 73.1084 1.0673 6.3915 0
M  V30 683 N 66.5145 -1.57545 0.0417849 0
M  V30 684 C 67.4465 -2.07904 -0.964799 0
M  V30 685 C 68.4595 -1.00497 -1.28079 0
M  V30 686 O 69.6485 -1.28087 -1.24322 0
M  V30 687 C 66.7485 -2.49928 -2.28887 0
M  V30 688 C 65.9215 -3.80562 -2.15619 0
M  V30 689 C 64.9805 -4.08999 -3.31069 0
M  V30 690 O 64.0065 -4.79061 -3.0739 0
M  V30 691 N 65.2085 -3.6017 -4.55256 0
M  V30 692 H 67.9735 -2.94886 -0.535029 0
M  V30 693 H 65.5345 -1.61252 -0.144681 0
M  V30 694 H 67.5265 -2.66034 -3.04972 0
M  V30 695 H 66.0965 -1.68245 -2.63463 0
M  V30 696 H 65.3165 -3.74129 -1.24183 0
M  V30 697 H 66.6045 -4.66126 -2.03971 0
M  V30 698 H 66.0025 -3.03512 -4.77386 0
M  V30 699 H 64.5595 -3.81532 -5.28466 0
M  V30 700 N 67.9926 0.231505 -1.5589 0
M  V30 701 C 68.9226 1.29022 -1.94617 0
M  V30 702 C 69.9036 1.4941 -0.813067 0
M  V30 703 O 71.0886 1.6176 -1.07459 0
M  V30 704 C 68.2186 2.64199 -2.25424 0
M  V30 705 C 67.1726 2.58484 -3.41131 0
M  V30 706 C 66.4986 3.97599 -3.57518 0
M  V30 707 C 67.7986 2.1413 -4.76388 0
M  V30 708 H 69.4926 0.968563 -2.83301 0
M  V30 709 H 67.0386 0.464479 -1.36303 0
M  V30 710 H 68.9916 3.38413 -2.51107 0
M  V30 711 H 67.7156 2.98032 -1.33583 0
M  V30 712 H 66.3746 1.86727 -3.15481 0
M  V30 713 H 66.0226 4.28723 -2.6307 0
M  V30 714 H 65.7226 3.94659 -4.35337 0
M  V30 715 H 67.2466 4.7349 -3.85538 0
M  V30 716 H 68.6606 2.78083 -5.01341 0
M  V30 717 H 67.0576 2.2227 -5.57419 0
M  V30 718 H 68.1276 1.09331 -4.72414 0
M  V30 719 N 69.4707 1.49531 0.497807 0
M  V30 720 C 70.7197 1.58426 1.24837 0
M  V30 721 C 71.0327 0.277643 1.93619 0
M  V30 722 O 72.2387 0.24517 2.70391 0
M  V30 723 C 70.6947 2.79538 2.26686 0
M  V30 724 C 70.3027 4.16971 1.63828 0
M  V30 725 C 72.0467 2.97764 3.0255 0
M  V30 726 C 69.9537 5.29301 2.63807 0
M  V30 727 H 68.8837 0.58989 0.469623 0
M  V30 728 H 71.5347 1.75923 0.521857 0
M  V30 729 H 69.9167 2.55542 3.02514 0
M  V30 730 H 71.0907 4.51116 0.939711 0
M  V30 731 H 69.4057 4.04129 1.00342 0
M  V30 732 H 72.0027 3.78856 3.77323 0
M  V30 733 H 72.3457 2.08448 3.60354 0
M  V30 734 H 72.8787 3.21815 2.33838 0
M  V30 735 H 69.6177 6.20687 2.10779 0
M  V30 736 H 69.1377 4.99606 3.31894 0
M  V30 737 H 70.8167 5.58768 3.2617 0
M  V30 738 N 70.9488 -0.749086 1.3866 0
M  V30 739 C 72.3648 -1.05276 1.19955 0
M  V30 740 C 72.5648 -2.01435 0.05134 0
M  V30 741 O 71.6208 -2.45232 -0.60147 0
M  V30 742 C 72.9338 -1.62853 2.52783 0
M  V30 743 C 74.4818 -1.75002 2.59506 0
M  V30 744 C 74.9568 -2.35991 3.92521 0
M  V30 745 N 76.4478 -2.43416 3.94085 0
M  V30 746 C 77.1828 -2.91511 4.9377 0
M  V30 747 N 76.6788 -3.39608 6.03853 0
M  V30 748 N 78.4718 -2.90592 4.81157 0
M  V30 749 H 70.6228 -0.111066 2.12109 0
M  V30 750 H 72.8858 -0.111901 0.941373 0
M  V30 751 H 72.5918 -0.99664 3.37283 0
M  V30 752 H 72.4658 -2.61854 2.715 0
M  V30 753 H 74.8528 -2.37317 1.75398 0
M  V30 754 H 74.9338 -0.74693 2.44652 0
M  V30 755 H 74.5778 -1.74308 4.77053 0
M  V30 756 H 74.5078 -3.3695 4.04688 0
M  V30 757 H 76.9988 -2.09405 3.14576 0
M  V30 758 H 77.3118 -3.74775 6.75843 0
M  V30 759 H 75.6568 -3.37653 6.07466 0
M  V30 760 H 78.8478 -2.52332 3.94267 0
M  V30 761 H 79.0208 -3.27762 5.58996 0
M  V30 762 N 72.4269 -1.23603 -0.977757 0
M  V30 763 C 73.3569 -1.04401 -2.0886 0
M  V30 764 C 74.3379 0.0399052 -1.70053 0
M  V30 765 O 75.5229 -0.125246 -1.93796 0
M  V30 766 C 72.6529 -0.637269 -3.41403 0
M  V30 767 C 71.6069 -1.66883 -3.94124 0
M  V30 768 C 70.9329 -1.11745 -5.22893 0
M  V30 769 C 72.2329 -3.06247 -4.23096 0
M  V30 770 H 73.9269 -1.97316 -2.25182 0
M  V30 771 H 71.4729 -0.950096 -1.08209 0
M  V30 772 H 73.4259 -0.48998 -4.18542 0
M  V30 773 H 72.1499 0.327557 -3.24953 0
M  V30 774 H 70.8089 -1.80416 -3.19133 0
M  V30 775 H 70.4569 -0.143527 -5.02795 0
M  V30 776 H 70.1569 -1.80672 -5.59134 0
M  V30 777 H 71.6809 -0.982067 -6.02651 0
M  V30 778 H 73.0949 -2.96001 -4.90975 0
M  V30 779 H 71.4919 -3.72436 -4.70544 0
M  V30 780 H 72.5619 -3.55041 -3.30263 0
M  V30 781 N 73.905 1.17692 -1.04816 0
M  V30 782 C 74.855 2.1952 -0.616042 0
M  V30 783 C 75.839 1.57147 0.345485 0
M  V30 784 O 77.031 1.76245 0.163325 0
M  V30 785 C 74.16 3.43298 0.0116917 0
M  V30 786 C 73.246 4.12777 -0.973435 0
M  V30 787 N 73.637 4.5814 -2.14339 0
M  V30 788 C 71.935 4.38747 -0.80108 0
M  V30 789 C 72.636 5.11713 -2.7663 0
M  V30 790 N 71.612 5.03686 -2.04453 0
M  V30 791 H 75.414 2.52293 -1.5075 0
M  V30 792 H 72.928 1.3398 -0.917776 0
M  V30 793 H 74.925 4.15519 0.339006 0
M  V30 794 H 73.585 3.12018 0.898593 0
M  V30 795 H 74.596 4.52349 -2.52191 0
M  V30 796 H 71.273 4.17485 0.0350934 0
M  V30 797 H 72.663 5.56962 -3.75823 0
M  V30 798 N 75.3831 0.828654 1.34056 0
M  V30 799 C 76.3151 0.212052 2.28217 0
M  V30 800 C 77.3281 -0.601362 1.51286 0
M  V30 801 O 78.5171 -0.430104 1.73241 0
M  V30 802 C 75.6171 -0.72088 3.31144 0
M  V30 803 C 74.7901 0.0509587 4.3737 0
M  V30 804 C 73.8491 -0.803766 5.20025 0
M  V30 805 O 72.8751 -0.246667 5.68665 0
M  V30 806 N 74.0771 -2.1227 5.40298 0
M  V30 807 H 76.8421 1.02105 2.81771 0
M  V30 808 H 74.4031 0.686153 1.46641 0
M  V30 809 H 76.3951 -1.29742 3.8334 0
M  V30 810 H 74.9651 -1.43061 2.77943 0
M  V30 811 H 74.1851 0.808831 3.85813 0
M  V30 812 H 75.4731 0.582065 5.0546 0
M  V30 813 H 74.8711 -2.59898 5.02464 0
M  V30 814 H 73.4281 -2.64796 5.95589 0
M  V30 815 N 76.8612 -1.46375 0.584142 0
M  V30 816 C 78.0892 -2.06761 0.0759296 0
M  V30 817 C 78.5042 -1.43266 -1.22965 0
M  V30 818 O 77.8612 -0.538458 -1.74376 0
M  V30 819 C 77.9122 -3.61375 -0.0950384 0
M  V30 820 O 77.6332 -4.22495 1.15887 0
M  V30 821 C 79.1342 -4.38693 -0.637434 0
M  V30 822 H 76.3542 -0.668479 0.0581075 0
M  V30 823 H 78.8982 -1.8798 0.805218 0
M  V30 824 H 77.0532 -3.79578 -0.774554 0
M  V30 825 H 77.4672 -5.15385 0.973598 0
M  V30 826 H 78.9412 -5.47464 -0.706237 0
M  V30 827 H 79.4182 -4.06836 -1.65472 0
M  V30 828 H 80.0242 -4.25299 0.00725967 0
M  V30 829 N 78.3393 -0.321999 -1.54275 0
M  V30 830 C 79.2493 0.553631 -2.27974 0
M  V30 831 C 80.2653 1.13054 -1.32268 0
M  V30 832 O 81.4413 1.15084 -1.6528 0
M  V30 833 C 78.5063 1.69927 -3.02201 0
M  V30 834 C 77.5673 1.15433 -4.1349 0
M  V30 835 C 76.8003 2.24537 -4.84168 0
M  V30 836 O 77.0233 3.44852 -4.5435 0
M  V30 837 O 75.9573 1.90044 -5.7111 0
M  V30 838 H 79.7833 -0.0448345 -3.03667 0
M  V30 839 H 77.3683 -0.0877418 -1.49142 0
M  V30 840 H 79.2503 2.3663 -3.48689 0
M  V30 841 H 77.9253 2.28395 -2.29385 0
M  V30 842 H 76.8323 0.452436 -3.71354 0
M  V30 843 H 78.1653 0.614805 -4.88345 0
M  V30 844 N 79.8174 1.5752 -0.0501392 0
M  V30 845 C 80.7654 2.12651 0.942459 0
M  V30 846 C 81.7594 1.05807 1.32292 0
M  V30 847 O 82.9654 1.24217 1.3027 0
M  V30 848 H 79.3404 0.679673 0.321789 0
M  V30 849 H 81.3114 2.94951 0.452356 0
M  V30 850 C 80.0604 2.68565 2.20836 0
M  V30 851 H 79.3834 3.50439 1.92439 0
M  V30 852 H 80.8234 3.10761 2.8845 0
M  V30 853 C 79.2824 1.62291 2.95234 0
M  V30 854 O 79.8124 1.03508 3.88135 0
M  V30 855 N 78.0184 1.33836 2.57946 0
M  V30 856 H 77.5654 1.81826 1.82475 0
M  V30 857 H 77.5234 0.629595 3.08032 0
M  V30 858 N 81.2955 -0.223234 1.56011 0
M  V30 859 C 82.2255 -1.27988 1.95298 0
M  V30 860 C 83.2065 -1.48976 0.820979 0
M  V30 861 O 84.3915 -1.61188 1.08315 0
M  V30 862 C 81.5215 -2.63 2.26822 0
M  V30 863 C 80.4755 -2.56671 3.42497 0
M  V30 864 C 79.8015 -3.95697 3.59622 0
M  V30 865 C 81.1015 -2.11601 4.77517 0
M  V30 866 H 82.7955 -0.953525 2.8381 0
M  V30 867 H 80.3415 -0.457244 1.36548 0
M  V30 868 H 82.2945 -3.37077 2.52898 0
M  V30 869 H 81.0185 -2.9732 1.35161 0
M  V30 870 H 79.6775 -1.85051 3.16467 0
M  V30 871 H 79.3255 -4.27322 2.6534 0
M  V30 872 H 79.0255 -3.92345 4.37424 0
M  V30 873 H 80.5495 -4.71438 3.88044 0
M  V30 874 H 81.9635 -2.7542 5.02809 0
M  V30 875 H 80.3605 -2.19311 5.5859 0
M  V30 876 H 81.4305 -1.06824 4.72987 0
M  V30 877 N 82.7736 -1.49793 -0.48987 0
M  V30 878 C 83.9986 -1.63836 -1.27172 0
M  V30 879 C 84.4236 -0.31402 -1.8546 0
M  V30 880 O 83.7816 0.719803 -1.66399 0
M  V30 881 C 83.8296 -2.71797 -2.36978 0
M  V30 882 O 82.9336 -2.31744 -3.41128 0
M  V30 883 H 82.2746 -0.547997 -0.37496 0
M  V30 884 H 84.8046 -1.96053 -0.585191 0
M  V30 885 H 84.8146 -2.94305 -2.82575 0
M  V30 886 H 83.4896 -3.67923 -1.93921 0
M  V30 887 H 82.0666 -2.1961 -3.01373 0
M  V30 888 N 84.2517 0.741722 -1.39055 0
M  V30 889 C 85.4987 1.50114 -1.35912 0
M  V30 890 C 85.8267 1.94443 0.0470937 0
M  V30 891 O 85.0817 1.66612 1.02659 0
M  V30 892 C 85.3807 2.7592 -2.27163 0
M  V30 893 C 85.0467 2.50493 -3.74919 0
M  V30 894 C 83.7087 2.43267 -4.1518 0
M  V30 895 C 86.0607 2.28585 -4.684 0
M  V30 896 C 83.3887 2.12166 -5.46994 0
M  V30 897 C 85.7407 1.99002 -6.00484 0
M  V30 898 C 84.4047 1.90241 -6.39816 0
M  V30 899 H 83.6747 0.549306 -0.497336 0
M  V30 900 H 86.3217 0.851896 -1.71508 0
M  V30 901 H 84.6267 3.45553 -1.84663 0
M  V30 902 H 86.3237 3.33923 -2.22028 0
M  V30 903 H 82.9137 2.56992 -3.43006 0
M  V30 904 H 87.0977 2.33139 -4.38132 0
M  V30 905 H 82.3537 2.03901 -5.76398 0
M  V30 906 H 86.5277 1.81057 -6.72452 0
M  V30 907 H 84.1547 1.65907 -7.41875 0
M  V30 908 N 85.7298 1.2412 0.971189 0
M  V30 909 C 86.6618 0.988349 2.06795 0
M  V30 910 C 87.6748 -0.0409541 1.62748 0
M  V30 911 O 88.8638 0.195673 1.77424 0
M  V30 912 C 85.9638 0.469023 3.35639 0
M  V30 913 C 85.1368 1.56065 4.08611 0
M  V30 914 C 84.1958 1.04458 5.15728 0
M  V30 915 O 83.2218 1.73553 5.42096 0
M  V30 916 N 84.4238 -0.122817 5.8037 0
M  V30 917 H 87.1888 1.93265 2.29061 0
M  V30 918 H 84.7498 1.15102 1.13856 0
M  V30 919 H 86.7418 0.108613 4.04554 0
M  V30 920 H 85.3118 -0.380919 3.1027 0
M  V30 921 H 84.5318 2.09341 3.34021 0
M  V30 922 H 85.8198 2.29449 4.54126 0
M  V30 923 H 85.2178 -0.700563 5.61345 0
M  V30 924 H 83.7748 -0.424404 6.50417 0
M  V30 925 N 87.2079 -1.17134 1.05439 0
M  V30 926 C 88.1559 -2.23289 0.651511 0
M  V30 927 C 89.1499 -1.66186 -0.328411 0
M  V30 928 O 90.3559 -1.78949 -0.194206 0
M  V30 929 H 86.7309 -0.726938 0.192523 0
M  V30 930 H 88.7019 -2.54565 1.55689 0
M  V30 931 C 87.4509 -3.47671 0.0448436 0
M  V30 932 H 86.7739 -3.91918 0.78996 0
M  V30 933 H 88.2139 -4.2353 -0.19964 0
M  V30 934 C 86.6729 -3.14453 -1.20918 0
M  V30 935 O 87.2029 -3.29459 -2.29825 0
M  V30 936 N 85.4089 -2.68657 -1.10779 0
M  V30 937 H 84.9559 -2.56646 -0.221526 0
M  V30 938 H 84.9139 -2.46804 -1.9477 0
M  V30 939 N 88.686 -0.835752 -1.33615 0
M  V30 940 C 89.935 -0.426289 -1.97144 0
M  V30 941 C 90.248 1.01912 -1.66953 0
M  V30 942 O 91.454 1.53311 -2.24072 0
M  V30 943 C 89.91 -0.711321 -3.52801 0
M  V30 944 C 89.518 -2.1712 -3.91871 0
M  V30 945 C 91.262 -0.368654 -4.22896 0
M  V30 946 C 89.169 -2.40044 -5.40493 0
M  V30 947 H 88.099 -0.15567 -0.737755 0
M  V30 948 H 90.75 -1.0239 -1.52278 0
M  V30 949 H 89.132 -0.0433766 -3.95976 0
M  V30 950 H 90.306 -2.87936 -3.59763 0
M  V30 951 H 88.621 -2.47654 -3.34749 0
M  V30 952 H 91.218 -0.517601 -5.32189 0
M  V30 953 H 91.561 0.688078 -4.10574 0
M  V30 954 H 92.094 -0.991702 -3.8524 0
M  V30 955 H 88.833 -3.44271 -5.57815 0
M  V30 956 H 88.353 -1.73785 -5.74072 0
M  V30 957 H 90.032 -2.23042 -6.0734 0
M  V30 958 N 90.1641 1.46063 -0.591896 0
M  V30 959 C 91.3921 2.06717 -0.0868936 0
M  V30 960 C 91.8071 1.43916 1.22203 0
M  V30 961 O 91.1641 0.547698 1.74088 0
M  V30 962 C 91.2151 3.6142 0.0758725 0
M  V30 963 O 90.9361 4.21874 -1.18126 0
M  V30 964 C 92.4371 4.39025 0.61416 0
M  V30 965 H 89.6571 0.668162 -0.0616518 0
M  V30 966 H 92.2011 1.8755 -0.815175 0
M  V30 967 H 90.3561 3.79983 0.754413 0
M  V30 968 H 90.7701 5.14861 -1.00092 0
M  V30 969 H 92.2441 5.4783 0.677193 0
M  V30 970 H 92.7211 4.07708 1.63312 0
M  V30 971 H 93.3271 4.2529 -0.0298142 0
M  V30 972 N 91.6422 0.330177 1.54103 0
M  V30 973 C 92.8702 -0.272179 2.05102 0
M  V30 974 C 93.2852 -1.45267 1.20595 0
M  V30 975 O 92.6422 -1.8094 0.238144 0
M  V30 976 C 92.6932 -0.70023 3.54653 0
M  V30 977 O 92.4142 0.433301 4.35952 0
M  V30 978 C 93.9152 -1.3647 4.21771 0
M  V30 979 H 91.1352 -0.0549159 0.668749 0
M  V30 980 H 93.6792 0.478285 1.98828 0
M  V30 981 H 91.8342 -1.40066 3.61193 0
M  V30 982 H 92.2482 0.0947539 5.24414 0
M  V30 983 H 93.7222 -1.61509 5.27843 0
M  V30 984 H 94.1992 -2.31409 3.73292 0
M  V30 985 H 94.8052 -0.706675 4.19388 0
M  V30 986 N 93.1203 -1.57491 0.0584922 0
M  V30 987 C 94.3663 -1.93264 -0.614558 0
M  V30 988 C 94.6993 -0.937717 -1.7006 0
M  V30 989 O 93.9743 0.0351652 -1.94468 0
M  V30 990 C 94.2573 -3.3938 -1.20386 0
M  V30 991 C 94.1103 -4.49625 -0.125375 0
M  V30 992 C 95.4293 -3.86039 -2.11334 0
M  V30 993 H 92.5483 -0.702791 -0.221933 0
M  V30 994 H 95.1903 -1.8961 0.12175 0
M  V30 995 H 93.3403 -3.42626 -1.83139 0
M  V30 996 H 95.0123 -4.58506 0.506971 0
M  V30 997 H 93.2553 -4.30354 0.545672 0
M  V30 998 H 93.9263 -5.48967 -0.577861 0
M  V30 999 H 96.4023 -3.84716 -1.58534 0
M  V30 1000 H 95.2783 -4.88914 -2.49507 0
M  V30 1001 H 95.5393 -3.23215 -3.01636 0
M  V30 1002 N 94.5984 0.214957 -1.56127 0
M  V30 1003 C 95.5464 1.28601 -1.93816 0
M  V30 1004 C 96.5404 1.48175 -0.821016 0
M  V30 1005 O 97.7464 1.49271 -1.0059 0
M  V30 1006 H 94.1214 0.431302 -0.616022 0
M  V30 1007 H 96.0924 0.940991 -2.83175 0
M  V30 1008 C 94.8414 2.62779 -2.27689 0
M  V30 1009 H 94.1644 2.48527 -3.13168 0
M  V30 1010 H 95.6044 3.36517 -2.57939 0
M  V30 1011 C 94.0634 3.18285 -1.10436 0
M  V30 1012 O 94.5934 4.00002 -0.368945 0
M  V30 1013 N 92.7994 2.7675 -0.886433 0
M  V30 1014 H 92.3464 2.10404 -1.48619 0
M  V30 1015 H 92.3044 3.14229 -0.103656 0
M  V30 1016 N 96.0765 1.50051 0.48192 0
M  V30 1017 C 97.0065 1.71046 1.58951 0
M  V30 1018 C 97.9875 0.559288 1.60642 0
M  V30 1019 O 99.1725 0.797243 1.77081 0
M  V30 1020 C 96.3025 1.79462 2.97339 0
M  V30 1021 C 95.2565 2.94558 3.10515 0
M  V30 1022 C 94.5825 2.88105 4.50444 0
M  V30 1023 C 95.8825 4.35227 2.88747 0
M  V30 1024 H 97.5765 2.6378 1.41635 0
M  V30 1025 H 95.1225 1.26936 0.679942 0
M  V30 1026 H 97.0755 1.92734 3.74742 0
M  V30 1027 H 95.7995 0.833412 3.15788 0
M  V30 1028 H 94.4585 2.80918 2.35543 0
M  V30 1029 H 94.1065 1.89853 4.65795 0
M  V30 1030 H 93.8065 3.65366 4.60197 0
M  V30 1031 H 95.3305 3.03412 5.29881 0
M  V30 1032 H 96.7445 4.49449 3.55905 0
M  V30 1033 H 95.1415 5.13856 3.09955 0
M  V30 1034 H 96.2115 4.48347 1.84696 0
M  V30 1035 N 97.5546 -0.734337 1.39446 0
M  V30 1036 C 98.8316 -1.48579 1.27215 0
M  V30 1037 C 99.2116 -2.1077 -0.117968 0
M  V30 1038 O 98.5596 -1.98646 -1.12924 0
M  V30 1039 C 98.7696 -2.53667 2.39696 0
M  V30 1040 C 100.118 -3.20031 2.79044 0
M  V30 1041 O 101.142 -2.6398 2.39151 0
M  V30 1042 O 100.001 -4.21455 3.47905 0
M  V30 1043 H 97.0946 -0.659816 0.49857 0
M  V30 1044 H 99.6406 -0.768106 1.51322 0
M  V30 1045 H 98.4126 -2.06096 3.32626 0
M  V30 1046 H 98.0356 -3.32994 2.17258 0
M  V30 1047 N 99.0327 -1.24633 -0.964593 0
M  V30 1048 C 99.9427 -1.05859 -2.09359 0
M  V30 1049 C 100.959 0.00148855 -1.74 0
M  V30 1050 O 102.135 -0.197346 -2.00431 0
M  V30 1051 C 99.1997 -0.668879 -3.40187 0
M  V30 1052 C 98.2607 -1.80578 -3.89474 0
M  V30 1053 C 97.4937 -1.43457 -5.14058 0
M  V30 1054 O 97.7167 -0.325775 -5.69469 0
M  V30 1055 O 96.6507 -2.2613 -5.57807 0
M  V30 1056 H 100.477 -2.00516 -2.28094 0
M  V30 1057 H 98.0617 -1.03481 -1.0776 0
M  V30 1058 H 99.9437 -0.463211 -4.18846 0
M  V30 1059 H 98.6187 0.248536 -3.22744 0
M  V30 1060 H 97.5257 -2.06623 -3.11862 0
M  V30 1061 H 98.8587 -2.70208 -4.11398 0
M  V30 1062 N 100.511 1.16574 -1.06058 0
M  V30 1063 C 101.741 1.90675 -0.795397 0
M  V30 1064 C 102.149 1.77547 0.653735 0
M  V30 1065 O 101.492 1.11611 1.45907 0
M  V30 1066 C 101.554 3.42011 -1.10764 0
M  V30 1067 C 101.218 3.78924 -2.55471 0
M  V30 1068 C 102.215 3.81042 -3.53699 0
M  V30 1069 C 99.8998 4.09626 -2.90708 0
M  V30 1070 C 101.894 4.13346 -4.85205 0
M  V30 1071 C 99.5808 4.41597 -4.22416 0
M  V30 1072 C 100.579 4.43436 -5.19474 0
M  V30 1073 O 100.267 4.74649 -6.48817 0
M  V30 1074 H 99.9988 0.611554 -0.288058 0
M  V30 1075 H 102.553 1.48711 -1.41683 0
M  V30 1076 H 100.783 3.84312 -0.429128 0
M  V30 1077 H 102.472 3.97384 -0.827077 0
M  V30 1078 H 103.238 3.57437 -3.27817 0
M  V30 1079 H 99.1168 4.07361 -2.15819 0
M  V30 1080 H 102.661 4.14696 -5.60957 0
M  V30 1081 H 98.5578 4.64667 -4.48056 0
M  V30 1082 H 99.3258 4.9247 -6.5377 0
M  V30 1083 N 101.989 0.842826 1.3317 0
M  V30 1084 C 102.952 0.284065 2.27433 0
M  V30 1085 C 103.952 -0.54948 1.5112 0
M  V30 1086 O 105.142 -0.362699 1.70382 0
M  V30 1087 C 102.274 -0.599384 3.35589 0
M  V30 1088 H 103.467 1.11589 2.78366 0
M  V30 1089 H 101.02 0.616221 1.4364 0
M  V30 1090 H 101.755 -1.45349 2.89904 0
M  V30 1091 H 101.54 -0.00291266 3.921 0
M  V30 1092 H 103.03 -0.983488 4.05854 0
M  V30 1093 N 103.467 -1.45747 0.599634 0
M  V30 1094 C 104.715 -2.01893 0.0915472 0
M  V30 1095 C 105.036 -1.47155 -1.27946 0
M  V30 1096 O 104.306 -0.66273 -1.84349 0
M  V30 1097 H 102.886 -0.746363 0.0308524 0
M  V30 1098 H 105.548 -1.78645 0.779237 0
M  V30 1099 H 104.644 -3.1208 0.0353086 0
M  V30 1100 N 104.945 -0.338344 -1.53925 0
M  V30 1101 C 105.875 0.51328 -2.27789 0
M  V30 1102 C 106.856 1.107 -1.29149 0
M  V30 1103 O 108.041 1.12937 -1.57984 0
M  V30 1104 C 105.171 1.66697 -3.04679 0
M  V30 1105 C 104.125 1.20183 -4.1078 0
M  V30 1106 C 103.451 2.44363 -4.75595 0
M  V30 1107 C 104.751 0.30605 -5.21403 0
M  V30 1108 H 106.445 -0.102883 -2.99223 0
M  V30 1109 H 103.991 -0.0509219 -1.4391 0
M  V30 1110 H 105.944 2.26915 -3.55088 0
M  V30 1111 H 104.668 2.30995 -2.30887 0
M  V30 1112 H 103.327 0.622499 -3.61276 0
M  V30 1113 H 102.975 3.07057 -3.98403 0
M  V30 1114 H 102.675 2.13925 -5.47275 0
M  V30 1115 H 104.199 3.05317 -5.28786 0
M  V30 1116 H 105.613 0.814929 -5.67478 0
M  V30 1117 H 104.01 0.0937929 -6.00027 0
M  V30 1118 H 105.08 -0.65921 -4.80398 0
M  V30 1119 N 106.423 1.57458 -0.0668435 0
M  V30 1120 C 107.648 1.9804 0.616027 0
M  V30 1121 C 108.073 0.944771 1.62652 0
M  V30 1122 O 107.431 -0.0902094 1.81075 0
M  V30 1123 C 107.479 3.37665 1.26549 0
M  V30 1124 O 106.583 3.36701 2.38131 0
M  V30 1125 H 105.924 0.644719 0.158849 0
M  V30 1126 H 108.454 2.04121 -0.139891 0
M  V30 1127 H 108.464 3.7474 1.6135 0
M  V30 1128 H 107.139 4.12573 0.525016 0
M  V30 1129 H 105.716 3.1139 2.0516 0
M  V30 1130 N 107.901 -0.206675 1.56239 0
M  V30 1131 C 109.126 -0.949474 1.8439 0
M  V30 1132 C 109.551 -1.76549 0.649016 0
M  V30 1133 O 108.909 -1.76782 -0.402231 0
M  V30 1134 C 108.957 -1.83078 3.10668 0
M  V30 1135 O 108.061 -2.9281 2.90407 0
M  V30 1136 H 107.402 -0.268033 0.607499 0
M  V30 1137 H 109.932 -0.215488 2.03462 0
M  V30 1138 H 109.942 -2.2377 3.41161 0
M  V30 1139 H 108.617 -1.23112 3.97261 0
M  V30 1140 H 107.194 -2.55956 2.71184 0
M  V30 1141 N 109.379 -1.50304 -0.473955 0
M  V30 1142 C 110.656 -1.51667 -1.23518 0
M  V30 1143 C 111.036 -0.259701 -2.09496 0
M  V30 1144 O 110.384 0.756986 -2.15597 0
M  V30 1145 C 110.594 -2.81082 -2.06868 0
M  V30 1146 C 111.942 -3.31631 -2.65153 0
M  V30 1147 O 112.966 -2.82384 -2.17113 0
M  V30 1148 O 111.825 -4.17471 -3.52675 0
M  V30 1149 H 108.919 -0.60822 -0.560355 0
M  V30 1150 H 111.465 -1.62592 -0.486011 0
M  V30 1151 H 110.237 -3.64041 -1.4349 0
M  V30 1152 H 109.86 -2.73146 -2.88924 0
M  V30 1153 N 110.857 0.726932 -1.39834 0
M  V30 1154 C 112.134 1.47902 -1.28001 0
M  V30 1155 C 112.514 2.1083 0.106789 0
M  V30 1156 O 111.862 1.99242 1.11869 0
M  V30 1157 C 112.072 2.52392 -2.41038 0
M  V30 1158 C 113.42 3.18546 -2.80737 0
M  V30 1159 O 114.444 2.62708 -2.40547 0
M  V30 1160 O 113.303 4.19604 -3.50135 0
M  V30 1161 H 110.397 0.657163 -0.502062 0
M  V30 1162 H 112.943 0.760071 -1.51727 0
M  V30 1163 H 111.715 2.04329 -3.33715 0
M  V30 1164 H 111.338 3.31837 -2.19021 0
M  V30 1165 N 112.336 1.25143 0.95797 0
M  V30 1166 C 113.747 1.08851 1.51685 0
M  V30 1167 C 114.098 -0.33687 1.93286 0
M  V30 1168 O 113.223 -1.22644 1.7829 0
M  V30 1169 C 113.818 1.96978 2.75654 0
M  V30 1170 C 112.377 1.84881 3.27866 0
M  V30 1171 C 111.524 1.91329 2.0072 0
M  V30 1172 H 114.475 1.38478 0.77522 0
M  V30 1173 H 114.496 1.5078 3.4935 0
M  V30 1174 H 114.008 3.00712 2.45345 0
M  V30 1175 H 112.109 0.840182 3.63004 0
M  V30 1176 H 112.222 2.6951 3.96107 0
M  V30 1177 H 110.586 1.35174 2.15871 0
M  V30 1178 H 111.369 2.96661 1.72764 0
M  V30 1179 N 113.814 -1.1601 1.06675 0
M  V30 1180 C 114.762 -2.22586 0.675157 0
M  V30 1181 C 115.756 -1.66525 -0.310766 0
M  V30 1182 O 116.962 -1.79145 -0.175215 0
M  V30 1183 H 113.337 -0.724855 0.200223 0
M  V30 1184 H 115.308 -2.52899 1.58381 0
M  V30 1185 C 114.057 -3.47604 0.0817162 0
M  V30 1186 H 113.38 -3.91058 0.831484 0
M  V30 1187 H 114.82 -4.23718 -0.154708 0
M  V30 1188 C 113.279 -3.15718 -1.17576 0
M  V30 1189 O 113.809 -3.31878 -2.26318 0
M  V30 1190 N 112.015 -2.69816 -1.07923 0
M  V30 1191 H 111.562 -2.56866 -0.194293 0
M  V30 1192 H 111.52 -2.48855 -1.92141 0
M  V30 1193 N 115.292 -0.849877 -1.32721 0
M  V30 1194 C 116.517 -0.463856 -2.02146 0
M  V30 1195 C 116.942 0.930449 -1.63476 0
M  V30 1196 O 116.3 1.61033 -0.832952 0
M  V30 1197 C 116.348 -0.604955 -3.55489 0
M  V30 1198 O 115.452 0.36425 -4.10788 0
M  V30 1199 H 114.793 -0.187046 -0.637111 0
M  V30 1200 H 117.323 -1.14775 -1.69375 0
M  V30 1201 H 117.333 -0.490696 -4.05038 0
M  V30 1202 H 116.008 -1.62174 -3.82978 0
M  V30 1203 H 114.585 0.206628 -3.72327 0
M  V30 1204 N 116.77 1.45427 -0.607355 0
M  V30 1205 C 118 2.06314 -0.108656 0
M  V30 1206 C 118.408 1.45269 1.21217 0
M  V30 1207 O 117.751 0.561115 1.74921 0
M  V30 1208 C 117.813 3.59345 0.105618 0
M  V30 1209 C 117.477 4.42723 -1.13337 0
M  V30 1210 C 118.474 4.77715 -2.05145 0
M  V30 1211 C 116.159 4.83478 -1.36213 0
M  V30 1212 C 118.153 5.52317 -3.18158 0
M  V30 1213 C 115.84 5.57835 -2.49527 0
M  V30 1214 C 116.838 5.92171 -3.40327 0
M  V30 1215 O 116.526 6.65019 -4.51669 0
M  V30 1216 H 116.258 0.672782 -0.0658842 0
M  V30 1217 H 118.812 1.87664 -0.834945 0
M  V30 1218 H 117.042 3.76394 0.886796 0
M  V30 1219 H 118.731 4.02076 0.555886 0
M  V30 1220 H 119.497 4.46787 -1.88697 0
M  V30 1221 H 115.376 4.56188 -0.664362 0
M  V30 1222 H 118.92 5.79036 -3.89054 0
M  V30 1223 H 114.817 5.88177 -2.65928 0
M  V30 1224 H 115.585 6.83469 -4.50348 0
M  V30 1225 N 118.248 0.346503 1.53744 0
M  V30 1226 C 119.198 -0.524953 2.21874 0
M  V30 1227 C 120.182 -1.06376 1.20718 0
M  V30 1228 O 121.374 -0.996972 1.46251 0
M  V30 1229 C 118.503 -1.6739 2.99726 0
M  V30 1230 C 117.589 -1.14888 4.08242 0
M  V30 1231 N 117.98 -0.345329 5.0462 0
M  V30 1232 C 116.278 -1.4255 4.22606 0
M  V30 1233 C 116.979 -0.0600706 5.81669 0
M  V30 1234 N 115.955 -0.65252 5.39669 0
M  V30 1235 H 119.757 0.0960091 2.93743 0
M  V30 1236 H 117.271 0.15352 1.61673 0
M  V30 1237 H 119.268 -2.3102 3.47038 0
M  V30 1238 H 117.928 -2.29811 2.29384 0
M  V30 1239 H 118.939 0.0138439 5.17898 0
M  V30 1240 H 115.616 -2.05389 3.63486 0
M  V30 1241 H 117.006 0.588321 6.69319 0
M  V30 1242 N 119.726 -1.57421 0.075193 0
M  V30 1243 C 120.973 -1.93618 -0.593146 0
M  V30 1244 C 121.301 -0.955484 -1.69413 0
M  V30 1245 O 120.556 0.0283251 -1.9568 0
M  V30 1246 C 120.855 -3.36428 -1.20626 0
M  V30 1247 C 120.521 -4.50307 -0.231078 0
M  V30 1248 C 119.183 -4.81186 0.0371936 0
M  V30 1249 C 121.535 -5.19374 0.435888 0
M  V30 1250 C 118.863 -5.78466 0.979461 0
M  V30 1251 C 121.215 -6.17665 1.3665 0
M  V30 1252 C 119.879 -6.46958 1.6432 0
M  V30 1253 H 119.149 -0.708499 -0.217047 0
M  V30 1254 H 121.796 -1.90937 0.146793 0
M  V30 1255 H 120.101 -3.35592 -2.02201 0
M  V30 1256 H 121.798 -3.61727 -1.73073 0
M  V30 1257 H 118.388 -4.26227 -0.450357 0
M  V30 1258 H 122.572 -4.95711 0.241748 0
M  V30 1259 H 117.828 -5.99487 1.20106 0
M  V30 1260 H 122.002 -6.70284 1.88924 0
M  V30 1261 H 119.629 -7.2215 2.37494 0
M  V30 1262 N 121.204 0.198386 -1.56346 0
M  V30 1263 C 122.434 0.934215 -1.84271 0
M  V30 1264 C 122.842 1.77496 -0.655125 0
M  V30 1265 O 122.185 1.7961 0.385488 0
M  V30 1266 C 122.247 1.88278 -3.06254 0
M  V30 1267 C 121.911 1.22431 -4.40295 0
M  V30 1268 C 122.908 0.602839 -5.16393 0
M  V30 1269 C 120.593 1.22915 -4.87029 0
M  V30 1270 C 122.587 -0.0050083 -6.374 0
M  V30 1271 C 120.274 0.617465 -6.07973 0
M  V30 1272 C 121.272 0.00146341 -6.83 0
M  V30 1273 O 120.96 -0.600642 -8.01653 0
M  V30 1274 H 120.692 0.278245 -0.616081 0
M  V30 1275 H 123.246 0.211626 -2.04307 0
M  V30 1276 H 121.476 2.64498 -2.82095 0
M  V30 1277 H 123.165 2.48612 -3.20853 0
M  V30 1278 H 123.931 0.591265 -4.81382 0
M  V30 1279 H 119.81 1.69801 -4.28589 0
M  V30 1280 H 123.354 -0.48643 -6.95902 0
M  V30 1281 H 119.251 0.62653 -6.42452 0
M  V30 1282 H 120.019 -0.497225 -8.16988 0
M  V30 1283 N 122.682 1.50554 0.465978 0
M  V30 1284 C 123.615 1.64436 1.58227 0
M  V30 1285 C 124.593 0.492367 1.54966 0
M  V30 1286 O 125.777 0.712536 1.74514 0
M  V30 1287 C 122.904 1.63165 2.96808 0
M  V30 1288 C 121.95 2.83987 3.18204 0
M  V30 1289 S 122.783 4.45219 2.97557 0
M  V30 1290 C 123.939 4.46649 4.3847 0
M  V30 1291 H 124.172 2.58861 1.46213 0
M  V30 1292 H 121.705 1.3988 0.653678 0
M  V30 1293 H 123.663 1.63116 3.76701 0
M  V30 1294 H 122.324 0.69967 3.06208 0
M  V30 1295 H 121.517 2.79416 4.19455 0
M  V30 1296 H 121.119 2.81629 2.46092 0
M  V30 1297 H 123.411 4.20526 5.31191 0
M  V30 1298 H 124.354 5.48295 4.48082 0
M  V30 1299 H 124.762 3.76296 4.20787 0
M  V30 1300 N 124.16 -0.719506 1.40217 0
M  V30 1301 C 125.108 -1.85493 1.40339 0
M  V30 1302 C 126.102 -1.66995 0.284415 0
M  V30 1303 O 127.308 -1.74148 0.455252 0
M  V30 1304 H 123.683 -0.610857 0.438586 0
M  V30 1305 H 125.654 -1.82506 2.36081 0
M  V30 1306 C 124.403 -3.23321 1.27901 0
M  V30 1307 H 123.726 -3.38159 2.1328 0
M  V30 1308 H 125.166 -4.02914 1.32045 0
M  V30 1309 C 123.625 -3.36898 -0.0111355 0
M  V30 1310 O 124.155 -3.89674 -0.975538 0
M  V30 1311 N 122.361 -2.90492 -0.0793393 0
M  V30 1312 H 121.908 -2.47731 0.706183 0
M  V30 1313 H 121.866 -2.99955 -0.942038 0
M  V30 1314 N 125.638 -1.25649 -0.95132 0
M  V30 1315 C 126.915 -1.01361 -1.67288 0
M  V30 1316 C 127.295 0.459135 -2.06046 0
M  V30 1317 O 126.643 1.43723 -1.7764 0
M  V30 1318 C 126.853 -1.95256 -2.89268 0
M  V30 1319 C 128.201 -2.23289 -3.61147 0
M  V30 1320 O 129.225 -1.93041 -2.99355 0
M  V30 1321 O 128.084 -2.74741 -4.72419 0
M  V30 1322 H 125.178 -0.38464 -0.732107 0
M  V30 1323 H 127.724 -1.36817 -1.00395 0
M  V30 1324 H 126.496 -2.94685 -2.57442 0
M  V30 1325 H 126.119 -1.60218 -3.6389 0
M  V30 1326 N 127.117 1.15442 -1.07289 0
M  V30 1327 C 128.533 1.38201 -0.798288 0
M  V30 1328 C 128.733 1.92429 0.597769 0
M  V30 1329 O 127.789 2.12962 1.3566 0
M  V30 1330 C 129.102 2.35357 -1.87156 0
M  V30 1331 C 130.65 2.49021 -1.89624 0
M  V30 1332 C 131.125 3.49468 -2.96034 0
M  V30 1333 N 132.616 3.57003 -2.95132 0
M  V30 1334 C 133.351 4.34543 -3.74112 0
M  V30 1335 N 132.847 5.15421 -4.6294 0
M  V30 1336 N 134.64 4.29625 -3.62462 0
M  V30 1337 H 126.791 0.78584 -1.97328 0
M  V30 1338 H 129.054 0.408065 -0.855679 0
M  V30 1339 H 128.76 2.02626 -2.87464 0
M  V30 1340 H 128.634 3.35129 -1.73114 0
M  V30 1341 H 131.021 2.81051 -0.899687 0
M  V30 1342 H 131.102 1.4925 -2.07745 0
M  V30 1343 H 130.746 3.18173 -3.95889 0
M  V30 1344 H 130.676 4.48992 -2.75161 0
M  V30 1345 H 133.167 2.99276 -2.30743 0
M  V30 1346 H 133.48 5.7183 -5.19837 0
M  V30 1347 H 131.825 5.14729 -4.66989 0
M  V30 1348 H 135.016 3.65505 -2.92444 0
M  V30 1349 H 135.189 4.89807 -4.24256 0
M  V30 1350 N 128.595 0.856903 1.32268 0
M  V30 1351 C 129.842 0.461386 1.97174 0
M  V30 1352 C 130.17 -0.983491 1.67803 0
M  V30 1353 O 129.425 -1.70541 0.959903 0
M  V30 1354 C 129.724 0.649919 3.51441 0
M  V30 1355 C 129.39 2.0656 4.00804 0
M  V30 1356 C 128.052 2.45279 4.13995 0
M  V30 1357 C 130.404 2.98947 4.26943 0
M  V30 1358 C 127.732 3.75653 4.50668 0
M  V30 1359 C 130.084 4.28822 4.65075 0
M  V30 1360 C 128.748 4.67472 4.76472 0
M  V30 1361 H 128.018 0.168833 0.72151 0
M  V30 1362 H 130.665 1.08739 1.57633 0
M  V30 1363 H 128.97 -0.0593018 3.91755 0
M  V30 1364 H 130.667 0.32391 3.9969 0
M  V30 1365 H 127.257 1.75495 3.91024 0
M  V30 1366 H 131.441 2.70265 4.16258 0
M  V30 1367 H 126.697 4.05379 4.57688 0
M  V30 1368 H 130.871 5.0047 4.84255 0
M  V30 1369 H 128.498 5.68539 5.04646 0
M  V30 1370 N 130.073 -1.45103 0.615059 0
M  V30 1371 C 131.32 -2.02183 0.113179 0
M  V30 1372 C 131.648 -1.48249 -1.25906 0
M  V30 1373 O 130.903 -0.650265 -1.84581 0
M  V30 1374 C 131.202 -3.57386 0.0318797 0
M  V30 1375 C 130.868 -4.30505 1.34077 0
M  V30 1376 C 129.53 -4.50197 1.69929 0
M  V30 1377 C 131.882 -4.72238 2.20546 0
M  V30 1378 C 129.21 -5.08881 2.91988 0
M  V30 1379 C 131.562 -5.32272 3.41861 0
M  V30 1380 C 130.226 -5.50187 3.77956 0
M  V30 1381 H 129.496 -0.739842 0.0414151 0
M  V30 1382 H 132.143 -1.74073 0.798168 0
M  V30 1383 H 130.448 -3.84817 -0.736409 0
M  V30 1384 H 132.145 -3.99264 -0.372712 0
M  V30 1385 H 128.735 -4.15496 1.05173 0
M  V30 1386 H 132.919 -4.56751 1.94146 0
M  V30 1387 H 128.175 -5.20939 3.2005 0
M  V30 1388 H 132.349 -5.63563 4.09109 0
M  V30 1389 H 129.976 -5.95427 4.72622 0
M  V30 1390 N 131.551 -0.354651 -1.53558 0
M  V30 1391 C 132.483 0.5315 -2.22952 0
M  V30 1392 C 133.496 1.05503 -1.23988 0
M  V30 1393 O 134.685 0.963279 -1.50277 0
M  V30 1394 C 131.785 1.74538 -2.90499 0
M  V30 1395 C 130.958 1.35524 -4.15875 0
M  V30 1396 C 130.017 2.42999 -4.66731 0
M  V30 1397 O 129.043 2.05844 -5.30676 0
M  V30 1398 N 130.245 3.74423 -4.43608 0
M  V30 1399 H 133.01 -0.0628615 -2.99634 0
M  V30 1400 H 130.571 -0.179302 -1.60904 0
M  V30 1401 H 132.563 2.45892 -3.21433 0
M  V30 1402 H 131.133 2.24686 -2.17336 0
M  V30 1403 H 130.353 0.471998 -3.91364 0
M  V30 1404 H 131.641 1.07071 -4.97406 0
M  V30 1405 H 131.039 4.07391 -3.92491 0
M  V30 1406 H 129.596 4.41913 -4.7912 0
M  V30 1407 N 133.029 1.57378 -0.0835403 0
M  V30 1408 C 133.979 2.09916 0.889905 0
M  V30 1409 C 134.963 1.01151 1.25129 0
M  V30 1410 O 136.155 1.27443 1.2283 0
M  V30 1411 C 133.284 2.67379 2.15322 0
M  V30 1412 C 132.37 3.83167 1.81779 0
M  V30 1413 N 132.761 4.91665 1.18739 0
M  V30 1414 C 131.059 3.92685 2.11459 0
M  V30 1415 C 131.76 5.72409 1.0355 0
M  V30 1416 N 130.736 5.21062 1.54906 0
M  V30 1417 H 134.538 2.91188 0.398378 0
M  V30 1418 H 132.052 1.61956 0.120013 0
M  V30 1419 H 134.049 3.0334 2.8599 0
M  V30 1420 H 132.709 1.87558 2.65051 0
M  V30 1421 H 133.72 5.10784 0.855604 0
M  V30 1422 H 130.397 3.23856 2.63483 0
M  V30 1423 H 131.787 6.69699 0.543425 0
M  V30 1424 N 134.507 -0.190092 1.56449 0
M  V30 1425 C 135.756 -0.907912 1.80111 0
M  V30 1426 C 136.069 -1.84214 0.657619 0
M  V30 1427 O 137.275 -2.60094 0.778663 0
M  V30 1428 C 135.731 -1.66485 3.19078 0
M  V30 1429 C 135.339 -0.7752 4.41242 0
M  V30 1430 C 137.083 -2.37201 3.52045 0
M  V30 1431 C 134.99 -1.53129 5.71231 0
M  V30 1432 H 133.92 -0.34276 0.671589 0
M  V30 1433 H 136.571 -0.161109 1.82791 0
M  V30 1434 H 134.953 -2.45572 3.10661 0
M  V30 1435 H 136.127 -0.0226298 4.60794 0
M  V30 1436 H 134.442 -0.178627 4.16017 0
M  V30 1437 H 137.039 -2.94329 4.46402 0
M  V30 1438 H 137.382 -3.11632 2.76028 0
M  V30 1439 H 137.915 -1.65075 3.61932 0
M  V30 1440 H 134.654 -0.82967 6.50228 0
M  V30 1441 H 134.174 -2.25767 5.55688 0
M  V30 1442 H 135.853 -2.08377 6.12526 0
M  V30 1443 N 135.985 -1.50799 -0.457987 0
M  V30 1444 C 137.262 -1.52968 -1.21902 0
M  V30 1445 C 137.642 -0.281906 -2.09209 0
M  V30 1446 O 136.99 0.734076 -2.16388 0
M  V30 1447 C 137.2 -2.8326 -2.03875 0
M  V30 1448 C 138.548 -3.34425 -2.6162 0
M  V30 1449 O 139.572 -2.8467 -2.14106 0
M  V30 1450 O 138.431 -4.21188 -3.48228 0
M  V30 1451 H 135.525 -0.614129 -0.553873 0
M  V30 1452 H 138.071 -1.63098 -0.468739 0
M  V30 1453 H 136.843 -3.65543 -1.39621 0
M  V30 1454 H 136.466 -2.76195 -2.8601 0
M  V30 1455 N 137.463 0.71206 -1.40597 0
M  V30 1456 C 138.688 1.50617 -1.42581 0
M  V30 1457 C 139.113 1.88079 -0.0282102 0
M  V30 1458 O 138.471 1.53511 0.964579 0
M  V30 1459 C 138.519 2.7557 -2.3258 0
M  V30 1460 O 137.623 3.72414 -1.77148 0
M  V30 1461 H 136.964 0.453966 -0.484573 0
M  V30 1462 H 139.494 0.876649 -1.84868 0
M  V30 1463 H 139.504 3.2406 -2.47889 0
M  V30 1464 H 138.179 2.47639 -3.34138 0
M  V30 1465 H 136.756 3.31276 -1.71204 0
M  V30 1466 N 138.941 1.26152 0.944643 0
M  V30 1467 C 139.888 1.07408 2.04285 0
M  V30 1468 C 140.858 -0.0198413 1.66088 0
M  V30 1469 O 142.043 0.139264 1.90291 0
M  V30 1470 C 139.183 0.70945 3.37729 0
M  V30 1471 C 138.296 1.87926 3.88983 0
M  V30 1472 C 137.431 1.45807 5.10797 0
M  V30 1473 C 136.47 2.5964 5.54305 0
M  V30 1474 N 135.607 2.18226 6.67324 0
M  V30 1475 H 140.447 2.01389 2.1965 0
M  V30 1476 H 137.984 1.00275 1.07626 0
M  V30 1477 H 139.942 0.478948 4.14442 0
M  V30 1478 H 138.572 -0.193389 3.2222 0
M  V30 1479 H 137.624 2.22279 3.08701 0
M  V30 1480 H 138.936 2.73377 4.17213 0
M  V30 1481 H 138.09 1.18781 5.94959 0
M  V30 1482 H 136.829 0.574414 4.84305 0
M  V30 1483 H 135.834 2.87399 4.68702 0
M  V30 1484 H 137.059 3.48599 5.828 0
M  V30 1485 H 135.005 1.3229 6.42523 0
M  V30 1486 H 134.922 2.97221 6.95123 0
M  V30 1487 H 136.19 1.94403 7.54869 0
M  V30 1488 N 140.419 -1.14872 1.07899 0
M  V30 1489 C 141.83 -1.67367 0.827363 0
M  V30 1490 C 142.181 -1.85236 -0.646693 0
M  V30 1491 O 141.306 -1.55974 -1.50004 0
M  V30 1492 C 141.901 -3.04016 1.49532 0
M  V30 1493 C 140.46 -3.53566 1.29106 0
M  V30 1494 C 139.607 -2.29161 1.56143 0
M  V30 1495 H 142.558 -0.990083 1.24028 0
M  V30 1496 H 142.579 -3.69219 0.919643 0
M  V30 1497 H 142.091 -2.90978 2.56814 0
M  V30 1498 H 140.192 -3.71835 0.238713 0
M  V30 1499 H 140.305 -4.34661 2.01511 0
M  V30 1500 H 138.669 -2.34978 0.982717 0
M  V30 1501 H 139.452 -2.18705 2.64619 0
M  V30 1502 N 141.898 -0.863906 -1.31812 0
M  V30 1503 C 143.123 -0.48527 -2.01643 0
M  V30 1504 C 143.548 0.913058 -1.64453 0
M  V30 1505 O 142.906 1.6014 -0.849985 0
M  V30 1506 C 142.954 -0.642625 -3.54828 0
M  V30 1507 O 142.058 0.320659 -4.11151 0
M  V30 1508 H 141.399 -0.193793 -0.635091 0
M  V30 1509 H 143.929 -1.16565 -1.68148 0
M  V30 1510 H 143.939 -0.533628 -4.04495 0
M  V30 1511 H 142.614 -1.66227 -3.81237 0
M  V30 1512 H 141.191 0.167126 -3.72525 0
M  V30 1513 N 143.376 1.44774 -0.622745 0
M  V30 1514 C 144.792 1.56986 -0.287652 0
M  V30 1515 C 144.992 1.61167 1.20944 0
M  V30 1516 O 144.048 1.55015 1.99315 0
M  V30 1517 C 145.361 2.84551 -0.972188 0
M  V30 1518 C 146.909 2.9825 -0.949536 0
M  V30 1519 C 147.384 4.28605 -1.61437 0
M  V30 1520 N 148.875 4.35399 -1.58057 0
M  V30 1521 C 149.61 5.34964 -2.064 0
M  V30 1522 N 149.106 6.40981 -2.62897 0
M  V30 1523 N 150.899 5.26419 -1.97078 0
M  V30 1524 H 143.05 1.40304 -1.59463 0
M  V30 1525 H 145.313 0.671794 -0.668878 0
M  V30 1526 H 145.019 2.87417 -2.02693 0
M  V30 1527 H 144.893 3.73807 -0.504771 0
M  V30 1528 H 147.28 2.94941 0.0967067 0
M  V30 1529 H 147.361 2.10364 -1.45536 0
M  V30 1530 H 147.005 4.32672 -2.66002 0
M  V30 1531 H 146.935 5.15334 -1.08344 0
M  V30 1532 H 149.426 3.59397 -1.16801 0
M  V30 1533 H 149.739 7.13225 -2.97539 0
M  V30 1534 H 148.084 6.4169 -2.66943 0
M  V30 1535 H 151.275 4.42504 -1.52669 0
M  V30 1536 H 151.448 6.03861 -2.35066 0
M  V30 1537 N 144.854 0.36279 1.53368 0
M  V30 1538 C 145.804 -0.501391 2.22419 0
M  V30 1539 C 146.788 -1.0509 1.2184 0
M  V30 1540 O 147.98 -0.981404 1.47301 0
M  V30 1541 C 145.109 -1.64201 3.01484 0
M  V30 1542 C 144.195 -1.10552 4.09438 0
M  V30 1543 N 144.586 -0.291788 5.04958 0
M  V30 1544 C 142.884 -1.3806 4.24094 0
M  V30 1545 C 143.585 0.00162655 5.817 0
M  V30 1546 N 142.561 -0.595244 5.40331 0
M  V30 1547 H 146.363 0.127159 2.93625 0
M  V30 1548 H 143.877 0.170658 1.61501 0
M  V30 1549 H 145.874 -2.27326 3.49469 0
M  V30 1550 H 144.534 -2.27365 2.31809 0
M  V30 1551 H 145.545 0.0687731 5.17854 0
M  V30 1552 H 142.222 -2.01522 3.65644 0
M  V30 1553 H 143.612 0.659278 6.68658 0
M  V30 1554 N 146.332 -1.57332 0.0918853 0
M  V30 1555 C 147.579 -1.94236 -0.572577 0
M  V30 1556 C 147.907 -0.973398 -1.6839 0
M  V30 1557 O 147.162 0.00756912 -1.95699 0
M  V30 1558 C 147.461 -3.37689 -1.17051 0
M  V30 1559 C 147.127 -4.50527 -0.183304 0
M  V30 1560 C 145.789 -4.81119 0.0882276 0
M  V30 1561 C 148.141 -5.18883 0.49095 0
M  V30 1562 C 145.469 -5.77395 1.04076 0
M  V30 1563 C 147.821 -6.1618 1.43193 0
M  V30 1564 C 146.485 -6.45179 1.71173 0
M  V30 1565 H 145.755 -0.710762 -0.209521 0
M  V30 1566 H 148.402 -1.9077 0.167036 0
M  V30 1567 H 146.707 -3.37718 -1.9863 0
M  V30 1568 H 148.404 -3.63543 -1.69227 0
M  V30 1569 H 144.994 -4.26681 -0.405124 0
M  V30 1570 H 149.178 -4.95427 0.294312 0
M  V30 1571 H 144.434 -5.98179 1.26457 0
M  V30 1572 H 148.608 -6.68243 1.96023 0
M  V30 1573 H 146.235 -7.1959 2.4514 0
M  V30 1574 N 147.81 0.181792 -1.56548 0
M  V30 1575 C 149.059 0.898348 -1.8059 0
M  V30 1576 C 149.372 1.83862 -0.667379 0
M  V30 1577 O 150.578 2.59678 -0.792446 0
M  V30 1578 C 149.034 1.64791 -3.19956 0
M  V30 1579 C 148.642 0.751789 -4.41647 0
M  V30 1580 C 150.386 2.35331 -3.53298 0
M  V30 1581 C 148.293 1.50098 -5.72035 0
M  V30 1582 H 147.223 0.339194 -0.673397 0
M  V30 1583 H 149.874 0.151413 -1.82874 0
M  V30 1584 H 148.256 2.43921 -3.11959 0
M  V30 1585 H 149.43 -0.0018076 -4.608 0
M  V30 1586 H 147.745 0.156562 -4.16106 0
M  V30 1587 H 150.342 2.91958 -4.47956 0
M  V30 1588 H 150.685 3.10164 -2.77676 0
M  V30 1589 H 151.218 1.63154 -3.62803 0
M  V30 1590 H 147.957 0.795175 -6.50659 0
M  V30 1591 H 147.477 2.22817 -5.56878 0
M  V30 1592 H 149.156 2.05125 -6.13622 0
M  V30 1593 N 149.288 1.51039 0.449983 0
M  V30 1594 C 150.699 1.557 1.03026 0
M  V30 1595 C 151.05 0.372939 1.92623 0
M  V30 1596 O 150.175 -0.511771 2.10261 0
M  V30 1597 C 150.77 2.82171 1.87523 0
M  V30 1598 C 149.329 2.89444 2.40622 0
M  V30 1599 C 148.476 2.50228 1.19504 0
M  V30 1600 H 151.427 1.56999 0.231745 0
M  V30 1601 H 151.448 2.65219 2.72835 0
M  V30 1602 H 150.96 3.68331 1.22286 0
M  V30 1603 H 149.061 2.07685 3.0935 0
M  V30 1604 H 149.174 3.92816 2.74285 0
M  V30 1605 H 147.538 2.03139 1.53644 0
M  V30 1606 H 148.321 3.38719 0.558972 0
M  V30 1607 N 150.766 -0.704594 1.40972 0
M  V30 1608 C 151.714 -1.83994 1.42299 0
M  V30 1609 C 152.708 -1.66684 0.302111 0
M  V30 1610 O 153.914 -1.73655 0.473697 0
M  V30 1611 H 150.289 -0.606171 0.44504 0
M  V30 1612 H 152.26 -1.79992 2.38003 0
M  V30 1613 C 151.009 -3.21946 1.31323 0
M  V30 1614 H 150.332 -3.35878 2.16855 0
M  V30 1615 H 151.772 -4.01491 1.36311 0
M  V30 1616 C 150.231 -3.36891 0.0245977 0
M  V30 1617 O 150.761 -3.90687 -0.934153 0
M  V30 1618 N 148.967 -2.90559 -0.0485243 0
M  V30 1619 H 148.514 -2.46968 0.732419 0
M  V30 1620 H 148.472 -3.00937 -0.910171 0
M  V30 1621 N 152.244 -1.26651 -0.937939 0
M  V30 1622 C 153.492 -1.12165 -1.68118 0
M  V30 1623 C 153.813 0.334983 -1.92101 0
M  V30 1624 O 153.083 1.23583 -1.52 0
M  V30 1625 H 151.663 -0.412093 -0.623048 0
M  V30 1626 H 154.325 -1.59027 -1.12678 0
M  V30 1627 H 153.421 -1.64289 -2.6536 0
M  V30 1628 N 153.722 1.14298 -1.08507 0
M  V30 1629 C 154.67 2.21483 -0.710483 0
M  V30 1630 C 155.664 1.66998 0.284234 0
M  V30 1631 O 156.87 1.79401 0.146692 0
M  V30 1632 H 153.245 0.721578 -0.211729 0
M  V30 1633 H 155.216 2.50348 -1.62384 0
M  V30 1634 C 153.965 3.4743 -0.137007 0
M  V30 1635 H 153.288 3.89686 -0.893592 0
M  V30 1636 H 154.728 4.2391 0.0872789 0
M  V30 1637 C 153.187 3.17548 1.12538 0
M  V30 1638 O 153.717 3.35437 2.21009 0
M  V30 1639 N 151.923 2.71499 1.03617 0
M  V30 1640 H 151.47 2.57143 0.153403 0
M  V30 1641 H 151.428 2.51881 1.88158 0
M  V30 1642 N 155.201 0.870884 1.31352 0
M  V30 1643 C 156.164 0.332243 2.26779 0
M  V30 1644 C 157.164 -0.517302 1.52252 0
M  V30 1645 O 158.354 -0.326477 1.71113 0
M  V30 1646 C 155.486 -0.528066 3.36785 0
M  V30 1647 H 156.679 1.17469 2.75937 0
M  V30 1648 H 154.232 0.64655 1.423 0
M  V30 1649 H 154.967 -1.39167 2.92922 0
M  V30 1650 H 154.752 0.0802582 3.92018 0
M  V30 1651 H 156.242 -0.897179 4.07849 0
M  V30 1652 N 156.679 -1.44442 0.630414 0
M  V30 1653 C 157.956 -1.9549 0.0655657 0
M  V30 1654 C 158.336 -1.5724 -1.40851 0
M  V30 1655 O 157.684 -0.846116 -2.12257 0
M  V30 1656 C 157.894 -3.47812 0.287691 0
M  V30 1657 C 159.242 -4.24216 0.180513 0
M  V30 1658 O 160.266 -3.55526 0.219019 0
M  V30 1659 O 159.125 -5.46434 0.0848493 0
M  V30 1660 H 156.219 -0.826688 -0.0227177 0
M  V30 1661 H 158.765 -1.54496 0.702068 0
M  V30 1662 H 157.537 -3.687 1.31056 0
M  V30 1663 H 157.16 -3.95751 -0.382984 0
M  V30 1664 N 158.157 -0.370918 -1.53173 0
M  V30 1665 C 159.434 0.273754 -1.93675 0
M  V30 1666 C 159.814 1.65938 -1.3049 0
M  V30 1667 O 159.162 2.23698 -0.465999 0
M  V30 1668 C 159.372 0.318602 -3.47543 0
M  V30 1669 C 160.72 0.556392 -4.20939 0
M  V30 1670 O 161.744 0.399587 -3.53952 0
M  V30 1671 O 160.603 0.862133 -5.39657 0
M  V30 1672 H 157.697 0.165448 -0.810281 0
M  V30 1673 H 160.243 -0.42409 -1.64315 0
M  V30 1674 H 159.015 -0.652687 -3.85818 0
M  V30 1675 H 158.638 1.06212 -3.83151 0
M  V30 1676 N 159.635 1.57281 -0.100228 0
M  V30 1677 C 160.565 2.17328 0.853857 0
M  V30 1678 C 161.546 1.10804 1.2906 0
M  V30 1679 O 162.731 1.38963 1.35657 0
M  V30 1680 C 159.861 2.75772 2.11109 0
M  V30 1681 C 158.815 3.87713 1.81279 0
M  V30 1682 C 158.141 4.32882 3.13874 0
M  V30 1683 C 159.441 5.10677 1.09574 0
M  V30 1684 H 161.135 2.97305 0.353545 0
M  V30 1685 H 158.681 1.43009 0.168612 0
M  V30 1686 H 160.634 3.16433 2.78296 0
M  V30 1687 H 159.358 1.93057 2.63432 0
M  V30 1688 H 158.017 3.476 1.16489 0
M  V30 1689 H 157.665 3.47051 3.64095 0
M  V30 1690 H 157.365 5.08358 2.94696 0
M  V30 1691 H 158.889 4.7618 3.82211 0
M  V30 1692 H 160.303 5.48474 1.66879 0
M  V30 1693 H 158.7 5.91615 1.00557 0
M  V30 1694 H 159.77 4.84835 0.0793299 0
M  V30 1695 N 161.113 -0.173488 1.56642 0
M  V30 1696 C 162.023 -1.23482 1.99473 0
M  V30 1697 C 163.039 -1.48567 0.905752 0
M  V30 1698 O 164.215 -1.60758 1.21321 0
M  V30 1699 C 161.28 -2.55444 2.34413 0
M  V30 1700 C 160.341 -2.38241 3.57127 0
M  V30 1701 C 159.574 -3.63909 3.90392 0
M  V30 1702 O 159.797 -4.68996 3.24653 0
M  V30 1703 O 158.731 -3.58149 4.83749 0
M  V30 1704 H 162.557 -0.901279 2.90018 0
M  V30 1705 H 160.142 -0.380185 1.44482 0
M  V30 1706 H 162.024 -3.33292 2.57865 0
M  V30 1707 H 160.699 -2.88382 1.4703 0
M  V30 1708 H 159.606 -1.58431 3.38896 0
M  V30 1709 H 160.939 -2.10228 4.45045 0
M  V30 1710 N 162.591 -1.51276 -0.441967 0
M  V30 1711 C 163.554 -1.7167 -1.51862 0
M  V30 1712 C 164.554 -0.586793 -1.49711 0
M  V30 1713 O 165.744 -0.854276 -1.51815 0
M  V30 1714 C 162.876 -1.76889 -2.91416 0
M  V30 1715 H 164.069 -2.67754 -1.35084 0
M  V30 1716 H 161.622 -1.41196 -0.670333 0
M  V30 1717 H 162.357 -0.826026 -3.13604 0
M  V30 1718 H 162.142 -2.59001 -2.94382 0
M  V30 1719 H 163.632 -1.94522 -3.69528 0
M  V30 1720 N 164.069 0.697108 -1.41344 0
M  V30 1721 C 164.979 1.84088 -1.45427 0
M  V30 1722 C 165.995 1.70545 -0.34501 0
M  V30 1723 O 167.171 1.92488 -0.592492 0
M  V30 1724 C 164.236 3.20056 -1.33286 0
M  V30 1725 C 163.297 3.45718 -2.54514 0
M  V30 1726 C 162.53 4.75199 -2.42944 0
M  V30 1727 O 162.753 5.51579 -1.45318 0
M  V30 1728 O 161.687 5.0161 -3.32672 0
M  V30 1729 H 165.513 1.836 -2.41919 0
M  V30 1730 H 163.098 0.849966 -1.22866 0
M  V30 1731 H 164.98 4.01236 -1.28794 0
M  V30 1732 H 163.655 3.2123 -0.39909 0
M  V30 1733 H 162.562 2.64474 -2.64583 0
M  V30 1734 H 163.895 3.49356 -3.46715 0
M  V30 1735 N 165.547 1.27147 0.931209 0
M  V30 1736 C 166.787 1.14511 1.69312 0
M  V30 1737 C 167.151 -0.304638 1.89568 0
M  V30 1738 O 168.352 -0.553343 2.63043 0
M  V30 1739 C 166.623 1.90349 3.02493 0
M  V30 1740 S 168.182 1.93884 3.93642 0
M  V30 1741 H 165 0.408858 0.581684 0
M  V30 1742 H 167.602 1.61006 1.10893 0
M  V30 1743 H 166.306 2.94877 2.85439 0
M  V30 1744 H 165.837 1.44333 3.65966 0
M  V30 1745 H 167.852 1.03273 4.85334 0
M  V30 1746 N 167.025 -1.13721 1.09112 0
M  V30 1747 C 168.441 -1.36914 0.820174 0
M  V30 1748 C 168.641 -1.93356 -0.567079 0
M  V30 1749 O 167.697 -2.15093 -1.32255 0
M  V30 1750 C 169.01 -2.3235 1.90877 0
M  V30 1751 C 170.558 -2.45973 1.93562 0
M  V30 1752 C 171.033 -3.44714 3.01556 0
M  V30 1753 N 172.524 -3.52263 3.00775 0
M  V30 1754 C 173.259 -4.28536 3.80978 0
M  V30 1755 N 172.755 -5.07991 4.71081 0
M  V30 1756 N 174.548 -4.23804 3.69251 0
M  V30 1757 H 166.699 -0.754348 1.98553 0
M  V30 1758 H 168.962 -0.3944 0.862063 0
M  V30 1759 H 168.668 -1.98027 2.90651 0
M  V30 1760 H 168.542 -3.32332 1.78424 0
M  V30 1761 H 170.929 -2.79584 0.944286 0
M  V30 1762 H 171.01 -1.45926 2.10093 0
M  V30 1763 H 170.654 -3.11835 4.00901 0
M  V30 1764 H 170.584 -4.44558 2.82269 0
M  V30 1765 H 173.075 -2.95567 2.35475 0
M  V30 1766 H 173.388 -5.63487 5.28869 0
M  V30 1767 H 171.733 -5.07235 4.75119 0
M  V30 1768 H 174.924 -3.60806 2.98222 0
M  V30 1769 H 175.097 -4.82995 4.31995 0
M  V30 1770 N 168.503 -0.877838 -1.30888 0
M  V30 1771 C 169.919 -0.570844 -1.49042 0
M  V30 1772 C 170.119 0.893159 -1.80624 0
M  V30 1773 O 169.175 1.67485 -1.88958 0
M  V30 1774 C 170.488 -1.47784 -2.61878 0
M  V30 1775 C 172.036 -1.48071 -2.75761 0
M  V30 1776 C 172.511 -2.37347 -3.91702 0
M  V30 1777 N 174.002 -2.35271 -3.99001 0
M  V30 1778 C 174.737 -3.01063 -4.88004 0
M  V30 1779 N 174.233 -3.76055 -5.81854 0
M  V30 1780 N 176.026 -2.90332 -4.81315 0
M  V30 1781 H 168.177 -1.82502 -1.0866 0
M  V30 1782 H 170.44 -0.780797 -0.537644 0
M  V30 1783 H 170.146 -2.51993 -2.45341 0
M  V30 1784 H 170.02 -1.18215 -3.58197 0
M  V30 1785 H 172.407 -0.446166 -2.91708 0
M  V30 1786 H 172.488 -1.81668 -1.80085 0
M  V30 1787 H 172.132 -3.40883 -3.76512 0
M  V30 1788 H 172.062 -2.01071 -4.86701 0
M  V30 1789 H 174.553 -1.80768 -3.3186 0
M  V30 1790 H 174.866 -4.23366 -6.46514 0
M  V30 1791 H 173.211 -3.80163 -5.81808 0
M  V30 1792 H 176.402 -2.31278 -4.06974 0
M  V30 1793 H 176.575 -3.41885 -5.50471 0
M  V30 1794 N 169.982 1.44106 -0.638065 0
M  V30 1795 C 171.212 2.06037 -0.152394 0
M  V30 1796 C 171.62 1.47808 1.18108 0
M  V30 1797 O 170.963 0.598092 1.73691 0
M  V30 1798 C 171.025 3.59488 0.0293714 0
M  V30 1799 C 170.689 4.4022 -1.22702 0
M  V30 1800 C 171.686 4.73256 -2.15232 0
M  V30 1801 C 169.371 4.8048 -1.46437 0
M  V30 1802 C 171.365 5.45444 -3.29802 0
M  V30 1803 C 169.052 5.52417 -2.61303 0
M  V30 1804 C 170.05 5.84819 -3.52811 0
M  V30 1805 O 169.738 6.55289 -4.65673 0
M  V30 1806 H 169.47 0.671233 -0.0801401 0
M  V30 1807 H 172.024 1.85851 -0.874563 0
M  V30 1808 H 170.254 3.78191 0.806758 0
M  V30 1809 H 171.943 4.03164 0.470475 0
M  V30 1810 H 172.709 4.42684 -1.98131 0
M  V30 1811 H 168.588 4.54676 -0.760977 0
M  V30 1812 H 172.132 5.70653 -4.01249 0
M  V30 1813 H 168.029 5.82404 -2.78344 0
M  V30 1814 H 168.797 6.73762 -4.64744 0
M  V30 1815 N 171.46 0.379036 1.52974 0
M  V30 1816 C 172.37 -0.468639 2.29872 0
M  V30 1817 C 173.386 -1.08067 1.36373 0
M  V30 1818 O 174.562 -1.08871 1.69438 0
M  V30 1819 C 171.627 -1.58594 3.083 0
M  V30 1820 C 170.688 -1.00007 4.17489 0
M  V30 1821 C 169.921 -2.06413 4.92168 0
M  V30 1822 O 170.144 -3.27751 4.66835 0
M  V30 1823 O 169.078 -1.68717 5.7777 0
M  V30 1824 H 172.904 0.157508 3.03291 0
M  V30 1825 H 170.489 0.143035 1.48714 0
M  V30 1826 H 172.371 -2.23525 3.57232 0
M  V30 1827 H 171.046 -2.19724 2.37703 0
M  V30 1828 H 169.953 -0.314299 3.72777 0
M  V30 1829 H 171.286 -0.433135 4.90291 0
M  V30 1830 N 172.938 -1.57226 0.108567 0
M  V30 1831 C 173.87 -2.11809 -0.875752 0
M  V30 1832 C 174.883 -1.05839 -1.23701 0
M  V30 1833 O 176.072 -1.33245 -1.18778 0
M  V30 1834 C 173.172 -2.59411 -2.18081 0
M  V30 1835 C 172.345 -3.89364 -1.99284 0
M  V30 1836 C 171.404 -4.22672 -3.13424 0
M  V30 1837 O 170.43 -4.91668 -2.86795 0
M  V30 1838 N 171.632 -3.79154 -4.3957 0
M  V30 1839 H 174.397 -2.9689 -0.409477 0
M  V30 1840 H 171.958 -1.61721 -0.076158 0
M  V30 1841 H 173.95 -2.7873 -2.93414 0
M  V30 1842 H 172.52 -1.79268 -2.5609 0
M  V30 1843 H 171.74 -3.79059 -1.08203 0
M  V30 1844 H 173.028 -4.74358 -1.84017 0
M  V30 1845 H 172.426 -3.23486 -4.64083 0
M  V30 1846 H 170.983 -4.03602 -5.11809 0
M  V30 1847 N 174.416 0.165178 -1.56732 0
M  V30 1848 C 175.346 1.20651 -1.99914 0
M  V30 1849 C 176.327 1.45827 -0.875705 0
M  V30 1850 O 177.512 1.57057 -1.14223 0
M  V30 1851 C 174.642 2.54401 -2.36427 0
M  V30 1852 C 173.596 2.43782 -3.51787 0
M  V30 1853 C 172.922 3.82078 -3.7406 0
M  V30 1854 C 174.222 1.93732 -4.85041 0
M  V30 1855 H 175.916 0.847534 -2.87154 0
M  V30 1856 H 173.462 0.40625 -1.38151 0
M  V30 1857 H 175.415 3.27458 -2.65234 0
M  V30 1858 H 174.139 2.92098 -1.46103 0
M  V30 1859 H 172.798 1.73178 -3.23117 0
M  V30 1860 H 172.446 4.17179 -2.81017 0
M  V30 1861 H 172.146 3.7584 -4.51684 0
M  V30 1862 H 173.67 4.56712 -4.05274 0
M  V30 1863 H 175.084 2.56569 -5.12684 0
M  V30 1864 H 173.481 1.98428 -5.66345 0
M  V30 1865 H 174.551 0.891962 -4.76626 0
M  V30 1866 N 175.894 1.51508 0.433938 0
M  V30 1867 C 177.14 1.64588 1.18484 0
M  V30 1868 C 177.473 0.362666 1.90784 0
M  V30 1869 O 176.748 -0.637892 1.83742 0
M  V30 1870 C 177.031 2.85149 2.19913 0
M  V30 1871 C 176.884 4.23456 1.51674 0
M  V30 1872 C 178.203 3.01227 3.20858 0
M  V30 1873 H 175.322 0.598994 0.429389 0
M  V30 1874 H 177.964 1.84002 0.473647 0
M  V30 1875 H 176.114 2.68729 2.80566 0
M  V30 1876 H 177.786 4.51552 0.943322 0
M  V30 1877 H 176.029 4.25998 0.819035 0
M  V30 1878 H 176.7 5.03812 2.2556 0
M  V30 1879 H 179.176 3.16382 2.70263 0
M  V30 1880 H 178.052 3.87141 3.89118 0
M  V30 1881 H 178.313 2.13447 3.8716 0
M  V30 1882 N 177.372 -0.689602 1.41712 0
M  V30 1883 C 178.649 -1.44457 1.31877 0
M  V30 1884 C 179.029 -2.11039 -0.0508537 0
M  V30 1885 O 178.377 -2.02138 -1.06547 0
M  V30 1886 C 178.587 -2.45913 2.47645 0
M  V30 1887 C 179.935 -3.10991 2.89084 0
M  V30 1888 O 180.959 -2.56238 2.47428 0
M  V30 1889 O 179.818 -4.10174 3.61137 0
M  V30 1890 H 176.912 -0.64362 0.519309 0
M  V30 1891 H 179.458 -0.719576 1.53689 0
M  V30 1892 H 178.23 -1.95409 3.39015 0
M  V30 1893 H 177.853 -3.25913 2.27742 0
M  V30 1894 N 178.85 -1.27639 -0.924453 0
M  V30 1895 C 180.075 -1.17101 -1.71179 0
M  V30 1896 C 180.5 0.268134 -1.86179 0
M  V30 1897 O 179.858 1.19415 -1.36418 0
M  V30 1898 C 179.906 -1.86313 -3.08739 0
M  V30 1899 O 179.01 -1.16331 -3.95652 0
M  V30 1900 H 178.351 -0.407091 -0.524569 0
M  V30 1901 H 180.881 -1.68767 -1.15666 0
M  V30 1902 H 180.891 -1.938 -3.59034 0
M  V30 1903 H 179.566 -2.91001 -2.97138 0
M  V30 1904 H 178.143 -1.16935 -3.54091 0
M  V30 1905 N 180.328 1.1314 -1.09713 0
M  V30 1906 C 181.258 2.20748 -0.761102 0
M  V30 1907 C 182.239 1.68061 0.262566 0
M  V30 1908 O 183.424 1.93765 0.129977 0
M  V30 1909 C 180.554 3.46812 -0.184054 0
M  V30 1910 C 179.508 4.12606 -1.13757 0
M  V30 1911 C 178.834 5.33031 -0.422083 0
M  V30 1912 C 180.134 4.59603 -2.48118 0
M  V30 1913 H 181.828 2.49113 -1.66082 0
M  V30 1914 H 179.374 1.19734 -0.799987 0
M  V30 1915 H 181.327 4.21353 0.0631215 0
M  V30 1916 H 180.051 3.17851 0.750868 0
M  V30 1917 H 178.71 3.40036 -1.37007 0
M  V30 1918 H 178.358 5.00335 0.517072 0
M  V30 1919 H 178.058 5.77999 -1.05788 0
M  V30 1920 H 179.582 6.10325 -0.183277 0
M  V30 1921 H 180.996 5.25552 -2.29059 0
M  V30 1922 H 179.393 5.15321 -3.07514 0
M  V30 1923 H 180.463 3.73971 -3.08665 0
M  V30 1924 N 181.806 0.884767 1.30421 0
M  V30 1925 C 183.054 0.502112 1.95763 0
M  V30 1926 C 183.375 -0.951815 1.70192 0
M  V30 1927 O 182.645 -1.6692 1.0254 0
M  V30 1928 H 181.225 0.182694 0.724315 0
M  V30 1929 H 183.887 1.1278 1.58955 0
M  V30 1930 H 182.983 0.672188 3.04775 0
M  V30 1931 N 183.284 -1.43765 0.645699 0
M  V30 1932 C 184.561 -1.9541 0.0862963 0
M  V30 1933 C 184.941 -1.58725 -1.39175 0
M  V30 1934 O 184.289 -0.868581 -2.11348 0
M  V30 1935 C 184.499 -3.47488 0.324565 0
M  V30 1936 C 185.847 -4.24001 0.225497 0
M  V30 1937 O 186.871 -3.55274 0.256715 0
M  V30 1938 O 185.73 -5.46313 0.142801 0
M  V30 1939 H 182.824 -0.826882 -0.0139483 0
M  V30 1940 H 185.37 -1.53743 0.718415 0
M  V30 1941 H 184.142 -3.67289 1.3496 0
M  V30 1942 H 183.765 -3.96135 -0.340987 0
M  V30 1943 N 184.763 -0.387143 -1.52771 0
M  V30 1944 C 185.991 0.195869 -2.05971 0
M  V30 1945 C 186.406 1.40691 -1.25903 0
M  V30 1946 O 185.763 1.79931 -0.305134 0
M  V30 1947 C 185.814 0.56812 -3.57008 0
M  V30 1948 O 185.535 -0.594803 -4.34043 0
M  V30 1949 C 187.036 1.20723 -4.26545 0
M  V30 1950 H 184.256 0.0300578 -0.670326 0
M  V30 1951 H 186.8 -0.551749 -1.96916 0
M  V30 1952 H 184.955 1.26564 -3.66143 0
M  V30 1953 H 185.369 -0.289322 -5.23701 0
M  V30 1954 H 186.843 1.41807 -5.33474 0
M  V30 1955 H 187.32 2.17395 -3.81623 0
M  V30 1956 H 187.926 0.550535 -4.21722 0
M  V30 1957 N 186.241 1.57166 -0.116904 0
M  V30 1958 C 187.518 1.86645 0.585049 0
M  V30 1959 C 187.898 1.0177 1.84949 0
M  V30 1960 O 187.246 0.0960379 2.28298 0
M  V30 1961 C 187.456 3.37736 0.879507 0
M  V30 1962 C 188.804 4.06289 1.23348 0
M  V30 1963 O 189.828 3.42743 0.969836 0
M  V30 1964 O 188.687 5.18455 1.7282 0
M  V30 1965 H 185.781 0.772593 0.295007 0
M  V30 1966 H 188.327 1.69025 -0.151249 0
M  V30 1967 H 187.099 3.91296 -0.0166136 0
M  V30 1968 H 186.722 3.6078 1.67103 0
M  V30 1969 N 187.719 -0.156864 1.56817 0
M  V30 1970 C 188.968 -0.869504 1.81996 0
M  V30 1971 C 189.281 -1.82777 0.696545 0
M  V30 1972 O 190.487 -2.58384 0.833658 0
M  V30 1973 C 188.943 -1.59679 3.22538 0
M  V30 1974 C 188.551 -0.681431 4.42787 0
M  V30 1975 C 190.295 -2.2968 3.56997 0
M  V30 1976 C 188.202 -1.40978 5.74351 0
M  V30 1977 H 187.132 -0.328438 0.678708 0
M  V30 1978 H 189.783 -0.1223 1.83092 0
M  V30 1979 H 188.165 -2.38927 3.158 0
M  V30 1980 H 189.339 0.0751166 4.60739 0
M  V30 1981 H 187.654 -0.0903431 4.16302 0
M  V30 1982 H 190.251 -2.84794 4.52544 0
M  V30 1983 H 190.594 -3.05707 2.82576 0
M  V30 1984 H 191.127 -1.57361 3.65352 0
M  V30 1985 H 187.866 -0.691561 6.51842 0
M  V30 1986 H 187.386 -2.13929 5.60352 0
M  V30 1987 H 189.065 -1.95337 6.16808 0
M  V30 1988 N 189.197 -1.51736 -0.425897 0
M  V30 1989 C 190.129 -1.70083 -1.53638 0
M  V30 1990 C 191.142 -0.581349 -1.52066 0
M  V30 1991 O 192.331 -0.856017 -1.56635 0
M  V30 1992 C 189.431 -1.71078 -2.9255 0
M  V30 1993 C 188.604 -2.99795 -3.185 0
M  V30 1994 C 187.663 -2.92825 -4.37196 0
M  V30 1995 O 186.689 -3.66756 -4.35291 0
M  V30 1996 N 187.891 -2.0946 -5.41393 0
M  V30 1997 H 190.656 -2.65882 -1.383 0
M  V30 1998 H 188.217 -1.49765 -0.614988 0
M  V30 1999 H 190.209 -1.63969 -3.69995 0
M  V30 2000 H 188.779 -0.828242 -3.01428 0
M  V30 2001 H 187.999 -3.20684 -2.2925 0
M  V30 2002 H 189.287 -3.84977 -3.32671 0
M  V30 2003 H 188.685 -1.48792 -5.45781 0
M  V30 2004 H 187.242 -2.08221 -6.17647 0
M  V30 2005 N 190.675 0.682077 -1.42076 0
M  V30 2006 C 191.605 1.80796 -1.47767 0
M  V30 2007 C 192.586 1.6677 -0.334954 0
M  V30 2008 O 193.771 1.863 -0.548264 0
M  V30 2009 C 190.901 3.19038 -1.37229 0
M  V30 2010 C 189.855 3.47789 -2.49453 0
M  V30 2011 C 189.181 4.8553 -2.23975 0
M  V30 2012 C 190.481 3.45411 -3.91776 0
M  V30 2013 H 192.175 1.7629 -2.41997 0
M  V30 2014 H 189.721 0.846721 -1.16476 0
M  V30 2015 H 191.674 3.97528 -1.39821 0
M  V30 2016 H 190.398 3.24204 -0.394907 0
M  V30 2017 H 189.057 2.71657 -2.46166 0
M  V30 2018 H 188.705 4.87337 -1.24547 0
M  V30 2019 H 188.405 5.0573 -2.99184 0
M  V30 2020 H 189.929 5.66312 -2.28304 0
M  V30 2021 H 191.343 4.13882 -3.96705 0
M  V30 2022 H 189.74 3.77145 -4.66778 0
M  V30 2023 H 190.81 2.44122 -4.18966 0
M  V30 2024 N 192.153 1.28127 0.917671 0
M  V30 2025 C 193.083 1.14248 2.03641 0
M  V30 2026 C 194.064 0.0412748 1.7005 0
M  V30 2027 O 195.249 0.217566 1.92977 0
M  V30 2028 C 192.379 0.799431 3.37974 0
M  V30 2029 C 191.333 1.85497 3.85713 0
M  V30 2030 C 190.659 1.36565 5.16966 0
M  V30 2031 C 191.959 3.26085 4.08002 0
M  V30 2032 H 193.653 2.07835 2.15511 0
M  V30 2033 H 191.199 1.00064 1.03553 0
M  V30 2034 H 193.152 0.689114 4.15727 0
M  V30 2035 H 191.876 -0.172145 3.26146 0
M  V30 2036 H 190.535 1.95437 3.10161 0
M  V30 2037 H 190.183 0.383253 5.01538 0
M  V30 2038 H 189.883 2.07143 5.49878 0
M  V30 2039 H 191.407 1.26848 5.97279 0
M  V30 2040 H 192.821 3.19089 4.76293 0
M  V30 2041 H 191.218 3.94462 4.52238 0
M  V30 2042 H 192.288 3.70394 3.12948 0
M  V30 2043 N 193.631 -1.12557 1.10312 0
M  V30 2044 C 194.879 -1.83675 0.843091 0
M  V30 2045 C 195.2 -1.84435 -0.633131 0
M  V30 2046 O 194.47 -1.30657 -1.45964 0
M  V30 2047 H 193.05 -0.680138 0.308904 0
M  V30 2048 H 195.712 -1.36301 1.39313 0
M  V30 2049 H 194.808 -2.87908 1.2048 0
M  V30 2050 N 195.109 -0.891671 -1.2995 0
M  V30 2051 C 196.358 -0.509521 -1.95158 0
M  V30 2052 C 196.671 0.947388 -1.71125 0
M  V30 2053 O 197.877 1.43669 -2.30372 0
M  V30 2054 C 196.333 -0.860315 -3.49466 0
M  V30 2055 C 195.941 -2.33545 -3.8231 0
M  V30 2056 C 197.685 -0.547687 -4.20952 0
M  V30 2057 C 195.592 -2.62752 -5.29826 0
M  V30 2058 H 194.522 -0.18682 -0.730489 0
M  V30 2059 H 197.173 -1.08756 -1.47798 0
M  V30 2060 H 195.555 -0.211285 -3.95436 0
M  V30 2061 H 196.729 -3.02936 -3.47227 0
M  V30 2062 H 195.044 -2.61629 -3.23944 0
M  V30 2063 H 197.641 -0.742854 -5.29515 0
M  V30 2064 H 197.984 0.51332 -4.13123 0
M  V30 2065 H 198.517 -1.1542 -3.80688 0
M  V30 2066 H 195.256 -3.6762 -5.42712 0
M  V30 2067 H 194.776 -1.97977 -5.66185 0
M  V30 2068 H 196.455 -2.48601 -5.97333 0
M  V30 2069 N 196.587 1.43421 -0.653314 0
M  V30 2070 C 197.835 2.01414 -0.166415 0
M  V30 2071 C 198.156 1.51803 1.22397 0
M  V30 2072 O 197.426 0.730693 1.81763 0
M  V30 2073 H 196.006 0.744703 -0.0585319 0
M  V30 2074 H 198.668 1.75629 -0.845003 0
M  V30 2075 H 197.764 3.11734 -0.151111 0
M  V30 2076 N 198.065 0.39524 1.52563 0
M  V30 2077 C 199.481 0.0454682 1.59535 0
M  V30 2078 C 199.681 -1.44056 1.4089 0
M  V30 2079 O 198.737 -2.20579 1.22888 0
M  V30 2080 C 200.05 0.527963 2.96029 0
M  V30 2081 C 201.598 0.484733 3.09224 0
M  V30 2082 C 202.073 0.943512 4.48176 0
M  V30 2083 N 203.564 0.899765 4.54377 0
M  V30 2084 C 204.299 1.22609 5.60138 0
M  V30 2085 N 203.795 1.62319 6.73516 0
M  V30 2086 N 205.588 1.14696 5.50274 0
M  V30 2087 H 197.739 1.36261 1.62931 0
M  V30 2088 H 200.002 0.558887 0.765735 0
M  V30 2089 H 199.708 1.56607 3.14908 0
M  V30 2090 H 199.582 -0.0698056 3.77135 0
M  V30 2091 H 201.969 -0.544298 2.90037 0
M  V30 2092 H 202.05 1.11838 2.30056 0
M  V30 2093 H 201.694 1.9708 4.68104 0
M  V30 2094 H 201.624 0.286817 5.25818 0
M  V30 2095 H 204.115 0.607632 3.72983 0
M  V30 2096 H 204.428 1.85567 7.5019 0
M  V30 2097 H 202.773 1.66211 6.74833 0
M  V30 2098 H 205.964 0.835701 4.6058 0
M  V30 2099 H 206.137 1.40459 6.32594 0
M  V30 2100 N 199.544 -1.57102 0.125237 0
M  V30 2101 C 200.492 -2.16905 -0.839927 0
M  V30 2102 C 201.486 -1.11998 -1.27094 0
M  V30 2103 O 202.692 -1.3029 -1.24195 0
M  V30 2104 H 199.067 -0.694252 -0.288995 0
M  V30 2105 H 201.038 -2.96774 -0.311115 0
M  V30 2106 C 199.787 -2.78795 -2.07771 0
M  V30 2107 H 199.11 -3.59221 -1.755 0
M  V30 2108 H 200.55 -3.2417 -2.73295 0
M  V30 2109 C 199.009 -1.76193 -2.87155 0
M  V30 2110 O 199.539 -1.21909 -3.82755 0
M  V30 2111 N 197.745 -1.45991 -2.51267 0
M  V30 2112 H 197.292 -1.90325 -1.73592 0
M  V30 2113 H 197.25 -0.775844 -3.04677 0
M  V30 2114 N 201.022 0.148545 -1.56898 0
M  V30 2115 C 202.27 0.859717 -1.82902 0
M  V30 2116 C 202.591 1.81775 -0.70588 0
M  V30 2117 O 201.861 1.93994 0.272586 0
M  V30 2118 H 200.441 0.320469 -0.674766 0
M  V30 2119 H 203.103 0.142918 -1.94375 0
M  V30 2120 H 202.199 1.4229 -2.77777 0
M  V30 2121 N 202.5 1.5196 0.417844 0
M  V30 2122 C 203.45 1.7106 1.5074 0
M  V30 2123 C 204.434 0.564487 1.50673 0
M  V30 2124 O 205.626 0.821206 1.56797 0
M  V30 2125 C 202.755 1.85677 2.88754 0
M  V30 2126 C 201.841 3.06133 2.93502 0
M  V30 2127 N 202.232 4.28987 2.67962 0
M  V30 2128 C 200.53 3.05787 3.24669 0
M  V30 2129 C 201.231 5.10395 2.79055 0
M  V30 2130 N 200.207 4.45455 3.11561 0
M  V30 2131 H 204.009 2.63696 1.29775 0
M  V30 2132 H 201.523 1.49873 0.625436 0
M  V30 2133 H 203.52 1.97475 3.67164 0
M  V30 2134 H 202.18 0.942348 3.10725 0
M  V30 2135 H 203.191 4.57607 2.4252 0
M  V30 2136 H 199.868 2.2405 3.52289 0
M  V30 2137 H 201.258 6.18247 2.63097 0
M  V30 2138 N 203.978 -0.674533 1.42435 0
M  V30 2139 C 205.227 -1.43034 1.42212 0
M  V30 2140 C 205.54 -1.95555 0.0420788 0
M  V30 2141 O 206.746 -2.71374 -0.0827558 0
M  V30 2142 C 205.202 -2.58748 2.50155 0
M  V30 2143 C 204.81 -2.12925 3.94166 0
M  V30 2144 C 206.554 -3.36257 2.59098 0
M  V30 2145 C 204.461 -3.25723 4.93618 0
M  V30 2146 H 203.391 -0.537345 0.528939 0
M  V30 2147 H 206.042 -0.73024 1.68344 0
M  V30 2148 H 204.424 -3.31128 2.17188 0
M  V30 2149 H 205.598 -1.47697 4.36488 0
M  V30 2150 H 203.913 -1.48354 3.89076 0
M  V30 2151 H 206.51 -4.20264 3.30578 0
M  V30 2152 H 206.853 -3.82866 1.63461 0
M  V30 2153 H 207.386 -2.70947 2.9126 0
M  V30 2154 H 204.125 -2.84105 5.90732 0
M  V30 2155 H 203.645 -3.89732 4.55926 0
M  V30 2156 H 205.324 -3.91186 5.15347 0
M  V30 2157 N 205.456 -1.28612 -0.910864 0
M  V30 2158 C 206.704 -1.15705 -1.65701 0
M  V30 2159 C 207.025 0.29416 -1.92769 0
M  V30 2160 O 206.295 1.20331 -1.54588 0
M  V30 2161 H 204.875 -0.425216 -0.614167 0
M  V30 2162 H 207.537 -1.61381 -1.0928 0
M  V30 2163 H 206.633 -1.6988 -2.61815 0
M  V30 2164 N 206.934 1.1197 -1.10907 0
M  V30 2165 C 208.181 1.83588 -0.854507 0
M  V30 2166 C 208.509 1.84357 0.6199 0
M  V30 2167 O 207.764 1.28809 1.47332 0
M  V30 2168 C 208.063 3.30749 -1.35425 0
M  V30 2169 C 207.729 3.50146 -2.84093 0
M  V30 2170 C 206.391 3.55148 -3.2469 0
M  V30 2171 C 208.743 3.56857 -3.79872 0
M  V30 2172 C 206.071 3.6441 -4.59806 0
M  V30 2173 C 208.423 3.6765 -5.14797 0
M  V30 2174 C 207.087 3.7091 -5.54961 0
M  V30 2175 H 206.357 0.671795 -0.312686 0
M  V30 2176 H 209.004 1.32091 -1.38652 0
M  V30 2177 H 207.309 3.84703 -0.742361 0
M  V30 2178 H 209.006 3.8464 -1.1337 0
M  V30 2179 H 205.596 3.46919 -2.51685 0
M  V30 2180 H 209.78 3.52258 -3.49611 0
M  V30 2181 H 205.036 3.65208 -4.9034 0
M  V30 2182 H 209.21 3.71786 -5.88853 0
M  V30 2183 H 206.837 3.7784 -6.59652 0
M  V30 2184 N 208.412 0.89855 1.29475 0
M  V30 2185 C 209.36 0.365253 2.29714 0
M  V30 2186 C 210.354 -0.534993 1.6073 0
M  V30 2187 O 211.56 -0.417921 1.75081 0
M  V30 2188 H 207.935 0.0994853 0.74539 0
M  V30 2189 H 209.906 1.22406 2.72138 0
M  V30 2190 C 208.655 -0.393159 3.4547 0
M  V30 2191 H 207.978 0.290332 3.98744 0
M  V30 2192 H 209.418 -0.731189 4.17648 0
M  V30 2193 C 207.877 -1.59539 2.9673 0
M  V30 2194 O 208.407 -2.69469 2.97908 0
M  V30 2195 N 206.613 -1.43716 2.52575 0
M  V30 2196 H 206.16 -0.542828 2.51816 0
M  V30 2197 H 206.118 -2.24288 2.20323 0
M  V30 2198 N 209.89 -1.43072 0.660911 0
M  V30 2199 C 210.8 -2.34585 -0.0264163 0
M  V30 2200 C 211.816 -1.54316 -0.803898 0
M  V30 2201 O 212.992 -1.86939 -0.749391 0
M  V30 2202 C 210.057 -3.32689 -0.975639 0
M  V30 2203 C 209.118 -4.2886 -0.194236 0
M  V30 2204 C 208.351 -5.22278 -1.09825 0
M  V30 2205 O 208.574 -5.20299 -2.33763 0
M  V30 2206 O 207.508 -5.99228 -0.566513 0
M  V30 2207 H 211.334 -2.94869 0.727034 0
M  V30 2208 H 208.919 -1.43342 0.42111 0
M  V30 2209 H 210.801 -3.92995 -1.52094 0
M  V30 2210 H 209.476 -2.74898 -1.70918 0
M  V30 2211 H 208.383 -3.72011 0.394835 0
M  V30 2212 H 209.716 -4.89655 0.499899 0
M  V30 2213 N 211.368 -0.403325 -1.52352 0
M  V30 2214 C 212.779 0.0675782 -1.86578 0
M  V30 2215 C 213.13 1.44941 -1.32236 0
M  V30 2216 O 212.255 2.06112 -0.659307 0
M  V30 2217 C 212.85 0.129404 -3.38553 0
M  V30 2218 C 211.409 0.544629 -3.72439 0
M  V30 2219 C 210.556 -0.284551 -2.75836 0
M  V30 2220 H 213.507 -0.620631 -1.46061 0
M  V30 2221 H 213.528 0.94581 -3.68558 0
M  V30 2222 H 213.04 -0.87645 -3.78074 0
M  V30 2223 H 211.141 1.55734 -3.38493 0
M  V30 2224 H 211.254 0.293046 -4.78203 0
M  V30 2225 H 209.618 0.252258 -2.53448 0
M  V30 2226 H 210.401 -1.28865 -3.18196 0
M  V30 2227 N 212.846 1.57033 -0.133567 0
M  V30 2228 C 214.094 1.953 0.519848 0
M  V30 2229 C 214.415 1.01866 1.66278 0
M  V30 2230 O 213.685 0.0776513 1.95746 0
M  V30 2231 H 212.265 0.721091 0.195032 0
M  V30 2232 H 214.927 1.93809 -0.205921 0
M  V30 2233 H 214.023 2.98695 0.904854 0
M  V30 2234 N 214.325 -0.140222 1.56975 0
M  V30 2235 C 215.553 -0.866437 1.87884 0
M  V30 2236 C 215.968 -1.74428 0.722517 0
M  V30 2237 O 215.325 -1.79891 -0.30749 0
M  V30 2238 C 215.376 -1.71753 3.18093 0
M  V30 2239 O 215.097 -0.875056 4.29272 0
M  V30 2240 C 216.598 -2.55074 3.62563 0
M  V30 2241 H 213.818 -0.25019 0.622612 0
M  V30 2242 H 216.362 -0.130977 2.0408 0
M  V30 2243 H 214.517 -2.40598 3.03631 0
M  V30 2244 H 214.931 -1.46002 5.03769 0
M  V30 2245 H 216.405 -3.10356 4.5649 0
M  V30 2246 H 216.882 -3.31434 2.88181 0
M  V30 2247 H 217.488 -1.91509 3.79743 0
M  V30 2248 N 215.803 -1.52179 -0.40978 0
M  V30 2249 C 217.028 -1.70347 -1.18308 0
M  V30 2250 C 217.453 -0.411887 -1.83535 0
M  V30 2251 O 216.811 0.630587 -1.6998 0
M  V30 2252 C 216.859 -2.83977 -2.22238 0
M  V30 2253 O 215.963 -2.495 -3.28365 0
M  V30 2254 H 215.304 -0.567103 -0.345384 0
M  V30 2255 H 217.834 -1.98879 -0.480445 0
M  V30 2256 H 217.844 -3.0887 -2.66577 0
M  V30 2257 H 216.519 -3.77685 -1.74146 0
M  V30 2258 H 215.096 -2.35277 -2.89308 0
M  V30 2259 N 217.281 0.66697 -1.42791 0
M  V30 2260 C 218.528 1.42699 -1.43678 0
M  V30 2261 C 218.856 1.94419 -0.0560425 0
M  V30 2262 O 218.111 1.7182 0.936831 0
M  V30 2263 C 218.41 2.6349 -2.4147 0
M  V30 2264 C 218.076 2.30267 -3.8767 0
M  V30 2265 C 216.738 2.20918 -4.27491 0
M  V30 2266 C 219.09 2.03435 -4.79858 0
M  V30 2267 C 216.418 1.82873 -5.57471 0
M  V30 2268 C 218.77 1.66892 -6.10188 0
M  V30 2269 C 217.434 1.56058 -6.49001 0
M  V30 2270 H 216.704 0.522171 -0.525755 0
M  V30 2271 H 219.351 0.759785 -1.75783 0
M  V30 2272 H 217.656 3.35279 -2.0272 0
M  V30 2273 H 219.353 3.21684 -2.39417 0
M  V30 2274 H 215.943 2.38449 -3.56146 0
M  V30 2275 H 220.127 2.09586 -4.49875 0
M  V30 2276 H 215.383 1.7306 -5.86396 0
M  V30 2277 H 219.557 1.45157 -6.81104 0
M  V30 2278 H 217.184 1.26348 -7.49627 0
M  V30 2279 N 218.759 1.29093 0.90403 0
M  V30 2280 C 219.706 1.13853 2.00764 0
M  V30 2281 C 220.676 0.0330084 1.66067 0
M  V30 2282 O 221.861 0.199733 1.89752 0
M  V30 2283 C 219.001 0.816537 3.35301 0
M  V30 2284 C 218.114 2.00206 3.82807 0
M  V30 2285 C 217.249 1.61983 5.059 0
M  V30 2286 C 216.288 2.77143 5.45764 0
M  V30 2287 N 215.425 2.39346 6.60044 0
M  V30 2288 H 220.265 2.08276 2.13132 0
M  V30 2289 H 217.802 1.03648 1.04381 0
M  V30 2290 H 219.76 0.610557 4.12708 0
M  V30 2291 H 218.39 -0.090779 3.22672 0
M  V30 2292 H 217.442 2.31988 3.01473 0
M  V30 2293 H 218.754 2.86512 4.08304 0
M  V30 2294 H 217.908 1.37649 5.90879 0
M  V30 2295 H 216.647 0.728202 4.82233 0
M  V30 2296 H 215.652 3.02165 4.59322 0
M  V30 2297 H 216.877 3.66964 5.71414 0
M  V30 2298 H 214.823 1.52665 6.37989 0
M  V30 2299 H 214.74 3.19185 6.85315 0
M  V30 2300 H 216.008 2.1832 7.48303 0
M  V30 2301 N 220.237 -1.11381 1.11499 0
M  V30 2302 C 221.462 -1.87475 0.887019 0
M  V30 2303 C 221.887 -1.79639 -0.557796 0
M  V30 2304 O 221.245 -1.15924 -1.39396 0
M  V30 2305 C 221.293 -3.34213 1.35403 0
M  V30 2306 O 220.397 -4.0903 0.526146 0
M  V30 2307 H 219.738 -0.582099 0.319463 0
M  V30 2308 H 222.268 -1.40785 1.48461 0
M  V30 2309 H 222.278 -3.8506 1.34881 0
M  V30 2310 H 220.953 -3.39232 2.40612 0
M  V30 2311 H 219.53 -3.68082 0.597522 0
M  V30 2312 N 221.715 -0.905404 -1.28997 0
M  V30 2313 C 223.131 -0.60233 -1.47798 0
M  V30 2314 C 223.331 0.854645 -1.82478 0
M  V30 2315 O 222.387 1.63439 -1.92468 0
M  V30 2316 C 223.7 -1.53306 -2.58685 0
M  V30 2317 C 225.248 -1.53887 -2.72558 0
M  V30 2318 C 225.723 -2.45602 -3.86579 0
M  V30 2319 N 227.214 -2.43681 -3.93921 0
M  V30 2320 C 227.949 -3.11347 -4.81509 0
M  V30 2321 N 227.445 -3.88313 -5.73746 0
M  V30 2322 N 229.238 -3.00476 -4.75048 0
M  V30 2323 H 221.389 -1.84765 -1.04764 0
M  V30 2324 H 223.652 -0.792025 -0.520961 0
M  V30 2325 H 223.358 -2.57141 -2.39941 0
M  V30 2326 H 223.232 -1.25787 -3.55609 0
M  V30 2327 H 225.619 -0.507941 -2.90696 0
M  V30 2328 H 225.7 -1.85447 -1.76191 0
M  V30 2329 H 225.344 -3.48792 -3.69197 0
M  V30 2330 H 225.274 -2.11349 -4.82327 0
M  V30 2331 H 227.765 -1.87767 -3.27951 0
M  V30 2332 H 228.078 -4.36985 -6.37389 0
M  V30 2333 H 226.423 -3.92419 -5.73614 0
M  V30 2334 H 229.614 -2.39858 -4.01977 0
M  V30 2335 H 229.787 -3.53485 -5.43095 0
M  V30 2336 N 223.193 1.4272 -0.668489 0
M  V30 2337 C 224.421 2.05966 -0.196348 0
M  V30 2338 C 224.836 1.50191 1.14403 0
M  V30 2339 O 224.193 0.639208 1.7094 0
M  V30 2340 C 224.244 3.61314 -0.115815 0
M  V30 2341 O 223.965 4.1502 -1.40322 0
M  V30 2342 C 225.466 4.41663 0.380579 0
M  V30 2343 H 222.686 0.663954 -0.0969829 0
M  V30 2344 H 225.23 1.82966 -0.913446 0
M  V30 2345 H 223.385 3.83448 0.551931 0
M  V30 2346 H 223.799 5.08832 -1.27243 0
M  V30 2347 H 225.273 5.5065 0.385848 0
M  V30 2348 H 225.75 4.15792 1.41471 0
M  V30 2349 H 226.356 4.24534 -0.255209 0
M  V30 2350 N 224.671 0.411399 1.52136 0
M  V30 2351 C 225.621 -0.430376 2.23901 0
M  V30 2352 C 226.605 -1.0116 1.25121 0
M  V30 2353 O 227.797 -0.934044 1.50348 0
M  V30 2354 C 224.926 -1.54527 3.06556 0
M  V30 2355 C 224.012 -0.9747 4.12747 0
M  V30 2356 N 224.403 -0.130991 5.0563 0
M  V30 2357 C 222.701 -1.24497 4.28271 0
M  V30 2358 C 223.402 0.186689 5.814 0
M  V30 2359 N 222.378 -0.42304 5.41951 0
M  V30 2360 H 226.18 0.220509 2.93072 0
M  V30 2361 H 223.694 0.221952 1.60876 0
M  V30 2362 H 225.691 -2.16093 3.56524 0
M  V30 2363 H 224.351 -2.19875 2.38925 0
M  V30 2364 H 225.362 0.23349 5.17373 0
M  V30 2365 H 222.039 -1.89787 3.7187 0
M  V30 2366 H 223.429 0.871673 6.66222 0
M  V30 2367 N 226.149 -1.5696 0.141893 0
M  V30 2368 C 227.395 -1.9625 -0.511248 0
M  V30 2369 C 227.728 -1.02654 -1.64851 0
M  V30 2370 O 227.003 -0.0679676 -1.94381 0
M  V30 2371 C 227.286 -3.45285 -1.02227 0
M  V30 2372 C 227.139 -4.49658 0.113138 0
M  V30 2373 C 228.458 -3.96698 -1.90574 0
M  V30 2374 H 225.577 -0.713567 -0.184367 0
M  V30 2375 H 228.219 -1.88698 0.222087 0
M  V30 2376 H 226.369 -3.51852 -1.64719 0
M  V30 2377 H 228.041 -4.55174 0.749302 0
M  V30 2378 H 226.284 -4.26857 0.773026 0
M  V30 2379 H 226.955 -5.51258 -0.286053 0
M  V30 2380 H 229.431 -3.92578 -1.37918 0
M  V30 2381 H 228.307 -5.01453 -2.2324 0
M  V30 2382 H 228.568 -3.3875 -2.84079 0
M  V30 2383 N 227.627 0.131896 -1.57047 0
M  V30 2384 C 228.873 0.843179 -1.84441 0
M  V30 2385 C 229.206 1.80129 -0.725749 0
M  V30 2386 O 228.481 1.92624 0.269469 0
M  V30 2387 C 228.764 1.60442 -3.22382 0
M  V30 2388 C 228.617 0.666782 -4.4483 0
M  V30 2389 C 229.936 2.56354 -3.5773 0
M  V30 2390 H 227.055 0.305081 -0.670891 0
M  V30 2391 H 229.697 0.107839 -1.89694 0
M  V30 2392 H 227.847 2.23128 -3.18035 0
M  V30 2393 H 229.519 0.0497646 -4.61273 0
M  V30 2394 H 227.762 -0.022609 -4.33794 0
M  V30 2395 H 228.433 1.23579 -5.37989 0
M  V30 2396 H 230.909 2.0378 -3.62785 0
M  V30 2397 H 229.785 3.06657 -4.5525 0
M  V30 2398 H 230.046 3.38419 -2.84473 0
M  V30 2399 N 229.106 1.52395 0.401703 0
M  V30 2400 C 230.334 1.70676 1.16949 0
M  V30 2401 C 230.749 0.419503 1.8408 0
M  V30 2402 O 230.106 -0.605061 1.72178 0
M  V30 2403 C 230.157 2.84753 2.22706 0
M  V30 2404 O 229.878 4.08495 1.58314 0
M  V30 2405 C 231.379 3.14608 3.12309 0
M  V30 2406 H 228.599 0.571787 0.351142 0
M  V30 2407 H 231.143 1.98987 0.471652 0
M  V30 2408 H 229.298 2.58941 2.88147 0
M  V30 2409 H 229.712 4.72117 2.28485 0
M  V30 2410 H 231.186 3.97923 3.82572 0
M  V30 2411 H 231.663 2.28464 3.75101 0
M  V30 2412 H 232.269 3.42212 2.52529 0
M  V30 2413 N 230.584 -0.659388 1.43143 0
M  V30 2414 C 231.514 -1.78422 1.50625 0
M  V30 2415 C 232.495 -1.66216 0.361443 0
M  V30 2416 O 233.68 -1.85404 0.577834 0
M  V30 2417 C 230.81 -3.16815 1.42287 0
M  V30 2418 C 229.764 -3.43777 2.54954 0
M  V30 2419 C 229.09 -4.81905 2.31671 0
M  V30 2420 C 230.39 -3.39134 3.97222 0
M  V30 2421 H 232.084 -1.72417 2.44771 0
M  V30 2422 H 229.63 -0.828084 1.17808 0
M  V30 2423 H 231.583 -3.95253 1.46127 0
M  V30 2424 H 230.307 -3.23534 0.446435 0
M  V30 2425 H 228.966 -2.67707 2.50457 0
M  V30 2426 H 228.614 -4.85294 1.32284 0
M  V30 2427 H 228.314 -5.00906 3.07192 0
M  V30 2428 H 229.838 -5.62609 2.37284 0
M  V30 2429 H 231.252 -4.07518 4.03239 0
M  V30 2430 H 229.649 -3.69671 4.72719 0
M  V30 2431 H 230.719 -2.37426 4.22797 0
M  V30 2432 N 232.062 -1.29571 -0.897171 0
M  V30 2433 C 233.01 -1.14802 -2.02295 0
M  V30 2434 C 234.004 -0.0629637 -1.69283 0
M  V30 2435 O 235.21 -0.222945 -1.78614 0
M  V30 2436 H 231.585 -0.354692 -0.663097 0
M  V30 2437 H 233.556 -2.10108 -2.11889 0
M  V30 2438 C 232.305 -0.843966 -3.37302 0
M  V30 2439 H 231.628 -1.67093 -3.63208 0
M  V30 2440 H 233.068 -0.780672 -4.16751 0
M  V30 2441 C 231.527 0.452843 -3.33843 0
M  V30 2442 O 232.057 1.47813 -3.73516 0
M  V30 2443 N 230.263 0.459601 -2.86943 0
M  V30 2444 H 229.81 -0.375213 -2.54853 0
M  V30 2445 H 229.768 1.32726 -2.85011 0
M  V30 2446 N 233.54 1.10788 -1.12088 0
M  V30 2447 C 234.45 2.20599 -0.798338 0
M  V30 2448 C 235.466 1.72712 0.21135 0
M  V30 2449 O 236.642 2.01348 0.0458477 0
M  V30 2450 C 233.707 3.45771 -0.253674 0
M  V30 2451 C 232.768 4.08411 -1.32283 0
M  V30 2452 C 232.001 5.27608 -0.80406 0
M  V30 2453 O 232.224 5.69241 0.363478 0
M  V30 2454 O 231.158 5.8101 -1.57198 0
M  V30 2455 H 234.984 2.50614 -1.7154 0
M  V30 2456 H 232.569 1.19454 -0.897275 0
M  V30 2457 H 234.451 4.21376 0.0453691 0
M  V30 2458 H 233.126 3.1739 0.636005 0
M  V30 2459 H 232.033 3.34507 -1.67499 0
M  V30 2460 H 233.366 4.40986 -2.18614 0
M  V30 2461 N 235.018 0.912232 1.28515 0
M  V30 2462 C 235.95 0.35676 2.26406 0
M  V30 2463 C 236.963 -0.503933 1.54804 0
M  V30 2464 O 238.152 -0.319059 1.75625 0
M  V30 2465 C 235.252 -0.508825 3.35058 0
M  V30 2466 C 234.425 0.329007 4.36161 0
M  V30 2467 C 233.484 -0.471422 5.24084 0
M  V30 2468 O 232.51 0.115482 5.69083 0
M  V30 2469 N 233.712 -1.77479 5.52704 0
M  V30 2470 H 236.477 1.19818 2.74707 0
M  V30 2471 H 234.038 0.778022 1.4198 0
M  V30 2472 H 236.03 -1.051 3.90815 0
M  V30 2473 H 234.6 -1.25095 2.86478 0
M  V30 2474 H 233.82 1.05256 3.79888 0
M  V30 2475 H 235.108 0.90234 5.00735 0
M  V30 2476 H 234.506 -2.27417 5.17975 0
M  V30 2477 H 233.063 -2.26382 6.11224 0
M  V30 2478 N 236.496 -1.42363 0.676048 0
M  V30 2479 C 237.724 -2.05859 0.207268 0
M  V30 2480 C 238.139 -1.50796 -1.13605 0
M  V30 2481 O 237.496 -0.648265 -1.70598 0
M  V30 2482 C 237.547 -3.61248 0.134975 0
M  V30 2483 O 237.268 -4.1427 1.42521 0
M  V30 2484 C 238.769 -4.41859 -0.357151 0
M  V30 2485 H 235.989 -0.663431 0.100503 0
M  V30 2486 H 238.533 -1.82479 0.923136 0
M  V30 2487 H 236.688 -3.83735 -0.531588 0
M  V30 2488 H 237.102 -5.0815 1.29939 0
M  V30 2489 H 238.576 -5.50847 -0.356641 0
M  V30 2490 H 239.053 -4.16536 -1.39264 0
M  V30 2491 H 239.659 -4.24392 0.27772 0
M  V30 2492 N 237.974 -0.419461 -1.51915 0
M  V30 2493 C 239.39 -0.0708431 -1.59443 0
M  V30 2494 C 239.59 1.41796 -1.43164 0
M  V30 2495 O 238.646 2.18596 -1.26381 0
M  V30 2496 C 239.959 -0.574991 -2.95151 0
M  V30 2497 C 241.507 -0.533867 -3.08413 0
M  V30 2498 C 241.982 -1.01469 -4.46618 0
M  V30 2499 N 243.473 -0.971939 -4.52888 0
M  V30 2500 C 244.208 -1.31505 -5.58116 0
M  V30 2501 N 243.704 -1.73014 -6.70849 0
M  V30 2502 N 245.497 -1.23436 -5.48379 0
M  V30 2503 H 237.648 -1.38836 -1.60743 0
M  V30 2504 H 239.911 -0.570998 -0.756747 0
M  V30 2505 H 239.617 -1.61597 -3.12377 0
M  V30 2506 H 239.491 0.00979777 -3.77199 0
M  V30 2507 H 241.878 0.498086 -2.90866 0
M  V30 2508 H 241.959 -1.15484 -2.28248 0
M  V30 2509 H 241.603 -2.04502 -4.6491 0
M  V30 2510 H 241.533 -0.370433 -5.25295 0
M  V30 2511 H 244.024 -0.666893 -3.71969 0
M  V30 2512 H 244.337 -1.97479 -7.47143 0
M  V30 2513 H 242.682 -1.76926 -6.72103 0
M  V30 2514 H 245.873 -0.908869 -4.59192 0
M  V30 2515 H 246.046 -1.50506 -6.30279 0
M  V30 2516 N 239.452 1.56882 -0.150215 0
M  V30 2517 C 240.384 2.14057 0.819286 0
M  V30 2518 C 241.397 1.09082 1.20851 0
M  V30 2519 O 242.586 1.36347 1.15203 0
M  V30 2520 C 239.686 2.65102 2.11127 0
M  V30 2521 C 238.859 3.94511 1.88891 0
M  V30 2522 C 237.918 4.30834 3.02107 0
M  V30 2523 O 236.944 4.99099 2.73659 0
M  V30 2524 N 238.146 3.90676 4.29363 0
M  V30 2525 H 240.911 2.97871 0.330618 0
M  V30 2526 H 238.472 1.61866 0.0332538 0
M  V30 2527 H 240.464 2.86411 2.85921 0
M  V30 2528 H 239.034 1.85994 2.51247 0
M  V30 2529 H 238.254 3.81795 0.981152 0
M  V30 2530 H 239.542 4.7907 1.71376 0
M  V30 2531 H 238.94 3.35677 4.55343 0
M  V30 2532 H 237.497 4.1703 5.00928 0
M  V30 2533 N 240.93 -0.123565 1.57115 0
M  V30 2534 C 241.893 -1.13583 1.99076 0
M  V30 2535 C 242.893 -1.34564 0.880296 0
M  V30 2536 O 244.083 -1.31158 1.14644 0
M  V30 2537 C 241.215 -2.49128 2.32698 0
M  V30 2538 H 242.408 -0.775287 2.89706 0
M  V30 2539 H 239.961 -0.36771 1.51913 0
M  V30 2540 H 240.696 -2.90111 1.44934 0
M  V30 2541 H 240.481 -2.35255 3.13684 0
M  V30 2542 H 241.971 -3.2199 2.65918 0
M  V30 2543 N 242.408 -1.52605 -0.393616 0
M  V30 2544 C 243.356 -1.77688 -1.50099 0
M  V30 2545 C 244.35 -0.644615 -1.56656 0
M  V30 2546 O 245.556 -0.826997 -1.59877 0
M  V30 2547 H 241.931 -0.562159 -0.499481 0
M  V30 2548 H 243.902 -2.7043 -1.26135 0
M  V30 2549 C 242.651 -1.95858 -2.87289 0
M  V30 2550 H 241.974 -2.8241 -2.82992 0
M  V30 2551 H 243.414 -2.174 -3.64024 0
M  V30 2552 C 241.873 -0.729848 -3.28899 0
M  V30 2553 O 242.403 0.0949217 -4.01588 0
M  V30 2554 N 240.609 -0.561283 -2.85128 0
M  V30 2555 H 240.156 -1.23357 -2.26143 0
M  V30 2556 H 240.114 0.2595 -3.13327 0
M  V30 2557 N 243.887 0.651787 -1.4349 0
M  V30 2558 C 244.85 1.74647 -1.48429 0
M  V30 2559 C 245.85 1.56513 -0.368817 0
M  V30 2560 O 247.04 1.62385 -0.630623 0
M  V30 2561 C 244.172 3.13533 -1.33827 0
M  V30 2562 H 245.365 1.71649 -2.4592 0
M  V30 2563 H 242.918 0.863573 -1.30277 0
M  V30 2564 H 243.653 3.22142 -0.37349 0
M  V30 2565 H 243.438 3.28101 -2.14691 0
M  V30 2566 H 244.928 3.93356 -1.40218 0
M  V30 2567 N 245.365 1.30045 0.890287 0
M  V30 2568 C 246.781 1.08261 1.17268 0
M  V30 2569 C 246.981 -0.160063 2.00863 0
M  V30 2570 O 246.037 -0.855181 2.37577 0
M  V30 2571 C 247.35 2.34323 1.8845 0
M  V30 2572 C 248.898 2.39735 2.01237 0
M  V30 2573 C 249.373 3.65625 2.7583 0
M  V30 2574 N 250.864 3.66402 2.83379 0
M  V30 2575 C 251.599 4.60498 3.41657 0
M  V30 2576 N 251.095 5.64933 4.01026 0
M  V30 2577 N 252.888 4.48051 3.39421 0
M  V30 2578 H 245.039 2.09777 0.332762 0
M  V30 2579 H 247.302 0.92446 0.209948 0
M  V30 2580 H 247.008 3.2498 1.34465 0
M  V30 2581 H 246.882 2.4256 2.88867 0
M  V30 2582 H 249.269 1.4956 2.54393 0
M  V30 2583 H 249.35 2.35476 0.999232 0
M  V30 2584 H 248.994 4.56156 2.23347 0
M  V30 2585 H 248.924 3.67144 3.77509 0
M  V30 2586 H 251.415 2.90896 2.41222 0
M  V30 2587 H 251.728 6.32841 4.43545 0
M  V30 2588 H 250.073 5.68732 3.99461 0
M  V30 2589 H 253.264 3.65649 2.92264 0
M  V30 2590 H 253.437 5.21565 3.84544 0
M  V30 2591 N 246.843 -1.10192 1.12674 0
M  V30 2592 C 248.073 -1.85713 0.905213 0
M  V30 2593 C 248.481 -1.81056 -0.549108 0
M  V30 2594 O 247.824 -1.19927 -1.39151 0
M  V30 2595 C 247.886 -3.34972 1.30516 0
M  V30 2596 C 247.55 -3.63385 2.77129 0
M  V30 2597 C 248.547 -3.59772 3.75313 0
M  V30 2598 C 246.232 -3.91981 3.14096 0
M  V30 2599 C 248.226 -3.84354 5.08479 0
M  V30 2600 C 245.913 -4.16218 4.47443 0
M  V30 2601 C 246.911 -4.12395 5.44444 0
M  V30 2602 O 246.599 -4.36014 6.75387 0
M  V30 2603 H 246.331 -0.593719 0.323223 0
M  V30 2604 H 248.885 -1.40198 1.50112 0
M  V30 2605 H 247.115 -3.81156 0.652463 0
M  V30 2606 H 248.804 -3.91886 1.05736 0
M  V30 2607 H 249.57 -3.37716 3.48099 0
M  V30 2608 H 245.449 -3.94085 2.39202 0
M  V30 2609 H 248.993 -3.81285 5.84181 0
M  V30 2610 H 244.89 -4.37754 4.74386 0
M  V30 2611 H 245.658 -4.53516 6.8137 0
M  V30 2612 N 248.321 -0.919034 -1.28029 0
M  V30 2613 C 249.568 -0.554934 -1.94748 0
M  V30 2614 C 249.896 0.90231 -1.72304 0
M  V30 2615 O 249.151 1.65767 -1.04018 0
M  V30 2616 C 249.45 -0.816855 -3.4794 0
M  V30 2617 C 249.116 -2.25448 -3.90492 0
M  V30 2618 C 247.778 -2.64752 -4.01821 0
M  V30 2619 C 250.13 -3.18977 -4.12193 0
M  V30 2620 C 247.458 -3.96727 -4.32232 0
M  V30 2621 C 249.81 -4.50523 -4.44086 0
M  V30 2622 C 248.474 -4.89673 -4.53626 0
M  V30 2623 H 247.744 -0.203065 -0.712633 0
M  V30 2624 H 250.391 -1.16136 -1.52265 0
M  V30 2625 H 248.696 -0.127677 -3.91592 0
M  V30 2626 H 250.393 -0.514238 -3.97689 0
M  V30 2627 H 246.983 -1.93952 -3.82205 0
M  V30 2628 H 251.167 -2.89817 -4.02889 0
M  V30 2629 H 246.423 -4.26754 -4.37825 0
M  V30 2630 H 250.597 -5.23005 -4.59825 0
M  V30 2631 H 248.224 -5.91969 -4.76946 0
M  V30 2632 N 249.799 1.42003 -0.683588 0
M  V30 2633 C 251.21 1.84501 -0.285736 0
M  V30 2634 C 251.561 1.57213 1.17382 0
M  V30 2635 O 250.686 1.03642 1.89966 0
M  V30 2636 C 251.281 3.34912 -0.511821 0
M  V30 2637 C 249.84 3.76025 -0.168005 0
M  V30 2638 C 248.987 2.6551 -0.799983 0
M  V30 2639 H 251.938 1.31724 -0.885119 0
M  V30 2640 H 251.959 3.79784 0.233292 0
M  V30 2641 H 251.471 3.54741 -1.57418 0
M  V30 2642 H 249.572 3.61801 0.890567 0
M  V30 2643 H 249.685 4.75141 -0.614661 0
M  V30 2644 H 248.049 2.53654 -0.230568 0
M  V30 2645 H 248.832 2.8816 -1.86597 0
M  V30 2646 N 251.277 0.427512 1.51691 0
M  V30 2647 C 252.502 -0.143601 2.06902 0
M  V30 2648 C 252.927 -1.36536 1.29382 0
M  V30 2649 O 252.285 -1.78289 0.329043 0
M  V30 2650 C 252.333 -0.454207 3.57728 0
M  V30 2651 O 251.437 -1.54228 3.82475 0
M  V30 2652 H 250.778 -0.00617128 0.663971 0
M  V30 2653 H 253.308 0.606014 1.95419 0
M  V30 2654 H 253.318 -0.707525 4.01818 0
M  V30 2655 H 251.993 0.438812 4.13579 0
M  V30 2656 H 250.57 -1.2797 3.50254 0
M  V30 2657 N 252.755 -1.56801 0.158532 0
M  V30 2658 C 254.004 -1.95665 -0.489702 0
M  V30 2659 C 254.317 -1.04654 -1.65248 0
M  V30 2660 O 255.523 -1.33146 -2.3661 0
M  V30 2661 C 253.979 -3.47874 -0.922582 0
M  V30 2662 C 253.587 -4.47489 0.213893 0
M  V30 2663 C 255.331 -3.95583 -1.53996 0
M  V30 2664 C 253.238 -5.90921 -0.237903 0
M  V30 2665 H 252.168 -0.730516 -0.186716 0
M  V30 2666 H 254.819 -1.81861 0.244722 0
M  V30 2667 H 253.201 -3.57051 -1.71261 0
M  V30 2668 H 254.375 -4.50017 0.991036 0
M  V30 2669 H 252.69 -4.09764 0.740407 0
M  V30 2670 H 255.287 -5.0019 -1.8898 0
M  V30 2671 H 255.63 -3.37789 -2.43319 0
M  V30 2672 H 256.163 -3.8937 -0.814611 0
M  V30 2673 H 252.902 -6.52559 0.620236 0
M  V30 2674 H 252.422 -5.91729 -0.980676 0
M  V30 2675 H 254.101 -6.43352 -0.686067 0
M  V30 2676 N 254.233 0.115231 -1.57178 0
M  V30 2677 C 255.51 0.852873 -1.76027 0
M  V30 2678 C 255.89 1.97892 -0.73498 0
M  V30 2679 O 255.238 2.27232 0.24036 0
M  V30 2680 C 255.448 1.36608 -3.21153 0
M  V30 2681 C 256.796 1.81692 -3.83762 0
M  V30 2682 O 257.82 1.46278 -3.24779 0
M  V30 2683 O 256.679 2.47104 -4.87444 0
M  V30 2684 H 253.773 0.405296 -0.720877 0
M  V30 2685 H 256.319 0.0986785 -1.69413 0
M  V30 2686 H 255.091 0.558357 -3.87296 0
M  V30 2687 H 254.714 2.18287 -3.3232 0
M  V30 2688 N 255.711 1.52812 0.385517 0
M  V30 2689 C 256.936 1.72207 1.15583 0
M  V30 2690 C 257.361 0.441034 1.82857 0
M  V30 2691 O 256.719 -0.603465 1.70962 0
M  V30 2692 C 256.767 2.87476 2.17692 0
M  V30 2693 O 255.871 2.54693 3.24354 0
M  V30 2694 H 255.212 0.572526 0.336319 0
M  V30 2695 H 257.742 1.99618 0.448744 0
M  V30 2696 H 257.752 3.13072 2.6163 0
M  V30 2697 H 256.427 3.80408 1.68115 0
M  V30 2698 H 255.004 2.3985 2.85529 0
M  V30 2699 N 257.189 -0.644168 1.43834 0
M  V30 2700 C 258.435 -1.40603 1.46146 0
M  V30 2701 C 258.768 -1.93997 0.0887717 0
M  V30 2702 O 258.043 -1.72854 -0.891724 0
M  V30 2703 C 258.326 -2.58086 2.51124 0
M  V30 2704 C 258.179 -2.10126 3.97702 0
M  V30 2705 C 259.498 -3.60291 2.52742 0
M  V30 2706 H 256.617 -0.509905 0.532134 0
M  V30 2707 H 259.259 -0.729502 1.75437 0
M  V30 2708 H 257.409 -3.15801 2.26278 0
M  V30 2709 H 259.081 -1.57342 4.33637 0
M  V30 2710 H 257.324 -1.41419 4.10101 0
M  V30 2711 H 257.995 -2.94649 4.66783 0
M  V30 2712 H 260.471 -3.12352 2.7491 0
M  V30 2713 H 259.347 -4.40032 3.28121 0
M  V30 2714 H 259.608 -4.1349 1.56455 0
M  V30 2715 N 258.668 -1.30515 -0.883378 0
M  V30 2716 C 260.079 -1.17509 -1.45081 0
M  V30 2717 C 260.43 0.223605 -1.94922 0
M  V30 2718 O 259.555 1.12041 -1.85137 0
M  V30 2719 C 260.15 -2.12715 -2.63701 0
M  V30 2720 C 258.709 -2.03682 -3.16529 0
M  V30 2721 C 257.856 -2.02706 -1.89224 0
M  V30 2722 H 260.807 -1.42762 -0.693165 0
M  V30 2723 H 260.828 -1.70891 -3.39965 0
M  V30 2724 H 260.34 -3.14505 -2.27395 0
M  V30 2725 H 258.441 -1.05039 -3.57488 0
M  V30 2726 H 258.554 -2.92146 -3.7972 0
M  V30 2727 H 256.918 -1.4753 -2.07622 0
M  V30 2728 H 257.701 -3.06229 -1.55174 0
M  V30 2729 N 260.146 1.09593 -1.13257 0
M  V30 2730 C 261.093 2.1618 -0.808381 0
M  V30 2731 C 262.063 1.64517 0.228754 0
M  V30 2732 O 263.248 1.9053 0.101381 0
M  V30 2733 C 260.388 3.43973 -0.278675 0
M  V30 2734 C 259.501 4.09545 -1.37466 0
M  V30 2735 C 258.636 5.25088 -0.803479 0
M  V30 2736 C 257.675 5.82579 -1.87799 0
M  V30 2737 N 256.812 6.89486 -1.32488 0
M  V30 2738 H 261.652 2.43254 -1.72138 0
M  V30 2739 H 259.189 1.19392 -0.859294 0
M  V30 2740 H 261.147 4.17174 0.0465583 0
M  V30 2741 H 259.777 3.17223 0.597459 0
M  V30 2742 H 258.829 3.34226 -1.81652 0
M  V30 2743 H 260.141 4.48307 -2.18684 0
M  V30 2744 H 259.295 6.05178 -0.429427 0
M  V30 2745 H 258.034 4.87684 0.0397956 0
M  V30 2746 H 257.039 5.01152 -2.26113 0
M  V30 2747 H 258.264 6.22045 -2.72463 0
M  V30 2748 H 256.21 6.54064 -0.503575 0
M  V30 2749 H 256.127 7.27007 -2.07355 0
M  V30 2750 H 257.395 7.73336 -0.978336 0
M  V30 2751 N 261.624 0.925811 1.2754 0
M  V30 2752 C 262.571 0.422045 2.26908 0
M  V30 2753 C 263.541 -0.510029 1.58076 0
M  V30 2754 O 264.726 -0.429599 1.85901 0
M  V30 2755 C 261.866 -0.320837 3.43605 0
M  V30 2756 C 260.979 0.64513 4.27156 0
M  V30 2757 C 260.114 -0.117405 5.3107 0
M  V30 2758 C 259.153 0.841391 6.0629 0
M  V30 2759 N 258.29 0.111604 7.02011 0
M  V30 2760 H 263.13 1.27441 2.69375 0
M  V30 2761 H 260.667 0.639697 1.32462 0
M  V30 2762 H 262.625 -0.76785 4.10073 0
M  V30 2763 H 261.255 -1.13745 3.02096 0
M  V30 2764 H 260.307 1.21067 3.6062 0
M  V30 2765 H 261.619 1.37797 4.79389 0
M  V30 2766 H 260.773 -0.624422 6.03478 0
M  V30 2767 H 259.512 -0.883219 4.79636 0
M  V30 2768 H 258.517 1.35967 5.32722 0
M  V30 2769 H 259.742 1.60696 6.59813 0
M  V30 2770 H 257.688 -0.635999 6.5291 0
M  V30 2771 H 257.605 0.784044 7.51923 0
M  V30 2772 H 258.873 -0.374823 7.78598 0
M  V30 2773 N 263.102 -1.41638 0.69111 0
M  V30 2774 C 264.065 -2.29178 0.0319786 0
M  V30 2775 C 265.065 -1.44153 -0.712496 0
M  V30 2776 O 266.255 -1.65354 -0.548053 0
M  V30 2777 C 263.387 -3.26952 -0.965161 0
M  V30 2778 H 264.58 -2.88959 0.802681 0
M  V30 2779 H 262.133 -1.4955 0.454356 0
M  V30 2780 H 262.868 -2.72142 -1.76378 0
M  V30 2781 H 262.653 -3.89685 -0.434522 0
M  V30 2782 H 264.143 -3.92561 -1.42428 0
M  V30 2783 N 264.58 -0.43555 -1.51462 0
M  V30 2784 C 265.51 0.367376 -2.30592 0
M  V30 2785 C 266.491 1.02263 -1.35928 0
M  V30 2786 O 267.676 1.02661 -1.64847 0
M  V30 2787 C 264.806 1.46983 -3.14664 0
M  V30 2788 C 263.76 0.938161 -4.17591 0
M  V30 2789 C 263.086 2.13622 -4.90173 0
M  V30 2790 C 264.386 -0.0261621 -5.22293 0
M  V30 2791 H 266.08 -0.292969 -2.97963 0
M  V30 2792 H 263.626 -0.14234 -1.43295 0
M  V30 2793 H 265.579 2.03873 -3.688 0
M  V30 2794 H 264.303 2.15843 -2.4511 0
M  V30 2795 H 262.962 0.391481 -3.64504 0
M  V30 2796 H 262.61 2.81098 -4.17124 0
M  V30 2797 H 262.31 1.78688 -5.59772 0
M  V30 2798 H 263.834 2.7107 -5.47132 0
M  V30 2799 H 265.248 0.452384 -5.71512 0
M  V30 2800 H 263.645 -0.287992 -5.99409 0
M  V30 2801 H 264.715 -0.963391 -4.75233 0
M  V30 2802 N 266.058 1.56714 -0.166846 0
M  V30 2803 C 267.286 2.0112 0.485644 0
M  V30 2804 C 267.701 1.04705 1.57106 0
M  V30 2805 O 267.058 0.0471923 1.82439 0
M  V30 2806 C 267.109 3.45361 1.06808 0
M  V30 2807 O 266.83 4.38092 0.0259995 0
M  V30 2808 C 268.331 4.05145 1.79924 0
M  V30 2809 H 265.551 0.65931 0.124704 0
M  V30 2810 H 268.095 2.02746 -0.267262 0
M  V30 2811 H 266.25 3.44524 1.7715 0
M  V30 2812 H 266.664 5.22519 0.455398 0
M  V30 2813 H 268.138 5.08009 2.15942 0
M  V30 2814 H 268.615 3.46982 2.69258 0
M  V30 2815 H 269.221 4.09672 1.14234 0
M  V30 2816 N 267.536 -0.106894 1.57237 0
M  V30 2817 C 268.469 -1.16125 1.96444 0
M  V30 2818 C 269.447 -1.3947 0.835871 0
M  V30 2819 O 270.631 -1.53425 1.09513 0
M  V30 2820 C 267.758 -2.51277 2.27107 0
M  V30 2821 C 266.804 -2.44285 3.4961 0
M  V30 2822 S 267.637 -1.87077 5.01759 0
M  V30 2823 C 268.793 -3.23877 5.35588 0
M  V30 2824 H 269.026 -0.826971 2.85567 0
M  V30 2825 H 266.559 -0.314124 1.51171 0
M  V30 2826 H 268.517 -3.29035 2.45451 0
M  V30 2827 H 267.178 -2.81879 1.38576 0
M  V30 2828 H 266.371 -3.4387 3.68469 0
M  V30 2829 H 265.973 -1.74652 3.30715 0
M  V30 2830 H 268.265 -4.20122 5.31511 0
M  V30 2831 H 269.208 -3.09833 6.36717 0
M  V30 2832 H 269.616 -3.22864 4.63054 0
M  V30 2833 N 269.014 -1.53014 -0.377408 0
M  V30 2834 C 270.262 -1.6829 -1.11906 0
M  V30 2835 C 270.583 -0.431206 -1.90173 0
M  V30 2836 O 269.853 0.554595 -1.87886 0
M  V30 2837 H 268.433 -0.620371 -0.416112 0
M  V30 2838 H 271.095 -1.90167 -0.426893 0
M  V30 2839 H 270.191 -2.53862 -1.8155 0
M  V30 2840 N 270.492 0.636531 -1.44174 0
M  V30 2841 C 271.741 1.39213 -1.45954 0
M  V30 2842 C 272.054 1.95374 -0.0939119 0
M  V30 2843 O 273.26 2.71498 0.0107767 0
M  V30 2844 C 271.716 2.52025 -2.56927 0
M  V30 2845 C 271.324 2.024 -3.99673 0
M  V30 2846 C 273.068 3.29269 -2.67922 0
M  V30 2847 C 270.975 3.12521 -5.0208 0
M  V30 2848 H 269.905 0.523132 -0.542999 0
M  V30 2849 H 272.556 0.685349 -1.70221 0
M  V30 2850 H 270.938 3.25253 -2.25891 0
M  V30 2851 H 272.112 1.36073 -4.40251 0
M  V30 2852 H 270.427 1.37987 -3.92872 0
M  V30 2853 H 273.024 4.11352 -3.41605 0
M  V30 2854 H 273.367 3.78397 -1.73555 0
M  V30 2855 H 273.9 2.63129 -2.98342 0
M  V30 2856 H 270.639 2.68343 -5.98057 0
M  V30 2857 H 270.159 3.77507 -4.66099 0
M  V30 2858 H 271.838 3.77385 -5.25538 0
M  V30 2859 N 271.97 1.30982 0.876444 0
M  V30 2860 C 272.902 1.13902 1.98894 0
M  V30 2861 C 273.915 0.0798815 1.62604 0
M  V30 2862 O 275.104 0.326743 1.75484 0
M  V30 2863 C 272.204 0.716699 3.31235 0
M  V30 2864 C 271.377 1.85945 3.95908 0
M  V30 2865 C 270.436 1.42426 5.06558 0
M  V30 2866 O 269.462 2.13287 5.27729 0
M  V30 2867 N 270.664 0.308025 5.79682 0
M  V30 2868 H 273.429 2.09724 2.14094 0
M  V30 2869 H 270.99 1.2323 1.05004 0
M  V30 2870 H 272.982 0.408403 4.02634 0
M  V30 2871 H 271.552 -0.149719 3.12241 0
M  V30 2872 H 270.772 2.33541 3.17573 0
M  V30 2873 H 272.06 2.62503 4.35855 0
M  V30 2874 H 271.458 -0.282241 5.64995 0
M  V30 2875 H 270.015 0.0592282 6.51773 0
M  V30 2876 N 273.449 -1.08991 1.13837 0
M  V30 2877 C 274.677 -1.85011 0.926202 0
M  V30 2878 C 275.092 -1.8135 -0.525127 0
M  V30 2879 O 274.449 -1.21287 -1.36366 0
M  V30 2880 C 274.5 -3.32802 1.41155 0
M  V30 2881 O 274.221 -3.36444 2.80601 0
M  V30 2882 C 275.722 -4.25649 1.23847 0
M  V30 2883 H 272.942 -0.584249 0.32999 0
M  V30 2884 H 275.486 -1.37688 1.51202 0
M  V30 2885 H 273.641 -3.77536 0.868631 0
M  V30 2886 H 274.055 -4.28657 3.02248 0
M  V30 2887 H 275.529 -5.27485 1.62675 0
M  V30 2888 H 276.006 -4.38828 0.18065 0
M  V30 2889 H 276.612 -3.86735 1.76964 0
M  V30 2890 N 274.927 -0.932562 -1.27047 0
M  V30 2891 C 276.176 -0.571351 -1.93439 0
M  V30 2892 C 276.489 0.892467 -1.74053 0
M  V30 2893 O 277.695 1.36267 -2.34826 0
M  V30 2894 C 276.151 -0.97106 -3.46552 0
M  V30 2895 C 275.759 -2.4559 -3.74686 0
M  V30 2896 C 277.503 -0.681333 -4.18997 0
M  V30 2897 C 275.41 -2.79475 -5.21198 0
M  V30 2898 H 274.34 -0.209966 -0.724176 0
M  V30 2899 H 276.991 -1.13403 -1.44263 0
M  V30 2900 H 275.373 -0.336983 -3.94564 0
M  V30 2901 H 276.547 -3.13829 -3.37414 0
M  V30 2902 H 274.862 -2.71802 -3.15456 0
M  V30 2903 H 277.459 -0.910939 -5.26883 0
M  V30 2904 H 277.802 0.381628 -4.14547 0
M  V30 2905 H 278.335 -1.27473 -3.76823 0
M  V30 2906 H 275.074 -3.847 -5.30741 0
M  V30 2907 H 274.594 -2.1589 -5.596 0
M  V30 2908 H 276.273 -2.67478 -5.89122 0
M  V30 2909 N 276.405 1.4127 -0.698611 0
M  V30 2910 C 277.335 2.33447 -0.049629 0
M  V30 2911 C 278.316 1.51982 0.763898 0
M  V30 2912 O 279.501 1.80509 0.716257 0
M  V30 2913 C 276.631 3.35828 0.885267 0
M  V30 2914 C 275.585 4.27627 0.178613 0
M  V30 2915 C 274.911 5.20406 1.22807 0
M  V30 2916 C 276.211 5.13459 -0.956933 0
M  V30 2917 H 277.905 2.87966 -0.81951 0
M  V30 2918 H 275.451 1.38461 -0.395538 0
M  V30 2919 H 277.404 3.9924 1.34854 0
M  V30 2920 H 276.128 2.79666 1.68685 0
M  V30 2921 H 274.787 3.65643 -0.26466 0
M  V30 2922 H 274.435 4.60558 2.02226 0
M  V30 2923 H 274.135 5.82661 0.760239 0
M  V30 2924 H 275.659 5.86695 1.69179 0
M  V30 2925 H 277.073 5.70421 -0.573805 0
M  V30 2926 H 275.47 5.8467 -1.35205 0
M  V30 2927 H 276.54 4.50443 -1.79524 0
M  V30 2928 N 277.883 0.443576 1.51229 0
M  V30 2929 C 279.108 -0.121648 2.07043 0
M  V30 2930 C 279.533 -1.35156 1.30823 0
M  V30 2931 O 278.891 -1.7793 0.347934 0
M  V30 2932 C 278.939 -0.41624 3.5819 0
M  V30 2933 O 278.043 -1.50163 3.8409 0
M  V30 2934 H 277.384 0.000871367 0.663999 0
M  V30 2935 H 279.914 0.626706 1.94765 0
M  V30 2936 H 279.924 -0.664867 4.02546 0
M  V30 2937 H 278.599 0.482653 4.1309 0
M  V30 2938 H 277.176 -1.24248 3.51592 0
M  V30 2939 N 279.361 -1.56624 0.175154 0
M  V30 2940 C 280.586 -2.01813 -0.478137 0
M  V30 2941 C 281.011 -1.05457 -1.55757 0
M  V30 2942 O 280.369 -0.0347439 -1.81267 0
M  V30 2943 C 280.417 -3.45581 -1.02987 0
M  V30 2944 O 279.521 -3.52305 -2.14371 0
M  V30 2945 H 278.862 -0.65413 -0.114059 0
M  V30 2946 H 281.392 -2.02673 0.280173 0
M  V30 2947 H 281.402 -3.84965 -1.35151 0
M  V30 2948 H 280.077 -4.1521 -0.239556 0
M  V30 2949 H 278.654 -3.24783 -1.83222 0
M  V30 2950 N 280.839 0.0985539 -1.57292 0
M  V30 2951 C 281.786 1.11981 -2.01814 0
M  V30 2952 C 282.756 1.39999 -0.89384 0
M  V30 2953 O 283.941 1.5152 -1.15958 0
M  V30 2954 C 281.081 2.43577 -2.44467 0
M  V30 2955 C 280.194 2.2232 -3.70402 0
M  V30 2956 C 279.329 3.4729 -4.01949 0
M  V30 2957 C 278.368 3.2128 -5.21005 0
M  V30 2958 N 277.505 4.38507 -5.48321 0
M  V30 2959 H 282.345 0.733149 -2.88841 0
M  V30 2960 H 279.882 0.350482 -1.42864 0
M  V30 2961 H 281.84 3.20373 -2.6724 0
M  V30 2962 H 280.47 2.80097 -1.60455 0
M  V30 2963 H 279.522 1.36343 -3.55126 0
M  V30 2964 H 280.834 1.99089 -4.57345 0
M  V30 2965 H 279.988 4.32495 -4.25479 0
M  V30 2966 H 278.727 3.73572 -3.13521 0
M  V30 2967 H 277.732 2.34468 -4.97298 0
M  V30 2968 H 278.957 2.96348 -6.11028 0
M  V30 2969 H 276.903 4.64871 -4.62851 0
M  V30 2970 H 276.82 4.18455 -6.29628 0
M  V30 2971 H 278.088 5.24787 -5.76385 0
M  V30 2972 N 282.317 1.53212 0.369288 0
M  V30 2973 C 283.733 1.42902 0.710712 0
M  V30 2974 C 283.933 0.565135 1.93413 0
M  V30 2975 O 282.989 0.0461484 2.52458 0
M  V30 2976 C 284.302 2.86042 0.927382 0
M  V30 2977 C 285.85 2.9565 1.02762 0
M  V30 2978 C 286.325 4.39843 1.27679 0
M  V30 2979 N 287.816 4.43256 1.34457 0
M  V30 2980 C 288.551 5.51929 1.55439 0
M  V30 2981 N 288.047 6.70655 1.73762 0
M  V30 2982 N 289.84 5.39502 1.57779 0
M  V30 2983 H 281.991 2.07888 -0.435457 0
M  V30 2984 H 284.254 0.938661 -0.132739 0
M  V30 2985 H 283.96 3.51557 0.100287 0
M  V30 2986 H 283.834 3.29472 1.83653 0
M  V30 2987 H 286.221 2.30291 1.84527 0
M  V30 2988 H 286.302 2.5562 0.0959504 0
M  V30 2989 H 285.946 5.05774 0.464175 0
M  V30 2990 H 285.876 4.77443 2.22162 0
M  V30 2991 H 288.367 3.5769 1.21926 0
M  V30 2992 H 288.68 7.49248 1.89335 0
M  V30 2993 H 287.025 6.73648 1.70948 0
M  V30 2994 H 290.216 4.45713 1.43029 0
M  V30 2995 H 290.389 6.2426 1.7379 0
M  V30 2996 N 283.795 -0.628877 1.44509 0
M  V30 2997 C 285.044 -1.38437 1.4669 0
M  V30 2998 C 285.357 -1.95322 0.104272 0
M  V30 2999 O 286.563 -2.715 0.00362163 0
M  V30 3000 C 285.019 -2.50659 2.5826 0
M  V30 3001 C 284.627 -2.00277 4.0074 0
M  V30 3002 C 286.371 -3.27844 2.69664 0
M  V30 3003 C 284.278 -3.09854 5.0373 0
M  V30 3004 H 283.208 -0.520245 0.545766 0
M  V30 3005 H 285.859 -0.676313 1.70582 0
M  V30 3006 H 284.241 -3.2405 2.27612 0
M  V30 3007 H 285.415 -1.33736 4.40966 0
M  V30 3008 H 283.73 -1.35901 3.93599 0
M  V30 3009 H 286.327 -4.09534 3.43781 0
M  V30 3010 H 286.67 -3.77471 1.75559 0
M  V30 3011 H 287.203 -2.61543 2.99733 0
M  V30 3012 H 283.942 -2.65168 5.99472 0
M  V30 3013 H 283.462 -3.7503 4.68095 0
M  V30 3014 H 285.141 -3.74592 5.27532 0
M  V30 3015 N 285.273 -1.31445 -0.869486 0
M  V30 3016 C 286.203 -1.21727 -1.99261 0
M  V30 3017 C 287.184 -0.104359 -1.6978 0
M  V30 3018 O 288.369 -0.289038 -1.92037 0
M  V30 3019 C 285.499 -0.924317 -3.34774 0
M  V30 3020 C 284.453 -1.99685 -3.78563 0
M  V30 3021 C 283.779 -1.55658 -5.11541 0
M  V30 3022 C 285.079 -3.41003 -3.95619 0
M  V30 3023 H 286.773 -2.1569 -2.07649 0
M  V30 3024 H 284.319 -1.03839 -0.997675 0
M  V30 3025 H 286.272 -0.842934 -4.12883 0
M  V30 3026 H 284.996 0.0509793 -3.2656 0
M  V30 3027 H 283.655 -2.06813 -3.02694 0
M  V30 3028 H 283.303 -0.569132 -4.9977 0
M  V30 3029 H 283.003 -2.27409 -5.41811 0
M  V30 3030 H 284.527 -1.48928 -5.92159 0
M  V30 3031 H 285.941 -3.36547 -4.64122 0
M  V30 3032 H 284.338 -4.10975 -4.37286 0
M  V30 3033 H 285.408 -3.81754 -2.98985 0
M  V30 3034 N 286.751 1.08385 -1.14413 0
M  V30 3035 C 287.681 2.17321 -0.854044 0
M  V30 3036 C 288.662 1.69024 0.191049 0
M  V30 3037 O 289.847 1.94141 0.0476779 0
M  V30 3038 C 286.977 3.45719 -0.330983 0
M  V30 3039 C 285.931 4.07409 -1.31155 0
M  V30 3040 C 285.257 5.30762 -0.64778 0
M  V30 3041 C 286.557 4.48665 -2.67388 0
M  V30 3042 H 288.251 2.41845 -1.76498 0
M  V30 3043 H 285.797 1.16233 -0.850051 0
M  V30 3044 H 287.75 4.21241 -0.115645 0
M  V30 3045 H 286.474 3.2075 0.615381 0
M  V30 3046 H 285.133 3.33919 -1.51306 0
M  V30 3047 H 284.781 5.02078 0.304398 0
M  V30 3048 H 284.481 5.72992 -1.30207 0
M  V30 3049 H 286.005 6.08998 -0.441972 0
M  V30 3050 H 287.419 5.15364 -2.51143 0
M  V30 3051 H 285.816 5.01814 -3.29093 0
M  V30 3052 H 286.886 3.60543 -3.24248 0
M  V30 3053 N 288.23 0.939286 1.26551 0
M  V30 3054 C 289.16 0.465044 2.28822 0
M  V30 3055 C 290.141 -0.480692 1.63167 0
M  V30 3056 O 291.326 -0.382955 1.90387 0
M  V30 3057 C 288.456 -0.27234 3.46231 0
M  V30 3058 C 287.41 0.58666 4.2396 0
M  V30 3059 C 286.736 -0.280573 5.33963 0
M  V30 3060 C 288.036 1.85704 4.88171 0
M  V30 3061 H 289.73 1.31979 2.68741 0
M  V30 3062 H 287.276 0.636061 1.29191 0
M  V30 3063 H 289.229 -0.615133 4.16886 0
M  V30 3064 H 287.953 -1.16121 3.0526 0
M  V30 3065 H 286.612 0.91232 3.55067 0
M  V30 3066 H 286.26 -1.16874 4.89234 0
M  V30 3067 H 285.96 0.29076 5.8688 0
M  V30 3068 H 287.484 -0.618678 6.07458 0
M  V30 3069 H 288.898 1.58161 5.51052 0
M  V30 3070 H 287.295 2.37279 5.51197 0
M  V30 3071 H 288.365 2.56957 4.11219 0
M  V30 3072 N 289.708 -1.40897 0.706093 0
M  V30 3073 C 290.957 -2.00284 0.238574 0
M  V30 3074 C 291.27 -1.56604 -1.17194 0
M  V30 3075 O 292.476 -2.08624 -1.73748 0
M  V30 3076 C 290.932 -3.57934 0.375623 0
M  V30 3077 C 290.54 -4.10591 1.79217 0
M  V30 3078 C 292.284 -4.24488 -0.0315857 0
M  V30 3079 C 290.191 -5.60712 1.88032 0
M  V30 3080 H 289.121 -0.749144 0.0854398 0
M  V30 3081 H 291.772 -1.61251 0.875813 0
M  V30 3082 H 290.154 -3.94622 -0.330042 0
M  V30 3083 H 291.328 -3.85301 2.52745 0
M  V30 3084 H 289.643 -3.56601 2.15 0
M  V30 3085 H 292.24 -5.34698 0.0136842 0
M  V30 3086 H 292.583 -4.02261 -1.072 0
M  V30 3087 H 293.116 -3.92873 0.624181 0
M  V30 3088 H 289.855 -5.87781 2.90161 0
M  V30 3089 H 289.375 -5.87896 1.18903 0
M  V30 3090 H 291.054 -6.25658 1.64805 0
M  V30 3091 N 291.186 -0.45159 -1.50991 0
M  V30 3092 C 292.411 0.110667 -2.07105 0
M  V30 3093 C 292.836 1.3446 -1.31538 0
M  V30 3094 O 292.194 1.77743 -0.357365 0
M  V30 3095 C 292.242 0.397238 -3.58405 0
M  V30 3096 O 291.346 1.48124 -3.84881 0
M  V30 3097 H 290.687 -0.00439271 -0.663985 0
M  V30 3098 H 293.217 -0.637026 -1.9443 0
M  V30 3099 H 293.227 0.64351 -4.02893 0
M  V30 3100 H 291.902 -0.504553 -4.12828 0
M  V30 3101 H 290.479 1.22381 -3.52246 0
M  V30 3102 N 292.664 1.56529 -0.183458 0
M  V30 3103 C 293.912 1.96855 0.457452 0
M  V30 3104 C 294.233 1.07104 1.62953 0
M  V30 3105 O 293.503 0.139887 1.954 0
M  V30 3106 H 292.083 0.72693 0.171992 0
M  V30 3107 H 294.745 1.93056 -0.267476 0
M  V30 3108 H 293.841 3.01423 0.809368 0
M  V30 3109 N 294.142 -0.090211 1.57342 0
M  V30 3110 C 295.089 -1.10909 2.02405 0
M  V30 3111 C 296.059 -1.39523 0.901252 0
M  V30 3112 O 297.244 -1.50903 1.1676 0
M  V30 3113 C 294.384 -2.42277 2.45755 0
M  V30 3114 C 293.497 -2.20352 3.71576 0
M  V30 3115 C 292.632 -3.45154 4.03785 0
M  V30 3116 C 291.671 -3.18512 5.22701 0
M  V30 3117 N 290.808 -4.35593 5.50639 0
M  V30 3118 H 295.648 -0.71782 2.89225 0
M  V30 3119 H 293.185 -0.342901 1.43048 0
M  V30 3120 H 295.143 -3.18951 2.68935 0
M  V30 3121 H 293.773 -2.79242 1.61938 0
M  V30 3122 H 292.825 -1.34458 3.55844 0
M  V30 3123 H 294.137 -1.96661 4.58395 0
M  V30 3124 H 293.291 -4.30233 4.27767 0
M  V30 3125 H 292.03 -3.71904 3.15498 0
M  V30 3126 H 291.035 -2.31827 4.98534 0
M  V30 3127 H 292.26 -2.93103 6.12591 0
M  V30 3128 H 290.206 -4.6241 4.6531 0
M  V30 3129 H 290.123 -4.1511 6.31838 0
M  V30 3130 H 291.391 -5.21723 5.7916 0
M  V30 3131 N 295.62 -1.53406 -0.361157 0
M  V30 3132 C 296.845 -1.74024 -1.12829 0
M  V30 3133 C 297.27 -0.470069 -1.82132 0
M  V30 3134 O 296.628 0.57619 -1.719 0
M  V30 3135 C 296.676 -2.90903 -2.13091 0
M  V30 3136 O 295.78 -2.59821 -3.20261 0
M  V30 3137 H 295.121 -0.577804 -0.327168 0
M  V30 3138 H 297.651 -2.00307 -0.41693 0
M  V30 3139 H 297.661 -3.17194 -2.56616 0
M  V30 3140 H 296.336 -3.83034 -1.62042 0
M  V30 3141 H 294.913 -2.44362 -2.81677 0
M  V30 3142 N 297.098 0.621204 -1.44841 0
M  V30 3143 C 298.045 1.73267 -1.5247 0
M  V30 3144 C 299.015 1.6189 -0.371611 0
M  V30 3145 O 300.2 1.81668 -0.58321 0
M  V30 3146 C 297.34 3.11545 -1.48438 0
M  V30 3147 C 296.453 3.33827 -2.74196 0
M  V30 3148 C 295.588 4.62133 -2.61929 0
M  V30 3149 C 294.627 4.77627 -3.82804 0
M  V30 3150 N 293.764 5.97219 -3.69153 0
M  V30 3151 H 298.604 1.66082 -2.47428 0
M  V30 3152 H 296.141 0.810026 -1.22788 0
M  V30 3153 H 298.099 3.91528 -1.4409 0
M  V30 3154 H 296.729 3.1772 -0.570402 0
M  V30 3155 H 295.781 2.47715 -2.88689 0
M  V30 3156 H 297.093 3.41153 -3.6389 0
M  V30 3157 H 296.247 5.50291 -2.5547 0
M  V30 3158 H 294.986 4.57182 -1.69811 0
M  V30 3159 H 293.991 3.87896 -3.89637 0
M  V30 3160 H 295.216 4.84385 -4.75971 0
M  V30 3161 H 293.162 5.93339 -2.79794 0
M  V30 3162 H 293.079 6.05644 -4.52472 0
M  V30 3163 H 294.347 6.87912 -3.66603 0
M  V30 3164 N 298.576 1.31904 0.862503 0
M  V30 3165 C 299.539 1.20131 1.95195 0
M  V30 3166 C 300.539 0.126409 1.60302 0
M  V30 3167 O 301.729 0.376234 1.70089 0
M  V30 3168 C 298.861 0.845691 3.30244 0
M  V30 3169 H 300.054 2.16943 2.07064 0
M  V30 3170 H 297.607 1.15622 1.05172 0
M  V30 3171 H 298.342 -0.120957 3.24074 0
M  V30 3172 H 298.127 1.62276 3.56944 0
M  V30 3173 H 299.617 0.787418 4.10109 0
M  V30 3174 N 300.054 -1.07777 1.14986 0
M  V30 3175 C 300.964 -2.18404 0.856546 0
M  V30 3176 C 301.98 -1.73211 -0.165485 0
M  V30 3177 O 303.156 -2.01399 0.00755219 0
M  V30 3178 C 300.221 -3.44977 0.34526 0
M  V30 3179 C 299.282 -4.0476 1.43065 0
M  V30 3180 C 298.515 -5.25291 0.943663 0
M  V30 3181 O 298.738 -5.70004 -0.212426 0
M  V30 3182 O 297.672 -5.76638 1.72547 0
M  V30 3183 H 301.498 -2.45978 1.78125 0
M  V30 3184 H 299.083 -1.17033 0.928631 0
M  V30 3185 H 300.965 -4.21348 0.0663671 0
M  V30 3186 H 299.64 -3.18965 -0.551631 0
M  V30 3187 H 298.547 -3.29949 1.76309 0
M  V30 3188 H 299.88 -4.35035 2.30229 0
M  V30 3189 N 301.532 -0.945985 -1.26051 0
M  V30 3190 C 302.495 -0.463897 -2.24456 0
M  V30 3191 C 303.495 0.427655 -1.55009 0
M  V30 3192 O 304.685 0.226157 -1.72726 0
M  V30 3193 C 301.817 0.330812 -3.39291 0
M  V30 3194 H 303.01 -1.33357 -2.68619 0
M  V30 3195 H 300.563 -0.728416 -1.38289 0
M  V30 3196 H 301.298 1.21852 -3.00537 0
M  V30 3197 H 301.083 -0.308679 -3.90883 0
M  V30 3198 H 302.573 0.657865 -4.12386 0
M  V30 3199 N 303.011 1.40521 -0.713556 0
M  V30 3200 C 304.257 2.01221 -0.252564 0
M  V30 3201 C 304.59 1.56444 1.1506 0
M  V30 3202 O 303.865 0.783597 1.78017 0
M  V30 3203 C 304.148 3.58582 -0.330332 0
M  V30 3204 C 304.001 4.13437 -1.77173 0
M  V30 3205 C 305.32 4.39079 0.299641 0
M  V30 3206 H 302.439 0.731077 -0.0932471 0
M  V30 3207 H 305.081 1.67026 -0.905673 0
M  V30 3208 H 303.231 3.87844 0.225737 0
M  V30 3209 H 304.903 3.9498 -2.38303 0
M  V30 3210 H 303.146 3.67801 -2.3001 0
M  V30 3211 H 303.817 5.22597 -1.77755 0
M  V30 3212 H 306.293 4.15735 -0.174139 0
M  V30 3213 H 305.169 5.4848 0.214771 0
M  V30 3214 H 305.43 4.19915 1.38288 0
M  V30 3215 N 304.489 0.459591 1.5075 0
M  V30 3216 C 305.905 0.113092 1.59199 0
M  V30 3217 C 306.105 -1.37951 1.46874 0
M  V30 3218 O 305.161 -2.15168 1.32132 0
M  V30 3219 C 306.474 0.653043 2.93523 0
M  V30 3220 C 308.022 0.615449 3.0689 0
M  V30 3221 C 308.497 1.13275 4.43771 0
M  V30 3222 N 309.988 1.09167 4.50152 0
M  V30 3223 C 310.723 1.46256 5.54434 0
M  V30 3224 N 310.219 1.90739 6.66026 0
M  V30 3225 N 312.012 1.37932 5.44914 0
M  V30 3226 H 304.163 1.43049 1.57005 0
M  V30 3227 H 306.426 0.590861 0.741341 0
M  V30 3228 H 306.132 1.69822 3.07983 0
M  V30 3229 H 306.006 0.0902132 3.77092 0
M  V30 3230 H 308.393 -0.420793 2.92084 0
M  V30 3231 H 308.474 1.21495 2.25106 0
M  V30 3232 H 308.118 2.16757 4.59324 0
M  V30 3233 H 308.048 0.509576 5.24129 0
M  V30 3234 H 310.539 0.76528 3.7007 0
M  V30 3235 H 310.852 2.17218 7.41644 0
M  V30 3236 H 309.197 1.94683 6.67176 0
M  V30 3237 H 312.388 1.0303 4.56621 0
M  V30 3238 H 312.561 1.67164 6.26067 0
M  V30 3239 N 305.967 -1.56429 0.191757 0
M  V30 3240 C 306.914 -2.18936 -0.730454 0
M  V30 3241 C 307.884 -1.13557 -1.21219 0
M  V30 3242 O 309.069 -1.41794 -1.27668 0
M  V30 3243 C 306.209 -2.85013 -1.9458 0
M  V30 3244 C 305.322 -4.04909 -1.50574 0
M  V30 3245 C 304.457 -4.58853 -2.67634 0
M  V30 3246 C 303.496 -5.71114 -2.20217 0
M  V30 3247 N 302.633 -6.19478 -3.30442 0
M  V30 3248 H 307.473 -2.97389 -0.190664 0
M  V30 3249 H 305.01 -1.46869 -0.0823694 0
M  V30 3250 H 306.968 -3.21492 -2.65893 0
M  V30 3251 H 305.598 -2.09129 -2.45896 0
M  V30 3252 H 304.65 -3.74115 -0.688605 0
M  V30 3253 H 305.962 -4.86113 -1.11784 0
M  V30 3254 H 305.116 -4.97619 -3.47074 0
M  V30 3255 H 303.855 -3.76749 -3.09696 0
M  V30 3256 H 302.86 -5.31879 -1.3923 0
M  V30 3257 H 304.085 -6.55033 -1.79189 0
M  V30 3258 H 302.031 -5.40297 -3.72041 0
M  V30 3259 H 301.948 -6.95725 -2.9581 0
M  V30 3260 H 303.216 -6.62898 -4.10106 0
M  V30 3261 N 307.445 0.0818655 -1.57387 0
M  V30 3262 C 308.375 1.09885 -2.06028 0
M  V30 3263 C 309.356 1.4098 -0.951774 0
M  V30 3264 O 310.541 1.50781 -1.22387 0
M  V30 3265 C 307.671 2.4151 -2.4958 0
M  V30 3266 C 306.625 2.24792 -3.64215 0
M  V30 3267 C 305.951 3.61712 -3.93787 0
M  V30 3268 C 307.251 1.67749 -4.94629 0
M  V30 3269 H 308.945 0.694128 -2.91243 0
M  V30 3270 H 306.491 0.332448 -1.4011 0
M  V30 3271 H 308.444 3.12939 -2.82219 0
M  V30 3272 H 307.168 2.83943 -1.61381 0
M  V30 3273 H 305.827 1.55807 -3.31843 0
M  V30 3274 H 305.475 4.01697 -3.02735 0
M  V30 3275 H 305.175 3.51368 -4.70971 0
M  V30 3276 H 306.699 4.34587 -4.28913 0
M  V30 3277 H 308.113 2.29032 -5.25564 0
M  V30 3278 H 306.51 1.68128 -5.76067 0
M  V30 3279 H 307.58 0.638059 -4.80684 0
M  V30 3280 N 308.923 1.53595 0.353017 0
M  V30 3281 C 309.853 1.83902 1.43883 0
M  V30 3282 C 310.834 0.693421 1.55324 0
M  V30 3283 O 312.019 0.944452 1.69687 0
M  V30 3284 C 309.149 2.04016 2.8106 0
M  V30 3285 C 308.103 3.19814 2.84434 0
M  V30 3286 C 307.429 3.25244 4.24406 0
M  V30 3287 C 308.729 4.58133 2.50822 0
M  V30 3288 H 310.423 2.74835 1.1877 0
M  V30 3289 H 307.969 1.32242 0.569917 0
M  V30 3290 H 309.922 2.238 3.57059 0
M  V30 3291 H 308.646 1.09804 3.07588 0
M  V30 3292 H 307.305 2.9987 2.10887 0
M  V30 3293 H 306.953 2.28646 4.48029 0
M  V30 3294 H 306.653 4.03054 4.27576 0
M  V30 3295 H 308.177 3.47228 5.0226 0
M  V30 3296 H 309.591 4.77995 3.16534 0
M  V30 3297 H 307.988 5.38276 2.6529 0
M  V30 3298 H 309.058 4.62387 1.46034 0
M  V30 3299 N 310.401 -0.613514 1.45168 0
M  V30 3300 C 311.311 -1.75296 1.55912 0
M  V30 3301 C 312.327 -1.68244 0.443856 0
M  V30 3302 O 313.503 -1.88706 0.70371 0
M  V30 3303 C 310.568 -3.1174 1.5172 0
M  V30 3304 C 309.629 -3.30291 2.74238 0
M  V30 3305 C 308.862 -4.60226 2.70236 0
M  V30 3306 O 309.085 -5.42168 1.77229 0
M  V30 3307 O 308.019 -4.81361 3.61352 0
M  V30 3308 H 311.845 -1.69183 2.52212 0
M  V30 3309 H 309.43 -0.776886 1.27612 0
M  V30 3310 H 311.312 -3.93044 1.51968 0
M  V30 3311 H 309.987 -3.18357 0.585697 0
M  V30 3312 H 308.894 -2.48598 2.79553 0
M  V30 3313 H 310.227 -3.28547 3.66494 0
M  V30 3314 N 311.879 -1.3236 -0.855495 0
M  V30 3315 C 313.127 -1.22629 -1.60644 0
M  V30 3316 C 313.448 0.212136 -1.93843 0
M  V30 3317 O 312.718 1.13666 -1.59552 0
M  V30 3318 H 311.298 -0.450882 -0.595579 0
M  V30 3319 H 313.96 -1.65871 -1.02337 0
M  V30 3320 H 313.056 -1.80832 -2.54374 0
M  V30 3321 N 313.357 1.07166 -1.15556 0
M  V30 3322 C 314.305 2.16517 -0.8499 0
M  V30 3323 C 315.299 1.68468 0.177454 0
M  V30 3324 O 316.505 1.79971 0.0323026 0
M  V30 3325 H 312.88 0.706652 -0.25719 0
M  V30 3326 H 314.851 2.39514 -1.77976 0
M  V30 3327 C 313.6 3.45855 -0.357682 0
M  V30 3328 H 312.923 3.83214 -1.13961 0
M  V30 3329 H 314.363 4.23607 -0.182489 0
M  V30 3330 C 312.822 3.24062 0.921152 0
M  V30 3331 O 313.352 3.48813 1.9923 0
M  V30 3332 N 311.558 2.77539 0.86141 0
M  V30 3333 H 311.105 2.57598 -0.0104408 0
M  V30 3334 H 311.063 2.63337 1.71758 0
M  V30 3335 N 314.835 0.952656 1.25548 0
M  V30 3336 C 316.084 0.602053 1.92505 0
M  V30 3337 C 316.397 -0.864663 1.75451 0
M  V30 3338 O 317.603 -1.32514 2.36965 0
M  V30 3339 C 316.059 1.02607 3.44963 0
M  V30 3340 C 315.667 2.51519 3.70732 0
M  V30 3341 C 317.411 0.747905 4.1786 0
M  V30 3342 C 315.318 2.87732 5.16686 0
M  V30 3343 H 314.248 0.22146 0.720744 0
M  V30 3344 H 316.899 1.15684 1.42441 0
M  V30 3345 H 315.281 0.399712 3.93978 0
M  V30 3346 H 316.455 3.19157 3.32378 0
M  V30 3347 H 314.77 2.76786 3.11092 0
M  V30 3348 H 317.367 0.994647 5.25367 0
M  V30 3349 H 317.71 -0.315629 4.15102 0
M  V30 3350 H 318.243 1.33452 3.74747 0
M  V30 3351 H 314.982 3.93095 5.24554 0
M  V30 3352 H 314.502 2.24765 5.56094 0
M  V30 3353 H 316.181 2.76817 5.84792 0
M  V30 3354 N 316.313 -1.40141 0.720998 0
M  V30 3355 C 317.538 -2.05618 0.271258 0
M  V30 3356 C 317.963 -1.53978 -1.08039 0
M  V30 3357 O 317.321 -0.677463 -1.68167 0
M  V30 3358 C 317.369 -3.59609 0.267197 0
M  V30 3359 O 316.473 -4.05526 -0.749814 0
M  V30 3360 H 315.814 -0.651904 0.126162 0
M  V30 3361 H 318.344 -1.79439 0.982997 0
M  V30 3362 H 318.354 -4.0786 0.106744 0
M  V30 3363 H 317.029 -3.96559 1.25354 0
M  V30 3364 H 315.606 -3.68722 -0.556644 0
M  V30 3365 N 317.792 -0.46758 -1.50504 0
M  V30 3366 C 318.702 0.33382 -2.32213 0
M  V30 3367 C 319.718 0.999323 -1.42441 0
M  V30 3368 O 320.894 0.988068 -1.75497 0
M  V30 3369 C 317.959 1.4035 -3.17022 0
M  V30 3370 C 317.02 0.754961 -4.2261 0
M  V30 3371 C 316.253 1.77367 -5.03365 0
M  V30 3372 O 316.476 2.99976 -4.8515 0
M  V30 3373 O 315.41 1.34744 -5.86624 0
M  V30 3374 H 319.236 -0.334067 -3.01857 0
M  V30 3375 H 316.821 -0.229496 -1.47627 0
M  V30 3376 H 318.703 2.02318 -3.69656 0
M  V30 3377 H 317.378 2.05492 -2.5011 0
M  V30 3378 H 316.285 0.0964244 -3.73976 0
M  V30 3379 H 317.618 0.146545 -4.91982 0
M  V30 3380 N 319.27 1.56325 -0.20005 0
M  V30 3381 C 320.547 1.89484 0.48529 0
M  V30 3382 C 320.927 1.1143 1.79294 0
M  V30 3383 O 320.275 0.216919 2.27468 0
M  V30 3384 C 320.485 3.41923 0.699243 0
M  V30 3385 C 321.833 4.12256 1.01638 0
M  V30 3386 O 322.857 3.47402 0.786792 0
M  V30 3387 O 321.716 5.26887 1.45095 0
M  V30 3388 H 318.81 0.787144 0.253639 0
M  V30 3389 H 321.356 1.67985 -0.240633 0
M  V30 3390 H 320.128 3.90658 -0.224008 0
M  V30 3391 H 319.751 3.69131 1.47744 0
M  V30 3392 N 320.748 -0.0735177 1.57428 0
M  V30 3393 C 321.995 -0.772999 1.87166 0
M  V30 3394 C 322.323 -1.77665 0.791551 0
M  V30 3395 O 321.578 -1.94541 -0.212636 0
M  V30 3396 C 321.877 -1.51799 3.23561 0
M  V30 3397 C 321.543 -0.654484 4.46125 0
M  V30 3398 C 320.205 -0.416511 4.79394 0
M  V30 3399 C 322.557 -0.0555862 5.2117 0
M  V30 3400 C 319.885 0.429869 5.85123 0
M  V30 3401 C 322.237 0.778239 6.27795 0
M  V30 3402 C 320.901 1.0261 6.59566 0
M  V30 3403 H 320.171 -0.282861 0.684888 0
M  V30 3404 H 322.818 -0.0338272 1.9147 0
M  V30 3405 H 321.123 -2.32932 3.1504 0
M  V30 3406 H 322.82 -2.06397 3.43804 0
M  V30 3407 H 319.41 -0.850091 4.20085 0
M  V30 3408 H 323.594 -0.226558 4.95783 0
M  V30 3409 H 318.85 0.630665 6.08139 0
M  V30 3410 H 323.024 1.24906 6.85107 0
M  V30 3411 H 320.651 1.68371 7.4132 0
M  V30 3412 N 322.226 -1.5378 -0.344866 0
M  V30 3413 C 323.637 -1.62428 -0.920552 0
M  V30 3414 C 323.988 -0.504747 -1.89596 0
M  V30 3415 O 323.113 0.365711 -2.13287 0
M  V30 3416 C 323.708 -2.94419 -1.67639 0
M  V30 3417 C 322.267 -3.05333 -2.20111 0
M  V30 3418 C 321.414 -2.57866 -1.01982 0
M  V30 3419 H 324.365 -1.58222 -0.123042 0
M  V30 3420 H 324.386 -2.83384 -2.53917 0
M  V30 3421 H 323.898 -3.7588 -0.966224 0
M  V30 3422 H 321.999 -2.28502 -2.94308 0
M  V30 3423 H 322.112 -4.10778 -2.46573 0
M  V30 3424 H 320.476 -2.13241 -1.39285 0
M  V30 3425 H 321.259 -3.41765 -0.324308 0
M  V30 3426 N 323.704 0.605807 -1.45491 0
M  V30 3427 C 324.667 1.69836 -1.5391 0
M  V30 3428 C 325.667 1.55261 -0.418424 0
M  V30 3429 O 326.857 1.60296 -0.681965 0
M  V30 3430 C 323.989 3.09117 -1.43734 0
M  V30 3431 H 325.182 1.63738 -2.51257 0
M  V30 3432 H 322.735 0.821689 -1.32959 0
M  V30 3433 H 323.47 3.20791 -0.475788 0
M  V30 3434 H 323.255 3.21104 -2.25021 0
M  V30 3435 H 324.745 3.88696 -1.52661 0
M  V30 3436 N 325.182 1.32811 0.848464 0
M  V30 3437 C 326.407 1.26882 1.6406 0
M  V30 3438 C 326.832 -0.15913 1.87426 0
M  V30 3439 O 326.19 -1.11258 1.43148 0
M  V30 3440 C 326.238 2.03997 2.97351 0
M  V30 3441 O 325.342 1.39201 3.88197 0
M  V30 3442 H 324.683 0.436982 0.499943 0
M  V30 3443 H 327.213 1.75224 1.0563 0
M  V30 3444 H 327.223 2.14403 3.47124 0
M  V30 3445 H 325.898 3.0783 2.79666 0
M  V30 3446 H 324.475 1.37381 3.46671 0
M  V30 3447 N 326.66 -1.06551 1.16123 0
M  V30 3448 C 327.623 -2.12132 0.867906 0
M  V30 3449 C 328.623 -1.60224 -0.135944 0
M  V30 3450 O 329.813 -1.73943 0.0946422 0
M  V30 3451 C 326.945 -3.396 0.297419 0
M  V30 3452 H 328.138 -2.39586 1.80385 0
M  V30 3453 H 325.691 -1.22574 0.969812 0
M  V30 3454 H 326.426 -3.17794 -0.64633 0
M  V30 3455 H 326.211 -3.78581 1.02073 0
M  V30 3456 H 327.701 -4.17455 0.110052 0
M  V30 3457 N 328.138 -0.959301 -1.25041 0
M  V30 3458 C 329.068 -0.501388 -2.28053 0
M  V30 3459 C 330.049 0.454673 -1.63911 0
M  V30 3460 O 331.234 0.352618 -1.90972 0
M  V30 3461 C 328.364 0.217224 -3.4662 0
M  V30 3462 C 327.318 -0.654034 -4.22973 0
M  V30 3463 C 326.644 0.195589 -5.34342 0
M  V30 3464 C 327.944 -1.93447 -4.85155 0
M  V30 3465 H 329.638 -1.36238 -2.66608 0
M  V30 3466 H 327.184 -0.656534 -1.28163 0
M  V30 3467 H 329.137 0.548732 -4.17812 0
M  V30 3468 H 327.861 1.1125 -3.07068 0
M  V30 3469 H 326.52 -0.968693 -3.5357 0
M  V30 3470 H 326.168 1.09076 -4.91031 0
M  V30 3471 H 325.868 -0.384091 -5.86343 0
M  V30 3472 H 327.392 0.521958 -6.08365 0
M  V30 3473 H 328.806 -1.66908 -5.48466 0
M  V30 3474 H 327.203 -2.46018 -5.47353 0
M  V30 3475 H 328.273 -2.63466 -4.07079 0
M  V30 3476 N 329.616 1.39756 -0.72842 0
M  V30 3477 C 330.566 2.2792 -0.0603424 0
M  V30 3478 C 331.55 1.43922 0.719399 0
M  V30 3479 O 332.742 1.66895 0.589489 0
M  V30 3480 C 329.871 3.32582 0.851104 0
M  V30 3481 C 328.957 4.24049 0.0658641 0
M  V30 3482 N 329.348 4.96653 -0.957578 0
M  V30 3483 C 327.646 4.45013 0.296509 0
M  V30 3484 C 328.347 5.63836 -1.43052 0
M  V30 3485 N 327.323 5.38397 -0.750315 0
M  V30 3486 H 331.125 2.81504 -0.84455 0
M  V30 3487 H 328.639 1.5236 -0.562155 0
M  V30 3488 H 330.636 3.94603 1.34514 0
M  V30 3489 H 329.296 2.80558 1.63454 0
M  V30 3490 H 330.307 5.00297 -1.33877 0
M  V30 3491 H 326.984 4.03943 1.05527 0
M  V30 3492 H 328.374 6.31974 -2.28163 0
M  V30 3493 N 331.094 0.475555 1.50254 0
M  V30 3494 C 332.024 -0.30611 2.31485 0
M  V30 3495 C 333.005 -0.986228 1.38591 0
M  V30 3496 O 334.19 -0.982541 1.67511 0
M  V30 3497 C 331.32 -1.38588 3.1845 0
M  V30 3498 C 330.274 -0.827115 4.19932 0
M  V30 3499 C 329.6 -2.00551 4.95665 0
M  V30 3500 C 330.9 0.16463 5.2204 0
M  V30 3501 H 332.594 0.371866 2.97082 0
M  V30 3502 H 330.14 0.180282 1.42867 0
M  V30 3503 H 332.093 -1.94023 3.74076 0
M  V30 3504 H 330.817 -2.09269 2.50747 0
M  V30 3505 H 329.476 -0.294702 3.65414 0
M  V30 3506 H 329.124 -2.6994 4.2443 0
M  V30 3507 H 328.824 -1.63784 5.64313 0
M  V30 3508 H 330.348 -2.56468 5.54127 0
M  V30 3509 H 331.762 -0.300699 5.72511 0
M  V30 3510 H 330.159 0.446813 5.98434 0
M  V30 3511 H 331.229 1.08905 4.72512 0
M  V30 3512 N 332.573 -1.56217 0.208337 0
M  V30 3513 C 333.523 -2.16324 -0.720281 0
M  V30 3514 C 334.507 -1.10775 -1.16695 0
M  V30 3515 O 335.699 -1.36801 -1.12314 0
M  V30 3516 C 332.828 -2.83644 -1.93393 0
M  V30 3517 C 331.914 -3.96401 -1.50755 0
M  V30 3518 N 332.305 -4.99546 -0.792937 0
M  V30 3519 C 330.603 -4.08246 -1.79585 0
M  V30 3520 C 331.304 -5.78828 -0.577364 0
M  V30 3521 N 330.28 -5.31723 -1.1301 0
M  V30 3522 H 334.082 -2.93432 -0.165725 0
M  V30 3523 H 331.596 -1.62397 0.00906463 0
M  V30 3524 H 333.593 -3.25107 -2.60981 0
M  V30 3525 H 332.253 -2.08027 -2.49308 0
M  V30 3526 H 333.264 -5.15967 -0.447004 0
M  V30 3527 H 329.941 -3.4377 -2.36915 0
M  V30 3528 H 331.331 -6.71899 -0.00952956 0
M  V30 3529 N 334.051 0.0651679 -1.57465 0
M  V30 3530 C 335.276 0.779605 -1.9219 0
M  V30 3531 C 335.701 1.69988 -0.805333 0
M  V30 3532 O 335.059 1.79685 0.241435 0
M  V30 3533 C 335.107 1.54364 -3.2589 0
M  V30 3534 O 334.211 2.65474 -3.1559 0
M  V30 3535 H 333.552 0.212249 -0.629163 0
M  V30 3536 H 336.082 0.0314294 -2.04576 0
M  V30 3537 H 336.092 1.92146 -3.59922 0
M  V30 3538 H 334.767 0.868457 -4.06732 0
M  V30 3539 H 333.344 2.30501 -2.93128 0
M  V30 3540 N 335.529 1.53961 0.336706 0
M  V30 3541 C 336.806 1.62171 1.09361 0
M  V30 3542 C 337.186 0.447263 2.06307 0
M  V30 3543 O 336.534 -0.559802 2.21537 0
M  V30 3544 C 336.744 2.98565 1.80721 0
M  V30 3545 C 338.092 3.54157 2.34218 0
M  V30 3546 O 339.116 3.00784 1.90807 0
M  V30 3547 O 337.975 4.47528 3.13657 0
M  V30 3548 H 335.069 0.6562 0.503319 0
M  V30 3549 H 337.615 1.66307 0.33765 0
M  V30 3550 H 336.387 3.75482 1.10132 0
M  V30 3551 H 336.01 2.9805 2.63158 0
M  V30 3552 N 337.007 -0.598083 1.45811 0
M  V30 3553 C 338.253 -1.35882 1.50545 0
M  V30 3554 C 338.586 -1.93616 0.150445 0
M  V30 3555 O 337.861 -1.75604 -0.83628 0
M  V30 3556 C 338.144 -2.49966 2.59208 0
M  V30 3557 C 337.997 -1.97367 4.04186 0
M  V30 3558 C 339.316 -3.52068 2.64076 0
M  V30 3559 H 336.435 -0.492717 0.548087 0
M  V30 3560 H 339.077 -0.673319 1.77669 0
M  V30 3561 H 337.227 -3.08443 2.3621 0
M  V30 3562 H 338.899 -1.43466 4.38423 0
M  V30 3563 H 337.142 -1.283 4.14393 0
M  V30 3564 H 337.813 -2.79649 4.75921 0
M  V30 3565 H 340.289 -3.03448 2.84708 0
M  V30 3566 H 339.165 -4.2937 3.41954 0
M  V30 3567 H 339.426 -4.08304 1.69531 0
M  V30 3568 N 338.485 -1.33259 -0.841409 0
M  V30 3569 C 339.713 -1.27605 -1.62864 0
M  V30 3570 C 340.128 0.153507 -1.88175 0
M  V30 3571 O 339.485 1.09485 -1.46011 0
M  V30 3572 C 339.536 -2.04596 -2.98031 0
M  V30 3573 O 339.257 -3.41975 -2.73834 0
M  V30 3574 C 340.758 -2.06122 -3.92465 0
M  V30 3575 H 337.978 -0.439718 -0.506842 0
M  V30 3576 H 340.522 -1.75591 -1.04824 0
M  V30 3577 H 338.677 -1.60299 -3.5268 0
M  V30 3578 H 339.091 -3.81549 -3.59889 0
M  V30 3579 H 340.565 -2.64451 -4.84531 0
M  V30 3580 H 341.042 -1.05083 -4.26444 0
M  V30 3581 H 341.648 -2.50427 -3.43753 0
M  V30 3582 N 339.963 1.05934 -1.16686 0
M  V30 3583 C 341.209 1.79065 -0.95203 0
M  V30 3584 C 341.542 1.87147 0.518629 0
M  V30 3585 O 340.817 1.36574 1.38484 0
M  V30 3586 C 341.1 3.23359 -1.58464 0
M  V30 3587 C 340.953 3.23336 -3.12689 0
M  V30 3588 C 342.272 4.21004 -1.28232 0
M  V30 3589 H 339.391 0.65005 -0.34728 0
M  V30 3590 H 342.033 1.23868 -1.44072 0
M  V30 3591 H 340.183 3.70493 -1.16908 0
M  V30 3592 H 341.855 2.84336 -3.6325 0
M  V30 3593 H 340.098 2.61886 -3.4583 0
M  V30 3594 H 340.769 4.25144 -3.52075 0
M  V30 3595 H 343.245 3.8233 -1.64203 0
M  V30 3596 H 342.121 5.20225 -1.75092 0
M  V30 3597 H 342.382 4.41639 -0.201791 0
M  V30 3598 N 341.441 0.965919 1.2453 0
M  V30 3599 C 342.371 0.513476 2.27784 0
M  V30 3600 C 343.352 -0.445974 1.6415 0
M  V30 3601 O 344.537 -0.342485 1.91156 0
M  V30 3602 C 341.667 -0.198839 3.4673 0
M  V30 3603 C 340.621 0.676456 4.2262 0
M  V30 3604 C 339.947 -0.167248 5.34438 0
M  V30 3605 C 341.247 1.96017 4.84123 0
M  V30 3606 H 342.941 1.3765 2.65881 0
M  V30 3607 H 340.487 0.663321 1.27813 0
M  V30 3608 H 342.44 -0.526567 4.18097 0
M  V30 3609 H 341.164 -1.0962 3.07654 0
M  V30 3610 H 339.823 0.98743 3.53052 0
M  V30 3611 H 339.471 -1.0647 4.91603 0
M  V30 3612 H 339.171 0.415181 5.86131 0
M  V30 3613 H 340.695 -0.489688 6.08633 0
M  V30 3614 H 342.109 1.69814 5.47573 0
M  V30 3615 H 340.506 2.48918 5.4604 0
M  V30 3616 H 341.576 2.65622 4.05676 0
M  V30 3617 N 342.919 -1.39368 0.735821 0
M  V30 3618 C 344.168 -1.99733 0.281004 0
M  V30 3619 C 344.481 -1.59055 -1.13846 0
M  V30 3620 O 345.687 -2.12262 -1.69284 0
M  V30 3621 C 344.143 -3.57057 0.451462 0
M  V30 3622 C 343.751 -4.06697 1.87886 0
M  V30 3623 C 345.495 -4.2446 0.0584616 0
M  V30 3624 C 343.402 -5.56598 1.99883 0
M  V30 3625 H 342.332 -0.747163 0.101311 0
M  V30 3626 H 344.983 -1.59357 0.909819 0
M  V30 3627 H 343.365 -3.95234 -0.246263 0
M  V30 3628 H 344.539 -3.79853 2.60861 0
M  V30 3629 H 342.854 -3.5196 2.22515 0
M  V30 3630 H 345.451 -5.34549 0.127099 0
M  V30 3631 H 345.794 -4.04444 -0.986433 0
M  V30 3632 H 346.327 -3.9146 0.707374 0
M  V30 3633 H 343.066 -5.81494 3.02564 0
M  V30 3634 H 342.586 -5.85242 1.31346 0
M  V30 3635 H 344.265 -6.22022 1.78039 0
M  V30 3636 N 344.397 -0.483516 -1.5 0
M  V30 3637 C 345.674 0.129337 -1.95172 0
M  V30 3638 C 346.054 1.55802 -1.4244 0
M  V30 3639 O 345.402 2.19625 -0.630649 0
M  V30 3640 C 345.612 0.0599251 -3.48949 0
M  V30 3641 C 346.96 0.242617 -4.23906 0
M  V30 3642 O 347.984 0.135933 -3.55941 0
M  V30 3643 O 346.843 0.459454 -5.44565 0
M  V30 3644 H 343.937 0.104887 -0.820322 0
M  V30 3645 H 346.483 -0.544807 -1.60717 0
M  V30 3646 H 345.255 -0.937079 -3.79914 0
M  V30 3647 H 344.878 0.774984 -3.89974 0
M  V30 3648 N 345.875 1.56104 -0.216619 0
M  V30 3649 C 347.291 1.58995 0.13886 0
M  V30 3650 C 347.491 1.23333 1.59346 0
M  V30 3651 O 346.547 0.966234 2.33281 0
M  V30 3652 C 347.86 3.00143 -0.182968 0
M  V30 3653 C 349.408 3.12751 -0.124807 0
M  V30 3654 C 349.883 4.56068 -0.420241 0
M  V30 3655 N 351.374 4.61723 -0.369634 0
M  V30 3656 C 352.109 5.70542 -0.571789 0
M  V30 3657 N 351.605 6.87744 -0.835453 0
M  V30 3658 N 353.398 5.59831 -0.504563 0
M  V30 3659 H 345.549 1.77562 -1.16557 0
M  V30 3660 H 347.812 0.825091 -0.466828 0
M  V30 3661 H 347.518 3.30871 -1.19237 0
M  V30 3662 H 347.392 3.73813 0.504367 0
M  V30 3663 H 349.779 2.81822 0.875223 0
M  V30 3664 H 349.86 2.41421 -0.845544 0
M  V30 3665 H 349.504 4.87713 -1.41769 0
M  V30 3666 H 349.434 5.25617 0.321631 0
M  V30 3667 H 351.925 3.77502 -0.173338 0
M  V30 3668 H 352.238 7.66587 -0.977938 0
M  V30 3669 H 350.583 6.895 -0.872592 0
M  V30 3670 H 353.774 4.67145 -0.298842 0
M  V30 3671 H 353.947 6.44573 -0.665519 0
M  V30 3672 N 347.353 -0.0568162 1.57498 0
M  V30 3673 C 348.263 -1.08346 2.08083 0
M  V30 3674 C 349.279 -1.41439 1.01346 0
M  V30 3675 O 350.455 -1.51316 1.32912 0
M  V30 3676 C 347.52 -2.37352 2.52715 0
M  V30 3677 C 346.581 -2.11093 3.73816 0
M  V30 3678 C 345.814 -3.33949 4.1631 0
M  V30 3679 O 346.037 -4.43622 3.58547 0
M  V30 3680 O 344.971 -3.21279 5.08983 0
M  V30 3681 H 348.797 -0.683667 2.95905 0
M  V30 3682 H 346.382 -0.271965 1.46904 0
M  V30 3683 H 348.264 -3.13246 2.81877 0
M  V30 3684 H 346.939 -2.76681 1.68016 0
M  V30 3685 H 345.846 -1.32856 3.49714 0
M  V30 3686 H 347.179 -1.76637 4.59413 0
M  V30 3687 N 348.832 -1.54138 -0.328536 0
M  V30 3688 C 349.795 -1.82462 -1.38709 0
M  V30 3689 C 350.795 -0.696229 -1.44946 0
M  V30 3690 O 351.985 -0.964535 -1.4506 0
M  V30 3691 C 349.117 -1.98018 -2.77492 0
M  V30 3692 H 350.31 -2.77037 -1.14851 0
M  V30 3693 H 347.863 -1.45779 -0.563751 0
M  V30 3694 H 348.598 -1.05637 -3.06613 0
M  V30 3695 H 348.383 -2.80124 -2.74359 0
M  V30 3696 H 349.873 -2.21396 -3.54081 0
M  V30 3697 N 350.31 0.590341 -1.46126 0
M  V30 3698 C 351.273 1.68194 -1.55703 0
M  V30 3699 C 352.273 1.54808 -0.434868 0
M  V30 3700 O 353.463 1.59564 -0.698928 0
M  V30 3701 C 350.595 3.07575 -1.47005 0
M  V30 3702 H 351.788 1.61064 -2.52979 0
M  V30 3703 H 349.341 0.807541 -1.33823 0
M  V30 3704 H 350.076 3.20268 -0.509785 0
M  V30 3705 H 349.861 3.187 -2.28414 0
M  V30 3706 H 351.351 3.87055 -1.56776 0
M  V30 3707 N 351.788 1.33704 0.83433 0
M  V30 3708 C 353.013 1.28615 1.62705 0
M  V30 3709 C 353.438 -0.139242 1.87584 0
M  V30 3710 O 352.796 -1.09734 1.4432 0
M  V30 3711 C 352.844 2.07139 2.95171 0
M  V30 3712 O 351.948 1.4331 3.86699 0
M  V30 3713 H 351.289 0.44226 0.49528 0
M  V30 3714 H 353.819 1.76335 1.03766 0
M  V30 3715 H 353.829 2.18073 3.44831 0
M  V30 3716 H 352.504 3.10779 2.76386 0
M  V30 3717 H 351.081 1.4105 3.45195 0
M  V30 3718 N 353.266 -1.05314 1.17247 0
M  V30 3719 C 354.196 -2.1498 0.911362 0
M  V30 3720 C 355.177 -1.69471 -0.146169 0
M  V30 3721 O 356.362 -1.942 0.003812 0
M  V30 3722 C 353.492 -3.4472 0.422528 0
M  V30 3723 C 352.446 -4.03789 1.4191 0
M  V30 3724 C 351.772 -5.28858 0.788274 0
M  V30 3725 C 353.072 -4.41418 2.7919 0
M  V30 3726 H 354.766 -2.3708 1.82848 0
M  V30 3727 H 352.312 -1.13938 0.880569 0
M  V30 3728 H 354.265 -4.20787 0.227289 0
M  V30 3729 H 352.989 -3.22269 -0.530123 0
M  V30 3730 H 351.648 -3.2979 1.60106 0
M  V30 3731 H 351.296 -5.02709 -0.171173 0
M  V30 3732 H 350.996 -5.69338 1.45353 0
M  V30 3733 H 352.52 -6.07612 0.603282 0
M  V30 3734 H 353.934 -5.08524 2.64719 0
M  V30 3735 H 352.331 -4.92913 3.42282 0
M  V30 3736 H 353.401 -3.51819 3.33693 0
M  V30 3737 N 354.744 -0.972509 -1.24016 0
M  V30 3738 C 356.16 -0.679827 -1.44397 0
M  V30 3739 C 356.36 0.756716 -1.86751 0
M  V30 3740 O 355.416 1.53007 -2.00861 0
M  V30 3741 C 356.729 -1.66803 -2.50195 0
M  V30 3742 C 358.277 -1.68119 -2.64017 0
M  V30 3743 C 358.752 -2.65748 -3.73017 0
M  V30 3744 N 360.243 -2.64219 -3.8045 0
M  V30 3745 C 360.978 -3.36433 -4.64328 0
M  V30 3746 N 360.474 -4.1818 -5.52356 0
M  V30 3747 N 362.267 -3.25235 -4.58453 0
M  V30 3748 H 354.418 -1.90059 -0.948228 0
M  V30 3749 H 356.681 -0.818527 -0.478245 0
M  V30 3750 H 356.387 -2.69498 -2.25973 0
M  V30 3751 H 356.261 -1.4446 -3.48441 0
M  V30 3752 H 358.648 -0.661319 -2.87594 0
M  V30 3753 H 358.729 -1.94525 -1.66113 0
M  V30 3754 H 358.373 -3.67872 -3.50189 0
M  V30 3755 H 358.303 -2.36619 -4.70446 0
M  V30 3756 H 360.794 -2.04887 -3.17537 0
M  V30 3757 H 361.107 -4.70157 -6.13329 0
M  V30 3758 H 359.452 -4.22273 -5.52006 0
M  V30 3759 H 362.643 -2.60829 -3.88698 0
M  V30 3760 H 362.816 -3.81776 -5.23594 0
M  V30 3761 N 356.222 1.38976 -0.743202 0
M  V30 3762 C 357.633 1.83123 -0.363732 0
M  V30 3763 C 357.984 1.6205 1.10609 0
M  V30 3764 O 357.109 1.11606 1.854 0
M  V30 3765 C 357.704 3.32439 -0.653408 0
M  V30 3766 C 356.263 3.74974 -0.327338 0
M  V30 3767 C 355.41 2.61878 -0.911875 0
M  V30 3768 H 358.361 1.27852 -0.940191 0
M  V30 3769 H 358.382 3.80432 0.0720031 0
M  V30 3770 H 357.894 3.47745 -1.72323 0
M  V30 3771 H 355.995 3.65252 0.736314 0
M  V30 3772 H 356.108 4.72106 -0.815631 0
M  V30 3773 H 354.472 2.52448 -0.337944 0
M  V30 3774 H 355.255 2.79987 -1.98651 0
M  V30 3775 O 357.739 0.63318 1.4857 0
M  V30 3776 H 358.43 0.152617 1.93098 0
M  V30 END ATOM
M  V30 BEGIN BOND
M  V30 END BOND
M  V30 END CTAB
M  END
$$$$
