drugbank_target|O25323 Endonuclease III (DB01952; DB03345; DB03730; DB03801)
 OpenBabel12092120233D

  0  0  0     0  0            999 V3000
M  V30 BEGIN CTAB
M  V30 COUNTS 3613 3648 0 0 0
M  V30 BEGIN ATOM
M  V30 1 H -0.908 1.98254 -0.117106 0
M  V30 2 N 0 1.576 0 0
M  V30 3 C 0.933 2.03868 1.02534 0
M  V30 4 C 1.911 0.928543 1.3348 0
M  V30 5 O 3.095 1.19667 1.45644 0
M  V30 6 C 0.222 2.43627 2.35294 0
M  V30 7 C -0.732 3.65373 2.2001 0
M  V30 8 S 0.101 5.13292 1.52614 0
M  V30 9 C 1.257 5.56322 2.86805 0
M  V30 10 H 1.49 2.90518 0.631377 0
M  V30 11 H -0.977 1.52953 0.210867 0
M  V30 12 H 0.981 2.67203 3.11629 0
M  V30 13 H -0.358 1.57376 2.7183 0
M  V30 14 H -1.165 3.90944 3.18086 0
M  V30 15 H -1.563 3.418 1.51819 0
M  V30 16 H 0.729 5.58782 3.83104 0
M  V30 17 H 1.672 6.56266 2.65933 0
M  V30 18 H 2.08 4.83886 2.90714 0
M  V30 19 N 1.4781 -0.272755 1.55222 0
M  V30 20 C 2.4081 -1.34136 1.91127 0
M  V30 21 C 3.3891 -1.51513 0.773168 0
M  V30 22 O 4.5741 -1.64552 1.03132 0
M  V30 23 C 1.7041 -2.70083 2.1834 0
M  V30 24 C 0.6581 -2.67437 3.34158 0
M  V30 25 C -0.0159 -4.06938 3.46851 0
M  V30 26 C 1.2841 -2.26686 4.70543 0
M  V30 27 H 2.9781 -1.04333 2.80633 0
M  V30 28 H 0.5241 -0.500454 1.35024 0
M  V30 29 H 2.4771 -3.44952 2.42046 0
M  V30 30 H 1.2011 -3.01469 1.25634 0
M  V30 31 H -0.1399 -1.95026 3.1042 0
M  V30 32 H -0.4919 -4.35547 2.51611 0
M  V30 33 H -0.7919 -4.06062 4.2472 0
M  V30 34 H 0.7321 -4.83545 3.72849 0
M  V30 35 H 2.1461 -2.91277 4.93792 0
M  V30 36 H 0.5431 -2.36971 5.5133 0
M  V30 37 H 1.6131 -1.21818 4.69349 0
M  V30 38 N 2.9562 -1.48159 -0.537278 0
M  V30 39 C 4.2332 -1.46291 -1.29839 0
M  V30 40 C 4.6132 -0.170613 -2.10409 0
M  V30 41 O 3.9612 0.847746 -2.12192 0
M  V30 42 C 4.1712 -2.72055 -2.18603 0
M  V30 43 C 5.5192 -3.20087 -2.7898 0
M  V30 44 O 6.5432 -2.72921 -2.28894 0
M  V30 45 O 5.4022 -4.02138 -3.70064 0
M  V30 46 H 2.4962 -0.583906 -0.585647 0
M  V30 47 H 5.0422 -1.60384 -0.554534 0
M  V30 48 H 3.8142 -3.57628 -1.58801 0
M  V30 49 H 3.4372 -2.60646 -3.00249 0
M  V30 50 N 4.4343 0.785586 -1.36625 0
M  V30 51 C 5.6593 1.57963 -1.34397 0
M  V30 52 C 6.0843 1.87964 0.071526 0
M  V30 53 O 5.4423 1.48182 1.0446 0
M  V30 54 C 5.4903 2.87511 -2.17646 0
M  V30 55 O 4.5943 3.81281 -1.57158 0
M  V30 56 H 3.9353 0.479014 -0.459828 0
M  V30 57 H 6.4653 0.973411 -1.79961 0
M  V30 58 H 6.4753 3.36745 -2.30362 0
M  V30 59 H 5.1503 2.65002 -3.20541 0
M  V30 60 H 3.7273 3.39885 -1.53403 0
M  V30 61 N 5.9124 1.20967 1.01018 0
M  V30 62 C 7.1594 1.02374 1.74716 0
M  V30 63 C 7.4874 -0.443375 1.89379 0
M  V30 64 O 6.7424 -1.34535 1.42123 0
M  V30 65 C 7.0414 1.65997 3.16512 0
M  V30 66 C 6.7074 3.15831 3.2181 0
M  V30 67 C 5.3694 3.56719 3.22963 0
M  V30 68 C 7.7214 4.11816 3.19464 0
M  V30 69 C 5.0494 4.92107 3.19449 0
M  V30 70 C 7.4014 5.47158 3.17491 0
M  V30 71 C 6.0654 5.87451 3.16951 0
M  V30 72 H 5.3354 0.374614 0.639332 0
M  V30 73 H 7.9824 1.50485 1.18434 0
M  V30 74 H 6.2874 1.10166 3.75993 0
M  V30 75 H 7.9844 1.49119 3.72242 0
M  V30 76 H 4.5744 2.83263 3.21652 0
M  V30 77 H 8.7584 3.81257 3.17737 0
M  V30 78 H 4.0144 5.22579 3.17366 0
M  V30 79 H 8.1884 6.21274 3.14629 0
M  V30 80 H 5.8154 6.92329 3.13983 0
M  V30 81 N 7.3905 -1.2043 1.01659 0
M  V30 82 C 8.3005 -2.2689 0.596484 0
M  V30 83 C 9.3165 -1.70107 -0.36599 0
M  V30 84 O 10.4925 -2.00117 -0.226942 0
M  V30 85 C 7.5575 -3.4665 -0.0586659 0
M  V30 86 C 6.6185 -4.18662 0.949751 0
M  V30 87 C 5.8515 -5.32705 0.32577 0
M  V30 88 O 6.0745 -5.63656 -0.874509 0
M  V30 89 O 5.0085 -5.92803 1.04249 0
M  V30 90 H 8.8345 -2.65041 1.4828 0
M  V30 91 H 6.4195 -1.27048 0.786082 0
M  V30 92 H 8.3015 -4.19256 -0.424564 0
M  V30 93 H 6.9765 -3.10375 -0.91918 0
M  V30 94 H 5.8835 -3.48229 1.36702 0
M  V30 95 H 7.2165 -4.58878 1.78023 0
M  V30 96 N 8.8686 -0.792821 -1.36206 0
M  V30 97 C 10.1176 -0.363353 -1.984 0
M  V30 98 C 10.4306 1.07172 -1.63626 0
M  V30 99 O 11.6366 1.60362 -2.19081 0
M  V30 100 C 10.0926 -0.59872 -3.54885 0
M  V30 101 C 9.7006 -2.04543 -3.9858 0
M  V30 102 C 11.4446 -0.233926 -4.23855 0
M  V30 103 C 9.3516 -2.22727 -5.47856 0
M  V30 104 H 8.2816 -0.13212 -0.742334 0
M  V30 105 H 10.9326 -0.974935 -1.55458 0
M  V30 106 H 9.3146 0.0826222 -3.95914 0
M  V30 107 H 10.4886 -2.76345 -3.68741 0
M  V30 108 H 8.8036 -2.36879 -3.42458 0
M  V30 109 H 11.4006 -0.348027 -5.33566 0
M  V30 110 H 11.7436 0.818351 -4.08177 0
M  V30 111 H 12.2766 -0.868639 -3.882 0
M  V30 112 H 9.0156 -3.2635 -5.68486 0
M  V30 113 H 8.5356 -1.55434 -5.7931 0
M  V30 114 H 10.2146 -2.03607 -6.14128 0
M  V30 115 N 10.3467 1.47872 -0.545128 0
M  V30 116 C 11.2767 2.32661 0.197793 0
M  V30 117 C 12.2577 1.43041 0.920504 0
M  V30 118 O 13.4427 1.71912 0.90333 0
M  V30 119 C 10.5727 3.24569 1.23582 0
M  V30 120 C 9.5267 4.23333 0.630323 0
M  V30 121 C 8.8527 5.0448 1.77211 0
M  V30 122 C 10.1527 5.20704 -0.407974 0
M  V30 123 H 11.8467 2.95024 -0.510045 0
M  V30 124 H 9.3927 1.4187 -0.246731 0
M  V30 125 H 11.3457 3.8272 1.76362 0
M  V30 126 H 10.0697 2.60236 1.97344 0
M  V30 127 H 8.7287 3.6639 0.123922 0
M  V30 128 H 8.3767 4.36561 2.49847 0
M  V30 129 H 8.0767 5.71339 1.37281 0
M  V30 130 H 9.6007 5.65487 2.3034 0
M  V30 131 H 11.0147 5.7329 0.033305 0
M  V30 132 H 9.4117 5.95699 -0.725486 0
M  V30 133 H 10.4817 4.66917 -1.30828 0
M  V30 134 N 11.8248 0.280983 1.55075 0
M  V30 135 C 12.7718 -0.603937 2.22758 0
M  V30 136 C 13.7418 -1.1452 1.20309 0
M  V30 137 O 14.9268 -1.19343 1.48869 0
M  V30 138 C 12.0668 -1.77947 2.95684 0
M  V30 139 C 11.1798 -1.2715 4.12864 0
M  V30 140 C 10.3148 -2.4093 4.7342 0
M  V30 141 C 9.3538 -1.87165 5.82783 0
M  V30 142 N 8.4908 -2.94441 6.37377 0
M  V30 143 H 13.3308 -0.020124 2.97993 0
M  V30 144 H 10.8678 0.00183425 1.471 0
M  V30 145 H 12.8258 -2.47055 3.36184 0
M  V30 146 H 11.4558 -2.33522 2.22861 0
M  V30 147 H 10.5078 -0.473331 3.77444 0
M  V30 148 H 11.8198 -0.837751 4.91715 0
M  V30 149 H 10.9738 -3.18021 5.1667 0
M  V30 150 H 9.7128 -2.87623 3.93859 0
M  V30 151 H 8.7178 -1.08556 5.38976 0
M  V30 152 H 9.9428 -1.41401 6.64216 0
M  V30 153 H 7.8888 -3.40505 5.60707 0
M  V30 154 H 7.8058 -2.55501 7.11516 0
M  V30 155 H 9.0738 -3.71489 6.85285 0
M  V30 156 N 13.3029 -1.57598 0.00835791 0
M  V30 157 C 14.2659 -2.07884 -0.965242 0
M  V30 158 C 15.2659 -0.989825 -1.26725 0
M  V30 159 O 16.4559 -1.25218 -1.21104 0
M  V30 160 C 13.5879 -2.52731 -2.28779 0
M  V30 161 H 14.7809 -2.95178 -0.530112 0
M  V30 162 H 12.3339 -1.54458 -0.239283 0
M  V30 163 H 13.0689 -1.68705 -2.76964 0
M  V30 164 H 12.8539 -3.32272 -2.08177 0
M  V30 165 H 14.3439 -2.91933 -2.98605 0
M  V30 166 N 14.781 0.264519 -1.55364 0
M  V30 167 C 15.711 1.33121 -1.91836 0
M  V30 168 C 16.692 1.51101 -0.781192 0
M  V30 169 O 17.877 1.64003 -1.04003 0
M  V30 170 C 15.007 2.68921 -2.19769 0
M  V30 171 C 13.961 2.65661 -3.35571 0
M  V30 172 C 13.287 4.05093 -3.49004 0
M  V30 173 C 14.587 2.24187 -4.71739 0
M  V30 174 H 16.281 1.02844 -2.81182 0
M  V30 175 H 13.827 0.493286 -1.35287 0
M  V30 176 H 15.78 3.43663 -2.43872 0
M  V30 177 H 14.504 3.00799 -1.27231 0
M  V30 178 H 13.163 1.93377 -3.1145 0
M  V30 179 H 12.811 4.34206 -2.53917 0
M  V30 180 H 12.511 4.03804 -4.26868 0
M  V30 181 H 14.035 4.81561 -3.75408 0
M  V30 182 H 15.449 2.88654 -4.9533 0
M  V30 183 H 13.846 2.34044 -5.52579 0
M  V30 184 H 14.916 1.19327 -4.69988 0
M  V30 185 N 16.2591 1.48442 0.529413 0
M  V30 186 C 17.2061 1.63007 1.63394 0
M  V30 187 C 18.1761 0.47212 1.59249 0
M  V30 188 O 19.3611 0.695673 1.77666 0
M  V30 189 C 16.5011 1.6763 3.01653 0
M  V30 190 C 15.6141 2.94535 3.16027 0
M  V30 191 C 14.7491 2.90316 4.44849 0
M  V30 192 C 13.7881 4.11923 4.52754 0
M  V30 193 N 12.9251 4.05777 5.72965 0
M  V30 194 H 17.7651 2.5733 1.50285 0
M  V30 195 H 15.3021 1.27613 0.731656 0
M  V30 196 H 17.2601 1.68292 3.81751 0
M  V30 197 H 15.8901 0.76797 3.13532 0
M  V30 198 H 14.9421 3.03615 2.29177 0
M  V30 199 H 16.2541 3.84512 3.17729 0
M  V30 200 H 15.4081 2.89382 5.33238 0
M  V30 201 H 14.1471 1.98068 4.45668 0
M  V30 202 H 13.1521 4.13131 3.62771 0
M  V30 203 H 14.3771 5.0533 4.53672 0
M  V30 204 H 12.3231 3.16351 5.74681 0
M  V30 205 H 12.2401 4.8946 5.76164 0
M  V30 206 H 13.5081 4.08904 6.6364 0
M  V30 207 N 17.7372 -0.778329 1.37039 0
M  V30 208 C 18.9622 -1.57248 1.35233 0
M  V30 209 C 19.3872 -1.87999 -0.0615568 0
M  V30 210 O 18.7452 -1.48734 -1.03672 0
M  V30 211 C 18.7932 -2.86353 2.19167 0
M  V30 212 O 17.8972 -3.80442 1.59178 0
M  V30 213 H 17.2382 -0.476569 0.462362 0
M  V30 214 H 19.7682 -0.963853 1.80474 0
M  V30 215 H 19.7782 -3.35519 2.32145 0
M  V30 216 H 18.4532 -2.63299 3.21942 0
M  V30 217 H 17.0302 -3.39067 1.55203 0
M  V30 218 N 19.2153 -1.21501 -1.00376 0
M  V30 219 C 20.1453 -0.999478 -2.11028 0
M  V30 220 C 21.1263 0.0759671 -1.6993 0
M  V30 221 O 22.3113 -0.0841106 -1.94018 0
M  V30 222 C 19.4413 -0.564709 -3.42678 0
M  V30 223 C 18.3953 -1.58486 -3.97576 0
M  V30 224 C 17.7213 -1.00628 -5.25146 0
M  V30 225 C 19.0213 -2.97204 -4.29496 0
M  V30 226 H 20.7153 -1.92495 -2.29317 0
M  V30 227 H 18.2613 -0.92693 -1.102 0
M  V30 228 H 20.2143 -0.401091 -4.19487 0
M  V30 229 H 18.9383 0.396411 -3.24185 0
M  V30 230 H 17.5973 -1.73606 -3.22888 0
M  V30 231 H 17.2453 -0.0368439 -5.02987 0
M  V30 232 H 16.9453 -1.68771 -5.62841 0
M  V30 233 H 18.4693 -0.854015 -6.04598 0
M  V30 234 H 19.8833 -2.8552 -4.97143 0
M  V30 235 H 18.2803 -3.62372 -4.78338 0
M  V30 236 H 19.3503 -3.47956 -3.3772 0
M  V30 237 N 20.6934 1.19889 -1.02296 0
M  V30 238 C 21.9704 1.85148 -0.630832 0
M  V30 239 C 22.3504 1.91385 0.890782 0
M  V30 240 O 21.6984 1.42642 1.78509 0
M  V30 241 C 21.9084 3.24442 -1.28602 0
M  V30 242 C 23.2564 4.00663 -1.4055 0
M  V30 243 O 24.2804 3.33818 -1.24273 0
M  V30 244 O 23.1394 5.20387 -1.66913 0
M  V30 245 H 20.2334 0.797613 -0.218499 0
M  V30 246 H 22.7794 1.27427 -1.12074 0
M  V30 247 H 21.5514 3.14704 -2.32545 0
M  V30 248 H 21.1744 3.89802 -0.7836 0
M  V30 249 N 22.1715 0.800033 1.35784 0
M  V30 250 C 23.1015 0.220184 2.3246 0
M  V30 251 C 24.0825 -0.65073 1.57161 0
M  V30 252 O 25.2675 -0.582359 1.85263 0
M  V30 253 C 22.3975 -0.637353 3.41402 0
M  V30 254 C 21.3515 0.134531 4.27789 0
M  V30 255 C 20.6775 -0.844285 5.27992 0
M  V30 256 C 21.9775 1.32979 5.05088 0
M  V30 257 H 23.6715 1.02787 2.81203 0
M  V30 258 H 21.2175 0.495717 1.35199 0
M  V30 259 H 23.1705 -1.05302 4.08031 0
M  V30 260 H 21.8945 -1.47785 2.91251 0
M  V30 261 H 20.5535 0.531296 3.6273 0
M  V30 262 H 20.2015 -1.68011 4.74111 0
M  V30 263 H 19.9015 -0.332184 5.8666 0
M  V30 264 H 21.4255 -1.2583 5.97494 0
M  V30 265 H 22.8395 0.98934 5.64699 0
M  V30 266 H 21.2365 1.77593 5.7322 0
M  V30 267 H 22.3065 2.11978 4.36111 0
M  V30 268 N 23.6496 -1.47581 0.552962 0
M  V30 269 C 24.5796 -2.32762 -0.185451 0
M  V30 270 C 25.5606 -1.43527 -0.912905 0
M  V30 271 O 26.7456 -1.72388 -0.894201 0
M  V30 272 C 23.8756 -3.25219 -1.21859 0
M  V30 273 C 22.8296 -4.23661 -0.607864 0
M  V30 274 C 22.1556 -5.05413 -1.74533 0
M  V30 275 C 23.4556 -5.20481 0.435582 0
M  V30 276 H 25.1496 -2.94749 0.525684 0
M  V30 277 H 22.6956 -1.41738 0.254251 0
M  V30 278 H 24.6486 -3.8365 -1.7433 0
M  V30 279 H 23.3726 -2.61279 -1.95961 0
M  V30 280 H 22.0316 -3.66451 -0.104489 0
M  V30 281 H 21.6796 -4.3788 -2.47529 0
M  V30 282 H 21.3796 -5.72059 -1.34249 0
M  V30 283 H 22.9036 -5.66701 -2.27338 0
M  V30 284 H 24.3176 -5.733 -0.00290157 0
M  V30 285 H 22.7146 -5.95305 0.757067 0
M  V30 286 H 23.7846 -4.66217 1.33303 0
M  V30 287 N 25.1277 -0.289203 -1.54924 0
M  V30 288 C 26.0747 0.592115 -2.23075 0
M  V30 289 C 27.0447 1.13881 -1.20915 0
M  V30 290 O 28.2297 1.18551 -1.495 0
M  V30 291 C 25.3697 1.76376 -2.96623 0
M  V30 292 C 24.4827 1.24959 -4.13533 0
M  V30 293 C 23.6177 2.38416 -4.74691 0
M  V30 294 C 22.6567 1.84072 -5.83767 0
M  V30 295 N 21.7937 2.91057 -6.38929 0
M  V30 296 H 26.6337 0.00432038 -2.98 0
M  V30 297 H 24.1707 -0.00963529 -1.47097 0
M  V30 298 H 26.1287 2.45268 -3.3749 0
M  V30 299 H 24.7587 2.32337 -2.24097 0
M  V30 300 H 23.8107 0.453307 -3.77689 0
M  V30 301 H 25.1227 0.811662 -4.92152 0
M  V30 302 H 24.2767 3.15276 -5.18349 0
M  V30 303 H 23.0157 2.8553 -3.95378 0
M  V30 304 H 22.0207 1.05697 -5.39545 0
M  V30 305 H 23.2457 1.37877 -6.64956 0
M  V30 306 H 21.1917 3.37526 -5.62505 0
M  V30 307 H 21.1087 2.51724 -7.12861 0
M  V30 308 H 22.3767 3.6785 -6.87246 0
M  V30 309 N 26.6058 1.57591 -0.0167156 0
M  V30 310 C 27.5538 2.10604 0.987353 0
M  V30 311 C 28.5478 1.02977 1.34507 0
M  V30 312 O 29.7538 1.21425 1.32875 0
M  V30 313 H 26.1288 0.672695 0.336134 0
M  V30 314 H 28.0998 2.93925 0.514817 0
M  V30 315 C 26.8488 2.6382 2.26483 0
M  V30 316 H 26.1718 3.46278 1.99829 0
M  V30 317 H 27.6118 3.04573 2.94977 0
M  V30 318 C 26.0708 1.55992 2.9861 0
M  V30 319 O 26.6008 0.952521 3.90243 0
M  V30 320 N 24.8068 1.28335 2.60727 0
M  V30 321 H 24.3538 1.77914 1.86291 0
M  V30 322 H 24.3118 0.564115 3.09298 0
M  V30 323 N 28.0839 -0.256276 1.55502 0
M  V30 324 C 29.0469 -1.30047 1.88734 0
M  V30 325 C 30.0469 -1.4154 0.763086 0
M  V30 326 O 31.2369 -1.40403 1.03115 0
M  V30 327 C 28.3689 -2.67953 2.10747 0
M  V30 328 H 29.5619 -1.01802 2.82093 0
M  V30 329 H 27.1149 -0.495134 1.4825 0
M  V30 330 H 27.8499 -3.01351 1.19825 0
M  V30 331 H 27.6349 -2.60993 2.92617 0
M  V30 332 H 29.1249 -3.43368 2.37673 0
M  V30 333 N 29.562 -1.4872 -0.521534 0
M  V30 334 C 30.973 -1.50607 -1.10337 0
M  V30 335 C 31.324 -0.280612 -1.94183 0
M  V30 336 O 30.449 0.611507 -2.0758 0
M  V30 337 C 31.044 -2.72903 -2.00772 0
M  V30 338 C 29.603 -2.77634 -2.54158 0
M  V30 339 C 28.75 -2.44241 -1.31307 0
M  V30 340 H 31.701 -1.55714 -0.306388 0
M  V30 341 H 31.722 -2.519 -2.85178 0
M  V30 342 H 31.234 -3.62077 -1.39721 0
M  V30 343 H 29.335 -1.92689 -3.18907 0
M  V30 344 H 29.448 -3.79283 -2.92714 0
M  V30 345 H 27.812 -1.95577 -1.63161 0
M  V30 346 H 28.595 -3.35666 -0.719943 0
M  V30 347 N 31.0401 0.771051 -1.3745 0
M  V30 348 C 32.2651 1.56529 -1.36065 0
M  V30 349 C 32.6901 1.88029 0.0515859 0
M  V30 350 O 32.0481 1.49282 1.02882 0
M  V30 351 C 32.0961 2.85187 -2.20683 0
M  V30 352 O 31.2001 3.79593 -1.61193 0
M  V30 353 H 30.5411 0.47411 -0.464883 0
M  V30 354 H 33.0711 0.954269 -1.80983 0
M  V30 355 H 33.0811 3.34283 -2.33921 0
M  V30 356 H 31.7561 2.61588 -3.23334 0
M  V30 357 H 30.3331 3.38239 -1.56999 0
M  V30 358 N 32.5182 1.22032 0.997298 0
M  V30 359 C 33.7642 1.05382 1.73972 0
M  V30 360 C 34.1192 -0.407419 1.88037 0
M  V30 361 O 33.4122 -1.29811 1.40924 0
M  V30 362 C 33.6062 1.69345 3.14733 0
M  V30 363 C 33.4352 3.21537 3.14395 0
M  V30 364 C 32.2052 3.9062 3.20537 0
M  V30 365 C 34.4032 4.18527 2.98897 0
M  V30 366 N 32.3852 5.29935 3.09906 0
M  V30 367 C 33.7562 5.44645 2.96247 0
M  V30 368 C 35.8112 4.09476 2.83255 0
M  V30 369 C 34.5142 6.62752 2.79557 0
M  V30 370 C 36.5402 5.27228 2.67926 0
M  V30 371 C 35.9022 6.52262 2.65959 0
M  V30 372 H 32.0012 0.440018 0.646458 0
M  V30 373 H 34.5852 1.54505 1.18475 0
M  V30 374 H 32.7562 1.22778 3.68484 0
M  V30 375 H 34.4882 1.45828 3.77513 0
M  V30 376 H 31.2432 3.41592 3.28043 0
M  V30 377 H 31.6672 6.02926 3.07912 0
M  V30 378 H 36.3092 3.13598 2.83577 0
M  V30 379 H 34.0272 7.58783 2.77982 0
M  V30 380 H 37.6132 5.22053 2.56812 0
M  V30 381 H 36.4932 7.41844 2.54239 0
M  V30 382 N 33.9963 -1.19345 1.0293 0
M  V30 383 C 35.2423 -1.89585 0.736824 0
M  V30 384 C 35.5973 -1.78148 -0.726703 0
M  V30 385 O 34.8903 -1.16332 -1.52242 0
M  V30 386 C 35.0843 -3.39292 1.12319 0
M  V30 387 C 34.9133 -3.65298 2.62273 0
M  V30 388 C 33.6833 -3.83304 3.29251 0
M  V30 389 C 35.8813 -3.6682 3.60482 0
M  V30 390 N 33.8633 -3.96944 4.68304 0
M  V30 391 C 35.2343 -3.86037 4.85155 0
M  V30 392 C 37.2893 -3.49848 3.54275 0
M  V30 393 C 35.9923 -3.9004 6.04369 0
M  V30 394 C 38.0183 -3.55129 4.72903 0
M  V30 395 C 37.3803 -3.74831 5.9639 0
M  V30 396 H 33.4793 -0.712856 0.321497 0
M  V30 397 H 36.0633 -1.43427 1.31669 0
M  V30 398 H 34.2343 -3.84172 0.571524 0
M  V30 399 H 35.9663 -3.97055 0.78292 0
M  V30 400 H 32.7213 -3.82211 2.79663 0
M  V30 401 H 33.1453 -4.07613 5.40538 0
M  V30 402 H 37.7873 -3.33572 2.59788 0
M  V30 403 H 35.5053 -4.05108 6.99223 0
M  V30 404 H 39.0913 -3.43287 4.69729 0
M  V30 405 H 37.9713 -3.78792 6.86649 0
M  V30 406 N 35.4744 -0.807222 -1.35358 0
M  V30 407 C 36.7204 -0.397594 -1.99476 0
M  V30 408 C 37.0754 1.02405 -1.62883 0
M  V30 409 O 36.3684 1.70077 -0.882282 0
M  V30 410 C 36.5624 -0.519036 -3.53611 0
M  V30 411 C 36.3914 -1.95094 -4.05177 0
M  V30 412 C 35.1614 -2.57945 -4.34503 0
M  V30 413 C 37.3594 -2.91558 -4.23673 0
M  V30 414 N 35.3414 -3.92539 -4.72003 0
M  V30 415 C 36.7124 -4.11024 -4.64176 0
M  V30 416 C 38.7674 -2.88381 -4.05883 0
M  V30 417 C 37.4704 -5.27745 -4.88751 0
M  V30 418 C 39.4964 -4.04306 -4.31614 0
M  V30 419 C 38.8584 -5.22519 -4.72391 0
M  V30 420 H 34.9574 -0.193274 -0.75774 0
M  V30 421 H 37.5414 -1.0486 -1.6405 0
M  V30 422 H 35.7124 0.101979 -3.88266 0
M  V30 423 H 37.4444 -0.0839321 -4.04613 0
M  V30 424 H 34.1994 -2.09295 -4.24844 0
M  V30 425 H 34.6234 -4.61836 -4.95011 0
M  V30 426 H 39.2654 -1.98137 -3.73499 0
M  V30 427 H 36.9834 -6.1856 -5.20008 0
M  V30 428 H 40.5694 -4.03229 -4.19402 0
M  V30 429 H 39.4494 -6.1073 -4.91913 0
M  V30 430 N 36.9525 1.47285 -0.560781 0
M  V30 431 C 38.3635 1.86258 -0.128343 0
M  V30 432 C 38.7145 1.46699 1.30284 0
M  V30 433 O 37.8395 0.871698 1.98067 0
M  V30 434 C 38.4345 3.38044 -0.22614 0
M  V30 435 C 36.9935 3.76096 0.151283 0
M  V30 436 C 36.1405 2.71335 -0.572084 0
M  V30 437 H 39.0915 1.38752 -0.770297 0
M  V30 438 H 39.1125 3.76441 0.554322 0
M  V30 439 H 38.6245 3.66806 -1.26788 0
M  V30 440 H 36.7255 3.52951 1.19399 0
M  V30 441 H 36.8385 4.78641 -0.209765 0
M  V30 442 H 35.2025 2.54696 -0.0147653 0
M  V30 443 H 35.9855 3.02938 -1.61504 0
M  V30 444 N 38.4306 0.297415 1.54768 0
M  V30 445 C 39.3786 -0.596051 2.24833 0
M  V30 446 C 40.3726 -1.13992 1.25308 0
M  V30 447 O 41.5786 -1.09098 1.4317 0
M  V30 448 H 37.9536 -0.210814 0.721846 0
M  V30 449 H 39.9246 0.0174667 2.98395 0
M  V30 450 C 38.6736 -1.75818 2.99972 0
M  V30 451 H 37.9966 -1.3489 3.76357 0
M  V30 452 H 39.4366 -2.35949 3.52284 0
M  V30 453 C 37.8956 -2.66014 2.06732 0
M  V30 454 O 38.4256 -3.67009 1.63302 0
M  V30 455 N 36.6316 -2.33669 1.72763 0
M  V30 456 H 36.1786 -1.51586 2.08277 0
M  V30 457 H 36.1366 -2.94285 1.10652 0
M  V30 458 N 39.9087 -1.5758 0.0250728 0
M  V30 459 C 40.8717 -2.08896 -0.943139 0
M  V30 460 C 41.8717 -1.00321 -1.25668 0
M  V30 461 O 43.0617 -1.26495 -1.19769 0
M  V30 462 C 40.1937 -2.55143 -2.26086 0
M  V30 463 H 41.3867 -2.95723 -0.498775 0
M  V30 464 H 38.9397 -1.54703 -0.222888 0
M  V30 465 H 39.6747 -1.71633 -2.75159 0
M  V30 466 H 39.4597 -3.34461 -2.04641 0
M  V30 467 H 40.9497 -2.95083 -2.95492 0
M  V30 468 N 41.3868 0.248026 -1.55636 0
M  V30 469 C 42.3168 1.31079 -1.93237 0
M  V30 470 C 43.2978 1.50264 -0.797174 0
M  V30 471 O 44.4828 1.62891 -1.05737 0
M  V30 472 C 41.6128 2.66575 -2.22609 0
M  V30 473 C 40.5668 2.62087 -3.3837 0
M  V30 474 C 39.8928 4.01369 -3.53281 0
M  V30 475 C 41.1928 2.19171 -4.7409 0
M  V30 476 H 42.8868 0.998556 -2.82257 0
M  V30 477 H 40.4328 0.47891 -1.35803 0
M  V30 478 H 42.3858 3.41057 -2.47503 0
M  V30 479 H 41.1098 2.99432 -1.30414 0
M  V30 480 H 39.7688 1.90063 -3.13483 0
M  V30 481 H 39.4168 4.31489 -2.58508 0
M  V30 482 H 39.1168 3.99254 -4.31127 0
M  V30 483 H 40.6408 4.77552 -3.80495 0
M  V30 484 H 42.0548 2.83384 -4.98363 0
M  V30 485 H 40.4518 2.2817 -5.5503 0
M  V30 486 H 41.5218 1.14336 -4.71227 0
M  V30 487 N 42.8649 1.48995 0.513639 0
M  V30 488 C 43.8119 1.6473 1.61656 0
M  V30 489 C 44.7819 0.488984 1.58739 0
M  V30 490 O 45.9669 0.714478 1.76918 0
M  V30 491 C 43.1069 1.7082 2.99858 0
M  V30 492 C 42.2199 2.9787 3.12885 0
M  V30 493 C 41.3549 2.95017 4.41744 0
M  V30 494 C 40.3939 4.16702 4.48359 0
M  V30 495 N 39.5309 4.11832 5.68629 0
M  V30 496 H 44.3709 2.58909 1.47547 0
M  V30 497 H 41.9079 1.28382 0.71808 0
M  V30 498 H 43.8659 1.72331 3.79944 0
M  V30 499 H 42.4959 0.801181 3.12699 0
M  V30 500 H 41.5479 3.06029 2.25944 0
M  V30 501 H 42.8599 3.8786 3.13633 0
M  V30 502 H 42.0139 2.95021 5.30139 0
M  V30 503 H 40.7529 2.02784 4.43542 0
M  V30 504 H 39.7579 4.16955 3.58369 0
M  V30 505 H 40.9829 5.10113 4.48287 0
M  V30 506 H 38.9289 3.22428 5.71293 0
M  V30 507 H 38.8459 4.95543 5.7094 0
M  V30 508 H 40.1139 4.1592 6.59266 0
M  V30 509 N 44.343 -0.763751 1.37857 0
M  V30 510 C 45.59 -1.52257 1.33506 0
M  V30 511 C 45.918 -1.94343 -0.078022 0
M  V30 512 O 45.173 -1.64958 -1.05297 0
M  V30 513 C 45.472 -2.79499 2.22745 0
M  V30 514 C 45.138 -2.56426 3.70886 0
M  V30 515 C 43.8 -2.49842 4.11257 0
M  V30 516 C 46.152 -2.36008 4.64704 0
M  V30 517 C 43.48 -2.20841 5.43549 0
M  V30 518 C 45.832 -2.0853 5.97242 0
M  V30 519 C 44.496 -2.00396 6.36709 0
M  V30 520 H 43.766 -0.557149 0.488534 0
M  V30 521 H 46.413 -0.879073 1.70131 0
M  V30 522 H 44.718 -3.48447 1.79142 0
M  V30 523 H 46.415 -3.37413 2.16688 0
M  V30 524 H 43.005 -2.62416 3.38874 0
M  V30 525 H 47.189 -2.40079 4.34368 0
M  V30 526 H 42.445 -2.13045 5.73081 0
M  V30 527 H 46.619 -1.91732 6.69486 0
M  V30 528 H 44.246 -1.77688 7.39142 0
M  V30 529 N 45.8211 -1.22559 -0.990812 0
M  V30 530 C 46.7311 -1.01394 -2.11557 0
M  V30 531 C 47.7471 0.0383962 -1.73958 0
M  V30 532 O 48.9231 -0.154787 -2.00804 0
M  V30 533 C 45.9881 -0.596569 -3.41529 0
M  V30 534 C 45.0491 -1.72276 -3.93217 0
M  V30 535 C 44.2821 -1.32521 -5.16985 0
M  V30 536 O 44.5051 -0.204909 -5.70032 0
M  V30 537 O 43.4391 -2.14247 -5.62478 0
M  V30 538 H 47.2651 -1.95633 -2.32296 0
M  V30 539 H 44.8501 -1.01172 -1.0993 0
M  V30 540 H 46.7321 -0.374263 -4.19735 0
M  V30 541 H 45.4071 0.316939 -3.22145 0
M  V30 542 H 44.3141 -1.99961 -3.16174 0
M  V30 543 H 45.6471 -2.61421 -4.17037 0
M  V30 544 N 47.2992 1.18797 -1.03562 0
M  V30 545 C 48.2622 2.20464 -0.626769 0
M  V30 546 C 49.2622 1.57721 0.313173 0
M  V30 547 O 50.4522 1.73917 0.0992615 0
M  V30 548 C 47.5842 3.40802 0.0818498 0
M  V30 549 H 48.7772 2.58149 -1.5264 0
M  V30 550 H 46.3302 1.32593 -0.827578 0
M  V30 551 H 47.0652 3.08642 0.995518 0
M  V30 552 H 46.8502 3.8758 -0.593652 0
M  V30 553 H 48.3402 4.16092 0.354584 0
M  V30 554 N 48.7773 0.814389 1.34928 0
M  V30 555 C 49.7073 0.244827 2.32213 0
M  V30 556 C 50.6883 -0.634024 1.57842 0
M  V30 557 O 51.8733 -0.562676 1.8587 0
M  V30 558 C 49.0033 -0.601106 3.42058 0
M  V30 559 C 47.9573 0.179896 4.27622 0
M  V30 560 C 47.2833 -0.788237 5.28858 0
M  V30 561 C 48.5833 1.38329 5.03649 0
M  V30 562 H 50.2773 1.05763 2.80097 0
M  V30 563 H 47.8233 0.510029 1.34665 0
M  V30 564 H 49.7763 -1.00968 4.09125 0
M  V30 565 H 48.5003 -1.44688 2.92802 0
M  V30 566 H 47.1593 0.569739 3.62146 0
M  V30 567 H 46.8073 -1.62973 4.75866 0
M  V30 568 H 46.5073 -0.269942 5.8698 0
M  V30 569 H 48.0313 -1.19485 5.98795 0
M  V30 570 H 49.4453 1.04918 5.63618 0
M  V30 571 H 47.8423 1.83662 5.71304 0
M  V30 572 H 48.9123 2.16592 4.33839 0
M  V30 573 N 50.2554 -1.46986 0.568584 0
M  V30 574 C 51.1854 -2.32946 -0.160753 0
M  V30 575 C 52.1664 -1.44487 -0.897631 0
M  V30 576 O 53.3514 -1.73327 -0.875867 0
M  V30 577 C 50.4814 -3.26494 -1.18403 0
M  V30 578 C 49.4354 -4.24282 -0.562895 0
M  V30 579 C 48.7614 -5.07236 -1.69163 0
M  V30 580 C 50.0614 -5.19989 0.490761 0
M  V30 581 H 51.7554 -2.94175 0.556916 0
M  V30 582 H 49.3014 -1.4146 0.26927 0
M  V30 583 H 51.2544 -3.85477 -1.70251 0
M  V30 584 H 49.9784 -2.63343 -1.93179 0
M  V30 585 H 48.6374 -3.66541 -0.0656164 0
M  V30 586 H 48.2854 -4.4048 -2.42871 0
M  V30 587 H 47.9854 -5.7345 -1.28174 0
M  V30 588 H 49.5094 -5.6908 -2.21314 0
M  V30 589 H 50.9234 -5.73271 0.0579047 0
M  V30 590 H 49.3204 -5.94469 0.820165 0
M  V30 591 H 50.3904 -4.64777 1.3824 0
M  V30 592 N 51.7335 -0.305618 -1.54608 0
M  V30 593 C 52.9815 0.301701 -1.99835 0
M  V30 594 C 53.3025 1.54054 -1.19551 0
M  V30 595 O 52.5725 1.93702 -0.292658 0
M  V30 596 H 51.1525 0.114468 -0.738178 0
M  V30 597 H 53.8145 -0.418016 -1.90364 0
M  V30 598 H 52.9105 0.570548 -3.06841 0
M  V30 599 N 53.2116 1.57565 -0.0334293 0
M  V30 600 C 54.1746 2.09393 0.932048 0
M  V30 601 C 55.1746 1.00986 1.25134 0
M  V30 602 O 56.3646 1.27129 1.19096 0
M  V30 603 C 53.4966 2.56338 2.2473 0
M  V30 604 H 54.6896 2.95984 0.483085 0
M  V30 605 H 52.2426 1.54819 0.21468 0
M  V30 606 H 52.9776 1.7309 2.74245 0
M  V30 607 H 52.7626 3.35542 2.02865 0
M  V30 608 H 54.2526 2.96646 2.93923 0
M  V30 609 N 54.6897 -0.239769 1.55765 0
M  V30 610 C 55.9357 -0.968234 1.78194 0
M  V30 611 C 56.2687 -1.84701 0.599938 0
M  V30 612 O 55.5437 -1.9031 -0.401524 0
M  V30 613 C 55.8267 -1.8227 3.10564 0
M  V30 614 C 55.6797 -0.971633 4.3918 0
M  V30 615 C 56.9987 -2.80388 3.39221 0
M  V30 616 H 54.1177 -0.350572 0.648281 0
M  V30 617 H 56.7597 -0.238259 1.885 0
M  V30 618 H 54.9097 -2.44507 3.01908 0
M  V30 619 H 56.5817 -0.367408 4.59835 0
M  V30 620 H 54.8247 -0.276276 4.32919 0
M  V30 621 H 55.4957 -1.60346 5.28198 0
M  V30 622 H 57.9717 -2.28287 3.47885 0
M  V30 623 H 56.8477 -3.3729 4.33044 0
M  V30 624 H 57.1087 -3.57212 2.60484 0
M  V30 625 N 56.1678 -1.49265 -0.50573 0
M  V30 626 C 57.0978 -1.68495 -1.61653 0
M  V30 627 C 58.0788 -0.53366 -1.61512 0
M  V30 628 O 59.2638 -0.76897 -1.78327 0
M  V30 629 C 56.3938 -1.74709 -3.00157 0
M  V30 630 C 55.3478 -2.89581 -3.15162 0
M  V30 631 C 54.6738 -2.80903 -4.5497 0
M  V30 632 C 55.9738 -4.30578 -2.95634 0
M  V30 633 H 57.6678 -2.61493 -1.45814 0
M  V30 634 H 55.2138 -1.25838 -0.70005 0
M  V30 635 H 57.1668 -1.86748 -3.77761 0
M  V30 636 H 55.8908 -0.783067 -3.17074 0
M  V30 637 H 54.5498 -2.77136 -2.39982 0
M  V30 638 H 54.1978 -1.82419 -4.68756 0
M  V30 639 H 53.8978 -3.57999 -4.65951 0
M  V30 640 H 55.4218 -2.94944 -5.34641 0
M  V30 641 H 56.8358 -4.4373 -3.63011 0
M  V30 642 H 55.2328 -5.0886 -3.18091 0
M  V30 643 H 56.3028 -4.45352 -1.91806 0
M  V30 644 N 57.6459 0.756429 -1.3826 0
M  V30 645 C 58.8739 1.54565 -1.3754 0
M  V30 646 C 59.2889 1.88767 0.0355331 0
M  V30 647 O 58.6459 1.52572 1.0014 0
M  V30 648 C 58.6969 2.84654 -2.22833 0
M  V30 649 O 58.4179 2.51912 -3.5843 0
M  V30 650 C 59.9189 3.78807 -2.30261 0
M  V30 651 H 57.1389 0.478353 -0.470553 0
M  V30 652 H 59.6829 0.936381 -1.81803 0
M  V30 653 H 57.8379 3.41965 -1.8204 0
M  V30 654 H 58.2519 3.35325 -4.03308 0
M  V30 655 H 59.7259 4.67045 -2.94233 0
M  V30 656 H 60.2029 4.19038 -1.31545 0
M  V30 657 H 60.8089 3.2742 -2.71433 0
M  V30 658 N 59.124 1.23083 0.984299 0
M  V30 659 C 60.056 0.96636 2.07832 0
M  V30 660 C 61.069 -0.0582135 1.62696 0
M  V30 661 O 62.258 0.176843 1.77622 0
M  V30 662 C 59.358 0.433397 3.36117 0
M  V30 663 C 58.531 1.51722 4.10243 0
M  V30 664 C 57.59 0.989821 5.16807 0
M  V30 665 O 56.616 1.67794 5.43906 0
M  V30 666 N 57.818 -0.184367 5.80207 0
M  V30 667 H 60.583 1.90824 2.31098 0
M  V30 668 H 58.144 1.13888 1.1507 0
M  V30 669 H 60.136 0.065699 4.04647 0
M  V30 670 H 58.706 -0.413806 3.09849 0
M  V30 671 H 57.926 2.05786 3.36223 0
M  V30 672 H 59.214 2.24619 4.56534 0
M  V30 673 H 58.612 -0.760062 5.60571 0
M  V30 674 H 57.169 -0.493366 6.4993 0
M  V30 675 N 60.6021 -1.18246 1.0419 0
M  V30 676 C 61.5501 -2.23968 0.627792 0
M  V30 677 C 62.5441 -1.65828 -0.346019 0
M  V30 678 O 63.7501 -1.78733 -0.213175 0
M  V30 679 H 60.1251 -0.728939 0.184802 0
M  V30 680 H 62.0961 -2.56202 1.52981 0
M  V30 681 C 60.8451 -3.47699 0.00796591 0
M  V30 682 H 60.1681 -3.92734 0.748347 0
M  V30 683 H 61.6081 -4.23294 -0.24455 0
M  V30 684 C 60.0671 -3.13153 -1.24246 0
M  V30 685 O 60.5971 -3.27003 -2.33307 0
M  V30 686 N 58.8031 -2.67467 -1.13622 0
M  V30 687 H 58.3501 -2.56396 -0.248734 0
M  V30 688 H 58.3081 -2.44724 -1.97377 0
M  V30 689 N 62.0802 -0.821533 -1.34494 0
M  V30 690 C 63.3082 -0.421884 -2.02553 0
M  V30 691 C 63.7232 0.971745 -1.61872 0
M  V30 692 O 63.0802 1.62864 -0.823496 0
M  V30 693 C 63.1312 -0.51285 -3.57844 0
M  V30 694 O 62.8522 -1.85155 -3.97051 0
M  V30 695 C 64.3532 -0.107921 -4.43169 0
M  V30 696 H 61.5732 -0.169482 -0.649243 0
M  V30 697 H 64.1172 -1.1093 -1.71798 0
M  V30 698 H 62.2722 0.126474 -3.87193 0
M  V30 699 H 62.6862 -1.82482 -4.91732 0
M  V30 700 H 64.1602 -0.222657 -5.51551 0
M  V30 701 H 64.6372 0.948401 -4.28838 0
M  V30 702 H 65.2432 -0.720989 -4.19144 0
M  V30 703 N 63.5583 1.46682 -0.576371 0
M  V30 704 C 64.5053 2.30241 0.160499 0
M  V30 705 C 65.4753 1.40233 0.890162 0
M  V30 706 O 66.6603 1.69186 0.882084 0
M  V30 707 C 63.8003 3.24578 1.1723 0
M  V30 708 C 62.9133 4.29684 0.446736 0
M  V30 709 C 62.0483 5.11154 1.44551 0
M  V30 710 C 61.0873 6.08015 0.70599 0
M  V30 711 N 60.2243 6.82376 1.65251 0
M  V30 712 H 65.0643 2.92727 -0.558127 0
M  V30 713 H 62.6013 1.44272 -0.287056 0
M  V30 714 H 64.5593 3.77711 1.77172 0
M  V30 715 H 63.1893 2.63916 1.85872 0
M  V30 716 H 62.2413 3.79458 -0.267594 0
M  V30 717 H 63.5533 4.98626 -0.131686 0
M  V30 718 H 62.7073 5.68533 2.11791 0
M  V30 719 H 61.4463 4.42158 2.05786 0
M  V30 720 H 60.4513 5.49796 0.0197725 0
M  V30 721 H 61.6763 6.79028 0.09912 0
M  V30 722 H 59.6223 6.16094 2.25308 0
M  V30 723 H 59.5393 7.47556 1.12673 0
M  V30 724 H 60.8073 7.44316 2.31546 0
M  V30 725 N 65.0364 0.313813 1.54444 0
M  V30 726 C 66.2834 -0.291675 2.00388 0
M  V30 727 C 66.6114 -1.52904 1.2021 0
M  V30 728 O 65.8664 -1.93833 0.269707 0
M  V30 729 C 66.1654 -0.680386 3.50864 0
M  V30 730 C 65.8314 0.456699 4.48581 0
M  V30 731 C 64.4934 0.768824 4.75018 0
M  V30 732 C 66.8454 1.22098 5.06697 0
M  V30 733 C 64.1734 1.84812 5.56831 0
M  V30 734 C 66.5254 2.29029 5.89685 0
M  V30 735 C 65.1894 2.60834 6.14428 0
M  V30 736 H 64.4594 -0.106732 0.733273 0
M  V30 737 H 67.1064 0.43557 1.86481 0
M  V30 738 H 65.4114 -1.48791 3.62448 0
M  V30 739 H 67.1084 -1.16026 3.83847 0
M  V30 740 H 63.6984 0.203337 4.28117 0
M  V30 741 H 67.8824 0.993096 4.86263 0
M  V30 742 H 63.1384 2.09912 5.74236 0
M  V30 743 H 67.3124 2.887 6.33739 0
M  V30 744 H 64.9394 3.44596 6.77612 0
M  V30 745 N 66.5145 -1.57545 0.0417849 0
M  V30 746 C 67.4245 -2.14451 -0.951213 0
M  V30 747 C 68.4405 -1.09992 -1.34825 0
M  V30 748 O 69.6165 -1.42114 -1.42708 0
M  V30 749 C 66.6815 -2.67063 -2.21084 0
M  V30 750 C 65.7425 -3.86284 -1.87304 0
M  V30 751 C 64.9755 -4.36378 -3.07261 0
M  V30 752 O 65.1985 -3.85587 -4.20332 0
M  V30 753 O 64.1325 -5.28077 -2.88822 0
M  V30 754 H 67.9585 -2.99601 -0.497287 0
M  V30 755 H 65.5435 -1.48317 -0.179567 0
M  V30 756 H 67.4255 -3.00914 -2.95006 0
M  V30 757 H 66.1005 -1.84989 -2.65633 0
M  V30 758 H 65.0075 -3.57338 -1.10727 0
M  V30 759 H 66.3405 -4.6956 -1.47562 0
M  V30 760 N 67.9926 0.231505 -1.5589 0
M  V30 761 C 68.9556 1.27028 -1.90779 0
M  V30 762 C 69.9556 1.40308 -0.785507 0
M  V30 763 O 71.1456 1.38744 -1.05336 0
M  V30 764 C 68.2776 2.64566 -2.14983 0
M  V30 765 H 69.4706 0.973017 -2.83677 0
M  V30 766 H 67.0236 0.471486 -1.49019 0
M  V30 767 H 67.7586 2.99406 -1.24604 0
M  V30 768 H 67.5436 2.56305 -2.96732 0
M  V30 769 H 69.0336 3.39543 -2.43105 0
M  V30 770 N 69.4707 1.49531 0.497807 0
M  V30 771 C 70.7167 1.59415 1.25358 0
M  V30 772 C 71.0497 0.281422 1.9215 0
M  V30 773 O 70.3247 -0.715249 1.80871 0
M  V30 774 C 70.6077 2.75566 2.3181 0
M  V30 775 C 70.4607 4.16642 1.69498 0
M  V30 776 C 71.7797 2.87347 3.33346 0
M  V30 777 H 68.8987 0.580244 0.454408 0
M  V30 778 H 71.5407 1.81827 0.551262 0
M  V30 779 H 69.6907 2.56587 2.91711 0
M  V30 780 H 71.3627 4.47145 1.13399 0
M  V30 781 H 69.6057 4.22141 0.998978 0
M  V30 782 H 70.2767 4.93792 2.46725 0
M  V30 783 H 72.7527 3.04634 2.83438 0
M  V30 784 H 71.6287 3.70289 4.05188 0
M  V30 785 H 71.8897 1.96834 3.95865 0
M  V30 786 N 70.9488 -0.749086 1.3866 0
M  V30 787 C 71.8788 -1.8764 1.38973 0
M  V30 788 C 72.8598 -1.68178 0.255004 0
M  V30 789 O 74.0448 -1.88704 0.458754 0
M  V30 790 C 71.1748 -3.25222 1.21851 0
M  V30 791 C 70.1288 -3.59295 2.32575 0
M  V30 792 C 69.4548 -4.95663 2.00555 0
M  V30 793 C 70.7548 -3.63709 3.7485 0
M  V30 794 H 72.4488 -1.87635 2.3331 0
M  V30 795 H 69.9948 -0.901329 1.12303 0
M  V30 796 H 71.9478 -4.03746 1.20695 0
M  V30 797 H 70.6718 -3.25719 0.239775 0
M  V30 798 H 69.3308 -2.83093 2.32925 0
M  V30 799 H 68.9788 -4.92724 1.01154 0
M  V30 800 H 68.6788 -5.19429 2.74714 0
M  V30 801 H 70.2028 -5.7656 2.01024 0
M  V30 802 H 71.6168 -4.32338 3.76506 0
M  V30 803 H 70.0138 -3.98986 4.48252 0
M  V30 804 H 71.0838 -2.63834 4.06841 0
M  V30 805 N 72.4269 -1.23603 -0.977757 0
M  V30 806 C 73.3739 -1.01954 -2.07061 0
M  V30 807 C 74.3439 0.0638697 -1.65977 0
M  V30 808 O 75.5289 -0.0887624 -1.90593 0
M  V30 809 C 72.6689 -0.619658 -3.39491 0
M  V30 810 C 71.7819 -1.77547 -3.93829 0
M  V30 811 C 70.9169 -1.32212 -5.14484 0
M  V30 812 C 69.9559 -2.44852 -5.60994 0
M  V30 813 N 69.0929 -2.00456 -6.72876 0
M  V30 814 H 73.9329 -1.95495 -2.24913 0
M  V30 815 H 71.4699 -0.973861 -1.10247 0
M  V30 816 H 73.4279 -0.368898 -4.15566 0
M  V30 817 H 72.0579 0.278752 -3.21594 0
M  V30 818 H 71.1099 -2.14016 -3.14486 0
M  V30 819 H 72.4219 -2.62219 -4.24314 0
M  V30 820 H 71.5759 -1.02965 -5.97899 0
M  V30 821 H 70.3149 -0.445808 -4.85658 0
M  V30 822 H 69.3199 -2.74871 -4.76157 0
M  V30 823 H 70.5449 -3.33024 -5.91837 0
M  V30 824 H 68.4909 -1.15208 -6.45804 0
M  V30 825 H 68.4079 -2.78687 -7.02759 0
M  V30 826 H 69.6759 -1.7432 -7.59758 0
M  V30 827 N 73.905 1.17692 -1.04816 0
M  V30 828 C 75.13 1.92327 -0.776207 0
M  V30 829 C 75.555 1.76082 0.661581 0
M  V30 830 O 74.913 1.076 1.45917 0
M  V30 831 C 74.961 3.41539 -1.15687 0
M  V30 832 O 74.065 4.11402 -0.286775 0
M  V30 833 H 73.406 0.599735 -0.284981 0
M  V30 834 H 75.936 1.49201 -1.4 0
M  V30 835 H 75.946 3.92269 -1.12202 0
M  V30 836 H 74.621 3.52684 -2.20425 0
M  V30 837 H 73.198 3.70939 -0.381903 0
M  V30 838 N 75.3831 0.828654 1.34056 0
M  V30 839 C 76.3131 0.269443 2.3194 0
M  V30 840 C 77.2941 -0.617247 1.58506 0
M  V30 841 O 78.4791 -0.542931 1.86456 0
M  V30 842 C 75.6091 -0.564793 3.42677 0
M  V30 843 C 74.5631 0.225241 4.27407 0
M  V30 844 C 73.8891 -0.7321 5.29664 0
M  V30 845 C 75.1891 1.43663 5.02154 0
M  V30 846 H 76.8831 1.08728 2.7896 0
M  V30 847 H 74.4291 0.524283 1.34117 0
M  V30 848 H 76.3821 -0.966233 4.10173 0
M  V30 849 H 75.1061 -1.41574 2.9432 0
M  V30 850 H 73.7651 0.608117 3.61521 0
M  V30 851 H 73.4131 -1.57916 4.77568 0
M  V30 852 H 73.1131 -0.20767 5.87233 0
M  V30 853 H 74.6371 -1.13128 6.00029 0
M  V30 854 H 76.0511 1.1089 5.62473 0
M  V30 855 H 74.4481 1.89711 5.69324 0
M  V30 856 H 75.5181 2.21181 4.31517 0
M  V30 857 N 76.8612 -1.46375 0.584142 0
M  V30 858 C 77.7712 -2.34115 -0.150728 0
M  V30 859 C 78.7872 -1.49838 -0.884567 0
M  V30 860 O 79.9632 -1.82704 -0.847429 0
M  V30 861 C 77.0282 -3.2705 -1.15062 0
M  V30 862 C 76.0892 -4.27228 -0.421293 0
M  V30 863 C 75.3222 -5.15722 -1.37355 0
M  V30 864 O 75.5452 -5.07176 -2.61014 0
M  V30 865 O 74.4792 -5.95383 -0.883355 0
M  V30 866 H 78.3052 -2.98309 0.569708 0
M  V30 867 H 75.8902 -1.45373 0.344535 0
M  V30 868 H 77.7722 -3.84381 -1.72712 0
M  V30 869 H 76.4472 -2.65451 -1.8525 0
M  V30 870 H 75.3542 -3.7358 0.197085 0
M  V30 871 H 76.6872 -4.91616 0.239641 0
M  V30 872 N 78.3393 -0.321999 -1.54275 0
M  V30 873 C 79.2873 0.560206 -2.25753 0
M  V30 874 C 80.2813 1.11984 -1.27106 0
M  V30 875 O 81.4873 1.06806 -1.44888 0
M  V30 876 H 77.8623 0.199304 -0.725108 0
M  V30 877 H 79.8333 -0.0649365 -2.98329 0
M  V30 878 C 78.5823 1.71023 -3.02731 0
M  V30 879 H 77.9053 1.28885 -3.78456 0
M  V30 880 H 79.3453 2.30314 -3.55993 0
M  V30 881 C 77.8043 2.62692 -2.10938 0
M  V30 882 O 78.3343 3.64364 -1.6912 0
M  V30 883 N 76.5403 2.30891 -1.76459 0
M  V30 884 H 76.0873 1.48253 -2.10663 0
M  V30 885 H 76.0453 2.92487 -1.1532 0
M  V30 886 N 79.8174 1.5752 -0.0501392 0
M  V30 887 C 80.7474 2.14502 0.922566 0
M  V30 888 C 81.7284 1.06642 1.3252 0
M  V30 889 O 82.9134 1.34577 1.4001 0
M  V30 890 C 80.0434 2.68916 2.19776 0
M  V30 891 C 78.9974 3.8175 1.93523 0
M  V30 892 C 78.3234 4.22677 3.27487 0
M  V30 893 C 79.6234 5.06932 1.25765 0
M  V30 894 H 81.3174 2.9603 0.447952 0
M  V30 895 H 78.8634 1.42401 0.214024 0
M  V30 896 H 80.8164 3.07419 2.88222 0
M  V30 897 H 79.5404 1.84578 2.69441 0
M  V30 898 H 78.1994 3.43718 1.27489 0
M  V30 899 H 77.8474 3.35291 3.74952 0
M  V30 900 H 77.5474 4.98725 3.1072 0
M  V30 901 H 79.0714 4.63779 3.97166 0
M  V30 902 H 80.4854 5.42888 1.84244 0
M  V30 903 H 78.8824 5.88116 1.19328 0
M  V30 904 H 79.9524 4.84337 0.233536 0
M  V30 905 N 81.2955 -0.223234 1.56011 0
M  V30 906 C 82.2425 -1.27664 1.92277 0
M  V30 907 C 83.2125 -1.46659 0.779763 0
M  V30 908 O 84.3975 -1.60256 1.03551 0
M  V30 909 C 81.5375 -2.62234 2.24338 0
M  V30 910 C 80.6505 -2.51051 3.51564 0
M  V30 911 C 79.7855 -3.78133 3.7308 0
M  V30 912 C 78.8245 -3.61665 4.93827 0
M  V30 913 N 77.9615 -4.80693 5.11741 0
M  V30 914 H 82.8015 -0.960358 2.82101 0
M  V30 915 H 80.3385 -0.462901 1.39627 0
M  V30 916 H 82.2965 -3.40596 2.40936 0
M  V30 917 H 80.9265 -2.91961 1.3769 0
M  V30 918 H 79.9785 -1.64132 3.43169 0
M  V30 919 H 81.2905 -2.34803 4.40079 0
M  V30 920 H 80.4445 -4.64938 3.89766 0
M  V30 921 H 79.1835 -3.97304 2.82844 0
M  V30 922 H 78.1885 -2.73244 4.77093 0
M  V30 923 H 79.4135 -3.43966 5.85546 0
M  V30 924 H 77.3595 -5.00181 4.24446 0
M  V30 925 H 77.2765 -4.67165 5.94384 0
M  V30 926 H 78.5445 -5.6893 5.3286 0
M  V30 927 N 82.7736 -1.49793 -0.48987 0
M  V30 928 C 83.7216 -1.67783 -1.61095 0
M  V30 929 C 84.7156 -0.543683 -1.60438 0
M  V30 930 O 85.9216 -0.723647 -1.64813 0
M  V30 931 H 82.2966 -0.529255 -0.534222 0
M  V30 932 H 84.2676 -2.61861 -1.43078 0
M  V30 933 C 83.0166 -1.77191 -2.99164 0
M  V30 934 H 82.3396 -2.63841 -3.0038 0
M  V30 935 H 83.7796 -1.93809 -3.77113 0
M  V30 936 C 82.2386 -0.519203 -3.32875 0
M  V30 937 O 82.7686 0.350124 -4.00171 0
M  V30 938 N 80.9746 -0.378816 -2.8812 0
M  V30 939 H 80.5216 -1.08725 -2.33531 0
M  V30 940 H 80.4796 0.458239 -3.11043 0
M  V30 941 N 84.2517 0.741722 -1.39055 0
M  V30 942 C 85.2147 1.83733 -1.37021 0
M  V30 943 C 86.2147 1.58542 -0.268534 0
M  V30 944 O 87.4047 1.66067 -0.526076 0
M  V30 945 C 84.5367 3.2141 -1.13617 0
M  V30 946 H 85.7297 1.86941 -2.34506 0
M  V30 947 H 83.2827 0.944676 -1.24521 0
M  V30 948 H 84.0177 3.23865 -0.167863 0
M  V30 949 H 83.8027 3.4109 -1.93391 0
M  V30 950 H 85.2927 4.01477 -1.14918 0
M  V30 951 N 85.7298 1.2412 0.971189 0
M  V30 952 C 86.9768 1.07881 1.71371 0
M  V30 953 C 87.3048 -0.382901 1.90694 0
M  V30 954 O 86.5598 -1.29945 1.46331 0
M  V30 955 C 86.8588 1.75983 3.11071 0
M  V30 956 C 86.5248 3.25909 3.11599 0
M  V30 957 C 85.1868 3.66813 3.11451 0
M  V30 958 C 87.5388 4.21771 3.062 0
M  V30 959 C 84.8668 5.02021 3.03631 0
M  V30 960 C 87.2188 5.56982 2.99923 0
M  V30 961 C 85.8828 5.97237 2.98102 0
M  V30 962 H 85.1528 0.394764 0.62709 0
M  V30 963 H 87.7998 1.54176 1.13587 0
M  V30 964 H 86.1048 1.22072 3.72298 0
M  V30 965 H 87.8018 1.60887 3.6731 0
M  V30 966 H 84.3918 2.93353 3.12477 0
M  V30 967 H 88.5758 3.91172 3.05447 0
M  V30 968 H 83.8318 5.32411 3.0058 0
M  V30 969 H 88.0058 6.30969 2.94704 0
M  V30 970 H 85.6328 7.01967 2.91798 0
M  V30 971 N 87.2079 -1.17134 1.05439 0
M  V30 972 C 88.4569 -1.86791 0.761049 0
M  V30 973 C 88.7699 -1.82072 -0.714795 0
M  V30 974 O 89.9759 -2.47223 -1.12218 0
M  V30 975 C 88.4319 -3.35166 1.31117 0
M  V30 976 C 88.0399 -3.48381 2.81664 0
M  V30 977 C 89.7839 -4.10134 1.09499 0
M  V30 978 C 87.6909 -4.90793 3.29964 0
M  V30 979 H 86.6209 -0.699681 0.281002 0
M  V30 980 H 89.2719 -1.3226 1.27199 0
M  V30 981 H 87.6539 -3.8925 0.72803 0
M  V30 982 H 88.8279 -3.04502 3.45855 0
M  V30 983 H 87.1429 -2.86836 3.01851 0
M  V30 984 H 89.7399 -5.152 1.43084 0
M  V30 985 H 90.0829 -4.16287 0.0328772 0
M  V30 986 H 90.6159 -3.62264 1.64346 0
M  V30 987 H 87.3549 -4.89816 4.35616 0
M  V30 988 H 86.8749 -5.35333 2.70516 0
M  V30 989 H 88.5539 -5.59573 3.24787 0
M  V30 990 N 88.686 -0.835752 -1.33615 0
M  V30 991 C 89.616 -0.281739 -2.31794 0
M  V30 992 C 90.597 0.608833 -1.58831 0
M  V30 993 O 91.782 0.533035 -1.86741 0
M  V30 994 C 88.912 0.546612 -3.42971 0
M  V30 995 C 87.866 -0.247904 -4.27281 0
M  V30 996 C 87.192 0.704001 -5.30045 0
M  V30 997 C 88.492 -1.46324 -5.01385 0
M  V30 998 H 90.186 -1.10206 -2.78379 0
M  V30 999 H 87.732 -0.531388 -1.33837 0
M  V30 1000 H 89.685 0.944467 -4.1068 0
M  V30 1001 H 88.409 1.40011 -2.95067 0
M  V30 1002 H 87.068 -0.627281 -3.61194 0
M  V30 1003 H 86.716 1.55381 -4.78399 0
M  V30 1004 H 86.416 0.176524 -5.87335 0
M  V30 1005 H 87.94 1.09944 -6.0062 0
M  V30 1006 H 89.354 -1.13871 -5.61877 0
M  V30 1007 H 87.751 -1.92728 -5.6831 0
M  V30 1008 H 88.821 -2.23467 -4.30338 0
M  V30 1009 N 90.1641 1.46063 -0.591896 0
M  V30 1010 C 91.0741 2.34192 0.13831 0
M  V30 1011 C 92.0901 1.50305 0.876608 0
M  V30 1012 O 93.2661 1.8315 0.837728 0
M  V30 1013 C 90.3311 3.27656 1.13326 0
M  V30 1014 C 89.3921 4.27445 0.39863 0
M  V30 1015 C 88.6251 5.16443 1.34618 0
M  V30 1016 O 88.8481 5.08553 2.58321 0
M  V30 1017 O 87.7821 5.95843 0.851768 0
M  V30 1018 H 91.6081 2.98002 -0.58552 0
M  V30 1019 H 89.1931 1.45188 -0.352239 0
M  V30 1020 H 91.0751 3.85291 1.70671 0
M  V30 1021 H 89.7501 2.6643 1.83839 0
M  V30 1022 H 88.6571 3.73471 -0.216895 0
M  V30 1023 H 89.9901 4.91482 -0.265709 0
M  V30 1024 N 91.6422 0.330177 1.54103 0
M  V30 1025 C 92.5902 -0.548226 2.26047 0
M  V30 1026 C 93.5842 -1.11309 1.27698 0
M  V30 1027 O 94.7902 -1.06036 1.45452 0
M  V30 1028 H 91.1652 -0.195456 0.726155 0
M  V30 1029 H 93.1362 0.0807567 2.98291 0
M  V30 1030 C 91.8852 -1.69415 3.03634 0
M  V30 1031 H 91.2082 -1.26876 3.79134 0
M  V30 1032 H 92.6482 -2.28423 3.5721 0
M  V30 1033 C 91.1072 -2.61569 2.12328 0
M  V30 1034 O 91.6372 -3.63462 1.7105 0
M  V30 1035 N 89.8432 -2.29952 1.77681 0
M  V30 1036 H 89.3902 -1.47134 2.11446 0
M  V30 1037 H 89.3482 -2.91871 1.16869 0
M  V30 1038 N 93.1203 -1.57491 0.0584922 0
M  V30 1039 C 94.3973 -1.84346 -0.653918 0
M  V30 1040 C 94.7773 -0.948355 -1.88599 0
M  V30 1041 O 94.1253 -0.0112403 -2.28497 0
M  V30 1042 C 94.3353 -3.34239 -1.00425 0
M  V30 1043 C 95.6833 -4.01431 -1.38342 0
M  V30 1044 O 96.7073 -3.38907 -1.09637 0
M  V30 1045 O 95.5663 -5.11683 -1.91943 0
M  V30 1046 H 92.6603 -0.761112 -0.323478 0
M  V30 1047 H 95.2063 -1.6947 0.0884125 0
M  V30 1048 H 93.9783 -3.91089 -0.128625 0
M  V30 1049 H 93.6013 -3.54329 -1.80378 0
M  V30 1050 N 94.5984 0.214957 -1.56127 0
M  V30 1051 C 95.8754 0.963093 -1.70247 0
M  V30 1052 C 96.2554 2.02166 -0.60764 0
M  V30 1053 O 95.6034 2.25244 0.384385 0
M  V30 1054 C 95.8134 1.56756 -3.11815 0
M  V30 1055 C 97.1614 2.0573 -3.7143 0
M  V30 1056 O 98.1854 1.66637 -3.14818 0
M  V30 1057 O 97.0444 2.77603 -4.70743 0
M  V30 1058 H 94.1384 0.450321 -0.693643 0
M  V30 1059 H 96.6844 0.206219 -1.68442 0
M  V30 1060 H 95.4564 0.803533 -3.82961 0
M  V30 1061 H 95.0794 2.3898 -3.17765 0
M  V30 1062 N 96.0765 1.50051 0.48192 0
M  V30 1063 C 96.9865 1.7089 1.60728 0
M  V30 1064 C 98.0025 0.591788 1.63627 0
M  V30 1065 O 99.1785 0.868817 1.81696 0
M  V30 1066 C 96.2435 1.78855 2.97005 0
M  V30 1067 C 95.3045 3.02537 3.04581 0
M  V30 1068 C 94.5375 3.10112 4.34357 0
M  V30 1069 O 94.7605 2.24765 5.24249 0
M  V30 1070 O 93.6945 4.02747 4.47301 0
M  V30 1071 H 97.5205 2.66264 1.46072 0
M  V30 1072 H 95.1055 1.34018 0.660264 0
M  V30 1073 H 96.9875 1.86336 3.77964 0
M  V30 1074 H 95.6625 0.866628 3.11883 0
M  V30 1075 H 94.5695 3.00563 2.22739 0
M  V30 1076 H 95.9025 3.94272 2.94636 0
M  V30 1077 N 97.5546 -0.734337 1.39446 0
M  V30 1078 C 98.8036 -1.48937 1.36017 0
M  V30 1079 C 99.1166 -1.95557 -0.0409005 0
M  V30 1080 O 100.323 -2.70779 -0.19778 0
M  V30 1081 C 98.7786 -2.69125 2.38955 0
M  V30 1082 C 98.3866 -2.29452 3.8478 0
M  V30 1083 C 100.131 -3.46944 2.44603 0
M  V30 1084 C 98.0376 -3.46366 4.79358 0
M  V30 1085 H 96.9676 -0.559296 0.505672 0
M  V30 1086 H 99.6186 -0.800983 1.65095 0
M  V30 1087 H 98.0006 -3.40041 2.02948 0
M  V30 1088 H 99.1746 -1.66077 4.29831 0
M  V30 1089 H 97.4896 -1.64723 3.82433 0
M  V30 1090 H 100.087 -4.33907 3.12456 0
M  V30 1091 H 100.43 -3.89454 1.47076 0
M  V30 1092 H 100.963 -2.83056 2.79507 0
M  V30 1093 H 97.7016 -3.08905 5.78151 0
M  V30 1094 H 97.2216 -4.08719 4.38986 0
M  V30 1095 H 98.9006 -4.12691 4.98292 0
M  V30 1096 N 99.0327 -1.24633 -0.964593 0
M  V30 1097 C 99.9807 -1.03917 -2.08096 0
M  V30 1098 C 100.975 0.0268581 -1.69379 0
M  V30 1099 O 102.181 -0.127952 -1.79545 0
M  V30 1100 H 98.5557 -0.319044 -0.680966 0
M  V30 1101 H 100.527 -1.98581 -2.22729 0
M  V30 1102 C 99.2757 -0.663983 -3.41301 0
M  V30 1103 H 98.5987 -1.47605 -3.71555 0
M  V30 1104 H 100.039 -0.558663 -4.20303 0
M  V30 1105 C 98.4977 0.629169 -3.30973 0
M  V30 1106 O 99.0277 1.67404 -3.65156 0
M  V30 1107 N 97.2337 0.611057 -2.84103 0
M  V30 1108 H 96.7807 -0.239593 -2.56483 0
M  V30 1109 H 96.7387 1.47647 -2.77575 0
M  V30 1110 N 100.511 1.16574 -1.06058 0
M  V30 1111 C 101.441 2.23057 -0.690488 0
M  V30 1112 C 102.422 1.67141 0.315901 0
M  V30 1113 O 103.607 1.93253 0.191556 0
M  V30 1114 C 100.737 3.47222 -0.073625 0
M  V30 1115 C 99.6908 4.16016 -1.00573 0
M  V30 1116 C 99.0168 5.34104 -0.252289 0
M  V30 1117 C 100.317 4.67264 -2.33371 0
M  V30 1118 H 102.011 2.54271 -1.58072 0
M  V30 1119 H 99.5568 1.22218 -0.76149 0
M  V30 1120 H 101.51 4.20939 0.19714 0
M  V30 1121 H 100.234 3.15302 0.85161 0
M  V30 1122 H 98.8928 3.44223 -1.2612 0
M  V30 1123 H 98.5408 4.98437 0.675988 0
M  V30 1124 H 98.2408 5.81072 -0.873455 0
M  V30 1125 H 99.7648 6.10599 0.0109857 0
M  V30 1126 H 101.179 5.32573 -2.12223 0
M  V30 1127 H 99.5758 5.24843 -2.90963 0
M  V30 1128 H 100.646 3.83602 -2.96611 0
M  V30 1129 N 101.989 0.842826 1.3317 0
M  V30 1130 C 102.936 0.276885 2.29133 0
M  V30 1131 C 103.906 -0.609527 1.54512 0
M  V30 1132 O 105.091 -0.546955 1.82792 0
M  V30 1133 C 102.231 -0.538707 3.40869 0
M  V30 1134 C 101.344 0.372169 4.30394 0
M  V30 1135 C 100.479 -0.454908 5.29249 0
M  V30 1136 C 99.5179 0.45411 6.10413 0
M  V30 1137 N 98.6549 -0.335075 7.013 0
M  V30 1138 H 103.495 1.10052 2.76934 0
M  V30 1139 H 101.032 0.554161 1.36262 0
M  V30 1140 H 102.99 -1.02709 4.0436 0
M  V30 1141 H 101.62 -1.32727 2.9425 0
M  V30 1142 H 100.672 0.97888 3.6759 0
M  V30 1143 H 101.984 1.0703 4.87182 0
M  V30 1144 H 101.138 -1.00695 5.98285 0
M  V30 1145 H 99.8769 -1.18646 4.73048 0
M  V30 1146 H 98.8819 1.01813 5.40291 0
M  V30 1147 H 100.107 1.18409 6.68697 0
M  V30 1148 H 98.0529 -1.04994 6.47543 0
M  V30 1149 H 97.9699 0.304262 7.55387 0
M  V30 1150 H 99.2379 -0.869224 7.74638 0
M  V30 1151 N 103.467 -1.45747 0.599634 0
M  V30 1152 C 104.414 -2.30467 -0.123849 0
M  V30 1153 C 105.384 -1.41632 -0.86774 0
M  V30 1154 O 106.569 -1.70568 -0.855056 0
M  V30 1155 C 103.709 -3.26402 -1.12051 0
M  V30 1156 C 102.822 -4.3034 -0.37832 0
M  V30 1157 C 101.957 -5.13389 -1.364 0
M  V30 1158 C 100.996 -6.09061 -0.609171 0
M  V30 1159 N 100.133 -6.84918 -1.54374 0
M  V30 1160 H 104.973 -2.91802 0.604627 0
M  V30 1161 H 102.51 -1.43797 0.309972 0
M  V30 1162 H 104.468 -3.80482 -1.7114 0
M  V30 1163 H 103.098 -2.66839 -1.8165 0
M  V30 1164 H 102.15 -3.78984 0.327929 0
M  V30 1165 H 103.462 -4.98354 0.210997 0
M  V30 1166 H 102.616 -5.7183 -2.02719 0
M  V30 1167 H 101.355 -4.45376 -1.98725 0
M  V30 1168 H 100.36 -5.49758 0.0676979 0
M  V30 1169 H 101.585 -6.79099 0.00891991 0
M  V30 1170 H 99.531 -6.19601 -2.15478 0
M  V30 1171 H 99.448 -7.49254 -1.00766 0
M  V30 1172 H 100.716 -7.47906 -2.19676 0
M  V30 1173 N 104.945 -0.338344 -1.53925 0
M  V30 1174 C 106.194 0.260732 -2.00008 0
M  V30 1175 C 106.507 1.52073 -1.23017 0
M  V30 1176 O 107.713 2.19672 -1.5955 0
M  V30 1177 C 106.169 0.51515 -3.56194 0
M  V30 1178 C 105.777 -0.728645 -4.42035 0
M  V30 1179 C 107.521 1.07337 -4.10706 0
M  V30 1180 C 105.428 -0.445315 -5.89721 0
M  V30 1181 H 104.358 0.101205 -0.747177 0
M  V30 1182 H 107.009 -0.452866 -1.77824 0
M  V30 1183 H 105.391 1.28932 -3.74423 0
M  V30 1184 H 106.565 -1.50352 -4.35581 0
M  V30 1185 H 104.88 -1.20813 -3.98489 0
M  V30 1186 H 107.477 1.30022 -5.18651 0
M  V30 1187 H 107.82 2.0273 -3.63602 0
M  V30 1188 H 108.353 0.360034 -3.96167 0
M  V30 1189 H 105.092 -1.36883 -6.41049 0
M  V30 1190 H 104.612 0.291569 -5.99091 0
M  V30 1191 H 106.291 -0.0606218 -6.46972 0
M  V30 1192 N 106.423 1.57458 -0.0668435 0
M  V30 1193 C 107.386 2.11323 0.887422 0
M  V30 1194 C 108.386 1.03618 1.22964 0
M  V30 1195 O 109.576 1.29626 1.16373 0
M  V30 1196 C 106.708 2.61048 2.19242 0
M  V30 1197 H 107.901 2.96942 0.420194 0
M  V30 1198 H 105.454 1.55239 0.181793 0
M  V30 1199 H 106.189 1.78868 2.70512 0
M  V30 1200 H 105.974 3.39769 1.95702 0
M  V30 1201 H 107.464 3.02814 2.87565 0
M  V30 1202 N 107.901 -0.206675 1.56239 0
M  V30 1203 C 109.131 -0.943975 1.83773 0
M  V30 1204 C 109.539 -1.77841 0.645703 0
M  V30 1205 O 108.882 -1.79403 -0.395008 0
M  V30 1206 C 108.944 -1.899 3.05251 0
M  V30 1207 C 108.608 -1.24764 4.39639 0
M  V30 1208 C 109.605 -0.630216 5.16066 0
M  V30 1209 C 107.29 -1.25496 4.8637 0
M  V30 1210 C 109.284 -0.0287946 6.37393 0
M  V30 1211 C 106.971 -0.649698 6.07637 0
M  V30 1212 C 107.969 -0.0376845 6.8299 0
M  V30 1213 O 107.657 0.55812 8.0196 0
M  V30 1214 H 107.389 -0.281508 0.614597 0
M  V30 1215 H 109.943 -0.222458 2.04192 0
M  V30 1216 H 108.173 -2.6599 2.80689 0
M  V30 1217 H 109.862 -2.5031 3.1953 0
M  V30 1218 H 110.628 -0.616785 4.81062 0
M  V30 1219 H 106.507 -1.72072 4.27683 0
M  V30 1220 H 110.051 0.449518 6.9615 0
M  V30 1221 H 105.948 -0.660592 6.42111 0
M  V30 1222 H 106.716 0.453891 8.17241 0
M  V30 1223 N 109.379 -1.50304 -0.473955 0
M  V30 1224 C 110.628 -1.60392 -1.22301 0
M  V30 1225 C 110.941 -0.308411 -1.93153 0
M  V30 1226 O 112.147 -0.288156 -2.69966 0
M  V30 1227 C 110.603 -2.83109 -2.2221 0
M  V30 1228 C 110.211 -4.19524 -1.57173 0
M  V30 1229 C 111.955 -3.0254 -2.97775 0
M  V30 1230 C 109.862 -5.33431 -2.55353 0
M  V30 1231 H 108.792 -0.597286 -0.460179 0
M  V30 1232 H 111.443 -1.76731 -0.493803 0
M  V30 1233 H 109.825 -2.60322 -2.9841 0
M  V30 1234 H 110.999 -4.52554 -0.867824 0
M  V30 1235 H 109.314 -4.05674 -0.939002 0
M  V30 1236 H 111.911 -3.84811 -3.71248 0
M  V30 1237 H 112.254 -2.14154 -3.56992 0
M  V30 1238 H 112.787 -3.25494 -2.28688 0
M  V30 1239 H 109.526 -6.23962 -2.00878 0
M  V30 1240 H 109.046 -5.04823 -3.23904 0
M  V30 1241 H 110.725 -5.63887 -3.17239 0
M  V30 1242 N 110.857 0.726932 -1.39834 0
M  V30 1243 C 111.767 1.87131 -1.41489 0
M  V30 1244 C 112.783 1.71239 -0.308757 0
M  V30 1245 O 113.959 1.93701 -0.551529 0
M  V30 1246 C 111.024 3.22811 -1.26468 0
M  V30 1247 C 110.085 3.51039 -2.47124 0
M  V30 1248 C 109.318 4.80245 -2.3281 0
M  V30 1249 O 109.541 5.54537 -1.33585 0
M  V30 1250 O 108.475 5.08554 -3.21957 0
M  V30 1251 H 112.301 1.8869 -2.3797 0
M  V30 1252 H 109.886 0.875837 -1.21035 0
M  V30 1253 H 111.768 4.03877 -1.20255 0
M  V30 1254 H 110.443 3.22005 -0.330862 0
M  V30 1255 H 109.35 2.70027 -2.58914 0
M  V30 1256 H 110.683 3.56632 -3.39227 0
M  V30 1257 N 112.336 1.25143 0.95797 0
M  V30 1258 C 113.583 1.09692 1.70217 0
M  V30 1259 C 113.911 -0.362654 1.91089 0
M  V30 1260 O 113.166 -1.28386 1.47701 0
M  V30 1261 C 113.465 1.79272 3.09187 0
M  V30 1262 C 113.131 3.29196 3.08125 0
M  V30 1263 C 111.793 3.70096 3.07543 0
M  V30 1264 C 114.145 4.24995 3.0171 0
M  V30 1265 C 111.473 5.05213 2.9829 0
M  V30 1266 C 113.825 5.60132 2.93999 0
M  V30 1267 C 112.489 6.00365 2.9175 0
M  V30 1268 H 111.759 0.401393 0.622868 0
M  V30 1269 H 114.406 1.55372 1.11945 0
M  V30 1270 H 112.711 1.26014 3.70982 0
M  V30 1271 H 114.408 1.64773 3.65583 0
M  V30 1272 H 110.998 2.96651 3.09348 0
M  V30 1273 H 115.182 3.9439 3.01281 0
M  V30 1274 H 110.438 5.35569 2.94916 0
M  V30 1275 H 114.612 6.3406 2.87996 0
M  V30 1276 H 112.239 7.05023 2.84336 0
M  V30 1277 N 113.814 -1.1601 1.06675 0
M  V30 1278 C 115.039 -1.91068 0.806706 0
M  V30 1279 C 115.464 -1.77112 -0.633485 0
M  V30 1280 O 114.822 -1.09908 -1.44187 0
M  V30 1281 C 114.87 -3.39655 1.21106 0
M  V30 1282 O 113.974 -4.10893 0.352189 0
M  V30 1283 H 113.315 -0.595125 0.294486 0
M  V30 1284 H 115.845 -1.46955 1.42356 0
M  V30 1285 H 115.855 -3.90434 1.18428 0
M  V30 1286 H 114.53 -3.49132 2.26008 0
M  V30 1287 H 113.107 -3.70285 0.440868 0
M  V30 1288 N 115.292 -0.849877 -1.32721 0
M  V30 1289 C 116.239 -0.289033 -2.28983 0
M  V30 1290 C 117.209 0.601324 -1.54833 0
M  V30 1291 O 118.394 0.537253 -1.8308 0
M  V30 1292 C 115.534 0.520623 -3.4115 0
M  V30 1293 C 114.647 -0.394989 -4.3019 0
M  V30 1294 C 113.782 0.426834 -5.29482 0
M  V30 1295 C 112.821 -0.486476 -6.10164 0
M  V30 1296 N 111.958 0.297879 -7.01468 0
M  V30 1297 H 116.798 -1.11519 -2.76347 0
M  V30 1298 H 114.335 -0.56138 -1.35967 0
M  V30 1299 H 116.293 1.00563 -4.04899 0
M  V30 1300 H 114.923 1.31165 -2.9495 0
M  V30 1301 H 113.975 -0.99836 -3.67065 0
M  V30 1302 H 115.287 -1.09612 -4.86607 0
M  V30 1303 H 114.441 0.975205 -5.98811 0
M  V30 1304 H 113.18 1.16136 -4.73671 0
M  V30 1305 H 112.185 -1.04677 -5.39743 0
M  V30 1306 H 113.41 -1.21953 -6.6806 0
M  V30 1307 H 111.356 1.01558 -6.48091 0
M  V30 1308 H 111.273 -0.344318 -7.55216 0
M  V30 1309 H 112.541 0.828131 -7.75089 0
M  V30 1310 N 116.77 1.45427 -0.607355 0
M  V30 1311 C 117.7 2.3329 0.0989352 0
M  V30 1312 C 118.681 1.46816 0.859007 0
M  V30 1313 O 119.866 1.75588 0.829604 0
M  V30 1314 C 116.996 3.29518 1.09705 0
M  V30 1315 C 115.95 4.25626 0.450206 0
M  V30 1316 C 115.276 5.11542 1.55655 0
M  V30 1317 C 116.576 5.18505 -0.628455 0
M  V30 1318 H 118.27 2.92595 -0.634716 0
M  V30 1319 H 115.816 1.40696 -0.306681 0
M  V30 1320 H 117.769 3.89855 1.59971 0
M  V30 1321 H 116.493 2.68372 1.86129 0
M  V30 1322 H 115.152 3.66586 -0.0315886 0
M  V30 1323 H 114.8 4.46765 2.31107 0
M  V30 1324 H 114.5 5.76647 1.12925 0
M  V30 1325 H 116.024 5.74748 2.06148 0
M  V30 1326 H 117.438 5.72916 -0.209877 0
M  V30 1327 H 115.835 5.92085 -0.977489 0
M  V30 1328 H 116.905 4.60948 -1.50514 0
M  V30 1329 N 118.248 0.346503 1.53744 0
M  V30 1330 C 119.211 -0.496439 2.23759 0
M  V30 1331 C 120.211 -1.0252 1.2388 0
M  V30 1332 O 121.401 -0.913974 1.48297 0
M  V30 1333 C 118.533 -1.69187 2.95954 0
M  V30 1334 H 119.726 0.115952 2.99676 0
M  V30 1335 H 117.279 0.0978939 1.55993 0
M  V30 1336 H 118.014 -2.34288 2.24231 0
M  V30 1337 H 117.799 -1.31989 3.69217 0
M  V30 1338 H 119.289 -2.28969 3.49232 0
M  V30 1339 N 119.726 -1.57421 0.075193 0
M  V30 1340 C 120.636 -2.1642 -0.905511 0
M  V30 1341 C 121.652 -1.12828 -1.32461 0
M  V30 1342 O 122.828 -1.45109 -1.39661 0
M  V30 1343 C 119.893 -2.71693 -2.15369 0
M  V30 1344 C 118.954 -3.90171 -1.79068 0
M  V30 1345 C 118.187 -4.42798 -2.97936 0
M  V30 1346 O 118.41 -3.94416 -4.12058 0
M  V30 1347 O 117.344 -5.34085 -2.77555 0
M  V30 1348 H 121.17 -3.00588 -0.433626 0
M  V30 1349 H 118.755 -1.48664 -0.148067 0
M  V30 1350 H 120.637 -3.07104 -2.88557 0
M  V30 1351 H 119.312 -1.90582 -2.61649 0
M  V30 1352 H 118.219 -3.59606 -1.03122 0
M  V30 1353 H 119.552 -4.72584 -1.37569 0
M  V30 1354 N 121.204 0.198386 -1.56346 0
M  V30 1355 C 122.444 0.92609 -1.82217 0
M  V30 1356 C 122.808 1.80584 -0.652195 0
M  V30 1357 O 124.009 2.56907 -0.790716 0
M  V30 1358 C 122.28 1.72354 -3.13096 0
M  V30 1359 S 123.839 2.50371 -3.6036 0
M  V30 1360 H 120.657 0.310677 -0.639532 0
M  V30 1361 H 123.259 0.189755 -1.94577 0
M  V30 1362 H 121.963 1.0678 -3.96265 0
M  V30 1363 H 121.494 2.50175 -3.03605 0
M  V30 1364 H 123.509 3.74488 -3.25535 0
M  V30 1365 N 122.682 1.50554 0.465978 0
M  V30 1366 C 123.928 1.62038 1.21949 0
M  V30 1367 C 124.261 0.322116 1.9151 0
M  V30 1368 O 123.536 -0.676723 1.82348 0
M  V30 1369 C 123.819 2.80421 2.25912 0
M  V30 1370 C 123.672 4.20144 1.60622 0
M  V30 1371 C 124.991 2.94354 3.27176 0
M  V30 1372 H 122.11 0.589752 0.441998 0
M  V30 1373 H 124.752 1.82956 0.51257 0
M  V30 1374 H 122.902 2.62717 2.86203 0
M  V30 1375 H 124.574 4.49449 1.03889 0
M  V30 1376 H 122.817 4.24165 0.909211 0
M  V30 1377 H 123.488 4.98914 2.36196 0
M  V30 1378 H 125.964 3.10578 2.76913 0
M  V30 1379 H 124.84 3.788 3.97242 0
M  V30 1380 H 125.101 2.05186 3.916 0
M  V30 1381 N 124.16 -0.719506 1.40217 0
M  V30 1382 C 125.576 -1.02707 1.22161 0
M  V30 1383 C 125.776 -2.0128 0.0940557 0
M  V30 1384 O 124.832 -2.46452 -0.549318 0
M  V30 1385 C 126.145 -1.57454 2.56181 0
M  V30 1386 C 127.693 -1.69458 2.63159 0
M  V30 1387 C 128.168 -2.27611 3.97438 0
M  V30 1388 N 129.659 -2.35002 3.99159 0
M  V30 1389 C 130.394 -2.80972 4.99842 0
M  V30 1390 N 129.89 -3.26723 6.10921 0
M  V30 1391 N 131.683 -2.80321 4.87213 0
M  V30 1392 H 123.834 -0.0660492 2.12297 0
M  V30 1393 H 126.097 -0.0919077 0.943534 0
M  V30 1394 H 125.803 -0.924873 3.39321 0
M  V30 1395 H 125.677 -2.56036 2.76993 0
M  V30 1396 H 128.064 -2.33543 1.80393 0
M  V30 1397 H 128.145 -0.694867 2.46181 0
M  V30 1398 H 127.789 -1.6415 4.80643 0
M  V30 1399 H 127.719 -3.2829 4.11744 0
M  V30 1400 H 130.21 -2.02685 3.18947 0
M  V30 1401 H 130.523 -3.60355 6.8364 0
M  V30 1402 H 128.868 -3.24692 6.14492 0
M  V30 1403 H 132.059 -2.43912 3.9953 0
M  V30 1404 H 132.232 -3.15831 5.65822 0
M  V30 1405 N 125.638 -1.25649 -0.95132 0
M  V30 1406 C 127.049 -1.09654 -1.51106 0
M  V30 1407 C 127.4 0.326615 -1.93462 0
M  V30 1408 O 126.525 1.21697 -1.78938 0
M  V30 1409 C 127.12 -1.98437 -2.74605 0
M  V30 1410 C 125.679 -1.86618 -3.2688 0
M  V30 1411 C 124.826 -1.9239 -1.99703 0
M  V30 1412 H 127.777 -1.38887 -0.767865 0
M  V30 1413 H 127.798 -1.5263 -3.48546 0
M  V30 1414 H 127.31 -3.02009 -2.43746 0
M  V30 1415 H 125.411 -0.859421 -3.62553 0
M  V30 1416 H 125.524 -2.71607 -3.94673 0
M  V30 1417 H 123.888 -1.36317 -2.15151 0
M  V30 1418 H 124.671 -2.97573 -1.71188 0
M  V30 1419 N 127.117 1.15442 -1.07289 0
M  V30 1420 C 128.342 1.90638 -0.816828 0
M  V30 1421 C 128.767 1.77445 0.624083 0
M  V30 1422 O 128.125 1.10671 1.43602 0
M  V30 1423 C 128.173 3.39008 -1.22906 0
M  V30 1424 O 127.277 4.10701 -0.373975 0
M  V30 1425 H 126.618 0.593555 -0.297638 0
M  V30 1426 H 129.148 1.46198 -1.43134 0
M  V30 1427 H 129.158 3.89801 -1.20497 0
M  V30 1428 H 127.833 3.47929 -2.27856 0
M  V30 1429 H 126.41 3.70046 -0.460499 0
M  V30 1430 N 128.595 0.856903 1.32268 0
M  V30 1431 C 129.843 0.460474 1.96784 0
M  V30 1432 C 130.164 -0.987701 1.68135 0
M  V30 1433 O 129.434 -1.69058 0.989765 0
M  V30 1434 H 128.014 0.167289 0.728027 0
M  V30 1435 H 130.676 1.09383 1.61312 0
M  V30 1436 H 129.772 0.60739 3.06133 0
M  V30 1437 N 130.073 -1.45103 0.615059 0
M  V30 1438 C 131.32 -2.02183 0.113179 0
M  V30 1439 C 131.648 -1.48249 -1.25906 0
M  V30 1440 O 130.903 -0.650265 -1.84581 0
M  V30 1441 C 131.202 -3.57386 0.0318797 0
M  V30 1442 C 130.868 -4.30505 1.34077 0
M  V30 1443 C 129.53 -4.50197 1.69929 0
M  V30 1444 C 131.882 -4.72238 2.20546 0
M  V30 1445 C 129.21 -5.08881 2.91988 0
M  V30 1446 C 131.562 -5.32272 3.41861 0
M  V30 1447 C 130.226 -5.50187 3.77956 0
M  V30 1448 H 129.496 -0.739842 0.0414151 0
M  V30 1449 H 132.143 -1.74073 0.798168 0
M  V30 1450 H 130.448 -3.84817 -0.736409 0
M  V30 1451 H 132.145 -3.99264 -0.372712 0
M  V30 1452 H 128.735 -4.15496 1.05173 0
M  V30 1453 H 132.919 -4.56751 1.94146 0
M  V30 1454 H 128.175 -5.20939 3.2005 0
M  V30 1455 H 132.349 -5.63563 4.09109 0
M  V30 1456 H 129.976 -5.95427 4.72622 0
M  V30 1457 N 131.551 -0.354651 -1.53558 0
M  V30 1458 C 132.781 0.239167 -2.05211 0
M  V30 1459 C 133.189 1.43879 -1.22863 0
M  V30 1460 O 132.532 1.81857 -0.259565 0
M  V30 1461 C 132.594 0.707251 -3.52474 0
M  V30 1462 C 132.258 -0.374212 -4.55465 0
M  V30 1463 C 133.255 -1.22054 -5.0537 0
M  V30 1464 C 130.94 -0.531323 -4.99482 0
M  V30 1465 C 132.934 -2.20942 -5.97882 0
M  V30 1466 C 130.621 -1.52358 -5.91802 0
M  V30 1467 C 131.619 -2.36108 -6.40892 0
M  V30 1468 O 131.307 -3.33643 -7.31394 0
M  V30 1469 H 131.039 0.0479716 -0.674296 0
M  V30 1470 H 133.593 -0.508121 -1.99016 0
M  V30 1471 H 131.823 1.50596 -3.56171 0
M  V30 1472 H 133.512 1.22285 -3.87042 0
M  V30 1473 H 134.278 -1.1103 -4.7212 0
M  V30 1474 H 130.157 0.110738 -4.60867 0
M  V30 1475 H 133.701 -2.86348 -6.36121 0
M  V30 1476 H 129.598 -1.63434 -6.24467 0
M  V30 1477 H 130.366 -3.29244 -7.4936 0
M  V30 1478 N 133.029 1.57378 -0.0835403 0
M  V30 1479 C 133.977 2.14602 0.89714 0
M  V30 1480 C 134.971 1.08589 1.30018 0
M  V30 1481 O 136.177 1.26952 1.27606 0
M  V30 1482 H 132.552 0.686346 0.3073 0
M  V30 1483 H 134.523 2.95845 0.38969 0
M  V30 1484 C 133.272 2.73188 2.15089 0
M  V30 1485 H 132.595 3.54442 1.84962 0
M  V30 1486 H 134.035 3.1681 2.81793 0
M  V30 1487 C 132.494 1.68517 2.91725 0
M  V30 1488 O 133.024 1.11718 3.85852 0
M  V30 1489 N 131.23 1.39277 2.55049 0
M  V30 1490 H 130.777 1.85655 1.78577 0
M  V30 1491 H 130.735 0.694791 3.06627 0
M  V30 1492 N 134.507 -0.190092 1.56449 0
M  V30 1493 C 135.439 -1.25973 1.91477 0
M  V30 1494 C 136.452 -1.41452 0.805931 0
M  V30 1495 O 137.641 -1.41789 1.08435 0
M  V30 1496 C 134.741 -2.63117 2.13594 0
M  V30 1497 C 133.914 -2.69182 3.4476 0
M  V30 1498 C 132.973 -3.87557 3.5593 0
M  V30 1499 O 131.999 -3.74427 4.28711 0
M  V30 1500 N 133.201 -5.03224 2.89388 0
M  V30 1501 H 135.966 -0.962394 2.83828 0
M  V30 1502 H 133.527 -0.379981 1.57378 0
M  V30 1503 H 135.519 -3.40742 2.1835 0
M  V30 1504 H 134.089 -2.85319 1.27719 0
M  V30 1505 H 133.309 -1.77793 3.51828 0
M  V30 1506 H 134.597 -2.70229 4.31107 0
M  V30 1507 H 133.995 -5.16791 2.30094 0
M  V30 1508 H 132.552 -5.78778 2.99764 0
M  V30 1509 N 135.985 -1.50799 -0.457987 0
M  V30 1510 C 136.932 -1.70617 -1.5543 0
M  V30 1511 C 137.902 -0.547562 -1.56815 0
M  V30 1512 O 139.087 -0.779647 -1.74144 0
M  V30 1513 C 136.227 -1.81831 -2.93311 0
M  V30 1514 C 135.34 -3.09278 -3.01615 0
M  V30 1515 C 134.475 -3.11209 -4.30491 0
M  V30 1516 C 133.514 -4.33055 -4.32585 0
M  V30 1517 N 132.651 -4.32652 -5.52952 0
M  V30 1518 H 137.491 -2.64207 -1.37836 0
M  V30 1519 H 135.028 -1.30959 -0.669937 0
M  V30 1520 H 136.986 -1.86314 -3.73287 0
M  V30 1521 H 135.616 -0.916685 -3.0951 0
M  V30 1522 H 134.668 -3.14203 -2.1443 0
M  V30 1523 H 135.98 -3.99233 -2.99022 0
M  V30 1524 H 135.134 -3.14494 -5.18824 0
M  V30 1525 H 133.873 -2.19106 -4.35711 0
M  V30 1526 H 132.878 -4.29969 -3.42647 0
M  V30 1527 H 134.103 -5.264 -4.29046 0
M  V30 1528 H 132.049 -3.43409 -5.58933 0
M  V30 1529 H 131.966 -5.16392 -5.52155 0
M  V30 1530 H 133.234 -4.40101 -6.43375 0
M  V30 1531 N 137.463 0.71206 -1.40597 0
M  V30 1532 C 138.426 1.80785 -1.40888 0
M  V30 1533 C 139.426 1.57937 -0.302103 0
M  V30 1534 O 140.616 1.64913 -0.561182 0
M  V30 1535 C 137.748 3.18927 -1.20409 0
M  V30 1536 H 138.941 1.81924 -2.38419 0
M  V30 1537 H 136.494 0.91805 -1.26497 0
M  V30 1538 H 137.229 3.23436 -0.236522 0
M  V30 1539 H 137.014 3.36911 -2.00582 0
M  V30 1540 H 138.504 3.98949 -1.23408 0
M  V30 1541 N 138.941 1.26152 0.944643 0
M  V30 1542 C 139.888 1.07408 2.04285 0
M  V30 1543 C 140.858 -0.0198413 1.66088 0
M  V30 1544 O 142.043 0.139264 1.90291 0
M  V30 1545 C 139.183 0.70945 3.37729 0
M  V30 1546 C 138.296 1.87926 3.88983 0
M  V30 1547 C 137.431 1.45807 5.10797 0
M  V30 1548 C 136.47 2.5964 5.54305 0
M  V30 1549 N 135.607 2.18226 6.67324 0
M  V30 1550 H 140.447 2.01389 2.1965 0
M  V30 1551 H 137.984 1.00275 1.07626 0
M  V30 1552 H 139.942 0.478948 4.14442 0
M  V30 1553 H 138.572 -0.193389 3.2222 0
M  V30 1554 H 137.624 2.22279 3.08701 0
M  V30 1555 H 138.936 2.73377 4.17213 0
M  V30 1556 H 138.09 1.18781 5.94959 0
M  V30 1557 H 136.829 0.574414 4.84305 0
M  V30 1558 H 135.834 2.87399 4.68702 0
M  V30 1559 H 137.059 3.48599 5.828 0
M  V30 1560 H 135.005 1.3229 6.42523 0
M  V30 1561 H 134.922 2.97221 6.95123 0
M  V30 1562 H 136.19 1.94403 7.54869 0
M  V30 1563 N 140.419 -1.14872 1.07899 0
M  V30 1564 C 141.835 -1.37776 0.805606 0
M  V30 1565 C 142.035 -1.92743 -0.587555 0
M  V30 1566 O 141.091 -2.13678 -1.34528 0
M  V30 1567 C 142.404 -2.34361 1.88402 0
M  V30 1568 C 143.952 -2.48012 1.90942 0
M  V30 1569 C 144.427 -3.47893 2.97883 0
M  V30 1570 N 145.918 -3.55433 2.97021 0
M  V30 1571 C 146.653 -4.32553 3.76412 0
M  V30 1572 N 146.149 -5.12959 4.65666 0
M  V30 1573 N 147.942 -4.27697 3.64735 0
M  V30 1574 H 140.093 -0.775365 1.97742 0
M  V30 1575 H 142.356 -0.403521 0.857831 0
M  V30 1576 H 142.062 -2.01098 2.88535 0
M  V30 1577 H 141.936 -3.34206 1.74889 0
M  V30 1578 H 144.323 -2.8057 0.914579 0
M  V30 1579 H 144.404 -1.48147 2.08534 0
M  V30 1580 H 144.048 -3.16069 3.97571 0
M  V30 1581 H 143.978 -4.47527 2.77538 0
M  V30 1582 H 146.469 -2.98048 2.32326 0
M  V30 1583 H 146.782 -5.69065 5.22862 0
M  V30 1584 H 145.127 -5.12245 4.69712 0
M  V30 1585 H 148.318 -3.63949 2.94378 0
M  V30 1586 H 148.491 -4.8755 4.26848 0
M  V30 1587 N 141.898 -0.863906 -1.31812 0
M  V30 1588 C 142.828 -0.330843 -2.31144 0
M  V30 1589 C 143.809 0.575005 -1.60087 0
M  V30 1590 O 144.994 0.493304 -1.8783 0
M  V30 1591 C 142.124 0.47374 -3.44054 0
M  V30 1592 C 141.078 -0.338481 -4.26659 0
M  V30 1593 C 140.404 0.591412 -5.31419 0
M  V30 1594 C 141.704 -1.56926 -4.98168 0
M  V30 1595 H 143.398 -1.16086 -2.75979 0
M  V30 1596 H 140.944 -0.559657 -1.32679 0
M  V30 1597 H 142.897 0.857143 -4.12591 0
M  V30 1598 H 141.621 1.33721 -2.9797 0
M  V30 1599 H 140.28 -0.703754 -3.59782 0
M  V30 1600 H 139.928 1.45199 -4.81587 0
M  V30 1601 H 139.628 0.0519022 -5.87577 0
M  V30 1602 H 141.152 0.97179 -6.02817 0
M  V30 1603 H 142.566 -1.25764 -5.59336 0
M  V30 1604 H 140.963 -2.04739 -5.64094 0
M  V30 1605 H 142.033 -2.32544 -4.25501 0
M  V30 1606 N 143.376 1.44774 -0.622745 0
M  V30 1607 C 144.625 2.01334 -0.121397 0
M  V30 1608 C 144.938 1.49505 1.26125 0
M  V30 1609 O 146.144 1.98139 1.85616 0
M  V30 1610 C 144.6 3.59516 -0.166298 0
M  V30 1611 C 144.208 4.20342 -1.54974 0
M  V30 1612 C 145.952 4.23582 0.279021 0
M  V30 1613 C 143.859 5.70721 -1.55021 0
M  V30 1614 H 142.789 0.752851 -0.0416172 0
M  V30 1615 H 145.44 1.66083 -0.780309 0
M  V30 1616 H 143.822 3.92027 0.559557 0
M  V30 1617 H 144.996 3.99381 -2.29851 0
M  V30 1618 H 143.311 3.68529 -1.93843 0
M  V30 1619 H 145.908 5.33868 0.298083 0
M  V30 1620 H 146.251 3.95327 1.30471 0
M  V30 1621 H 146.784 3.95843 -0.394063 0
M  V30 1622 H 143.523 6.03698 -2.55399 0
M  V30 1623 H 143.043 5.93829 -0.844245 0
M  V30 1624 H 144.722 6.34203 -1.28047 0
M  V30 1625 N 144.854 0.36279 1.53368 0
M  V30 1626 C 146.131 -0.284021 1.93527 0
M  V30 1627 C 146.511 -1.66628 1.29608 0
M  V30 1628 O 145.859 -2.23942 0.45413 0
M  V30 1629 C 146.069 -0.337028 3.47369 0
M  V30 1630 C 147.417 -0.578708 4.20638 0
M  V30 1631 O 148.441 -0.418352 3.53735 0
M  V30 1632 O 147.3 -0.89074 5.39192 0
M  V30 1633 H 144.394 -0.169743 0.809393 0
M  V30 1634 H 146.94 0.41537 1.64538 0
M  V30 1635 H 145.712 0.632217 3.86159 0
M  V30 1636 H 145.335 -1.08243 3.82582 0
M  V30 1637 N 146.332 -1.57332 0.0918853 0
M  V30 1638 C 147.262 -2.16872 -0.865371 0
M  V30 1639 C 148.243 -1.10118 -1.29646 0
M  V30 1640 O 149.428 -1.38242 -1.36392 0
M  V30 1641 C 146.558 -2.74649 -2.12569 0
M  V30 1642 C 145.512 -3.86747 -1.83333 0
M  V30 1643 C 144.838 -4.31212 -3.16166 0
M  V30 1644 C 146.138 -5.10089 -1.1228 0
M  V30 1645 H 147.832 -2.97114 -0.369307 0
M  V30 1646 H 145.378 -1.42918 -0.176194 0
M  V30 1647 H 147.331 -3.14952 -2.7997 0
M  V30 1648 H 146.055 -1.91657 -2.64452 0
M  V30 1649 H 144.714 -3.46978 -1.18331 0
M  V30 1650 H 144.362 -3.45115 -3.6593 0
M  V30 1651 H 144.062 -5.06788 -2.97388 0
M  V30 1652 H 145.586 -4.74146 -3.84731 0
M  V30 1653 H 147 -5.47582 -1.69785 0
M  V30 1654 H 145.397 -5.91073 -1.03693 0
M  V30 1655 H 146.467 -4.84786 -0.105041 0
M  V30 1656 N 147.81 0.181792 -1.56548 0
M  V30 1657 C 149.035 0.920019 -1.85877 0
M  V30 1658 C 149.46 1.75494 -0.677021 0
M  V30 1659 O 148.818 1.77399 0.374056 0
M  V30 1660 C 148.866 1.78112 -3.13542 0
M  V30 1661 O 147.97 2.88152 -2.95029 0
M  V30 1662 H 147.311 0.258334 -0.611686 0
M  V30 1663 H 149.841 0.183092 -2.03779 0
M  V30 1664 H 149.851 2.18314 -3.44678 0
M  V30 1665 H 148.526 1.16777 -3.99169 0
M  V30 1666 H 147.103 2.51609 -2.75222 0
M  V30 1667 N 149.288 1.51039 0.449983 0
M  V30 1668 C 150.235 1.71439 1.54523 0
M  V30 1669 C 151.205 0.555871 1.56522 0
M  V30 1670 O 152.39 0.788871 1.73728 0
M  V30 1671 C 149.53 1.83384 2.92343 0
M  V30 1672 C 148.643 3.10873 2.9997 0
M  V30 1673 C 147.778 3.13488 4.28834 0
M  V30 1674 C 146.817 4.35343 4.30282 0
M  V30 1675 N 145.954 4.35579 5.5065 0
M  V30 1676 H 150.794 2.64934 1.36433 0
M  V30 1677 H 148.331 1.31312 0.662982 0
M  V30 1678 H 150.289 1.88291 3.72293 0
M  V30 1679 H 148.919 0.933086 3.0902 0
M  V30 1680 H 147.971 3.15336 2.12761 0
M  V30 1681 H 149.283 4.00814 2.96901 0
M  V30 1682 H 148.437 3.17241 5.17149 0
M  V30 1683 H 147.176 2.21414 4.34543 0
M  V30 1684 H 146.181 4.3178 3.40362 0
M  V30 1685 H 147.406 5.28668 4.26248 0
M  V30 1686 H 145.352 3.46369 5.57104 0
M  V30 1687 H 145.269 5.19313 5.49409 0
M  V30 1688 H 146.537 4.43507 6.41032 0
M  V30 1689 N 150.766 -0.704594 1.40972 0
M  V30 1690 C 151.714 -1.83994 1.42299 0
M  V30 1691 C 152.708 -1.66684 0.302111 0
M  V30 1692 O 153.914 -1.73655 0.473697 0
M  V30 1693 H 150.289 -0.606171 0.44504 0
M  V30 1694 H 152.26 -1.79992 2.38003 0
M  V30 1695 C 151.009 -3.21946 1.31323 0
M  V30 1696 H 150.332 -3.35878 2.16855 0
M  V30 1697 H 151.772 -4.01491 1.36311 0
M  V30 1698 C 150.231 -3.36891 0.0245977 0
M  V30 1699 O 150.761 -3.90687 -0.934153 0
M  V30 1700 N 148.967 -2.90559 -0.0485243 0
M  V30 1701 H 148.514 -2.46968 0.732419 0
M  V30 1702 H 148.472 -3.00937 -0.910171 0
M  V30 1703 N 152.244 -1.26651 -0.937939 0
M  V30 1704 C 153.493 -1.11775 -1.67897 0
M  V30 1705 C 153.806 0.33794 -1.92659 0
M  V30 1706 O 155.012 0.607434 -2.64618 0
M  V30 1707 C 153.468 -1.9523 -3.02346 0
M  V30 1708 C 153.076 -3.45393 -2.8532 0
M  V30 1709 C 154.82 -1.88972 -3.80118 0
M  V30 1710 C 152.727 -4.21083 -4.15263 0
M  V30 1711 H 151.657 -0.414696 -0.629717 0
M  V30 1712 H 154.308 -1.50988 -1.04283 0
M  V30 1713 H 152.69 -1.48853 -3.66959 0
M  V30 1714 H 153.864 -3.99561 -2.29537 0
M  V30 1715 H 152.179 -3.52921 -2.20988 0
M  V30 1716 H 154.776 -2.42805 -4.76392 0
M  V30 1717 H 155.119 -0.86113 -4.07296 0
M  V30 1718 H 155.652 -2.33189 -3.22285 0
M  V30 1719 H 152.391 -5.24425 -3.93267 0
M  V30 1720 H 151.911 -3.71695 -4.70747 0
M  V30 1721 H 153.59 -4.29706 -4.83696 0
M  V30 1722 N 153.722 1.14298 -1.08507 0
M  V30 1723 C 154.652 2.21542 -0.737646 0
M  V30 1724 C 155.633 1.67773 0.280377 0
M  V30 1725 O 156.818 1.93616 0.150521 0
M  V30 1726 C 153.948 3.46988 -0.147259 0
M  V30 1727 C 152.902 4.13789 -1.09374 0
M  V30 1728 C 152.228 5.33449 -0.365524 0
M  V30 1729 C 153.528 4.62208 -2.4323 0
M  V30 1730 H 155.222 2.5086 -1.6343 0
M  V30 1731 H 152.768 1.20576 -0.787243 0
M  V30 1732 H 154.721 4.21262 0.107808 0
M  V30 1733 H 153.445 3.17037 0.784538 0
M  V30 1734 H 152.104 3.4147 -1.33393 0
M  V30 1735 H 151.752 4.99759 0.57011 0
M  V30 1736 H 151.452 5.79088 -0.996512 0
M  V30 1737 H 152.976 6.10485 -0.118534 0
M  V30 1738 H 154.39 5.27952 -2.23472 0
M  V30 1739 H 152.787 5.18553 -3.02031 0
M  V30 1740 H 153.857 3.77224 -3.04681 0
M  V30 1741 N 155.201 0.870884 1.31352 0
M  V30 1742 C 156.148 0.325425 2.28494 0
M  V30 1743 C 157.118 -0.576615 1.5577 0
M  V30 1744 O 158.303 -0.508059 1.83911 0
M  V30 1745 C 155.443 -0.466283 3.41935 0
M  V30 1746 C 154.556 0.463378 4.29508 0
M  V30 1747 C 153.691 -0.342544 5.30094 0
M  V30 1748 C 152.73 0.583486 6.09313 0
M  V30 1749 N 151.867 -0.186244 7.01853 0
M  V30 1750 H 156.707 1.15901 2.74538 0
M  V30 1751 H 154.244 0.58294 1.35056 0
M  V30 1752 H 156.202 -0.941085 4.06447 0
M  V30 1753 H 154.832 -1.26456 2.97 0
M  V30 1754 H 153.884 1.05663 3.65431 0
M  V30 1755 H 155.196 1.1734 4.84802 0
M  V30 1756 H 154.35 -0.879816 6.00287 0
M  V30 1757 H 153.089 -1.08585 4.75458 0
M  V30 1758 H 152.094 1.13251 5.3801 0
M  V30 1759 H 153.319 1.32566 6.66035 0
M  V30 1760 H 151.265 -0.912348 6.49625 0
M  V30 1761 H 151.182 0.464422 7.54572 0
M  V30 1762 H 152.45 -0.704716 7.76308 0
M  V30 1763 N 156.679 -1.44442 0.630414 0
M  V30 1764 C 157.956 -1.9549 0.0655657 0
M  V30 1765 C 158.336 -1.5724 -1.40851 0
M  V30 1766 O 157.684 -0.846116 -2.12257 0
M  V30 1767 C 157.894 -3.47812 0.287691 0
M  V30 1768 C 159.242 -4.24216 0.180513 0
M  V30 1769 O 160.266 -3.55526 0.219019 0
M  V30 1770 O 159.125 -5.46434 0.0848493 0
M  V30 1771 H 156.219 -0.826688 -0.0227177 0
M  V30 1772 H 158.765 -1.54496 0.702068 0
M  V30 1773 H 157.537 -3.687 1.31056 0
M  V30 1774 H 157.16 -3.95751 -0.382984 0
M  V30 1775 N 158.157 -0.370918 -1.53173 0
M  V30 1776 C 159.404 0.217102 -2.01333 0
M  V30 1777 C 159.732 1.48338 -1.25802 0
M  V30 1778 O 158.987 1.92698 -0.34146 0
M  V30 1779 C 159.286 0.549696 -3.53147 0
M  V30 1780 C 158.952 -0.622872 -4.46577 0
M  V30 1781 C 157.614 -0.944595 -4.71838 0
M  V30 1782 C 159.966 -1.40819 -5.01816 0
M  V30 1783 C 157.294 -2.05351 -5.49589 0
M  V30 1784 C 159.646 -2.50757 -5.80778 0
M  V30 1785 C 158.31 -2.83458 -6.04324 0
M  V30 1786 H 157.58 0.0794431 -0.736729 0
M  V30 1787 H 160.227 -0.504481 -1.84736 0
M  V30 1788 H 158.532 1.35237 -3.6772 0
M  V30 1789 H 160.229 1.017 -3.87889 0
M  V30 1790 H 156.819 -0.36209 -4.27068 0
M  V30 1791 H 161.003 -1.17289 -4.82242 0
M  V30 1792 H 156.259 -2.3108 -5.6605 0
M  V30 1793 H 160.433 -3.12022 -6.22588 0
M  V30 1794 H 158.06 -3.69508 -6.64355 0
M  V30 1795 N 159.635 1.57281 -0.100228 0
M  V30 1796 C 160.567 2.11342 0.886972 0
M  V30 1797 C 161.58 1.05182 1.24261 0
M  V30 1798 O 162.769 1.32613 1.19483 0
M  V30 1799 C 159.869 2.5825 2.19454 0
M  V30 1800 C 159.042 3.88302 2.01346 0
M  V30 1801 C 158.101 4.21004 3.15661 0
M  V30 1802 O 157.127 4.9014 2.89398 0
M  V30 1803 N 158.329 3.76818 4.41575 0
M  V30 1804 H 161.094 2.96668 0.425216 0
M  V30 1805 H 158.655 1.61678 0.0847334 0
M  V30 1806 H 160.647 2.7717 2.94888 0
M  V30 1807 H 159.217 1.77907 2.57037 0
M  V30 1808 H 158.437 3.7848 1.10212 0
M  V30 1809 H 159.725 4.73375 1.8653 0
M  V30 1810 H 159.123 3.2102 4.65792 0
M  V30 1811 H 157.68 4.00882 5.13942 0
M  V30 1812 N 161.113 -0.173488 1.56642 0
M  V30 1813 C 162.338 -0.910149 1.86363 0
M  V30 1814 C 162.763 -1.75132 0.686318 0
M  V30 1815 O 162.121 -1.77595 -0.364643 0
M  V30 1816 C 162.169 -1.76447 3.14482 0
M  V30 1817 O 161.273 -2.86584 2.96553 0
M  V30 1818 H 160.614 -0.255086 0.613047 0
M  V30 1819 H 163.144 -0.172283 2.03873 0
M  V30 1820 H 163.154 -2.16483 3.45831 0
M  V30 1821 H 161.829 -1.14658 3.99783 0
M  V30 1822 H 160.406 -2.50146 2.76553 0
M  V30 1823 N 162.591 -1.51276 -0.441967 0
M  V30 1824 C 163.838 -1.63715 -1.19179 0
M  V30 1825 C 164.166 -0.351175 -1.91303 0
M  V30 1826 O 163.421 0.664524 -1.84072 0
M  V30 1827 C 163.72 -2.78746 -2.23686 0
M  V30 1828 C 163.386 -4.18189 -1.68607 0
M  V30 1829 C 162.048 -4.56125 -1.53308 0
M  V30 1830 C 164.4 -5.05222 -1.28062 0
M  V30 1831 C 161.728 -5.78804 -0.959317 0
M  V30 1832 C 164.08 -6.28476 -0.721162 0
M  V30 1833 C 162.744 -6.65188 -0.55504 0
M  V30 1834 H 162.014 -0.599076 -0.436106 0
M  V30 1835 H 164.661 -1.85296 -0.48351 0
M  V30 1836 H 162.966 -2.51369 -3.00535 0
M  V30 1837 H 164.663 -2.8557 -2.81515 0
M  V30 1838 H 161.253 -3.88277 -1.8149 0
M  V30 1839 H 165.437 -4.76524 -1.38704 0
M  V30 1840 H 160.693 -6.05899 -0.81833 0
M  V30 1841 H 164.867 -6.95259 -0.398458 0
M  V30 1842 H 162.494 -7.60123 -0.108311 0
M  V30 1843 N 164.069 0.697108 -1.41344 0
M  V30 1844 C 164.979 1.84088 -1.45427 0
M  V30 1845 C 165.995 1.70545 -0.34501 0
M  V30 1846 O 167.171 1.92488 -0.592492 0
M  V30 1847 C 164.236 3.20056 -1.33286 0
M  V30 1848 C 163.297 3.45718 -2.54514 0
M  V30 1849 C 162.53 4.75199 -2.42944 0
M  V30 1850 O 162.753 5.51579 -1.45318 0
M  V30 1851 O 161.687 5.0161 -3.32672 0
M  V30 1852 H 165.513 1.836 -2.41919 0
M  V30 1853 H 163.098 0.849966 -1.22866 0
M  V30 1854 H 164.98 4.01236 -1.28794 0
M  V30 1855 H 163.655 3.2123 -0.39909 0
M  V30 1856 H 162.562 2.64474 -2.64583 0
M  V30 1857 H 163.895 3.49356 -3.46715 0
M  V30 1858 N 165.547 1.27147 0.931209 0
M  V30 1859 C 166.495 1.09398 2.05268 0
M  V30 1860 C 167.489 0.0180591 1.6939 0
M  V30 1861 O 168.695 0.17551 1.79142 0
M  V30 1862 H 165.07 0.336986 0.672268 0
M  V30 1863 H 167.041 2.04416 2.17386 0
M  V30 1864 C 165.79 0.75424 3.39421 0
M  V30 1865 H 165.113 1.57404 3.67511 0
M  V30 1866 H 166.553 0.669903 4.18674 0
M  V30 1867 C 165.012 -0.541197 3.32525 0
M  V30 1868 O 165.542 -1.57664 3.69466 0
M  V30 1869 N 163.748 -0.535517 2.85623 0
M  V30 1870 H 163.295 0.307511 2.55758 0
M  V30 1871 H 163.253 -1.40236 2.81392 0
M  V30 1872 N 167.025 -1.13721 1.09112 0
M  V30 1873 C 168.272 -1.84924 0.825192 0
M  V30 1874 C 168.6 -1.83347 -0.649151 0
M  V30 1875 O 167.855 -1.26449 -1.49362 0
M  V30 1876 C 168.154 -3.32861 1.30146 0
M  V30 1877 C 167.82 -3.54621 2.78486 0
M  V30 1878 C 166.482 -3.60268 3.18999 0
M  V30 1879 C 168.834 -3.62855 3.74146 0
M  V30 1880 C 166.162 -3.71679 4.53951 0
M  V30 1881 C 168.514 -3.75793 5.08883 0
M  V30 1882 C 167.178 -3.79692 5.4899 0
M  V30 1883 H 166.448 -0.676684 0.301959 0
M  V30 1884 H 169.095 -1.3428 1.36533 0
M  V30 1885 H 167.4 -3.85835 0.681064 0
M  V30 1886 H 169.097 -3.86395 1.07236 0
M  V30 1887 H 165.687 -3.50879 2.46134 0
M  V30 1888 H 169.871 -3.57775 3.43963 0
M  V30 1889 H 165.127 -3.72963 4.84467 0
M  V30 1890 H 169.301 -3.81107 5.82864 0
M  V30 1891 H 166.928 -3.88287 6.53558 0
M  V30 1892 N 168.503 -0.877838 -1.30888 0
M  V30 1893 C 169.45 -0.337538 -2.28318 0
M  V30 1894 C 170.42 0.568346 -1.56074 0
M  V30 1895 O 171.605 0.498298 -1.84178 0
M  V30 1896 C 168.745 0.448142 -3.42178 0
M  V30 1897 C 167.858 -0.48615 -4.29256 0
M  V30 1898 C 166.993 0.314427 -5.30269 0
M  V30 1899 C 166.032 -0.615791 -6.08995 0
M  V30 1900 N 165.169 0.14902 -7.01942 0
M  V30 1901 H 170.009 -1.17356 -2.73919 0
M  V30 1902 H 167.546 -0.590094 -1.34745 0
M  V30 1903 H 169.504 0.919517 -4.06941 0
M  V30 1904 H 168.134 1.24879 -2.97666 0
M  V30 1905 H 167.186 -1.076 -3.64865 0
M  V30 1906 H 168.498 -1.19909 -4.84173 0
M  V30 1907 H 167.652 0.847969 -6.00745 0
M  V30 1908 H 166.391 1.06062 -4.76027 0
M  V30 1909 H 165.396 -1.16102 -5.37401 0
M  V30 1910 H 166.621 -1.36097 -6.65323 0
M  V30 1911 H 164.567 0.877884 -6.50099 0
M  V30 1912 H 164.484 -0.504433 -7.54315 0
M  V30 1913 H 165.752 0.663537 -7.76671 0
M  V30 1914 N 169.982 1.44106 -0.638065 0
M  V30 1915 C 170.914 2.28976 0.101205 0
M  V30 1916 C 171.927 1.4167 0.802088 0
M  V30 1917 O 173.116 1.65755 0.662375 0
M  V30 1918 C 170.216 3.18217 1.16581 0
M  V30 1919 C 169.389 4.33978 0.546066 0
M  V30 1920 C 168.448 5.04202 1.50554 0
M  V30 1921 O 167.474 5.59986 1.01999 0
M  V30 1922 N 168.676 5.06296 2.8398 0
M  V30 1923 H 171.441 2.93064 -0.627186 0
M  V30 1924 H 169.002 1.54629 -0.479731 0
M  V30 1925 H 170.994 3.62061 1.80815 0
M  V30 1926 H 169.564 2.55833 1.79634 0
M  V30 1927 H 168.784 3.93239 -0.275046 0
M  V30 1928 H 170.072 5.08675 0.112793 0
M  V30 1929 H 169.47 4.62319 3.26002 0
M  V30 1930 H 168.027 5.53907 3.43556 0
M  V30 1931 N 171.46 0.379036 1.52974 0
M  V30 1932 C 172.37 -0.468639 2.29872 0
M  V30 1933 C 173.386 -1.08067 1.36373 0
M  V30 1934 O 174.562 -1.08871 1.69438 0
M  V30 1935 C 171.627 -1.58594 3.083 0
M  V30 1936 C 170.688 -1.00007 4.17489 0
M  V30 1937 C 169.921 -2.06413 4.92168 0
M  V30 1938 O 170.144 -3.27751 4.66835 0
M  V30 1939 O 169.078 -1.68717 5.7777 0
M  V30 1940 H 172.904 0.157508 3.03291 0
M  V30 1941 H 170.489 0.143035 1.48714 0
M  V30 1942 H 172.371 -2.23525 3.57232 0
M  V30 1943 H 171.046 -2.19724 2.37703 0
M  V30 1944 H 169.953 -0.314299 3.72777 0
M  V30 1945 H 171.286 -0.433135 4.90291 0
M  V30 1946 N 172.938 -1.57226 0.108567 0
M  V30 1947 C 174.184 -1.95121 -0.552761 0
M  V30 1948 C 174.517 -0.991345 -1.66991 0
M  V30 1949 O 173.792 -0.0267211 -1.94482 0
M  V30 1950 C 174.075 -3.43039 -1.09528 0
M  V30 1951 C 173.928 -4.49797 0.0177332 0
M  V30 1952 C 175.247 -3.92567 -1.98945 0
M  V30 1953 H 172.366 -0.709496 -0.199461 0
M  V30 1954 H 175.008 -1.89126 0.182011 0
M  V30 1955 H 173.158 -3.48279 -1.72146 0
M  V30 1956 H 174.83 -4.56661 0.652584 0
M  V30 1957 H 173.073 -4.284 0.682309 0
M  V30 1958 H 173.744 -5.50528 -0.402919 0
M  V30 1959 H 176.22 -3.89565 -1.46214 0
M  V30 1960 H 175.096 -4.96605 -2.33827 0
M  V30 1961 H 175.357 -3.32648 -2.91201 0
M  V30 1962 N 174.416 0.165178 -1.56732 0
M  V30 1963 C 175.644 0.896218 -1.86482 0
M  V30 1964 C 176.059 1.75555 -0.694675 0
M  V30 1965 O 175.416 1.79379 0.33607 0
M  V30 1966 C 175.467 1.76792 -3.1532 0
M  V30 1967 O 175.188 0.943239 -4.27825 0
M  V30 1968 C 176.689 2.6081 -3.58459 0
M  V30 1969 H 173.909 0.260064 -0.618553 0
M  V30 1970 H 176.453 0.163428 -2.03846 0
M  V30 1971 H 174.608 2.45398 -2.99764 0
M  V30 1972 H 175.022 1.53998 -5.01383 0
M  V30 1973 H 176.496 3.17579 -4.51495 0
M  V30 1974 H 176.973 3.35977 -2.82872 0
M  V30 1975 H 177.579 1.97526 -3.76648 0
M  V30 1976 N 175.894 1.51508 0.433938 0
M  V30 1977 C 177.31 1.39759 0.770682 0
M  V30 1978 C 177.51 0.482594 1.95636 0
M  V30 1979 O 176.566 -0.0609691 2.52426 0
M  V30 1980 C 177.879 2.81851 1.04787 0
M  V30 1981 C 179.427 2.91025 1.1521 0
M  V30 1982 C 179.902 4.34032 1.46219 0
M  V30 1983 N 181.393 4.37154 1.53136 0
M  V30 1984 C 182.128 5.4484 1.78709 0
M  V30 1985 N 181.624 6.62682 2.02051 0
M  V30 1986 N 183.417 5.32324 1.80519 0
M  V30 1987 H 175.568 2.09548 -0.346892 0
M  V30 1988 H 177.831 0.943446 -0.0928074 0
M  V30 1989 H 177.537 3.50815 0.249304 0
M  V30 1990 H 177.411 3.21386 1.97461 0
M  V30 1991 H 179.798 2.22257 1.94128 0
M  V30 1992 H 179.879 2.54983 0.204281 0
M  V30 1993 H 179.523 5.03351 0.678274 0
M  V30 1994 H 179.453 4.6759 2.42212 0
M  V30 1995 H 181.944 3.52197 1.36987 0
M  V30 1996 H 182.257 7.40543 2.20943 0
M  V30 1997 H 180.602 6.65791 1.99366 0
M  V30 1998 H 183.793 4.39246 1.61805 0
M  V30 1999 H 183.966 6.16328 2.00111 0
M  V30 2000 N 177.372 -0.689602 1.41712 0
M  V30 2001 C 178.282 -1.83314 1.46401 0
M  V30 2002 C 179.298 -1.7036 0.35405 0
M  V30 2003 O 180.474 -1.92171 0.602692 0
M  V30 2004 C 177.539 -3.19344 1.34982 0
M  V30 2005 C 176.6 -3.44363 2.56344 0
M  V30 2006 C 175.833 -4.73904 2.45461 0
M  V30 2007 O 176.056 -5.508 1.48241 0
M  V30 2008 O 174.99 -4.99839 3.35328 0
M  V30 2009 H 178.816 -1.82314 2.42889 0
M  V30 2010 H 176.401 -0.843438 1.23315 0
M  V30 2011 H 178.283 -4.00547 1.3092 0
M  V30 2012 H 176.958 -3.21014 0.41612 0
M  V30 2013 H 175.865 -2.63067 2.65982 0
M  V30 2014 H 177.198 -3.47512 3.48563 0
M  V30 2015 N 178.85 -1.27639 -0.924453 0
M  V30 2016 C 180.096 -1.15345 -1.67532 0
M  V30 2017 C 180.451 0.297096 -1.90092 0
M  V30 2018 O 179.744 1.21374 -1.48253 0
M  V30 2019 C 179.938 -1.87407 -3.04325 0
M  V30 2020 C 179.767 -3.3932 -2.95114 0
M  V30 2021 C 178.537 -4.08644 -2.97218 0
M  V30 2022 C 180.735 -4.35242 -2.73987 0
M  V30 2023 N 178.717 -5.47102 -2.78482 0
M  V30 2024 C 180.088 -5.6099 -2.63988 0
M  V30 2025 C 182.143 -4.25294 -2.589 0
M  V30 2026 C 180.846 -6.77924 -2.40442 0
M  V30 2027 C 182.872 -5.41952 -2.36731 0
M  V30 2028 C 182.234 -6.66658 -2.27478 0
M  V30 2029 H 178.333 -0.47696 -0.619704 0
M  V30 2030 H 180.917 -1.6115 -1.09265 0
M  V30 2031 H 179.088 -1.44053 -3.60699 0
M  V30 2032 H 180.82 -1.6759 -3.68369 0
M  V30 2033 H 177.575 -3.60136 -3.07569 0
M  V30 2034 H 177.999 -6.19852 -2.72236 0
M  V30 2035 H 182.641 -3.29598 -2.64811 0
M  V30 2036 H 180.359 -7.73699 -2.3327 0
M  V30 2037 H 183.945 -5.36137 -2.25938 0
M  V30 2038 H 182.825 -7.55405 -2.10555 0
M  V30 2039 N 180.328 1.1314 -1.09713 0
M  V30 2040 C 181.258 2.20748 -0.761102 0
M  V30 2041 C 182.239 1.68061 0.262566 0
M  V30 2042 O 183.424 1.93765 0.129977 0
M  V30 2043 C 180.554 3.46812 -0.184054 0
M  V30 2044 C 179.508 4.12606 -1.13757 0
M  V30 2045 C 178.834 5.33031 -0.422083 0
M  V30 2046 C 180.134 4.59603 -2.48118 0
M  V30 2047 H 181.828 2.49113 -1.66082 0
M  V30 2048 H 179.374 1.19734 -0.799987 0
M  V30 2049 H 181.327 4.21353 0.0631215 0
M  V30 2050 H 180.051 3.17851 0.750868 0
M  V30 2051 H 178.71 3.40036 -1.37007 0
M  V30 2052 H 178.358 5.00335 0.517072 0
M  V30 2053 H 178.058 5.77999 -1.05788 0
M  V30 2054 H 179.582 6.10325 -0.183277 0
M  V30 2055 H 180.996 5.25552 -2.29059 0
M  V30 2056 H 179.393 5.15321 -3.07514 0
M  V30 2057 H 180.463 3.73971 -3.08665 0
M  V30 2058 N 181.806 0.884767 1.30421 0
M  V30 2059 C 182.736 0.367574 2.30589 0
M  V30 2060 C 183.717 -0.549464 1.60981 0
M  V30 2061 O 184.902 -0.46336 1.88591 0
M  V30 2062 C 182.032 -0.418944 3.44764 0
M  V30 2063 C 180.986 0.406316 4.26067 0
M  V30 2064 C 180.312 -0.506793 5.32293 0
M  V30 2065 C 181.612 1.64832 4.95608 0
M  V30 2066 H 183.306 1.20462 2.74097 0
M  V30 2067 H 180.852 0.580695 1.31772 0
M  V30 2068 H 182.805 -0.791395 4.13902 0
M  V30 2069 H 181.529 -1.28964 3.0006 0
M  V30 2070 H 180.188 0.760903 3.58617 0
M  V30 2071 H 179.836 -1.37519 4.83836 0
M  V30 2072 H 179.536 0.0415828 5.87585 0
M  V30 2073 H 181.06 -0.875764 6.04287 0
M  V30 2074 H 182.474 1.34646 5.57264 0
M  V30 2075 H 180.871 2.13688 5.60765 0
M  V30 2076 H 181.941 2.39284 4.21748 0
M  V30 2077 N 183.284 -1.43765 0.645699 0
M  V30 2078 C 184.232 -2.32516 -0.0624849 0
M  V30 2079 C 185.226 -1.48183 -0.820855 0
M  V30 2080 O 186.432 -1.64439 -0.732106 0
M  V30 2081 H 182.807 -0.750989 -0.0389864 0
M  V30 2082 H 184.778 -2.89979 0.703892 0
M  V30 2083 C 183.527 -3.32389 -1.02044 0
M  V30 2084 H 182.85 -3.97301 -0.446312 0
M  V30 2085 H 184.29 -3.97138 -1.48517 0
M  V30 2086 C 182.749 -2.62416 -2.11281 0
M  V30 2087 O 183.279 -2.434 -3.19561 0
M  V30 2088 N 181.485 -2.21913 -1.87624 0
M  V30 2089 H 181.032 -2.37578 -0.995703 0
M  V30 2090 H 180.99 -1.75424 -2.6091 0
M  V30 2091 N 184.763 -0.387143 -1.52771 0
M  V30 2092 C 185.695 0.484089 -2.2403 0
M  V30 2093 C 186.708 1.02849 -1.26198 0
M  V30 2094 O 187.897 0.931186 -1.52286 0
M  V30 2095 C 184.997 1.68337 -2.94136 0
M  V30 2096 C 184.17 1.26672 -4.18656 0
M  V30 2097 C 183.229 2.33045 -4.7178 0
M  V30 2098 O 182.255 1.94541 -5.34923 0
M  V30 2099 N 183.457 3.64929 -4.5145 0
M  V30 2100 H 186.222 -0.126404 -2.99433 0
M  V30 2101 H 183.783 -0.213392 -1.60488 0
M  V30 2102 H 185.775 2.39019 -3.26577 0
M  V30 2103 H 184.345 2.20025 -2.22053 0
M  V30 2104 H 183.565 0.388878 -3.92277 0
M  V30 2105 H 184.853 0.964964 -4.99566 0
M  V30 2106 H 184.251 3.98974 -4.01044 0
M  V30 2107 H 182.808 4.31651 -4.88386 0
M  V30 2108 N 186.241 1.57166 -0.116904 0
M  V30 2109 C 187.188 2.15202 0.83408 0
M  V30 2110 C 188.158 1.07644 1.26499 0
M  V30 2111 O 189.343 1.35541 1.34288 0
M  V30 2112 C 186.483 2.75405 2.07957 0
M  V30 2113 C 185.596 3.97264 1.69721 0
M  V30 2114 C 184.731 4.45561 2.89221 0
M  V30 2115 C 183.77 5.59956 2.47215 0
M  V30 2116 N 182.907 6.03006 3.59622 0
M  V30 2117 H 187.747 2.96141 0.332335 0
M  V30 2118 H 185.284 1.46309 0.152349 0
M  V30 2119 H 187.242 3.08439 2.80929 0
M  V30 2120 H 185.872 1.97159 2.55594 0
M  V30 2121 H 184.924 3.70404 0.866316 0
M  V30 2122 H 186.236 4.80226 1.34849 0
M  V30 2123 H 185.39 4.80493 3.7042 0
M  V30 2124 H 184.129 3.61544 3.27318 0
M  V30 2125 H 183.134 5.2463 1.64448 0
M  V30 2126 H 184.359 6.45738 2.10238 0
M  V30 2127 H 182.305 5.21931 3.97396 0
M  V30 2128 H 182.222 6.80819 3.28667 0
M  V30 2129 H 183.49 6.42576 4.41267 0
M  V30 2130 N 187.719 -0.156864 1.56817 0
M  V30 2131 C 188.967 -0.869404 1.82444 0
M  V30 2132 C 189.288 -1.82147 0.69623 0
M  V30 2133 O 188.558 -1.93847 -0.28287 0
M  V30 2134 H 187.138 -0.324043 0.673056 0
M  V30 2135 H 189.8 -0.153224 1.94297 0
M  V30 2136 H 188.896 -1.43761 2.77019 0
M  V30 2137 N 189.197 -1.51736 -0.425897 0
M  V30 2138 C 190.443 -1.65214 -1.1761 0
M  V30 2139 C 190.776 -0.372778 -1.90589 0
M  V30 2140 O 190.051 0.628139 -1.84078 0
M  V30 2141 C 190.334 -2.86312 -2.18398 0
M  V30 2142 C 190.187 -4.24254 -1.49426 0
M  V30 2143 C 191.506 -3.02925 -3.19256 0
M  V30 2144 H 188.625 -0.601263 -0.426206 0
M  V30 2145 H 191.267 -1.8425 -0.463882 0
M  V30 2146 H 189.417 -2.70213 -2.79137 0
M  V30 2147 H 191.089 -4.52046 -0.919362 0
M  V30 2148 H 189.332 -4.26426 -0.796432 0
M  V30 2149 H 190.003 -5.05001 -2.22885 0
M  V30 2150 H 192.479 -3.1781 -2.68581 0
M  V30 2151 H 191.355 -3.89199 -3.8706 0
M  V30 2152 H 191.616 -2.15497 -3.86023 0
M  V30 2153 N 190.675 0.682077 -1.42076 0
M  V30 2154 C 191.923 1.4393 -1.41876 0
M  V30 2155 C 192.244 1.94971 -0.0335599 0
M  V30 2156 O 191.514 1.72591 0.926773 0
M  V30 2157 H 190.094 0.534085 -0.522267 0
M  V30 2158 H 192.756 0.806427 -1.77434 0
M  V30 2159 H 191.852 2.29588 -2.11414 0
M  V30 2160 N 192.153 1.28127 0.917671 0
M  V30 2161 C 193.1 1.11717 2.0196 0
M  V30 2162 C 194.07 0.0153929 1.66093 0
M  V30 2163 O 195.255 0.179596 1.89953 0
M  V30 2164 C 192.395 0.780927 3.36148 0
M  V30 2165 C 191.508 1.96135 3.84909 0
M  V30 2166 C 190.643 1.56609 5.0759 0
M  V30 2167 C 189.682 2.71339 5.48673 0
M  V30 2168 N 188.819 2.32332 6.62545 0
M  V30 2169 H 193.659 2.06003 2.15329 0
M  V30 2170 H 191.196 1.02535 1.05475 0
M  V30 2171 H 193.154 0.56675 4.13333 0
M  V30 2172 H 191.784 -0.124998 3.22558 0
M  V30 2173 H 190.836 2.28777 3.03916 0
M  V30 2174 H 192.148 2.82165 4.1132 0
M  V30 2175 H 191.302 1.31374 5.92305 0
M  V30 2176 H 190.041 0.677014 4.82978 0
M  V30 2177 H 189.046 2.97276 4.62501 0
M  V30 2178 H 190.271 3.60882 5.75274 0
M  V30 2179 H 188.217 1.45889 6.39572 0
M  V30 2180 H 188.134 3.11899 6.88662 0
M  V30 2181 H 189.402 2.10371 7.50576 0
M  V30 2182 N 193.631 -1.12557 1.10312 0
M  V30 2183 C 194.541 -2.21841 0.763142 0
M  V30 2184 C 195.557 -1.72354 -0.238801 0
M  V30 2185 O 196.733 -2.01249 -0.0778746 0
M  V30 2186 C 193.798 -3.46131 0.198632 0
M  V30 2187 C 192.859 -4.10464 1.25769 0
M  V30 2188 C 192.092 -5.28821 0.72002 0
M  V30 2189 O 192.315 -5.6859 -0.453993 0
M  V30 2190 O 191.249 -5.83437 1.47935 0
M  V30 2191 H 195.075 -2.53312 1.67532 0
M  V30 2192 H 192.66 -1.20867 0.878157 0
M  V30 2193 H 194.542 -4.2125 -0.112401 0
M  V30 2194 H 193.217 -3.16338 -0.686419 0
M  V30 2195 H 192.124 -3.3713 1.62156 0
M  V30 2196 H 193.457 -4.44408 2.11571 0
M  V30 2197 N 195.109 -0.891671 -1.2995 0
M  V30 2198 C 196.334 -0.527932 -2.00568 0
M  V30 2199 C 196.759 0.877969 -1.66353 0
M  V30 2200 O 196.117 1.58301 -0.883762 0
M  V30 2201 C 196.165 -0.717745 -3.53385 0
M  V30 2202 O 195.269 0.233376 -4.11739 0
M  V30 2203 H 194.61 -0.20722 -0.630837 0
M  V30 2204 H 197.14 -1.20105 -1.65638 0
M  V30 2205 H 197.15 -0.619307 -4.03272 0
M  V30 2206 H 195.825 -1.74276 -3.77625 0
M  V30 2207 H 194.402 0.0880706 -3.72796 0
M  V30 2208 N 196.587 1.43421 -0.653314 0
M  V30 2209 C 197.55 2.29182 0.0287951 0
M  V30 2210 C 198.55 1.42213 0.750465 0
M  V30 2211 O 199.74 1.63843 0.591701 0
M  V30 2212 C 196.872 3.24278 1.05151 0
M  V30 2213 H 198.065 2.90985 -0.725786 0
M  V30 2214 H 195.618 1.50702 -0.414545 0
M  V30 2215 H 196.353 2.6737 1.83532 0
M  V30 2216 H 196.138 3.88396 0.537687 0
M  V30 2217 H 197.628 3.88647 1.52786 0
M  V30 2218 N 198.065 0.39524 1.52563 0
M  V30 2219 C 199.342 -0.242908 1.94086 0
M  V30 2220 C 199.722 -1.63841 1.33114 0
M  V30 2221 O 199.07 -2.22928 0.501529 0
M  V30 2222 C 199.28 -0.26327 3.48006 0
M  V30 2223 C 200.628 -0.489354 4.21771 0
M  V30 2224 O 201.652 -0.343226 3.54543 0
M  V30 2225 O 200.511 -0.776169 5.4096 0
M  V30 2226 H 197.605 -0.152536 0.812811 0
M  V30 2227 H 200.151 0.450178 1.6362 0
M  V30 2228 H 198.923 0.713985 3.84731 0
M  V30 2229 H 198.546 -1.00103 3.84792 0
M  V30 2230 N 199.544 -1.57102 0.125237 0
M  V30 2231 C 200.507 -2.14471 -0.80838 0
M  V30 2232 C 201.507 -1.0811 -1.19033 0
M  V30 2233 O 202.697 -1.33856 -1.11482 0
M  V30 2234 C 199.829 -2.69005 -2.09402 0
M  V30 2235 H 201.022 -2.98297 -0.309696 0
M  V30 2236 H 198.575 -1.55807 -0.124051 0
M  V30 2237 H 199.31 -1.88785 -2.63687 0
M  V30 2238 H 199.095 -3.46799 -1.82957 0
M  V30 2239 H 200.585 -3.13278 -2.76128 0
M  V30 2240 N 201.022 0.148545 -1.56898 0
M  V30 2241 C 202.271 0.85984 -1.82454 0
M  V30 2242 C 202.584 1.82406 -0.706229 0
M  V30 2243 O 203.79 2.57938 -0.847349 0
M  V30 2244 C 202.246 1.57967 -3.2338 0
M  V30 2245 C 201.854 0.65794 -4.43142 0
M  V30 2246 C 203.598 2.27784 -3.58211 0
M  V30 2247 C 201.505 1.3793 -5.75091 0
M  V30 2248 H 200.435 0.324834 -0.68044 0
M  V30 2249 H 203.086 0.112588 -1.83154 0
M  V30 2250 H 201.468 2.37249 -3.17063 0
M  V30 2251 H 202.642 -0.0995497 -4.60692 0
M  V30 2252 H 200.957 0.0682643 -4.16344 0
M  V30 2253 H 203.554 2.8239 -4.54048 0
M  V30 2254 H 203.897 3.04204 -2.84193 0
M  V30 2255 H 204.43 1.55421 -3.66182 0
M  V30 2256 H 201.169 0.656982 -6.52199 0
M  V30 2257 H 200.689 2.10954 -5.61479 0
M  V30 2258 H 202.368 1.92063 -6.17835 0
M  V30 2259 N 202.5 1.5196 0.417844 0
M  V30 2260 C 203.43 1.77634 1.51554 0
M  V30 2261 C 204.411 0.626918 1.58126 0
M  V30 2262 O 205.596 0.871632 1.7354 0
M  V30 2263 C 202.726 1.91911 2.8946 0
M  V30 2264 C 201.68 3.07463 2.97743 0
M  V30 2265 C 201.006 3.06951 4.37819 0
M  V30 2266 C 202.306 4.47082 2.70027 0
M  V30 2267 H 204 2.6955 1.3032 0
M  V30 2268 H 201.546 1.29706 0.625492 0
M  V30 2269 H 203.499 2.08455 3.6623 0
M  V30 2270 H 202.223 0.966598 3.11969 0
M  V30 2271 H 200.882 2.90656 2.23416 0
M  V30 2272 H 200.53 2.09438 4.57323 0
M  V30 2273 H 200.23 3.84556 4.44286 0
M  V30 2274 H 201.754 3.25613 5.16535 0
M  V30 2275 H 203.168 4.6414 3.36522 0
M  V30 2276 H 201.565 5.2654 2.87881 0
M  V30 2277 H 202.635 4.55777 1.65514 0
M  V30 2278 N 203.978 -0.674533 1.42435 0
M  V30 2279 C 205.218 -1.4466 1.44405 0
M  V30 2280 C 205.582 -1.91911 0.0585784 0
M  V30 2281 O 206.783 -2.68759 -0.0469991 0
M  V30 2282 C 205.054 -2.61136 2.44013 0
M  V30 2283 S 206.613 -3.49981 2.64687 0
M  V30 2284 H 203.431 -0.494074 0.511284 0
M  V30 2285 H 206.033 -0.785162 1.7904 0
M  V30 2286 H 204.737 -2.24662 3.43446 0
M  V30 2287 H 204.268 -3.32153 2.10803 0
M  V30 2288 H 206.283 -4.57124 1.93007 0
M  V30 2289 N 205.456 -1.28612 -0.910864 0
M  V30 2290 C 206.686 -1.1862 -1.69153 0
M  V30 2291 C 207.094 0.257324 -1.87442 0
M  V30 2292 O 206.437 1.18543 -1.40332 0
M  V30 2293 C 206.499 -1.81606 -3.10257 0
M  V30 2294 C 206.163 -3.30864 -3.15243 0
M  V30 2295 C 207.16 -4.27256 -2.96223 0
M  V30 2296 C 204.845 -3.71871 -3.37664 0
M  V30 2297 C 206.839 -5.62631 -2.99541 0
M  V30 2298 C 204.526 -5.07371 -3.40614 0
M  V30 2299 C 205.524 -6.02561 -3.21573 0
M  V30 2300 O 205.212 -7.35589 -3.2429 0
M  V30 2301 H 204.944 -0.412633 -0.535453 0
M  V30 2302 H 207.498 -1.70306 -1.14827 0
M  V30 2303 H 205.728 -1.24418 -3.66138 0
M  V30 2304 H 207.417 -1.66092 -3.70362 0
M  V30 2305 H 208.183 -3.9691 -2.78725 0
M  V30 2306 H 204.062 -2.98241 -3.5153 0
M  V30 2307 H 207.606 -6.36907 -2.84597 0
M  V30 2308 H 203.503 -5.37366 -3.57642 0
M  V30 2309 H 204.271 -7.44252 -3.40633 0
M  V30 2310 N 206.934 1.1197 -1.10907 0
M  V30 2311 C 208.18 1.8386 -0.855773 0
M  V30 2312 C 208.513 1.84134 0.617103 0
M  V30 2313 O 207.788 1.29041 1.45529 0
M  V30 2314 C 208.071 3.31305 -1.411 0
M  V30 2315 C 207.924 3.39456 -2.9511 0
M  V30 2316 C 209.243 4.2721 -1.05736 0
M  V30 2317 H 206.362 0.667545 -0.312334 0
M  V30 2318 H 209.004 1.31331 -1.37303 0
M  V30 2319 H 207.154 3.76169 -0.97105 0
M  V30 2320 H 208.826 3.03191 -3.47668 0
M  V30 2321 H 207.069 2.79849 -3.31462 0
M  V30 2322 H 207.74 4.43209 -3.29044 0
M  V30 2323 H 210.216 3.90497 -1.43706 0
M  V30 2324 H 209.092 5.28775 -1.47269 0
M  V30 2325 H 209.353 4.42088 0.0325958 0
M  V30 2326 N 208.412 0.89855 1.29475 0
M  V30 2327 C 209.652 0.530771 1.97388 0
M  V30 2328 C 210.016 -0.905832 1.69289 0
M  V30 2329 O 211.217 -1.38042 2.30646 0
M  V30 2330 C 209.488 0.81369 3.48014 0
M  V30 2331 S 211.047 0.550048 4.35339 0
M  V30 2332 H 207.865 0.196956 0.683176 0
M  V30 2333 H 210.467 1.16074 1.57312 0
M  V30 2334 H 209.171 1.85749 3.65958 0
M  V30 2335 H 208.702 0.171795 3.93025 0
M  V30 2336 H 210.717 -0.605423 4.92493 0
M  V30 2337 N 209.89 -1.43072 0.660911 0
M  V30 2338 C 210.853 -2.29194 -0.0166406 0
M  V30 2339 C 211.853 -1.42609 -0.742912 0
M  V30 2340 O 213.043 -1.64155 -0.583004 0
M  V30 2341 C 210.175 -3.24831 -1.0343 0
M  V30 2342 H 211.368 -2.90596 0.741208 0
M  V30 2343 H 208.921 -1.5048 0.422532 0
M  V30 2344 H 209.656 -2.68339 -1.82111 0
M  V30 2345 H 209.441 -3.88676 -0.517082 0
M  V30 2346 H 210.931 -3.89451 -1.50723 0
M  V30 2347 N 211.368 -0.403325 -1.52352 0
M  V30 2348 C 212.315 0.425011 -2.26853 0
M  V30 2349 C 213.285 1.04598 -1.29029 0
M  V30 2350 O 214.47 1.07135 -1.57882 0
M  V30 2351 C 211.61 1.53888 -3.08889 0
M  V30 2352 C 210.723 0.939396 -4.21663 0
M  V30 2353 C 209.858 2.02547 -4.91068 0
M  V30 2354 C 208.897 1.40263 -5.95813 0
M  V30 2355 N 208.034 2.4286 -6.58759 0
M  V30 2356 H 212.874 -0.21674 -2.97211 0
M  V30 2357 H 210.411 -0.118722 -1.4662 0
M  V30 2358 H 212.369 2.19558 -3.54753 0
M  V30 2359 H 210.999 2.15074 -2.40714 0
M  V30 2360 H 210.051 0.171898 -3.80011 0
M  V30 2361 H 211.363 0.44436 -4.96817 0
M  V30 2362 H 210.517 2.75958 -5.40308 0
M  V30 2363 H 209.256 2.55415 -4.15469 0
M  V30 2364 H 208.261 0.653833 -5.45898 0
M  V30 2365 H 209.486 0.881719 -6.73352 0
M  V30 2366 H 207.432 2.94871 -5.85992 0
M  V30 2367 H 207.349 1.98152 -7.2957 0
M  V30 2368 H 208.617 3.15858 -7.12639 0
M  V30 2369 N 212.846 1.57033 -0.133567 0
M  V30 2370 C 213.756 2.19632 0.824564 0
M  V30 2371 C 214.772 1.17666 1.28182 0
M  V30 2372 O 215.948 1.50193 1.3418 0
M  V30 2373 C 213.013 2.79499 2.05137 0
M  V30 2374 C 212.074 3.96548 1.64464 0
M  V30 2375 C 211.307 4.5355 2.81297 0
M  V30 2376 O 211.53 4.09438 3.97136 0
M  V30 2377 O 210.464 5.44018 2.57542 0
M  V30 2378 H 214.29 3.01991 0.321766 0
M  V30 2379 H 211.875 1.49112 0.0927889 0
M  V30 2380 H 213.757 3.17602 2.7696 0
M  V30 2381 H 212.432 2.00162 2.54395 0
M  V30 2382 H 211.339 3.63186 0.897048 0
M  V30 2383 H 212.672 4.77364 1.19934 0
M  V30 2384 N 214.325 -0.140222 1.56975 0
M  V30 2385 C 215.571 -0.852949 1.83991 0
M  V30 2386 C 215.904 -1.80512 0.716187 0
M  V30 2387 O 215.179 -1.92479 -0.279681 0
M  V30 2388 C 215.462 -1.6215 3.21527 0
M  V30 2389 C 215.315 -0.690363 4.4447 0
M  V30 2390 C 216.634 -2.58247 3.56366 0
M  V30 2391 H 213.753 -0.308634 0.669264 0
M  V30 2392 H 216.395 -0.117898 1.89634 0
M  V30 2393 H 214.545 -2.24812 3.16847 0
M  V30 2394 H 216.217 -0.0742264 4.6124 0
M  V30 2395 H 214.46 -0.000396433 4.338 0
M  V30 2396 H 215.131 -1.2643 5.37326 0
M  V30 2397 H 217.607 -2.05701 3.61699 0
M  V30 2398 H 216.483 -3.09067 4.53617 0
M  V30 2399 H 216.744 -3.39923 2.82674 0
M  V30 2400 N 215.803 -1.52179 -0.40978 0
M  V30 2401 C 216.736 -1.70196 -1.52015 0
M  V30 2402 C 217.714 -0.549542 -1.53032 0
M  V30 2403 O 218.898 -0.776815 -1.71749 0
M  V30 2404 C 216.025 -1.74069 -2.90547 0
M  V30 2405 C 215.071 -2.95601 -3.07445 0
M  V30 2406 S 215.904 -4.55956 -2.80827 0
M  V30 2407 C 217.06 -4.62614 -4.21591 0
M  V30 2408 H 217.293 -2.64109 -1.36504 0
M  V30 2409 H 214.826 -1.4221 -0.601312 0
M  V30 2410 H 216.784 -1.76985 -3.70387 0
M  V30 2411 H 215.445 -0.812835 -3.034 0
M  V30 2412 H 214.638 -2.94791 -4.08796 0
M  V30 2413 H 214.24 -2.90569 -2.35469 0
M  V30 2414 H 216.532 -4.39951 -5.15218 0
M  V30 2415 H 217.475 -5.64548 -4.27424 0
M  V30 2416 H 217.883 -3.91654 -4.06531 0
M  V30 2417 N 217.281 0.66697 -1.42791 0
M  V30 2418 C 218.527 1.4291 -1.43891 0
M  V30 2419 C 218.86 1.94114 -0.0578972 0
M  V30 2420 O 218.135 1.71414 0.91911 0
M  V30 2421 C 218.418 2.62049 -2.46987 0
M  V30 2422 C 218.271 2.16426 -3.94309 0
M  V30 2423 C 219.59 3.64266 -2.46978 0
M  V30 2424 H 216.709 0.518306 -0.523954 0
M  V30 2425 H 219.351 0.757321 -1.74255 0
M  V30 2426 H 217.501 3.19361 -2.21225 0
M  V30 2427 H 219.173 1.64221 -4.31079 0
M  V30 2428 H 217.416 1.47925 -4.078 0
M  V30 2429 H 218.087 3.02038 -4.62036 0
M  V30 2430 H 220.563 3.16686 -2.69906 0
M  V30 2431 H 219.439 4.45196 -3.21079 0
M  V30 2432 H 219.7 4.15927 -1.49857 0
M  V30 2433 N 218.759 1.29093 0.90403 0
M  V30 2434 C 220.005 1.16986 1.65656 0
M  V30 2435 C 220.338 -0.278925 1.92186 0
M  V30 2436 O 219.613 -1.2019 1.5292 0
M  V30 2437 C 219.896 1.97908 3.0084 0
M  V30 2438 C 219.749 3.50903 2.81403 0
M  V30 2439 C 221.068 1.80208 4.01513 0
M  V30 2440 H 218.187 0.426346 0.601164 0
M  V30 2441 H 220.829 1.58518 1.04747 0
M  V30 2442 H 218.979 1.62616 3.52829 0
M  V30 2443 H 220.651 3.96153 2.36348 0
M  V30 2444 H 218.894 3.76045 2.1627 0
M  V30 2445 H 219.565 4.02791 3.77443 0
M  V30 2446 H 222.041 2.11025 3.58619 0
M  V30 2447 H 220.917 2.39184 4.94047 0
M  V30 2448 H 221.178 0.756119 4.35586 0
M  V30 2449 N 220.237 -1.11381 1.11499 0
M  V30 2450 C 221.514 -1.7955 0.775965 0
M  V30 2451 C 221.894 -1.97859 -0.73588 0
M  V30 2452 O 221.242 -1.56376 -1.66609 0
M  V30 2453 C 221.452 -3.13196 1.53977 0
M  V30 2454 C 222.8 -3.88227 1.71944 0
M  V30 2455 O 223.824 -3.22887 1.50407 0
M  V30 2456 O 222.683 -5.05477 2.07738 0
M  V30 2457 H 219.777 -0.777728 0.28119 0
M  V30 2458 H 222.323 -1.18118 1.21845 0
M  V30 2459 H 221.095 -2.95229 2.56818 0
M  V30 2460 H 220.718 -3.82342 1.09088 0
M  V30 2461 N 221.715 -0.905404 -1.28997 0
M  V30 2462 C 222.662 -0.385892 -2.27551 0
M  V30 2463 C 223.632 0.535113 -1.57244 0
M  V30 2464 O 224.817 0.459119 -1.85194 0
M  V30 2465 C 221.957 0.375461 -3.43051 0
M  V30 2466 C 221.07 -0.577092 -4.28128 0
M  V30 2467 C 220.205 0.201879 -5.30816 0
M  V30 2468 C 219.244 -0.744829 -6.07551 0
M  V30 2469 N 218.381 9.42587e-05 -7.021 0
M  V30 2470 H 223.221 -1.23139 -2.71368 0
M  V30 2471 H 220.758 -0.618542 -1.33463 0
M  V30 2472 H 222.716 0.832992 -4.088 0
M  V30 2473 H 221.346 1.18537 -3.00248 0
M  V30 2474 H 220.398 -1.15315 -3.62501 0
M  V30 2475 H 221.71 -1.30152 -4.8152 0
M  V30 2476 H 220.864 0.720351 -6.02408 0
M  V30 2477 H 219.603 0.959413 -4.7817 0
M  V30 2478 H 218.608 -1.27475 -5.34818 0
M  V30 2479 H 219.833 -1.50178 -6.62286 0
M  V30 2480 H 217.779 0.739791 -6.51815 0
M  V30 2481 H 217.696 -0.664321 -7.53076 0
M  V30 2482 H 218.964 0.498644 -7.77903 0
M  V30 2483 N 223.193 1.4272 -0.668489 0
M  V30 2484 C 224.423 2.05668 -0.196063 0
M  V30 2485 C 224.831 1.5028 1.14946 0
M  V30 2486 O 224.174 0.6348 1.72383 0
M  V30 2487 C 224.236 3.59469 -0.0468879 0
M  V30 2488 C 223.9 4.37518 -1.32012 0
M  V30 2489 C 224.897 4.68584 -2.25222 0
M  V30 2490 C 222.582 4.77266 -1.56596 0
M  V30 2491 C 224.576 5.38326 -3.41297 0
M  V30 2492 C 222.263 5.4675 -2.72962 0
M  V30 2493 C 223.261 5.77204 -3.65137 0
M  V30 2494 O 222.949 6.45264 -4.79468 0
M  V30 2495 H 222.681 0.669382 -0.0943599 0
M  V30 2496 H 225.235 1.83954 -0.913788 0
M  V30 2497 H 223.465 3.79817 0.726357 0
M  V30 2498 H 225.154 4.04071 0.384852 0
M  V30 2499 H 225.92 4.38382 -2.07477 0
M  V30 2500 H 221.799 4.52959 -0.857249 0
M  V30 2501 H 225.343 5.62014 -4.13263 0
M  V30 2502 H 221.24 5.76369 -2.90635 0
M  V30 2503 H 222.008 6.63753 -4.78931 0
M  V30 2504 N 224.671 0.411399 1.52136 0
M  V30 2505 C 225.896 -0.165538 2.06738 0
M  V30 2506 C 226.321 -1.379 1.27926 0
M  V30 2507 O 225.679 -1.78628 0.310114 0
M  V30 2508 C 225.727 -0.492124 3.57226 0
M  V30 2509 O 224.831 -1.58276 3.80818 0
M  V30 2510 H 224.172 -0.0132132 0.663869 0
M  V30 2511 H 226.702 0.585253 1.96051 0
M  V30 2512 H 226.712 -0.750104 4.01045 0
M  V30 2513 H 225.387 0.394922 4.14021 0
M  V30 2514 H 223.964 -1.31677 3.48877 0
M  V30 2515 N 226.149 -1.5696 0.141893 0
M  V30 2516 C 227.379 -2.00031 -0.516828 0
M  V30 2517 C 227.787 -1.02091 -1.59293 0
M  V30 2518 O 227.13 -0.00909657 -1.83698 0
M  V30 2519 C 227.192 -3.39534 -1.1814 0
M  V30 2520 C 226.856 -4.56313 -0.250513 0
M  V30 2521 C 227.853 -5.17295 0.519839 0
M  V30 2522 C 225.538 -5.02061 -0.154907 0
M  V30 2523 C 227.532 -6.2243 1.3733 0
M  V30 2524 C 225.219 -6.07053 0.702161 0
M  V30 2525 C 226.217 -6.67106 1.46487 0
M  V30 2526 O 225.905 -7.70066 2.30767 0
M  V30 2527 H 225.637 -0.661451 -0.139493 0
M  V30 2528 H 228.191 -2.04086 0.231926 0
M  V30 2529 H 226.421 -3.32302 -1.97769 0
M  V30 2530 H 228.11 -3.66745 -1.73933 0
M  V30 2531 H 228.876 -4.82852 0.45598 0
M  V30 2532 H 224.755 -4.5505 -0.7383 0
M  V30 2533 H 228.299 -6.69233 1.96909 0
M  V30 2534 H 224.196 -6.40923 0.76733 0
M  V30 2535 H 224.964 -7.87264 2.23959 0
M  V30 2536 N 227.627 0.131896 -1.57047 0
M  V30 2537 C 228.557 1.16384 -2.02428 0
M  V30 2538 C 229.538 1.43936 -0.90644 0
M  V30 2539 O 230.723 1.54599 -1.17528 0
M  V30 2540 C 227.853 2.49328 -2.4177 0
M  V30 2541 C 226.807 2.36266 -3.56879 0
M  V30 2542 C 226.133 3.74057 -3.8208 0
M  V30 2543 C 227.433 1.834 -4.89042 0
M  V30 2544 H 229.127 0.786433 -2.88887 0
M  V30 2545 H 226.673 0.376855 -1.38981 0
M  V30 2546 H 228.626 3.21759 -2.7212 0
M  V30 2547 H 227.35 2.88934 -1.52266 0
M  V30 2548 H 226.009 1.66286 -3.26718 0
M  V30 2549 H 225.657 4.11125 -2.89803 0
M  V30 2550 H 225.357 3.66174 -4.59554 0
M  V30 2551 H 226.881 4.48012 -4.1487 0
M  V30 2552 H 228.295 2.45636 -5.18011 0
M  V30 2553 H 226.692 1.8637 -5.70426 0
M  V30 2554 H 227.762 0.790662 -4.7841 0
M  V30 2555 N 229.106 1.52395 0.401703 0
M  V30 2556 C 230.353 1.66817 1.14796 0
M  V30 2557 C 230.681 0.401772 1.90305 0
M  V30 2558 O 229.936 -0.615487 1.85769 0
M  V30 2559 C 230.235 2.84578 2.16217 0
M  V30 2560 C 229.901 4.22513 1.5746 0
M  V30 2561 C 228.563 4.60029 1.41161 0
M  V30 2562 C 230.915 5.0844 1.14622 0
M  V30 2563 C 228.243 5.81144 0.80552 0
M  V30 2564 C 230.595 6.30167 0.55428 0
M  V30 2565 C 229.259 6.66426 0.378482 0
M  V30 2566 H 228.529 0.610428 0.420069 0
M  V30 2567 H 231.176 1.86512 0.434212 0
M  V30 2568 H 229.481 2.59248 2.93764 0
M  V30 2569 H 231.178 2.92933 2.73845 0
M  V30 2570 H 227.768 3.92953 1.71132 0
M  V30 2571 H 231.952 4.80034 1.26021 0
M  V30 2572 H 227.208 6.07855 0.657399 0
M  V30 2573 H 231.382 6.96071 0.213983 0
M  V30 2574 H 229.009 7.60143 -0.0932606 0
M  V30 2575 N 230.584 -0.659388 1.43143 0
M  V30 2576 C 231.514 -1.78422 1.50625 0
M  V30 2577 C 232.495 -1.66216 0.361443 0
M  V30 2578 O 233.68 -1.85404 0.577834 0
M  V30 2579 C 230.81 -3.16815 1.42287 0
M  V30 2580 C 229.764 -3.43777 2.54954 0
M  V30 2581 C 229.09 -4.81905 2.31671 0
M  V30 2582 C 230.39 -3.39134 3.97222 0
M  V30 2583 H 232.084 -1.72417 2.44771 0
M  V30 2584 H 229.63 -0.828084 1.17808 0
M  V30 2585 H 231.583 -3.95253 1.46127 0
M  V30 2586 H 230.307 -3.23534 0.446435 0
M  V30 2587 H 228.966 -2.67707 2.50457 0
M  V30 2588 H 228.614 -4.85294 1.32284 0
M  V30 2589 H 228.314 -5.00906 3.07192 0
M  V30 2590 H 229.838 -5.62609 2.37284 0
M  V30 2591 H 231.252 -4.07518 4.03239 0
M  V30 2592 H 229.649 -3.69671 4.72719 0
M  V30 2593 H 230.719 -2.37426 4.22797 0
M  V30 2594 N 232.062 -1.29571 -0.897171 0
M  V30 2595 C 233.009 -1.14916 -2.00158 0
M  V30 2596 C 233.979 -0.0418149 -1.66047 0
M  V30 2597 O 235.164 -0.209793 -1.89643 0
M  V30 2598 C 232.304 -0.834307 -3.34863 0
M  V30 2599 C 231.417 -2.02234 -3.8174 0
M  V30 2600 C 230.552 -1.64664 -5.05034 0
M  V30 2601 C 229.591 -2.80033 -5.44286 0
M  V30 2602 N 228.728 -2.42843 -6.58765 0
M  V30 2603 H 233.568 -2.09403 -2.12025 0
M  V30 2604 H 231.105 -1.042 -1.0383 0
M  V30 2605 H 233.063 -0.632436 -4.12379 0
M  V30 2606 H 231.693 0.0736656 -3.22716 0
M  V30 2607 H 230.745 -2.33583 -3.00238 0
M  V30 2608 H 232.057 -2.88673 -4.06779 0
M  V30 2609 H 231.211 -1.4078 -5.9014 0
M  V30 2610 H 229.95 -0.753766 -4.8184 0
M  V30 2611 H 228.955 -3.04596 -4.57713 0
M  V30 2612 H 230.18 -3.69989 -5.6946 0
M  V30 2613 H 228.126 -1.56046 -6.3717 0
M  V30 2614 H 228.043 -3.22815 -6.83613 0
M  V30 2615 H 229.311 -2.22285 -7.47134 0
M  V30 2616 N 233.54 1.10788 -1.12088 0
M  V30 2617 C 234.487 2.17025 -0.785407 0
M  V30 2618 C 235.457 1.64265 0.246191 0
M  V30 2619 O 236.642 1.90412 0.121584 0
M  V30 2620 C 233.782 3.44249 -0.242177 0
M  V30 2621 C 232.895 4.1098 -1.33115 0
M  V30 2622 C 232.03 5.25911 -0.747741 0
M  V30 2623 C 231.069 5.84538 -1.81609 0
M  V30 2624 N 230.206 6.90853 -1.25167 0
M  V30 2625 H 235.046 2.45066 -1.69548 0
M  V30 2626 H 232.583 1.20297 -0.846582 0
M  V30 2627 H 234.541 4.17101 0.0908026 0
M  V30 2628 H 233.171 3.16571 0.631072 0
M  V30 2629 H 232.223 3.36133 -1.78097 0
M  V30 2630 H 233.535 4.50601 -2.13917 0
M  V30 2631 H 232.689 6.056 -0.365216 0
M  V30 2632 H 231.428 4.87614 0.0915188 0
M  V30 2633 H 230.433 5.03522 -2.20785 0
M  V30 2634 H 231.658 6.249 -2.6585 0
M  V30 2635 H 229.604 6.54562 -0.434174 0
M  V30 2636 H 229.521 7.29166 -1.99633 0
M  V30 2637 H 230.789 7.7433 -0.896259 0
M  V30 2638 N 235.018 0.912232 1.28515 0
M  V30 2639 C 236.267 0.540504 1.94323 0
M  V30 2640 C 236.58 -0.920044 1.72611 0
M  V30 2641 O 237.786 -1.39986 2.32629 0
M  V30 2642 C 236.242 0.915803 3.48053 0
M  V30 2643 C 235.85 2.39598 3.78546 0
M  V30 2644 C 237.594 0.614588 4.20027 0
M  V30 2645 C 235.501 2.71148 5.25578 0
M  V30 2646 H 234.431 0.198418 0.727424 0
M  V30 2647 H 237.082 1.11094 1.46049 0
M  V30 2648 H 235.464 0.274168 3.9505 0
M  V30 2649 H 236.638 3.08422 3.42364 0
M  V30 2650 H 234.953 2.66749 3.1974 0
M  V30 2651 H 237.55 0.827002 5.28266 0
M  V30 2652 H 237.893 -0.447531 4.13887 0
M  V30 2653 H 238.426 1.21462 3.78803 0
M  V30 2654 H 235.165 3.76207 5.36794 0
M  V30 2655 H 234.685 2.0696 5.62963 0
M  V30 2656 H 236.364 2.58072 5.93302 0
M  V30 2657 N 236.496 -1.42363 0.676048 0
M  V30 2658 C 237.744 -2.01123 0.198437 0
M  V30 2659 C 238.065 -1.53731 -1.19966 0
M  V30 2660 O 237.335 -0.759518 -1.80577 0
M  V30 2661 H 235.915 -0.743678 0.0703721 0
M  V30 2662 H 238.577 -1.74263 0.872837 0
M  V30 2663 H 237.673 -3.11454 0.200686 0
M  V30 2664 N 237.974 -0.419461 -1.51915 0
M  V30 2665 C 239.223 0.154346 -2.01109 0
M  V30 2666 C 239.536 1.45338 -1.30905 0
M  V30 2667 O 240.742 2.10906 -1.7097 0
M  V30 2668 C 239.198 0.325615 -3.58424 0
M  V30 2669 C 238.806 -0.961934 -4.37551 0
M  V30 2670 C 240.55 0.854155 -4.15818 0
M  V30 2671 C 238.457 -0.757287 -5.86531 0
M  V30 2672 H 237.387 0.0614563 -0.751491 0
M  V30 2673 H 240.038 -0.54649 -1.75173 0
M  V30 2674 H 238.42 1.08903 -3.80731 0
M  V30 2675 H 239.594 -1.7323 -4.26999 0
M  V30 2676 H 237.909 -1.41766 -3.91524 0
M  V30 2677 H 240.506 1.02346 -5.24814 0
M  V30 2678 H 240.849 1.83172 -3.73837 0
M  V30 2679 H 241.382 0.149528 -3.97519 0
M  V30 2680 H 238.121 -1.70671 -6.32892 0
M  V30 2681 H 237.641 -0.0264061 -5.99794 0
M  V30 2682 H 239.32 -0.403482 -6.45741 0
M  V30 2683 N 239.452 1.56882 -0.150215 0
M  V30 2684 C 240.362 2.20494 0.801222 0
M  V30 2685 C 241.378 1.19019 1.26927 0
M  V30 2686 O 242.554 1.51607 1.32579 0
M  V30 2687 C 239.619 2.81659 2.02161 0
M  V30 2688 C 238.68 3.9827 1.60249 0
M  V30 2689 C 237.913 4.56508 2.7647 0
M  V30 2690 O 238.136 4.13627 3.92771 0
M  V30 2691 O 237.07 5.46719 2.51757 0
M  V30 2692 H 240.896 3.02315 0.289717 0
M  V30 2693 H 238.481 1.49202 0.0769684 0
M  V30 2694 H 240.363 3.20522 2.73576 0
M  V30 2695 H 239.038 2.02849 2.52258 0
M  V30 2696 H 237.945 3.64117 0.858477 0
M  V30 2697 H 239.278 4.78609 1.14864 0
M  V30 2698 N 240.93 -0.123565 1.57115 0
M  V30 2699 C 242.179 -0.830704 1.83799 0
M  V30 2700 C 242.492 -1.81259 0.735158 0
M  V30 2701 O 243.698 -2.56558 0.888278 0
M  V30 2702 C 242.154 -1.52802 3.25852 0
M  V30 2703 C 241.762 -0.587356 4.44133 0
M  V30 2704 C 243.506 -2.22056 3.61789 0
M  V30 2705 C 241.413 -1.28764 5.77212 0
M  V30 2706 H 240.343 -0.313967 0.685522 0
M  V30 2707 H 242.994 -0.0834359 1.8331 0
M  V30 2708 H 241.376 -2.32175 3.20797 0
M  V30 2709 H 242.55 0.172829 4.60476 0
M  V30 2710 H 240.865 -0.00201892 4.164 0
M  V30 2711 H 243.462 -2.75131 4.58483 0
M  V30 2712 H 243.805 -2.99644 2.88997 0
M  V30 2713 H 244.338 -1.49576 3.68608 0
M  V30 2714 H 241.077 -0.55314 6.53162 0
M  V30 2715 H 240.597 -2.01995 5.64764 0
M  V30 2716 H 242.276 -1.8221 6.20813 0
M  V30 2717 N 242.408 -1.52605 -0.393616 0
M  V30 2718 C 243.318 -1.79971 -1.50492 0
M  V30 2719 C 244.334 -0.686181 -1.59899 0
M  V30 2720 O 245.51 -0.973274 -1.76322 0
M  V30 2721 C 242.575 -1.95867 -2.86072 0
M  V30 2722 C 241.636 -3.19781 -2.86424 0
M  V30 2723 C 240.869 -3.34909 -4.15538 0
M  V30 2724 O 241.092 -2.54948 -5.10253 0
M  V30 2725 O 240.026 -4.28141 -4.23059 0
M  V30 2726 H 243.852 -2.74328 -1.30299 0
M  V30 2727 H 241.437 -1.3764 -0.581005 0
M  V30 2728 H 243.319 -2.08056 -3.66457 0
M  V30 2729 H 241.994 -1.04699 -3.063 0
M  V30 2730 H 240.901 -3.13038 -2.04837 0
M  V30 2731 H 242.234 -4.1078 -2.71147 0
M  V30 2732 N 243.887 0.651787 -1.4349 0
M  V30 2733 C 245.164 1.40909 -1.35661 0
M  V30 2734 C 245.544 2.11099 -0.00511733 0
M  V30 2735 O 244.892 2.04892 1.0115 0
M  V30 2736 C 245.102 2.3926 -2.54078 0
M  V30 2737 C 246.45 3.03217 -2.97228 0
M  V30 2738 O 247.474 2.49588 -2.54135 0
M  V30 2739 O 246.333 4.00455 -3.71885 0
M  V30 2740 H 243.427 0.629625 -0.536191 0
M  V30 2741 H 245.973 0.678575 -1.55542 0
M  V30 2742 H 244.745 1.86352 -3.44076 0
M  V30 2743 H 244.368 3.1976 -2.36303 0
M  V30 2744 N 245.365 1.30045 0.890287 0
M  V30 2745 C 246.595 1.21296 1.67245 0
M  V30 2746 C 247.003 -0.227471 1.87828 0
M  V30 2747 O 246.346 -1.16296 1.422 0
M  V30 2748 C 246.408 1.86519 3.07329 0
M  V30 2749 C 246.072 3.35837 3.09939 0
M  V30 2750 C 247.069 4.31915 2.89389 0
M  V30 2751 C 244.754 3.77196 3.31706 0
M  V30 2752 C 246.748 5.67325 2.90552 0
M  V30 2753 C 244.435 5.12725 3.32499 0
M  V30 2754 C 245.433 6.076 3.11947 0
M  V30 2755 O 245.121 7.40655 3.12547 0
M  V30 2756 H 244.853 0.4211 0.528821 0
M  V30 2757 H 247.407 1.72111 1.12103 0
M  V30 2758 H 245.637 1.30228 3.64112 0
M  V30 2759 H 247.326 1.71963 3.67673 0
M  V30 2760 H 248.092 4.01294 2.72375 0
M  V30 2761 H 243.971 3.03796 3.4674 0
M  V30 2762 H 247.515 6.41354 2.74429 0
M  V30 2763 H 243.412 5.42988 3.49047 0
M  V30 2764 H 244.18 7.49577 3.28749 0
M  V30 2765 N 246.843 -1.10192 1.12674 0
M  V30 2766 C 248.12 -1.78717 0.794965 0
M  V30 2767 C 248.5 -1.98628 -0.714853 0
M  V30 2768 O 247.848 -1.58135 -1.64941 0
M  V30 2769 C 248.058 -3.11546 1.5729 0
M  V30 2770 C 249.406 -3.86382 1.76052 0
M  V30 2771 O 250.43 -3.21274 1.53823 0
M  V30 2772 O 249.289 -5.03246 2.13087 0
M  V30 2773 H 246.383 -0.774702 0.289423 0
M  V30 2774 H 248.929 -1.16819 1.23091 0
M  V30 2775 H 247.701 -2.92489 2.59935 0
M  V30 2776 H 247.324 -3.81164 1.13137 0
M  V30 2777 N 248.321 -0.919034 -1.28029 0
M  V30 2778 C 249.231 -0.416756 -2.30869 0
M  V30 2779 C 250.247 0.498235 -1.66714 0
M  V30 2780 O 251.423 0.383144 -1.97722 0
M  V30 2781 C 248.488 0.330274 -3.45123 0
M  V30 2782 C 247.549 -0.618578 -4.2482 0
M  V30 2783 C 246.782 0.0928959 -5.33619 0
M  V30 2784 O 247.005 1.31375 -5.55065 0
M  V30 2785 O 245.939 -0.574499 -5.99152 0
M  V30 2786 H 249.765 -1.27043 -2.75851 0
M  V30 2787 H 247.35 -0.684052 -1.3282 0
M  V30 2788 H 249.232 0.751972 -4.14636 0
M  V30 2789 H 247.907 1.1597 -3.02213 0
M  V30 2790 H 246.814 -1.08978 -3.57875 0
M  V30 2791 H 248.147 -1.41497 -4.71423 0
M  V30 2792 N 249.799 1.42003 -0.683588 0
M  V30 2793 C 250.729 2.33487 -0.024866 0
M  V30 2794 C 251.71 1.51163 0.779975 0
M  V30 2795 O 252.895 1.79739 0.735362 0
M  V30 2796 C 250.025 3.3487 0.920836 0
M  V30 2797 C 248.979 4.27414 0.223958 0
M  V30 2798 C 248.305 5.19074 1.2832 0
M  V30 2799 C 249.605 5.14445 -0.90242 0
M  V30 2800 H 251.299 2.88819 -0.788921 0
M  V30 2801 H 248.845 1.38873 -0.38083 0
M  V30 2802 H 250.798 3.97787 1.39081 0
M  V30 2803 H 249.522 2.77861 1.71642 0
M  V30 2804 H 248.181 3.65904 -0.225864 0
M  V30 2805 H 247.829 4.58387 2.071 0
M  V30 2806 H 247.529 5.81822 0.821995 0
M  V30 2807 H 249.053 5.84867 1.75392 0
M  V30 2808 H 250.467 5.70998 -0.513272 0
M  V30 2809 H 248.864 5.86072 -1.28997 0
M  V30 2810 H 249.934 4.52322 -1.74737 0
M  V30 2811 N 251.277 0.427512 1.51691 0
M  V30 2812 C 252.209 -0.424521 2.25234 0
M  V30 2813 C 253.222 -0.994671 1.2888 0
M  V30 2814 O 254.411 -0.890483 1.54702 0
M  V30 2815 C 251.511 -1.60479 2.98496 0
M  V30 2816 C 250.684 -1.15527 4.21868 0
M  V30 2817 C 249.743 -2.20454 4.77793 0
M  V30 2818 O 248.769 -1.8029 5.39893 0
M  V30 2819 N 249.971 -3.52831 4.60967 0
M  V30 2820 H 252.736 0.205749 2.98993 0
M  V30 2821 H 250.297 0.255867 1.59865 0
M  V30 2822 H 252.289 -2.30276 3.32799 0
M  V30 2823 H 250.859 -2.14061 2.27809 0
M  V30 2824 H 250.079 -0.284736 3.9317 0
M  V30 2825 H 251.367 -0.832173 5.01949 0
M  V30 2826 H 250.765 -3.88201 4.11481 0
M  V30 2827 H 249.322 -4.18551 4.99658 0
M  V30 2828 N 252.755 -1.56801 0.158532 0
M  V30 2829 C 253.705 -2.13923 -0.788738 0
M  V30 2830 C 254.689 -1.07006 -1.2016 0
M  V30 2831 O 255.881 -1.33159 -1.1661 0
M  V30 2832 C 253.01 -2.77348 -2.02319 0
M  V30 2833 C 252.096 -3.91404 -1.6329 0
M  V30 2834 N 252.487 -4.9677 -0.951463 0
M  V30 2835 C 250.785 -4.02326 -1.92482 0
M  V30 2836 C 251.486 -5.76698 -0.761221 0
M  V30 2837 N 250.462 -5.27859 -1.29869 0
M  V30 2838 H 254.264 -2.92757 -0.258995 0
M  V30 2839 H 251.778 -1.62344 -0.0426055 0
M  V30 2840 H 253.775 -3.16639 -2.71192 0
M  V30 2841 H 252.435 -1.99991 -2.558 0
M  V30 2842 H 253.446 -5.14284 -0.610928 0
M  V30 2843 H 250.123 -3.36059 -2.47732 0
M  V30 2844 H 251.513 -6.71529 -0.223284 0
M  V30 2845 N 254.233 0.115231 -1.57178 0
M  V30 2846 C 255.48 0.822351 -1.8505 0
M  V30 2847 C 255.808 1.79701 -0.744168 0
M  V30 2848 O 255.063 1.93909 0.26414 0
M  V30 2849 C 255.362 1.60324 -3.19423 0
M  V30 2850 C 255.028 0.772536 -4.44233 0
M  V30 2851 C 253.69 0.543468 -4.78121 0
M  V30 2852 C 256.042 0.193746 -5.2084 0
M  V30 2853 C 253.37 -0.274583 -5.86057 0
M  V30 2854 C 255.722 -0.611517 -6.29637 0
M  V30 2855 C 254.386 -0.850867 -6.62055 0
M  V30 2856 H 253.656 0.30092 -0.677147 0
M  V30 2857 H 256.303 0.0845802 -1.91313 0
M  V30 2858 H 254.608 2.41203 -3.08753 0
M  V30 2859 H 256.305 2.1544 -3.38211 0
M  V30 2860 H 252.895 0.96117 -4.17683 0
M  V30 2861 H 257.079 0.357926 -4.95008 0
M  V30 2862 H 252.335 -0.469206 -6.09597 0
M  V30 2863 H 256.509 -1.06697 -6.88178 0
M  V30 2864 H 254.136 -1.48657 -7.45523 0
M  V30 2865 N 255.711 1.52812 0.385517 0
M  V30 2866 C 256.958 1.68026 1.1302 0
M  V30 2867 C 257.286 0.421934 1.89868 0
M  V30 2868 O 256.541 -0.595749 1.86412 0
M  V30 2869 C 256.84 2.86856 2.13187 0
M  V30 2870 C 256.506 4.24159 1.5297 0
M  V30 2871 C 255.168 4.61501 1.36274 0
M  V30 2872 C 257.52 5.09627 1.09223 0
M  V30 2873 C 254.848 5.81966 0.743837 0
M  V30 2874 C 257.2 6.30719 0.487411 0
M  V30 2875 C 255.864 6.6679 0.307777 0
M  V30 2876 H 255.134 0.614849 0.413571 0
M  V30 2877 H 257.781 1.86962 0.414405 0
M  V30 2878 H 256.086 2.6235 2.90998 0
M  V30 2879 H 257.783 2.95821 2.70722 0
M  V30 2880 H 254.373 3.94746 1.66954 0
M  V30 2881 H 258.557 4.81343 1.20922 0
M  V30 2882 H 253.813 6.08519 0.592891 0
M  V30 2883 H 257.987 6.96259 0.140143 0
M  V30 2884 H 255.614 7.60001 -0.173879 0
M  V30 2885 N 257.189 -0.644168 1.43834 0
M  V30 2886 C 258.099 -1.78563 1.52159 0
M  V30 2887 C 259.115 -1.69147 0.408069 0
M  V30 2888 O 260.291 -1.90156 0.663524 0
M  V30 2889 C 257.356 -3.14888 1.45073 0
M  V30 2890 C 256.417 -3.36034 2.6717 0
M  V30 2891 C 255.65 -4.65855 2.60413 0
M  V30 2892 O 255.873 -5.45805 1.65689 0
M  V30 2893 O 254.807 -4.88918 3.5106 0
M  V30 2894 H 258.633 -1.74494 2.48567 0
M  V30 2895 H 256.218 -0.80378 1.25935 0
M  V30 2896 H 258.1 -3.96179 1.43597 0
M  V30 2897 H 256.775 -3.19528 0.518037 0
M  V30 2898 H 255.682 -2.54472 2.74217 0
M  V30 2899 H 257.015 -3.36247 3.59442 0
M  V30 2900 N 258.668 -1.30515 -0.883378 0
M  V30 2901 C 259.615 -1.17032 -1.98927 0
M  V30 2902 C 260.585 -0.0594241 -1.65994 0
M  V30 2903 O 261.77 -0.229895 -1.8941 0
M  V30 2904 C 258.91 -0.869777 -3.33959 0
M  V30 2905 C 258.023 -2.06271 -3.79574 0
M  V30 2906 C 257.158 -1.70011 -5.03259 0
M  V30 2907 C 256.197 -2.8579 -5.41286 0
M  V30 2908 N 255.334 -2.49816 -6.56153 0
M  V30 2909 H 260.174 -2.1164 -2.09792 0
M  V30 2910 H 257.711 -1.05296 -1.02719 0
M  V30 2911 H 259.669 -0.676138 -4.11685 0
M  V30 2912 H 258.299 0.0394332 -3.22776 0
M  V30 2913 H 257.351 -2.36755 -2.97744 0
M  V30 2914 H 258.663 -2.92971 -4.03694 0
M  V30 2915 H 257.817 -1.47032 -5.88614 0
M  V30 2916 H 256.556 -0.804829 -4.81013 0
M  V30 2917 H 255.561 -3.09434 -4.54456 0
M  V30 2918 H 256.786 -3.76008 -5.65504 0
M  V30 2919 H 254.732 -1.62795 -6.35479 0
M  V30 2920 H 254.649 -3.30048 -6.8015 0
M  V30 2921 H 255.917 -2.30197 -7.44735 0
M  V30 2922 N 260.146 1.09593 -1.13257 0
M  V30 2923 C 261.394 1.81375 -0.891492 0
M  V30 2924 C 261.715 1.86049 0.584009 0
M  V30 2925 O 260.985 1.34481 1.42449 0
M  V30 2926 H 259.565 0.671708 -0.326828 0
M  V30 2927 H 262.227 1.3256 -1.42877 0
M  V30 2928 H 261.323 2.84612 -1.28071 0
M  V30 2929 N 261.624 0.925811 1.2754 0
M  V30 2930 C 262.87 0.566092 1.94739 0
M  V30 2931 C 263.203 -0.890057 1.72603 0
M  V30 2932 O 262.478 -1.63467 1.05399 0
M  V30 2933 C 262.761 0.89054 3.48915 0
M  V30 2934 C 262.614 2.4003 3.80402 0
M  V30 2935 C 263.933 0.395101 4.38323 0
M  V30 2936 H 261.052 0.20714 0.707292 0
M  V30 2937 H 263.694 1.15725 1.50691 0
M  V30 2938 H 261.844 0.387452 3.86563 0
M  V30 2939 H 263.516 2.97494 3.52555 0
M  V30 2940 H 261.759 2.85028 3.2702 0
M  V30 2941 H 262.43 2.57785 4.8811 0
M  V30 2942 H 264.906 0.826241 4.07814 0
M  V30 2943 H 263.782 0.651086 5.45025 0
M  V30 2944 H 264.043 -0.704798 4.36446 0
M  V30 2945 N 263.102 -1.41638 0.69111 0
M  V30 2946 C 264.034 -2.29194 -0.0161523 0
M  V30 2947 C 265.047 -1.44549 -0.748955 0
M  V30 2948 O 266.236 -1.681 -0.6004 0
M  V30 2949 C 263.336 -3.22325 -1.0469 0
M  V30 2950 C 262.509 -4.35706 -0.384621 0
M  V30 2951 C 261.568 -5.09443 -1.31737 0
M  V30 2952 O 260.594 -5.63386 -0.811451 0
M  V30 2953 N 261.796 -5.16487 -2.64993 0
M  V30 2954 H 264.561 -2.90534 0.735523 0
M  V30 2955 H 262.122 -1.52742 0.53679 0
M  V30 2956 H 264.114 -3.68522 -1.67252 0
M  V30 2957 H 262.684 -2.62323 -1.70015 0
M  V30 2958 H 261.904 -3.91948 0.420804 0
M  V30 2959 H 263.192 -5.08743 0.0760765 0
M  V30 2960 H 262.59 -4.741 -3.08619 0
M  V30 2961 H 261.147 -5.66276 -3.22761 0
M  V30 2962 N 264.58 -0.43555 -1.51462 0
M  V30 2963 C 265.49 0.383001 -2.31453 0
M  V30 2964 C 266.506 1.02931 -1.4029 0
M  V30 2965 O 267.682 1.02507 -1.73362 0
M  V30 2966 C 264.747 1.47043 -3.13973 0
M  V30 2967 C 263.808 0.844433 -4.20913 0
M  V30 2968 C 263.041 1.88004 -4.9949 0
M  V30 2969 O 263.264 3.10199 -4.78678 0
M  V30 2970 O 262.198 1.47157 -5.83634 0
M  V30 2971 H 266.024 -0.269964 -3.02498 0
M  V30 2972 H 263.609 -0.19813 -1.4808 0
M  V30 2973 H 265.491 2.10113 -3.65281 0
M  V30 2974 H 264.166 2.10751 -2.45695 0
M  V30 2975 H 263.073 0.175729 -3.73687 0
M  V30 2976 H 264.406 0.250869 -4.9156 0
M  V30 2977 N 266.058 1.56714 -0.166846 0
M  V30 2978 C 267.006 2.19056 0.782123 0
M  V30 2979 C 268 1.15328 1.24079 0
M  V30 2980 O 269.206 1.33537 1.20697 0
M  V30 2981 H 265.581 0.70167 0.270486 0
M  V30 2982 H 267.552 2.97494 0.232322 0
M  V30 2983 C 266.301 2.84206 2.00306 0
M  V30 2984 H 265.624 3.63748 1.65914 0
M  V30 2985 H 267.064 3.31302 2.64604 0
M  V30 2986 C 265.523 1.83744 2.82382 0
M  V30 2987 O 266.053 1.32014 3.79388 0
M  V30 2988 N 264.259 1.52601 2.47308 0
M  V30 2989 H 263.806 1.9486 1.68485 0
M  V30 2990 H 263.764 0.856351 3.02513 0
M  V30 2991 N 267.536 -0.106894 1.57237 0
M  V30 2992 C 268.466 -1.13148 2.04254 0
M  V30 2993 C 269.447 -1.42476 0.929224 0
M  V30 2994 O 270.632 -1.52709 1.19973 0
M  V30 2995 C 267.762 -2.4545 2.45706 0
M  V30 2996 C 266.716 -2.30558 3.60592 0
M  V30 2997 C 266.042 -3.67931 3.87983 0
M  V30 2998 C 267.342 -1.75597 4.91897 0
M  V30 2999 H 269.036 -0.740374 2.90101 0
M  V30 3000 H 266.582 -0.354696 1.39563 0
M  V30 3001 H 268.535 -3.17389 2.77205 0
M  V30 3002 H 267.259 -2.86475 1.56843 0
M  V30 3003 H 265.918 -1.61067 3.29322 0
M  V30 3004 H 265.566 -4.06462 2.96306 0
M  V30 3005 H 265.266 -3.58817 4.65322 0
M  V30 3006 H 266.79 -4.41356 4.21945 0
M  V30 3007 H 268.204 -2.37364 5.21854 0
M  V30 3008 H 266.601 -1.77272 5.73319 0
M  V30 3009 H 267.671 -0.714451 4.79608 0
M  V30 3010 N 269.014 -1.53014 -0.377408 0
M  V30 3011 C 269.962 -1.7927 -1.48206 0
M  V30 3012 C 270.956 -0.661195 -1.55963 0
M  V30 3013 O 272.162 -0.843908 -1.58991 0
M  V30 3014 H 268.537 -0.567425 -0.493491 0
M  V30 3015 H 270.508 -2.71753 -1.2326 0
M  V30 3016 C 269.257 -1.98894 -2.85196 0
M  V30 3017 H 268.58 -2.85395 -2.79981 0
M  V30 3018 H 270.02 -2.21249 -3.61698 0
M  V30 3019 C 268.479 -0.764691 -3.28107 0
M  V30 3020 O 269.009 0.0523226 -4.01666 0
M  V30 3021 N 267.215 -0.591493 -2.84517 0
M  V30 3022 H 266.762 -1.25749 -2.24822 0
M  V30 3023 H 266.72 0.226253 -3.13585 0
M  V30 3024 N 270.492 0.636531 -1.44174 0
M  V30 3025 C 271.717 1.42847 -1.50364 0
M  V30 3026 C 272.142 1.87665 -0.127867 0
M  V30 3027 O 271.5 1.58408 0.88185 0
M  V30 3028 C 271.548 2.62854 -2.4686 0
M  V30 3029 O 270.652 3.62501 -1.9664 0
M  V30 3030 H 269.993 0.427642 -0.507955 0
M  V30 3031 H 272.523 0.777422 -1.89255 0
M  V30 3032 H 272.533 3.10465 -2.64718 0
M  V30 3033 H 271.208 2.29578 -3.46795 0
M  V30 3034 H 269.785 3.21735 -1.88523 0
M  V30 3035 N 271.97 1.30982 0.876444 0
M  V30 3036 C 272.933 1.18054 1.96459 0
M  V30 3037 C 273.933 0.109399 1.60427 0
M  V30 3038 O 275.123 0.358173 1.70478 0
M  V30 3039 C 272.255 0.810616 3.31122 0
M  V30 3040 H 273.448 2.14735 2.09354 0
M  V30 3041 H 271.001 1.145 1.06392 0
M  V30 3042 H 271.736 -0.155322 3.23928 0
M  V30 3043 H 271.521 1.58481 3.58645 0
M  V30 3044 H 273.011 0.743876 4.10921 0
M  V30 3045 N 273.449 -1.08991 1.13837 0
M  V30 3046 C 274.379 -2.17771 0.842507 0
M  V30 3047 C 275.36 -1.6892 -0.20001 0
M  V30 3048 O 276.545 -1.94113 -0.0579731 0
M  V30 3049 C 273.675 -3.4589 0.312644 0
M  V30 3050 C 272.629 -4.08099 1.28992 0
M  V30 3051 C 271.955 -5.31098 0.619623 0
M  V30 3052 C 273.255 -4.50077 2.65005 0
M  V30 3053 H 274.949 -2.42777 1.75213 0
M  V30 3054 H 272.495 -1.16682 0.843875 0
M  V30 3055 H 274.448 -4.21297 0.0933043 0
M  V30 3056 H 273.172 -3.20419 -0.632382 0
M  V30 3057 H 271.831 -3.34717 1.49533 0
M  V30 3058 H 271.479 -5.0191 -0.33102 0
M  V30 3059 H 271.179 -5.73674 1.27167 0
M  V30 3060 H 272.703 -6.09224 0.409669 0
M  V30 3061 H 274.117 -5.16688 2.48407 0
M  V30 3062 H 272.514 -5.03553 3.26427 0
M  V30 3063 H 273.584 -3.62257 3.22332 0
M  V30 3064 N 274.927 -0.932562 -1.27047 0
M  V30 3065 C 275.89 -0.440064 -2.24936 0
M  V30 3066 C 276.89 0.444071 -1.54547 0
M  V30 3067 O 278.08 0.244465 -1.72476 0
M  V30 3068 C 275.212 0.36678 -3.38921 0
M  V30 3069 H 276.405 -1.305 -2.70018 0
M  V30 3070 H 273.958 -0.713707 -1.39054 0
M  V30 3071 H 274.693 1.25033 -2.99228 0
M  V30 3072 H 274.478 -0.267204 -3.91188 0
M  V30 3073 H 275.968 0.701567 -4.11665 0
M  V30 3074 N 276.405 1.4127 -0.698611 0
M  V30 3075 C 277.335 2.33447 -0.049629 0
M  V30 3076 C 278.316 1.51982 0.763898 0
M  V30 3077 O 279.501 1.80509 0.716257 0
M  V30 3078 C 276.631 3.35828 0.885267 0
M  V30 3079 C 275.585 4.27627 0.178613 0
M  V30 3080 C 274.911 5.20406 1.22807 0
M  V30 3081 C 276.211 5.13459 -0.956933 0
M  V30 3082 H 277.905 2.87966 -0.81951 0
M  V30 3083 H 275.451 1.38461 -0.395538 0
M  V30 3084 H 277.404 3.9924 1.34854 0
M  V30 3085 H 276.128 2.79666 1.68685 0
M  V30 3086 H 274.787 3.65643 -0.26466 0
M  V30 3087 H 274.435 4.60558 2.02226 0
M  V30 3088 H 274.135 5.82661 0.760239 0
M  V30 3089 H 275.659 5.86695 1.69179 0
M  V30 3090 H 277.073 5.70421 -0.573805 0
M  V30 3091 H 275.47 5.8467 -1.35205 0
M  V30 3092 H 276.54 4.50443 -1.79524 0
M  V30 3093 N 277.883 0.443576 1.51229 0
M  V30 3094 C 279.113 -0.119117 2.06256 0
M  V30 3095 C 279.521 -1.36471 1.31043 0
M  V30 3096 O 278.864 -1.80034 0.365151 0
M  V30 3097 C 278.926 -0.500546 3.55998 0
M  V30 3098 C 278.59 0.639125 4.52509 0
M  V30 3099 C 279.587 1.51311 4.97394 0
M  V30 3100 C 277.272 0.821632 4.95535 0
M  V30 3101 C 279.266 2.55425 5.83984 0
M  V30 3102 C 276.953 1.86603 5.81913 0
M  V30 3103 C 277.951 2.73072 6.26036 0
M  V30 3104 O 277.639 3.75718 7.10698 0
M  V30 3105 H 277.371 -0.00857665 0.675946 0
M  V30 3106 H 279.925 0.623288 1.95715 0
M  V30 3107 H 278.155 -1.29575 3.64345 0
M  V30 3108 H 279.844 -0.995116 3.93513 0
M  V30 3109 H 280.61 1.38367 4.64844 0
M  V30 3110 H 276.489 0.158149 4.60729 0
M  V30 3111 H 280.033 3.22949 6.18344 0
M  V30 3112 H 275.93 1.99564 6.13876 0
M  V30 3113 H 276.698 3.72374 7.2889 0
M  V30 3114 N 279.361 -1.56624 0.175154 0
M  V30 3115 C 280.271 -2.21741 -0.766042 0
M  V30 3116 C 281.287 -1.21023 -1.25018 0
M  V30 3117 O 282.463 -1.53697 -1.3015 0
M  V30 3118 C 279.528 -2.84839 -1.97655 0
M  V30 3119 C 278.589 -4.00769 -1.53892 0
M  V30 3120 C 277.822 -4.60849 -2.69173 0
M  V30 3121 O 278.045 -4.19823 -3.86141 0
M  V30 3122 O 276.979 -5.50655 -2.43028 0
M  V30 3123 H 280.805 -3.02738 -0.241585 0
M  V30 3124 H 278.39 -1.49305 -0.053222 0
M  V30 3125 H 280.272 -3.24834 -2.68442 0
M  V30 3126 H 278.947 -2.06836 -2.48999 0
M  V30 3127 H 277.854 -3.65436 -0.80044 0
M  V30 3128 H 279.187 -4.80376 -1.07236 0
M  V30 3129 N 280.839 0.0985539 -1.57292 0
M  V30 3130 C 281.787 1.1387 -2.02821 0
M  V30 3131 C 282.781 1.41676 -0.928666 0
M  V30 3132 O 283.987 1.41398 -1.11385 0
M  V30 3133 H 280.362 0.384419 -0.646317 0
M  V30 3134 H 282.333 0.728347 -2.89375 0
M  V30 3135 C 281.082 2.45166 -2.46554 0
M  V30 3136 H 280.405 2.24613 -3.3074 0
M  V30 3137 H 281.845 3.16456 -2.8219 0
M  V30 3138 C 280.304 3.09216 -1.33742 0
M  V30 3139 O 280.834 3.96163 -0.66464 0
M  V30 3140 N 279.04 2.69413 -1.08928 0
M  V30 3141 H 278.587 1.98801 -1.63817 0
M  V30 3142 H 278.545 3.12594 -0.336458 0
M  V30 3143 N 282.317 1.53212 0.369288 0
M  V30 3144 C 283.545 1.73119 1.13303 0
M  V30 3145 C 283.96 0.458455 1.83149 0
M  V30 3146 O 283.317 -0.568403 1.73423 0
M  V30 3147 C 283.368 2.89413 2.16616 0
M  V30 3148 O 283.089 4.11761 1.49614 0
M  V30 3149 C 284.59 3.21161 3.05566 0
M  V30 3150 H 281.81 0.579107 0.338934 0
M  V30 3151 H 284.354 1.99942 0.429338 0
M  V30 3152 H 282.509 2.64994 2.82589 0
M  V30 3153 H 282.923 4.76858 2.18419 0
M  V30 3154 H 284.397 4.05949 3.74045 0
M  V30 3155 H 284.874 2.36369 3.70171 0
M  V30 3156 H 285.48 3.47492 2.45213 0
M  V30 3157 N 283.795 -0.628877 1.44509 0
M  V30 3158 C 285.044 -1.38437 1.4669 0
M  V30 3159 C 285.357 -1.95322 0.104272 0
M  V30 3160 O 286.563 -2.715 0.00362163 0
M  V30 3161 C 285.019 -2.50659 2.5826 0
M  V30 3162 C 284.627 -2.00277 4.0074 0
M  V30 3163 C 286.371 -3.27844 2.69664 0
M  V30 3164 C 284.278 -3.09854 5.0373 0
M  V30 3165 H 283.208 -0.520245 0.545766 0
M  V30 3166 H 285.859 -0.676313 1.70582 0
M  V30 3167 H 284.241 -3.2405 2.27612 0
M  V30 3168 H 285.415 -1.33736 4.40966 0
M  V30 3169 H 283.73 -1.35901 3.93599 0
M  V30 3170 H 286.327 -4.09534 3.43781 0
M  V30 3171 H 286.67 -3.77471 1.75559 0
M  V30 3172 H 287.203 -2.61543 2.99733 0
M  V30 3173 H 283.942 -2.65168 5.99472 0
M  V30 3174 H 283.462 -3.7503 4.68095 0
M  V30 3175 H 285.141 -3.74592 5.27532 0
M  V30 3176 N 285.273 -1.31445 -0.869486 0
M  V30 3177 C 286.684 -1.19042 -1.43826 0
M  V30 3178 C 287.035 0.202919 -1.95148 0
M  V30 3179 O 286.16 1.10071 -1.86315 0
M  V30 3180 C 286.755 -2.15499 -2.6143 0
M  V30 3181 C 285.314 -2.07028 -3.14351 0
M  V30 3182 C 284.461 -2.04701 -1.87063 0
M  V30 3183 H 287.412 -1.43489 -0.677984 0
M  V30 3184 H 287.433 -1.74488 -3.38134 0
M  V30 3185 H 286.945 -3.16899 -2.24046 0
M  V30 3186 H 285.046 -1.08825 -3.56354 0
M  V30 3187 H 285.159 -2.96157 -3.766 0
M  V30 3188 H 283.523 -1.49724 -2.06046 0
M  V30 3189 H 284.306 -3.07857 -1.51917 0
M  V30 3190 N 286.751 1.08385 -1.14413 0
M  V30 3191 C 287.681 2.17321 -0.854044 0
M  V30 3192 C 288.662 1.69024 0.191049 0
M  V30 3193 O 289.847 1.94141 0.0476779 0
M  V30 3194 C 286.977 3.45719 -0.330983 0
M  V30 3195 C 285.931 4.07409 -1.31155 0
M  V30 3196 C 285.257 5.30762 -0.64778 0
M  V30 3197 C 286.557 4.48665 -2.67388 0
M  V30 3198 H 288.251 2.41845 -1.76498 0
M  V30 3199 H 285.797 1.16233 -0.850051 0
M  V30 3200 H 287.75 4.21241 -0.115645 0
M  V30 3201 H 286.474 3.2075 0.615381 0
M  V30 3202 H 285.133 3.33919 -1.51306 0
M  V30 3203 H 284.781 5.02078 0.304398 0
M  V30 3204 H 284.481 5.72992 -1.30207 0
M  V30 3205 H 286.005 6.08998 -0.441972 0
M  V30 3206 H 287.419 5.15364 -2.51143 0
M  V30 3207 H 285.816 5.01814 -3.29093 0
M  V30 3208 H 286.886 3.60543 -3.24248 0
M  V30 3209 N 288.23 0.939286 1.26551 0
M  V30 3210 C 289.193 0.451987 2.24699 0
M  V30 3211 C 290.193 -0.435869 1.5478 0
M  V30 3212 O 291.383 -0.235314 1.72603 0
M  V30 3213 C 288.515 -0.348801 3.39111 0
M  V30 3214 H 289.708 1.3193 2.69322 0
M  V30 3215 H 287.261 0.721072 1.38673 0
M  V30 3216 H 287.996 -1.23444 2.99887 0
M  V30 3217 H 287.781 0.287945 3.91041 0
M  V30 3218 H 289.271 -0.679726 4.12031 0
M  V30 3219 N 289.708 -1.40897 0.706093 0
M  V30 3220 C 290.64 -2.29199 0.00815776 0
M  V30 3221 C 291.653 -1.45336 -0.733582 0
M  V30 3222 O 292.842 -1.68727 -0.582537 0
M  V30 3223 C 289.942 -3.23417 -1.01265 0
M  V30 3224 C 289.115 -4.36089 -0.338387 0
M  V30 3225 C 288.174 -5.10811 -1.26326 0
M  V30 3226 O 287.2 -5.64215 -0.751651 0
M  V30 3227 N 288.402 -5.19269 -2.595 0
M  V30 3228 H 291.167 -2.89738 0.766297 0
M  V30 3229 H 288.728 -1.52164 0.55296 0
M  V30 3230 H 290.72 -3.70276 -1.63334 0
M  V30 3231 H 289.29 -2.64112 -1.67223 0
M  V30 3232 H 288.51 -3.91479 0.462352 0
M  V30 3233 H 289.798 -5.08634 0.130031 0
M  V30 3234 H 289.196 -4.77347 -3.03573 0
M  V30 3235 H 287.753 -5.69667 -3.16737 0
M  V30 3236 N 291.186 -0.45159 -1.50991 0
M  V30 3237 C 292.116 0.342898 -2.30969 0
M  V30 3238 C 293.097 1.00815 -1.37005 0
M  V30 3239 O 294.282 1.00907 -1.65926 0
M  V30 3240 C 291.412 1.43637 -3.16205 0
M  V30 3241 C 290.366 0.893818 -4.18563 0
M  V30 3242 C 289.692 2.08411 -4.92411 0
M  V30 3243 C 290.992 -0.0815568 -5.22236 0
M  V30 3244 H 292.686 -0.324556 -2.97636 0
M  V30 3245 H 290.232 -0.157531 -1.43136 0
M  V30 3246 H 292.185 1.9995 -3.70942 0
M  V30 3247 H 290.909 2.13232 -2.47386 0
M  V30 3248 H 289.568 0.352798 -3.64898 0
M  V30 3249 H 289.216 2.76658 -4.20082 0
M  V30 3250 H 288.916 1.72741 -5.61636 0
M  V30 3251 H 290.44 2.65251 -5.49976 0
M  V30 3252 H 291.854 0.391742 -5.7196 0
M  V30 3253 H 290.251 -0.351551 -5.99069 0
M  V30 3254 H 291.321 -1.01374 -4.74185 0
M  V30 3255 N 292.664 1.56529 -0.183458 0
M  V30 3256 C 293.894 2.01331 0.463612 0
M  V30 3257 C 294.302 1.06278 1.5653 0
M  V30 3258 O 293.645 0.0577976 1.83609 0
M  V30 3259 C 293.707 3.42547 1.09096 0
M  V30 3260 C 293.371 4.56817 0.129442 0
M  V30 3261 C 294.368 5.15734 -0.656807 0
M  V30 3262 C 292.053 5.02295 0.02174 0
M  V30 3263 C 294.047 6.1857 -1.53784 0
M  V30 3264 C 291.734 6.04978 -0.862864 0
M  V30 3265 C 292.732 6.62988 -1.64123 0
M  V30 3266 O 292.42 7.63677 -2.51103 0
M  V30 3267 H 292.152 0.664917 0.121907 0
M  V30 3268 H 294.706 2.034 -0.285954 0
M  V30 3269 H 292.936 3.37428 1.88889 0
M  V30 3270 H 294.625 3.71228 1.64148 0
M  V30 3271 H 295.391 4.81473 -0.583839 0
M  V30 3272 H 291.27 4.56847 0.617392 0
M  V30 3273 H 294.814 6.63777 -2.14583 0
M  V30 3274 H 290.711 6.38663 -0.93699 0
M  V30 3275 H 291.479 7.81049 -2.44753 0
M  V30 3276 N 294.142 -0.090211 1.57342 0
M  V30 3277 C 295.105 -1.09335 2.01441 0
M  V30 3278 C 296.105 -1.32666 0.908641 0
M  V30 3279 O 297.295 -1.28697 1.174 0
M  V30 3280 C 294.427 -2.44136 2.3793 0
M  V30 3281 H 295.62 -0.713662 2.91285 0
M  V30 3282 H 293.173 -0.335404 1.52659 0
M  V30 3283 H 293.908 -2.86972 1.51055 0
M  V30 3284 H 293.693 -2.28548 3.18603 0
M  V30 3285 H 295.183 -3.16277 2.72688 0
M  V30 3286 N 295.62 -1.53406 -0.361157 0
M  V30 3287 C 297.036 -1.43277 -0.703124 0
M  V30 3288 C 297.236 -0.575384 -1.9311 0
M  V30 3289 O 296.292 -0.0595362 -2.5243 0
M  V30 3290 C 297.605 -2.8653 -0.9122 0
M  V30 3291 C 299.153 -2.96191 -1.01193 0
M  V30 3292 C 299.628 -4.40514 -1.25345 0
M  V30 3293 N 301.119 -4.43962 -1.32105 0
M  V30 3294 C 301.854 -5.52746 -1.5251 0
M  V30 3295 N 301.35 -6.71567 -1.70203 0
M  V30 3296 N 303.143 -5.40331 -1.54916 0
M  V30 3297 H 295.294 -2.07654 0.446475 0
M  V30 3298 H 297.557 -0.937944 0.137715 0
M  V30 3299 H 297.263 -3.51605 -0.0816414 0
M  V30 3300 H 297.137 -3.30441 -1.81903 0
M  V30 3301 H 299.524 -2.31266 -1.83303 0
M  V30 3302 H 299.605 -2.55667 -0.0823929 0
M  V30 3303 H 299.249 -5.06014 -0.437346 0
M  V30 3304 H 299.179 -4.78614 -2.19627 0
M  V30 3305 H 301.67 -3.58332 -1.20028 0
M  V30 3306 H 301.983 -7.50241 -1.85359 0
M  V30 3307 H 300.328 -6.74545 -1.67373 0
M  V30 3308 H 303.519 -4.46465 -1.40663 0
M  V30 3309 H 303.692 -6.25173 -1.70477 0
M  V30 3310 N 297.098 0.621204 -1.44841 0
M  V30 3311 C 298.345 1.38055 -1.48145 0
M  V30 3312 C 298.673 1.94143 -0.117867 0
M  V30 3313 O 297.928 1.74713 0.881694 0
M  V30 3314 C 298.227 2.55675 -2.4973 0
M  V30 3315 C 297.893 2.17817 -3.94799 0
M  V30 3316 C 296.555 2.07205 -4.34303 0
M  V30 3317 C 298.907 1.88065 -4.86087 0
M  V30 3318 C 296.235 1.65045 -5.63007 0
M  V30 3319 C 298.587 1.47394 -6.15189 0
M  V30 3320 C 297.251 1.35331 -6.53637 0
M  V30 3321 H 296.521 0.505181 -0.542101 0
M  V30 3322 H 299.168 0.703477 -1.78111 0
M  V30 3323 H 297.473 3.2866 -2.13284 0
M  V30 3324 H 299.17 3.13904 -2.4953 0
M  V30 3325 H 295.76 2.26998 -3.63552 0
M  V30 3326 H 299.944 1.95168 -4.56315 0
M  V30 3327 H 295.2 1.54317 -5.91605 0
M  V30 3328 H 299.374 1.23415 -6.85377 0
M  V30 3329 H 297.001 1.02435 -7.53267 0
M  V30 3330 N 298.576 1.31904 0.862503 0
M  V30 3331 C 299.526 1.16772 1.95827 0
M  V30 3332 C 300.51 0.0767098 1.60717 0
M  V30 3333 O 301.702 0.302407 1.74398 0
M  V30 3334 C 298.831 0.884858 3.317 0
M  V30 3335 C 297.917 2.0172 3.73055 0
M  V30 3336 N 298.308 3.265 3.86305 0
M  V30 3337 C 296.606 1.91861 4.02623 0
M  V30 3338 C 297.307 4.00616 4.2176 0
M  V30 3339 N 296.283 3.28847 4.32852 0
M  V30 3340 H 300.085 2.11382 2.04193 0
M  V30 3341 H 297.599 1.2357 1.05377 0
M  V30 3342 H 299.596 0.757419 4.09962 0
M  V30 3343 H 298.256 -0.0529448 3.24657 0
M  V30 3344 H 299.267 3.61529 3.70833 0
M  V30 3345 H 295.944 1.05593 4.03926 0
M  V30 3346 H 297.334 5.08182 4.39546 0
M  V30 3347 N 300.054 -1.07777 1.14986 0
M  V30 3348 C 301.302 -1.79934 0.920235 0
M  V30 3349 C 301.623 -1.86955 -0.554336 0
M  V30 3350 O 300.893 -1.36731 -1.40291 0
M  V30 3351 H 299.473 -0.666424 0.337473 0
M  V30 3352 H 302.135 -1.3027 1.44968 0
M  V30 3353 H 301.231 -2.82539 1.32583 0
M  V30 3354 N 301.532 -0.945985 -1.26051 0
M  V30 3355 C 302.479 -0.45809 -2.26208 0
M  V30 3356 C 303.449 0.484816 -1.58867 0
M  V30 3357 O 304.634 0.399969 -1.86561 0
M  V30 3358 C 301.774 0.266131 -3.44072 0
M  V30 3359 C 300.887 -0.713005 -4.26075 0
M  V30 3360 C 300.022 0.0329013 -5.3119 0
M  V30 3361 C 299.061 -0.93774 -6.04874 0
M  V30 3362 N 298.198 -0.223274 -7.01745 0
M  V30 3363 H 303.038 -1.3171 -2.67313 0
M  V30 3364 H 300.575 -0.66069 -1.31428 0
M  V30 3365 H 302.533 0.702514 -4.11243 0
M  V30 3366 H 301.163 1.08925 -3.03867 0
M  V30 3367 H 300.215 -1.26789 -3.58648 0
M  V30 3368 H 301.527 -1.45406 -4.77136 0
M  V30 3369 H 300.681 0.528335 -6.04395 0
M  V30 3370 H 299.42 0.806801 -4.8098 0
M  V30 3371 H 298.425 -1.44425 -5.30492 0
M  V30 3372 H 299.65 -1.71172 -6.57173 0
M  V30 3373 H 297.596 0.532046 -6.53839 0
M  V30 3374 H 297.513 -0.90357 -7.50581 0
M  V30 3375 H 298.781 0.250907 -7.79096 0
M  V30 3376 N 303.011 1.40521 -0.713556 0
M  V30 3377 C 304.26 2.00155 -0.249192 0
M  V30 3378 C 304.573 1.57224 1.16362 0
M  V30 3379 O 305.779 2.09542 1.72639 0
M  V30 3380 C 304.235 3.5773 -0.3946 0
M  V30 3381 C 303.843 4.09635 -1.81392 0
M  V30 3382 C 305.587 4.24499 0.00907364 0
M  V30 3383 C 303.494 5.59707 -1.91003 0
M  V30 3384 H 302.424 0.74868 -0.0894114 0
M  V30 3385 H 305.075 1.60784 -0.884352 0
M  V30 3386 H 303.457 3.94792 0.30911 0
M  V30 3387 H 304.631 3.83955 -2.54785 0
M  V30 3388 H 302.946 3.55456 -2.16888 0
M  V30 3389 H 305.543 5.34683 -0.0420404 0
M  V30 3390 H 305.886 4.02824 1.05065 0
M  V30 3391 H 306.419 3.92536 -0.645007 0
M  V30 3392 H 303.158 5.86234 -2.93275 0
M  V30 3393 H 302.678 5.87258 -1.22019 0
M  V30 3394 H 304.357 6.24776 -1.6812 0
M  V30 3395 N 304.489 0.459591 1.5075 0
M  V30 3396 C 305.735 -0.0994966 2.02556 0
M  V30 3397 C 306.068 -1.40399 1.3417 0
M  V30 3398 O 305.343 -1.88892 0.463683 0
M  V30 3399 C 305.626 -0.295242 3.58888 0
M  V30 3400 C 305.479 1.02947 4.37861 0
M  V30 3401 C 306.798 -1.05502 4.27267 0
M  V30 3402 H 303.917 -0.034686 0.736183 0
M  V30 3403 H 306.559 0.602938 1.8018 0
M  V30 3404 H 304.709 -0.893563 3.78084 0
M  V30 3405 H 306.381 1.66348 4.30263 0
M  V30 3406 H 304.624 1.62885 4.02058 0
M  V30 3407 H 305.295 0.846281 5.45474 0
M  V30 3408 H 307.771 -0.547993 4.12476 0
M  V30 3409 H 306.647 -1.16077 5.36486 0
M  V30 3410 H 306.908 -2.08875 3.89645 0
M  V30 3411 N 305.967 -1.56429 0.191757 0
M  V30 3412 C 306.877 -2.22541 -0.742481 0
M  V30 3413 C 307.893 -1.22342 -1.23727 0
M  V30 3414 O 309.069 -1.55069 -1.28513 0
M  V30 3415 C 306.134 -2.8692 -1.94623 0
M  V30 3416 C 305.195 -4.02378 -1.49633 0
M  V30 3417 C 304.428 -4.63678 -2.6427 0
M  V30 3418 O 304.651 -4.23895 -3.81666 0
M  V30 3419 O 303.585 -5.53202 -2.37174 0
M  V30 3420 H 307.411 -3.02977 -0.209462 0
M  V30 3421 H 304.996 -1.49353 -0.0373832 0
M  V30 3422 H 306.878 -3.27663 -2.64982 0
M  V30 3423 H 305.553 -2.09466 -2.46791 0
M  V30 3424 H 304.46 -3.66265 -0.761636 0
M  V30 3425 H 305.793 -4.81487 -1.02134 0
M  V30 3426 N 307.445 0.0818655 -1.57387 0
M  V30 3427 C 308.692 0.782914 -1.86753 0
M  V30 3428 C 309.02 1.78082 -0.782118 0
M  V30 3429 O 308.275 1.94426 0.22295 0
M  V30 3430 C 308.574 1.53513 -3.22752 0
M  V30 3431 C 308.24 0.678134 -4.45771 0
M  V30 3432 C 306.902 0.441929 -4.79166 0
M  V30 3433 C 309.254 0.0832243 -5.21134 0
M  V30 3434 C 306.582 -0.398833 -5.85343 0
M  V30 3435 C 308.934 -0.744935 -6.28199 0
M  V30 3436 C 307.598 -0.991107 -6.60101 0
M  V30 3437 H 306.868 0.286489 -0.683378 0
M  V30 3438 H 309.515 0.0439808 -1.91449 0
M  V30 3439 H 307.82 2.34599 -3.138 0
M  V30 3440 H 309.517 2.08218 -3.42705 0
M  V30 3441 H 306.107 0.872357 -4.19628 0
M  V30 3442 H 310.291 0.252847 -4.95655 0
M  V30 3443 H 305.547 -0.598405 -6.08465 0
M  V30 3444 H 309.721 -1.21271 -6.8576 0
M  V30 3445 H 307.348 -1.64437 -7.42202 0
M  V30 3446 N 308.923 1.53595 0.353017 0
M  V30 3447 C 310.148 1.7462 1.11904 0
M  V30 3448 C 310.573 0.479721 1.8188 0
M  V30 3449 O 309.931 -0.567066 1.72204 0
M  V30 3450 C 309.979 2.92029 2.11545 0
M  V30 3451 O 309.083 2.61516 3.18878 0
M  V30 3452 H 308.424 0.579531 0.324099 0
M  V30 3453 H 310.954 2.00525 0.406301 0
M  V30 3454 H 310.964 3.18551 2.5493 0
M  V30 3455 H 309.639 3.83888 1.60008 0
M  V30 3456 H 308.216 2.45852 2.80377 0
M  V30 3457 N 310.401 -0.613514 1.45168 0
M  V30 3458 C 311.348 -1.72456 1.53387 0
M  V30 3459 C 312.318 -1.6169 0.380191 0
M  V30 3460 O 313.503 -1.81356 0.592836 0
M  V30 3461 C 310.643 -3.10753 1.50088 0
M  V30 3462 C 309.756 -3.32368 2.75963 0
M  V30 3463 C 308.891 -4.60737 2.64376 0
M  V30 3464 C 307.93 -4.7559 3.85332 0
M  V30 3465 N 307.067 -5.95253 3.72315 0
M  V30 3466 H 311.907 -1.64768 2.48305 0
M  V30 3467 H 309.444 -0.803503 1.23216 0
M  V30 3468 H 311.402 -3.90758 1.46164 0
M  V30 3469 H 310.032 -3.17413 0.587243 0
M  V30 3470 H 309.084 -2.4618 2.89999 0
M  V30 3471 H 310.396 -3.39218 3.65695 0
M  V30 3472 H 309.55 -5.48928 2.58385 0
M  V30 3473 H 308.289 -4.56275 1.72233 0
M  V30 3474 H 307.294 -3.85824 3.91688 0
M  V30 3475 H 308.519 -4.81854 4.78533 0
M  V30 3476 H 306.465 -5.91847 2.82937 0
M  V30 3477 H 306.382 -6.03236 4.55677 0
M  V30 3478 H 307.65 -6.85958 3.70246 0
M  V30 3479 N 311.879 -1.3236 -0.855495 0
M  V30 3480 C 312.811 -1.17052 -1.97057 0
M  V30 3481 C 313.824 -0.10574 -1.62456 0
M  V30 3482 O 315.013 -0.354619 -1.74942 0
M  V30 3483 C 312.113 -0.769305 -3.30053 0
M  V30 3484 C 311.286 -1.9222 -3.929 0
M  V30 3485 C 310.345 -1.50466 -5.04228 0
M  V30 3486 O 309.371 -2.21655 -5.24269 0
M  V30 3487 N 310.573 -0.400209 -5.79119 0
M  V30 3488 H 313.338 -2.13103 -2.1073 0
M  V30 3489 H 310.899 -1.24885 -1.0303 0
M  V30 3490 H 312.891 -0.472407 -4.01933 0
M  V30 3491 H 311.461 0.100025 -3.1244 0
M  V30 3492 H 310.681 -2.38563 -3.13817 0
M  V30 3493 H 311.969 -2.69403 -4.31624 0
M  V30 3494 H 311.367 0.192319 -5.65373 0
M  V30 3495 H 309.924 -0.162912 -6.51596 0
M  V30 3496 N 313.357 1.07166 -1.15556 0
M  V30 3497 C 314.304 2.14417 -0.854055 0
M  V30 3498 C 315.274 1.64965 0.193806 0
M  V30 3499 O 316.459 1.90703 0.0609443 0
M  V30 3500 C 313.599 3.43304 -0.351574 0
M  V30 3501 C 312.712 4.06537 -1.46123 0
M  V30 3502 C 311.847 5.23266 -0.914677 0
M  V30 3503 C 310.886 5.78464 -2.00114 0
M  V30 3504 N 310.023 6.86521 -1.47083 0
M  V30 3505 H 314.863 2.39548 -1.77259 0
M  V30 3506 H 312.4 1.17543 -0.884425 0
M  V30 3507 H 314.358 4.17179 -0.0419409 0
M  V30 3508 H 312.988 3.18419 0.530037 0
M  V30 3509 H 312.04 3.30297 -1.88701 0
M  V30 3510 H 313.352 4.43567 -2.28144 0
M  V30 3511 H 312.506 6.04131 -0.557698 0
M  V30 3512 H 311.245 4.87658 -0.0636583 0
M  V30 3513 H 310.25 4.96243 -2.36692 0
M  V30 3514 H 311.475 6.16126 -2.85597 0
M  V30 3515 H 309.421 6.52849 -0.642198 0
M  V30 3516 H 309.338 7.22446 -2.22729 0
M  V30 3517 H 310.606 7.71087 -1.14215 0
M  V30 3518 N 314.835 0.952656 1.25548 0
M  V30 3519 C 315.765 0.489287 2.28316 0
M  V30 3520 C 316.746 -0.463359 1.63667 0
M  V30 3521 O 317.931 -0.36274 1.90782 0
M  V30 3522 C 315.061 -0.235603 3.465 0
M  V30 3523 C 314.015 0.631593 4.23314 0
M  V30 3524 C 313.341 -0.223923 5.34231 0
M  V30 3525 C 314.641 1.90871 4.86174 0
M  V30 3526 H 316.335 1.34822 2.67326 0
M  V30 3527 H 313.881 0.649728 1.28509 0
M  V30 3528 H 315.834 -0.570882 4.17515 0
M  V30 3529 H 314.558 -1.12877 3.06474 0
M  V30 3530 H 313.217 0.949929 3.54079 0
M  V30 3531 H 312.865 -1.11678 4.90446 0
M  V30 3532 H 312.565 0.35299 5.86539 0
M  V30 3533 H 314.089 -0.554214 6.0808 0
M  V30 3534 H 315.503 1.63997 5.49343 0
M  V30 3535 H 313.9 2.43112 5.4865 0
M  V30 3536 H 314.97 2.61304 4.08471 0
M  V30 3537 N 316.313 -1.40141 0.720998 0
M  V30 3538 C 317.223 -2.34486 0.0731031 0
M  V30 3539 C 318.239 -1.57587 -0.737723 0
M  V30 3540 O 319.415 -1.89949 -0.669429 0
M  V30 3541 C 316.48 -3.36528 -0.833656 0
M  V30 3542 C 315.541 -4.29298 -0.0121673 0
M  V30 3543 C 314.774 -5.26466 -0.875742 0
M  V30 3544 O 314.997 -5.29745 -2.11485 0
M  V30 3545 O 313.931 -6.01092 -0.31185 0
M  V30 3546 H 317.757 -2.9152 0.851444 0
M  V30 3547 H 315.342 -1.41427 0.481527 0
M  V30 3548 H 317.224 -3.99093 -1.35289 0
M  V30 3549 H 315.899 -2.81899 -1.59105 0
M  V30 3550 H 314.806 -3.70001 0.552262 0
M  V30 3551 H 316.139 -4.87094 0.707129 0
M  V30 3552 N 317.792 -0.46758 -1.50504 0
M  V30 3553 C 318.722 0.318381 -2.31319 0
M  V30 3554 C 319.703 0.993564 -1.38066 0
M  V30 3555 O 320.888 0.991411 -1.66987 0
M  V30 3556 C 318.018 1.40275 -3.17711 0
M  V30 3557 C 316.972 0.849373 -4.19487 0
M  V30 3558 C 316.298 2.03177 -4.94594 0
M  V30 3559 C 317.598 -0.136942 -5.2212 0
M  V30 3560 H 319.292 -0.356106 -2.97275 0
M  V30 3561 H 316.838 -0.172703 -1.42961 0
M  V30 3562 H 318.791 1.96004 -3.73042 0
M  V30 3563 H 317.515 2.10596 -2.49634 0
M  V30 3564 H 316.174 0.314076 -3.65252 0
M  V30 3565 H 315.822 2.72187 -4.22993 0
M  V30 3566 H 315.522 1.66774 -5.63436 0
M  V30 3567 H 317.046 2.59403 -5.52759 0
M  V30 3568 H 318.46 0.331056 -5.72343 0
M  V30 3569 H 316.857 -0.41507 -5.98663 0
M  V30 3570 H 317.927 -1.06398 -4.73083 0
M  V30 3571 N 319.27 1.56325 -0.20005 0
M  V30 3572 C 320.217 2.1932 0.718833 0
M  V30 3573 C 321.187 1.14198 1.20615 0
M  V30 3574 O 322.372 1.42469 1.26914 0
M  V30 3575 C 319.512 2.86041 1.93066 0
M  V30 3576 C 318.625 4.05702 1.48425 0
M  V30 3577 C 317.76 4.60266 2.65196 0
M  V30 3578 C 316.799 5.72273 2.17185 0
M  V30 3579 N 315.936 6.21221 3.27152 0
M  V30 3580 H 320.776 2.97486 0.17489 0
M  V30 3581 H 318.313 1.46911 0.0745794 0
M  V30 3582 H 320.271 3.22897 2.64184 0
M  V30 3583 H 318.901 2.1043 2.44783 0
M  V30 3584 H 317.953 3.74475 0.668755 0
M  V30 3585 H 319.265 4.86699 1.09204 0
M  V30 3586 H 318.419 4.99453 3.4443 0
M  V30 3587 H 317.158 3.78386 3.07693 0
M  V30 3588 H 316.163 5.3261 1.36407 0
M  V30 3589 H 317.388 6.55974 1.75713 0
M  V30 3590 H 315.334 5.42263 3.69171 0
M  V30 3591 H 315.251 6.97284 2.92116 0
M  V30 3592 H 316.519 6.65063 4.06585 0
M  V30 3593 N 320.748 -0.0735177 1.57428 0
M  V30 3594 C 321.678 -1.0879 2.06608 0
M  V30 3595 C 322.659 -1.40473 0.959237 0
M  V30 3596 O 323.844 -1.5013 1.23185 0
M  V30 3597 C 320.974 -2.40183 2.50857 0
M  V30 3598 C 319.928 -2.22858 3.65402 0
M  V30 3599 C 319.254 -3.59619 3.957 0
M  V30 3600 C 320.554 -1.65123 4.95511 0
M  V30 3601 H 322.248 -0.678673 2.91607 0
M  V30 3602 H 319.794 -0.325013 1.40284 0
M  V30 3603 H 321.747 -3.11437 2.83874 0
M  V30 3604 H 320.471 -2.83083 1.62885 0
M  V30 3605 H 319.13 -1.54045 3.32664 0
M  V30 3606 H 318.778 -4.00086 3.04861 0
M  V30 3607 H 318.478 -3.48866 4.72828 0
M  V30 3608 H 320.002 -4.32306 4.31212 0
M  V30 3609 H 321.416 -2.26241 5.26771 0
M  V30 3610 H 319.813 -1.65071 5.7695 0
M  V30 3611 H 320.883 -0.612559 4.81015 0
M  V30 3612 O 322.265 -1.60033 -0.217154 0
M  V30 3613 H 322.956 -1.73663 -0.857964 0
M  V30 END ATOM
M  V30 BEGIN BOND
M  V30 END BOND
M  V30 END CTAB
M  END
$$$$
