drugbank_target|P39594 Thiamine-phosphate synthase (DB01788; DB02254; DB02885; DB03145; DB03416; DB07782)
 OpenBabel12092119523D

  0  0  0     0  0            999 V3000
M  V30 BEGIN CTAB
M  V30 COUNTS 3340 3358 0 0 0
M  V30 BEGIN ATOM
M  V30 1 H -0.908 1.98254 -0.117106 0
M  V30 2 N 0 1.576 0 0
M  V30 3 C 0.933 2.03868 1.02534 0
M  V30 4 C 1.911 0.928543 1.3348 0
M  V30 5 O 3.095 1.19667 1.45644 0
M  V30 6 C 0.222 2.43627 2.35294 0
M  V30 7 C -0.732 3.65373 2.2001 0
M  V30 8 S 0.101 5.13292 1.52614 0
M  V30 9 C 1.257 5.56322 2.86805 0
M  V30 10 H 1.49 2.90518 0.631377 0
M  V30 11 H -0.977 1.52953 0.210867 0
M  V30 12 H 0.981 2.67203 3.11629 0
M  V30 13 H -0.358 1.57376 2.7183 0
M  V30 14 H -1.165 3.90944 3.18086 0
M  V30 15 H -1.563 3.418 1.51819 0
M  V30 16 H 0.729 5.58782 3.83104 0
M  V30 17 H 1.672 6.56266 2.65933 0
M  V30 18 H 2.08 4.83886 2.90714 0
M  V30 19 N 1.4781 -0.272755 1.55222 0
M  V30 20 C 2.7061 -1.02255 1.79865 0
M  V30 21 C 3.1211 -1.79924 0.572088 0
M  V30 22 O 2.4781 -1.76638 -0.458842 0
M  V30 23 C 2.5291 -1.98094 3.02392 0
M  V30 24 O 2.2501 -1.23572 4.20311 0
M  V30 25 C 3.7511 -2.84884 3.39641 0
M  V30 26 H 0.9711 -0.302057 0.599168 0
M  V30 27 H 3.5151 -0.303465 2.02236 0
M  V30 28 H 1.6701 -2.65465 2.82147 0
M  V30 29 H 2.0841 -1.88172 4.89583 0
M  V30 30 H 3.5581 -3.47927 4.28545 0
M  V30 31 H 4.0351 -3.54665 2.59055 0
M  V30 32 H 4.6411 -2.23003 3.62146 0
M  V30 33 N 2.9562 -1.48159 -0.537278 0
M  V30 34 C 4.3722 -1.34118 -0.865129 0
M  V30 35 C 4.5722 -0.346678 -1.98495 0
M  V30 36 O 3.6282 0.234715 -2.51407 0
M  V30 37 C 4.9412 -2.73963 -1.23954 0
M  V30 38 C 6.4892 -2.82397 -1.34984 0
M  V30 39 C 6.9642 -4.22928 -1.75772 0
M  V30 40 N 8.4552 -4.25566 -1.82887 0
M  V30 41 C 9.1902 -5.31235 -2.15817 0
M  V30 42 N 8.6862 -6.47189 -2.47222 0
M  V30 43 N 10.4792 -5.18624 -2.16761 0
M  V30 44 H 2.6302 -2.1144 0.201715 0
M  V30 45 H 4.8932 -0.947598 0.0275949 0
M  V30 46 H 4.5992 -3.48264 -0.490381 0
M  V30 47 H 4.4732 -3.0702 -2.19132 0
M  V30 48 H 6.8602 -2.08356 -2.08978 0
M  V30 49 H 6.9412 -2.5297 -0.379448 0
M  V30 50 H 6.5852 -4.97482 -1.02341 0
M  V30 51 H 6.5152 -4.49794 -2.73848 0
M  V30 52 H 9.0062 -3.41924 -1.60924 0
M  V30 53 H 9.3192 -7.23564 -2.71433 0
M  V30 54 H 7.6642 -6.50476 -2.44757 0
M  V30 55 H 10.8552 -4.27056 -1.91679 0
M  V30 56 H 11.0282 -6.01078 -2.42093 0
M  V30 57 N 4.4343 0.785586 -1.36625 0
M  V30 58 C 5.6833 1.53883 -1.30396 0
M  V30 59 C 5.9963 1.95271 0.113452 0
M  V30 60 O 7.2023 2.69858 0.298142 0
M  V30 61 C 5.6583 2.77808 -2.28802 0
M  V30 62 C 5.2663 2.43574 -3.75999 0
M  V30 63 C 7.0103 3.55783 -2.31558 0
M  V30 64 C 4.9173 3.63919 -4.66173 0
M  V30 65 H 3.8473 0.577678 -0.484566 0
M  V30 66 H 6.4983 0.861705 -1.62009 0
M  V30 67 H 4.8803 3.47339 -1.90188 0
M  V30 68 H 6.0543 1.81916 -4.23371 0
M  V30 69 H 4.3693 1.78803 -3.76056 0
M  V30 70 H 6.9663 4.45205 -2.96137 0
M  V30 71 H 7.3093 3.94644 -1.3252 0
M  V30 72 H 7.8423 2.93235 -2.68809 0
M  V30 73 H 4.5813 3.3015 -5.66287 0
M  V30 74 H 4.1013 4.2473 -4.23515 0
M  V30 75 H 5.7803 4.30901 -4.82632 0
M  V30 76 N 5.9124 1.20967 1.01018 0
M  V30 77 C 7.1374 1.0503 1.78839 0
M  V30 78 C 7.5624 -0.395752 1.8389 0
M  V30 79 O 6.9204 -1.28529 1.27867 0
M  V30 80 C 6.9684 1.64602 3.2084 0
M  V30 81 O 6.0724 0.887988 4.02726 0
M  V30 82 H 5.4134 0.369987 0.551367 0
M  V30 83 H 7.9434 1.60399 1.27018 0
M  V30 84 H 7.9534 1.68607 3.71532 0
M  V30 85 H 6.6284 2.69841 3.16479 0
M  V30 86 H 5.2054 0.922648 3.61305 0
M  V30 87 N 7.3905 -1.2043 1.01659 0
M  V30 88 C 8.8065 -1.41852 0.731442 0
M  V30 89 C 9.0065 -1.89358 -0.688898 0
M  V30 90 O 8.0625 -2.06247 -1.45666 0
M  V30 91 C 9.3755 -2.44019 1.75714 0
M  V30 92 C 10.9235 -2.57785 1.77527 0
M  V30 93 C 11.3985 -3.63194 2.79023 0
M  V30 94 N 12.8895 -3.70678 2.77763 0
M  V30 95 C 13.6245 -4.51897 3.52954 0
M  V30 96 N 13.1205 -5.36921 4.37821 0
M  V30 97 N 14.9135 -4.4643 3.41551 0
M  V30 98 H 7.0645 -0.879093 1.93354 0
M  V30 99 H 9.3275 -0.448425 0.835236 0
M  V30 100 H 9.0335 -2.1611 2.77469 0
M  V30 101 H 8.9075 -3.43007 1.56927 0
M  V30 102 H 11.2945 -2.85023 0.764569 0
M  V30 103 H 11.3755 -1.58992 2.00387 0
M  V30 104 H 11.0195 -3.36699 3.80258 0
M  V30 105 H 10.9495 -4.61609 2.53425 0
M  V30 106 H 13.4405 -3.09944 2.16201 0
M  V30 107 H 13.7535 -5.95981 4.91962 0
M  V30 108 H 12.0985 -5.36424 4.41899 0
M  V30 109 H 15.2895 -3.79042 2.74672 0
M  V30 110 H 15.4625 -5.09491 4.00404 0
M  V30 111 N 8.8686 -0.792821 -1.36206 0
M  V30 112 C 9.7786 -0.194808 -2.3379 0
M  V30 113 C 10.7946 0.654869 -1.61206 0
M  V30 114 O 11.9706 0.569856 -1.9317 0
M  V30 115 C 9.0356 0.657721 -3.40404 0
M  V30 116 C 8.0966 -0.210849 -4.28782 0
M  V30 117 C 7.3296 0.601086 -5.30304 0
M  V30 118 O 7.5526 1.83682 -5.40016 0
M  V30 119 O 6.4866 -0.000808277 -6.019 0
M  V30 120 H 10.3126 -1.00172 -2.86704 0
M  V30 121 H 7.8976 -0.554341 -1.38735 0
M  V30 122 H 9.7796 1.14375 -4.05581 0
M  V30 123 H 8.4546 1.44247 -2.89784 0
M  V30 124 H 7.3616 -0.743714 -3.66633 0
M  V30 125 H 8.6946 -0.959195 -4.82763 0
M  V30 126 N 10.3467 1.47872 -0.545128 0
M  V30 127 C 11.2797 2.2675 0.256885 0
M  V30 128 C 12.2577 1.33293 0.931228 0
M  V30 129 O 13.4417 1.62657 0.95262 0
M  V30 130 C 10.5687 3.09976 1.36501 0
M  V30 131 C 9.6147 4.1892 0.800496 0
M  V30 132 S 10.4477 5.34397 -0.343505 0
M  V30 133 C 11.6037 6.21186 0.766733 0
M  V30 134 H 11.8367 2.94425 -0.412479 0
M  V30 135 H 9.3697 1.50806 -0.331204 0
M  V30 136 H 11.3277 3.585 1.9997 0
M  V30 137 H 9.9887 2.41686 2.00616 0
M  V30 138 H 9.1817 4.76836 1.63227 0
M  V30 139 H 8.7837 3.73215 0.242217 0
M  V30 140 H 11.0757 6.56804 1.66178 0
M  V30 141 H 12.0187 7.07742 0.225204 0
M  V30 142 H 12.4267 5.54574 1.05396 0
M  V30 143 N 11.8248 0.280983 1.55075 0
M  V30 144 C 12.7578 -0.645439 2.18882 0
M  V30 145 C 13.7358 -1.14786 1.15165 0
M  V30 146 O 14.9198 -1.21975 1.43716 0
M  V30 147 C 12.0468 -1.88088 2.81674 0
M  V30 148 C 11.0928 -1.51343 3.98745 0
M  V30 149 S 11.9258 -0.586548 5.32278 0
M  V30 150 C 13.0818 -1.83024 5.98543 0
M  V30 151 H 13.3148 -0.1033 2.9712 0
M  V30 152 H 10.8478 0.0652099 1.54262 0
M  V30 153 H 12.8058 -2.58997 3.18482 0
M  V30 154 H 11.4668 -2.39417 2.03318 0
M  V30 155 H 10.6598 -2.43289 4.41392 0
M  V30 156 H 10.2618 -0.884477 3.63391 0
M  V30 157 H 12.5538 -2.77342 6.18133 0
M  V30 158 H 13.4968 -1.44668 6.93164 0
M  V30 159 H 13.9048 -1.99785 5.27964 0
M  V30 160 N 13.3029 -1.57598 0.00835791 0
M  V30 161 C 14.2499 -2.08945 -0.980346 0
M  V30 162 C 15.2199 -0.986738 -1.33614 0
M  V30 163 O 16.4049 -1.25968 -1.43306 0
M  V30 164 C 13.5449 -2.60425 -2.26435 0
M  V30 165 C 12.6579 -3.84628 -1.96685 0
M  V30 166 C 11.7929 -4.24579 -3.19228 0
M  V30 167 C 10.8319 -5.41596 -2.85202 0
M  V30 168 N 9.9689 -5.768 -4.00307 0
M  V30 169 H 14.8089 -2.93148 -0.535551 0
M  V30 170 H 12.3459 -1.44912 -0.252776 0
M  V30 171 H 14.3039 -2.88354 -3.01509 0
M  V30 172 H 12.9339 -1.79083 -2.68568 0
M  V30 173 H 11.9859 -3.63556 -1.11942 0
M  V30 174 H 13.2979 -4.69796 -1.67611 0
M  V30 175 H 12.4519 -4.53834 -4.02641 0
M  V30 176 H 11.1909 -3.38137 -3.51447 0
M  V30 177 H 10.1959 -5.12056 -2.00198 0
M  V30 178 H 11.4209 -6.29721 -2.54222 0
M  V30 179 H 9.3669 -4.93316 -4.32407 0
M  V30 180 H 9.2839 -6.5656 -3.74786 0
M  V30 181 H 10.5519 -6.10652 -4.84484 0
M  V30 182 N 14.781 0.264519 -1.55364 0
M  V30 183 C 15.691 1.34902 -1.91934 0
M  V30 184 C 16.707 1.53595 -0.817593 0
M  V30 185 O 17.883 1.67558 -1.11742 0
M  V30 186 C 14.948 2.68676 -2.19121 0
M  V30 187 C 14.009 2.58657 -3.4263 0
M  V30 188 C 13.242 3.86051 -3.68511 0
M  V30 189 O 13.465 4.87126 -2.96757 0
M  V30 190 O 12.399 3.85744 -4.62045 0
M  V30 191 H 16.225 1.06883 -2.8427 0
M  V30 192 H 13.81 0.463775 -1.42019 0
M  V30 193 H 15.692 3.47759 -2.37995 0
M  V30 194 H 14.367 2.96463 -1.29966 0
M  V30 195 H 13.274 1.7792 -3.29082 0
M  V30 196 H 14.607 2.35818 -4.32031 0
M  V30 197 N 16.2591 1.48442 0.529413 0
M  V30 198 C 17.1891 1.65902 1.64313 0
M  V30 199 C 18.1701 0.507897 1.6234 0
M  V30 200 O 19.3551 0.740503 1.79528 0
M  V30 201 C 16.4851 1.69911 3.02898 0
M  V30 202 C 15.4391 2.8453 3.19729 0
M  V30 203 C 14.7651 2.73629 4.59381 0
M  V30 204 C 16.0651 4.25821 3.02447 0
M  V30 205 H 17.7591 2.5914 1.49955 0
M  V30 206 H 15.3051 1.24709 0.719982 0
M  V30 207 H 17.2581 1.80715 3.80684 0
M  V30 208 H 15.9821 0.732524 3.18279 0
M  V30 209 H 14.6411 2.73283 2.44361 0
M  V30 210 H 14.2891 1.74938 4.71599 0
M  V30 211 H 13.9891 3.50541 4.71588 0
M  V30 212 H 15.5131 2.86401 5.39265 0
M  V30 213 H 16.9271 4.37898 3.70024 0
M  V30 214 H 15.3241 5.03735 3.26146 0
M  V30 215 H 16.3941 4.42244 1.98867 0
M  V30 216 N 17.7372 -0.778329 1.37039 0
M  V30 217 C 18.6672 -1.90546 1.34962 0
M  V30 218 C 19.6482 -1.68681 0.219274 0
M  V30 219 O 20.8332 -1.89634 0.418624 0
M  V30 220 C 17.9632 -3.27734 1.14925 0
M  V30 221 C 16.9172 -3.64147 2.24902 0
M  V30 222 C 16.2432 -4.99806 1.89996 0
M  V30 223 C 17.5432 -3.71579 3.67051 0
M  V30 224 H 19.2372 -1.92541 2.29277 0
M  V30 225 H 16.7832 -0.924948 1.10366 0
M  V30 226 H 18.7362 -4.06215 1.12104 0
M  V30 227 H 17.4602 -3.26154 0.170631 0
M  V30 228 H 16.1192 -2.8797 2.26868 0
M  V30 229 H 15.7672 -4.94759 0.906796 0
M  V30 230 H 15.4672 -5.25139 2.63634 0
M  V30 231 H 16.9912 -5.80694 1.88749 0
M  V30 232 H 18.4052 -4.40227 3.67251 0
M  V30 233 H 16.8022 -4.08405 4.39688 0
M  V30 234 H 17.8722 -2.72404 4.01154 0
M  V30 235 N 19.2153 -1.21501 -1.00376 0
M  V30 236 C 20.4403 -1.05977 -1.78279 0
M  V30 237 C 20.8653 0.385994 -1.84097 0
M  V30 238 O 20.2233 1.27849 -1.28547 0
M  V30 239 C 20.2713 -1.66302 -3.19963 0
M  V30 240 O 19.3753 -0.909333 -4.0225 0
M  V30 241 H 18.7163 -0.372906 -0.549397 0
M  V30 242 H 21.2463 -1.6107 -1.26165 0
M  V30 243 H 21.2563 -1.70574 -3.70632 0
M  V30 244 H 19.9313 -2.71515 -3.15043 0
M  V30 245 H 18.5083 -0.941795 -3.60811 0
M  V30 246 N 20.6934 1.19889 -1.02296 0
M  V30 247 C 21.9394 1.89701 -0.717033 0
M  V30 248 C 22.2724 1.7905 0.751989 0
M  V30 249 O 21.5474 1.17891 1.547 0
M  V30 250 C 21.8304 3.40858 -1.16136 0
M  V30 251 C 21.6834 3.60411 -2.69117 0
M  V30 252 C 23.0024 4.33876 -0.737549 0
M  V30 253 H 20.1214 0.688874 -0.261957 0
M  V30 254 H 22.7634 1.41154 -1.27183 0
M  V30 255 H 20.9134 3.82335 -0.689342 0
M  V30 256 H 22.5854 3.28145 -3.2422 0
M  V30 257 H 20.8284 3.03665 -3.0979 0
M  V30 258 H 21.4994 4.66396 -2.95261 0
M  V30 259 H 23.9754 4.00081 -1.14344 0
M  V30 260 H 22.8514 5.38242 -1.0764 0
M  V30 261 H 23.1124 4.40628 0.360436 0
M  V30 262 N 22.1715 0.800033 1.35784 0
M  V30 263 C 23.4015 0.389041 2.02904 0
M  V30 264 C 23.8095 -1.0027 1.60445 0
M  V30 265 O 23.1525 -1.65633 0.794453 0
M  V30 266 C 23.2145 0.385495 3.57427 0
M  V30 267 C 22.8785 1.72662 4.23127 0
M  V30 268 C 23.8755 2.68385 4.4527 0
M  V30 269 C 21.5605 2.00883 4.60381 0
M  V30 270 C 23.5545 3.90517 5.03761 0
M  V30 271 C 21.2415 3.2328 5.18588 0
M  V30 272 C 22.2395 4.17915 5.40218 0
M  V30 273 O 21.9275 5.38153 5.97199 0
M  V30 274 H 21.6595 0.157032 0.657508 0
M  V30 275 H 24.2135 1.08311 1.74522 0
M  V30 276 H 22.4435 -0.365128 3.84972 0
M  V30 277 H 24.1325 -0.00228296 4.059 0
M  V30 278 H 24.8985 2.47872 4.16874 0
M  V30 279 H 20.7775 1.28037 4.42863 0
M  V30 280 H 24.3215 4.64395 5.2056 0
M  V30 281 H 20.2185 3.43667 5.4641 0
M  V30 282 H 20.9865 5.3936 6.15656 0
M  V30 283 N 23.6496 -1.47581 0.552962 0
M  V30 284 C 24.8966 -2.02482 0.0273243 0
M  V30 285 C 25.2246 -1.42776 -1.32081 0
M  V30 286 O 24.4796 -0.571393 -1.87173 0
M  V30 287 C 24.7786 -3.57199 -0.119728 0
M  V30 288 C 24.4446 -4.35804 1.15697 0
M  V30 289 C 23.1066 -4.57 1.50681 0
M  V30 290 C 25.4586 -4.81167 2.00319 0
M  V30 291 C 22.7866 -5.20807 2.70142 0
M  V30 292 C 25.1386 -5.46293 3.18978 0
M  V30 293 C 23.8026 -5.65722 3.54281 0
M  V30 294 H 23.0726 -0.740933 0.00999866 0
M  V30 295 H 25.7196 -1.77302 0.72362 0
M  V30 296 H 24.0246 -3.81348 -0.89896 0
M  V30 297 H 25.7216 -3.97324 -0.541718 0
M  V30 298 H 22.3116 -4.19582 0.874561 0
M  V30 299 H 26.4956 -4.64574 1.74599 0
M  V30 300 H 21.7516 -5.34045 2.97668 0
M  V30 301 H 25.9256 -5.80407 3.84838 0
M  V30 302 H 23.5526 -6.14936 4.46942 0
M  V30 303 N 25.1277 -0.289203 -1.54924 0
M  V30 304 C 26.3767 0.324231 -1.99077 0
M  V30 305 C 26.6897 1.5591 -1.18117 0
M  V30 306 O 27.8957 2.24637 -1.52481 0
M  V30 307 C 26.3517 0.628209 -3.54375 0
M  V30 308 C 25.9597 -0.587647 -4.44129 0
M  V30 309 C 27.7037 1.20349 -4.07083 0
M  V30 310 C 25.6107 -0.257475 -5.90839 0
M  V30 311 H 24.5407 0.124924 -0.743579 0
M  V30 312 H 27.1917 -0.396063 -1.79175 0
M  V30 313 H 25.5737 1.40778 -3.70132 0
M  V30 314 H 26.7477 -1.36418 -4.40144 0
M  V30 315 H 25.0627 -1.08074 -4.0213 0
M  V30 316 H 27.6597 1.46456 -5.14252 0
M  V30 317 H 28.0027 2.14195 -3.56968 0
M  V30 318 H 28.5357 0.485889 -3.94821 0
M  V30 319 H 25.2747 -1.16419 -6.45079 0
M  V30 320 H 24.7947 0.482018 -5.9786 0
M  V30 321 H 26.4737 0.145238 -6.46837 0
M  V30 322 N 26.6058 1.57591 -0.0167156 0
M  V30 323 C 27.5388 2.04944 1.00366 0
M  V30 324 C 28.5168 0.942648 1.32487 0
M  V30 325 O 29.7008 1.21205 1.44367 0
M  V30 326 C 26.8278 2.46109 2.32697 0
M  V30 327 C 25.8738 3.67686 2.16123 0
M  V30 328 S 26.7068 5.14882 1.47161 0
M  V30 329 C 27.8628 5.59332 2.80888 0
M  V30 330 H 28.0958 2.91172 0.600528 0
M  V30 331 H 25.6288 1.53168 0.194632 0
M  V30 332 H 27.5868 2.70493 3.08778 0
M  V30 333 H 26.2478 1.6025 2.70146 0
M  V30 334 H 25.4408 3.94296 3.13922 0
M  V30 335 H 25.0428 3.43391 1.48185 0
M  V30 336 H 27.3348 5.62814 3.77156 0
M  V30 337 H 28.2778 6.5905 2.58958 0
M  V30 338 H 28.6858 4.86942 2.85565 0
M  V30 339 N 28.0839 -0.256276 1.55502 0
M  V30 340 C 29.3319 -0.983672 1.76545 0
M  V30 341 C 29.6529 -1.86206 0.578982 0
M  V30 342 O 28.9229 -1.91656 -0.405577 0
M  V30 343 H 27.5029 -0.366191 0.651086 0
M  V30 344 H 30.1649 -0.276479 1.92929 0
M  V30 345 H 29.2609 -1.61087 2.67315 0
M  V30 346 N 29.562 -1.4872 -0.521534 0
M  V30 347 C 30.787 -1.61101 -1.30618 0
M  V30 348 C 31.212 -0.274611 -1.86085 0
M  V30 349 O 30.57 0.754937 -1.64834 0
M  V30 350 C 30.618 -2.66709 -2.4269 0
M  V30 351 O 29.722 -2.24456 -3.45967 0
M  V30 352 H 29.063 -0.539921 -0.386499 0
M  V30 353 H 31.593 -1.94767 -0.626645 0
M  V30 354 H 31.603 -2.88245 -2.88754 0
M  V30 355 H 30.278 -3.63727 -2.01682 0
M  V30 356 H 28.855 -2.13168 -3.05964 0
M  V30 357 N 31.0401 0.771051 -1.3745 0
M  V30 358 C 31.9881 1.90574 -1.33358 0
M  V30 359 C 32.9821 1.67936 -0.22224 0
M  V30 360 O 34.1881 1.75717 -0.390304 0
M  V30 361 H 30.5631 0.626714 -0.415612 0
M  V30 362 H 32.5341 1.91142 -2.29144 0
M  V30 363 C 31.2831 3.27845 -1.15813 0
M  V30 364 H 30.6061 3.45842 -2.00583 0
M  V30 365 H 32.0461 4.07538 -1.17 0
M  V30 366 C 30.5051 3.36625 0.136165 0
M  V30 367 O 31.0351 3.85785 1.11949 0
M  V30 368 N 29.2411 2.89997 0.187099 0
M  V30 369 H 28.7881 2.50182 -0.613753 0
M  V30 370 H 28.7461 2.96252 1.05272 0
M  V30 371 N 32.5182 1.22032 0.997298 0
M  V30 372 C 33.4662 0.983634 2.10778 0
M  V30 373 C 34.4602 -0.0717564 1.69248 0
M  V30 374 O 35.6662 0.080304 1.79821 0
M  V30 375 H 32.0412 0.300877 0.689186 0
M  V30 376 H 34.0122 1.92606 2.27916 0
M  V30 377 C 32.7612 0.57326 3.42942 0
M  V30 378 H 32.0842 1.37702 3.75338 0
M  V30 379 H 33.5242 0.447031 4.21637 0
M  V30 380 C 31.9832 -0.7167 3.29188 0
M  V30 381 O 32.5132 -1.77027 3.60589 0
M  V30 382 N 30.7192 -0.686167 2.82383 0
M  V30 383 H 30.2662 0.171507 2.57028 0
M  V30 384 H 30.2242 -1.54955 2.73562 0
M  V30 385 N 33.9963 -1.19345 1.0293 0
M  V30 386 C 35.2243 -1.92997 0.745644 0
M  V30 387 C 35.6393 -1.75519 -0.695589 0
M  V30 388 O 34.9963 -1.07737 -1.47306 0
M  V30 389 C 35.0473 -3.44741 1.08792 0
M  V30 390 O 34.7683 -3.61658 2.47256 0
M  V30 391 C 36.2693 -4.35515 0.827129 0
M  V30 392 H 33.4893 -0.613042 0.272801 0
M  V30 393 H 36.0333 -1.51473 1.3739 0
M  V30 394 H 34.1883 -3.84097 0.504832 0
M  V30 395 H 34.6023 -4.55514 2.60015 0
M  V30 396 H 36.0763 -5.40589 1.11658 0
M  V30 397 H 36.5533 -4.38552 -0.238436 0
M  V30 398 H 37.1593 -4.01841 1.39297 0
M  V30 399 N 35.4744 -0.807222 -1.35358 0
M  V30 400 C 36.4214 -0.216037 -2.29787 0
M  V30 401 C 37.3914 0.650278 -1.52842 0
M  V30 402 O 38.5764 0.595227 -1.81278 0
M  V30 403 C 35.7164 0.628893 -3.39321 0
M  V30 404 C 34.8294 -0.257927 -4.31229 0
M  V30 405 C 33.9644 0.595069 -5.27856 0
M  V30 406 C 33.0034 -0.292111 -6.11403 0
M  V30 407 N 32.1404 0.520895 -7.00165 0
M  V30 408 H 36.9804 -1.02671 -2.79755 0
M  V30 409 H 34.5174 -0.517839 -1.37684 0
M  V30 410 H 36.4754 1.13393 -4.01494 0
M  V30 411 H 35.1054 1.40482 -2.90628 0
M  V30 412 H 34.1574 -0.881076 -3.70056 0
M  V30 413 H 35.4694 -0.940759 -4.89848 0
M  V30 414 H 34.6234 1.16522 -5.95405 0
M  V30 415 H 33.3624 1.31146 -4.69736 0
M  V30 416 H 32.3674 -0.874525 -5.428 0
M  V30 417 H 33.5924 -1.00638 -6.71602 0
M  V30 418 H 31.5384 1.22125 -6.44532 0
M  V30 419 H 31.4554 -0.103877 -7.55929 0
M  V30 420 H 32.7234 1.0743 -7.72062 0
M  V30 421 N 36.9525 1.47285 -0.560781 0
M  V30 422 C 37.9155 2.28535 0.174488 0
M  V30 423 C 38.9155 1.37153 0.839388 0
M  V30 424 O 40.1055 1.59748 0.694702 0
M  V30 425 C 37.2375 3.16934 1.25561 0
M  V30 426 H 38.4305 2.95012 -0.539262 0
M  V30 427 H 35.9835 1.53034 -0.317865 0
M  V30 428 H 36.7185 2.55157 2.00164 0
M  V30 429 H 36.5035 3.8419 0.783604 0
M  V30 430 H 37.9935 3.78143 1.77193 0
M  V30 431 N 38.4306 0.297415 1.54768 0
M  V30 432 C 39.7076 -0.365847 1.92148 0
M  V30 433 C 40.0876 -1.71975 1.22424 0
M  V30 434 O 39.4356 -2.25666 0.358739 0
M  V30 435 C 39.6456 -0.484056 3.45627 0
M  V30 436 C 40.9936 -0.756594 4.17805 0
M  V30 437 O 42.0176 -0.568007 3.51642 0
M  V30 438 O 40.8766 -1.11863 5.34929 0
M  V30 439 H 37.9706 -0.203919 0.801465 0
M  V30 440 H 40.5166 0.34521 1.66152 0
M  V30 441 H 39.2886 0.467865 3.88493 0
M  V30 442 H 38.9116 -1.24372 3.77647 0
M  V30 443 N 39.9087 -1.5758 0.0250728 0
M  V30 444 C 41.3197 -1.79476 -0.514323 0
M  V30 445 C 41.6707 -0.934956 -1.72491 0
M  V30 446 O 40.7957 -0.144245 -2.15919 0
M  V30 447 C 41.3907 -3.25503 -0.939842 0
M  V30 448 C 39.9497 -3.48408 -1.42438 0
M  V30 449 C 39.0967 -2.74583 -0.387201 0
M  V30 450 H 42.0477 -1.567 0.25113 0
M  V30 451 H 42.0687 -3.34992 -1.80445 0
M  V30 452 H 41.5807 -3.88056 -0.0585628 0
M  V30 453 H 39.6817 -2.91103 -2.32572 0
M  V30 454 H 39.7947 -4.57119 -1.43455 0
M  V30 455 H 38.1587 -2.39942 -0.854409 0
M  V30 456 H 38.9417 -3.39849 0.485543 0
M  V30 457 N 41.3868 0.248026 -1.55636 0
M  V30 458 C 42.6328 0.97767 -1.77678 0
M  V30 459 C 42.9658 1.85016 -0.590135 0
M  V30 460 O 42.2408 1.90095 0.411611 0
M  V30 461 C 42.5238 1.83914 -3.09593 0
M  V30 462 C 42.3768 0.99491 -4.38659 0
M  V30 463 C 43.6958 2.82183 -3.37729 0
M  V30 464 H 40.8148 0.354005 -0.646413 0
M  V30 465 H 43.4568 0.248253 -1.88371 0
M  V30 466 H 41.6068 2.46104 -3.00608 0
M  V30 467 H 43.2788 0.391789 -4.59633 0
M  V30 468 H 41.5218 0.299231 -4.32767 0
M  V30 469 H 42.1928 1.63145 -5.2734 0
M  V30 470 H 44.6688 2.30129 -3.4667 0
M  V30 471 H 43.5448 3.39582 -4.31249 0
M  V30 472 H 43.8058 3.58588 -2.58586 0
M  V30 473 N 42.8649 1.48995 0.513639 0
M  V30 474 C 44.0929 1.61531 1.29288 0
M  V30 475 C 44.5079 0.281801 1.86685 0
M  V30 476 O 43.8649 -0.731111 1.67215 0
M  V30 477 C 43.9159 2.67449 2.43215 0
M  V30 478 O 43.6369 3.95626 1.88179 0
M  V30 479 C 45.1379 2.90575 3.34785 0
M  V30 480 H 42.3579 0.544165 0.392588 0
M  V30 481 H 44.9019 1.9494 0.617956 0
M  V30 482 H 43.0569 2.36853 3.0656 0
M  V30 483 H 43.4709 4.53868 2.62876 0
M  V30 484 H 44.9449 3.68449 4.11035 0
M  V30 485 H 45.4219 2.00011 3.91015 0
M  V30 486 H 46.0279 3.22538 2.77218 0
M  V30 487 N 44.343 -0.763751 1.37857 0
M  V30 488 C 45.589 -1.52483 1.33704 0
M  V30 489 C 45.922 -1.94051 -0.0759612 0
M  V30 490 O 45.197 -1.64675 -1.03501 0
M  V30 491 C 45.48 -2.78441 2.28348 0
M  V30 492 C 45.333 -2.43075 3.78463 0
M  V30 493 C 46.652 -3.80415 2.21298 0
M  V30 494 H 43.771 -0.553169 0.487005 0
M  V30 495 H 46.413 -0.875562 1.68624 0
M  V30 496 H 44.563 -3.33842 1.987 0
M  V30 497 H 46.235 -1.93527 4.18742 0
M  V30 498 H 44.478 -1.75666 3.96641 0
M  V30 499 H 45.149 -3.33149 4.40132 0
M  V30 500 H 47.625 -3.34527 2.47449 0
M  V30 501 H 46.501 -4.66257 2.89647 0
M  V30 502 H 46.762 -4.25262 1.20849 0
M  V30 503 N 45.8211 -1.22559 -0.990812 0
M  V30 504 C 47.0671 -1.05297 -1.73322 0
M  V30 505 C 47.4001 0.410655 -1.89808 0
M  V30 506 O 46.6751 1.30439 -1.44277 0
M  V30 507 C 46.9581 -1.76713 -3.13759 0
M  V30 508 C 46.8111 -3.30684 -3.04907 0
M  V30 509 C 48.1301 -1.52121 -4.12974 0
M  V30 510 H 45.2491 -0.38392 -0.629106 0
M  V30 511 H 47.8911 -1.50926 -1.15418 0
M  V30 512 H 46.0411 -1.37924 -3.63193 0
M  V30 513 H 47.7131 -3.7893 -2.63077 0
M  V30 514 H 45.9561 -3.60253 -2.41661 0
M  V30 515 H 46.6271 -3.75833 -4.04294 0
M  V30 516 H 49.1031 -1.85819 -3.72304 0
M  V30 517 H 47.9791 -2.04582 -5.0935 0
M  V30 518 H 48.2401 -0.454257 -4.3976 0
M  V30 519 N 47.2992 1.18797 -1.03562 0
M  V30 520 C 48.2312 2.21731 -0.580337 0
M  V30 521 C 49.2442 1.59051 0.347349 0
M  V30 522 O 50.4332 1.77929 0.142669 0
M  V30 523 C 47.5332 3.38459 0.172805 0
M  V30 524 C 46.7062 4.3072 -0.761496 0
M  V30 525 C 45.7652 5.26174 -0.0525547 0
M  V30 526 O 44.7912 5.65108 -0.681333 0
M  V30 527 N 45.9932 5.67624 1.21586 0
M  V30 528 H 48.7582 2.61417 -1.46565 0
M  V30 529 H 46.3192 1.33531 -0.915476 0
M  V30 530 H 48.3112 3.99335 0.656793 0
M  V30 531 H 46.8812 2.97507 0.959602 0
M  V30 532 H 46.1012 3.67525 -1.42544 0
M  V30 533 H 47.3892 4.89267 -1.39626 0
M  V30 534 H 46.7872 5.38038 1.74732 0
M  V30 535 H 45.3442 6.30721 1.64421 0
M  V30 536 N 48.7773 0.814389 1.34928 0
M  V30 537 C 49.7243 0.22822 2.29669 0
M  V30 538 C 50.6943 -0.642164 1.53184 0
M  V30 539 O 51.8793 -0.585605 1.81591 0
M  V30 540 C 49.0193 -0.61089 3.3965 0
M  V30 541 C 48.1323 0.280792 4.31086 0
M  V30 542 C 47.2673 -0.567067 5.28165 0
M  V30 543 C 46.3063 0.324531 6.11239 0
M  V30 544 N 45.4433 -0.483756 7.00431 0
M  V30 545 H 50.2833 1.04153 2.79206 0
M  V30 546 H 47.8203 0.525133 1.37407 0
M  V30 547 H 49.7783 -1.11263 4.0209 0
M  V30 548 H 48.4083 -1.38939 2.91369 0
M  V30 549 H 47.4603 0.900688 3.69583 0
M  V30 550 H 48.7723 0.966723 4.89342 0
M  V30 551 H 47.9263 -1.13363 5.96015 0
M  V30 552 H 46.6653 -1.28654 4.70425 0
M  V30 553 H 45.6703 0.903298 5.42329 0
M  V30 554 H 46.8953 1.04198 6.71059 0
M  V30 555 H 44.8413 -1.18706 6.45171 0
M  V30 556 H 44.7583 0.143965 7.55863 0
M  V30 557 H 46.0263 -1.03334 7.7262 0
M  V30 558 N 50.2554 -1.46986 0.568584 0
M  V30 559 C 51.2184 -2.28624 -0.162366 0
M  V30 560 C 52.2184 -1.37596 -0.832103 0
M  V30 561 O 53.4084 -1.60115 -0.68622 0
M  V30 562 C 50.5404 -3.17596 -1.23878 0
M  V30 563 H 51.7334 -2.94722 0.554899 0
M  V30 564 H 49.2864 -1.52863 0.325976 0
M  V30 565 H 50.0214 -2.56214 -1.98808 0
M  V30 566 H 49.8064 -3.846 -0.763219 0
M  V30 567 H 51.2964 -3.79078 -1.75185 0
M  V30 568 N 51.7335 -0.305618 -1.54608 0
M  V30 569 C 52.6635 0.561482 -2.26649 0
M  V30 570 C 53.6445 1.13415 -1.26772 0
M  V30 571 O 54.8295 1.16262 -1.55553 0
M  V30 572 C 51.9595 1.73122 -3.01075 0
M  V30 573 C 50.9135 1.2887 -4.08138 0
M  V30 574 C 50.2395 2.54396 -4.70305 0
M  V30 575 C 51.5395 0.416578 -5.20636 0
M  V30 576 H 53.2335 -0.0393902 -2.99374 0
M  V30 577 H 50.7795 -0.020385 -1.43986 0
M  V30 578 H 52.7325 2.34396 -3.50195 0
M  V30 579 H 51.4565 2.3584 -2.25936 0
M  V30 580 H 50.1155 0.698991 -3.59875 0
M  V30 581 H 49.7635 3.15439 -3.918 0
M  V30 582 H 49.4635 2.25486 -5.42614 0
M  V30 583 H 50.9875 3.16464 -5.2219 0
M  V30 584 H 52.4015 0.935116 -5.65622 0
M  V30 585 H 50.7985 0.221046 -5.99693 0
M  V30 586 H 51.8685 -0.557162 -4.81688 0
M  V30 587 N 53.2116 1.57565 -0.0334293 0
M  V30 588 C 54.1586 2.10478 0.946981 0
M  V30 589 C 55.1286 1.00787 1.32027 0
M  V30 590 O 56.3136 1.28232 1.41284 0
M  V30 591 C 53.4536 2.63994 2.22263 0
M  V30 592 C 52.5666 3.87709 1.90541 0
M  V30 593 C 51.7016 4.29604 3.12433 0
M  V30 594 C 50.7406 5.46065 2.76549 0
M  V30 595 N 49.8776 5.83096 3.9108 0
M  V30 596 H 54.7176 2.93963 0.488846 0
M  V30 597 H 52.2546 1.45296 0.22969 0
M  V30 598 H 54.2126 2.93114 2.96884 0
M  V30 599 H 52.8426 1.83333 2.65685 0
M  V30 600 H 51.8946 3.65291 1.06144 0
M  V30 601 H 53.2066 4.72403 1.60116 0
M  V30 602 H 52.3606 4.60182 3.9537 0
M  V30 603 H 51.0996 3.43685 3.46023 0
M  V30 604 H 50.1046 5.15176 1.92026 0
M  V30 605 H 51.3296 6.33685 2.44171 0
M  V30 606 H 49.2756 5.00132 4.24504 0
M  V30 607 H 49.1926 6.6244 3.64293 0
M  V30 608 H 50.4606 6.18282 4.74708 0
M  V30 609 N 54.6897 -0.239769 1.55765 0
M  V30 610 C 55.9377 -0.964892 1.77579 0
M  V30 611 C 56.2587 -1.85582 0.598699 0
M  V30 612 O 55.5287 -1.92075 -0.385226 0
M  V30 613 H 54.1087 -0.359265 0.654933 0
M  V30 614 H 56.7707 -0.256001 1.93211 0
M  V30 615 H 55.8667 -1.58243 2.69009 0
M  V30 616 N 56.1678 -1.49265 -0.50573 0
M  V30 617 C 57.4158 -1.582 -1.25766 0
M  V30 618 C 57.7368 -0.268482 -1.93143 0
M  V30 619 O 57.0068 0.711833 -1.8251 0
M  V30 620 H 55.5868 -0.582873 -0.467191 0
M  V30 621 H 58.2488 -1.85865 -0.586525 0
M  V30 622 H 57.3448 -2.37563 -2.02412 0
M  V30 623 N 57.6459 0.756429 -1.3826 0
M  V30 624 C 58.6089 1.85176 -1.35065 0
M  V30 625 C 59.6089 1.58818 -0.251703 0
M  V30 626 O 60.7989 1.66615 -0.508433 0
M  V30 627 C 57.9309 3.22596 -1.10201 0
M  V30 628 H 59.1239 1.89417 -2.3251 0
M  V30 629 H 56.6769 0.95783 -1.23512 0
M  V30 630 H 57.4119 3.24025 -0.133504 0
M  V30 631 H 57.1969 3.43122 -1.89762 0
M  V30 632 H 58.6869 4.02673 -1.10654 0
M  V30 633 N 59.124 1.23083 0.984299 0
M  V30 634 C 60.352 1.08714 1.76037 0
M  V30 635 C 60.767 -0.361691 1.85303 0
M  V30 636 O 60.124 -1.25034 1.32939 0
M  V30 637 C 60.175 1.70206 3.18923 0
M  V30 638 O 59.896 3.09423 3.10144 0
M  V30 639 C 61.397 1.61227 4.12941 0
M  V30 640 H 58.617 0.380664 0.552572 0
M  V30 641 H 61.161 1.62853 1.23689 0
M  V30 642 H 59.316 1.20109 3.6831 0
M  V30 643 H 59.73 3.39188 4.00065 0
M  V30 644 H 61.204 2.08962 5.10919 0
M  V30 645 H 61.681 0.570375 4.35481 0
M  V30 646 H 62.287 2.10671 3.69456 0
M  V30 647 N 60.6021 -1.18246 1.0419 0
M  V30 648 C 61.5321 -2.24127 0.654914 0
M  V30 649 C 62.5131 -1.66617 -0.342451 0
M  V30 650 O 63.6981 -1.92924 -0.222277 0
M  V30 651 C 60.8281 -3.47295 0.0183757 0
M  V30 652 C 59.7821 -4.17563 0.939414 0
M  V30 653 C 59.1081 -5.34438 0.167286 0
M  V30 654 C 60.4081 -4.70917 2.25908 0
M  V30 655 H 62.1021 -2.56753 1.54007 0
M  V30 656 H 59.6481 -1.23414 0.74195 0
M  V30 657 H 61.6011 -4.20572 -0.264082 0
M  V30 658 H 60.3251 -3.13907 -0.901664 0
M  V30 659 H 58.9841 -3.46186 1.20628 0
M  V30 660 H 58.6321 -4.97298 -0.7552 0
M  V30 661 H 58.3321 -5.82388 0.780901 0
M  V30 662 H 59.8561 -6.10504 -0.108125 0
M  V30 663 H 61.2701 -5.35882 2.03724 0
M  V30 664 H 59.6671 -5.29406 2.82577 0
M  V30 665 H 60.7371 -3.88272 2.9047 0
M  V30 666 N 62.0802 -0.821533 -1.34494 0
M  V30 667 C 63.3102 -0.421272 -2.02259 0
M  V30 668 C 63.7182 0.977047 -1.6202 0
M  V30 669 O 63.0612 1.64348 -0.820703 0
M  V30 670 C 63.1232 -0.44231 -3.56769 0
M  V30 671 C 62.7872 -1.79372 -4.20327 0
M  V30 672 C 63.7842 -2.75435 -4.40944 0
M  V30 673 C 61.4692 -2.08182 -4.57127 0
M  V30 674 C 63.4632 -3.98482 -4.97484 0
M  V30 675 C 61.1502 -3.31489 -5.13379 0
M  V30 676 C 62.1482 -4.26457 -5.33501 0
M  V30 677 O 61.8362 -5.47585 -5.88562 0
M  V30 678 H 61.5682 -0.167473 -0.654927 0
M  V30 679 H 64.1222 -1.11073 -1.72777 0
M  V30 680 H 62.3522 0.303836 -3.85505 0
M  V30 681 H 64.0412 -0.0622925 -4.05852 0
M  V30 682 H 64.8072 -2.54473 -4.12878 0
M  V30 683 H 60.6862 -1.35066 -4.4077 0
M  V30 684 H 64.2302 -4.72618 -5.13106 0
M  V30 685 H 60.1272 -3.52316 -5.40873 0
M  V30 686 H 60.8952 -5.49086 -6.06998 0
M  V30 687 N 63.5583 1.46682 -0.576371 0
M  V30 688 C 64.4903 2.28341 0.198231 0
M  V30 689 C 65.5033 1.38141 0.861453 0
M  V30 690 O 66.6923 1.62797 0.732082 0
M  V30 691 C 63.7923 3.12986 1.29972 0
M  V30 692 C 62.9653 4.31271 0.729639 0
M  V30 693 C 62.0243 4.97363 1.71803 0
M  V30 694 O 61.0503 5.55156 1.25658 0
M  V30 695 N 62.2523 4.93796 3.05198 0
M  V30 696 H 65.0173 2.9546 -0.502324 0
M  V30 697 H 62.5783 1.56525 -0.413715 0
M  V30 698 H 64.5703 3.54066 1.96008 0
M  V30 699 H 63.1403 2.47984 1.90323 0
M  V30 700 H 62.3603 3.94052 -0.108012 0
M  V30 701 H 63.6483 5.07739 0.328438 0
M  V30 702 H 63.0463 4.48077 3.45317 0
M  V30 703 H 61.6033 5.38837 3.6674 0
M  V30 704 N 65.0364 0.313813 1.54444 0
M  V30 705 C 66.2834 -0.291675 2.00388 0
M  V30 706 C 66.6114 -1.52904 1.2021 0
M  V30 707 O 65.8664 -1.93833 0.269707 0
M  V30 708 C 66.1654 -0.680386 3.50864 0
M  V30 709 C 65.8314 0.456699 4.48581 0
M  V30 710 C 64.4934 0.768824 4.75018 0
M  V30 711 C 66.8454 1.22098 5.06697 0
M  V30 712 C 64.1734 1.84812 5.56831 0
M  V30 713 C 66.5254 2.29029 5.89685 0
M  V30 714 C 65.1894 2.60834 6.14428 0
M  V30 715 H 64.4594 -0.106732 0.733273 0
M  V30 716 H 67.1064 0.43557 1.86481 0
M  V30 717 H 65.4114 -1.48791 3.62448 0
M  V30 718 H 67.1084 -1.16026 3.83847 0
M  V30 719 H 63.6984 0.203337 4.28117 0
M  V30 720 H 67.8824 0.993096 4.86263 0
M  V30 721 H 63.1384 2.09912 5.74236 0
M  V30 722 H 67.3124 2.887 6.33739 0
M  V30 723 H 64.9394 3.44596 6.77612 0
M  V30 724 N 66.5145 -1.57545 0.0417849 0
M  V30 725 C 67.9305 -1.56467 -0.314704 0
M  V30 726 C 68.1305 -1.04859 -1.72066 0
M  V30 727 O 67.1865 -0.700983 -2.42575 0
M  V30 728 C 68.4995 -3.00317 -0.15174 0
M  V30 729 C 70.0475 -3.12201 -0.223553 0
M  V30 730 C 70.5225 -4.57913 -0.0892295 0
M  V30 731 N 72.0135 -4.6297 -0.145808 0
M  V30 732 C 72.7485 -5.73362 -0.0658459 0
M  V30 733 N 72.2445 -6.92769 0.0659282 0
M  V30 734 N 74.0375 -5.6197 -0.12075 0
M  V30 735 H 66.1885 -1.89416 0.961014 0
M  V30 736 H 68.4515 -0.871862 0.372237 0
M  V30 737 H 68.1575 -3.42073 0.817254 0
M  V30 738 H 68.0315 -3.65892 -0.916692 0
M  V30 739 H 70.4185 -2.70349 -1.18301 0
M  V30 740 H 70.4995 -2.49323 0.571994 0
M  V30 741 H 70.1435 -5.00448 0.866867 0
M  V30 742 H 70.0735 -5.18786 -0.903802 0
M  V30 743 H 72.5645 -3.7709 -0.247286 0
M  V30 744 H 72.8775 -7.72707 0.119905 0
M  V30 745 H 71.2225 -6.94927 0.100885 0
M  V30 746 H 74.4135 -4.67572 -0.222187 0
M  V30 747 H 74.5865 -6.47977 -0.0549735 0
M  V30 748 N 67.9926 0.231505 -1.5589 0
M  V30 749 C 68.9026 1.308 -1.94752 0
M  V30 750 C 69.9186 1.51826 -0.849989 0
M  V30 751 O 71.0946 1.6515 -1.15271 0
M  V30 752 C 68.1596 2.63968 -2.24771 0
M  V30 753 C 67.2206 2.51331 -3.48039 0
M  V30 754 C 66.4536 3.78148 -3.76616 0
M  V30 755 O 66.6766 4.80722 -3.07022 0
M  V30 756 O 65.6106 3.75857 -4.70123 0
M  V30 757 H 69.4366 1.0083 -2.86474 0
M  V30 758 H 67.0216 0.433547 -1.42971 0
M  V30 759 H 68.9036 3.42633 -2.45318 0
M  V30 760 H 67.5786 2.9364 -1.36225 0
M  V30 761 H 66.4856 1.709 -3.32782 0
M  V30 762 H 67.8186 2.26601 -4.36936 0
M  V30 763 N 69.4707 1.49531 0.497807 0
M  V30 764 C 70.4177 1.66436 1.59899 0
M  V30 765 C 71.3877 0.505793 1.58212 0
M  V30 766 O 72.5727 0.733202 1.7615 0
M  V30 767 C 69.7127 1.7399 2.98029 0
M  V30 768 C 68.8257 3.01172 3.09708 0
M  V30 769 C 67.9607 2.99686 4.38591 0
M  V30 770 C 66.9997 4.21434 4.43914 0
M  V30 771 N 66.1367 4.1784 5.64229 0
M  V30 772 H 70.9767 2.60459 1.44793 0
M  V30 773 H 68.5137 1.29137 0.704423 0
M  V30 774 H 70.4717 1.76352 3.78095 0
M  V30 775 H 69.1017 0.834301 3.11832 0
M  V30 776 H 68.1537 3.08408 2.22685 0
M  V30 777 H 69.4657 3.91165 3.09502 0
M  V30 778 H 68.6197 3.00628 5.2698 0
M  V30 779 H 67.3587 2.07477 4.41367 0
M  V30 780 H 66.3637 4.20733 3.53926 0
M  V30 781 H 67.5887 5.14839 4.42851 0
M  V30 782 H 65.5347 3.28469 5.67841 0
M  V30 783 H 65.4517 5.01571 5.65652 0
M  V30 784 H 66.7197 4.22889 6.54817 0
M  V30 785 N 70.9488 -0.749086 1.3866 0
M  V30 786 C 72.1968 -1.50535 1.34847 0
M  V30 787 C 72.5178 -1.94909 -0.0595016 0
M  V30 788 O 71.7878 -1.67973 -1.00806 0
M  V30 789 H 70.3678 -0.558395 0.49619 0
M  V30 790 H 73.0298 -0.890165 1.73384 0
M  V30 791 H 72.1258 -2.39413 2.00219 0
M  V30 792 N 72.4269 -1.23603 -0.977757 0
M  V30 793 C 73.6749 -1.06759 -1.71601 0
M  V30 794 C 73.9959 0.395929 -1.90938 0
M  V30 795 O 73.2659 1.28356 -1.47992 0
M  V30 796 H 71.8459 -0.392062 -0.635843 0
M  V30 797 H 74.5079 -1.55362 -1.1768 0
M  V30 798 H 73.6039 -1.55763 -2.70452 0
M  V30 799 N 73.905 1.17692 -1.04816 0
M  V30 800 C 75.182 1.83768 -0.669963 0
M  V30 801 C 75.562 1.93232 0.849986 0
M  V30 802 O 74.91 1.46397 1.75443 0
M  V30 803 C 75.12 3.21641 -1.35455 0
M  V30 804 C 76.468 3.97592 -1.49017 0
M  V30 805 O 77.492 3.31107 -1.31326 0
M  V30 806 O 76.351 5.16729 -1.77914 0
M  V30 807 H 73.445 0.792799 -0.235368 0
M  V30 808 H 75.991 1.25021 -1.14751 0
M  V30 809 H 74.763 3.097 -2.39168 0
M  V30 810 H 74.386 3.88052 -0.866107 0
M  V30 811 N 75.3831 0.828654 1.34056 0
M  V30 812 C 76.3461 0.259927 2.27721 0
M  V30 813 C 77.3461 -0.565478 1.50529 0
M  V30 814 O 78.5361 -0.38075 1.69988 0
M  V30 815 C 75.6681 -0.634944 3.34935 0
M  V30 816 H 76.8611 1.0863 2.79534 0
M  V30 817 H 74.4141 0.600951 1.44285 0
M  V30 818 H 75.1491 -1.48416 2.88346 0
M  V30 819 H 74.9341 -0.0444999 3.92075 0
M  V30 820 H 76.4241 -1.02648 4.04788 0
M  V30 821 N 76.8612 -1.46375 0.584142 0
M  V30 822 C 77.7912 -2.33103 -0.136037 0
M  V30 823 C 78.7722 -1.45431 -0.882255 0
M  V30 824 O 79.9572 -1.74246 -0.857434 0
M  V30 825 C 77.0872 -3.27731 -1.14933 0
M  V30 826 C 76.0412 -4.24855 -0.517862 0
M  V30 827 C 75.3672 -5.09001 -1.63773 0
M  V30 828 C 76.6672 -5.19439 0.545886 0
M  V30 829 H 78.3612 -2.93568 0.588086 0
M  V30 830 H 75.9072 -1.41166 0.284259 0
M  V30 831 H 77.8602 -3.87261 -1.66153 0
M  V30 832 H 76.5842 -2.65377 -1.90375 0
M  V30 833 H 75.2432 -3.6659 -0.0267361 0
M  V30 834 H 74.8912 -4.43031 -2.38185 0
M  V30 835 H 74.5912 -5.74777 -1.22085 0
M  V30 836 H 76.1152 -5.71396 -2.15266 0
M  V30 837 H 77.5292 -5.73177 0.118704 0
M  V30 838 H 75.9262 -5.93566 0.88317 0
M  V30 839 H 76.9962 -4.63285 1.43162 0
M  V30 840 N 78.3393 -0.321999 -1.54275 0
M  V30 841 C 79.5673 0.283052 -2.04955 0
M  V30 842 C 79.9823 1.45904 -1.19823 0
M  V30 843 O 79.3393 1.81063 -0.228545 0
M  V30 844 C 79.3903 0.719028 -3.54277 0
M  V30 845 O 79.1113 -0.410175 -4.36176 0
M  V30 846 C 80.6123 1.38705 -4.21041 0
M  V30 847 H 77.8323 0.0584616 -0.668448 0
M  V30 848 H 80.3763 -0.467734 -1.99079 0
M  V30 849 H 78.5313 1.41979 -3.60445 0
M  V30 850 H 78.9453 -0.0669416 -5.24457 0
M  V30 851 H 80.4193 1.64306 -5.2698 0
M  V30 852 H 80.8963 2.33385 -3.72059 0
M  V30 853 H 81.5023 0.728906 -4.19007 0
M  V30 854 N 79.8174 1.5752 -0.0501392 0
M  V30 855 C 81.0654 1.9227 0.622642 0
M  V30 856 C 81.3864 0.929083 1.71444 0
M  V30 857 O 80.6564 -0.0262186 1.95882 0
M  V30 858 H 79.2364 0.709739 0.232981 0
M  V30 859 H 81.8984 1.94628 -0.102898 0
M  V30 860 H 80.9944 2.93479 1.06191 0
M  V30 861 N 81.2955 -0.223234 1.56011 0
M  V30 862 C 82.2055 -1.29766 1.95443 0
M  V30 863 C 83.2215 -1.51373 0.858028 0
M  V30 864 O 84.3975 -1.64536 1.16146 0
M  V30 865 C 81.4625 -2.62772 2.26167 0
M  V30 866 C 80.5235 -2.49482 3.49367 0
M  V30 867 C 79.7565 -3.76145 3.78616 0
M  V30 868 O 79.9795 -4.79087 3.09568 0
M  V30 869 O 78.9135 -3.73358 4.72109 0
M  V30 870 H 82.7395 -0.99309 2.87004 0
M  V30 871 H 80.3245 -0.425958 1.43199 0
M  V30 872 H 82.2065 -3.41327 2.47131 0
M  V30 873 H 80.8815 -2.92913 1.37781 0
M  V30 874 H 79.7885 -1.69133 3.33684 0
M  V30 875 H 81.1215 -2.2428 4.38131 0
M  V30 876 N 82.7736 -1.49793 -0.48987 0
M  V30 877 C 83.7366 -1.66752 -1.57246 0
M  V30 878 C 84.7366 -0.538867 -1.51502 0
M  V30 879 O 85.9266 -0.805545 -1.54456 0
M  V30 880 C 83.0586 -1.67528 -2.96896 0
M  V30 881 H 84.2516 -2.63321 -1.43534 0
M  V30 882 H 81.8046 -1.38992 -0.714914 0
M  V30 883 H 82.5396 -0.725837 -3.16073 0
M  V30 884 H 82.3246 -2.49504 -3.02473 0
M  V30 885 H 83.8146 -1.82667 -3.7553 0
M  V30 886 N 84.2517 0.741722 -1.39055 0
M  V30 887 C 85.6677 1.04638 -1.20512 0
M  V30 888 C 85.8677 2.01405 -0.0620218 0
M  V30 889 O 84.9237 2.45547 0.588457 0
M  V30 890 C 86.2367 1.6151 -2.53643 0
M  V30 891 C 87.7847 1.73623 -2.6043 0
M  V30 892 C 88.2597 2.33906 -3.93767 0
M  V30 893 N 89.7507 2.41323 -3.9537 0
M  V30 894 C 90.4857 2.88888 -4.95309 0
M  V30 895 N 89.9817 3.36401 -6.05645 0
M  V30 896 N 91.7747 2.88037 -4.82692 0
M  V30 897 H 83.9257 0.0998155 -2.12165 0
M  V30 898 H 86.1887 0.106907 -0.941953 0
M  V30 899 H 85.8947 0.978739 -3.37807 0
M  V30 900 H 85.7687 2.60411 -2.72885 0
M  V30 901 H 88.1557 2.36384 -1.76655 0
M  V30 902 H 88.2367 0.733945 -2.45045 0
M  V30 903 H 87.8807 1.71776 -4.7797 0
M  V30 904 H 87.8107 3.34799 -4.06469 0
M  V30 905 H 90.3017 2.07734 -3.15682 0
M  V30 906 H 90.6147 3.71186 -6.77821 0
M  V30 907 H 88.9597 3.34427 -6.09248 0
M  V30 908 H 92.1507 2.50237 -3.95599 0
M  V30 909 H 92.3237 3.24792 -5.60726 0
M  V30 910 N 85.7298 1.2412 0.971189 0
M  V30 911 C 86.9788 1.07284 1.70801 0
M  V30 912 C 87.2918 -0.388902 1.91695 0
M  V30 913 O 88.4978 -0.677379 2.62914 0
M  V30 914 C 86.9538 1.87145 3.07416 0
M  V30 915 C 86.5618 3.37707 2.94377 0
M  V30 916 C 88.3058 1.78828 3.84995 0
M  V30 917 C 86.2128 4.09925 4.26281 0
M  V30 918 H 85.1428 0.397854 0.64049 0
M  V30 919 H 87.7938 1.4817 1.0825 0
M  V30 920 H 86.1758 1.39071 3.70777 0
M  V30 921 H 87.3498 3.93335 2.4005 0
M  V30 922 H 85.6648 3.46938 2.30267 0
M  V30 923 H 88.2618 2.30089 4.82662 0
M  V30 924 H 88.6048 0.75284 4.09436 0
M  V30 925 H 89.1378 2.24563 3.28354 0
M  V30 926 H 85.8768 5.13813 4.07033 0
M  V30 927 H 85.3968 3.59083 4.80437 0
M  V30 928 H 87.0758 4.1673 4.94919 0
M  V30 929 N 87.2079 -1.17134 1.05439 0
M  V30 930 C 88.1549 -2.21235 0.657539 0
M  V30 931 C 89.1249 -1.62551 -0.341543 0
M  V30 932 O 90.3099 -1.89379 -0.232393 0
M  V30 933 C 87.4499 -3.45076 0.0410575 0
M  V30 934 C 86.5629 -4.18042 1.08927 0
M  V30 935 C 85.6979 -5.29376 0.439848 0
M  V30 936 C 84.7369 -5.94132 1.4722 0
M  V30 937 N 83.8739 -6.96975 0.846756 0
M  V30 938 H 88.7139 -2.54534 1.54972 0
M  V30 939 H 86.2509 -1.25028 0.775006 0
M  V30 940 H 88.2089 -4.15862 -0.33383 0
M  V30 941 H 86.8389 -3.12353 -0.814568 0
M  V30 942 H 85.8909 -3.45945 1.58196 0
M  V30 943 H 87.2029 -4.62306 1.87282 0
M  V30 944 H 86.3569 -6.06699 0.0115125 0
M  V30 945 H 85.0959 -4.86251 -0.375656 0
M  V30 946 H 84.1009 -5.15538 1.91052 0
M  V30 947 H 85.3259 -6.39337 2.28965 0
M  V30 948 H 83.2719 -6.5598 0.0518075 0
M  V30 949 H 83.1889 -7.39565 1.5678 0
M  V30 950 H 84.4569 -7.78239 0.443277 0
M  V30 951 N 88.686 -0.835752 -1.33615 0
M  V30 952 C 89.933 -0.429959 -1.97883 0
M  V30 953 C 90.261 1.01006 -1.66217 0
M  V30 954 O 89.516 1.72047 -0.93265 0
M  V30 955 C 89.815 -0.593925 -3.52431 0
M  V30 956 C 89.481 -2.00158 -4.04039 0
M  V30 957 C 88.143 -2.38662 -4.17844 0
M  V30 958 C 90.495 -2.92117 -4.31644 0
M  V30 959 C 87.823 -3.68435 -4.56588 0
M  V30 960 C 90.175 -4.21368 -4.71838 0
M  V30 961 C 88.839 -4.59833 -4.83849 0
M  V30 962 H 88.109 -0.157333 -0.724104 0
M  V30 963 H 90.756 -1.06217 -1.59343 0
M  V30 964 H 89.061 0.121619 -3.91611 0
M  V30 965 H 90.758 -0.260282 -4.00154 0
M  V30 966 H 87.348 -1.69252 -3.93766 0
M  V30 967 H 91.532 -2.63608 -4.20505 0
M  V30 968 H 86.788 -3.98046 -4.64079 0
M  V30 969 H 90.962 -4.92703 -4.92155 0
M  V30 970 H 88.589 -5.60438 -5.13627 0
M  V30 971 N 90.1641 1.46063 -0.591896 0
M  V30 972 C 91.1271 2.28854 0.125973 0
M  V30 973 C 92.1271 1.38903 0.810107 0
M  V30 974 O 93.3171 1.61186 0.66066 0
M  V30 975 C 90.4491 3.19526 1.1881 0
M  V30 976 H 91.6421 2.93802 -0.601717 0
M  V30 977 H 89.1951 1.52325 -0.350254 0
M  V30 978 H 89.9301 2.59345 1.94707 0
M  V30 979 H 89.7151 3.85766 0.701936 0
M  V30 980 H 91.2051 3.81817 1.69132 0
M  V30 981 N 91.6422 0.330177 1.54103 0
M  V30 982 C 92.5522 -0.541534 2.28264 0
M  V30 983 C 93.5682 -1.12351 1.32866 0
M  V30 984 O 94.7442 -1.14206 1.65888 0
M  V30 985 C 91.8092 -1.68322 3.03098 0
M  V30 986 C 90.8702 -1.13238 4.14096 0
M  V30 987 C 90.1032 -2.21966 4.85352 0
M  V30 988 O 90.3262 -3.42437 4.56172 0
M  V30 989 O 89.2602 -1.87013 5.7211 0
M  V30 990 H 93.0862 0.060938 3.03639 0
M  V30 991 H 90.6712 0.09565 1.49093 0
M  V30 992 H 92.5532 -2.34777 3.49939 0
M  V30 993 H 91.2282 -2.27176 2.30593 0
M  V30 994 H 90.1352 -0.432736 3.71589 0
M  V30 995 H 91.4682 -0.588898 4.88664 0
M  V30 996 N 93.1203 -1.57491 0.0584922 0
M  V30 997 C 94.0673 -2.11958 -0.913376 0
M  V30 998 C 95.0373 -1.02875 -1.30407 0
M  V30 999 O 96.2223 -1.30464 -1.39226 0
M  V30 1000 C 93.3623 -2.67497 -2.18035 0
M  V30 1001 C 92.4753 -3.90691 -1.84349 0
M  V30 1002 C 91.6103 -4.3452 -3.05559 0
M  V30 1003 C 90.6493 -5.50395 -2.67827 0
M  V30 1004 N 89.7863 -5.89244 -3.81754 0
M  V30 1005 H 94.6263 -2.94704 -0.442017 0
M  V30 1006 H 92.1633 -1.45643 -0.206545 0
M  V30 1007 H 94.1213 -2.978 -2.92183 0
M  V30 1008 H 92.7513 -1.87537 -2.62735 0
M  V30 1009 H 91.8033 -3.66934 -1.00319 0
M  V30 1010 H 93.1153 -4.7489 -1.5258 0
M  V30 1011 H 92.2693 -4.66414 -3.87998 0
M  V30 1012 H 91.0083 -3.49147 -3.40511 0
M  V30 1013 H 90.0133 -5.18165 -1.83806 0
M  V30 1014 H 91.2383 -6.3749 -2.34059 0
M  V30 1015 H 89.1843 -5.06823 -4.16493 0
M  V30 1016 H 89.1013 -6.68151 -3.53708 0
M  V30 1017 H 90.3693 -6.25756 -4.64811 0
M  V30 1018 N 94.5984 0.214957 -1.56127 0
M  V30 1019 C 95.5614 1.24997 -1.92116 0
M  V30 1020 C 96.5614 1.39467 -0.800344 0
M  V30 1021 O 97.7514 1.37619 -1.06802 0
M  V30 1022 C 94.8834 2.62271 -2.17777 0
M  V30 1023 H 96.0764 0.942875 -2.84693 0
M  V30 1024 H 93.6294 0.455654 -1.49511 0
M  V30 1025 H 94.3644 2.98068 -1.27773 0
M  V30 1026 H 94.1494 2.53143 -2.99434 0
M  V30 1027 H 95.6394 3.36946 -2.46693 0
M  V30 1028 N 96.0765 1.50051 0.48192 0
M  V30 1029 C 97.0085 1.64263 1.59844 0
M  V30 1030 C 98.0215 0.52451 1.54119 0
M  V30 1031 O 99.2105 0.797293 1.59704 0
M  V30 1032 C 96.3105 1.60102 2.98698 0
M  V30 1033 C 95.4835 2.87767 3.29407 0
M  V30 1034 C 94.5425 2.76397 4.47762 0
M  V30 1035 O 93.5685 3.50348 4.48603 0
M  V30 1036 N 94.7705 1.89222 5.48794 0
M  V30 1037 H 97.5355 2.60566 1.48073 0
M  V30 1038 H 95.0965 1.47379 0.670149 0
M  V30 1039 H 97.0885 1.50123 3.75826 0
M  V30 1040 H 95.6585 0.715798 3.04294 0
M  V30 1041 H 94.8785 3.11954 2.40994 0
M  V30 1042 H 96.1665 3.72365 3.4673 0
M  V30 1043 H 95.5645 1.28434 5.50928 0
M  V30 1044 H 94.1215 1.85154 6.24949 0
M  V30 1045 N 97.5546 -0.734337 1.39446 0
M  V30 1046 C 98.5176 -1.83004 1.37994 0
M  V30 1047 C 99.5176 -1.58397 0.276938 0
M  V30 1048 O 100.708 -1.65785 0.534875 0
M  V30 1049 C 97.8396 -3.20802 1.1532 0
M  V30 1050 H 99.0326 -1.85694 2.35494 0
M  V30 1051 H 96.5856 -0.938059 1.25021 0
M  V30 1052 H 97.3206 -3.23772 0.185036 0
M  V30 1053 H 97.1056 -3.4006 1.95197 0
M  V30 1054 H 98.5956 -4.00862 1.17046 0
M  V30 1055 N 99.0327 -1.24633 -0.964593 0
M  V30 1056 C 99.9957 -1.0424 -2.04124 0
M  V30 1057 C 100.996 0.00137563 -1.608 0
M  V30 1058 O 102.186 -0.239883 -1.7254 0
M  V30 1059 C 99.3177 -0.580588 -3.3592 0
M  V30 1060 H 100.511 -1.99803 -2.23649 0
M  V30 1061 H 98.0637 -1.06899 -1.14027 0
M  V30 1062 H 98.7987 0.3781 -3.22088 0
M  V30 1063 H 98.5837 -1.33398 -3.6871 0
M  V30 1064 H 100.074 -0.459034 -4.15069 0
M  V30 1065 N 100.511 1.16574 -1.06058 0
M  V30 1066 C 101.751 1.88723 -0.78504 0
M  V30 1067 C 102.115 1.79706 0.676006 0
M  V30 1068 O 103.316 2.46757 1.06603 0
M  V30 1069 C 101.587 3.34338 -1.26304 0
M  V30 1070 S 103.146 4.24366 -1.1162 0
M  V30 1071 H 99.9638 0.651448 -0.284846 0
M  V30 1072 H 102.566 1.40732 -1.35701 0
M  V30 1073 H 101.27 3.38439 -2.32136 0
M  V30 1074 H 100.801 3.87378 -0.685719 0
M  V30 1075 H 102.816 4.96179 -0.0456539 0
M  V30 1076 N 101.989 0.842826 1.3317 0
M  V30 1077 C 103.405 0.531128 1.50503 0
M  V30 1078 C 103.605 -0.940734 1.78192 0
M  V30 1079 O 102.661 -1.72436 1.84451 0
M  V30 1080 C 103.974 1.40789 2.65705 0
M  V30 1081 C 105.522 1.40708 2.79589 0
M  V30 1082 C 105.997 2.26878 3.97857 0
M  V30 1083 N 107.488 2.24609 4.05099 0
M  V30 1084 C 108.223 2.88019 4.95815 0
M  V30 1085 N 107.719 3.60496 5.9162 0
M  V30 1086 N 109.512 2.77469 4.88843 0
M  V30 1087 H 101.663 1.79557 1.1346 0
M  V30 1088 H 103.926 0.766267 0.558156 0
M  V30 1089 H 103.632 2.454 2.51936 0
M  V30 1090 H 103.506 1.08677 3.61205 0
M  V30 1091 H 105.893 0.368668 2.92788 0
M  V30 1092 H 105.974 1.76829 1.84838 0
M  V30 1093 H 105.618 3.3078 3.85418 0
M  V30 1094 H 105.548 1.88096 4.91861 0
M  V30 1095 H 108.039 1.71906 3.36536 0
M  V30 1096 H 108.352 4.06076 6.57512 0
M  V30 1097 H 106.697 3.64604 5.91683 0
M  V30 1098 H 109.888 2.20406 4.12963 0
M  V30 1099 H 110.061 3.2717 5.59342 0
M  V30 1100 N 103.467 -1.45747 0.599634 0
M  V30 1101 C 104.377 -2.34262 -0.125888 0
M  V30 1102 C 105.393 -1.50768 -0.868625 0
M  V30 1103 O 106.569 -1.83592 -0.828003 0
M  V30 1104 C 103.634 -3.28252 -1.11587 0
M  V30 1105 C 102.695 -4.27651 -0.375956 0
M  V30 1106 C 101.928 -5.1715 -1.31877 0
M  V30 1107 O 102.151 -5.09916 -2.55621 0
M  V30 1108 O 101.085 -5.96286 -0.820157 0
M  V30 1109 H 104.911 -2.97688 0.601315 0
M  V30 1110 H 102.496 -1.44999 0.359934 0
M  V30 1111 H 104.378 -3.86191 -1.68626 0
M  V30 1112 H 103.053 -2.67401 -1.82424 0
M  V30 1113 H 101.96 -3.7335 0.236698 0
M  V30 1114 H 103.293 -4.91334 0.29177 0
M  V30 1115 N 104.945 -0.338344 -1.53925 0
M  V30 1116 C 105.908 0.508299 -2.23493 0
M  V30 1117 C 106.908 1.03175 -1.23335 0
M  V30 1118 O 108.098 0.921826 -1.47811 0
M  V30 1119 C 105.23 1.70754 -2.95052 0
M  V30 1120 H 106.423 -0.100058 -2.99733 0
M  V30 1121 H 103.976 -0.0896198 -1.56043 0
M  V30 1122 H 104.711 2.35474 -2.22986 0
M  V30 1123 H 104.496 1.33946 -3.68512 0
M  V30 1124 H 105.986 2.30818 -3.48013 0
M  V30 1125 N 106.423 1.57458 -0.0668435 0
M  V30 1126 C 107.671 1.92919 0.602214 0
M  V30 1127 C 107.992 0.947215 1.70449 0
M  V30 1128 O 107.262 -0.00544117 1.95899 0
M  V30 1129 H 105.842 0.71217 0.22544 0
M  V30 1130 H 108.504 1.94508 -0.123535 0
M  V30 1131 H 107.6 2.94589 1.03073 0
M  V30 1132 N 107.901 -0.206675 1.56239 0
M  V30 1133 C 109.147 -0.930218 1.80208 0
M  V30 1134 C 109.48 -1.83387 0.638981 0
M  V30 1135 O 108.755 -1.91119 -0.361066 0
M  V30 1136 C 109.038 -1.75641 3.1436 0
M  V30 1137 C 108.891 -0.878257 4.41142 0
M  V30 1138 C 110.21 -2.73129 3.45092 0
M  V30 1139 H 107.329 -0.336742 0.655571 0
M  V30 1140 H 109.971 -0.198222 1.88963 0
M  V30 1141 H 108.121 -2.38048 3.07027 0
M  V30 1142 H 109.793 -0.269787 4.6051 0
M  V30 1143 H 108.036 -0.184385 4.33408 0
M  V30 1144 H 108.707 -1.49106 5.3148 0
M  V30 1145 H 111.183 -2.20856 3.52649 0
M  V30 1146 H 110.059 -3.28028 4.40101 0
M  V30 1147 H 110.32 -3.51606 2.68003 0
M  V30 1148 N 109.379 -1.50304 -0.473955 0
M  V30 1149 C 110.79 -1.54042 -1.0549 0
M  V30 1150 C 111.141 -0.342248 -1.93192 0
M  V30 1151 O 110.266 0.545157 -2.09421 0
M  V30 1152 C 110.861 -2.79152 -1.91989 0
M  V30 1153 C 109.42 -2.8558 -2.45196 0
M  V30 1154 C 108.567 -2.48295 -1.2347 0
M  V30 1155 H 111.518 -1.5661 -0.256693 0
M  V30 1156 H 111.539 -2.60845 -2.7702 0
M  V30 1157 H 111.051 -3.66339 -1.28131 0
M  V30 1158 H 109.152 -2.02738 -3.12615 0
M  V30 1159 H 109.265 -3.88403 -2.80499 0
M  V30 1160 H 107.629 -2.00669 -1.56856 0
M  V30 1161 H 108.412 -3.37787 -0.612789 0
M  V30 1162 N 110.857 0.726932 -1.39834 0
M  V30 1163 C 112.104 1.48664 -1.37496 0
M  V30 1164 C 112.432 1.94482 0.0264678 0
M  V30 1165 O 111.687 1.67692 1.00886 0
M  V30 1166 C 111.986 2.73495 -2.30077 0
M  V30 1167 C 111.652 2.46502 -3.77555 0
M  V30 1168 C 110.314 2.3885 -4.17737 0
M  V30 1169 C 112.666 2.23604 -4.70798 0
M  V30 1170 C 109.994 2.06352 -5.49214 0
M  V30 1171 C 112.346 1.92622 -6.02561 0
M  V30 1172 C 111.01 1.83444 -6.41798 0
M  V30 1173 H 110.28 0.544001 -0.503135 0
M  V30 1174 H 112.927 0.833657 -1.72402 0
M  V30 1175 H 111.232 3.43575 -1.88317 0
M  V30 1176 H 112.929 3.31549 -2.25558 0
M  V30 1177 H 109.519 2.5334 -3.45712 0
M  V30 1178 H 113.703 2.28479 -4.40581 0
M  V30 1179 H 108.959 1.97776 -5.78528 0
M  V30 1180 H 113.133 1.73914 -6.74334 0
M  V30 1181 H 110.76 1.58029 -7.43593 0
M  V30 1182 N 112.336 1.25143 0.95797 0
M  V30 1183 C 113.585 1.0909 1.69654 0
M  V30 1184 C 113.898 -0.368548 1.92097 0
M  V30 1185 O 115.104 -0.649455 2.63618 0
M  V30 1186 C 113.56 1.90395 3.05414 0
M  V30 1187 C 113.168 3.4081 2.90779 0
M  V30 1188 C 114.912 1.82901 3.83076 0
M  V30 1189 C 112.819 4.14423 4.21909 0
M  V30 1190 H 111.749 0.404625 0.636235 0
M  V30 1191 H 114.4 1.4931 1.06672 0
M  V30 1192 H 112.782 1.42996 3.69281 0
M  V30 1193 H 113.956 3.95859 2.35865 0
M  V30 1194 H 112.271 3.49361 2.26575 0
M  V30 1195 H 114.868 2.35196 4.80195 0
M  V30 1196 H 115.211 0.796224 4.08615 0
M  V30 1197 H 115.744 2.28033 3.25954 0
M  V30 1198 H 112.483 5.18102 4.01561 0
M  V30 1199 H 112.003 3.64159 4.76601 0
M  V30 1200 H 113.682 4.21956 4.90471 0
M  V30 1201 N 113.814 -1.1601 1.06675 0
M  V30 1202 C 115.06 -1.86909 0.786945 0
M  V30 1203 C 115.393 -1.81717 -0.685018 0
M  V30 1204 O 114.668 -1.23551 -1.50218 0
M  V30 1205 C 114.951 -3.36313 1.28707 0
M  V30 1206 C 114.804 -3.50175 2.82308 0
M  V30 1207 C 116.123 -4.3084 0.898071 0
M  V30 1208 H 113.242 -0.678677 0.287343 0
M  V30 1209 H 115.884 -1.36336 1.32334 0
M  V30 1210 H 114.034 -3.79513 0.830768 0
M  V30 1211 H 115.706 -3.15886 3.36175 0
M  V30 1212 H 113.949 -2.91959 3.20847 0
M  V30 1213 H 114.62 -4.55116 3.12368 0
M  V30 1214 H 117.096 -3.95561 1.29114 0
M  V30 1215 H 115.972 -5.33876 1.27543 0
M  V30 1216 H 116.233 -4.41662 -0.196651 0
M  V30 1217 N 115.292 -0.849877 -1.32721 0
M  V30 1218 C 116.24 -0.279745 -2.30912 0
M  V30 1219 C 117.234 0.594278 -1.58634 0
M  V30 1220 O 118.44 0.482613 -1.73409 0
M  V30 1221 H 114.815 -0.0717521 -0.748569 0
M  V30 1222 H 116.786 -1.12222 -2.76494 0
M  V30 1223 C 115.535 0.521108 -3.43773 0
M  V30 1224 H 114.858 -0.142141 -3.99547 0
M  V30 1225 H 116.298 0.885693 -4.14646 0
M  V30 1226 C 114.757 1.70442 -2.90605 0
M  V30 1227 O 115.287 2.8034 -2.87702 0
M  V30 1228 N 113.493 1.52991 -2.47067 0
M  V30 1229 H 113.04 0.635914 -2.49628 0
M  V30 1230 H 112.998 2.32311 -2.11847 0
M  V30 1231 N 116.77 1.45427 -0.607355 0
M  V30 1232 C 118.047 1.9557 -0.0344566 0
M  V30 1233 C 118.427 1.54979 1.43334 0
M  V30 1234 O 117.775 0.812241 2.13576 0
M  V30 1235 C 117.985 3.48226 -0.232321 0
M  V30 1236 C 119.333 4.2445 -0.113001 0
M  V30 1237 O 120.357 3.55829 -0.162431 0
M  V30 1238 O 119.216 5.465 0.00209442 0
M  V30 1239 H 116.31 0.826222 0.0358667 0
M  V30 1240 H 118.856 1.55594 -0.6774 0
M  V30 1241 H 117.628 3.70739 -1.25174 0
M  V30 1242 H 117.251 3.95092 0.445896 0
M  V30 1243 N 118.248 0.346503 1.53744 0
M  V30 1244 C 119.525 -0.304532 1.93215 0
M  V30 1245 C 119.905 -1.67993 1.27834 0
M  V30 1246 O 119.253 -2.24411 0.430352 0
M  V30 1247 C 119.463 -0.373852 3.46992 0
M  V30 1248 C 120.811 -0.62329 4.2 0
M  V30 1249 O 121.835 -0.455847 3.53271 0
M  V30 1250 O 120.694 -0.947879 5.38217 0
M  V30 1251 H 117.788 -0.178318 0.807547 0
M  V30 1252 H 120.334 0.397895 1.64969 0
M  V30 1253 H 119.106 0.591224 3.86808 0
M  V30 1254 H 118.729 -1.12294 3.81413 0
M  V30 1255 N 119.726 -1.57421 0.075193 0
M  V30 1256 C 120.972 -1.93905 -0.594025 0
M  V30 1257 C 121.305 -0.955701 -1.69056 0
M  V30 1258 O 120.58 0.0145373 -1.94495 0
M  V30 1259 C 120.863 -3.40638 -1.1678 0
M  V30 1260 C 120.716 -4.49733 -0.0776792 0
M  V30 1261 C 122.035 -3.88259 -2.07228 0
M  V30 1262 H 119.154 -0.705105 -0.214466 0
M  V30 1263 H 121.796 -1.8947 0.141854 0
M  V30 1264 H 119.946 -3.44549 -1.79494 0
M  V30 1265 H 121.618 -4.57942 0.555573 0
M  V30 1266 H 119.861 -4.29751 0.591286 0
M  V30 1267 H 120.532 -5.49549 -0.519603 0
M  V30 1268 H 123.008 -3.86376 -1.54445 0
M  V30 1269 H 121.884 -4.91533 -2.44308 0
M  V30 1270 H 122.145 -3.26396 -2.98191 0
M  V30 1271 N 121.204 0.198386 -1.56346 0
M  V30 1272 C 122.114 1.2664 -1.97483 0
M  V30 1273 C 123.13 1.49989 -0.882002 0
M  V30 1274 O 124.306 1.62668 -1.18748 0
M  V30 1275 C 121.371 2.59141 -2.30319 0
M  V30 1276 C 120.432 2.43892 -3.53292 0
M  V30 1277 C 119.665 3.70074 -3.84553 0
M  V30 1278 O 119.888 4.74101 -3.1715 0
M  V30 1279 O 118.822 3.658 -4.7799 0
M  V30 1280 H 122.648 0.947304 -2.88548 0
M  V30 1281 H 120.233 0.403123 -1.43859 0
M  V30 1282 H 122.115 3.37352 -2.5253 0
M  V30 1283 H 120.79 2.90684 -1.42423 0
M  V30 1284 H 119.697 1.63803 -3.36332 0
M  V30 1285 H 121.03 2.17282 -4.41644 0
M  V30 1286 N 122.682 1.50554 0.465978 0
M  V30 1287 C 123.612 1.72722 1.57128 0
M  V30 1288 C 124.593 0.576294 1.6004 0
M  V30 1289 O 125.778 0.81598 1.76225 0
M  V30 1290 C 122.908 1.82605 2.95419 0
M  V30 1291 C 121.862 2.97835 3.07373 0
M  V30 1292 C 121.188 2.92867 4.47363 0
M  V30 1293 C 122.488 4.38265 2.84114 0
M  V30 1294 H 124.182 2.65267 1.38829 0
M  V30 1295 H 121.728 1.2765 0.666441 0
M  V30 1296 H 123.681 1.96698 3.72677 0
M  V30 1297 H 122.405 0.866858 3.14886 0
M  V30 1298 H 121.064 2.83401 2.3255 0
M  V30 1299 H 120.712 1.94783 4.63755 0
M  V30 1300 H 120.412 3.70227 4.56296 0
M  V30 1301 H 121.936 3.09015 5.26633 0
M  V30 1302 H 123.35 4.53198 3.51118 0
M  V30 1303 H 121.747 5.17115 3.04487 0
M  V30 1304 H 122.817 4.50281 1.7993 0
M  V30 1305 N 124.16 -0.719506 1.40217 0
M  V30 1306 C 125.123 -1.8153 1.39927 0
M  V30 1307 C 126.123 -1.58095 0.293723 0
M  V30 1308 O 127.313 -1.65209 0.552429 0
M  V30 1309 C 124.445 -3.19561 1.18716 0
M  V30 1310 H 125.638 -1.83186 2.37451 0
M  V30 1311 H 123.191 -0.924746 1.26008 0
M  V30 1312 H 123.926 -3.23557 0.219366 0
M  V30 1313 H 123.711 -3.3797 1.98793 0
M  V30 1314 H 125.201 -3.99598 1.21291 0
M  V30 1315 N 125.638 -1.25649 -0.95132 0
M  V30 1316 C 126.568 -1.08808 -2.06599 0
M  V30 1317 C 127.549 0.00382547 -1.701 0
M  V30 1318 O 128.734 -0.166325 -1.93486 0
M  V30 1319 C 125.864 -0.709542 -3.39975 0
M  V30 1320 C 124.818 -1.75206 -3.90496 0
M  V30 1321 C 124.144 -1.22811 -5.20405 0
M  V30 1322 C 125.444 -3.15153 -4.16504 0
M  V30 1323 H 127.138 -2.02048 -2.20946 0
M  V30 1324 H 124.684 -0.972835 -1.06169 0
M  V30 1325 H 126.637 -0.578649 -4.17408 0
M  V30 1326 H 125.361 0.258556 -3.25575 0
M  V30 1327 H 124.02 -1.87145 -3.15234 0
M  V30 1328 H 123.668 -0.250145 -5.02378 0
M  V30 1329 H 123.368 -1.92492 -5.55176 0
M  V30 1330 H 124.892 -1.10968 -6.00432 0
M  V30 1331 H 126.306 -3.06349 -4.84586 0
M  V30 1332 H 124.703 -3.82333 -4.62538 0
M  V30 1333 H 125.773 -3.61966 -3.22658 0
M  V30 1334 N 127.117 1.15442 -1.07289 0
M  V30 1335 C 128.065 2.22225 -0.686952 0
M  V30 1336 C 129.059 1.66688 0.30193 0
M  V30 1337 O 130.265 1.79236 0.165712 0
M  V30 1338 H 126.64 0.723783 -0.204064 0
M  V30 1339 H 128.611 2.52056 -1.5972 0
M  V30 1340 C 127.36 3.47556 -0.100149 0
M  V30 1341 H 126.683 3.90612 -0.852211 0
M  V30 1342 H 128.123 4.23794 0.132235 0
M  V30 1343 C 126.582 3.16337 1.159 0
M  V30 1344 O 127.112 3.33074 2.24555 0
M  V30 1345 N 125.318 2.70385 1.06491 0
M  V30 1346 H 124.865 2.56966 0.180668 0
M  V30 1347 H 124.823 2.49871 1.90819 0
M  V30 1348 N 128.595 0.856903 1.32268 0
M  V30 1349 C 129.525 0.31858 2.31316 0
M  V30 1350 C 130.506 -0.583487 1.59779 0
M  V30 1351 O 131.691 -0.503259 1.87566 0
M  V30 1352 C 128.821 -0.491979 3.43798 0
M  V30 1353 C 127.775 0.315849 4.26833 0
M  V30 1354 C 127.101 -0.619586 5.31098 0
M  V30 1355 C 128.401 1.54282 4.98993 0
M  V30 1356 H 130.095 1.14621 2.76591 0
M  V30 1357 H 127.641 0.552613 1.32974 0
M  V30 1358 H 129.594 -0.879012 4.1213 0
M  V30 1359 H 128.318 -1.35299 2.97257 0
M  V30 1360 H 126.977 0.684664 3.6015 0
M  V30 1361 H 126.625 -1.47751 4.8081 0
M  V30 1362 H 126.325 -0.0830621 5.87541 0
M  V30 1363 H 127.849 -1.00375 6.02293 0
M  V30 1364 H 129.263 1.22796 5.59995 0
M  V30 1365 H 127.66 2.01745 5.65172 0
M  V30 1366 H 128.73 2.30285 4.26728 0
M  V30 1367 N 130.073 -1.45103 0.615059 0
M  V30 1368 C 131.02 -2.30586 -0.0993978 0
M  V30 1369 C 131.99 -1.42544 -0.852669 0
M  V30 1370 O 133.175 -1.71465 -0.836917 0
M  V30 1371 C 130.315 -3.27572 -1.08583 0
M  V30 1372 C 129.428 -4.30717 -0.332656 0
M  V30 1373 C 128.563 -5.14807 -1.30947 0
M  V30 1374 C 127.602 -6.09673 -0.544538 0
M  V30 1375 N 126.739 -6.86517 -1.47101 0
M  V30 1376 H 131.579 -2.91144 0.635542 0
M  V30 1377 H 129.116 -1.4346 0.325206 0
M  V30 1378 H 131.074 -3.82276 -1.67095 0
M  V30 1379 H 129.704 -2.68751 -1.78809 0
M  V30 1380 H 128.756 -3.78615 0.368107 0
M  V30 1381 H 130.068 -4.98102 0.263842 0
M  V30 1382 H 129.222 -5.73948 -1.96643 0
M  V30 1383 H 127.961 -4.47458 -1.9399 0
M  V30 1384 H 126.966 -5.49656 0.126003 0
M  V30 1385 H 128.191 -6.79052 0.080947 0
M  V30 1386 H 126.137 -6.21851 -2.08895 0
M  V30 1387 H 126.054 -7.50281 -0.928137 0
M  V30 1388 H 127.322 -7.50194 -2.11731 0
M  V30 1389 N 131.551 -0.354651 -1.53558 0
M  V30 1390 C 132.514 0.484566 -2.24019 0
M  V30 1391 C 133.514 1.01861 -1.24422 0
M  V30 1392 O 134.704 0.906097 -1.4878 0
M  V30 1393 C 131.836 1.67615 -2.96847 0
M  V30 1394 H 133.029 -0.131843 -2.9961 0
M  V30 1395 H 130.582 -0.106165 -1.55939 0
M  V30 1396 H 131.317 2.33095 -2.25471 0
M  V30 1397 H 131.102 1.30029 -3.69912 0
M  V30 1398 H 132.592 2.27114 -3.50441 0
M  V30 1399 N 133.029 1.57378 -0.0835403 0
M  V30 1400 C 134.306 1.85363 0.624507 0
M  V30 1401 C 134.686 0.978239 1.87066 0
M  V30 1402 O 134.034 0.0475908 2.2845 0
M  V30 1403 C 134.244 3.35795 0.950947 0
M  V30 1404 C 135.592 4.03581 1.31939 0
M  V30 1405 O 136.616 3.40609 1.04232 0
M  V30 1406 O 135.475 5.14672 1.83779 0
M  V30 1407 H 132.569 0.766162 0.311329 0
M  V30 1408 H 135.115 1.69307 -0.115362 0
M  V30 1409 H 133.887 3.91244 0.0663899 0
M  V30 1410 H 133.51 3.57154 1.74719 0
M  V30 1411 N 134.507 -0.190092 1.56449 0
M  V30 1412 C 135.755 -0.907908 1.80559 0
M  V30 1413 C 136.076 -1.83583 0.657438 0
M  V30 1414 O 135.346 -1.93203 -0.323924 0
M  V30 1415 H 133.926 -0.338247 0.666032 0
M  V30 1416 H 136.588 -0.194403 1.93928 0
M  V30 1417 H 135.684 -1.49604 2.73907 0
M  V30 1418 N 135.985 -1.50799 -0.457987 0
M  V30 1419 C 137.234 -1.6168 -1.20593 0
M  V30 1420 C 137.547 -0.32888 -1.92815 0
M  V30 1421 O 138.753 -0.316773 -2.69646 0
M  V30 1422 C 137.209 -2.8545 -2.19195 0
M  V30 1423 C 136.817 -4.21168 -1.52715 0
M  V30 1424 C 138.561 -3.05681 -2.94549 0
M  V30 1425 C 136.468 -5.3611 -2.4968 0
M  V30 1426 H 135.398 -0.602134 -0.453818 0
M  V30 1427 H 138.049 -1.77245 -0.475031 0
M  V30 1428 H 136.431 -2.63472 -2.95632 0
M  V30 1429 H 137.605 -4.53449 -0.819775 0
M  V30 1430 H 135.92 -4.06648 -0.895922 0
M  V30 1431 H 138.517 -3.88727 -3.67145 0
M  V30 1432 H 138.86 -2.17929 -3.54701 0
M  V30 1433 H 139.393 -3.27901 -2.25223 0
M  V30 1434 H 136.132 -6.26057 -1.94249 0
M  V30 1435 H 135.652 -5.0823 -3.18532 0
M  V30 1436 H 137.331 -5.6722 -3.11241 0
M  V30 1437 N 137.463 0.71206 -1.40597 0
M  V30 1438 C 138.413 1.81783 -1.37619 0
M  V30 1439 C 139.397 1.58896 -0.253162 0
M  V30 1440 O 140.589 1.70009 -0.492547 0
M  V30 1441 C 137.718 3.19944 -1.24462 0
M  V30 1442 C 136.804 3.48582 -2.4156 0
M  V30 1443 N 137.195 3.48016 -3.67041 0
M  V30 1444 C 135.493 3.79056 -2.35016 0
M  V30 1445 C 136.194 3.75096 -4.44609 0
M  V30 1446 N 135.17 3.94022 -3.74497 0
M  V30 1447 H 138.972 1.79683 -2.32575 0
M  V30 1448 H 136.486 0.91134 -1.34419 0
M  V30 1449 H 138.483 3.99133 -1.20411 0
M  V30 1450 H 137.143 3.23267 -0.304762 0
M  V30 1451 H 138.154 3.28782 -4.00153 0
M  V30 1452 H 134.831 3.89848 -1.49415 0
M  V30 1453 H 136.221 3.80934 -5.53479 0
M  V30 1454 N 138.941 1.26152 0.944643 0
M  V30 1455 C 140.19 1.10883 1.68487 0
M  V30 1456 C 140.503 -0.348153 1.92477 0
M  V30 1457 O 141.709 -0.621459 2.64292 0
M  V30 1458 C 140.165 1.93624 3.03377 0
M  V30 1459 C 139.773 3.43875 2.87148 0
M  V30 1460 C 141.517 1.86954 3.81115 0
M  V30 1461 C 139.424 4.18875 4.1749 0
M  V30 1462 H 138.354 0.41135 0.631907 0
M  V30 1463 H 141.005 1.50433 1.05082 0
M  V30 1464 H 139.387 1.46904 3.67743 0
M  V30 1465 H 140.561 3.98338 2.31653 0
M  V30 1466 H 138.876 3.51744 2.22856 0
M  V30 1467 H 141.473 2.40275 4.77673 0
M  V30 1468 H 141.816 0.839518 4.07747 0
M  V30 1469 H 142.349 2.31477 3.23517 0
M  V30 1470 H 139.088 5.22332 3.96043 0
M  V30 1471 H 138.608 3.69193 4.72712 0
M  V30 1472 H 140.287 4.27134 4.85968 0
M  V30 1473 N 140.419 -1.14872 1.07899 0
M  V30 1474 C 141.667 -1.85422 0.803941 0
M  V30 1475 C 141.988 -1.83051 -0.67211 0
M  V30 1476 O 141.258 -1.27532 -1.48703 0
M  V30 1477 H 139.838 -0.686537 0.294408 0
M  V30 1478 H 142.5 -1.39226 1.3639 0
M  V30 1479 H 141.596 -2.90399 1.14346 0
M  V30 1480 N 141.898 -0.863906 -1.31812 0
M  V30 1481 C 142.83 -0.272485 -2.27575 0
M  V30 1482 C 143.843 0.56104 -1.52827 0
M  V30 1483 O 145.032 0.384021 -1.7432 0
M  V30 1484 C 142.132 0.63283 -3.32939 0
M  V30 1485 C 141.305 -0.166902 -4.37081 0
M  V30 1486 C 140.364 0.665608 -5.21973 0
M  V30 1487 O 139.39 0.0958091 -5.69119 0
M  V30 1488 N 140.592 1.9787 -5.45736 0
M  V30 1489 H 143.357 -1.0954 -2.78964 0
M  V30 1490 H 140.918 -0.724791 -1.4477 0
M  V30 1491 H 142.91 1.19532 -3.86645 0
M  V30 1492 H 141.48 1.35642 -2.81638 0
M  V30 1493 H 140.7 -0.910838 -3.83533 0
M  V30 1494 H 141.988 -0.715874 -5.03739 0
M  V30 1495 H 141.386 2.46484 -5.09178 0
M  V30 1496 H 139.943 2.48911 -6.024 0
M  V30 1497 N 143.376 1.44774 -0.622745 0
M  V30 1498 C 144.286 2.34433 0.0886031 0
M  V30 1499 C 145.302 1.52131 0.844529 0
M  V30 1500 O 146.478 1.84886 0.798691 0
M  V30 1501 C 143.543 3.29986 1.0635 0
M  V30 1502 C 142.604 4.28195 0.307873 0
M  V30 1503 C 141.837 5.19183 1.23633 0
M  V30 1504 O 142.06 5.13918 2.47476 0
M  V30 1505 O 140.994 5.97515 0.725189 0
M  V30 1506 H 144.82 2.96693 -0.648599 0
M  V30 1507 H 142.405 1.44408 -0.382957 0
M  V30 1508 H 144.287 3.88825 1.6246 0
M  V30 1509 H 142.962 2.70269 1.78146 0
M  V30 1510 H 141.869 3.72927 -0.296064 0
M  V30 1511 H 143.202 4.90808 -0.3699 0
M  V30 1512 N 144.854 0.36279 1.53368 0
M  V30 1513 C 146.131 -0.284021 1.93527 0
M  V30 1514 C 146.511 -1.66628 1.29608 0
M  V30 1515 O 145.859 -2.23942 0.45413 0
M  V30 1516 C 146.069 -0.337028 3.47369 0
M  V30 1517 C 147.417 -0.578708 4.20638 0
M  V30 1518 O 148.441 -0.418352 3.53735 0
M  V30 1519 O 147.3 -0.89074 5.39192 0
M  V30 1520 H 144.394 -0.169743 0.809393 0
M  V30 1521 H 146.94 0.41537 1.64538 0
M  V30 1522 H 145.712 0.632217 3.86159 0
M  V30 1523 H 145.335 -1.08243 3.82582 0
M  V30 1524 N 146.332 -1.57332 0.0918853 0
M  V30 1525 C 147.295 -2.12708 -0.85369 0
M  V30 1526 C 148.295 -1.05561 -1.213 0
M  V30 1527 O 149.485 -1.31461 -1.14296 0
M  V30 1528 C 146.617 -2.64503 -2.15061 0
M  V30 1529 H 147.81 -2.97573 -0.3729 0
M  V30 1530 H 145.363 -1.55509 -0.157072 0
M  V30 1531 H 146.098 -1.83149 -2.67632 0
M  V30 1532 H 145.883 -3.4284 -1.90272 0
M  V30 1533 H 147.373 -3.07351 -2.82711 0
M  V30 1534 N 147.81 0.181792 -1.56548 0
M  V30 1535 C 148.758 1.24461 -1.965 0
M  V30 1536 C 149.752 1.464 -0.852261 0
M  V30 1537 O 150.958 1.47103 -1.03733 0
M  V30 1538 H 147.333 0.418138 -0.625031 0
M  V30 1539 H 149.304 0.880714 -2.85107 0
M  V30 1540 C 148.053 2.57891 -2.33212 0
M  V30 1541 H 147.376 2.41829 -3.18369 0
M  V30 1542 H 148.816 3.3097 -2.65019 0
M  V30 1543 C 147.275 3.15871 -1.17163 0
M  V30 1544 O 147.805 3.9913 -0.453708 0
M  V30 1545 N 146.011 2.74808 -0.944936 0
M  V30 1546 H 145.558 2.07205 -1.53049 0
M  V30 1547 H 145.516 3.13939 -0.170286 0
M  V30 1548 N 149.288 1.51039 0.449983 0
M  V30 1549 C 150.251 1.70863 1.5277 0
M  V30 1550 C 151.251 0.578846 1.5002 0
M  V30 1551 O 152.441 0.846213 1.52266 0
M  V30 1552 C 149.573 1.75341 2.9235 0
M  V30 1553 H 150.766 2.67034 1.36502 0
M  V30 1554 H 148.319 1.40838 0.677812 0
M  V30 1555 H 149.054 0.809383 3.14037 0
M  V30 1556 H 148.839 2.57436 2.95752 0
M  V30 1557 H 150.329 1.92559 3.70555 0
M  V30 1558 N 150.766 -0.704594 1.40972 0
M  V30 1559 C 151.713 -1.81862 1.42109 0
M  V30 1560 C 152.683 -1.63781 0.276593 0
M  V30 1561 O 153.868 -1.84759 0.4763 0
M  V30 1562 C 151.008 -3.19669 1.30022 0
M  V30 1563 C 150.121 -3.49246 2.54267 0
M  V30 1564 C 149.256 -4.76618 2.3454 0
M  V30 1565 C 148.295 -4.99133 3.54306 0
M  V30 1566 N 147.432 -6.17726 3.33706 0
M  V30 1567 H 152.272 -1.80226 2.37324 0
M  V30 1568 H 149.809 -0.880238 1.17857 0
M  V30 1569 H 151.767 -3.99263 1.21018 0
M  V30 1570 H 150.397 -3.20506 0.384192 0
M  V30 1571 H 149.449 -2.64125 2.73756 0
M  V30 1572 H 150.761 -3.61788 3.43381 0
M  V30 1573 H 149.915 -5.64249 2.22952 0
M  V30 1574 H 148.654 -4.66305 1.42867 0
M  V30 1575 H 147.659 -4.09953 3.66359 0
M  V30 1576 H 148.884 -5.11311 4.4692 0
M  V30 1577 H 146.83 -6.08642 2.44725 0
M  V30 1578 H 146.747 -6.30995 4.16391 0
M  V30 1579 H 148.015 -7.08115 3.25873 0
M  V30 1580 N 152.244 -1.26651 -0.937939 0
M  V30 1581 C 153.154 -1.10276 -2.07066 0
M  V30 1582 C 154.17 -0.0354197 -1.73964 0
M  V30 1583 O 155.346 -0.239816 -1.99967 0
M  V30 1584 C 152.411 -0.740887 -3.38691 0
M  V30 1585 C 151.472 -1.88799 -3.85556 0
M  V30 1586 C 150.705 -1.54329 -5.10899 0
M  V30 1587 O 150.928 -0.446494 -5.6865 0
M  V30 1588 O 149.862 -2.37911 -5.52885 0
M  V30 1589 H 153.688 -2.05309 -2.23789 0
M  V30 1590 H 151.273 -1.05743 -1.0554 0
M  V30 1591 H 153.155 -0.55195 -4.1777 0
M  V30 1592 H 151.83 0.180022 -3.23199 0
M  V30 1593 H 150.737 -2.13191 -3.07409 0
M  V30 1594 H 152.07 -2.78874 -4.05574 0
M  V30 1595 N 153.722 1.14298 -1.08507 0
M  V30 1596 C 154.968 1.85633 -0.816581 0
M  V30 1597 C 155.301 1.82784 0.656021 0
M  V30 1598 O 154.576 1.25926 1.48233 0
M  V30 1599 C 154.859 3.34223 -1.34041 0
M  V30 1600 C 154.712 3.45639 -2.87843 0
M  V30 1601 C 156.031 4.29356 -0.9665 0
M  V30 1602 H 153.15 0.67402 -0.298104 0
M  V30 1603 H 155.792 1.34214 -1.34487 0
M  V30 1604 H 153.942 3.78144 -0.89104 0
M  V30 1605 H 155.614 3.10498 -3.41158 0
M  V30 1606 H 153.857 2.86817 -3.25451 0
M  V30 1607 H 154.528 4.50089 -3.19569 0
M  V30 1608 H 157.004 3.93457 -1.35391 0
M  V30 1609 H 155.88 5.3178 -1.3602 0
M  V30 1610 H 156.141 4.41919 0.126362 0
M  V30 1611 N 155.201 0.870884 1.31352 0
M  V30 1612 C 156.617 0.562932 1.49343 0
M  V30 1613 C 156.817 -0.902725 1.80148 0
M  V30 1614 O 155.873 -1.68484 1.88067 0
M  V30 1615 C 157.186 1.46393 2.62659 0
M  V30 1616 C 158.734 1.46607 2.76542 0
M  V30 1617 C 159.209 2.35266 3.92955 0
M  V30 1618 N 160.7 2.33151 4.00243 0
M  V30 1619 C 161.435 2.98471 4.89594 0
M  V30 1620 N 160.931 3.72964 5.8384 0
M  V30 1621 N 162.724 2.87775 4.82848 0
M  V30 1622 H 154.875 1.81923 1.09626 0
M  V30 1623 H 157.138 0.777934 0.541777 0
M  V30 1624 H 156.844 2.50689 2.46674 0
M  V30 1625 H 156.718 1.16314 3.58819 0
M  V30 1626 H 159.105 0.43069 2.9194 0
M  V30 1627 H 159.186 1.8071 1.81046 0
M  V30 1628 H 158.83 3.38881 3.78315 0
M  V30 1629 H 158.76 1.98487 4.87761 0
M  V30 1630 H 161.251 1.79006 3.32814 0
M  V30 1631 H 161.564 4.19932 6.4875 0
M  V30 1632 H 159.909 3.77073 5.83816 0
M  V30 1633 H 163.1 2.29116 4.08195 0
M  V30 1634 H 163.273 3.38961 5.52277 0
M  V30 1635 N 156.679 -1.44442 0.630414 0
M  V30 1636 C 157.642 -2.29107 -0.0652523 0
M  V30 1637 C 158.642 -1.41002 -0.772995 0
M  V30 1638 O 159.832 -1.62881 -0.617692 0
M  V30 1639 C 156.964 -3.22564 -1.10296 0
M  V30 1640 H 158.157 -2.92103 0.679401 0
M  V30 1641 H 155.71 -1.51343 0.390517 0
M  V30 1642 H 156.445 -2.64416 -1.87762 0
M  V30 1643 H 156.23 -3.87491 -0.59941 0
M  V30 1644 H 157.72 -3.86167 -1.5895 0
M  V30 1645 N 158.157 -0.370918 -1.53173 0
M  V30 1646 C 159.12 0.460778 -2.24521 0
M  V30 1647 C 160.12 1.00536 -1.25496 0
M  V30 1648 O 161.31 0.890266 -1.49733 0
M  V30 1649 C 158.442 1.64457 -2.98608 0
M  V30 1650 H 159.635 -0.163613 -2.99453 0
M  V30 1651 H 157.188 -0.122699 -1.55818 0
M  V30 1652 H 157.923 2.30691 -2.2793 0
M  V30 1653 H 157.708 1.26099 -3.7127 0
M  V30 1654 H 159.198 2.23384 -3.5283 0
M  V30 1655 N 159.635 1.57281 -0.100228 0
M  V30 1656 C 160.884 1.93713 0.561984 0
M  V30 1657 C 161.197 0.984492 1.69018 0
M  V30 1658 O 162.403 1.24273 2.41389 0
M  V30 1659 C 160.859 3.4421 1.05106 0
M  V30 1660 C 160.467 4.47975 -0.0476628 0
M  V30 1661 C 162.211 3.89595 1.68571 0
M  V30 1662 C 160.118 5.89631 0.457055 0
M  V30 1663 H 159.048 0.723082 0.2137 0
M  V30 1664 H 161.699 1.82644 -0.177057 0
M  V30 1665 H 160.081 3.50449 1.84395 0
M  V30 1666 H 161.255 4.53385 -0.823333 0
M  V30 1667 H 159.57 4.1223 -0.587816 0
M  V30 1668 H 162.167 4.92832 2.07414 0
M  V30 1669 H 162.51 3.28526 2.55688 0
M  V30 1670 H 163.043 3.86078 0.958562 0
M  V30 1671 H 159.782 6.54411 -0.377616 0
M  V30 1672 H 159.302 5.87681 1.19962 0
M  V30 1673 H 160.981 6.40363 0.92437 0
M  V30 1674 N 161.113 -0.173488 1.56642 0
M  V30 1675 C 162.361 -0.888706 1.81512 0
M  V30 1676 C 162.682 -1.82875 0.676872 0
M  V30 1677 O 161.952 -1.93536 -0.303414 0
M  V30 1678 H 160.532 -0.331164 0.669582 0
M  V30 1679 H 163.194 -0.173823 1.94123 0
M  V30 1680 H 162.29 -1.46691 2.75478 0
M  V30 1681 N 162.591 -1.51276 -0.441967 0
M  V30 1682 C 163.868 -1.54252 -1.20273 0
M  V30 1683 C 164.248 -0.30408 -2.08898 0
M  V30 1684 O 163.596 0.711084 -2.17154 0
M  V30 1685 C 163.806 -2.85406 -2.00859 0
M  V30 1686 C 165.154 -3.37181 -2.58059 0
M  V30 1687 O 166.178 -2.86925 -2.11074 0
M  V30 1688 O 165.037 -4.24858 -3.43741 0
M  V30 1689 H 162.131 -0.619969 -0.547328 0
M  V30 1690 H 164.677 -1.63586 -0.451413 0
M  V30 1691 H 163.449 -3.67003 -1.35736 0
M  V30 1692 H 163.072 -2.79213 -2.83065 0
M  V30 1693 N 164.069 0.697108 -1.41344 0
M  V30 1694 C 165.002 1.82134 -1.37486 0
M  V30 1695 C 165.98 1.60784 -0.242351 0
M  V30 1696 O 167.164 1.83553 -0.429012 0
M  V30 1697 C 164.291 3.18788 -1.14421 0
M  V30 1698 C 163.337 3.58932 -2.3037 0
M  V30 1699 S 164.17 3.63916 -3.92843 0
M  V30 1700 C 165.326 5.03298 -3.72078 0
M  V30 1701 H 165.559 1.85129 -2.32625 0
M  V30 1702 H 163.092 0.865671 -1.2785 0
M  V30 1703 H 165.05 3.97677 -1.018 0
M  V30 1704 H 163.711 3.13404 -0.20905 0
M  V30 1705 H 162.904 4.58202 -2.09922 0
M  V30 1706 H 162.506 2.87347 -2.39391 0
M  V30 1707 H 164.798 5.90753 -3.31688 0
M  V30 1708 H 165.741 5.28788 -4.70945 0
M  V30 1709 H 166.149 4.74764 -3.05384 0
M  V30 1710 N 165.547 1.27147 0.931209 0
M  V30 1711 C 166.796 1.12664 1.67302 0
M  V30 1712 C 167.109 -0.327718 1.92835 0
M  V30 1713 O 168.315 -0.593392 2.64936 0
M  V30 1714 C 166.771 1.9683 3.01307 0
M  V30 1715 C 166.379 3.46901 2.83485 0
M  V30 1716 C 168.123 1.90985 3.79111 0
M  V30 1717 C 166.03 4.23279 4.13024 0
M  V30 1718 H 164.96 0.41803 0.627509 0
M  V30 1719 H 167.611 1.51539 1.03481 0
M  V30 1720 H 165.993 1.50797 3.66164 0
M  V30 1721 H 167.167 4.00773 2.27415 0
M  V30 1722 H 165.482 3.54088 2.19113 0
M  V30 1723 H 168.079 2.45328 4.75098 0
M  V30 1724 H 168.422 0.882718 4.06834 0
M  V30 1725 H 168.955 2.34895 3.21044 0
M  V30 1726 H 165.694 5.26503 3.90481 0
M  V30 1727 H 165.214 3.74186 4.6877 0
M  V30 1728 H 166.893 4.32265 4.81411 0
M  V30 1729 N 167.025 -1.13721 1.09112 0
M  V30 1730 C 167.955 -2.21148 0.749385 0
M  V30 1731 C 168.936 -1.6792 -0.271475 0
M  V30 1732 O 170.121 -1.93693 -0.140251 0
M  V30 1733 C 167.251 -3.46905 0.165659 0
M  V30 1734 C 166.205 -4.13203 1.11567 0
M  V30 1735 C 165.531 -5.33248 0.393809 0
M  V30 1736 C 166.831 -4.60912 2.45678 0
M  V30 1737 H 168.525 -2.4999 1.64758 0
M  V30 1738 H 166.071 -1.20156 0.793626 0
M  V30 1739 H 168.024 -4.21313 -0.085466 0
M  V30 1740 H 166.748 -3.17449 -0.767714 0
M  V30 1741 H 165.407 -3.40758 1.35202 0
M  V30 1742 H 165.055 -5.00054 -0.543599 0
M  V30 1743 H 164.755 -5.78552 1.02721 0
M  V30 1744 H 166.279 -6.10413 0.150908 0
M  V30 1745 H 167.693 -5.26759 2.26269 0
M  V30 1746 H 166.09 -5.16944 3.04776 0
M  V30 1747 H 167.16 -3.75603 3.06677 0
M  V30 1748 N 168.503 -0.877838 -1.30888 0
M  V30 1749 C 169.751 -0.491723 -1.96027 0
M  V30 1750 C 170.072 0.960827 -1.69685 0
M  V30 1751 O 169.342 1.67462 -1.01654 0
M  V30 1752 H 167.922 -0.17885 -0.725273 0
M  V30 1753 H 170.584 -1.11935 -1.59551 0
M  V30 1754 H 169.68 -0.656016 -3.05128 0
M  V30 1755 N 169.982 1.44106 -0.638065 0
M  V30 1756 C 171.228 2.02277 -0.145546 0
M  V30 1757 C 171.561 1.50125 1.23191 0
M  V30 1758 O 170.836 0.688133 1.8192 0
M  V30 1759 C 171.119 3.59829 -0.139791 0
M  V30 1760 C 170.972 4.22247 -1.55008 0
M  V30 1761 C 172.291 4.36873 0.531966 0
M  V30 1762 H 169.41 0.734992 -0.0543632 0
M  V30 1763 H 172.052 1.71592 -0.815863 0
M  V30 1764 H 170.202 3.86102 0.431007 0
M  V30 1765 H 171.874 4.07057 -2.1703 0
M  V30 1766 H 170.117 3.79476 -2.10191 0
M  V30 1767 H 170.788 5.31284 -1.49804 0
M  V30 1768 H 173.264 4.16074 0.0464781 0
M  V30 1769 H 172.14 5.4657 0.505206 0
M  V30 1770 H 172.401 4.11995 1.60352 0
M  V30 1771 N 171.46 0.379036 1.52974 0
M  V30 1772 C 172.685 -0.209353 2.06341 0
M  V30 1773 C 173.11 -1.40583 1.24972 0
M  V30 1774 O 172.468 -1.79246 0.272155 0
M  V30 1775 C 172.516 -0.567786 3.56102 0
M  V30 1776 O 171.62 -1.66318 3.77375 0
M  V30 1777 H 170.961 -0.0272919 0.663439 0
M  V30 1778 H 173.491 0.543536 1.97248 0
M  V30 1779 H 173.501 -0.835003 3.99364 0
M  V30 1780 H 172.176 0.307013 4.14765 0
M  V30 1781 H 170.753 -1.39048 3.46006 0
M  V30 1782 N 172.938 -1.57226 0.108567 0
M  V30 1783 C 173.901 -2.13602 -0.831082 0
M  V30 1784 C 174.901 -1.06841 -1.20173 0
M  V30 1785 O 176.091 -1.32666 -1.12895 0
M  V30 1786 C 173.223 -2.66769 -2.12243 0
M  V30 1787 H 174.416 -2.97951 -0.341317 0
M  V30 1788 H 171.969 -1.55667 -0.14057 0
M  V30 1789 H 172.704 -1.85977 -2.65675 0
M  V30 1790 H 172.489 -3.44839 -1.86625 0
M  V30 1791 H 173.979 -3.10332 -2.79435 0
M  V30 1792 N 174.416 0.165178 -1.56732 0
M  V30 1793 C 175.366 1.20917 -1.93295 0
M  V30 1794 C 176.35 1.39488 -0.801985 0
M  V30 1795 O 177.542 1.41356 -1.06525 0
M  V30 1796 C 174.671 2.54718 -2.3016 0
M  V30 1797 C 173.757 2.39815 -3.49785 0
M  V30 1798 N 174.148 1.94637 -4.66851 0
M  V30 1799 C 172.446 2.70623 -3.54513 0
M  V30 1800 C 173.147 1.92344 -5.4898 0
M  V30 1801 N 172.123 2.34978 -4.9019 0
M  V30 1802 H 175.925 0.851675 -2.81289 0
M  V30 1803 H 173.439 0.373399 -1.58049 0
M  V30 1804 H 175.436 3.30165 -2.54552 0
M  V30 1805 H 174.096 2.91265 -1.43508 0
M  V30 1806 H 175.107 1.6488 -4.90953 0
M  V30 1807 H 171.784 3.11167 -2.78354 0
M  V30 1808 H 173.174 1.5906 -6.52801 0
M  V30 1809 N 175.894 1.51508 0.433938 0
M  V30 1810 C 177.122 1.68157 1.20543 0
M  V30 1811 C 177.537 0.380362 1.84929 0
M  V30 1812 O 176.894 -0.641446 1.70856 0
M  V30 1813 C 176.945 2.79965 2.28696 0
M  V30 1814 O 176.666 4.05045 1.66943 0
M  V30 1815 C 178.167 3.07912 3.18912 0
M  V30 1816 H 175.387 0.56421 0.363191 0
M  V30 1817 H 177.931 1.97941 0.513754 0
M  V30 1818 H 176.086 2.5277 2.93574 0
M  V30 1819 H 176.5 4.67165 2.38448 0
M  V30 1820 H 177.974 3.89719 3.90926 0
M  V30 1821 H 178.451 2.20456 3.79863 0
M  V30 1822 H 179.057 3.36779 2.59731 0
M  V30 1823 N 177.372 -0.689602 1.41712 0
M  V30 1824 C 178.305 -1.81403 1.3845 0
M  V30 1825 C 179.283 -1.60653 0.250874 0
M  V30 1826 O 180.467 -1.83323 0.43874 0
M  V30 1827 C 177.594 -3.18176 1.1611 0
M  V30 1828 C 176.64 -3.57705 2.3227 0
M  V30 1829 S 177.473 -3.61827 3.94767 0
M  V30 1830 C 178.629 -5.01318 3.74742 0
M  V30 1831 H 178.862 -1.83893 2.33603 0
M  V30 1832 H 176.395 -0.858878 1.28307 0
M  V30 1833 H 178.353 -3.97132 1.03907 0
M  V30 1834 H 177.014 -3.13288 0.225668 0
M  V30 1835 H 176.207 -4.57082 2.12349 0
M  V30 1836 H 175.809 -2.86073 2.40911 0
M  V30 1837 H 178.101 -5.88986 3.34817 0
M  V30 1838 H 179.044 -5.26283 4.73743 0
M  V30 1839 H 179.452 -4.73138 3.07898 0
M  V30 1840 N 178.85 -1.27639 -0.924453 0
M  V30 1841 C 180.075 -1.17101 -1.71179 0
M  V30 1842 C 180.5 0.268134 -1.86179 0
M  V30 1843 O 179.858 1.19415 -1.36418 0
M  V30 1844 C 179.906 -1.86313 -3.08739 0
M  V30 1845 O 179.01 -1.16331 -3.95652 0
M  V30 1846 H 178.351 -0.407091 -0.524569 0
M  V30 1847 H 180.881 -1.68767 -1.15666 0
M  V30 1848 H 180.891 -1.938 -3.59034 0
M  V30 1849 H 179.566 -2.91001 -2.97138 0
M  V30 1850 H 178.143 -1.16935 -3.54091 0
M  V30 1851 N 180.328 1.1314 -1.09713 0
M  V30 1852 C 181.238 2.22242 -0.751367 0
M  V30 1853 C 182.254 1.72224 0.247938 0
M  V30 1854 O 183.43 2.01205 0.0885463 0
M  V30 1855 C 180.495 3.46231 -0.180274 0
M  V30 1856 C 179.556 4.11125 -1.2359 0
M  V30 1857 C 178.789 5.29195 -0.691966 0
M  V30 1858 O 179.012 5.68342 0.48414 0
M  V30 1859 O 177.946 5.84214 -1.44838 0
M  V30 1860 H 181.772 2.54197 -1.66186 0
M  V30 1861 H 179.357 1.21331 -0.871735 0
M  V30 1862 H 181.239 4.21185 0.134739 0
M  V30 1863 H 179.914 3.1597 0.703185 0
M  V30 1864 H 178.821 3.37985 -1.60366 0
M  V30 1865 H 180.154 4.45524 -2.09211 0
M  V30 1866 N 181.806 0.884767 1.30421 0
M  V30 1867 C 183.052 0.503851 1.96441 0
M  V30 1868 C 183.385 -0.944518 1.69684 0
M  V30 1869 O 182.66 -1.66737 1.00145 0
M  V30 1870 C 182.943 0.779085 3.51571 0
M  V30 1871 C 182.796 2.27807 3.87846 0
M  V30 1872 C 184.115 0.255452 4.39358 0
M  V30 1873 H 181.234 0.184533 0.713524 0
M  V30 1874 H 183.876 1.10872 1.54297 0
M  V30 1875 H 182.026 0.264274 3.876 0
M  V30 1876 H 183.698 2.86127 3.61841 0
M  V30 1877 H 181.941 2.74479 3.35922 0
M  V30 1878 H 182.612 2.42125 4.96064 0
M  V30 1879 H 185.088 0.696079 4.10236 0
M  V30 1880 H 183.964 0.477361 5.4682 0
M  V30 1881 H 184.225 -0.843293 4.33983 0
M  V30 1882 N 183.284 -1.43765 0.645699 0
M  V30 1883 C 184.231 -2.30745 -0.0504648 0
M  V30 1884 C 185.201 -1.4432 -0.822241 0
M  V30 1885 O 186.386 -1.73202 -0.800358 0
M  V30 1886 C 183.526 -3.29802 -1.0161 0
M  V30 1887 C 182.639 -4.31326 -0.241219 0
M  V30 1888 C 181.774 -5.17469 -1.19998 0
M  V30 1889 C 180.813 -6.10691 -0.415094 0
M  V30 1890 N 179.95 -6.89483 -1.32506 0
M  V30 1891 H 184.79 -2.8973 0.697155 0
M  V30 1892 H 182.327 -1.42738 0.355563 0
M  V30 1893 H 184.285 -3.85734 -1.58949 0
M  V30 1894 H 182.915 -2.72483 -1.73069 0
M  V30 1895 H 181.967 -3.77749 0.448334 0
M  V30 1896 H 183.279 -4.9743 0.369437 0
M  V30 1897 H 182.433 -5.7799 -1.84424 0
M  V30 1898 H 181.172 -4.51473 -1.84455 0
M  V30 1899 H 180.177 -5.49265 0.242565 0
M  V30 1900 H 181.402 -6.78727 0.224966 0
M  V30 1901 H 179.348 -6.26142 -1.95657 0
M  V30 1902 H 179.265 -7.52081 -0.768783 0
M  V30 1903 H 180.533 -7.54516 -1.9577 0
M  V30 1904 N 184.763 -0.387143 -1.52771 0
M  V30 1905 C 185.695 0.484089 -2.2403 0
M  V30 1906 C 186.708 1.02849 -1.26198 0
M  V30 1907 O 187.897 0.931186 -1.52286 0
M  V30 1908 C 184.997 1.68337 -2.94136 0
M  V30 1909 C 184.17 1.26672 -4.18656 0
M  V30 1910 C 183.229 2.33045 -4.7178 0
M  V30 1911 O 182.255 1.94541 -5.34923 0
M  V30 1912 N 183.457 3.64929 -4.5145 0
M  V30 1913 H 186.222 -0.126404 -2.99433 0
M  V30 1914 H 183.783 -0.213392 -1.60488 0
M  V30 1915 H 185.775 2.39019 -3.26577 0
M  V30 1916 H 184.345 2.20025 -2.22053 0
M  V30 1917 H 183.565 0.388878 -3.92277 0
M  V30 1918 H 184.853 0.964964 -4.99566 0
M  V30 1919 H 184.251 3.98974 -4.01044 0
M  V30 1920 H 182.808 4.31651 -4.88386 0
M  V30 1921 N 186.241 1.57166 -0.116904 0
M  V30 1922 C 187.204 2.14039 0.819742 0
M  V30 1923 C 188.204 1.07477 1.19605 0
M  V30 1924 O 189.394 1.33263 1.1219 0
M  V30 1925 C 186.526 2.67891 2.10826 0
M  V30 1926 H 187.719 2.98128 0.325511 0
M  V30 1927 H 185.272 1.55739 0.132312 0
M  V30 1928 H 186.007 1.87384 2.64685 0
M  V30 1929 H 185.792 3.45823 1.84793 0
M  V30 1930 H 187.282 3.11809 2.77785 0
M  V30 1931 N 187.719 -0.156864 1.56817 0
M  V30 1932 C 188.629 -1.2136 2.00771 0
M  V30 1933 C 189.645 -1.47598 0.921459 0
M  V30 1934 O 190.821 -1.59462 1.2302 0
M  V30 1935 C 187.886 -2.52943 2.37109 0
M  V30 1936 C 186.947 -2.34439 3.59634 0
M  V30 1937 C 186.18 -3.59748 3.94229 0
M  V30 1938 O 186.403 -4.65526 3.29609 0
M  V30 1939 O 185.337 -3.52998 4.8752 0
M  V30 1940 H 189.163 -0.870468 2.90958 0
M  V30 1941 H 186.748 -0.36484 1.44877 0
M  V30 1942 H 188.63 -3.30538 2.61386 0
M  V30 1943 H 187.305 -2.86806 1.5008 0
M  V30 1944 H 186.212 -1.54828 3.40557 0
M  V30 1945 H 187.545 -2.05496 4.4725 0
M  V30 1946 N 189.197 -1.51736 -0.425897 0
M  V30 1947 C 190.107 -1.76738 -1.54275 0
M  V30 1948 C 191.123 -0.65211 -1.61318 0
M  V30 1949 O 192.299 -0.935654 -1.78346 0
M  V30 1950 C 189.364 -1.89755 -2.90162 0
M  V30 1951 C 188.425 -3.13633 -2.93143 0
M  V30 1952 C 187.658 -3.2602 -4.22548 0
M  V30 1953 O 187.881 -2.44067 -5.15546 0
M  V30 1954 O 186.815 -4.19071 -4.32046 0
M  V30 1955 H 190.641 -2.71502 -1.36089 0
M  V30 1956 H 188.226 -1.36376 -0.610069 0
M  V30 1957 H 190.108 -2.00236 -3.70788 0
M  V30 1958 H 188.783 -0.981785 -3.08452 0
M  V30 1959 H 187.69 -3.08622 -2.11431 0
M  V30 1960 H 189.023 -4.04936 -2.798 0
M  V30 1961 N 190.675 0.682077 -1.42076 0
M  V30 1962 C 191.952 1.43755 -1.32642 0
M  V30 1963 C 192.332 2.11063 0.0396611 0
M  V30 1964 O 191.68 2.02701 1.05474 0
M  V30 1965 C 191.89 2.44596 -2.48946 0
M  V30 1966 C 193.238 3.09454 -2.9073 0
M  V30 1967 O 194.262 2.54922 -2.48783 0
M  V30 1968 O 193.121 4.08253 -3.63307 0
M  V30 1969 H 190.215 0.640857 -0.522715 0
M  V30 1970 H 192.761 0.711415 -1.54068 0
M  V30 1971 H 191.533 1.93609 -3.40046 0
M  V30 1972 H 191.156 3.24701 -2.29467 0
M  V30 1973 N 192.153 1.28127 0.917671 0
M  V30 1974 C 193.401 1.14825 1.66312 0
M  V30 1975 C 193.722 -0.304379 1.9261 0
M  V30 1976 O 192.992 -1.21149 1.53947 0
M  V30 1977 H 191.572 0.421953 0.616413 0
M  V30 1978 H 194.234 1.608 1.10134 0
M  V30 1979 H 193.33 1.68489 2.62712 0
M  V30 1980 N 193.631 -1.12557 1.10312 0
M  V30 1981 C 194.594 -2.16434 0.75424 0
M  V30 1982 C 195.594 -1.59278 -0.220685 0
M  V30 1983 O 196.784 -1.742 0.00230591 0
M  V30 1984 C 193.916 -3.40699 0.116987 0
M  V30 1985 H 195.109 -2.48811 1.67431 0
M  V30 1986 H 192.662 -1.27542 0.903475 0
M  V30 1987 H 193.397 -3.13921 -0.813877 0
M  V30 1988 H 193.182 -3.83459 0.818613 0
M  V30 1989 H 194.672 -4.17451 -0.111387 0
M  V30 1990 N 195.109 -0.891671 -1.2995 0
M  V30 1991 C 196.386 -0.433307 -1.9074 0
M  V30 1992 C 196.766 1.08646 -1.80995 0
M  V30 1993 O 196.114 1.92476 -1.23147 0
M  V30 1994 C 196.324 -0.938895 -3.36134 0
M  V30 1995 C 197.672 -0.977829 -4.13187 0
M  V30 1996 O 198.696 -0.886015 -3.45005 0
M  V30 1997 O 197.555 -1.11453 -5.35015 0
M  V30 1998 H 194.649 -0.133699 -0.816121 0
M  V30 1999 H 197.195 -0.981011 -1.38471 0
M  V30 2000 H 195.967 -1.98281 -3.37343 0
M  V30 2001 H 195.59 -0.37074 -3.95868 0
M  V30 2002 N 196.587 1.43421 -0.653314 0
M  V30 2003 C 197.817 2.05864 -0.174238 0
M  V30 2004 C 198.225 1.49052 1.16534 0
M  V30 2005 O 197.568 0.616481 1.73047 0
M  V30 2006 C 197.63 3.59499 -0.00875873 0
M  V30 2007 C 197.294 4.38893 -1.27364 0
M  V30 2008 C 198.291 4.70947 -2.20239 0
M  V30 2009 C 195.976 4.789 -1.51525 0
M  V30 2010 C 197.97 5.41916 -3.35568 0
M  V30 2011 C 195.657 5.49614 -2.67147 0
M  V30 2012 C 196.655 5.81044 -3.58994 0
M  V30 2013 O 196.343 6.50313 -4.72597 0
M  V30 2014 H 196.075 0.670345 -0.0872549 0
M  V30 2015 H 198.629 1.84913 -0.894226 0
M  V30 2016 H 196.859 3.79025 0.7666 0
M  V30 2017 H 198.548 4.0364 0.427687 0
M  V30 2018 H 199.314 4.40558 -2.02815 0
M  V30 2019 H 195.193 4.53843 -0.809158 0
M  V30 2020 H 198.737 5.66365 -4.07279 0
M  V30 2021 H 194.634 5.79419 -2.84505 0
M  V30 2022 H 195.402 6.68795 -4.71864 0
M  V30 2023 N 198.065 0.39524 1.52563 0
M  V30 2024 C 199.311 -0.185318 2.01952 0
M  V30 2025 C 199.644 -1.45964 1.28095 0
M  V30 2026 O 198.919 -1.90689 0.38315 0
M  V30 2027 C 199.202 -0.447193 3.57312 0
M  V30 2028 C 199.055 0.842828 4.41833 0
M  V30 2029 C 200.374 -1.23529 4.22408 0
M  V30 2030 H 197.493 -0.0658788 0.73405 0
M  V30 2031 H 200.135 0.525975 1.82575 0
M  V30 2032 H 198.285 -1.05312 3.73954 0
M  V30 2033 H 199.957 1.4795 4.36931 0
M  V30 2034 H 198.2 1.45686 4.08605 0
M  V30 2035 H 198.871 0.614165 5.48573 0
M  V30 2036 H 201.347 -0.722445 4.0978 0
M  V30 2037 H 200.223 -1.38727 5.3108 0
M  V30 2038 H 200.484 -2.25213 3.80436 0
M  V30 2039 N 199.544 -1.57102 0.125237 0
M  V30 2040 C 200.792 -1.95021 -0.530198 0
M  V30 2041 C 201.113 -1.00982 -1.66816 0
M  V30 2042 O 200.383 -0.0672693 -1.95784 0
M  V30 2043 H 198.963 -0.720046 -0.198853 0
M  V30 2044 H 201.625 -1.93916 0.19564 0
M  V30 2045 H 200.721 -2.98211 -0.920681 0
M  V30 2046 N 201.022 0.148545 -1.56898 0
M  V30 2047 C 201.952 1.18524 -2.01182 0
M  V30 2048 C 202.933 1.4489 -0.891123 0
M  V30 2049 O 204.118 1.55836 -1.15882 0
M  V30 2050 C 201.248 2.51879 -2.39112 0
M  V30 2051 C 200.202 2.40038 -3.54353 0
M  V30 2052 C 199.528 3.78089 -3.78091 0
M  V30 2053 C 200.828 1.88577 -4.87069 0
M  V30 2054 H 202.522 0.817029 -2.88036 0
M  V30 2055 H 200.068 0.391575 -1.38574 0
M  V30 2056 H 202.021 3.24627 -2.68692 0
M  V30 2057 H 200.745 2.90532 -1.49193 0
M  V30 2058 H 199.404 1.69742 -3.24936 0
M  V30 2059 H 199.052 4.14175 -2.85426 0
M  V30 2060 H 198.752 3.71028 -4.55645 0
M  V30 2061 H 200.276 4.52387 -4.10095 0
M  V30 2062 H 201.69 2.51117 -5.15377 0
M  V30 2063 H 200.087 1.9241 -5.68417 0
M  V30 2064 H 201.157 0.84136 -4.77545 0
M  V30 2065 N 202.5 1.5196 0.417844 0
M  V30 2066 C 203.748 1.65263 1.16329 0
M  V30 2067 C 204.069 0.380634 1.91249 0
M  V30 2068 O 203.339 -0.604214 1.86349 0
M  V30 2069 H 201.919 0.60912 0.432414 0
M  V30 2070 H 204.581 1.88969 0.477162 0
M  V30 2071 H 203.677 2.4896 1.88217 0
M  V30 2072 N 203.978 -0.674533 1.42435 0
M  V30 2073 C 205.389 -1.25514 1.38214 0
M  V30 2074 C 205.74 -1.96055 0.0755464 0
M  V30 2075 O 204.865 -2.00028 -0.8257 0
M  V30 2076 C 205.46 -2.28269 2.50357 0
M  V30 2077 C 204.019 -2.81856 2.49467 0
M  V30 2078 C 203.166 -1.56182 2.29134 0
M  V30 2079 H 206.117 -0.467902 1.51646 0
M  V30 2080 H 206.138 -3.10009 2.20624 0
M  V30 2081 H 205.65 -1.769 3.45439 0
M  V30 2082 H 203.751 -3.37346 1.58204 0
M  V30 2083 H 203.864 -3.30854 3.46515 0
M  V30 2084 H 202.228 -1.82761 1.774 0
M  V30 2085 H 203.011 -1.06778 3.26272 0
M  V30 2086 N 205.456 -1.28612 -0.910864 0
M  V30 2087 C 206.705 -1.15311 -1.65488 0
M  V30 2088 C 207.018 0.296999 -1.93332 0
M  V30 2089 O 208.224 0.551168 -2.65847 0
M  V30 2090 C 206.68 -2.01599 -2.98137 0
M  V30 2091 C 206.288 -3.51367 -2.7793 0
M  V30 2092 C 208.032 -1.96993 -3.76024 0
M  V30 2093 C 205.939 -4.29797 -4.06237 0
M  V30 2094 H 204.869 -0.42796 -0.620779 0
M  V30 2095 H 207.52 -1.53166 -1.01057 0
M  V30 2096 H 205.902 -1.56603 -3.63719 0
M  V30 2097 H 207.076 -4.0434 -2.21011 0
M  V30 2098 H 205.391 -3.57529 -2.13452 0
M  V30 2099 H 207.988 -2.52856 -4.71135 0
M  V30 2100 H 208.331 -0.94733 -4.05378 0
M  V30 2101 H 208.864 -2.39973 -3.17266 0
M  V30 2102 H 205.603 -5.32648 -3.82055 0
M  V30 2103 H 205.123 -3.81596 -4.62757 0
M  V30 2104 H 206.802 -4.39869 -4.74473 0
M  V30 2105 N 206.934 1.1197 -1.10907 0
M  V30 2106 C 208.164 1.8713 -0.875553 0
M  V30 2107 C 208.572 1.8016 0.577843 0
M  V30 2108 O 207.915 1.17699 1.41042 0
M  V30 2109 C 207.977 3.37005 -1.2517 0
M  V30 2110 C 207.641 3.67748 -2.71313 0
M  V30 2111 C 208.638 3.65698 -3.69542 0
M  V30 2112 C 206.323 3.96928 -3.07821 0
M  V30 2113 C 208.317 3.92395 -5.023 0
M  V30 2114 C 206.004 4.23284 -4.40765 0
M  V30 2115 C 207.002 4.21005 -5.37814 0
M  V30 2116 O 206.69 4.46704 -6.68364 0
M  V30 2117 H 206.422 0.598786 -0.313737 0
M  V30 2118 H 208.976 1.42568 -1.47863 0
M  V30 2119 H 207.206 3.82146 -0.591741 0
M  V30 2120 H 208.895 3.93519 -0.994877 0
M  V30 2121 H 209.661 3.43211 -3.42682 0
M  V30 2122 H 205.54 3.97841 -2.32902 0
M  V30 2123 H 209.084 3.90531 -5.78041 0
M  V30 2124 H 204.981 4.45246 -4.67361 0
M  V30 2125 H 205.749 4.64299 -6.74069 0
M  V30 2126 N 208.412 0.89855 1.29475 0
M  V30 2127 C 209.823 0.572537 1.77705 0
M  V30 2128 C 210.174 -0.911778 1.73727 0
M  V30 2129 O 209.299 -1.71288 1.32247 0
M  V30 2130 C 209.894 1.03252 3.22683 0
M  V30 2131 C 208.453 0.757687 3.68695 0
M  V30 2132 C 207.6 1.20787 2.49612 0
M  V30 2133 H 210.551 1.08139 1.16153 0
M  V30 2134 H 210.572 0.367307 3.78723 0
M  V30 2135 H 210.084 2.11285 3.25546 0
M  V30 2136 H 208.185 -0.310079 3.71308 0
M  V30 2137 H 208.298 1.35476 4.59547 0
M  V30 2138 H 206.662 0.626888 2.46865 0
M  V30 2139 H 207.445 2.29622 2.55203 0
M  V30 2140 N 209.89 -1.43072 0.660911 0
M  V30 2141 C 211.118 -2.06067 0.185422 0
M  V30 2142 C 211.533 -1.49582 -1.15198 0
M  V30 2143 O 210.89 -0.630134 -1.71276 0
M  V30 2144 C 210.941 -3.61371 0.0966523 0
M  V30 2145 O 210.662 -4.15758 1.38119 0
M  V30 2146 C 212.163 -4.41455 -0.403996 0
M  V30 2147 H 209.383 -0.664459 0.0934604 0
M  V30 2148 H 211.927 -1.83447 0.90373 0
M  V30 2149 H 210.082 -3.8315 -0.572259 0
M  V30 2150 H 210.496 -5.09499 1.24542 0
M  V30 2151 H 211.97 -5.50437 -0.415045 0
M  V30 2152 H 212.447 -4.15036 -1.43674 0
M  V30 2153 H 213.053 -4.24663 0.232691 0
M  V30 2154 N 211.368 -0.403325 -1.52352 0
M  V30 2155 C 212.278 0.432009 -2.30588 0
M  V30 2156 C 213.294 1.05884 -1.38075 0
M  V30 2157 O 214.47 1.06161 -1.71148 0
M  V30 2158 C 211.535 1.53669 -3.10784 0
M  V30 2159 C 210.596 0.933525 -4.19027 0
M  V30 2160 C 209.829 1.98557 -4.9539 0
M  V30 2161 O 210.052 3.20283 -4.71991 0
M  V30 2162 O 208.986 1.59504 -5.80381 0
M  V30 2163 H 212.812 -0.205739 -3.03002 0
M  V30 2164 H 210.397 -0.166675 -1.48467 0
M  V30 2165 H 212.279 2.17814 -3.60742 0
M  V30 2166 H 210.954 2.15915 -2.41169 0
M  V30 2167 H 209.861 0.254954 -3.7323 0
M  V30 2168 H 211.194 0.35508 -4.90918 0
M  V30 2169 N 212.846 1.57033 -0.133567 0
M  V30 2170 C 214.074 2.00044 0.528195 0
M  V30 2171 C 214.489 1.01349 1.59291 0
M  V30 2172 O 213.846 0.00848369 1.82498 0
M  V30 2173 C 213.897 3.43018 1.1411 0
M  V30 2174 O 213.618 4.37939 0.11892 0
M  V30 2175 C 215.119 4.01237 1.88477 0
M  V30 2176 H 212.339 0.656517 0.138661 0
M  V30 2177 H 214.883 2.03267 -0.224196 0
M  V30 2178 H 213.038 3.40688 1.84418 0
M  V30 2179 H 213.452 5.21436 0.56613 0
M  V30 2180 H 214.926 5.03314 2.26669 0
M  V30 2181 H 215.403 3.41193 2.76558 0
M  V30 2182 H 216.009 4.07156 1.22898 0
M  V30 2183 N 214.325 -0.140222 1.56975 0
M  V30 2184 C 215.272 -1.17292 1.98774 0
M  V30 2185 C 216.242 -1.4232 0.856408 0
M  V30 2186 O 217.427 -1.54541 1.119 0
M  V30 2187 C 214.567 -2.49973 2.37923 0
M  V30 2188 C 213.68 -2.32062 3.64378 0
M  V30 2189 C 212.815 -3.57825 3.926 0
M  V30 2190 C 211.854 -3.3498 5.12303 0
M  V30 2191 N 210.991 -4.52891 5.36502 0
M  V30 2192 H 215.831 -0.809472 2.86795 0
M  V30 2193 H 213.368 -0.388237 1.41884 0
M  V30 2194 H 215.326 -3.27346 2.58652 0
M  V30 2195 H 213.956 -2.84252 1.52972 0
M  V30 2196 H 213.008 -1.45711 3.51387 0
M  V30 2197 H 214.32 -2.11145 4.51906 0
M  V30 2198 H 213.474 -4.43624 4.13863 0
M  V30 2199 H 212.213 -3.81753 3.03506 0
M  V30 2200 H 211.218 -2.4757 4.90906 0
M  V30 2201 H 212.443 -3.12444 6.02956 0
M  V30 2202 H 210.389 -4.76979 4.50363 0
M  V30 2203 H 210.306 -4.35001 6.18312 0
M  V30 2204 H 211.574 -5.39884 5.62268 0
M  V30 2205 N 215.803 -1.52179 -0.40978 0
M  V30 2206 C 216.75 -1.75475 -1.49924 0
M  V30 2207 C 217.72 -0.597175 -1.54994 0
M  V30 2208 O 218.905 -0.834655 -1.71575 0
M  V30 2209 C 216.045 -1.9107 -2.87378 0
M  V30 2210 C 215.158 -3.18717 -2.91622 0
M  V30 2211 C 214.293 -3.24747 -4.20372 0
M  V30 2212 C 213.332 -4.46598 -4.18588 0
M  V30 2213 N 212.469 -4.50025 -5.38908 0
M  V30 2214 H 217.309 -2.68458 -1.29361 0
M  V30 2215 H 214.846 -1.33024 -0.627934 0
M  V30 2216 H 216.804 -1.98096 -3.6717 0
M  V30 2217 H 215.434 -1.01469 -3.06437 0
M  V30 2218 H 214.486 -3.20866 -2.04326 0
M  V30 2219 H 215.798 -4.08544 -2.86169 0
M  V30 2220 H 214.952 -3.30841 -5.08556 0
M  V30 2221 H 213.691 -2.32857 -4.28519 0
M  V30 2222 H 212.696 -4.40652 -3.28794 0
M  V30 2223 H 213.921 -5.39783 -4.12081 0
M  V30 2224 H 211.867 -3.61017 -5.47725 0
M  V30 2225 H 211.784 -5.33697 -5.35447 0
M  V30 2226 H 213.052 -4.60347 -6.29048 0
M  V30 2227 N 217.281 0.66697 -1.42791 0
M  V30 2228 C 218.558 1.4234 -1.34159 0
M  V30 2229 C 218.938 2.11093 0.0172729 0
M  V30 2230 O 218.286 2.03808 1.03318 0
M  V30 2231 C 218.496 2.41942 -2.51526 0
M  V30 2232 C 219.844 3.06353 -2.93995 0
M  V30 2233 O 220.868 2.52269 -2.51473 0
M  V30 2234 O 219.727 4.04376 -3.67617 0
M  V30 2235 H 216.821 0.635277 -0.529483 0
M  V30 2236 H 219.367 0.695034 -1.54814 0
M  V30 2237 H 218.139 1.89991 -3.42081 0
M  V30 2238 H 217.762 3.22249 -2.32898 0
M  V30 2239 N 218.759 1.29093 0.90403 0
M  V30 2240 C 219.987 1.19689 1.68766 0
M  V30 2241 C 220.402 -0.243113 1.87228 0
M  V30 2242 O 219.759 -1.16326 1.40621 0
M  V30 2243 C 219.81 1.90144 3.07453 0
M  V30 2244 O 219.531 3.2852 2.89838 0
M  V30 2245 C 221.032 1.87162 4.01852 0
M  V30 2246 H 218.252 0.415035 0.527244 0
M  V30 2247 H 220.796 1.7039 1.13082 0
M  V30 2248 H 218.951 1.43289 3.59926 0
M  V30 2249 H 219.365 3.63944 3.77684 0
M  V30 2250 H 220.839 2.41032 4.96596 0
M  V30 2251 H 221.316 0.84617 4.30972 0
M  V30 2252 H 221.922 2.33741 3.5531 0
M  V30 2253 N 220.237 -1.11381 1.11499 0
M  V30 2254 C 221.653 -1.35143 0.849031 0
M  V30 2255 C 221.853 -1.94515 -0.525938 0
M  V30 2256 O 220.909 -2.1785 -1.27662 0
M  V30 2257 C 222.222 -2.28249 1.95762 0
M  V30 2258 C 223.77 -2.41812 1.98736 0
M  V30 2259 C 224.245 -3.3824 3.088 0
M  V30 2260 N 225.736 -3.45803 3.08179 0
M  V30 2261 C 226.471 -4.20358 3.89982 0
M  V30 2262 N 225.967 -4.97884 4.8175 0
M  V30 2263 N 227.76 -4.15877 3.78157 0
M  V30 2264 H 219.911 -0.712062 2.00109 0
M  V30 2265 H 222.174 -0.376025 0.870235 0
M  V30 2266 H 221.88 -1.91817 2.94787 0
M  V30 2267 H 221.754 -3.28473 1.85433 0
M  V30 2268 H 224.141 -2.77518 1.00338 0
M  V30 2269 H 224.222 -1.41437 2.13141 0
M  V30 2270 H 223.866 -3.03261 4.07425 0
M  V30 2271 H 223.796 -4.38471 2.91635 0
M  V30 2272 H 226.287 -2.90506 2.41691 0
M  V30 2273 H 226.6 -5.52142 5.40702 0
M  V30 2274 H 224.945 -4.97043 4.85771 0
M  V30 2275 H 228.136 -3.544 3.05808 0
M  V30 2276 H 228.309 -4.73723 4.42143 0
M  V30 2277 N 221.715 -0.905404 -1.28997 0
M  V30 2278 C 222.678 -0.392253 -2.25819 0
M  V30 2279 C 223.678 0.476753 -1.5357 0
M  V30 2280 O 224.868 0.280994 -1.71919 0
M  V30 2281 C 222 0.438588 -3.38067 0
M  V30 2282 H 223.193 -1.24743 -2.72725 0
M  V30 2283 H 220.746 -0.684051 -1.40536 0
M  V30 2284 H 221.481 1.31352 -2.96508 0
M  V30 2285 H 221.266 -0.184167 -3.91667 0
M  V30 2286 H 222.756 0.78873 -4.10084 0
M  V30 2287 N 223.193 1.4272 -0.668489 0
M  V30 2288 C 224.439 2.01923 -0.188419 0
M  V30 2289 C 224.772 1.52704 1.19979 0
M  V30 2290 O 224.047 0.726566 1.8042 0
M  V30 2291 C 224.33 3.59451 -0.216085 0
M  V30 2292 C 224.183 4.18864 -1.6393 0
M  V30 2293 C 225.502 4.37903 0.439179 0
M  V30 2294 H 222.621 0.733674 -0.0699412 0
M  V30 2295 H 225.263 1.69822 -0.852076 0
M  V30 2296 H 223.413 3.86929 0.349012 0
M  V30 2297 H 225.085 4.02362 -2.25616 0
M  V30 2298 H 223.328 3.74933 -2.18193 0
M  V30 2299 H 223.999 5.27987 -1.61039 0
M  V30 2300 H 226.475 4.16079 -0.0417878 0
M  V30 2301 H 225.351 5.47519 0.389157 0
M  V30 2302 H 225.612 4.15303 1.51577 0
M  V30 2303 N 224.671 0.411399 1.52136 0
M  V30 2304 C 225.603 -0.448386 2.24771 0
M  V30 2305 C 226.616 -1.00828 1.27818 0
M  V30 2306 O 227.805 -0.906841 1.53749 0
M  V30 2307 C 224.905 -1.63636 2.96777 0
M  V30 2308 C 224.078 -1.19995 4.20618 0
M  V30 2309 C 223.137 -2.25509 4.75428 0
M  V30 2310 O 222.163 -1.86007 5.3795 0
M  V30 2311 N 223.365 -3.577 4.57199 0
M  V30 2312 H 226.13 0.174025 2.99194 0
M  V30 2313 H 223.691 0.238897 1.60128 0
M  V30 2314 H 225.683 -2.33793 3.30338 0
M  V30 2315 H 224.253 -2.16465 2.25526 0
M  V30 2316 H 223.473 -0.326421 3.92846 0
M  V30 2317 H 224.761 -0.885365 5.01038 0
M  V30 2318 H 224.159 -3.92543 4.07341 0
M  V30 2319 H 222.716 -4.23827 4.95191 0
M  V30 2320 N 226.149 -1.5696 0.141893 0
M  V30 2321 C 227.397 -1.95573 -0.509484 0
M  V30 2322 C 227.718 -1.02746 -1.65736 0
M  V30 2323 O 226.988 -0.0880311 -1.95702 0
M  V30 2324 H 225.568 -0.722115 -0.191205 0
M  V30 2325 H 228.23 -1.93697 0.216196 0
M  V30 2326 H 227.326 -2.99171 -0.889 0
M  V30 2327 N 227.627 0.131896 -1.57047 0
M  V30 2328 C 228.873 0.843179 -1.84441 0
M  V30 2329 C 229.206 1.80129 -0.725749 0
M  V30 2330 O 228.481 1.92624 0.269469 0
M  V30 2331 C 228.764 1.60442 -3.22382 0
M  V30 2332 C 228.617 0.666782 -4.4483 0
M  V30 2333 C 229.936 2.56354 -3.5773 0
M  V30 2334 H 227.055 0.305081 -0.670891 0
M  V30 2335 H 229.697 0.107839 -1.89694 0
M  V30 2336 H 227.847 2.23128 -3.18035 0
M  V30 2337 H 229.519 0.0497646 -4.61273 0
M  V30 2338 H 227.762 -0.022609 -4.33794 0
M  V30 2339 H 228.433 1.23579 -5.37989 0
M  V30 2340 H 230.909 2.0378 -3.62785 0
M  V30 2341 H 229.785 3.06657 -4.5525 0
M  V30 2342 H 230.046 3.38419 -2.84473 0
M  V30 2343 N 229.106 1.52395 0.401703 0
M  V30 2344 C 230.331 1.70972 1.17403 0
M  V30 2345 C 230.756 0.421615 1.83314 0
M  V30 2346 O 230.114 -0.621564 1.70312 0
M  V30 2347 C 230.162 2.85151 2.20728 0
M  V30 2348 O 229.266 2.51238 3.27037 0
M  V30 2349 H 228.607 0.568927 0.342372 0
M  V30 2350 H 231.137 1.99131 0.469891 0
M  V30 2351 H 231.147 3.10279 2.64936 0
M  V30 2352 H 229.822 3.78603 1.7214 0
M  V30 2353 H 228.399 2.36808 2.88057 0
M  V30 2354 N 230.584 -0.659388 1.43143 0
M  V30 2355 C 231.514 -1.78422 1.50625 0
M  V30 2356 C 232.495 -1.66216 0.361443 0
M  V30 2357 O 233.68 -1.85404 0.577834 0
M  V30 2358 C 230.81 -3.16815 1.42287 0
M  V30 2359 C 229.764 -3.43777 2.54954 0
M  V30 2360 C 229.09 -4.81905 2.31671 0
M  V30 2361 C 230.39 -3.39134 3.97222 0
M  V30 2362 H 232.084 -1.72417 2.44771 0
M  V30 2363 H 229.63 -0.828084 1.17808 0
M  V30 2364 H 231.583 -3.95253 1.46127 0
M  V30 2365 H 230.307 -3.23534 0.446435 0
M  V30 2366 H 228.966 -2.67707 2.50457 0
M  V30 2367 H 228.614 -4.85294 1.32284 0
M  V30 2368 H 228.314 -5.00906 3.07192 0
M  V30 2369 H 229.838 -5.62609 2.37284 0
M  V30 2370 H 231.252 -4.07518 4.03239 0
M  V30 2371 H 229.649 -3.69671 4.72719 0
M  V30 2372 H 230.719 -2.37426 4.22797 0
M  V30 2373 N 232.062 -1.29571 -0.897171 0
M  V30 2374 C 233.311 -1.1706 -1.64256 0
M  V30 2375 C 233.624 0.276476 -1.93636 0
M  V30 2376 O 234.83 0.52294 -2.66416 0
M  V30 2377 C 233.286 -2.0475 -2.95982 0
M  V30 2378 C 232.894 -3.54295 -2.74187 0
M  V30 2379 C 234.638 -2.0097 -3.73914 0
M  V30 2380 C 232.545 -4.34081 -4.01656 0
M  V30 2381 H 231.475 -0.43452 -0.616205 0
M  V30 2382 H 234.126 -1.54229 -0.994268 0
M  V30 2383 H 232.508 -1.60452 -3.62038 0
M  V30 2384 H 233.682 -4.06662 -2.1671 0
M  V30 2385 H 231.997 -3.59773 -2.09648 0
M  V30 2386 H 234.594 -2.57838 -4.68427 0
M  V30 2387 H 234.937 -0.990273 -4.0435 0
M  V30 2388 H 235.47 -2.43325 -3.14703 0
M  V30 2389 H 232.209 -5.36671 -3.76384 0
M  V30 2390 H 231.729 -3.86483 -4.58684 0
M  V30 2391 H 233.408 -4.44877 -4.69781 0
M  V30 2392 N 233.54 1.10788 -1.12088 0
M  V30 2393 C 234.45 2.20599 -0.798338 0
M  V30 2394 C 235.466 1.72712 0.21135 0
M  V30 2395 O 236.642 2.01348 0.0458477 0
M  V30 2396 C 233.707 3.45771 -0.253674 0
M  V30 2397 C 232.768 4.08411 -1.32283 0
M  V30 2398 C 232.001 5.27608 -0.80406 0
M  V30 2399 O 232.224 5.69241 0.363478 0
M  V30 2400 O 231.158 5.8101 -1.57198 0
M  V30 2401 H 234.984 2.50614 -1.7154 0
M  V30 2402 H 232.569 1.19454 -0.897275 0
M  V30 2403 H 234.451 4.21376 0.0453691 0
M  V30 2404 H 233.126 3.1739 0.636005 0
M  V30 2405 H 232.033 3.34507 -1.67499 0
M  V30 2406 H 233.366 4.40986 -2.18614 0
M  V30 2407 N 235.018 0.912232 1.28515 0
M  V30 2408 C 235.981 0.404223 2.25607 0
M  V30 2409 C 236.981 -0.468602 1.53821 0
M  V30 2410 O 238.171 -0.271873 1.72065 0
M  V30 2411 C 235.303 -0.420653 3.38295 0
M  V30 2412 H 236.496 1.26188 2.7206 0
M  V30 2413 H 234.049 0.691495 1.40171 0
M  V30 2414 H 234.784 -1.29777 2.97201 0
M  V30 2415 H 234.569 0.204935 3.91564 0
M  V30 2416 H 236.059 -0.766971 4.10496 0
M  V30 2417 N 236.496 -1.42363 0.676048 0
M  V30 2418 C 237.742 -2.0182 0.199125 0
M  V30 2419 C 238.075 -1.53339 -1.19168 0
M  V30 2420 O 237.35 -0.736124 -1.80032 0
M  V30 2421 C 237.633 -3.59331 0.235144 0
M  V30 2422 C 237.486 -4.17989 1.66149 0
M  V30 2423 C 238.805 -4.3813 -0.41595 0
M  V30 2424 H 235.924 -0.733293 0.0738311 0
M  V30 2425 H 238.566 -1.69368 0.86107 0
M  V30 2426 H 236.716 -3.87109 -0.328487 0
M  V30 2427 H 238.388 -4.0116 2.27747 0
M  V30 2428 H 236.631 -3.7377 2.20178 0
M  V30 2429 H 237.302 -5.27126 1.63837 0
M  V30 2430 H 239.778 -4.16051 0.0638529 0
M  V30 2431 H 238.654 -5.47717 -0.360115 0
M  V30 2432 H 238.915 -4.16101 -1.49373 0
M  V30 2433 N 237.974 -0.419461 -1.51915 0
M  V30 2434 C 239.39 -0.0708431 -1.59443 0
M  V30 2435 C 239.59 1.41796 -1.43164 0
M  V30 2436 O 238.646 2.18596 -1.26381 0
M  V30 2437 C 239.959 -0.574991 -2.95151 0
M  V30 2438 C 241.507 -0.533867 -3.08413 0
M  V30 2439 C 241.982 -1.01469 -4.46618 0
M  V30 2440 N 243.473 -0.971939 -4.52888 0
M  V30 2441 C 244.208 -1.31505 -5.58116 0
M  V30 2442 N 243.704 -1.73014 -6.70849 0
M  V30 2443 N 245.497 -1.23436 -5.48379 0
M  V30 2444 H 237.648 -1.38836 -1.60743 0
M  V30 2445 H 239.911 -0.570998 -0.756747 0
M  V30 2446 H 239.617 -1.61597 -3.12377 0
M  V30 2447 H 239.491 0.00979777 -3.77199 0
M  V30 2448 H 241.878 0.498086 -2.90866 0
M  V30 2449 H 241.959 -1.15484 -2.28248 0
M  V30 2450 H 241.603 -2.04502 -4.6491 0
M  V30 2451 H 241.533 -0.370433 -5.25295 0
M  V30 2452 H 244.024 -0.666893 -3.71969 0
M  V30 2453 H 244.337 -1.97479 -7.47143 0
M  V30 2454 H 242.682 -1.76926 -6.72103 0
M  V30 2455 H 245.873 -0.908869 -4.59192 0
M  V30 2456 H 246.046 -1.50506 -6.30279 0
M  V30 2457 N 239.452 1.56882 -0.150215 0
M  V30 2458 C 240.868 1.58263 0.20617 0
M  V30 2459 C 241.068 1.16464 1.64434 0
M  V30 2460 O 240.124 0.866422 2.3717 0
M  V30 2461 C 241.437 3.00649 -0.0555025 0
M  V30 2462 C 242.985 3.12999 0.00795388 0
M  V30 2463 C 243.46 4.5744 -0.226429 0
M  V30 2464 N 244.951 4.62875 -0.173469 0
M  V30 2465 C 245.686 5.72454 -0.329288 0
M  V30 2466 N 245.182 6.90669 -0.543005 0
M  V30 2467 N 246.975 5.61467 -0.266666 0
M  V30 2468 H 239.126 1.82345 -1.08922 0
M  V30 2469 H 241.389 0.844149 -0.431413 0
M  V30 2470 H 241.095 3.3563 -1.05096 0
M  V30 2471 H 240.969 3.71337 0.66246 0
M  V30 2472 H 243.356 2.77857 0.993966 0
M  V30 2473 H 243.437 2.4479 -0.742388 0
M  V30 2474 H 243.081 4.93287 -1.20956 0
M  V30 2475 H 243.011 5.2378 0.544274 0
M  V30 2476 H 245.502 3.77898 -0.0130709 0
M  V30 2477 H 245.815 7.70045 -0.651922 0
M  V30 2478 H 244.16 6.92581 -0.579366 0
M  V30 2479 H 247.351 4.67992 -0.100441 0
M  V30 2480 H 247.524 6.46816 -0.391535 0
M  V30 2481 N 240.93 -0.123565 1.57115 0
M  V30 2482 C 241.862 -1.17739 1.96648 0
M  V30 2483 C 242.875 -1.37906 0.865201 0
M  V30 2484 O 244.064 -1.37062 1.14351 0
M  V30 2485 C 241.164 -2.53821 2.24562 0
M  V30 2486 C 240.337 -2.54317 3.55867 0
M  V30 2487 C 239.396 -3.72112 3.72047 0
M  V30 2488 O 238.422 -3.55907 4.44206 0
M  V30 2489 N 239.624 -4.90498 3.10471 0
M  V30 2490 H 242.389 -0.841147 2.87654 0
M  V30 2491 H 239.95 -0.31289 1.58848 0
M  V30 2492 H 241.942 -3.31175 2.32606 0
M  V30 2493 H 240.512 -2.79645 1.39705 0
M  V30 2494 H 239.732 -1.62711 3.59053 0
M  V30 2495 H 241.02 -2.51701 4.42181 0
M  V30 2496 H 240.418 -5.06567 2.51806 0
M  V30 2497 H 238.975 -5.65544 3.24043 0
M  V30 2498 N 242.408 -1.52605 -0.393616 0
M  V30 2499 C 243.656 -1.67093 -1.13685 0
M  V30 2500 C 243.977 -0.411011 -1.90619 0
M  V30 2501 O 243.247 0.574491 -1.87287 0
M  V30 2502 H 241.827 -0.615923 -0.422668 0
M  V30 2503 H 244.489 -1.89704 -0.447039 0
M  V30 2504 H 243.585 -2.51922 -1.84232 0
M  V30 2505 N 243.887 0.651787 -1.4349 0
M  V30 2506 C 245.136 1.40754 -1.44469 0
M  V30 2507 C 245.449 1.95463 -0.0731845 0
M  V30 2508 O 246.655 2.71471 0.0395721 0
M  V30 2509 C 245.111 2.54735 -2.5424 0
M  V30 2510 C 244.719 2.06628 -3.97504 0
M  V30 2511 C 246.463 3.32092 -2.64414 0
M  V30 2512 C 244.37 3.17829 -4.98737 0
M  V30 2513 H 243.3 0.528862 -0.53742 0
M  V30 2514 H 245.951 0.703365 -1.69485 0
M  V30 2515 H 244.333 3.2763 -2.22428 0
M  V30 2516 H 245.507 1.40734 -4.38783 0
M  V30 2517 H 243.822 1.42146 -3.91387 0
M  V30 2518 H 246.419 4.14952 -3.37223 0
M  V30 2519 H 246.762 3.80217 -1.69532 0
M  V30 2520 H 247.295 2.66279 -2.95534 0
M  V30 2521 H 244.034 2.74671 -5.95177 0
M  V30 2522 H 243.554 3.82429 -4.62069 0
M  V30 2523 H 245.233 3.82937 -5.21505 0
M  V30 2524 N 245.365 1.30045 0.890287 0
M  V30 2525 C 246.59 1.21598 1.68014 0
M  V30 2526 C 247.015 -0.218678 1.86825 0
M  V30 2527 O 246.373 -1.15756 1.39536 0
M  V30 2528 C 246.421 1.94434 3.03691 0
M  V30 2529 O 245.525 1.2678 3.92429 0
M  V30 2530 H 244.866 0.420856 0.513592 0
M  V30 2531 H 247.396 1.71775 1.11151 0
M  V30 2532 H 247.406 2.03251 3.5377 0
M  V30 2533 H 246.081 2.98777 2.89318 0
M  V30 2534 H 244.658 1.26282 3.50866 0
M  V30 2535 N 246.843 -1.10192 1.12674 0
M  V30 2536 C 248.092 -1.81573 0.8783 0
M  V30 2537 C 248.405 -1.86249 -0.597557 0
M  V30 2538 O 249.611 -2.5386 -0.962681 0
M  V30 2539 C 248.067 -3.26149 1.52167 0
M  V30 2540 C 247.675 -3.29763 3.03249 0
M  V30 2541 C 249.419 -4.0234 1.3536 0
M  V30 2542 C 247.326 -4.68815 3.60508 0
M  V30 2543 H 246.256 -0.680394 0.324931 0
M  V30 2544 H 248.907 -1.23902 1.35353 0
M  V30 2545 H 247.289 -3.83832 0.974104 0
M  V30 2546 H 248.463 -2.8189 3.6452 0
M  V30 2547 H 246.778 -2.67059 3.19481 0
M  V30 2548 H 249.375 -5.05058 1.75559 0
M  V30 2549 H 249.718 -4.15235 0.297554 0
M  V30 2550 H 250.251 -3.51079 1.87052 0
M  V30 2551 H 246.99 -4.61121 4.65884 0
M  V30 2552 H 246.51 -5.17045 3.04014 0
M  V30 2553 H 248.189 -5.37785 3.59717 0
M  V30 2554 N 248.321 -0.919034 -1.28029 0
M  V30 2555 C 249.732 -0.600735 -1.76771 0
M  V30 2556 C 250.083 0.884024 -1.75156 0
M  V30 2557 O 249.208 1.69163 -1.34956 0
M  V30 2558 C 249.803 -1.08372 -3.21 0
M  V30 2559 C 248.362 -0.816248 -3.67443 0
M  V30 2560 C 247.509 -1.24742 -2.47658 0
M  V30 2561 H 250.46 -1.09974 -1.14418 0
M  V30 2562 H 250.481 -0.427512 -3.78091 0
M  V30 2563 H 249.993 -2.16437 -3.22144 0
M  V30 2564 H 248.094 0.250968 -3.71754 0
M  V30 2565 H 248.207 -1.4277 -4.57333 0
M  V30 2566 H 246.571 -0.666083 -2.45836 0
M  V30 2567 H 247.354 -2.33653 -2.51518 0
M  V30 2568 N 249.799 1.42003 -0.683588 0
M  V30 2569 C 251.048 2.00638 -0.206681 0
M  V30 2570 C 251.361 1.5472 1.19671 0
M  V30 2571 O 252.567 2.05833 1.77045 0
M  V30 2572 C 251.023 3.58487 -0.318632 0
M  V30 2573 C 250.631 4.1339 -1.72663 0
M  V30 2574 C 252.375 4.24384 0.0991141 0
M  V30 2575 C 250.282 5.63633 -1.79087 0
M  V30 2576 H 249.212 0.750408 -0.0735107 0
M  V30 2577 H 251.863 1.62624 -0.850048 0
M  V30 2578 H 250.245 3.94047 0.392781 0
M  V30 2579 H 251.419 3.89273 -2.46583 0
M  V30 2580 H 249.734 3.59976 -2.09299 0
M  V30 2581 H 252.331 5.34652 0.0713833 0
M  V30 2582 H 252.674 4.00505 1.13586 0
M  V30 2583 H 253.207 3.93816 -0.561599 0
M  V30 2584 H 249.946 5.92323 -2.80774 0
M  V30 2585 H 249.466 5.89714 -1.09535 0
M  V30 2586 H 251.145 6.28201 -1.5483 0
M  V30 2587 N 251.277 0.427512 1.51691 0
M  V30 2588 C 252.523 -0.142439 2.02299 0
M  V30 2589 C 252.856 -1.43214 1.31162 0
M  V30 2590 O 252.131 -1.89833 0.423511 0
M  V30 2591 C 252.414 -0.371301 3.58181 0
M  V30 2592 C 252.267 0.936358 4.39946 0
M  V30 2593 C 253.586 -1.14542 4.24933 0
M  V30 2594 H 250.705 -0.0502937 0.735282 0
M  V30 2595 H 253.347 0.564584 1.81418 0
M  V30 2596 H 251.497 -0.973559 3.76104 0
M  V30 2597 H 253.169 1.57184 4.33694 0
M  V30 2598 H 251.412 1.5432 4.05423 0
M  V30 2599 H 252.083 0.730388 5.47147 0
M  V30 2600 H 254.559 -0.635362 4.11221 0
M  V30 2601 H 253.435 -1.27431 5.33903 0
M  V30 2602 H 253.696 -2.17093 3.85127 0
M  V30 2603 N 252.755 -1.56801 0.158532 0
M  V30 2604 C 254.003 -1.96102 -0.488712 0
M  V30 2605 C 254.324 -1.04498 -1.64636 0
M  V30 2606 O 253.594 -0.108783 -1.95598 0
M  V30 2607 H 252.174 -0.724102 -0.183535 0
M  V30 2608 H 254.836 -1.93457 0.236728 0
M  V30 2609 H 253.932 -3.00097 -0.857219 0
M  V30 2610 N 254.233 0.115231 -1.57178 0
M  V30 2611 C 255.482 0.820945 -1.84237 0
M  V30 2612 C 255.795 1.80866 -0.744761 0
M  V30 2613 O 257.001 2.56083 -0.901871 0
M  V30 2614 C 255.457 1.51072 -3.26658 0
M  V30 2615 C 255.065 0.563795 -4.44438 0
M  V30 2616 C 256.809 2.20134 -3.62962 0
M  V30 2617 C 254.716 1.25701 -5.77887 0
M  V30 2618 H 253.646 0.310328 -0.687177 0
M  V30 2619 H 256.297 0.0737134 -1.83352 0
M  V30 2620 H 254.679 2.30471 -3.22024 0
M  V30 2621 H 255.853 -0.197247 -4.60378 0
M  V30 2622 H 254.168 -0.0200638 -4.16395 0
M  V30 2623 H 256.765 2.72696 -4.59936 0
M  V30 2624 H 257.108 2.98107 -2.90582 0
M  V30 2625 H 257.641 1.47619 -3.69396 0
M  V30 2626 H 254.38 0.518493 -6.53446 0
M  V30 2627 H 253.9 1.98997 -5.65827 0
M  V30 2628 H 255.579 1.78915 -6.2177 0
M  V30 2629 N 255.711 1.52812 0.385517 0
M  V30 2630 C 256.959 1.67694 1.12797 0
M  V30 2631 C 257.28 0.421115 1.90399 0
M  V30 2632 O 256.55 -0.564551 1.87589 0
M  V30 2633 H 255.13 0.618155 0.419396 0
M  V30 2634 H 257.792 1.89938 0.436972 0
M  V30 2635 H 256.888 2.52896 1.82894 0
M  V30 2636 N 257.189 -0.644168 1.43834 0
M  V30 2637 C 258.437 -1.40117 1.45642 0
M  V30 2638 C 258.758 -1.94814 0.0852413 0
M  V30 2639 O 258.028 -1.74988 -0.880688 0
M  V30 2640 H 256.608 -0.52005 0.536243 0
M  V30 2641 H 259.27 -0.7591 1.7951 0
M  V30 2642 H 258.366 -2.23902 2.17427 0
M  V30 2643 N 258.668 -1.30515 -0.883378 0
M  V30 2644 C 259.917 -1.18795 -1.63005 0
M  V30 2645 C 260.23 0.255923 -1.93919 0
M  V30 2646 O 261.436 0.494654 -2.66956 0
M  V30 2647 C 259.892 -2.07878 -2.93794 0
M  V30 2648 C 259.5 -3.57184 -2.70414 0
M  V30 2649 C 261.244 -2.04924 -3.71761 0
M  V30 2650 C 259.151 -4.38317 -3.97029 0
M  V30 2651 H 258.081 -0.441031 -0.611562 0
M  V30 2652 H 260.732 -1.55275 -0.977854 0
M  V30 2653 H 259.114 -1.64283 -3.60315 0
M  V30 2654 H 260.288 -4.08937 -2.12384 0
M  V30 2655 H 258.603 -3.61976 -2.0582 0
M  V30 2656 H 261.2 -2.62792 -4.65665 0
M  V30 2657 H 261.543 -1.0331 -4.03277 0
M  V30 2658 H 262.076 -2.46649 -3.12104 0
M  V30 2659 H 258.815 -5.40632 -3.70671 0
M  V30 2660 H 258.335 -3.91326 -4.54559 0
M  V30 2661 H 260.014 -4.49834 -4.65036 0
M  V30 2662 N 260.146 1.09593 -1.13257 0
M  V30 2663 C 261.374 1.855 -0.916378 0
M  V30 2664 C 261.789 1.81069 0.534738 0
M  V30 2665 O 261.146 1.20562 1.37007 0
M  V30 2666 C 261.197 3.33546 -1.39388 0
M  V30 2667 O 260.918 3.37927 -2.78813 0
M  V30 2668 C 262.419 4.26299 -1.21588 0
M  V30 2669 H 259.639 0.585991 -0.326887 0
M  V30 2670 H 262.183 1.38488 -1.5047 0
M  V30 2671 H 260.338 3.77992 -0.848597 0
M  V30 2672 H 260.752 4.30254 -2.9997 0
M  V30 2673 H 262.226 5.28341 -1.59876 0
M  V30 2674 H 262.703 4.38918 -0.157376 0
M  V30 2675 H 263.309 3.87668 -1.7491 0
M  V30 2676 N 261.624 0.925811 1.2754 0
M  V30 2677 C 262.873 0.561084 1.93739 0
M  V30 2678 C 263.186 -0.901685 1.73577 0
M  V30 2679 O 264.392 -1.37511 2.34101 0
M  V30 2680 C 262.848 0.952668 3.47062 0
M  V30 2681 C 262.456 2.43599 3.75983 0
M  V30 2682 C 264.2 0.659103 4.19352 0
M  V30 2683 C 262.107 2.76707 5.22673 0
M  V30 2684 H 261.037 0.206122 0.725279 0
M  V30 2685 H 263.688 1.12637 1.44863 0
M  V30 2686 H 262.07 0.316053 3.94737 0
M  V30 2687 H 263.244 3.12035 3.39073 0
M  V30 2688 H 261.559 2.70125 3.16893 0
M  V30 2689 H 264.156 0.882985 5.27359 0
M  V30 2690 H 264.499 -0.403607 4.14339 0
M  V30 2691 H 265.032 1.25473 3.77494 0
M  V30 2692 H 261.771 3.8188 5.32774 0
M  V30 2693 H 261.291 2.12919 5.60737 0
M  V30 2694 H 262.97 2.6435 5.90532 0
M  V30 2695 N 263.102 -1.41638 0.69111 0
M  V30 2696 C 264.379 -1.95036 0.148421 0
M  V30 2697 C 264.759 -1.63072 -1.34055 0
M  V30 2698 O 264.107 -0.93538 -2.08478 0
M  V30 2699 C 264.317 -3.46279 0.434951 0
M  V30 2700 C 265.665 -4.23069 0.360275 0
M  V30 2701 O 266.689 -3.54277 0.369613 0
M  V30 2702 O 265.548 -5.45583 0.316534 0
M  V30 2703 H 262.642 -0.826908 0.0123654 0
M  V30 2704 H 265.188 -1.5138 0.766963 0
M  V30 2705 H 263.96 -3.6281 1.46576 0
M  V30 2706 H 263.583 -3.97019 -0.214787 0
M  V30 2707 N 264.58 -0.43555 -1.51462 0
M  V30 2708 C 265.528 0.391205 -2.29287 0
M  V30 2709 C 266.522 1.02247 -1.35062 0
M  V30 2710 O 267.728 0.957646 -1.52411 0
M  V30 2711 H 264.103 0.144968 -0.737895 0
M  V30 2712 H 266.074 -0.286051 -2.97026 0
M  V30 2713 C 264.823 1.48096 -3.14583 0
M  V30 2714 H 264.146 1.00457 -3.86973 0
M  V30 2715 H 265.586 2.03273 -3.72097 0
M  V30 2716 C 264.045 2.46321 -2.29843 0
M  V30 2717 O 264.575 3.50815 -1.95682 0
M  V30 2718 N 262.781 2.17166 -1.931 0
M  V30 2719 H 262.328 1.32218 -2.21079 0
M  V30 2720 H 262.286 2.83127 -1.36698 0
M  V30 2721 N 266.058 1.56714 -0.166846 0
M  V30 2722 C 267.021 2.16539 0.751232 0
M  V30 2723 C 268.021 1.11228 1.16125 0
M  V30 2724 O 269.211 1.36765 1.07894 0
M  V30 2725 C 266.343 2.74462 2.02196 0
M  V30 2726 H 267.536 2.99013 0.230499 0
M  V30 2727 H 265.089 1.56081 0.0826982 0
M  V30 2728 H 265.824 1.95709 2.58589 0
M  V30 2729 H 265.609 3.51527 1.73698 0
M  V30 2730 H 267.099 3.20489 2.67725 0
M  V30 2731 N 267.536 -0.106894 1.57237 0
M  V30 2732 C 268.499 -1.11466 2.0027 0
M  V30 2733 C 269.499 -1.33623 0.894519 0
M  V30 2734 O 270.689 -1.29935 1.16028 0
M  V30 2735 C 267.821 -2.46646 2.35327 0
M  V30 2736 H 269.014 -0.744516 2.90512 0
M  V30 2737 H 266.567 -0.351576 1.52295 0
M  V30 2738 H 267.302 -2.88558 1.48003 0
M  V30 2739 H 267.087 -2.31915 3.16161 0
M  V30 2740 H 268.577 -3.19151 2.69318 0
M  V30 2741 N 269.014 -1.53014 -0.377408 0
M  V30 2742 C 270.425 -1.60438 -0.954798 0
M  V30 2743 C 270.776 -0.464418 -1.90624 0
M  V30 2744 O 269.901 0.41087 -2.12464 0
M  V30 2745 C 270.496 -2.90797 -1.73847 0
M  V30 2746 C 269.055 -3.00595 -2.26538 0
M  V30 2747 C 268.202 -2.55645 -1.07429 0
M  V30 2748 H 271.153 -1.57926 -0.156575 0
M  V30 2749 H 271.174 -2.77935 -2.5987 0
M  V30 2750 H 270.686 -3.73746 -1.04574 0
M  V30 2751 H 268.787 -2.22208 -2.99089 0
M  V30 2752 H 268.9 -4.05456 -2.5523 0
M  V30 2753 H 267.264 -2.10239 -1.43777 0
M  V30 2754 H 268.047 -3.41 -0.396728 0
M  V30 2755 N 270.492 0.636531 -1.44174 0
M  V30 2756 C 271.738 1.39826 -1.4689 0
M  V30 2757 C 272.071 1.93947 -0.0990585 0
M  V30 2758 O 271.346 1.73325 0.882544 0
M  V30 2759 C 271.629 2.56751 -2.5249 0
M  V30 2760 C 271.482 2.08014 -3.98811 0
M  V30 2761 C 272.801 3.58946 -2.54649 0
M  V30 2762 H 269.92 0.507075 -0.53483 0
M  V30 2763 H 272.562 0.720188 -1.75822 0
M  V30 2764 H 270.712 3.14597 -2.2795 0
M  V30 2765 H 272.384 1.5504 -4.34466 0
M  V30 2766 H 270.627 1.39242 -4.10846 0
M  V30 2767 H 271.298 2.92169 -4.68339 0
M  V30 2768 H 273.774 3.1089 -2.76563 0
M  V30 2769 H 272.65 4.38286 -3.3045 0
M  V30 2770 H 272.911 4.12655 -1.58646 0
M  V30 2771 N 271.97 1.30982 0.876444 0
M  V30 2772 C 273.219 1.19658 1.62373 0
M  V30 2773 C 273.532 -0.245636 1.94052 0
M  V30 2774 O 274.738 -0.48049 2.67214 0
M  V30 2775 C 273.194 2.09433 2.92687 0
M  V30 2776 C 272.802 3.58613 2.68516 0
M  V30 2777 C 274.546 2.06893 3.70669 0
M  V30 2778 C 272.453 4.40416 3.94699 0
M  V30 2779 H 271.383 0.444268 0.609214 0
M  V30 2780 H 274.034 1.55791 0.969605 0
M  V30 2781 H 272.416 1.66191 3.59439 0
M  V30 2782 H 273.59 4.10058 2.10212 0
M  V30 2783 H 271.905 3.63063 2.03898 0
M  V30 2784 H 274.502 2.65258 4.64265 0
M  V30 2785 H 274.845 1.05448 4.02724 0
M  V30 2786 H 275.378 2.48301 3.10792 0
M  V30 2787 H 272.117 5.42591 3.67798 0
M  V30 2788 H 271.637 3.93731 4.52477 0
M  V30 2789 H 273.316 4.52294 4.62644 0
M  V30 2790 N 273.449 -1.08991 1.13837 0
M  V30 2791 C 274.381 -2.15606 0.777612 0
M  V30 2792 C 275.394 -1.61533 -0.202739 0
M  V30 2793 O 276.583 -1.78491 0.0181055 0
M  V30 2794 C 273.683 -3.3864 0.132623 0
M  V30 2795 C 272.856 -4.22115 1.1462 0
M  V30 2796 C 271.915 -5.23564 0.526074 0
M  V30 2797 O 270.941 -5.56678 1.18735 0
M  V30 2798 N 272.143 -5.76266 -0.699866 0
M  V30 2799 H 274.908 -2.47159 1.69506 0
M  V30 2800 H 272.469 -1.24747 1.03198 0
M  V30 2801 H 274.461 -4.03626 -0.29459 0
M  V30 2802 H 273.031 -3.04938 -0.687849 0
M  V30 2803 H 272.251 -3.53199 1.75055 0
M  V30 2804 H 273.539 -4.74709 1.83109 0
M  V30 2805 H 272.937 -5.51585 -1.25581 0
M  V30 2806 H 271.494 -6.42963 -1.06968 0
M  V30 2807 N 274.927 -0.932562 -1.27047 0
M  V30 2808 C 275.89 -0.440064 -2.24936 0
M  V30 2809 C 276.89 0.444071 -1.54547 0
M  V30 2810 O 278.08 0.244465 -1.72476 0
M  V30 2811 C 275.212 0.36678 -3.38921 0
M  V30 2812 H 276.405 -1.305 -2.70018 0
M  V30 2813 H 273.958 -0.713707 -1.39054 0
M  V30 2814 H 274.693 1.25033 -2.99228 0
M  V30 2815 H 274.478 -0.267204 -3.91188 0
M  V30 2816 H 275.968 0.701567 -4.11665 0
M  V30 2817 N 276.405 1.4127 -0.698611 0
M  V30 2818 C 277.653 2.00782 -0.230409 0
M  V30 2819 C 277.974 1.5562 1.17505 0
M  V30 2820 O 277.244 0.78815 1.79346 0
M  V30 2821 H 275.824 0.742464 -0.0821944 0
M  V30 2822 H 278.486 1.72852 -0.90045 0
M  V30 2823 H 277.582 3.11095 -0.25021 0
M  V30 2824 N 277.883 0.443576 1.51229 0
M  V30 2825 C 278.846 -0.353132 2.26463 0
M  V30 2826 C 279.846 -0.944338 1.3015 0
M  V30 2827 O 281.036 -0.817813 1.5381 0
M  V30 2828 C 278.168 -1.50023 3.06114 0
M  V30 2829 H 279.361 0.3063 2.98332 0
M  V30 2830 H 276.914 0.196902 1.55055 0
M  V30 2831 H 277.649 -2.19553 2.38677 0
M  V30 2832 H 277.434 -1.08241 3.76864 0
M  V30 2833 H 278.924 -2.06296 3.63087 0
M  V30 2834 N 279.361 -1.56624 0.175154 0
M  V30 2835 C 280.638 -1.88688 -0.515373 0
M  V30 2836 C 281.018 -1.08564 -1.81044 0
M  V30 2837 O 280.366 -0.180703 -2.27784 0
M  V30 2838 C 280.576 -3.40768 -0.753552 0
M  V30 2839 C 281.924 -4.10587 -1.08184 0
M  V30 2840 O 282.948 -3.46106 -0.841961 0
M  V30 2841 O 281.807 -5.24512 -1.53459 0
M  V30 2842 H 278.901 -0.78301 -0.26613 0
M  V30 2843 H 281.447 -1.68347 0.213877 0
M  V30 2844 H 280.219 -3.90965 0.161829 0
M  V30 2845 H 279.842 -3.66733 -1.53598 0
M  V30 2846 N 280.839 0.0985539 -1.57292 0
M  V30 2847 C 282.087 0.801092 -1.85545 0
M  V30 2848 C 282.408 1.79438 -0.763353 0
M  V30 2849 O 281.678 1.94763 0.21073 0
M  V30 2850 H 280.258 0.29884 -0.684619 0
M  V30 2851 H 282.92 0.0810064 -1.94732 0
M  V30 2852 H 282.016 1.3338 -2.82163 0
M  V30 2853 N 282.317 1.53212 0.369288 0
M  V30 2854 C 283.563 1.69466 1.11397 0
M  V30 2855 C 283.896 0.443257 1.89074 0
M  V30 2856 O 283.171 -0.559386 1.86282 0
M  V30 2857 C 283.454 2.9422 2.07621 0
M  V30 2858 C 283.307 4.29508 1.33577 0
M  V30 2859 C 284.626 3.14565 3.07794 0
M  V30 2860 H 281.745 0.616667 0.403597 0
M  V30 2861 H 284.387 1.85845 0.395179 0
M  V30 2862 H 282.537 2.80387 2.68916 0
M  V30 2863 H 284.209 4.55147 0.750955 0
M  V30 2864 H 282.452 4.29088 0.637618 0
M  V30 2865 H 283.123 5.12926 2.03989 0
M  V30 2866 H 285.599 3.2756 2.56601 0
M  V30 2867 H 284.475 4.03297 3.72348 0
M  V30 2868 H 284.736 2.29675 3.77759 0
M  V30 2869 N 283.795 -0.628877 1.44509 0
M  V30 2870 C 285.02 -1.42048 1.5112 0
M  V30 2871 C 285.445 -1.87594 0.137818 0
M  V30 2872 O 284.803 -1.58873 -0.873437 0
M  V30 2873 C 284.851 -2.61541 2.48251 0
M  V30 2874 O 283.955 -3.61453 1.98559 0
M  V30 2875 H 283.296 -0.424942 0.510216 0
M  V30 2876 H 285.826 -0.767374 1.89664 0
M  V30 2877 H 285.836 -3.09057 2.66361 0
M  V30 2878 H 284.511 -2.27736 3.48007 0
M  V30 2879 H 283.088 -3.20731 1.90227 0
M  V30 2880 N 285.273 -1.31445 -0.869486 0
M  V30 2881 C 286.206 -1.13465 -1.97992 0
M  V30 2882 C 287.184 -0.0380291 -1.62556 0
M  V30 2883 O 288.368 -0.194544 -1.87493 0
M  V30 2884 C 285.495 -0.733822 -3.30655 0
M  V30 2885 C 284.541 -1.83356 -3.85075 0
M  V30 2886 S 285.374 -3.43909 -4.10472 0
M  V30 2887 C 286.53 -3.05763 -5.46132 0
M  V30 2888 H 286.763 -2.07471 -2.1294 0
M  V30 2889 H 284.296 -1.15936 -1.01972 0
M  V30 2890 H 286.254 -0.509306 -4.07328 0
M  V30 2891 H 284.915 0.187123 -3.13542 0
M  V30 2892 H 284.108 -1.50574 -4.80982 0
M  V30 2893 H 283.71 -2.01315 -3.15195 0
M  V30 2894 H 286.002 -2.54686 -6.27807 0
M  V30 2895 H 286.945 -4.00635 -5.83864 0
M  V30 2896 H 287.353 -2.43192 -5.09429 0
M  V30 2897 N 286.751 1.08385 -1.14413 0
M  V30 2898 C 288 1.80153 -0.907076 0
M  V30 2899 C 288.313 1.87176 0.567851 0
M  V30 2900 O 289.519 2.55359 0.922172 0
M  V30 2901 C 287.975 3.23687 -1.57336 0
M  V30 2902 C 287.583 3.24897 -3.08457 0
M  V30 2903 C 289.327 4.00136 -1.41744 0
M  V30 2904 C 287.234 4.6302 -3.67921 0
M  V30 2905 H 286.164 0.675139 -0.335714 0
M  V30 2906 H 288.815 1.21733 -1.37307 0
M  V30 2907 H 287.197 3.82234 -1.03505 0
M  V30 2908 H 288.371 2.76055 -3.68958 0
M  V30 2909 H 286.686 2.61943 -3.2369 0
M  V30 2910 H 289.283 5.02201 -1.83572 0
M  V30 2911 H 289.626 4.14709 -0.363576 0
M  V30 2912 H 290.159 3.48058 -1.92614 0
M  V30 2913 H 286.898 4.5365 -4.73161 0
M  V30 2914 H 286.418 5.12143 -3.12201 0
M  V30 2915 H 288.097 5.31994 -3.68227 0
M  V30 2916 N 288.23 0.939286 1.26551 0
M  V30 2917 C 289.455 0.602008 1.98471 0
M  V30 2918 C 289.88 -0.815624 1.69497 0
M  V30 2919 O 289.238 -1.54912 0.941905 0
M  V30 2920 C 289.286 0.848407 3.50477 0
M  V30 2921 O 288.39 -0.0804009 4.12322 0
M  V30 2922 H 287.731 0.23049 0.622712 0
M  V30 2923 H 290.261 1.2617 1.61066 0
M  V30 2924 H 290.271 0.768553 4.00696 0
M  V30 2925 H 288.946 1.88171 3.70897 0
M  V30 2926 H 287.523 0.0503508 3.72866 0
M  V30 2927 N 289.708 -1.40897 0.706093 0
M  V30 2928 C 290.671 -2.29131 0.0562841 0
M  V30 2929 C 291.671 -1.44901 -0.697166 0
M  V30 2930 O 292.861 -1.65926 -0.530484 0
M  V30 2931 C 289.993 -3.27957 -0.93043 0
M  V30 2932 H 291.186 -2.88091 0.833284 0
M  V30 2933 H 288.739 -1.4906 0.470192 0
M  V30 2934 H 289.474 -2.73997 -1.73482 0
M  V30 2935 H 289.259 -3.90124 -0.393166 0
M  V30 2936 H 290.749 -3.94049 -1.38256 0
M  V30 2937 N 291.186 -0.45159 -1.50991 0
M  V30 2938 C 292.435 0.111653 -2.01391 0
M  V30 2939 C 292.748 1.42529 -1.33959 0
M  V30 2940 O 293.954 2.07232 -1.75405 0
M  V30 2941 C 292.41 0.249514 -3.59034 0
M  V30 2942 C 292.018 -1.05453 -4.35412 0
M  V30 2943 C 293.762 0.765762 -4.17536 0
M  V30 2944 C 291.669 -0.881529 -5.84793 0
M  V30 2945 H 290.599 0.0455022 -0.752626 0
M  V30 2946 H 293.25 -0.583524 -1.73975 0
M  V30 2947 H 291.632 1.00803 -3.82955 0
M  V30 2948 H 292.806 -1.82248 -4.23229 0
M  V30 2949 H 291.121 -1.50039 -3.88429 0
M  V30 2950 H 293.718 0.911913 -5.26866 0
M  V30 2951 H 294.061 1.75201 -3.77638 0
M  V30 2952 H 294.594 0.0651744 -3.97747 0
M  V30 2953 H 291.333 -1.84057 -6.29129 0
M  V30 2954 H 290.853 -0.153625 -5.99603 0
M  V30 2955 H 292.532 -0.540363 -6.4474 0
M  V30 2956 N 292.664 1.56529 -0.183458 0
M  V30 2957 C 293.889 2.02064 0.467428 0
M  V30 2958 C 294.314 1.06282 1.55196 0
M  V30 2959 O 293.672 0.0443565 1.81246 0
M  V30 2960 C 293.72 3.46122 1.01153 0
M  V30 2961 O 292.824 3.53437 2.12499 0
M  V30 2962 H 292.165 0.654726 0.110588 0
M  V30 2963 H 294.695 2.02521 -0.290917 0
M  V30 2964 H 294.705 3.85676 1.33108 0
M  V30 2965 H 293.38 4.15331 0.217533 0
M  V30 2966 H 291.957 3.2575 1.81497 0
M  V30 2967 N 294.142 -0.090211 1.57342 0
M  V30 2968 C 295.074 -1.13541 1.99101 0
M  V30 2969 C 296.087 -1.3604 0.894258 0
M  V30 2970 O 297.276 -1.34606 1.17233 0
M  V30 2971 C 294.376 -2.49001 2.29895 0
M  V30 2972 C 293.549 -2.46712 3.61182 0
M  V30 2973 C 292.608 -3.64136 3.79857 0
M  V30 2974 O 291.634 -3.46405 4.51655 0
M  V30 2975 N 292.836 -4.83802 3.20806 0
M  V30 2976 H 295.601 -0.779942 2.89373 0
M  V30 2977 H 293.162 -0.279125 1.59476 0
M  V30 2978 H 295.154 -3.26166 2.39578 0
M  V30 2979 H 293.724 -2.76619 1.45605 0
M  V30 2980 H 292.944 -1.55058 3.62423 0
M  V30 2981 H 294.232 -2.42265 4.4742 0
M  V30 2982 H 293.63 -5.01112 2.62494 0
M  V30 2983 H 292.187 -5.58543 3.35966 0
M  V30 2984 N 295.62 -1.53406 -0.361157 0
M  V30 2985 C 296.583 -1.79479 -1.42548 0
M  V30 2986 C 297.583 -0.665327 -1.4639 0
M  V30 2987 O 298.773 -0.933549 -1.47073 0
M  V30 2988 C 295.905 -1.92087 -2.8163 0
M  V30 2989 H 297.098 -2.74538 -1.20701 0
M  V30 2990 H 294.651 -1.4455 -0.594546 0
M  V30 2991 H 295.386 -0.991099 -3.08784 0
M  V30 2992 H 295.171 -2.74241 -2.80239 0
M  V30 2993 H 296.661 -2.13836 -3.58697 0
M  V30 2994 N 297.098 0.621204 -1.44841 0
M  V30 2995 C 298.008 1.7612 -1.5498 0
M  V30 2996 C 299.024 1.68477 -0.434927 0
M  V30 2997 O 300.2 1.89076 -0.693693 0
M  V30 2998 C 297.265 3.1254 -1.50065 0
M  V30 2999 C 296.326 3.31741 -2.72482 0
M  V30 3000 C 295.559 4.61653 -2.67792 0
M  V30 3001 O 295.782 5.431 -1.74352 0
M  V30 3002 O 294.716 4.83271 -3.58794 0
M  V30 3003 H 298.542 1.70518 -2.51311 0
M  V30 3004 H 296.127 0.783643 -1.27198 0
M  V30 3005 H 298.009 3.93844 -1.49882 0
M  V30 3006 H 296.684 3.18663 -0.568806 0
M  V30 3007 H 295.591 2.50077 -2.7823 0
M  V30 3008 H 296.924 3.30486 -3.64746 0
M  V30 3009 N 298.576 1.31904 0.862503 0
M  V30 3010 C 299.853 1.12644 1.59908 0
M  V30 3011 C 300.233 -0.316104 2.0872 0
M  V30 3012 O 299.581 -1.31145 1.87118 0
M  V30 3013 C 299.791 2.1472 2.7513 0
M  V30 3014 C 301.139 2.47637 3.44907 0
M  V30 3015 O 302.163 2.13205 2.85346 0
M  V30 3016 O 301.022 3.06632 4.52371 0
M  V30 3017 H 298.116 0.43416 0.703871 0
M  V30 3018 H 300.662 1.43408 0.907314 0
M  V30 3019 H 299.434 3.1172 2.3653 0
M  V30 3020 H 299.057 1.84905 3.51989 0
M  V30 3021 N 300.054 -1.07777 1.14986 0
M  V30 3022 C 301.465 -1.61766 0.932127 0
M  V30 3023 C 301.816 -1.88974 -0.527581 0
M  V30 3024 O 300.941 -1.65198 -1.39781 0
M  V30 3025 C 301.536 -2.93891 1.68563 0
M  V30 3026 C 300.095 -3.44639 1.5133 0
M  V30 3027 C 299.242 -2.18767 1.704 0
M  V30 3028 H 302.193 -0.909201 1.30074 0
M  V30 3029 H 302.214 -3.62623 1.15259 0
M  V30 3030 H 301.726 -2.74057 2.74799 0
M  V30 3031 H 299.827 -3.69564 0.474702 0
M  V30 3032 H 299.94 -4.20966 2.28746 0
M  V30 3033 H 298.304 -2.28253 1.13016 0
M  V30 3034 H 299.087 -2.01433 2.77992 0
M  V30 3035 N 301.532 -0.945985 -1.26051 0
M  V30 3036 C 302.442 -0.465633 -2.29933 0
M  V30 3037 C 303.458 0.462761 -1.67733 0
M  V30 3038 O 304.634 0.341118 -1.9849 0
M  V30 3039 C 301.699 0.256994 -3.45746 0
M  V30 3040 C 300.76 -0.708549 -4.23412 0
M  V30 3041 C 299.993 -0.0203135 -5.33696 0
M  V30 3042 O 300.216 1.19571 -5.57726 0
M  V30 3043 O 299.15 -0.701459 -5.97799 0
M  V30 3044 H 302.976 -1.32866 -2.73094 0
M  V30 3045 H 300.561 -0.712071 -1.31339 0
M  V30 3046 H 302.443 0.663852 -4.16138 0
M  V30 3047 H 301.118 1.09533 -3.04605 0
M  V30 3048 H 300.025 -1.16545 -3.55483 0
M  V30 3049 H 301.358 -1.51465 -4.68315 0
M  V30 3050 N 303.011 1.40521 -0.713556 0
M  V30 3051 C 304.236 2.05759 -0.26035 0
M  V30 3052 C 304.661 1.53403 1.08854 0
M  V30 3053 O 304.019 0.668535 1.68524 0
M  V30 3054 C 304.067 3.59745 -0.248122 0
M  V30 3055 O 303.171 4.05123 0.77131 0
M  V30 3056 H 302.512 0.652564 -0.122703 0
M  V30 3057 H 305.042 1.79958 -0.973467 0
M  V30 3058 H 305.052 4.07911 -0.0851129 0
M  V30 3059 H 303.727 3.97218 -1.2325 0
M  V30 3060 H 302.304 3.68422 0.57619 0
M  V30 3061 N 304.489 0.459591 1.5075 0
M  V30 3062 C 305.452 -0.329093 2.26825 0
M  V30 3063 C 306.452 -0.930481 1.31144 0
M  V30 3064 O 307.642 -0.801453 1.54669 0
M  V30 3065 C 304.774 -1.46768 3.07688 0
M  V30 3066 H 305.967 0.337924 2.9799 0
M  V30 3067 H 303.52 0.213336 1.54837 0
M  V30 3068 H 304.255 -2.17009 2.40993 0
M  V30 3069 H 304.04 -1.04238 3.77991 0
M  V30 3070 H 305.53 -2.02433 3.65254 0
M  V30 3071 N 305.967 -1.56429 0.191757 0
M  V30 3072 C 306.93 -2.17707 -0.716688 0
M  V30 3073 C 307.93 -1.13061 -1.14341 0
M  V30 3074 O 309.12 -1.38464 -1.05704 0
M  V30 3075 C 306.252 -2.77644 -1.97804 0
M  V30 3076 H 307.445 -2.99342 -0.1829 0
M  V30 3077 H 304.998 -1.56193 -0.0578566 0
M  V30 3078 H 305.733 -1.99799 -2.55443 0
M  V30 3079 H 305.518 -3.54246 -1.68083 0
M  V30 3080 H 307.008 -3.24708 -2.62592 0
M  V30 3081 N 307.445 0.0818655 -1.57387 0
M  V30 3082 C 308.861 0.436412 -1.53517 0
M  V30 3083 C 309.061 1.79758 -0.910459 0
M  V30 3084 O 308.117 2.47324 -0.508636 0
M  V30 3085 C 309.43 0.386734 -2.98203 0
M  V30 3086 C 310.978 0.467644 -3.09487 0
M  V30 3087 C 311.453 0.447978 -4.55804 0
M  V30 3088 N 312.944 0.508348 -4.60402 0
M  V30 3089 C 313.679 0.515184 -5.71081 0
M  V30 3090 N 313.175 0.477435 -6.91153 0
M  V30 3091 N 314.968 0.560988 -5.59294 0
M  V30 3092 H 307.119 -0.809546 -1.96367 0
M  V30 3093 H 309.382 -0.302733 -0.898363 0
M  V30 3094 H 309.088 -0.546539 -3.47427 0
M  V30 3095 H 308.962 1.20075 -3.57578 0
M  V30 3096 H 311.349 1.39134 -2.60242 0
M  V30 3097 H 311.43 -0.374753 -2.5304 0
M  V30 3098 H 311.074 -0.471826 -5.05704 0
M  V30 3099 H 311.004 1.30777 -5.10103 0
M  V30 3100 H 313.495 0.54218 -3.7399 0
M  V30 3101 H 313.808 0.486299 -7.71268 0
M  V30 3102 H 312.153 0.444278 -6.93579 0
M  V30 3103 H 315.344 0.5881 -4.64391 0
M  V30 3104 H 315.517 0.562846 -6.45551 0
M  V30 3105 N 308.923 1.53595 0.353017 0
M  V30 3106 C 309.87 1.80919 1.43308 0
M  V30 3107 C 310.84 0.654288 1.5267 0
M  V30 3108 O 312.025 0.897759 1.6836 0
M  V30 3109 C 309.165 2.01605 2.80089 0
M  V30 3110 C 308.278 3.29321 2.79593 0
M  V30 3111 C 307.413 3.40125 4.0803 0
M  V30 3112 C 306.452 4.61826 4.01725 0
M  V30 3113 N 305.589 4.69716 5.21834 0
M  V30 3114 H 310.429 2.73074 1.19308 0
M  V30 3115 H 307.966 1.35263 0.578131 0
M  V30 3116 H 309.924 2.11586 3.59565 0
M  V30 3117 H 308.554 1.12772 3.0246 0
M  V30 3118 H 307.606 3.28229 1.92276 0
M  V30 3119 H 308.918 4.18884 2.70809 0
M  V30 3120 H 308.072 3.49488 4.95927 0
M  V30 3121 H 306.811 2.48601 4.19582 0
M  V30 3122 H 305.816 4.52552 3.12213 0
M  V30 3123 H 307.041 5.54705 3.91764 0
M  V30 3124 H 304.987 3.81097 5.33948 0
M  V30 3125 H 304.904 5.53202 5.1527 0
M  V30 3126 H 306.172 4.83376 6.11529 0
M  V30 3127 N 310.401 -0.613514 1.45168 0
M  V30 3128 C 311.648 -1.37268 1.48875 0
M  V30 3129 C 311.976 -1.94077 0.128161 0
M  V30 3130 O 311.231 -1.75178 -0.872416 0
M  V30 3131 C 311.53 -2.54347 2.51083 0
M  V30 3132 C 311.196 -2.1572 3.95949 0
M  V30 3133 C 309.858 -2.04899 4.35396 0
M  V30 3134 C 312.21 -1.85485 4.87078 0
M  V30 3135 C 309.538 -1.62057 5.63875 0
M  V30 3136 C 311.89 -1.4413 6.15962 0
M  V30 3137 C 310.554 -1.31863 6.54346 0
M  V30 3138 H 309.824 -0.502299 0.544773 0
M  V30 3139 H 312.471 -0.694021 1.78481 0
M  V30 3140 H 310.776 -3.27524 2.15024 0
M  V30 3141 H 312.473 -3.12577 2.51191 0
M  V30 3142 H 309.063 -2.25066 3.64751 0
M  V30 3143 H 313.247 -1.92745 4.57343 0
M  V30 3144 H 308.503 -1.51177 5.92415 0
M  V30 3145 H 312.677 -1.19778 6.86022 0
M  V30 3146 H 310.304 -0.984392 7.538 0
M  V30 3147 N 311.879 -1.3236 -0.855495 0
M  V30 3148 C 313.295 -1.11332 -1.14356 0
M  V30 3149 C 313.495 0.106751 -2.01217 0
M  V30 3150 O 312.551 0.791891 -2.39761 0
M  V30 3151 C 313.864 -2.39237 -1.82171 0
M  V30 3152 C 315.412 -2.44986 -1.9481 0
M  V30 3153 C 315.887 -3.7281 -2.66039 0
M  V30 3154 N 317.378 -3.73787 -2.73565 0
M  V30 3155 C 318.113 -4.69394 -3.29327 0
M  V30 3156 N 317.609 -5.75367 -3.85907 0
M  V30 3157 N 319.402 -4.56893 -3.27423 0
M  V30 3158 H 311.553 -2.10586 -0.277027 0
M  V30 3159 H 313.816 -0.929701 -0.185364 0
M  V30 3160 H 313.522 -3.28431 -1.25802 0
M  V30 3161 H 313.396 -2.50134 -2.82335 0
M  V30 3162 H 315.783 -1.56252 -2.50338 0
M  V30 3163 H 315.864 -2.38043 -0.936448 0
M  V30 3164 H 315.508 -4.61918 -2.11174 0
M  V30 3165 H 315.438 -3.77024 -3.67642 0
M  V30 3166 H 317.929 -2.97189 -2.33424 0
M  V30 3167 H 318.242 -6.44378 -4.26611 0
M  V30 3168 H 316.587 -5.79123 -3.84242 0
M  V30 3169 H 319.778 -3.73269 -2.82467 0
M  V30 3170 H 319.951 -5.31577 -3.7058 0
M  V30 3171 N 313.357 1.07166 -1.15556 0
M  V30 3172 C 314.267 2.17947 -0.868116 0
M  V30 3173 C 315.283 1.73297 0.156297 0
M  V30 3174 O 316.459 2.01392 -0.0182327 0
M  V30 3175 C 313.524 3.44789 -0.36355 0
M  V30 3176 C 312.585 4.03996 -1.45209 0
M  V30 3177 C 311.818 5.24783 -0.971508 0
M  V30 3178 O 312.041 5.70109 0.182194 0
M  V30 3179 O 310.975 5.75715 -1.75603 0
M  V30 3180 H 314.801 2.4503 -1.79427 0
M  V30 3181 H 312.386 1.16539 -0.934824 0
M  V30 3182 H 314.268 4.21307 -0.0887113 0
M  V30 3183 H 312.943 3.19253 0.534708 0
M  V30 3184 H 311.85 3.29009 -1.78056 0
M  V30 3185 H 313.183 4.33808 -2.32533 0
M  V30 3186 N 314.835 0.952656 1.25548 0
M  V30 3187 C 315.745 0.47782 2.29682 0
M  V30 3188 C 316.761 -0.453859 1.67977 0
M  V30 3189 O 317.937 -0.330587 1.98668 0
M  V30 3190 C 315.002 -0.238655 3.45878 0
M  V30 3191 C 314.063 0.730994 4.23031 0
M  V30 3192 C 313.296 0.0486165 5.33678 0
M  V30 3193 O 313.519 -1.16612 5.58353 0
M  V30 3194 O 312.453 0.733152 5.97418 0
M  V30 3195 H 316.279 1.34312 2.72386 0
M  V30 3196 H 313.864 0.719026 1.30959 0
M  V30 3197 H 315.746 -0.641774 4.16484 0
M  V30 3198 H 314.421 -1.07916 3.05181 0
M  V30 3199 H 313.328 1.18428 3.5486 0
M  V30 3200 H 314.661 1.53946 4.67506 0
M  V30 3201 N 316.313 -1.40141 0.720998 0
M  V30 3202 C 317.562 -2.0002 0.259804 0
M  V30 3203 C 317.875 -1.57839 -1.15526 0
M  V30 3204 O 319.081 -2.10455 -1.71525 0
M  V30 3205 C 317.537 -3.57516 0.413566 0
M  V30 3206 C 317.145 -4.08667 1.83562 0
M  V30 3207 C 318.889 -4.24498 0.0134387 0
M  V30 3208 C 316.796 -5.58686 1.93968 0
M  V30 3209 H 315.726 -0.748195 0.0933806 0
M  V30 3210 H 318.377 -1.60313 0.892866 0
M  V30 3211 H 316.759 -3.9495 -0.288169 0
M  V30 3212 H 317.933 -3.82598 2.56817 0
M  V30 3213 H 316.248 -3.543 2.1877 0
M  V30 3214 H 318.845 -5.34654 0.0703954 0
M  V30 3215 H 319.188 -4.03375 -1.02927 0
M  V30 3216 H 319.721 -3.92188 0.665815 0
M  V30 3217 H 316.46 -5.8467 2.96379 0
M  V30 3218 H 315.98 -5.86602 1.25131 0
M  V30 3219 H 317.659 -6.23875 1.71431 0
M  V30 3220 N 317.792 -0.46758 -1.50504 0
M  V30 3221 C 318.724 0.364655 -2.26281 0
M  V30 3222 C 319.737 0.960151 -1.31472 0
M  V30 3223 O 320.926 0.849153 -1.57008 0
M  V30 3224 C 318.026 1.52509 -3.02645 0
M  V30 3225 C 317.199 1.04302 -4.24782 0
M  V30 3226 C 316.258 2.07709 -4.8347 0
M  V30 3227 O 315.284 1.65913 -5.44483 0
M  V30 3228 N 316.486 3.40485 -4.70159 0
M  V30 3229 H 319.251 -0.28495 -2.98342 0
M  V30 3230 H 316.812 -0.298163 -1.59131 0
M  V30 3231 H 318.804 2.21371 -3.38787 0
M  V30 3232 H 317.374 2.07945 -2.33404 0
M  V30 3233 H 316.594 0.180393 -3.93787 0
M  V30 3234 H 317.882 0.698798 -5.03978 0
M  V30 3235 H 317.28 3.77155 -4.21629 0
M  V30 3236 H 315.837 4.05156 -5.1058 0
M  V30 3237 N 319.27 1.56325 -0.20005 0
M  V30 3238 C 320.498 2.02105 0.442874 0
M  V30 3239 C 320.913 1.08014 1.5485 0
M  V30 3240 O 320.27 0.0858797 1.82298 0
M  V30 3241 C 320.321 3.47549 0.994583 0
M  V30 3242 O 320.042 4.38049 -0.0669322 0
M  V30 3243 C 321.543 4.0887 1.7129 0
M  V30 3244 H 318.763 0.661807 0.110691 0
M  V30 3245 H 321.307 2.02134 -0.310207 0
M  V30 3246 H 319.462 3.48204 1.69803 0
M  V30 3247 H 319.876 5.23368 0.344462 0
M  V30 3248 H 321.35 5.12475 2.05118 0
M  V30 3249 H 321.827 3.52615 2.61838 0
M  V30 3250 H 322.433 4.12002 1.05518 0
M  V30 3251 N 320.748 -0.0735177 1.57428 0
M  V30 3252 C 321.978 -0.78483 1.91112 0
M  V30 3253 C 322.386 -1.71729 0.7941 0
M  V30 3254 O 321.729 -1.82105 -0.241542 0
M  V30 3255 C 321.791 -1.63346 3.20247 0
M  V30 3256 C 321.455 -0.870557 4.48632 0
M  V30 3257 C 322.452 -0.19058 5.19551 0
M  V30 3258 C 320.137 -0.838242 4.95256 0
M  V30 3259 C 322.131 0.511503 6.35344 0
M  V30 3260 C 319.818 -0.132386 6.10957 0
M  V30 3261 C 320.816 0.541288 6.80852 0
M  V30 3262 O 320.504 1.23578 7.94345 0
M  V30 3263 H 320.236 -0.228408 0.636244 0
M  V30 3264 H 322.79 -0.0486039 2.05342 0
M  V30 3265 H 321.02 -2.41245 3.02222 0
M  V30 3266 H 322.709 -2.22329 3.39595 0
M  V30 3267 H 323.475 -0.206864 4.84559 0
M  V30 3268 H 319.354 -1.35206 4.40727 0
M  V30 3269 H 322.898 1.03789 6.89836 0
M  V30 3270 H 318.795 -0.114023 6.45399 0
M  V30 3271 H 319.563 1.14487 8.10454 0
M  V30 3272 N 322.226 -1.5378 -0.344866 0
M  V30 3273 C 323.173 -1.81676 -1.42346 0
M  V30 3274 C 324.143 -0.662376 -1.52321 0
M  V30 3275 O 325.328 -0.906675 -1.67881 0
M  V30 3276 C 322.468 -2.03087 -2.79015 0
M  V30 3277 C 321.581 -3.30799 -2.77842 0
M  V30 3278 C 320.716 -3.42285 -4.0622 0
M  V30 3279 C 319.755 -4.6395 -3.9927 0
M  V30 3280 N 318.892 -4.72477 -5.19336 0
M  V30 3281 H 323.732 -2.73703 -1.17858 0
M  V30 3282 H 321.269 -1.35568 -0.570949 0
M  V30 3283 H 323.227 -2.1349 -3.58438 0
M  V30 3284 H 321.857 -1.14375 -3.01858 0
M  V30 3285 H 320.909 -3.29244 -1.90533 0
M  V30 3286 H 322.221 -4.20314 -2.68584 0
M  V30 3287 H 321.375 -3.52113 -4.94066 0
M  V30 3288 H 320.114 -2.50823 -4.18258 0
M  V30 3289 H 319.119 -4.54201 -3.09809 0
M  V30 3290 H 320.344 -5.56775 -3.88817 0
M  V30 3291 H 318.29 -3.83924 -5.3192 0
M  V30 3292 H 318.207 -5.55927 -5.12329 0
M  V30 3293 H 319.475 -4.86613 -6.08957 0
M  V30 3294 N 323.704 0.605807 -1.45491 0
M  V30 3295 C 324.932 1.39136 -1.5313 0
M  V30 3296 C 325.347 1.88082 -0.164507 0
M  V30 3297 O 324.704 1.62316 0.834247 0
M  V30 3298 C 324.755 2.59463 -2.51716 0
M  V30 3299 O 324.476 2.12551 -3.83084 0
M  V30 3300 C 325.977 3.52301 -2.6907 0
M  V30 3301 H 323.197 0.425849 -0.51855 0
M  V30 3302 H 325.741 0.73865 -1.90694 0
M  V30 3303 H 323.896 3.20772 -2.17219 0
M  V30 3304 H 324.31 2.90744 -4.36541 0
M  V30 3305 H 325.784 4.33271 -3.42024 0
M  V30 3306 H 326.261 4.02757 -1.75167 0
M  V30 3307 H 326.867 2.96845 -3.04571 0
M  V30 3308 N 325.182 1.32811 0.848464 0
M  V30 3309 C 326.43 1.23479 1.59991 0
M  V30 3310 C 326.751 -0.201853 1.93952 0
M  V30 3311 O 326.021 -1.12818 1.60153 0
M  V30 3312 H 324.601 0.454034 0.593179 0
M  V30 3313 H 327.263 1.66412 1.01455 0
M  V30 3314 H 326.359 1.82178 2.53412 0
M  V30 3315 N 326.66 -1.06551 1.16123 0
M  V30 3316 C 328.076 -1.3142 0.905585 0
M  V30 3317 C 328.276 -1.96571 -0.442964 0
M  V30 3318 O 327.332 -2.23068 -1.18308 0
M  V30 3319 C 328.645 -2.19741 2.05267 0
M  V30 3320 C 330.193 -2.33165 2.08813 0
M  V30 3321 C 330.668 -3.24838 3.22868 0
M  V30 3322 N 332.159 -3.32421 3.22568 0
M  V30 3323 C 332.894 -4.0344 4.0746 0
M  V30 3324 N 332.39 -4.77003 5.02434 0
M  V30 3325 N 334.183 -3.99464 3.95456 0
M  V30 3326 H 326.334 -0.626548 2.02949 0
M  V30 3327 H 328.597 -0.338777 0.8854 0
M  V30 3328 H 328.303 -1.79142 3.02657 0
M  V30 3329 H 328.177 -3.20313 1.99198 0
M  V30 3330 H 330.564 -2.73013 1.12018 0
M  V30 3331 H 330.645 -1.3227 2.18948 0
M  V30 3332 H 330.289 -2.85708 4.19921 0
M  V30 3333 H 330.219 -4.25707 3.0997 0
M  V30 3334 H 332.71 -2.79994 2.53795 0
M  V30 3335 H 333.023 -5.28712 5.63634 0
M  V30 3336 H 331.368 -4.75992 5.06415 0
M  V30 3337 H 334.559 -3.4111 3.20564 0
M  V30 3338 H 334.732 -4.54544 4.61837 0
M  V30 3339 O 328.177 -1.08916 -1.19246 0
M  V30 3340 H 328.868 -0.783022 -1.77168 0
M  V30 END ATOM
M  V30 BEGIN BOND
M  V30 END BOND
M  V30 END CTAB
M  END
$$$$
