drugbank_target|Q45515 D-hydantoinase (DB03801)
 OpenBabel12092119583D

  0  0  0     0  0            999 V3000
M  V30 BEGIN CTAB
M  V30 COUNTS 7262 7337 0 0 0
M  V30 BEGIN ATOM
M  V30 1 H -0.908 1.98254 -0.117106 0
M  V30 2 N 0 1.576 0 0
M  V30 3 C 0.933 2.03868 1.02534 0
M  V30 4 C 1.911 0.928543 1.3348 0
M  V30 5 O 3.095 1.19667 1.45644 0
M  V30 6 C 0.222 2.43627 2.35294 0
M  V30 7 C -0.732 3.65373 2.2001 0
M  V30 8 S 0.101 5.13292 1.52614 0
M  V30 9 C 1.257 5.56322 2.86805 0
M  V30 10 H 1.49 2.90518 0.631377 0
M  V30 11 H -0.977 1.52953 0.210867 0
M  V30 12 H 0.981 2.67203 3.11629 0
M  V30 13 H -0.358 1.57376 2.7183 0
M  V30 14 H -1.165 3.90944 3.18086 0
M  V30 15 H -1.563 3.418 1.51819 0
M  V30 16 H 0.729 5.58782 3.83104 0
M  V30 17 H 1.672 6.56266 2.65933 0
M  V30 18 H 2.08 4.83886 2.90714 0
M  V30 19 N 1.4781 -0.272755 1.55222 0
M  V30 20 C 2.7061 -1.02255 1.79865 0
M  V30 21 C 3.1211 -1.79924 0.572088 0
M  V30 22 O 2.4781 -1.76638 -0.458842 0
M  V30 23 C 2.5291 -1.98094 3.02392 0
M  V30 24 O 2.2501 -1.23572 4.20311 0
M  V30 25 C 3.7511 -2.84884 3.39641 0
M  V30 26 H 0.9711 -0.302057 0.599168 0
M  V30 27 H 3.5151 -0.303465 2.02236 0
M  V30 28 H 1.6701 -2.65465 2.82147 0
M  V30 29 H 2.0841 -1.88172 4.89583 0
M  V30 30 H 3.5581 -3.47927 4.28545 0
M  V30 31 H 4.0351 -3.54665 2.59055 0
M  V30 32 H 4.6411 -2.23003 3.62146 0
M  V30 33 N 2.9562 -1.48159 -0.537278 0
M  V30 34 C 3.9032 -1.62138 -1.64256 0
M  V30 35 C 4.8732 -0.463668 -1.59497 0
M  V30 36 O 6.0582 -0.686241 -1.78032 0
M  V30 37 C 3.1982 -1.66028 -3.02537 0
M  V30 38 C 2.3112 -2.92855 -3.17585 0
M  V30 39 C 1.4462 -2.87952 -4.46382 0
M  V30 40 C 0.4852 -4.09516 -4.54932 0
M  V30 41 N -0.3778 -4.02733 -5.75109 0
M  V30 42 H 4.4622 -2.56529 -1.51647 0
M  V30 43 H 1.9992 -1.27224 -0.738414 0
M  V30 44 H 3.9572 -1.66265 -3.82638 0
M  V30 45 H 2.5872 -0.751331 -3.13934 0
M  V30 46 H 1.6392 -3.02395 -2.30784 0
M  V30 47 H 2.9512 -3.82822 -3.19764 0
M  V30 48 H 2.1052 -2.8655 -5.34765 0
M  V30 49 H 0.8442 -1.95702 -4.46712 0
M  V30 50 H -0.1508 -4.11201 -3.64957 0
M  V30 51 H 1.0742 -5.02917 -4.56346 0
M  V30 52 H -0.9798 -3.13299 -5.76351 0
M  V30 53 H -1.0628 -4.86397 -5.78752 0
M  V30 54 H 0.2052 -4.05379 -6.65799 0
M  V30 55 N 4.4343 0.785586 -1.36625 0
M  V30 56 C 5.3643 1.91259 -1.33949 0
M  V30 57 C 6.3453 1.68795 -0.210325 0
M  V30 58 O 7.5303 1.89854 -0.408561 0
M  V30 59 C 4.6603 3.28339 -1.13186 0
M  V30 60 C 3.6143 3.65335 -2.22967 0
M  V30 61 C 2.9403 5.00806 -1.87342 0
M  V30 62 C 4.2403 3.7352 -3.65075 0
M  V30 63 H 5.9343 1.93755 -2.28253 0
M  V30 64 H 3.4803 0.930788 -1.09874 0
M  V30 65 H 5.4333 4.06804 -1.09948 0
M  V30 66 H 4.1573 3.2624 -0.153332 0
M  V30 67 H 2.8163 2.89169 -2.25337 0
M  V30 68 H 2.4643 4.95233 -0.880545 0
M  V30 69 H 2.1643 5.26529 -2.60846 0
M  V30 70 H 3.6883 5.81687 -1.85667 0
M  V30 71 H 5.1023 4.42168 -3.64911 0
M  V30 72 H 3.4993 4.10731 -4.37516 0
M  V30 73 H 4.5693 2.74527 -3.99703 0
M  V30 74 N 5.9124 1.20967 1.01018 0
M  V30 75 C 7.1614 1.01796 1.74128 0
M  V30 76 C 7.4744 -0.449691 1.90361 0
M  V30 77 O 8.6804 -0.76068 2.60626 0
M  V30 78 C 7.1364 1.7727 3.13215 0
M  V30 79 C 6.7444 3.28171 3.04972 0
M  V30 80 C 8.4884 1.66489 3.90489 0
M  V30 81 C 6.3954 3.96156 4.39107 0
M  V30 82 H 5.3254 0.377276 0.652824 0
M  V30 83 H 7.9764 1.44651 1.12909 0
M  V30 84 H 6.3584 1.27205 3.75013 0
M  V30 85 H 7.5324 3.85499 2.52443 0
M  V30 86 H 5.8474 3.39437 2.41188 0
M  V30 87 H 8.4444 2.14617 4.89738 0
M  V30 88 H 8.7874 0.6222 4.11624 0
M  V30 89 H 9.3204 2.14003 3.35332 0
M  V30 90 H 6.0594 5.00604 4.23174 0
M  V30 91 H 5.5794 3.43617 4.91617 0
M  V30 92 H 7.2584 4.00774 5.07926 0
M  V30 93 N 7.3905 -1.2043 1.01659 0
M  V30 94 C 8.3375 -2.23215 0.586822 0
M  V30 95 C 9.3075 -1.61382 -0.393085 0
M  V30 96 O 10.4925 -1.88544 -0.292525 0
M  V30 97 C 7.6325 -3.45032 -0.0687464 0
M  V30 98 C 6.7455 -4.21296 0.955724 0
M  V30 99 C 5.8805 -5.30507 0.271208 0
M  V30 100 C 4.9195 -5.98515 1.28244 0
M  V30 101 N 4.0565 -6.99316 0.62459 0
M  V30 102 H 8.8965 -2.59336 1.46796 0
M  V30 103 H 6.4335 -1.27431 0.734836 0
M  V30 104 H 8.3915 -4.1459 -0.465965 0
M  V30 105 H 7.0215 -3.09604 -0.913529 0
M  V30 106 H 6.0735 -3.50803 1.4711 0
M  V30 107 H 7.3855 -4.6803 1.72479 0
M  V30 108 H 6.5395 -6.06428 -0.18151 0
M  V30 109 H 5.2785 -4.8481 -0.530163 0
M  V30 110 H 4.2835 -5.21355 1.74554 0
M  V30 111 H 5.5085 -6.46298 2.08509 0
M  V30 112 H 3.4545 -6.55812 -0.156914 0
M  V30 113 H 3.3715 -7.44178 1.33172 0
M  V30 114 H 4.6395 -7.79255 0.195462 0
M  V30 115 N 8.8686 -0.792821 -1.36206 0
M  V30 116 C 9.8166 -0.181555 -2.3189 0
M  V30 117 C 10.8106 0.661025 -1.55971 0
M  V30 118 O 12.0166 0.555728 -1.71206 0
M  V30 119 H 8.3916 -0.0399382 -0.750939 0
M  V30 120 H 10.3626 -1.00394 -2.81005 0
M  V30 121 C 9.1116 0.666444 -3.41253 0
M  V30 122 H 8.4346 0.0274489 -3.99791 0
M  V30 123 H 9.8746 1.06076 -4.10517 0
M  V30 124 C 8.3336 1.82614 -2.83114 0
M  V30 125 O 8.8636 2.9229 -2.75553 0
M  V30 126 N 7.0696 1.63333 -2.40356 0
M  V30 127 H 6.6166 0.741217 -2.46706 0
M  V30 128 H 6.5746 2.41087 -2.01803 0
M  V30 129 N 10.3467 1.47872 -0.545128 0
M  V30 130 C 11.5947 2.02093 -0.016553 0
M  V30 131 C 11.9157 1.42305 1.3332 0
M  V30 132 O 11.1857 0.593853 1.86682 0
M  V30 133 H 9.7657 0.746993 -0.00313038 0
M  V30 134 H 12.4277 1.81414 -0.712397 0
M  V30 135 H 11.5237 3.11996 0.0805422 0
M  V30 136 N 11.8248 0.280983 1.55075 0
M  V30 137 C 13.0528 -0.337293 2.04132 0
M  V30 138 C 13.4678 -1.4903 1.15912 0
M  V30 139 O 12.8248 -1.81606 0.180459 0
M  V30 140 C 12.8758 -0.812706 3.52246 0
M  V30 141 O 12.5968 0.294387 4.3711 0
M  V30 142 C 14.0978 -1.4982 4.17216 0
M  V30 143 H 11.3178 -0.0761638 0.666663 0
M  V30 144 H 13.8618 0.414787 2.00249 0
M  V30 145 H 12.0168 -1.51486 3.56554 0
M  V30 146 H 12.4308 -0.0721325 5.2445 0
M  V30 147 H 13.9048 -1.7822 5.22438 0
M  V30 148 H 14.3818 -2.43168 3.65741 0
M  V30 149 H 14.9878 -0.839742 4.16927 0
M  V30 150 N 13.3029 -1.57598 0.00835791 0
M  V30 151 C 14.5519 -1.90107 -0.673968 0
M  V30 152 C 14.8649 -0.884275 -1.7447 0
M  V30 153 O 16.0709 -1.09987 -2.48224 0
M  V30 154 C 14.5269 -3.37497 -1.24995 0
M  V30 155 C 14.1349 -4.47491 -0.2136 0
M  V30 156 C 15.8789 -3.79104 -1.90999 0
M  V30 157 C 13.7859 -5.85963 -0.80005 0
M  V30 158 H 12.7159 -0.709393 -0.255495 0
M  V30 159 H 15.3669 -1.83365 0.0702693 0
M  V30 160 H 13.7489 -3.39102 -2.04513 0
M  V30 161 H 14.9229 -4.57414 0.557596 0
M  V30 162 H 13.2379 -4.14956 0.346474 0
M  V30 163 H 15.8349 -4.79901 -2.35795 0
M  V30 164 H 16.1779 -3.1306 -2.74407 0
M  V30 165 H 16.7109 -3.79833 -1.18203 0
M  V30 166 H 13.4499 -6.555 -0.00456708 0
M  V30 167 H 12.9699 -5.79687 -1.54021 0
M  V30 168 H 14.6489 -6.33884 -1.29615 0
M  V30 169 N 14.781 0.264519 -1.55364 0
M  V30 170 C 16.027 0.99646 -1.76631 0
M  V30 171 C 16.36 1.85632 -0.570478 0
M  V30 172 O 15.635 1.89647 0.43175 0
M  V30 173 C 15.918 1.87187 -3.07625 0
M  V30 174 C 15.771 1.04138 -4.37579 0
M  V30 175 C 17.09 2.85749 -3.34717 0
M  V30 176 H 14.209 0.360841 -0.642622 0
M  V30 177 H 16.851 0.268218 -1.88097 0
M  V30 178 H 15.001 2.49279 -2.9798 0
M  V30 179 H 16.673 0.440517 -4.59192 0
M  V30 180 H 14.916 0.345115 -4.32425 0
M  V30 181 H 15.587 1.68729 -5.2558 0
M  V30 182 H 18.063 2.33793 -3.4421 0
M  V30 183 H 16.939 3.44136 -4.27623 0
M  V30 184 H 17.2 3.61311 -2.54768 0
M  V30 185 N 16.2591 1.48442 0.529413 0
M  V30 186 C 17.4871 1.60151 1.30994 0
M  V30 187 C 17.9021 0.261985 1.86973 0
M  V30 188 O 17.2591 -0.748805 1.66431 0
M  V30 189 C 17.3101 2.64854 2.46038 0
M  V30 190 O 17.0311 3.93608 1.92365 0
M  V30 191 C 18.5321 2.87007 3.37849 0
M  V30 192 H 15.7521 0.539971 0.398338 0
M  V30 193 H 18.2961 1.94273 0.638597 0
M  V30 194 H 16.4511 2.33589 3.09055 0
M  V30 195 H 16.8651 4.51055 2.67675 0
M  V30 196 H 18.3391 3.64068 4.14919 0
M  V30 197 H 18.8161 1.95852 3.93114 0
M  V30 198 H 19.4221 3.19579 2.80623 0
M  V30 199 N 17.7372 -0.778329 1.37039 0
M  V30 200 C 18.7002 -1.87301 1.32102 0
M  V30 201 C 19.7002 -1.59198 0.226405 0
M  V30 202 O 20.8902 -1.67403 0.481861 0
M  V30 203 C 18.0222 -3.24309 1.05055 0
M  V30 204 H 19.2152 -1.93093 2.29467 0
M  V30 205 H 16.7682 -0.977358 1.21973 0
M  V30 206 H 17.5032 -3.24196 0.0819373 0
M  V30 207 H 17.2882 -3.46098 1.84279 0
M  V30 208 H 18.7782 -4.04382 1.04234 0
M  V30 209 N 19.2153 -1.21501 -1.00376 0
M  V30 210 C 20.4433 -1.059 -1.77744 0
M  V30 211 C 20.8583 0.391125 -1.84704 0
M  V30 212 O 20.2153 1.27133 -1.30933 0
M  V30 213 C 20.2663 -1.65111 -3.21591 0
M  V30 214 O 19.9873 -3.0445 -3.15027 0
M  V30 215 C 21.4883 -1.54637 -4.15454 0
M  V30 216 H 18.7083 -0.371825 -0.558558 0
M  V30 217 H 21.2523 -1.60865 -1.26264 0
M  V30 218 H 19.4073 -1.14235 -3.70175 0
M  V30 219 H 19.8213 -3.3278 -4.0541 0
M  V30 220 H 21.2953 -2.00808 -5.14179 0
M  V30 221 H 21.7723 -0.501022 -4.36333 0
M  V30 222 H 22.3783 -2.04767 -3.72761 0
M  V30 223 N 20.6934 1.19889 -1.02296 0
M  V30 224 C 21.9704 1.85148 -0.630832 0
M  V30 225 C 22.3504 1.91385 0.890782 0
M  V30 226 O 21.6984 1.42642 1.78509 0
M  V30 227 C 21.9084 3.24442 -1.28602 0
M  V30 228 C 23.2564 4.00663 -1.4055 0
M  V30 229 O 24.2804 3.33818 -1.24273 0
M  V30 230 O 23.1394 5.20387 -1.66913 0
M  V30 231 H 20.2334 0.797613 -0.218499 0
M  V30 232 H 22.7794 1.27427 -1.12074 0
M  V30 233 H 21.5514 3.14704 -2.32545 0
M  V30 234 H 21.1744 3.89802 -0.7836 0
M  V30 235 N 22.1715 0.800033 1.35784 0
M  V30 236 C 23.4205 0.37387 1.98205 0
M  V30 237 C 23.7335 -1.06302 1.64193 0
M  V30 238 O 24.9395 -1.59198 2.19928 0
M  V30 239 C 23.3955 0.617532 3.54562 0
M  V30 240 C 23.0035 2.06654 3.9749 0
M  V30 241 C 24.7475 0.256401 4.23725 0
M  V30 242 C 22.6545 2.2563 5.46667 0
M  V30 243 H 21.5845 0.136055 0.741623 0
M  V30 244 H 24.2355 0.983166 1.54939 0
M  V30 245 H 22.6175 -0.0616248 3.95952 0
M  V30 246 H 23.7915 2.78296 3.67271 0
M  V30 247 H 22.1065 2.38691 3.41197 0
M  V30 248 H 24.7035 0.376318 5.33374 0
M  V30 249 H 25.0465 -0.796692 4.08606 0
M  V30 250 H 25.5795 0.889214 3.87734 0
M  V30 251 H 22.3185 3.2936 5.66747 0
M  V30 252 H 21.8385 1.58504 5.78478 0
M  V30 253 H 23.5175 2.06861 6.1304 0
M  V30 254 N 23.6496 -1.47581 0.552962 0
M  V30 255 C 24.8796 -2.06575 0.0320091 0
M  V30 256 C 25.2876 -1.4067 -1.26525 0
M  V30 257 O 24.6306 -0.495808 -1.76883 0
M  V30 258 C 24.6926 -3.58705 -0.238913 0
M  V30 259 C 24.3566 -4.46625 0.968272 0
M  V30 260 C 25.3536 -4.85 1.87274 0
M  V30 261 C 23.0386 -4.88201 1.18175 0
M  V30 262 C 25.0326 -5.63745 2.9744 0
M  V30 263 C 22.7196 -5.66712 2.28651 0
M  V30 264 C 23.7176 -6.04394 3.18114 0
M  V30 265 O 23.4056 -6.81324 4.26676 0
M  V30 266 H 23.1376 -0.674763 0.0408689 0
M  V30 267 H 25.6916 -1.90634 0.764719 0
M  V30 268 H 23.9216 -3.72844 -1.02588 0
M  V30 269 H 25.6106 -3.99735 -0.704731 0
M  V30 270 H 26.3766 -4.53482 1.71984 0
M  V30 271 H 22.2556 -4.58339 0.494593 0
M  V30 272 H 25.7996 -5.93077 3.67296 0
M  V30 273 H 21.6966 -5.97642 2.43915 0
M  V30 274 H 22.4646 -6.99712 4.24671 0
M  V30 275 N 25.1277 -0.289203 -1.54924 0
M  V30 276 C 26.0377 0.601863 -2.26748 0
M  V30 277 C 27.0537 1.15834 -1.2984 0
M  V30 278 O 28.2297 1.18564 -1.62802 0
M  V30 279 C 25.2947 1.76299 -2.98529 0
M  V30 280 C 24.3557 1.24178 -4.10948 0
M  V30 281 C 23.5887 2.34757 -4.79296 0
M  V30 282 O 23.8117 3.54411 -4.46933 0
M  V30 283 O 22.7457 2.02115 -5.66951 0
M  V30 284 H 26.5717 0.0195879 -3.03694 0
M  V30 285 H 24.1567 -0.0560868 -1.49295 0
M  V30 286 H 26.0387 2.43973 -3.43592 0
M  V30 287 H 24.7137 2.33209 -2.24488 0
M  V30 288 H 23.6207 0.531104 -3.70311 0
M  V30 289 H 24.9537 0.718252 -4.86931 0
M  V30 290 N 26.6058 1.57591 -0.0167156 0
M  V30 291 C 27.5688 2.08393 0.954204 0
M  V30 292 C 28.5688 0.996531 1.26198 0
M  V30 293 O 29.7588 1.25858 1.20438 0
M  V30 294 C 26.8908 2.5394 2.27436 0
M  V30 295 H 28.0838 2.95455 0.514451 0
M  V30 296 H 25.6368 1.54582 0.231089 0
M  V30 297 H 26.3718 1.70171 2.76066 0
M  V30 298 H 26.1568 3.33371 2.06412 0
M  V30 299 H 27.6468 2.93512 2.97053 0
M  V30 300 N 28.0839 -0.256276 1.55502 0
M  V30 301 C 29.3609 -1.00789 1.67633 0
M  V30 302 C 29.7409 -2.03706 0.553826 0
M  V30 303 O 29.0889 -2.24145 -0.443969 0
M  V30 304 C 29.2989 -1.64968 3.07549 0
M  V30 305 C 30.6469 -2.15505 3.65845 0
M  V30 306 O 31.6709 -1.74925 3.1029 0
M  V30 307 O 30.5299 -2.89986 4.63217 0
M  V30 308 H 27.6239 -0.468553 0.681459 0
M  V30 309 H 30.1699 -0.250806 1.67836 0
M  V30 310 H 28.9419 -0.904785 3.80696 0
M  V30 311 H 28.5649 -2.47321 3.11317 0
M  V30 312 N 29.562 -1.4872 -0.521534 0
M  V30 313 C 30.492 -1.66771 -1.63431 0
M  V30 314 C 31.473 -0.516499 -1.62069 0
M  V30 315 O 32.658 -0.750013 -1.79132 0
M  V30 316 C 29.788 -1.71515 -3.01993 0
M  V30 317 C 28.742 -2.86222 -3.18216 0
M  V30 318 C 28.068 -2.76061 -4.57924 0
M  V30 319 C 29.368 -4.27419 -3.00184 0
M  V30 320 H 31.062 -2.59932 -1.48579 0
M  V30 321 H 28.608 -1.25089 -0.713358 0
M  V30 322 H 30.561 -1.82731 -3.7972 0
M  V30 323 H 29.285 -0.749393 -3.17886 0
M  V30 324 H 27.944 -2.74575 -2.42908 0
M  V30 325 H 27.592 -1.77437 -4.70665 0
M  V30 326 H 27.292 -3.53037 -4.69722 0
M  V30 327 H 28.816 -2.89256 -5.37739 0
M  V30 328 H 30.23 -4.39855 -3.67697 0
M  V30 329 H 28.627 -5.05458 -3.2347 0
M  V30 330 H 29.697 -4.43293 -1.96518 0
M  V30 331 N 31.0401 0.771051 -1.3745 0
M  V30 332 C 31.9701 1.89827 -1.3597 0
M  V30 333 C 32.9511 1.68562 -0.228216 0
M  V30 334 O 34.1361 1.8941 -0.428675 0
M  V30 335 C 31.2661 3.2712 -1.16662 0
M  V30 336 C 30.2201 3.6295 -2.2683 0
M  V30 337 C 29.5461 4.98791 -1.92644 0
M  V30 338 C 30.8461 3.69627 -3.69017 0
M  V30 339 H 32.5401 1.91323 -2.30295 0
M  V30 340 H 30.0861 0.919082 -1.10855 0
M  V30 341 H 32.0391 4.05615 -1.14256 0
M  V30 342 H 30.7631 3.26059 -0.187926 0
M  V30 343 H 29.4221 2.86763 -2.28392 0
M  V30 344 H 29.0701 4.94271 -0.933021 0
M  V30 345 H 28.7701 5.23733 -2.66416 0
M  V30 346 H 30.2941 5.79685 -1.91826 0
M  V30 347 H 31.7081 4.38273 -3.69581 0
M  V30 348 H 30.1051 4.06067 -4.41848 0
M  V30 349 H 31.1751 2.70273 -4.02592 0
M  V30 350 N 32.5182 1.22032 0.997298 0
M  V30 351 C 33.7672 1.03637 1.73038 0
M  V30 352 C 34.0802 -0.429475 1.90827 0
M  V30 353 O 35.2862 -0.732995 2.61418 0
M  V30 354 C 33.7422 1.80582 3.11317 0
M  V30 355 C 33.3502 3.31387 3.01474 0
M  V30 356 C 35.0942 1.70621 3.88701 0
M  V30 357 C 33.0012 4.00791 4.3488 0
M  V30 358 H 31.9312 0.384179 0.648785 0
M  V30 359 H 34.5822 1.4584 1.11368 0
M  V30 360 H 32.9642 1.31175 3.73643 0
M  V30 361 H 34.1382 3.88155 2.4834 0
M  V30 362 H 32.4532 3.41976 2.37575 0
M  V30 363 H 35.0502 2.19799 4.87434 0
M  V30 364 H 35.3932 0.665823 4.10941 0
M  V30 365 H 35.9262 2.17547 3.33044 0
M  V30 366 H 32.6652 5.05064 4.1784 0
M  V30 367 H 32.1852 3.48811 4.87945 0
M  V30 368 H 33.8642 4.06139 5.03647 0
M  V30 369 N 33.9963 -1.19345 1.0293 0
M  V30 370 C 34.9283 -2.22036 0.56857 0
M  V30 371 C 35.9413 -1.58865 -0.355779 0
M  V30 372 O 37.1303 -1.77851 -0.152103 0
M  V30 373 C 34.2303 -3.38363 -0.190752 0
M  V30 374 C 33.4033 -4.31118 0.738643 0
M  V30 375 C 32.4623 -5.26194 0.0246497 0
M  V30 376 O 31.4883 -5.65461 0.651354 0
M  V30 377 N 32.6903 -5.66971 -1.24594 0
M  V30 378 H 35.4553 -2.6219 1.45177 0
M  V30 379 H 33.0163 -1.34015 0.908381 0
M  V30 380 H 35.0083 -3.98981 -0.677961 0
M  V30 381 H 33.5783 -2.96994 -0.975366 0
M  V30 382 H 32.7983 -3.68276 1.40593 0
M  V30 383 H 34.0863 -4.90001 1.37029 0
M  V30 384 H 33.4843 -5.37104 -1.77583 0
M  V30 385 H 32.0413 -6.2984 -1.67764 0
M  V30 386 N 35.4744 -0.807222 -1.35358 0
M  V30 387 C 36.7514 -0.311126 -1.9311 0
M  V30 388 C 37.1314 1.19937 -1.73719 0
M  V30 389 O 36.4794 1.99918 -1.10657 0
M  V30 390 C 36.6894 -0.723226 -3.41424 0
M  V30 391 C 38.0374 -0.713078 -4.18569 0
M  V30 392 O 39.0614 -0.664811 -3.49941 0
M  V30 393 O 37.9204 -0.772022 -5.41019 0
M  V30 394 H 35.0144 -0.081526 -0.822972 0
M  V30 395 H 37.5604 -0.890962 -1.4443 0
M  V30 396 H 36.3324 -1.76426 -3.4927 0
M  V30 397 H 35.9554 -0.118232 -3.97424 0
M  V30 398 N 36.9525 1.47285 -0.560781 0
M  V30 399 C 38.2005 2.02064 -0.0379868 0
M  V30 400 C 38.5215 1.43711 1.31803 0
M  V30 401 O 37.7915 0.61362 1.86042 0
M  V30 402 H 36.3715 0.746918 -0.0110531 0
M  V30 403 H 39.0335 1.80648 -0.731598 0
M  V30 404 H 38.1295 3.12064 0.0474463 0
M  V30 405 N 38.4306 0.297415 1.54768 0
M  V30 406 C 39.3776 -0.580276 2.23386 0
M  V30 407 C 40.3476 -1.13238 1.21517 0
M  V30 408 O 41.5326 -1.17757 1.50126 0
M  V30 409 C 38.6726 -1.74801 2.97555 0
M  V30 410 C 37.7856 -1.22764 4.1419 0
M  V30 411 C 36.9206 -2.35895 4.75949 0
M  V30 412 C 35.9596 -1.80974 5.84735 0
M  V30 413 N 35.0966 -2.87664 6.40464 0
M  V30 414 H 39.9366 0.0114833 2.97998 0
M  V30 415 H 37.4736 0.0174361 1.4709 0
M  V30 416 H 39.4316 -2.43475 3.38786 0
M  V30 417 H 38.0616 -2.31145 2.25326 0
M  V30 418 H 37.1136 -0.433271 3.77924 0
M  V30 419 H 38.4256 -0.785551 4.92575 0
M  V30 420 H 37.5796 -3.12523 5.20014 0
M  V30 421 H 36.3186 -2.83429 3.96887 0
M  V30 422 H 35.3236 -1.02834 5.40097 0
M  V30 423 H 36.5486 -1.34348 6.65678 0
M  V30 424 H 34.4946 -3.34538 5.64287 0
M  V30 425 H 34.4116 -2.4794 7.14186 0
M  V30 426 H 35.6796 -3.642 6.89187 0
M  V30 427 N 39.9087 -1.5758 0.0250728 0
M  V30 428 C 41.1577 -1.90811 -0.653767 0
M  V30 429 C 41.4707 -0.90273 -1.73523 0
M  V30 430 O 42.6767 -1.12614 -2.47043 0
M  V30 431 C 41.1327 -3.38804 -1.21409 0
M  V30 432 C 40.7407 -4.47692 -0.166126 0
M  V30 433 C 42.4847 -3.81108 -1.86967 0
M  V30 434 C 40.3917 -5.86779 -0.737856 0
M  V30 435 H 39.3217 -0.712063 -0.247956 0
M  V30 436 H 41.9727 -1.83281 0.0897137 0
M  V30 437 H 40.3547 -3.41252 -2.00905 0
M  V30 438 H 41.5287 -4.56797 0.606079 0
M  V30 439 H 39.8437 -4.14565 0.390466 0
M  V30 440 H 42.4407 -4.82375 -2.30692 0
M  V30 441 H 42.7837 -3.15953 -2.71071 0
M  V30 442 H 43.3167 -3.81065 -1.14167 0
M  V30 443 H 40.0557 -6.55468 0.0649577 0
M  V30 444 H 39.5757 -5.81288 -1.47864 0
M  V30 445 H 41.2547 -6.35223 -1.22884 0
M  V30 446 N 41.3868 0.248026 -1.55636 0
M  V30 447 C 42.3498 1.29044 -1.89421 0
M  V30 448 C 43.3498 1.41134 -0.770581 0
M  V30 449 O 44.5398 1.39854 -1.03858 0
M  V30 450 C 41.6718 2.66831 -2.12165 0
M  V30 451 H 42.8648 1.00305 -2.82629 0
M  V30 452 H 40.4178 0.487265 -1.48511 0
M  V30 453 H 41.1528 3.00711 -1.21422 0
M  V30 454 H 40.9378 2.59438 -2.93997 0
M  V30 455 H 42.4278 3.42103 -2.3949 0
M  V30 456 N 42.8649 1.48995 0.513639 0
M  V30 457 C 44.1109 1.58076 1.27042 0
M  V30 458 C 44.4439 0.261026 1.92438 0
M  V30 459 O 43.7189 -0.734393 1.80103 0
M  V30 460 C 44.0019 2.73091 2.34719 0
M  V30 461 C 43.8549 4.14821 1.73907 0
M  V30 462 C 45.1739 2.83796 3.36375 0
M  V30 463 H 42.2929 0.575391 0.460536 0
M  V30 464 H 44.9349 1.81232 0.570516 0
M  V30 465 H 43.0849 2.53479 2.94416 0
M  V30 466 H 44.7569 4.45917 1.18135 0
M  V30 467 H 42.9999 4.21058 1.0437 0
M  V30 468 H 43.6709 4.91147 2.51949 0
M  V30 469 H 46.1469 3.01611 2.86653 0
M  V30 470 H 45.0229 3.65971 4.09093 0
M  V30 471 H 45.2839 1.92624 3.9793 0
M  V30 472 N 44.343 -0.763751 1.37857 0
M  V30 473 C 45.592 -1.51789 1.32827 0
M  V30 474 C 45.905 -1.95426 -0.0823719 0
M  V30 475 O 47.111 -2.70298 -0.255172 0
M  V30 476 C 45.567 -2.74133 2.33193 0
M  V30 477 C 45.175 -2.37562 3.79827 0
M  V30 478 C 46.919 -3.52054 2.37188 0
M  V30 479 C 44.826 -3.56456 4.71904 0
M  V30 480 H 43.756 -0.569896 0.493695 0
M  V30 481 H 46.407 -0.835822 1.63359 0
M  V30 482 H 44.789 -3.4427 1.9569 0
M  V30 483 H 45.963 -1.75157 4.26212 0
M  V30 484 H 44.278 -1.72798 3.78853 0
M  V30 485 H 46.875 -4.40437 3.03182 0
M  V30 486 H 47.218 -3.92486 1.38782 0
M  V30 487 H 47.751 -2.88921 2.7344 0
M  V30 488 H 44.49 -3.21099 5.71468 0
M  V30 489 H 44.01 -4.17938 4.30218 0
M  V30 490 H 45.689 -4.23168 4.89426 0
M  V30 491 N 45.8211 -1.22559 -0.990812 0
M  V30 492 C 47.0691 -1.04933 -1.72724 0
M  V30 493 C 47.3901 0.416158 -1.90508 0
M  V30 494 O 46.6601 1.29918 -1.46622 0
M  V30 495 H 45.2401 -0.385296 -0.639965 0
M  V30 496 H 47.9021 -1.54105 -1.19322 0
M  V30 497 H 46.9981 -1.52886 -2.72089 0
M  V30 498 N 47.2992 1.18797 -1.03562 0
M  V30 499 C 48.7152 1.40671 -0.753917 0
M  V30 500 C 48.9152 1.9043 0.658686 0
M  V30 501 O 47.9712 2.08538 1.42366 0
M  V30 502 C 49.2842 2.41192 -1.79574 0
M  V30 503 C 50.8322 2.54928 -1.81606 0
M  V30 504 C 51.3072 3.58709 -2.84766 0
M  V30 505 N 52.7982 3.66212 -2.83625 0
M  V30 506 C 53.5332 4.46225 -3.60098 0
M  V30 507 N 53.0292 5.29888 -4.46308 0
M  V30 508 N 54.8222 4.40939 -3.4861 0
M  V30 509 H 46.9732 0.848221 -1.94728 0
M  V30 510 H 49.2362 0.435081 -0.842264 0
M  V30 511 H 48.9422 2.11669 -2.80872 0
M  V30 512 H 48.8162 3.40467 -1.62365 0
M  V30 513 H 51.2032 2.83771 -0.809817 0
M  V30 514 H 51.2842 1.55784 -2.02891 0
M  V30 515 H 50.9282 3.30607 -3.85566 0
M  V30 516 H 50.8582 4.57519 -2.60737 0
M  V30 517 H 53.3492 3.06466 -2.21105 0
M  V30 518 H 53.6622 5.88078 -5.01382 0
M  V30 519 H 52.0072 5.29326 -4.50377 0
M  V30 520 H 55.1982 3.74624 -2.80668 0
M  V30 521 H 55.3712 5.03056 -4.08459 0
M  V30 522 N 48.7773 0.814389 1.34928 0
M  V30 523 C 49.7253 0.218424 2.31572 0
M  V30 524 C 50.7193 -0.636128 1.57002 0
M  V30 525 O 51.9253 -0.52842 1.72069 0
M  V30 526 H 48.3003 0.0518799 0.750208 0
M  V30 527 H 50.2713 1.04852 2.79372 0
M  V30 528 C 49.0203 -0.61207 3.4227 0
M  V30 529 H 48.3433 0.0361578 3.99784 0
M  V30 530 H 49.7833 -0.995317 4.12152 0
M  V30 531 C 48.2423 -1.78087 2.85984 0
M  V30 532 O 48.7723 -2.8787 2.80168 0
M  V30 533 N 46.9783 -1.59488 2.42924 0
M  V30 534 H 46.5253 -0.701874 2.47854 0
M  V30 535 H 46.4833 -2.37846 2.05613 0
M  V30 536 N 50.2554 -1.46986 0.568584 0
M  V30 537 C 51.1854 -2.32946 -0.160753 0
M  V30 538 C 52.1664 -1.44487 -0.897631 0
M  V30 539 O 53.3514 -1.73327 -0.875867 0
M  V30 540 C 50.4814 -3.26494 -1.18403 0
M  V30 541 C 49.4354 -4.24282 -0.562895 0
M  V30 542 C 48.7614 -5.07236 -1.69163 0
M  V30 543 C 50.0614 -5.19989 0.490761 0
M  V30 544 H 51.7554 -2.94175 0.556916 0
M  V30 545 H 49.3014 -1.4146 0.26927 0
M  V30 546 H 51.2544 -3.85477 -1.70251 0
M  V30 547 H 49.9784 -2.63343 -1.93179 0
M  V30 548 H 48.6374 -3.66541 -0.0656164 0
M  V30 549 H 48.2854 -4.4048 -2.42871 0
M  V30 550 H 47.9854 -5.7345 -1.28174 0
M  V30 551 H 49.5094 -5.6908 -2.21314 0
M  V30 552 H 50.9234 -5.73271 0.0579047 0
M  V30 553 H 49.3204 -5.94469 0.820165 0
M  V30 554 H 50.3904 -4.64777 1.3824 0
M  V30 555 N 51.7335 -0.305618 -1.54608 0
M  V30 556 C 53.0105 0.355652 -1.92339 0
M  V30 557 C 53.3905 1.71324 -1.23335 0
M  V30 558 O 52.7385 2.25473 -0.370702 0
M  V30 559 C 52.9485 0.46572 -3.45879 0
M  V30 560 C 54.2965 0.734426 -4.182 0
M  V30 561 O 55.3205 0.54935 -3.51938 0
M  V30 562 O 54.1795 1.09024 -5.35515 0
M  V30 563 H 51.2735 0.199666 -0.802535 0
M  V30 564 H 53.8195 -0.354017 -1.65966 0
M  V30 565 H 52.5915 -0.488461 -3.88239 0
M  V30 566 H 52.2145 1.22367 -3.78301 0
M  V30 567 N 53.2116 1.57565 -0.0334293 0
M  V30 568 C 54.1216 2.13943 0.962572 0
M  V30 569 C 55.1376 1.09276 1.35406 0
M  V30 570 O 56.3136 1.41355 1.4346 0
M  V30 571 C 53.3786 2.65887 2.22497 0
M  V30 572 C 52.4396 3.85286 1.8935 0
M  V30 573 C 51.6726 4.34743 3.09571 0
M  V30 574 O 51.8956 3.83352 4.22371 0
M  V30 575 O 50.8296 5.26538 2.91618 0
M  V30 576 H 54.6556 2.99333 0.513169 0
M  V30 577 H 52.2406 1.4822 0.18743 0
M  V30 578 H 54.1226 2.99346 2.96598 0
M  V30 579 H 52.7976 1.83578 2.6661 0
M  V30 580 H 51.7046 3.56746 1.1262 0
M  V30 581 H 53.0376 4.68771 1.5005 0
M  V30 582 N 54.6897 -0.239769 1.55765 0
M  V30 583 C 55.9147 -0.988373 1.82335 0
M  V30 584 C 56.3397 -1.77886 0.611421 0
M  V30 585 O 55.6977 -1.75889 -0.439639 0
M  V30 586 C 55.7457 -1.89627 3.06715 0
M  V30 587 O 54.8497 -2.98904 2.84131 0
M  V30 588 H 54.1907 -0.280858 0.601677 0
M  V30 589 H 56.7207 -0.258597 2.02959 0
M  V30 590 H 56.7307 -2.30957 3.36338 0
M  V30 591 H 55.4057 -1.31511 3.9456 0
M  V30 592 H 53.9827 -2.61651 2.65694 0
M  V30 593 N 56.1678 -1.49265 -0.50573 0
M  V30 594 C 57.4158 -1.582 -1.25766 0
M  V30 595 C 57.7368 -0.268482 -1.93143 0
M  V30 596 O 57.0068 0.711833 -1.8251 0
M  V30 597 H 55.5868 -0.582873 -0.467191 0
M  V30 598 H 58.2488 -1.85865 -0.586525 0
M  V30 599 H 57.3448 -2.37563 -2.02412 0
M  V30 600 N 57.6459 0.756429 -1.3826 0
M  V30 601 C 58.6089 1.85176 -1.35065 0
M  V30 602 C 59.6089 1.58818 -0.251703 0
M  V30 603 O 60.7989 1.66615 -0.508433 0
M  V30 604 C 57.9309 3.22596 -1.10201 0
M  V30 605 H 59.1239 1.89417 -2.3251 0
M  V30 606 H 56.6769 0.95783 -1.23512 0
M  V30 607 H 57.4119 3.24025 -0.133504 0
M  V30 608 H 57.1969 3.43122 -1.89762 0
M  V30 609 H 58.6869 4.02673 -1.10654 0
M  V30 610 N 59.124 1.23083 0.984299 0
M  V30 611 C 60.034 1.02515 2.11016 0
M  V30 612 C 61.05 -0.0291702 1.73976 0
M  V30 613 O 62.226 0.165434 2.00719 0
M  V30 614 C 59.291 0.614673 3.41208 0
M  V30 615 C 58.352 1.74359 3.92297 0
M  V30 616 C 57.585 1.35261 5.16275 0
M  V30 617 O 57.808 0.235136 5.69915 0
M  V30 618 O 56.742 2.17227 5.61334 0
M  V30 619 H 60.568 1.96862 2.31255 0
M  V30 620 H 58.153 1.01753 1.09392 0
M  V30 621 H 60.035 0.396518 4.1953 0
M  V30 622 H 58.71 -0.299851 3.22308 0
M  V30 623 H 57.617 2.01635 3.1511 0
M  V30 624 H 58.95 2.63629 4.15645 0
M  V30 625 N 60.6021 -1.18246 1.0419 0
M  V30 626 C 61.8481 -1.88536 0.747122 0
M  V30 627 C 62.1811 -1.80223 -0.723409 0
M  V30 628 O 61.4561 -1.20337 -1.52804 0
M  V30 629 C 61.7391 -3.38968 1.21544 0
M  V30 630 C 61.5921 -3.56084 2.74816 0
M  V30 631 C 62.9111 -4.32648 0.806482 0
M  V30 632 H 60.0301 -0.684619 0.272883 0
M  V30 633 H 62.6721 -1.39113 1.29413 0
M  V30 634 H 60.8221 -3.8119 0.750081 0
M  V30 635 H 62.4941 -3.22946 3.29399 0
M  V30 636 H 60.7371 -2.98699 3.14582 0
M  V30 637 H 61.4081 -4.61639 3.02644 0
M  V30 638 H 63.8841 -3.98211 1.20695 0
M  V30 639 H 62.7601 -5.36462 1.1619 0
M  V30 640 H 63.0211 -4.41146 -0.29029 0
M  V30 641 N 62.0802 -0.821533 -1.34494 0
M  V30 642 C 63.3292 -0.405355 -1.97585 0
M  V30 643 C 63.6422 1.03677 -1.65863 0
M  V30 644 O 64.8482 1.55679 -2.22433 0
M  V30 645 C 63.3042 -0.673861 -3.53535 0
M  V30 646 C 62.9122 -2.12951 -3.94152 0
M  V30 647 C 64.6562 -0.32378 -4.23263 0
M  V30 648 C 62.5632 -2.34298 -5.43009 0
M  V30 649 H 61.4932 -0.147836 -0.739365 0
M  V30 650 H 64.1442 -1.00769 -1.53355 0
M  V30 651 H 62.5262 -0.00137554 -3.96 0
M  V30 652 H 63.7002 -2.84104 -3.62797 0
M  V30 653 H 62.0152 -2.44089 -3.37356 0
M  V30 654 H 64.6122 -0.461126 -5.32708 0
M  V30 655 H 64.9552 0.731586 -4.09821 0
M  V30 656 H 65.4882 -0.950786 -3.8627 0
M  V30 657 H 62.2272 -3.38335 -5.61435 0
M  V30 658 H 61.7472 -1.67687 -5.75883 0
M  V30 659 H 63.4262 -2.16588 -6.09671 0
M  V30 660 N 63.5583 1.46682 -0.576371 0
M  V30 661 C 64.8353 1.95599 0.00703437 0
M  V30 662 C 65.2153 1.51904 1.46589 0
M  V30 663 O 64.5633 0.766755 2.15251 0
M  V30 664 C 64.7733 3.4864 -0.158404 0
M  V30 665 C 66.1213 4.24594 -0.0229439 0
M  V30 666 O 67.1453 3.56094 -0.0869173 0
M  V30 667 O 66.0043 5.46373 0.118015 0
M  V30 668 H 63.0983 0.825275 0.053384 0
M  V30 669 H 65.6443 1.56996 -0.644244 0
M  V30 670 H 64.4163 3.7331 -1.17282 0
M  V30 671 H 64.0393 3.94057 0.5296 0
M  V30 672 N 65.0364 0.313813 1.54444 0
M  V30 673 C 65.9994 -0.54379 2.22656 0
M  V30 674 C 66.9994 -1.05124 1.21678 0
M  V30 675 O 68.1894 -0.945225 1.46325 0
M  V30 676 C 65.3214 -1.75427 2.92298 0
M  V30 677 H 66.5144 0.0523599 2.99854 0
M  V30 678 H 64.0674 0.0647834 1.56166 0
M  V30 679 H 64.8024 -2.38991 2.19211 0
M  V30 680 H 64.5874 -1.39791 3.66334 0
M  V30 681 H 66.0774 -2.36325 3.44297 0
M  V30 682 N 66.5145 -1.57545 0.0417849 0
M  V30 683 C 67.7425 -1.96624 -0.643928 0
M  V30 684 C 68.1575 -0.918897 -1.64929 0
M  V30 685 O 67.5145 0.0979323 -1.82237 0
M  V30 686 C 67.5655 -3.35781 -1.33914 0
M  V30 687 O 67.2865 -4.365 -0.374048 0
M  V30 688 C 68.7875 -3.89566 -2.1155 0
M  V30 689 H 66.0075 -0.647316 -0.176702 0
M  V30 690 H 68.5515 -2.04229 0.105304 0
M  V30 691 H 66.7065 -3.29357 -2.03968 0
M  V30 692 H 67.1205 -5.17248 -0.869179 0
M  V30 693 H 68.5945 -4.89242 -2.55628 0
M  V30 694 H 69.0715 -3.24488 -2.9598 0
M  V30 695 H 69.6775 -3.99298 -1.46427 0
M  V30 696 N 67.9926 0.231505 -1.5589 0
M  V30 697 C 69.2406 0.955461 -1.78088 0
M  V30 698 C 69.5616 1.85262 -0.608533 0
M  V30 699 O 68.8316 1.92277 0.375035 0
M  V30 700 H 67.4116 0.355787 -0.656829 0
M  V30 701 H 70.0736 0.245751 -1.93344 0
M  V30 702 H 69.1696 1.56814 -2.69844 0
M  V30 703 N 69.4707 1.49531 0.497807 0
M  V30 704 C 70.7107 1.60799 1.26187 0
M  V30 705 C 71.0747 0.289627 1.89803 0
M  V30 706 O 72.2757 0.277512 2.67364 0
M  V30 707 C 70.5467 2.73729 2.29798 0
M  V30 708 S 72.1057 3.04968 3.155 0
M  V30 709 H 68.9237 0.567145 0.428798 0
M  V30 710 H 71.5257 1.87204 0.563477 0
M  V30 711 H 70.2297 3.68036 1.81597 0
M  V30 712 H 69.7607 2.49328 3.04301 0
M  V30 713 H 71.7757 2.46735 4.30507 0
M  V30 714 N 70.9488 -0.749086 1.3866 0
M  V30 715 C 72.1788 -1.53611 1.38157 0
M  V30 716 C 72.5868 -1.89177 -0.0293595 0
M  V30 717 O 71.9298 -1.53606 -1.00752 0
M  V30 718 C 71.9918 -2.86087 2.17702 0
M  V30 719 C 71.6558 -2.73034 3.66472 0
M  V30 720 C 72.6528 -2.42526 4.59866 0
M  V30 721 C 70.3378 -2.90345 4.09884 0
M  V30 722 C 72.3318 -2.29492 5.94653 0
M  V30 723 C 70.0188 -2.7693 5.4475 0
M  V30 724 C 71.0168 -2.46547 6.36949 0
M  V30 725 O 70.7048 -2.33199 7.69333 0
M  V30 726 H 70.4368 -0.481773 0.474205 0
M  V30 727 H 72.9908 -0.934465 1.82912 0
M  V30 728 H 71.2208 -3.48458 1.67672 0
M  V30 729 H 72.9098 -3.47625 2.09551 0
M  V30 730 H 73.6758 -2.28816 4.27631 0
M  V30 731 H 69.5548 -3.1299 3.38464 0
M  V30 732 H 73.0988 -2.05698 6.66584 0
M  V30 733 H 68.9958 -2.90215 5.76581 0
M  V30 734 H 69.7638 -2.48376 7.79905 0
M  V30 735 N 72.4269 -1.23603 -0.977757 0
M  V30 736 C 73.6729 -1.07129 -1.72195 0
M  V30 737 C 74.0059 0.390501 -1.90233 0
M  V30 738 O 73.2809 1.28902 -1.45653 0
M  V30 739 C 73.5639 -1.80031 -3.11867 0
M  V30 740 C 73.4169 -3.33899 -3.01383 0
M  V30 741 C 74.7359 -1.56492 -4.11337 0
M  V30 742 H 71.8549 -0.390571 -0.624999 0
M  V30 743 H 74.4969 -1.52142 -1.13811 0
M  V30 744 H 72.6469 -1.41768 -3.6171 0
M  V30 745 H 74.3189 -3.81699 -2.59043 0
M  V30 746 H 72.5619 -3.62796 -2.37827 0
M  V30 747 H 73.2329 -3.801 -4.00285 0
M  V30 748 H 75.7089 -1.89757 -3.70313 0
M  V30 749 H 74.5849 -2.09973 -5.07151 0
M  V30 750 H 74.8459 -0.500874 -4.39254 0
M  V30 751 N 73.905 1.17692 -1.04816 0
M  V30 752 C 75.152 1.87859 -0.75599 0
M  V30 753 C 75.48 1.80812 0.716752 0
M  V30 754 O 74.735 1.20819 1.53952 0
M  V30 755 C 75.034 3.37462 -1.17703 0
M  V30 756 C 74.7 3.64713 -2.65133 0
M  V30 757 C 73.362 3.71859 -3.05408 0
M  V30 758 C 75.714 3.76492 -3.60421 0
M  V30 759 C 73.042 3.88271 -4.39843 0
M  V30 760 C 75.394 3.94421 -4.94585 0
M  V30 761 C 74.058 3.99806 -5.3452 0
M  V30 762 H 73.328 0.687425 -0.276636 0
M  V30 763 H 75.975 1.39255 -1.31455 0
M  V30 764 H 74.28 3.88097 -0.537395 0
M  V30 765 H 75.977 3.90109 -0.928218 0
M  V30 766 H 72.567 3.59772 -2.32942 0
M  V30 767 H 76.751 3.70295 -3.30447 0
M  V30 768 H 72.007 3.90687 -4.70291 0
M  V30 769 H 76.181 4.02477 -5.68318 0
M  V30 770 H 73.808 4.12276 -6.38696 0
M  V30 771 N 75.3831 0.828654 1.34056 0
M  V30 772 C 76.7941 0.477534 1.8049 0
M  V30 773 C 77.1451 -1.00258 1.6865 0
M  V30 774 O 76.2701 -1.78057 1.22982 0
M  V30 775 C 76.8651 0.860018 3.27703 0
M  V30 776 C 75.4241 0.561185 3.72193 0
M  V30 777 C 74.5711 1.07385 2.55663 0
M  V30 778 H 77.5221 1.0183 1.21722 0
M  V30 779 H 77.5431 0.166038 3.80138 0
M  V30 780 H 77.0551 1.93731 3.36288 0
M  V30 781 H 75.1561 -0.506465 3.69142 0
M  V30 782 H 75.2691 1.10926 4.66082 0
M  V30 783 H 73.6331 0.495149 2.49841 0
M  V30 784 H 74.4161 2.15771 2.67016 0
M  V30 785 N 76.8612 -1.46375 0.584142 0
M  V30 786 C 78.1092 -2.01978 0.0701287 0
M  V30 787 C 78.4302 -1.4579 -1.295 0
M  V30 788 O 77.7002 -0.64314 -1.85042 0
M  V30 789 H 76.2802 -0.746648 0.0229345 0
M  V30 790 H 78.9422 -1.79461 0.760245 0
M  V30 791 H 78.0382 -3.121 0.0022064 0
M  V30 792 N 78.3393 -0.321999 -1.54275 0
M  V30 793 C 79.5873 0.280489 -2.00144 0
M  V30 794 C 79.9083 1.52777 -1.21178 0
M  V30 795 O 79.1783 1.9338 -0.313187 0
M  V30 796 H 77.7583 0.106632 -0.73935 0
M  V30 797 H 80.4203 -0.438184 -1.8991 0
M  V30 798 H 79.5163 0.537972 -3.07428 0
M  V30 799 N 79.8174 1.5752 -0.0501392 0
M  V30 800 C 81.0664 1.91827 0.623328 0
M  V30 801 C 81.3794 0.930222 1.72065 0
M  V30 802 O 82.5854 1.1653 2.4522 0
M  V30 803 C 81.0414 3.40692 1.16003 0
M  V30 804 C 80.6494 4.479 0.0948811 0
M  V30 805 C 82.3934 3.84034 1.80881 0
M  V30 806 C 80.3004 5.87879 0.644411 0
M  V30 807 H 79.2304 0.715918 0.236596 0
M  V30 808 H 81.8814 1.83115 -0.118861 0
M  V30 809 H 80.2634 3.44405 1.9545 0
M  V30 810 H 81.4374 4.55775 -0.678675 0
M  V30 811 H 79.7524 4.13892 -0.45637 0
M  V30 812 H 82.3494 4.85984 2.22988 0
M  V30 813 H 82.6924 3.20225 2.6601 0
M  V30 814 H 83.2254 3.82833 1.0809 0
M  V30 815 H 79.9644 6.55282 -0.169229 0
M  V30 816 H 79.4844 5.83567 1.38598 0
M  V30 817 H 81.1634 6.37098 1.12763 0
M  V30 818 N 81.2955 -0.223234 1.56011 0
M  V30 819 C 82.5725 -0.972108 1.69733 0
M  V30 820 C 82.9525 -2.02485 0.59691 0
M  V30 821 O 82.3005 -2.25037 -0.396324 0
M  V30 822 C 82.5105 -1.58407 3.10979 0
M  V30 823 C 83.8585 -2.07696 3.70334 0
M  V30 824 O 84.8825 -1.68304 3.1393 0
M  V30 825 O 83.7415 -2.80096 4.69264 0
M  V30 826 H 80.8355 -0.453993 0.691245 0
M  V30 827 H 83.3815 -0.215149 1.68331 0
M  V30 828 H 82.1535 -0.823831 3.82529 0
M  V30 829 H 81.7765 -2.40661 3.16493 0
M  V30 830 N 82.7736 -1.49793 -0.48987 0
M  V30 831 C 84.1846 -1.52914 -1.07118 0
M  V30 832 C 84.5356 -0.321738 -1.93544 0
M  V30 833 O 83.6606 0.567338 -2.08831 0
M  V30 834 C 84.2556 -2.771 -1.94938 0
M  V30 835 C 82.8146 -2.82963 -2.48212 0
M  V30 836 C 81.9616 -2.46972 -1.26096 0
M  V30 837 H 84.9126 -1.56329 -0.273289 0
M  V30 838 H 84.9336 -2.57892 -2.79771 0
M  V30 839 H 84.4456 -3.64959 -1.32009 0
M  V30 840 H 82.5466 -1.99411 -3.14748 0
M  V30 841 H 82.6596 -3.85406 -2.84603 0
M  V30 842 H 81.0236 -1.98994 -1.58976 0
M  V30 843 H 81.8066 -3.37118 -0.648581 0
M  V30 844 N 84.2517 0.741722 -1.39055 0
M  V30 845 C 85.2017 1.84661 -1.33732 0
M  V30 846 C 86.1857 1.59397 -0.219401 0
M  V30 847 O 87.3777 1.71015 -0.456375 0
M  V30 848 C 84.5067 3.22512 -1.17647 0
M  V30 849 C 83.5927 3.53628 -2.34112 0
M  V30 850 N 83.9837 3.55723 -3.59576 0
M  V30 851 C 82.2817 3.83956 -2.26923 0
M  V30 852 C 82.9827 3.84443 -4.36553 0
M  V30 853 N 81.9587 4.01877 -3.66055 0
M  V30 854 H 85.7607 1.84576 -2.28711 0
M  V30 855 H 83.2747 0.939647 -1.32455 0
M  V30 856 H 85.2717 4.01597 -1.11917 0
M  V30 857 H 83.9317 3.2384 -0.236124 0
M  V30 858 H 84.9427 3.37196 -3.93089 0
M  V30 859 H 81.6197 3.92929 -1.41113 0
M  V30 860 H 83.0097 3.92588 -5.45274 0
M  V30 861 N 85.7298 1.2412 0.971189 0
M  V30 862 C 86.9578 1.10575 1.74874 0
M  V30 863 C 87.3728 -0.342017 1.85676 0
M  V30 864 O 86.7298 -1.23617 1.34258 0
M  V30 865 C 86.7808 1.73579 3.171 0
M  V30 866 O 86.5018 3.12695 3.06844 0
M  V30 867 C 88.0028 1.65598 4.11208 0
M  V30 868 H 85.2228 0.386504 0.548503 0
M  V30 869 H 87.7668 1.64156 1.21955 0
M  V30 870 H 85.9218 1.24009 3.67016 0
M  V30 871 H 86.3358 3.43412 3.96445 0
M  V30 872 H 87.8098 2.1437 5.08674 0
M  V30 873 H 88.2868 0.616532 4.34851 0
M  V30 874 H 88.8928 2.14578 3.67201 0
M  V30 875 N 87.2079 -1.17134 1.05439 0
M  V30 876 C 88.1579 -2.1919 0.627675 0
M  V30 877 C 89.1419 -1.57328 -0.337147 0
M  V30 878 O 90.3339 -1.76329 -0.153976 0
M  V30 879 C 87.4629 -3.43299 0.00651435 0
M  V30 880 C 86.5489 -4.12255 0.995312 0
M  V30 881 N 86.9399 -4.56997 2.16765 0
M  V30 882 C 85.2379 -4.38316 0.824336 0
M  V30 883 C 85.9389 -5.10239 2.7934 0
M  V30 884 N 84.9149 -5.02595 2.07122 0
M  V30 885 H 88.7169 -2.5149 1.52086 0
M  V30 886 H 86.2309 -1.33491 0.924868 0
M  V30 887 H 88.2279 -4.15693 -0.316965 0
M  V30 888 H 86.8879 -3.1249 -0.882033 0
M  V30 889 H 87.8989 -4.51006 2.54587 0
M  V30 890 H 84.5759 -4.17498 -0.0129526 0
M  V30 891 H 85.9659 -5.54961 3.78772 0
M  V30 892 N 88.686 -0.835752 -1.33615 0
M  V30 893 C 89.616 -0.281739 -2.31794 0
M  V30 894 C 90.597 0.608833 -1.58831 0
M  V30 895 O 91.782 0.533035 -1.86741 0
M  V30 896 C 88.912 0.546612 -3.42971 0
M  V30 897 C 87.866 -0.247904 -4.27281 0
M  V30 898 C 87.192 0.704001 -5.30045 0
M  V30 899 C 88.492 -1.46324 -5.01385 0
M  V30 900 H 90.186 -1.10206 -2.78379 0
M  V30 901 H 87.732 -0.531388 -1.33837 0
M  V30 902 H 89.685 0.944467 -4.1068 0
M  V30 903 H 88.409 1.40011 -2.95067 0
M  V30 904 H 87.068 -0.627281 -3.61194 0
M  V30 905 H 86.716 1.55381 -4.78399 0
M  V30 906 H 86.416 0.176524 -5.87335 0
M  V30 907 H 87.94 1.09944 -6.0062 0
M  V30 908 H 89.354 -1.13871 -5.61877 0
M  V30 909 H 87.751 -1.92728 -5.6831 0
M  V30 910 H 88.821 -2.23467 -4.30338 0
M  V30 911 N 90.1641 1.46063 -0.591896 0
M  V30 912 C 91.4411 1.95595 -0.0137119 0
M  V30 913 C 91.8211 1.5345 1.4497 0
M  V30 914 O 91.1691 0.789543 2.14426 0
M  V30 915 C 91.3791 3.48453 -0.195373 0
M  V30 916 C 92.7271 4.24546 -0.0679765 0
M  V30 917 O 93.7511 3.55982 -0.124681 0
M  V30 918 O 92.6101 5.46467 0.0600579 0
M  V30 919 H 89.7041 0.825795 0.0446279 0
M  V30 920 H 92.2501 1.56303 -0.660859 0
M  V30 921 H 91.0221 3.72045 -1.21235 0
M  V30 922 H 90.6451 3.94597 0.487775 0
M  V30 923 N 91.6422 0.330177 1.54103 0
M  V30 924 C 92.5752 -0.575477 2.20825 0
M  V30 925 C 93.5532 -1.11064 1.18758 0
M  V30 926 O 94.7372 -1.17341 1.47524 0
M  V30 927 C 91.8642 -1.79032 2.87516 0
M  V30 928 C 90.9102 -1.38581 4.03358 0
M  V30 929 S 91.7432 -0.416911 5.33875 0
M  V30 930 C 92.8992 -1.63889 6.04062 0
M  V30 931 H 93.1322 -0.00872114 2.97299 0
M  V30 932 H 90.6652 0.114254 1.53977 0
M  V30 933 H 92.6232 -2.48734 3.2656 0
M  V30 934 H 91.2842 -2.32827 2.10832 0
M  V30 935 H 90.4772 -2.29123 4.48908 0
M  V30 936 H 90.0792 -0.768419 3.66021 0
M  V30 937 H 92.3712 -2.57536 6.26643 0
M  V30 938 H 93.3142 -1.22542 6.97416 0
M  V30 939 H 93.7222 -1.82887 5.34053 0
M  V30 940 N 93.1203 -1.57491 0.0584922 0
M  V30 941 C 94.5313 -1.80526 -0.476138 0
M  V30 942 C 94.8823 -0.971334 -1.70469 0
M  V30 943 O 94.0073 -0.190012 -2.15564 0
M  V30 944 C 94.6023 -3.27424 -0.870587 0
M  V30 945 C 93.1613 -3.51351 -1.35015 0
M  V30 946 C 92.3083 -2.75343 -0.32887 0
M  V30 947 H 95.2593 -1.56133 0.284312 0
M  V30 948 H 95.2803 -3.38745 -1.73299 0
M  V30 949 H 94.7923 -3.88093 0.0237627 0
M  V30 950 H 92.8933 -2.95971 -2.26345 0
M  V30 951 H 93.0063 -4.60059 -1.33726 0
M  V30 952 H 91.3703 -2.417 -0.803321 0
M  V30 953 H 92.1533 -3.38743 0.557521 0
M  V30 954 N 94.5984 0.214957 -1.56127 0
M  V30 955 C 95.8454 0.938372 -1.79446 0
M  V30 956 C 96.1734 1.8407 -0.628378 0
M  V30 957 O 95.4284 1.91837 0.386925 0
M  V30 958 C 95.7274 1.80314 -3.0858 0
M  V30 959 C 95.3934 1.05349 -4.3842 0
M  V30 960 C 94.0554 0.846435 -4.73697 0
M  V30 961 C 96.4074 0.524588 -5.18553 0
M  V30 962 C 93.7354 0.098683 -5.86617 0
M  V30 963 C 96.0874 -0.209853 -6.32252 0
M  V30 964 C 94.7514 -0.428102 -6.66126 0
M  V30 965 H 94.0214 0.343375 -0.656639 0
M  V30 966 H 96.6684 0.206077 -1.90388 0
M  V30 967 H 94.9734 2.6035 -2.92789 0
M  V30 968 H 96.6704 2.36513 -3.23825 0
M  V30 969 H 93.2604 1.22486 -4.10725 0
M  V30 970 H 97.4444 0.672008 -4.91729 0
M  V30 971 H 92.7004 -0.0805753 -6.11347 0
M  V30 972 H 96.8744 -0.627157 -6.9357 0
M  V30 973 H 94.5014 -1.00944 -7.53468 0
M  V30 974 N 96.0765 1.50051 0.48192 0
M  V30 975 C 97.3245 1.60181 1.23234 0
M  V30 976 C 97.6455 0.299176 1.92691 0
M  V30 977 O 96.9155 -0.682708 1.83619 0
M  V30 978 H 95.4955 0.590232 0.457859 0
M  V30 979 H 98.1575 1.86775 0.556881 0
M  V30 980 H 97.2535 2.40753 1.98607 0
M  V30 981 N 97.5546 -0.734337 1.39446 0
M  V30 982 C 98.8026 -1.49096 1.36436 0
M  V30 983 C 99.1236 -1.94961 -0.0388255 0
M  V30 984 O 98.3936 -1.69033 -0.990191 0
M  V30 985 H 96.9736 -0.5531 0.502085 0
M  V30 986 H 99.6356 -0.871725 1.74319 0
M  V30 987 H 98.7316 -2.37276 2.02747 0
M  V30 988 N 99.0327 -1.24633 -0.964593 0
M  V30 989 C 100.261 -1.11501 -1.74285 0
M  V30 990 C 100.676 0.332165 -1.85855 0
M  V30 991 O 100.033 1.22903 -1.34911 0
M  V30 992 C 100.084 -1.75258 -3.16175 0
M  V30 993 O 99.8047 -3.14318 -3.05182 0
M  V30 994 C 101.306 -1.67776 -4.10324 0
M  V30 995 H 98.5257 -0.389407 -0.546446 0
M  V30 996 H 101.07 -1.64801 -1.21083 0
M  V30 997 H 99.2247 -1.25954 -3.66353 0
M  V30 998 H 99.6387 -3.4551 -3.94618 0
M  V30 999 H 101.113 -2.17064 -5.0753 0
M  V30 1000 H 101.59 -0.639584 -4.34518 0
M  V30 1001 H 102.196 -2.16522 -3.66058 0
M  V30 1002 N 100.511 1.16574 -1.06058 0
M  V30 1003 C 101.757 1.87324 -0.777022 0
M  V30 1004 C 102.09 1.81351 0.694645 0
M  V30 1005 O 101.365 1.22753 1.50871 0
M  V30 1006 C 101.648 3.36991 -1.26922 0
M  V30 1007 C 101.501 3.51667 -2.80447 0
M  V30 1008 C 102.82 4.3131 -0.87521 0
M  V30 1009 H 99.9388 0.680191 -0.28374 0
M  V30 1010 H 102.581 1.37036 -1.3161 0
M  V30 1011 H 100.731 3.79949 -0.81063 0
M  V30 1012 H 102.403 3.17664 -3.34495 0
M  V30 1013 H 100.646 2.93656 -3.19294 0
M  V30 1014 H 101.317 4.56766 -3.0995 0
M  V30 1015 H 103.793 3.9624 -1.27014 0
M  V30 1016 H 102.669 5.34545 -1.2471 0
M  V30 1017 H 102.93 4.41552 0.220071 0
M  V30 1018 N 101.989 0.842826 1.3317 0
M  V30 1019 C 103.217 0.454055 2.01856 0
M  V30 1020 C 103.632 -0.94587 1.63397 0
M  V30 1021 O 102.989 -1.61534 0.849302 0
M  V30 1022 C 103.04 0.569715 3.56982 0
M  V30 1023 O 102.761 1.91448 3.94055 0
M  V30 1024 C 104.262 0.178412 4.42941 0
M  V30 1025 H 101.482 0.17979 0.646465 0
M  V30 1026 H 104.026 1.1365 1.70012 0
M  V30 1027 H 102.181 -0.0648587 3.87346 0
M  V30 1028 H 102.595 1.90282 4.88767 0
M  V30 1029 H 104.069 0.310376 5.51127 0
M  V30 1030 H 104.546 -0.880056 4.30293 0
M  V30 1031 H 105.152 0.787579 4.17944 0
M  V30 1032 N 103.467 -1.45747 0.599634 0
M  V30 1033 C 104.414 -2.30467 -0.123849 0
M  V30 1034 C 105.384 -1.41632 -0.86774 0
M  V30 1035 O 106.569 -1.70568 -0.855056 0
M  V30 1036 C 103.709 -3.26402 -1.12051 0
M  V30 1037 C 102.822 -4.3034 -0.37832 0
M  V30 1038 C 101.957 -5.13389 -1.364 0
M  V30 1039 C 100.996 -6.09061 -0.609171 0
M  V30 1040 N 100.133 -6.84918 -1.54374 0
M  V30 1041 H 104.973 -2.91802 0.604627 0
M  V30 1042 H 102.51 -1.43797 0.309972 0
M  V30 1043 H 104.468 -3.80482 -1.7114 0
M  V30 1044 H 103.098 -2.66839 -1.8165 0
M  V30 1045 H 102.15 -3.78984 0.327929 0
M  V30 1046 H 103.462 -4.98354 0.210997 0
M  V30 1047 H 102.616 -5.7183 -2.02719 0
M  V30 1048 H 101.355 -4.45376 -1.98725 0
M  V30 1049 H 100.36 -5.49758 0.0676979 0
M  V30 1050 H 101.585 -6.79099 0.00891991 0
M  V30 1051 H 99.531 -6.19601 -2.15478 0
M  V30 1052 H 99.448 -7.49254 -1.00766 0
M  V30 1053 H 100.716 -7.47906 -2.19676 0
M  V30 1054 N 104.945 -0.338344 -1.53925 0
M  V30 1055 C 106.222 0.314774 -1.93051 0
M  V30 1056 C 106.602 1.68669 -1.26941 0
M  V30 1057 O 105.95 2.24636 -0.418445 0
M  V30 1058 C 106.16 0.392249 -3.46789 0
M  V30 1059 C 107.508 0.645554 -4.19664 0
M  V30 1060 O 108.532 0.474575 -3.53024 0
M  V30 1061 O 107.391 0.976408 -5.37707 0
M  V30 1062 H 104.485 0.182598 -0.80659 0
M  V30 1063 H 107.031 -0.389141 -1.65178 0
M  V30 1064 H 105.803 -0.570702 -3.87116 0
M  V30 1065 H 105.426 1.14316 -3.80812 0
M  V30 1066 N 106.423 1.57458 -0.0668435 0
M  V30 1067 C 107.7 1.8469 0.644132 0
M  V30 1068 C 108.08 0.958343 1.88093 0
M  V30 1069 O 107.428 0.0233579 2.28488 0
M  V30 1070 C 107.638 3.34767 0.986509 0
M  V30 1071 C 108.986 4.02159 1.36212 0
M  V30 1072 O 110.01 3.39484 1.07839 0
M  V30 1073 O 108.869 5.12694 1.89227 0
M  V30 1074 H 105.963 0.762816 0.319437 0
M  V30 1075 H 108.509 1.6942 -0.0973986 0
M  V30 1076 H 107.281 3.91151 0.107883 0
M  V30 1077 H 106.904 3.55281 1.78497 0
M  V30 1078 N 107.901 -0.206675 1.56239 0
M  V30 1079 C 109.148 -0.928842 1.79941 0
M  V30 1080 C 109.476 -1.83734 0.638131 0
M  V30 1081 O 108.731 -1.92039 -0.376746 0
M  V30 1082 C 109.03 -1.78675 3.09532 0
M  V30 1083 C 108.696 -1.03022 4.38973 0
M  V30 1084 C 107.358 -0.821302 4.74139 0
M  V30 1085 C 109.71 -0.497081 5.18824 0
M  V30 1086 C 107.038 -0.0675719 5.86661 0
M  V30 1087 C 109.39 0.24338 6.32132 0
M  V30 1088 C 108.054 0.463422 6.65889 0
M  V30 1089 H 107.324 -0.339887 0.658451 0
M  V30 1090 H 109.971 -0.195977 1.90495 0
M  V30 1091 H 108.276 -2.58794 2.94165 0
M  V30 1092 H 109.973 -2.34792 3.25075 0
M  V30 1093 H 106.563 -1.20306 4.11369 0
M  V30 1094 H 110.747 -0.645921 4.92079 0
M  V30 1095 H 106.003 0.112995 6.11296 0
M  V30 1096 H 110.177 0.66393 6.93228 0
M  V30 1097 H 107.804 1.04938 7.52922 0
M  V30 1098 N 109.379 -1.50304 -0.473955 0
M  V30 1099 C 110.289 -1.7174 -1.5982 0
M  V30 1100 C 111.305 -0.600457 -1.63311 0
M  V30 1101 O 112.481 -0.878441 -1.81233 0
M  V30 1102 C 109.546 -1.80427 -2.96052 0
M  V30 1103 C 108.607 -3.04148 -3.02972 0
M  V30 1104 C 107.84 -3.12411 -4.32706 0
M  V30 1105 O 108.063 -2.27542 -5.23049 0
M  V30 1106 O 106.997 -4.05113 -4.45159 0
M  V30 1107 H 110.823 -2.67035 -1.44657 0
M  V30 1108 H 108.408 -1.34366 -0.653148 0
M  V30 1109 H 110.29 -1.88338 -3.7697 0
M  V30 1110 H 108.965 -0.883156 -3.11419 0
M  V30 1111 H 107.872 -3.0174 -2.21142 0
M  V30 1112 H 109.205 -3.95829 -2.92541 0
M  V30 1113 N 110.857 0.726932 -1.39834 0
M  V30 1114 C 112.082 1.52121 -1.40976 0
M  V30 1115 C 112.507 1.88098 -0.00826029 0
M  V30 1116 O 111.865 1.52479 0.980807 0
M  V30 1117 C 111.913 2.78021 -2.29644 0
M  V30 1118 O 111.017 3.74272 -1.73188 0
M  V30 1119 H 110.358 0.45908 -0.479731 0
M  V30 1120 H 112.888 0.896207 -1.83927 0
M  V30 1121 H 112.898 3.26671 -2.44438 0
M  V30 1122 H 111.573 2.51169 -3.31492 0
M  V30 1123 H 110.15 3.33073 -1.6768 0
M  V30 1124 N 112.336 1.25143 0.95797 0
M  V30 1125 C 113.584 1.09476 1.69881 0
M  V30 1126 C 113.905 -0.365502 1.91544 0
M  V30 1127 O 113.175 -1.25985 1.50015 0
M  V30 1128 H 111.755 0.402128 0.629525 0
M  V30 1129 H 114.417 1.57214 1.15194 0
M  V30 1130 H 113.513 1.60046 2.6794 0
M  V30 1131 N 113.814 -1.1601 1.06675 0
M  V30 1132 C 115.042 -1.90527 0.806667 0
M  V30 1133 C 115.457 -1.77643 -0.639396 0
M  V30 1134 O 114.814 -1.12369 -1.43803 0
M  V30 1135 C 114.865 -3.41106 1.19705 0
M  V30 1136 O 114.586 -3.53608 2.58636 0
M  V30 1137 C 116.087 -4.32663 0.965266 0
M  V30 1138 H 113.307 -0.604053 0.292166 0
M  V30 1139 H 115.851 -1.47026 1.4214 0
M  V30 1140 H 114.006 -3.82296 0.626774 0
M  V30 1141 H 114.42 -4.47011 2.74375 0
M  V30 1142 H 115.894 -5.36763 1.288 0
M  V30 1143 H 116.371 -4.39089 -0.0987936 0
M  V30 1144 H 116.977 -3.97206 1.52011 0
M  V30 1145 N 115.292 -0.849877 -1.32721 0
M  V30 1146 C 116.541 -0.447175 -1.96681 0
M  V30 1147 C 116.854 1.00135 -1.68025 0
M  V30 1148 O 118.06 1.50926 -2.25685 0
M  V30 1149 C 116.516 -0.7487 -3.52026 0
M  V30 1150 C 116.124 -2.21264 -3.89546 0
M  V30 1151 C 117.868 -0.413487 -4.22481 0
M  V30 1152 C 115.775 -2.45763 -5.37917 0
M  V30 1153 H 114.705 -0.163486 -0.736063 0
M  V30 1154 H 117.356 -1.03999 -1.51183 0
M  V30 1155 H 115.738 -0.0853727 -3.95908 0
M  V30 1156 H 116.912 -2.91736 -3.56689 0
M  V30 1157 H 115.227 -2.5119 -3.32103 0
M  V30 1158 H 117.824 -0.574017 -5.3161 0
M  V30 1159 H 118.167 0.644492 -4.11281 0
M  V30 1160 H 118.7 -1.03251 -3.84167 0
M  V30 1161 H 115.439 -3.50168 -5.54132 0
M  V30 1162 H 114.959 -1.79864 -5.72197 0
M  V30 1163 H 116.638 -2.29471 -6.0494 0
M  V30 1164 N 116.77 1.45427 -0.607355 0
M  V30 1165 C 117.733 2.28974 0.101693 0
M  V30 1166 C 118.733 1.39754 0.795329 0
M  V30 1167 O 119.923 1.61878 0.643527 0
M  V30 1168 C 117.055 3.20768 1.15414 0
M  V30 1169 H 118.248 2.93147 -0.632844 0
M  V30 1170 H 115.801 1.51945 -0.366391 0
M  V30 1171 H 116.536 2.61395 1.91945 0
M  V30 1172 H 116.321 3.86489 0.66098 0
M  V30 1173 H 117.811 3.83589 1.65073 0
M  V30 1174 N 118.248 0.346503 1.53744 0
M  V30 1175 C 119.211 -0.496439 2.23759 0
M  V30 1176 C 120.211 -1.0252 1.2388 0
M  V30 1177 O 121.401 -0.913974 1.48297 0
M  V30 1178 C 118.533 -1.69187 2.95954 0
M  V30 1179 H 119.726 0.115952 2.99676 0
M  V30 1180 H 117.279 0.0978939 1.55993 0
M  V30 1181 H 118.014 -2.34288 2.24231 0
M  V30 1182 H 117.799 -1.31989 3.69217 0
M  V30 1183 H 119.289 -2.28969 3.49232 0
M  V30 1184 N 119.726 -1.57421 0.075193 0
M  V30 1185 C 120.689 -2.11791 -0.876203 0
M  V30 1186 C 121.689 -1.04268 -1.22412 0
M  V30 1187 O 122.879 -1.30242 -1.15684 0
M  V30 1188 C 120.011 -2.62207 -2.17854 0
M  V30 1189 H 121.204 -2.9716 -0.40444 0
M  V30 1190 H 118.757 -1.55333 -0.173557 0
M  V30 1191 H 119.492 -1.803 -2.6956 0
M  V30 1192 H 119.277 -3.40802 -1.93897 0
M  V30 1193 H 120.767 -3.04335 -2.85955 0
M  V30 1194 N 121.204 0.198386 -1.56346 0
M  V30 1195 C 122.451 0.919286 -1.80431 0
M  V30 1196 C 122.779 1.83393 -0.647866 0
M  V30 1197 O 122.034 1.92236 0.366556 0
M  V30 1198 C 122.333 1.77031 -3.10475 0
M  V30 1199 C 121.999 1.00693 -4.39513 0
M  V30 1200 C 120.661 0.796145 -4.74568 0
M  V30 1201 C 123.013 0.469559 -5.19081 0
M  V30 1202 C 120.341 0.0364588 -5.86689 0
M  V30 1203 C 122.693 -0.2769 -6.31994 0
M  V30 1204 C 121.357 -0.49873 -6.65634 0
M  V30 1205 H 120.627 0.336391 -0.660244 0
M  V30 1206 H 123.274 0.185872 -1.90596 0
M  V30 1207 H 121.579 2.5723 -2.95533 0
M  V30 1208 H 123.276 2.33065 -3.26315 0
M  V30 1209 H 119.866 1.18122 -4.12001 0
M  V30 1210 H 124.05 0.619816 -4.92414 0
M  V30 1211 H 119.306 -0.145412 -6.11227 0
M  V30 1212 H 123.48 -0.700684 -6.92866 0
M  V30 1213 H 121.107 -1.0893 -7.52355 0
M  V30 1214 N 122.682 1.50554 0.465978 0
M  V30 1215 C 123.93 1.61479 1.21528 0
M  V30 1216 C 124.251 0.319596 1.92363 0
M  V30 1217 O 123.521 -0.663194 1.84333 0
M  V30 1218 H 122.101 0.595055 0.451573 0
M  V30 1219 H 124.763 1.87355 0.53704 0
M  V30 1220 H 123.859 2.42846 1.96042 0
M  V30 1221 N 124.16 -0.719506 1.40217 0
M  V30 1222 C 125.408 -1.47641 1.3801 0
M  V30 1223 C 125.729 -1.94992 -0.018145 0
M  V30 1224 O 124.999 -1.70073 -0.972207 0
M  V30 1225 H 123.579 -0.547744 0.507923 0
M  V30 1226 H 126.241 -0.853187 1.75233 0
M  V30 1227 H 125.337 -2.35112 2.05253 0
M  V30 1228 N 125.638 -1.25649 -0.95132 0
M  V30 1229 C 126.866 -1.13343 -1.73092 0
M  V30 1230 C 127.281 0.312434 -1.86197 0
M  V30 1231 O 126.638 1.21465 -1.36207 0
M  V30 1232 C 126.689 -1.78602 -3.14299 0
M  V30 1233 O 126.41 -3.17537 -3.01831 0
M  V30 1234 C 127.911 -1.72119 -4.08522 0
M  V30 1235 H 125.131 -0.395181 -0.542285 0
M  V30 1236 H 127.675 -1.66076 -1.19328 0
M  V30 1237 H 125.83 -1.29832 -3.64996 0
M  V30 1238 H 126.244 -3.49676 -3.90931 0
M  V30 1239 H 127.718 -2.22435 -5.052 0
M  V30 1240 H 128.195 -0.685635 -4.33815 0
M  V30 1241 H 128.801 -2.20393 -3.63741 0
M  V30 1242 N 127.117 1.15442 -1.07289 0
M  V30 1243 C 128.345 1.90096 -0.81676 0
M  V30 1244 C 128.76 1.7798 0.629966 0
M  V30 1245 O 128.117 1.1313 1.43206 0
M  V30 1246 C 128.168 3.40466 -1.21512 0
M  V30 1247 O 127.889 3.52232 -2.60508 0
M  V30 1248 C 129.39 4.32145 -0.988198 0
M  V30 1249 H 126.61 0.602495 -0.295366 0
M  V30 1250 H 129.154 1.4627 -1.42918 0
M  V30 1251 H 127.309 3.81958 -0.647039 0
M  V30 1252 H 127.723 4.45549 -2.76742 0
M  V30 1253 H 129.197 5.36072 -1.31645 0
M  V30 1254 H 129.674 4.39135 0.0755063 0
M  V30 1255 H 130.28 3.96395 -1.54115 0
M  V30 1256 N 128.595 0.856903 1.32268 0
M  V30 1257 C 129.823 0.475439 2.01363 0
M  V30 1258 C 130.238 -0.928486 1.64392 0
M  V30 1259 O 129.595 -1.60624 0.866387 0
M  V30 1260 C 129.646 0.607545 3.56358 0
M  V30 1261 O 129.367 1.95617 3.92002 0
M  V30 1262 C 130.868 0.225382 4.42727 0
M  V30 1263 H 128.088 0.186636 0.644521 0
M  V30 1264 H 130.632 1.15446 1.68797 0
M  V30 1265 H 128.787 -0.0237719 3.87393 0
M  V30 1266 H 129.201 1.95455 4.86721 0
M  V30 1267 H 130.675 0.368813 5.50767 0
M  V30 1268 H 131.152 -0.834369 4.31202 0
M  V30 1269 H 131.758 0.831864 4.17085 0
M  V30 1270 N 130.073 -1.45103 0.615059 0
M  V30 1271 C 131.322 -2.01396 0.110718 0
M  V30 1272 C 131.635 -1.48834 -1.26916 0
M  V30 1273 O 132.841 -1.97152 -1.86664 0
M  V30 1274 C 131.297 -3.59599 0.14723 0
M  V30 1275 C 130.905 -4.21158 1.52743 0
M  V30 1276 C 132.649 -4.23428 -0.30148 0
M  V30 1277 C 130.556 -5.71535 1.51992 0
M  V30 1278 H 129.486 -0.753061 0.0376241 0
M  V30 1279 H 132.137 -1.66494 0.77149 0
M  V30 1280 H 130.519 -3.91724 -0.580339 0
M  V30 1281 H 131.693 -4.00594 2.2773 0
M  V30 1282 H 130.008 -3.69552 1.91886 0
M  V30 1283 H 132.605 -5.33703 -0.326392 0
M  V30 1284 H 132.948 -3.94629 -1.32565 0
M  V30 1285 H 133.481 -3.96047 0.373065 0
M  V30 1286 H 130.22 -6.05044 2.52193 0
M  V30 1287 H 129.74 -5.94268 0.81274 0
M  V30 1288 H 131.419 -6.34873 1.24681 0
M  V30 1289 N 131.551 -0.354651 -1.53558 0
M  V30 1290 C 132.8 0.239504 -2.00273 0
M  V30 1291 C 133.113 1.50759 -1.24623 0
M  V30 1292 O 134.319 2.17968 -1.61871 0
M  V30 1293 C 132.775 0.477341 -3.5672 0
M  V30 1294 C 132.383 -0.775488 -4.41237 0
M  V30 1295 C 134.127 1.02975 -4.11821 0
M  V30 1296 C 132.034 -0.507838 -5.89216 0
M  V30 1297 H 130.964 0.0932743 -0.748208 0
M  V30 1298 H 133.615 -0.471701 -1.77334 0
M  V30 1299 H 131.997 1.24953 -3.7577 0
M  V30 1300 H 133.171 -1.54963 -4.33962 0
M  V30 1301 H 131.486 -1.25033 -3.97185 0
M  V30 1302 H 134.083 1.24513 -5.2 0
M  V30 1303 H 134.426 1.98862 -3.65731 0
M  V30 1304 H 134.959 0.317994 -3.96527 0
M  V30 1305 H 131.698 -1.43674 -6.39561 0
M  V30 1306 H 131.218 0.228011 -5.99366 0
M  V30 1307 H 132.897 -0.129238 -6.46871 0
M  V30 1308 N 133.029 1.57378 -0.0835403 0
M  V30 1309 C 134.306 1.85363 0.624507 0
M  V30 1310 C 134.686 0.978239 1.87066 0
M  V30 1311 O 134.034 0.0475908 2.2845 0
M  V30 1312 C 134.244 3.35795 0.950947 0
M  V30 1313 C 135.592 4.03581 1.31939 0
M  V30 1314 O 136.616 3.40609 1.04232 0
M  V30 1315 O 135.475 5.14672 1.83779 0
M  V30 1316 H 132.569 0.766162 0.311329 0
M  V30 1317 H 135.115 1.69307 -0.115362 0
M  V30 1318 H 133.887 3.91244 0.0663899 0
M  V30 1319 H 133.51 3.57154 1.74719 0
M  V30 1320 N 134.507 -0.190092 1.56449 0
M  V30 1321 C 135.754 -0.909705 1.80916 0
M  V30 1322 C 136.082 -1.83047 0.657583 0
M  V30 1323 O 135.337 -1.92428 -0.356356 0
M  V30 1324 C 135.636 -1.75382 3.1141 0
M  V30 1325 C 135.302 -0.983606 4.40041 0
M  V30 1326 C 133.964 -0.770967 4.74984 0
M  V30 1327 C 136.316 -0.442024 5.19322 0
M  V30 1328 C 133.644 -0.0053448 5.867 0
M  V30 1329 C 135.996 0.310412 6.31838 0
M  V30 1330 C 134.66 0.534023 6.6536 0
M  V30 1331 H 133.93 -0.332885 0.662019 0
M  V30 1332 H 136.577 -0.175762 1.90692 0
M  V30 1333 H 134.882 -2.55659 2.96893 0
M  V30 1334 H 136.579 -2.31331 3.27547 0
M  V30 1335 H 133.169 -1.15936 4.12622 0
M  V30 1336 H 137.353 -0.593693 4.92736 0
M  V30 1337 H 132.609 0.177825 6.11141 0
M  V30 1338 H 136.783 0.737419 6.92485 0
M  V30 1339 H 134.41 1.12918 7.51767 0
M  V30 1340 N 135.985 -1.50799 -0.457987 0
M  V30 1341 C 137.225 -1.64088 -1.21879 0
M  V30 1342 C 137.589 -0.339848 -1.88968 0
M  V30 1343 O 138.79 -0.348301 -2.66534 0
M  V30 1344 C 137.061 -2.79726 -2.2246 0
M  V30 1345 S 138.62 -3.13225 -3.07303 0
M  V30 1346 H 135.438 -0.578314 -0.41361 0
M  V30 1347 H 138.04 -1.88632 -0.513645 0
M  V30 1348 H 136.744 -3.72722 -1.71775 0
M  V30 1349 H 136.275 -2.57308 -2.97584 0
M  V30 1350 H 138.29 -2.58062 -4.23814 0
M  V30 1351 N 137.463 0.71206 -1.40597 0
M  V30 1352 C 138.393 1.83889 -1.43899 0
M  V30 1353 C 139.374 1.67442 -0.299504 0
M  V30 1354 O 140.559 1.87421 -0.508624 0
M  V30 1355 C 137.689 3.21877 -1.30431 0
M  V30 1356 C 136.643 3.53002 -2.42019 0
M  V30 1357 C 135.969 4.90172 -2.13626 0
M  V30 1358 C 137.269 3.53643 -3.84362 0
M  V30 1359 H 138.963 1.81383 -2.38203 0
M  V30 1360 H 136.509 0.871237 -1.14654 0
M  V30 1361 H 138.462 4.00404 -1.31357 0
M  V30 1362 H 137.186 3.24968 -0.326049 0
M  V30 1363 H 135.845 2.76818 -2.40349 0
M  V30 1364 H 135.493 4.89869 -1.14182 0
M  V30 1365 H 135.193 5.11962 -2.88389 0
M  V30 1366 H 136.717 5.71028 -2.1624 0
M  V30 1367 H 138.131 4.22203 -3.87837 0
M  V30 1368 H 136.528 3.86961 -4.58673 0
M  V30 1369 H 137.598 2.52954 -4.13693 0
M  V30 1370 N 138.941 1.26152 0.944643 0
M  V30 1371 C 140.169 1.14259 1.72489 0
M  V30 1372 C 140.584 -0.302555 1.8636 0
M  V30 1373 O 139.941 -1.20741 1.36849 0
M  V30 1374 C 139.992 1.80266 3.13347 0
M  V30 1375 O 139.713 3.19133 3.00143 0
M  V30 1376 C 141.214 1.74283 4.07603 0
M  V30 1377 H 138.434 0.398051 0.540181 0
M  V30 1378 H 140.978 1.66706 1.18446 0
M  V30 1379 H 139.133 1.31766 3.64303 0
M  V30 1380 H 139.547 3.51744 3.89071 0
M  V30 1381 H 141.021 2.25111 5.04013 0
M  V30 1382 H 141.498 0.708631 4.33446 0
M  V30 1383 H 142.104 2.22319 3.62567 0
M  V30 1384 N 140.419 -1.14872 1.07899 0
M  V30 1385 C 141.367 -2.21857 0.698727 0
M  V30 1386 C 142.361 -1.66845 -0.293086 0
M  V30 1387 O 143.567 -1.79321 -0.156204 0
M  V30 1388 H 139.942 -0.722691 0.207899 0
M  V30 1389 H 141.913 -2.51205 1.61054 0
M  V30 1390 C 140.662 -3.47498 0.11858 0
M  V30 1391 H 139.985 -3.90154 0.872914 0
M  V30 1392 H 141.425 -4.23858 -0.109759 0
M  V30 1393 C 139.884 -3.16947 -1.1422 0
M  V30 1394 O 140.414 -3.3426 -2.22785 0
M  V30 1395 N 138.62 -2.70946 -1.05055 0
M  V30 1396 H 138.167 -2.57058 -0.167038 0
M  V30 1397 H 138.125 -2.50879 -1.89491 0
M  V30 1398 N 141.898 -0.863906 -1.31812 0
M  V30 1399 C 142.845 -0.313303 -2.28664 0
M  V30 1400 C 143.815 0.584868 -1.55462 0
M  V30 1401 O 145 0.517805 -1.83639 0
M  V30 1402 C 142.14 0.48441 -3.41683 0
M  V30 1403 C 141.253 -0.440594 -4.29747 0
M  V30 1404 C 140.388 0.370652 -5.29905 0
M  V30 1405 C 139.427 -0.551164 -6.09613 0
M  V30 1406 N 138.564 0.223462 -7.01744 0
M  V30 1407 H 143.404 -1.14444 -2.75148 0
M  V30 1408 H 140.941 -0.575769 -1.35364 0
M  V30 1409 H 142.899 0.962627 -4.05943 0
M  V30 1410 H 141.529 1.28029 -2.96325 0
M  V30 1411 H 140.581 -1.03724 -3.65986 0
M  V30 1412 H 141.893 -1.14767 -4.85417 0
M  V30 1413 H 141.047 0.911638 -5.99812 0
M  V30 1414 H 139.786 1.11105 -4.74876 0
M  V30 1415 H 138.791 -1.10396 -5.38603 0
M  V30 1416 H 140.016 -1.29032 -6.66729 0
M  V30 1417 H 137.962 0.946787 -6.49132 0
M  V30 1418 H 137.879 -0.424399 -7.54808 0
M  V30 1419 H 139.147 0.745876 -7.75923 0
M  V30 1420 N 143.376 1.44774 -0.622745 0
M  V30 1421 C 144.624 2.01721 -0.123655 0
M  V30 1422 C 144.945 1.49172 1.25589 0
M  V30 1423 O 144.215 0.691974 1.83272 0
M  V30 1424 H 142.795 0.745777 -0.0427225 0
M  V30 1425 H 145.457 1.77382 -0.807559 0
M  V30 1426 H 144.553 3.11984 -0.0849534 0
M  V30 1427 N 144.854 0.36279 1.53368 0
M  V30 1428 C 145.764 -0.492994 2.29362 0
M  V30 1429 C 146.78 -1.09507 1.35219 0
M  V30 1430 O 147.956 -1.10662 1.68273 0
M  V30 1431 C 145.021 -1.61855 3.066 0
M  V30 1432 C 144.082 -1.04429 4.16405 0
M  V30 1433 C 143.315 -2.11621 4.89951 0
M  V30 1434 O 143.538 -3.32684 4.63333 0
M  V30 1435 O 142.472 -1.74835 5.75948 0
M  V30 1436 H 146.298 0.125331 3.03441 0
M  V30 1437 H 143.883 0.127253 1.48857 0
M  V30 1438 H 145.765 -2.27302 3.54841 0
M  V30 1439 H 144.44 -2.22233 2.3536 0
M  V30 1440 H 143.347 -0.353819 3.72423 0
M  V30 1441 H 144.68 -0.485113 4.89804 0
M  V30 1442 N 146.332 -1.57332 0.0918853 0
M  V30 1443 C 147.743 -1.81496 -0.437739 0
M  V30 1444 C 148.094 -1.00727 -1.6837 0
M  V30 1445 O 147.219 -0.235694 -2.15113 0
M  V30 1446 C 147.814 -3.29197 -0.800939 0
M  V30 1447 C 146.373 -3.54136 -1.27532 0
M  V30 1448 C 145.52 -2.75979 -0.270392 0
M  V30 1449 H 148.471 -1.55494 0.317366 0
M  V30 1450 H 148.492 -3.42344 -1.66074 0
M  V30 1451 H 148.004 -3.87955 0.106078 0
M  V30 1452 H 146.105 -3.00705 -2.20016 0
M  V30 1453 H 146.218 -4.62792 -1.23938 0
M  V30 1454 H 144.582 -2.43349 -0.751872 0
M  V30 1455 H 145.365 -3.37484 0.629248 0
M  V30 1456 N 147.81 0.181792 -1.56548 0
M  V30 1457 C 148.74 1.22765 -1.98623 0
M  V30 1458 C 149.721 1.46747 -0.860189 0
M  V30 1459 O 150.906 1.58259 -1.12551 0
M  V30 1460 C 148.036 2.56894 -2.33715 0
M  V30 1461 C 146.99 2.475 -3.49182 0
M  V30 1462 C 146.316 3.86023 -3.69986 0
M  V30 1463 C 147.616 1.98866 -4.82959 0
M  V30 1464 H 149.31 0.877942 -2.86239 0
M  V30 1465 H 146.856 0.42088 -1.37712 0
M  V30 1466 H 148.809 3.30253 -2.61746 0
M  V30 1467 H 147.533 2.93632 -1.42997 0
M  V30 1468 H 146.192 1.76596 -3.21262 0
M  V30 1469 H 145.84 4.20136 -2.76576 0
M  V30 1470 H 145.54 3.80609 -4.47672 0
M  V30 1471 H 147.064 4.60984 -4.00407 0
M  V30 1472 H 148.478 2.61992 -5.09934 0
M  V30 1473 H 146.875 2.04424 -5.64208 0
M  V30 1474 H 147.945 0.942465 -4.75653 0
M  V30 1475 N 149.288 1.51039 0.449983 0
M  V30 1476 C 150.235 1.71439 1.54523 0
M  V30 1477 C 151.205 0.555871 1.56522 0
M  V30 1478 O 152.39 0.788871 1.73728 0
M  V30 1479 C 149.53 1.83384 2.92343 0
M  V30 1480 C 148.643 3.10873 2.9997 0
M  V30 1481 C 147.778 3.13488 4.28834 0
M  V30 1482 C 146.817 4.35343 4.30282 0
M  V30 1483 N 145.954 4.35579 5.5065 0
M  V30 1484 H 150.794 2.64934 1.36433 0
M  V30 1485 H 148.331 1.31312 0.662982 0
M  V30 1486 H 150.289 1.88291 3.72293 0
M  V30 1487 H 148.919 0.933086 3.0902 0
M  V30 1488 H 147.971 3.15336 2.12761 0
M  V30 1489 H 149.283 4.00814 2.96901 0
M  V30 1490 H 148.437 3.17241 5.17149 0
M  V30 1491 H 147.176 2.21414 4.34543 0
M  V30 1492 H 146.181 4.3178 3.40362 0
M  V30 1493 H 147.406 5.28668 4.26248 0
M  V30 1494 H 145.352 3.46369 5.57104 0
M  V30 1495 H 145.269 5.19313 5.49409 0
M  V30 1496 H 146.537 4.43507 6.41032 0
M  V30 1497 N 150.766 -0.704594 1.40972 0
M  V30 1498 C 151.713 -1.81862 1.42109 0
M  V30 1499 C 152.683 -1.63781 0.276593 0
M  V30 1500 O 153.868 -1.84759 0.4763 0
M  V30 1501 C 151.008 -3.19669 1.30022 0
M  V30 1502 C 150.121 -3.49246 2.54267 0
M  V30 1503 C 149.256 -4.76618 2.3454 0
M  V30 1504 C 148.295 -4.99133 3.54306 0
M  V30 1505 N 147.432 -6.17726 3.33706 0
M  V30 1506 H 152.272 -1.80226 2.37324 0
M  V30 1507 H 149.809 -0.880238 1.17857 0
M  V30 1508 H 151.767 -3.99263 1.21018 0
M  V30 1509 H 150.397 -3.20506 0.384192 0
M  V30 1510 H 149.449 -2.64125 2.73756 0
M  V30 1511 H 150.761 -3.61788 3.43381 0
M  V30 1512 H 149.915 -5.64249 2.22952 0
M  V30 1513 H 148.654 -4.66305 1.42867 0
M  V30 1514 H 147.659 -4.09953 3.66359 0
M  V30 1515 H 148.884 -5.11311 4.4692 0
M  V30 1516 H 146.83 -6.08642 2.44725 0
M  V30 1517 H 146.747 -6.30995 4.16391 0
M  V30 1518 H 148.015 -7.08115 3.25873 0
M  V30 1519 N 152.244 -1.26651 -0.937939 0
M  V30 1520 C 153.207 -1.08546 -2.01867 0
M  V30 1521 C 154.207 -0.0327327 -1.60767 0
M  V30 1522 O 155.397 -0.276427 -1.71993 0
M  V30 1523 C 152.529 -0.651711 -3.34613 0
M  V30 1524 H 153.722 -2.04502 -2.1936 0
M  V30 1525 H 151.275 -1.09294 -1.11734 0
M  V30 1526 H 152.01 0.309696 -3.22818 0
M  V30 1527 H 151.795 -1.41189 -3.65798 0
M  V30 1528 H 153.285 -0.546973 -4.14002 0
M  V30 1529 N 153.722 1.14298 -1.08507 0
M  V30 1530 C 154.971 1.84708 -0.810305 0
M  V30 1531 C 155.284 1.83903 0.666271 0
M  V30 1532 O 156.49 2.50112 1.05624 0
M  V30 1533 C 154.946 3.31572 -1.39957 0
M  V30 1534 C 154.554 3.40791 -2.90801 0
M  V30 1535 C 156.298 4.07087 -1.20334 0
M  V30 1536 C 154.205 4.81872 -3.4286 0
M  V30 1537 H 153.135 0.691985 -0.299454 0
M  V30 1538 H 155.786 1.28841 -1.30661 0
M  V30 1539 H 154.168 3.87183 -0.830976 0
M  V30 1540 H 155.342 2.95225 -3.53806 0
M  V30 1541 H 153.657 2.78732 -3.0935 0
M  V30 1542 H 156.254 5.11225 -1.56693 0
M  V30 1543 H 156.597 4.16054 -0.143237 0
M  V30 1544 H 157.13 3.57779 -1.73893 0
M  V30 1545 H 153.869 4.78094 -4.48449 0
M  V30 1546 H 153.389 5.27972 -2.84615 0
M  V30 1547 H 155.068 5.50765 -3.39509 0
M  V30 1548 N 155.201 0.870884 1.31352 0
M  V30 1549 C 156.111 0.330783 2.32256 0
M  V30 1550 C 157.127 -0.559767 1.6475 0
M  V30 1551 O 158.303 -0.456263 1.96164 0
M  V30 1552 C 155.368 -0.458137 3.4366 0
M  V30 1553 C 154.429 0.460482 4.26823 0
M  V30 1554 C 153.662 -0.290881 5.32907 0
M  V30 1555 O 153.885 -1.51885 5.49806 0
M  V30 1556 O 152.819 0.351732 6.00871 0
M  V30 1557 H 156.645 1.16718 2.80376 0
M  V30 1558 H 154.23 0.634285 1.35267 0
M  V30 1559 H 156.112 -0.905343 4.1156 0
M  V30 1560 H 154.787 -1.27106 2.97701 0
M  V30 1561 H 153.694 0.956207 3.61673 0
M  V30 1562 H 155.027 1.23903 4.7635 0
M  V30 1563 N 156.679 -1.44442 0.630414 0
M  V30 1564 C 157.907 -2.06414 0.141671 0
M  V30 1565 C 158.322 -1.47105 -1.18345 0
M  V30 1566 O 157.679 -0.593662 -1.72574 0
M  V30 1567 C 157.73 -3.61494 0.0199784 0
M  V30 1568 O 157.451 -4.18594 1.29269 0
M  V30 1569 C 158.952 -4.40499 -0.497544 0
M  V30 1570 H 156.172 -0.666292 0.0793452 0
M  V30 1571 H 158.716 -1.85323 0.864614 0
M  V30 1572 H 156.871 -3.8185 -0.653402 0
M  V30 1573 H 157.285 -5.12026 1.13707 0
M  V30 1574 H 158.759 -5.49433 -0.531708 0
M  V30 1575 H 159.236 -4.11895 -1.52445 0
M  V30 1576 H 159.842 -4.25061 0.142562 0
M  V30 1577 N 158.157 -0.370918 -1.53173 0
M  V30 1578 C 159.403 0.209976 -2.02313 0
M  V30 1579 C 159.758 1.45987 -1.25322 0
M  V30 1580 O 159.051 1.8856 -0.339965 0
M  V30 1581 C 159.245 0.549696 -3.53147 0
M  V30 1582 C 159.074 -0.665721 -4.44745 0
M  V30 1583 C 157.844 -1.17942 -4.91343 0
M  V30 1584 C 160.042 -1.53255 -4.90935 0
M  V30 1585 N 158.024 -2.35431 -5.66962 0
M  V30 1586 C 159.395 -2.55403 -5.64951 0
M  V30 1587 C 161.45 -1.5548 -4.73002 0
M  V30 1588 C 160.153 -3.5964 -6.22938 0
M  V30 1589 C 162.179 -2.58613 -5.31858 0
M  V30 1590 C 161.541 -3.59485 -6.05764 0
M  V30 1591 H 157.64 0.0394095 -0.781006 0
M  V30 1592 H 160.224 -0.516666 -1.8772 0
M  V30 1593 H 158.395 1.24541 -3.67891 0
M  V30 1594 H 160.127 1.11614 -3.89004 0
M  V30 1595 H 156.882 -0.743228 -4.67732 0
M  V30 1596 H 157.306 -2.94827 -6.09431 0
M  V30 1597 H 161.948 -0.788457 -4.15383 0
M  V30 1598 H 159.666 -4.37153 -6.79649 0
M  V30 1599 H 163.252 -2.61195 -5.19873 0
M  V30 1600 H 162.132 -4.3798 -6.50495 0
M  V30 1601 N 159.635 1.57281 -0.100228 0
M  V30 1602 C 160.585 2.10848 0.86759 0
M  V30 1603 C 161.569 1.02473 1.24049 0
M  V30 1604 O 162.761 1.28739 1.21471 0
M  V30 1605 C 159.89 2.69648 2.12474 0
M  V30 1606 C 158.976 3.85074 1.77704 0
M  V30 1607 N 159.367 4.92897 1.13518 0
M  V30 1608 C 157.665 3.94905 2.07282 0
M  V30 1609 C 158.366 5.73475 0.974735 0
M  V30 1610 N 157.342 5.22675 1.4937 0
M  V30 1611 H 161.144 2.91594 0.367471 0
M  V30 1612 H 158.658 1.62074 0.102829 0
M  V30 1613 H 160.655 3.06356 2.82757 0
M  V30 1614 H 159.315 1.90359 2.63047 0
M  V30 1615 H 160.326 5.11662 0.801381 0
M  V30 1616 H 157.003 3.26633 2.60033 0
M  V30 1617 H 158.393 6.70238 0.472364 0
M  V30 1618 N 161.113 -0.173488 1.56642 0
M  V30 1619 C 162.061 -1.23417 1.97157 0
M  V30 1620 C 163.055 -1.45946 0.860013 0
M  V30 1621 O 164.261 -1.46551 1.04512 0
M  V30 1622 H 160.636 -0.414818 0.62724 0
M  V30 1623 H 162.607 -0.865582 2.8557 0
M  V30 1624 C 161.356 -2.5665 2.34576 0
M  V30 1625 H 160.679 -2.40137 3.19647 0
M  V30 1626 H 162.119 -3.2956 2.6677 0
M  V30 1627 C 160.578 -3.15245 1.18836 0
M  V30 1628 O 161.108 -3.98883 0.474869 0
M  V30 1629 N 159.314 -2.74303 0.959497 0
M  V30 1630 H 158.861 -2.0639 1.54146 0
M  V30 1631 H 158.819 -3.13844 0.186932 0
M  V30 1632 N 162.591 -1.51276 -0.441967 0
M  V30 1633 C 163.538 -1.72256 -1.53612 0
M  V30 1634 C 164.508 -0.564164 -1.56225 0
M  V30 1635 O 165.693 -0.798074 -1.73307 0
M  V30 1636 C 162.833 -1.84932 -2.91366 0
M  V30 1637 C 161.946 -3.12459 -2.98317 0
M  V30 1638 C 161.081 -3.15758 -4.27166 0
M  V30 1639 C 160.12 -4.37619 -4.27967 0
M  V30 1640 N 159.257 -4.38493 -5.48333 0
M  V30 1641 H 164.097 -2.65654 -1.35026 0
M  V30 1642 H 161.634 -1.31662 -0.656009 0
M  V30 1643 H 163.592 -1.90263 -3.7129 0
M  V30 1644 H 162.222 -0.949461 -3.08521 0
M  V30 1645 H 161.274 -3.1646 -2.11086 0
M  V30 1646 H 162.586 -4.02382 -2.94771 0
M  V30 1647 H 161.74 -3.19979 -5.15459 0
M  V30 1648 H 160.479 -2.23715 -4.33362 0
M  V30 1649 H 159.484 -4.33579 -3.38067 0
M  V30 1650 H 160.709 -5.30921 -4.23438 0
M  V30 1651 H 158.655 -3.49318 -5.55259 0
M  V30 1652 H 158.572 -5.22219 -5.46647 0
M  V30 1653 H 159.84 -4.469 -6.38671 0
M  V30 1654 N 164.069 0.697108 -1.41344 0
M  V30 1655 C 165.032 1.79281 -1.42797 0
M  V30 1656 C 166.032 1.57607 -0.318837 0
M  V30 1657 O 167.222 1.64309 -0.578642 0
M  V30 1658 C 164.354 3.17632 -1.23785 0
M  V30 1659 H 165.547 1.79385 -2.40335 0
M  V30 1660 H 163.1 0.904582 -1.27464 0
M  V30 1661 H 163.835 3.23167 -0.270814 0
M  V30 1662 H 163.62 3.34765 -2.04144 0
M  V30 1663 H 165.11 3.97617 -1.27633 0
M  V30 1664 N 165.547 1.27147 0.931209 0
M  V30 1665 C 166.775 1.16082 1.71267 0
M  V30 1666 C 167.19 -0.282772 1.8667 0
M  V30 1667 O 166.547 -1.19283 1.38122 0
M  V30 1668 C 166.598 1.8358 3.11417 0
M  V30 1669 O 166.319 3.22299 2.96741 0
M  V30 1670 C 167.82 1.78597 4.05732 0
M  V30 1671 H 165.04 0.403758 0.535929 0
M  V30 1672 H 167.584 1.67953 1.16671 0
M  V30 1673 H 165.739 1.35623 3.62885 0
M  V30 1674 H 166.153 3.55851 3.85319 0
M  V30 1675 H 167.627 2.30444 5.01597 0
M  V30 1676 H 168.104 0.754564 4.3267 0
M  V30 1677 H 168.71 2.26152 3.60188 0
M  V30 1678 N 167.025 -1.13721 1.09112 0
M  V30 1679 C 168.273 -1.84559 0.823562 0
M  V30 1680 C 168.594 -1.83754 -0.652658 0
M  V30 1681 O 167.864 -1.29102 -1.47342 0
M  V30 1682 H 166.444 -0.683376 0.301673 0
M  V30 1683 H 169.106 -1.37771 1.37859 0
M  V30 1684 H 168.202 -2.8917 1.17419 0
M  V30 1685 N 168.503 -0.877838 -1.30888 0
M  V30 1686 C 169.45 -0.337538 -2.28318 0
M  V30 1687 C 170.42 0.568346 -1.56074 0
M  V30 1688 O 171.605 0.498298 -1.84178 0
M  V30 1689 C 168.745 0.448142 -3.42178 0
M  V30 1690 C 167.858 -0.48615 -4.29256 0
M  V30 1691 C 166.993 0.314427 -5.30269 0
M  V30 1692 C 166.032 -0.615791 -6.08995 0
M  V30 1693 N 165.169 0.14902 -7.01942 0
M  V30 1694 H 170.009 -1.17356 -2.73919 0
M  V30 1695 H 167.546 -0.590094 -1.34745 0
M  V30 1696 H 169.504 0.919517 -4.06941 0
M  V30 1697 H 168.134 1.24879 -2.97666 0
M  V30 1698 H 167.186 -1.076 -3.64865 0
M  V30 1699 H 168.498 -1.19909 -4.84173 0
M  V30 1700 H 167.652 0.847969 -6.00745 0
M  V30 1701 H 166.391 1.06062 -4.76027 0
M  V30 1702 H 165.396 -1.16102 -5.37401 0
M  V30 1703 H 166.621 -1.36097 -6.65323 0
M  V30 1704 H 164.567 0.877884 -6.50099 0
M  V30 1705 H 164.484 -0.504433 -7.54315 0
M  V30 1706 H 165.752 0.663537 -7.76671 0
M  V30 1707 N 169.982 1.44106 -0.638065 0
M  V30 1708 C 170.945 2.29138 0.0531013 0
M  V30 1709 C 171.945 1.41409 0.765506 0
M  V30 1710 O 173.135 1.63206 0.609046 0
M  V30 1711 C 170.267 3.23144 1.08584 0
M  V30 1712 H 171.46 2.91739 -0.694883 0
M  V30 1713 H 169.013 1.51134 -0.398538 0
M  V30 1714 H 169.748 2.65408 1.86357 0
M  V30 1715 H 169.533 3.87804 0.578852 0
M  V30 1716 H 171.023 3.87004 1.56899 0
M  V30 1717 N 171.46 0.379036 1.52974 0
M  V30 1718 C 172.706 -0.206727 2.01744 0
M  V30 1719 C 173.039 -1.47314 1.26539 0
M  V30 1720 O 172.314 -1.91084 0.362903 0
M  V30 1721 C 172.597 -0.485066 3.56818 0
M  V30 1722 C 172.45 0.795919 4.42702 0
M  V30 1723 C 173.769 -1.28003 4.21074 0
M  V30 1724 H 170.888 -0.0736607 0.73331 0
M  V30 1725 H 173.53 0.506581 1.83122 0
M  V30 1726 H 171.68 -1.09272 3.72816 0
M  V30 1727 H 173.352 1.43307 4.38476 0
M  V30 1728 H 171.595 1.41344 4.10127 0
M  V30 1729 H 172.266 0.555947 5.49193 0
M  V30 1730 H 174.742 -0.765867 4.08991 0
M  V30 1731 H 173.618 -1.44352 5.29579 0
M  V30 1732 H 173.879 -2.29236 3.78026 0
M  V30 1733 N 172.938 -1.57226 0.108567 0
M  V30 1734 C 174.187 -1.94008 -0.551703 0
M  V30 1735 C 174.5 -0.993442 -1.68494 0
M  V30 1736 O 175.706 -1.25551 -2.40726 0
M  V30 1737 C 174.162 -3.44763 -1.03279 0
M  V30 1738 C 173.77 -4.47943 0.0714193 0
M  V30 1739 C 175.514 -3.90483 -1.66503 0
M  V30 1740 C 173.421 -5.89865 -0.425779 0
M  V30 1741 H 172.351 -0.724206 -0.209863 0
M  V30 1742 H 175.002 -1.82547 0.186741 0
M  V30 1743 H 173.384 -3.51422 -1.82533 0
M  V30 1744 H 174.558 -4.52942 0.847365 0
M  V30 1745 H 172.873 -4.11913 0.609669 0
M  V30 1746 H 175.47 -4.93925 -2.04798 0
M  V30 1747 H 175.813 -3.29877 -2.53942 0
M  V30 1748 H 176.346 -3.86581 -0.938074 0
M  V30 1749 H 173.085 -6.54202 0.412316 0
M  V30 1750 H 172.605 -5.88309 -1.16843 0
M  V30 1751 H 174.284 -6.40844 -0.890397 0
M  V30 1752 N 174.416 0.165178 -1.56732 0
M  V30 1753 C 175.693 0.908443 -1.73224 0
M  V30 1754 C 176.073 2.0013 -0.67165 0
M  V30 1755 O 175.421 2.26353 0.31253 0
M  V30 1756 C 175.631 1.46756 -3.16644 0
M  V30 1757 C 176.979 1.93809 -3.77787 0
M  V30 1758 O 178.003 1.56537 -3.1996 0
M  V30 1759 O 176.862 2.62486 -4.79336 0
M  V30 1760 H 173.956 0.428025 -0.707618 0
M  V30 1761 H 176.502 0.152526 -1.69013 0
M  V30 1762 H 175.274 0.68129 -3.85323 0
M  V30 1763 H 174.897 2.28749 -3.25207 0
M  V30 1764 N 175.894 1.51508 0.433938 0
M  V30 1765 C 177.124 1.67914 1.20369 0
M  V30 1766 C 177.532 0.377461 1.85397 0
M  V30 1767 O 176.875 -0.654255 1.71654 0
M  V30 1768 C 176.937 2.74045 2.32679 0
M  V30 1769 C 176.601 4.16543 1.87991 0
M  V30 1770 C 177.598 5.01211 1.38145 0
M  V30 1771 C 175.283 4.6266 1.95579 0
M  V30 1772 C 177.277 6.30056 0.964774 0
M  V30 1773 C 174.964 5.91501 1.53523 0
M  V30 1774 C 175.962 6.75027 1.04055 0
M  V30 1775 O 175.65 8.01459 0.625964 0
M  V30 1776 H 175.382 0.566578 0.368735 0
M  V30 1777 H 177.936 1.98709 0.51999 0
M  V30 1778 H 176.166 2.38572 3.04336 0
M  V30 1779 H 177.855 2.79295 2.94532 0
M  V30 1780 H 178.621 4.66783 1.31675 0
M  V30 1781 H 174.5 3.97767 2.33029 0
M  V30 1782 H 178.044 6.95202 0.57796 0
M  V30 1783 H 173.941 6.25442 1.59665 0
M  V30 1784 H 174.709 8.15043 0.751509 0
M  V30 1785 N 177.372 -0.689602 1.41712 0
M  V30 1786 C 178.62 -1.4468 1.4111 0
M  V30 1787 C 178.941 -1.94986 0.0232196 0
M  V30 1788 O 178.211 -1.72097 -0.935913 0
M  V30 1789 H 176.791 -0.536847 0.519427 0
M  V30 1790 H 179.453 -0.815825 1.77004 0
M  V30 1791 H 178.549 -2.30706 2.10193 0
M  V30 1792 N 178.85 -1.27639 -0.924453 0
M  V30 1793 C 180.097 -1.14167 -1.67249 0
M  V30 1794 C 180.425 0.311863 -1.91984 0
M  V30 1795 O 179.68 1.24425 -1.51053 0
M  V30 1796 C 179.979 -1.87407 -3.04325 0
M  V30 1797 C 179.645 -3.37249 -2.99289 0
M  V30 1798 C 178.307 -3.7812 -2.97622 0
M  V30 1799 C 180.659 -4.32845 -2.90336 0
M  V30 1800 C 177.987 -5.12944 -2.8479 0
M  V30 1801 C 180.339 -5.6773 -2.79045 0
M  V30 1802 C 179.003 -6.07889 -2.7573 0
M  V30 1803 H 178.273 -0.417766 -0.612007 0
M  V30 1804 H 180.92 -1.58286 -1.07786 0
M  V30 1805 H 179.225 -1.35805 -3.67511 0
M  V30 1806 H 180.922 -1.74408 -3.61086 0
M  V30 1807 H 177.512 -3.04748 -3.01374 0
M  V30 1808 H 181.696 -4.02239 -2.90719 0
M  V30 1809 H 176.952 -5.432 -2.80612 0
M  V30 1810 H 181.126 -6.41472 -2.71083 0
M  V30 1811 H 178.753 -7.12314 -2.65544 0
M  V30 1812 N 180.328 1.1314 -1.09713 0
M  V30 1813 C 181.278 2.16709 -0.708593 0
M  V30 1814 C 182.262 1.58471 0.278523 0
M  V30 1815 O 183.454 1.76779 0.088427 0
M  V30 1816 C 180.583 3.43039 -0.133923 0
M  V30 1817 C 179.669 4.08277 -1.14763 0
M  V30 1818 N 180.06 4.48637 -2.33577 0
M  V30 1819 C 178.358 4.34954 -0.986446 0
M  V30 1820 C 179.059 4.9952 -2.98085 0
M  V30 1821 N 178.035 4.94561 -2.25632 0
M  V30 1822 H 181.837 2.45672 -1.61315 0
M  V30 1823 H 179.351 1.29967 -0.973775 0
M  V30 1824 H 181.348 4.16583 0.162465 0
M  V30 1825 H 180.008 3.15549 0.765447 0
M  V30 1826 H 181.019 4.41246 -2.7115 0
M  V30 1827 H 177.696 4.17258 -0.142008 0
M  V30 1828 H 179.086 5.40521 -3.99108 0
M  V30 1829 N 181.806 0.884767 1.30421 0
M  V30 1830 C 182.736 0.367574 2.30589 0
M  V30 1831 C 183.717 -0.549464 1.60981 0
M  V30 1832 O 184.902 -0.46336 1.88591 0
M  V30 1833 C 182.032 -0.418944 3.44764 0
M  V30 1834 C 180.986 0.406316 4.26067 0
M  V30 1835 C 180.312 -0.506793 5.32293 0
M  V30 1836 C 181.612 1.64832 4.95608 0
M  V30 1837 H 183.306 1.20462 2.74097 0
M  V30 1838 H 180.852 0.580695 1.31772 0
M  V30 1839 H 182.805 -0.791395 4.13902 0
M  V30 1840 H 181.529 -1.28964 3.0006 0
M  V30 1841 H 180.188 0.760903 3.58617 0
M  V30 1842 H 179.836 -1.37519 4.83836 0
M  V30 1843 H 179.536 0.0415828 5.87585 0
M  V30 1844 H 181.06 -0.875764 6.04287 0
M  V30 1845 H 182.474 1.34646 5.57264 0
M  V30 1846 H 180.871 2.13688 5.60765 0
M  V30 1847 H 181.941 2.39284 4.21748 0
M  V30 1848 N 183.284 -1.43765 0.645699 0
M  V30 1849 C 184.217 -2.2798 -0.100072 0
M  V30 1850 C 185.195 -1.39391 -0.837194 0
M  V30 1851 O 186.379 -1.68833 -0.838306 0
M  V30 1852 C 183.506 -3.18643 -1.14823 0
M  V30 1853 C 182.552 -4.2344 -0.510009 0
M  V30 1854 S 183.385 -5.30761 0.710824 0
M  V30 1855 C 184.541 -6.24992 -0.33699 0
M  V30 1856 H 184.774 -2.90884 0.614322 0
M  V30 1857 H 182.307 -1.48166 0.434304 0
M  V30 1858 H 184.265 -3.71424 -1.74799 0
M  V30 1859 H 182.926 -2.54932 -1.8349 0
M  V30 1860 H 182.119 -4.86948 -1.29991 0
M  V30 1861 H 181.721 -3.73997 0.0154577 0
M  V30 1862 H 184.013 -6.66691 -1.20537 0
M  V30 1863 H 184.956 -7.07612 0.262879 0
M  V30 1864 H 185.364 -5.60517 -0.669425 0
M  V30 1865 N 184.763 -0.387143 -1.52771 0
M  V30 1866 C 186.012 0.19697 -2.00736 0
M  V30 1867 C 186.325 1.48082 -1.27793 0
M  V30 1868 O 187.531 2.14485 -1.66458 0
M  V30 1869 C 185.987 0.401568 -3.57653 0
M  V30 1870 C 185.595 -0.868907 -4.39493 0
M  V30 1871 C 187.339 0.942164 -4.13912 0
M  V30 1872 C 185.246 -0.632705 -5.88006 0
M  V30 1873 H 184.176 0.0773827 -0.750019 0
M  V30 1874 H 186.827 -0.50921 -1.76293 0
M  V30 1875 H 185.209 1.16954 -3.78335 0
M  V30 1876 H 186.383 -1.64133 -4.30577 0
M  V30 1877 H 184.698 -1.33429 -3.94443 0
M  V30 1878 H 187.295 1.13455 -5.22525 0
M  V30 1879 H 187.638 1.9106 -3.69867 0
M  V30 1880 H 188.171 0.233814 -3.97112 0
M  V30 1881 H 184.91 -1.57208 -6.36369 0
M  V30 1882 H 184.43 0.100825 -5.99715 0
M  V30 1883 H 186.109 -0.26642 -6.46451 0
M  V30 1884 N 186.241 1.57166 -0.116904 0
M  V30 1885 C 187.466 1.999 0.55271 0
M  V30 1886 C 187.891 0.996039 1.59564 0
M  V30 1887 O 187.249 -0.032556 1.81271 0
M  V30 1888 C 187.297 3.4152 1.15742 0
M  V30 1889 O 186.401 3.44106 2.27299 0
M  V30 1890 H 185.742 0.649447 0.138258 0
M  V30 1891 H 188.272 2.03573 -0.204759 0
M  V30 1892 H 188.282 3.79684 1.49346 0
M  V30 1893 H 186.957 4.14034 0.393493 0
M  V30 1894 H 185.534 3.17759 1.9515 0
M  V30 1895 N 187.719 -0.156864 1.56817 0
M  V30 1896 C 188.629 -1.2136 2.00771 0
M  V30 1897 C 189.645 -1.47598 0.921459 0
M  V30 1898 O 190.821 -1.59462 1.2302 0
M  V30 1899 C 187.886 -2.52943 2.37109 0
M  V30 1900 C 186.947 -2.34439 3.59634 0
M  V30 1901 C 186.18 -3.59748 3.94229 0
M  V30 1902 O 186.403 -4.65526 3.29609 0
M  V30 1903 O 185.337 -3.52998 4.8752 0
M  V30 1904 H 189.163 -0.870468 2.90958 0
M  V30 1905 H 186.748 -0.36484 1.44877 0
M  V30 1906 H 188.63 -3.30538 2.61386 0
M  V30 1907 H 187.305 -2.86806 1.5008 0
M  V30 1908 H 186.212 -1.54828 3.40557 0
M  V30 1909 H 187.545 -2.05496 4.4725 0
M  V30 1910 N 189.197 -1.51736 -0.425897 0
M  V30 1911 C 190.446 -1.64201 -1.17136 0
M  V30 1912 C 190.759 -0.369705 -1.92074 0
M  V30 1913 O 191.965 -0.373898 -2.68913 0
M  V30 1914 C 190.421 -2.90035 -2.13091 0
M  V30 1915 C 190.029 -4.24312 -1.43747 0
M  V30 1916 C 191.773 -3.1186 -2.87999 0
M  V30 1917 C 189.68 -5.41285 -2.38253 0
M  V30 1918 H 188.61 -0.611624 -0.440944 0
M  V30 1919 H 191.261 -1.78212 -0.437328 0
M  V30 1920 H 189.643 -2.69684 -2.89977 0
M  V30 1921 H 190.817 -4.55086 -0.723408 0
M  V30 1922 H 189.132 -4.08456 -0.809465 0
M  V30 1923 H 191.729 -3.96427 -3.58817 0
M  V30 1924 H 192.072 -2.25403 -3.49999 0
M  V30 1925 H 192.605 -3.32605 -2.18217 0
M  V30 1926 H 189.344 -6.30037 -1.80925 0
M  V30 1927 H 188.864 -5.14872 -3.0768 0
M  V30 1928 H 190.543 -5.73694 -2.99139 0
M  V30 1929 N 190.675 0.682077 -1.42076 0
M  V30 1930 C 191.903 1.47057 -1.4554 0
M  V30 1931 C 192.318 1.8869 -0.0645779 0
M  V30 1932 O 191.675 1.57666 0.919115 0
M  V30 1933 C 191.726 2.72442 -2.37609 0
M  V30 1934 O 191.447 2.32559 -3.71279 0
M  V30 1935 C 192.948 3.66069 -2.50017 0
M  V30 1936 H 190.168 0.452737 -0.495248 0
M  V30 1937 H 192.712 0.838695 -1.8651 0
M  V30 1938 H 190.867 3.31835 -1.9991 0
M  V30 1939 H 191.281 3.13475 -4.20516 0
M  V30 1940 H 192.755 4.50792 -3.18576 0
M  V30 1941 H 193.232 4.11476 -1.53572 0
M  V30 1942 H 193.838 3.12572 -2.88407 0
M  V30 1943 N 192.153 1.28127 0.917671 0
M  V30 1944 C 193.43 1.05761 1.64542 0
M  V30 1945 C 193.81 -0.404344 2.07191 0
M  V30 1946 O 193.158 -1.38963 1.81388 0
M  V30 1947 C 193.368 2.02857 2.83989 0
M  V30 1948 C 194.716 2.32786 3.551 0
M  V30 1949 O 195.74 2.0091 2.94132 0
M  V30 1950 O 194.599 2.87169 4.64969 0
M  V30 1951 H 191.693 0.403916 0.721652 0
M  V30 1952 H 194.239 1.39431 0.967322 0
M  V30 1953 H 193.011 3.01407 2.49538 0
M  V30 1954 H 192.634 1.69809 3.59514 0
M  V30 1955 N 193.631 -1.12557 1.10312 0
M  V30 1956 C 194.908 -1.80363 0.756878 0
M  V30 1957 C 195.288 -1.97067 -0.756824 0
M  V30 1958 O 194.636 -1.54601 -1.68259 0
M  V30 1959 C 194.846 -3.14812 1.50647 0
M  V30 1960 C 196.194 -3.90029 1.67817 0
M  V30 1961 O 197.218 -3.24464 1.46974 0
M  V30 1962 O 196.077 -5.07652 2.02365 0
M  V30 1963 H 193.171 -0.780667 0.272926 0
M  V30 1964 H 195.717 -1.19404 1.20586 0
M  V30 1965 H 194.489 -2.97936 2.53672 0
M  V30 1966 H 194.112 -3.83478 1.05026 0
M  V30 1967 N 195.109 -0.891671 -1.2995 0
M  V30 1968 C 196.355 -0.514261 -1.96171 0
M  V30 1969 C 196.688 0.935506 -1.70182 0
M  V30 1970 O 195.963 1.66204 -1.01028 0
M  V30 1971 C 196.246 -0.797719 -3.51153 0
M  V30 1972 C 196.099 -2.2986 -3.86632 0
M  V30 1973 C 197.418 -0.278749 -4.39216 0
M  V30 1974 H 194.537 -0.188314 -0.712535 0
M  V30 1975 H 197.179 -1.11689 -1.53706 0
M  V30 1976 H 195.329 -0.284826 -3.87455 0
M  V30 1977 H 197.001 -2.88042 -3.60319 0
M  V30 1978 H 195.244 -2.76257 -3.34462 0
M  V30 1979 H 195.915 -2.44753 -4.94773 0
M  V30 1980 H 198.391 -0.717825 -4.09862 0
M  V30 1981 H 197.267 -0.506353 -5.46559 0
M  V30 1982 H 197.528 0.820266 -4.34424 0
M  V30 1983 N 196.587 1.43421 -0.653314 0
M  V30 1984 C 197.517 2.33487 0.0246656 0
M  V30 1985 C 198.498 1.49475 0.811863 0
M  V30 1986 O 199.683 1.78139 0.773322 0
M  V30 1987 C 196.813 3.32841 0.99166 0
M  V30 1988 C 195.767 4.26842 0.314568 0
M  V30 1989 C 195.093 5.16236 1.39302 0
M  V30 1990 C 196.393 5.16243 -0.793095 0
M  V30 1991 H 198.087 2.90427 -0.727481 0
M  V30 1992 H 195.633 1.39649 -0.351287 0
M  V30 1993 H 197.586 3.94747 1.47487 0
M  V30 1994 H 196.31 2.74158 1.77497 0
M  V30 1995 H 194.969 3.663 -0.148199 0
M  V30 1996 H 194.617 4.53891 2.16776 0
M  V30 1997 H 194.317 5.79948 0.945223 0
M  V30 1998 H 195.841 5.81015 1.87759 0
M  V30 1999 H 197.255 5.71958 -0.392039 0
M  V30 2000 H 195.652 5.88676 -1.16536 0
M  V30 2001 H 196.722 4.55927 -1.65103 0
M  V30 2002 N 198.065 0.39524 1.52563 0
M  V30 2003 C 198.975 -0.444232 2.30356 0
M  V30 2004 C 199.991 -1.06615 1.37511 0
M  V30 2005 O 201.167 -1.07067 1.70583 0
M  V30 2006 C 198.232 -1.55315 3.09964 0
M  V30 2007 C 197.293 -0.955734 4.18526 0
M  V30 2008 C 196.526 -2.01181 4.9433 0
M  V30 2009 O 196.749 -3.22781 4.70285 0
M  V30 2010 O 195.683 -1.62579 5.79527 0
M  V30 2011 H 199.509 0.189667 3.03107 0
M  V30 2012 H 197.094 0.1588 1.48554 0
M  V30 2013 H 198.976 -2.19724 3.59582 0
M  V30 2014 H 197.651 -2.17191 2.4002 0
M  V30 2015 H 196.558 -0.274743 3.7309 0
M  V30 2016 H 197.891 -0.381109 4.90722 0
M  V30 2017 N 199.544 -1.57102 0.125237 0
M  V30 2018 C 200.454 -2.19191 -0.8362 0
M  V30 2019 C 201.47 -1.16985 -1.28805 0
M  V30 2020 O 202.646 -1.49479 -1.34974 0
M  V30 2021 C 199.711 -2.78407 -2.06617 0
M  V30 2022 C 198.772 -3.9567 -1.66565 0
M  V30 2023 C 198.005 -4.52052 -2.83698 0
M  V30 2024 O 198.228 -4.07326 -3.99302 0
M  V30 2025 O 197.162 -5.42645 -2.60423 0
M  V30 2026 H 200.988 -3.01816 -0.337776 0
M  V30 2027 H 198.573 -1.4906 -0.100695 0
M  V30 2028 H 200.455 -3.16129 -2.7864 0
M  V30 2029 H 199.13 -1.9881 -2.55453 0
M  V30 2030 H 198.037 -3.62705 -0.916296 0
M  V30 2031 H 199.37 -4.76722 -1.22464 0
M  V30 2032 N 201.022 0.148545 -1.56898 0
M  V30 2033 C 201.952 1.18524 -2.01182 0
M  V30 2034 C 202.933 1.4489 -0.891123 0
M  V30 2035 O 204.118 1.55836 -1.15882 0
M  V30 2036 C 201.248 2.51879 -2.39112 0
M  V30 2037 C 200.202 2.40038 -3.54353 0
M  V30 2038 C 199.528 3.78089 -3.78091 0
M  V30 2039 C 200.828 1.88577 -4.87069 0
M  V30 2040 H 202.522 0.817029 -2.88036 0
M  V30 2041 H 200.068 0.391575 -1.38574 0
M  V30 2042 H 202.021 3.24627 -2.68692 0
M  V30 2043 H 200.745 2.90532 -1.49193 0
M  V30 2044 H 199.404 1.69742 -3.24936 0
M  V30 2045 H 199.052 4.14175 -2.85426 0
M  V30 2046 H 198.752 3.71028 -4.55645 0
M  V30 2047 H 200.276 4.52387 -4.10095 0
M  V30 2048 H 201.69 2.51117 -5.15377 0
M  V30 2049 H 200.087 1.9241 -5.68417 0
M  V30 2050 H 201.157 0.84136 -4.77545 0
M  V30 2051 N 202.5 1.5196 0.417844 0
M  V30 2052 C 203.911 1.57851 0.997 0
M  V30 2053 C 204.262 0.413714 1.91789 0
M  V30 2054 O 203.387 -0.467057 2.113 0
M  V30 2055 C 203.982 2.86085 1.81496 0
M  V30 2056 C 202.541 2.94483 2.34428 0
M  V30 2057 C 201.688 2.52707 1.14169 0
M  V30 2058 H 204.639 1.57455 0.198392 0
M  V30 2059 H 204.66 2.70947 2.67148 0
M  V30 2060 H 204.172 3.70842 1.14446 0
M  V30 2061 H 202.273 2.142 3.04875 0
M  V30 2062 H 202.386 3.98546 2.65891 0
M  V30 2063 H 200.75 2.06353 1.49301 0
M  V30 2064 H 201.533 3.39828 0.486999 0
M  V30 2065 N 203.978 -0.674533 1.42435 0
M  V30 2066 C 204.925 -1.78807 1.45934 0
M  V30 2067 C 205.895 -1.63157 0.311271 0
M  V30 2068 O 207.08 -1.83707 0.515383 0
M  V30 2069 C 204.22 -3.16839 1.36773 0
M  V30 2070 C 203.333 -3.43774 2.61617 0
M  V30 2071 C 202.468 -4.71536 2.44597 0
M  V30 2072 C 201.507 -4.91505 3.64814 0
M  V30 2073 N 200.644 -6.10508 3.46734 0
M  V30 2074 H 205.484 -1.75151 2.41093 0
M  V30 2075 H 203.021 -0.85504 1.19697 0
M  V30 2076 H 204.979 -3.96606 1.29459 0
M  V30 2077 H 203.609 -3.19619 0.452089 0
M  V30 2078 H 202.661 -2.58259 2.79297 0
M  V30 2079 H 203.973 -3.54423 3.50978 0
M  V30 2080 H 203.127 -5.59393 2.3487 0
M  V30 2081 H 201.866 -4.6317 1.52726 0
M  V30 2082 H 200.871 -4.0209 3.74972 0
M  V30 2083 H 202.096 -5.01716 4.57665 0
M  V30 2084 H 200.042 -6.03315 2.5758 0
M  V30 2085 H 199.959 -6.2202 4.29682 0
M  V30 2086 H 201.227 -7.01044 3.40819 0
M  V30 2087 N 205.456 -1.28612 -0.910864 0
M  V30 2088 C 206.702 -1.16106 -1.66274 0
M  V30 2089 C 207.035 0.289113 -1.92036 0
M  V30 2090 O 206.31 1.21 -1.52281 0
M  V30 2091 C 206.593 -1.96309 -3.01885 0
M  V30 2092 C 206.446 -3.49405 -2.8326 0
M  V30 2093 C 207.765 -1.78076 -4.02463 0
M  V30 2094 H 204.884 -0.423152 -0.603417 0
M  V30 2095 H 207.526 -1.57961 -1.05586 0
M  V30 2096 H 205.676 -1.60742 -3.53687 0
M  V30 2097 H 207.348 -3.94894 -2.38446 0
M  V30 2098 H 205.591 -3.74893 -2.18261 0
M  V30 2099 H 206.262 -4.00784 -3.79574 0
M  V30 2100 H 208.738 -2.0912 -3.59733 0
M  V30 2101 H 207.614 -2.36561 -4.95308 0
M  V30 2102 H 207.875 -0.733008 -4.35981 0
M  V30 2103 N 206.934 1.1197 -1.10907 0
M  V30 2104 C 208.183 1.82947 -0.849302 0
M  V30 2105 C 208.496 1.85275 0.627112 0
M  V30 2106 O 209.702 2.52296 1.00295 0
M  V30 2107 C 208.158 3.28529 -1.46959 0
M  V30 2108 C 207.766 3.34546 -2.97965 0
M  V30 2109 C 209.51 4.04443 -1.28942 0
M  V30 2110 C 207.417 4.74491 -3.53004 0
M  V30 2111 H 206.347 0.685477 -0.314065 0
M  V30 2112 H 208.998 1.2604 -1.33365 0
M  V30 2113 H 207.38 3.85333 -0.912917 0
M  V30 2114 H 208.554 2.87654 -3.59989 0
M  V30 2115 H 206.869 2.72108 -3.15192 0
M  V30 2116 H 209.466 5.07787 -1.67502 0
M  V30 2117 H 209.809 4.15656 -0.231456 0
M  V30 2118 H 210.342 3.5401 -1.81443 0
M  V30 2119 H 207.081 4.68474 -4.58489 0
M  V30 2120 H 206.601 5.21816 -2.9575 0
M  V30 2121 H 208.28 5.4344 -3.51115 0
M  V30 2122 N 208.412 0.89855 1.29475 0
M  V30 2123 C 209.322 0.379974 2.31502 0
M  V30 2124 C 210.338 -0.524695 1.659 0
M  V30 2125 O 211.514 -0.414551 1.97087 0
M  V30 2126 C 208.579 -0.385138 3.44554 0
M  V30 2127 C 207.64 0.550914 4.2575 0
M  V30 2128 C 206.873 -0.177778 5.33404 0
M  V30 2129 O 207.096 -1.40189 5.52904 0
M  V30 2130 O 206.03 0.479106 5.9999 0
M  V30 2131 H 209.856 1.22639 2.77837 0
M  V30 2132 H 207.441 0.662834 1.33891 0
M  V30 2133 H 209.323 -0.817841 4.13388 0
M  V30 2134 H 207.998 -1.20763 3.0033 0
M  V30 2135 H 206.905 1.03271 3.59564 0
M  V30 2136 H 208.238 1.33979 4.73614 0
M  V30 2137 N 209.89 -1.43072 0.660911 0
M  V30 2138 C 210.8 -2.34585 -0.0264163 0
M  V30 2139 C 211.816 -1.54316 -0.803898 0
M  V30 2140 O 212.992 -1.86939 -0.749391 0
M  V30 2141 C 210.057 -3.32689 -0.975639 0
M  V30 2142 C 209.118 -4.2886 -0.194236 0
M  V30 2143 C 208.351 -5.22278 -1.09825 0
M  V30 2144 O 208.574 -5.20299 -2.33763 0
M  V30 2145 O 207.508 -5.99228 -0.566513 0
M  V30 2146 H 211.334 -2.94869 0.727034 0
M  V30 2147 H 208.919 -1.43342 0.42111 0
M  V30 2148 H 210.801 -3.92995 -1.52094 0
M  V30 2149 H 209.476 -2.74898 -1.70918 0
M  V30 2150 H 208.383 -3.72011 0.394835 0
M  V30 2151 H 209.716 -4.89655 0.499899 0
M  V30 2152 N 211.368 -0.403325 -1.52352 0
M  V30 2153 C 212.278 0.432009 -2.30588 0
M  V30 2154 C 213.294 1.05884 -1.38075 0
M  V30 2155 O 214.47 1.06161 -1.71148 0
M  V30 2156 C 211.535 1.53669 -3.10784 0
M  V30 2157 C 210.596 0.933525 -4.19027 0
M  V30 2158 C 209.829 1.98557 -4.9539 0
M  V30 2159 O 210.052 3.20283 -4.71991 0
M  V30 2160 O 208.986 1.59504 -5.80381 0
M  V30 2161 H 212.812 -0.205739 -3.03002 0
M  V30 2162 H 210.397 -0.166675 -1.48467 0
M  V30 2163 H 212.279 2.17814 -3.60742 0
M  V30 2164 H 210.954 2.15915 -2.41169 0
M  V30 2165 H 209.861 0.254954 -3.7323 0
M  V30 2166 H 211.194 0.35508 -4.90918 0
M  V30 2167 N 212.846 1.57033 -0.133567 0
M  V30 2168 C 214.094 1.953 0.519848 0
M  V30 2169 C 214.415 1.01866 1.66278 0
M  V30 2170 O 213.685 0.0776513 1.95746 0
M  V30 2171 H 212.265 0.721091 0.195032 0
M  V30 2172 H 214.927 1.93809 -0.205921 0
M  V30 2173 H 214.023 2.98695 0.904854 0
M  V30 2174 N 214.325 -0.140222 1.56975 0
M  V30 2175 C 215.574 -0.850152 1.82908 0
M  V30 2176 C 215.887 -1.82028 0.715892 0
M  V30 2177 O 217.093 -2.57485 0.861016 0
M  V30 2178 C 215.549 -1.5625 3.24213 0
M  V30 2179 C 215.157 -0.63443 4.43485 0
M  V30 2180 C 216.901 -2.25881 3.59413 0
M  V30 2181 C 214.808 -1.34879 5.75814 0
M  V30 2182 H 213.738 -0.321221 0.682153 0
M  V30 2183 H 216.389 -0.102874 1.83211 0
M  V30 2184 H 214.771 -2.35565 3.18316 0
M  V30 2185 H 215.945 0.12398 4.60633 0
M  V30 2186 H 214.26 -0.0461836 4.16374 0
M  V30 2187 H 216.857 -2.79978 4.5554 0
M  V30 2188 H 217.2 -3.02693 2.85802 0
M  V30 2189 H 217.733 -1.53477 3.67001 0
M  V30 2190 H 214.472 -0.622385 6.52539 0
M  V30 2191 H 213.992 -2.07974 5.6259 0
M  V30 2192 H 215.671 -1.88784 6.18845 0
M  V30 2193 N 215.803 -1.52179 -0.40978 0
M  V30 2194 C 217.031 -1.70054 -1.17853 0
M  V30 2195 C 217.446 -0.409735 -1.843 0
M  V30 2196 O 216.803 0.614183 -1.71855 0
M  V30 2197 C 216.854 -2.83568 -2.24213 0
M  V30 2198 O 216.575 -4.0765 -1.60478 0
M  V30 2199 C 218.076 -3.12947 -3.13973 0
M  V30 2200 H 215.296 -0.569917 -0.354169 0
M  V30 2201 H 217.84 -1.98734 -0.482198 0
M  V30 2202 H 215.995 -2.57409 -2.89516 0
M  V30 2203 H 216.409 -4.70899 -2.30986 0
M  V30 2204 H 217.883 -3.95889 -3.84677 0
M  V30 2205 H 218.36 -2.26472 -3.76307 0
M  V30 2206 H 218.966 -3.40868 -2.5434 0
M  V30 2207 N 217.281 0.66697 -1.42791 0
M  V30 2208 C 218.506 1.46004 -1.47301 0
M  V30 2209 C 218.931 1.87894 -0.0880317 0
M  V30 2210 O 218.289 1.56502 0.915253 0
M  V30 2211 C 218.337 2.68031 -2.41229 0
M  V30 2212 O 217.441 3.6659 -1.88906 0
M  V30 2213 H 216.782 0.43832 -0.49877 0
M  V30 2214 H 219.312 0.817391 -1.87563 0
M  V30 2215 H 219.322 3.1601 -2.58073 0
M  V30 2216 H 217.997 2.36883 -3.41847 0
M  V30 2217 H 216.574 3.25661 -1.81656 0
M  V30 2218 N 218.759 1.29093 0.90403 0
M  V30 2219 C 220.006 1.16813 1.65411 0
M  V30 2220 C 220.334 -0.28128 1.92455 0
M  V30 2221 O 219.589 -1.22006 1.53013 0
M  V30 2222 C 219.888 1.92224 3.01305 0
M  V30 2223 C 219.554 3.41968 2.93885 0
M  V30 2224 C 218.216 3.82807 2.91569 0
M  V30 2225 C 220.568 4.37409 2.83413 0
M  V30 2226 C 217.896 5.1741 2.76594 0
M  V30 2227 C 220.248 5.72097 2.69977 0
M  V30 2228 C 218.912 6.12199 2.66024 0
M  V30 2229 H 218.182 0.42745 0.605283 0
M  V30 2230 H 220.829 1.59981 1.05254 0
M  V30 2231 H 219.134 1.41635 3.65304 0
M  V30 2232 H 220.831 1.80131 3.58265 0
M  V30 2233 H 217.421 3.09504 2.96488 0
M  V30 2234 H 221.605 4.06813 2.84283 0
M  V30 2235 H 216.861 5.47596 2.71935 0
M  V30 2236 H 221.035 6.45704 2.60844 0
M  V30 2237 H 218.662 7.16448 2.54178 0
M  V30 2238 N 220.237 -1.11381 1.11499 0
M  V30 2239 C 221.184 -2.17439 0.773887 0
M  V30 2240 C 222.154 -1.64132 -0.254899 0
M  V30 2241 O 223.339 -1.90345 -0.13168 0
M  V30 2242 C 220.479 -3.44373 0.223917 0
M  V30 2243 C 219.592 -4.1168 1.30934 0
M  V30 2244 C 218.727 -5.263 0.71984 0
M  V30 2245 C 217.766 -5.85493 1.78507 0
M  V30 2246 N 216.903 -6.91507 1.21502 0
M  V30 2247 H 221.743 -2.45962 1.68246 0
M  V30 2248 H 219.28 -1.20744 0.840191 0
M  V30 2249 H 221.238 -4.17047 -0.112921 0
M  V30 2250 H 219.868 -3.16232 -0.647851 0
M  V30 2251 H 218.92 -3.37073 1.76312 0
M  V30 2252 H 220.232 -4.51729 2.11524 0
M  V30 2253 H 219.386 -6.05785 0.333094 0
M  V30 2254 H 218.125 -4.87559 -0.117377 0
M  V30 2255 H 217.13 -5.04686 2.18111 0
M  V30 2256 H 218.355 -6.26301 2.62533 0
M  V30 2257 H 216.301 -6.54783 0.399455 0
M  V30 2258 H 216.218 -7.30214 1.95763 0
M  V30 2259 H 217.486 -7.74795 0.855181 0
M  V30 2260 N 221.715 -0.905404 -1.28997 0
M  V30 2261 C 222.961 -0.535039 -1.95615 0
M  V30 2262 C 223.294 0.917404 -1.71165 0
M  V30 2263 O 222.569 1.65123 -1.02785 0
M  V30 2264 C 222.852 -0.834918 -3.50287 0
M  V30 2265 C 222.705 -2.33948 -3.84172 0
M  V30 2266 C 224.024 -0.325318 -4.38896 0
M  V30 2267 H 221.143 -0.195861 -0.710498 0
M  V30 2268 H 223.785 -1.13313 -1.52513 0
M  V30 2269 H 221.935 -0.325904 -3.87131 0
M  V30 2270 H 223.607 -2.91847 -3.57243 0
M  V30 2271 H 221.85 -2.79789 -3.31513 0
M  V30 2272 H 222.521 -2.49987 -4.92149 0
M  V30 2273 H 224.997 -0.761256 -4.09077 0
M  V30 2274 H 223.873 -0.564295 -5.45992 0
M  V30 2275 H 224.134 0.774144 -4.35269 0
M  V30 2276 N 223.193 1.4272 -0.668489 0
M  V30 2277 C 224.44 2.01624 -0.18814 0
M  V30 2278 C 224.768 1.5282 1.20317 0
M  V30 2279 O 224.023 0.718323 1.8204 0
M  V30 2280 C 224.322 3.57021 -0.164499 0
M  V30 2281 C 223.988 4.25232 -1.49962 0
M  V30 2282 C 222.65 4.4358 -1.8652 0
M  V30 2283 C 225.002 4.63727 -2.37921 0
M  V30 2284 C 222.33 4.97694 -3.10674 0
M  V30 2285 C 224.682 5.19218 -3.6138 0
M  V30 2286 C 223.346 5.3578 -3.98115 0
M  V30 2287 H 222.616 0.737795 -0.0688454 0
M  V30 2288 H 225.263 1.70991 -0.862225 0
M  V30 2289 H 223.568 3.87285 0.593079 0
M  V30 2290 H 225.265 4.00372 0.224271 0
M  V30 2291 H 221.855 4.11306 -1.20522 0
M  V30 2292 H 226.039 4.4923 -2.10964 0
M  V30 2293 H 221.295 5.08702 -3.39164 0
M  V30 2294 H 225.469 5.4799 -4.29743 0
M  V30 2295 H 223.096 5.77475 -4.94395 0
M  V30 2296 N 224.671 0.411399 1.52136 0
M  V30 2297 C 225.604 -0.457614 2.23565 0
M  V30 2298 C 226.582 -1.04613 1.24478 0
M  V30 2299 O 227.766 -1.09356 1.53536 0
M  V30 2300 C 224.893 -1.6354 2.96602 0
M  V30 2301 C 223.939 -1.17005 4.10137 0
M  V30 2302 S 224.772 -0.13333 5.35334 0
M  V30 2303 C 225.928 -1.31638 6.119 0
M  V30 2304 H 226.161 0.148883 2.96927 0
M  V30 2305 H 223.694 0.195713 1.53155 0
M  V30 2306 H 225.652 -2.31074 3.39286 0
M  V30 2307 H 224.313 -2.21324 2.22878 0
M  V30 2308 H 223.506 -2.05005 4.60422 0
M  V30 2309 H 223.108 -0.573319 3.6958 0
M  V30 2310 H 225.4 -2.23957 6.39413 0
M  V30 2311 H 226.343 -0.854014 7.02931 0
M  V30 2312 H 226.751 -1.54321 5.42997 0
M  V30 2313 N 226.149 -1.5696 0.141893 0
M  V30 2314 C 227.112 -2.15316 -0.785587 0
M  V30 2315 C 228.112 -1.09366 -1.1788 0
M  V30 2316 O 229.302 -1.35031 -1.10056 0
M  V30 2317 C 226.434 -2.71211 -2.06537 0
M  V30 2318 H 227.627 -2.98608 -0.278041 0
M  V30 2319 H 225.18 -1.5593 -0.107519 0
M  V30 2320 H 225.915 -1.91571 -2.6167 0
M  V30 2321 H 225.7 -3.4872 -1.79268 0
M  V30 2322 H 227.19 -3.16189 -2.72789 0
M  V30 2323 N 227.627 0.131896 -1.57047 0
M  V30 2324 C 228.857 0.855219 -1.88068 0
M  V30 2325 C 229.265 1.74557 -0.729817 0
M  V30 2326 O 228.608 1.81083 0.308962 0
M  V30 2327 C 228.67 1.75119 -3.13964 0
M  V30 2328 C 228.334 1.03646 -4.45091 0
M  V30 2329 C 229.331 0.383276 -5.18485 0
M  V30 2330 C 227.016 1.02148 -4.91804 0
M  V30 2331 C 229.01 -0.275347 -6.36805 0
M  V30 2332 C 226.697 0.359047 -6.10044 0
M  V30 2333 C 227.695 -0.288222 -6.82392 0
M  V30 2334 O 227.383 -0.94011 -7.98384 0
M  V30 2335 H 227.115 0.251864 -0.627328 0
M  V30 2336 H 229.669 0.124782 -2.05021 0
M  V30 2337 H 227.899 2.52295 -2.9306 0
M  V30 2338 H 229.588 2.3478 -3.31109 0
M  V30 2339 H 230.354 0.386562 -4.83457 0
M  V30 2340 H 226.233 1.5147 -4.35405 0
M  V30 2341 H 229.777 -0.781148 -6.93213 0
M  V30 2342 H 225.674 0.35348 -6.44531 0
M  V30 2343 H 226.442 -0.84329 -8.14144 0
M  V30 2344 N 229.106 1.52395 0.401703 0
M  V30 2345 C 230.053 1.76268 1.48991 0
M  V30 2346 C 231.023 0.605386 1.54675 0
M  V30 2347 O 232.208 0.843742 1.7113 0
M  V30 2348 C 229.348 1.92592 2.86361 0
M  V30 2349 C 228.461 3.20259 2.89928 0
M  V30 2350 C 227.596 3.26972 4.18644 0
M  V30 2351 C 226.635 4.48812 4.16214 0
M  V30 2352 N 225.772 4.52877 5.36514 0
M  V30 2353 H 230.612 2.6914 1.27935 0
M  V30 2354 H 228.149 1.33355 0.620871 0
M  V30 2355 H 230.107 2.0004 3.66115 0
M  V30 2356 H 228.737 1.03093 3.05895 0
M  V30 2357 H 227.789 3.21945 2.02621 0
M  V30 2358 H 229.101 4.10056 2.83999 0
M  V30 2359 H 228.255 3.33533 5.06794 0
M  V30 2360 H 226.994 2.35126 4.27278 0
M  V30 2361 H 225.999 4.4239 3.26453 0
M  V30 2362 H 227.224 5.41961 4.09213 0
M  V30 2363 H 225.17 3.63917 5.45802 0
M  V30 2364 H 225.087 5.36529 5.32609 0
M  V30 2365 H 226.355 4.63676 6.26597 0
M  V30 2366 N 230.584 -0.659388 1.43143 0
M  V30 2367 C 231.861 -1.41627 1.34912 0
M  V30 2368 C 232.241 -2.11099 -0.00607785 0
M  V30 2369 O 231.589 -2.04353 -1.02236 0
M  V30 2370 C 231.799 -2.40604 2.52805 0
M  V30 2371 C 233.147 -3.04789 2.95616 0
M  V30 2372 O 234.171 -2.50932 2.52807 0
M  V30 2373 O 233.03 -4.02421 3.69756 0
M  V30 2374 H 230.124 -0.63246 0.532844 0
M  V30 2375 H 232.67 -0.686814 1.5518 0
M  V30 2376 H 231.442 -1.88174 3.43083 0
M  V30 2377 H 231.065 -3.21009 2.34604 0
M  V30 2378 N 232.062 -1.29571 -0.897171 0
M  V30 2379 C 233.308 -1.17863 -1.65034 0
M  V30 2380 C 233.641 0.268729 -1.92332 0
M  V30 2381 O 232.916 1.19378 -1.53555 0
M  V30 2382 C 233.199 -1.995 -2.99786 0
M  V30 2383 C 233.052 -3.5239 -2.79538 0
M  V30 2384 C 234.371 -1.82335 -4.00552 0
M  V30 2385 H 231.49 -0.429528 -0.598895 0
M  V30 2386 H 234.132 -1.59072 -1.03905 0
M  V30 2387 H 232.282 -1.64485 -3.51962 0
M  V30 2388 H 233.954 -3.97401 -2.34244 0
M  V30 2389 H 232.197 -3.77187 -2.14273 0
M  V30 2390 H 232.868 -4.04787 -3.75302 0
M  V30 2391 H 235.344 -2.12924 -3.57495 0
M  V30 2392 H 234.22 -2.41801 -4.92771 0
M  V30 2393 H 234.481 -0.779209 -4.35179 0
M  V30 2394 N 233.54 1.10788 -1.12088 0
M  V30 2395 C 234.787 1.82671 -0.873931 0
M  V30 2396 C 235.115 1.85004 0.600311 0
M  V30 2397 O 234.37 1.30365 1.45957 0
M  V30 2398 C 234.669 3.29294 -1.38926 0
M  V30 2399 C 234.335 3.47113 -2.87791 0
M  V30 2400 C 232.997 3.51684 -3.28439 0
M  V30 2401 C 235.349 3.52808 -3.83635 0
M  V30 2402 C 232.677 3.59513 -4.63646 0
M  V30 2403 C 235.029 3.62169 -5.18668 0
M  V30 2404 C 233.693 3.65003 -5.58864 0
M  V30 2405 H 232.963 0.668441 -0.319794 0
M  V30 2406 H 235.61 1.30613 -1.40045 0
M  V30 2407 H 233.915 3.83894 -0.783122 0
M  V30 2408 H 235.612 3.83416 -1.17443 0
M  V30 2409 H 232.202 3.4423 -2.5535 0
M  V30 2410 H 236.386 3.4853 -3.53328 0
M  V30 2411 H 231.642 3.59987 -4.94185 0
M  V30 2412 H 235.816 3.6552 -5.92763 0
M  V30 2413 H 233.443 3.70822 -6.63623 0
M  V30 2414 N 235.018 0.912232 1.28515 0
M  V30 2415 C 235.95 0.35676 2.26406 0
M  V30 2416 C 236.963 -0.503933 1.54804 0
M  V30 2417 O 238.152 -0.319059 1.75625 0
M  V30 2418 C 235.252 -0.508825 3.35058 0
M  V30 2419 C 234.425 0.329007 4.36161 0
M  V30 2420 C 233.484 -0.471422 5.24084 0
M  V30 2421 O 232.51 0.115482 5.69083 0
M  V30 2422 N 233.712 -1.77479 5.52704 0
M  V30 2423 H 236.477 1.19818 2.74707 0
M  V30 2424 H 234.038 0.778022 1.4198 0
M  V30 2425 H 236.03 -1.051 3.90815 0
M  V30 2426 H 234.6 -1.25095 2.86478 0
M  V30 2427 H 233.82 1.05256 3.79888 0
M  V30 2428 H 235.108 0.90234 5.00735 0
M  V30 2429 H 234.506 -2.27417 5.17975 0
M  V30 2430 H 233.063 -2.26382 6.11224 0
M  V30 2431 N 236.496 -1.42363 0.676048 0
M  V30 2432 C 237.459 -2.29199 0.00766941 0
M  V30 2433 C 238.459 -1.43389 -0.727745 0
M  V30 2434 O 239.649 -1.64764 -0.56556 0
M  V30 2435 C 236.781 -3.2591 -0.999785 0
M  V30 2436 H 237.974 -2.89794 0.771988 0
M  V30 2437 H 235.527 -1.50024 0.438468 0
M  V30 2438 H 236.262 -2.70256 -1.79255 0
M  V30 2439 H 236.047 -3.89202 -0.475829 0
M  V30 2440 H 237.537 -3.91028 -1.46583 0
M  V30 2441 N 237.974 -0.419461 -1.51915 0
M  V30 2442 C 239.251 0.211999 -1.94448 0
M  V30 2443 C 239.631 1.61703 -1.35703 0
M  V30 2444 O 238.979 2.22102 -0.536931 0
M  V30 2445 C 239.189 0.207872 -3.4838 0
M  V30 2446 C 240.537 0.422192 -4.22496 0
M  V30 2447 O 241.561 0.286778 -3.55044 0
M  V30 2448 O 240.42 0.690009 -5.42126 0
M  V30 2449 H 237.514 0.139586 -0.815135 0
M  V30 2450 H 240.06 -0.476151 -1.62883 0
M  V30 2451 H 238.832 -0.775102 -3.83546 0
M  V30 2452 H 238.455 0.939688 -3.86336 0
M  V30 2453 N 239.452 1.56882 -0.150215 0
M  V30 2454 C 240.729 1.87844 0.545327 0
M  V30 2455 C 241.109 1.0567 1.82749 0
M  V30 2456 O 240.457 0.144442 2.28043 0
M  V30 2457 C 240.667 3.39526 0.80767 0
M  V30 2458 C 242.015 4.08814 1.14703 0
M  V30 2459 O 243.039 3.44723 0.896917 0
M  V30 2460 O 241.898 5.22004 1.61784 0
M  V30 2461 H 238.992 0.778677 0.278553 0
M  V30 2462 H 241.538 1.68666 -0.187068 0
M  V30 2463 H 240.31 3.91173 -0.0996096 0
M  V30 2464 H 239.933 3.64243 1.59413 0
M  V30 2465 N 240.93 -0.123565 1.57115 0
M  V30 2466 C 242.178 -0.83051 1.84247 0
M  V30 2467 C 242.499 -1.80629 0.73471 0
M  V30 2468 O 241.769 -1.94403 -0.241688 0
M  V30 2469 H 240.349 -0.309694 0.679778 0
M  V30 2470 H 243.011 -0.111976 1.94578 0
M  V30 2471 H 242.107 -1.37852 2.80006 0
M  V30 2472 N 242.408 -1.52605 -0.393616 0
M  V30 2473 C 243.636 -1.71294 -1.16043 0
M  V30 2474 C 244.051 -0.429259 -1.83855 0
M  V30 2475 O 243.408 0.595921 -1.72496 0
M  V30 2476 C 243.459 -2.8593 -2.21193 0
M  V30 2477 O 243.18 -4.09329 -1.56146 0
M  V30 2478 C 244.681 -3.16259 -3.10636 0
M  V30 2479 H 241.901 -0.573641 -0.348104 0
M  V30 2480 H 244.445 -1.99234 -0.461092 0
M  V30 2481 H 242.6 -2.60465 -2.86769 0
M  V30 2482 H 243.014 -4.73323 -2.25978 0
M  V30 2483 H 244.488 -3.99946 -3.80456 0
M  V30 2484 H 244.965 -2.3045 -3.73884 0
M  V30 2485 H 245.571 -3.43547 -2.50711 0
M  V30 2486 N 243.887 0.651787 -1.4349 0
M  V30 2487 C 244.817 1.77621 -1.51569 0
M  V30 2488 C 245.798 1.66022 -0.370253 0
M  V30 2489 O 246.983 1.85095 -0.587658 0
M  V30 2490 C 244.113 3.16056 -1.43966 0
M  V30 2491 C 243.067 3.4242 -2.56774 0
M  V30 2492 C 242.393 4.8067 -2.34223 0
M  V30 2493 C 243.693 3.37023 -3.99015 0
M  V30 2494 H 245.387 1.71117 -2.45681 0
M  V30 2495 H 242.933 0.821825 -1.18246 0
M  V30 2496 H 244.886 3.94472 -1.48221 0
M  V30 2497 H 243.61 3.23293 -0.463586 0
M  V30 2498 H 242.269 2.66375 -2.51873 0
M  V30 2499 H 241.917 4.84585 -1.34856 0
M  V30 2500 H 241.617 4.9927 -3.09844 0
M  V30 2501 H 243.141 5.61342 -2.40265 0
M  V30 2502 H 244.555 4.05374 -4.05395 0
M  V30 2503 H 242.952 3.67159 -4.74673 0
M  V30 2504 H 244.022 2.3518 -4.2405 0
M  V30 2505 N 245.365 1.30045 0.890287 0
M  V30 2506 C 246.595 1.21296 1.67245 0
M  V30 2507 C 247.003 -0.227471 1.87828 0
M  V30 2508 O 246.346 -1.16296 1.422 0
M  V30 2509 C 246.408 1.86519 3.07329 0
M  V30 2510 C 246.072 3.35837 3.09939 0
M  V30 2511 C 247.069 4.31915 2.89389 0
M  V30 2512 C 244.754 3.77196 3.31706 0
M  V30 2513 C 246.748 5.67325 2.90552 0
M  V30 2514 C 244.435 5.12725 3.32499 0
M  V30 2515 C 245.433 6.076 3.11947 0
M  V30 2516 O 245.121 7.40655 3.12547 0
M  V30 2517 H 244.853 0.4211 0.528821 0
M  V30 2518 H 247.407 1.72111 1.12103 0
M  V30 2519 H 245.637 1.30228 3.64112 0
M  V30 2520 H 247.326 1.71963 3.67673 0
M  V30 2521 H 248.092 4.01294 2.72375 0
M  V30 2522 H 243.971 3.03796 3.4674 0
M  V30 2523 H 247.515 6.41354 2.74429 0
M  V30 2524 H 243.412 5.42988 3.49047 0
M  V30 2525 H 244.18 7.49577 3.28749 0
M  V30 2526 N 246.843 -1.10192 1.12674 0
M  V30 2527 C 248.259 -1.34235 0.863317 0
M  V30 2528 C 248.459 -1.95062 -0.505277 0
M  V30 2529 O 247.515 -2.19192 -1.25345 0
M  V30 2530 C 248.828 -2.2616 1.98172 0
M  V30 2531 C 250.376 -2.3969 2.0129 0
M  V30 2532 C 250.851 -3.34946 3.1237 0
M  V30 2533 N 252.342 -3.42515 3.11829 0
M  V30 2534 C 253.077 -4.16199 3.94419 0
M  V30 2535 N 252.573 -4.92747 4.87004 0
M  V30 2536 N 254.366 -4.11843 3.82547 0
M  V30 2537 H 246.517 -0.690798 2.00853 0
M  V30 2538 H 248.78 -0.366774 0.874174 0
M  V30 2539 H 248.486 -1.8868 2.96804 0
M  V30 2540 H 248.36 -3.26488 1.88906 0
M  V30 2541 H 250.747 -2.76438 1.03276 0
M  V30 2542 H 250.828 -1.39169 2.14629 0
M  V30 2543 H 250.472 -2.98923 4.10619 0
M  V30 2544 H 250.402 -4.35353 2.96269 0
M  V30 2545 H 252.893 -2.87926 2.44759 0
M  V30 2546 H 253.206 -5.46376 5.46528 0
M  V30 2547 H 251.551 -4.91862 4.91016 0
M  V30 2548 H 254.742 -3.51136 3.0955 0
M  V30 2549 H 254.915 -4.69007 4.47142 0
M  V30 2550 N 248.321 -0.919034 -1.28029 0
M  V30 2551 C 249.549 -0.570971 -1.98866 0
M  V30 2552 C 249.964 0.848996 -1.68634 0
M  V30 2553 O 249.321 1.56307 -0.942036 0
M  V30 2554 C 249.372 -0.776876 -3.53054 0
M  V30 2555 O 249.093 -2.14097 -3.82222 0
M  V30 2556 C 250.594 -0.436356 -4.41147 0
M  V30 2557 H 247.814 -0.217175 -0.634883 0
M  V30 2558 H 250.358 -1.23368 -1.63097 0
M  V30 2559 H 248.513 -0.161085 -3.87065 0
M  V30 2560 H 248.927 -2.18455 -4.76841 0
M  V30 2561 H 250.401 -0.63117 -5.4838 0
M  V30 2562 H 250.878 0.627686 -4.34692 0
M  V30 2563 H 251.484 -1.02991 -4.12641 0
M  V30 2564 N 249.799 1.42003 -0.683588 0
M  V30 2565 C 250.729 2.33487 -0.024866 0
M  V30 2566 C 251.71 1.51163 0.779975 0
M  V30 2567 O 252.895 1.79739 0.735362 0
M  V30 2568 C 250.025 3.3487 0.920836 0
M  V30 2569 C 248.979 4.27414 0.223958 0
M  V30 2570 C 248.305 5.19074 1.2832 0
M  V30 2571 C 249.605 5.14445 -0.90242 0
M  V30 2572 H 251.299 2.88819 -0.788921 0
M  V30 2573 H 248.845 1.38873 -0.38083 0
M  V30 2574 H 250.798 3.97787 1.39081 0
M  V30 2575 H 249.522 2.77861 1.71642 0
M  V30 2576 H 248.181 3.65904 -0.225864 0
M  V30 2577 H 247.829 4.58387 2.071 0
M  V30 2578 H 247.529 5.81822 0.821995 0
M  V30 2579 H 249.053 5.84867 1.75392 0
M  V30 2580 H 250.467 5.70998 -0.513272 0
M  V30 2581 H 248.864 5.86072 -1.28997 0
M  V30 2582 H 249.934 4.52322 -1.74737 0
M  V30 2583 N 251.277 0.427512 1.51691 0
M  V30 2584 C 252.523 -0.142439 2.02299 0
M  V30 2585 C 252.856 -1.43214 1.31162 0
M  V30 2586 O 252.131 -1.89833 0.423511 0
M  V30 2587 C 252.414 -0.371301 3.58181 0
M  V30 2588 C 252.267 0.936358 4.39946 0
M  V30 2589 C 253.586 -1.14542 4.24933 0
M  V30 2590 H 250.705 -0.0502937 0.735282 0
M  V30 2591 H 253.347 0.564584 1.81418 0
M  V30 2592 H 251.497 -0.973559 3.76104 0
M  V30 2593 H 253.169 1.57184 4.33694 0
M  V30 2594 H 251.412 1.5432 4.05423 0
M  V30 2595 H 252.083 0.730388 5.47147 0
M  V30 2596 H 254.559 -0.635362 4.11221 0
M  V30 2597 H 253.435 -1.27431 5.33903 0
M  V30 2598 H 253.696 -2.17093 3.85127 0
M  V30 2599 N 252.755 -1.56801 0.158532 0
M  V30 2600 C 253.718 -2.16138 -0.762705 0
M  V30 2601 C 254.718 -1.1061 -1.16713 0
M  V30 2602 O 255.908 -1.36191 -1.08617 0
M  V30 2603 C 253.04 -2.73386 -2.03649 0
M  V30 2604 H 254.233 -2.98886 -0.246354 0
M  V30 2605 H 251.786 -1.56035 -0.0909744 0
M  V30 2606 H 252.521 -1.94335 -2.59623 0
M  V30 2607 H 252.306 -3.50601 -1.75559 0
M  V30 2608 H 253.796 -3.19065 -2.6942 0
M  V30 2609 N 254.233 0.115231 -1.57178 0
M  V30 2610 C 255.196 1.12526 -1.99676 0
M  V30 2611 C 256.196 1.34095 -0.88742 0
M  V30 2612 O 257.386 1.30548 -1.15337 0
M  V30 2613 C 254.518 2.4789 -2.34015 0
M  V30 2614 H 255.711 0.759912 -2.90113 0
M  V30 2615 H 253.264 0.359648 -1.52106 0
M  V30 2616 H 253.999 2.89339 -1.4647 0
M  V30 2617 H 253.784 2.33588 -3.14927 0
M  V30 2618 H 255.274 3.20575 -2.67622 0
M  V30 2619 N 255.711 1.52812 0.385517 0
M  V30 2620 C 256.658 1.77838 1.47113 0
M  V30 2621 C 257.628 0.621757 1.54024 0
M  V30 2622 O 258.813 0.861846 1.70226 0
M  V30 2623 C 255.953 1.95618 2.84302 0
M  V30 2624 C 255.066 3.23316 2.86515 0
M  V30 2625 C 254.201 3.31394 4.15152 0
M  V30 2626 C 253.24 4.53201 4.1143 0
M  V30 2627 N 252.377 4.58542 5.3168 0
M  V30 2628 H 257.217 2.70482 1.25073 0
M  V30 2629 H 254.754 1.34006 0.606692 0
M  V30 2630 H 256.712 2.03912 3.63972 0
M  V30 2631 H 255.342 1.06331 3.04784 0
M  V30 2632 H 254.394 3.24076 1.99195 0
M  V30 2633 H 255.706 4.13045 2.79634 0
M  V30 2634 H 254.86 3.3889 5.03228 0
M  V30 2635 H 253.599 2.39645 4.24761 0
M  V30 2636 H 252.604 4.45827 3.21742 0
M  V30 2637 H 253.829 5.46271 4.03442 0
M  V30 2638 H 251.775 3.69686 5.41912 0
M  V30 2639 H 251.692 5.42148 5.26889 0
M  V30 2640 H 252.96 4.70296 6.21644 0
M  V30 2641 N 257.189 -0.644168 1.43834 0
M  V30 2642 C 258.099 -1.78563 1.52159 0
M  V30 2643 C 259.115 -1.69147 0.408069 0
M  V30 2644 O 260.291 -1.90156 0.663524 0
M  V30 2645 C 257.356 -3.14888 1.45073 0
M  V30 2646 C 256.417 -3.36034 2.6717 0
M  V30 2647 C 255.65 -4.65855 2.60413 0
M  V30 2648 O 255.873 -5.45805 1.65689 0
M  V30 2649 O 254.807 -4.88918 3.5106 0
M  V30 2650 H 258.633 -1.74494 2.48567 0
M  V30 2651 H 256.218 -0.80378 1.25935 0
M  V30 2652 H 258.1 -3.96179 1.43597 0
M  V30 2653 H 256.775 -3.19528 0.518037 0
M  V30 2654 H 255.682 -2.54472 2.74217 0
M  V30 2655 H 257.015 -3.36247 3.59442 0
M  V30 2656 N 258.668 -1.30515 -0.883378 0
M  V30 2657 C 259.598 -1.19607 -2.00541 0
M  V30 2658 C 260.579 -0.086346 -1.69881 0
M  V30 2659 O 261.764 -0.268654 -1.92333 0
M  V30 2660 C 258.894 -0.888758 -3.35736 0
M  V30 2661 C 257.848 -1.95659 -3.8066 0
M  V30 2662 C 257.174 -1.50224 -5.13164 0
M  V30 2663 C 258.474 -3.36788 -3.99213 0
M  V30 2664 H 260.168 -2.13476 -2.09925 0
M  V30 2665 H 257.714 -1.02775 -1.00863 0
M  V30 2666 H 259.667 -0.799094 -4.13754 0
M  V30 2667 H 258.391 0.0856125 -3.26488 0
M  V30 2668 H 257.05 -2.03591 -3.04871 0
M  V30 2669 H 256.698 -0.516092 -5.00345 0
M  V30 2670 H 256.398 -2.2165 -5.44192 0
M  V30 2671 H 257.922 -1.42639 -5.93706 0
M  V30 2672 H 259.336 -3.31605 -4.67665 0
M  V30 2673 H 257.733 -4.06314 -4.41621 0
M  V30 2674 H 258.803 -3.78561 -3.03017 0
M  V30 2675 N 260.146 1.09593 -1.13257 0
M  V30 2676 C 261.394 1.81375 -0.891492 0
M  V30 2677 C 261.715 1.86049 0.584009 0
M  V30 2678 O 260.985 1.34481 1.42449 0
M  V30 2679 H 259.565 0.671708 -0.326828 0
M  V30 2680 H 262.227 1.3256 -1.42877 0
M  V30 2681 H 261.323 2.84612 -1.28071 0
M  V30 2682 N 261.624 0.925811 1.2754 0
M  V30 2683 C 262.587 0.428129 2.25166 0
M  V30 2684 C 263.587 -0.452261 1.54309 0
M  V30 2685 O 264.777 -0.253608 1.72344 0
M  V30 2686 C 261.909 -0.384749 3.38722 0
M  V30 2687 H 263.102 1.29066 2.70706 0
M  V30 2688 H 260.655 0.706323 1.3943 0
M  V30 2689 H 261.39 -1.26618 2.98561 0
M  V30 2690 H 261.175 0.246454 3.91325 0
M  V30 2691 H 262.665 -0.723389 4.11287 0
M  V30 2692 N 263.102 -1.41638 0.69111 0
M  V30 2693 C 264.032 -2.3347 0.037248 0
M  V30 2694 C 265.013 -1.51575 -0.771947 0
M  V30 2695 O 266.198 -1.80126 -0.72582 0
M  V30 2696 C 263.328 -3.35354 -0.903064 0
M  V30 2697 C 262.282 -4.27526 -0.201288 0
M  V30 2698 C 261.608 -5.19747 -1.25565 0
M  V30 2699 C 262.908 -5.13959 0.929689 0
M  V30 2700 H 264.602 -2.88397 0.804227 0
M  V30 2701 H 262.148 -1.38669 0.388189 0
M  V30 2702 H 264.101 -3.98519 -1.36969 0
M  V30 2703 H 262.825 -2.78767 -1.70166 0
M  V30 2704 H 261.484 -3.65779 0.245265 0
M  V30 2705 H 261.132 -4.59479 -2.04666 0
M  V30 2706 H 260.832 -5.8225 -0.791128 0
M  V30 2707 H 262.356 -5.85789 -1.72288 0
M  V30 2708 H 263.77 -5.70718 0.543546 0
M  V30 2709 H 262.167 -5.85379 1.32103 0
M  V30 2710 H 263.237 -4.51389 1.77133 0
M  V30 2711 N 264.58 -0.43555 -1.51462 0
M  V30 2712 C 265.826 0.131709 -2.02372 0
M  V30 2713 C 266.159 1.42516 -1.3192 0
M  V30 2714 O 265.434 1.89606 -0.433573 0
M  V30 2715 C 265.717 0.352301 -3.58373 0
M  V30 2716 C 265.57 -0.959676 -4.39443 0
M  V30 2717 C 266.889 1.12286 -4.25535 0
M  V30 2718 H 264.008 0.0463936 -0.735538 0
M  V30 2719 H 266.65 -0.574197 -1.81116 0
M  V30 2720 H 264.8 0.9536 -3.76615 0
M  V30 2721 H 266.472 -1.59482 -4.32855 0
M  V30 2722 H 264.715 -1.56468 -4.04599 0
M  V30 2723 H 265.386 -0.759394 -5.46752 0
M  V30 2724 H 267.862 0.613545 -4.11552 0
M  V30 2725 H 266.738 1.24598 -5.34571 0
M  V30 2726 H 266.999 2.15048 -3.86273 0
M  V30 2727 N 266.058 1.56714 -0.166846 0
M  V30 2728 C 266.991 2.13577 0.80375 0
M  V30 2729 C 267.969 1.06464 1.22899 0
M  V30 2730 O 269.153 1.34413 1.32157 0
M  V30 2731 C 266.28 2.67168 2.0818 0
M  V30 2732 C 265.326 3.86612 1.80093 0
M  V30 2733 S 266.159 5.26565 0.97416 0
M  V30 2734 C 267.315 5.83558 2.26297 0
M  V30 2735 H 267.548 2.9557 0.320267 0
M  V30 2736 H 265.081 1.54326 0.0477555 0
M  V30 2737 H 267.039 2.98692 2.8159 0
M  V30 2738 H 265.7 1.85269 2.53642 0
M  V30 2739 H 264.893 4.22422 2.7491 0
M  V30 2740 H 264.495 3.55951 1.14781 0
M  V30 2741 H 266.787 5.962 3.21795 0
M  V30 2742 H 267.73 6.80731 1.94962 0
M  V30 2743 H 268.138 5.11944 2.37853 0
M  V30 2744 N 267.536 -0.106894 1.57237 0
M  V30 2745 C 268.782 -0.81373 1.85759 0
M  V30 2746 C 269.115 -1.78952 0.754315 0
M  V30 2747 O 268.39 -1.93029 -0.23879 0
M  V30 2748 C 268.673 -1.55293 3.24894 0
M  V30 2749 C 268.526 -0.595929 4.45835 0
M  V30 2750 C 269.845 -2.5063 3.61763 0
M  V30 2751 H 266.964 -0.294369 0.67566 0
M  V30 2752 H 269.606 -0.0776472 1.89841 0
M  V30 2753 H 267.756 -2.1804 3.21544 0
M  V30 2754 H 269.428 0.0236262 4.61294 0
M  V30 2755 H 267.671 0.0916191 4.33703 0
M  V30 2756 H 268.342 -1.15004 5.39887 0
M  V30 2757 H 270.818 -1.97982 3.65981 0
M  V30 2758 H 269.694 -2.99376 4.60071 0
M  V30 2759 H 269.955 -3.3385 2.89821 0
M  V30 2760 N 269.014 -1.53014 -0.377408 0
M  V30 2761 C 269.964 -1.74996 -1.46152 0
M  V30 2762 C 270.948 -0.604236 -1.49123 0
M  V30 2763 O 272.14 -0.862489 -1.54564 0
M  V30 2764 C 269.269 -1.93267 -2.8373 0
M  V30 2765 C 268.355 -3.13807 -2.85283 0
M  V30 2766 N 268.746 -4.35941 -2.56493 0
M  V30 2767 C 267.044 -3.14288 -3.16448 0
M  V30 2768 C 267.745 -5.17615 -2.65424 0
M  V30 2769 N 266.721 -4.53559 -2.99641 0
M  V30 2770 H 270.523 -2.67044 -1.22738 0
M  V30 2771 H 268.037 -1.51479 -0.585479 0
M  V30 2772 H 270.034 -2.0714 -3.61799 0
M  V30 2773 H 268.694 -1.0244 -3.08117 0
M  V30 2774 H 269.705 -4.63876 -2.30302 0
M  V30 2775 H 266.382 -2.33312 -3.46225 0
M  V30 2776 H 267.772 -6.25006 -2.46612 0
M  V30 2777 N 270.492 0.636531 -1.44174 0
M  V30 2778 C 271.455 1.73063 -1.50273 0
M  V30 2779 C 272.455 1.56113 -0.385397 0
M  V30 2780 O 273.645 1.61707 -0.64781 0
M  V30 2781 C 270.777 3.12096 -1.37145 0
M  V30 2782 H 271.97 1.69031 -2.47727 0
M  V30 2783 H 269.523 0.849706 -1.31186 0
M  V30 2784 H 270.258 3.21728 -0.407636 0
M  V30 2785 H 270.043 3.25805 -2.18159 0
M  V30 2786 H 271.533 3.91846 -1.44382 0
M  V30 2787 N 271.97 1.30982 0.876444 0
M  V30 2788 C 272.88 1.2003 2.01569 0
M  V30 2789 C 273.896 0.11838 1.73597 0
M  V30 2790 O 275.072 0.33495 1.98595 0
M  V30 2791 C 272.137 0.901637 3.34771 0
M  V30 2792 C 271.198 2.06979 3.76109 0
M  V30 2793 C 270.431 1.78529 5.02954 0
M  V30 2794 O 270.654 0.717296 5.65872 0
M  V30 2795 O 269.588 2.64019 5.40905 0
M  V30 2796 H 273.414 2.15753 2.13739 0
M  V30 2797 H 270.999 1.10658 1.00375 0
M  V30 2798 H 272.881 0.750645 4.1466 0
M  V30 2799 H 271.556 -0.0256141 3.2369 0
M  V30 2800 H 270.463 2.27616 2.96887 0
M  V30 2801 H 271.796 2.97907 3.91807 0
M  V30 2802 N 273.449 -1.08991 1.13837 0
M  V30 2803 C 274.397 -2.17841 0.815347 0
M  V30 2804 C 275.391 -1.68164 -0.204233 0
M  V30 2805 O 276.597 -1.79897 -0.0609304 0
M  V30 2806 H 272.972 -0.710654 0.245915 0
M  V30 2807 H 274.943 -2.42315 1.74143 0
M  V30 2808 C 273.692 -3.46381 0.302614 0
M  V30 2809 H 273.015 -3.84979 1.0785 0
M  V30 2810 H 274.455 -4.23844 0.115074 0
M  V30 2811 C 272.914 -3.22556 -0.972591 0
M  V30 2812 O 273.444 -3.45599 -2.04754 0
M  V30 2813 N 271.65 -2.76134 -0.905455 0
M  V30 2814 H 271.197 -2.57582 -0.0305421 0
M  V30 2815 H 271.155 -2.60571 -1.75926 0
M  V30 2816 N 274.927 -0.932562 -1.27047 0
M  V30 2817 C 276.175 -0.574422 -1.93765 0
M  V30 2818 C 276.496 0.887993 -1.73608 0
M  V30 2819 O 275.766 1.62999 -1.08665 0
M  V30 2820 H 274.346 -0.209451 -0.717035 0
M  V30 2821 H 277.008 -1.18601 -1.5466 0
M  V30 2822 H 276.104 -0.784841 -3.02071 0
M  V30 2823 N 276.405 1.4127 -0.698611 0
M  V30 2824 C 277.682 1.94955 -0.158762 0
M  V30 2825 C 278.062 1.63781 1.33188 0
M  V30 2826 O 277.41 0.946423 2.07979 0
M  V30 2827 C 277.62 3.46044 -0.453309 0
M  V30 2828 C 278.968 4.22872 -0.382707 0
M  V30 2829 O 279.992 3.54076 -0.388396 0
M  V30 2830 O 278.851 5.45407 -0.345463 0
M  V30 2831 H 275.945 0.82683 -0.0167505 0
M  V30 2832 H 278.491 1.50971 -0.77498 0
M  V30 2833 H 277.263 3.62028 -1.48498 0
M  V30 2834 H 276.886 3.97128 0.19373 0
M  V30 2835 N 277.883 0.443576 1.51229 0
M  V30 2836 C 279.129 -0.120975 2.02439 0
M  V30 2837 C 279.462 -1.41815 1.32674 0
M  V30 2838 O 278.737 -1.89373 0.443622 0
M  V30 2839 C 279.02 -0.333291 3.58554 0
M  V30 2840 C 278.873 0.982968 4.38928 0
M  V30 2841 C 280.192 -1.10028 4.26124 0
M  V30 2842 H 277.311 -0.0424923 0.735774 0
M  V30 2843 H 279.953 0.583794 1.80809 0
M  V30 2844 H 278.103 -0.933614 3.77115 0
M  V30 2845 H 279.775 1.61775 4.32003 0
M  V30 2846 H 278.018 1.58611 4.03763 0
M  V30 2847 H 278.689 0.788379 5.46341 0
M  V30 2848 H 281.165 -0.591711 4.11871 0
M  V30 2849 H 280.041 -1.21761 5.35225 0
M  V30 2850 H 280.302 -2.12996 3.87408 0
M  V30 2851 N 279.361 -1.56624 0.175154 0
M  V30 2852 C 280.61 -1.96173 -0.468921 0
M  V30 2853 C 280.923 -1.06401 -1.64128 0
M  V30 2854 O 282.129 -1.35648 -2.35185 0
M  V30 2855 C 280.585 -3.48833 -0.885633 0
M  V30 2856 C 280.193 -4.47237 0.261343 0
M  V30 2857 C 281.937 -3.97194 -1.49791 0
M  V30 2858 C 279.844 -5.9114 -0.175214 0
M  V30 2859 H 278.774 -0.732455 -0.178958 0
M  V30 2860 H 281.425 -1.81591 0.263997 0
M  V30 2861 H 279.807 -3.58848 -1.67464 0
M  V30 2862 H 280.981 -4.4894 1.03871 0
M  V30 2863 H 279.296 -4.08956 0.783827 0
M  V30 2864 H 281.893 -5.02167 -1.83665 0
M  V30 2865 H 282.236 -3.40351 -2.39722 0
M  V30 2866 H 282.769 -3.90212 -0.773267 0
M  V30 2867 H 279.508 -6.51865 0.689414 0
M  V30 2868 H 279.028 -5.92735 -0.91786 0
M  V30 2869 H 280.707 -6.44044 -0.617792 0
M  V30 2870 N 280.839 0.0985539 -1.57292 0
M  V30 2871 C 282.116 0.834155 -1.76921 0
M  V30 2872 C 282.496 1.97101 -0.755928 0
M  V30 2873 O 281.844 2.27474 0.216245 0
M  V30 2874 C 282.054 1.33194 -3.22584 0
M  V30 2875 C 283.402 1.77611 -3.85668 0
M  V30 2876 O 284.426 1.42825 -3.26312 0
M  V30 2877 O 283.285 2.4192 -4.90038 0
M  V30 2878 H 280.379 0.397628 -0.725135 0
M  V30 2879 H 282.925 0.0807044 -1.69508 0
M  V30 2880 H 281.697 0.517248 -3.87866 0
M  V30 2881 H 281.32 2.1475 -3.34616 0
M  V30 2882 N 282.317 1.53212 0.369288 0
M  V30 2883 C 283.547 1.72868 1.13139 0
M  V30 2884 C 283.955 0.455754 1.83629 0
M  V30 2885 O 283.298 -0.580861 1.74275 0
M  V30 2886 C 283.36 2.83667 2.20847 0
M  V30 2887 C 283.024 4.24142 1.70155 0
M  V30 2888 C 284.021 5.06619 1.16763 0
M  V30 2889 C 281.706 4.70539 1.7578 0
M  V30 2890 C 283.7 6.33581 0.696678 0
M  V30 2891 C 281.387 5.97481 1.28297 0
M  V30 2892 C 282.385 6.78833 0.753307 0
M  V30 2893 O 282.073 8.03393 0.285475 0
M  V30 2894 H 281.805 0.581707 0.344373 0
M  V30 2895 H 284.359 2.00736 0.435243 0
M  V30 2896 H 282.589 2.51265 2.93944 0
M  V30 2897 H 284.278 2.91536 2.82421 0
M  V30 2898 H 285.044 4.71948 1.11758 0
M  V30 2899 H 280.923 4.07293 2.15949 0
M  V30 2900 H 284.467 6.97027 0.282581 0
M  V30 2901 H 280.364 6.31651 1.32994 0
M  V30 2902 H 281.132 8.17497 0.405145 0
M  V30 2903 N 283.795 -0.628877 1.44509 0
M  V30 2904 C 284.725 -1.75187 1.54376 0
M  V30 2905 C 285.706 -1.65411 0.396618 0
M  V30 2906 O 286.891 -1.84137 0.617031 0
M  V30 2907 C 284.021 -3.13725 1.48976 0
M  V30 2908 C 282.975 -3.38291 2.62189 0
M  V30 2909 C 282.301 -4.76883 2.41841 0
M  V30 2910 C 283.601 -3.30632 4.04326 0
M  V30 2911 H 285.295 -1.67187 2.48373 0
M  V30 2912 H 282.841 -0.802909 1.19538 0
M  V30 2913 H 284.794 -3.92064 1.54478 0
M  V30 2914 H 283.518 -3.22515 0.514961 0
M  V30 2915 H 282.177 -2.62334 2.56079 0
M  V30 2916 H 281.825 -4.82378 1.42548 0
M  V30 2917 H 281.525 -4.94278 3.17747 0
M  V30 2918 H 283.049 -5.57449 2.49165 0
M  V30 2919 H 284.463 -3.98873 4.11793 0
M  V30 2920 H 282.86 -3.59561 4.80454 0
M  V30 2921 H 283.93 -2.28404 4.27738 0
M  V30 2922 N 285.273 -1.31445 -0.869486 0
M  V30 2923 C 286.501 -1.24122 -1.65534 0
M  V30 2924 C 286.916 0.193387 -1.87807 0
M  V30 2925 O 286.273 1.12557 -1.43656 0
M  V30 2926 C 286.324 -1.98229 -3.02304 0
M  V30 2927 O 286.045 -3.3609 -2.81026 0
M  V30 2928 C 287.546 -1.97751 -3.96749 0
M  V30 2929 H 284.766 -0.428868 -0.516055 0
M  V30 2930 H 287.31 -1.73328 -1.08525 0
M  V30 2931 H 285.465 -1.52782 -3.56001 0
M  V30 2932 H 285.879 -3.7383 -3.67902 0
M  V30 2933 H 287.353 -2.54114 -4.90031 0
M  V30 2934 H 287.83 -0.960137 -4.28577 0
M  V30 2935 H 288.436 -2.43079 -3.48988 0
M  V30 2936 N 286.751 1.08385 -1.14413 0
M  V30 2937 C 287.698 2.15311 -0.831265 0
M  V30 2938 C 288.668 1.64751 0.211292 0
M  V30 2939 O 289.853 1.90627 0.0811674 0
M  V30 2940 C 286.993 3.43658 -0.315143 0
M  V30 2941 C 286.106 4.08064 -1.41802 0
M  V30 2942 C 285.241 5.24207 -0.859126 0
M  V30 2943 C 284.28 5.80554 -1.93967 0
M  V30 2944 N 283.417 6.88042 -1.39793 0
M  V30 2945 H 288.257 2.41415 -1.74708 0
M  V30 2946 H 285.794 1.18474 -0.871909 0
M  V30 2947 H 287.752 4.172 0.00230884 0
M  V30 2948 H 286.382 3.17839 0.56378 0
M  V30 2949 H 285.434 3.3228 -1.85187 0
M  V30 2950 H 286.746 4.45962 -2.23427 0
M  V30 2951 H 285.9 6.04689 -0.49359 0
M  V30 2952 H 284.639 4.87699 -0.011932 0
M  V30 2953 H 283.644 4.98725 -2.31415 0
M  V30 2954 H 284.869 6.19121 -2.79046 0
M  V30 2955 H 282.815 6.53493 -0.572919 0
M  V30 2956 H 282.732 7.24767 -2.15054 0
M  V30 2957 H 284 7.72255 -1.0603 0
M  V30 2958 N 288.23 0.939286 1.26551 0
M  V30 2959 C 289.177 0.446088 2.26448 0
M  V30 2960 C 290.147 -0.493234 1.58608 0
M  V30 2961 O 291.332 -0.409857 1.86346 0
M  V30 2962 C 288.472 -0.284375 3.43926 0
M  V30 2963 C 287.585 0.690399 4.26448 0
M  V30 2964 C 286.72 -0.0610712 5.31165 0
M  V30 2965 C 285.759 0.905649 6.05363 0
M  V30 2966 N 284.896 0.186055 7.01853 0
M  V30 2967 H 289.736 1.30291 2.68008 0
M  V30 2968 H 287.273 0.65371 1.31776 0
M  V30 2969 H 289.231 -0.724313 4.10864 0
M  V30 2970 H 287.861 -1.10535 3.03285 0
M  V30 2971 H 286.913 1.24885 3.59316 0
M  V30 2972 H 288.225 1.42873 4.779 0
M  V30 2973 H 287.379 -0.56038 6.04106 0
M  V30 2974 H 286.118 -0.832297 4.80546 0
M  V30 2975 H 285.123 1.4161 5.3125 0
M  V30 2976 H 286.348 1.67685 6.58072 0
M  V30 2977 H 284.294 -0.566714 6.53548 0
M  V30 2978 H 284.211 0.863752 7.51049 0
M  V30 2979 H 285.479 -0.292221 7.78952 0
M  V30 2980 N 289.708 -1.40897 0.706093 0
M  V30 2981 C 290.671 -2.29131 0.0562841 0
M  V30 2982 C 291.671 -1.44901 -0.697166 0
M  V30 2983 O 292.861 -1.65926 -0.530484 0
M  V30 2984 C 289.993 -3.27957 -0.93043 0
M  V30 2985 H 291.186 -2.88091 0.833284 0
M  V30 2986 H 288.739 -1.4906 0.470192 0
M  V30 2987 H 289.474 -2.73997 -1.73482 0
M  V30 2988 H 289.259 -3.90124 -0.393166 0
M  V30 2989 H 290.749 -3.94049 -1.38256 0
M  V30 2990 N 291.186 -0.45159 -1.50991 0
M  V30 2991 C 292.116 0.342898 -2.30969 0
M  V30 2992 C 293.097 1.00815 -1.37005 0
M  V30 2993 O 294.282 1.00907 -1.65926 0
M  V30 2994 C 291.412 1.43637 -3.16205 0
M  V30 2995 C 290.366 0.893818 -4.18563 0
M  V30 2996 C 289.692 2.08411 -4.92411 0
M  V30 2997 C 290.992 -0.0815568 -5.22236 0
M  V30 2998 H 292.686 -0.324556 -2.97636 0
M  V30 2999 H 290.232 -0.157531 -1.43136 0
M  V30 3000 H 292.185 1.9995 -3.70942 0
M  V30 3001 H 290.909 2.13232 -2.47386 0
M  V30 3002 H 289.568 0.352798 -3.64898 0
M  V30 3003 H 289.216 2.76658 -4.20082 0
M  V30 3004 H 288.916 1.72741 -5.61636 0
M  V30 3005 H 290.44 2.65251 -5.49976 0
M  V30 3006 H 291.854 0.391742 -5.7196 0
M  V30 3007 H 290.251 -0.351551 -5.99069 0
M  V30 3008 H 291.321 -1.01374 -4.74185 0
M  V30 3009 N 292.664 1.56529 -0.183458 0
M  V30 3010 C 293.574 2.22144 0.754272 0
M  V30 3011 C 294.59 1.21684 1.24374 0
M  V30 3012 O 295.766 1.54385 1.29333 0
M  V30 3013 C 292.831 2.85884 1.96141 0
M  V30 3014 C 291.892 4.01579 1.51765 0
M  V30 3015 C 291.125 4.6227 2.66725 0
M  V30 3016 O 291.348 4.21865 3.83909 0
M  V30 3017 O 290.282 5.51936 2.40104 0
M  V30 3018 H 294.108 3.02861 0.225527 0
M  V30 3019 H 291.693 1.49331 0.0453032 0
M  V30 3020 H 293.575 3.26253 2.66715 0
M  V30 3021 H 292.25 2.08154 2.47899 0
M  V30 3022 H 291.157 3.65856 0.781049 0
M  V30 3023 H 292.49 4.80938 1.04686 0
M  V30 3024 N 294.142 -0.090211 1.57342 0
M  V30 3025 C 295.419 -0.824761 1.77361 0
M  V30 3026 C 295.799 -1.96698 0.76637 0
M  V30 3027 O 295.147 -2.27586 -0.204179 0
M  V30 3028 C 295.357 -1.31481 3.23286 0
M  V30 3029 C 296.705 -1.75563 3.86604 0
M  V30 3030 O 297.729 -1.41093 3.27065 0
M  V30 3031 O 296.588 -2.39317 4.91314 0
M  V30 3032 H 293.682 -0.393776 0.727234 0
M  V30 3033 H 296.228 -0.0717138 1.69548 0
M  V30 3034 H 295 -0.496671 3.88135 0
M  V30 3035 H 294.623 -2.12973 3.35751 0
M  V30 3036 N 295.62 -1.53406 -0.361157 0
M  V30 3037 C 296.868 -1.69467 -1.10115 0
M  V30 3038 C 297.189 -0.451352 -1.89705 0
M  V30 3039 O 296.459 0.534636 -1.88463 0
M  V30 3040 H 295.039 -0.624749 -0.409508 0
M  V30 3041 H 297.701 -1.90609 -0.406699 0
M  V30 3042 H 296.797 -2.55774 -1.78847 0
M  V30 3043 N 297.098 0.621204 -1.44841 0
M  V30 3044 C 298.048 1.72663 -1.48901 0
M  V30 3045 C 299.032 1.56964 -0.353702 0
M  V30 3046 O 300.224 1.66532 -0.599669 0
M  V30 3047 C 297.353 3.11381 -1.44557 0
M  V30 3048 C 296.439 3.32514 -2.6324 0
M  V30 3049 N 296.83 3.23969 -3.8843 0
M  V30 3050 C 295.128 3.63343 -2.58647 0
M  V30 3051 C 295.829 3.46062 -4.67564 0
M  V30 3052 N 294.805 3.69407 -3.98797 0
M  V30 3053 H 298.607 1.64529 -2.43531 0
M  V30 3054 H 296.121 0.82401 -1.39942 0
M  V30 3055 H 298.118 3.90667 -1.4555 0
M  V30 3056 H 296.778 3.20674 -0.509731 0
M  V30 3057 H 297.789 3.02669 -4.20252 0
M  V30 3058 H 294.466 3.79556 -1.73906 0
M  V30 3059 H 295.856 3.44963 -5.76585 0
M  V30 3060 N 298.576 1.31904 0.862503 0
M  V30 3061 C 299.804 1.24998 1.64873 0
M  V30 3062 C 300.219 -0.183425 1.87907 0
M  V30 3063 O 299.576 -1.11794 1.44251 0
M  V30 3064 C 299.627 1.99829 3.01248 0
M  V30 3065 O 299.348 3.37575 2.79239 0
M  V30 3066 C 300.849 1.99852 3.95694 0
M  V30 3067 H 298.069 0.431599 0.513773 0
M  V30 3068 H 300.613 1.73901 1.07604 0
M  V30 3069 H 298.768 1.54668 3.55185 0
M  V30 3070 H 299.182 3.75776 3.65914 0
M  V30 3071 H 300.656 2.56709 4.88676 0
M  V30 3072 H 301.133 0.982852 4.28062 0
M  V30 3073 H 301.739 2.44926 3.47694 0
M  V30 3074 N 300.054 -1.07777 1.14986 0
M  V30 3075 C 301.331 -1.7699 0.832695 0
M  V30 3076 C 301.711 -2.001 -0.672561 0
M  V30 3077 O 301.059 -1.61598 -1.6155 0
M  V30 3078 C 301.269 -3.08139 1.63863 0
M  V30 3079 C 302.617 -3.8256 1.84208 0
M  V30 3080 O 303.641 -3.17939 1.60603 0
M  V30 3081 O 302.5 -4.98612 2.23714 0
M  V30 3082 H 299.594 -0.768389 0.305791 0
M  V30 3083 H 302.14 -1.14182 1.25541 0
M  V30 3084 H 300.912 -2.86909 2.6608 0
M  V30 3085 H 300.535 -3.78678 1.21197 0
M  V30 3086 N 301.532 -0.945985 -1.26051 0
M  V30 3087 C 302.943 -0.638096 -1.75457 0
M  V30 3088 C 303.294 0.846672 -1.76991 0
M  V30 3089 O 302.419 1.66262 -1.38513 0
M  V30 3090 C 303.014 -1.15157 -3.18629 0
M  V30 3091 C 301.573 -0.894004 -3.65629 0
M  V30 3092 C 300.72 -1.29967 -2.44957 0
M  V30 3093 H 303.671 -1.12376 -1.1206 0
M  V30 3094 H 303.692 -0.507615 -3.77099 0
M  V30 3095 H 303.204 -2.23222 -3.1748 0
M  V30 3096 H 301.305 0.172057 -3.72203 0
M  V30 3097 H 301.418 -1.52439 -4.54202 0
M  V30 3098 H 299.782 -0.718078 -2.44368 0
M  V30 3099 H 300.565 -2.38935 -2.46505 0
M  V30 3100 N 303.011 1.40521 -0.713556 0
M  V30 3101 C 304.26 2.00155 -0.249192 0
M  V30 3102 C 304.573 1.57224 1.16362 0
M  V30 3103 O 305.779 2.09542 1.72639 0
M  V30 3104 C 304.235 3.5773 -0.3946 0
M  V30 3105 C 303.843 4.09635 -1.81392 0
M  V30 3106 C 305.587 4.24499 0.00907364 0
M  V30 3107 C 303.494 5.59707 -1.91003 0
M  V30 3108 H 302.424 0.74868 -0.0894114 0
M  V30 3109 H 305.075 1.60784 -0.884352 0
M  V30 3110 H 303.457 3.94792 0.30911 0
M  V30 3111 H 304.631 3.83955 -2.54785 0
M  V30 3112 H 302.946 3.55456 -2.16888 0
M  V30 3113 H 305.543 5.34683 -0.0420404 0
M  V30 3114 H 305.886 4.02824 1.05065 0
M  V30 3115 H 306.419 3.92536 -0.645007 0
M  V30 3116 H 303.158 5.86234 -2.93275 0
M  V30 3117 H 302.678 5.87258 -1.22019 0
M  V30 3118 H 304.357 6.24776 -1.6812 0
M  V30 3119 N 304.489 0.459591 1.5075 0
M  V30 3120 C 305.719 -0.0972338 2.06371 0
M  V30 3121 C 306.127 -1.35074 1.32483 0
M  V30 3122 O 305.47 -1.79637 0.384226 0
M  V30 3123 C 305.532 -0.462759 3.56509 0
M  V30 3124 C 305.196 0.687084 4.51805 0
M  V30 3125 C 306.193 1.56578 4.95761 0
M  V30 3126 C 303.878 0.874144 4.94635 0
M  V30 3127 C 305.872 2.61604 5.81242 0
M  V30 3128 C 303.559 1.92765 5.79901 0
M  V30 3129 C 304.557 2.79697 6.23104 0
M  V30 3130 O 304.245 3.83235 7.06673 0
M  V30 3131 H 303.977 -0.00140687 0.675999 0
M  V30 3132 H 306.531 0.644011 1.95043 0
M  V30 3133 H 304.761 -1.25703 3.65699 0
M  V30 3134 H 306.45 -0.953323 3.94546 0
M  V30 3135 H 307.216 1.4329 4.6335 0
M  V30 3136 H 303.095 0.207006 4.60535 0
M  V30 3137 H 306.639 3.29489 6.14884 0
M  V30 3138 H 302.536 2.06064 6.11725 0
M  V30 3139 H 303.304 3.80084 7.24899 0
M  V30 3140 N 305.967 -1.56429 0.191757 0
M  V30 3141 C 306.917 -2.15548 -0.743184 0
M  V30 3142 C 307.901 -1.09531 -1.17863 0
M  V30 3143 O 309.093 -1.35602 -1.13759 0
M  V30 3144 C 306.222 -2.81577 -1.96391 0
M  V30 3145 C 305.308 -3.9478 -1.54951 0
M  V30 3146 N 305.699 -4.98677 -0.845876 0
M  V30 3147 C 303.997 -4.06319 -1.83905 0
M  V30 3148 C 304.698 -5.78183 -0.638724 0
M  V30 3149 N 303.674 -5.30495 -1.18643 0
M  V30 3150 H 307.476 -2.9324 -0.196839 0
M  V30 3151 H 304.99 -1.62398 -0.0081603 0
M  V30 3152 H 306.987 -3.22321 -2.64415 0
M  V30 3153 H 305.647 -2.05371 -2.51501 0
M  V30 3154 H 306.658 -5.15464 -0.501704 0
M  V30 3155 H 303.335 -3.41238 -2.40548 0
M  V30 3156 H 304.725 -6.71851 -0.0807929 0
M  V30 3157 N 307.445 0.0818655 -1.57387 0
M  V30 3158 C 308.408 1.08265 -2.02018 0
M  V30 3159 C 309.408 1.32183 -0.915664 0
M  V30 3160 O 310.598 1.28073 -1.18081 0
M  V30 3161 C 307.73 2.42871 -2.39221 0
M  V30 3162 H 308.923 0.698204 -2.91659 0
M  V30 3163 H 306.476 0.327303 -1.52835 0
M  V30 3164 H 307.211 2.86167 -1.52575 0
M  V30 3165 H 306.996 2.26855 -3.19811 0
M  V30 3166 H 308.486 3.14826 -2.74362 0
M  V30 3167 N 308.923 1.53595 0.353017 0
M  V30 3168 C 309.853 1.83902 1.43883 0
M  V30 3169 C 310.834 0.693421 1.55324 0
M  V30 3170 O 312.019 0.944452 1.69687 0
M  V30 3171 C 309.149 2.04016 2.8106 0
M  V30 3172 C 308.103 3.19814 2.84434 0
M  V30 3173 C 307.429 3.25244 4.24406 0
M  V30 3174 C 308.729 4.58133 2.50822 0
M  V30 3175 H 310.423 2.74835 1.1877 0
M  V30 3176 H 307.969 1.32242 0.569917 0
M  V30 3177 H 309.922 2.238 3.57059 0
M  V30 3178 H 308.646 1.09804 3.07588 0
M  V30 3179 H 307.305 2.9987 2.10887 0
M  V30 3180 H 306.953 2.28646 4.48029 0
M  V30 3181 H 306.653 4.03054 4.27576 0
M  V30 3182 H 308.177 3.47228 5.0226 0
M  V30 3183 H 309.591 4.77995 3.16534 0
M  V30 3184 H 307.988 5.38276 2.6529 0
M  V30 3185 H 309.058 4.62387 1.46034 0
M  V30 3186 N 310.401 -0.613514 1.45168 0
M  V30 3187 C 311.629 -1.39946 1.5239 0
M  V30 3188 C 312.044 -1.88167 0.154531 0
M  V30 3189 O 311.401 -1.61872 -0.842843 0
M  V30 3190 C 311.452 -2.60795 2.50337 0
M  V30 3191 O 311.173 -2.1458 3.81952 0
M  V30 3192 C 312.674 -3.53723 2.67198 0
M  V30 3193 H 309.894 -0.428593 0.516284 0
M  V30 3194 H 312.438 -0.748753 1.903 0
M  V30 3195 H 310.593 -3.21919 2.15515 0
M  V30 3196 H 311.007 -2.93055 4.34993 0
M  V30 3197 H 312.481 -4.35079 3.39721 0
M  V30 3198 H 312.958 -4.0368 1.73029 0
M  V30 3199 H 313.564 -2.98456 3.02992 0
M  V30 3200 N 311.879 -1.3236 -0.855495 0
M  V30 3201 C 313.295 -1.11332 -1.14356 0
M  V30 3202 C 313.495 0.106751 -2.01217 0
M  V30 3203 O 312.551 0.791891 -2.39761 0
M  V30 3204 C 313.864 -2.39237 -1.82171 0
M  V30 3205 C 315.412 -2.44986 -1.9481 0
M  V30 3206 C 315.887 -3.7281 -2.66039 0
M  V30 3207 N 317.378 -3.73787 -2.73565 0
M  V30 3208 C 318.113 -4.69394 -3.29327 0
M  V30 3209 N 317.609 -5.75367 -3.85907 0
M  V30 3210 N 319.402 -4.56893 -3.27423 0
M  V30 3211 H 311.553 -2.10586 -0.277027 0
M  V30 3212 H 313.816 -0.929701 -0.185364 0
M  V30 3213 H 313.522 -3.28431 -1.25802 0
M  V30 3214 H 313.396 -2.50134 -2.82335 0
M  V30 3215 H 315.783 -1.56252 -2.50338 0
M  V30 3216 H 315.864 -2.38043 -0.936448 0
M  V30 3217 H 315.508 -4.61918 -2.11174 0
M  V30 3218 H 315.438 -3.77024 -3.67642 0
M  V30 3219 H 317.929 -2.97189 -2.33424 0
M  V30 3220 H 318.242 -6.44378 -4.26611 0
M  V30 3221 H 316.587 -5.79123 -3.84242 0
M  V30 3222 H 319.778 -3.73269 -2.82467 0
M  V30 3223 H 319.951 -5.31577 -3.7058 0
M  V30 3224 N 313.357 1.07166 -1.15556 0
M  V30 3225 C 314.768 1.6127 -0.940693 0
M  V30 3226 C 315.119 1.89251 0.517551 0
M  V30 3227 O 314.244 1.65937 1.38903 0
M  V30 3228 C 314.839 2.92993 -1.7012 0
M  V30 3229 C 313.398 3.43832 -1.53156 0
M  V30 3230 C 312.545 2.1786 -1.71558 0
M  V30 3231 H 315.496 0.90229 -1.30554 0
M  V30 3232 H 315.517 3.62007 -1.17181 0
M  V30 3233 H 315.029 2.72596 -2.76248 0
M  V30 3234 H 313.13 3.69307 -0.494294 0
M  V30 3235 H 313.243 4.19747 -2.30975 0
M  V30 3236 H 311.607 2.2765 -1.14225 0
M  V30 3237 H 312.39 1.99956 -2.79056 0
M  V30 3238 N 314.835 0.952656 1.25548 0
M  V30 3239 C 316.246 0.647392 1.75116 0
M  V30 3240 C 316.597 -0.837274 1.77438 0
M  V30 3241 O 315.722 -1.65525 1.39393 0
M  V30 3242 C 316.317 1.16845 3.18014 0
M  V30 3243 C 314.876 0.913382 3.6515 0
M  V30 3244 C 314.023 1.31265 2.44264 0
M  V30 3245 H 316.974 1.12968 1.11462 0
M  V30 3246 H 316.995 0.527606 3.76824 0
M  V30 3247 H 316.507 2.24902 3.16292 0
M  V30 3248 H 314.608 -0.152316 3.72289 0
M  V30 3249 H 314.721 1.54845 4.53387 0
M  V30 3250 H 313.085 0.731028 2.43984 0
M  V30 3251 H 313.868 2.40239 2.45234 0
M  V30 3252 N 316.313 -1.40141 0.720998 0
M  V30 3253 C 317.223 -2.34486 0.0731031 0
M  V30 3254 C 318.239 -1.57587 -0.737723 0
M  V30 3255 O 319.415 -1.89949 -0.669429 0
M  V30 3256 C 316.48 -3.36528 -0.833656 0
M  V30 3257 C 315.541 -4.29298 -0.0121673 0
M  V30 3258 C 314.774 -5.26466 -0.875742 0
M  V30 3259 O 314.997 -5.29745 -2.11485 0
M  V30 3260 O 313.931 -6.01092 -0.31185 0
M  V30 3261 H 317.757 -2.9152 0.851444 0
M  V30 3262 H 315.342 -1.41427 0.481527 0
M  V30 3263 H 317.224 -3.99093 -1.35289 0
M  V30 3264 H 315.899 -2.81899 -1.59105 0
M  V30 3265 H 314.806 -3.70001 0.552262 0
M  V30 3266 H 316.139 -4.87094 0.707129 0
M  V30 3267 N 317.792 -0.46758 -1.50504 0
M  V30 3268 C 318.722 0.318381 -2.31319 0
M  V30 3269 C 319.703 0.993564 -1.38066 0
M  V30 3270 O 320.888 0.991411 -1.66987 0
M  V30 3271 C 318.018 1.40275 -3.17711 0
M  V30 3272 C 316.972 0.849373 -4.19487 0
M  V30 3273 C 316.298 2.03177 -4.94594 0
M  V30 3274 C 317.598 -0.136942 -5.2212 0
M  V30 3275 H 319.292 -0.356106 -2.97275 0
M  V30 3276 H 316.838 -0.172703 -1.42961 0
M  V30 3277 H 318.791 1.96004 -3.73042 0
M  V30 3278 H 317.515 2.10596 -2.49634 0
M  V30 3279 H 316.174 0.314076 -3.65252 0
M  V30 3280 H 315.822 2.72187 -4.22993 0
M  V30 3281 H 315.522 1.66774 -5.63436 0
M  V30 3282 H 317.046 2.59403 -5.52759 0
M  V30 3283 H 318.46 0.331056 -5.72343 0
M  V30 3284 H 316.857 -0.41507 -5.98663 0
M  V30 3285 H 317.927 -1.06398 -4.73083 0
M  V30 3286 N 319.27 1.56325 -0.20005 0
M  V30 3287 C 320.18 2.22931 0.730668 0
M  V30 3288 C 321.196 1.22997 1.23076 0
M  V30 3289 O 322.372 1.55748 1.27689 0
M  V30 3290 C 319.437 2.87948 1.93098 0
M  V30 3291 C 318.498 4.03166 1.47497 0
M  V30 3292 C 317.731 4.65073 2.61807 0
M  V30 3293 O 317.954 4.25913 3.79413 0
M  V30 3294 O 316.888 5.54452 2.34237 0
M  V30 3295 H 320.714 3.03084 0.193391 0
M  V30 3296 H 318.299 1.49371 0.0294621 0
M  V30 3297 H 320.181 3.29063 2.6324 0
M  V30 3298 H 318.856 2.10771 2.45677 0
M  V30 3299 H 317.763 3.66664 0.742201 0
M  V30 3300 H 319.096 4.82022 0.995796 0
M  V30 3301 N 320.748 -0.0735177 1.57428 0
M  V30 3302 C 321.996 -0.771472 1.86796 0
M  V30 3303 C 322.317 -1.78201 0.791804 0
M  V30 3304 O 321.587 -1.95074 -0.179718 0
M  V30 3305 H 320.167 -0.28791 0.689287 0
M  V30 3306 H 322.829 -0.0500161 1.94836 0
M  V30 3307 H 321.925 -1.28874 2.8425 0
M  V30 3308 N 322.226 -1.5378 -0.344866 0
M  V30 3309 C 323.136 -1.84667 -1.4469 0
M  V30 3310 C 324.152 -0.736704 -1.57635 0
M  V30 3311 O 325.328 -1.02888 -1.73136 0
M  V30 3312 C 322.393 -2.04869 -2.79696 0
M  V30 3313 C 321.454 -3.28731 -2.76106 0
M  V30 3314 C 320.687 -3.4796 -4.04673 0
M  V30 3315 O 320.91 -2.71052 -5.01883 0
M  V30 3316 O 319.844 -4.41383 -4.09224 0
M  V30 3317 H 323.67 -2.78334 -1.21506 0
M  V30 3318 H 321.255 -1.39418 -0.536921 0
M  V30 3319 H 323.137 -2.19609 -3.59652 0
M  V30 3320 H 321.812 -1.14391 -3.02814 0
M  V30 3321 H 320.719 -3.19396 -1.94774 0
M  V30 3322 H 322.052 -4.19198 -2.57941 0
M  V30 3323 N 323.704 0.605807 -1.45491 0
M  V30 3324 C 324.667 1.69836 -1.5391 0
M  V30 3325 C 325.667 1.55261 -0.418424 0
M  V30 3326 O 326.857 1.60296 -0.681965 0
M  V30 3327 C 323.989 3.09117 -1.43734 0
M  V30 3328 H 325.182 1.63738 -2.51257 0
M  V30 3329 H 322.735 0.821689 -1.32959 0
M  V30 3330 H 323.47 3.20791 -0.475788 0
M  V30 3331 H 323.255 3.21104 -2.25021 0
M  V30 3332 H 324.745 3.88696 -1.52661 0
M  V30 3333 N 325.182 1.32811 0.848464 0
M  V30 3334 C 326.41 1.26739 1.63538 0
M  V30 3335 C 326.825 -0.163484 1.88091 0
M  V30 3336 O 326.182 -1.10258 1.45429 0
M  V30 3337 C 326.233 2.03013 2.99112 0
M  V30 3338 O 325.954 3.40518 2.75643 0
M  V30 3339 C 327.455 2.04038 3.93552 0
M  V30 3340 H 324.675 0.437024 0.509167 0
M  V30 3341 H 327.219 1.75033 1.05753 0
M  V30 3342 H 325.374 1.58426 3.53525 0
M  V30 3343 H 325.788 3.79635 3.61908 0
M  V30 3344 H 327.262 2.61877 4.85926 0
M  V30 3345 H 327.739 1.0282 4.26995 0
M  V30 3346 H 328.345 2.486 3.45077 0
M  V30 3347 N 326.66 -1.06551 1.16123 0
M  V30 3348 C 327.908 -1.78947 0.939267 0
M  V30 3349 C 328.229 -1.87532 -0.534476 0
M  V30 3350 O 327.499 -1.38211 -1.38833 0
M  V30 3351 H 326.079 -0.662807 0.344523 0
M  V30 3352 H 328.741 -1.28725 1.46342 0
M  V30 3353 H 327.837 -2.81117 1.35572 0
M  V30 3354 N 328.138 -0.959301 -1.25041 0
M  V30 3355 C 329.554 -0.664474 -1.4511 0
M  V30 3356 C 329.754 0.776481 -1.85938 0
M  V30 3357 O 328.81 1.55128 -1.99227 0
M  V30 3358 C 330.123 -1.64139 -2.5195 0
M  V30 3359 C 331.671 -1.65309 -2.65786 0
M  V30 3360 C 332.146 -2.61777 -3.75815 0
M  V30 3361 N 333.637 -2.60169 -3.83231 0
M  V30 3362 C 334.372 -3.31489 -4.6787 0
M  V30 3363 N 333.868 -4.12298 -5.56761 0
M  V30 3364 N 335.661 -3.20354 -4.61876 0
M  V30 3365 H 327.812 -1.89043 -0.968332 0
M  V30 3366 H 330.075 -0.813408 -0.4869 0
M  V30 3367 H 329.781 -2.67086 -2.28819 0
M  V30 3368 H 329.655 -1.40756 -3.49954 0
M  V30 3369 H 332.042 -0.630778 -2.8828 0
M  V30 3370 H 332.123 -1.92753 -1.68167 0
M  V30 3371 H 331.767 -3.64137 -3.54071 0
M  V30 3372 H 331.697 -2.31616 -4.72929 0
M  V30 3373 H 334.188 -2.01507 -3.19692 0
M  V30 3374 H 334.501 -4.63625 -6.18281 0
M  V30 3375 H 332.846 -4.16395 -5.56454 0
M  V30 3376 H 336.037 -2.56692 -3.91442 0
M  V30 3377 H 336.21 -3.76201 -5.27614 0
M  V30 3378 N 329.616 1.39756 -0.72842 0
M  V30 3379 C 330.579 2.29012 -0.0927297 0
M  V30 3380 C 331.579 1.45992 0.674025 0
M  V30 3381 O 332.769 1.66749 0.50402 0
M  V30 3382 C 329.901 3.29396 0.878137 0
M  V30 3383 H 331.094 2.86729 -0.879011 0
M  V30 3384 H 328.647 1.48293 -0.493847 0
M  V30 3385 H 329.382 2.76722 1.69101 0
M  V30 3386 H 329.167 3.907 0.331051 0
M  V30 3387 H 330.657 3.96199 1.3197 0
M  V30 3388 N 331.094 0.475555 1.50254 0
M  V30 3389 C 332.334 -0.0765802 2.04256 0
M  V30 3390 C 332.698 -1.36587 1.34937 0
M  V30 3391 O 333.899 -2.00066 1.79519 0
M  V30 3392 C 332.17 -0.251668 3.56513 0
M  V30 3393 S 333.729 -0.761716 4.32138 0
M  V30 3394 H 330.547 -0.0138456 0.710865 0
M  V30 3395 H 333.149 0.643714 1.84598 0
M  V30 3396 H 331.853 0.692404 4.04517 0
M  V30 3397 H 331.384 -0.997946 3.80532 0
M  V30 3398 H 333.399 -2.03451 4.52573 0
M  V30 3399 N 332.573 -1.56217 0.208337 0
M  V30 3400 C 333.505 -2.1695 -0.739276 0
M  V30 3401 C 334.518 -1.13492 -1.1672 0
M  V30 3402 O 335.707 -1.40529 -1.10063 0
M  V30 3403 C 332.807 -2.72755 -2.01142 0
M  V30 3404 C 331.98 -4.0125 -1.74118 0
M  V30 3405 C 331.039 -4.41749 -2.85909 0
M  V30 3406 O 330.065 -5.08912 -2.54946 0
M  V30 3407 N 331.267 -4.06342 -4.14568 0
M  V30 3408 H 334.032 -2.98893 -0.219837 0
M  V30 3409 H 331.593 -1.61878 0.0268445 0
M  V30 3410 H 333.585 -2.96826 -2.75094 0
M  V30 3411 H 332.155 -1.95191 -2.4417 0
M  V30 3412 H 331.375 -3.85173 -0.838775 0
M  V30 3413 H 332.663 -4.851 -1.53477 0
M  V30 3414 H 332.061 -3.52345 -4.42571 0
M  V30 3415 H 330.618 -4.35335 -4.85105 0
M  V30 3416 N 334.051 0.0651679 -1.57465 0
M  V30 3417 C 334.981 1.07693 -2.07182 0
M  V30 3418 C 335.962 1.39962 -0.966673 0
M  V30 3419 O 337.147 1.49475 -1.2398 0
M  V30 3420 C 334.277 2.3885 -2.52127 0
M  V30 3421 C 333.231 2.20917 -3.66579 0
M  V30 3422 C 332.557 3.57515 -3.97601 0
M  V30 3423 C 333.857 1.62493 -4.9638 0
M  V30 3424 H 335.551 0.663199 -2.91962 0
M  V30 3425 H 333.097 0.317569 -1.40455 0
M  V30 3426 H 335.05 3.09928 -2.85522 0
M  V30 3427 H 333.774 2.82215 -1.64384 0
M  V30 3428 H 332.433 1.52279 -3.33477 0
M  V30 3429 H 332.081 3.98463 -3.06979 0
M  V30 3430 H 331.781 3.46353 -4.74672 0
M  V30 3431 H 333.305 4.30013 -4.33499 0
M  V30 3432 H 334.719 2.23445 -5.27963 0
M  V30 3433 H 333.116 1.62009 -5.77818 0
M  V30 3434 H 334.186 0.587041 -4.81333 0
M  V30 3435 N 335.529 1.53961 0.336706 0
M  V30 3436 C 336.757 1.75483 1.09605 0
M  V30 3437 C 337.172 0.4972 1.82136 0
M  V30 3438 O 336.529 -0.53149 1.74589 0
M  V30 3439 C 336.58 2.93943 2.10428 0
M  V30 3440 O 336.301 4.14842 1.40846 0
M  V30 3441 C 337.802 3.27571 2.98684 0
M  V30 3442 H 335.022 0.586166 0.326574 0
M  V30 3443 H 337.566 2.00808 0.38683 0
M  V30 3444 H 335.721 2.70929 2.76905 0
M  V30 3445 H 336.135 4.81383 2.08255 0
M  V30 3446 H 337.609 4.13791 3.6535 0
M  V30 3447 H 338.086 2.44168 3.65074 0
M  V30 3448 H 338.692 3.52615 2.37787 0
M  V30 3449 N 337.007 -0.598083 1.45811 0
M  V30 3450 C 337.917 -1.73632 1.57763 0
M  V30 3451 C 338.933 -1.67763 0.461676 0
M  V30 3452 O 340.109 -1.87949 0.723685 0
M  V30 3453 C 337.174 -3.10114 1.55018 0
M  V30 3454 C 336.235 -3.27364 2.77726 0
M  V30 3455 C 335.468 -4.57334 2.75102 0
M  V30 3456 O 335.691 -5.40258 1.8297 0
M  V30 3457 O 334.625 -4.77502 3.66437 0
M  V30 3458 H 338.451 -1.66498 2.53992 0
M  V30 3459 H 336.036 -0.763308 1.28429 0
M  V30 3460 H 337.918 -3.9141 1.56129 0
M  V30 3461 H 336.593 -3.17718 0.619431 0
M  V30 3462 H 335.5 -2.45619 2.82174 0
M  V30 3463 H 336.833 -3.24641 3.69958 0
M  V30 3464 N 338.485 -1.33259 -0.841409 0
M  V30 3465 C 339.415 -1.25926 -1.96634 0
M  V30 3466 C 340.396 -0.140349 -1.6952 0
M  V30 3467 O 341.581 -0.329707 -1.91381 0
M  V30 3468 C 338.711 -0.99512 -3.32738 0
M  V30 3469 C 337.665 -2.0767 -3.74242 0
M  V30 3470 C 336.991 -1.66474 -5.08125 0
M  V30 3471 C 338.291 -3.49318 -3.88297 0
M  V30 3472 H 339.985 -2.20046 -2.03027 0
M  V30 3473 H 337.531 -1.05931 -0.975425 0
M  V30 3474 H 339.484 -0.930323 -4.11002 0
M  V30 3475 H 338.208 -0.0183004 -3.26595 0
M  V30 3476 H 336.867 -2.13187 -2.98239 0
M  V30 3477 H 336.515 -0.675012 -4.9845 0
M  V30 3478 H 336.215 -2.3885 -5.36865 0
M  V30 3479 H 337.739 -1.61455 -5.88867 0
M  V30 3480 H 339.153 -3.46316 -4.56879 0
M  V30 3481 H 337.55 -4.20158 -4.28471 0
M  V30 3482 H 338.62 -3.8801 -2.9082 0
M  V30 3483 N 339.963 1.05934 -1.16686 0
M  V30 3484 C 340.926 2.11669 -0.879144 0
M  V30 3485 C 341.926 1.60294 0.127445 0
M  V30 3486 O 343.116 1.7389 -0.103865 0
M  V30 3487 C 340.248 3.39438 -0.315425 0
M  V30 3488 H 341.441 2.38626 -1.81653 0
M  V30 3489 H 338.994 1.22058 -0.976299 0
M  V30 3490 H 339.729 3.18132 0.629468 0
M  V30 3491 H 339.514 3.78034 -1.04079 0
M  V30 3492 H 341.004 4.17391 -0.132189 0
M  V30 3493 N 341.441 0.965919 1.2453 0
M  V30 3494 C 342.689 0.625593 1.92174 0
M  V30 3495 C 343.01 -0.841652 1.75901 0
M  V30 3496 O 342.28 -1.60061 1.12948 0
M  V30 3497 H 340.86 0.228388 0.71123 0
M  V30 3498 H 343.522 1.2266 1.51461 0
M  V30 3499 H 342.618 0.864653 2.99884 0
M  V30 3500 N 342.919 -1.39368 0.735821 0
M  V30 3501 C 344.144 -2.05319 0.293052 0
M  V30 3502 C 344.569 -1.55115 -1.064 0
M  V30 3503 O 343.927 -0.695261 -1.67439 0
M  V30 3504 C 343.975 -3.59305 0.305323 0
M  V30 3505 O 343.079 -4.06299 -0.706761 0
M  V30 3506 H 342.42 -0.650529 0.13307 0
M  V30 3507 H 344.95 -1.78386 1.00197 0
M  V30 3508 H 344.96 -4.07724 0.149997 0
M  V30 3509 H 343.635 -3.95207 1.29553 0
M  V30 3510 H 342.212 -3.69292 -0.517504 0
M  V30 3511 N 344.397 -0.483516 -1.5 0
M  V30 3512 C 345.329 0.340634 -2.26655 0
M  V30 3513 C 346.342 0.946152 -1.32483 0
M  V30 3514 O 347.531 0.832453 -1.579 0
M  V30 3515 C 344.631 1.4929 -3.04246 0
M  V30 3516 C 343.804 0.997903 -4.25865 0
M  V30 3517 C 342.863 2.02569 -4.85646 0
M  V30 3518 O 341.889 1.60128 -5.46212 0
M  V30 3519 N 343.091 3.3548 -4.73744 0
M  V30 3520 H 345.856 -0.316577 -2.98023 0
M  V30 3521 H 343.417 -0.315024 -1.58806 0
M  V30 3522 H 345.409 2.17766 -3.41116 0
M  V30 3523 H 343.979 2.05458 -2.35597 0
M  V30 3524 H 343.199 0.138617 -3.93956 0
M  V30 3525 H 344.487 0.645305 -5.04691 0
M  V30 3526 H 343.885 3.72661 -4.25605 0
M  V30 3527 H 342.442 3.99718 -5.14848 0
M  V30 3528 N 345.875 1.56104 -0.216619 0
M  V30 3529 C 346.805 2.23063 0.690296 0
M  V30 3530 C 347.786 1.20072 1.20485 0
M  V30 3531 O 348.971 1.48643 1.24976 0
M  V30 3532 C 346.101 2.90672 1.90072 0
M  V30 3533 C 345.055 4.00092 1.5202 0
M  V30 3534 C 344.381 4.54972 2.80899 0
M  V30 3535 C 345.681 5.17398 0.71391 0
M  V30 3536 H 347.375 2.99109 0.132038 0
M  V30 3537 H 344.921 1.43866 0.0620664 0
M  V30 3538 H 346.874 3.36204 2.54057 0
M  V30 3539 H 345.598 2.12066 2.48386 0
M  V30 3540 H 344.257 3.55283 0.903839 0
M  V30 3541 H 343.905 3.73102 3.37348 0
M  V30 3542 H 343.605 5.28817 2.56176 0
M  V30 3543 H 345.129 5.0322 3.45836 0
M  V30 3544 H 346.543 5.59342 1.25735 0
M  V30 3545 H 344.94 5.97444 0.563951 0
M  V30 3546 H 346.01 4.84088 -0.280527 0
M  V30 3547 N 347.353 -0.0568162 1.57498 0
M  V30 3548 C 348.583 -0.764515 1.91934 0
M  V30 3549 C 348.991 -1.70877 0.81227 0
M  V30 3550 O 348.334 -1.82351 -0.222213 0
M  V30 3551 C 348.396 -1.5994 3.21962 0
M  V30 3552 C 348.06 -0.822925 4.4953 0
M  V30 3553 C 349.057 -0.135464 5.19723 0
M  V30 3554 C 346.742 -0.785666 4.96117 0
M  V30 3555 C 348.736 0.578861 6.34766 0
M  V30 3556 C 346.423 -0.0675784 6.11063 0
M  V30 3557 C 347.421 0.613471 6.80239 0
M  V30 3558 O 347.109 1.31996 7.92989 0
M  V30 3559 H 346.841 -0.221647 0.63863 0
M  V30 3560 H 349.395 -0.0268218 2.05382 0
M  V30 3561 H 347.625 -2.38026 3.04763 0
M  V30 3562 H 349.314 -2.18715 3.41934 0
M  V30 3563 H 350.08 -0.155458 4.84751 0
M  V30 3564 H 345.959 -1.30524 4.42136 0
M  V30 3565 H 349.503 1.111 6.88696 0
M  V30 3566 H 345.4 -0.0455636 6.45484 0
M  V30 3567 H 346.168 1.23077 8.09194 0
M  V30 3568 N 348.832 -1.54138 -0.328536 0
M  V30 3569 C 350.078 -1.7236 -1.06865 0
M  V30 3570 C 350.411 -0.493231 -1.87832 0
M  V30 3571 O 349.686 0.5098 -1.877 0
M  V30 3572 C 349.969 -2.99621 -1.99747 0
M  V30 3573 C 349.822 -4.32899 -1.22143 0
M  V30 3574 C 351.141 -3.22615 -2.99345 0
M  V30 3575 H 348.26 -0.627151 -0.387105 0
M  V30 3576 H 350.902 -1.86827 -0.345767 0
M  V30 3577 H 349.052 -2.87418 -2.61387 0
M  V30 3578 H 350.724 -4.56978 -0.630017 0
M  V30 3579 H 348.967 -4.30628 -0.523628 0
M  V30 3580 H 349.638 -5.18154 -1.90318 0
M  V30 3581 H 352.114 -3.34248 -2.47826 0
M  V30 3582 H 350.99 -4.13027 -3.61524 0
M  V30 3583 H 351.251 -2.3961 -3.71536 0
M  V30 3584 N 350.31 0.590341 -1.46126 0
M  V30 3585 C 351.556 1.35082 -1.51264 0
M  V30 3586 C 351.889 1.93534 -0.160711 0
M  V30 3587 O 351.164 1.76045 0.826956 0
M  V30 3588 C 351.447 2.48588 -2.6053 0
M  V30 3589 C 351.3 1.95221 -4.05227 0
M  V30 3590 C 352.619 3.50662 -2.6594 0
M  V30 3591 H 349.738 0.489803 -0.550692 0
M  V30 3592 H 352.38 0.663887 -1.78024 0
M  V30 3593 H 350.53 3.07186 -2.37843 0
M  V30 3594 H 352.202 1.41139 -4.39178 0
M  V30 3595 H 350.445 1.26101 -4.15068 0
M  V30 3596 H 351.116 2.77121 -4.77397 0
M  V30 3597 H 353.592 3.01934 -2.86313 0
M  V30 3598 H 352.468 4.27551 -3.44226 0
M  V30 3599 H 352.729 4.07399 -1.71694 0
M  V30 3600 N 351.788 1.33704 0.83433 0
M  V30 3601 C 352.738 1.20899 1.93306 0
M  V30 3602 C 353.722 0.110783 1.60518 0
M  V30 3603 O 354.914 0.339331 1.73717 0
M  V30 3604 C 352.043 0.955018 3.29749 0
M  V30 3605 C 351.129 2.09587 3.68692 0
M  V30 3606 N 351.52 3.34621 3.79292 0
M  V30 3607 C 349.818 2.00358 3.98463 0
M  V30 3608 C 350.519 4.09472 4.13167 0
M  V30 3609 N 349.495 3.37954 4.25779 0
M  V30 3610 H 353.297 2.15665 1.99664 0
M  V30 3611 H 350.811 1.25777 1.02732 0
M  V30 3612 H 352.808 0.844208 4.08263 0
M  V30 3613 H 351.468 0.0159317 3.24696 0
M  V30 3614 H 352.479 3.69313 3.63082 0
M  V30 3615 H 349.156 1.14137 4.01596 0
M  V30 3616 H 350.546 5.17391 4.28668 0
M  V30 3617 N 353.266 -1.05314 1.17247 0
M  V30 3618 C 354.512 -1.78557 0.961513 0
M  V30 3619 C 354.845 -1.87419 -0.508697 0
M  V30 3620 O 354.12 -1.37307 -1.37757 0
M  V30 3621 C 354.403 -3.22514 1.60176 0
M  V30 3622 C 354.256 -3.21673 3.14399 0
M  V30 3623 C 355.575 -4.20318 1.30463 0
M  V30 3624 H 352.694 -0.6482 0.350723 0
M  V30 3625 H 355.336 -1.23102 1.44727 0
M  V30 3626 H 353.486 -3.69867 1.18871 0
M  V30 3627 H 355.158 -2.82405 3.64753 0
M  V30 3628 H 353.401 -2.60048 3.47214 0
M  V30 3629 H 354.072 -4.23271 3.54324 0
M  V30 3630 H 356.548 -3.81454 1.66229 0
M  V30 3631 H 355.424 -5.19289 1.77848 0
M  V30 3632 H 355.685 -4.41526 0.22521 0
M  V30 3633 N 354.744 -0.972509 -1.24016 0
M  V30 3634 C 355.969 -0.654417 -1.96805 0
M  V30 3635 C 356.394 0.770398 -1.716 0
M  V30 3636 O 355.752 1.52361 -0.982647 0
M  V30 3637 C 355.8 -0.941031 -3.48105 0
M  V30 3638 O 354.904 -0.0289472 -4.1239 0
M  V30 3639 H 354.245 -0.24692 -0.616382 0
M  V30 3640 H 356.775 -1.30396 -1.57664 0
M  V30 3641 H 356.785 -0.87452 -3.98517 0
M  V30 3642 H 355.46 -1.97939 -3.65777 0
M  V30 3643 H 354.037 -0.149192 -3.72601 0
M  V30 3644 N 356.222 1.38976 -0.743202 0
M  V30 3645 C 357.462 2.02193 -0.29954 0
M  V30 3646 C 357.826 1.5771 1.09506 0
M  V30 3647 O 359.027 2.13184 1.63726 0
M  V30 3648 C 357.298 3.55077 -0.406822 0
M  V30 3649 S 358.857 4.38778 -0.0442109 0
M  V30 3650 H 355.675 0.701335 -0.116836 0
M  V30 3651 H 358.277 1.69651 -0.971529 0
M  V30 3652 H 356.981 3.84942 -1.42295 0
M  V30 3653 H 356.512 3.92383 0.282707 0
M  V30 3654 H 358.527 4.82222 1.16947 0
M  V30 3655 N 357.7 0.491464 1.49741 0
M  V30 3656 C 358.663 -0.280906 2.27472 0
M  V30 3657 C 359.663 -0.902454 1.33088 0
M  V30 3658 O 360.853 -0.768465 1.56334 0
M  V30 3659 C 357.985 -1.40209 3.10732 0
M  V30 3660 H 359.178 0.401056 2.97206 0
M  V30 3661 H 356.731 0.246131 1.5435 0
M  V30 3662 H 357.466 -2.11849 2.45541 0
M  V30 3663 H 357.251 -0.961969 3.80117 0
M  V30 3664 H 358.741 -1.9464 3.69466 0
M  V30 3665 N 359.178 -1.55987 0.224894 0
M  V30 3666 C 360.11 -2.17722 -0.716224 0
M  V30 3667 C 361.123 -1.14723 -1.15509 0
M  V30 3668 O 362.312 -1.41688 -1.08567 0
M  V30 3669 C 359.412 -2.74873 -1.98238 0
M  V30 3670 C 358.585 -4.03074 -1.69853 0
M  V30 3671 C 357.644 -4.44757 -2.81208 0
M  V30 3672 O 356.67 -5.11587 -2.49534 0
M  V30 3673 N 357.872 -4.10716 -4.10235 0
M  V30 3674 H 360.637 -2.99109 -0.188123 0
M  V30 3675 H 358.198 -1.6184 0.0440123 0
M  V30 3676 H 360.19 -2.99727 -2.7193 0
M  V30 3677 H 358.76 -1.9777 -2.42086 0
M  V30 3678 H 357.98 -3.86041 -0.797875 0
M  V30 3679 H 359.268 -4.86701 -1.48324 0
M  V30 3680 H 358.666 -3.57019 -4.38809 0
M  V30 3681 H 357.223 -4.40455 -4.80461 0
M  V30 3682 N 360.656 0.0484629 -1.57525 0
M  V30 3683 C 361.619 1.03956 -2.04269 0
M  V30 3684 C 362.619 1.30211 -0.943496 0
M  V30 3685 O 363.809 1.25539 -1.20771 0
M  V30 3686 C 360.941 2.37742 -2.44319 0
M  V30 3687 H 362.134 0.636182 -2.93075 0
M  V30 3688 H 359.687 0.294811 -1.53494 0
M  V30 3689 H 360.422 2.82866 -1.5861 0
M  V30 3690 H 360.207 2.20021 -3.24551 0
M  V30 3691 H 361.697 3.08936 -2.80978 0
M  V30 3692 N 362.134 1.5431 0.320358 0
M  V30 3693 C 363.38 1.72924 1.05949 0
M  V30 3694 C 363.713 0.503185 1.87568 0
M  V30 3695 O 362.988 -0.499839 1.87968 0
M  V30 3696 C 363.271 3.00676 1.98156 0
M  V30 3697 C 363.124 4.3354 1.19845 0
M  V30 3698 C 364.443 3.24198 2.9763 0
M  V30 3699 H 361.562 0.629195 0.383774 0
M  V30 3700 H 364.204 1.87008 0.335854 0
M  V30 3701 H 362.354 2.888 2.59859 0
M  V30 3702 H 364.026 4.57305 0.605773 0
M  V30 3703 H 362.269 4.309 0.500784 0
M  V30 3704 H 362.94 5.19156 1.87567 0
M  V30 3705 H 365.416 3.35557 2.4605 0
M  V30 3706 H 364.292 4.14938 3.59329 0
M  V30 3707 H 364.553 2.41577 3.7026 0
M  V30 3708 N 363.613 -0.582584 1.46437 0
M  V30 3709 C 364.523 -1.71949 1.59595 0
M  V30 3710 C 365.539 -1.67264 0.479443 0
M  V30 3711 O 366.715 -1.87171 0.743579 0
M  V30 3712 C 363.78 -3.08452 1.58298 0
M  V30 3713 C 362.841 -3.244 2.81182 0
M  V30 3714 C 362.074 -4.54391 2.79937 0
M  V30 3715 O 362.297 -5.38287 1.8869 0
M  V30 3716 O 361.231 -4.73588 3.71481 0
M  V30 3717 H 365.057 -1.63795 2.55744 0
M  V30 3718 H 362.642 -0.749643 1.29231 0
M  V30 3719 H 364.524 -3.89732 1.60271 0
M  V30 3720 H 363.199 -3.17043 0.653094 0
M  V30 3721 H 362.106 -2.42613 2.84763 0
M  V30 3722 H 363.439 -3.20699 3.7338 0
M  V30 3723 N 365.091 -1.34144 -0.827227 0
M  V30 3724 C 366.038 -1.25364 -1.93785 0
M  V30 3725 C 367.008 -0.129774 -1.65592 0
M  V30 3726 O 368.193 -0.310024 -1.88264 0
M  V30 3727 C 365.333 -1.01064 -3.2997 0
M  V30 3728 C 364.446 -2.22185 -3.70484 0
M  V30 3729 C 363.581 -1.91203 -4.95595 0
M  V30 3730 C 362.62 -3.08491 -5.28677 0
M  V30 3731 N 361.757 -2.77421 -6.44967 0
M  V30 3732 H 366.597 -2.20347 -2.00627 0
M  V30 3733 H 364.134 -1.09558 -0.981608 0
M  V30 3734 H 366.092 -0.850139 -4.08446 0
M  V30 3735 H 364.722 -0.0975026 -3.22653 0
M  V30 3736 H 363.774 -2.4917 -2.87434 0
M  V30 3737 H 365.086 -3.0983 -3.90905 0
M  V30 3738 H 364.24 -1.71864 -5.81848 0
M  V30 3739 H 362.979 -1.00812 -4.77167 0
M  V30 3740 H 361.984 -3.28431 -4.40923 0
M  V30 3741 H 363.209 -3.99655 -5.49047 0
M  V30 3742 H 361.155 -1.89601 -6.28003 0
M  V30 3743 H 361.072 -3.58598 -6.6554 0
M  V30 3744 H 362.34 -2.61577 -7.34301 0
M  V30 3745 N 366.569 1.04691 -1.17803 0
M  V30 3746 C 367.818 1.77176 -0.963931 0
M  V30 3747 C 368.131 1.88888 0.508015 0
M  V30 3748 O 369.337 2.58164 0.840465 0
M  V30 3749 C 367.793 3.18518 -1.67555 0
M  V30 3750 C 367.401 3.14919 -3.18637 0
M  V30 3751 C 369.145 3.95424 -1.54402 0
M  V30 3752 C 367.052 4.51081 -3.82466 0
M  V30 3753 H 365.982 0.664116 -0.357023 0
M  V30 3754 H 368.633 1.17303 -1.4111 0
M  V30 3755 H 367.015 3.78748 -1.15613 0
M  V30 3756 H 368.189 2.64178 -3.77554 0
M  V30 3757 H 366.504 2.51512 -3.31859 0
M  V30 3758 H 369.101 4.96106 -1.99456 0
M  V30 3759 H 369.444 4.13343 -0.495329 0
M  V30 3760 H 369.977 3.41754 -2.0359 0
M  V30 3761 H 366.716 4.38368 -4.87354 0
M  V30 3762 H 366.236 5.01951 -3.28337 0
M  V30 3763 H 367.915 5.2001 -3.84965 0
M  V30 3764 N 368.047 0.979072 1.23499 0
M  V30 3765 C 369.01 0.523244 2.23147 0
M  V30 3766 C 370.01 -0.386406 1.56088 0
M  V30 3767 O 371.2 -0.180283 1.73265 0
M  V30 3768 C 368.332 -0.240739 3.40049 0
M  V30 3769 H 369.525 1.40432 2.64989 0
M  V30 3770 H 367.078 0.764824 1.36309 0
M  V30 3771 H 367.813 -1.13841 3.03662 0
M  V30 3772 H 367.598 0.412207 3.89927 0
M  V30 3773 H 369.088 -0.548297 4.13985 0
M  V30 3774 N 369.525 -1.3858 0.750561 0
M  V30 3775 C 370.435 -2.34278 0.122825 0
M  V30 3776 C 371.451 -1.59116 -0.704131 0
M  V30 3777 O 372.627 -1.91326 -0.628987 0
M  V30 3778 C 369.692 -3.38221 -0.762086 0
M  V30 3779 C 368.753 -4.29227 0.078896 0
M  V30 3780 C 367.986 -5.28205 -0.763874 0
M  V30 3781 O 368.209 -5.34112 -2.00201 0
M  V30 3782 O 367.143 -6.01618 -0.18428 0
M  V30 3783 H 370.969 -2.89649 0.913088 0
M  V30 3784 H 368.554 -1.40374 0.511417 0
M  V30 3785 H 370.436 -4.01872 -1.26793 0
M  V30 3786 H 369.111 -2.85211 -1.5309 0
M  V30 3787 H 368.018 -3.68747 0.630621 0
M  V30 3788 H 369.351 -4.85484 0.810289 0
M  V30 3789 N 371.003 -0.499398 -1.49478 0
M  V30 3790 C 371.966 0.268838 -2.27618 0
M  V30 3791 C 372.966 0.895383 -1.33565 0
M  V30 3792 O 374.156 0.760164 -1.56739 0
M  V30 3793 C 371.288 1.38559 -3.11471 0
M  V30 3794 H 372.481 -0.416812 -2.96989 0
M  V30 3795 H 370.034 -0.254313 -1.54217 0
M  V30 3796 H 370.769 2.10544 -2.46661 0
M  V30 3797 H 370.554 0.941797 -3.80621 0
M  V30 3798 H 372.044 1.92678 -3.70493 0
M  V30 3799 N 372.481 1.55866 -0.233164 0
M  V30 3800 C 373.897 1.59133 0.121988 0
M  V30 3801 C 374.097 1.25016 1.58029 0
M  V30 3802 O 373.153 0.990922 2.32243 0
M  V30 3803 C 374.466 2.99932 -0.214792 0
M  V30 3804 C 376.014 3.12601 -0.157971 0
M  V30 3805 C 376.489 4.55597 -0.46859 0
M  V30 3806 N 377.98 4.61305 -0.418585 0
M  V30 3807 C 378.715 5.69903 -0.63227 0
M  V30 3808 N 378.211 6.86819 -0.90835 0
M  V30 3809 N 380.004 5.59264 -0.563913 0
M  V30 3810 H 372.155 1.76315 -1.18434 0
M  V30 3811 H 374.418 0.820093 -0.475553 0
M  V30 3812 H 374.124 3.29588 -1.22739 0
M  V30 3813 H 373.998 3.74327 0.464691 0
M  V30 3814 H 376.385 2.82735 0.845283 0
M  V30 3815 H 376.466 2.40511 -0.871102 0
M  V30 3816 H 376.11 4.86182 -1.46934 0
M  V30 3817 H 376.04 5.25928 0.265865 0
M  V30 3818 H 378.531 3.77297 -0.213368 0
M  V30 3819 H 378.844 7.65507 -1.05919 0
M  V30 3820 H 377.189 6.88536 -0.945673 0
M  V30 3821 H 380.38 4.66802 -0.348372 0
M  V30 3822 H 380.553 6.43831 -0.733847 0
M  V30 3823 N 373.959 -0.0401083 1.57549 0
M  V30 3824 C 374.907 -1.06264 2.06908 0
M  V30 3825 C 375.901 -1.38132 0.980608 0
M  V30 3826 O 377.107 -1.37167 1.16556 0
M  V30 3827 H 373.482 -0.360166 0.660139 0
M  V30 3828 H 375.453 -0.620445 2.91878 0
M  V30 3829 C 374.202 -2.35846 2.55483 0
M  V30 3830 H 373.525 -2.12183 3.38849 0
M  V30 3831 H 374.965 -3.05765 2.93741 0
M  V30 3832 C 373.424 -3.0404 1.45126 0
M  V30 3833 O 373.954 -3.93424 0.811216 0
M  V30 3834 N 372.16 -2.65184 1.18852 0
M  V30 3835 H 371.707 -1.92584 1.71083 0
M  V30 3836 H 371.665 -3.1113 0.452244 0
M  V30 3837 N 375.437 -1.54477 -0.31217 0
M  V30 3838 C 376.384 -1.84655 -1.38461 0
M  V30 3839 C 377.354 -0.694536 -1.50882 0
M  V30 3840 O 378.539 -0.942081 -1.6592 0
M  V30 3841 C 375.679 -2.0896 -2.74645 0
M  V30 3842 C 374.792 -3.36618 -2.70763 0
M  V30 3843 C 373.927 -3.50824 -3.98868 0
M  V30 3844 C 372.966 -4.72315 -3.89339 0
M  V30 3845 N 372.103 -4.83387 -5.09197 0
M  V30 3846 H 376.943 -2.76142 -1.12026 0
M  V30 3847 H 374.48 -1.36748 -0.542065 0
M  V30 3848 H 376.438 -2.21045 -3.53829 0
M  V30 3849 H 375.068 -1.20752 -2.99364 0
M  V30 3850 H 374.12 -3.33211 -1.83506 0
M  V30 3851 H 375.432 -4.25917 -2.59608 0
M  V30 3852 H 374.586 -3.62513 -4.86486 0
M  V30 3853 H 373.325 -2.59638 -4.12843 0
M  V30 3854 H 372.33 -4.6067 -3.00105 0
M  V30 3855 H 373.555 -5.64897 -3.76919 0
M  V30 3856 H 371.501 -3.9512 -5.23657 0
M  V30 3857 H 371.418 -5.66669 -5.00422 0
M  V30 3858 H 372.686 -4.9942 -5.98498 0
M  V30 3859 N 376.915 0.57481 -1.46744 0
M  V30 3860 C 378.163 1.33009 -1.52161 0
M  V30 3861 C 378.484 1.94185 -0.178092 0
M  V30 3862 O 377.754 1.7899 0.796196 0
M  V30 3863 H 376.334 0.493873 -0.560445 0
M  V30 3864 H 378.996 0.672589 -1.82927 0
M  V30 3865 H 378.092 2.13273 -2.27862 0
M  V30 3866 N 378.394 1.34581 0.820102 0
M  V30 3867 C 379.324 1.29038 1.94606 0
M  V30 3868 C 380.305 0.1673 1.69275 0
M  V30 3869 O 381.49 0.360112 1.90832 0
M  V30 3870 C 378.62 1.04793 3.31113 0
M  V30 3871 C 377.574 2.13597 3.70891 0
M  V30 3872 C 376.9 1.74537 5.05412 0
M  V30 3873 C 378.2 3.55451 3.8269 0
M  V30 3874 H 379.894 2.23248 1.99501 0
M  V30 3875 H 377.44 1.0747 0.958449 0
M  V30 3876 H 379.393 0.995592 4.0947 0
M  V30 3877 H 378.117 0.0702565 3.26524 0
M  V30 3878 H 376.776 2.17905 2.9481 0
M  V30 3879 H 376.424 0.754226 4.97313 0
M  V30 3880 H 376.124 2.47361 5.32997 0
M  V30 3881 H 377.648 1.70803 5.86224 0
M  V30 3882 H 379.062 3.5354 4.51312 0
M  V30 3883 H 377.459 4.26922 4.21732 0
M  V30 3884 H 378.529 3.92587 2.84611 0
M  V30 3885 N 379.872 -1.04064 1.18357 0
M  V30 3886 C 380.82 -2.14187 0.907007 0
M  V30 3887 C 381.814 -1.68879 -0.132725 0
M  V30 3888 O 383.02 -1.79993 0.0154248 0
M  V30 3889 H 379.395 -0.699585 0.275835 0
M  V30 3890 H 381.366 -2.34711 1.84264 0
M  V30 3891 C 380.115 -3.44785 0.449254 0
M  V30 3892 H 379.438 -3.80058 1.24081 0
M  V30 3893 H 380.878 -4.22974 0.294737 0
M  V30 3894 C 379.337 -3.26391 -0.834909 0
M  V30 3895 O 379.867 -3.53973 -1.89911 0
M  V30 3896 N 378.073 -2.79726 -0.787523 0
M  V30 3897 H 377.62 -2.5748 0.0787347 0
M  V30 3898 H 377.578 -2.67798 -1.64716 0
M  V30 3899 N 381.35 -0.985608 -1.22978 0
M  V30 3900 C 382.596 -0.65836 -1.91816 0
M  V30 3901 C 382.929 0.806692 -1.76653 0
M  V30 3902 O 382.204 1.58252 -1.13078 0
M  V30 3903 C 382.487 -1.056 -3.44268 0
M  V30 3904 C 382.34 -2.57906 -3.68516 0
M  V30 3905 C 383.659 -0.603781 -4.35939 0
M  V30 3906 H 380.778 -0.24065 -0.696604 0
M  V30 3907 H 383.42 -1.22783 -1.44998 0
M  V30 3908 H 381.57 -0.571445 -3.84274 0
M  V30 3909 H 383.242 -3.13976 -3.3796 0
M  V30 3910 H 381.485 -3.00305 -3.13048 0
M  V30 3911 H 382.156 -2.80779 -4.75255 0
M  V30 3912 H 384.632 -1.01987 -4.03408 0
M  V30 3913 H 383.508 -0.910383 -5.41298 0
M  V30 3914 H 383.769 0.495761 -4.39312 0
M  V30 3915 N 382.828 1.3818 -0.7579 0
M  V30 3916 C 384.074 2.0078 -0.325423 0
M  V30 3917 C 384.429 1.59085 1.08211 0
M  V30 3918 O 383.722 0.820394 1.73148 0
M  V30 3919 C 383.916 3.55252 -0.391218 0
M  V30 3920 C 383.745 4.11947 -1.8036 0
M  V30 3921 C 382.515 4.43519 -2.42113 0
M  V30 3922 C 384.713 4.33908 -2.76095 0
M  V30 3923 N 382.695 4.85847 -3.75267 0
M  V30 3924 C 384.066 4.78692 -3.94023 0
M  V30 3925 C 386.121 4.16015 -2.73561 0
M  V30 3926 C 384.824 5.07459 -5.09782 0
M  V30 3927 C 386.85 4.45909 -3.88483 0
M  V30 3928 C 386.212 4.90921 -5.0515 0
M  V30 3929 H 382.311 0.764215 -0.165831 0
M  V30 3930 H 384.895 1.67724 -0.988776 0
M  V30 3931 H 383.066 3.87646 0.241886 0
M  V30 3932 H 384.798 4.04653 0.061989 0
M  V30 3933 H 381.553 4.32113 -1.93842 0
M  V30 3934 H 381.977 5.11339 -4.4369 0
M  V30 3935 H 386.619 3.80399 -1.84544 0
M  V30 3936 H 384.337 5.4197 -5.99412 0
M  V30 3937 H 387.923 4.33666 -3.87847 0
M  V30 3938 H 386.803 5.1361 -5.92599 0
M  V30 3939 N 384.306 0.507319 1.49211 0
M  V30 3940 C 385.554 -0.0348839 2.0207 0
M  V30 3941 C 385.875 -1.36898 1.38866 0
M  V30 3942 O 385.145 -1.88133 0.546151 0
M  V30 3943 H 383.725 -0.0158812 0.746831 0
M  V30 3944 H 386.387 0.665998 1.83168 0
M  V30 3945 H 385.483 -0.159917 3.1169 0
M  V30 3946 N 385.784 -1.5574 0.241426 0
M  V30 3947 C 386.694 -2.2479 -0.671305 0
M  V30 3948 C 387.71 -1.26217 -1.19772 0
M  V30 3949 O 388.886 -1.59079 -1.23514 0
M  V30 3950 C 385.951 -2.92966 -1.85396 0
M  V30 3951 C 385.012 -4.06935 -1.36756 0
M  V30 3952 C 384.245 -4.71851 -2.49384 0
M  V30 3953 O 384.468 -4.35823 -3.67987 0
M  V30 3954 O 383.402 -5.60467 -2.19454 0
M  V30 3955 H 387.228 -3.0349 -0.112966 0
M  V30 3956 H 384.813 -1.49397 0.0101513 0
M  V30 3957 H 386.695 -3.35927 -2.54423 0
M  V30 3958 H 385.37 -2.17211 -2.40002 0
M  V30 3959 H 384.277 -3.68503 -0.644726 0
M  V30 3960 H 385.61 -4.84492 -0.867647 0
M  V30 3961 N 387.262 0.0317525 -1.57568 0
M  V30 3962 C 388.49 0.734949 -1.93407 0
M  V30 3963 C 388.905 1.69036 -0.84096 0
M  V30 3964 O 388.262 1.81582 0.182836 0
M  V30 3965 C 388.313 1.49432 -3.29169 0
M  V30 3966 O 388.034 0.577261 -4.3428 0
M  V30 3967 C 389.535 2.29492 -3.79273 0
M  V30 3968 H 386.755 0.206706 -0.638368 0
M  V30 3969 H 389.299 -0.00992046 -2.04498 0
M  V30 3970 H 387.454 2.1911 -3.19483 0
M  V30 3971 H 387.868 1.10952 -5.1263 0
M  V30 3972 H 389.342 2.78172 -4.76785 0
M  V30 3973 H 389.819 3.10794 -3.10328 0
M  V30 3974 H 390.425 1.64894 -3.92033 0
M  V30 3975 N 388.74 1.54641 0.303973 0
M  V30 3976 C 389.98 1.75516 1.04755 0
M  V30 3977 C 390.344 0.528211 1.84591 0
M  V30 3978 O 391.545 0.614645 2.61678 0
M  V30 3979 C 389.816 3.00685 1.93193 0
M  V30 3980 S 391.375 3.42549 2.74237 0
M  V30 3981 H 388.193 0.616987 0.353339 0
M  V30 3982 H 390.795 1.92842 0.321292 0
M  V30 3983 H 389.499 3.8811 1.33411 0
M  V30 3984 H 389.03 2.85937 2.70191 0
M  V30 3985 H 391.045 2.99386 3.95705 0
M  V30 3986 N 390.218 -0.567019 1.47046 0
M  V30 3987 C 391.629 -1.14916 1.47143 0
M  V30 3988 C 391.98 -1.94954 0.220767 0
M  V30 3989 O 391.105 -2.05602 -0.67505 0
M  V30 3990 C 391.7 -2.09069 2.666 0
M  V30 3991 C 390.259 -2.62575 2.69687 0
M  V30 3992 C 389.406 -1.38755 2.40088 0
M  V30 3993 H 392.357 -0.354126 1.54699 0
M  V30 3994 H 392.378 -2.92789 2.43011 0
M  V30 3995 H 391.89 -1.50789 3.57609 0
M  V30 3996 H 389.991 -3.24681 1.82792 0
M  V30 3997 H 390.104 -3.04239 3.70102 0
M  V30 3998 H 388.468 -1.69098 1.90468 0
M  V30 3999 H 389.251 -0.822822 3.33293 0
M  V30 4000 N 391.696 -1.35014 -0.812953 0
M  V30 4001 C 392.628 -1.23262 -1.93233 0
M  V30 4002 C 393.641 -0.157371 -1.62038 0
M  V30 4003 O 394.83 -0.410096 -1.73725 0
M  V30 4004 C 391.93 -0.87392 -3.27438 0
M  V30 4005 C 391.103 -2.04622 -3.86586 0
M  V30 4006 C 390.162 -1.66432 -4.99186 0
M  V30 4007 O 389.188 -2.38222 -5.16951 0
M  V30 4008 N 390.39 -0.584248 -5.77552 0
M  V30 4009 H 393.155 -2.19699 -2.03844 0
M  V30 4010 H 390.716 -1.281 -0.99005 0
M  V30 4011 H 392.708 -0.600039 -4.00227 0
M  V30 4012 H 391.278 0.00057392 -3.126 0
M  V30 4013 H 390.498 -2.48427 -3.06068 0
M  V30 4014 H 391.786 -2.82999 -4.22835 0
M  V30 4015 H 391.184 0.0123526 -5.65699 0
M  V30 4016 H 389.741 -0.37013 -6.50748 0
M  V30 4017 N 393.175 1.03435 -1.18907 0
M  V30 4018 C 394.405 1.8012 -1.01195 0
M  V30 4019 C 394.813 1.8395 0.442613 0
M  V30 4020 O 394.156 1.27836 1.31923 0
M  V30 4021 C 394.218 3.26792 -1.49823 0
M  V30 4022 C 393.882 3.46609 -2.97844 0
M  V30 4023 C 394.879 3.37278 -3.95651 0
M  V30 4024 C 392.564 3.73001 -3.36416 0
M  V30 4025 C 394.558 3.54054 -5.30023 0
M  V30 4026 C 392.245 3.89423 -4.70949 0
M  V30 4027 C 393.243 3.79951 -5.67562 0
M  V30 4028 O 392.931 3.95895 -6.99659 0
M  V30 4029 H 392.663 0.573865 -0.357289 0
M  V30 4030 H 395.217 1.31207 -1.58031 0
M  V30 4031 H 393.447 3.76703 -0.873578 0
M  V30 4032 H 395.136 3.85055 -1.28404 0
M  V30 4033 H 395.902 3.16846 -3.67197 0
M  V30 4034 H 391.781 3.79469 -2.61772 0
M  V30 4035 H 395.325 3.46577 -6.05417 0
M  V30 4036 H 391.222 4.09351 -4.99101 0
M  V30 4037 H 391.99 4.13019 -7.06653 0
M  V30 4038 N 394.653 0.992116 1.22453 0
M  V30 4039 C 395.583 0.561677 2.26644 0
M  V30 4040 C 396.564 -0.411055 1.65059 0
M  V30 4041 O 397.749 -0.301861 1.9184 0
M  V30 4042 C 394.879 -0.125247 3.47074 0
M  V30 4043 C 393.833 0.765948 4.21091 0
M  V30 4044 C 393.159 -0.0538484 5.34673 0
M  V30 4045 C 394.459 2.06242 4.79856 0
M  V30 4046 H 396.153 1.43259 2.62902 0
M  V30 4047 H 393.699 0.690283 1.26377 0
M  V30 4048 H 395.652 -0.437764 4.1912 0
M  V30 4049 H 394.376 -1.03069 3.0991 0
M  V30 4050 H 393.035 1.0621 3.50878 0
M  V30 4051 H 392.683 -0.960188 4.9375 0
M  V30 4052 H 392.383 0.539415 5.85119 0
M  V30 4053 H 393.907 -0.360477 6.09535 0
M  V30 4054 H 395.321 1.8139 5.43848 0
M  V30 4055 H 393.718 2.60444 5.40638 0
M  V30 4056 H 394.788 2.74167 3.99951 0
M  V30 4057 N 396.131 -1.37776 0.765217 0
M  V30 4058 C 397.377 -2.00145 0.327072 0
M  V30 4059 C 397.71 -1.60607 -1.09175 0
M  V30 4060 O 396.985 -0.849127 -1.74986 0
M  V30 4061 C 397.268 -3.57109 0.46319 0
M  V30 4062 C 397.121 -4.06576 1.92395 0
M  V30 4063 C 398.44 -4.39888 -0.136473 0
M  V30 4064 H 395.559 -0.727113 0.120316 0
M  V30 4065 H 398.201 -1.63549 0.967039 0
M  V30 4066 H 396.351 -3.88414 -0.0816358 0
M  V30 4067 H 398.023 -3.85864 2.52798 0
M  V30 4068 H 396.266 -3.59011 2.43503 0
M  V30 4069 H 396.937 -5.15639 1.97028 0
M  V30 4070 H 399.413 -4.14803 0.328317 0
M  V30 4071 H 398.289 -5.48899 -0.0110582 0
M  V30 4072 H 398.55 -4.24758 -1.22608 0
M  V30 4073 N 397.609 -0.515225 -1.4894 0
M  V30 4074 C 398.539 0.244628 -2.32215 0
M  V30 4075 C 399.52 0.949136 -1.41157 0
M  V30 4076 O 400.705 0.937783 -1.70057 0
M  V30 4077 C 397.835 1.30096 -3.22013 0
M  V30 4078 C 396.789 0.715486 -4.21977 0
M  V30 4079 C 396.115 1.87339 -5.00808 0
M  V30 4080 C 397.415 -0.302982 -5.2142 0
M  V30 4081 H 399.109 -0.450501 -2.95991 0
M  V30 4082 H 396.655 -0.218098 -1.42339 0
M  V30 4083 H 398.608 1.84037 -3.79089 0
M  V30 4084 H 397.332 2.02547 -2.56207 0
M  V30 4085 H 395.991 0.197715 -3.66066 0
M  V30 4086 H 395.639 2.58592 -4.31438 0
M  V30 4087 H 395.339 1.48764 -5.68457 0
M  V30 4088 H 396.863 2.41686 -5.60732 0
M  V30 4089 H 398.277 0.148802 -5.73107 0
M  V30 4090 H 396.674 -0.60532 -5.97039 0
M  V30 4091 H 397.744 -1.21395 -4.69459 0
M  V30 4092 N 399.087 1.5561 -0.249682 0
M  V30 4093 C 400.364 1.90932 0.424761 0
M  V30 4094 C 400.744 1.17078 1.75658 0
M  V30 4095 O 400.092 0.289176 2.26663 0
M  V30 4096 C 400.302 3.43975 0.590109 0
M  V30 4097 C 401.65 4.15281 0.884714 0
M  V30 4098 O 402.674 3.49729 0.67587 0
M  V30 4099 O 401.533 5.31236 1.28259 0
M  V30 4100 H 398.627 0.794815 0.228468 0
M  V30 4101 H 401.173 1.67135 -0.293954 0
M  V30 4102 H 399.945 3.89748 -0.34818 0
M  V30 4103 H 399.568 3.73644 1.35926 0
M  V30 4104 N 400.565 -0.0233959 1.57583 0
M  V30 4105 C 401.497 -1.04994 2.03737 0
M  V30 4106 C 402.51 -1.32125 0.951152 0
M  V30 4107 O 403.699 -1.29512 1.22837 0
M  V30 4108 C 400.799 -2.39026 2.40249 0
M  V30 4109 C 399.972 -2.31171 3.7132 0
M  V30 4110 C 399.031 -3.47698 3.94959 0
M  V30 4111 O 398.057 -3.26937 4.65941 0
M  V30 4112 N 399.259 -4.6976 3.41037 0
M  V30 4113 H 402.024 -0.656507 2.92421 0
M  V30 4114 H 399.585 -0.211235 1.60516 0
M  V30 4115 H 401.577 -3.15712 2.53196 0
M  V30 4116 H 400.147 -2.70194 1.57207 0
M  V30 4117 H 399.367 -1.39547 3.68674 0
M  V30 4118 H 400.655 -2.23071 4.57293 0
M  V30 4119 H 400.053 -4.89528 2.83512 0
M  V30 4120 H 398.61 -5.43791 3.59353 0
M  V30 4121 N 402.043 -1.548 -0.295768 0
M  V30 4122 C 403.268 -1.78653 -1.05346 0
M  V30 4123 C 403.693 -0.546894 -1.79974 0
M  V30 4124 O 403.051 0.502763 -1.7419 0
M  V30 4125 C 403.099 -2.99679 -2.00561 0
M  V30 4126 O 402.203 -2.7317 -3.08953 0
M  V30 4127 H 401.544 -0.59116 -0.302367 0
M  V30 4128 H 404.074 -2.01895 -0.331598 0
M  V30 4129 H 404.084 -3.27793 -2.42932 0
M  V30 4130 H 402.759 -3.89562 -1.4565 0
M  V30 4131 H 401.336 -2.56089 -2.71059 0
M  V30 4132 N 403.521 0.559213 -1.47345 0
M  V30 4133 C 404.751 1.33999 -1.57251 0
M  V30 4134 C 405.159 1.87905 -0.220978 0
M  V30 4135 O 404.502 1.65577 0.795617 0
M  V30 4136 C 404.564 2.54798 -2.53611 0
M  V30 4137 C 404.228 2.22192 -3.99349 0
M  V30 4138 C 405.225 1.79607 -4.87891 0
M  V30 4139 C 402.91 2.33613 -4.44669 0
M  V30 4140 C 404.904 1.48868 -6.19772 0
M  V30 4141 C 402.591 2.02487 -5.76578 0
M  V30 4142 C 403.589 1.60183 -6.63951 0
M  V30 4143 O 403.277 1.29451 -7.93409 0
M  V30 4144 H 403.009 0.414858 -0.533731 0
M  V30 4145 H 405.563 0.684465 -1.9366 0
M  V30 4146 H 403.793 3.23235 -2.12265 0
M  V30 4147 H 405.482 3.16873 -2.53666 0
M  V30 4148 H 406.248 1.70278 -4.54126 0
M  V30 4149 H 402.127 2.65501 -3.76869 0
M  V30 4150 H 405.671 1.15775 -6.87926 0
M  V30 4151 H 401.568 2.11448 -6.09885 0
M  V30 4152 H 402.336 1.43098 -8.05894 0
M  V30 4153 N 404.999 1.35443 0.805782 0
M  V30 4154 C 405.929 1.31095 1.93226 0
M  V30 4155 C 406.91 0.185244 1.69088 0
M  V30 4156 O 408.095 0.380332 1.90439 0
M  V30 4157 C 405.225 1.08299 3.29983 0
M  V30 4158 C 404.179 2.17519 3.68605 0
M  V30 4159 C 403.505 1.79887 5.03532 0
M  V30 4160 C 404.805 3.5949 3.78898 0
M  V30 4161 H 406.499 2.25352 1.97122 0
M  V30 4162 H 404.045 1.0848 0.946996 0
M  V30 4163 H 405.998 1.03897 4.08391 0
M  V30 4164 H 404.722 0.104885 3.26432 0
M  V30 4165 H 403.381 2.2102 2.92482 0
M  V30 4166 H 403.029 0.80693 4.96485 0
M  V30 4167 H 402.729 2.53001 5.30344 0
M  V30 4168 H 404.253 1.77011 5.84379 0
M  V30 4169 H 405.667 3.58307 4.47536 0
M  V30 4170 H 404.064 4.31371 4.1718 0
M  V30 4171 H 405.134 3.95584 2.80431 0
M  V30 4172 N 406.477 -1.02803 1.19454 0
M  V30 4173 C 407.387 -2.14575 0.948408 0
M  V30 4174 C 408.403 -1.73757 -0.091871 0
M  V30 4175 O 409.579 -2.01185 0.0929654 0
M  V30 4176 C 406.644 -3.43202 0.491265 0
M  V30 4177 C 405.705 -3.98328 1.60103 0
M  V30 4178 C 404.938 -5.20816 1.16561 0
M  V30 4179 O 405.161 -5.70392 0.0295238 0
M  V30 4180 O 404.095 -5.68801 1.96849 0
M  V30 4181 H 407.921 -2.38202 1.88397 0
M  V30 4182 H 405.506 -1.12989 0.977433 0
M  V30 4183 H 407.388 -4.20687 0.245015 0
M  V30 4184 H 406.063 -3.21018 -0.415851 0
M  V30 4185 H 404.97 -3.22174 1.90144 0
M  V30 4186 H 406.303 -4.24879 2.48473 0
M  V30 4187 N 407.956 -0.998596 -1.21925 0
M  V30 4188 C 408.903 -0.553621 -2.24062 0
M  V30 4189 C 409.873 0.416999 -1.6078 0
M  V30 4190 O 411.058 0.320482 -1.88089 0
M  V30 4191 C 408.198 0.119959 -3.44891 0
M  V30 4192 C 407.311 -0.893077 -4.22668 0
M  V30 4193 C 406.446 -0.192424 -5.30851 0
M  V30 4194 C 405.485 -1.19344 -6.00353 0
M  V30 4195 N 404.622 -0.520707 -7.00166 0
M  V30 4196 H 409.462 -1.4293 -2.61486 0
M  V30 4197 H 406.999 -0.715838 -1.28507 0
M  V30 4198 H 408.957 0.527459 -4.13852 0
M  V30 4199 H 407.587 0.959389 -3.08214 0
M  V30 4200 H 406.639 -1.41886 -3.52948 0
M  V30 4201 H 407.951 -1.65512 -4.70539 0
M  V30 4202 H 407.105 0.271515 -6.06092 0
M  V30 4203 H 405.844 0.602075 -4.83969 0
M  V30 4204 H 404.849 -1.66795 -5.23889 0
M  V30 4205 H 406.074 -1.98891 -6.49322 0
M  V30 4206 H 404.02 0.254252 -6.55507 0
M  V30 4207 H 403.937 -1.2211 -7.46073 0
M  V30 4208 H 405.205 -0.0797596 -7.79459 0
M  V30 4209 N 409.434 1.37368 -0.772513 0
M  V30 4210 C 410.845 1.8231 -0.402493 0
M  V30 4211 C 411.196 1.6436 1.07146 0
M  V30 4212 O 410.321 1.15514 1.82991 0
M  V30 4213 C 410.916 3.30979 -0.723776 0
M  V30 4214 C 409.475 3.74195 -0.406802 0
M  V30 4215 C 408.622 2.59885 -0.967218 0
M  V30 4216 H 411.573 1.25829 -0.967099 0
M  V30 4217 H 411.594 3.80499 -0.00870832 0
M  V30 4218 H 411.106 3.44011 -1.7966 0
M  V30 4219 H 409.207 3.66732 0.658673 0
M  V30 4220 H 409.32 4.7027 -0.915588 0
M  V30 4221 H 407.684 2.51674 -0.391416 0
M  V30 4222 H 408.467 2.7571 -2.04546 0
M  V30 4223 N 410.912 0.523116 1.48665 0
M  V30 4224 C 411.86 -0.256859 2.31177 0
M  V30 4225 C 412.854 -0.94199 1.40794 0
M  V30 4226 O 414.06 -0.867157 1.57735 0
M  V30 4227 H 410.435 -0.1017 0.745091 0
M  V30 4228 H 412.406 0.458739 2.94853 0
M  V30 4229 C 411.155 -1.29503 3.22683 0
M  V30 4230 H 410.478 -0.777248 3.92172 0
M  V30 4231 H 411.918 -1.81233 3.83315 0
M  V30 4232 C 410.377 -2.32501 2.43813 0
M  V30 4233 O 410.907 -3.3881 2.15803 0
M  V30 4234 N 409.113 -2.05538 2.05432 0
M  V30 4235 H 408.66 -1.19104 2.28412 0
M  V30 4236 H 408.618 -2.74676 1.52973 0
M  V30 4237 N 412.39 -1.55475 0.257931 0
M  V30 4238 C 413.637 -1.99207 -0.363728 0
M  V30 4239 C 413.965 -1.1462 -1.57139 0
M  V30 4240 O 413.22 -0.199653 -1.94679 0
M  V30 4241 C 413.519 -3.48183 -0.806433 0
M  V30 4242 C 413.185 -4.49936 0.294684 0
M  V30 4243 C 411.847 -4.77481 0.597076 0
M  V30 4244 C 414.199 -5.10769 1.03751 0
M  V30 4245 C 411.527 -5.63132 1.64618 0
M  V30 4246 C 413.879 -5.97558 2.07622 0
M  V30 4247 C 412.543 -6.23432 2.38514 0
M  V30 4248 H 411.813 -0.728949 -0.133097 0
M  V30 4249 H 414.46 -1.8793 0.368059 0
M  V30 4250 H 412.765 -3.56848 -1.61761 0
M  V30 4251 H 414.462 -3.79415 -1.29789 0
M  V30 4252 H 411.052 -4.28572 0.0488649 0
M  V30 4253 H 415.236 -4.89527 0.817149 0
M  V30 4254 H 410.492 -5.8143 1.89074 0
M  V30 4255 H 414.666 -6.43735 2.65666 0
M  V30 4256 H 412.293 -6.89594 3.19943 0
M  V30 4257 N 413.868 0.0150385 -1.57593 0
M  V30 4258 C 414.778 1.02791 -2.10882 0
M  V30 4259 C 415.794 1.38702 -1.0506 0
M  V30 4260 O 416.97 1.47739 -1.36877 0
M  V30 4261 C 414.035 2.30568 -2.58919 0
M  V30 4262 C 413.096 2.01108 -3.79281 0
M  V30 4263 C 412.329 3.22794 -4.25018 0
M  V30 4264 O 412.552 4.33959 -3.70183 0
M  V30 4265 O 411.486 3.07672 -5.17322 0
M  V30 4266 H 415.312 0.604973 -2.97613 0
M  V30 4267 H 412.897 0.23292 -1.47573 0
M  V30 4268 H 414.779 3.05662 -2.90084 0
M  V30 4269 H 413.454 2.72129 -1.75293 0
M  V30 4270 H 412.361 1.23537 -3.53114 0
M  V30 4271 H 413.694 1.64394 -4.63935 0
M  V30 4272 N 415.346 1.54954 0.287554 0
M  V30 4273 C 416.594 1.74528 1.01904 0
M  V30 4274 C 416.915 0.541349 1.87335 0
M  V30 4275 O 416.185 -0.444108 1.908 0
M  V30 4276 H 414.765 0.643576 0.379235 0
M  V30 4277 H 417.427 1.92333 0.315294 0
M  V30 4278 H 416.523 2.64015 1.6644 0
M  V30 4279 N 416.824 -0.551391 1.4764 0
M  V30 4280 C 417.787 -1.64007 1.60107 0
M  V30 4281 C 418.787 -1.53601 0.47576 0
M  V30 4282 O 419.977 -1.57655 0.740988 0
M  V30 4283 C 417.109 -3.03569 1.55108 0
M  V30 4284 H 418.302 -1.543 2.57161 0
M  V30 4285 H 415.855 -0.771776 1.35917 0
M  V30 4286 H 416.59 -3.18804 0.594519 0
M  V30 4287 H 416.375 -3.12532 2.36783 0
M  V30 4288 H 417.865 -3.82762 1.66982 0
M  V30 4289 N 418.302 -1.35869 -0.798587 0
M  V30 4290 C 419.249 -1.29446 -1.91082 0
M  V30 4291 C 420.219 -0.16487 -1.6528 0
M  V30 4292 O 421.404 -0.349888 -1.87564 0
M  V30 4293 C 418.544 -1.0804 -3.27752 0
M  V30 4294 C 417.657 -2.29993 -3.65687 0
M  V30 4295 C 416.792 -2.01673 -4.91428 0
M  V30 4296 C 415.831 -3.19636 -5.22015 0
M  V30 4297 N 414.968 -2.91039 -6.38937 0
M  V30 4298 H 419.808 -2.24553 -1.95907 0
M  V30 4299 H 417.345 -1.11615 -0.958148 0
M  V30 4300 H 419.303 -0.936586 -4.06551 0
M  V30 4301 H 417.933 -0.16592 -3.22373 0
M  V30 4302 H 416.985 -2.55211 -2.82085 0
M  V30 4303 H 418.297 -3.18052 -3.84245 0
M  V30 4304 H 417.451 -1.84168 -5.78072 0
M  V30 4305 H 416.19 -1.10911 -4.74921 0
M  V30 4306 H 415.195 -3.37709 -4.33858 0
M  V30 4307 H 416.42 -4.11211 -5.40447 0
M  V30 4308 H 414.366 -2.0288 -6.2384 0
M  V30 4309 H 414.283 -3.72635 -6.57784 0
M  V30 4310 H 415.551 -2.77093 -7.28587 0
M  V30 4311 N 419.78 1.02168 -1.19998 0
M  V30 4312 C 421.01 1.79036 -1.031 0
M  V30 4313 C 421.418 1.84409 0.423078 0
M  V30 4314 O 420.761 1.29228 1.30559 0
M  V30 4315 C 420.823 3.25185 -1.53281 0
M  V30 4316 C 420.487 3.43431 -3.01503 0
M  V30 4317 C 421.484 3.33063 -3.99206 0
M  V30 4318 C 419.169 3.69412 -3.40353 0
M  V30 4319 C 421.163 3.48413 -5.33748 0
M  V30 4320 C 418.85 3.84406 -4.75053 0
M  V30 4321 C 419.848 3.7391 -5.71559 0
M  V30 4322 O 419.536 3.88452 -7.03818 0
M  V30 4323 H 419.268 0.570043 -0.363355 0
M  V30 4324 H 421.822 1.29524 -1.59414 0
M  V30 4325 H 420.052 3.75756 -0.913483 0
M  V30 4326 H 421.741 3.83671 -1.32481 0
M  V30 4327 H 422.507 3.12934 -3.70537 0
M  V30 4328 H 418.386 3.76671 -2.65782 0
M  V30 4329 H 421.93 3.40137 -6.09059 0
M  V30 4330 H 417.827 4.04035 -5.03415 0
M  V30 4331 H 418.595 4.055 -7.10993 0
M  V30 4332 N 421.258 1.00505 1.21394 0
M  V30 4333 C 422.504 0.688793 1.90745 0
M  V30 4334 C 422.837 -0.778486 1.77914 0
M  V30 4335 O 422.112 -1.56433 1.15581 0
M  V30 4336 C 422.395 1.11063 3.42545 0
M  V30 4337 C 422.248 2.63737 3.64367 0
M  V30 4338 C 423.567 0.673059 4.34923 0
M  V30 4339 H 420.686 0.251702 0.692687 0
M  V30 4340 H 423.328 1.25074 1.43026 0
M  V30 4341 H 421.478 0.632508 3.83317 0
M  V30 4342 H 423.15 3.19313 3.32922 0
M  V30 4343 H 421.393 3.05248 3.08231 0
M  V30 4344 H 422.064 2.88305 4.70727 0
M  V30 4345 H 424.54 1.08392 4.01734 0
M  V30 4346 H 423.416 0.996383 5.39781 0
M  V30 4347 H 423.677 -0.425808 4.40045 0
M  V30 4348 N 422.737 -1.36956 0.779787 0
M  V30 4349 C 423.983 -2.00237 0.357324 0
M  V30 4350 C 424.338 -1.60787 -1.05666 0
M  V30 4351 O 423.631 -0.847836 -1.71821 0
M  V30 4352 C 423.825 -3.54585 0.447686 0
M  V30 4353 C 423.654 -4.09025 1.86891 0
M  V30 4354 C 422.424 -4.39612 2.49138 0
M  V30 4355 C 424.622 -4.29461 2.82963 0
M  V30 4356 N 422.604 -4.79816 3.82949 0
M  V30 4357 C 423.975 -4.72363 4.01588 0
M  V30 4358 C 426.03 -4.1161 2.80145 0
M  V30 4359 C 424.733 -4.99284 5.17791 0
M  V30 4360 C 426.759 -4.39672 3.95528 0
M  V30 4361 C 426.121 -4.82822 5.12896 0
M  V30 4362 H 422.22 -0.76148 0.177968 0
M  V30 4363 H 424.804 -1.6613 1.01533 0
M  V30 4364 H 422.975 -3.87982 -0.180184 0
M  V30 4365 H 424.707 -4.047 0.0023955 0
M  V30 4366 H 421.462 -4.28975 2.00693 0
M  V30 4367 H 421.886 -5.04216 4.51769 0
M  V30 4368 H 426.528 -3.77415 1.90572 0
M  V30 4369 H 424.246 -5.32365 6.07958 0
M  V30 4370 H 427.832 -4.27441 3.94697 0
M  V30 4371 H 426.712 -5.04118 6.00695 0
M  V30 4372 N 424.215 -0.530993 -1.48385 0
M  V30 4373 C 425.44 0.000729535 -2.074 0
M  V30 4374 C 425.865 1.27298 -1.3848 0
M  V30 4375 O 425.223 1.75599 -0.451081 0
M  V30 4376 C 425.271 0.206697 -3.60007 0
M  V30 4377 O 424.375 1.27514 -3.92191 0
M  V30 4378 H 423.716 -0.039583 -0.662819 0
M  V30 4379 H 426.246 -0.739194 -1.9078 0
M  V30 4380 H 426.256 0.42904 -4.05738 0
M  V30 4381 H 424.931 -0.722675 -4.09573 0
M  V30 4382 H 423.508 1.03537 -3.58238 0
M  V30 4383 N 425.693 1.55336 -0.266172 0
M  V30 4384 C 427.104 1.85236 0.233315 0
M  V30 4385 C 427.455 1.18816 1.56132 0
M  V30 4386 O 426.58 0.473307 2.11161 0
M  V30 4387 C 427.175 3.36059 0.430113 0
M  V30 4388 C 425.734 3.66116 0.873842 0
M  V30 4389 C 424.881 2.77274 -0.0380016 0
M  V30 4390 H 427.832 1.51004 -0.488214 0
M  V30 4391 H 427.853 3.58681 1.26998 0
M  V30 4392 H 427.365 3.84373 -0.536588 0
M  V30 4393 H 425.466 3.23295 1.85233 0
M  V30 4394 H 425.579 4.73699 0.717358 0
M  V30 4395 H 423.943 2.50198 0.476759 0
M  V30 4396 H 424.726 3.284 -1.00042 0
M  V30 4397 N 427.171 -0.0066808 1.57599 0
M  V30 4398 C 428.582 -0.550379 1.78403 0
M  V30 4399 C 428.933 -1.74339 0.900014 0
M  V30 4400 O 428.058 -2.16166 0.100713 0
M  V30 4401 C 428.653 -1.00523 3.23544 0
M  V30 4402 C 427.212 -1.49428 3.45468 0
M  V30 4403 C 426.359 -0.442444 2.73748 0
M  V30 4404 H 429.31 0.219508 1.57175 0
M  V30 4405 H 429.331 -1.87157 3.31289 0
M  V30 4406 H 428.843 -0.136735 3.87859 0
M  V30 4407 H 426.944 -2.3839 2.86358 0
M  V30 4408 H 427.057 -1.52635 4.54136 0
M  V30 4409 H 425.421 -0.902578 2.38171 0
M  V30 4410 H 426.204 0.416973 3.40758 0
M  V30 4411 N 428.649 -1.55105 -0.279332 0
M  V30 4412 C 429.579 -1.90557 -1.34945 0
M  V30 4413 C 430.56 -0.766738 -1.51839 0
M  V30 4414 O 431.745 -1.02434 -1.64988 0
M  V30 4415 C 428.875 -2.17193 -2.71006 0
M  V30 4416 C 427.829 -3.33021 -2.68851 0
M  V30 4417 C 427.155 -3.45123 -4.08405 0
M  V30 4418 C 428.455 -4.69578 -2.28678 0
M  V30 4419 H 430.149 -2.80188 -1.05522 0
M  V30 4420 H 427.695 -1.34811 -0.506173 0
M  V30 4421 H 429.648 -2.40581 -3.45975 0
M  V30 4422 H 428.372 -1.24355 -3.01999 0
M  V30 4423 H 427.031 -3.0959 -1.9634 0
M  V30 4424 H 426.679 -2.49762 -4.3661 0
M  V30 4425 H 426.379 -4.22995 -4.07859 0
M  V30 4426 H 427.903 -3.70796 -4.85121 0
M  V30 4427 H 429.317 -4.92553 -2.93368 0
M  V30 4428 H 427.714 -5.5032 -2.39306 0
M  V30 4429 H 428.784 -4.68828 -1.23807 0
M  V30 4430 N 430.127 0.543554 -1.4793 0
M  V30 4431 C 431.543 0.870806 -1.3375 0
M  V30 4432 C 431.743 1.9864 -0.338261 0
M  V30 4433 O 430.799 2.51305 0.245371 0
M  V30 4434 C 432.112 1.25114 -2.73435 0
M  V30 4435 C 433.66 1.3618 -2.81823 0
M  V30 4436 C 434.135 1.77563 -4.22179 0
M  V30 4437 N 435.626 1.8469 -4.24787 0
M  V30 4438 C 436.361 2.18067 -5.30315 0
M  V30 4439 N 435.857 2.49963 -6.46135 0
M  V30 4440 N 437.65 2.18958 -5.17701 0
M  V30 4441 H 429.801 -0.19275 -2.11524 0
M  V30 4442 H 432.064 -0.0235777 -0.947707 0
M  V30 4443 H 431.77 0.50514 -3.48053 0
M  V30 4444 H 431.644 2.20431 -3.06088 0
M  V30 4445 H 434.031 2.09859 -2.07468 0
M  V30 4446 H 434.112 0.390169 -2.52807 0
M  V30 4447 H 433.756 1.04449 -4.97044 0
M  V30 4448 H 433.686 2.75753 -4.48629 0
M  V30 4449 H 436.177 1.62372 -3.41239 0
M  V30 4450 H 436.49 2.74497 -7.22406 0
M  V30 4451 H 434.835 2.47513 -6.49432 0
M  V30 4452 H 438.026 1.93488 -4.2624 0
M  V30 4453 H 438.199 2.44639 -6.00047 0
M  V30 4454 N 431.605 1.3629 0.791371 0
M  V30 4455 C 432.515 1.32606 1.93527 0
M  V30 4456 C 433.531 0.228541 1.72493 0
M  V30 4457 O 434.707 0.460571 1.96063 0
M  V30 4458 C 431.772 1.11271 3.28359 0
M  V30 4459 C 430.833 2.3048 3.62185 0
M  V30 4460 C 430.066 2.10154 4.90583 0
M  V30 4461 O 430.289 1.07572 5.60165 0
M  V30 4462 O 429.223 2.97884 5.23019 0
M  V30 4463 H 433.049 2.28909 1.99585 0
M  V30 4464 H 430.634 1.16818 0.931344 0
M  V30 4465 H 432.516 1.01283 4.09047 0
M  V30 4466 H 431.191 0.180292 3.23198 0
M  V30 4467 H 430.098 2.46036 2.81811 0
M  V30 4468 H 431.431 3.22221 3.72068 0
M  V30 4469 N 433.083 -1.0153 1.20538 0
M  V30 4470 C 434.03 -2.10098 0.955383 0
M  V30 4471 C 435 -1.65702 -0.114878 0
M  V30 4472 O 436.185 -1.90776 0.0301118 0
M  V30 4473 C 433.325 -3.41236 0.514969 0
M  V30 4474 C 432.438 -3.99102 1.65353 0
M  V30 4475 C 431.573 -5.18306 1.16329 0
M  V30 4476 C 430.612 -5.68258 2.27485 0
M  V30 4477 N 429.749 -6.78722 1.7967 0
M  V30 4478 H 434.589 -2.30818 1.88486 0
M  V30 4479 H 432.126 -1.13189 0.939499 0
M  V30 4480 H 434.084 -4.16504 0.240935 0
M  V30 4481 H 432.714 -3.20585 -0.377512 0
M  V30 4482 H 431.766 -3.20918 2.04245 0
M  V30 4483 H 433.078 -4.32177 2.49047 0
M  V30 4484 H 432.232 -6.00782 0.845302 0
M  V30 4485 H 430.971 -4.86799 0.296254 0
M  V30 4486 H 429.976 -4.84385 2.60099 0
M  V30 4487 H 431.201 -6.01798 3.14667 0
M  V30 4488 H 429.147 -6.49042 0.95295 0
M  V30 4489 H 429.064 -7.10996 2.56944 0
M  V30 4490 H 430.332 -7.64759 1.50875 0
M  V30 4491 N 434.561 -1.01147 -1.20859 0
M  V30 4492 C 435.807 -0.708598 -1.90658 0
M  V30 4493 C 436.162 0.753069 -1.7705 0
M  V30 4494 O 435.455 1.53952 -1.14059 0
M  V30 4495 C 435.649 -1.0727 -3.40922 0
M  V30 4496 C 435.478 -2.56821 -3.69152 0
M  V30 4497 C 434.248 -3.23524 -3.8815 0
M  V30 4498 C 436.446 -3.54997 -3.72131 0
M  V30 4499 N 434.428 -4.62359 -4.03853 0
M  V30 4500 C 435.799 -4.79371 -3.93196 0
M  V30 4501 C 437.854 -3.49042 -3.55069 0
M  V30 4502 C 436.557 -5.98512 -3.98969 0
M  V30 4503 C 438.583 -4.67579 -3.6211 0
M  V30 4504 C 437.945 -5.9076 -3.83643 0
M  V30 4505 H 434.044 -0.31088 -0.71755 0
M  V30 4506 H 436.628 -1.29526 -1.45366 0
M  V30 4507 H 434.799 -0.51443 -3.84978 0
M  V30 4508 H 436.531 -0.723891 -3.98173 0
M  V30 4509 H 433.286 -2.73958 -3.86321 0
M  V30 4510 H 433.71 -5.34427 -4.15592 0
M  V30 4511 H 438.352 -2.54808 -3.37391 0
M  V30 4512 H 436.07 -6.93132 -4.15444 0
M  V30 4513 H 439.656 -4.64581 -3.50222 0
M  V30 4514 H 438.536 -6.8095 -3.88944 0
M  V30 4515 N 436.039 1.36541 -0.78704 0
M  V30 4516 C 436.989 2.27459 -0.156957 0
M  V30 4517 C 437.973 1.46843 0.657709 0
M  V30 4518 O 439.165 1.69245 0.518173 0
M  V30 4519 C 436.294 3.35893 0.709278 0
M  V30 4520 C 435.38 4.23947 -0.114049 0
M  V30 4521 N 435.771 4.92145 -1.16736 0
M  V30 4522 C 434.069 4.4587 0.107497 0
M  V30 4523 C 434.77 5.57261 -1.66837 0
M  V30 4524 N 433.746 5.3473 -0.977992 0
M  V30 4525 H 437.548 2.77669 -0.963185 0
M  V30 4526 H 435.062 1.49839 -0.62627 0
M  V30 4527 H 437.059 3.99953 1.17656 0
M  V30 4528 H 435.719 2.87238 1.51408 0
M  V30 4529 H 436.73 4.94169 -1.54976 0
M  V30 4530 H 433.407 4.08056 0.882994 0
M  V30 4531 H 434.797 6.21728 -2.54762 0
M  V30 4532 N 437.518 0.538854 1.48102 0
M  V30 4533 C 438.45 -0.256278 2.27763 0
M  V30 4534 C 439.463 -0.89633 1.35904 0
M  V30 4535 O 440.652 -0.773275 1.60881 0
M  V30 4536 C 437.752 -1.37896 3.09577 0
M  V30 4537 C 436.925 -0.839159 4.29275 0
M  V30 4538 C 435.984 -1.84405 4.9283 0
M  V30 4539 O 435.01 -1.39746 5.51779 0
M  V30 4540 N 436.212 -3.17666 4.85869 0
M  V30 4541 H 438.977 0.426968 2.96643 0
M  V30 4542 H 436.538 0.373747 1.57527 0
M  V30 4543 H 438.53 -2.04955 3.48963 0
M  V30 4544 H 437.1 -1.96572 2.4306 0
M  V30 4545 H 436.32 0.00769287 3.94199 0
M  V30 4546 H 437.608 -0.457548 5.06739 0
M  V30 4547 H 437.006 -3.56609 4.39143 0
M  V30 4548 H 435.563 -3.80334 5.29329 0
M  V30 4549 N 438.996 -1.55193 0.274407 0
M  V30 4550 C 439.906 -2.26164 -0.623473 0
M  V30 4551 C 440.922 -1.28729 -1.17068 0
M  V30 4552 O 442.098 -1.61663 -1.20112 0
M  V30 4553 C 439.163 -2.96833 -1.7914 0
M  V30 4554 C 438.224 -4.09745 -1.28093 0
M  V30 4555 C 437.457 -4.77034 -2.3932 0
M  V30 4556 O 437.68 -4.4353 -3.5866 0
M  V30 4557 O 436.614 -5.64996 -2.07516 0
M  V30 4558 H 440.44 -3.03661 -0.0485661 0
M  V30 4559 H 438.025 -1.49341 0.0418382 0
M  V30 4560 H 439.907 -3.41248 -2.4724 0
M  V30 4561 H 438.582 -2.22253 -2.35341 0
M  V30 4562 H 437.489 -3.69787 -0.566416 0
M  V30 4563 H 438.822 -4.86224 -0.764683 0
M  V30 4564 N 440.474 -0.00167713 -1.576 0
M  V30 4565 C 441.72 0.683832 -1.90923 0
M  V30 4566 C 442.053 1.7333 -0.875799 0
M  V30 4567 O 441.328 1.94215 0.10525 0
M  V30 4568 C 441.611 1.32543 -3.3482 0
M  V30 4569 C 441.464 0.287387 -4.48881 0
M  V30 4570 C 442.783 2.25114 -3.78169 0
M  V30 4571 H 439.902 0.247125 -0.694333 0
M  V30 4572 H 442.544 -0.0533149 -1.89925 0
M  V30 4573 H 440.694 1.95372 -3.35801 0
M  V30 4574 H 442.366 -0.341346 -4.60035 0
M  V30 4575 H 440.609 -0.39017 -4.32042 0
M  V30 4576 H 441.28 0.775393 -5.46527 0
M  V30 4577 H 443.756 1.723 -3.7875 0
M  V30 4578 H 442.632 2.66971 -4.79602 0
M  V30 4579 H 442.893 3.13092 -3.12131 0
M  V30 4580 N 441.952 1.55251 0.271103 0
M  V30 4581 C 442.882 1.9127 1.33933 0
M  V30 4582 C 443.863 0.77478 1.5143 0
M  V30 4583 O 445.048 1.03307 1.64442 0
M  V30 4584 C 442.178 2.18627 2.69851 0
M  V30 4585 C 441.132 3.34442 2.67081 0
M  V30 4586 C 440.458 3.47284 4.06569 0
M  V30 4587 C 441.758 4.70784 2.26185 0
M  V30 4588 H 443.452 2.80744 1.04035 0
M  V30 4589 H 440.998 1.35077 0.499017 0
M  V30 4590 H 442.951 2.42413 3.44694 0
M  V30 4591 H 441.675 1.25955 3.01335 0
M  V30 4592 H 440.334 3.10627 1.94695 0
M  V30 4593 H 439.982 2.52074 4.35279 0
M  V30 4594 H 439.682 4.25152 4.0561 0
M  V30 4595 H 441.206 3.73363 4.83148 0
M  V30 4596 H 442.62 4.94102 2.90751 0
M  V30 4597 H 441.017 5.51582 2.36384 0
M  V30 4598 H 442.087 4.69478 1.21319 0
M  V30 4599 N 443.43 -0.535701 1.48216 0
M  V30 4600 C 444.676 -1.2913 1.57153 0
M  V30 4601 C 445.031 -1.90899 0.239823 0
M  V30 4602 O 444.324 -1.76022 -0.756748 0
M  V30 4603 C 444.518 -2.4068 2.64212 0
M  V30 4604 C 444.347 -1.89844 4.07663 0
M  V30 4605 C 443.117 -1.72708 4.74869 0
M  V30 4606 C 445.315 -1.43031 4.94011 0
M  V30 4607 N 443.297 -1.16437 6.02757 0
M  V30 4608 C 444.668 -0.986691 6.12098 0
M  V30 4609 C 446.723 -1.3128 4.80281 0
M  V30 4610 C 445.426 -0.437231 7.1797 0
M  V30 4611 C 447.452 -0.777346 5.86269 0
M  V30 4612 C 446.814 -0.343774 7.03561 0
M  V30 4613 H 442.913 -0.463753 0.629648 0
M  V30 4614 H 445.497 -0.604736 1.8507 0
M  V30 4615 H 443.668 -3.06839 2.38126 0
M  V30 4616 H 445.4 -3.07706 2.62867 0
M  V30 4617 H 442.155 -1.96061 4.31111 0
M  V30 4618 H 442.579 -0.903281 6.70947 0
M  V30 4619 H 447.221 -1.63408 3.89946 0
M  V30 4620 H 444.939 -0.103621 8.08034 0
M  V30 4621 H 448.525 -0.689688 5.77698 0
M  V30 4622 H 447.405 0.0641219 7.84174 0
M  V30 4623 N 444.908 -1.36708 -0.784132 0
M  V30 4624 C 445.856 -1.31533 -1.91838 0
M  V30 4625 C 446.85 -0.206205 -1.6814 0
M  V30 4626 O 448.056 -0.373519 -1.76082 0
M  V30 4627 H 444.431 -0.409613 -0.630651 0
M  V30 4628 H 446.402 -2.2731 -1.9332 0
M  V30 4629 C 445.151 -1.12679 -3.28936 0
M  V30 4630 H 444.474 -1.97274 -3.4774 0
M  V30 4631 H 445.914 -1.13106 -4.08636 0
M  V30 4632 C 444.373 0.168281 -3.36479 0
M  V30 4633 O 444.903 1.15625 -3.84699 0
M  V30 4634 N 443.109 0.214762 -2.89805 0
M  V30 4635 H 442.656 -0.589852 -2.50756 0
M  V30 4636 H 442.614 1.08094 -2.95234 0
M  V30 4637 N 446.386 1.0089 -1.21074 0
M  V30 4638 C 447.349 2.0775 -0.968129 0
M  V30 4639 C 448.349 1.6069 0.0593445 0
M  V30 4640 O 449.539 1.73293 -0.177525 0
M  V30 4641 C 446.671 3.37794 -0.459108 0
M  V30 4642 H 447.864 2.30707 -1.9161 0
M  V30 4643 H 445.417 1.17807 -1.02719 0
M  V30 4644 H 446.152 3.20516 0.49397 0
M  V30 4645 H 445.937 3.7328 -1.20019 0
M  V30 4646 H 447.427 4.16454 -0.309099 0
M  V30 4647 N 447.864 1.01787 1.20321 0
M  V30 4648 C 448.794 0.609625 2.25401 0
M  V30 4649 C 449.775 -0.375951 1.65893 0
M  V30 4650 O 450.96 -0.261101 1.92437 0
M  V30 4651 C 448.09 -0.0515995 3.47262 0
M  V30 4652 C 447.044 0.855095 4.19371 0
M  V30 4653 C 446.37 0.0595757 5.34667 0
M  V30 4654 C 447.67 2.16374 4.75373 0
M  V30 4655 H 449.364 1.48803 2.59804 0
M  V30 4656 H 446.91 0.716934 1.24884 0
M  V30 4657 H 448.863 -0.348764 4.19954 0
M  V30 4658 H 447.587 -0.964726 3.12027 0
M  V30 4659 H 446.246 1.13628 3.48546 0
M  V30 4660 H 445.894 -0.85524 4.95676 0
M  V30 4661 H 445.594 0.663406 5.83843 0
M  V30 4662 H 447.118 -0.231105 6.10162 0
M  V30 4663 H 448.532 1.92885 5.39878 0
M  V30 4664 H 446.929 2.71853 5.34991 0
M  V30 4665 H 447.999 2.82589 3.94045 0
M  V30 4666 N 449.342 -1.36122 0.79427 0
M  V30 4667 C 450.289 -2.29982 0.194101 0
M  V30 4668 C 451.259 -1.52214 -0.664833 0
M  V30 4669 O 452.444 -1.80702 -0.612498 0
M  V30 4670 C 449.584 -3.38706 -0.661244 0
M  V30 4671 C 448.697 -4.31456 0.216766 0
M  V30 4672 C 447.832 -5.27265 -0.645411 0
M  V30 4673 C 446.871 -6.11653 0.233756 0
M  V30 4674 N 446.008 -6.99636 -0.587682 0
M  V30 4675 H 450.848 -2.80722 0.999965 0
M  V30 4676 H 448.385 -1.38172 0.504677 0
M  V30 4677 H 450.343 -4.00394 -1.17219 0
M  V30 4678 H 448.973 -2.89274 -1.43249 0
M  V30 4679 H 448.025 -3.7088 0.845724 0
M  V30 4680 H 449.337 -4.90724 0.893973 0
M  V30 4681 H 448.491 -5.94266 -1.22198 0
M  V30 4682 H 447.23 -4.68463 -1.35623 0
M  V30 4683 H 446.235 -5.4361 0.82269 0
M  V30 4684 H 447.46 -6.72531 0.942247 0
M  V30 4685 H 445.406 -6.43337 -1.2827 0
M  V30 4686 H 445.323 -7.55993 0.0317402 0
M  V30 4687 H 446.591 -7.71001 -1.14792 0
M  V30 4688 N 450.82 -0.546701 -1.47814 0
M  V30 4689 C 451.768 0.220048 -2.31557 0
M  V30 4690 C 452.762 0.919472 -1.42275 0
M  V30 4691 O 453.968 0.841953 -1.59095 0
M  V30 4692 H 450.343 0.0898334 -0.746615 0
M  V30 4693 H 452.314 -0.505589 -2.94086 0
M  V30 4694 C 451.063 1.24353 -3.24702 0
M  V30 4695 H 450.386 0.714758 -3.93359 0
M  V30 4696 H 451.826 1.75112 -3.8615 0
M  V30 4697 C 450.285 2.28593 -2.47481 0
M  V30 4698 O 450.815 3.35334 -2.21165 0
M  V30 4699 N 449.021 2.02244 -2.08676 0
M  V30 4700 H 448.568 1.15455 -2.30278 0
M  V30 4701 H 448.526 2.72207 -1.57323 0
M  V30 4702 N 452.299 1.55045 -0.282633 0
M  V30 4703 C 453.547 1.99365 0.331334 0
M  V30 4704 C 453.868 1.1725 1.55812 0
M  V30 4705 O 453.138 0.263871 1.94115 0
M  V30 4706 H 451.718 0.736397 0.125414 0
M  V30 4707 H 454.38 1.90964 -0.389711 0
M  V30 4708 H 453.476 3.0596 0.616036 0
M  V30 4709 N 453.777 0.010035 1.57597 0
M  V30 4710 C 454.709 -1.00649 2.05918 0
M  V30 4711 C 455.722 -1.30077 0.978964 0
M  V30 4712 O 456.911 -1.26878 1.25556 0
M  V30 4713 C 454.011 -2.33876 2.45265 0
M  V30 4714 C 453.184 -2.23242 3.7614 0
M  V30 4715 C 452.243 -3.39242 4.02245 0
M  V30 4716 O 451.269 -3.1698 4.72771 0
M  V30 4717 N 452.471 -4.6242 3.50924 0
M  V30 4718 H 455.236 -0.594333 2.93748 0
M  V30 4719 H 452.797 -0.17714 1.60928 0
M  V30 4720 H 454.789 -3.1027 2.59836 0
M  V30 4721 H 453.359 -2.66799 1.62902 0
M  V30 4722 H 452.579 -1.31696 3.71551 0
M  V30 4723 H 453.867 -2.13321 4.61922 0
M  V30 4724 H 453.265 -4.83404 2.93832 0
M  V30 4725 H 451.822 -5.36046 3.70807 0
M  V30 4726 N 455.255 -1.55392 -0.262866 0
M  V30 4727 C 456.185 -1.91978 -1.32917 0
M  V30 4728 C 457.166 -0.7828 -1.51017 0
M  V30 4729 O 458.351 -1.04178 -1.63892 0
M  V30 4730 C 455.481 -2.20055 -2.68687 0
M  V30 4731 C 454.435 -3.35854 -2.65304 0
M  V30 4732 C 453.761 -3.49435 -4.04721 0
M  V30 4733 C 455.061 -4.71977 -2.23685 0
M  V30 4734 H 456.755 -2.81292 -1.02544 0
M  V30 4735 H 454.301 -1.3534 -0.491846 0
M  V30 4736 H 456.254 -2.44237 -3.43404 0
M  V30 4737 H 454.978 -1.27551 -3.00663 0
M  V30 4738 H 453.637 -3.11655 -1.93045 0
M  V30 4739 H 453.285 -2.54379 -4.33936 0
M  V30 4740 H 452.985 -4.27297 -4.0335 0
M  V30 4741 H 454.509 -3.7592 -4.81161 0
M  V30 4742 H 455.923 -4.95637 -2.88127 0
M  V30 4743 H 454.32 -5.52828 -2.33456 0
M  V30 4744 H 455.39 -4.70115 -1.18827 0
M  V30 4745 N 456.733 0.527833 -1.48498 0
M  V30 4746 C 457.665 1.6482 -1.5927 0
M  V30 4747 C 458.678 1.55659 -0.476869 0
M  V30 4748 O 459.867 1.62081 -0.747806 0
M  V30 4749 C 456.967 3.0348 -1.50842 0
M  V30 4750 C 456.14 3.381 -2.77502 0
M  V30 4751 C 455.199 4.5605 -2.62497 0
M  V30 4752 O 454.225 4.59165 -3.36387 0
M  V30 4753 N 455.427 5.54353 -1.72257 0
M  V30 4754 H 458.192 1.56015 -2.55889 0
M  V30 4755 H 455.753 0.715152 -1.45249 0
M  V30 4756 H 457.745 3.80264 -1.38496 0
M  V30 4757 H 456.315 3.06352 -0.621887 0
M  V30 4758 H 455.535 2.50473 -3.04396 0
M  V30 4759 H 456.823 3.58017 -3.61527 0
M  V30 4760 H 456.221 5.54617 -1.11431 0
M  V30 4761 H 454.778 6.30347 -1.65849 0
M  V30 4762 N 458.211 1.37122 0.776871 0
M  V30 4763 C 459.439 1.3523 1.5659 0
M  V30 4764 C 459.854 -0.0635518 1.88693 0
M  V30 4765 O 459.211 -1.02394 1.51069 0
M  V30 4766 C 459.262 2.18583 2.8793 0
M  V30 4767 O 458.983 3.5465 2.57206 0
M  V30 4768 C 460.484 2.24612 3.82183 0
M  V30 4769 H 457.704 0.4634 0.485285 0
M  V30 4770 H 460.248 1.80392 0.963266 0
M  V30 4771 H 458.403 1.76943 3.4463 0
M  V30 4772 H 458.817 3.98286 3.41275 0
M  V30 4773 H 460.291 2.87267 4.71361 0
M  V30 4774 H 460.768 1.25309 4.20944 0
M  V30 4775 H 461.374 2.66543 3.31414 0
M  V30 4776 N 459.689 -1.00246 1.21608 0
M  V30 4777 C 460.619 -2.10921 1.00172 0
M  V30 4778 C 461.6 -1.69938 -0.0741587 0
M  V30 4779 O 462.785 -1.94009 0.0861753 0
M  V30 4780 C 459.915 -3.42618 0.568355 0
M  V30 4781 C 458.869 -3.97407 1.58909 0
M  V30 4782 C 458.195 -5.25038 1.01187 0
M  V30 4783 C 459.495 -4.2918 2.97661 0
M  V30 4784 H 461.189 -2.29112 1.92739 0
M  V30 4785 H 458.735 -1.10101 0.928102 0
M  V30 4786 H 460.688 -4.19444 0.405555 0
M  V30 4787 H 459.412 -3.24227 -0.392961 0
M  V30 4788 H 458.071 -3.22703 1.73949 0
M  V30 4789 H 457.719 -5.02982 0.0421965 0
M  V30 4790 H 457.419 -5.62661 1.6937 0
M  V30 4791 H 458.943 -6.04507 0.860448 0
M  V30 4792 H 460.357 -4.96839 2.86049 0
M  V30 4793 H 458.754 -4.77952 3.6288 0
M  V30 4794 H 459.824 -3.3735 3.48315 0
M  V30 4795 N 461.167 -1.02423 -1.1978 0
M  V30 4796 C 462.415 -0.716569 -1.8897 0
M  V30 4797 C 462.736 0.756769 -1.79716 0
M  V30 4798 O 462.006 1.5449 -1.20456 0
M  V30 4799 H 460.586 -0.262062 -0.699523 0
M  V30 4800 H 463.248 -1.29747 -1.45436 0
M  V30 4801 H 462.344 -1.00675 -2.95417 0
M  V30 4802 N 462.645 1.35699 -0.801477 0
M  V30 4803 C 463.87 2.03687 -0.390678 0
M  V30 4804 C 464.295 1.60015 0.988778 0
M  V30 4805 O 463.653 0.774357 1.63931 0
M  V30 4806 C 463.701 3.57439 -0.476404 0
M  V30 4807 O 462.805 4.09208 0.512106 0
M  V30 4808 H 462.146 0.64344 -0.163956 0
M  V30 4809 H 464.676 1.73403 -1.08594 0
M  V30 4810 H 464.686 4.06544 -0.344357 0
M  V30 4811 H 463.361 3.88576 -1.48262 0
M  V30 4812 H 461.938 3.7134 0.340721 0
M  V30 4813 N 464.123 0.554532 1.47522 0
M  V30 4814 C 465.4 -0.0360704 1.95567 0
M  V30 4815 C 465.78 -1.48828 1.49711 0
M  V30 4816 O 465.128 -2.16366 0.734717 0
M  V30 4817 C 465.338 0.106631 3.48837 0
M  V30 4818 C 466.686 -0.0400899 4.24581 0
M  V30 4819 O 467.71 0.0340453 3.56184 0
M  V30 4820 O 466.569 -0.199111 5.46137 0
M  V30 4821 H 463.663 -0.0656294 0.824392 0
M  V30 4822 H 466.209 0.620867 1.57935 0
M  V30 4823 H 464.981 1.11727 3.7501 0
M  V30 4824 H 464.604 -0.58804 3.93227 0
M  V30 4825 N 465.601 -1.54893 0.290851 0
M  V30 4826 C 466.533 -2.20564 -0.623236 0
M  V30 4827 C 467.546 -1.19519 -1.1054 0
M  V30 4828 O 468.735 -1.46165 -1.02459 0
M  V30 4829 C 465.835 -2.83033 -1.86401 0
M  V30 4830 C 465.008 -4.09916 -1.52604 0
M  V30 4831 C 464.067 -4.56284 -2.62091 0
M  V30 4832 O 463.093 -5.2171 -2.27612 0
M  V30 4833 N 464.295 -4.27746 -3.92446 0
M  V30 4834 H 467.06 -2.99638 -0.0610915 0
M  V30 4835 H 464.621 -1.61508 0.112615 0
M  V30 4836 H 466.613 -3.1099 -2.58973 0
M  V30 4837 H 465.183 -2.0786 -2.33481 0
M  V30 4838 H 464.403 -3.89078 -0.633424 0
M  V30 4839 H 465.691 -4.92554 -1.27547 0
M  V30 4840 H 465.089 -3.7531 -4.23272 0
M  V30 4841 H 463.646 -4.60437 -4.61347 0
M  V30 4842 N 467.08 -0.0183926 -1.57589 0
M  V30 4843 C 468.32 0.666846 -1.93216 0
M  V30 4844 C 468.684 1.69905 -0.894215 0
M  V30 4845 O 469.885 2.436 -1.13633 0
M  V30 4846 C 468.156 1.27684 -3.33814 0
M  V30 4847 S 469.715 1.98464 -3.91353 0
M  V30 4848 H 466.533 0.219826 -0.676164 0
M  V30 4849 H 469.135 -0.0794893 -1.95338 0
M  V30 4850 H 467.839 0.513006 -4.07181 0
M  V30 4851 H 467.37 2.06071 -3.3511 0
M  V30 4852 H 469.385 3.26189 -3.73918 0
M  V30 4853 N 468.558 1.5553 0.254621 0
M  V30 4854 C 469.783 1.81383 1.00573 0
M  V30 4855 C 470.208 0.594419 1.78461 0
M  V30 4856 O 469.566 -0.456403 1.75461 0
M  V30 4857 C 469.614 3.04892 1.92545 0
M  V30 4858 O 468.718 2.81266 3.01601 0
M  V30 4859 H 468.059 0.598969 0.286587 0
M  V30 4860 H 470.589 2.02703 0.277952 0
M  V30 4861 H 470.599 3.34119 2.34155 0
M  V30 4862 H 469.274 3.93287 1.3527 0
M  V30 4863 H 467.851 2.63185 2.64174 0
M  V30 4864 N 470.036 -0.519951 1.48776 0
M  V30 4865 C 471.283 -1.27522 1.57303 0
M  V30 4866 C 471.611 -1.92869 0.251328 0
M  V30 4867 O 470.866 -1.80372 -0.759243 0
M  V30 4868 C 471.165 -2.37864 2.6675 0
M  V30 4869 C 470.831 -1.90103 4.08867 0
M  V30 4870 C 469.493 -1.76795 4.47546 0
M  V30 4871 C 471.845 -1.54133 4.97888 0
M  V30 4872 C 469.173 -1.25868 5.73039 0
M  V30 4873 C 471.525 -1.04665 6.23881 0
M  V30 4874 C 470.189 -0.899823 6.61407 0
M  V30 4875 H 469.459 -0.466636 0.575614 0
M  V30 4876 H 472.106 -0.579109 1.82534 0
M  V30 4877 H 470.411 -3.13186 2.35418 0
M  V30 4878 H 472.108 -2.95969 2.70561 0
M  V30 4879 H 468.698 -2.01414 3.78326 0
M  V30 4880 H 472.882 -1.6327 4.68675 0
M  V30 4881 H 468.138 -1.13196 6.0083 0
M  V30 4882 H 472.312 -0.759074 6.92251 0
M  V30 4883 H 469.939 -0.503011 7.58534 0
M  V30 4884 N 471.514 -1.37532 -0.769588 0
M  V30 4885 C 472.791 -1.23392 -1.51768 0
M  V30 4886 C 473.171 0.17157 -2.10402 0
M  V30 4887 O 472.519 1.17943 -1.95708 0
M  V30 4888 C 472.729 -2.33163 -2.59685 0
M  V30 4889 C 474.077 -2.70809 -3.27028 0
M  V30 4890 O 475.101 -2.32355 -2.69981 0
M  V30 4891 O 473.96 -3.37066 -4.30173 0
M  V30 4892 H 471.054 -0.481617 -0.67229 0
M  V30 4893 H 473.6 -1.49318 -0.806368 0
M  V30 4894 H 472.372 -3.27273 -2.14494 0
M  V30 4895 H 471.995 -2.08713 -3.38415 0
M  V30 4896 N 472.992 0.995999 -1.22138 0
M  V30 4897 C 474.239 1.7351 -1.04406 0
M  V30 4898 C 474.567 1.89884 0.421244 0
M  V30 4899 O 473.822 1.43683 1.32867 0
M  V30 4900 C 474.121 3.14553 -1.6968 0
M  V30 4901 C 473.787 3.18102 -3.19565 0
M  V30 4902 C 472.449 3.18778 -3.60464 0
M  V30 4903 C 474.801 3.14636 -4.15516 0
M  V30 4904 C 472.129 3.13684 -4.95801 0
M  V30 4905 C 474.481 3.11084 -5.50826 0
M  V30 4906 C 473.145 3.10074 -5.91109 0
M  V30 4907 H 472.415 0.634916 -0.38205 0
M  V30 4908 H 475.062 1.1667 -1.51857 0
M  V30 4909 H 473.367 3.74682 -1.14546 0
M  V30 4910 H 475.064 3.70477 -1.53454 0
M  V30 4911 H 471.654 3.18324 -2.86998 0
M  V30 4912 H 475.838 3.13266 -3.84939 0
M  V30 4913 H 471.094 3.11245 -5.26247 0
M  V30 4914 H 475.268 3.07357 -6.24904 0
M  V30 4915 H 472.895 3.05882 -6.95946 0
M  V30 4916 N 474.47 1.03057 1.19235 0
M  V30 4917 C 475.417 0.612832 2.22515 0
M  V30 4918 C 476.387 -0.374224 1.61829 0
M  V30 4919 O 477.572 -0.270501 1.88873 0
M  V30 4920 C 474.712 -0.028475 3.45088 0
M  V30 4921 C 473.825 1.00483 4.20151 0
M  V30 4922 C 472.96 0.333102 5.30155 0
M  V30 4923 C 471.999 1.3522 5.96977 0
M  V30 4924 N 471.136 0.70616 6.9854 0
M  V30 4925 H 475.976 1.49812 2.57605 0
M  V30 4926 H 473.513 0.749658 1.26564 0
M  V30 4927 H 475.471 -0.417548 4.15105 0
M  V30 4928 H 474.101 -0.877334 3.10649 0
M  V30 4929 H 473.153 1.51194 3.49062 0
M  V30 4930 H 474.465 1.77929 4.65986 0
M  V30 4931 H 473.619 -0.110725 6.06599 0
M  V30 4932 H 472.358 -0.473547 4.85396 0
M  V30 4933 H 471.363 1.80627 5.19282 0
M  V30 4934 H 472.588 2.16037 6.4382 0
M  V30 4935 H 470.534 -0.0803667 6.55951 0
M  V30 4936 H 470.451 1.41848 7.42573 0
M  V30 4937 H 471.719 0.286391 7.78974 0
M  V30 4938 N 475.948 -1.35272 0.808662 0
M  V30 4939 C 477.196 -1.98316 0.389233 0
M  V30 4940 C 477.517 -1.64465 -1.04767 0
M  V30 4941 O 476.787 -0.928175 -1.72516 0
M  V30 4942 H 475.367 -0.733585 0.140935 0
M  V30 4943 H 478.029 -1.6515 1.03496 0
M  V30 4944 H 477.125 -3.08123 0.496631 0
M  V30 4945 N 477.426 -0.562348 -1.47226 0
M  V30 4946 C 478.358 0.220011 -2.28142 0
M  V30 4947 C 479.371 0.874596 -1.37312 0
M  V30 4948 O 480.56 0.747583 -1.62091 0
M  V30 4949 C 477.66 1.32953 -3.11732 0
M  V30 4950 C 476.833 0.770759 -4.30556 0
M  V30 4951 C 475.892 1.76541 -4.95701 0
M  V30 4952 O 474.918 1.3095 -5.53932 0
M  V30 4953 N 476.12 3.09896 -4.90861 0
M  V30 4954 H 478.885 -0.474107 -2.95926 0
M  V30 4955 H 476.446 -0.398761 -1.56912 0
M  V30 4956 H 478.438 1.99378 -3.5218 0
M  V30 4957 H 477.008 1.92681 -2.46156 0
M  V30 4958 H 476.228 -0.0704056 -3.94137 0
M  V30 4959 H 477.516 0.376872 -5.07402 0
M  V30 4960 H 476.914 3.49577 -4.44761 0
M  V30 4961 H 475.471 3.71865 -5.35313 0
M  V30 4962 N 478.904 1.54736 -0.299062 0
M  V30 4963 C 479.851 2.23448 0.577899 0
M  V30 4964 C 480.821 1.21637 1.13109 0
M  V30 4965 O 482.006 1.50252 1.17597 0
M  V30 4966 C 479.146 2.9774 1.74484 0
M  V30 4967 C 478.259 4.1432 1.22323 0
M  V30 4968 C 477.394 4.76199 2.35388 0
M  V30 4969 C 476.433 5.84927 1.80351 0
M  V30 4970 N 475.57 6.4077 2.86982 0
M  V30 4971 H 480.41 2.97996 -0.0146545 0
M  V30 4972 H 477.947 1.47088 -0.0190013 0
M  V30 4973 H 479.905 3.39045 2.43114 0
M  V30 4974 H 478.535 2.25572 2.30905 0
M  V30 4975 H 477.587 3.7797 0.429249 0
M  V30 4976 H 478.899 4.92659 0.780309 0
M  V30 4977 H 478.053 5.20346 3.11969 0
M  V30 4978 H 476.792 3.97188 2.83006 0
M  V30 4979 H 475.797 5.40207 1.02259 0
M  V30 4980 H 477.022 6.65821 1.3364 0
M  V30 4981 H 474.968 5.64643 3.33938 0
M  V30 4982 H 474.885 7.1445 2.4718 0
M  V30 4983 H 476.153 6.89574 3.63466 0
M  V30 4984 N 480.382 0.0267497 1.57577 0
M  V30 4985 C 481.292 -0.971633 2.13533 0
M  V30 4986 C 482.308 -1.35868 1.08701 0
M  V30 4987 O 483.484 -1.44058 1.40746 0
M  V30 4988 C 480.549 -2.23622 2.64941 0
M  V30 4989 C 479.61 -1.90982 3.8448 0
M  V30 4990 C 478.843 -3.11411 4.33427 0
M  V30 4991 O 479.066 -4.23992 3.81558 0
M  V30 4992 O 478 -2.93848 5.25297 0
M  V30 4993 H 481.826 -0.525853 2.99113 0
M  V30 4994 H 479.411 -0.193712 1.48139 0
M  V30 4995 H 481.293 -2.97864 2.98086 0
M  V30 4996 H 479.968 -2.67386 1.82446 0
M  V30 4997 H 478.875 -1.14132 3.56265 0
M  V30 4998 H 480.208 -1.52036 4.6813 0
M  V30 4999 N 481.861 -1.55662 -0.24637 0
M  V30 5000 C 482.791 -1.93377 -1.30873 0
M  V30 5001 C 483.772 -0.798773 -1.50179 0
M  V30 5002 O 484.957 -1.0591 -1.62778 0
M  V30 5003 C 482.087 -2.22893 -2.66338 0
M  V30 5004 C 481.041 -3.38649 -2.61727 0
M  V30 5005 C 480.367 -3.53708 -4.00992 0
M  V30 5006 C 481.667 -4.74323 -2.18666 0
M  V30 5007 H 483.361 -2.82363 -0.995552 0
M  V30 5008 H 480.907 -1.35854 -0.477464 0
M  V30 5009 H 482.86 -2.47866 -3.40794 0
M  V30 5010 H 481.584 -1.30733 -2.99293 0
M  V30 5011 H 480.243 -3.13685 -1.89729 0
M  V30 5012 H 479.891 -2.58967 -4.31214 0
M  V30 5013 H 479.591 -4.31551 -3.98795 0
M  V30 5014 H 481.115 -3.81003 -4.77147 0
M  V30 5015 H 482.529 -4.98665 -2.82854 0
M  V30 5016 H 480.926 -5.55273 -2.27579 0
M  V30 5017 H 481.996 -4.71349 -1.13834 0
M  V30 5018 N 483.339 0.512053 -1.4905 0
M  V30 5019 C 484.587 1.26436 -1.57665 0
M  V30 5020 C 484.908 1.93255 -0.260293 0
M  V30 5021 O 484.178 1.82206 0.719564 0
M  V30 5022 H 482.758 0.469658 -0.580888 0
M  V30 5023 H 485.42 0.594398 -1.85615 0
M  V30 5024 H 484.516 2.03417 -2.36702 0
M  V30 5025 N 484.817 1.37938 0.762283 0
M  V30 5026 C 486.233 1.18945 1.06415 0
M  V30 5027 C 486.433 0.0321163 2.01474 0
M  V30 5028 O 485.489 -0.624844 2.44647 0
M  V30 5029 C 486.802 2.51218 1.65258 0
M  V30 5030 C 488.35 2.57824 1.7747 0
M  V30 5031 C 488.825 3.90251 2.39725 0
M  V30 5032 N 490.316 3.91744 2.47166 0
M  V30 5033 C 491.051 4.90966 2.96209 0
M  V30 5034 N 490.547 6.00585 3.45354 0
M  V30 5035 N 492.34 4.78363 2.9517 0
M  V30 5036 H 484.491 2.11994 0.131301 0
M  V30 5037 H 486.754 0.940262 0.120879 0
M  V30 5038 H 486.46 3.36317 1.02878 0
M  V30 5039 H 486.334 2.68989 2.64433 0
M  V30 5040 H 488.721 1.73126 2.3898 0
M  V30 5041 H 488.802 2.43928 0.770241 0
M  V30 5042 H 488.446 4.75368 1.78852 0
M  V30 5043 H 488.376 4.01454 3.40796 0
M  V30 5044 H 490.867 3.12563 2.12397 0
M  V30 5045 H 491.18 6.72236 3.81207 0
M  V30 5046 H 489.525 6.04217 3.43434 0
M  V30 5047 H 492.716 3.91841 2.56082 0
M  V30 5048 H 492.889 5.55843 3.33081 0
M  V30 5049 N 486.295 -0.989507 1.22664 0
M  V30 5050 C 487.543 -1.72612 1.05117 0
M  V30 5051 C 487.864 -1.90552 -0.414131 0
M  V30 5052 O 487.134 -1.4676 -1.29762 0
M  V30 5053 H 485.714 -0.639555 0.385977 0
M  V30 5054 H 488.376 -1.19158 1.54232 0
M  V30 5055 H 487.472 -2.71926 1.53175 0
M  V30 5056 N 487.773 -1.03688 -1.18687 0
M  V30 5057 C 489.05 -0.652397 -1.84399 0
M  V30 5058 C 489.43 0.868386 -1.92412 0
M  V30 5059 O 488.778 1.76832 -1.44716 0
M  V30 5060 C 488.988 -1.3238 -3.22919 0
M  V30 5061 C 490.336 -1.45216 -3.98996 0
M  V30 5062 O 491.36 -1.2816 -3.32345 0
M  V30 5063 O 490.219 -1.72975 -5.18403 0
M  V30 5064 H 487.313 -0.227793 -0.795009 0
M  V30 5065 H 489.859 -1.13553 -1.2611 0
M  V30 5066 H 488.631 -2.36202 -3.11968 0
M  V30 5067 H 488.254 -0.829039 -3.88861 0
M  V30 5068 N 489.251 1.34841 -0.815825 0
M  V30 5069 C 490.498 1.98499 -0.400535 0
M  V30 5070 C 490.826 1.64699 1.03463 0
M  V30 5071 O 490.081 0.907006 1.73412 0
M  V30 5072 C 490.38 3.53273 -0.541541 0
M  V30 5073 C 490.046 4.06966 -1.94138 0
M  V30 5074 C 488.708 4.21341 -2.32433 0
M  V30 5075 C 491.06 4.35933 -2.85677 0
M  V30 5076 C 488.388 4.62007 -3.61617 0
M  V30 5077 C 490.74 4.78042 -4.14317 0
M  V30 5078 C 489.404 4.90622 -4.52599 0
M  V30 5079 H 488.674 0.72636 -0.146566 0
M  V30 5080 H 491.321 1.60902 -1.0384 0
M  V30 5081 H 489.626 3.91387 0.179741 0
M  V30 5082 H 491.323 4.00497 -0.20085 0
M  V30 5083 H 487.913 3.96235 -1.63388 0
M  V30 5084 H 492.097 4.24372 -2.57337 0
M  V30 5085 H 487.353 4.69937 -3.91113 0
M  V30 5086 H 491.527 4.99415 -4.85342 0
M  V30 5087 H 489.154 5.2189 -5.52752 0
M  V30 5088 N 490.729 0.570148 1.46925 0
M  V30 5089 C 491.957 0.0561966 2.06824 0
M  V30 5090 C 492.372 -1.24326 1.42086 0
M  V30 5091 O 491.729 -1.74882 0.521794 0
M  V30 5092 C 491.78 -0.129517 3.61268 0
M  V30 5093 O 491.501 1.1185 4.23581 0
M  V30 5094 C 493.002 -0.679266 4.38065 0
M  V30 5095 H 490.222 0.0517261 0.669003 0
M  V30 5096 H 492.766 0.787243 1.8874 0
M  V30 5097 H 490.921 -0.810739 3.78822 0
M  V30 5098 H 491.335 0.924375 5.1629 0
M  V30 5099 H 492.809 -0.758445 5.46765 0
M  V30 5100 H 493.286 -1.69346 4.05239 0
M  V30 5101 H 493.892 -0.0333237 4.25287 0
M  V30 5102 N 492.207 -1.54576 0.307264 0
M  V30 5103 C 493.154 -2.23751 -0.56604 0
M  V30 5104 C 494.124 -1.22235 -1.12462 0
M  V30 5105 O 495.309 -1.50873 -1.16799 0
M  V30 5106 C 492.449 -2.98661 -1.72903 0
M  V30 5107 C 491.562 -4.14963 -1.20124 0
M  V30 5108 C 490.697 -4.77441 -2.3286 0
M  V30 5109 C 489.736 -5.85875 -1.77247 0
M  V30 5110 N 488.873 -6.42282 -2.8358 0
M  V30 5111 H 493.713 -2.97984 0.0304578 0
M  V30 5112 H 491.25 -1.47076 0.0268015 0
M  V30 5113 H 493.208 -3.40329 -2.41313 0
M  V30 5114 H 491.838 -2.26793 -2.29706 0
M  V30 5115 H 490.89 -3.78193 -0.409198 0
M  V30 5116 H 492.202 -4.93066 -0.754171 0
M  V30 5117 H 491.356 -5.21993 -3.09205 0
M  V30 5118 H 490.095 -3.98684 -2.80896 0
M  V30 5119 H 489.1 -5.40741 -0.993926 0
M  V30 5120 H 490.325 -6.6652 -1.30107 0
M  V30 5121 H 488.271 -5.66406 -3.30939 0
M  V30 5122 H 488.188 -7.1575 -2.43388 0
M  V30 5123 H 489.456 -6.91492 -3.59804 0
M  V30 5124 N 493.685 -0.035106 -1.57561 0
M  V30 5125 C 494.934 0.641604 -1.91223 0
M  V30 5126 C 495.247 1.72944 -0.913761 0
M  V30 5127 O 496.453 2.46321 -1.14185 0
M  V30 5128 C 494.909 1.19249 -3.3957 0
M  V30 5129 C 494.517 0.137616 -4.47789 0
M  V30 5130 C 496.261 1.84537 -3.82291 0
M  V30 5131 C 494.168 0.700478 -5.87237 0
M  V30 5132 H 493.098 0.243417 -0.713627 0
M  V30 5133 H 495.749 -0.101382 -1.8322 0
M  V30 5134 H 494.131 1.98728 -3.42525 0
M  V30 5135 H 495.305 -0.635153 -4.56402 0
M  V30 5136 H 493.62 -0.416855 -4.14308 0
M  V30 5137 H 496.217 2.27616 -4.83834 0
M  V30 5138 H 496.56 2.69054 -3.17672 0
M  V30 5139 H 497.093 1.11739 -3.81784 0
M  V30 5140 H 493.832 -0.106693 -6.55413 0
M  V30 5141 H 493.352 1.4416 -5.82218 0
M  V30 5142 H 495.031 1.18837 -6.35993 0
M  V30 5143 N 495.163 1.55791 0.238111 0
M  V30 5144 C 496.574 1.68383 0.806472 0
M  V30 5145 C 496.925 0.634157 1.85669 0
M  V30 5146 O 496.05 -0.217913 2.153 0
M  V30 5147 C 496.645 3.05268 1.46959 0
M  V30 5148 C 495.204 3.1977 1.98555 0
M  V30 5149 C 494.351 2.64279 0.839763 0
M  V30 5150 H 497.302 1.58694 0.0137535 0
M  V30 5151 H 497.323 3.00203 2.33792 0
M  V30 5152 H 496.835 3.81643 0.704993 0
M  V30 5153 H 494.936 2.48234 2.77868 0
M  V30 5154 H 495.049 4.26788 2.17689 0
M  V30 5155 H 493.413 2.22329 1.24265 0
M  V30 5156 H 494.196 3.43187 0.0881032 0
M  V30 5157 N 496.642 -0.504142 1.49319 0
M  V30 5158 C 497.59 -1.62689 1.66238 0
M  V30 5159 C 498.584 -1.6095 0.528349 0
M  V30 5160 O 499.79 -1.65496 0.707887 0
M  V30 5161 H 496.165 -0.539247 0.524134 0
M  V30 5162 H 498.136 -1.45571 2.60484 0
M  V30 5163 C 496.885 -3.00841 1.74328 0
M  V30 5164 H 496.208 -3.02884 2.60963 0
M  V30 5165 H 497.648 -3.78945 1.90202 0
M  V30 5166 C 496.107 -3.33355 0.487416 0
M  V30 5167 O 496.637 -3.99819 -0.388294 0
M  V30 5168 N 494.843 -2.88469 0.351306 0
M  V30 5169 H 494.39 -2.34557 1.06492 0
M  V30 5170 H 494.348 -3.10591 -0.487899 0
M  V30 5171 N 498.12 -1.38341 -0.754957 0
M  V30 5172 C 499.368 -1.34208 -1.51105 0
M  V30 5173 C 499.689 0.0677634 -1.94882 0
M  V30 5174 O 498.959 1.01517 -1.67544 0
M  V30 5175 H 497.539 -0.493819 -0.560493 0
M  V30 5176 H 500.201 -1.73005 -0.897507 0
M  V30 5177 H 499.297 -1.99203 -2.4026 0
M  V30 5178 N 499.598 0.982988 -1.23187 0
M  V30 5179 C 500.846 1.72052 -1.06031 0
M  V30 5180 C 501.167 1.90769 0.404019 0
M  V30 5181 O 500.437 1.47446 1.28982 0
M  V30 5182 H 499.017 0.637499 -0.389363 0
M  V30 5183 H 501.679 1.18338 -1.54862 0
M  V30 5184 H 500.775 2.7111 -1.54615 0
M  V30 5185 N 501.076 1.04316 1.18135 0
M  V30 5186 C 502.487 0.775505 1.69832 0
M  V30 5187 C 502.838 -0.703348 1.8316 0
M  V30 5188 O 501.963 -1.54729 1.51287 0
M  V30 5189 C 502.558 1.40112 3.0847 0
M  V30 5190 C 501.117 1.18172 3.57368 0
M  V30 5191 C 500.264 1.49022 2.33854 0
M  V30 5192 H 503.215 1.20925 1.02775 0
M  V30 5193 H 503.236 0.805672 3.71873 0
M  V30 5194 H 502.748 2.47744 2.98738 0
M  V30 5195 H 500.849 0.124258 3.72393 0
M  V30 5196 H 500.962 1.8805 4.40652 0
M  V30 5197 H 499.326 0.909995 2.37889 0
M  V30 5198 H 500.109 2.57768 2.26738 0
M  V30 5199 N 502.554 -1.34406 0.822964 0
M  V30 5200 C 503.803 -1.97542 0.407458 0
M  V30 5201 C 504.116 -1.65973 -1.035 0
M  V30 5202 O 505.322 -2.22598 -1.55442 0
M  V30 5203 C 503.778 -3.53463 0.677623 0
M  V30 5204 C 503.386 -3.93925 2.1337 0
M  V30 5205 C 505.13 -4.23229 0.328284 0
M  V30 5206 C 503.037 -5.42759 2.34876 0
M  V30 5207 H 501.967 -0.739207 0.148623 0
M  V30 5208 H 504.618 -1.53248 1.00932 0
M  V30 5209 H 503 -3.96 0.00558965 0
M  V30 5210 H 504.174 -3.62494 2.8449 0
M  V30 5211 H 502.489 -3.37097 2.44448 0
M  V30 5212 H 505.086 -5.32659 0.466794 0
M  V30 5213 H 505.429 -4.09899 -0.727224 0
M  V30 5214 H 505.962 -3.86169 0.954896 0
M  V30 5215 H 502.701 -5.61075 3.38932 0
M  V30 5216 H 502.221 -5.75704 1.68299 0
M  V30 5217 H 503.9 -6.0944 2.17236 0
M  V30 5218 N 504.032 -0.577932 -1.46621 0
M  V30 5219 C 505.281 -0.0594281 -2.01612 0
M  V30 5220 C 505.594 1.30663 -1.45556 0
M  V30 5221 O 506.8 1.91621 -1.92337 0
M  V30 5222 C 505.256 -0.0556666 -3.59857 0
M  V30 5223 C 504.864 -1.41975 -4.24908 0
M  V30 5224 C 506.608 0.409143 -4.22524 0
M  V30 5225 C 504.515 -1.37397 -5.75218 0
M  V30 5226 H 503.445 -0.0184469 -0.753774 0
M  V30 5227 H 506.096 -0.728869 -1.68404 0
M  V30 5228 H 504.478 0.679843 -3.90121 0
M  V30 5229 H 505.652 -2.17461 -4.0626 0
M  V30 5230 H 503.967 -1.82419 -3.74316 0
M  V30 5231 H 506.564 0.46211 -5.32699 0
M  V30 5232 H 506.907 1.42565 -3.91128 0
M  V30 5233 H 507.44 -0.272152 -3.96868 0
M  V30 5234 H 504.179 -2.36714 -6.11267 0
M  V30 5235 H 503.699 -0.661239 -5.96144 0
M  V30 5236 H 505.378 -1.08484 -6.3784 0
M  V30 5237 N 505.51 1.54411 -0.315457 0
M  V30 5238 C 506.42 2.27737 0.56329 0
M  V30 5239 C 507.436 1.31787 1.13614 0
M  V30 5240 O 508.612 1.64791 1.15784 0
M  V30 5241 C 505.677 3.01478 1.71207 0
M  V30 5242 C 504.738 4.12997 1.17185 0
M  V30 5243 C 503.971 4.83212 2.26588 0
M  V30 5244 O 504.194 4.52884 3.46775 0
M  V30 5245 O 503.128 5.70299 1.92463 0
M  V30 5246 H 506.954 3.03683 -0.0319614 0
M  V30 5247 H 504.539 1.49178 -0.0814188 0
M  V30 5248 H 506.421 3.47683 2.38106 0
M  V30 5249 H 505.096 2.28414 2.29366 0
M  V30 5250 H 504.003 3.71159 0.468174 0
M  V30 5251 H 505.336 4.8808 0.635501 0
M  V30 5252 N 506.988 0.0434614 1.5754 0
M  V30 5253 C 508.265 -0.671479 1.83713 0
M  V30 5254 C 508.645 -1.89495 0.930315 0
M  V30 5255 O 507.993 -2.28498 -0.0105639 0
M  V30 5256 C 508.203 -1.0361 3.33266 0
M  V30 5257 C 509.551 -1.42167 4.00092 0
M  V30 5258 O 510.575 -1.12866 3.37846 0
M  V30 5259 O 509.434 -1.96817 5.09829 0
M  V30 5260 H 506.528 -0.330726 0.75799 0
M  V30 5261 H 509.074 0.0722373 1.69546 0
M  V30 5262 H 507.846 -0.165938 3.90948 0
M  V30 5263 H 507.469 -1.83751 3.52592 0
M  V30 5264 N 508.466 -1.55915 -0.229846 0
M  V30 5265 C 509.882 -1.48721 -0.579166 0
M  V30 5266 C 510.082 -0.736976 -1.87539 0
M  V30 5267 O 509.138 -0.273258 -2.51017 0
M  V30 5268 C 510.451 -2.9323 -0.666082 0
M  V30 5269 C 511.999 -3.03701 -0.757267 0
M  V30 5270 C 512.474 -4.49552 -0.8756 0
M  V30 5271 N 513.965 -4.53561 -0.940035 0
M  V30 5272 C 514.7 -5.63683 -1.05116 0
M  V30 5273 N 514.196 -6.83576 -1.12675 0
M  V30 5274 N 515.989 -5.51516 -1.08565 0
M  V30 5275 H 508.14 -2.03123 0.620857 0
M  V30 5276 H 510.403 -0.922898 0.21671 0
M  V30 5277 H 510.109 -3.51032 0.21664 0
M  V30 5278 H 509.983 -3.44668 -1.53243 0
M  V30 5279 H 512.37 -2.45969 -1.63043 0
M  V30 5280 H 512.451 -2.55446 0.134583 0
M  V30 5281 H 512.095 -5.079 -0.00692351 0
M  V30 5282 H 512.025 -4.95506 -1.78274 0
M  V30 5283 H 514.516 -3.67215 -0.892269 0
M  V30 5284 H 514.829 -7.63251 -1.21109 0
M  V30 5285 H 513.174 -6.86303 -1.09603 0
M  V30 5286 H 516.365 -4.5678 -1.02319 0
M  V30 5287 H 516.538 -6.37372 -1.1688 0
M  V30 5288 N 509.944 0.496216 -1.49584 0
M  V30 5289 C 511.19 1.25189 -1.59548 0
M  V30 5290 C 511.523 1.9212 -0.283466 0
M  V30 5291 O 510.798 1.80947 0.713324 0
M  V30 5292 C 511.081 2.31516 -2.75812 0
M  V30 5293 C 510.934 1.69054 -4.16822 0
M  V30 5294 C 512.253 3.3304 -2.87702 0
M  V30 5295 H 509.372 0.45379 -0.580727 0
M  V30 5296 H 512.014 0.549327 -1.81886 0
M  V30 5297 H 510.164 2.91438 -2.56897 0
M  V30 5298 H 511.836 1.12923 -4.47265 0
M  V30 5299 H 510.079 0.994485 -4.22247 0
M  V30 5300 H 510.75 2.462 -4.94054 0
M  V30 5301 H 513.226 2.83114 -3.04936 0
M  V30 5302 H 512.102 4.04794 -3.7072 0
M  V30 5303 H 512.363 3.95655 -1.97255 0
M  V30 5304 N 511.423 1.38739 0.74761 0
M  V30 5305 C 512.648 1.38702 1.54197 0
M  V30 5306 C 513.073 -0.019664 1.8809 0
M  V30 5307 O 512.431 -1.00333 1.51006 0
M  V30 5308 C 512.479 2.25492 2.814 0
M  V30 5309 O 511.583 1.67613 3.76802 0
M  V30 5310 H 510.924 0.472863 0.466151 0
M  V30 5311 H 513.454 1.82577 0.923413 0
M  V30 5312 H 513.464 2.39561 3.30264 0
M  V30 5313 H 512.139 3.27727 2.56062 0
M  V30 5314 H 510.716 1.62718 3.35526 0
M  V30 5315 N 512.901 -0.976442 1.23707 0
M  V30 5316 C 514.15 -1.71254 1.06559 0
M  V30 5317 C 514.463 -1.91528 -0.397024 0
M  V30 5318 O 515.669 -2.62625 -0.688518 0
M  V30 5319 C 514.125 -3.08207 1.8584 0
M  V30 5320 C 513.733 -2.95806 3.36456 0
M  V30 5321 C 515.477 -3.85749 1.77194 0
M  V30 5322 C 513.384 -4.28015 4.08114 0
M  V30 5323 H 512.314 -0.642171 0.395136 0
M  V30 5324 H 514.965 -1.08877 1.4771 0
M  V30 5325 H 513.347 -3.71363 1.37498 0
M  V30 5326 H 514.521 -2.41716 3.92314 0
M  V30 5327 H 512.836 -2.31736 3.45959 0
M  V30 5328 H 515.433 -4.83633 2.28041 0
M  V30 5329 H 515.776 -4.09752 0.735477 0
M  V30 5330 H 516.309 -3.29303 2.23169 0
M  V30 5331 H 513.048 -4.09208 5.12083 0
M  V30 5332 H 512.568 -4.81955 3.57043 0
M  V30 5333 H 514.247 -4.96681 4.14629 0
M  V30 5334 N 514.379 -1.04941 -1.1758 0
M  V30 5335 C 515.309 -0.669172 -2.23706 0
M  V30 5336 C 516.29 0.331835 -1.66832 0
M  V30 5337 O 517.475 0.209988 -1.93061 0
M  V30 5338 C 514.605 -0.0404889 -3.47276 0
M  V30 5339 C 513.559 -0.965983 -4.16957 0
M  V30 5340 C 512.885 -0.201312 -5.34321 0
M  V30 5341 C 514.185 -2.28902 -4.69469 0
M  V30 5342 H 515.879 -1.55639 -2.55767 0
M  V30 5343 H 513.425 -0.749793 -1.22939 0
M  V30 5344 H 515.378 0.237298 -4.20731 0
M  V30 5345 H 514.102 0.881658 -3.14475 0
M  V30 5346 H 512.761 -1.22829 -3.45411 0
M  V30 5347 H 512.409 0.723519 -4.97769 0
M  V30 5348 H 512.109 -0.817968 -5.81879 0
M  V30 5349 H 513.633 0.0692499 -6.10561 0
M  V30 5350 H 515.047 -2.07132 -5.34574 0
M  V30 5351 H 513.444 -2.85942 -5.27596 0
M  V30 5352 H 514.514 -2.92937 -3.86414 0
M  V30 5353 N 515.857 1.33968 -0.830081 0
M  V30 5354 C 517.104 1.98063 -0.421566 0
M  V30 5355 C 517.432 1.65787 1.0171 0
M  V30 5356 O 516.687 0.925348 1.72441 0
M  V30 5357 C 516.986 3.52679 -0.57898 0
M  V30 5358 C 516.652 4.04884 -1.98443 0
M  V30 5359 C 515.314 4.18852 -2.36888 0
M  V30 5360 C 517.666 4.32879 -2.90285 0
M  V30 5361 C 514.994 4.58145 -3.66497 0
M  V30 5362 C 517.346 4.7362 -4.19364 0
M  V30 5363 C 516.01 4.85794 -4.57778 0
M  V30 5364 H 515.28 0.724765 -0.154262 0
M  V30 5365 H 517.927 1.59792 -1.05541 0
M  V30 5366 H 516.232 3.91556 0.138219 0
M  V30 5367 H 517.929 4.00261 -0.243317 0
M  V30 5368 H 514.519 3.9448 -1.67581 0
M  V30 5369 H 518.703 4.21619 -2.61823 0
M  V30 5370 H 513.959 4.65762 -3.96075 0
M  V30 5371 H 518.133 4.9424 -4.90612 0
M  V30 5372 H 515.76 5.15998 -5.58256 0
M  V30 5373 N 517.335 0.585699 1.46312 0
M  V30 5374 C 518.56 0.0762461 2.0726 0
M  V30 5375 C 518.985 -1.22071 1.43109 0
M  V30 5376 O 518.343 -1.73804 0.515942 0
M  V30 5377 C 518.391 -0.0729404 3.60526 0
M  V30 5378 O 517.495 -1.1287 3.96654 0
M  V30 5379 H 516.836 0.0641558 0.660893 0
M  V30 5380 H 519.366 0.809492 1.87905 0
M  V30 5381 H 519.376 -0.278158 4.07051 0
M  V30 5382 H 518.051 0.874188 4.06609 0
M  V30 5383 H 516.628 -0.901703 3.61834 0
M  V30 5384 N 518.813 -1.54241 0.323641 0
M  V30 5385 C 519.723 -2.28033 -0.551205 0
M  V30 5386 C 520.739 -1.32388 -1.12913 0
M  V30 5387 O 521.915 -1.65403 -1.14908 0
M  V30 5388 C 518.98 -3.02382 -1.69606 0
M  V30 5389 C 518.041 -4.13612 -1.14993 0
M  V30 5390 C 517.274 -4.84407 -2.24022 0
M  V30 5391 O 517.497 -4.54716 -3.44368 0
M  V30 5392 O 516.431 -5.71312 -1.89436 0
M  V30 5393 H 520.257 -3.03662 0.048066 0
M  V30 5394 H 517.842 -1.49133 0.0893289 0
M  V30 5395 H 519.724 -3.48941 -2.36259 0
M  V30 5396 H 518.399 -2.29628 -2.28151 0
M  V30 5397 H 517.306 -3.71402 -0.448484 0
M  V30 5398 H 518.639 -4.8841 -0.609608 0
M  V30 5399 N 520.291 -0.0518155 -1.57515 0
M  V30 5400 C 521.539 0.620595 -1.92336 0
M  V30 5401 C 521.86 1.71345 -0.930907 0
M  V30 5402 O 521.13 1.95885 0.0241341 0
M  V30 5403 H 519.71 0.232226 -0.709986 0
M  V30 5404 H 522.372 -0.104969 -1.94617 0
M  V30 5405 H 521.468 1.05879 -2.93592 0
M  V30 5406 N 521.769 1.56035 0.221574 0
M  V30 5407 C 523.015 1.79312 0.947372 0
M  V30 5408 C 523.348 0.621453 1.83988 0
M  V30 5409 O 522.623 -0.379287 1.90766 0
M  V30 5410 C 522.906 3.1267 1.78633 0
M  V30 5411 C 522.759 4.40284 0.920312 0
M  V30 5412 C 524.078 3.4247 2.7641 0
M  V30 5413 H 521.197 0.652328 0.342982 0
M  V30 5414 H 523.839 1.88765 0.216244 0
M  V30 5415 H 521.989 3.04741 2.40967 0
M  V30 5416 H 523.661 4.60232 0.313718 0
M  V30 5417 H 521.904 4.33212 0.225734 0
M  V30 5418 H 522.575 5.30033 1.54171 0
M  V30 5419 H 525.051 3.50526 2.24211 0
M  V30 5420 H 523.927 4.3695 3.32213 0
M  V30 5421 H 524.188 2.64635 3.54148 0
M  V30 5422 N 523.247 -0.488276 1.49845 0
M  V30 5423 C 524.194 -1.58836 1.67451 0
M  V30 5424 C 525.164 -1.57886 0.515857 0
M  V30 5425 O 526.349 -1.75679 0.744403 0
M  V30 5426 C 523.489 -2.96915 1.75885 0
M  V30 5427 C 522.602 -3.07784 3.03138 0
M  V30 5428 C 521.737 -4.36673 3.02473 0
M  V30 5429 C 520.776 -4.41222 4.24252 0
M  V30 5430 N 519.913 -5.61557 4.21424 0
M  V30 5431 H 524.753 -1.43131 2.61376 0
M  V30 5432 H 522.29 -0.696186 1.29583 0
M  V30 5433 H 524.248 -3.76965 1.78755 0
M  V30 5434 H 522.878 -3.11295 0.85414 0
M  V30 5435 H 521.93 -2.20717 3.09819 0
M  V30 5436 H 523.242 -3.07005 3.93128 0
M  V30 5437 H 522.396 -5.25055 3.03977 0
M  V30 5438 H 521.135 -4.40037 2.10283 0
M  V30 5439 H 520.14 -3.5124 4.22978 0
M  V30 5440 H 521.365 -4.39564 5.17649 0
M  V30 5441 H 519.311 -5.65738 3.32078 0
M  V30 5442 H 519.228 -5.62447 5.05163 0
M  V30 5443 H 520.496 -6.52111 4.2705 0
M  V30 5444 N 524.725 -1.39134 -0.740242 0
M  V30 5445 C 525.672 -1.37434 -1.8542 0
M  V30 5446 C 526.642 -0.234822 -1.64432 0
M  V30 5447 O 527.827 -0.429125 -1.85912 0
M  V30 5448 C 524.967 -1.21844 -3.22875 0
M  V30 5449 C 524.08 -2.45296 -3.55603 0
M  V30 5450 C 523.215 -2.22334 -4.82432 0
M  V30 5451 C 522.254 -3.41488 -5.07988 0
M  V30 5452 N 521.391 -3.17877 -6.26018 0
M  V30 5453 H 526.231 -2.3266 -1.86207 0
M  V30 5454 H 523.768 -1.15578 -0.909946 0
M  V30 5455 H 525.726 -1.10818 -4.02213 0
M  V30 5456 H 524.356 -0.3025 -3.21379 0
M  V30 5457 H 523.408 -2.66945 -2.71006 0
M  V30 5458 H 524.72 -3.34063 -3.7041 0
M  V30 5459 H 523.874 -2.0852 -5.69741 0
M  V30 5460 H 522.613 -1.30954 -4.6979 0
M  V30 5461 H 521.618 -3.55807 -4.19144 0
M  V30 5462 H 522.843 -4.33763 -5.22519 0
M  V30 5463 H 520.789 -2.29156 -6.14673 0
M  V30 5464 H 520.706 -4.00198 -6.41387 0
M  V30 5465 H 521.974 -3.07746 -7.16179 0
M  V30 5466 N 526.204 0.969867 -1.24223 0
M  V30 5467 C 527.452 1.70918 -1.0785 0
M  V30 5468 C 527.773 1.91186 0.383763 0
M  V30 5469 O 527.043 1.48806 1.27411 0
M  V30 5470 H 525.623 0.633334 -0.396103 0
M  V30 5471 H 528.285 1.16689 -1.56108 0
M  V30 5472 H 527.381 2.69455 -1.57482 0
M  V30 5473 N 527.682 1.05563 1.17022 0
M  V30 5474 C 529.098 0.777684 1.39371 0
M  V30 5475 C 529.298 -0.626269 1.91521 0
M  V30 5476 O 528.354 -1.38806 2.10924 0
M  V30 5477 C 529.667 1.83642 2.3811 0
M  V30 5478 C 531.215 1.85907 2.51809 0
M  V30 5479 C 531.69 2.90813 3.53824 0
M  V30 5480 N 533.181 2.898 3.61345 0
M  V30 5481 C 533.916 3.6762 4.40049 0
M  V30 5482 N 533.412 4.55237 5.22237 0
M  V30 5483 N 535.205 3.56044 4.34959 0
M  V30 5484 H 527.356 1.9614 0.815047 0
M  V30 5485 H 529.619 0.849527 0.420722 0
M  V30 5486 H 529.325 2.84425 2.06871 0
M  V30 5487 H 529.199 1.6812 3.37662 0
M  V30 5488 H 531.586 0.857865 2.82356 0
M  V30 5489 H 531.667 2.05506 1.52318 0
M  V30 5490 H 531.311 3.91122 3.24015 0
M  V30 5491 H 531.241 2.68465 4.53028 0
M  V30 5492 H 533.732 2.26274 3.02669 0
M  V30 5493 H 534.045 5.11291 5.79484 0
M  V30 5494 H 532.39 4.59296 5.21605 0
M  V30 5495 H 535.581 2.86986 3.69806 0
M  V30 5496 H 535.754 4.16938 4.96051 0
M  V30 5497 N 529.16 -1.33526 0.837174 0
M  V30 5498 C 530.409 -1.97098 0.428387 0
M  V30 5499 C 530.722 -1.67062 -1.01734 0
M  V30 5500 O 531.928 -2.24235 -1.53072 0
M  V30 5501 C 530.384 -3.52725 0.715075 0
M  V30 5502 C 529.992 -3.9164 2.17537 0
M  V30 5503 C 531.736 -4.22857 0.373154 0
M  V30 5504 C 529.643 -5.40237 2.40619 0
M  V30 5505 H 528.573 -0.737589 0.156455 0
M  V30 5506 H 531.224 -1.52169 1.02552 0
M  V30 5507 H 529.606 -3.95971 0.0475904 0
M  V30 5508 H 530.78 -3.59456 2.88319 0
M  V30 5509 H 529.095 -3.34485 2.4801 0
M  V30 5510 H 531.692 -5.32133 0.523264 0
M  V30 5511 H 532.035 -4.10647 -0.683708 0
M  V30 5512 H 532.568 -3.85135 0.995801 0
M  V30 5513 H 529.307 -5.57449 3.44864 0
M  V30 5514 H 528.827 -5.73887 1.74396 0
M  V30 5515 H 530.506 -6.07102 2.23688 0
M  V30 5516 N 530.638 -0.59345 -1.46 0
M  V30 5517 C 531.866 -0.0890934 -2.06708 0
M  V30 5518 C 532.281 1.2205 -1.44046 0
M  V30 5519 O 531.638 1.74029 -0.549551 0
M  V30 5520 C 531.689 0.0720263 -3.61428 0
M  V30 5521 O 531.41 -1.18574 -4.21748 0
M  V30 5522 C 532.911 0.609487 -4.3909 0
M  V30 5523 H 530.131 -0.0623628 -0.668096 0
M  V30 5524 H 532.675 -0.817171 -1.87464 0
M  V30 5525 H 530.83 0.750369 -3.80063 0
M  V30 5526 H 531.244 -1.0064 -5.14754 0
M  V30 5527 H 532.718 0.671363 -5.47902 0
M  V30 5528 H 533.195 1.62878 -4.07882 0
M  V30 5529 H 533.801 -0.03434 -4.25286 0
M  V30 5530 N 532.116 1.54067 -0.331816 0
M  V30 5531 C 533.046 2.27569 0.522932 0
M  V30 5532 C 534.027 1.28679 1.11247 0
M  V30 5533 O 535.212 1.57504 1.13605 0
M  V30 5534 C 532.342 3.0397 1.67987 0
M  V30 5535 C 531.296 4.10267 1.21924 0
M  V30 5536 C 530.622 4.74555 2.46377 0
M  V30 5537 C 531.922 5.21268 0.32815 0
M  V30 5538 H 533.616 2.99264 -0.0901977 0
M  V30 5539 H 531.162 1.4393 -0.044821 0
M  V30 5540 H 533.115 3.54123 2.28418 0
M  V30 5541 H 531.839 2.29906 2.31971 0
M  V30 5542 H 530.498 3.61009 0.637809 0
M  V30 5543 H 530.146 3.97098 3.08743 0
M  V30 5544 H 529.846 5.46363 2.16243 0
M  V30 5545 H 531.37 5.27487 3.07555 0
M  V30 5546 H 532.784 5.67128 0.838978 0
M  V30 5547 H 531.181 5.99982 0.119228 0
M  V30 5548 H 532.251 4.80673 -0.638839 0
M  V30 5549 N 533.594 0.0601682 1.57485 0
M  V30 5550 C 534.542 -0.928899 2.13247 0
M  V30 5551 C 535.536 -1.31616 1.06647 0
M  V30 5552 O 536.742 -1.29476 1.25043 0
M  V30 5553 H 533.117 -0.317455 0.681708 0
M  V30 5554 H 535.088 -0.433566 2.95233 0
M  V30 5555 C 533.837 -2.19121 2.69965 0
M  V30 5556 H 533.16 -1.90204 3.51657 0
M  V30 5557 H 534.6 -2.86465 3.12592 0
M  V30 5558 C 533.059 -2.94195 1.64168 0
M  V30 5559 O 533.589 -3.87468 1.05978 0
M  V30 5560 N 531.795 -2.57089 1.35476 0
M  V30 5561 H 531.342 -1.81314 1.82984 0
M  V30 5562 H 531.3 -3.07624 0.649196 0
M  V30 5563 N 535.072 -1.5615 -0.213296 0
M  V30 5564 C 536.004 -1.89586 -1.28802 0
M  V30 5565 C 537.017 -0.784844 -1.42633 0
M  V30 5566 O 538.206 -1.06319 -1.43383 0
M  V30 5567 C 535.306 -2.09665 -2.66259 0
M  V30 5568 C 534.479 -3.40726 -2.7427 0
M  V30 5569 C 533.538 -3.50137 -3.92798 0
M  V30 5570 O 532.564 -4.23105 -3.8075 0
M  V30 5571 N 533.766 -2.81886 -5.07465 0
M  V30 5572 H 536.531 -2.82368 -1.00442 0
M  V30 5573 H 534.092 -1.56796 -0.403302 0
M  V30 5574 H 536.084 -2.13268 -3.43946 0
M  V30 5575 H 534.654 -1.23469 -2.87183 0
M  V30 5576 H 533.874 -3.4915 -1.82997 0
M  V30 5577 H 535.162 -4.27048 -2.76599 0
M  V30 5578 H 534.56 -2.22397 -5.2015 0
M  V30 5579 H 533.117 -2.91139 -5.83165 0
M  V30 5580 N 536.55 0.480323 -1.50102 0
M  V30 5581 C 537.797 1.23307 -1.60629 0
M  V30 5582 C 538.125 1.92135 -0.302375 0
M  V30 5583 O 537.38 1.82321 0.711154 0
M  V30 5584 C 537.679 2.30708 -2.72963 0
M  V30 5585 C 537.345 1.79195 -4.13763 0
M  V30 5586 C 536.007 1.64867 -4.52076 0
M  V30 5587 C 538.359 1.40878 -5.018 0
M  V30 5588 C 535.687 1.10631 -5.76175 0
M  V30 5589 C 538.039 0.880872 -6.26437 0
M  V30 5590 C 536.703 0.724146 -6.6356 0
M  V30 5591 H 535.973 0.451211 -0.587784 0
M  V30 5592 H 538.62 0.53051 -1.84005 0
M  V30 5593 H 536.925 3.06834 -2.43639 0
M  V30 5594 H 538.622 2.88692 -2.78313 0
M  V30 5595 H 535.212 1.91313 -3.83533 0
M  V30 5596 H 539.396 1.50786 -4.7284 0
M  V30 5597 H 534.652 0.972263 -6.0362 0
M  V30 5598 H 538.826 0.575269 -6.9402 0
M  V30 5599 H 536.453 0.301722 -7.59601 0
M  V30 5600 N 538.028 1.39524 0.732853 0
M  V30 5601 C 539.274 1.37068 1.49467 0
M  V30 5602 C 539.607 -0.0327166 1.94172 0
M  V30 5603 O 538.882 -0.998071 1.66939 0
M  V30 5604 C 539.165 2.34494 2.73285 0
M  V30 5605 C 539.018 3.83784 2.34585 0
M  V30 5606 C 540.337 2.29717 3.75391 0
M  V30 5607 H 537.456 0.499206 0.542183 0
M  V30 5608 H 540.098 1.70532 0.837783 0
M  V30 5609 H 538.248 2.06087 3.29333 0
M  V30 5610 H 539.92 4.22949 1.84151 0
M  V30 5611 H 538.163 4.00455 1.66787 0
M  V30 5612 H 538.834 4.47444 3.23262 0
M  V30 5613 H 541.31 2.54839 3.28932 0
M  V30 5614 H 540.186 2.99962 4.59689 0
M  V30 5615 H 540.447 1.30291 4.22465 0
M  V30 5616 N 539.506 -0.963266 1.24736 0
M  V30 5617 C 540.783 -1.68248 0.9976 0
M  V30 5618 C 541.163 -2.05599 -0.478776 0
M  V30 5619 O 540.511 -1.7626 -1.45412 0
M  V30 5620 C 540.721 -2.91118 1.92487 0
M  V30 5621 C 542.069 -3.63261 2.19833 0
M  V30 5622 O 543.093 -3.01184 1.90176 0
M  V30 5623 O 541.952 -4.75019 2.7022 0
M  V30 5624 H 539.046 -0.735744 0.377637 0
M  V30 5625 H 541.592 -1.01696 1.35853 0
M  V30 5626 H 540.364 -2.60242 2.92215 0
M  V30 5627 H 539.987 -3.65402 1.56738 0
M  V30 5628 N 540.985 -1.06182 -1.16461 0
M  V30 5629 C 542.234 -0.772927 -1.86303 0
M  V30 5630 C 542.547 0.703187 -1.82523 0
M  V30 5631 O 543.753 1.10641 -2.47933 0
M  V30 5632 C 542.209 -1.33249 -3.34324 0
M  V30 5633 C 541.817 -2.83876 -3.46581 0
M  V30 5634 C 543.561 -1.12108 -4.09429 0
M  V30 5635 C 541.468 -3.33082 -4.88682 0
M  V30 5636 H 540.398 -0.285452 -0.697878 0
M  V30 5637 H 543.049 -1.28039 -1.31447 0
M  V30 5638 H 541.431 -0.7528 -3.88779 0
M  V30 5639 H 542.605 -3.47786 -3.02293 0
M  V30 5640 H 540.92 -3.03671 -2.84909 0
M  V30 5641 H 543.517 -1.46361 -5.14279 0
M  V30 5642 H 543.86 -0.0593832 -4.16258 0
M  V30 5643 H 544.393 -1.6665 -3.6121 0
M  V30 5644 H 541.132 -4.38726 -4.87032 0
M  V30 5645 H 540.652 -2.73919 -5.33599 0
M  V30 5646 H 542.331 -3.28344 -5.57494 0
M  V30 5647 N 542.463 1.3308 -0.844243 0
M  V30 5648 C 543.709 1.97898 -0.443206 0
M  V30 5649 C 544.042 1.66699 0.99625 0
M  V30 5650 O 543.317 0.949704 1.69738 0
M  V30 5651 C 543.6 3.53801 -0.670606 0
M  V30 5652 C 543.453 3.94667 -2.15772 0
M  V30 5653 C 544.772 4.39936 -0.120226 0
M  V30 5654 H 541.891 0.718861 -0.162504 0
M  V30 5655 H 544.533 1.57633 -1.06075 0
M  V30 5656 H 542.683 3.88229 -0.14496 0
M  V30 5657 H 544.355 3.70469 -2.74865 0
M  V30 5658 H 542.598 3.44203 -2.6402 0
M  V30 5659 H 543.269 5.03275 -2.26757 0
M  V30 5660 H 545.745 4.12183 -0.5696 0
M  V30 5661 H 544.621 5.4803 -0.308984 0
M  V30 5662 H 544.882 4.31184 0.976347 0
M  V30 5663 N 543.941 0.601185 1.45683 0
M  V30 5664 C 545.166 0.0982245 2.07167 0
M  V30 5665 C 545.591 -1.20546 1.44396 0
M  V30 5666 O 544.949 -1.73247 0.534347 0
M  V30 5667 C 544.997 -0.0346976 3.60583 0
M  V30 5668 O 544.101 -1.08657 3.97828 0
M  V30 5669 H 543.442 0.0711618 0.660176 0
M  V30 5670 H 545.972 0.829376 1.87036 0
M  V30 5671 H 545.982 -0.234969 4.07323 0
M  V30 5672 H 544.657 0.917265 4.05659 0
M  V30 5673 H 543.234 -0.863275 3.6277 0
M  V30 5674 N 545.419 -1.53889 0.339982 0
M  V30 5675 C 546.647 -2.05271 -0.259114 0
M  V30 5676 C 547.062 -1.21517 -1.44496 0
M  V30 5677 O 546.419 -0.24966 -1.80784 0
M  V30 5678 C 546.47 -3.55092 -0.677634 0
M  V30 5679 O 546.191 -4.35667 0.461051 0
M  V30 5680 C 547.692 -4.22631 -1.33782 0
M  V30 5681 H 544.912 -0.669085 -0.0506566 0
M  V30 5682 H 547.456 -1.9852 0.490935 0
M  V30 5683 H 545.611 -3.62077 -1.37763 0
M  V30 5684 H 546.025 -5.24343 0.128144 0
M  V30 5685 H 547.499 -5.28861 -1.58145 0
M  V30 5686 H 547.976 -3.74758 -2.29027 0
M  V30 5687 H 548.582 -4.19829 -0.679957 0
M  V30 5688 N 546.897 -0.0685191 -1.57451 0
M  V30 5689 C 548.313 0.288101 -1.56978 0
M  V30 5690 C 548.513 1.70262 -1.07765 0
M  V30 5691 O 547.569 2.4135 -0.742054 0
M  V30 5692 C 548.882 0.100745 -3.00531 0
M  V30 5693 C 550.43 0.170531 -3.12535 0
M  V30 5694 C 550.905 0.0114944 -4.57999 0
M  V30 5695 N 552.396 0.0672065 -4.63151 0
M  V30 5696 C 553.131 -0.0314813 -5.73391 0
M  V30 5697 N 552.627 -0.183503 -6.92557 0
M  V30 5698 N 554.42 0.0253489 -5.62094 0
M  V30 5699 H 546.571 -0.993026 -1.87757 0
M  V30 5700 H 548.834 -0.386981 -0.865419 0
M  V30 5701 H 548.54 -0.875197 -3.40636 0
M  V30 5702 H 548.414 0.854457 -3.67395 0
M  V30 5703 H 550.801 1.13696 -2.72318 0
M  V30 5704 H 550.882 -0.614229 -2.48316 0
M  V30 5705 H 550.526 -0.951684 -4.98904 0
M  V30 5706 H 550.456 0.815617 -5.20245 0
M  V30 5707 H 552.947 0.183246 -3.77455 0
M  V30 5708 H 553.26 -0.251041 -7.72392 0
M  V30 5709 H 551.605 -0.218822 -6.94655 0
M  V30 5710 H 554.796 0.142794 -4.67882 0
M  V30 5711 H 554.969 -0.0550166 -6.47977 0
M  V30 5712 N 548.375 1.56261 0.205012 0
M  V30 5713 C 549.624 1.79236 0.925058 0
M  V30 5714 C 549.937 0.640011 1.84833 0
M  V30 5715 O 551.143 0.753809 2.60826 0
M  V30 5716 C 549.599 3.17475 1.69522 0
M  V30 5717 C 549.207 4.40482 0.817269 0
M  V30 5718 C 550.951 3.49766 2.4055 0
M  V30 5719 C 548.858 5.69744 1.58573 0
M  V30 5720 H 547.788 0.668287 0.349153 0
M  V30 5721 H 550.439 1.82629 0.178544 0
M  V30 5722 H 548.821 3.08304 2.48526 0
M  V30 5723 H 549.995 4.60752 0.0665988 0
M  V30 5724 H 548.31 4.15827 0.218316 0
M  V30 5725 H 550.907 4.43573 2.98575 0
M  V30 5726 H 551.25 2.73041 3.14252 0
M  V30 5727 H 551.783 3.60341 1.68522 0
M  V30 5728 H 548.522 6.49407 0.891679 0
M  V30 5729 H 548.042 5.53509 2.31059 0
M  V30 5730 H 549.721 6.1051 2.14212 0
M  V30 5731 N 549.853 -0.472356 1.50355 0
M  V30 5732 C 550.816 -1.5529 1.68576 0
M  V30 5733 C 551.816 -1.50863 0.556511 0
M  V30 5734 O 553.006 -1.53505 0.823516 0
M  V30 5735 C 550.138 -2.94921 1.70981 0
M  V30 5736 H 551.331 -1.40451 2.64978 0
M  V30 5737 H 548.884 -0.698645 1.39816 0
M  V30 5738 H 549.619 -3.15204 0.762675 0
M  V30 5739 H 549.404 -2.99541 2.53017 0
M  V30 5740 H 550.894 -3.73372 1.87037 0
M  V30 5741 N 551.331 -1.39911 -0.725443 0
M  V30 5742 C 552.278 -1.39393 -1.83952 0
M  V30 5743 C 553.248 -0.252249 -1.64173 0
M  V30 5744 O 554.433 -0.44882 -1.85446 0
M  V30 5745 C 551.573 -1.25262 -3.21564 0
M  V30 5746 C 550.686 -2.49054 -3.52982 0
M  V30 5747 C 549.821 -2.27439 -4.80047 0
M  V30 5748 C 548.86 -3.46857 -5.04338 0
M  V30 5749 N 547.997 -3.24499 -6.22611 0
M  V30 5750 H 552.837 -2.34622 -1.83729 0
M  V30 5751 H 550.374 -1.16537 -0.897636 0
M  V30 5752 H 552.332 -1.15077 -4.01015 0
M  V30 5753 H 550.962 -0.33657 -3.21041 0
M  V30 5754 H 550.014 -2.69805 -2.6816 0
M  V30 5755 H 551.326 -3.37973 -3.66846 0
M  V30 5756 H 550.48 -2.14551 -5.67497 0
M  V30 5757 H 549.219 -1.35929 -4.68374 0
M  V30 5758 H 548.224 -3.60232 -4.15346 0
M  V30 5759 H 549.449 -4.3928 -5.17889 0
M  V30 5760 H 547.395 -2.35663 -6.12208 0
M  V30 5761 H 547.312 -4.06978 -6.37106 0
M  V30 5762 H 548.58 -3.15325 -7.12875 0
M  V30 5763 N 552.809 0.956637 -1.25245 0
M  V30 5764 C 553.739 2.07058 -1.07931 0
M  V30 5765 C 554.72 1.70096 0.0110361 0
M  V30 5766 O 555.905 1.93555 -0.158121 0
M  V30 5767 C 553.035 3.40272 -0.695124 0
M  V30 5768 C 551.989 3.91235 -1.73549 0
M  V30 5769 C 551.315 5.20921 -1.20604 0
M  V30 5770 C 552.615 4.17837 -3.13385 0
M  V30 5771 H 554.309 2.218 -2.01109 0
M  V30 5772 H 551.855 1.06581 -0.968326 0
M  V30 5773 H 553.808 4.1765 -0.560949 0
M  V30 5774 H 552.532 3.25462 0.272355 0
M  V30 5775 H 551.191 3.16025 -1.85807 0
M  V30 5776 H 550.839 5.02479 -0.228846 0
M  V30 5777 H 550.539 5.55987 -1.90136 0
M  V30 5778 H 552.063 6.00897 -1.08421 0
M  V30 5779 H 553.477 4.8588 -3.04292 0
M  V30 5780 H 551.874 4.64154 -3.80369 0
M  V30 5781 H 552.944 3.2419 -3.60595 0
M  V30 5782 N 554.287 1.06798 1.15896 0
M  V30 5783 C 555.534 0.787767 1.86549 0
M  V30 5784 C 555.862 -0.685959 1.82002 0
M  V30 5785 O 555.117 -1.5188 1.23414 0
M  V30 5786 C 555.416 1.23414 3.35416 0
M  V30 5787 C 555.082 2.71285 3.6016 0
M  V30 5788 C 553.744 3.11676 3.66622 0
M  V30 5789 C 556.096 3.6676 3.7032 0
M  V30 5790 C 553.424 4.4637 3.8075 0
M  V30 5791 C 555.776 5.01209 3.8597 0
M  V30 5792 C 554.44 5.41229 3.90676 0
M  V30 5793 H 553.71 0.288264 0.682631 0
M  V30 5794 H 556.357 1.338 1.37003 0
M  V30 5795 H 554.662 0.60319 3.87129 0
M  V30 5796 H 556.359 0.994298 3.88477 0
M  V30 5797 H 552.949 2.39015 3.55767 0
M  V30 5798 H 557.133 3.36685 3.64633 0
M  V30 5799 H 552.389 4.76855 3.82648 0
M  V30 5800 H 556.563 5.75067 3.92773 0
M  V30 5801 H 554.19 6.45602 4.01375 0
M  V30 5802 N 555.766 -1.3263 0.851289 0
M  V30 5803 C 557.014 -1.96978 0.452128 0
M  V30 5804 C 557.335 -1.67715 -0.99482 0
M  V30 5805 O 556.605 -0.98259 -1.69476 0
M  V30 5806 H 555.185 -0.72873 0.164202 0
M  V30 5807 H 557.847 -1.61774 1.08698 0
M  V30 5808 H 556.943 -3.06387 0.594407 0
M  V30 5809 N 557.244 -0.608902 -1.45362 0
M  V30 5810 C 558.174 0.0964526 -2.33301 0
M  V30 5811 C 559.155 0.857444 -1.46908 0
M  V30 5812 O 560.34 0.827735 -1.75676 0
M  V30 5813 C 557.47 1.09354 -3.29635 0
M  V30 5814 C 556.424 0.445676 -4.25673 0
M  V30 5815 C 555.75 1.5511 -5.11708 0
M  V30 5816 C 557.05 -0.633972 -5.18438 0
M  V30 5817 H 558.744 -0.637829 -2.92527 0
M  V30 5818 H 556.29 -0.308178 -1.40664 0
M  V30 5819 H 558.243 1.59556 -3.90025 0
M  V30 5820 H 556.967 1.85843 -2.6857 0
M  V30 5821 H 555.626 -0.0354897 -3.66583 0
M  V30 5822 H 555.274 2.30631 -4.4701 0
M  V30 5823 H 554.974 1.12311 -5.76767 0
M  V30 5824 H 556.498 2.05537 -5.74967 0
M  V30 5825 H 557.912 -0.215974 -5.72893 0
M  V30 5826 H 556.309 -0.983789 -5.91981 0
M  V30 5827 H 557.379 -1.51005 -4.60788 0
M  V30 5828 N 558.722 1.53707 -0.348139 0
M  V30 5829 C 559.969 2.00988 0.246966 0
M  V30 5830 C 560.297 1.23586 1.50189 0
M  V30 5831 O 559.552 0.312817 1.93184 0
M  V30 5832 C 559.851 3.52292 0.602061 0
M  V30 5833 C 559.517 4.47453 -0.556509 0
M  V30 5834 C 558.179 4.73188 -0.874446 0
M  V30 5835 C 560.531 5.03851 -1.33354 0
M  V30 5836 C 557.859 5.52577 -1.9717 0
M  V30 5837 C 560.211 5.84437 -2.42108 0
M  V30 5838 C 558.875 6.08465 -2.74456 0
M  V30 5839 H 558.145 0.735469 0.0903712 0
M  V30 5840 H 560.792 1.85464 -0.477001 0
M  V30 5841 H 559.097 3.65672 1.40681 0
M  V30 5842 H 560.794 3.86337 1.07447 0
M  V30 5843 H 557.384 4.27558 -0.298652 0
M  V30 5844 H 561.568 4.8393 -1.10117 0
M  V30 5845 H 556.824 5.69418 -2.22651 0
M  V30 5846 H 560.998 6.27151 -3.02745 0
M  V30 5847 H 558.625 6.69768 -3.59604 0
M  V30 5848 N 560.2 0.0768682 1.57412 0
M  V30 5849 C 561.611 -0.455037 1.8107 0
M  V30 5850 C 561.962 -1.69323 0.991162 0
M  V30 5851 O 561.087 -2.15328 0.215156 0
M  V30 5852 C 561.682 -0.832316 3.28417 0
M  V30 5853 C 560.241 -1.30906 3.52903 0
M  V30 5854 C 559.388 -0.296714 2.75708 0
M  V30 5855 H 562.339 0.302514 1.5579 0
M  V30 5856 H 562.36 -1.69333 3.40744 0
M  V30 5857 H 561.872 0.0690532 3.88039 0
M  V30 5858 H 559.973 -2.22875 2.98592 0
M  V30 5859 H 560.086 -1.28348 4.61588 0
M  V30 5860 H 558.45 -0.775059 2.42621 0
M  V30 5861 H 559.233 0.597015 3.38069 0
M  V30 5862 N 561.678 -1.56367 -0.196722 0
M  V30 5863 C 562.625 -1.94417 -1.24382 0
M  V30 5864 C 563.595 -0.804543 -1.45315 0
M  V30 5865 O 564.78 -1.06256 -1.58475 0
M  V30 5866 C 561.92 -2.28757 -2.58388 0
M  V30 5867 C 561.033 -3.55775 -2.45047 0
M  V30 5868 C 560.168 -3.79445 -3.71746 0
M  V30 5869 C 559.207 -4.99894 -3.53231 0
M  V30 5870 N 558.344 -5.19826 -4.71938 0
M  V30 5871 H 563.184 -2.83691 -0.912338 0
M  V30 5872 H 560.721 -1.40392 -0.439135 0
M  V30 5873 H 562.679 -2.46682 -3.36457 0
M  V30 5874 H 561.309 -1.42625 -2.89582 0
M  V30 5875 H 560.361 -3.45905 -1.58284 0
M  V30 5876 H 561.673 -4.44 -2.27299 0
M  V30 5877 H 560.827 -3.97601 -4.58256 0
M  V30 5878 H 559.566 -2.89546 -3.92446 0
M  V30 5879 H 558.571 -4.81662 -2.65107 0
M  V30 5880 H 559.796 -5.913 -3.33978 0
M  V30 5881 H 557.742 -4.32875 -4.92905 0
M  V30 5882 H 557.659 -6.02228 -4.57009 0
M  V30 5883 H 558.927 -5.42439 -5.59803 0
M  V30 5884 N 563.156 0.464375 -1.50603 0
M  V30 5885 C 564.103 1.56152 -1.69956 0
M  V30 5886 C 565.073 1.57046 -0.54091 0
M  V30 5887 O 566.258 1.74473 -0.772258 0
M  V30 5888 C 563.398 2.94079 -1.80586 0
M  V30 5889 C 562.511 3.02923 -3.07996 0
M  V30 5890 C 561.646 4.31806 -3.09382 0
M  V30 5891 C 560.685 4.34417 -4.31218 0
M  V30 5892 N 559.822 5.54782 -4.30304 0
M  V30 5893 H 564.662 1.38955 -2.6362 0
M  V30 5894 H 562.199 0.675482 -1.30674 0
M  V30 5895 H 564.157 3.74073 -1.8473 0
M  V30 5896 H 562.787 3.09896 -0.903556 0
M  V30 5897 H 561.839 2.1576 -3.13292 0
M  V30 5898 H 563.151 3.00712 -3.97962 0
M  V30 5899 H 562.305 5.20153 -3.12292 0
M  V30 5900 H 561.044 4.36636 -2.17257 0
M  V30 5901 H 560.049 3.44467 -4.28512 0
M  V30 5902 H 561.274 4.31273 -5.24576 0
M  V30 5903 H 559.22 5.60384 -3.41037 0
M  V30 5904 H 559.137 5.54339 -5.14047 0
M  V30 5905 H 560.405 6.45235 -4.3737 0
M  V30 5906 N 564.634 1.40294 0.718013 0
M  V30 5907 C 565.882 1.38167 1.47494 0
M  V30 5908 C 566.203 -0.01607 1.94993 0
M  V30 5909 O 565.473 -0.970396 1.70177 0
M  V30 5910 H 564.053 0.508505 0.547203 0
M  V30 5911 H 566.715 1.75324 0.851322 0
M  V30 5912 H 565.811 2.05503 2.34894 0
M  V30 5913 N 566.112 -0.949982 1.2575 0
M  V30 5914 C 567.34 -1.72972 1.13527 0
M  V30 5915 C 567.755 -1.8623 -0.310453 0
M  V30 5916 O 567.112 -1.36336 -1.2132 0
M  V30 5917 C 567.163 -3.14108 1.78936 0
M  V30 5918 O 566.884 -3.01493 3.17858 0
M  V30 5919 C 568.385 -4.08338 1.72554 0
M  V30 5920 H 565.605 -0.541864 0.395758 0
M  V30 5921 H 568.149 -1.19151 1.66202 0
M  V30 5922 H 566.304 -3.64858 1.30221 0
M  V30 5923 H 566.718 -3.90559 3.50092 0
M  V30 5924 H 568.192 -5.04963 2.22973 0
M  V30 5925 H 568.669 -4.33742 0.690251 0
M  V30 5926 H 569.275 -3.63506 2.2078 0
M  V30 5927 N 567.59 -1.07411 -1.15328 0
M  V30 5928 C 568.839 -0.792643 -1.85473 0
M  V30 5929 C 569.152 0.683789 -1.83259 0
M  V30 5930 O 570.358 1.08005 -2.49093 0
M  V30 5931 C 568.814 -1.36787 -3.32892 0
M  V30 5932 C 568.422 -2.87536 -3.43551 0
M  V30 5933 C 570.166 -1.16444 -4.08217 0
M  V30 5934 C 568.073 -3.38247 -4.85122 0
M  V30 5935 H 567.003 -0.292838 -0.694811 0
M  V30 5936 H 569.654 -1.29426 -1.30082 0
M  V30 5937 H 568.036 -0.793993 -3.87958 0
M  V30 5938 H 569.21 -3.50973 -2.98588 0
M  V30 5939 H 567.525 -3.06676 -2.81672 0
M  V30 5940 H 570.122 -1.51808 -5.12697 0
M  V30 5941 H 570.465 -0.10353 -4.16171 0
M  V30 5942 H 570.998 -1.70472 -3.59422 0
M  V30 5943 H 567.737 -4.43866 -4.82351 0
M  V30 5944 H 567.257 -2.79564 -5.30664 0
M  V30 5945 H 568.936 -3.34238 -5.5398 0
M  V30 5946 N 569.068 1.32177 -0.85831 0
M  V30 5947 C 570.031 2.27086 -0.310588 0
M  V30 5948 C 571.031 1.51751 0.531806 0
M  V30 5949 O 572.221 1.70794 0.34279 0
M  V30 5950 C 569.353 3.36266 0.560179 0
M  V30 5951 H 570.546 2.77045 -1.1483 0
M  V30 5952 H 568.099 1.42911 -0.632942 0
M  V30 5953 H 568.834 2.9158 1.41956 0
M  V30 5954 H 568.619 3.92077 -0.0428473 0
M  V30 5955 H 570.109 4.06974 0.936056 0
M  V30 5956 N 570.547 0.616602 1.45037 0
M  V30 5957 C 571.793 0.115501 2.02471 0
M  V30 5958 C 572.126 -1.25406 1.4828 0
M  V30 5959 O 571.401 -1.82922 0.661051 0
M  V30 5960 C 571.684 0.0863588 3.59996 0
M  V30 5961 C 571.537 1.48723 4.24501 0
M  V30 5962 C 572.856 -0.596762 4.36035 0
M  V30 5963 H 569.975 0.0434461 0.735718 0
M  V30 5964 H 572.617 0.7903 1.72784 0
M  V30 5965 H 570.767 -0.488277 3.85419 0
M  V30 5966 H 572.439 2.10964 4.10234 0
M  V30 5967 H 570.682 2.04534 3.82555 0
M  V30 5968 H 571.353 1.419 5.3345 0
M  V30 5969 H 573.829 -0.10824 4.15959 0
M  V30 5970 H 572.705 -0.586289 5.4576 0
M  V30 5971 H 572.966 -1.66451 4.09569 0
M  V30 5972 N 572.025 -1.5352 0.356285 0
M  V30 5973 C 573.273 -2.00719 -0.235837 0
M  V30 5974 C 573.594 -1.24551 -1.5004 0
M  V30 5975 O 572.864 -0.356185 -1.92635 0
M  V30 5976 H 571.444 -0.741542 -0.0901366 0
M  V30 5977 H 574.106 -1.88887 0.480378 0
M  V30 5978 H 573.202 -3.08551 -0.469357 0
M  V30 5979 N 573.503 -0.0852151 -1.57369 0
M  V30 5980 C 574.466 0.8627 -2.12344 0
M  V30 5981 C 575.466 1.21746 -1.05046 0
M  V30 5982 O 576.656 1.14852 -1.30976 0
M  V30 5983 C 573.788 2.1618 -2.63589 0
M  V30 5984 H 574.981 0.385511 -2.97412 0
M  V30 5985 H 572.534 0.163663 -1.55441 0
M  V30 5986 H 573.269 2.68406 -1.82013 0
M  V30 5987 H 573.054 1.91723 -3.4203 0
M  V30 5988 H 574.544 2.84011 -3.06149 0
M  V30 5989 N 574.981 1.5647 0.188427 0
M  V30 5990 C 576.258 1.71857 0.934058 0
M  V30 5991 C 576.638 0.641867 2.01105 0
M  V30 5992 O 575.986 -0.346098 2.25864 0
M  V30 5993 C 576.196 3.14431 1.5144 0
M  V30 5994 C 577.544 3.74869 1.99396 0
M  V30 5995 O 578.568 3.17601 1.61269 0
M  V30 5996 O 577.427 4.75387 2.69573 0
M  V30 5997 H 574.521 0.701186 0.438483 0
M  V30 5998 H 577.067 1.68768 0.177599 0
M  V30 5999 H 575.839 3.8427 0.738416 0
M  V30 6000 H 575.462 3.21775 2.33552 0
M  V30 6001 N 576.459 -0.456382 1.50847 0
M  V30 6002 C 577.422 -1.53493 1.70213 0
M  V30 6003 C 578.422 -1.50264 0.572481 0
M  V30 6004 O 579.612 -1.52623 0.839751 0
M  V30 6005 C 576.744 -2.93091 1.741 0
M  V30 6006 H 577.937 -1.37633 2.66453 0
M  V30 6007 H 575.49 -0.683776 1.4055 0
M  V30 6008 H 576.225 -3.14378 0.796063 0
M  V30 6009 H 576.01 -2.9684 2.5618 0
M  V30 6010 H 577.5 -3.71368 1.90987 0
M  V30 6011 N 577.937 -1.40673 -0.710563 0
M  V30 6012 C 579.214 -1.29718 -1.46398 0
M  V30 6013 C 579.594 0.082177 -2.1094 0
M  V30 6014 O 578.942 1.09536 -2.00534 0
M  V30 6015 C 579.152 -2.43967 -2.49562 0
M  V30 6016 C 580.5 -2.84436 -3.15248 0
M  V30 6017 O 581.524 -2.43597 -2.59883 0
M  V30 6018 O 580.383 -3.55008 -4.1549 0
M  V30 6019 H 577.477 -0.509697 -0.651258 0
M  V30 6020 H 580.023 -1.52603 -0.742312 0
M  V30 6021 H 578.795 -3.36076 -2.0042 0
M  V30 6022 H 578.418 -2.22879 -3.29258 0
M  V30 6023 N 579.415 0.9433 -1.26252 0
M  V30 6024 C 580.345 2.05902 -1.10122 0
M  V30 6025 C 581.326 1.70099 -0.00700552 0
M  V30 6026 O 582.511 1.93377 -0.178641 0
M  V30 6027 C 579.641 3.39516 -0.731175 0
M  V30 6028 C 578.595 3.89372 -1.77688 0
M  V30 6029 C 577.921 5.19613 -1.26122 0
M  V30 6030 C 579.221 4.14489 -3.17799 0
M  V30 6031 H 580.915 2.19655 -2.03451 0
M  V30 6032 H 578.461 1.05548 -0.979576 0
M  V30 6033 H 580.414 4.17031 -0.605215 0
M  V30 6034 H 579.138 3.25733 0.23782 0
M  V30 6035 H 577.797 3.14036 -1.89148 0
M  V30 6036 H 577.445 5.02208 -0.282128 0
M  V30 6037 H 577.145 5.53939 -1.96023 0
M  V30 6038 H 578.669 5.99713 -1.14789 0
M  V30 6039 H 580.083 4.82625 -3.09428 0
M  V30 6040 H 578.48 4.60094 -3.85271 0
M  V30 6041 H 579.55 3.20347 -3.64014 0
M  V30 6042 N 580.893 1.08022 1.14757 0
M  V30 6043 C 582.139 0.808705 1.85978 0
M  V30 6044 C 582.472 -0.663764 1.82504 0
M  V30 6045 O 581.747 -1.48765 1.25296 0
M  V30 6046 C 582.03 1.32623 3.34788 0
M  V30 6047 C 581.883 2.86375 3.46856 0
M  V30 6048 C 583.202 0.948291 4.29762 0
M  V30 6049 H 580.321 0.295244 0.675278 0
M  V30 6050 H 582.963 1.33917 1.34783 0
M  V30 6051 H 581.113 0.875002 3.78518 0
M  V30 6052 H 582.785 3.39839 3.11941 0
M  V30 6053 H 581.028 3.24232 2.88194 0
M  V30 6054 H 581.699 3.17658 4.51439 0
M  V30 6055 H 584.175 1.33722 3.94028 0
M  V30 6056 H 583.051 1.33765 5.32352 0
M  V30 6057 H 583.312 -0.145094 4.41862 0
M  V30 6058 N 582.371 -1.3172 0.865308 0
M  V30 6059 C 583.62 -1.96145 0.470098 0
M  V30 6060 C 583.933 -1.69182 -0.981674 0
M  V30 6061 O 585.139 -2.27431 -1.48281 0
M  V30 6062 C 583.595 -3.51129 0.789732 0
M  V30 6063 C 583.203 -3.86938 2.25795 0
M  V30 6064 C 584.947 -4.2197 0.462765 0
M  V30 6065 C 582.854 -5.35012 2.52024 0
M  V30 6066 H 581.784 -0.734105 0.172065 0
M  V30 6067 H 584.435 -1.49959 1.05757 0
M  V30 6068 H 582.817 -3.95781 0.131571 0
M  V30 6069 H 583.991 -3.5326 2.95879 0
M  V30 6070 H 582.306 -3.29149 2.55049 0
M  V30 6071 H 584.903 -5.30904 0.636019 0
M  V30 6072 H 585.246 -4.12005 -0.59645 0
M  V30 6073 H 585.779 -3.82936 1.07727 0
M  V30 6074 H 582.518 -5.50008 3.56611 0
M  V30 6075 H 582.038 -5.70058 1.8653 0
M  V30 6076 H 583.717 -6.0222 2.36515 0
M  V30 6077 N 583.85 -0.624285 -1.44708 0
M  V30 6078 C 585.096 -0.126051 -2.02107 0
M  V30 6079 C 585.425 1.2496 -1.49048 0
M  V30 6080 O 584.68 1.84163 -0.662005 0
M  V30 6081 C 584.979 -0.0546353 -3.57358 0
M  V30 6082 C 584.644 -1.36815 -4.29642 0
M  V30 6083 C 583.307 -1.72792 -4.49106 0
M  V30 6084 C 585.659 -2.23549 -4.70824 0
M  V30 6085 C 582.986 -2.95222 -5.07012 0
M  V30 6086 C 585.339 -3.45243 -5.30085 0
M  V30 6087 C 584.003 -3.81452 -5.47769 0
M  V30 6088 H 583.273 -0.0461252 -0.739563 0
M  V30 6089 H 585.92 -0.809236 -1.73562 0
M  V30 6090 H 584.225 0.711891 -3.85278 0
M  V30 6091 H 585.922 0.347282 -3.99493 0
M  V30 6092 H 582.512 -1.07817 -4.14817 0
M  V30 6093 H 586.696 -1.9705 -4.55505 0
M  V30 6094 H 581.952 -3.23361 -5.18891 0
M  V30 6095 H 586.125 -4.12689 -5.60946 0
M  V30 6096 H 583.753 -4.76403 -5.92405 0
M  V30 6097 N 585.328 1.53329 -0.364422 0
M  V30 6098 C 586.605 1.93557 0.281962 0
M  V30 6099 C 586.985 1.29786 1.6649 0
M  V30 6100 O 586.333 0.456512 2.23893 0
M  V30 6101 C 586.543 3.47405 0.333331 0
M  V30 6102 C 587.891 4.20699 0.574231 0
M  V30 6103 O 588.915 3.53779 0.414588 0
M  V30 6104 O 587.774 5.39287 0.885002 0
M  V30 6105 H 584.868 0.809573 0.168881 0
M  V30 6106 H 587.414 1.64494 -0.417121 0
M  V30 6107 H 586.186 3.86091 -0.636326 0
M  V30 6108 H 585.809 3.82697 1.07836 0
M  V30 6109 N 586.806 0.0935595 1.57322 0
M  V30 6110 C 588.217 -0.435807 1.81542 0
M  V30 6111 C 588.568 -1.68263 1.00907 0
M  V30 6112 O 587.693 -2.15087 0.237983 0
M  V30 6113 C 588.288 -0.797436 3.29282 0
M  V30 6114 C 586.847 -1.27155 3.54272 0
M  V30 6115 C 585.994 -0.267455 2.76007 0
M  V30 6116 H 588.945 0.31902 1.5546 0
M  V30 6117 H 588.966 -1.6571 3.42521 0
M  V30 6118 H 588.478 0.110206 3.87943 0
M  V30 6119 H 586.579 -2.19696 3.00939 0
M  V30 6120 H 586.692 -1.23445 4.62923 0
M  V30 6121 H 585.056 -0.749282 2.43429 0
M  V30 6122 H 585.839 0.632839 3.37417 0
M  V30 6123 N 588.284 -1.56567 -0.180126 0
M  V30 6124 C 589.512 -1.85618 -0.913972 0
M  V30 6125 C 589.927 -0.677892 -1.7621 0
M  V30 6126 O 589.284 0.353171 -1.7905 0
M  V30 6127 C 589.335 -3.13619 -1.79793 0
M  V30 6128 O 589.056 -4.26906 -0.98402 0
M  V30 6129 C 590.557 -3.55954 -2.64219 0
M  V30 6130 H 587.777 -0.616043 -0.265954 0
M  V30 6131 H 590.321 -2.03681 -0.182872 0
M  V30 6132 H 588.476 -2.97409 -2.48247 0
M  V30 6133 H 588.89 -4.9989 -1.58776 0
M  V30 6134 H 590.364 -4.48444 -3.21873 0
M  V30 6135 H 590.841 -2.79653 -3.38661 0
M  V30 6136 H 591.447 -3.74746 -2.01111 0
M  V30 6137 N 589.762 0.448376 -1.51087 0
M  V30 6138 C 591.008 1.20049 -1.6345 0
M  V30 6139 C 591.341 1.91121 -0.344444 0
M  V30 6140 O 590.616 1.83125 0.655396 0
M  V30 6141 C 590.899 2.22624 -2.83038 0
M  V30 6142 C 590.752 1.55708 -4.21989 0
M  V30 6143 C 592.071 3.23718 -2.98152 0
M  V30 6144 H 589.19 0.435085 -0.59487 0
M  V30 6145 H 591.832 0.491183 -1.83541 0
M  V30 6146 H 589.982 2.83117 -2.66039 0
M  V30 6147 H 591.654 0.986367 -4.50631 0
M  V30 6148 H 589.897 0.859647 -4.25197 0
M  V30 6149 H 590.568 2.30357 -5.01637 0
M  V30 6150 H 593.044 2.73269 -3.13788 0
M  V30 6151 H 591.92 3.92795 -3.83411 0
M  V30 6152 H 592.181 3.89179 -2.09743 0
M  V30 6153 N 591.24 1.41047 0.703093 0
M  V30 6154 C 592.15 1.44645 1.84703 0
M  V30 6155 C 593.166 0.337778 1.7069 0
M  V30 6156 O 594.342 0.584327 1.92737 0
M  V30 6157 C 591.407 1.31928 3.20618 0
M  V30 6158 C 590.468 2.53047 3.46794 0
M  V30 6159 C 589.701 2.40927 4.76224 0
M  V30 6160 O 589.924 1.42978 5.5219 0
M  V30 6161 O 588.858 3.30543 5.03016 0
M  V30 6162 H 592.684 2.41139 1.84624 0
M  V30 6163 H 590.269 1.22504 0.855167 0
M  V30 6164 H 592.151 1.27092 4.01778 0
M  V30 6165 H 590.826 0.385469 3.21397 0
M  V30 6166 H 589.733 2.6346 2.65593 0
M  V30 6167 H 591.066 3.45231 3.50822 0
M  V30 6168 N 592.718 -0.936591 1.26751 0
M  V30 6169 C 594.134 -1.21095 1.03963 0
M  V30 6170 C 594.334 -2.00156 -0.232372 0
M  V30 6171 O 593.39 -2.3434 -0.940274 0
M  V30 6172 C 594.703 -1.96775 2.27377 0
M  V30 6173 C 596.251 -2.09749 2.32324 0
M  V30 6174 C 596.726 -2.88832 3.55443 0
M  V30 6175 N 598.217 -2.96404 3.55948 0
M  V30 6176 C 598.952 -3.58036 4.47881 0
M  V30 6177 N 598.448 -4.21132 5.50109 0
M  V30 6178 N 600.241 -3.55353 4.35523 0
M  V30 6179 H 592.392 -0.408173 2.08441 0
M  V30 6180 H 594.655 -0.243139 0.91629 0
M  V30 6181 H 594.361 -1.46094 3.19921 0
M  V30 6182 H 594.235 -2.97424 2.31989 0
M  V30 6183 H 596.622 -2.5962 1.40291 0
M  V30 6184 H 596.703 -1.08347 2.31721 0
M  V30 6185 H 596.347 -2.39647 4.47808 0
M  V30 6186 H 596.277 -3.90499 3.53296 0
M  V30 6187 H 598.768 -2.51552 2.82011 0
M  V30 6188 H 599.081 -4.66071 6.16439 0
M  V30 6189 H 597.426 -4.19705 5.53961 0
M  V30 6190 H 600.617 -3.05256 3.54875 0
M  V30 6191 H 600.79 -4.03097 5.07363 0
M  V30 6192 N 594.196 -1.08629 -1.14182 0
M  V30 6193 C 595.442 -0.818556 -1.85546 0
M  V30 6194 C 595.775 0.654076 -1.82854 0
M  V30 6195 O 595.05 1.48099 -1.26083 0
M  V30 6196 C 595.333 -1.34397 -3.3408 0
M  V30 6197 C 595.186 -2.8821 -3.45333 0
M  V30 6198 C 596.505 -0.971069 -4.29253 0
M  V30 6199 H 593.624 -0.298821 -0.673702 0
M  V30 6200 H 596.266 -1.34629 -1.34071 0
M  V30 6201 H 594.416 -0.895064 -3.78049 0
M  V30 6202 H 596.088 -3.41488 -3.10134 0
M  V30 6203 H 594.331 -3.25756 -2.86471 0
M  V30 6204 H 595.002 -3.20047 -4.49749 0
M  V30 6205 H 597.478 -1.35809 -3.93313 0
M  V30 6206 H 596.354 -1.36586 -5.31635 0
M  V30 6207 H 596.615 0.121659 -4.41933 0
M  V30 6208 N 595.674 1.31259 -0.872281 0
M  V30 6209 C 596.923 1.95893 -0.480493 0
M  V30 6210 C 597.236 1.697 0.972688 0
M  V30 6211 O 598.442 2.28214 1.47073 0
M  V30 6212 C 596.898 3.50705 -0.808342 0
M  V30 6213 C 596.506 3.85735 -2.27844 0
M  V30 6214 C 598.25 4.21719 -0.485136 0
M  V30 6215 C 596.157 5.33668 -2.54858 0
M  V30 6216 H 595.087 0.733182 -0.175955 0
M  V30 6217 H 597.738 1.49396 -1.0655 0
M  V30 6218 H 596.12 3.95706 -0.152558 0
M  V30 6219 H 597.294 3.51686 -2.97748 0
M  V30 6220 H 595.609 3.27792 -2.56791 0
M  V30 6221 H 598.206 5.30559 -0.664166 0
M  V30 6222 H 598.549 4.12316 0.574592 0
M  V30 6223 H 599.082 3.82359 -1.09756 0
M  V30 6224 H 595.821 5.48109 -3.59523 0
M  V30 6225 H 595.341 5.69061 -1.8955 0
M  V30 6226 H 597.02 6.00958 -2.39706 0
M  V30 6227 N 597.152 0.631951 1.44375 0
M  V30 6228 C 598.377 0.142146 2.06912 0
M  V30 6229 C 598.802 -1.17456 1.4692 0
M  V30 6230 O 598.16 -1.72074 0.570975 0
M  V30 6231 C 598.208 0.0417952 3.60576 0
M  V30 6232 O 597.312 -1.00194 4.00044 0
M  V30 6233 H 596.653 0.0851491 0.658518 0
M  V30 6234 H 599.183 0.868863 1.85235 0
M  V30 6235 H 599.193 -0.148517 4.0773 0
M  V30 6236 H 597.868 1.0031 4.03622 0
M  V30 6237 H 596.445 -0.786131 3.64519 0
M  V30 6238 N 598.631 -1.53133 0.372548 0
M  V30 6239 C 599.594 -2.24569 -0.458389 0
M  V30 6240 C 600.594 -1.25603 -1.00402 0
M  V30 6241 O 601.784 -1.49827 -0.888672 0
M  V30 6242 C 598.916 -2.98783 -1.6414 0
M  V30 6243 H 600.109 -2.99436 0.166799 0
M  V30 6244 H 597.662 -1.55805 0.124357 0
M  V30 6245 H 598.397 -2.28176 -2.30448 0
M  V30 6246 H 598.182 -3.71404 -1.25704 0
M  V30 6247 H 599.672 -3.53068 -2.23008 0
M  V30 6248 N 600.109 -0.101901 -1.5727 0
M  V30 6249 C 601.019 0.868647 -2.17926 0
M  V30 6250 C 602.035 1.30527 -1.1506 0
M  V30 6251 O 603.211 1.37178 -1.47459 0
M  V30 6252 C 600.276 2.10727 -2.75309 0
M  V30 6253 C 599.337 1.7242 -3.93154 0
M  V30 6254 C 598.57 2.90377 -4.47791 0
M  V30 6255 O 598.793 4.05305 -4.01353 0
M  V30 6256 O 597.727 2.6845 -5.38719 0
M  V30 6257 H 601.553 0.382544 -3.01281 0
M  V30 6258 H 599.138 0.122812 -1.48894 0
M  V30 6259 H 601.02 2.83303 -3.11958 0
M  V30 6260 H 599.695 2.58376 -1.94996 0
M  V30 6261 H 598.602 0.970039 -3.61305 0
M  V30 6262 H 599.935 1.29528 -4.74851 0
M  V30 6263 N 601.587 1.56661 0.17182 0
M  V30 6264 C 602.815 1.861 0.904115 0
M  V30 6265 C 603.23 0.687227 1.75848 0
M  V30 6266 O 602.587 -0.343671 1.79235 0
M  V30 6267 C 602.638 3.14568 1.78127 0
M  V30 6268 O 602.359 4.27422 0.961366 0
M  V30 6269 C 603.86 3.5735 2.62327 0
M  V30 6270 H 601.08 0.617445 0.262684 0
M  V30 6271 H 603.624 2.03775 0.172068 0
M  V30 6272 H 601.779 2.98721 2.46666 0
M  V30 6273 H 602.193 5.00725 1.56123 0
M  V30 6274 H 603.667 4.50144 3.1949 0
M  V30 6275 H 604.144 2.81445 3.37173 0
M  V30 6276 H 604.75 3.75807 1.99121 0
M  V30 6277 N 603.065 -0.440357 1.51323 0
M  V30 6278 C 604.015 -1.53263 1.68803 0
M  V30 6279 C 604.999 -1.51494 0.542057 0
M  V30 6280 O 606.191 -1.57999 0.797839 0
M  V30 6281 C 603.32 -2.91479 1.8137 0
M  V30 6282 C 602.406 -2.98015 3.01742 0
M  V30 6283 N 602.797 -2.743 4.24962 0
M  V30 6284 C 601.095 -3.29173 3.00934 0
M  V30 6285 C 601.796 -2.86601 5.06197 0
M  V30 6286 N 600.772 -3.1814 4.40781 0
M  V30 6287 H 604.574 -1.33675 2.61741 0
M  V30 6288 H 602.088 -0.647616 1.48929 0
M  V30 6289 H 604.085 -3.70055 1.92002 0
M  V30 6290 H 602.745 -3.12089 0.896117 0
M  V30 6291 H 603.756 -2.49287 4.53957 0
M  V30 6292 H 600.433 -3.55577 2.18796 0
M  V30 6293 H 601.823 -2.72246 6.14274 0
M  V30 6294 N 604.543 -1.41418 -0.695603 0
M  V30 6295 C 605.493 -1.39731 -1.80165 0
M  V30 6296 C 606.477 -0.271689 -1.5859 0
M  V30 6297 O 607.669 -0.512354 -1.69422 0
M  V30 6298 C 604.798 -1.28187 -3.1847 0
M  V30 6299 C 603.884 -2.45612 -3.45739 0
M  V30 6300 N 604.275 -3.71077 -3.43708 0
M  V30 6301 C 602.573 -2.39424 -3.76288 0
M  V30 6302 C 603.274 -4.48957 -3.69882 0
M  V30 6303 N 602.25 -3.7907 -3.89624 0
M  V30 6304 H 606.052 -2.34656 -1.76957 0
M  V30 6305 H 603.566 -1.35473 -0.89559 0
M  V30 6306 H 605.563 -1.2506 -3.977 0
M  V30 6307 H 604.223 -0.342468 -3.22889 0
M  V30 6308 H 605.234 -4.03963 -3.2409 0
M  V30 6309 H 601.911 -1.53955 -3.88077 0
M  V30 6310 H 603.301 -5.57887 -3.74448 0
M  V30 6311 N 606.021 0.929856 -1.27246 0
M  V30 6312 C 606.954 2.03069 -1.04106 0
M  V30 6313 C 607.932 1.62556 0.0378417 0
M  V30 6314 O 609.116 1.88197 -0.106869 0
M  V30 6315 C 606.243 3.33718 -0.578778 0
M  V30 6316 C 605.289 3.93209 -1.65193 0
M  V30 6317 S 606.122 4.26068 -3.24386 0
M  V30 6318 C 607.278 5.598 -2.79954 0
M  V30 6319 H 607.511 2.22386 -1.97311 0
M  V30 6320 H 605.044 1.07269 -1.11053 0
M  V30 6321 H 607.002 4.09261 -0.31874 0
M  V30 6322 H 605.663 3.12328 0.333182 0
M  V30 6323 H 604.856 4.87482 -1.27973 0
M  V30 6324 H 604.458 3.24243 -1.86393 0
M  V30 6325 H 606.75 6.39004 -2.25123 0
M  V30 6326 H 607.693 6.01917 -3.72963 0
M  V30 6327 H 608.101 5.20219 -2.19164 0
M  V30 6328 N 607.499 1.09233 1.13605 0
M  V30 6329 C 608.462 0.733553 2.17144 0
M  V30 6330 C 609.462 -0.235873 1.59061 0
M  V30 6331 O 610.652 -0.0143167 1.74194 0
M  V30 6332 C 607.784 0.084471 3.40795 0
M  V30 6333 H 608.977 1.65049 2.50397 0
M  V30 6334 H 606.53 0.891264 1.28399 0
M  V30 6335 H 607.265 -0.843795 3.1313 0
M  V30 6336 H 607.05 0.781985 3.84223 0
M  V30 6337 H 608.54 -0.151216 4.17326 0
M  V30 6338 N 608.977 -1.30795 0.87923 0
M  V30 6339 C 610.223 -1.96653 0.495519 0
M  V30 6340 C 610.556 -1.69282 -0.951703 0
M  V30 6341 O 609.831 -0.994374 -1.6716 0
M  V30 6342 C 610.114 -3.51898 0.764174 0
M  V30 6343 C 609.967 -3.88808 2.2616 0
M  V30 6344 C 611.286 -4.39462 0.236825 0
M  V30 6345 H 608.405 -0.7143 0.181507 0
M  V30 6346 H 611.047 -1.54765 1.10217 0
M  V30 6347 H 609.197 -3.87709 0.247841 0
M  V30 6348 H 610.869 -3.63051 2.8459 0
M  V30 6349 H 609.112 -3.37082 2.73053 0
M  V30 6350 H 609.783 -4.97086 2.4002 0
M  V30 6351 H 612.259 -4.10528 0.678683 0
M  V30 6352 H 611.135 -5.47018 0.454176 0
M  V30 6353 H 611.396 -4.33621 -0.861683 0
M  V30 6354 N 610.455 -0.639598 -1.44038 0
M  V30 6355 C 611.732 -0.078012 -1.95444 0
M  V30 6356 C 612.112 1.39847 -1.58133 0
M  V30 6357 O 611.46 2.11714 -0.859614 0
M  V30 6358 C 611.67 -0.309832 -3.47622 0
M  V30 6359 C 613.018 -0.207521 -4.24093 0
M  V30 6360 O 614.042 -0.241653 -3.55379 0
M  V30 6361 O 612.901 -0.119641 -5.46369 0
M  V30 6362 H 609.995 0.0174534 -0.826816 0
M  V30 6363 H 612.541 -0.711891 -1.54046 0
M  V30 6364 H 611.313 -1.33401 -3.67858 0
M  V30 6365 H 610.936 0.357777 -3.95987 0
M  V30 6366 N 611.933 1.52934 -0.380664 0
M  V30 6367 C 613.163 2.05587 0.204302 0
M  V30 6368 C 613.571 1.25288 1.41773 0
M  V30 6369 O 612.914 0.290394 1.8139 0
M  V30 6370 C 612.976 3.53624 0.647324 0
M  V30 6371 C 612.64 4.54765 -0.451465 0
M  V30 6372 C 613.637 5.03226 -1.30614 0
M  V30 6373 C 611.322 4.98508 -0.616025 0
M  V30 6374 C 613.316 5.94046 -2.31058 0
M  V30 6375 C 611.003 5.89131 -1.62381 0
M  V30 6376 C 612.001 6.36792 -2.46952 0
M  V30 6377 O 611.689 7.25626 -3.46009 0
M  V30 6378 H 611.421 0.675013 0.0365198 0
M  V30 6379 H 613.975 1.98125 -0.541827 0
M  V30 6380 H 612.205 3.58676 1.44529 0
M  V30 6381 H 613.894 3.89061 1.15698 0
M  V30 6382 H 614.66 4.70167 -1.19027 0
M  V30 6383 H 610.539 4.60989 0.0324987 0
M  V30 6384 H 614.083 6.3117 -2.97104 0
M  V30 6385 H 609.98 6.21603 -1.7401 0
M  V30 6386 H 610.748 7.43664 -3.41916 0
M  V30 6387 N 613.412 0.11024 1.57214 0
M  V30 6388 C 614.36 -0.860586 2.16094 0
M  V30 6389 C 615.354 -1.28156 1.1078 0
M  V30 6390 O 616.56 -1.25433 1.29099 0
M  V30 6391 H 612.935 -0.295606 0.691463 0
M  V30 6392 H 614.906 -0.33942 2.96463 0
M  V30 6393 C 613.655 -2.10421 2.768 0
M  V30 6394 H 612.978 -1.7892 3.5753 0
M  V30 6395 H 614.418 -2.76375 3.21547 0
M  V30 6396 C 612.877 -2.88823 1.73444 0
M  V30 6397 O 613.407 -3.839 1.18251 0
M  V30 6398 N 611.613 -2.52649 1.43586 0
M  V30 6399 H 611.16 -1.754 1.8866 0
M  V30 6400 H 611.118 -3.05403 0.746735 0
M  V30 6401 N 614.89 -1.56749 -0.16351 0
M  V30 6402 C 616.301 -1.72039 -0.725216 0
M  V30 6403 C 616.652 -0.72202 -1.82432 0
M  V30 6404 O 615.777 0.114942 -2.16095 0
M  V30 6405 C 616.372 -3.11932 -1.32227 0
M  V30 6406 C 614.931 -3.28879 -1.83072 0
M  V30 6407 C 614.078 -2.67984 -0.712716 0
M  V30 6408 H 617.029 -1.58579 0.0619772 0
M  V30 6409 H 617.05 -3.11015 -2.19202 0
M  V30 6410 H 616.562 -3.84572 -0.522103 0
M  V30 6411 H 614.663 -2.61209 -2.65708 0
M  V30 6412 H 614.776 -4.36688 -1.97079 0
M  V30 6413 H 613.14 -2.28005 -1.13515 0
M  V30 6414 H 613.923 -3.43216 0.0757361 0
M  V30 6415 N 616.368 0.432326 -1.51554 0
M  V30 6416 C 617.615 1.18134 -1.64471 0
M  V30 6417 C 617.943 1.91076 -0.363349 0
M  V30 6418 O 617.198 1.84492 0.65279 0
M  V30 6419 C 617.497 2.21907 -2.80164 0
M  V30 6420 C 617.163 1.65941 -4.19255 0
M  V30 6421 C 615.825 1.50401 -4.57092 0
M  V30 6422 C 618.177 1.24843 -5.06027 0
M  V30 6423 C 615.505 0.922443 -5.79403 0
M  V30 6424 C 617.857 0.68113 -6.28922 0
M  V30 6425 C 616.521 0.512673 -6.65528 0
M  V30 6426 H 615.791 0.432283 -0.601841 0
M  V30 6427 H 618.438 0.471701 -1.856 0
M  V30 6428 H 616.743 2.98928 -2.53277 0
M  V30 6429 H 618.44 2.79691 -2.87357 0
M  V30 6430 H 615.03 1.79014 -3.89425 0
M  V30 6431 H 619.214 1.35667 -4.77397 0
M  V30 6432 H 614.47 0.779733 -6.06408 0
M  V30 6433 H 618.644 0.35418 -6.95499 0
M  V30 6434 H 616.271 0.0599084 -7.60176 0
M  V30 6435 N 617.846 1.41785 0.688094 0
M  V30 6436 C 618.756 1.46596 1.83158 0
M  V30 6437 C 619.772 0.355862 1.70322 0
M  V30 6438 O 620.948 0.604737 1.92106 0
M  V30 6439 C 618.013 1.35322 3.192 0
M  V30 6440 C 617.074 2.56711 3.4409 0
M  V30 6441 C 616.307 2.45965 4.73642 0
M  V30 6442 O 616.53 1.48827 5.50642 0
M  V30 6443 O 615.464 3.35859 4.99482 0
M  V30 6444 H 619.29 2.43083 1.82056 0
M  V30 6445 H 616.875 1.23404 0.842126 0
M  V30 6446 H 618.757 1.31347 4.00407 0
M  V30 6447 H 617.432 0.419536 3.2097 0
M  V30 6448 H 616.339 2.66262 2.62784 0
M  V30 6449 H 617.672 3.48933 3.47141 0
M  V30 6450 N 619.324 -0.923095 1.27737 0
M  V30 6451 C 620.572 -1.66797 1.14119 0
M  V30 6452 C 620.893 -1.92479 -0.312541 0
M  V30 6453 O 620.163 -1.53432 -1.218 0
M  V30 6454 H 618.743 -0.618196 0.419336 0
M  V30 6455 H 621.405 -1.10815 1.60331 0
M  V30 6456 H 620.501 -2.63424 1.67374 0
M  V30 6457 N 620.802 -1.09834 -1.13024 0
M  V30 6458 C 621.735 -0.685453 -2.17662 0
M  V30 6459 C 622.713 0.310142 -1.59615 0
M  V30 6460 O 623.897 0.21052 -1.87321 0
M  V30 6461 C 621.024 -0.0104476 -3.38698 0
M  V30 6462 C 620.07 -0.968522 -4.15358 0
M  V30 6463 S 620.903 -2.48272 -4.74469 0
M  V30 6464 C 622.059 -1.82025 -5.98847 0
M  V30 6465 H 622.292 -1.57187 -2.52348 0
M  V30 6466 H 619.825 -0.914728 -1.24387 0
M  V30 6467 H 621.783 0.372694 -4.08805 0
M  V30 6468 H 620.444 0.852673 -3.02305 0
M  V30 6469 H 619.637 -0.443373 -5.02046 0
M  V30 6470 H 619.239 -1.29327 -3.50928 0
M  V30 6471 H 621.531 -1.14678 -6.67724 0
M  V30 6472 H 622.474 -2.66645 -6.55977 0
M  V30 6473 H 622.882 -1.2874 -5.49624 0
M  V30 6474 N 622.28 1.30327 -0.886154 0
M  V30 6475 C 623.227 2.28099 -0.352069 0
M  V30 6476 C 624.197 1.56433 0.558397 0
M  V30 6477 O 625.382 1.84492 0.486561 0
M  V30 6478 C 622.522 3.42456 0.426346 0
M  V30 6479 C 621.635 4.28938 -0.513472 0
M  V30 6480 C 620.77 5.30458 0.280657 0
M  V30 6481 C 619.809 6.0859 -0.654556 0
M  V30 6482 N 618.946 7.02022 0.104322 0
M  V30 6483 H 623.786 2.73166 -1.19097 0
M  V30 6484 H 621.323 1.34367 -0.598662 0
M  V30 6485 H 623.281 4.07518 0.893587 0
M  V30 6486 H 621.911 2.98455 1.22981 0
M  V30 6487 H 620.963 3.64173 -1.09921 0
M  V30 6488 H 622.275 4.83399 -1.2299 0
M  V30 6489 H 621.429 6.01273 0.8097 0
M  V30 6490 H 620.168 4.76693 1.03029 0
M  V30 6491 H 619.173 5.36651 -1.19522 0
M  V30 6492 H 620.398 6.64443 -1.4033 0
M  V30 6493 H 618.344 6.50645 0.836472 0
M  V30 6494 H 618.261 7.53979 -0.552453 0
M  V30 6495 H 619.529 7.77077 0.614069 0
M  V30 6496 N 623.758 0.647228 1.43697 0
M  V30 6497 C 625.004 0.158422 2.0218 0
M  V30 6498 C 625.337 -1.22233 1.50907 0
M  V30 6499 O 624.612 -1.81478 0.699702 0
M  V30 6500 C 624.895 0.1627 3.59732 0
M  V30 6501 C 624.748 1.57694 4.21251 0
M  V30 6502 C 626.067 -0.504138 4.37203 0
M  V30 6503 H 623.186 0.059042 0.734631 0
M  V30 6504 H 625.828 0.826772 1.71069 0
M  V30 6505 H 623.978 -0.406414 3.86368 0
M  V30 6506 H 625.65 2.19618 4.05667 0
M  V30 6507 H 623.893 2.12603 3.7813 0
M  V30 6508 H 624.564 1.53183 5.3032 0
M  V30 6509 H 627.04 -0.0199841 4.16095 0
M  V30 6510 H 625.916 -0.470394 5.46881 0
M  V30 6511 H 626.177 -1.57726 4.13007 0
M  V30 6512 N 625.236 -1.5273 0.388769 0
M  V30 6513 C 626.464 -2.05992 -0.193677 0
M  V30 6514 C 626.879 -1.26053 -1.40557 0
M  V30 6515 O 626.236 -0.307049 -1.79898 0
M  V30 6516 C 626.287 -3.57068 -0.564321 0
M  V30 6517 O 626.008 -4.3398 0.599422 0
M  V30 6518 C 627.509 -4.26674 -1.20269 0
M  V30 6519 H 624.729 -0.670358 -0.0293445 0
M  V30 6520 H 627.273 -1.96857 0.553844 0
M  V30 6521 H 625.428 -3.66277 -1.26174 0
M  V30 6522 H 625.842 -5.2367 0.294895 0
M  V30 6523 H 627.316 -5.33625 -1.4124 0
M  V30 6524 H 627.793 -3.81854 -2.16989 0
M  V30 6525 H 628.399 -4.2178 -0.546047 0
M  V30 6526 N 626.714 -0.118576 -1.57153 0
M  V30 6527 C 627.962 0.538461 -1.94795 0
M  V30 6528 C 628.283 1.67243 -1.00274 0
M  V30 6529 O 627.553 1.95811 -0.0589692 0
M  V30 6530 H 626.133 0.201904 -0.719197 0
M  V30 6531 H 628.795 -0.187418 -1.93997 0
M  V30 6532 H 627.891 0.933315 -2.97818 0
M  V30 6533 N 628.193 1.56834 0.155195 0
M  V30 6534 C 629.103 2.009 1.21146 0
M  V30 6535 C 630.119 0.923029 1.475 0
M  V30 6536 O 631.295 1.23189 1.59331 0
M  V30 6537 C 628.36 2.37378 2.52691 0
M  V30 6538 C 627.421 3.59883 2.34057 0
M  V30 6539 C 626.654 3.94612 3.59329 0
M  V30 6540 O 626.877 3.30104 4.65175 0
M  V30 6541 O 625.811 4.87895 3.52479 0
M  V30 6542 H 629.637 2.9105 0.867371 0
M  V30 6543 H 627.222 1.44916 0.363298 0
M  V30 6544 H 629.104 2.61737 3.3026 0
M  V30 6545 H 627.779 1.50385 2.86646 0
M  V30 6546 H 626.686 3.40722 1.54465 0
M  V30 6547 H 628.019 4.47468 2.0502 0
M  V30 6548 N 629.671 -0.424282 1.51781 0
M  V30 6549 C 631.082 -1.00368 1.57427 0
M  V30 6550 C 631.433 -1.91962 0.40558 0
M  V30 6551 O 630.558 -2.111 -0.47601 0
M  V30 6552 C 631.153 -1.82707 2.85313 0
M  V30 6553 C 629.712 -2.35675 2.93487 0
M  V30 6554 C 628.859 -1.1524 2.5222 0
M  V30 6555 H 631.81 -0.205064 1.5737 0
M  V30 6556 H 631.831 -2.68294 2.69812 0
M  V30 6557 H 631.343 -1.16017 3.70353 0
M  V30 6558 H 629.444 -3.05781 2.12906 0
M  V30 6559 H 629.557 -2.67578 3.97415 0
M  V30 6560 H 627.921 -1.50174 2.05718 0
M  V30 6561 H 628.704 -0.5014 3.39619 0
M  V30 6562 N 631.149 -1.42148 -0.680565 0
M  V30 6563 C 632.395 -1.42521 -1.44277 0
M  V30 6564 C 632.728 -0.0393718 -1.9416 0
M  V30 6565 O 632.003 0.935425 -1.70529 0
M  V30 6566 C 632.286 -2.44475 -2.64394 0
M  V30 6567 C 632.139 -3.92226 -2.20179 0
M  V30 6568 C 633.458 -2.43491 -3.66606 0
M  V30 6569 H 630.577 -0.518985 -0.523282 0
M  V30 6570 H 633.219 -1.73524 -0.773914 0
M  V30 6571 H 631.369 -2.18168 -3.21458 0
M  V30 6572 H 633.041 -4.29493 -1.68327 0
M  V30 6573 H 631.284 -4.0637 -1.5181 0
M  V30 6574 H 631.955 -4.59133 -3.06433 0
M  V30 6575 H 634.431 -2.66872 -3.19247 0
M  V30 6576 H 633.307 -3.16816 -4.4824 0
M  V30 6577 H 633.568 -1.45881 -4.17338 0
M  V30 6578 N 632.627 0.916307 -1.28225 0
M  V30 6579 C 633.852 1.7043 -1.18188 0
M  V30 6580 C 634.277 1.86346 0.256274 0
M  V30 6581 O 633.635 1.37175 1.18544 0
M  V30 6582 C 633.683 3.07546 -1.88275 0
M  V30 6583 O 632.787 3.94904 -1.18848 0
M  V30 6584 H 632.128 0.521967 -0.410423 0
M  V30 6585 H 634.658 1.14589 -1.69501 0
M  V30 6586 H 634.668 3.57793 -1.96082 0
M  V30 6587 H 633.343 2.95279 -2.92887 0
M  V30 6588 H 631.92 3.53339 -1.19187 0
M  V30 6589 N 634.105 1.10431 1.1244 0
M  V30 6590 C 635.351 0.847972 1.84221 0
M  V30 6591 C 635.684 -0.624903 1.83871 0
M  V30 6592 O 634.959 -1.46074 1.28423 0
M  V30 6593 C 635.242 1.39695 3.319 0
M  V30 6594 C 635.095 2.93668 3.40704 0
M  V30 6595 C 636.414 1.03924 4.27654 0
M  V30 6596 H 633.533 0.309502 0.668863 0
M  V30 6597 H 636.175 1.36745 1.31912 0
M  V30 6598 H 634.325 0.955095 3.76577 0
M  V30 6599 H 635.997 3.46379 3.04662 0
M  V30 6600 H 634.24 3.30272 2.81252 0
M  V30 6601 H 634.911 3.27162 4.446 0
M  V30 6602 H 637.387 1.42049 3.91102 0
M  V30 6603 H 636.263 1.45027 5.29394 0
M  V30 6604 H 636.524 -0.051336 4.4207 0
M  V30 6605 N 635.583 -1.29855 0.893053 0
M  V30 6606 C 636.513 -2.3035 0.382249 0
M  V30 6607 C 637.494 -1.61328 -0.539203 0
M  V30 6608 O 638.679 -1.88882 -0.451342 0
M  V30 6609 C 635.809 -3.45024 -0.396983 0
M  V30 6610 C 634.763 -4.258 0.433437 0
M  V30 6611 C 634.089 -5.32605 -0.472889 0
M  V30 6612 C 635.389 -4.94549 1.67984 0
M  V30 6613 H 637.083 -2.73325 1.22205 0
M  V30 6614 H 634.629 -1.314 0.589073 0
M  V30 6615 H 636.582 -4.14398 -0.765024 0
M  V30 6616 H 635.306 -3.00875 -1.2705 0
M  V30 6617 H 633.965 -3.58125 0.783723 0
M  V30 6618 H 633.613 -4.84702 -1.34435 0
M  V30 6619 H 633.313 -5.87547 0.0789958 0
M  V30 6620 H 634.837 -6.04832 -0.837269 0
M  V30 6621 H 636.251 -5.56395 1.38192 0
M  V30 6622 H 634.648 -5.59393 2.17254 0
M  V30 6623 H 635.718 -4.20215 2.41965 0
M  V30 6624 N 637.061 -0.65484 -1.43351 0
M  V30 6625 C 638.301 -0.172514 -2.03671 0
M  V30 6626 C 638.665 1.19154 -1.50553 0
M  V30 6627 O 639.866 1.76737 -2.02528 0
M  V30 6628 C 638.137 -0.183982 -3.56926 0
M  V30 6629 S 639.696 0.230262 -4.38195 0
M  V30 6630 H 636.514 -0.0727503 -0.707268 0
M  V30 6631 H 639.116 -0.863537 -1.75395 0
M  V30 6632 H 637.82 -1.17945 -3.93087 0
M  V30 6633 H 637.351 0.527527 -3.89847 0
M  V30 6634 H 639.366 1.46874 -4.73965 0
M  V30 6635 N 638.539 1.52521 -0.396863 0
M  V30 6636 C 639.955 1.5953 -0.0471659 0
M  V30 6637 C 640.155 1.41044 1.43906 0
M  V30 6638 O 639.211 1.23122 2.20448 0
M  V30 6639 C 640.524 2.95972 -0.531113 0
M  V30 6640 C 642.072 3.09172 -0.488024 0
M  V30 6641 C 642.547 4.48075 -0.948281 0
M  V30 6642 N 644.038 4.54281 -0.9046 0
M  V30 6643 C 644.773 5.60007 -1.23205 0
M  V30 6644 N 644.269 6.73343 -1.63036 0
M  V30 6645 N 646.062 5.50151 -1.15282 0
M  V30 6646 H 638.213 1.62786 -1.36435 0
M  V30 6647 H 640.476 0.76514 -0.559701 0
M  V30 6648 H 640.182 3.14741 -1.56942 0
M  V30 6649 H 640.056 3.77143 0.0657922 0
M  V30 6650 H 642.443 2.90095 0.541211 0
M  V30 6651 H 642.524 2.29937 -1.12083 0
M  V30 6652 H 642.168 4.67894 -1.97578 0
M  V30 6653 H 642.098 5.25788 -0.292412 0
M  V30 6654 H 644.589 3.72918 -0.6116 0
M  V30 6655 H 644.902 7.49992 -1.86365 0
M  V30 6656 H 643.247 6.74655 -1.66929 0
M  V30 6657 H 646.438 4.6049 -0.840602 0
M  V30 6658 H 646.611 6.32444 -1.41133 0
M  V30 6659 N 640.017 0.126909 1.57088 0
M  V30 6660 C 641.265 -0.528123 1.95078 0
M  V30 6661 C 641.586 -1.66708 1.0116 0
M  V30 6662 O 640.856 -1.95777 0.0693527 0
M  V30 6663 H 639.436 -0.198087 0.720257 0
M  V30 6664 H 642.098 0.197703 1.93895 0
M  V30 6665 H 641.194 -0.917507 2.98309 0
M  V30 6666 N 641.495 -1.56914 -0.146875 0
M  V30 6667 C 642.405 -2.0154 -1.20079 0
M  V30 6668 C 643.421 -0.930838 -1.47008 0
M  V30 6669 O 644.597 -1.24032 -1.58676 0
M  V30 6670 C 641.662 -2.38715 -2.51428 0
M  V30 6671 C 640.723 -3.6112 -2.32145 0
M  V30 6672 C 639.956 -3.96512 -3.57231 0
M  V30 6673 O 640.179 -3.32566 -4.63418 0
M  V30 6674 O 639.113 -4.89758 -3.49887 0
M  V30 6675 H 642.939 -2.91506 -0.851924 0
M  V30 6676 H 640.524 -1.45106 -0.355607 0
M  V30 6677 H 642.406 -2.63485 -3.28867 0
M  V30 6678 H 641.081 -1.51903 -2.85845 0
M  V30 6679 H 639.988 -3.41536 -1.52656 0
M  V30 6680 H 641.321 -4.48549 -2.02644 0
M  V30 6681 N 642.974 0.416227 -1.52004 0
M  V30 6682 C 644.221 1.16383 -1.65714 0
M  V30 6683 C 644.549 1.9068 -0.383594 0
M  V30 6684 O 643.804 1.85174 0.633185 0
M  V30 6685 C 644.103 2.18923 -2.82502 0
M  V30 6686 C 643.769 1.61485 -4.20991 0
M  V30 6687 C 642.431 1.45545 -4.58661 0
M  V30 6688 C 644.783 1.19468 -5.07323 0
M  V30 6689 C 642.111 0.860937 -5.80349 0
M  V30 6690 C 644.463 0.614386 -6.29609 0
M  V30 6691 C 643.127 0.442056 -6.66035 0
M  V30 6692 H 642.397 0.425875 -0.606392 0
M  V30 6693 H 645.044 0.45199 -1.8609 0
M  V30 6694 H 643.349 2.96225 -2.56433 0
M  V30 6695 H 645.046 2.76628 -2.90307 0
M  V30 6696 H 641.636 1.74873 -3.91302 0
M  V30 6697 H 645.82 1.30596 -4.78809 0
M  V30 6698 H 641.076 0.715372 -6.072 0
M  V30 6699 H 645.25 0.280393 -6.95835 0
M  V30 6700 H 642.877 -0.0207218 -7.60197 0
M  V30 6701 N 644.452 1.42507 0.673017 0
M  V30 6702 C 645.698 1.43284 1.43519 0
M  V30 6703 C 646.031 0.049668 1.94136 0
M  V30 6704 O 645.306 -0.926369 1.71022 0
M  V30 6705 C 645.589 2.45874 2.63093 0
M  V30 6706 C 645.442 3.93388 2.18096 0
M  V30 6707 C 646.761 2.45431 3.6531 0
M  V30 6708 H 643.88 0.521752 0.520522 0
M  V30 6709 H 646.522 1.73932 0.764701 0
M  V30 6710 H 644.672 2.19869 3.20296 0
M  V30 6711 H 646.344 4.30379 1.66046 0
M  V30 6712 H 644.587 4.07169 1.49652 0
M  V30 6713 H 645.258 4.60752 3.03993 0
M  V30 6714 H 647.734 2.68561 3.17827 0
M  V30 6715 H 646.61 3.19189 4.46553 0
M  V30 6716 H 646.871 1.48092 4.16559 0
M  V30 6717 N 645.93 -0.909495 1.28709 0
M  V30 6718 C 647.176 -1.66151 1.16283 0
M  V30 6719 C 647.509 -1.92067 -0.287069 0
M  V30 6720 O 646.784 -1.52409 -1.20837 0
M  V30 6721 C 647.067 -3.01676 1.9663 0
M  V30 6722 C 646.92 -2.82888 3.49707 0
M  V30 6723 C 648.239 -4.02274 1.78504 0
M  V30 6724 H 645.358 -0.602966 0.423793 0
M  V30 6725 H 648 -1.05418 1.58073 0
M  V30 6726 H 646.15 -3.53515 1.61119 0
M  V30 6727 H 647.822 -2.38026 3.95147 0
M  V30 6728 H 646.065 -2.17862 3.75125 0
M  V30 6729 H 646.736 -3.79147 4.01187 0
M  V30 6730 H 649.212 -3.59511 2.09503 0
M  V30 6731 H 648.088 -4.95056 2.37088 0
M  V30 6732 H 648.349 -4.35903 0.737647 0
M  V30 6733 N 647.408 -1.11026 -1.11852 0
M  V30 6734 C 648.824 -0.843294 -1.35502 0
M  V30 6735 C 649.024 0.534179 -1.9429 0
M  V30 6736 O 648.08 1.28585 -2.17307 0
M  V30 6737 C 649.393 -1.94793 -2.29077 0
M  V30 6738 C 650.941 -1.97709 -2.42652 0
M  V30 6739 C 651.416 -3.07364 -3.39546 0
M  V30 6740 N 652.907 -3.0671 -3.47107 0
M  V30 6741 C 653.642 -3.88197 -4.22008 0
M  V30 6742 N 653.138 -4.79635 -4.99922 0
M  V30 6743 N 654.931 -3.76391 -4.17476 0
M  V30 6744 H 647.082 -1.99805 -0.720538 0
M  V30 6745 H 649.345 -0.868633 -0.379711 0
M  V30 6746 H 649.051 -2.93971 -1.93065 0
M  V30 6747 H 648.925 -1.84039 -3.29256 0
M  V30 6748 H 651.312 -0.991604 -2.77941 0
M  V30 6749 H 651.393 -2.1254 -1.4234 0
M  V30 6750 H 651.037 -4.06136 -3.04985 0
M  V30 6751 H 650.967 -2.89774 -4.39703 0
M  V30 6752 H 653.458 -2.40457 -2.91528 0
M  V30 6753 H 653.771 -5.38357 -5.54429 0
M  V30 6754 H 652.116 -4.8366 -4.99097 0
M  V30 6755 H 655.307 -3.04303 -3.55693 0
M  V30 6756 H 655.48 -4.40131 -4.75593 0
M  V30 6757 N 648.886 1.2938 -0.899927 0
M  V30 6758 C 650.163 1.9046 -0.445443 0
M  V30 6759 C 650.543 1.81683 1.07492 0
M  V30 6760 O 649.891 1.24371 1.91688 0
M  V30 6761 C 650.101 3.35529 -0.960279 0
M  V30 6762 C 651.449 4.12556 -1.00412 0
M  V30 6763 O 652.473 3.44434 -0.907965 0
M  V30 6764 O 651.332 5.34294 -1.14857 0
M  V30 6765 H 648.426 0.815253 -0.138893 0
M  V30 6766 H 650.972 1.37844 -0.989808 0
M  V30 6767 H 649.744 3.36074 -2.00425 0
M  V30 6768 H 649.367 3.95624 -0.395939 0
M  V30 6769 N 650.364 0.662433 1.43002 0
M  V30 6770 C 651.311 -0.0235324 2.30788 0
M  V30 6771 C 652.281 -0.805342 1.4527 0
M  V30 6772 O 653.466 -0.78009 1.74124 0
M  V30 6773 C 650.606 -0.977545 3.30965 0
M  V30 6774 C 649.719 -0.190865 4.31578 0
M  V30 6775 C 648.854 -1.13951 5.18834 0
M  V30 6776 C 647.893 -0.343796 6.11134 0
M  V30 6777 N 647.03 -1.2445 6.90982 0
M  V30 6778 H 651.87 0.730921 2.88897 0
M  V30 6779 H 649.407 0.372197 1.42313 0
M  V30 6780 H 651.365 -1.54437 3.87563 0
M  V30 6781 H 649.995 -1.69877 2.74484 0
M  V30 6782 H 649.047 0.492388 3.772 0
M  V30 6783 H 650.359 0.427464 4.96965 0
M  V30 6784 H 649.513 -1.77666 5.80103 0
M  V30 6785 H 648.252 -1.79174 4.53595 0
M  V30 6786 H 647.257 0.30665 5.48944 0
M  V30 6787 H 648.482 0.304161 6.78419 0
M  V30 6788 H 646.428 -1.88336 6.28383 0
M  V30 6789 H 646.345 -0.680959 7.52927 0
M  V30 6790 H 647.613 -1.86952 7.56749 0
M  V30 6791 N 651.842 -1.52309 0.404946 0
M  V30 6792 C 652.774 -2.24579 -0.45791 0
M  V30 6793 C 653.787 -1.2739 -1.01369 0
M  V30 6794 O 654.976 -1.53363 -0.91335 0
M  V30 6795 C 652.076 -2.9608 -1.64893 0
M  V30 6796 C 651.249 -4.20106 -1.21777 0
M  V30 6797 C 650.308 -4.74468 -2.27523 0
M  V30 6798 O 649.334 -5.37157 -1.88285 0
M  V30 6799 N 650.536 -4.55678 -3.59635 0
M  V30 6800 H 653.301 -2.99265 0.161341 0
M  V30 6801 H 650.862 -1.60228 0.232107 0
M  V30 6802 H 652.854 -3.29344 -2.35191 0
M  V30 6803 H 651.424 -2.24606 -2.17419 0
M  V30 6804 H 650.644 -3.92704 -0.343071 0
M  V30 6805 H 651.932 -5.00658 -0.906596 0
M  V30 6806 H 651.33 -4.05673 -3.94266 0
M  V30 6807 H 649.887 -4.9339 -4.25922 0
M  V30 6808 N 653.32 -0.135238 -1.57019 0
M  V30 6809 C 654.567 0.518794 -1.95742 0
M  V30 6810 C 654.895 1.65642 -1.01947 0
M  V30 6811 O 654.15 1.95645 -0.0464016 0
M  V30 6812 C 654.449 1.07694 -3.40788 0
M  V30 6813 C 654.115 0.058992 -4.50861 0
M  V30 6814 C 652.777 -0.220872 -4.80693 0
M  V30 6815 C 655.129 -0.633856 -5.17331 0
M  V30 6816 C 652.457 -1.19959 -5.74305 0
M  V30 6817 C 654.809 -1.60131 -6.11997 0
M  V30 6818 C 653.473 -1.889 -6.40213 0
M  V30 6819 H 652.743 0.18984 -0.716269 0
M  V30 6820 H 655.39 -0.219581 -1.90237 0
M  V30 6821 H 653.695 1.89241 -3.43067 0
M  V30 6822 H 655.392 1.59137 -3.68071 0
M  V30 6823 H 651.982 0.287304 -4.27636 0
M  V30 6824 H 656.166 -0.430823 -4.94427 0
M  V30 6825 H 651.422 -1.42905 -5.94465 0
M  V30 6826 H 655.596 -2.14376 -6.62583 0
M  V30 6827 H 653.223 -2.64891 -7.12556 0
M  V30 6828 N 654.798 1.5699 0.138552 0
M  V30 6829 C 656.044 1.84081 0.85099 0
M  V30 6830 C 656.377 0.718107 1.80435 0
M  V30 6831 O 655.652 -0.277633 1.92508 0
M  V30 6832 C 655.935 3.21699 1.61808 0
M  V30 6833 C 655.788 4.44544 0.685633 0
M  V30 6834 C 657.107 3.5664 2.57868 0
M  V30 6835 H 654.226 0.669592 0.307922 0
M  V30 6836 H 656.868 1.89646 0.11588 0
M  V30 6837 H 655.018 3.17086 2.24474 0
M  V30 6838 H 656.69 4.61248 0.0693179 0
M  V30 6839 H 654.933 4.338 -0.00421993 0
M  V30 6840 H 655.604 5.3746 1.25858 0
M  V30 6841 H 658.08 3.61918 2.05316 0
M  V30 6842 H 656.956 4.53946 3.08584 0
M  V30 6843 H 657.217 2.83036 3.39622 0
M  V30 6844 N 656.276 -0.40816 1.52223 0
M  V30 6845 C 657.524 -1.15274 1.66001 0
M  V30 6846 C 657.845 -1.91003 0.392803 0
M  V30 6847 O 657.115 -1.8673 -0.592336 0
M  V30 6848 H 655.695 -0.428526 0.611861 0
M  V30 6849 H 658.357 -0.46512 1.89269 0
M  V30 6850 H 657.453 -1.86628 2.50153 0
M  V30 6851 N 657.755 -1.42862 -0.66545 0
M  V30 6852 C 658.702 -1.4707 -1.77874 0
M  V30 6853 C 659.672 -0.321654 -1.62956 0
M  V30 6854 O 660.857 -0.52707 -1.83376 0
M  V30 6855 C 657.997 -1.38788 -3.15962 0
M  V30 6856 C 657.11 -2.63801 -3.42101 0
M  V30 6857 C 656.245 -2.47594 -4.69969 0
M  V30 6858 C 655.284 -3.67936 -4.89172 0
M  V30 6859 N 654.421 -3.50614 -6.08288 0
M  V30 6860 H 659.261 -2.42204 -1.73613 0
M  V30 6861 H 656.798 -1.20239 -0.847401 0
M  V30 6862 H 658.756 -1.31982 -3.95773 0
M  V30 6863 H 657.386 -0.472431 -3.19324 0
M  V30 6864 H 656.438 -2.80935 -2.56475 0
M  V30 6865 H 657.75 -3.53228 -3.52181 0
M  V30 6866 H 656.904 -2.38427 -5.57886 0
M  V30 6867 H 655.643 -1.55672 -4.62188 0
M  V30 6868 H 654.648 -3.77525 -3.99694 0
M  V30 6869 H 655.873 -4.60851 -4.98792 0
M  V30 6870 H 653.819 -2.61417 -6.01662 0
M  V30 6871 H 653.736 -4.33634 -6.19272 0
M  V30 6872 H 655.004 -3.45276 -6.98859 0
M  V30 6873 N 659.233 0.902656 -1.29189 0
M  V30 6874 C 660.644 1.46809 -1.15343 0
M  V30 6875 C 660.995 1.94568 0.252517 0
M  V30 6876 O 660.12 1.83454 1.14777 0
M  V30 6877 C 660.715 2.66829 -2.08776 0
M  V30 6878 C 659.274 3.19518 -1.98961 0
M  V30 6879 C 658.421 1.92212 -1.99874 0
M  V30 6880 H 661.372 0.714282 -1.41717 0
M  V30 6881 H 661.393 3.42465 -1.65826 0
M  V30 6882 H 660.905 2.32039 -3.11094 0
M  V30 6883 H 659.006 3.59008 -0.99721 0
M  V30 6884 H 659.119 3.84016 -2.86477 0
M  V30 6885 H 657.483 2.0979 -1.44431 0
M  V30 6886 H 658.266 1.59702 -3.03891 0
M  V30 6887 N 660.711 1.11618 1.11262 0
M  V30 6888 C 661.959 0.864469 1.82678 0
M  V30 6889 C 662.28 -0.611564 1.85162 0
M  V30 6890 O 661.55 -1.44429 1.32352 0
M  V30 6891 H 660.13 0.316821 0.676486 0
M  V30 6892 H 662.792 1.40894 1.34666 0
M  V30 6893 H 661.888 1.23832 2.86482 0
M  V30 6894 N 662.189 -1.289 0.906776 0
M  V30 6895 C 663.419 -1.99112 0.551168 0
M  V30 6896 C 663.827 -1.67998 -0.870243 0
M  V30 6897 O 663.17 -0.92525 -1.58697 0
M  V30 6898 C 663.232 -3.53162 0.672065 0
M  V30 6899 C 662.896 -4.07849 2.06174 0
M  V30 6900 C 663.893 -4.22212 3.0337 0
M  V30 6901 C 661.578 -4.4271 2.37304 0
M  V30 6902 C 663.572 -4.70678 4.29815 0
M  V30 6903 C 661.259 -4.90871 3.6399 0
M  V30 6904 C 662.257 -5.04811 4.6006 0
M  V30 6905 O 661.945 -5.51925 5.84495 0
M  V30 6906 H 661.677 -0.642728 0.209469 0
M  V30 6907 H 664.231 -1.65234 1.22012 0
M  V30 6908 H 662.461 -3.86662 -0.05394 0
M  V30 6909 H 664.15 -4.046 0.324579 0
M  V30 6910 H 664.916 -3.9556 2.80637 0
M  V30 6911 H 660.795 -4.31114 1.63283 0
M  V30 6912 H 664.339 -4.81474 5.04806 0
M  V30 6913 H 660.236 -5.16961 3.86551 0
M  V30 6914 H 661.004 -5.70225 5.87185 0
M  V30 6915 N 663.667 -0.670007 -1.42649 0
M  V30 6916 C 664.915 -0.18991 -2.01206 0
M  V30 6917 C 665.236 1.20617 -1.53221 0
M  V30 6918 O 664.506 1.80898 -0.751856 0
M  V30 6919 H 663.086 -0.0672189 -0.743969 0
M  V30 6920 H 665.748 -0.865442 -1.74631 0
M  V30 6921 H 664.844 -0.187481 -3.11536 0
M  V30 6922 N 665.145 1.52092 -0.413018 0
M  V30 6923 C 666.077 2.24819 0.445994 0
M  V30 6924 C 667.09 1.27925 1.00692 0
M  V30 6925 O 668.279 1.53845 0.905204 0
M  V30 6926 C 665.379 2.96951 1.6332 0
M  V30 6927 C 664.552 4.20746 1.19548 0
M  V30 6928 C 663.611 4.75668 2.25003 0
M  V30 6929 O 662.637 5.38148 1.85434 0
M  V30 6930 N 663.839 4.57579 3.57214 0
M  V30 6931 H 666.604 2.99176 -0.177209 0
M  V30 6932 H 664.165 1.60102 -0.240601 0
M  V30 6933 H 666.157 3.30586 2.33441 0
M  V30 6934 H 664.727 2.25756 2.16225 0
M  V30 6935 H 663.947 3.92881 0.32224 0
M  V30 6936 H 665.235 5.01132 0.880033 0
M  V30 6937 H 664.633 4.07758 3.92109 0
M  V30 6938 H 663.19 4.95642 4.23299 0
M  V30 6939 N 666.623 0.143563 1.56945 0
M  V30 6940 C 667.853 -0.514699 2.00086 0
M  V30 6941 C 668.261 -1.59184 1.0226 0
M  V30 6942 O 667.604 -1.83697 0.0110514 0
M  V30 6943 C 667.666 -1.17778 3.39659 0
M  V30 6944 C 667.33 -0.245657 4.56339 0
M  V30 6945 C 668.327 0.525343 5.17239 0
M  V30 6946 C 666.012 -0.149564 5.02077 0
M  V30 6947 C 668.006 1.37992 6.22284 0
M  V30 6948 C 665.693 0.708621 6.06978 0
M  V30 6949 C 666.691 1.47197 6.6695 0
M  V30 6950 O 666.379 2.31586 7.6982 0
M  V30 6951 H 666.111 -0.138789 0.661599 0
M  V30 6952 H 668.665 0.234098 2.04062 0
M  V30 6953 H 666.895 -1.97415 3.32512 0
M  V30 6954 H 668.584 -1.73542 3.6693 0
M  V30 6955 H 669.35 0.461118 4.82803 0
M  V30 6956 H 665.229 -0.733457 4.55128 0
M  V30 6957 H 668.773 1.97621 6.69023 0
M  V30 6958 H 664.67 0.77415 6.40841 0
M  V30 6959 H 665.438 2.24796 7.87025 0
M  V30 6960 N 668.101 -1.57061 -0.130224 0
M  V30 6961 C 669.347 -1.8453 -0.841216 0
M  V30 6962 C 669.68 -0.727666 -1.80052 0
M  V30 6963 O 668.955 0.267419 -1.92653 0
M  V30 6964 C 669.238 -3.22553 -1.60099 0
M  V30 6965 C 669.091 -4.44901 -0.662048 0
M  V30 6966 C 670.41 -3.58003 -2.55973 0
M  V30 6967 H 667.529 -0.671215 -0.304366 0
M  V30 6968 H 670.171 -1.89705 -0.105821 0
M  V30 6969 H 668.321 -3.18272 -2.22789 0
M  V30 6970 H 669.993 -4.61278 -0.0448559 0
M  V30 6971 H 668.236 -4.33791 0.0272253 0
M  V30 6972 H 668.907 -5.3812 -1.23006 0
M  V30 6973 H 671.383 -3.63002 -2.03393 0
M  V30 6974 H 670.259 -4.55576 -3.06172 0
M  V30 6975 H 670.52 -2.84833 -3.38116 0
M  V30 6976 N 669.579 0.400081 -1.52437 0
M  V30 6977 C 670.526 1.48803 -1.76426 0
M  V30 6978 C 671.496 1.5461 -0.607032 0
M  V30 6979 O 672.681 1.71041 -0.845563 0
M  V30 6980 C 669.821 2.86156 -1.92896 0
M  V30 6981 C 668.934 2.89587 -3.20567 0
M  V30 6982 C 668.069 4.18296 -3.27417 0
M  V30 6983 C 667.108 4.15736 -4.49255 0
M  V30 6984 N 666.245 5.36032 -4.53447 0
M  V30 6985 H 671.085 1.27649 -2.69276 0
M  V30 6986 H 668.622 0.619451 -1.33421 0
M  V30 6987 H 670.58 3.65901 -2.00429 0
M  V30 6988 H 669.21 3.05785 -1.03418 0
M  V30 6989 H 668.262 2.02278 -3.22161 0
M  V30 6990 H 669.574 2.83562 -4.10358 0
M  V30 6991 H 668.728 5.06439 -3.34072 0
M  V30 6992 H 667.467 4.27028 -2.35581 0
M  V30 6993 H 666.472 3.25982 -4.42737 0
M  V30 6994 H 667.697 4.08636 -5.42396 0
M  V30 6995 H 665.643 5.45415 -3.64498 0
M  V30 6996 H 665.56 5.32038 -5.37096 0
M  V30 6997 H 666.828 6.26104 -4.64343 0
M  V30 6998 N 671.057 1.43213 0.657864 0
M  V30 6999 C 672.473 1.26511 0.972992 0
M  V30 7000 C 672.673 0.181477 2.00681 0
M  V30 7001 O 671.729 -0.441649 2.48608 0
M  V30 7002 C 673.042 2.62784 1.46168 0
M  V30 7003 C 674.59 2.70278 1.57857 0
M  V30 7004 C 675.065 4.06958 2.10117 0
M  V30 7005 N 676.556 4.08999 2.17426 0
M  V30 7006 C 677.291 5.11585 2.58975 0
M  V30 7007 N 676.787 6.24548 2.99853 0
M  V30 7008 N 678.58 4.9894 2.58873 0
M  V30 7009 H 670.731 2.12384 -0.0263129 0
M  V30 7010 H 672.994 0.946638 0.0507992 0
M  V30 7011 H 672.7 3.43022 0.776474 0
M  V30 7012 H 672.574 2.87863 2.43751 0
M  V30 7013 H 674.961 1.90376 2.25479 0
M  V30 7014 H 675.042 2.4897 0.587179 0
M  V30 7015 H 674.686 4.87325 1.43098 0
M  V30 7016 H 674.616 4.25628 3.10078 0
M  V30 7017 H 677.107 3.27457 1.88627 0
M  V30 7018 H 677.42 6.98661 3.30292 0
M  V30 7019 H 675.765 6.28027 2.97669 0
M  V30 7020 H 678.956 4.09757 2.26311 0
M  V30 7021 H 679.129 5.79019 2.90932 0
M  V30 7022 N 672.536 -0.895792 1.29666 0
M  V30 7023 C 673.499 -1.98189 1.15124 0
M  V30 7024 C 674.499 -1.60572 0.0855717 0
M  V30 7025 O 675.689 -1.70991 0.332826 0
M  V30 7026 C 672.821 -3.32289 0.761372 0
M  V30 7027 H 674.014 -2.12518 2.11603 0
M  V30 7028 H 671.567 -1.0808 1.12908 0
M  V30 7029 H 672.302 -3.23662 -0.203393 0
M  V30 7030 H 672.087 -3.60958 1.53139 0
M  V30 7031 H 673.577 -4.1198 0.682792 0
M  V30 7032 N 674.014 -1.12206 -1.10668 0
M  V30 7033 C 674.961 -0.787716 -2.16942 0
M  V30 7034 C 675.931 0.244442 -1.64291 0
M  V30 7035 O 677.116 0.119558 -1.90425 0
M  V30 7036 C 674.256 -0.24584 -3.44223 0
M  V30 7037 C 673.369 -1.33552 -4.10838 0
M  V30 7038 C 672.504 -0.753337 -5.25831 0
M  V30 7039 C 671.543 -1.82231 -5.84344 0
M  V30 7040 N 670.68 -1.25902 -6.90719 0
M  V30 7041 H 675.52 -1.69809 -2.44885 0
M  V30 7042 H 673.057 -0.847862 -1.20207 0
M  V30 7043 H 675.015 0.0863639 -4.17111 0
M  V30 7044 H 673.645 0.627702 -3.16638 0
M  V30 7045 H 672.697 -1.78454 -3.35944 0
M  V30 7046 H 674.009 -2.14396 -4.50373 0
M  V30 7047 H 673.163 -0.37166 -6.05561 0
M  V30 7048 H 671.902 0.0863297 -4.87624 0
M  V30 7049 H 670.907 -2.2132 -5.03287 0
M  V30 7050 H 672.132 -2.66515 -6.24617 0
M  V30 7051 H 670.078 -0.44114 -6.54515 0
M  V30 7052 H 669.995 -2.00408 -7.28953 0
M  V30 7053 H 671.263 -0.904498 -7.74235 0
M  V30 7054 N 675.492 1.28418 -0.913599 0
M  V30 7055 C 676.722 1.98817 -0.56172 0
M  V30 7056 C 677.13 1.68457 0.861321 0
M  V30 7057 O 676.473 0.933653 1.58204 0
M  V30 7058 C 676.535 3.52801 -0.690785 0
M  V30 7059 C 676.199 4.0675 -2.08334 0
M  V30 7060 C 677.196 4.20597 -3.05604 0
M  V30 7061 C 674.881 4.41445 -2.39648 0
M  V30 7062 C 676.875 4.68392 -4.32305 0
M  V30 7063 C 674.562 4.88934 -3.66588 0
M  V30 7064 C 675.56 5.02364 -4.6273 0
M  V30 7065 O 675.248 5.48817 -5.87414 0
M  V30 7066 H 674.98 0.641608 -0.212874 0
M  V30 7067 H 677.534 1.64584 -1.22887 0
M  V30 7068 H 675.764 3.86686 0.0334336 0
M  V30 7069 H 677.453 4.04422 -0.346031 0
M  V30 7070 H 678.219 3.94067 -2.8273 0
M  V30 7071 H 674.098 4.30242 -1.65567 0
M  V30 7072 H 677.642 4.7879 -5.07352 0
M  V30 7073 H 673.539 5.14904 -3.89287 0
M  V30 7074 H 674.307 5.67103 -5.90201 0
M  V30 7075 N 676.97 0.677563 1.42291 0
M  V30 7076 C 678.218 0.200578 2.01102 0
M  V30 7077 C 678.539 -1.19803 1.53858 0
M  V30 7078 O 677.809 -1.80496 0.761439 0
M  V30 7079 H 676.389 0.0711634 0.743603 0
M  V30 7080 H 679.051 0.874691 1.7417 0
M  V30 7081 H 678.147 0.204 3.11433 0
M  V30 7082 N 678.448 -1.51871 0.421078 0
M  V30 7083 C 679.411 -2.25914 -0.386712 0
M  V30 7084 C 680.411 -1.28733 -0.963555 0
M  V30 7085 O 681.601 -1.52579 -0.840556 0
M  V30 7086 C 678.733 -3.03853 -1.54551 0
M  V30 7087 H 679.926 -2.98754 0.261978 0
M  V30 7088 H 677.479 -1.5533 0.173862 0
M  V30 7089 H 678.214 -2.35392 -2.23072 0
M  V30 7090 H 677.999 -3.75215 -1.13824 0
M  V30 7091 H 679.489 -3.59984 -2.11663 0
M  V30 7092 N 679.926 -0.151884 -1.56866 0
M  V30 7093 C 680.856 0.781943 -2.20018 0
M  V30 7094 C 681.837 1.25347 -1.14987 0
M  V30 7095 O 683.022 1.31015 -1.43348 0
M  V30 7096 C 680.152 2.01928 -2.82564 0
M  V30 7097 C 679.106 1.68434 -3.93464 0
M  V30 7098 C 678.432 2.99472 -4.42968 0
M  V30 7099 C 679.732 0.927244 -5.14003 0
M  V30 7100 H 681.426 0.255607 -2.98307 0
M  V30 7101 H 678.972 0.121502 -1.43486 0
M  V30 7102 H 680.925 2.67741 -3.25411 0
M  V30 7103 H 679.649 2.56943 -2.01614 0
M  V30 7104 H 678.308 1.04998 -3.51242 0
M  V30 7105 H 677.956 3.52488 -3.58834 0
M  V30 7106 H 677.656 2.77823 -5.17772 0
M  V30 7107 H 679.18 3.66348 -4.88489 0
M  V30 7108 H 680.594 1.48756 -5.53665 0
M  V30 7109 H 678.991 0.810513 -5.94601 0
M  V30 7110 H 680.061 -0.0801163 -4.84834 0
M  V30 7111 N 681.404 1.57128 0.121893 0
M  V30 7112 C 682.337 1.95327 1.17995 0
M  V30 7113 C 683.315 0.822524 1.40262 0
M  V30 7114 O 684.499 1.08044 1.54463 0
M  V30 7115 C 681.626 2.24699 2.53432 0
M  V30 7116 C 680.672 3.47263 2.4761 0
M  V30 7117 S 681.505 4.99951 1.91857 0
M  V30 7118 C 682.661 5.32473 3.28973 0
M  V30 7119 H 682.894 2.84765 0.854182 0
M  V30 7120 H 680.427 1.50864 0.328534 0
M  V30 7121 H 682.385 2.423 3.31362 0
M  V30 7122 H 681.046 1.3588 2.83188 0
M  V30 7123 H 680.239 3.65171 3.4737 0
M  V30 7124 H 679.841 3.29034 1.778 0
M  V30 7125 H 682.133 5.27478 4.25175 0
M  V30 7126 H 683.076 6.33732 3.15895 0
M  V30 7127 H 683.484 4.59952 3.27268 0
M  V30 7128 N 682.882 -0.391992 1.52647 0
M  V30 7129 C 683.845 -1.46135 1.7657 0
M  V30 7130 C 684.845 -1.47701 0.635698 0
M  V30 7131 O 686.035 -1.48924 0.903728 0
M  V30 7132 C 683.167 -2.85443 1.86374 0
M  V30 7133 H 684.36 -1.26208 2.72051 0
M  V30 7134 H 681.913 -0.623549 1.43323 0
M  V30 7135 H 682.648 -3.10718 0.928685 0
M  V30 7136 H 682.433 -2.85708 2.68539 0
M  V30 7137 H 683.923 -3.62933 2.06566 0
M  V30 7138 N 684.36 -1.4356 -0.65026 0
M  V30 7139 C 685.637 -1.35811 -1.40765 0
M  V30 7140 C 686.017 -0.00736379 -2.11099 0
M  V30 7141 O 685.365 1.00932 -2.05 0
M  V30 7142 C 685.575 -2.54332 -2.3899 0
M  V30 7143 C 686.923 -2.97551 -3.02901 0
M  V30 7144 O 687.947 -2.544 -2.49317 0
M  V30 7145 O 686.806 -3.72311 -4.00059 0
M  V30 7146 H 683.9 -0.536861 -0.629054 0
M  V30 7147 H 686.446 -1.55615 -0.676919 0
M  V30 7148 H 685.218 -3.44274 -1.85986 0
M  V30 7149 H 684.841 -2.36643 -3.19509 0
M  V30 7150 N 685.838 0.888903 -1.30139 0
M  V30 7151 C 686.77 1.99972 -1.11999 0
M  V30 7152 C 687.783 1.62673 -0.0643619 0
M  V30 7153 O 688.972 1.75788 -0.309983 0
M  V30 7154 C 686.072 3.31904 -0.685059 0
M  V30 7155 C 685.245 3.97665 -1.82158 0
M  V30 7156 C 684.304 5.07894 -1.37585 0
M  V30 7157 O 683.33 5.2974 -2.08241 0
M  V30 7158 N 684.532 5.7995 -0.252697 0
M  V30 7159 H 687.297 2.16085 -2.07671 0
M  V30 7160 H 684.858 1.06175 -1.22223 0
M  V30 7161 H 686.85 4.03005 -0.369964 0
M  V30 7162 H 685.42 3.12084 0.179507 0
M  V30 7163 H 684.64 3.19787 -2.305 0
M  V30 7164 H 685.928 4.3834 -2.58332 0
M  V30 7165 H 685.326 5.647 0.336141 0
M  V30 7166 H 683.883 6.518 0.00296813 0
M  V30 7167 N 687.317 1.12792 1.10072 0
M  V30 7168 C 688.594 0.796867 1.78632 0
M  V30 7169 C 688.974 -0.712739 1.98704 0
M  V30 7170 O 688.322 -1.64773 1.5831 0
M  V30 7171 C 688.532 1.57622 3.11378 0
M  V30 7172 C 689.88 1.76463 3.86194 0
M  V30 7173 O 690.904 1.54165 3.2111 0
M  V30 7174 O 689.763 2.13623 5.03018 0
M  V30 7175 H 686.857 0.290248 0.774394 0
M  V30 7176 H 689.403 1.23215 1.16688 0
M  V30 7177 H 688.175 2.60246 2.92212 0
M  V30 7178 H 687.798 1.13543 3.81043 0
M  V30 7179 N 688.795 -1.27931 0.920396 0
M  V30 7180 C 690.041 -1.94977 0.557832 0
M  V30 7181 C 690.374 -1.72224 -0.897365 0
M  V30 7182 O 689.649 -1.04705 -1.63912 0
M  V30 7183 C 689.932 -3.49289 0.875741 0
M  V30 7184 C 689.785 -3.81416 2.38416 0
M  V30 7185 C 691.104 -4.38486 0.376517 0
M  V30 7186 H 688.223 -0.708164 0.20414 0
M  V30 7187 H 690.865 -1.5118 1.15085 0
M  V30 7188 H 689.015 -3.86724 0.371062 0
M  V30 7189 H 690.687 -3.53813 2.95997 0
M  V30 7190 H 688.93 -3.28225 2.83639 0
M  V30 7191 H 689.601 -4.89198 2.55713 0
M  V30 7192 H 692.077 -4.08161 0.808945 0
M  V30 7193 H 690.953 -5.45296 0.627976 0
M  V30 7194 H 691.214 -4.36143 -0.723293 0
M  V30 7195 N 690.273 -0.685099 -1.4193 0
M  V30 7196 C 691.519 -0.211971 -2.01689 0
M  V30 7197 C 691.852 1.18189 -1.54094 0
M  V30 7198 O 691.127 1.79559 -0.747572 0
M  V30 7199 C 691.41 -0.258019 -3.59174 0
M  V30 7200 C 691.263 -1.68807 -4.16922 0
M  V30 7201 C 692.582 0.388044 -4.38386 0
M  V30 7202 H 689.701 -0.0784987 -0.732808 0
M  V30 7203 H 692.343 -0.871837 -1.68816 0
M  V30 7204 H 690.493 0.303832 -3.8731 0
M  V30 7205 H 692.165 -2.30296 -3.99702 0
M  V30 7206 H 690.408 -2.22553 -3.72361 0
M  V30 7207 H 691.079 -1.6719 -5.26072 0
M  V30 7208 H 693.555 -0.0903432 -4.16002 0
M  V30 7209 H 692.431 0.325232 -5.47936 0
M  V30 7210 H 692.692 1.4672 -4.17044 0
M  V30 7211 N 691.751 1.51645 -0.429126 0
M  V30 7212 C 692.698 2.27542 0.386446 0
M  V30 7213 C 693.668 1.30786 1.02393 0
M  V30 7214 O 694.853 1.59678 1.0444 0
M  V30 7215 C 691.993 3.11457 1.48623 0
M  V30 7216 C 691.106 4.23196 0.867691 0
M  V30 7217 C 690.241 4.94435 1.94183 0
M  V30 7218 C 689.28 5.98108 1.30129 0
M  V30 7219 N 688.417 6.62786 2.31644 0
M  V30 7220 H 693.257 2.968 -0.267155 0
M  V30 7221 H 690.794 1.46397 -0.143591 0
M  V30 7222 H 692.752 3.58429 2.13506 0
M  V30 7223 H 691.382 2.44329 2.10957 0
M  V30 7224 H 690.434 3.80248 0.107373 0
M  V30 7225 H 691.746 4.97499 0.35997 0
M  V30 7226 H 690.9 5.44914 2.66747 0
M  V30 7227 H 689.639 4.19744 2.48326 0
M  V30 7228 H 688.644 5.4693 0.561082 0
M  V30 7229 H 689.869 6.74751 0.767303 0
M  V30 7230 H 687.815 5.90913 2.84883 0
M  V30 7231 H 687.732 7.32828 1.85741 0
M  V30 7232 H 689 7.17897 3.03717 0
M  V30 7233 N 693.229 0.160201 1.56784 0
M  V30 7234 C 694.162 -0.812797 2.13234 0
M  V30 7235 C 695.14 -1.2335 1.05942 0
M  V30 7236 O 696.324 -1.32725 1.33852 0
M  V30 7237 C 693.451 -2.09311 2.66283 0
M  V30 7238 C 692.497 -1.8173 3.85845 0
M  V30 7239 S 693.33 -0.996473 5.26147 0
M  V30 7240 C 694.486 -2.28769 5.82594 0
M  V30 7241 H 694.719 -0.332794 2.95432 0
M  V30 7242 H 692.252 -0.0542971 1.54304 0
M  V30 7243 H 694.21 -2.82854 2.97496 0
M  V30 7244 H 692.871 -2.54425 1.84192 0
M  V30 7245 H 692.064 -2.76699 4.21253 0
M  V30 7246 H 691.666 -1.16289 3.55462 0
M  V30 7247 H 693.958 -3.24319 5.9483 0
M  V30 7248 H 694.901 -1.97846 6.79899 0
M  V30 7249 H 695.309 -2.40021 5.10931 0
M  V30 7250 N 694.707 -1.5719 -0.113559 0
M  V30 7251 C 695.932 -1.89702 -0.838336 0
M  V30 7252 C 696.357 -0.752679 -1.72384 0
M  V30 7253 O 695.715 0.296575 -1.78858 0
M  V30 7254 C 695.763 -3.20989 -1.64312 0
M  V30 7255 O 694.867 -3.07278 -2.75053 0
M  V30 7256 H 694.208 -0.622339 -0.231496 0
M  V30 7257 H 696.738 -2.04382 -0.0943228 0
M  V30 7258 H 696.748 -3.53843 -2.03123 0
M  V30 7259 H 695.423 -4.03869 -0.993119 0
M  V30 7260 H 694 -2.85901 -2.39406 0
M  V30 7261 O 696.224 0.257811 -1.59429 0
M  V30 7262 H 696.915 0.901882 -1.71423 0
M  V30 END ATOM
M  V30 BEGIN BOND
M  V30 END BOND
M  V30 END CTAB
M  END
$$$$
