drugbank_target|Q00080 Elongation factor 1-alpha (DB11638)
 OpenBabel12092121093D

  0  0  0     0  0            999 V3000
M  V30 BEGIN CTAB
M  V30 COUNTS 7018 7084 0 0 0
M  V30 BEGIN ATOM
M  V30 1 H -0.908 1.98254 -0.117106 0
M  V30 2 N 0 1.576 0 0
M  V30 3 C 0.933 2.03868 1.02534 0
M  V30 4 C 1.911 0.928543 1.3348 0
M  V30 5 O 3.095 1.19667 1.45644 0
M  V30 6 C 0.222 2.43627 2.35294 0
M  V30 7 C -0.732 3.65373 2.2001 0
M  V30 8 S 0.101 5.13292 1.52614 0
M  V30 9 C 1.257 5.56322 2.86805 0
M  V30 10 H 1.49 2.90518 0.631377 0
M  V30 11 H -0.977 1.52953 0.210867 0
M  V30 12 H 0.981 2.67203 3.11629 0
M  V30 13 H -0.358 1.57376 2.7183 0
M  V30 14 H -1.165 3.90944 3.18086 0
M  V30 15 H -1.563 3.418 1.51819 0
M  V30 16 H 0.729 5.58782 3.83104 0
M  V30 17 H 1.672 6.56266 2.65933 0
M  V30 18 H 2.08 4.83886 2.90714 0
M  V30 19 N 1.4781 -0.272755 1.55222 0
M  V30 20 C 2.7261 -1.00234 1.75492 0
M  V30 21 C 3.0471 -1.8681 0.5592 0
M  V30 22 O 2.3171 -1.91215 -0.425882 0
M  V30 23 H 0.8971 -0.373076 0.647166 0
M  V30 24 H 3.5591 -0.296926 1.92625 0
M  V30 25 H 2.6551 -1.63913 2.65592 0
M  V30 26 N 2.9562 -1.48159 -0.537278 0
M  V30 27 C 3.9032 -1.62138 -1.64256 0
M  V30 28 C 4.8732 -0.463668 -1.59497 0
M  V30 29 O 6.0582 -0.686241 -1.78032 0
M  V30 30 C 3.1982 -1.66028 -3.02537 0
M  V30 31 C 2.3112 -2.92855 -3.17585 0
M  V30 32 C 1.4462 -2.87952 -4.46382 0
M  V30 33 C 0.4852 -4.09516 -4.54932 0
M  V30 34 N -0.3778 -4.02733 -5.75109 0
M  V30 35 H 4.4622 -2.56529 -1.51647 0
M  V30 36 H 1.9992 -1.27224 -0.738414 0
M  V30 37 H 3.9572 -1.66265 -3.82638 0
M  V30 38 H 2.5872 -0.751331 -3.13934 0
M  V30 39 H 1.6392 -3.02395 -2.30784 0
M  V30 40 H 2.9512 -3.82822 -3.19764 0
M  V30 41 H 2.1052 -2.8655 -5.34765 0
M  V30 42 H 0.8442 -1.95702 -4.46712 0
M  V30 43 H -0.1508 -4.11201 -3.64957 0
M  V30 44 H 1.0742 -5.02917 -4.56346 0
M  V30 45 H -0.9798 -3.13299 -5.76351 0
M  V30 46 H -1.0628 -4.86397 -5.78752 0
M  V30 47 H 0.2052 -4.05379 -6.65799 0
M  V30 48 N 4.4343 0.785586 -1.36625 0
M  V30 49 C 5.3443 1.92964 -1.33425 0
M  V30 50 C 6.3603 1.72394 -0.235851 0
M  V30 51 O 7.5363 1.95866 -0.468878 0
M  V30 52 C 4.6013 3.27884 -1.12662 0
M  V30 53 C 3.6623 3.61204 -2.32013 0
M  V30 54 C 2.8953 4.89687 -2.12231 0
M  V30 55 O 3.1183 5.59704 -1.09945 0
M  V30 56 O 2.0523 5.21752 -3.00098 0
M  V30 57 H 5.8783 1.98613 -2.29753 0
M  V30 58 H 3.4633 0.926384 -1.17211 0
M  V30 59 H 5.3453 4.08614 -1.03016 0
M  V30 60 H 4.0203 3.23118 -0.193991 0
M  V30 61 H 2.9273 2.80765 -2.47228 0
M  V30 62 H 4.2603 3.70698 -3.23796 0
M  V30 63 N 5.9124 1.20967 1.01018 0
M  V30 64 C 6.8594 0.964281 2.09691 0
M  V30 65 C 7.8294 -0.107853 1.65749 0
M  V30 66 O 9.0144 0.0381987 1.90762 0
M  V30 67 C 6.1544 0.52943 3.41015 0
M  V30 68 C 5.2674 1.67043 3.98398 0
M  V30 69 C 4.4024 1.18525 5.17808 0
M  V30 70 C 3.4414 2.29892 5.67288 0
M  V30 71 N 2.5784 1.82546 6.77954 0
M  V30 72 H 7.4184 1.89463 2.30017 0
M  V30 73 H 4.9554 0.944289 1.1279 0
M  V30 74 H 6.9134 0.258588 4.16398 0
M  V30 75 H 5.5434 -0.363919 3.20742 0
M  V30 76 H 4.5954 2.05603 3.20049 0
M  V30 77 H 5.9074 2.50877 4.31117 0
M  V30 78 H 5.0614 0.870762 6.00419 0
M  V30 79 H 3.8004 0.316887 4.86669 0
M  V30 80 H 2.8054 2.6215 4.83278 0
M  V30 81 H 4.0304 3.17216 6.00459 0
M  V30 82 H 1.9764 0.980454 6.48632 0
M  V30 83 H 1.8934 2.59956 7.09901 0
M  V30 84 H 3.1614 1.54115 7.64113 0
M  V30 85 N 7.3905 -1.2043 1.01659 0
M  V30 86 C 8.6185 -1.93777 0.725132 0
M  V30 87 C 9.0335 -1.74772 -0.714166 0
M  V30 88 O 8.3905 -1.06169 -1.4844 0
M  V30 89 C 8.4415 -3.45876 1.05129 0
M  V30 90 O 8.1625 -3.6426 2.43406 0
M  V30 91 C 9.6635 -4.36368 0.780891 0
M  V30 92 H 6.8835 -0.615901 0.266284 0
M  V30 93 H 9.4275 -1.52922 1.35776 0
M  V30 94 H 7.5825 -3.8461 0.464065 0
M  V30 95 H 7.9965 -4.58246 2.55169 0
M  V30 96 H 9.4705 -5.41743 1.05918 0
M  V30 97 H 9.9475 -4.38275 -0.284937 0
M  V30 98 H 10.5535 -4.03296 1.35027 0
M  V30 99 N 8.8686 -0.792821 -1.36206 0
M  V30 100 C 9.8186 -0.166598 -2.27391 0
M  V30 101 C 10.8026 0.651479 -1.47121 0
M  V30 102 O 11.9946 0.510994 -1.69463 0
M  V30 103 C 9.1236 0.695033 -3.36191 0
M  V30 104 C 8.2096 -0.132019 -4.23894 0
M  V30 105 N 8.6006 -1.18822 -4.91645 0
M  V30 106 C 6.8986 0.0885952 -4.45912 0
M  V30 107 C 7.5996 -1.69198 -5.56549 0
M  V30 108 N 6.5756 -1.00065 -5.34311 0
M  V30 109 H 10.3776 -0.974947 -2.77258 0
M  V30 110 H 7.8916 -0.632616 -1.49572 0
M  V30 111 H 9.8886 1.1596 -4.00448 0
M  V30 112 H 8.5486 1.50189 -2.87877 0
M  V30 113 H 9.5596 -1.57069 -4.93507 0
M  V30 114 H 6.2366 0.865688 -4.08426 0
M  V30 115 H 7.6266 -2.57395 -6.20643 0
M  V30 116 N 10.3467 1.47872 -0.545128 0
M  V30 117 C 11.5957 2.01695 -0.0145033 0
M  V30 118 C 11.9087 1.42609 1.33873 0
M  V30 119 O 13.1147 1.88021 1.95858 0
M  V30 120 C 11.5707 3.59892 0.0245068 0
M  V30 121 C 11.1787 4.27966 -1.32475 0
M  V30 122 C 12.9227 4.21507 0.50316 0
M  V30 123 C 10.8297 5.78136 -1.2455 0
M  V30 124 H 9.7597 0.753998 -0.00165172 0
M  V30 125 H 12.4107 1.69985 -0.691175 0
M  V30 126 H 10.7927 3.88509 0.766575 0
M  V30 127 H 11.9667 4.11003 -2.08357 0
M  V30 128 H 10.2817 3.78286 -1.74036 0
M  V30 129 H 12.8787 5.31538 0.580656 0
M  V30 130 H 13.2217 3.87855 1.51243 0
M  V30 131 H 13.7547 3.97376 -0.183681 0
M  V30 132 H 10.4937 6.16388 -2.23039 0
M  V30 133 H 10.0137 5.97469 -0.528282 0
M  V30 134 H 11.6927 6.40099 -0.942488 0
M  V30 135 N 11.8248 0.280983 1.55075 0
M  V30 136 C 12.7728 -0.619864 2.24188 0
M  V30 137 C 13.7668 -1.15315 1.24092 0
M  V30 138 O 14.9728 -1.1061 1.42005 0
M  V30 139 H 11.3478 -0.218459 0.719569 0
M  V30 140 H 13.3188 -0.0141831 2.98397 0
M  V30 141 C 12.0678 -1.7899 2.98091 0
M  V30 142 H 11.3908 -1.38874 3.74905 0
M  V30 143 H 12.8308 -2.39672 3.49762 0
M  V30 144 C 11.2898 -2.68192 2.03899 0
M  V30 145 O 11.8198 -3.6872 1.594 0
M  V30 146 N 10.0258 -2.35488 1.70275 0
M  V30 147 H 9.5728 -1.53787 2.06658 0
M  V30 148 H 9.5308 -2.95442 1.07524 0
M  V30 149 N 13.3029 -1.57598 0.00835791 0
M  V30 150 C 14.2329 -2.1198 -0.979113 0
M  V30 151 C 15.2139 -1.03091 -1.35301 0
M  V30 152 O 16.3989 -1.30818 -1.43528 0
M  V30 153 C 13.5289 -2.62995 -2.26828 0
M  V30 154 C 12.4829 -3.76485 -2.03576 0
M  V30 155 C 11.8089 -4.13846 -3.38579 0
M  V30 156 C 13.1089 -5.0342 -1.39161 0
M  V30 157 H 14.8029 -2.94738 -0.526281 0
M  V30 158 H 12.3489 -1.41783 -0.251704 0
M  V30 159 H 14.3019 -2.99669 -2.96271 0
M  V30 160 H 13.0259 -1.7737 -2.7424 0
M  V30 161 H 11.6849 -3.40217 -1.36557 0
M  V30 162 H 11.3329 -3.25232 -3.83709 0
M  V30 163 H 11.0329 -4.90312 -3.23834 0
M  V30 164 H 12.5569 -4.53086 -4.09323 0
M  V30 165 H 13.9709 -5.37812 -1.98573 0
M  V30 166 H 12.3679 -5.84746 -1.34878 0
M  V30 167 H 13.4379 -4.83548 -0.361868 0
M  V30 168 N 14.781 0.264519 -1.55364 0
M  V30 169 C 16.027 0.99646 -1.76631 0
M  V30 170 C 16.36 1.85632 -0.570478 0
M  V30 171 O 15.635 1.89647 0.43175 0
M  V30 172 C 15.918 1.87187 -3.07625 0
M  V30 173 C 15.771 1.04138 -4.37579 0
M  V30 174 C 17.09 2.85749 -3.34717 0
M  V30 175 H 14.209 0.360841 -0.642622 0
M  V30 176 H 16.851 0.268218 -1.88097 0
M  V30 177 H 15.001 2.49279 -2.9798 0
M  V30 178 H 16.673 0.440517 -4.59192 0
M  V30 179 H 14.916 0.345115 -4.32425 0
M  V30 180 H 15.587 1.68729 -5.2558 0
M  V30 181 H 18.063 2.33793 -3.4421 0
M  V30 182 H 16.939 3.44136 -4.27623 0
M  V30 183 H 17.2 3.61311 -2.54768 0
M  V30 184 N 16.2591 1.48442 0.529413 0
M  V30 185 C 17.5051 1.5672 1.28711 0
M  V30 186 C 17.8381 0.2406 1.92704 0
M  V30 187 O 17.1131 -0.753454 1.79313 0
M  V30 188 C 17.3961 2.70587 2.37603 0
M  V30 189 C 17.2491 4.12953 1.78297 0
M  V30 190 C 18.5681 2.80212 3.39366 0
M  V30 191 H 15.6871 0.570474 0.466613 0
M  V30 192 H 18.3291 1.80617 0.589706 0
M  V30 193 H 16.4791 2.50342 2.97088 0
M  V30 194 H 18.1511 4.44639 1.22858 0
M  V30 195 H 16.3941 4.19927 1.0883 0
M  V30 196 H 17.0651 4.88448 2.57144 0
M  V30 197 H 19.5411 2.98553 2.89836 0
M  V30 198 H 18.4171 3.61611 4.12951 0
M  V30 199 H 18.6781 1.88393 3.99951 0
M  V30 200 N 17.7372 -0.778329 1.37039 0
M  V30 201 C 18.9862 -1.53189 1.3121 0
M  V30 202 C 19.2992 -1.95328 -0.103095 0
M  V30 203 O 20.5052 -2.70012 -0.283826 0
M  V30 204 C 18.9612 -2.76591 2.30272 0
M  V30 205 C 18.5692 -2.41577 3.77286 0
M  V30 206 C 20.3132 -3.5455 2.33441 0
M  V30 207 C 18.2202 -3.61441 4.68096 0
M  V30 208 H 17.1502 -0.5751 0.487622 0
M  V30 209 H 19.8012 -0.853101 1.62464 0
M  V30 210 H 18.1832 -3.46326 1.92027 0
M  V30 211 H 19.3572 -1.79668 4.2433 0
M  V30 212 H 17.6722 -1.76806 3.76999 0
M  V30 213 H 20.2692 -4.43628 2.98493 0
M  V30 214 H 20.6122 -3.93936 1.34611 0
M  V30 215 H 21.1452 -2.91805 2.7036 0
M  V30 216 H 17.8842 -3.27142 5.6803 0
M  V30 217 H 17.4042 -4.22478 4.25761 0
M  V30 218 H 19.0832 -4.28335 4.8491 0
M  V30 219 N 19.2153 -1.21501 -1.00376 0
M  V30 220 C 20.4633 -1.03095 -1.73827 0
M  V30 221 C 20.7843 0.436341 -1.90055 0
M  V30 222 O 20.0543 1.31466 -1.45236 0
M  V30 223 H 18.6343 -0.378487 -0.644016 0
M  V30 224 H 21.2963 -1.52831 -1.20949 0
M  V30 225 H 20.3923 -1.49991 -2.73695 0
M  V30 226 N 20.6934 1.19889 -1.02296 0
M  V30 227 C 21.6434 2.20777 -0.56934 0
M  V30 228 C 22.6274 1.56379 0.378741 0
M  V30 229 O 23.8194 1.75859 0.200673 0
M  V30 230 C 20.9484 3.43196 0.0845077 0
M  V30 231 C 20.0344 4.14749 -0.88566 0
M  V30 232 N 20.4254 4.62584 -2.04573 0
M  V30 233 C 18.7234 4.40347 -0.707835 0
M  V30 234 C 19.4244 5.17466 -2.65714 0
M  V30 235 N 18.4004 5.0791 -1.93723 0
M  V30 236 H 22.2024 2.55434 -1.45365 0
M  V30 237 H 19.7164 1.35897 -0.88915 0
M  V30 238 H 21.7134 4.14707 0.427067 0
M  V30 239 H 20.3734 3.10042 0.964574 0
M  V30 240 H 21.3844 4.57597 -2.4254 0
M  V30 241 H 18.0614 4.17317 0.12364 0
M  V30 242 H 19.4514 5.64808 -3.63925 0
M  V30 243 N 22.1715 0.800033 1.35784 0
M  V30 244 C 23.4175 0.377901 1.99248 0
M  V30 245 C 23.7505 -1.05052 1.63333 0
M  V30 246 O 23.0255 -1.72768 0.893385 0
M  V30 247 C 23.3085 0.553922 3.55814 0
M  V30 248 C 23.1615 2.0268 4.01548 0
M  V30 249 C 24.4805 -0.0244802 4.40093 0
M  V30 250 H 21.5995 0.138782 0.723815 0
M  V30 251 H 24.2415 1.00835 1.61035 0
M  V30 252 H 22.3915 0.0172398 3.88496 0
M  V30 253 H 24.0635 2.62536 3.79305 0
M  V30 254 H 22.3065 2.5256 3.52698 0
M  V30 255 H 22.9775 2.10087 5.10458 0
M  V30 256 H 25.4535 0.433775 4.13833 0
M  V30 257 H 24.3295 0.128637 5.48749 0
M  V30 258 H 24.5905 -1.11758 4.27741 0
M  V30 259 N 23.6496 -1.47581 0.552962 0
M  V30 260 C 24.9266 -1.95563 -0.0381515 0
M  V30 261 C 25.3066 -1.49552 -1.48988 0
M  V30 262 O 24.6546 -0.732414 -2.16444 0
M  V30 263 C 24.8646 -3.48848 0.102919 0
M  V30 264 C 26.2126 -4.24577 -0.0446082 0
M  V30 265 O 27.2366 -3.56187 0.0302548 0
M  V30 266 O 26.0956 -5.46116 -0.204923 0
M  V30 267 H 23.1896 -0.824321 -0.0665067 0
M  V30 268 H 25.7356 -1.58001 0.619186 0
M  V30 269 H 24.5076 -3.75129 1.11328 0
M  V30 270 H 24.1306 -3.93165 -0.592224 0
M  V30 271 N 25.1277 -0.289203 -1.54924 0
M  V30 272 C 26.3527 0.329299 -2.04769 0
M  V30 273 C 26.7777 1.4763 -1.16564 0
M  V30 274 O 26.1357 1.80527 -0.167186 0
M  V30 275 C 26.1837 0.774438 -3.52186 0
M  V30 276 O 25.2877 1.88038 -3.67036 0
M  V30 277 H 24.6287 0.0659259 -0.660719 0
M  V30 278 H 27.1587 -0.42761 -2.00082 0
M  V30 279 H 27.1687 1.06642 -3.93816 0
M  V30 280 H 25.8437 -0.0646707 -4.1585 0
M  V30 281 H 24.4207 1.58985 -3.3731 0
M  V30 282 N 26.6058 1.57591 -0.0167156 0
M  V30 283 C 27.8538 1.90906 0.663285 0
M  V30 284 C 28.1748 0.892509 1.73376 0
M  V30 285 O 27.4448 -0.0677623 1.95783 0
M  V30 286 H 26.0248 0.704637 0.247983 0
M  V30 287 H 28.6868 1.94803 -0.0615909 0
M  V30 288 H 27.7828 2.9116 1.12393 0
M  V30 289 N 28.0839 -0.256276 1.55502 0
M  V30 290 C 29.0309 -1.31714 1.89526 0
M  V30 291 C 30.0009 -1.4828 0.748479 0
M  V30 292 O 31.1859 -1.62416 1.00128 0
M  V30 293 C 28.3259 -2.66933 2.18725 0
M  V30 294 C 27.4389 -2.58452 3.4616 0
M  V30 295 C 26.5739 -3.85961 3.64976 0
M  V30 296 C 25.6129 -3.72059 4.86044 0
M  V30 297 N 24.7499 -4.9144 5.01429 0
M  V30 298 H 29.5899 -1.01998 2.80001 0
M  V30 299 H 27.1269 -0.492413 1.38613 0
M  V30 300 H 29.0849 -3.4563 2.33657 0
M  V30 301 H 27.7149 -2.94816 1.31466 0
M  V30 302 H 26.7669 -1.71374 3.3961 0
M  V30 303 H 28.0789 -2.44085 4.34999 0
M  V30 304 H 27.2329 -4.73101 3.79816 0
M  V30 305 H 25.9719 -4.03215 2.74353 0
M  V30 306 H 24.9769 -2.83302 4.7119 0
M  V30 307 H 26.2019 -3.56309 5.78118 0
M  V30 308 H 24.1479 -5.09072 4.13741 0
M  V30 309 H 24.0649 -4.79668 5.84341 0
M  V30 310 H 25.3329 -5.80104 5.20672 0
M  V30 311 N 29.562 -1.4872 -0.521534 0
M  V30 312 C 30.787 -1.61101 -1.30618 0
M  V30 313 C 31.212 -0.274611 -1.86085 0
M  V30 314 O 30.57 0.754937 -1.64834 0
M  V30 315 C 30.618 -2.66709 -2.4269 0
M  V30 316 O 29.722 -2.24456 -3.45967 0
M  V30 317 H 29.063 -0.539921 -0.386499 0
M  V30 318 H 31.593 -1.94767 -0.626645 0
M  V30 319 H 31.603 -2.88245 -2.88754 0
M  V30 320 H 30.278 -3.63727 -2.01682 0
M  V30 321 H 28.855 -2.13168 -3.05964 0
M  V30 322 N 31.0401 0.771051 -1.3745 0
M  V30 323 C 32.2681 1.56015 -1.35893 0
M  V30 324 C 32.6831 1.88718 0.0555523 0
M  V30 325 O 32.0401 1.51502 1.01752 0
M  V30 326 C 32.0911 2.87001 -2.19801 0
M  V30 327 O 31.8121 2.557 -3.55738 0
M  V30 328 C 33.3131 3.81228 -2.26231 0
M  V30 329 H 30.5331 0.483317 -0.465453 0
M  V30 330 H 33.0771 0.955611 -1.80799 0
M  V30 331 H 31.2321 3.43877 -1.78402 0
M  V30 332 H 31.6461 3.39584 -3.99729 0
M  V30 333 H 33.1201 4.70139 -2.89263 0
M  V30 334 H 33.5971 4.20409 -1.27093 0
M  V30 335 H 34.2031 3.30281 -2.67945 0
M  V30 336 N 32.5182 1.22032 0.997298 0
M  V30 337 C 33.7462 1.06841 1.7718 0
M  V30 338 C 34.1612 -0.381325 1.84909 0
M  V30 339 O 33.5182 -1.26437 1.31605 0
M  V30 340 C 33.5692 1.66814 3.20711 0
M  V30 341 O 33.2902 3.06116 3.13408 0
M  V30 342 C 34.7912 1.56838 4.14628 0
M  V30 343 H 32.0112 0.374782 0.556578 0
M  V30 344 H 34.5552 1.61532 1.2541 0
M  V30 345 H 32.7102 1.16196 3.69564 0
M  V30 346 H 33.1242 3.34926 4.0364 0
M  V30 347 H 34.5982 2.03532 5.13107 0
M  V30 348 H 35.0752 0.524155 4.36061 0
M  V30 349 H 35.6812 2.06741 3.7167 0
M  V30 350 N 33.9963 -1.19345 1.0293 0
M  V30 351 C 35.2243 -1.92997 0.745644 0
M  V30 352 C 35.6393 -1.75519 -0.695589 0
M  V30 353 O 34.9963 -1.07737 -1.47306 0
M  V30 354 C 35.0473 -3.44741 1.08792 0
M  V30 355 O 34.7683 -3.61658 2.47256 0
M  V30 356 C 36.2693 -4.35515 0.827129 0
M  V30 357 H 33.4893 -0.613042 0.272801 0
M  V30 358 H 36.0333 -1.51473 1.3739 0
M  V30 359 H 34.1883 -3.84097 0.504832 0
M  V30 360 H 34.6023 -4.55514 2.60015 0
M  V30 361 H 36.0763 -5.40589 1.11658 0
M  V30 362 H 36.5533 -4.38552 -0.238436 0
M  V30 363 H 37.1593 -4.01841 1.39297 0
M  V30 364 N 35.4744 -0.807222 -1.35358 0
M  V30 365 C 36.7224 -0.387122 -1.98358 0
M  V30 366 C 37.0434 1.04942 -1.64354 0
M  V30 367 O 36.3134 1.72615 -0.926339 0
M  V30 368 H 34.8934 -0.140154 -0.733734 0
M  V30 369 H 37.5554 -1.0332 -1.6526 0
M  V30 370 H 36.6514 -0.493352 -3.08176 0
M  V30 371 N 36.9525 1.47285 -0.560781 0
M  V30 372 C 37.9025 2.27073 0.205384 0
M  V30 373 C 38.8865 1.34569 0.882044 0
M  V30 374 O 40.0785 1.58899 0.77976 0
M  V30 375 C 37.2075 3.20414 1.23247 0
M  V30 376 C 36.2935 4.20399 0.559041 0
M  V30 377 N 36.6845 5.04423 -0.372927 0
M  V30 378 C 34.9825 4.38536 0.812522 0
M  V30 379 C 35.6835 5.76655 -0.764446 0
M  V30 380 N 34.6595 5.43471 -0.11848 0
M  V30 381 H 38.4615 2.89422 -0.511117 0
M  V30 382 H 35.9755 1.57868 -0.380975 0
M  V30 383 H 37.9725 3.76262 1.79534 0
M  V30 384 H 36.6325 2.59623 1.95002 0
M  V30 385 H 37.6435 5.1248 -0.747287 0
M  V30 386 H 34.3205 3.88913 1.51832 0
M  V30 387 H 35.7105 6.54238 -1.53045 0
M  V30 388 N 38.4306 0.297415 1.54768 0
M  V30 389 C 39.6796 -0.313669 1.99246 0
M  V30 390 C 39.9926 -1.55281 1.18942 0
M  V30 391 O 41.1986 -2.23825 1.5367 0
M  V30 392 C 39.6546 -0.609407 3.54703 0
M  V30 393 C 39.2626 0.611192 4.43811 0
M  V30 394 C 41.0066 -1.18188 4.07715 0
M  V30 395 C 38.9136 0.288805 5.90694 0
M  V30 396 H 37.8436 -0.120979 0.744231 0
M  V30 397 H 40.4946 0.40556 1.78962 0
M  V30 398 H 38.8766 -1.38813 3.70873 0
M  V30 399 H 40.0506 1.3875 4.39414 0
M  V30 400 H 38.3656 1.10205 4.01552 0
M  V30 401 H 40.9626 -1.43727 5.15021 0
M  V30 402 H 41.3056 -2.12299 3.58099 0
M  V30 403 H 41.8386 -0.464944 3.95074 0
M  V30 404 H 38.5776 1.19838 6.44453 0
M  V30 405 H 38.0976 -0.450305 5.98107 0
M  V30 406 H 39.7766 -0.110933 6.46905 0
M  V30 407 N 39.9087 -1.5758 0.0250728 0
M  V30 408 C 41.1577 -1.90811 -0.653767 0
M  V30 409 C 41.4707 -0.90273 -1.73523 0
M  V30 410 O 42.6767 -1.12614 -2.47043 0
M  V30 411 C 41.1327 -3.38804 -1.21409 0
M  V30 412 C 40.7407 -4.47692 -0.166126 0
M  V30 413 C 42.4847 -3.81108 -1.86967 0
M  V30 414 C 40.3917 -5.86779 -0.737856 0
M  V30 415 H 39.3217 -0.712063 -0.247956 0
M  V30 416 H 41.9727 -1.83281 0.0897137 0
M  V30 417 H 40.3547 -3.41252 -2.00905 0
M  V30 418 H 41.5287 -4.56797 0.606079 0
M  V30 419 H 39.8437 -4.14565 0.390466 0
M  V30 420 H 42.4407 -4.82375 -2.30692 0
M  V30 421 H 42.7837 -3.15953 -2.71071 0
M  V30 422 H 43.3167 -3.81065 -1.14167 0
M  V30 423 H 40.0557 -6.55468 0.0649577 0
M  V30 424 H 39.5757 -5.81288 -1.47864 0
M  V30 425 H 41.2547 -6.35223 -1.22884 0
M  V30 426 N 41.3868 0.248026 -1.55636 0
M  V30 427 C 42.6168 0.992367 -1.81206 0
M  V30 428 C 43.0248 1.7949 -0.598324 0
M  V30 429 O 42.3678 1.78292 0.442434 0
M  V30 430 C 42.4298 1.97926 -3.00109 0
M  V30 431 C 42.0938 1.36377 -4.36177 0
M  V30 432 C 43.0908 0.76682 -5.14214 0
M  V30 433 C 40.7758 1.38347 -4.82872 0
M  V30 434 C 42.7698 0.197778 -6.37093 0
M  V30 435 C 40.4568 0.810574 -6.057 0
M  V30 436 C 41.4548 0.218754 -6.8265 0
M  V30 437 O 41.1428 -0.345298 -8.03158 0
M  V30 438 H 40.8748 0.297704 -0.606917 0
M  V30 439 H 43.4288 0.276517 -2.0353 0
M  V30 440 H 41.6588 2.73339 -2.73538 0
M  V30 441 H 43.3478 2.58694 -3.12781 0
M  V30 442 H 44.1138 0.744114 -4.79258 0
M  V30 443 H 39.9928 1.8335 -4.2297 0
M  V30 444 H 43.5368 -0.264788 -6.97097 0
M  V30 445 H 39.4338 0.830604 -6.40134 0
M  V30 446 H 40.2018 -0.237055 -8.18157 0
M  V30 447 N 42.8649 1.48995 0.513639 0
M  V30 448 C 43.8119 1.6473 1.61656 0
M  V30 449 C 44.7819 0.488984 1.58739 0
M  V30 450 O 45.9669 0.714478 1.76918 0
M  V30 451 C 43.1069 1.7082 2.99858 0
M  V30 452 C 42.2199 2.9787 3.12885 0
M  V30 453 C 41.3549 2.95017 4.41744 0
M  V30 454 C 40.3939 4.16702 4.48359 0
M  V30 455 N 39.5309 4.11832 5.68629 0
M  V30 456 H 44.3709 2.58909 1.47547 0
M  V30 457 H 41.9079 1.28382 0.71808 0
M  V30 458 H 43.8659 1.72331 3.79944 0
M  V30 459 H 42.4959 0.801181 3.12699 0
M  V30 460 H 41.5479 3.06029 2.25944 0
M  V30 461 H 42.8599 3.8786 3.13633 0
M  V30 462 H 42.0139 2.95021 5.30139 0
M  V30 463 H 40.7529 2.02784 4.43542 0
M  V30 464 H 39.7579 4.16955 3.58369 0
M  V30 465 H 40.9829 5.10113 4.48287 0
M  V30 466 H 38.9289 3.22428 5.71293 0
M  V30 467 H 38.8459 4.95543 5.7094 0
M  V30 468 H 40.1139 4.1592 6.59266 0
M  V30 469 N 44.343 -0.763751 1.37857 0
M  V30 470 C 45.273 -1.89103 1.36975 0
M  V30 471 C 46.254 -1.68439 0.237152 0
M  V30 472 O 47.439 -1.8918 0.438713 0
M  V30 473 C 44.569 -3.26496 1.18395 0
M  V30 474 C 43.523 -3.61741 2.28751 0
M  V30 475 C 42.849 -4.97762 1.95286 0
M  V30 476 C 44.149 -3.67665 3.70972 0
M  V30 477 H 45.843 -1.90099 2.31307 0
M  V30 478 H 43.389 -0.91319 1.11341 0
M  V30 479 H 45.342 -4.05003 1.16406 0
M  V30 480 H 44.066 -3.25955 0.205215 0
M  V30 481 H 42.725 -2.85547 2.29909 0
M  V30 482 H 42.373 -4.93769 0.959221 0
M  V30 483 H 42.073 -5.22313 2.69189 0
M  V30 484 H 43.597 -5.7866 1.94898 0
M  V30 485 H 45.011 -4.36307 3.719 0
M  V30 486 H 43.408 -4.03718 4.43995 0
M  V30 487 H 44.478 -2.68134 4.0402 0
M  V30 488 N 45.8211 -1.22559 -0.990812 0
M  V30 489 C 47.0691 -1.04933 -1.72724 0
M  V30 490 C 47.3901 0.416158 -1.90508 0
M  V30 491 O 46.6601 1.29918 -1.46622 0
M  V30 492 H 45.2401 -0.385296 -0.639965 0
M  V30 493 H 47.9021 -1.54105 -1.19322 0
M  V30 494 H 46.9981 -1.52886 -2.72089 0
M  V30 495 N 47.2992 1.18797 -1.03562 0
M  V30 496 C 48.5472 1.88278 -0.734569 0
M  V30 497 C 48.8682 1.8043 0.739586 0
M  V30 498 O 48.1382 1.21925 1.53333 0
M  V30 499 H 46.7182 0.696991 -0.268725 0
M  V30 500 H 49.3802 1.44192 -1.31129 0
M  V30 501 H 48.4762 2.94443 -1.03489 0
M  V30 502 N 48.7773 0.814389 1.34928 0
M  V30 503 C 50.0263 0.394871 1.97797 0
M  V30 504 C 50.3393 -1.04555 1.65311 0
M  V30 505 O 51.5453 -1.56856 2.21604 0
M  V30 506 C 50.0013 0.655103 3.53888 0
M  V30 507 C 49.6093 2.10858 3.95276 0
M  V30 508 C 51.3533 0.301329 4.23429 0
M  V30 509 C 49.2603 2.31415 5.44244 0
M  V30 510 H 48.1903 0.143913 0.740139 0
M  V30 511 H 50.8413 0.999544 1.53888 0
M  V30 512 H 49.2233 -0.0196253 3.95995 0
M  V30 513 H 50.3973 2.82176 3.64298 0
M  V30 514 H 48.7123 2.42297 3.38646 0
M  V30 515 H 51.3093 0.432869 5.32945 0
M  V30 516 H 51.6523 -0.75331 4.09428 0
M  V30 517 H 52.1853 0.930288 3.86769 0
M  V30 518 H 48.9243 3.35353 5.63222 0
M  V30 519 H 48.4443 1.6463 5.76764 0
M  V30 520 H 50.1233 2.13352 6.10811 0
M  V30 521 N 50.2554 -1.46986 0.568584 0
M  V30 522 C 51.5324 -1.95592 -0.0174074 0
M  V30 523 C 51.9124 -1.51124 -1.47393 0
M  V30 524 O 51.2604 -0.755329 -2.15655 0
M  V30 525 C 51.4704 -3.48719 0.139913 0
M  V30 526 C 52.8184 -4.246 0.000426376 0
M  V30 527 O 53.8424 -3.56135 0.0680316 0
M  V30 528 O 52.7014 -5.46302 -0.146988 0
M  V30 529 H 49.7954 -0.82498 -0.0577599 0
M  V30 530 H 52.3414 -1.57335 0.635909 0
M  V30 531 H 51.1134 -3.73927 1.15301 0
M  V30 532 H 50.7364 -3.93771 -0.550491 0
M  V30 533 N 51.7335 -0.305618 -1.54608 0
M  V30 534 C 53.1495 0.0476228 -1.59529 0
M  V30 535 C 53.3495 1.52025 -1.32252 0
M  V30 536 O 52.4055 2.27368 -1.09818 0
M  V30 537 C 53.7185 -0.354471 -2.98603 0
M  V30 538 C 55.2665 -0.303622 -3.11524 0
M  V30 539 C 55.7415 -0.680608 -4.52915 0
M  V30 540 N 57.2325 -0.63332 -4.5885 0
M  V30 541 C 57.9675 -0.897432 -5.66334 0
M  V30 542 N 57.4635 -1.22775 -6.81834 0
M  V30 543 N 59.2565 -0.824186 -5.56025 0
M  V30 544 H 51.4075 -1.2653 -1.70599 0
M  V30 545 H 53.6705 -0.513291 -0.797017 0
M  V30 546 H 53.3765 -1.3798 -3.23503 0
M  V30 547 H 53.2505 0.289568 -3.76087 0
M  V30 548 H 55.6375 0.712472 -2.8637 0
M  V30 549 H 55.7185 -0.982348 -2.36185 0
M  V30 550 H 55.3625 -1.69453 -4.78799 0
M  V30 551 H 55.2925 0.0202385 -5.26596 0
M  V30 552 H 57.7835 -0.389138 -3.75891 0
M  V30 553 H 58.0965 -1.41513 -7.59733 0
M  V30 554 H 56.4415 -1.26583 -6.83375 0
M  V30 555 H 59.6325 -0.565748 -4.64669 0
M  V30 556 H 59.8055 -1.03338 -6.39707 0
M  V30 557 N 53.2116 1.57565 -0.0334293 0
M  V30 558 C 54.6276 1.56297 0.322997 0
M  V30 559 C 54.8276 1.03945 1.7262 0
M  V30 560 O 53.8836 0.688109 2.42943 0
M  V30 561 C 55.1966 3.00232 0.167664 0
M  V30 562 C 56.7446 3.12078 0.240107 0
M  V30 563 C 57.2196 4.57859 0.113513 0
M  V30 564 N 58.7106 4.62887 0.170359 0
M  V30 565 C 59.4456 5.73319 0.0962517 0
M  V30 566 N 58.9416 6.92794 -0.0291881 0
M  V30 567 N 60.7346 5.61898 0.150551 0
M  V30 568 H 52.8856 1.89923 -0.950956 0
M  V30 569 H 55.1486 0.873824 -0.367608 0
M  V30 570 H 54.8546 3.42501 -0.799102 0
M  V30 571 H 54.7286 3.654 0.936083 0
M  V30 572 H 57.1156 2.69718 1.19733 0
M  V30 573 H 57.1966 2.49623 -0.558763 0
M  V30 574 H 56.8406 5.009 -0.840314 0
M  V30 575 H 56.7706 5.18299 0.931302 0
M  V30 576 H 59.2616 3.76954 0.26728 0
M  V30 577 H 59.5746 7.7276 -0.0789252 0
M  V30 578 H 57.9196 6.94971 -0.0640299 0
M  V30 579 H 61.1106 4.67448 0.246981 0
M  V30 580 H 61.2836 6.47938 0.0893365 0
M  V30 581 N 54.6897 -0.239769 1.55765 0
M  V30 582 C 55.9177 -0.98417 1.81994 0
M  V30 583 C 56.3327 -1.7867 0.610124 0
M  V30 584 O 55.6897 -1.77571 -0.421271 0
M  V30 585 C 55.7407 -1.91635 3.06526 0
M  V30 586 O 55.4617 -1.14629 4.22838 0
M  V30 587 C 56.9627 -2.77616 3.45607 0
M  V30 588 H 54.1827 -0.28928 0.605441 0
M  V30 589 H 56.7267 -0.260499 2.02834 0
M  V30 590 H 54.8817 -2.5942 2.87715 0
M  V30 591 H 55.2957 -1.77745 4.93464 0
M  V30 592 H 56.7697 -3.38759 4.35828 0
M  V30 593 H 57.2467 -3.4909 2.6652 0
M  V30 594 H 57.8527 -2.15271 3.66795 0
M  V30 595 N 56.1678 -1.49265 -0.50573 0
M  V30 596 C 57.4168 -1.57761 -1.25675 0
M  V30 597 C 57.7298 -0.267371 -1.93764 0
M  V30 598 O 58.9358 -0.230827 -2.70517 0
M  V30 599 C 57.3918 -2.78332 -2.28165 0
M  V30 600 C 56.9998 -4.16096 -1.66037 0
M  V30 601 C 58.7438 -2.96155 -3.04125 0
M  V30 602 C 56.6508 -5.27895 -2.6661 0
M  V30 603 H 55.5808 -0.587391 -0.472745 0
M  V30 604 H 58.2318 -1.75644 -0.53118 0
M  V30 605 H 56.6138 -2.53934 -3.03865 0
M  V30 606 H 57.7878 -4.50612 -0.963622 0
M  V30 607 H 56.1028 -4.03591 -1.02484 0
M  V30 608 H 58.6998 -3.76849 -3.79327 0
M  V30 609 H 59.0428 -2.06534 -3.61455 0
M  V30 610 H 59.5758 -3.2057 -2.35541 0
M  V30 611 H 56.3148 -6.1956 -2.14068 0
M  V30 612 H 55.8348 -4.97839 -3.34539 0
M  V30 613 H 57.5138 -5.57031 -3.29129 0
M  V30 614 N 57.6459 0.756429 -1.3826 0
M  V30 615 C 58.5559 1.9009 -1.37488 0
M  V30 616 C 59.5719 1.71855 -0.272366 0
M  V30 617 O 60.7479 1.94827 -0.510318 0
M  V30 618 C 57.8129 3.25421 -1.19592 0
M  V30 619 C 56.8739 3.56202 -2.39622 0
M  V30 620 C 56.1069 4.85075 -2.2257 0
M  V30 621 O 56.3299 5.57246 -1.21793 0
M  V30 622 O 55.2639 5.15269 -3.11098 0
M  V30 623 H 59.0899 1.93695 -2.33914 0
M  V30 624 H 56.6749 0.901313 -1.1915 0
M  V30 625 H 58.5569 4.06337 -1.11661 0
M  V30 626 H 57.2319 3.22634 -0.262486 0
M  V30 627 H 56.1389 2.75458 -2.53128 0
M  V30 628 H 57.4719 3.63747 -3.31586 0
M  V30 629 N 59.124 1.23083 0.984299 0
M  V30 630 C 60.071 1.00854 2.07598 0
M  V30 631 C 61.041 -0.0726709 1.65941 0
M  V30 632 O 62.226 0.0786535 1.90638 0
M  V30 633 C 59.366 0.601645 3.39815 0
M  V30 634 C 58.479 1.75456 3.94765 0
M  V30 635 C 57.614 1.29482 5.15177 0
M  V30 636 C 56.653 2.41873 5.62284 0
M  V30 637 N 55.79 1.96885 6.73929 0
M  V30 638 H 60.63 1.943 2.25946 0
M  V30 639 H 58.167 0.968001 1.10762 0
M  V30 640 H 60.125 0.346854 4.15756 0
M  V30 641 H 58.755 -0.295803 3.21442 0
M  V30 642 H 57.807 2.12346 3.15616 0
M  V30 643 H 59.119 2.59965 4.25699 0
M  V30 644 H 58.273 0.997923 5.98437 0
M  V30 645 H 57.012 0.420046 4.85888 0
M  V30 646 H 56.017 2.72342 4.77608 0
M  V30 647 H 57.242 3.29881 5.93595 0
M  V30 648 H 55.188 1.11782 6.46406 0
M  V30 649 H 55.105 2.74956 7.04227 0
M  V30 650 H 56.373 1.70289 7.60672 0
M  V30 651 N 60.6021 -1.18246 1.0419 0
M  V30 652 C 61.8491 -1.88257 0.746017 0
M  V30 653 C 62.1771 -1.80429 -0.726331 0
M  V30 654 O 61.4321 -1.2 -1.54591 0
M  V30 655 C 61.7311 -3.38082 1.15911 0
M  V30 656 C 61.3971 -3.66114 2.63195 0
M  V30 657 C 60.0591 -3.73474 3.03432 0
M  V30 658 C 62.4111 -3.78398 3.5842 0
M  V30 659 C 59.7391 -3.90599 4.37778 0
M  V30 660 C 62.0911 -3.97039 4.92487 0
M  V30 661 C 60.7551 -4.02635 5.32392 0
M  V30 662 H 60.0251 -0.688883 0.272987 0
M  V30 663 H 62.6721 -1.3995 1.30715 0
M  V30 664 H 60.9771 -3.88377 0.516806 0
M  V30 665 H 62.6741 -3.90596 0.907516 0
M  V30 666 H 59.2641 -3.61003 2.3103 0
M  V30 667 H 63.4481 -3.72042 3.28479 0
M  V30 668 H 58.7041 -3.93175 4.68213 0
M  V30 669 H 62.8781 -4.05486 5.66175 0
M  V30 670 H 60.5051 -4.15657 6.36501 0
M  V30 671 N 62.0802 -0.821533 -1.34494 0
M  V30 672 C 62.9902 -0.244355 -2.33324 0
M  V30 673 C 64.0062 0.620527 -1.62559 0
M  V30 674 O 65.1822 0.528754 -1.94335 0
M  V30 675 C 62.2472 0.585368 -3.41723 0
M  V30 676 C 61.3082 -0.301752 -4.28238 0
M  V30 677 C 60.5412 0.488466 -5.3146 0
M  V30 678 O 60.7642 1.72186 -5.4379 0
M  V30 679 O 59.6982 -0.12848 -6.01763 0
M  V30 680 H 63.5242 -1.06231 -2.84515 0
M  V30 681 H 61.1092 -0.583645 -1.37528 0
M  V30 682 H 62.9912 1.05747 -4.07916 0
M  V30 683 H 61.6662 1.38068 -2.92778 0
M  V30 684 H 60.5732 -0.821315 -3.64973 0
M  V30 685 H 61.9062 -1.06138 -4.8062 0
M  V30 686 N 63.5583 1.46682 -0.576371 0
M  V30 687 C 64.5053 2.30241 0.160499 0
M  V30 688 C 65.4753 1.40233 0.890162 0
M  V30 689 O 66.6603 1.69186 0.882084 0
M  V30 690 C 63.8003 3.24578 1.1723 0
M  V30 691 C 62.9133 4.29684 0.446736 0
M  V30 692 C 62.0483 5.11154 1.44551 0
M  V30 693 C 61.0873 6.08015 0.70599 0
M  V30 694 N 60.2243 6.82376 1.65251 0
M  V30 695 H 65.0643 2.92727 -0.558127 0
M  V30 696 H 62.6013 1.44272 -0.287056 0
M  V30 697 H 64.5593 3.77711 1.77172 0
M  V30 698 H 63.1893 2.63916 1.85872 0
M  V30 699 H 62.2413 3.79458 -0.267594 0
M  V30 700 H 63.5533 4.98626 -0.131686 0
M  V30 701 H 62.7073 5.68533 2.11791 0
M  V30 702 H 61.4463 4.42158 2.05786 0
M  V30 703 H 60.4513 5.49796 0.0197725 0
M  V30 704 H 61.6763 6.79028 0.09912 0
M  V30 705 H 59.6223 6.16094 2.25308 0
M  V30 706 H 59.5393 7.47556 1.12673 0
M  V30 707 H 60.8073 7.44316 2.31546 0
M  V30 708 N 65.0364 0.313813 1.54444 0
M  V30 709 C 65.9464 -0.565714 2.27677 0
M  V30 710 C 66.9624 -1.13754 1.31666 0
M  V30 711 O 68.1384 -1.15959 1.64668 0
M  V30 712 C 65.2034 -1.71528 3.01296 0
M  V30 713 C 64.2644 -1.17624 4.12872 0
M  V30 714 C 63.4974 -2.27102 4.8297 0
M  V30 715 O 63.7204 -3.47256 4.52514 0
M  V30 716 O 62.6544 -1.9307 5.70094 0
M  V30 717 H 66.4804 0.0287296 3.03686 0
M  V30 718 H 64.0654 0.0798312 1.49187 0
M  V30 719 H 65.9474 -2.38476 3.4743 0
M  V30 720 H 64.6224 -2.29608 2.2817 0
M  V30 721 H 63.5294 -0.472124 3.71109 0
M  V30 722 H 64.8624 -0.640695 4.88012 0
M  V30 723 N 66.5145 -1.57545 0.0417849 0
M  V30 724 C 67.7395 -1.97035 -0.647455 0
M  V30 725 C 68.1645 -0.918775 -1.64135 0
M  V30 726 O 67.5225 0.119006 -1.80909 0
M  V30 727 C 67.5705 -3.35609 -1.31905 0
M  V30 728 O 66.6745 -3.3287 -2.43457 0
M  V30 729 H 66.0155 -0.64211 -0.169086 0
M  V30 730 H 68.5455 -2.04318 0.107399 0
M  V30 731 H 68.5555 -3.72126 -1.67291 0
M  V30 732 H 67.2305 -4.11685 -0.590586 0
M  V30 733 H 65.8075 -3.08087 -2.10088 0
M  V30 734 N 67.9926 0.231505 -1.5589 0
M  V30 735 C 68.9556 1.27028 -1.90779 0
M  V30 736 C 69.9556 1.40308 -0.785507 0
M  V30 737 O 71.1456 1.38744 -1.05336 0
M  V30 738 C 68.2776 2.64566 -2.14983 0
M  V30 739 H 69.4706 0.973017 -2.83677 0
M  V30 740 H 67.0236 0.471486 -1.49019 0
M  V30 741 H 67.7586 2.99406 -1.24604 0
M  V30 742 H 67.5436 2.56305 -2.96732 0
M  V30 743 H 69.0336 3.39543 -2.43105 0
M  V30 744 N 69.4707 1.49531 0.497807 0
M  V30 745 C 70.3807 1.69176 1.62532 0
M  V30 746 C 71.3967 0.5744 1.64246 0
M  V30 747 O 72.5727 0.849497 1.82608 0
M  V30 748 C 69.6377 1.75695 2.98885 0
M  V30 749 C 68.6987 2.9929 3.07773 0
M  V30 750 C 67.9317 3.05488 4.37622 0
M  V30 751 O 68.1547 2.19192 5.26603 0
M  V30 752 O 67.0887 3.9798 4.51548 0
M  V30 753 H 70.9147 2.647 1.48887 0
M  V30 754 H 68.4997 1.3331 0.674441 0
M  V30 755 H 70.3817 1.82317 3.79919 0
M  V30 756 H 69.0567 0.8335 3.12785 0
M  V30 757 H 67.9637 2.98183 2.25915 0
M  V30 758 H 69.2967 3.91125 2.98801 0
M  V30 759 N 70.9488 -0.749086 1.3866 0
M  V30 760 C 71.8818 -1.87111 1.30631 0
M  V30 761 C 72.8598 -1.61572 0.18251 0
M  V30 762 O 74.0438 -1.85019 0.360592 0
M  V30 763 C 71.1708 -3.22815 1.02511 0
M  V30 764 C 70.2168 -3.67234 2.1689 0
M  V30 765 S 71.0498 -3.78245 3.79066 0
M  V30 766 C 72.2058 -5.16761 3.53142 0
M  V30 767 H 72.4388 -1.93636 2.25594 0
M  V30 768 H 69.9718 -0.912525 1.24549 0
M  V30 769 H 71.9298 -4.01181 0.869701 0
M  V30 770 H 70.5908 -3.13964 0.0925884 0
M  V30 771 H 69.7838 -4.65677 1.92771 0
M  V30 772 H 69.3858 -2.96034 2.28561 0
M  V30 773 H 71.6778 -6.02656 3.09534 0
M  V30 774 H 72.6208 -5.45902 4.50995 0
M  V30 775 H 73.0288 -4.85771 2.87554 0
M  V30 776 N 72.4269 -1.23603 -0.977757 0
M  V30 777 C 73.6749 -1.06759 -1.71601 0
M  V30 778 C 73.9959 0.395929 -1.90938 0
M  V30 779 O 73.2659 1.28356 -1.47992 0
M  V30 780 H 71.8459 -0.392062 -0.635843 0
M  V30 781 H 74.5079 -1.55362 -1.1768 0
M  V30 782 H 73.6039 -1.55763 -2.70452 0
M  V30 783 N 73.905 1.17692 -1.04816 0
M  V30 784 C 74.852 2.21581 -0.645797 0
M  V30 785 C 75.822 1.62367 0.350159 0
M  V30 786 O 77.007 1.89254 0.242433 0
M  V30 787 C 74.147 3.45092 -0.0227568 0
M  V30 788 C 73.26 4.18613 -1.06709 0
M  V30 789 C 72.395 5.29602 -0.411767 0
M  V30 790 C 71.434 5.94904 -1.44067 0
M  V30 791 N 70.571 6.97414 -0.809781 0
M  V30 792 H 75.411 2.55353 -1.5362 0
M  V30 793 H 72.948 1.25438 -0.768364 0
M  V30 794 H 74.906 4.15679 0.35588 0
M  V30 795 H 73.536 3.11917 0.831122 0
M  V30 796 H 72.588 3.46779 -1.5636 0
M  V30 797 H 73.9 4.63293 -1.84827 0
M  V30 798 H 73.054 6.06696 0.0206623 0
M  V30 799 H 71.793 4.86045 0.401438 0
M  V30 800 H 70.798 5.16544 -1.88316 0
M  V30 801 H 72.023 6.40542 -2.25571 0
M  V30 802 H 69.969 6.55998 -0.0170186 0
M  V30 803 H 69.886 7.40386 -1.52856 0
M  V30 804 H 71.154 7.78463 -0.401999 0
M  V30 805 N 75.3831 0.828654 1.34056 0
M  V30 806 C 76.6311 0.41863 1.97717 0
M  V30 807 C 76.9521 -1.02314 1.66002 0
M  V30 808 O 76.2221 -1.71119 0.953683 0
M  V30 809 H 74.8021 0.151809 0.731412 0
M  V30 810 H 77.4641 1.05936 1.63596 0
M  V30 811 H 76.5601 0.542318 3.07352 0
M  V30 812 N 76.8612 -1.46375 0.584142 0
M  V30 813 C 78.0862 -2.07268 0.0740405 0
M  V30 814 C 78.5112 -1.42979 -1.22223 0
M  V30 815 O 77.8692 -0.514092 -1.73859 0
M  V30 816 C 77.9172 -3.60518 -0.0767769 0
M  V30 817 O 77.0212 -3.96533 -1.13292 0
M  V30 818 H 76.3622 -0.660961 0.0634524 0
M  V30 819 H 78.8922 -1.87991 0.807492 0
M  V30 820 H 78.9022 -4.07021 -0.282489 0
M  V30 821 H 77.5772 -4.06702 0.86986 0
M  V30 822 H 76.1542 -3.61738 -0.905553 0
M  V30 823 N 78.3393 -0.321999 -1.54275 0
M  V30 824 C 79.5863 0.281044 -2.0054 0
M  V30 825 C 79.9143 1.52265 -1.21019 0
M  V30 826 O 79.1693 1.93687 -0.279982 0
M  V30 827 C 79.4683 0.661769 -3.5122 0
M  V30 828 C 79.1343 -0.480482 -4.48333 0
M  V30 829 C 77.7963 -0.794005 -4.74604 0
M  V30 830 C 80.1483 -1.24783 -5.06042 0
M  V30 831 C 77.4763 -1.87763 -5.55844 0
M  V30 832 C 79.8283 -2.32153 -5.88462 0
M  V30 833 C 78.4923 -2.64089 -6.13036 0
M  V30 834 H 77.7623 0.102841 -0.733829 0
M  V30 835 H 80.4093 -0.445453 -1.86247 0
M  V30 836 H 78.7143 1.46867 -3.63232 0
M  V30 837 H 80.4113 1.13989 -3.84457 0
M  V30 838 H 77.0013 -0.226039 -4.28004 0
M  V30 839 H 81.1853 -1.01887 -4.85729 0
M  V30 840 H 76.4413 -2.12954 -5.73115 0
M  V30 841 H 80.6153 -2.92057 -6.32199 0
M  V30 842 H 78.2423 -3.48185 -6.75775 0
M  V30 843 N 79.8174 1.5752 -0.0501392 0
M  V30 844 C 80.7644 2.1147 0.924603 0
M  V30 845 C 81.7344 1.02182 1.30951 0
M  V30 846 O 82.9194 1.29723 1.39916 0
M  V30 847 C 80.0594 2.66337 2.19451 0
M  V30 848 C 79.1724 3.89708 1.86418 0
M  V30 849 C 78.3074 4.32893 3.07859 0
M  V30 850 C 77.3464 5.48967 2.70742 0
M  V30 851 N 76.4834 5.87211 3.84874 0
M  V30 852 H 81.3234 2.94465 0.457639 0
M  V30 853 H 78.8604 1.45531 0.214266 0
M  V30 854 H 80.8184 2.96247 2.93758 0
M  V30 855 H 79.4484 1.86141 2.63726 0
M  V30 856 H 78.5004 3.66396 1.02264 0
M  V30 857 H 79.8124 4.74074 1.55096 0
M  V30 858 H 78.9664 4.6435 3.90466 0
M  V30 859 H 77.7054 3.47336 3.42358 0
M  V30 860 H 76.7104 5.17183 1.86551 0
M  V30 861 H 77.9354 6.3624 2.37436 0
M  V30 862 H 75.8814 5.04607 4.19175 0
M  V30 863 H 75.7984 6.66266 3.57247 0
M  V30 864 H 77.0664 6.23282 4.68123 0
M  V30 865 N 81.2955 -0.223234 1.56011 0
M  V30 866 C 82.5255 -0.963413 1.82762 0
M  V30 867 C 82.9335 -1.78516 0.626804 0
M  V30 868 O 82.2765 -1.78974 -0.414014 0
M  V30 869 C 82.3385 -1.93126 3.0322 0
M  V30 870 C 82.0025 -1.2942 4.38291 0
M  V30 871 C 82.9995 -0.684916 5.15369 0
M  V30 872 C 80.6845 -1.30647 4.85012 0
M  V30 873 C 82.6785 -0.0963971 6.37327 0
M  V30 874 C 80.3655 -0.71411 6.06913 0
M  V30 875 C 81.3635 -0.110123 6.82911 0
M  V30 876 O 81.0515 0.47303 8.02507 0
M  V30 877 H 80.7835 -0.288011 0.611576 0
M  V30 878 H 83.3375 -0.244103 2.03944 0
M  V30 879 H 81.5675 -2.68952 2.77852 0
M  V30 880 H 83.2565 -2.53685 3.16857 0
M  V30 881 H 84.0225 -0.667774 4.80381 0
M  V30 882 H 79.9015 -1.76598 4.25833 0
M  V30 883 H 83.4455 0.375657 6.96588 0
M  V30 884 H 79.3425 -0.728659 6.41374 0
M  V30 885 H 80.1105 0.367186 8.17676 0
M  V30 886 N 82.7736 -1.49793 -0.48987 0
M  V30 887 C 83.7366 -1.66752 -1.57246 0
M  V30 888 C 84.7366 -0.538867 -1.51502 0
M  V30 889 O 85.9266 -0.805545 -1.54456 0
M  V30 890 C 83.0586 -1.67528 -2.96896 0
M  V30 891 H 84.2516 -2.63321 -1.43534 0
M  V30 892 H 81.8046 -1.38992 -0.714914 0
M  V30 893 H 82.5396 -0.725837 -3.16073 0
M  V30 894 H 82.3246 -2.49504 -3.02473 0
M  V30 895 H 83.8146 -1.82667 -3.7553 0
M  V30 896 N 84.2517 0.741722 -1.39055 0
M  V30 897 C 85.4977 1.50234 -1.37118 0
M  V30 898 C 85.8527 1.92368 0.0350439 0
M  V30 899 O 85.1457 1.63422 1.00019 0
M  V30 900 C 85.3397 2.7592 -2.27163 0
M  V30 901 C 85.1687 2.46074 -3.76401 0
M  V30 902 C 83.9387 2.38704 -4.45364 0
M  V30 903 C 86.1367 2.12062 -4.68545 0
M  V30 904 N 84.1187 2.01258 -5.79973 0
M  V30 905 C 85.4897 1.85005 -5.91754 0
M  V30 906 C 87.5447 1.98473 -4.56632 0
M  V30 907 C 86.2477 1.4573 -7.04383 0
M  V30 908 C 88.2737 1.60599 -5.69176 0
M  V30 909 C 87.6357 1.34423 -6.91455 0
M  V30 910 H 83.7347 0.548858 -0.557027 0
M  V30 911 H 86.3187 0.862642 -1.74547 0
M  V30 912 H 84.4897 3.3768 -1.91904 0
M  V30 913 H 86.2217 3.42068 -2.16267 0
M  V30 914 H 82.9767 2.55574 -3.98721 0
M  V30 915 H 83.4007 1.85147 -6.51191 0
M  V30 916 H 88.0427 2.17381 -3.62637 0
M  V30 917 H 85.7607 1.25562 -7.98286 0
M  V30 918 H 89.3467 1.507 -5.61944 0
M  V30 919 H 88.2267 1.05555 -7.77064 0
M  V30 920 N 85.7298 1.2412 0.971189 0
M  V30 921 C 86.9758 1.08041 1.71625 0
M  V30 922 C 87.3088 -0.380407 1.90438 0
M  V30 923 O 86.5838 -1.28127 1.46334 0
M  V30 924 C 86.8668 1.81682 3.10908 0
M  V30 925 C 86.7198 3.35493 2.99608 0
M  V30 926 C 88.0388 1.58671 4.10501 0
M  V30 927 H 85.1578 0.39388 0.622919 0
M  V30 928 H 87.7998 1.52743 1.13003 0
M  V30 929 H 85.9498 1.43684 3.60953 0
M  V30 930 H 87.6218 3.83068 2.57015 0
M  V30 931 H 85.8648 3.64052 2.35899 0
M  V30 932 H 86.5358 3.82217 3.98264 0
M  V30 933 H 89.0118 1.91719 3.69301 0
M  V30 934 H 87.8878 2.1266 5.06031 0
M  V30 935 H 88.1488 0.524161 4.38982 0
M  V30 936 N 87.2079 -1.17134 1.05439 0
M  V30 937 C 88.1379 -2.2342 0.678649 0
M  V30 938 C 89.1189 -1.66971 -0.32476 0
M  V30 939 O 90.3039 -1.93149 -0.201802 0
M  V30 940 C 87.4339 -3.47256 0.0552099 0
M  V30 941 C 86.3879 -4.16543 0.98365 0
M  V30 942 C 85.7139 -5.34231 0.223961 0
M  V30 943 C 87.0139 -4.68495 2.3089 0
M  V30 944 H 88.7079 -2.55105 1.56722 0
M  V30 945 H 86.2539 -1.2262 0.754998 0
M  V30 946 H 88.2069 -4.20828 -0.21946 0
M  V30 947 H 86.9309 -3.14846 -0.868319 0
M  V30 948 H 85.5899 -3.44887 1.24293 0
M  V30 949 H 85.2379 -4.98071 -0.702412 0
M  V30 950 H 84.9379 -5.81527 0.842627 0
M  V30 951 H 86.4619 -6.10585 -0.0433671 0
M  V30 952 H 87.8759 -5.33691 2.09396 0
M  V30 953 H 86.2729 -5.26379 2.88176 0
M  V30 954 H 87.3429 -3.85169 2.94572 0
M  V30 955 N 88.686 -0.835752 -1.33615 0
M  V30 956 C 89.963 -0.352017 -1.92406 0
M  V30 957 C 90.343 1.16225 -1.76224 0
M  V30 958 O 89.691 1.97526 -1.14873 0
M  V30 959 C 89.901 -0.795485 -3.39813 0
M  V30 960 C 91.249 -0.801703 -4.16963 0
M  V30 961 O 92.273 -0.738889 -3.48452 0
M  V30 962 O 91.132 -0.886607 -5.3926 0
M  V30 963 H 88.226 -0.0989641 -0.821057 0
M  V30 964 H 90.772 -0.921397 -1.42507 0
M  V30 965 H 89.544 -1.83795 -3.45449 0
M  V30 966 H 89.167 -0.202505 -3.97084 0
M  V30 967 N 90.1641 1.46063 -0.591896 0
M  V30 968 C 91.1111 2.30399 0.136069 0
M  V30 969 C 92.0811 1.41169 0.875238 0
M  V30 970 O 93.2661 1.70112 0.86409 0
M  V30 971 C 90.4061 3.25804 1.13781 0
M  V30 972 C 89.5191 4.30134 0.401137 0
M  V30 973 C 88.6541 5.12659 1.39121 0
M  V30 974 C 87.6931 6.0873 0.641462 0
M  V30 975 N 86.8301 6.8409 1.58004 0
M  V30 976 H 91.6701 2.92118 -0.589144 0
M  V30 977 H 89.2071 1.43959 -0.302342 0
M  V30 978 H 91.1651 3.79569 1.73156 0
M  V30 979 H 89.7951 2.65872 1.83062 0
M  V30 980 H 88.8471 3.79152 -0.307826 0
M  V30 981 H 90.1591 4.98458 -0.184565 0
M  V30 982 H 89.3131 5.70747 2.05749 0
M  V30 983 H 88.0521 4.44316 2.01084 0
M  V30 984 H 87.0571 5.49786 -0.0385419 0
M  V30 985 H 88.2821 6.79095 0.0270945 0
M  V30 986 H 86.2281 6.18449 2.18761 0
M  V30 987 H 86.1451 7.48709 1.04738 0
M  V30 988 H 87.4131 7.4673 2.23639 0
M  V30 989 N 91.6422 0.330177 1.54103 0
M  V30 990 C 92.5722 -0.525353 2.27513 0
M  V30 991 C 93.5532 -1.11383 1.2856 0
M  V30 992 O 94.7382 -1.13773 1.57383 0
M  V30 993 C 91.8682 -1.6831 3.03791 0
M  V30 994 C 90.8222 -1.2236 4.10137 0
M  V30 995 C 90.1482 -2.46882 4.74293 0
M  V30 996 C 91.4482 -0.333697 5.21233 0
M  V30 997 H 93.1422 0.087013 2.99274 0
M  V30 998 H 90.6882 0.0432893 1.43935 0
M  V30 999 H 92.6412 -2.28795 3.5388 0
M  V30 1000 H 91.3652 -2.32216 2.29659 0
M  V30 1001 H 90.0242 -0.64165 3.60941 0
M  V30 1002 H 89.6722 -3.09165 3.96769 0
M  V30 1003 H 89.3722 -2.16825 5.46133 0
M  V30 1004 H 90.8962 -3.08117 5.27159 0
M  V30 1005 H 92.3102 -0.845013 5.67038 0
M  V30 1006 H 90.7072 -0.125612 5.99969 0
M  V30 1007 H 91.7772 0.633724 4.80741 0
M  V30 1008 N 93.1203 -1.57491 0.0584922 0
M  V30 1009 C 94.0673 -2.11958 -0.913376 0
M  V30 1010 C 95.0373 -1.02875 -1.30407 0
M  V30 1011 O 96.2223 -1.30464 -1.39226 0
M  V30 1012 C 93.3623 -2.67497 -2.18035 0
M  V30 1013 C 92.4753 -3.90691 -1.84349 0
M  V30 1014 C 91.6103 -4.3452 -3.05559 0
M  V30 1015 C 90.6493 -5.50395 -2.67827 0
M  V30 1016 N 89.7863 -5.89244 -3.81754 0
M  V30 1017 H 94.6263 -2.94704 -0.442017 0
M  V30 1018 H 92.1633 -1.45643 -0.206545 0
M  V30 1019 H 94.1213 -2.978 -2.92183 0
M  V30 1020 H 92.7513 -1.87537 -2.62735 0
M  V30 1021 H 91.8033 -3.66934 -1.00319 0
M  V30 1022 H 93.1153 -4.7489 -1.5258 0
M  V30 1023 H 92.2693 -4.66414 -3.87998 0
M  V30 1024 H 91.0083 -3.49147 -3.40511 0
M  V30 1025 H 90.0133 -5.18165 -1.83806 0
M  V30 1026 H 91.2383 -6.3749 -2.34059 0
M  V30 1027 H 89.1843 -5.06823 -4.16493 0
M  V30 1028 H 89.1013 -6.68151 -3.53708 0
M  V30 1029 H 90.3693 -6.25756 -4.64811 0
M  V30 1030 N 94.5984 0.214957 -1.56127 0
M  V30 1031 C 95.5614 1.24997 -1.92116 0
M  V30 1032 C 96.5614 1.39467 -0.800344 0
M  V30 1033 O 97.7514 1.37619 -1.06802 0
M  V30 1034 C 94.8834 2.62271 -2.17777 0
M  V30 1035 H 96.0764 0.942875 -2.84693 0
M  V30 1036 H 93.6294 0.455654 -1.49511 0
M  V30 1037 H 94.3644 2.98068 -1.27773 0
M  V30 1038 H 94.1494 2.53143 -2.99434 0
M  V30 1039 H 95.6394 3.36946 -2.46693 0
M  V30 1040 N 96.0765 1.50051 0.48192 0
M  V30 1041 C 96.9865 1.7089 1.60728 0
M  V30 1042 C 98.0025 0.591788 1.63627 0
M  V30 1043 O 99.1785 0.868817 1.81696 0
M  V30 1044 C 96.2435 1.78855 2.97005 0
M  V30 1045 C 95.3045 3.02537 3.04581 0
M  V30 1046 C 94.5375 3.10112 4.34357 0
M  V30 1047 O 94.7605 2.24765 5.24249 0
M  V30 1048 O 93.6945 4.02747 4.47301 0
M  V30 1049 H 97.5205 2.66264 1.46072 0
M  V30 1050 H 95.1055 1.34018 0.660264 0
M  V30 1051 H 96.9875 1.86336 3.77964 0
M  V30 1052 H 95.6625 0.866628 3.11883 0
M  V30 1053 H 94.5695 3.00563 2.22739 0
M  V30 1054 H 95.9025 3.94272 2.94636 0
M  V30 1055 N 97.5546 -0.734337 1.39446 0
M  V30 1056 C 98.9706 -1.03997 1.21065 0
M  V30 1057 C 99.1706 -2.01369 0.0727019 0
M  V30 1058 O 98.2266 -2.45856 -0.575426 0
M  V30 1059 C 99.5396 -1.60163 2.54496 0
M  V30 1060 C 101.088 -1.7224 2.61347 0
M  V30 1061 C 101.563 -2.31814 3.95002 0
M  V30 1062 N 103.054 -2.39223 3.96644 0
M  V30 1063 C 103.789 -2.86258 4.96834 0
M  V30 1064 N 103.285 -3.33184 6.07421 0
M  V30 1065 N 105.078 -2.85473 4.84213 0
M  V30 1066 H 97.2286 -0.0885624 2.12215 0
M  V30 1067 H 99.4916 -0.10191 0.942506 0
M  V30 1068 H 99.1976 -0.960811 3.38321 0
M  V30 1069 H 99.0716 -2.5896 2.74262 0
M  V30 1070 H 101.459 -2.35443 1.77906 0
M  V30 1071 H 101.54 -0.720939 2.4543 0
M  V30 1072 H 101.184 -1.69238 4.78875 0
M  V30 1073 H 101.114 -3.32638 4.08239 0
M  V30 1074 H 103.605 -2.06057 3.16779 0
M  V30 1075 H 103.918 -3.67586 6.7978 0
M  V30 1076 H 102.263 -3.31191 6.11013 0
M  V30 1077 H 105.454 -2.48136 3.96921 0
M  V30 1078 H 105.627 -3.21814 5.62441 0
M  V30 1079 N 99.0327 -1.24633 -0.964593 0
M  V30 1080 C 99.9427 -1.05859 -2.09359 0
M  V30 1081 C 100.959 0.00148855 -1.74 0
M  V30 1082 O 102.135 -0.197346 -2.00431 0
M  V30 1083 C 99.1997 -0.668879 -3.40187 0
M  V30 1084 C 98.2607 -1.80578 -3.89474 0
M  V30 1085 C 97.4937 -1.43457 -5.14058 0
M  V30 1086 O 97.7167 -0.325775 -5.69469 0
M  V30 1087 O 96.6507 -2.2613 -5.57807 0
M  V30 1088 H 100.477 -2.00516 -2.28094 0
M  V30 1089 H 98.0617 -1.03481 -1.0776 0
M  V30 1090 H 99.9437 -0.463211 -4.18846 0
M  V30 1091 H 98.6187 0.248536 -3.22744 0
M  V30 1092 H 97.5257 -2.06623 -3.11862 0
M  V30 1093 H 98.8587 -2.70208 -4.11398 0
M  V30 1094 N 100.511 1.16574 -1.06058 0
M  V30 1095 C 101.927 1.3904 -0.783585 0
M  V30 1096 C 102.127 1.91784 0.618145 0
M  V30 1097 O 101.183 2.11511 1.37911 0
M  V30 1098 C 102.496 2.37329 -1.84649 0
M  V30 1099 C 104.044 2.51018 -1.86973 0
M  V30 1100 C 104.519 3.52588 -2.92311 0
M  V30 1101 N 106.01 3.60113 -2.91329 0
M  V30 1102 C 106.745 4.38486 -3.69482 0
M  V30 1103 N 106.241 5.20302 -4.57447 0
M  V30 1104 N 108.034 4.33446 -3.57885 0
M  V30 1105 H 100.185 0.806725 -1.96483 0
M  V30 1106 H 102.448 0.417117 -0.851303 0
M  V30 1107 H 102.154 2.05663 -2.85299 0
M  V30 1108 H 102.028 3.36946 -1.6955 0
M  V30 1109 H 104.415 2.81989 -0.869827 0
M  V30 1110 H 104.496 1.51445 -2.0615 0
M  V30 1111 H 104.14 3.22354 -3.92492 0
M  V30 1112 H 104.07 4.51886 -2.70383 0
M  V30 1113 H 106.561 3.01707 -2.27555 0
M  V30 1114 H 106.874 5.77311 -5.13743 0
M  V30 1115 H 105.219 5.19653 -4.61503 0
M  V30 1116 H 108.41 3.68586 -2.88551 0
M  V30 1117 H 108.583 4.94279 -4.19037 0
M  V30 1118 N 101.989 0.842826 1.3317 0
M  V30 1119 C 103.237 0.439577 1.97262 0
M  V30 1120 C 103.558 -1.00548 1.67078 0
M  V30 1121 O 102.828 -1.70098 0.971779 0
M  V30 1122 H 101.408 0.159558 0.72976 0
M  V30 1123 H 104.07 1.07665 1.62463 0
M  V30 1124 H 103.166 0.574886 3.0676 0
M  V30 1125 N 103.467 -1.45747 0.599634 0
M  V30 1126 C 104.716 -2.01502 0.0893511 0
M  V30 1127 C 105.029 -1.4748 -1.28488 0
M  V30 1128 O 106.235 -1.95161 -1.88745 0
M  V30 1129 C 104.691 -3.59735 0.109082 0
M  V30 1130 C 104.299 -4.22754 1.48267 0
M  V30 1131 C 106.043 -4.23085 -0.346374 0
M  V30 1132 C 103.95 -5.73115 1.45921 0
M  V30 1133 H 102.88 -0.753417 0.0296347 0
M  V30 1134 H 105.531 -1.67303 0.753788 0
M  V30 1135 H 103.913 -3.91087 -0.621854 0
M  V30 1136 H 105.087 -4.02987 2.23468 0
M  V30 1137 H 103.402 -3.71567 1.87955 0
M  V30 1138 H 105.999 -5.33327 -0.38298 0
M  V30 1139 H 106.342 -3.93201 -1.36743 0
M  V30 1140 H 106.875 -3.9642 0.331038 0
M  V30 1141 H 103.614 -6.07685 2.45762 0
M  V30 1142 H 103.134 -5.95097 0.749665 0
M  V30 1143 H 104.813 -6.3616 1.17941 0
M  V30 1144 N 104.945 -0.338344 -1.53925 0
M  V30 1145 C 106.173 0.261298 -2.05243 0
M  V30 1146 C 106.588 1.44625 -1.21363 0
M  V30 1147 O 105.945 1.80811 -0.247736 0
M  V30 1148 C 105.996 0.681412 -3.5502 0
M  V30 1149 O 105.717 -0.456414 -4.35716 0
M  V30 1150 C 107.218 1.34232 -4.22489 0
M  V30 1151 H 104.438 0.0513685 -0.669031 0
M  V30 1152 H 106.982 -0.488822 -1.98572 0
M  V30 1153 H 105.137 1.38148 -3.61931 0
M  V30 1154 H 105.551 -0.122564 -5.24357 0
M  V30 1155 H 107.025 1.58708 -5.28693 0
M  V30 1156 H 107.502 2.29426 -3.74514 0
M  V30 1157 H 108.108 0.684424 -4.19757 0
M  V30 1158 N 106.423 1.57458 -0.0668435 0
M  V30 1159 C 107.672 1.92477 0.602947 0
M  V30 1160 C 107.985 0.948419 1.71068 0
M  V30 1161 O 109.191 1.19124 2.43971 0
M  V30 1162 C 107.647 3.41903 1.12383 0
M  V30 1163 C 107.255 4.47975 0.04737 0
M  V30 1164 C 108.999 3.85931 1.76797 0
M  V30 1165 C 106.906 5.88529 0.582022 0
M  V30 1166 H 105.836 0.718387 0.22899 0
M  V30 1167 H 108.487 1.82978 -0.138276 0
M  V30 1168 H 106.869 3.46459 1.91787 0
M  V30 1169 H 108.043 4.55029 -0.726978 0
M  V30 1170 H 106.358 4.13384 -0.500243 0
M  V30 1171 H 108.955 4.88322 2.17821 0
M  V30 1172 H 109.298 3.23029 2.62599 0
M  V30 1173 H 109.831 3.83958 1.04024 0
M  V30 1174 H 106.57 6.55065 -0.238721 0
M  V30 1175 H 106.09 5.85004 1.324 0
M  V30 1176 H 107.769 6.38258 1.05999 0
M  V30 1177 N 107.901 -0.206675 1.56239 0
M  V30 1178 C 109.178 -0.954051 1.70755 0
M  V30 1179 C 109.558 -2.01841 0.618353 0
M  V30 1180 O 108.906 -2.25444 -0.372434 0
M  V30 1181 C 109.116 -1.551 3.12642 0
M  V30 1182 C 110.464 -2.03757 3.72516 0
M  V30 1183 O 111.488 -1.64965 3.15698 0
M  V30 1184 O 110.347 -2.75103 4.72208 0
M  V30 1185 H 107.441 -0.446636 0.696021 0
M  V30 1186 H 109.987 -0.197283 1.68549 0
M  V30 1187 H 108.759 -0.783212 3.83382 0
M  V30 1188 H 108.382 -2.37291 3.19028 0
M  V30 1189 N 109.379 -1.50304 -0.473955 0
M  V30 1190 C 110.628 -1.60392 -1.22301 0
M  V30 1191 C 110.941 -0.308411 -1.93153 0
M  V30 1192 O 112.147 -0.288156 -2.69966 0
M  V30 1193 C 110.603 -2.83109 -2.2221 0
M  V30 1194 C 110.211 -4.19524 -1.57173 0
M  V30 1195 C 111.955 -3.0254 -2.97775 0
M  V30 1196 C 109.862 -5.33431 -2.55353 0
M  V30 1197 H 108.792 -0.597286 -0.460179 0
M  V30 1198 H 111.443 -1.76731 -0.493803 0
M  V30 1199 H 109.825 -2.60322 -2.9841 0
M  V30 1200 H 110.999 -4.52554 -0.867824 0
M  V30 1201 H 109.314 -4.05674 -0.939002 0
M  V30 1202 H 111.911 -3.84811 -3.71248 0
M  V30 1203 H 112.254 -2.14154 -3.56992 0
M  V30 1204 H 112.787 -3.25494 -2.28688 0
M  V30 1205 H 109.526 -6.23962 -2.00878 0
M  V30 1206 H 109.046 -5.04823 -3.23904 0
M  V30 1207 H 110.725 -5.63887 -3.17239 0
M  V30 1208 N 110.857 0.726932 -1.39834 0
M  V30 1209 C 111.82 1.82269 -1.38962 0
M  V30 1210 C 112.82 1.58248 -0.285334 0
M  V30 1211 O 114.01 1.65499 -0.54366 0
M  V30 1212 C 111.142 3.20186 -1.17019 0
M  V30 1213 H 112.335 1.84443 -2.36476 0
M  V30 1214 H 109.888 0.931416 -1.25516 0
M  V30 1215 H 110.623 3.23669 -0.202204 0
M  V30 1216 H 110.408 3.3902 -1.96998 0
M  V30 1217 H 111.898 4.00235 -1.1917 0
M  V30 1218 N 112.336 1.25143 0.95797 0
M  V30 1219 C 113.266 1.07711 2.07173 0
M  V30 1220 C 114.247 -0.0128462 1.70095 0
M  V30 1221 O 115.432 0.156061 1.93572 0
M  V30 1222 C 112.562 0.691503 3.40346 0
M  V30 1223 C 111.516 1.73132 3.9142 0
M  V30 1224 C 110.842 1.20049 5.21049 0
M  V30 1225 C 112.142 3.1294 4.1817 0
M  V30 1226 H 113.836 2.00873 2.22014 0
M  V30 1227 H 111.382 0.967191 1.06684 0
M  V30 1228 H 113.335 0.556505 4.17709 0
M  V30 1229 H 112.059 -0.275819 3.25433 0
M  V30 1230 H 110.718 1.8547 3.16222 0
M  V30 1231 H 110.366 0.223499 5.02503 0
M  V30 1232 H 110.066 1.89545 5.56189 0
M  V30 1233 H 111.59 1.07782 6.01012 0
M  V30 1234 H 113.004 3.03775 4.86203 0
M  V30 1235 H 111.401 3.79875 4.64559 0
M  V30 1236 H 112.471 3.6025 3.24573 0
M  V30 1237 N 113.814 -1.1601 1.06675 0
M  V30 1238 C 115.06 -1.87145 0.796766 0
M  V30 1239 C 115.415 -1.8037 -0.669658 0
M  V30 1240 O 114.708 -1.21116 -1.48463 0
M  V30 1241 C 114.902 -3.35547 1.23057 0
M  V30 1242 C 114.731 -3.56769 2.73762 0
M  V30 1243 C 113.501 -3.72635 3.41279 0
M  V30 1244 C 115.699 -3.55166 3.7197 0
M  V30 1245 N 113.681 -3.81845 4.80695 0
M  V30 1246 C 115.052 -3.70406 4.97191 0
M  V30 1247 C 117.107 -3.384 3.65226 0
M  V30 1248 C 115.81 -3.70615 6.16471 0
M  V30 1249 C 117.836 -3.39904 4.83962 0
M  V30 1250 C 117.198 -3.55667 6.08013 0
M  V30 1251 H 113.297 -0.702267 0.344014 0
M  V30 1252 H 115.881 -1.39165 1.36166 0
M  V30 1253 H 114.052 -3.82159 0.693456 0
M  V30 1254 H 115.784 -3.94363 0.908844 0
M  V30 1255 H 112.539 -3.73121 2.91681 0
M  V30 1256 H 112.963 -3.90209 5.53232 0
M  V30 1257 H 117.605 -3.25138 2.70269 0
M  V30 1258 H 115.323 -3.82658 7.11757 0
M  V30 1259 H 118.909 -3.28169 4.80413 0
M  V30 1260 H 117.789 -3.56755 6.98352 0
M  V30 1261 N 115.292 -0.849877 -1.32721 0
M  V30 1262 C 116.239 -0.289033 -2.28983 0
M  V30 1263 C 117.209 0.601324 -1.54833 0
M  V30 1264 O 118.394 0.537253 -1.8308 0
M  V30 1265 C 115.534 0.520623 -3.4115 0
M  V30 1266 C 114.647 -0.394989 -4.3019 0
M  V30 1267 C 113.782 0.426834 -5.29482 0
M  V30 1268 C 112.821 -0.486476 -6.10164 0
M  V30 1269 N 111.958 0.297879 -7.01468 0
M  V30 1270 H 116.798 -1.11519 -2.76347 0
M  V30 1271 H 114.335 -0.56138 -1.35967 0
M  V30 1272 H 116.293 1.00563 -4.04899 0
M  V30 1273 H 114.923 1.31165 -2.9495 0
M  V30 1274 H 113.975 -0.99836 -3.67065 0
M  V30 1275 H 115.287 -1.09612 -4.86607 0
M  V30 1276 H 114.441 0.975205 -5.98811 0
M  V30 1277 H 113.18 1.16136 -4.73671 0
M  V30 1278 H 112.185 -1.04677 -5.39743 0
M  V30 1279 H 113.41 -1.21953 -6.6806 0
M  V30 1280 H 111.356 1.01558 -6.48091 0
M  V30 1281 H 111.273 -0.344318 -7.55216 0
M  V30 1282 H 112.541 0.828131 -7.75089 0
M  V30 1283 N 116.77 1.45427 -0.607355 0
M  V30 1284 C 118.017 2.02241 -0.102455 0
M  V30 1285 C 118.345 1.4758 1.26691 0
M  V30 1286 O 117.6 0.640468 1.84923 0
M  V30 1287 C 117.899 3.57398 -0.0129263 0
M  V30 1288 C 117.565 4.3121 -1.31792 0
M  V30 1289 C 116.227 4.51092 -1.67539 0
M  V30 1290 C 118.579 4.73401 -2.18039 0
M  V30 1291 C 115.907 5.10422 -2.89285 0
M  V30 1292 C 118.259 5.34078 -3.39034 0
M  V30 1293 C 116.923 5.52184 -3.75033 0
M  V30 1294 H 116.193 0.740051 -0.037491 0
M  V30 1295 H 118.84 1.74494 -0.788926 0
M  V30 1296 H 117.145 3.84421 0.756806 0
M  V30 1297 H 118.842 3.99061 0.393881 0
M  V30 1298 H 115.432 4.16047 -1.02968 0
M  V30 1299 H 119.616 4.57774 -1.91721 0
M  V30 1300 H 114.872 5.22629 -3.17283 0
M  V30 1301 H 119.046 5.65724 -4.06115 0
M  V30 1302 H 116.673 5.97925 -4.69457 0
M  V30 1303 N 118.248 0.346503 1.53744 0
M  V30 1304 C 119.158 -0.517293 2.28826 0
M  V30 1305 C 120.174 -1.10935 1.3405 0
M  V30 1306 O 121.35 -1.1244 1.6709 0
M  V30 1307 C 118.415 -1.65098 3.04866 0
M  V30 1308 C 117.476 -1.0884 4.15274 0
M  V30 1309 C 116.709 -2.16806 4.87679 0
M  V30 1310 O 116.932 -3.3758 4.59778 0
M  V30 1311 O 115.866 -1.80934 5.74061 0
M  V30 1312 H 119.692 0.0931396 3.03557 0
M  V30 1313 H 117.277 0.111458 1.48984 0
M  V30 1314 H 119.159 -2.31053 3.5241 0
M  V30 1315 H 117.834 -2.24717 2.32989 0
M  V30 1316 H 116.741 -0.3933 3.72027 0
M  V30 1317 H 118.074 -0.537036 4.89261 0
M  V30 1318 N 119.726 -1.57421 0.075193 0
M  V30 1319 C 120.954 -1.97946 -0.602076 0
M  V30 1320 C 121.369 -0.953674 -1.62943 0
M  V30 1321 O 120.726 0.0592551 -1.82404 0
M  V30 1322 C 120.777 -3.38546 -1.26762 0
M  V30 1323 O 120.498 -4.37195 -0.281376 0
M  V30 1324 C 121.999 -3.93966 -2.03239 0
M  V30 1325 H 119.219 -0.650918 -0.162931 0
M  V30 1326 H 121.763 -2.03959 0.148601 0
M  V30 1327 H 119.918 -3.33609 -1.96936 0
M  V30 1328 H 120.332 -5.18975 -0.759267 0
M  V30 1329 H 121.806 -4.94555 -2.45193 0
M  V30 1330 H 122.283 -3.30693 -2.8903 0
M  V30 1331 H 122.889 -4.02315 -1.37924 0
M  V30 1332 N 121.204 0.198386 -1.56346 0
M  V30 1333 C 122.615 0.763358 -1.70381 0
M  V30 1334 C 122.966 1.83995 -0.681203 0
M  V30 1335 O 122.091 2.15785 0.16305 0
M  V30 1336 C 122.686 1.39143 -3.08909 0
M  V30 1337 C 121.245 1.90352 -3.2472 0
M  V30 1338 C 120.392 0.772233 -2.6633 0
M  V30 1339 H 123.343 -0.0266377 -1.58678 0
M  V30 1340 H 123.364 2.26076 -3.06055 0
M  V30 1341 H 122.876 0.607638 -3.83314 0
M  V30 1342 H 120.977 2.71461 -2.55225 0
M  V30 1343 H 121.09 2.06757 -4.3219 0
M  V30 1344 H 119.454 1.18566 -2.2542 0
M  V30 1345 H 120.237 0.00073556 -3.433 0
M  V30 1346 N 122.682 1.50554 0.465978 0
M  V30 1347 C 124.098 1.38093 0.800154 0
M  V30 1348 C 124.298 0.440988 1.96615 0
M  V30 1349 O 123.354 -0.114499 2.5224 0
M  V30 1350 C 124.667 2.79565 1.10742 0
M  V30 1351 C 126.215 2.88516 1.21357 0
M  V30 1352 C 126.69 4.30833 1.55393 0
M  V30 1353 N 128.181 4.33807 1.62375 0
M  V30 1354 C 128.916 5.40927 1.90225 0
M  V30 1355 N 128.412 6.58247 2.16062 0
M  V30 1356 N 130.205 5.28376 1.9177 0
M  V30 1357 H 122.356 2.10237 -0.302366 0
M  V30 1358 H 124.619 0.945203 -0.0727746 0
M  V30 1359 H 124.325 3.50208 0.323661 0
M  V30 1360 H 124.199 3.17125 2.04234 0
M  V30 1361 H 126.586 2.1809 1.98799 0
M  V30 1362 H 126.667 2.54492 0.258321 0
M  V30 1363 H 126.311 5.01799 0.784889 0
M  V30 1364 H 126.241 4.62347 2.52076 0
M  V30 1365 H 128.732 3.49212 1.44427 0
M  V30 1366 H 129.045 7.3569 2.36601 0
M  V30 1367 H 127.39 6.61413 2.13444 0
M  V30 1368 H 130.581 4.35715 1.71085 0
M  V30 1369 H 130.754 6.11944 2.13139 0
M  V30 1370 N 124.16 -0.719506 1.40217 0
M  V30 1371 C 125.39 -1.50646 1.41384 0
M  V30 1372 C 125.798 -1.89197 0.0107743 0
M  V30 1373 O 125.141 -1.55709 -0.974708 0
M  V30 1374 C 125.203 -2.81405 2.23722 0
M  V30 1375 C 124.867 -2.65199 3.72181 0
M  V30 1376 C 125.864 -2.32717 4.64907 0
M  V30 1377 C 123.549 -2.81586 4.1595 0
M  V30 1378 C 125.543 -2.16827 5.99387 0
M  V30 1379 C 123.23 -2.65313 5.50502 0
M  V30 1380 C 124.228 -2.32981 6.42035 0
M  V30 1381 O 123.916 -2.16827 7.74107 0
M  V30 1382 H 123.648 -0.471606 0.484318 0
M  V30 1383 H 126.202 -0.895456 1.84853 0
M  V30 1384 H 124.432 -3.44823 1.75026 0
M  V30 1385 H 126.121 -3.43102 2.16878 0
M  V30 1386 H 126.887 -2.19694 4.32388 0
M  V30 1387 H 122.766 -3.0574 3.45027 0
M  V30 1388 H 126.31 -1.91513 6.70797 0
M  V30 1389 H 122.207 -2.7792 5.82607 0
M  V30 1390 H 122.975 -2.31778 7.84998 0
M  V30 1391 N 125.638 -1.25649 -0.95132 0
M  V30 1392 C 126.885 -1.10594 -1.69633 0
M  V30 1393 C 127.213 0.352515 -1.91279 0
M  V30 1394 O 126.468 1.27601 -1.4838 0
M  V30 1395 C 126.767 -1.80909 -3.08231 0
M  V30 1396 C 126.433 -3.30825 -3.06375 0
M  V30 1397 C 125.095 -3.71722 -3.05576 0
M  V30 1398 C 127.447 -4.26589 -2.99452 0
M  V30 1399 C 124.775 -5.06788 -2.95606 0
M  V30 1400 C 127.127 -5.61683 -2.91024 0
M  V30 1401 C 125.791 -6.01904 -2.88562 0
M  V30 1402 H 125.061 -0.404691 -0.620731 0
M  V30 1403 H 127.708 -1.55964 -1.11119 0
M  V30 1404 H 126.013 -1.27979 -3.70309 0
M  V30 1405 H 127.71 -1.6671 -3.64704 0
M  V30 1406 H 124.3 -2.98287 -3.07771 0
M  V30 1407 H 128.484 -3.95982 -2.99185 0
M  V30 1408 H 123.74 -5.37126 -2.92071 0
M  V30 1409 H 127.914 -6.35578 -2.84629 0
M  V30 1410 H 125.541 -7.06521 -2.80593 0
M  V30 1411 N 127.117 1.15442 -1.07289 0
M  V30 1412 C 128.364 1.86213 -0.795668 0
M  V30 1413 C 128.692 1.82291 0.678238 0
M  V30 1414 O 127.947 1.24057 1.51355 0
M  V30 1415 C 128.246 3.3489 -1.24834 0
M  V30 1416 C 127.912 3.59007 -2.72809 0
M  V30 1417 C 126.574 3.65298 -3.13227 0
M  V30 1418 C 128.926 3.68762 -3.68326 0
M  V30 1419 C 126.254 3.78854 -4.4798 0
M  V30 1420 C 128.606 3.83842 -5.0284 0
M  V30 1421 C 127.27 3.88378 -5.4288 0
M  V30 1422 H 126.54 0.681403 -0.291155 0
M  V30 1423 H 129.187 1.36435 -1.34379 0
M  V30 1424 H 127.492 3.8687 -0.619595 0
M  V30 1425 H 129.189 3.88052 -1.01076 0
M  V30 1426 H 125.779 3.5475 -2.40521 0
M  V30 1427 H 129.963 3.63202 -3.38227 0
M  V30 1428 H 125.219 3.80623 -4.78472 0
M  V30 1429 H 129.393 3.90332 -5.76727 0
M  V30 1430 H 127.02 3.98635 -6.47298 0
M  V30 1431 N 128.595 0.856903 1.32268 0
M  V30 1432 C 129.823 0.475439 2.01363 0
M  V30 1433 C 130.238 -0.928486 1.64392 0
M  V30 1434 O 129.595 -1.60624 0.866387 0
M  V30 1435 C 129.646 0.607545 3.56358 0
M  V30 1436 O 129.367 1.95617 3.92002 0
M  V30 1437 C 130.868 0.225382 4.42727 0
M  V30 1438 H 128.088 0.186636 0.644521 0
M  V30 1439 H 130.632 1.15446 1.68797 0
M  V30 1440 H 128.787 -0.0237719 3.87393 0
M  V30 1441 H 129.201 1.95455 4.86721 0
M  V30 1442 H 130.675 0.368813 5.50767 0
M  V30 1443 H 131.152 -0.834369 4.31202 0
M  V30 1444 H 131.758 0.831864 4.17085 0
M  V30 1445 N 130.073 -1.45103 0.615059 0
M  V30 1446 C 131.319 -2.02483 0.113347 0
M  V30 1447 C 131.652 -1.48146 -1.25564 0
M  V30 1448 O 130.927 -0.659104 -1.82992 0
M  V30 1449 C 131.21 -3.60005 0.0825278 0
M  V30 1450 C 131.063 -4.2466 1.48271 0
M  V30 1451 C 132.382 -4.35972 -0.601401 0
M  V30 1452 H 129.501 -0.735764 0.0426632 0
M  V30 1453 H 132.143 -1.72868 0.788461 0
M  V30 1454 H 130.293 -3.85367 -0.492378 0
M  V30 1455 H 131.965 -4.10458 2.10527 0
M  V30 1456 H 130.208 -3.82772 2.04127 0
M  V30 1457 H 130.879 -5.336 1.41332 0
M  V30 1458 H 133.355 -4.15947 -0.112666 0
M  V30 1459 H 132.231 -5.45697 -0.592097 0
M  V30 1460 H 132.492 -4.09391 -1.66887 0
M  V30 1461 N 131.551 -0.354651 -1.53558 0
M  V30 1462 C 132.8 0.239504 -2.00273 0
M  V30 1463 C 133.113 1.50759 -1.24623 0
M  V30 1464 O 134.319 2.17968 -1.61871 0
M  V30 1465 C 132.775 0.477341 -3.5672 0
M  V30 1466 C 132.383 -0.775488 -4.41237 0
M  V30 1467 C 134.127 1.02975 -4.11821 0
M  V30 1468 C 132.034 -0.507838 -5.89216 0
M  V30 1469 H 130.964 0.0932743 -0.748208 0
M  V30 1470 H 133.615 -0.471701 -1.77334 0
M  V30 1471 H 131.997 1.24953 -3.7577 0
M  V30 1472 H 133.171 -1.54963 -4.33962 0
M  V30 1473 H 131.486 -1.25033 -3.97185 0
M  V30 1474 H 134.083 1.24513 -5.2 0
M  V30 1475 H 134.426 1.98862 -3.65731 0
M  V30 1476 H 134.959 0.317994 -3.96527 0
M  V30 1477 H 131.698 -1.43674 -6.39561 0
M  V30 1478 H 131.218 0.228011 -5.99366 0
M  V30 1479 H 132.897 -0.129238 -6.46871 0
M  V30 1480 N 133.029 1.57378 -0.0835403 0
M  V30 1481 C 134.306 1.85363 0.624507 0
M  V30 1482 C 134.686 0.978239 1.87066 0
M  V30 1483 O 134.034 0.0475908 2.2845 0
M  V30 1484 C 134.244 3.35795 0.950947 0
M  V30 1485 C 135.592 4.03581 1.31939 0
M  V30 1486 O 136.616 3.40609 1.04232 0
M  V30 1487 O 135.475 5.14672 1.83779 0
M  V30 1488 H 132.569 0.766162 0.311329 0
M  V30 1489 H 135.115 1.69307 -0.115362 0
M  V30 1490 H 133.887 3.91244 0.0663899 0
M  V30 1491 H 133.51 3.57154 1.74719 0
M  V30 1492 N 134.507 -0.190092 1.56449 0
M  V30 1493 C 135.47 -1.21925 1.9408 0
M  V30 1494 C 136.47 -1.38176 0.822431 0
M  V30 1495 O 137.66 -1.35903 1.08977 0
M  V30 1496 C 134.792 -2.58773 2.21922 0
M  V30 1497 H 135.985 -0.897464 2.86157 0
M  V30 1498 H 133.538 -0.43181 1.50217 0
M  V30 1499 H 134.273 -2.95998 1.32499 0
M  V30 1500 H 134.058 -2.48348 3.03424 0
M  V30 1501 H 135.548 -3.32978 2.52022 0
M  V30 1502 N 135.985 -1.50799 -0.457987 0
M  V30 1503 C 137.396 -1.55152 -1.0385 0
M  V30 1504 C 137.747 -0.362719 -1.92818 0
M  V30 1505 O 136.872 0.522915 -2.09987 0
M  V30 1506 C 137.467 -2.81173 -1.89017 0
M  V30 1507 C 136.026 -2.88164 -2.42154 0
M  V30 1508 C 135.173 -2.49591 -1.20829 0
M  V30 1509 H 138.124 -1.56874 -0.240068 0
M  V30 1510 H 138.145 -2.63769 -2.74238 0
M  V30 1511 H 137.657 -3.67677 -1.24238 0
M  V30 1512 H 135.758 -2.06042 -3.10447 0
M  V30 1513 H 135.871 -3.91356 -2.76364 0
M  V30 1514 H 134.235 -2.02322 -1.54719 0
M  V30 1515 H 135.018 -3.38418 -0.576927 0
M  V30 1516 N 137.463 0.71206 -1.40597 0
M  V30 1517 C 138.711 1.46907 -1.38791 0
M  V30 1518 C 139.032 1.94998 0.00780391 0
M  V30 1519 O 138.302 1.70587 0.963174 0
M  V30 1520 H 136.882 0.545043 -0.51082 0
M  V30 1521 H 139.544 0.843882 -1.75683 0
M  V30 1522 H 138.64 2.34021 -2.06496 0
M  V30 1523 N 138.941 1.26152 0.944643 0
M  V30 1524 C 139.891 1.04081 2.02857 0
M  V30 1525 C 140.875 -0.0256555 1.6088 0
M  V30 1526 O 142.067 0.190884 1.75968 0
M  V30 1527 C 139.196 0.672118 3.36656 0
M  V30 1528 C 138.282 1.77586 3.85128 0
M  V30 1529 N 138.673 3.01272 4.06287 0
M  V30 1530 C 136.971 1.65867 4.1401 0
M  V30 1531 C 137.672 3.72983 4.46384 0
M  V30 1532 N 136.648 3.00653 4.52889 0
M  V30 1533 H 140.45 1.97968 2.17223 0
M  V30 1534 H 137.964 1.16618 1.13022 0
M  V30 1535 H 139.961 0.495166 4.13949 0
M  V30 1536 H 138.621 -0.259307 3.23663 0
M  V30 1537 H 139.632 3.37213 3.93075 0
M  V30 1538 H 136.309 0.796907 4.09824 0
M  V30 1539 H 137.699 4.792 4.70975 0
M  V30 1540 N 140.419 -1.14872 1.07899 0
M  V30 1541 C 141.366 -2.19791 0.704319 0
M  V30 1542 C 142.336 -1.63238 -0.306987 0
M  V30 1543 O 143.521 -1.8983 -0.192171 0
M  V30 1544 C 140.661 -3.44911 0.114244 0
M  V30 1545 C 139.774 -4.15637 1.1777 0
M  V30 1546 C 138.909 -5.28324 0.552037 0
M  V30 1547 C 137.948 -5.90875 1.59789 0
M  V30 1548 N 137.085 -6.95022 0.994404 0
M  V30 1549 H 141.925 -2.5119 1.60336 0
M  V30 1550 H 139.462 -1.23356 0.801352 0
M  V30 1551 H 141.42 -4.16477 -0.245544 0
M  V30 1552 H 140.05 -3.14011 -0.74813 0
M  V30 1553 H 139.102 -3.42512 1.65499 0
M  V30 1554 H 140.414 -4.5823 1.97046 0
M  V30 1555 H 139.568 -6.06538 0.1402 0
M  V30 1556 H 138.307 -4.86939 -0.272431 0
M  V30 1557 H 137.312 -5.11369 2.01945 0
M  V30 1558 H 138.537 -6.34337 2.42474 0
M  V30 1559 H 136.483 -6.55722 0.190939 0
M  V30 1560 H 136.4 -7.36073 1.72432 0
M  V30 1561 H 137.668 -7.77123 0.608253 0
M  V30 1562 N 141.898 -0.863906 -1.31812 0
M  V30 1563 C 143.175 -0.39275 -1.91616 0
M  V30 1564 C 143.555 1.12461 -1.7865 0
M  V30 1565 O 142.903 1.95045 -1.19037 0
M  V30 1566 C 143.113 -0.867385 -3.38049 0
M  V30 1567 C 144.461 -0.889966 -4.15168 0
M  V30 1568 O 145.485 -0.812635 -3.46806 0
M  V30 1569 O 144.344 -1.00079 -5.37258 0
M  V30 1570 H 141.438 -0.116358 -0.818773 0
M  V30 1571 H 143.984 -0.951418 -1.40521 0
M  V30 1572 H 142.756 -1.91081 -3.41473 0
M  V30 1573 H 142.379 -0.286687 -3.96565 0
M  V30 1574 N 143.376 1.44774 -0.622745 0
M  V30 1575 C 144.623 2.02121 -0.1239 0
M  V30 1576 C 144.951 1.48915 1.25118 0
M  V30 1577 O 144.206 0.660045 1.84233 0
M  V30 1578 C 144.505 3.57364 -0.0508323 0
M  V30 1579 C 144.171 4.29787 -1.36358 0
M  V30 1580 C 142.833 4.4929 -1.72314 0
M  V30 1581 C 145.185 4.71062 -2.23048 0
M  V30 1582 C 142.513 5.07325 -2.94682 0
M  V30 1583 C 144.865 5.30452 -3.44679 0
M  V30 1584 C 143.529 5.48175 -3.80868 0
M  V30 1585 H 142.799 0.739612 -0.0453381 0
M  V30 1586 H 145.446 1.73648 -0.807389 0
M  V30 1587 H 143.751 3.85202 0.715991 0
M  V30 1588 H 145.448 3.99456 0.351533 0
M  V30 1589 H 142.038 4.14932 -1.07375 0
M  V30 1590 H 146.222 4.55715 -1.96565 0
M  V30 1591 H 141.478 5.19235 -3.22809 0
M  V30 1592 H 145.652 5.61385 -4.12092 0
M  V30 1593 H 143.279 5.92912 -4.75773 0
M  V30 1594 N 144.854 0.36279 1.53368 0
M  V30 1595 C 146.103 -0.22888 2.00397 0
M  V30 1596 C 146.416 -1.50096 1.25421 0
M  V30 1597 O 147.622 -2.17106 1.63025 0
M  V30 1598 C 146.078 -0.458417 3.56969 0
M  V30 1599 C 145.686 0.798877 4.4082 0
M  V30 1600 C 147.43 -1.00789 4.12361 0
M  V30 1601 C 145.337 0.539078 5.88938 0
M  V30 1602 H 144.267 -0.089305 0.748693 0
M  V30 1603 H 146.918 0.481099 1.77081 0
M  V30 1604 H 145.3 -1.22959 3.76427 0
M  V30 1605 H 146.474 1.57262 4.33134 0
M  V30 1606 H 144.789 1.27137 3.96516 0
M  V30 1607 H 147.386 -1.21754 5.20653 0
M  V30 1608 H 147.729 -1.9692 3.66781 0
M  V30 1609 H 148.262 -0.296961 3.9669 0
M  V30 1610 H 145.001 1.47064 6.3879 0
M  V30 1611 H 144.521 -0.196222 5.99479 0
M  V30 1612 H 146.2 0.163542 6.46793 0
M  V30 1613 N 146.332 -1.57332 0.0918853 0
M  V30 1614 C 147.279 -2.13847 -0.868211 0
M  V30 1615 C 148.249 -1.05618 -1.28196 0
M  V30 1616 O 149.434 -1.33387 -1.36427 0
M  V30 1617 C 146.574 -2.72062 -2.12312 0
M  V30 1618 C 145.687 -3.94514 -1.7602 0
M  V30 1619 C 144.822 -4.40903 -2.96273 0
M  V30 1620 C 143.861 -5.55953 -2.56092 0
M  V30 1621 N 142.998 -5.97209 -3.69169 0
M  V30 1622 H 147.838 -2.95575 -0.379406 0
M  V30 1623 H 145.375 -1.46048 -0.175606 0
M  V30 1624 H 147.333 -3.03931 -2.858 0
M  V30 1625 H 145.963 -1.93068 -2.58698 0
M  V30 1626 H 145.015 -3.68979 -0.925135 0
M  V30 1627 H 146.327 -4.7802 -1.42472 0
M  V30 1628 H 145.481 -4.74539 -3.78018 0
M  V30 1629 H 144.22 -3.56291 -3.33029 0
M  V30 1630 H 143.225 -5.21948 -1.72773 0
M  V30 1631 H 144.45 -6.42311 -2.20484 0
M  V30 1632 H 142.396 -5.15543 -4.05649 0
M  V30 1633 H 142.313 -6.75504 -3.39456 0
M  V30 1634 H 143.581 -6.35475 -4.51434 0
M  V30 1635 N 147.81 0.181792 -1.56548 0
M  V30 1636 C 148.758 1.24461 -1.965 0
M  V30 1637 C 149.752 1.464 -0.852261 0
M  V30 1638 O 150.958 1.47103 -1.03733 0
M  V30 1639 H 147.333 0.418138 -0.625031 0
M  V30 1640 H 149.304 0.880714 -2.85107 0
M  V30 1641 C 148.053 2.57891 -2.33212 0
M  V30 1642 H 147.376 2.41829 -3.18369 0
M  V30 1643 H 148.816 3.3097 -2.65019 0
M  V30 1644 C 147.275 3.15871 -1.17163 0
M  V30 1645 O 147.805 3.9913 -0.453708 0
M  V30 1646 N 146.011 2.74808 -0.944936 0
M  V30 1647 H 145.558 2.07205 -1.53049 0
M  V30 1648 H 145.516 3.13939 -0.170286 0
M  V30 1649 N 149.288 1.51039 0.449983 0
M  V30 1650 C 150.221 1.66105 1.56474 0
M  V30 1651 C 151.199 0.508776 1.54435 0
M  V30 1652 O 152.383 0.731005 1.73749 0
M  V30 1653 C 149.51 1.66304 2.9506 0
M  V30 1654 C 148.556 2.87346 3.15174 0
M  V30 1655 S 149.389 4.4835 2.92818 0
M  V30 1656 C 150.545 4.51274 4.33708 0
M  V30 1657 H 150.778 2.60397 1.43459 0
M  V30 1658 H 148.311 1.40565 0.638805 0
M  V30 1659 H 150.269 1.67103 3.74949 0
M  V30 1660 H 148.93 0.732108 3.05449 0
M  V30 1661 H 148.123 2.83849 4.16468 0
M  V30 1662 H 147.725 2.84223 2.43091 0
M  V30 1663 H 150.017 4.26136 5.26701 0
M  V30 1664 H 150.96 5.53017 4.42242 0
M  V30 1665 H 151.368 3.80738 4.16772 0
M  V30 1666 N 150.766 -0.704594 1.40972 0
M  V30 1667 C 152.015 -1.46018 1.39146 0
M  V30 1668 C 152.328 -1.956 0.000589254 0
M  V30 1669 O 153.534 -2.71137 -0.1403 0
M  V30 1670 C 151.99 -2.63996 2.4461 0
M  V30 1671 C 151.598 -2.21238 3.89561 0
M  V30 1672 C 153.342 -3.41677 2.51907 0
M  V30 1673 C 151.249 -3.3612 4.86598 0
M  V30 1674 H 150.179 -0.548444 0.517422 0
M  V30 1675 H 152.83 -0.765784 1.66757 0
M  V30 1676 H 151.212 -3.3566 2.10115 0
M  V30 1677 H 152.386 -1.56923 4.33257 0
M  V30 1678 H 150.701 -1.56574 3.85841 0
M  V30 1679 H 153.298 -4.27182 3.2159 0
M  V30 1680 H 153.641 -3.86247 1.55303 0
M  V30 1681 H 154.174 -2.77064 2.85448 0
M  V30 1682 H 150.913 -2.96572 5.84573 0
M  V30 1683 H 150.433 -3.99315 4.47557 0
M  V30 1684 H 152.112 -4.02029 5.06934 0
M  V30 1685 N 152.244 -1.26651 -0.937939 0
M  V30 1686 C 153.472 -1.15173 -1.7188 0
M  V30 1687 C 153.887 0.292668 -1.86518 0
M  V30 1688 O 153.244 1.20014 -1.37488 0
M  V30 1689 C 153.295 -1.81925 -3.12387 0
M  V30 1690 O 153.016 -3.2072 -2.98446 0
M  V30 1691 C 154.517 -1.76442 -4.06673 0
M  V30 1692 H 151.737 -0.400911 -0.538063 0
M  V30 1693 H 154.281 -1.67332 -1.1756 0
M  V30 1694 H 152.436 -1.33696 -3.63599 0
M  V30 1695 H 152.85 -3.53802 -3.872 0
M  V30 1696 H 154.324 -2.27781 -5.02812 0
M  V30 1697 H 154.801 -0.731608 -4.33064 0
M  V30 1698 H 155.407 -2.24238 -3.61382 0
M  V30 1699 N 153.722 1.14298 -1.08507 0
M  V30 1700 C 154.97 1.84993 -0.813763 0
M  V30 1701 C 155.291 1.83405 0.662393 0
M  V30 1702 O 154.561 1.28319 1.48024 0
M  V30 1703 H 153.141 0.684966 -0.298045 0
M  V30 1704 H 155.803 1.385 -1.37126 0
M  V30 1705 H 154.899 2.89788 -1.15884 0
M  V30 1706 N 155.201 0.870884 1.31352 0
M  V30 1707 C 156.429 0.49677 2.00848 0
M  V30 1708 C 156.844 -0.910998 1.65367 0
M  V30 1709 O 156.201 -1.59696 0.883374 0
M  V30 1710 C 156.252 0.645308 3.55694 0
M  V30 1711 O 155.973 1.99764 3.89905 0
M  V30 1712 C 157.474 0.272326 4.42463 0
M  V30 1713 H 154.694 0.193462 0.642506 0
M  V30 1714 H 157.238 1.1723 1.67563 0
M  V30 1715 H 155.393 0.0173176 3.87396 0
M  V30 1716 H 155.807 2.00607 4.84621 0
M  V30 1717 H 157.281 0.427208 5.50344 0
M  V30 1718 H 157.758 -0.788587 4.32062 0
M  V30 1719 H 158.364 0.876054 4.1618 0
M  V30 1720 N 156.679 -1.44442 0.630414 0
M  V30 1721 C 157.904 -2.06927 0.139944 0
M  V30 1722 C 158.329 -1.46795 -1.17613 0
M  V30 1723 O 157.687 -0.569144 -1.72135 0
M  V30 1724 C 157.735 -3.6058 0.0379581 0
M  V30 1725 O 156.839 -3.99937 -1.0062 0
M  V30 1726 H 156.18 -0.658608 0.0844483 0
M  V30 1727 H 158.71 -1.85327 0.866891 0
M  V30 1728 H 158.72 -4.07714 -0.152856 0
M  V30 1729 H 157.395 -4.03728 0.998809 0
M  V30 1730 H 155.972 -3.64436 -0.79001 0
M  V30 1731 N 158.157 -0.370918 -1.53173 0
M  V30 1732 C 159.089 0.507823 -2.23503 0
M  V30 1733 C 160.102 1.04182 -1.251 0
M  V30 1734 O 161.291 0.947286 -1.5129 0
M  V30 1735 C 158.391 1.71447 -2.92334 0
M  V30 1736 C 157.564 1.31105 -4.17289 0
M  V30 1737 C 156.623 2.38035 -4.69282 0
M  V30 1738 O 155.649 2.00204 -5.32829 0
M  V30 1739 N 156.851 3.69697 -4.47554 0
M  V30 1740 H 159.616 -0.0946382 -2.99551 0
M  V30 1741 H 157.177 -0.196358 -1.60705 0
M  V30 1742 H 159.169 2.42469 -3.24023 0
M  V30 1743 H 157.739 2.22368 -2.19707 0
M  V30 1744 H 156.959 0.430462 -3.91843 0
M  V30 1745 H 158.247 1.0179 -4.98514 0
M  V30 1746 H 157.645 4.03205 -3.9679 0
M  V30 1747 H 156.202 4.36807 -4.8378 0
M  V30 1748 N 159.635 1.57281 -0.100228 0
M  V30 1749 C 160.598 2.13158 0.842398 0
M  V30 1750 C 161.598 1.06202 1.20738 0
M  V30 1751 O 162.788 1.32066 1.13597 0
M  V30 1752 C 159.92 2.65639 2.13655 0
M  V30 1753 H 161.113 2.97766 0.357114 0
M  V30 1754 H 158.666 1.5559 0.148823 0
M  V30 1755 H 159.401 1.84566 2.66657 0
M  V30 1756 H 159.186 3.43844 1.88451 0
M  V30 1757 H 160.676 3.08846 2.81077 0
M  V30 1758 N 161.113 -0.173488 1.56642 0
M  V30 1759 C 162.39 -0.917617 1.7274 0
M  V30 1760 C 162.77 -2.00484 0.661027 0
M  V30 1761 O 162.118 -2.26184 -0.32453 0
M  V30 1762 C 162.328 -1.48433 3.15862 0
M  V30 1763 C 163.676 -1.95809 3.76754 0
M  V30 1764 O 164.7 -1.58231 3.19126 0
M  V30 1765 O 163.559 -2.65024 4.77938 0
M  V30 1766 H 160.653 -0.431772 0.705338 0
M  V30 1767 H 163.199 -0.161487 1.6893 0
M  V30 1768 H 161.971 -0.701715 3.84957 0
M  V30 1769 H 161.594 -2.30471 3.23989 0
M  V30 1770 N 162.591 -1.51276 -0.441967 0
M  V30 1771 C 163.837 -1.63958 -1.19355 0
M  V30 1772 C 164.17 -0.352543 -1.90973 0
M  V30 1773 O 163.445 0.647627 -1.83401 0
M  V30 1774 C 163.728 -2.83979 -2.21422 0
M  V30 1775 C 163.581 -4.22646 -1.53918 0
M  V30 1776 C 164.9 -2.99521 -3.22451 0
M  V30 1777 H 162.019 -0.596709 -0.432559 0
M  V30 1778 H 164.661 -1.83748 -0.483398 0
M  V30 1779 H 162.811 -2.67237 -2.81987 0
M  V30 1780 H 164.483 -4.51045 -0.967256 0
M  V30 1781 H 162.726 -4.25558 -0.841615 0
M  V30 1782 H 163.397 -5.02609 -2.28229 0
M  V30 1783 H 165.873 -3.14944 -2.71937 0
M  V30 1784 H 164.749 -3.85072 -3.91166 0
M  V30 1785 H 165.01 -2.11391 -3.88287 0
M  V30 1786 N 164.069 0.697108 -1.41344 0
M  V30 1787 C 165.032 1.79281 -1.42797 0
M  V30 1788 C 166.032 1.57607 -0.318837 0
M  V30 1789 O 167.222 1.64309 -0.578642 0
M  V30 1790 C 164.354 3.17632 -1.23785 0
M  V30 1791 H 165.547 1.79385 -2.40335 0
M  V30 1792 H 163.1 0.904582 -1.27464 0
M  V30 1793 H 163.835 3.23167 -0.270814 0
M  V30 1794 H 163.62 3.34765 -2.04144 0
M  V30 1795 H 165.11 3.97617 -1.27633 0
M  V30 1796 N 165.547 1.27147 0.931209 0
M  V30 1797 C 166.477 1.12081 2.04842 0
M  V30 1798 C 167.458 0.0232364 1.70084 0
M  V30 1799 O 168.643 0.197085 1.93197 0
M  V30 1800 C 165.773 0.76354 3.38803 0
M  V30 1801 C 164.727 1.81396 3.87659 0
M  V30 1802 C 164.053 1.31075 5.18385 0
M  V30 1803 C 165.353 3.21739 4.11438 0
M  V30 1804 H 167.047 2.05537 2.17703 0
M  V30 1805 H 164.593 0.989603 1.04608 0
M  V30 1806 H 166.546 0.644982 4.16435 0
M  V30 1807 H 165.27 -0.206727 3.25945 0
M  V30 1808 H 163.929 1.92136 3.12217 0
M  V30 1809 H 163.577 0.330037 5.01916 0
M  V30 1810 H 163.277 2.013 5.52044 0
M  V30 1811 H 164.801 1.20506 5.98591 0
M  V30 1812 H 166.215 3.14019 4.79651 0
M  V30 1813 H 164.612 3.89644 4.56397 0
M  V30 1814 H 165.682 3.67054 3.16859 0
M  V30 1815 N 167.025 -1.13721 1.09112 0
M  V30 1816 C 167.955 -2.21148 0.749385 0
M  V30 1817 C 168.936 -1.6792 -0.271475 0
M  V30 1818 O 170.121 -1.93693 -0.140251 0
M  V30 1819 C 167.251 -3.46905 0.165659 0
M  V30 1820 C 166.205 -4.13203 1.11567 0
M  V30 1821 C 165.531 -5.33248 0.393809 0
M  V30 1822 C 166.831 -4.60912 2.45678 0
M  V30 1823 H 168.525 -2.4999 1.64758 0
M  V30 1824 H 166.071 -1.20156 0.793626 0
M  V30 1825 H 168.024 -4.21313 -0.085466 0
M  V30 1826 H 166.748 -3.17449 -0.767714 0
M  V30 1827 H 165.407 -3.40758 1.35202 0
M  V30 1828 H 165.055 -5.00054 -0.543599 0
M  V30 1829 H 164.755 -5.78552 1.02721 0
M  V30 1830 H 166.279 -6.10413 0.150908 0
M  V30 1831 H 167.693 -5.26759 2.26269 0
M  V30 1832 H 166.09 -5.16944 3.04776 0
M  V30 1833 H 167.16 -3.75603 3.06677 0
M  V30 1834 N 168.503 -0.877838 -1.30888 0
M  V30 1835 C 169.749 -0.493426 -1.96706 0
M  V30 1836 C 170.082 0.953504 -1.6918 0
M  V30 1837 O 169.357 1.67266 -0.992594 0
M  V30 1838 C 169.64 -0.760429 -3.51979 0
M  V30 1839 C 169.493 -2.25747 -3.89048 0
M  V30 1840 C 170.812 -0.232148 -4.39487 0
M  V30 1841 H 167.931 -0.180746 -0.714493 0
M  V30 1842 H 170.573 -1.10052 -1.54882 0
M  V30 1843 H 168.723 -0.243715 -3.87735 0
M  V30 1844 H 170.395 -2.84204 -3.63354 0
M  V30 1845 H 168.638 -2.72694 -3.37373 0
M  V30 1846 H 169.309 -2.39491 -4.97341 0
M  V30 1847 H 171.785 -0.674314 -4.106 0
M  V30 1848 H 170.661 -0.448355 -5.47066 0
M  V30 1849 H 170.922 0.866297 -4.33529 0
M  V30 1850 N 169.982 1.44106 -0.638065 0
M  V30 1851 C 171.228 2.02277 -0.145546 0
M  V30 1852 C 171.561 1.50125 1.23191 0
M  V30 1853 O 170.836 0.688133 1.8192 0
M  V30 1854 C 171.119 3.59829 -0.139791 0
M  V30 1855 C 170.972 4.22247 -1.55008 0
M  V30 1856 C 172.291 4.36873 0.531966 0
M  V30 1857 H 169.41 0.734992 -0.0543632 0
M  V30 1858 H 172.052 1.71592 -0.815863 0
M  V30 1859 H 170.202 3.86102 0.431007 0
M  V30 1860 H 171.874 4.07057 -2.1703 0
M  V30 1861 H 170.117 3.79476 -2.10191 0
M  V30 1862 H 170.788 5.31284 -1.49804 0
M  V30 1863 H 173.264 4.16074 0.0464781 0
M  V30 1864 H 172.14 5.4657 0.505206 0
M  V30 1865 H 172.401 4.11995 1.60352 0
M  V30 1866 N 171.46 0.379036 1.52974 0
M  V30 1867 C 172.871 -0.0972525 1.86447 0
M  V30 1868 C 173.222 -1.47027 1.29914 0
M  V30 1869 O 172.347 -2.07135 0.626433 0
M  V30 1870 C 172.942 -0.183248 3.38304 0
M  V30 1871 C 171.501 -0.603812 3.71525 0
M  V30 1872 C 170.648 0.240632 2.76254 0
M  V30 1873 H 173.599 0.597316 1.4703 0
M  V30 1874 H 173.62 -1.00432 3.67006 0
M  V30 1875 H 173.132 0.816191 3.79421 0
M  V30 1876 H 171.233 -1.61099 3.35973 0
M  V30 1877 H 171.346 -0.369086 4.77676 0
M  V30 1878 H 169.71 -0.292548 2.53014 0
M  V30 1879 H 170.493 1.23786 3.20206 0
M  V30 1880 N 172.938 -1.57226 0.108567 0
M  V30 1881 C 173.901 -2.13602 -0.831082 0
M  V30 1882 C 174.901 -1.06841 -1.20173 0
M  V30 1883 O 176.091 -1.32666 -1.12895 0
M  V30 1884 C 173.223 -2.66769 -2.12243 0
M  V30 1885 H 174.416 -2.97951 -0.341317 0
M  V30 1886 H 171.969 -1.55667 -0.14057 0
M  V30 1887 H 172.704 -1.85977 -2.65675 0
M  V30 1888 H 172.489 -3.44839 -1.86625 0
M  V30 1889 H 173.979 -3.10332 -2.79435 0
M  V30 1890 N 174.416 0.165178 -1.56732 0
M  V30 1891 C 175.693 0.908443 -1.73224 0
M  V30 1892 C 176.073 2.0013 -0.67165 0
M  V30 1893 O 175.421 2.26353 0.31253 0
M  V30 1894 C 175.631 1.46756 -3.16644 0
M  V30 1895 C 176.979 1.93809 -3.77787 0
M  V30 1896 O 178.003 1.56537 -3.1996 0
M  V30 1897 O 176.862 2.62486 -4.79336 0
M  V30 1898 H 173.956 0.428025 -0.707618 0
M  V30 1899 H 176.502 0.152526 -1.69013 0
M  V30 1900 H 175.274 0.68129 -3.85323 0
M  V30 1901 H 174.897 2.28749 -3.25207 0
M  V30 1902 N 175.894 1.51508 0.433938 0
M  V30 1903 C 177.14 1.64588 1.18484 0
M  V30 1904 C 177.473 0.362666 1.90784 0
M  V30 1905 O 176.748 -0.637892 1.83742 0
M  V30 1906 C 177.031 2.85149 2.19913 0
M  V30 1907 C 176.884 4.23456 1.51674 0
M  V30 1908 C 178.203 3.01227 3.20858 0
M  V30 1909 H 175.322 0.598994 0.429389 0
M  V30 1910 H 177.964 1.84002 0.473647 0
M  V30 1911 H 176.114 2.68729 2.80566 0
M  V30 1912 H 177.786 4.51552 0.943322 0
M  V30 1913 H 176.029 4.25998 0.819035 0
M  V30 1914 H 176.7 5.03812 2.2556 0
M  V30 1915 H 179.176 3.16382 2.70263 0
M  V30 1916 H 178.052 3.87141 3.89118 0
M  V30 1917 H 178.313 2.13447 3.8716 0
M  V30 1918 N 177.372 -0.689602 1.41712 0
M  V30 1919 C 178.62 -1.4468 1.4111 0
M  V30 1920 C 178.941 -1.94986 0.0232196 0
M  V30 1921 O 178.211 -1.72097 -0.935913 0
M  V30 1922 H 176.791 -0.536847 0.519427 0
M  V30 1923 H 179.453 -0.815825 1.77004 0
M  V30 1924 H 178.549 -2.30706 2.10193 0
M  V30 1925 N 178.85 -1.27639 -0.924453 0
M  V30 1926 C 180.098 -1.13941 -1.66918 0
M  V30 1927 C 180.419 0.314589 -1.92446 0
M  V30 1928 O 179.689 1.21964 -1.53303 0
M  V30 1929 H 178.269 -0.418678 -0.618642 0
M  V30 1930 H 180.931 -1.60213 -1.10985 0
M  V30 1931 H 180.027 -1.67094 -2.63602 0
M  V30 1932 N 180.328 1.1314 -1.09713 0
M  V30 1933 C 181.575 1.84484 -0.834987 0
M  V30 1934 C 181.903 1.83689 0.639418 0
M  V30 1935 O 181.158 1.2724 1.4869 0
M  V30 1936 C 181.457 3.32167 -1.3191 0
M  V30 1937 C 181.123 3.53139 -2.80363 0
M  V30 1938 C 179.785 3.58571 -3.20905 0
M  V30 1939 C 182.137 3.60866 -3.76065 0
M  V30 1940 C 179.465 3.69267 -4.55916 0
M  V30 1941 C 181.817 3.73089 -5.10869 0
M  V30 1942 C 180.481 3.76775 -5.50996 0
M  V30 1943 H 179.751 0.675073 -0.305544 0
M  V30 1944 H 182.398 1.33554 -1.37243 0
M  V30 1945 H 180.703 3.85469 -0.701517 0
M  V30 1946 H 182.4 3.85821 -1.09284 0
M  V30 1947 H 178.99 3.49569 -2.47991 0
M  V30 1948 H 183.174 3.55946 -3.45855 0
M  V30 1949 H 178.43 3.70388 -4.86438 0
M  V30 1950 H 182.604 3.78011 -5.84877 0
M  V30 1951 H 180.231 3.84815 -6.55608 0
M  V30 1952 N 181.806 0.884767 1.30421 0
M  V30 1953 C 183.083 0.423185 1.90967 0
M  V30 1954 C 183.463 -1.09605 1.80416 0
M  V30 1955 O 182.811 -1.93126 1.22125 0
M  V30 1956 C 183.021 0.921056 3.36627 0
M  V30 1957 C 184.369 0.955903 4.137 0
M  V30 1958 O 185.393 0.867706 3.4547 0
M  V30 1959 O 184.252 1.08614 5.35598 0
M  V30 1960 H 181.346 0.129369 0.816819 0
M  V30 1961 H 183.892 0.973653 1.3899 0
M  V30 1962 H 182.664 1.96489 3.3839 0
M  V30 1963 H 182.287 0.349741 3.96059 0
M  V30 1964 N 183.284 -1.43765 0.645699 0
M  V30 1965 C 184.532 -2.01499 0.155731 0
M  V30 1966 C 184.853 -1.51151 -1.232 0
M  V30 1967 O 184.123 -0.721044 -1.82148 0
M  V30 1968 H 182.703 -0.745003 0.0545817 0
M  V30 1969 H 185.365 -1.76075 0.835677 0
M  V30 1970 H 184.461 -3.1181 0.134577 0
M  V30 1971 N 184.763 -0.387143 -1.52771 0
M  V30 1972 C 185.726 0.436939 -2.24997 0
M  V30 1973 C 186.726 0.991991 -1.26555 0
M  V30 1974 O 187.916 0.874335 -1.50669 0
M  V30 1975 C 185.048 1.61281 -3.00335 0
M  V30 1976 H 186.241 -0.195365 -2.99263 0
M  V30 1977 H 183.794 -0.139218 -1.55679 0
M  V30 1978 H 184.529 2.2826 -2.30364 0
M  V30 1979 H 184.314 1.22154 -3.72587 0
M  V30 1980 H 185.804 2.19629 -3.5518 0
M  V30 1981 N 186.241 1.57166 -0.116904 0
M  V30 1982 C 187.488 1.95123 0.541603 0
M  V30 1983 C 187.816 1.00006 1.6682 0
M  V30 1984 O 187.071 0.0235658 1.95686 0
M  V30 1985 C 187.37 3.39508 1.11664 0
M  V30 1986 C 187.036 4.50762 0.111606 0
M  V30 1987 C 185.698 4.80918 -0.164758 0
M  V30 1988 C 188.05 5.18036 -0.573438 0
M  V30 1989 C 185.378 5.75666 -1.13249 0
M  V30 1990 C 187.73 6.13824 -1.52978 0
M  V30 1991 C 186.394 6.42374 -1.81415 0
M  V30 1992 H 185.664 0.714005 0.198187 0
M  V30 1993 H 188.311 1.9048 -0.197365 0
M  V30 1994 H 186.616 3.40835 1.93232 0
M  V30 1995 H 188.313 3.66189 1.63422 0
M  V30 1996 H 184.903 4.27272 0.337192 0
M  V30 1997 H 189.087 4.94896 -0.373092 0
M  V30 1998 H 184.343 5.96092 -1.35958 0
M  V30 1999 H 188.517 6.65039 -2.06629 0
M  V30 2000 H 186.144 7.15599 -2.56557 0
M  V30 2001 N 187.719 -0.156864 1.56817 0
M  V30 2002 C 188.944 -0.890331 1.87318 0
M  V30 2003 C 189.369 -1.74394 0.704855 0
M  V30 2004 O 188.727 -1.77972 -0.345786 0
M  V30 2005 C 188.775 -1.73102 3.16336 0
M  V30 2006 O 187.879 -2.83422 2.99576 0
M  V30 2007 H 187.22 -0.24857 0.615718 0
M  V30 2008 H 189.75 -0.150649 2.04045 0
M  V30 2009 H 189.76 -2.12803 3.48107 0
M  V30 2010 H 188.435 -1.10412 4.00976 0
M  V30 2011 H 187.012 -2.47199 2.7919 0
M  V30 2012 N 189.197 -1.51736 -0.425897 0
M  V30 2013 C 190.144 -1.73875 -1.51776 0
M  V30 2014 C 191.114 -0.580702 -1.55618 0
M  V30 2015 O 192.299 -0.81641 -1.72451 0
M  V30 2016 C 189.439 -1.88012 -2.89388 0
M  V30 2017 C 188.552 -3.15606 -2.94986 0
M  V30 2018 C 187.687 -3.20271 -4.23793 0
M  V30 2019 C 186.726 -4.42134 -4.23302 0
M  V30 2020 N 185.863 -4.44284 -5.43651 0
M  V30 2021 H 190.703 -2.67071 -1.32201 0
M  V30 2022 H 188.24 -1.32351 -0.642008 0
M  V30 2023 H 190.198 -1.9419 -3.69251 0
M  V30 2024 H 188.828 -0.98213 -3.07496 0
M  V30 2025 H 187.88 -3.18681 -2.07717 0
M  V30 2026 H 189.192 -4.05486 -2.90486 0
M  V30 2027 H 188.346 -3.25428 -5.12036 0
M  V30 2028 H 187.085 -2.28299 -4.30965 0
M  V30 2029 H 186.09 -4.3714 -3.3345 0
M  V30 2030 H 187.315 -5.35382 -4.17783 0
M  V30 2031 H 185.261 -3.55188 -5.51523 0
M  V30 2032 H 185.178 -5.27988 -5.41078 0
M  V30 2033 H 186.446 -4.53649 -6.33895 0
M  V30 2034 N 190.675 0.682077 -1.42076 0
M  V30 2035 C 191.585 1.82535 -1.47371 0
M  V30 2036 C 192.601 1.7017 -0.363079 0
M  V30 2037 O 193.777 1.91848 -0.612875 0
M  V30 2038 C 190.842 3.18624 -1.36674 0
M  V30 2039 C 189.903 3.42999 -2.58167 0
M  V30 2040 C 189.136 4.72595 -2.4797 0
M  V30 2041 O 189.359 5.50006 -1.5116 0
M  V30 2042 O 188.293 4.98054 -3.37974 0
M  V30 2043 H 192.119 1.81023 -2.43853 0
M  V30 2044 H 189.704 0.836887 -1.2376 0
M  V30 2045 H 191.586 3.99847 -1.33043 0
M  V30 2046 H 190.261 3.20789 -0.433138 0
M  V30 2047 H 189.168 2.61653 -2.67373 0
M  V30 2048 H 190.501 3.45659 -3.50401 0
M  V30 2049 N 192.153 1.28127 0.917671 0
M  V30 2050 C 193.401 1.14825 1.66312 0
M  V30 2051 C 193.722 -0.304379 1.9261 0
M  V30 2052 O 192.992 -1.21149 1.53947 0
M  V30 2053 H 191.572 0.421953 0.616413 0
M  V30 2054 H 194.234 1.608 1.10134 0
M  V30 2055 H 193.33 1.68489 2.62712 0
M  V30 2056 N 193.631 -1.12557 1.10312 0
M  V30 2057 C 194.563 -2.17971 0.708625 0
M  V30 2058 C 195.576 -1.60806 -0.254027 0
M  V30 2059 O 196.765 -1.78458 -0.0386891 0
M  V30 2060 C 193.865 -3.38891 0.0248198 0
M  V30 2061 C 193.038 -4.25548 1.01132 0
M  V30 2062 C 192.097 -5.24972 0.35924 0
M  V30 2063 O 191.123 -5.60174 1.00965 0
M  V30 2064 N 192.325 -5.73747 -0.882847 0
M  V30 2065 H 195.09 -2.52427 1.61557 0
M  V30 2066 H 192.651 -1.27967 0.991771 0
M  V30 2067 H 194.643 -4.02485 -0.422852 0
M  V30 2068 H 193.213 -3.02596 -0.784514 0
M  V30 2069 H 192.433 -3.58589 1.6373 0
M  V30 2070 H 193.721 -4.80294 1.67914 0
M  V30 2071 H 193.119 -5.4731 -1.43065 0
M  V30 2072 H 191.676 -6.39234 -1.27369 0
M  V30 2073 N 195.109 -0.891671 -1.2995 0
M  V30 2074 C 196.337 -0.52866 -2.00032 0
M  V30 2075 C 196.752 0.884574 -1.66795 0
M  V30 2076 O 196.109 1.5827 -0.908669 0
M  V30 2077 C 196.16 -0.701814 -3.54622 0
M  V30 2078 O 195.881 -2.05942 -3.86678 0
M  V30 2079 C 197.382 -0.342683 -4.41973 0
M  V30 2080 H 194.602 -0.203659 -0.639347 0
M  V30 2081 H 197.146 -1.19881 -1.65677 0
M  V30 2082 H 195.301 -0.0789468 -3.8732 0
M  V30 2083 H 195.715 -2.08291 -4.81368 0
M  V30 2084 H 197.189 -0.514709 -5.49595 0
M  V30 2085 H 197.666 0.71975 -4.33262 0
M  V30 2086 H 198.272 -0.942154 -4.14733 0
M  V30 2087 N 196.587 1.43421 -0.653314 0
M  V30 2088 C 197.534 2.30768 0.0382271 0
M  V30 2089 C 198.504 1.44755 0.814576 0
M  V30 2090 O 199.689 1.73624 0.791162 0
M  V30 2091 C 196.829 3.30336 0.998599 0
M  V30 2092 C 195.942 4.31448 0.218342 0
M  V30 2093 C 195.077 5.18098 1.17252 0
M  V30 2094 C 194.116 6.10902 0.382702 0
M  V30 2095 N 193.253 6.90176 1.28848 0
M  V30 2096 H 198.093 2.89357 -0.712511 0
M  V30 2097 H 195.63 1.42548 -0.363128 0
M  V30 2098 H 197.588 3.86572 1.56901 0
M  V30 2099 H 196.218 2.73397 1.71621 0
M  V30 2100 H 195.27 3.77506 -0.46836 0
M  V30 2101 H 196.582 4.97227 -0.395812 0
M  V30 2102 H 195.736 5.7896 1.81356 0
M  V30 2103 H 194.475 4.52444 1.82058 0
M  V30 2104 H 193.48 5.49128 -0.27169 0
M  V30 2105 H 194.705 6.78598 -0.260957 0
M  V30 2106 H 192.651 6.27171 1.92334 0
M  V30 2107 H 192.568 7.52478 0.728887 0
M  V30 2108 H 193.836 7.55543 1.91766 0
M  V30 2109 N 198.065 0.39524 1.52563 0
M  V30 2110 C 198.975 -0.444232 2.30356 0
M  V30 2111 C 199.991 -1.06615 1.37511 0
M  V30 2112 O 201.167 -1.07067 1.70583 0
M  V30 2113 C 198.232 -1.55315 3.09964 0
M  V30 2114 C 197.293 -0.955734 4.18526 0
M  V30 2115 C 196.526 -2.01181 4.9433 0
M  V30 2116 O 196.749 -3.22781 4.70285 0
M  V30 2117 O 195.683 -1.62579 5.79527 0
M  V30 2118 H 199.509 0.189667 3.03107 0
M  V30 2119 H 197.094 0.1588 1.48554 0
M  V30 2120 H 198.976 -2.19724 3.59582 0
M  V30 2121 H 197.651 -2.17191 2.4002 0
M  V30 2122 H 196.558 -0.274743 3.7309 0
M  V30 2123 H 197.891 -0.381109 4.90722 0
M  V30 2124 N 199.544 -1.57102 0.125237 0
M  V30 2125 C 200.494 -2.12202 -0.833936 0
M  V30 2126 C 201.478 -1.04433 -1.22403 0
M  V30 2127 O 202.67 -1.30655 -1.19408 0
M  V30 2128 C 199.799 -2.72994 -2.08157 0
M  V30 2129 C 198.885 -3.87852 -1.71556 0
M  V30 2130 N 199.276 -4.9464 -1.05662 0
M  V30 2131 C 197.574 -3.98153 -2.00973 0
M  V30 2132 C 198.275 -5.74953 -0.883376 0
M  V30 2133 N 197.251 -5.24985 -1.41036 0
M  V30 2134 H 201.053 -2.92141 -0.321035 0
M  V30 2135 H 198.567 -1.62217 -0.0770315 0
M  V30 2136 H 200.564 -3.10816 -2.77847 0
M  V30 2137 H 199.224 -1.9452 -2.59985 0
M  V30 2138 H 200.235 -5.12872 -0.719878 0
M  V30 2139 H 196.912 -3.30728 -2.54804 0
M  V30 2140 H 198.302 -6.70904 -0.365675 0
M  V30 2141 N 201.022 0.148545 -1.56898 0
M  V30 2142 C 202.268 0.862694 -1.83536 0
M  V30 2143 C 202.601 1.80889 -0.706604 0
M  V30 2144 O 201.876 1.92328 0.289885 0
M  V30 2145 C 202.159 1.63853 -3.20662 0
M  V30 2146 C 202.012 0.713925 -4.44098 0
M  V30 2147 C 203.331 2.60133 -3.54991 0
M  V30 2148 H 200.45 0.312179 -0.667618 0
M  V30 2149 H 203.092 0.127953 -1.89569 0
M  V30 2150 H 201.242 2.26489 -3.1565 0
M  V30 2151 H 202.914 0.098686 -4.61194 0
M  V30 2152 H 201.157 0.0234019 -4.33794 0
M  V30 2153 H 201.828 1.29278 -5.36648 0
M  V30 2154 H 204.304 2.07616 -3.60603 0
M  V30 2155 H 203.18 3.11468 -4.51972 0
M  V30 2156 H 203.441 3.41417 -2.80868 0
M  V30 2157 N 202.5 1.5196 0.417844 0
M  V30 2158 C 203.43 1.77634 1.51554 0
M  V30 2159 C 204.411 0.626918 1.58126 0
M  V30 2160 O 205.596 0.871632 1.7354 0
M  V30 2161 C 202.726 1.91911 2.8946 0
M  V30 2162 C 201.68 3.07463 2.97743 0
M  V30 2163 C 201.006 3.06951 4.37819 0
M  V30 2164 C 202.306 4.47082 2.70027 0
M  V30 2165 H 204 2.6955 1.3032 0
M  V30 2166 H 201.546 1.29706 0.625492 0
M  V30 2167 H 203.499 2.08455 3.6623 0
M  V30 2168 H 202.223 0.966598 3.11969 0
M  V30 2169 H 200.882 2.90656 2.23416 0
M  V30 2170 H 200.53 2.09438 4.57323 0
M  V30 2171 H 200.23 3.84556 4.44286 0
M  V30 2172 H 201.754 3.25613 5.16535 0
M  V30 2173 H 203.168 4.6414 3.36522 0
M  V30 2174 H 201.565 5.2654 2.87881 0
M  V30 2175 H 202.635 4.55777 1.65514 0
M  V30 2176 N 203.978 -0.674533 1.42435 0
M  V30 2177 C 204.908 -1.80009 1.48724 0
M  V30 2178 C 205.889 -1.6659 0.343793 0
M  V30 2179 O 207.074 -1.86007 0.558137 0
M  V30 2180 C 204.204 -3.18306 1.38919 0
M  V30 2181 C 203.158 -3.46461 2.51294 0
M  V30 2182 C 202.484 -4.84335 2.26547 0
M  V30 2183 C 203.784 -3.43328 3.93603 0
M  V30 2184 H 205.478 -1.75004 2.42928 0
M  V30 2185 H 203.024 -0.840533 1.16923 0
M  V30 2186 H 204.977 -3.9678 1.41927 0
M  V30 2187 H 203.701 -3.2399 0.412094 0
M  V30 2188 H 202.36 -2.70348 2.47604 0
M  V30 2189 H 202.008 -4.86669 1.2713 0
M  V30 2190 H 201.708 -5.04136 3.01861 0
M  V30 2191 H 203.232 -5.65094 2.31304 0
M  V30 2192 H 204.646 -4.11772 3.98894 0
M  V30 2193 H 203.043 -3.74664 4.68771 0
M  V30 2194 H 204.113 -2.41897 4.20255 0
M  V30 2195 N 205.456 -1.28612 -0.910864 0
M  V30 2196 C 206.419 -1.12803 -1.9952 0
M  V30 2197 C 207.419 -0.0668264 -1.60661 0
M  V30 2198 O 208.609 -0.312847 -1.71368 0
M  V30 2199 C 205.741 -0.72254 -3.33155 0
M  V30 2200 H 206.934 -2.09109 -2.14973 0
M  V30 2201 H 204.487 -1.11639 -1.09391 0
M  V30 2202 H 205.222 0.241152 -3.23402 0
M  V30 2203 H 205.007 -1.48916 -3.62721 0
M  V30 2204 H 206.497 -0.634666 -4.12749 0
M  V30 2205 N 206.934 1.1197 -1.10907 0
M  V30 2206 C 208.181 1.83588 -0.854507 0
M  V30 2207 C 208.509 1.84357 0.6199 0
M  V30 2208 O 207.764 1.28809 1.47332 0
M  V30 2209 C 208.063 3.30749 -1.35425 0
M  V30 2210 C 207.729 3.50146 -2.84093 0
M  V30 2211 C 206.391 3.55148 -3.2469 0
M  V30 2212 C 208.743 3.56857 -3.79872 0
M  V30 2213 C 206.071 3.6441 -4.59806 0
M  V30 2214 C 208.423 3.6765 -5.14797 0
M  V30 2215 C 207.087 3.7091 -5.54961 0
M  V30 2216 H 206.357 0.671795 -0.312686 0
M  V30 2217 H 209.004 1.32091 -1.38652 0
M  V30 2218 H 207.309 3.84703 -0.742361 0
M  V30 2219 H 209.006 3.8464 -1.1337 0
M  V30 2220 H 205.596 3.46919 -2.51685 0
M  V30 2221 H 209.78 3.52258 -3.49611 0
M  V30 2222 H 205.036 3.65208 -4.9034 0
M  V30 2223 H 209.21 3.71786 -5.88853 0
M  V30 2224 H 206.837 3.7784 -6.59652 0
M  V30 2225 N 208.412 0.89855 1.29475 0
M  V30 2226 C 209.64 0.539261 1.99749 0
M  V30 2227 C 210.055 -0.875716 1.67262 0
M  V30 2228 O 209.412 -1.57786 0.917049 0
M  V30 2229 C 209.463 0.72061 3.54245 0
M  V30 2230 O 209.184 2.07989 3.8558 0
M  V30 2231 C 210.685 0.366118 4.41786 0
M  V30 2232 H 207.905 0.207047 0.638258 0
M  V30 2233 H 210.449 1.20758 1.65039 0
M  V30 2234 H 208.604 0.0994862 3.87272 0
M  V30 2235 H 209.018 2.10841 4.80257 0
M  V30 2236 H 210.492 0.543848 5.49314 0
M  V30 2237 H 210.969 -0.696763 4.33638 0
M  V30 2238 H 211.575 0.964135 4.14228 0
M  V30 2239 N 209.89 -1.43072 0.660911 0
M  V30 2240 C 210.82 -2.33497 -0.0122829 0
M  V30 2241 C 211.801 -1.49903 -0.803925 0
M  V30 2242 O 212.986 -1.78546 -0.763864 0
M  V30 2243 C 210.116 -3.33363 -0.973994 0
M  V30 2244 C 209.07 -4.27003 -0.291928 0
M  V30 2245 C 208.396 -5.16967 -1.36562 0
M  V30 2246 C 209.696 -5.15816 0.820462 0
M  V30 2247 H 211.39 -2.90038 0.742873 0
M  V30 2248 H 208.936 -1.39461 0.358688 0
M  V30 2249 H 210.889 -3.95524 -1.45392 0
M  V30 2250 H 209.613 -2.75095 -1.7604 0
M  V30 2251 H 208.272 -3.66217 0.167623 0
M  V30 2252 H 207.92 -4.55034 -2.14366 0
M  V30 2253 H 207.62 -5.80441 -0.914454 0
M  V30 2254 H 209.144 -5.82003 -1.84675 0
M  V30 2255 H 210.558 -5.71742 0.422366 0
M  V30 2256 H 208.955 -5.8805 1.19656 0
M  V30 2257 H 210.025 -4.55045 1.67518 0
M  V30 2258 N 211.368 -0.403325 -1.52352 0
M  V30 2259 C 212.616 0.174003 -2.0135 0
M  V30 2260 C 212.937 1.46139 -1.29106 0
M  V30 2261 O 212.207 1.91448 -0.415253 0
M  V30 2262 H 210.787 0.0672911 -0.743963 0
M  V30 2263 H 213.449 -0.538235 -1.87321 0
M  V30 2264 H 212.545 0.374254 -3.09848 0
M  V30 2265 N 212.846 1.57033 -0.133567 0
M  V30 2266 C 214.092 1.95976 0.521649 0
M  V30 2267 C 214.425 1.01779 1.65393 0
M  V30 2268 O 213.7 0.0576581 1.94415 0
M  V30 2269 C 213.983 3.44738 1.04057 0
M  V30 2270 C 213.836 4.49711 -0.0892897 0
M  V30 2271 C 215.155 3.95682 1.92675 0
M  V30 2272 H 212.274 0.712579 0.188149 0
M  V30 2273 H 214.916 1.88813 -0.212076 0
M  V30 2274 H 213.066 3.50973 1.66583 0
M  V30 2275 H 214.738 4.55565 -0.725152 0
M  V30 2276 H 212.981 4.27261 -0.750378 0
M  V30 2277 H 213.652 5.51099 0.315284 0
M  V30 2278 H 216.128 3.91841 1.39998 0
M  V30 2279 H 215.004 5.00262 2.25897 0
M  V30 2280 H 215.265 3.37239 2.85872 0
M  V30 2281 N 214.325 -0.140222 1.56975 0
M  V30 2282 C 215.272 -1.17292 1.98774 0
M  V30 2283 C 216.242 -1.4232 0.856408 0
M  V30 2284 O 217.427 -1.54541 1.119 0
M  V30 2285 C 214.567 -2.49973 2.37923 0
M  V30 2286 C 213.68 -2.32062 3.64378 0
M  V30 2287 C 212.815 -3.57825 3.926 0
M  V30 2288 C 211.854 -3.3498 5.12303 0
M  V30 2289 N 210.991 -4.52891 5.36502 0
M  V30 2290 H 215.831 -0.809472 2.86795 0
M  V30 2291 H 213.368 -0.388237 1.41884 0
M  V30 2292 H 215.326 -3.27346 2.58652 0
M  V30 2293 H 213.956 -2.84252 1.52972 0
M  V30 2294 H 213.008 -1.45711 3.51387 0
M  V30 2295 H 214.32 -2.11145 4.51906 0
M  V30 2296 H 213.474 -4.43624 4.13863 0
M  V30 2297 H 212.213 -3.81753 3.03506 0
M  V30 2298 H 211.218 -2.4757 4.90906 0
M  V30 2299 H 212.443 -3.12444 6.02956 0
M  V30 2300 H 210.389 -4.76979 4.50363 0
M  V30 2301 H 210.306 -4.35001 6.18312 0
M  V30 2302 H 211.574 -5.39884 5.62268 0
M  V30 2303 N 215.803 -1.52179 -0.40978 0
M  V30 2304 C 216.735 -1.71703 -1.51825 0
M  V30 2305 C 217.748 -0.597445 -1.51441 0
M  V30 2306 O 218.937 -0.872582 -1.55719 0
M  V30 2307 C 216.037 -1.74171 -2.90719 0
M  V30 2308 C 215.21 -3.03156 -3.15302 0
M  V30 2309 C 214.269 -2.97445 -4.34065 0
M  V30 2310 O 213.295 -3.71352 -4.31377 0
M  V30 2311 N 214.497 -2.15191 -5.39141 0
M  V30 2312 H 217.262 -2.67334 -1.35472 0
M  V30 2313 H 214.823 -1.50409 -0.599069 0
M  V30 2314 H 216.815 -1.67884 -3.68235 0
M  V30 2315 H 215.385 -0.860166 -3.00533 0
M  V30 2316 H 214.605 -3.23097 -2.25836 0
M  V30 2317 H 215.893 -3.88484 -3.28569 0
M  V30 2318 H 215.291 -1.54573 -5.44173 0
M  V30 2319 H 213.848 -2.1476 -6.15403 0
M  V30 2320 N 217.281 0.66697 -1.42791 0
M  V30 2321 C 218.53 1.42278 -1.42968 0
M  V30 2322 C 218.843 1.9553 -0.0524489 0
M  V30 2323 O 220.049 2.71414 0.068363 0
M  V30 2324 C 218.505 2.57418 -2.51524 0
M  V30 2325 C 218.113 2.10832 -3.9529 0
M  V30 2326 C 219.857 3.34878 -2.60877 0
M  V30 2327 C 217.764 3.23101 -4.95338 0
M  V30 2328 H 216.694 0.534533 -0.531781 0
M  V30 2329 H 219.345 0.721302 -1.68729 0
M  V30 2330 H 217.727 3.29971 -2.18941 0
M  V30 2331 H 218.901 1.4538 -4.37266 0
M  V30 2332 H 217.216 1.46289 -3.89857 0
M  V30 2333 H 219.813 4.18505 -3.32802 0
M  V30 2334 H 220.156 3.81993 -1.6549 0
M  V30 2335 H 220.689 2.69398 -2.92693 0
M  V30 2336 H 217.428 2.80969 -5.9223 0
M  V30 2337 H 216.948 3.87309 -4.57987 0
M  V30 2338 H 218.627 3.88447 -5.17415 0
M  V30 2339 N 218.759 1.29093 0.90403 0
M  V30 2340 C 220.005 1.16986 1.65656 0
M  V30 2341 C 220.338 -0.278925 1.92186 0
M  V30 2342 O 219.613 -1.2019 1.5292 0
M  V30 2343 C 219.896 1.97908 3.0084 0
M  V30 2344 C 219.749 3.50903 2.81403 0
M  V30 2345 C 221.068 1.80208 4.01513 0
M  V30 2346 H 218.187 0.426346 0.601164 0
M  V30 2347 H 220.829 1.58518 1.04747 0
M  V30 2348 H 218.979 1.62616 3.52829 0
M  V30 2349 H 220.651 3.96153 2.36348 0
M  V30 2350 H 218.894 3.76045 2.1627 0
M  V30 2351 H 219.565 4.02791 3.77443 0
M  V30 2352 H 222.041 2.11025 3.58619 0
M  V30 2353 H 220.917 2.39184 4.94047 0
M  V30 2354 H 221.178 0.756119 4.35586 0
M  V30 2355 N 220.237 -1.11381 1.11499 0
M  V30 2356 C 221.483 -1.83403 0.865512 0
M  V30 2357 C 221.816 -1.84459 -0.607329 0
M  V30 2358 O 221.091 -1.29811 -1.44842 0
M  V30 2359 C 221.374 -3.30552 1.42855 0
M  V30 2360 C 221.227 -3.37886 2.96906 0
M  V30 2361 C 222.546 -4.26643 1.08 0
M  V30 2362 H 219.665 -0.665879 0.31587 0
M  V30 2363 H 222.307 -1.30601 1.37998 0
M  V30 2364 H 220.457 -3.75648 0.990985 0
M  V30 2365 H 222.129 -3.01343 3.49271 0
M  V30 2366 H 220.372 -2.78088 3.32941 0
M  V30 2367 H 221.043 -4.41458 3.31389 0
M  V30 2368 H 223.519 -3.89729 1.45775 0
M  V30 2369 H 222.395 -5.27986 1.50072 0
M  V30 2370 H 222.656 -4.42099 -0.00915037 0
M  V30 2371 N 221.715 -0.905404 -1.28997 0
M  V30 2372 C 222.963 -0.533192 -1.9494 0
M  V30 2373 C 223.284 0.924618 -1.71685 0
M  V30 2374 O 222.554 1.65268 -1.05183 0
M  V30 2375 H 221.134 -0.194194 -0.721317 0
M  V30 2376 H 223.796 -1.15294 -1.57141 0
M  V30 2377 H 222.892 -0.72059 -3.03667 0
M  V30 2378 N 223.193 1.4272 -0.668489 0
M  V30 2379 C 224.439 2.01923 -0.188419 0
M  V30 2380 C 224.772 1.52704 1.19979 0
M  V30 2381 O 224.047 0.726566 1.8042 0
M  V30 2382 C 224.33 3.59451 -0.216085 0
M  V30 2383 C 224.183 4.18864 -1.6393 0
M  V30 2384 C 225.502 4.37903 0.439179 0
M  V30 2385 H 222.621 0.733674 -0.0699412 0
M  V30 2386 H 225.263 1.69822 -0.852076 0
M  V30 2387 H 223.413 3.86929 0.349012 0
M  V30 2388 H 225.085 4.02362 -2.25616 0
M  V30 2389 H 223.328 3.74933 -2.18193 0
M  V30 2390 H 223.999 5.27987 -1.61039 0
M  V30 2391 H 226.475 4.16079 -0.0417878 0
M  V30 2392 H 225.351 5.47519 0.389157 0
M  V30 2393 H 225.612 4.15303 1.51577 0
M  V30 2394 N 224.671 0.411399 1.52136 0
M  V30 2395 C 225.619 -0.427633 2.28635 0
M  V30 2396 C 226.613 -1.04383 1.33419 0
M  V30 2397 O 227.819 -0.981772 1.50868 0
M  V30 2398 H 224.194 -0.156689 0.735495 0
M  V30 2399 H 226.165 0.238761 2.97443 0
M  V30 2400 C 224.914 -1.53082 3.12188 0
M  V30 2401 H 224.237 -1.06601 3.85326 0
M  V30 2402 H 225.677 -2.09167 3.68816 0
M  V30 2403 C 224.136 -2.49946 2.25895 0
M  V30 2404 O 224.666 -3.53884 1.90076 0
M  V30 2405 N 222.872 -2.2021 1.8962 0
M  V30 2406 H 222.419 -1.35719 2.18948 0
M  V30 2407 H 222.377 -2.85266 1.32176 0
M  V30 2408 N 226.149 -1.5696 0.141893 0
M  V30 2409 C 227.096 -2.16501 -0.799737 0
M  V30 2410 C 228.066 -1.09643 -1.24771 0
M  V30 2411 O 229.251 -1.3766 -1.32115 0
M  V30 2412 C 226.391 -2.78679 -2.03549 0
M  V30 2413 C 225.504 -3.99914 -1.6338 0
M  V30 2414 C 224.639 -4.50106 -2.82096 0
M  V30 2415 C 223.678 -5.63819 -2.38275 0
M  V30 2416 N 222.815 -6.08651 -3.49983 0
M  V30 2417 H 227.655 -2.96632 -0.285179 0
M  V30 2418 H 225.192 -1.46533 -0.129053 0
M  V30 2419 H 227.15 -3.1287 -2.75986 0
M  V30 2420 H 225.78 -2.012 -2.52425 0
M  V30 2421 H 224.832 -3.71735 -0.807279 0
M  V30 2422 H 226.144 -4.82311 -1.27192 0
M  V30 2423 H 225.298 -4.86325 -3.62729 0
M  V30 2424 H 224.037 -3.66706 -3.21525 0
M  V30 2425 H 223.042 -5.2718 -1.56081 0
M  V30 2426 H 224.267 -6.49 -1.99938 0
M  V30 2427 H 222.213 -5.28188 -3.89042 0
M  V30 2428 H 222.13 -6.85961 -3.17794 0
M  V30 2429 H 223.398 -6.49515 -4.30988 0
M  V30 2430 N 227.627 0.131896 -1.57047 0
M  V30 2431 C 228.56 1.19236 -1.94571 0
M  V30 2432 C 229.538 1.40782 -0.813576 0
M  V30 2433 O 230.722 1.55148 -1.07058 0
M  V30 2434 C 227.849 2.54858 -2.23081 0
M  V30 2435 C 226.895 2.49817 -3.45679 0
M  V30 2436 S 227.728 1.95036 -4.98719 0
M  V30 2437 C 228.884 3.32357 -5.30367 0
M  V30 2438 H 229.117 0.872297 -2.84215 0
M  V30 2439 H 226.65 0.338134 -1.50652 0
M  V30 2440 H 228.608 3.32898 -2.40185 0
M  V30 2441 H 227.269 2.84047 -1.34074 0
M  V30 2442 H 226.462 3.49688 -3.62952 0
M  V30 2443 H 226.064 1.79892 -3.27895 0
M  V30 2444 H 228.356 4.28525 -5.2476 0
M  V30 2445 H 229.299 3.19923 -6.31708 0
M  V30 2446 H 229.707 3.3019 -4.57859 0
M  V30 2447 N 229.106 1.52395 0.401703 0
M  V30 2448 C 230.383 1.57387 1.16141 0
M  V30 2449 C 230.763 0.359359 2.08019 0
M  V30 2450 O 230.111 -0.65326 2.18963 0
M  V30 2451 C 230.321 2.90631 1.93221 0
M  V30 2452 C 231.669 3.43904 2.49028 0
M  V30 2453 O 232.693 2.92421 2.03393 0
M  V30 2454 O 231.552 4.33823 3.32356 0
M  V30 2455 H 228.646 0.634262 0.530698 0
M  V30 2456 H 231.192 1.64725 0.407883 0
M  V30 2457 H 229.964 3.70473 1.25958 0
M  V30 2458 H 229.587 2.8662 2.75563 0
M  V30 2459 N 230.584 -0.659388 1.43143 0
M  V30 2460 C 231.812 -1.44723 1.47861 0
M  V30 2461 C 232.227 -1.88563 0.0945886 0
M  V30 2462 O 231.584 -1.59108 -0.893915 0
M  V30 2463 C 231.635 -2.68627 2.41913 0
M  V30 2464 O 231.356 -2.26623 3.74932 0
M  V30 2465 C 232.857 -3.62045 2.55809 0
M  V30 2466 H 230.077 -0.444801 0.502387 0
M  V30 2467 H 232.621 -0.808916 1.87821 0
M  V30 2468 H 230.776 -3.28613 2.05164 0
M  V30 2469 H 231.19 -3.06745 4.2545 0
M  V30 2470 H 232.664 -4.45666 3.25708 0
M  V30 2471 H 233.141 -4.08981 1.60099 0
M  V30 2472 H 233.747 -3.07944 2.93344 0
M  V30 2473 N 232.062 -1.29571 -0.897171 0
M  V30 2474 C 233.308 -1.17863 -1.65034 0
M  V30 2475 C 233.641 0.268729 -1.92332 0
M  V30 2476 O 232.916 1.19378 -1.53555 0
M  V30 2477 C 233.199 -1.995 -2.99786 0
M  V30 2478 C 233.052 -3.5239 -2.79538 0
M  V30 2479 C 234.371 -1.82335 -4.00552 0
M  V30 2480 H 231.49 -0.429528 -0.598895 0
M  V30 2481 H 234.132 -1.59072 -1.03905 0
M  V30 2482 H 232.282 -1.64485 -3.51962 0
M  V30 2483 H 233.954 -3.97401 -2.34244 0
M  V30 2484 H 232.197 -3.77187 -2.14273 0
M  V30 2485 H 232.868 -4.04787 -3.75302 0
M  V30 2486 H 235.344 -2.12924 -3.57495 0
M  V30 2487 H 234.22 -2.41801 -4.92771 0
M  V30 2488 H 234.481 -0.779209 -4.35179 0
M  V30 2489 N 233.54 1.10788 -1.12088 0
M  V30 2490 C 234.487 2.17025 -0.785407 0
M  V30 2491 C 235.457 1.64265 0.246191 0
M  V30 2492 O 236.642 1.90412 0.121584 0
M  V30 2493 C 233.782 3.44249 -0.242177 0
M  V30 2494 C 232.895 4.1098 -1.33115 0
M  V30 2495 C 232.03 5.25911 -0.747741 0
M  V30 2496 C 231.069 5.84538 -1.81609 0
M  V30 2497 N 230.206 6.90853 -1.25167 0
M  V30 2498 H 235.046 2.45066 -1.69548 0
M  V30 2499 H 232.583 1.20297 -0.846582 0
M  V30 2500 H 234.541 4.17101 0.0908026 0
M  V30 2501 H 233.171 3.16571 0.631072 0
M  V30 2502 H 232.223 3.36133 -1.78097 0
M  V30 2503 H 233.535 4.50601 -2.13917 0
M  V30 2504 H 232.689 6.056 -0.365216 0
M  V30 2505 H 231.428 4.87614 0.0915188 0
M  V30 2506 H 230.433 5.03522 -2.20785 0
M  V30 2507 H 231.658 6.249 -2.6585 0
M  V30 2508 H 229.604 6.54562 -0.434174 0
M  V30 2509 H 229.521 7.29166 -1.99633 0
M  V30 2510 H 230.789 7.7433 -0.896259 0
M  V30 2511 N 235.018 0.912232 1.28515 0
M  V30 2512 C 236.248 0.559604 1.98877 0
M  V30 2513 C 236.656 -0.863113 1.68366 0
M  V30 2514 O 235.999 -1.58304 0.931969 0
M  V30 2515 C 236.061 0.68703 3.52874 0
M  V30 2516 C 235.725 2.07901 4.06972 0
M  V30 2517 C 236.722 3.05157 4.20922 0
M  V30 2518 C 234.407 2.39178 4.417 0
M  V30 2519 C 236.401 4.31806 4.68852 0
M  V30 2520 C 234.088 3.66068 4.89324 0
M  V30 2521 C 235.086 4.62195 5.02856 0
M  V30 2522 O 234.774 5.86829 5.49442 0
M  V30 2523 H 234.506 0.212191 0.641834 0
M  V30 2524 H 237.06 1.22712 1.64715 0
M  V30 2525 H 235.29 -0.0375486 3.86682 0
M  V30 2526 H 236.979 0.341727 4.04459 0
M  V30 2527 H 237.745 2.82311 3.94367 0
M  V30 2528 H 233.624 1.65109 4.30418 0
M  V30 2529 H 237.168 5.06842 4.79329 0
M  V30 2530 H 233.065 3.88739 5.15318 0
M  V30 2531 H 233.833 5.89597 5.6773 0
M  V30 2532 N 236.496 -1.42363 0.676048 0
M  V30 2533 C 237.721 -2.06377 0.205705 0
M  V30 2534 C 238.146 -1.50463 -1.12883 0
M  V30 2535 O 237.504 -0.623619 -1.70237 0
M  V30 2536 C 237.552 -3.60277 0.152655 0
M  V30 2537 O 236.656 -4.02935 -0.87845 0
M  V30 2538 H 235.997 -0.655588 0.105359 0
M  V30 2539 H 238.527 -1.82475 0.925412 0
M  V30 2540 H 238.537 -4.07993 -0.0230675 0
M  V30 2541 H 237.212 -4.00346 1.12675 0
M  V30 2542 H 235.789 -3.66764 -0.673668 0
M  V30 2543 N 237.974 -0.419461 -1.51915 0
M  V30 2544 C 238.884 0.407528 -2.31033 0
M  V30 2545 C 239.9 1.04413 -1.3919 0
M  V30 2546 O 241.076 1.0434 -1.72265 0
M  V30 2547 C 238.141 1.50365 -3.12396 0
M  V30 2548 C 237.202 0.889029 -4.19994 0
M  V30 2549 C 236.435 1.93291 -4.97468 0
M  V30 2550 O 236.658 3.15259 -4.75361 0
M  V30 2551 O 235.592 1.53339 -5.8204 0
M  V30 2552 H 239.418 -0.237865 -3.02767 0
M  V30 2553 H 237.003 -0.182413 -1.48282 0
M  V30 2554 H 238.885 2.13975 -3.63032 0
M  V30 2555 H 237.56 2.13345 -2.43445 0
M  V30 2556 H 236.467 0.215353 -3.7348 0
M  V30 2557 H 237.8 0.302991 -4.91267 0
M  V30 2558 N 239.452 1.56882 -0.150215 0
M  V30 2559 C 240.729 1.87844 0.545327 0
M  V30 2560 C 241.109 1.0567 1.82749 0
M  V30 2561 O 240.457 0.144442 2.28043 0
M  V30 2562 C 240.667 3.39526 0.80767 0
M  V30 2563 C 242.015 4.08814 1.14703 0
M  V30 2564 O 243.039 3.44723 0.896917 0
M  V30 2565 O 241.898 5.22004 1.61784 0
M  V30 2566 H 238.992 0.778677 0.278553 0
M  V30 2567 H 241.538 1.68666 -0.187068 0
M  V30 2568 H 240.31 3.91173 -0.0996096 0
M  V30 2569 H 239.933 3.64243 1.59413 0
M  V30 2570 N 240.93 -0.123565 1.57115 0
M  V30 2571 C 242.346 -0.476961 1.52306 0
M  V30 2572 C 242.546 -1.82109 0.86248 0
M  V30 2573 O 241.602 -2.48586 0.442884 0
M  V30 2574 C 242.915 -0.465661 2.97073 0
M  V30 2575 C 244.463 -0.549534 3.08138 0
M  V30 2576 C 244.938 -0.568669 4.54456 0
M  V30 2577 N 246.429 -0.630237 4.58892 0
M  V30 2578 C 247.164 -0.666415 5.69514 0
M  V30 2579 N 246.66 -0.660514 6.89644 0
M  V30 2580 N 248.453 -0.709077 5.5761 0
M  V30 2581 H 240.604 0.757198 1.98445 0
M  V30 2582 H 242.867 0.278808 0.906074 0
M  V30 2583 H 242.573 0.454232 3.48754 0
M  V30 2584 H 242.447 -1.29513 3.54269 0
M  V30 2585 H 244.834 -1.45985 2.56461 0
M  V30 2586 H 244.915 0.307532 2.53945 0
M  V30 2587 H 244.559 0.337581 5.06777 0
M  V30 2588 H 244.489 -1.44256 5.06456 0
M  V30 2589 H 246.98 -0.641146 3.72421 0
M  V30 2590 H 247.293 -0.690616 7.69708 0
M  V30 2591 H 245.638 -0.628012 6.92157 0
M  V30 2592 H 248.829 -0.711019 4.62668 0
M  V30 2593 H 249.002 -0.733804 6.43832 0
M  V30 2594 N 242.408 -1.52605 -0.393616 0
M  V30 2595 C 243.638 -1.71046 -1.15874 0
M  V30 2596 C 244.046 -0.426483 -1.84331 0
M  V30 2597 O 243.389 0.608513 -1.73329 0
M  V30 2598 C 243.451 -2.80118 -2.25332 0
M  V30 2599 C 243.115 -4.21381 -1.76881 0
M  V30 2600 C 244.112 -5.04697 -1.24808 0
M  V30 2601 C 241.797 -4.67683 -1.83244 0
M  V30 2602 C 243.791 -6.32393 -0.797387 0
M  V30 2603 C 241.478 -5.95364 -1.37787 0
M  V30 2604 C 242.476 -6.77549 -0.861208 0
M  V30 2605 O 242.164 -8.02837 -0.413252 0
M  V30 2606 H 241.896 -0.576155 -0.353583 0
M  V30 2607 H 244.45 -2.00018 -0.467123 0
M  V30 2608 H 242.68 -2.46557 -2.97904 0
M  V30 2609 H 244.369 -2.87006 -2.87023 0
M  V30 2610 H 245.135 -4.70111 -1.19252 0
M  V30 2611 H 241.014 -4.03805 -2.22401 0
M  V30 2612 H 244.558 -6.9649 -0.393437 0
M  V30 2613 H 240.455 -6.29455 -1.43026 0
M  V30 2614 H 241.223 -8.16749 -0.53515 0
M  V30 2615 N 243.887 0.651787 -1.4349 0
M  V30 2616 C 244.797 1.79368 -1.5121 0
M  V30 2617 C 245.813 1.69361 -0.399093 0
M  V30 2618 O 246.989 1.90505 -0.653431 0
M  V30 2619 C 244.054 3.15653 -1.43401 0
M  V30 2620 C 243.115 3.37446 -2.65384 0
M  V30 2621 C 242.348 4.67229 -2.57939 0
M  V30 2622 O 242.571 5.46676 -1.62792 0
M  V30 2623 O 241.505 4.90773 -3.48462 0
M  V30 2624 H 245.331 1.7581 -2.47638 0
M  V30 2625 H 242.916 0.810447 -1.25507 0
M  V30 2626 H 244.798 3.96935 -1.41494 0
M  V30 2627 H 243.473 3.19798 -0.501085 0
M  V30 2628 H 242.38 2.55923 -2.72863 0
M  V30 2629 H 243.713 3.38148 -3.57654 0
M  V30 2630 N 245.365 1.30045 0.890287 0
M  V30 2631 C 246.275 1.17885 2.02831 0
M  V30 2632 C 247.291 0.0999609 1.73713 0
M  V30 2633 O 248.467 0.313867 1.98939 0
M  V30 2634 C 245.532 0.866079 3.35708 0
M  V30 2635 C 244.593 2.02979 3.78283 0
M  V30 2636 C 243.826 1.73184 5.0482 0
M  V30 2637 O 244.049 0.657237 5.66601 0
M  V30 2638 O 242.983 2.58267 5.43674 0
M  V30 2639 H 246.809 2.13474 2.16015 0
M  V30 2640 H 244.394 1.09587 1.01543 0
M  V30 2641 H 246.276 0.706623 4.15433 0
M  V30 2642 H 244.951 -0.0599443 3.23644 0
M  V30 2643 H 243.858 2.24454 2.99285 0
M  V30 2644 H 245.191 2.93734 3.94944 0
M  V30 2645 N 246.843 -1.10192 1.12674 0
M  V30 2646 C 248.092 -1.81573 0.8783 0
M  V30 2647 C 248.405 -1.86249 -0.597557 0
M  V30 2648 O 249.611 -2.5386 -0.962681 0
M  V30 2649 C 248.067 -3.26149 1.52167 0
M  V30 2650 C 247.675 -3.29763 3.03249 0
M  V30 2651 C 249.419 -4.0234 1.3536 0
M  V30 2652 C 247.326 -4.68815 3.60508 0
M  V30 2653 H 246.256 -0.680394 0.324931 0
M  V30 2654 H 248.907 -1.23902 1.35353 0
M  V30 2655 H 247.289 -3.83832 0.974104 0
M  V30 2656 H 248.463 -2.8189 3.6452 0
M  V30 2657 H 246.778 -2.67059 3.19481 0
M  V30 2658 H 249.375 -5.05058 1.75559 0
M  V30 2659 H 249.718 -4.15235 0.297554 0
M  V30 2660 H 250.251 -3.51079 1.87052 0
M  V30 2661 H 246.99 -4.61121 4.65884 0
M  V30 2662 H 246.51 -5.17045 3.04014 0
M  V30 2663 H 248.189 -5.37785 3.59717 0
M  V30 2664 N 248.321 -0.919034 -1.28029 0
M  V30 2665 C 249.268 -0.410005 -2.27129 0
M  V30 2666 C 250.238 0.518405 -1.57803 0
M  V30 2667 O 251.423 0.439451 -1.8567 0
M  V30 2668 C 248.563 0.339054 -3.4343 0
M  V30 2669 C 247.676 -0.622468 -4.27492 0
M  V30 2670 C 246.811 0.145567 -5.31001 0
M  V30 2671 C 245.85 -0.809226 -6.06727 0
M  V30 2672 N 244.987 -0.0743728 -7.02061 0
M  V30 2673 H 249.827 -1.26011 -2.70047 0
M  V30 2674 H 247.364 -0.632663 -1.328 0
M  V30 2675 H 249.322 0.789586 -4.0966 0
M  V30 2676 H 247.952 1.15346 -3.01488 0
M  V30 2677 H 247.004 -1.19153 -3.61257 0
M  V30 2678 H 248.316 -1.35252 -4.80113 0
M  V30 2679 H 247.47 0.656417 -6.03139 0
M  V30 2680 H 246.209 0.908643 -4.79161 0
M  V30 2681 H 245.214 -1.3314 -5.33436 0
M  V30 2682 H 246.439 -1.57194 -6.60656 0
M  V30 2683 H 244.385 0.670616 -6.52563 0
M  V30 2684 H 244.302 -0.744157 -7.52329 0
M  V30 2685 H 245.57 0.416109 -7.78389 0
M  V30 2686 N 249.799 1.42003 -0.683588 0
M  V30 2687 C 250.746 2.30798 -0.0107309 0
M  V30 2688 C 251.716 1.4645 0.783688 0
M  V30 2689 O 252.901 1.75263 0.754156 0
M  V30 2690 C 250.041 3.3238 0.928306 0
M  V30 2691 C 249.154 4.31814 0.126776 0
M  V30 2692 C 248.289 5.20468 1.06236 0
M  V30 2693 C 247.328 6.11577 0.253035 0
M  V30 2694 N 246.465 6.92754 1.14179 0
M  V30 2695 H 251.305 2.8778 -0.773727 0
M  V30 2696 H 248.842 1.41745 -0.393283 0
M  V30 2697 H 250.8 3.89813 1.48666 0
M  V30 2698 H 249.43 2.76976 1.65783 0
M  V30 2699 H 248.482 3.76427 -0.54833 0
M  V30 2700 H 249.794 4.96276 -0.501192 0
M  V30 2701 H 248.948 5.82677 1.69035 0
M  V30 2702 H 247.687 4.56204 1.7242 0
M  V30 2703 H 246.692 5.48428 -0.388108 0
M  V30 2704 H 247.917 6.77892 -0.404839 0
M  V30 2705 H 245.863 6.3111 1.78987 0
M  V30 2706 H 245.78 7.53855 0.569111 0
M  V30 2707 H 247.048 7.59441 1.75697 0
M  V30 2708 N 251.277 0.427512 1.51691 0
M  V30 2709 C 252.187 -0.39527 2.31246 0
M  V30 2710 C 253.203 -1.03674 1.39742 0
M  V30 2711 O 254.379 -1.03425 1.72816 0
M  V30 2712 C 251.444 -1.48706 3.13189 0
M  V30 2713 C 250.505 -0.866743 4.20459 0
M  V30 2714 C 249.738 -1.90651 4.98486 0
M  V30 2715 O 249.961 -3.12733 4.77026 0
M  V30 2716 O 248.895 -1.5025 5.82845 0
M  V30 2717 H 252.721 0.253918 3.02637 0
M  V30 2718 H 250.306 0.190274 1.48183 0
M  V30 2719 H 252.188 -2.12047 3.64162 0
M  V30 2720 H 250.863 -2.12051 2.44573 0
M  V30 2721 H 249.77 -0.195544 3.73589 0
M  V30 2722 H 251.103 -0.276934 4.9142 0
M  V30 2723 N 252.755 -1.56801 0.158532 0
M  V30 2724 C 254.001 -1.96781 -0.490405 0
M  V30 2725 C 254.334 -1.04397 -1.63753 0
M  V30 2726 O 253.609 -0.0885805 -1.94298 0
M  V30 2727 C 253.892 -3.4635 -0.985594 0
M  V30 2728 C 253.745 -4.49512 0.160824 0
M  V30 2729 C 255.064 -3.98697 -1.86355 0
M  V30 2730 H 252.183 -0.715482 -0.176788 0
M  V30 2731 H 254.825 -1.88451 0.242088 0
M  V30 2732 H 252.975 -3.53579 -1.60978 0
M  V30 2733 H 254.647 -4.54353 0.797537 0
M  V30 2734 H 252.89 -4.26013 0.818256 0
M  V30 2735 H 253.561 -5.51531 -0.227569 0
M  V30 2736 H 256.037 -3.94019 -1.33746 0
M  V30 2737 H 254.913 -5.03792 -2.17909 0
M  V30 2738 H 255.174 -3.41744 -2.8047 0
M  V30 2739 N 254.233 0.115231 -1.57178 0
M  V30 2740 C 255.18 1.14115 -2.00615 0
M  V30 2741 C 256.15 1.40939 -0.878941 0
M  V30 2742 O 257.335 1.52741 -1.14345 0
M  V30 2743 C 254.475 2.46156 -2.4187 0
M  V30 2744 C 253.588 2.26236 -3.68024 0
M  V30 2745 C 252.723 3.51534 -3.98243 0
M  V30 2746 C 251.762 3.26787 -5.17568 0
M  V30 2747 N 250.899 4.44298 -5.43639 0
M  V30 2748 H 255.739 0.763743 -2.88047 0
M  V30 2749 H 253.276 0.365615 -1.42484 0
M  V30 2750 H 255.234 3.23189 -2.63827 0
M  V30 2751 H 253.864 2.81783 -1.57475 0
M  V30 2752 H 252.916 1.40102 -3.5366 0
M  V30 2753 H 254.228 2.03929 -4.55208 0
M  V30 2754 H 253.382 4.36984 -4.20868 0
M  V30 2755 H 252.121 3.76876 -3.09541 0
M  V30 2756 H 251.126 2.39729 -4.94783 0
M  V30 2757 H 252.351 3.02812 -6.0785 0
M  V30 2758 H 250.297 4.69754 -4.57895 0
M  V30 2759 H 250.214 4.25109 -6.25154 0
M  V30 2760 H 251.482 5.3087 -5.70786 0
M  V30 2761 N 255.711 1.52812 0.385517 0
M  V30 2762 C 256.988 1.5861 1.14465 0
M  V30 2763 C 257.368 0.381402 2.07626 0
M  V30 2764 O 256.716 -0.629999 2.19643 0
M  V30 2765 C 256.926 2.92664 1.90128 0
M  V30 2766 C 258.274 3.46526 2.45367 0
M  V30 2767 O 259.298 2.94562 2.0028 0
M  V30 2768 O 258.157 4.37323 3.27736 0
M  V30 2769 H 255.251 0.639855 0.523941 0
M  V30 2770 H 257.797 1.65149 0.390389 0
M  V30 2771 H 256.569 3.71788 1.22022 0
M  V30 2772 H 256.192 2.89527 2.72507 0
M  V30 2773 N 257.189 -0.644168 1.43834 0
M  V30 2774 C 258.419 -1.42939 1.49171 0
M  V30 2775 C 258.827 -1.88874 0.111048 0
M  V30 2776 O 258.17 -1.60656 -0.8908 0
M  V30 2777 C 258.232 -2.69151 2.38324 0
M  V30 2778 C 257.896 -2.45097 3.85715 0
M  V30 2779 C 258.893 -2.07747 4.76589 0
M  V30 2780 C 256.578 -2.59141 4.30292 0
M  V30 2781 C 258.572 -1.8475 6.10038 0
M  V30 2782 C 256.259 -2.35759 5.63792 0
M  V30 2783 C 257.257 -1.9862 6.53482 0
M  V30 2784 O 256.945 -1.75489 7.84512 0
M  V30 2785 H 256.677 -0.445271 0.508635 0
M  V30 2786 H 259.231 -0.79621 1.8934 0
M  V30 2787 H 257.461 -3.3506 1.93058 0
M  V30 2788 H 259.15 -3.31123 2.3476 0
M  V30 2789 H 259.916 -1.96465 4.43426 0
M  V30 2790 H 255.795 -2.87022 3.60749 0
M  V30 2791 H 259.339 -1.55686 6.80006 0
M  V30 2792 H 255.236 -2.46646 5.9652 0
M  V30 2793 H 256.004 -1.89841 7.9618 0
M  V30 2794 N 258.668 -1.30515 -0.883378 0
M  V30 2795 C 259.598 -1.19607 -2.00541 0
M  V30 2796 C 260.579 -0.086346 -1.69881 0
M  V30 2797 O 261.764 -0.268654 -1.92333 0
M  V30 2798 C 258.894 -0.888758 -3.35736 0
M  V30 2799 C 257.848 -1.95659 -3.8066 0
M  V30 2800 C 257.174 -1.50224 -5.13164 0
M  V30 2801 C 258.474 -3.36788 -3.99213 0
M  V30 2802 H 260.168 -2.13476 -2.09925 0
M  V30 2803 H 257.714 -1.02775 -1.00863 0
M  V30 2804 H 259.667 -0.799094 -4.13754 0
M  V30 2805 H 258.391 0.0856125 -3.26488 0
M  V30 2806 H 257.05 -2.03591 -3.04871 0
M  V30 2807 H 256.698 -0.516092 -5.00345 0
M  V30 2808 H 256.398 -2.2165 -5.44192 0
M  V30 2809 H 257.922 -1.42639 -5.93706 0
M  V30 2810 H 259.336 -3.31605 -4.67665 0
M  V30 2811 H 257.733 -4.06314 -4.41621 0
M  V30 2812 H 258.803 -3.78561 -3.03017 0
M  V30 2813 N 260.146 1.09593 -1.13257 0
M  V30 2814 C 261.093 2.1618 -0.808381 0
M  V30 2815 C 262.063 1.64517 0.228754 0
M  V30 2816 O 263.248 1.9053 0.101381 0
M  V30 2817 C 260.388 3.43973 -0.278675 0
M  V30 2818 C 259.501 4.09545 -1.37466 0
M  V30 2819 C 258.636 5.25088 -0.803479 0
M  V30 2820 C 257.675 5.82579 -1.87799 0
M  V30 2821 N 256.812 6.89486 -1.32488 0
M  V30 2822 H 261.652 2.43254 -1.72138 0
M  V30 2823 H 259.189 1.19392 -0.859294 0
M  V30 2824 H 261.147 4.17174 0.0465583 0
M  V30 2825 H 259.777 3.17223 0.597459 0
M  V30 2826 H 258.829 3.34226 -1.81652 0
M  V30 2827 H 260.141 4.48307 -2.18684 0
M  V30 2828 H 259.295 6.05178 -0.429427 0
M  V30 2829 H 258.034 4.87684 0.0397956 0
M  V30 2830 H 257.039 5.01152 -2.26113 0
M  V30 2831 H 258.264 6.22045 -2.72463 0
M  V30 2832 H 256.21 6.54064 -0.503575 0
M  V30 2833 H 256.127 7.27007 -2.07355 0
M  V30 2834 H 257.395 7.73336 -0.978336 0
M  V30 2835 N 261.624 0.925811 1.2754 0
M  V30 2836 C 262.571 0.422045 2.26908 0
M  V30 2837 C 263.541 -0.510029 1.58076 0
M  V30 2838 O 264.726 -0.429599 1.85901 0
M  V30 2839 C 261.866 -0.320837 3.43605 0
M  V30 2840 C 260.979 0.64513 4.27156 0
M  V30 2841 C 260.114 -0.117405 5.3107 0
M  V30 2842 C 259.153 0.841391 6.0629 0
M  V30 2843 N 258.29 0.111604 7.02011 0
M  V30 2844 H 263.13 1.27441 2.69375 0
M  V30 2845 H 260.667 0.639697 1.32462 0
M  V30 2846 H 262.625 -0.76785 4.10073 0
M  V30 2847 H 261.255 -1.13745 3.02096 0
M  V30 2848 H 260.307 1.21067 3.6062 0
M  V30 2849 H 261.619 1.37797 4.79389 0
M  V30 2850 H 260.773 -0.624422 6.03478 0
M  V30 2851 H 259.512 -0.883219 4.79636 0
M  V30 2852 H 258.517 1.35967 5.32722 0
M  V30 2853 H 259.742 1.60696 6.59813 0
M  V30 2854 H 257.688 -0.635999 6.5291 0
M  V30 2855 H 257.605 0.784044 7.51923 0
M  V30 2856 H 258.873 -0.374823 7.78598 0
M  V30 2857 N 263.102 -1.41638 0.69111 0
M  V30 2858 C 264.348 -2.01598 0.220519 0
M  V30 2859 C 264.681 -1.54594 -1.17535 0
M  V30 2860 O 263.956 -0.755177 -1.79241 0
M  V30 2861 C 264.239 -3.59062 0.273243 0
M  V30 2862 C 264.092 -4.16203 1.70573 0
M  V30 2863 C 265.411 -4.38546 -0.369457 0
M  V30 2864 H 262.53 -0.732468 0.0816045 0
M  V30 2865 H 265.172 -1.68445 0.878986 0
M  V30 2866 H 263.322 -3.87435 -0.287411 0
M  V30 2867 H 264.994 -3.98722 2.31989 0
M  V30 2868 H 263.237 -3.71414 2.2413 0
M  V30 2869 H 263.908 -5.25358 1.69419 0
M  V30 2870 H 266.384 -4.1596 0.107977 0
M  V30 2871 H 265.26 -5.48069 -0.302002 0
M  V30 2872 H 265.521 -4.17662 -1.44951 0
M  V30 2873 N 264.58 -0.43555 -1.51462 0
M  V30 2874 C 265.828 0.131254 -2.01673 0
M  V30 2875 C 266.149 1.43368 -1.32177 0
M  V30 2876 O 265.419 1.90524 -0.455769 0
M  V30 2877 H 263.999 0.0514954 -0.745223 0
M  V30 2878 H 266.661 -0.577847 -1.86137 0
M  V30 2879 H 265.757 0.308446 -3.10572 0
M  V30 2880 N 266.058 1.56714 -0.166846 0
M  V30 2881 C 267.288 2.00828 0.48494 0
M  V30 2882 C 267.696 1.04612 1.57648 0
M  V30 2883 O 267.039 0.0383201 1.8366 0
M  V30 2884 C 267.101 3.4137 1.12723 0
M  V30 2885 C 266.765 4.56654 0.177886 0
M  V30 2886 C 267.762 5.16402 -0.60207 0
M  V30 2887 C 265.447 5.02244 0.0750139 0
M  V30 2888 C 267.441 6.20167 -1.47215 0
M  V30 2889 C 265.128 6.05859 -0.798649 0
M  V30 2890 C 266.126 6.64691 -1.57082 0
M  V30 2891 O 265.814 7.66297 -2.42989 0
M  V30 2892 H 265.546 0.663587 0.128953 0
M  V30 2893 H 268.1 2.03692 -0.264365 0
M  V30 2894 H 266.33 3.35406 1.92457 0
M  V30 2895 H 268.019 3.69466 1.68076 0
M  V30 2896 H 268.785 4.82065 -0.53274 0
M  V30 2897 H 264.664 4.56167 0.665812 0
M  V30 2898 H 268.208 6.66016 -2.07531 0
M  V30 2899 H 264.105 6.39621 -0.869199 0
M  V30 2900 H 264.873 7.83601 -2.36455 0
M  V30 2901 N 267.536 -0.106894 1.57237 0
M  V30 2902 C 268.468 -1.15646 1.97885 0
M  V30 2903 C 269.481 -1.36981 0.879779 0
M  V30 2904 O 270.67 -1.35841 1.15799 0
M  V30 2905 C 267.77 -2.51425 2.27241 0
M  V30 2906 C 266.943 -2.50529 3.58545 0
M  V30 2907 C 266.002 -3.68145 3.75973 0
M  V30 2908 O 265.028 -3.51176 4.47956 0
M  V30 2909 N 266.23 -4.87177 3.15656 0
M  V30 2910 H 268.995 -0.81059 2.8853 0
M  V30 2911 H 266.556 -0.296024 1.59171 0
M  V30 2912 H 268.548 -3.28689 2.36105 0
M  V30 2913 H 267.118 -2.78147 1.42663 0
M  V30 2914 H 266.338 -1.58894 3.60758 0
M  V30 2915 H 267.626 -2.46997 4.44826 0
M  V30 2916 H 267.024 -5.03868 2.57165 0
M  V30 2917 H 265.581 -5.62075 3.30023 0
M  V30 2918 N 269.014 -1.53014 -0.377408 0
M  V30 2919 C 269.977 -1.77957 -1.44444 0
M  V30 2920 C 270.977 -0.649763 -1.47087 0
M  V30 2921 O 272.167 -0.917897 -1.48055 0
M  V30 2922 C 269.299 -1.89089 -2.83651 0
M  V30 2923 H 270.492 -2.73243 -1.23606 0
M  V30 2924 H 268.045 -1.43912 -0.609844 0
M  V30 2925 H 268.78 -0.958293 -3.09818 0
M  V30 2926 H 268.565 -2.71254 -2.83132 0
M  V30 2927 H 270.055 -2.1002 -3.60945 0
M  V30 2928 N 270.492 0.636531 -1.44174 0
M  V30 2929 C 271.769 1.39463 -1.37148 0
M  V30 2930 C 272.149 2.11082 -0.027507 0
M  V30 2931 O 271.497 2.05954 0.989716 0
M  V30 2932 C 271.707 2.36552 -2.56601 0
M  V30 2933 C 273.055 3.00048 -3.00427 0
M  V30 2934 O 274.079 2.46878 -2.56767 0
M  V30 2935 O 272.938 3.96488 -3.76111 0
M  V30 2936 H 270.032 0.623903 -0.542839 0
M  V30 2937 H 272.578 0.662039 -1.56253 0
M  V30 2938 H 271.35 1.82692 -3.46034 0
M  V30 2939 H 270.973 3.17236 -2.39681 0
M  V30 2940 N 271.97 1.30982 0.876444 0
M  V30 2941 C 272.917 1.18085 1.98304 0
M  V30 2942 C 273.887 0.0682263 1.6596 0
M  V30 2943 O 275.072 0.239937 1.89285 0
M  V30 2944 C 272.212 0.887475 3.33493 0
M  V30 2945 C 271.325 2.08281 3.78475 0
M  V30 2946 C 270.46 1.72678 5.0235 0
M  V30 2947 C 269.499 2.88657 5.39762 0
M  V30 2948 N 268.636 2.53292 6.54819 0
M  V30 2949 H 273.476 2.1275 2.08666 0
M  V30 2950 H 271.013 1.05839 1.02159 0
M  V30 2951 H 272.971 0.697961 4.1132 0
M  V30 2952 H 271.601 -0.022315 3.22792 0
M  V30 2953 H 270.653 2.3833 2.96484 0
M  V30 2954 H 271.965 2.95108 4.02135 0
M  V30 2955 H 271.119 1.50151 5.87826 0
M  V30 2956 H 269.858 0.830327 4.8058 0
M  V30 2957 H 268.863 3.1184 4.52809 0
M  V30 2958 H 270.088 3.79002 5.63502 0
M  V30 2959 H 268.034 1.66163 6.34607 0
M  V30 2960 H 267.951 3.3365 6.7839 0
M  V30 2961 H 269.219 2.34143 7.43503 0
M  V30 2962 N 273.449 -1.08991 1.13837 0
M  V30 2963 C 274.695 -1.81526 0.90422 0
M  V30 2964 C 275.028 -1.85706 -0.568066 0
M  V30 2965 O 274.303 -1.32855 -1.42056 0
M  V30 2966 C 274.586 -3.27447 1.49835 0
M  V30 2967 C 274.439 -3.31512 3.04006 0
M  V30 2968 C 275.758 -4.24256 1.17025 0
M  V30 2969 H 272.877 -0.659029 0.329923 0
M  V30 2970 H 275.519 -1.27644 1.40737 0
M  V30 2971 H 273.669 -3.73462 1.07044 0
M  V30 2972 H 275.341 -2.93867 3.55584 0
M  V30 2973 H 273.584 -2.70963 3.38765 0
M  V30 2974 H 274.255 -4.34329 3.40679 0
M  V30 2975 H 276.731 -3.86549 1.54009 0
M  V30 2976 H 275.607 -5.24684 1.61237 0
M  V30 2977 H 275.868 -4.42019 0.0846274 0
M  V30 2978 N 274.927 -0.932562 -1.27047 0
M  V30 2979 C 276.204 -0.49377 -1.89265 0
M  V30 2980 C 276.584 1.02833 -1.8436 0
M  V30 2981 O 275.932 1.88461 -1.29209 0
M  V30 2982 C 276.142 -1.04536 -3.32976 0
M  V30 2983 C 277.49 -1.10879 -4.09867 0
M  V30 2984 O 278.514 -0.995327 -3.42011 0
M  V30 2985 O 277.373 -1.28417 -5.31198 0
M  V30 2986 H 274.467 -0.159596 -0.811454 0
M  V30 2987 H 277.013 -1.02457 -1.3528 0
M  V30 2988 H 275.785 -2.08913 -3.30864 0
M  V30 2989 H 275.408 -0.496494 -3.94488 0
M  V30 2990 N 276.405 1.4127 -0.698611 0
M  V30 2991 C 277.652 2.0118 -0.230865 0
M  V30 2992 C 277.98 1.55338 1.17049 0
M  V30 2993 O 277.235 0.756775 1.80475 0
M  V30 2994 C 277.534 3.56592 -0.240192 0
M  V30 2995 C 277.2 4.21955 -1.58948 0
M  V30 2996 C 275.862 4.39524 -1.95887 0
M  V30 2997 C 278.214 4.58576 -2.47704 0
M  V30 2998 C 275.542 4.90992 -3.2116 0
M  V30 2999 C 277.894 5.11435 -3.72313 0
M  V30 3000 C 276.558 5.27215 -4.0939 0
M  V30 3001 H 275.828 0.736169 -0.0844796 0
M  V30 3002 H 278.475 1.69124 -0.8983 0
M  V30 3003 H 276.78 3.88456 0.510797 0
M  V30 3004 H 278.477 4.00758 0.139296 0
M  V30 3005 H 275.067 4.08657 -1.29219 0
M  V30 3006 H 279.251 4.44654 -2.20445 0
M  V30 3007 H 274.507 5.01393 -3.49878 0
M  V30 3008 H 278.681 5.38752 -4.4127 0
M  V30 3009 H 276.308 5.66859 -5.06533 0
M  V30 3010 N 277.883 0.443576 1.51229 0
M  V30 3011 C 279.132 -0.122332 2.01329 0
M  V30 3012 C 279.445 -1.43237 1.33201 0
M  V30 3013 O 280.651 -2.0816 1.74304 0
M  V30 3014 C 279.107 -0.268551 3.58897 0
M  V30 3015 C 278.715 1.03142 4.35965 0
M  V30 3016 C 280.459 -0.787894 4.17124 0
M  V30 3017 C 278.366 0.850504 5.85252 0
M  V30 3018 H 277.296 -0.0494929 0.752374 0
M  V30 3019 H 279.947 0.574289 1.74282 0
M  V30 3020 H 278.329 -1.02832 3.82415 0
M  V30 3021 H 279.503 1.80001 4.24189 0
M  V30 3022 H 277.818 1.47977 3.89219 0
M  V30 3023 H 280.415 -0.939841 5.26375 0
M  V30 3024 H 280.758 -1.77201 3.76703 0
M  V30 3025 H 281.291 -0.0862669 3.97706 0
M  V30 3026 H 278.03 1.80718 6.30096 0
M  V30 3027 H 277.55 0.121825 5.99676 0
M  V30 3028 H 279.229 0.506163 6.45017 0
M  V30 3029 N 279.361 -1.56624 0.175154 0
M  V30 3030 C 280.772 -1.83561 -0.340916 0
M  V30 3031 C 281.123 -1.09511 -1.62794 0
M  V30 3032 O 280.248 -0.349389 -2.13561 0
M  V30 3033 C 280.843 -3.32979 -0.625313 0
M  V30 3034 C 279.402 -3.60399 -1.08581 0
M  V30 3035 C 278.549 -2.77024 -0.123722 0
M  V30 3036 H 281.5 -1.53593 0.399344 0
M  V30 3037 H 281.521 -3.50666 -1.47694 0
M  V30 3038 H 281.033 -3.86847 0.311575 0
M  V30 3039 H 279.134 -3.11945 -2.03767 0
M  V30 3040 H 279.247 -4.68711 -0.992317 0
M  V30 3041 H 277.611 -2.46993 -0.621821 0
M  V30 3042 H 278.394 -3.33674 0.807256 0
M  V30 3043 N 280.839 0.0985539 -1.57292 0
M  V30 3044 C 282.088 0.801358 -1.85098 0
M  V30 3045 C 282.401 1.80066 -0.763902 0
M  V30 3046 O 283.607 2.55112 -0.928981 0
M  V30 3047 C 282.063 1.47599 -3.28242 0
M  V30 3048 C 281.671 0.516624 -4.45011 0
M  V30 3049 C 283.415 2.16272 -3.65276 0
M  V30 3050 C 281.322 1.19564 -5.79188 0
M  V30 3051 H 280.252 0.303022 -0.69043 0
M  V30 3052 H 282.903 0.0542623 -1.8342 0
M  V30 3053 H 281.285 2.27042 -3.2445 0
M  V30 3054 H 282.459 -0.246065 -4.60143 0
M  V30 3055 H 280.774 -0.064227 -4.1635 0
M  V30 3056 H 283.371 2.67802 -4.62803 0
M  V30 3057 H 283.714 2.95009 -2.93727 0
M  V30 3058 H 284.247 1.43693 -3.70941 0
M  V30 3059 H 280.986 0.449157 -6.53959 0
M  V30 3060 H 280.506 1.92984 -5.67906 0
M  V30 3061 H 282.185 1.7231 -6.23633 0
M  V30 3062 N 282.317 1.53212 0.369288 0
M  V30 3063 C 283.542 1.73423 1.1375 0
M  V30 3064 C 283.967 0.460404 1.82378 0
M  V30 3065 O 283.325 -0.585298 1.71592 0
M  V30 3066 C 283.373 2.89769 2.1463 0
M  V30 3067 O 282.477 2.58119 3.21634 0
M  V30 3068 H 281.818 0.576061 0.330227 0
M  V30 3069 H 284.348 2.00083 0.427547 0
M  V30 3070 H 284.358 3.15829 2.58294 0
M  V30 3071 H 283.033 3.8217 1.64071 0
M  V30 3072 H 281.61 2.42864 2.82969 0
M  V30 3073 N 283.795 -0.628877 1.44509 0
M  V30 3074 C 285.043 -1.38565 1.4712 0
M  V30 3075 C 285.364 -1.94712 0.105899 0
M  V30 3076 O 284.634 -1.75912 -0.862079 0
M  V30 3077 H 283.214 -0.514333 0.541729 0
M  V30 3078 H 285.876 -0.740018 1.80305 0
M  V30 3079 H 284.972 -2.21583 2.19789 0
M  V30 3080 N 285.273 -1.31445 -0.869486 0
M  V30 3081 C 286.52 -1.21158 -1.62256 0
M  V30 3082 C 286.848 0.230155 -1.93133 0
M  V30 3083 O 286.103 1.17906 -1.56194 0
M  V30 3084 C 286.402 -2.00145 -2.96102 0
M  V30 3085 C 286.068 -3.4964 -2.84715 0
M  V30 3086 C 284.73 -3.90403 -2.81317 0
M  V30 3087 C 287.082 -4.44769 -2.71716 0
M  V30 3088 C 284.41 -5.24561 -2.62778 0
M  V30 3089 C 286.762 -5.79054 -2.54714 0
M  V30 3090 C 285.426 -6.19037 -2.49699 0
M  V30 3091 H 284.696 -0.443348 -0.593737 0
M  V30 3092 H 287.343 -1.62715 -1.00976 0
M  V30 3093 H 285.648 -1.5127 -3.6142 0
M  V30 3094 H 287.345 -1.89566 -3.53363 0
M  V30 3095 H 283.935 -3.17256 -2.88178 0
M  V30 3096 H 288.119 -4.14208 -2.73397 0
M  V30 3097 H 283.375 -5.54613 -2.57321 0
M  V30 3098 H 287.549 -6.52393 -2.43632 0
M  V30 3099 H 285.176 -7.22935 -2.35093 0
M  V30 3100 N 286.751 1.08385 -1.14413 0
M  V30 3101 C 287.661 2.18856 -0.844951 0
M  V30 3102 C 288.677 1.73121 0.174668 0
M  V30 3103 O 289.853 2.014 0.00312857 0
M  V30 3104 C 286.918 3.45155 -0.32696 0
M  V30 3105 C 285.979 4.05513 -1.40916 0
M  V30 3106 C 285.212 5.25784 -0.915793 0
M  V30 3107 O 285.435 5.69884 0.242651 0
M  V30 3108 O 284.369 5.77545 -1.69487 0
M  V30 3109 H 288.195 2.46919 -1.76818 0
M  V30 3110 H 285.78 1.17524 -0.922411 0
M  V30 3111 H 287.662 4.21377 -0.0440211 0
M  V30 3112 H 286.337 3.18668 0.568539 0
M  V30 3113 H 285.244 3.30879 -1.74556 0
M  V30 3114 H 286.577 4.3625 -2.27919 0
M  V30 3115 N 288.23 0.939286 1.26551 0
M  V30 3116 C 289.478 0.58469 1.93457 0
M  V30 3117 C 289.799 -0.878774 1.74076 0
M  V30 3118 O 289.069 -1.62421 1.09528 0
M  V30 3119 H 287.649 0.21325 0.715914 0
M  V30 3120 H 290.311 1.1942 1.54029 0
M  V30 3121 H 289.407 0.800849 3.0165 0
M  V30 3122 N 289.708 -1.40897 0.706093 0
M  V30 3123 C 290.985 -1.94868 0.169099 0
M  V30 3124 C 291.365 -1.64485 -1.32318 0
M  V30 3125 O 290.713 -0.95744 -2.07474 0
M  V30 3126 C 290.923 -3.45798 0.471654 0
M  V30 3127 C 292.271 -4.22663 0.405127 0
M  V30 3128 O 293.295 -3.53865 0.407168 0
M  V30 3129 O 292.154 -5.45216 0.374383 0
M  V30 3130 H 289.248 -0.82673 0.0211352 0
M  V30 3131 H 291.794 -1.50558 0.782976 0
M  V30 3132 H 290.566 -3.61235 1.50416 0
M  V30 3133 H 290.189 -3.97225 -0.172666 0
M  V30 3134 N 291.186 -0.45159 -1.50991 0
M  V30 3135 C 292.134 0.366864 -2.29689 0
M  V30 3136 C 293.128 1.00809 -1.36139 0
M  V30 3137 O 294.334 0.941427 -1.53418 0
M  V30 3138 H 290.709 0.137133 -0.739391 0
M  V30 3139 H 292.68 -0.317538 -2.96706 0
M  V30 3140 C 291.429 1.44751 -3.16137 0
M  V30 3141 H 290.752 0.963473 -3.88017 0
M  V30 3142 H 292.192 1.99315 -3.74232 0
M  V30 3143 C 290.651 2.43869 -2.32442 0
M  V30 3144 O 291.181 3.4872 -1.99392 0
M  V30 3145 N 289.387 2.15105 -1.95392 0
M  V30 3146 H 288.934 1.29866 -2.22469 0
M  V30 3147 H 288.892 2.81661 -1.39693 0
M  V30 3148 N 292.664 1.56529 -0.183458 0
M  V30 3149 C 293.594 2.21549 0.737456 0
M  V30 3150 C 294.575 1.17489 1.23005 0
M  V30 3151 O 295.76 1.45959 1.281 0
M  V30 3152 C 292.89 2.86575 1.96194 0
M  V30 3153 C 291.844 3.96778 1.60473 0
M  V30 3154 C 291.17 4.48911 2.90487 0
M  V30 3155 C 292.47 5.15767 0.823497 0
M  V30 3156 H 294.164 2.98761 0.195453 0
M  V30 3157 H 291.71 1.43702 0.0925686 0
M  V30 3158 H 293.663 3.30739 2.61131 0
M  V30 3159 H 292.387 2.06749 2.52828 0
M  V30 3160 H 291.046 3.53286 0.978997 0
M  V30 3161 H 290.694 3.65862 3.45186 0
M  V30 3162 H 290.394 5.23265 2.67335 0
M  V30 3163 H 291.918 4.95771 3.56432 0
M  V30 3164 H 293.332 5.56549 1.37571 0
M  V30 3165 H 291.729 5.96114 0.690551 0
M  V30 3166 H 292.799 4.84574 -0.177782 0
M  V30 3167 N 294.142 -0.090211 1.57342 0
M  V30 3168 C 295.391 -0.791531 1.8552 0
M  V30 3169 C 295.704 -1.79659 0.773441 0
M  V30 3170 O 296.91 -2.54616 0.942497 0
M  V30 3171 C 295.366 -1.45856 3.2902 0
M  V30 3172 C 294.974 -0.493017 4.45279 0
M  V30 3173 C 296.718 -2.14332 3.66418 0
M  V30 3174 C 294.625 -1.16491 5.79814 0
M  V30 3175 H 293.555 -0.299356 0.692027 0
M  V30 3176 H 296.206 -0.0445343 1.83446 0
M  V30 3177 H 294.588 -2.25318 3.2565 0
M  V30 3178 H 295.762 0.270464 4.60006 0
M  V30 3179 H 294.077 0.0863061 4.16311 0
M  V30 3180 H 296.674 -2.65344 4.64216 0
M  V30 3181 H 297.017 -2.93447 2.95287 0
M  V30 3182 H 297.55 -1.41724 3.71698 0
M  V30 3183 H 294.289 -0.41447 6.54188 0
M  V30 3184 H 293.809 -1.8997 5.68921 0
M  V30 3185 H 295.488 -1.69001 6.24538 0
M  V30 3186 N 295.62 -1.53406 -0.361157 0
M  V30 3187 C 296.53 -1.83122 -1.4664 0
M  V30 3188 C 297.546 -0.719943 -1.58407 0
M  V30 3189 O 298.722 -1.01046 -1.74218 0
M  V30 3190 C 295.787 -2.01891 -2.81853 0
M  V30 3191 C 294.848 -3.25784 -2.79577 0
M  V30 3192 C 294.081 -3.43648 -4.0834 0
M  V30 3193 O 294.304 -2.65714 -5.0473 0
M  V30 3194 O 293.238 -4.37018 -4.13883 0
M  V30 3195 H 297.064 -2.7703 -1.24451 0
M  V30 3196 H 294.649 -1.38841 -0.551678 0
M  V30 3197 H 296.531 -2.15782 -3.61962 0
M  V30 3198 H 295.206 -1.11173 -3.0401 0
M  V30 3199 H 294.113 -3.17312 -1.98151 0
M  V30 3200 H 295.446 -4.16439 -2.62373 0
M  V30 3201 N 297.098 0.621204 -1.44841 0
M  V30 3202 C 298.045 1.73267 -1.5247 0
M  V30 3203 C 299.015 1.6189 -0.371611 0
M  V30 3204 O 300.2 1.81668 -0.58321 0
M  V30 3205 C 297.34 3.11545 -1.48438 0
M  V30 3206 C 296.453 3.33827 -2.74196 0
M  V30 3207 C 295.588 4.62133 -2.61929 0
M  V30 3208 C 294.627 4.77627 -3.82804 0
M  V30 3209 N 293.764 5.97219 -3.69153 0
M  V30 3210 H 298.604 1.66082 -2.47428 0
M  V30 3211 H 296.141 0.810026 -1.22788 0
M  V30 3212 H 298.099 3.91528 -1.4409 0
M  V30 3213 H 296.729 3.1772 -0.570402 0
M  V30 3214 H 295.781 2.47715 -2.88689 0
M  V30 3215 H 297.093 3.41153 -3.6389 0
M  V30 3216 H 296.247 5.50291 -2.5547 0
M  V30 3217 H 294.986 4.57182 -1.69811 0
M  V30 3218 H 293.991 3.87896 -3.89637 0
M  V30 3219 H 295.216 4.84385 -4.75971 0
M  V30 3220 H 293.162 5.93339 -2.79794 0
M  V30 3221 H 293.079 6.05644 -4.52472 0
M  V30 3222 H 294.347 6.87912 -3.66603 0
M  V30 3223 N 298.576 1.31904 0.862503 0
M  V30 3224 C 299.801 1.25135 1.65397 0
M  V30 3225 C 300.226 -0.179 1.87246 0
M  V30 3226 O 299.584 -1.1277 1.4196 0
M  V30 3227 C 299.632 2.00832 2.99498 0
M  V30 3228 O 298.736 1.35075 3.89652 0
M  V30 3229 H 298.077 0.431655 0.504549 0
M  V30 3230 H 300.607 1.74094 1.07483 0
M  V30 3231 H 300.617 2.10709 3.49379 0
M  V30 3232 H 299.292 3.04847 2.82916 0
M  V30 3233 H 297.869 1.33696 3.48109 0
M  V30 3234 N 300.054 -1.07777 1.14986 0
M  V30 3235 C 301.331 -1.7699 0.832695 0
M  V30 3236 C 301.711 -2.001 -0.672561 0
M  V30 3237 O 301.059 -1.61598 -1.6155 0
M  V30 3238 C 301.269 -3.08139 1.63863 0
M  V30 3239 C 302.617 -3.8256 1.84208 0
M  V30 3240 O 303.641 -3.17939 1.60603 0
M  V30 3241 O 302.5 -4.98612 2.23714 0
M  V30 3242 H 299.594 -0.768389 0.305791 0
M  V30 3243 H 302.14 -1.14182 1.25541 0
M  V30 3244 H 300.912 -2.86909 2.6608 0
M  V30 3245 H 300.535 -3.78678 1.21197 0
M  V30 3246 N 301.532 -0.945985 -1.26051 0
M  V30 3247 C 302.479 -0.45809 -2.26208 0
M  V30 3248 C 303.449 0.484816 -1.58867 0
M  V30 3249 O 304.634 0.399969 -1.86561 0
M  V30 3250 C 301.774 0.266131 -3.44072 0
M  V30 3251 C 300.887 -0.713005 -4.26075 0
M  V30 3252 C 300.022 0.0329013 -5.3119 0
M  V30 3253 C 299.061 -0.93774 -6.04874 0
M  V30 3254 N 298.198 -0.223274 -7.01745 0
M  V30 3255 H 303.038 -1.3171 -2.67313 0
M  V30 3256 H 300.575 -0.66069 -1.31428 0
M  V30 3257 H 302.533 0.702514 -4.11243 0
M  V30 3258 H 301.163 1.08925 -3.03867 0
M  V30 3259 H 300.215 -1.26789 -3.58648 0
M  V30 3260 H 301.527 -1.45406 -4.77136 0
M  V30 3261 H 300.681 0.528335 -6.04395 0
M  V30 3262 H 299.42 0.806801 -4.8098 0
M  V30 3263 H 298.425 -1.44425 -5.30492 0
M  V30 3264 H 299.65 -1.71172 -6.57173 0
M  V30 3265 H 297.596 0.532046 -6.53839 0
M  V30 3266 H 297.513 -0.90357 -7.50581 0
M  V30 3267 H 298.781 0.250907 -7.79096 0
M  V30 3268 N 303.011 1.40521 -0.713556 0
M  V30 3269 C 304.239 2.05237 -0.261775 0
M  V30 3270 C 304.654 1.53755 1.09567 0
M  V30 3271 O 304.011 0.693268 1.6882 0
M  V30 3272 C 304.062 3.60763 -0.230706 0
M  V30 3273 O 303.783 4.10345 -1.53455 0
M  V30 3274 C 305.284 4.42651 0.239874 0
M  V30 3275 H 302.504 0.660533 -0.118057 0
M  V30 3276 H 305.048 1.79967 -0.971192 0
M  V30 3277 H 303.203 3.8501 0.429661 0
M  V30 3278 H 303.617 5.04526 -1.43366 0
M  V30 3279 H 305.091 5.51599 0.210468 0
M  V30 3280 H 305.568 4.20082 1.28171 0
M  V30 3281 H 306.174 4.23507 -0.390142 0
M  V30 3282 N 304.489 0.459591 1.5075 0
M  V30 3283 C 305.9 0.00171547 1.867 0
M  V30 3284 C 306.251 -1.39934 1.37525 0
M  V30 3285 O 305.376 -2.03523 0.735349 0
M  V30 3286 C 305.971 -0.00366298 3.388 0
M  V30 3287 C 304.53 -0.406026 3.74204 0
M  V30 3288 C 303.677 0.38673 2.7459 0
M  V30 3289 H 306.628 0.674413 1.43657 0
M  V30 3290 H 306.649 -0.808371 3.71814 0
M  V30 3291 H 306.161 1.01617 3.74561 0
M  V30 3292 H 304.262 -1.43063 3.4404 0
M  V30 3293 H 304.375 -0.115362 4.78961 0
M  V30 3294 H 302.739 -0.158019 2.54209 0
M  V30 3295 H 303.522 1.40585 3.13194 0
M  V30 3296 N 305.967 -1.56429 0.191757 0
M  V30 3297 C 307.213 -1.98541 -0.441943 0
M  V30 3298 C 307.568 -1.07646 -1.59468 0
M  V30 3299 O 306.861 -0.120191 -1.91223 0
M  V30 3300 C 307.055 -3.44449 -0.953384 0
M  V30 3301 C 306.884 -4.49456 0.148262 0
M  V30 3302 C 305.654 -5.01668 0.604781 0
M  V30 3303 C 307.852 -5.05336 0.95602 0
M  V30 3304 N 305.834 -5.90334 1.6846 0
M  V30 3305 C 307.205 -5.9064 1.88531 0
M  V30 3306 C 309.26 -4.87779 0.998811 0
M  V30 3307 C 307.963 -6.60264 2.85383 0
M  V30 3308 C 309.989 -5.58139 1.95537 0
M  V30 3309 C 309.351 -6.43187 2.8721 0
M  V30 3310 H 305.45 -0.771247 -0.129236 0
M  V30 3311 H 308.034 -1.92426 0.296682 0
M  V30 3312 H 306.205 -3.5107 -1.66146 0
M  V30 3313 H 307.937 -3.73533 -1.55741 0
M  V30 3314 H 304.692 -4.73183 0.198736 0
M  V30 3315 H 305.116 -6.39371 2.22561 0
M  V30 3316 H 309.758 -4.21705 0.304048 0
M  V30 3317 H 307.476 -7.25538 3.55837 0
M  V30 3318 H 311.062 -5.46532 1.99484 0
M  V30 3319 H 309.942 -6.96674 3.60022 0
M  V30 3320 N 307.445 0.0818655 -1.57387 0
M  V30 3321 C 308.675 0.794954 -1.90694 0
M  V30 3322 C 309.083 1.72147 -0.784982 0
M  V30 3323 O 308.426 1.81974 0.251196 0
M  V30 3324 C 308.488 1.65042 -3.19376 0
M  V30 3325 C 308.152 0.894337 -4.48164 0
M  V30 3326 C 309.149 0.21813 -5.19442 0
M  V30 3327 C 306.834 0.864495 -4.94805 0
M  V30 3328 C 308.828 -0.477802 -6.35607 0
M  V30 3329 C 306.515 0.164785 -6.10878 0
M  V30 3330 C 307.513 -0.505173 -6.81129 0
M  V30 3331 O 307.201 -1.19363 -7.94989 0
M  V30 3332 H 306.933 0.231779 -0.635023 0
M  V30 3333 H 309.487 0.059493 -2.05314 0
M  V30 3334 H 307.717 2.42844 -3.00938 0
M  V30 3335 H 309.406 2.24127 -3.38411 0
M  V30 3336 H 310.172 0.232558 -4.84442 0
M  V30 3337 H 306.051 1.37542 -4.40004 0
M  V30 3338 H 309.595 -1.00129 -6.90377 0
M  V30 3339 H 305.492 0.148249 -6.4533 0
M  V30 3340 H 306.26 -1.10188 -8.11049 0
M  V30 3341 N 308.923 1.53595 0.353017 0
M  V30 3342 C 309.87 1.80919 1.43308 0
M  V30 3343 C 310.84 0.654288 1.5267 0
M  V30 3344 O 312.025 0.897759 1.6836 0
M  V30 3345 C 309.165 2.01605 2.80089 0
M  V30 3346 C 308.278 3.29321 2.79593 0
M  V30 3347 C 307.413 3.40125 4.0803 0
M  V30 3348 C 306.452 4.61826 4.01725 0
M  V30 3349 N 305.589 4.69716 5.21834 0
M  V30 3350 H 310.429 2.73074 1.19308 0
M  V30 3351 H 307.966 1.35263 0.578131 0
M  V30 3352 H 309.924 2.11586 3.59565 0
M  V30 3353 H 308.554 1.12772 3.0246 0
M  V30 3354 H 307.606 3.28229 1.92276 0
M  V30 3355 H 308.918 4.18884 2.70809 0
M  V30 3356 H 308.072 3.49488 4.95927 0
M  V30 3357 H 306.811 2.48601 4.19582 0
M  V30 3358 H 305.816 4.52552 3.12213 0
M  V30 3359 H 307.041 5.54705 3.91764 0
M  V30 3360 H 304.987 3.81097 5.33948 0
M  V30 3361 H 304.904 5.53202 5.1527 0
M  V30 3362 H 306.172 4.83376 6.11529 0
M  V30 3363 N 310.401 -0.613514 1.45168 0
M  V30 3364 C 311.649 -1.36997 1.48581 0
M  V30 3365 C 311.97 -1.94589 0.126545 0
M  V30 3366 O 311.24 -1.76816 -0.843372 0
M  V30 3367 H 309.82 -0.508558 0.547154 0
M  V30 3368 H 312.482 -0.720853 1.81079 0
M  V30 3369 H 311.578 -2.1924 2.22127 0
M  V30 3370 N 311.879 -1.3236 -0.855495 0
M  V30 3371 C 313.295 -1.11332 -1.14356 0
M  V30 3372 C 313.495 0.106751 -2.01217 0
M  V30 3373 O 312.551 0.791891 -2.39761 0
M  V30 3374 C 313.864 -2.39237 -1.82171 0
M  V30 3375 C 315.412 -2.44986 -1.9481 0
M  V30 3376 C 315.887 -3.7281 -2.66039 0
M  V30 3377 N 317.378 -3.73787 -2.73565 0
M  V30 3378 C 318.113 -4.69394 -3.29327 0
M  V30 3379 N 317.609 -5.75367 -3.85907 0
M  V30 3380 N 319.402 -4.56893 -3.27423 0
M  V30 3381 H 311.553 -2.10586 -0.277027 0
M  V30 3382 H 313.816 -0.929701 -0.185364 0
M  V30 3383 H 313.522 -3.28431 -1.25802 0
M  V30 3384 H 313.396 -2.50134 -2.82335 0
M  V30 3385 H 315.783 -1.56252 -2.50338 0
M  V30 3386 H 315.864 -2.38043 -0.936448 0
M  V30 3387 H 315.508 -4.61918 -2.11174 0
M  V30 3388 H 315.438 -3.77024 -3.67642 0
M  V30 3389 H 317.929 -2.97189 -2.33424 0
M  V30 3390 H 318.242 -6.44378 -4.26611 0
M  V30 3391 H 316.587 -5.79123 -3.84242 0
M  V30 3392 H 319.778 -3.73269 -2.82467 0
M  V30 3393 H 319.951 -5.31577 -3.7058 0
M  V30 3394 N 313.357 1.07166 -1.15556 0
M  V30 3395 C 314.585 1.83514 -0.955519 0
M  V30 3396 C 315 1.82163 0.49621 0
M  V30 3397 O 314.357 1.23441 1.34419 0
M  V30 3398 C 314.408 3.30515 -1.46432 0
M  V30 3399 O 314.129 3.31937 -2.85918 0
M  V30 3400 C 315.63 4.23625 -1.30603 0
M  V30 3401 H 312.85 0.578926 -0.339244 0
M  V30 3402 H 315.394 1.35265 -1.53374 0
M  V30 3403 H 313.549 3.76106 -0.928584 0
M  V30 3404 H 313.963 4.23794 -3.09029 0
M  V30 3405 H 315.437 5.24831 -1.71047 0
M  V30 3406 H 315.914 4.38485 -0.250441 0
M  V30 3407 H 316.52 3.83871 -1.83094 0
M  V30 3408 N 314.835 0.952656 1.25548 0
M  V30 3409 C 315.765 0.489287 2.28316 0
M  V30 3410 C 316.746 -0.463359 1.63667 0
M  V30 3411 O 317.931 -0.36274 1.90782 0
M  V30 3412 C 315.061 -0.235603 3.465 0
M  V30 3413 C 314.015 0.631593 4.23314 0
M  V30 3414 C 313.341 -0.223923 5.34231 0
M  V30 3415 C 314.641 1.90871 4.86174 0
M  V30 3416 H 316.335 1.34822 2.67326 0
M  V30 3417 H 313.881 0.649728 1.28509 0
M  V30 3418 H 315.834 -0.570882 4.17515 0
M  V30 3419 H 314.558 -1.12877 3.06474 0
M  V30 3420 H 313.217 0.949929 3.54079 0
M  V30 3421 H 312.865 -1.11678 4.90446 0
M  V30 3422 H 312.565 0.35299 5.86539 0
M  V30 3423 H 314.089 -0.554214 6.0808 0
M  V30 3424 H 315.503 1.63997 5.49343 0
M  V30 3425 H 313.9 2.43112 5.4865 0
M  V30 3426 H 314.97 2.61304 4.08471 0
M  V30 3427 N 316.313 -1.40141 0.720998 0
M  V30 3428 C 317.562 -2.0002 0.259804 0
M  V30 3429 C 317.875 -1.57839 -1.15526 0
M  V30 3430 O 319.081 -2.10455 -1.71525 0
M  V30 3431 C 317.537 -3.57516 0.413566 0
M  V30 3432 C 317.145 -4.08667 1.83562 0
M  V30 3433 C 318.889 -4.24498 0.0134387 0
M  V30 3434 C 316.796 -5.58686 1.93968 0
M  V30 3435 H 315.726 -0.748195 0.0933806 0
M  V30 3436 H 318.377 -1.60313 0.892866 0
M  V30 3437 H 316.759 -3.9495 -0.288169 0
M  V30 3438 H 317.933 -3.82598 2.56817 0
M  V30 3439 H 316.248 -3.543 2.1877 0
M  V30 3440 H 318.845 -5.34654 0.0703954 0
M  V30 3441 H 319.188 -4.03375 -1.02927 0
M  V30 3442 H 319.721 -3.92188 0.665815 0
M  V30 3443 H 316.46 -5.8467 2.96379 0
M  V30 3444 H 315.98 -5.86602 1.25131 0
M  V30 3445 H 317.659 -6.23875 1.71431 0
M  V30 3446 N 317.792 -0.46758 -1.50504 0
M  V30 3447 C 318.702 0.33382 -2.32213 0
M  V30 3448 C 319.718 0.999323 -1.42441 0
M  V30 3449 O 320.894 0.988068 -1.75497 0
M  V30 3450 C 317.959 1.4035 -3.17022 0
M  V30 3451 C 317.02 0.754961 -4.2261 0
M  V30 3452 C 316.253 1.77367 -5.03365 0
M  V30 3453 O 316.476 2.99976 -4.8515 0
M  V30 3454 O 315.41 1.34744 -5.86624 0
M  V30 3455 H 319.236 -0.334067 -3.01857 0
M  V30 3456 H 316.821 -0.229496 -1.47627 0
M  V30 3457 H 318.703 2.02318 -3.69656 0
M  V30 3458 H 317.378 2.05492 -2.5011 0
M  V30 3459 H 316.285 0.0964244 -3.73976 0
M  V30 3460 H 317.618 0.146545 -4.91982 0
M  V30 3461 N 319.27 1.56325 -0.20005 0
M  V30 3462 C 320.233 2.18084 0.705132 0
M  V30 3463 C 321.233 1.13666 1.1374 0
M  V30 3464 O 322.423 1.39023 1.04968 0
M  V30 3465 C 319.555 2.78689 1.96329 0
M  V30 3466 H 320.748 2.99435 0.167023 0
M  V30 3467 H 318.301 1.56221 0.0495725 0
M  V30 3468 H 319.036 2.0115 2.5438 0
M  V30 3469 H 318.821 3.55133 1.66202 0
M  V30 3470 H 320.311 3.26096 2.60866 0
M  V30 3471 N 320.748 -0.0735177 1.57428 0
M  V30 3472 C 321.678 -1.0879 2.06608 0
M  V30 3473 C 322.659 -1.40473 0.959237 0
M  V30 3474 O 323.844 -1.5013 1.23185 0
M  V30 3475 C 320.974 -2.40183 2.50857 0
M  V30 3476 C 319.928 -2.22858 3.65402 0
M  V30 3477 C 319.254 -3.59619 3.957 0
M  V30 3478 C 320.554 -1.65123 4.95511 0
M  V30 3479 H 322.248 -0.678673 2.91607 0
M  V30 3480 H 319.794 -0.325013 1.40284 0
M  V30 3481 H 321.747 -3.11437 2.83874 0
M  V30 3482 H 320.471 -2.83083 1.62885 0
M  V30 3483 H 319.13 -1.54045 3.32664 0
M  V30 3484 H 318.778 -4.00086 3.04861 0
M  V30 3485 H 318.478 -3.48866 4.72828 0
M  V30 3486 H 320.002 -4.32306 4.31212 0
M  V30 3487 H 321.416 -2.26241 5.26771 0
M  V30 3488 H 319.813 -1.65071 5.7695 0
M  V30 3489 H 320.883 -0.612559 4.81015 0
M  V30 3490 N 322.226 -1.5378 -0.344866 0
M  V30 3491 C 323.503 -1.61589 -1.10219 0
M  V30 3492 C 323.883 -0.436316 -2.06542 0
M  V30 3493 O 323.231 0.571543 -2.21237 0
M  V30 3494 C 323.441 -2.97602 -1.82301 0
M  V30 3495 C 324.789 -3.5291 -2.36093 0
M  V30 3496 O 325.813 -2.99768 -1.924 0
M  V30 3497 O 324.672 -4.45859 -3.16026 0
M  V30 3498 H 321.766 -0.653522 -0.506792 0
M  V30 3499 H 324.312 -1.66126 -0.346465 0
M  V30 3500 H 323.084 -3.74893 -1.12121 0
M  V30 3501 H 322.707 -2.9665 -2.64735 0
M  V30 3502 N 323.704 0.605807 -1.45491 0
M  V30 3503 C 324.932 1.39136 -1.5313 0
M  V30 3504 C 325.347 1.88082 -0.164507 0
M  V30 3505 O 324.704 1.62316 0.834247 0
M  V30 3506 C 324.755 2.59463 -2.51716 0
M  V30 3507 O 324.476 2.12551 -3.83084 0
M  V30 3508 C 325.977 3.52301 -2.6907 0
M  V30 3509 H 323.197 0.425849 -0.51855 0
M  V30 3510 H 325.741 0.73865 -1.90694 0
M  V30 3511 H 323.896 3.20772 -2.17219 0
M  V30 3512 H 324.31 2.90744 -4.36541 0
M  V30 3513 H 325.784 4.33271 -3.42024 0
M  V30 3514 H 326.261 4.02757 -1.75167 0
M  V30 3515 H 326.867 2.96845 -3.04571 0
M  V30 3516 N 325.182 1.32811 0.848464 0
M  V30 3517 C 326.115 1.16601 1.96162 0
M  V30 3518 C 327.093 0.0638855 1.62474 0
M  V30 3519 O 328.277 0.224348 1.8716 0
M  V30 3520 C 325.404 0.786333 3.29446 0
M  V30 3521 C 324.45 1.89459 3.8211 0
M  V30 3522 S 325.283 3.50395 4.04949 0
M  V30 3523 C 326.439 3.14413 5.41198 0
M  V30 3524 H 326.672 2.10832 2.09612 0
M  V30 3525 H 324.205 1.17543 1.00115 0
M  V30 3526 H 326.163 0.574044 4.06466 0
M  V30 3527 H 324.824 -0.137218 3.138 0
M  V30 3528 H 324.017 1.58207 4.78526 0
M  V30 3529 H 323.619 2.06304 3.11953 0
M  V30 3530 H 325.911 2.64642 6.23675 0
M  V30 3531 H 326.854 4.09874 5.77416 0
M  V30 3532 H 327.262 2.51266 5.05495 0
M  V30 3533 N 326.66 -1.06551 1.16123 0
M  V30 3534 C 327.592 -2.13908 0.823171 0
M  V30 3535 C 328.605 -1.61926 -0.16843 0
M  V30 3536 O 329.794 -1.78412 0.055962 0
M  V30 3537 C 326.894 -3.38283 0.204424 0
M  V30 3538 C 326.067 -4.19589 1.23548 0
M  V30 3539 C 325.126 -5.2233 0.637011 0
M  V30 3540 O 324.152 -5.54034 1.30516 0
M  V30 3541 N 325.354 -5.77621 -0.577474 0
M  V30 3542 H 328.119 -2.43508 1.74711 0
M  V30 3543 H 325.68 -1.2253 1.05821 0
M  V30 3544 H 327.672 -4.0416 -0.208909 0
M  V30 3545 H 326.242 -3.06329 -0.623012 0
M  V30 3546 H 325.462 -3.49406 1.82507 0
M  V30 3547 H 326.75 -4.70718 1.93137 0
M  V30 3548 H 326.148 -5.54125 -1.13853 0
M  V30 3549 H 324.705 -6.45087 -0.933053 0
M  V30 3550 N 328.138 -0.959301 -1.25041 0
M  V30 3551 C 329.549 -0.65667 -1.74771 0
M  V30 3552 C 329.9 0.827852 -1.77879 0
M  V30 3553 O 329.025 1.64783 -1.40269 0
M  V30 3554 C 329.62 -1.1853 -3.1739 0
M  V30 3555 C 328.179 -0.932734 -3.6466 0
M  V30 3556 C 327.326 -1.32558 -2.43564 0
M  V30 3557 H 330.277 -1.13558 -1.10862 0
M  V30 3558 H 330.298 -0.547582 -3.76539 0
M  V30 3559 H 329.81 -2.26576 -3.15095 0
M  V30 3560 H 327.911 0.13257 -3.72364 0
M  V30 3561 H 328.024 -1.57248 -4.52559 0
M  V30 3562 H 326.388 -0.743956 -2.43593 0
M  V30 3563 H 327.171 -2.41537 -2.43957 0
M  V30 3564 N 329.616 1.39756 -0.72842 0
M  V30 3565 C 331.027 1.83498 -0.344289 0
M  V30 3566 C 331.378 1.60868 1.12321 0
M  V30 3567 O 330.503 1.09634 1.86573 0
M  V30 3568 C 331.098 3.33114 -0.618112 0
M  V30 3569 C 329.657 3.753 -0.287549 0
M  V30 3570 C 328.804 2.62831 -0.884048 0
M  V30 3571 H 331.755 1.28842 -0.926578 0
M  V30 3572 H 331.776 3.80334 0.112349 0
M  V30 3573 H 331.288 3.49553 -1.68625 0
M  V30 3574 H 329.389 3.64451 0.775012 0
M  V30 3575 H 329.502 4.72945 -0.765512 0
M  V30 3576 H 327.866 2.52792 -0.311149 0
M  V30 3577 H 328.649 2.82078 -1.95671 0
M  V30 3578 N 331.094 0.475555 1.50254 0
M  V30 3579 C 332.041 -0.316293 2.28622 0
M  V30 3580 C 333.011 -0.983227 1.33873 0
M  V30 3581 O 334.196 -0.994805 1.62814 0
M  V30 3582 C 331.336 -1.38975 3.1588 0
M  V30 3583 C 330.449 -0.737146 4.25664 0
M  V30 3584 C 329.584 -1.78887 5.00173 0
M  V30 3585 C 328.623 -1.11676 6.01826 0
M  V30 3586 N 327.76 -2.11154 6.69596 0
M  V30 3587 H 332.6 0.358297 2.95838 0
M  V30 3588 H 330.137 0.188541 1.45887 0
M  V30 3589 H 332.095 -2.02383 3.64825 0
M  V30 3590 H 330.725 -2.03344 2.50701 0
M  V30 3591 H 329.777 0.0096065 3.80399 0
M  V30 3592 H 331.089 -0.206816 4.98371 0
M  V30 3593 H 330.243 -2.49865 5.52859 0
M  V30 3594 H 328.982 -2.35302 4.27182 0
M  V30 3595 H 327.987 -0.392633 5.48396 0
M  V30 3596 H 329.212 -0.55945 6.76792 0
M  V30 3597 H 327.158 -2.66577 5.99394 0
M  V30 3598 H 327.075 -1.63118 7.38193 0
M  V30 3599 H 328.343 -2.81497 7.26897 0
M  V30 3600 N 332.573 -1.56217 0.208337 0
M  V30 3601 C 333.989 -1.58919 -0.14729 0
M  V30 3602 C 334.189 -1.22486 -1.59998 0
M  V30 3603 O 333.245 -0.953849 -2.3379 0
M  V30 3604 C 334.558 -3.00236 0.167048 0
M  V30 3605 C 336.106 -3.12813 0.108219 0
M  V30 3606 C 336.581 -4.56284 0.396049 0
M  V30 3607 N 338.072 -4.61912 0.345142 0
M  V30 3608 C 338.807 -5.70837 0.541523 0
M  V30 3609 N 338.303 -6.88178 0.798968 0
M  V30 3610 N 340.096 -5.60091 0.474867 0
M  V30 3611 H 332.247 -1.78177 1.15614 0
M  V30 3612 H 334.51 -0.827555 0.462446 0
M  V30 3613 H 334.216 -3.31499 1.1748 0
M  V30 3614 H 334.09 -3.7354 -0.524184 0
M  V30 3615 H 336.477 -2.81354 -0.890157 0
M  V30 3616 H 336.558 -2.41866 0.832729 0
M  V30 3617 H 336.202 -4.88458 1.3918 0
M  V30 3618 H 336.132 -5.25439 -0.349502 0
M  V30 3619 H 338.623 -3.77589 0.153316 0
M  V30 3620 H 338.936 -7.67095 0.93727 0
M  V30 3621 H 337.281 -6.89953 0.836013 0
M  V30 3622 H 340.472 -4.67297 0.274064 0
M  V30 3623 H 340.645 -6.44917 0.631326 0
M  V30 3624 N 334.051 0.0651679 -1.57465 0
M  V30 3625 C 335.462 0.616213 -1.76238 0
M  V30 3626 C 335.813 1.7756 -0.834689 0
M  V30 3627 O 334.938 2.1639 -0.0204156 0
M  V30 3628 C 335.533 1.12462 -3.1959 0
M  V30 3629 C 334.092 1.62147 -3.39684 0
M  V30 3630 C 333.239 0.543739 -2.71917 0
M  V30 3631 H 336.19 -0.161022 -1.57881 0
M  V30 3632 H 336.211 1.99324 -3.24114 0
M  V30 3633 H 335.723 0.280592 -3.87084 0
M  V30 3634 H 333.824 2.48854 -2.77313 0
M  V30 3635 H 333.937 1.69385 -4.48158 0
M  V30 3636 H 332.301 0.990352 -2.34657 0
M  V30 3637 H 333.084 -0.290216 -3.42071 0
M  V30 3638 N 335.529 1.53961 0.336706 0
M  V30 3639 C 336.759 1.75229 1.09446 0
M  V30 3640 C 337.167 0.494602 1.82621 0
M  V30 3641 O 336.51 -0.543764 1.75468 0
M  V30 3642 C 336.572 2.88288 2.1478 0
M  V30 3643 C 336.236 4.27656 1.6112 0
M  V30 3644 C 337.233 5.08981 1.0599 0
M  V30 3645 C 334.918 4.74161 1.6576 0
M  V30 3646 C 336.912 6.34916 0.562129 0
M  V30 3647 C 334.599 6.00067 1.15595 0
M  V30 3648 C 335.597 6.80278 0.609147 0
M  V30 3649 O 335.285 8.03818 0.114999 0
M  V30 3650 H 335.017 0.588881 0.331956 0
M  V30 3651 H 337.571 2.01614 0.392566 0
M  V30 3652 H 335.801 2.57443 2.88548 0
M  V30 3653 H 337.49 2.97461 2.76174 0
M  V30 3654 H 338.256 4.74213 1.01722 0
M  V30 3655 H 334.135 4.11781 2.07261 0
M  V30 3656 H 337.679 6.9747 0.134668 0
M  V30 3657 H 333.576 6.3433 1.19566 0
M  V30 3658 H 334.344 8.18172 0.231651 0
M  V30 3659 N 337.007 -0.598083 1.45811 0
M  V30 3660 C 338.284 -1.35777 1.40797 0
M  V30 3661 C 338.664 -2.10935 0.083462 0
M  V30 3662 O 338.012 -2.08505 -0.934763 0
M  V30 3663 C 338.222 -2.29666 2.62783 0
M  V30 3664 C 339.57 -2.91977 3.08277 0
M  V30 3665 O 340.594 -2.39984 2.63223 0
M  V30 3666 O 339.453 -3.86376 3.86491 0
M  V30 3667 H 336.547 -0.609291 0.55919 0
M  V30 3668 H 339.093 -0.620379 1.57954 0
M  V30 3669 H 337.865 -1.73454 3.50756 0
M  V30 3670 H 337.488 -3.1077 2.48008 0
M  V30 3671 N 338.485 -1.33259 -0.841409 0
M  V30 3672 C 339.432 -1.23302 -1.95103 0
M  V30 3673 C 340.402 -0.112204 -1.65721 0
M  V30 3674 O 341.587 -0.290038 -1.88583 0
M  V30 3675 C 338.727 -0.975583 -3.31023 0
M  V30 3676 C 337.84 -2.18243 -3.72819 0
M  V30 3677 C 336.975 -1.85936 -4.97595 0
M  V30 3678 C 336.014 -3.02866 -5.3192 0
M  V30 3679 N 335.151 -2.70565 -6.47873 0
M  V30 3680 H 339.991 -2.18207 -2.02952 0
M  V30 3681 H 337.528 -1.0851 -0.993173 0
M  V30 3682 H 339.486 -0.80677 -4.09325 0
M  V30 3683 H 338.116 -0.0632755 -3.22738 0
M  V30 3684 H 337.168 -2.46107 -2.90061 0
M  V30 3685 H 338.48 -3.05666 -3.94169 0
M  V30 3686 H 337.634 -1.65684 -5.83638 0
M  V30 3687 H 336.373 -0.957452 -4.78209 0
M  V30 3688 H 335.378 -3.23736 -4.44382 0
M  V30 3689 H 336.603 -3.93809 -5.53255 0
M  V30 3690 H 334.549 -1.8293 -6.29978 0
M  V30 3691 H 334.466 -3.51519 -6.69306 0
M  V30 3692 H 335.734 -2.53774 -7.37034 0
M  V30 3693 N 339.963 1.05934 -1.16686 0
M  V30 3694 C 341.374 1.60263 -0.957745 0
M  V30 3695 C 341.725 1.89789 0.49745 0
M  V30 3696 O 340.85 1.67401 1.37135 0
M  V30 3697 C 341.445 2.91172 -1.73218 0
M  V30 3698 C 340.004 3.42188 -1.56794 0
M  V30 3699 C 339.151 2.16028 -1.73859 0
M  V30 3700 H 342.102 0.888392 -1.31504 0
M  V30 3701 H 342.123 3.60744 -1.21014 0
M  V30 3702 H 341.635 2.6965 -2.79124 0
M  V30 3703 H 339.736 3.68762 -0.533437 0
M  V30 3704 H 339.849 4.17273 -2.35414 0
M  V30 3705 H 338.213 2.26426 -1.16633 0
M  V30 3706 H 338.996 1.96985 -2.81161 0
M  V30 3707 N 341.441 0.965919 1.2453 0
M  V30 3708 C 342.371 0.513476 2.27784 0
M  V30 3709 C 343.352 -0.445974 1.6415 0
M  V30 3710 O 344.537 -0.342485 1.91156 0
M  V30 3711 C 341.667 -0.198839 3.4673 0
M  V30 3712 C 340.621 0.676456 4.2262 0
M  V30 3713 C 339.947 -0.167248 5.34438 0
M  V30 3714 C 341.247 1.96017 4.84123 0
M  V30 3715 H 342.941 1.3765 2.65881 0
M  V30 3716 H 340.487 0.663321 1.27813 0
M  V30 3717 H 342.44 -0.526567 4.18097 0
M  V30 3718 H 341.164 -1.0962 3.07654 0
M  V30 3719 H 339.823 0.98743 3.53052 0
M  V30 3720 H 339.471 -1.0647 4.91603 0
M  V30 3721 H 339.171 0.415181 5.86131 0
M  V30 3722 H 340.695 -0.489688 6.08633 0
M  V30 3723 H 342.109 1.69814 5.47573 0
M  V30 3724 H 340.506 2.48918 5.4604 0
M  V30 3725 H 341.576 2.65622 4.05676 0
M  V30 3726 N 342.919 -1.39368 0.735821 0
M  V30 3727 C 344.335 -1.54204 0.411492 0
M  V30 3728 C 344.535 -1.70268 -1.07755 0
M  V30 3729 O 343.591 -1.70364 -1.86366 0
M  V30 3730 C 344.904 -2.75925 1.19523 0
M  V30 3731 C 346.452 -2.89761 1.18354 0
M  V30 3732 C 346.927 -4.14421 1.94986 0
M  V30 3733 N 348.418 -4.21462 1.92156 0
M  V30 3734 C 349.153 -5.16871 2.48258 0
M  V30 3735 N 348.649 -6.18063 3.13001 0
M  V30 3736 N 350.442 -5.09093 2.38287 0
M  V30 3737 H 342.593 -1.27189 1.70108 0
M  V30 3738 H 344.856 -0.616517 0.720147 0
M  V30 3739 H 344.562 -2.70401 2.24892 0
M  V30 3740 H 344.436 -3.68614 0.800222 0
M  V30 3741 H 346.823 -2.94777 0.137975 0
M  V30 3742 H 346.904 -1.98133 1.61793 0
M  V30 3743 H 346.548 -4.10166 2.99543 0
M  V30 3744 H 346.478 -5.05095 1.48953 0
M  V30 3745 H 348.969 -3.48979 1.44991 0
M  V30 3746 H 349.282 -6.87326 3.53275 0
M  V30 3747 H 347.627 -6.18448 3.17091 0
M  V30 3748 H 350.818 -4.28973 1.8735 0
M  V30 3749 H 350.991 -5.83272 2.82308 0
M  V30 3750 N 344.397 -0.483516 -1.5 0
M  V30 3751 C 345.646 0.0689102 -2.01582 0
M  V30 3752 C 345.959 1.39655 -1.36952 0
M  V30 3753 O 347.165 2.03465 -1.79762 0
M  V30 3754 C 345.621 0.173302 -3.59483 0
M  V30 3755 C 345.229 -1.14665 -4.33077 0
M  V30 3756 C 346.973 0.677024 -4.19066 0
M  V30 3757 C 344.88 -1.00537 -5.82792 0
M  V30 3758 H 343.81 0.0295277 -0.753422 0
M  V30 3759 H 346.461 -0.620295 -1.72698 0
M  V30 3760 H 344.843 0.926569 -3.85007 0
M  V30 3761 H 346.017 -1.91184 -4.19268 0
M  V30 3762 H 344.332 -1.58244 -3.85159 0
M  V30 3763 H 346.929 0.799952 -5.28682 0
M  V30 3764 H 347.272 1.67151 -3.81269 0
M  V30 3765 H 347.805 -0.0192083 -3.97795 0
M  V30 3766 H 344.544 -1.9736 -6.25083 0
M  V30 3767 H 344.064 -0.280776 -5.99142 0
M  V30 3768 H 345.743 -0.677 -6.43448 0
M  V30 3769 N 345.875 1.56104 -0.216619 0
M  V30 3770 C 347.286 1.844 0.292128 0
M  V30 3771 C 347.637 1.13788 1.59833 0
M  V30 3772 O 346.762 0.405888 2.12559 0
M  V30 3773 C 347.357 3.3452 0.53681 0
M  V30 3774 C 345.916 3.63151 0.989876 0
M  V30 3775 C 345.063 2.77255 0.0502302 0
M  V30 3776 H 348.014 1.52481 -0.439926 0
M  V30 3777 H 348.035 3.54459 1.38345 0
M  V30 3778 H 347.547 3.85885 -0.414031 0
M  V30 3779 H 345.648 3.17238 1.95425 0
M  V30 3780 H 345.761 4.71177 0.867698 0
M  V30 3781 H 344.125 2.48555 0.556117 0
M  V30 3782 H 344.908 3.31416 -0.89544 0
M  V30 3783 N 347.353 -0.0568162 1.57498 0
M  V30 3784 C 348.283 -1.06593 2.0775 0
M  V30 3785 C 349.264 -1.39448 0.974082 0
M  V30 3786 O 350.449 -1.48815 1.24771 0
M  V30 3787 C 347.579 -2.37509 2.5339 0
M  V30 3788 C 346.533 -2.1897 3.67745 0
M  V30 3789 C 345.859 -3.55402 3.99492 0
M  V30 3790 C 347.159 -1.59859 4.97235 0
M  V30 3791 H 348.853 -0.647706 2.9231 0
M  V30 3792 H 346.399 -0.310116 1.40621 0
M  V30 3793 H 348.352 -3.08409 2.87162 0
M  V30 3794 H 347.076 -2.8134 1.65878 0
M  V30 3795 H 345.735 -1.50508 3.3428 0
M  V30 3796 H 345.383 -3.9683 3.09088 0
M  V30 3797 H 345.083 -3.43831 4.76502 0
M  V30 3798 H 346.607 -4.27708 4.35773 0
M  V30 3799 H 348.021 -2.20642 5.29141 0
M  V30 3800 H 346.418 -1.58942 5.78669 0
M  V30 3801 H 347.488 -0.561506 4.81638 0
M  V30 3802 N 348.832 -1.54138 -0.328536 0
M  V30 3803 C 349.764 -1.79509 -1.4251 0
M  V30 3804 C 350.777 -0.67688 -1.48061 0
M  V30 3805 O 351.966 -0.953898 -1.50874 0
M  V30 3806 C 349.066 -1.89337 -2.81078 0
M  V30 3807 C 348.239 -3.19443 -2.98789 0
M  V30 3808 C 347.298 -3.20036 -4.17688 0
M  V30 3809 O 346.324 -3.93697 -4.11086 0
M  V30 3810 N 347.526 -2.43467 -5.26976 0
M  V30 3811 H 350.291 -2.74139 -1.21111 0
M  V30 3812 H 347.852 -1.53373 -0.518499 0
M  V30 3813 H 349.844 -1.87167 -3.58818 0
M  V30 3814 H 348.414 -1.01826 -2.95551 0
M  V30 3815 H 347.634 -3.34614 -2.08391 0
M  V30 3816 H 348.922 -4.05354 -3.07515 0
M  V30 3817 H 348.32 -1.83201 -5.35214 0
M  V30 3818 H 346.877 -2.4708 -6.03154 0
M  V30 3819 N 350.31 0.590341 -1.46126 0
M  V30 3820 C 351.558 1.34616 -1.50742 0
M  V30 3821 C 351.879 1.94363 -0.157486 0
M  V30 3822 O 351.149 1.78136 0.815136 0
M  V30 3823 H 349.729 0.499789 -0.555175 0
M  V30 3824 H 352.391 0.691953 -1.82203 0
M  V30 3825 H 351.487 2.15678 -2.25587 0
M  V30 3826 N 351.788 1.33704 0.83433 0
M  V30 3827 C 353.034 1.25603 1.59222 0
M  V30 3828 C 353.367 -0.176659 1.93395 0
M  V30 3829 O 352.642 -1.11915 1.59076 0
M  V30 3830 C 352.925 2.13576 2.89926 0
M  V30 3831 C 352.778 3.65326 2.62406 0
M  V30 3832 C 354.097 2.01238 3.91397 0
M  V30 3833 H 351.216 0.457613 0.577719 0
M  V30 3834 H 353.858 1.63848 0.961972 0
M  V30 3835 H 352.008 1.8109 3.43713 0
M  V30 3836 H 353.68 4.08124 2.15017 0
M  V30 3837 H 351.923 3.8698 1.96033 0
M  V30 3838 H 352.594 4.22232 3.55562 0
M  V30 3839 H 355.07 2.29738 3.46929 0
M  V30 3840 H 353.946 2.65036 4.80673 0
M  V30 3841 H 354.207 0.985951 4.30966 0
M  V30 3842 N 353.266 -1.05314 1.17247 0
M  V30 3843 C 354.496 -1.81707 0.983166 0
M  V30 3844 C 354.904 -1.83222 -0.471822 0
M  V30 3845 O 354.247 -1.25721 -1.3394 0
M  V30 3846 C 354.309 -3.29134 1.44606 0
M  V30 3847 C 353.973 -3.51304 2.92292 0
M  V30 3848 C 354.97 -3.4353 3.90235 0
M  V30 3849 C 352.655 -3.78306 3.30439 0
M  V30 3850 C 354.649 -3.62442 5.24323 0
M  V30 3851 C 352.336 -3.96866 4.64694 0
M  V30 3852 C 353.334 -3.88933 5.61445 0
M  V30 3853 O 353.022 -4.06976 6.93272 0
M  V30 3854 H 352.754 -0.579476 0.348114 0
M  V30 3855 H 355.308 -1.33705 1.55924 0
M  V30 3856 H 353.538 -3.78046 0.813537 0
M  V30 3857 H 355.227 -3.87049 1.22262 0
M  V30 3858 H 355.993 -3.22648 3.62109 0
M  V30 3859 H 351.872 -3.83585 2.55702 0
M  V30 3860 H 355.416 -3.56165 5.99827 0
M  V30 3861 H 351.313 -4.1724 4.92525 0
M  V30 3862 H 352.081 -4.24209 6.99992 0
M  V30 3863 N 354.744 -0.972509 -1.24016 0
M  V30 3864 C 355.691 -0.505969 -2.25186 0
M  V30 3865 C 356.661 0.451009 -1.5986 0
M  V30 3866 O 357.846 0.360307 -1.87367 0
M  V30 3867 C 354.986 0.193089 -3.44559 0
M  V30 3868 C 354.099 -0.803222 -4.24467 0
M  V30 3869 C 353.234 -0.0797793 -5.3114 0
M  V30 3870 C 352.273 -1.06583 -6.02749 0
M  V30 3871 N 351.41 -0.372074 -7.01113 0
M  V30 3872 H 356.25 -1.37351 -2.64459 0
M  V30 3873 H 353.787 -0.688419 -1.29997 0
M  V30 3874 H 355.745 0.615125 -4.1264 0
M  V30 3875 H 354.375 1.02455 -3.06109 0
M  V30 3876 H 353.427 -1.34368 -3.55878 0
M  V30 3877 H 354.739 -1.55494 -4.73944 0
M  V30 3878 H 353.893 0.400015 -6.0538 0
M  V30 3879 H 352.632 0.704597 -4.82583 0
M  V30 3880 H 351.637 -1.55645 -5.27309 0
M  V30 3881 H 352.862 -1.85074 -6.53395 0
M  V30 3882 H 350.808 0.393238 -6.5482 0
M  V30 3883 H 350.725 -1.06258 -7.48495 0
M  V30 3884 H 351.993 0.0855932 -7.79453 0
M  V30 3885 N 356.222 1.38976 -0.743202 0
M  V30 3886 C 357.471 1.99581 -0.291592 0
M  V30 3887 C 357.784 1.59656 1.13001 0
M  V30 3888 O 358.99 2.13157 1.68156 0
M  V30 3889 C 357.446 3.56813 -0.470391 0
M  V30 3890 C 357.054 4.05695 -1.90041 0
M  V30 3891 C 358.798 4.24423 -0.0809709 0
M  V30 3892 C 356.705 5.5553 -2.02832 0
M  V30 3893 H 355.635 0.746615 -0.105272 0
M  V30 3894 H 358.286 1.58872 -0.918258 0
M  V30 3895 H 356.668 3.95359 0.225299 0
M  V30 3896 H 357.842 3.78464 -2.62872 0
M  V30 3897 H 356.157 3.50775 -2.24379 0
M  V30 3898 H 358.754 5.34474 -0.155445 0
M  V30 3899 H 359.097 4.04962 0.96497 0
M  V30 3900 H 359.63 3.9108 -0.728124 0
M  V30 3901 H 356.369 5.79881 -3.05643 0
M  V30 3902 H 355.889 5.84537 -1.34448 0
M  V30 3903 H 357.568 6.21069 -1.81335 0
M  V30 3904 N 357.7 0.491464 1.49741 0
M  V30 3905 C 358.948 -0.0563141 2.02022 0
M  V30 3906 C 359.269 -1.38363 1.37407 0
M  V30 3907 O 358.539 -1.88702 0.526166 0
M  V30 3908 H 357.119 -0.0238014 0.746621 0
M  V30 3909 H 359.781 0.646533 1.83864 0
M  V30 3910 H 358.877 -0.192967 3.11503 0
M  V30 3911 N 359.178 -1.55987 0.224894 0
M  V30 3912 C 360.426 -1.97998 -0.405099 0
M  V30 3913 C 360.747 -1.11387 -1.60056 0
M  V30 3914 O 360.017 -0.191645 -1.9496 0
M  V30 3915 H 358.597 -0.731235 -0.152658 0
M  V30 3916 H 361.259 -1.92279 0.318567 0
M  V30 3917 H 360.355 -3.03463 -0.729167 0
M  V30 3918 N 360.656 0.0484629 -1.57525 0
M  V30 3919 C 361.905 0.742065 -1.87553 0
M  V30 3920 C 362.218 1.77545 -0.820802 0
M  V30 3921 O 363.424 2.52027 -1.00967 0
M  V30 3922 C 361.88 1.37081 -3.32771 0
M  V30 3923 C 361.488 0.374786 -4.4643 0
M  V30 3924 C 363.232 2.04542 -3.71972 0
M  V30 3925 C 361.139 1.01077 -5.82698 0
M  V30 3926 H 360.069 0.280903 -0.699721 0
M  V30 3927 H 362.72 -0.00411877 -1.835 0
M  V30 3928 H 361.102 2.16605 -3.31509 0
M  V30 3929 H 362.276 -0.392331 -4.59127 0
M  V30 3930 H 360.591 -0.196653 -4.15935 0
M  V30 3931 H 363.188 2.52943 -4.71088 0
M  V30 3932 H 363.531 2.85515 -3.02964 0
M  V30 3933 H 364.064 1.31819 -3.75325 0
M  V30 3934 H 360.803 0.240878 -6.55057 0
M  V30 3935 H 360.323 1.74819 -5.73758 0
M  V30 3936 H 362.002 1.52383 -6.28799 0
M  V30 3937 N 362.134 1.5431 0.320358 0
M  V30 3938 C 363.382 1.72327 1.05583 0
M  V30 3939 C 363.703 0.50149 1.88441 0
M  V30 3940 O 362.973 -0.48448 1.89815 0
M  V30 3941 H 361.553 0.635387 0.3928 0
M  V30 3942 H 364.215 1.91621 0.356019 0
M  V30 3943 H 363.311 2.60426 1.72003 0
M  V30 3944 N 363.613 -0.582584 1.46437 0
M  V30 3945 C 364.841 -1.36682 1.55324 0
M  V30 3946 C 365.256 -1.87796 0.194409 0
M  V30 3947 O 364.613 -1.63623 -0.808318 0
M  V30 3948 C 364.664 -2.55426 2.55812 0
M  V30 3949 O 364.385 -2.0643 3.86417 0
M  V30 3950 C 365.886 -3.47976 2.74641 0
M  V30 3951 H 363.106 -0.417545 0.525259 0
M  V30 3952 H 365.65 -0.708219 1.91845 0
M  V30 3953 H 363.805 -3.17275 2.22295 0
M  V30 3954 H 364.219 -2.83762 4.41111 0
M  V30 3955 H 365.693 -4.27775 3.48874 0
M  V30 3956 H 366.17 -3.99919 1.81553 0
M  V30 3957 H 366.776 -2.91962 3.09255 0
M  V30 3958 N 365.091 -1.34144 -0.827227 0
M  V30 3959 C 366.337 -1.26446 -1.58554 0
M  V30 3960 C 366.67 0.1664 -1.93486 0
M  V30 3961 O 365.945 1.1107 -1.59667 0
M  V30 3962 C 366.228 -2.15111 -2.8879 0
M  V30 3963 C 366.081 -3.66712 -2.60465 0
M  V30 3964 C 367.4 -2.03311 -3.90324 0
M  V30 3965 H 364.519 -0.46067 -0.575284 0
M  V30 3966 H 367.161 -1.64356 -0.953269 0
M  V30 3967 H 365.311 -1.8291 -3.42748 0
M  V30 3968 H 366.983 -4.09259 -2.1285 0
M  V30 3969 H 365.226 -3.88014 -1.93978 0
M  V30 3970 H 365.897 -4.24112 -3.53317 0
M  V30 3971 H 368.373 -2.31574 -3.45706 0
M  V30 3972 H 367.249 -2.67582 -4.79261 0
M  V30 3973 H 367.51 -1.00879 -4.30437 0
M  V30 3974 N 366.569 1.04691 -1.17803 0
M  V30 3975 C 367.98 1.59238 -0.974689 0
M  V30 3976 C 368.331 1.90306 0.477292 0
M  V30 3977 O 367.456 1.68846 1.35352 0
M  V30 3978 C 368.051 2.89318 -1.76296 0
M  V30 3979 C 366.61 3.40506 -1.60414 0
M  V30 3980 C 365.757 2.14172 -1.76141 0
M  V30 3981 H 368.708 0.874395 -1.32439 0
M  V30 3982 H 368.729 3.5944 -1.24833 0
M  V30 3983 H 368.241 2.66675 -2.81968 0
M  V30 3984 H 366.342 3.68175 -0.572519 0
M  V30 3985 H 366.455 4.14753 -2.39827 0
M  V30 3986 H 364.819 2.25176 -1.19028 0
M  V30 3987 H 365.602 1.93992 -2.83235 0
M  V30 3988 N 368.047 0.979072 1.23499 0
M  V30 3989 C 369.293 0.648178 1.92163 0
M  V30 3990 C 369.626 -0.816049 1.76222 0
M  V30 3991 O 368.901 -1.58849 1.12237 0
M  V30 3992 C 369.184 1.03773 3.44824 0
M  V30 3993 C 369.037 2.55948 3.69879 0
M  V30 3994 C 370.356 0.580653 4.36253 0
M  V30 3995 H 367.475 0.236952 0.69787 0
M  V30 3996 H 370.117 1.22012 1.45647 0
M  V30 3997 H 368.267 0.551058 3.84572 0
M  V30 3998 H 369.939 3.12179 3.3962 0
M  V30 3999 H 368.182 2.98641 3.14636 0
M  V30 4000 H 368.853 2.78255 4.76737 0
M  V30 4001 H 371.329 0.998465 4.03943 0
M  V30 4002 H 370.205 0.881663 5.41773 0
M  V30 4003 H 370.466 -0.519052 4.39042 0
M  V30 4004 N 369.525 -1.3858 0.750561 0
M  V30 4005 C 370.773 -1.99789 0.30477 0
M  V30 4006 C 371.094 -1.59874 -1.11649 0
M  V30 4007 O 370.364 -0.85417 -1.76297 0
M  V30 4008 H 368.944 -0.738902 0.109694 0
M  V30 4009 H 371.606 -1.69391 0.963983 0
M  V30 4010 H 370.702 -3.09952 0.365499 0
M  V30 4011 N 371.003 -0.499398 -1.49478 0
M  V30 4012 C 372.419 -0.155261 -1.58843 0
M  V30 4013 C 372.619 1.34008 -1.50479 0
M  V30 4014 O 371.675 2.11589 -1.37791 0
M  V30 4015 C 372.988 -0.730636 -2.91689 0
M  V30 4016 C 374.536 -0.696599 -3.0515 0
M  V30 4017 C 375.011 -1.25001 -4.40612 0
M  V30 4018 N 376.502 -1.21064 -4.47099 0
M  V30 4019 C 377.237 -1.60905 -5.50361 0
M  V30 4020 N 376.733 -2.08331 -6.60735 0
M  V30 4021 N 378.526 -1.52331 -5.41065 0
M  V30 4022 H 370.677 -1.47162 -1.53158 0
M  V30 4023 H 372.94 -0.610309 -0.725415 0
M  V30 4024 H 372.646 -1.77928 -3.03372 0
M  V30 4025 H 372.52 -0.190161 -3.7672 0
M  V30 4026 H 374.907 0.343204 -2.93097 0
M  V30 4027 H 374.988 -1.2742 -2.21806 0
M  V30 4028 H 374.632 -2.28859 -4.53416 0
M  V30 4029 H 374.562 -0.64836 -5.22593 0
M  V30 4030 H 377.053 -0.863128 -3.67911 0
M  V30 4031 H 377.366 -2.36805 -7.35624 0
M  V30 4032 H 375.711 -2.12304 -6.6178 0
M  V30 4033 H 378.902 -1.151 -4.53729 0
M  V30 4034 H 379.075 -1.83704 -6.21415 0
M  V30 4035 N 372.481 1.55866 -0.233164 0
M  V30 4036 C 373.727 1.98897 0.395959 0
M  V30 4037 C 374.06 1.12091 1.58585 0
M  V30 4038 O 373.335 0.181182 1.93654 0
M  V30 4039 C 373.618 3.50658 0.819224 0
M  V30 4040 C 373.471 4.48233 -0.375109 0
M  V30 4041 C 374.79 4.07135 1.67121 0
M  V30 4042 H 371.909 0.723102 0.142451 0
M  V30 4043 H 374.551 1.87082 -0.331725 0
M  V30 4044 H 372.701 3.60857 1.43925 0
M  V30 4045 H 374.373 4.50031 -1.01341 0
M  V30 4046 H 372.616 4.21624 -1.02058 0
M  V30 4047 H 373.287 5.51988 -0.0358328 0
M  V30 4048 H 375.763 3.99952 1.14795 0
M  V30 4049 H 374.639 5.13615 1.93625 0
M  V30 4050 H 374.9 3.54736 2.63846 0
M  V30 4051 N 373.959 -0.0401083 1.57549 0
M  V30 4052 C 374.869 -1.06133 2.0922 0
M  V30 4053 C 375.885 -1.40356 1.0284 0
M  V30 4054 O 377.061 -1.49897 1.34509 0
M  V30 4055 C 374.126 -2.34658 2.55218 0
M  V30 4056 C 373.187 -2.07117 3.76033 0
M  V30 4057 C 372.42 -3.29514 4.19829 0
M  V30 4058 O 372.643 -4.39794 3.63232 0
M  V30 4059 O 371.577 -3.15863 5.12362 0
M  V30 4060 H 375.403 -0.652244 2.96613 0
M  V30 4061 H 372.988 -0.256368 1.47184 0
M  V30 4062 H 374.87 -3.10239 2.85184 0
M  V30 4063 H 373.545 -2.74883 1.70941 0
M  V30 4064 H 372.452 -1.29139 3.51104 0
M  V30 4065 H 373.785 -1.71754 4.61261 0
M  V30 4066 N 375.437 -1.54477 -0.31217 0
M  V30 4067 C 376.665 -1.77205 -1.068 0
M  V30 4068 C 377.08 -0.526114 -1.81321 0
M  V30 4069 O 376.437 0.503647 -1.75413 0
M  V30 4070 C 376.488 -2.97253 -2.05725 0
M  V30 4071 O 376.209 -4.1703 -1.34228 0
M  V30 4072 C 377.71 -3.32281 -2.93435 0
M  V30 4073 H 374.93 -0.591287 -0.317208 0
M  V30 4074 H 377.474 -2.01398 -0.354834 0
M  V30 4075 H 375.629 -2.753 -2.72559 0
M  V30 4076 H 376.043 -4.84636 -2.00571 0
M  V30 4077 H 377.517 -4.19551 -3.58721 0
M  V30 4078 H 377.994 -2.49945 -3.61143 0
M  V30 4079 H 378.6 -3.56353 -2.32147 0
M  V30 4080 N 376.915 0.57481 -1.46744 0
M  V30 4081 C 378.163 1.33009 -1.52161 0
M  V30 4082 C 378.484 1.94185 -0.178092 0
M  V30 4083 O 377.754 1.7899 0.796196 0
M  V30 4084 H 376.334 0.493873 -0.560445 0
M  V30 4085 H 378.996 0.672589 -1.82927 0
M  V30 4086 H 378.092 2.13273 -2.27862 0
M  V30 4087 N 378.394 1.34581 0.820102 0
M  V30 4088 C 379.643 1.26437 1.57151 0
M  V30 4089 C 379.956 -0.163111 1.94919 0
M  V30 4090 O 381.162 -0.366722 2.69012 0
M  V30 4091 C 379.618 2.21658 2.83541 0
M  V30 4092 C 379.226 3.69679 2.53065 0
M  V30 4093 C 380.97 2.22428 3.61561 0
M  V30 4094 C 378.877 4.56761 3.75664 0
M  V30 4095 H 377.807 0.469707 0.589823 0
M  V30 4096 H 380.458 1.59763 0.902656 0
M  V30 4097 H 378.84 1.81287 3.52067 0
M  V30 4098 H 380.014 4.18605 1.92631 0
M  V30 4099 H 378.329 3.71384 1.88316 0
M  V30 4100 H 380.926 2.8471 4.52597 0
M  V30 4101 H 381.269 1.22434 3.97889 0
M  V30 4102 H 381.802 2.61259 2.99981 0
M  V30 4103 H 378.541 5.57702 3.44454 0
M  V30 4104 H 378.061 4.12568 4.35371 0
M  V30 4105 H 379.74 4.71509 4.43044 0
M  V30 4106 N 379.872 -1.04064 1.18357 0
M  V30 4107 C 380.802 -2.14001 0.934113 0
M  V30 4108 C 381.783 -1.69616 -0.128186 0
M  V30 4109 O 382.968 -1.94185 0.0244093 0
M  V30 4110 C 380.098 -3.44253 0.459066 0
M  V30 4111 C 379.052 -4.02261 1.46185 0
M  V30 4112 C 378.378 -5.27992 0.844322 0
M  V30 4113 C 379.678 -4.38432 2.83856 0
M  V30 4114 H 381.372 -2.35127 1.85352 0
M  V30 4115 H 378.918 -1.12998 0.892604 0
M  V30 4116 H 380.871 -4.20522 0.271907 0
M  V30 4117 H 379.595 -3.22813 -0.495912 0
M  V30 4118 H 378.254 -3.28074 1.63595 0
M  V30 4119 H 377.902 -5.02862 -0.117845 0
M  V30 4120 H 377.602 -5.67765 1.51384 0
M  V30 4121 H 379.126 -6.06938 0.667693 0
M  V30 4122 H 380.54 -5.05688 2.70098 0
M  V30 4123 H 378.937 -4.89254 3.47491 0
M  V30 4124 H 380.007 -3.4826 3.37406 0
M  V30 4125 N 381.35 -0.985608 -1.22978 0
M  V30 4126 C 382.297 -0.529825 -2.24636 0
M  V30 4127 C 383.267 0.434028 -1.60329 0
M  V30 4128 O 384.452 0.340414 -1.87739 0
M  V30 4129 C 381.592 0.156533 -3.44745 0
M  V30 4130 C 380.705 -0.848197 -4.23591 0
M  V30 4131 C 379.84 -0.136109 -5.31026 0
M  V30 4132 C 378.879 -1.1297 -6.01585 0
M  V30 4133 N 378.016 -0.446415 -7.00679 0
M  V30 4134 H 382.856 -1.40148 -2.62988 0
M  V30 4135 H 380.393 -0.702168 -1.29259 0
M  V30 4136 H 382.351 0.571324 -4.1327 0
M  V30 4137 H 380.981 0.992025 -3.07179 0
M  V30 4138 H 380.033 -1.38135 -3.54433 0
M  V30 4139 H 381.345 -1.60512 -4.72268 0
M  V30 4140 H 380.499 0.335784 -6.0577 0
M  V30 4141 H 379.238 0.653373 -4.83304 0
M  V30 4142 H 378.243 -1.6123 -5.25628 0
M  V30 4143 H 379.468 -1.91993 -6.51395 0
M  V30 4144 H 377.414 0.323763 -6.55201 0
M  V30 4145 H 377.331 -1.1419 -7.47326 0
M  V30 4146 H 378.599 0.00291697 -7.795 0
M  V30 4147 N 382.828 1.3818 -0.7579 0
M  V30 4148 C 383.791 2.28764 -0.141286 0
M  V30 4149 C 384.791 1.47388 0.642907 0
M  V30 4150 O 385.981 1.67781 0.468536 0
M  V30 4151 C 383.113 3.31184 0.808069 0
M  V30 4152 H 384.306 2.848 -0.939633 0
M  V30 4153 H 381.859 1.47212 -0.525191 0
M  V30 4154 H 382.594 2.80247 1.63193 0
M  V30 4155 H 382.379 3.91314 0.248104 0
M  V30 4156 H 383.869 3.98909 1.23536 0
M  V30 4157 N 384.306 0.507319 1.49211 0
M  V30 4158 C 385.554 -0.0348839 2.0207 0
M  V30 4159 C 385.875 -1.36898 1.38866 0
M  V30 4160 O 385.145 -1.88133 0.546151 0
M  V30 4161 H 383.725 -0.0158812 0.746831 0
M  V30 4162 H 386.387 0.665998 1.83168 0
M  V30 4163 H 385.483 -0.159917 3.1169 0
M  V30 4164 N 385.784 -1.5574 0.241426 0
M  V30 4165 C 386.717 -2.17168 -0.700935 0
M  V30 4166 C 387.695 -1.12206 -1.1768 0
M  V30 4167 O 388.879 -1.40565 -1.25593 0
M  V30 4168 C 386.006 -2.76796 -1.95196 0
M  V30 4169 C 385.052 -3.94764 -1.61442 0
M  V30 4170 S 385.885 -5.30613 -0.72182 0
M  V30 4171 C 387.041 -5.93691 -1.98197 0
M  V30 4172 H 387.274 -2.96761 -0.178882 0
M  V30 4173 H 384.807 -1.54378 0.0259299 0
M  V30 4174 H 386.765 -3.11787 -2.67019 0
M  V30 4175 H 385.426 -1.9716 -2.44514 0
M  V30 4176 H 384.619 -4.35057 -2.54443 0
M  V30 4177 H 384.221 -3.61022 -0.976672 0
M  V30 4178 H 386.513 -6.10874 -2.92983 0
M  V30 4179 H 387.456 -6.89258 -1.62262 0
M  V30 4180 H 387.864 -5.22709 -2.13156 0
M  V30 4181 N 387.262 0.0317525 -1.57568 0
M  V30 4182 C 388.508 0.724175 -1.8943 0
M  V30 4183 C 388.841 1.75149 -0.838836 0
M  V30 4184 O 388.116 1.93948 0.146422 0
M  V30 4185 C 388.399 1.39615 -3.31933 0
M  V30 4186 C 388.252 0.382537 -4.4817 0
M  V30 4187 C 389.571 2.33084 -3.73309 0
M  V30 4188 H 386.69 0.261797 -0.688935 0
M  V30 4189 H 389.332 -0.013017 -1.89996 0
M  V30 4190 H 387.482 2.02451 -3.31581 0
M  V30 4191 H 389.154 -0.243689 -4.60656 0
M  V30 4192 H 387.397 -0.29844 -4.32772 0
M  V30 4193 H 388.068 0.891145 -5.44759 0
M  V30 4194 H 390.544 1.80295 -3.7501 0
M  V30 4195 H 389.42 2.77084 -4.73831 0
M  V30 4196 H 389.681 3.19643 -3.05419 0
M  V30 4197 N 388.74 1.54641 0.303973 0
M  V30 4198 C 389.67 1.88386 1.3796 0
M  V30 4199 C 390.651 0.742485 1.5304 0
M  V30 4200 O 391.836 0.997959 1.66597 0
M  V30 4201 C 388.966 2.12854 2.74427 0
M  V30 4202 C 387.92 3.28702 2.74115 0
M  V30 4203 C 387.246 3.38582 4.13844 0
M  V30 4204 C 388.546 4.65881 2.3612 0
M  V30 4205 H 390.24 2.78474 1.09966 0
M  V30 4206 H 387.786 1.33988 0.527556 0
M  V30 4207 H 389.739 2.35047 3.49758 0
M  V30 4208 H 388.463 1.19535 3.03939 0
M  V30 4209 H 387.122 3.06428 2.0124 0
M  V30 4210 H 386.77 2.42784 4.40528 0
M  V30 4211 H 386.47 4.16453 4.14537 0
M  V30 4212 H 387.994 3.63031 4.90959 0
M  V30 4213 H 389.408 4.87823 3.01167 0
M  V30 4214 H 387.805 5.46444 2.48031 0
M  V30 4215 H 388.875 4.66799 1.3125 0
M  V30 4216 N 390.218 -0.567019 1.47046 0
M  V30 4217 C 391.166 -1.69593 1.59188 0
M  V30 4218 C 392.16 -1.63046 0.459609 0
M  V30 4219 O 393.366 -1.6835 0.637058 0
M  V30 4220 H 389.741 -0.560993 0.500791 0
M  V30 4221 H 391.712 -1.56488 2.54075 0
M  V30 4222 C 390.461 -3.07964 1.61411 0
M  V30 4223 H 389.784 -3.13679 2.47881 0
M  V30 4224 H 391.224 -3.86671 1.73958 0
M  V30 4225 C 389.683 -3.35123 0.34559 0
M  V30 4226 O 390.213 -3.97812 -0.557521 0
M  V30 4227 N 388.419 -2.89699 0.22864 0
M  V30 4228 H 387.966 -2.38863 0.964479 0
M  V30 4229 H 387.924 -3.08242 -0.619192 0
M  V30 4230 N 391.696 -1.35014 -0.812953 0
M  V30 4231 C 392.943 -1.27931 -1.56971 0
M  V30 4232 C 393.271 0.148034 -1.93936 0
M  V30 4233 O 392.526 1.11175 -1.61054 0
M  V30 4234 C 392.825 -2.12524 -2.87347 0
M  V30 4235 C 392.491 -3.61401 -2.6963 0
M  V30 4236 C 391.153 -4.01983 -2.64506 0
M  V30 4237 C 393.505 -4.55894 -2.52607 0
M  V30 4238 C 390.833 -5.35235 -2.40293 0
M  V30 4239 C 393.185 -5.89336 -2.29925 0
M  V30 4240 C 391.849 -6.2907 -2.23219 0
M  V30 4241 H 391.119 -0.468131 -0.574399 0
M  V30 4242 H 393.766 -1.66851 -0.939836 0
M  V30 4243 H 392.071 -1.66463 -3.54679 0
M  V30 4244 H 393.768 -2.04383 -3.45005 0
M  V30 4245 H 390.358 -3.29193 -2.74463 0
M  V30 4246 H 394.542 -4.25431 -2.55583 0
M  V30 4247 H 389.798 -5.65028 -2.33566 0
M  V30 4248 H 393.972 -6.62139 -2.15743 0
M  V30 4249 H 391.599 -7.32256 -2.04219 0
M  V30 4250 N 393.175 1.03435 -1.18907 0
M  V30 4251 C 394.138 2.09756 -0.923844 0
M  V30 4252 C 395.138 1.60528 0.093416 0
M  V30 4253 O 396.328 1.73631 -0.140727 0
M  V30 4254 C 393.46 3.38692 -0.387354 0
M  V30 4255 H 394.653 2.34719 -1.86674 0
M  V30 4256 H 392.206 1.19959 -1.00197 0
M  V30 4257 H 392.941 3.19396 0.561845 0
M  V30 4258 H 392.726 3.75742 -1.12074 0
M  V30 4259 H 394.216 4.17016 -0.220694 0
M  V30 4260 N 394.653 0.992116 1.22453 0
M  V30 4261 C 396.064 0.702776 1.72968 0
M  V30 4262 C 396.415 -0.780399 1.80012 0
M  V30 4263 O 395.54 -1.61007 1.44589 0
M  V30 4264 C 396.135 1.26903 3.14135 0
M  V30 4265 C 394.694 1.02909 3.62059 0
M  V30 4266 C 393.841 1.38969 2.39964 0
M  V30 4267 H 396.792 1.16457 1.07812 0
M  V30 4268 H 396.813 0.647223 3.74955 0
M  V30 4269 H 396.325 2.34851 3.08977 0
M  V30 4270 H 394.426 -0.0337979 3.72585 0
M  V30 4271 H 394.539 1.69191 4.48231 0
M  V30 4272 H 392.903 0.808279 2.41535 0
M  V30 4273 H 393.686 2.4792 2.37467 0
M  V30 4274 N 396.131 -1.37776 0.765217 0
M  V30 4275 C 397.356 -2.04651 0.336537 0
M  V30 4276 C 397.781 -1.57337 -1.03086 0
M  V30 4277 O 397.139 -0.730621 -1.65927 0
M  V30 4278 C 397.187 -3.58577 0.381468 0
M  V30 4279 O 396.291 -4.07706 -0.62042 0
M  V30 4280 H 395.632 -0.64756 0.146838 0
M  V30 4281 H 398.162 -1.76221 1.03959 0
M  V30 4282 H 398.172 -4.07314 0.236448 0
M  V30 4283 H 396.847 -3.9237 1.37907 0
M  V30 4284 H 395.424 -3.70306 -0.439056 0
M  V30 4285 N 397.609 -0.515225 -1.4894 0
M  V30 4286 C 398.572 0.244681 -2.2789 0
M  V30 4287 C 399.572 0.881166 -1.34507 0
M  V30 4288 O 400.762 0.743497 -1.57537 0
M  V30 4289 C 397.894 1.35247 -3.12923 0
M  V30 4290 H 399.087 -0.448289 -2.96531 0
M  V30 4291 H 396.64 -0.270656 -1.53939 0
M  V30 4292 H 397.375 2.07916 -2.48881 0
M  V30 4293 H 397.16 0.901374 -3.81599 0
M  V30 4294 H 398.65 1.88737 -3.72516 0
M  V30 4295 N 399.087 1.5561 -0.249682 0
M  V30 4296 C 400.333 1.99306 0.374841 0
M  V30 4297 C 400.666 1.13767 1.57387 0
M  V30 4298 O 399.941 0.201711 1.93451 0
M  V30 4299 C 400.224 3.51507 0.781986 0
M  V30 4300 C 400.077 4.4781 -0.422629 0
M  V30 4301 C 401.396 4.08884 1.62793 0
M  V30 4302 H 398.515 0.724572 0.134773 0
M  V30 4303 H 401.157 1.86719 -0.351549 0
M  V30 4304 H 399.307 3.62363 1.4009 0
M  V30 4305 H 400.979 4.48931 -1.06108 0
M  V30 4306 H 399.222 4.20518 -1.06524 0
M  V30 4307 H 399.893 5.51919 -0.0943766 0
M  V30 4308 H 402.369 4.01147 1.10547 0
M  V30 4309 H 401.245 5.1564 1.88166 0
M  V30 4310 H 401.506 3.57515 2.60068 0
M  V30 4311 N 400.565 -0.0233959 1.57583 0
M  V30 4312 C 401.811 -0.714119 1.89811 0
M  V30 4313 C 402.144 -1.74702 0.848113 0
M  V30 4314 O 401.419 -1.94023 -0.136135 0
M  V30 4315 C 401.702 -1.37853 3.32669 0
M  V30 4316 C 401.555 -0.358764 4.48367 0
M  V30 4317 C 402.874 -2.31101 3.7454 0
M  V30 4318 H 399.993 -0.25814 0.690314 0
M  V30 4319 H 402.635 0.0230927 1.89986 0
M  V30 4320 H 400.785 -2.00689 3.3265 0
M  V30 4321 H 402.457 0.268115 4.6052 0
M  V30 4322 H 400.7 0.321387 4.32608 0
M  V30 4323 H 401.371 -0.862242 5.45224 0
M  V30 4324 H 403.847 -1.78304 3.75961 0
M  V30 4325 H 402.723 -2.74567 4.75294 0
M  V30 4326 H 402.984 -3.18018 3.0711 0
M  V30 4327 N 402.043 -1.548 -0.295768 0
M  V30 4328 C 403.268 -1.78653 -1.05346 0
M  V30 4329 C 403.693 -0.546894 -1.79974 0
M  V30 4330 O 403.051 0.502763 -1.7419 0
M  V30 4331 C 403.099 -2.99679 -2.00561 0
M  V30 4332 O 402.203 -2.7317 -3.08953 0
M  V30 4333 H 401.544 -0.59116 -0.302367 0
M  V30 4334 H 404.074 -2.01895 -0.331598 0
M  V30 4335 H 404.084 -3.27793 -2.42932 0
M  V30 4336 H 402.759 -3.89562 -1.4565 0
M  V30 4337 H 401.336 -2.56089 -2.71059 0
M  V30 4338 N 403.521 0.559213 -1.47345 0
M  V30 4339 C 404.431 1.69388 -1.62311 0
M  V30 4340 C 405.447 1.6648 -0.505993 0
M  V30 4341 O 406.623 1.85964 -0.773262 0
M  V30 4342 C 403.688 3.05894 -1.63185 0
M  V30 4343 C 402.749 3.19885 -2.86307 0
M  V30 4344 C 401.982 4.49879 -2.87131 0
M  V30 4345 O 402.205 5.35217 -1.97229 0
M  V30 4346 O 401.139 4.67618 -3.78968 0
M  V30 4347 H 404.965 1.59706 -2.58317 0
M  V30 4348 H 402.55 0.728989 -1.30407 0
M  V30 4349 H 404.432 3.87133 -1.66451 0
M  V30 4350 H 403.107 3.15964 -0.70345 0
M  V30 4351 H 402.014 2.38052 -2.88587 0
M  V30 4352 H 403.347 3.14718 -3.78435 0
M  V30 4353 N 404.999 1.35443 0.805782 0
M  V30 4354 C 406.239 1.30127 1.57627 0
M  V30 4355 C 406.603 -0.122567 1.91608 0
M  V30 4356 O 407.804 -0.300107 2.67119 0
M  V30 4357 C 406.075 2.18314 2.82973 0
M  V30 4358 S 407.634 2.30521 3.7337 0
M  V30 4359 H 404.452 0.462439 0.540066 0
M  V30 4360 H 407.054 1.70843 0.95042 0
M  V30 4361 H 405.758 3.20741 2.56034 0
M  V30 4362 H 405.289 1.78558 3.50543 0
M  V30 4363 H 407.304 1.49062 4.73281 0
M  V30 4364 N 406.477 -1.02803 1.19454 0
M  V30 4365 C 407.424 -2.11099 0.933046 0
M  V30 4366 C 408.394 -1.65571 -0.132447 0
M  V30 4367 O 409.579 -1.90797 0.00987576 0
M  V30 4368 C 406.719 -3.41763 0.478747 0
M  V30 4369 C 405.832 -4.00833 1.6111 0
M  V30 4370 C 404.967 -5.19511 1.10825 0
M  V30 4371 C 404.006 -5.70639 2.21445 0
M  V30 4372 N 403.143 -6.80589 1.72461 0
M  V30 4373 H 407.983 -2.32804 1.86028 0
M  V30 4374 H 405.52 -1.14179 0.927441 0
M  V30 4375 H 407.478 -4.16736 0.196745 0
M  V30 4376 H 406.108 -3.20166 -0.411493 0
M  V30 4377 H 405.16 -3.23066 2.00829 0
M  V30 4378 H 406.472 -4.34794 2.4445 0
M  V30 4379 H 405.626 -6.01645 0.781533 0
M  V30 4380 H 404.365 -4.87086 0.244606 0
M  V30 4381 H 403.37 -4.87116 2.54947 0
M  V30 4382 H 404.595 -6.05102 3.08267 0
M  V30 4383 H 402.541 -6.50016 0.884056 0
M  V30 4384 H 402.458 -7.13681 2.49389 0
M  V30 4385 H 403.726 -7.66317 1.42755 0
M  V30 4386 N 407.956 -0.998596 -1.21925 0
M  V30 4387 C 409.181 -0.696015 -1.95372 0
M  V30 4388 C 409.606 0.733826 -1.73195 0
M  V30 4389 O 408.964 1.50242 -1.01474 0
M  V30 4390 C 409.012 -1.01466 -3.4603 0
M  V30 4391 O 408.116 -0.116415 -4.12236 0
M  V30 4392 H 407.457 -0.259938 -0.611006 0
M  V30 4393 H 409.987 -1.33711 -1.54863 0
M  V30 4394 H 409.997 -0.958855 -3.96573 0
M  V30 4395 H 408.672 -2.05653 -3.61497 0
M  V30 4396 H 407.249 -0.228193 -3.72201 0
M  V30 4397 N 409.434 1.37368 -0.772513 0
M  V30 4398 C 410.68 1.99969 -0.337681 0
M  V30 4399 C 411.013 1.61184 1.08321 0
M  V30 4400 O 410.288 0.858395 1.74533 0
M  V30 4401 C 410.571 3.56858 -0.482121 0
M  V30 4402 C 410.424 4.0555 -1.94549 0
M  V30 4403 C 411.743 4.39955 0.113143 0
M  V30 4404 H 408.862 0.726464 -0.124171 0
M  V30 4405 H 411.504 1.63034 -0.975699 0
M  V30 4406 H 409.654 3.88452 0.0610361 0
M  V30 4407 H 411.326 3.84518 -2.54841 0
M  V30 4408 H 409.569 3.57715 -2.45403 0
M  V30 4409 H 410.24 5.14587 -1.9976 0
M  V30 4410 H 412.716 4.14623 -0.35031 0
M  V30 4411 H 411.592 5.48897 -0.0180514 0
M  V30 4412 H 411.853 4.25403 1.20354 0
M  V30 4413 N 410.912 0.523116 1.48665 0
M  V30 4414 C 411.822 -0.247406 2.33292 0
M  V30 4415 C 412.838 -0.945769 1.46052 0
M  V30 4416 O 414.014 -0.922253 1.79043 0
M  V30 4417 C 411.079 -1.28487 3.22012 0
M  V30 4418 C 410.14 -0.597592 4.2512 0
M  V30 4419 C 409.373 -1.58563 5.09601 0
M  V30 4420 O 409.596 -2.81763 4.95949 0
M  V30 4421 O 408.53 -1.12879 5.91221 0
M  V30 4422 H 412.356 0.445869 3.00409 0
M  V30 4423 H 409.941 0.284128 1.46673 0
M  V30 4424 H 411.823 -1.88459 3.7691 0
M  V30 4425 H 410.498 -1.96068 2.57564 0
M  V30 4426 H 409.405 0.0424407 3.74076 0
M  V30 4427 H 410.738 0.0361517 4.92187 0
M  V30 4428 N 412.39 -1.55475 0.257931 0
M  V30 4429 C 413.323 -2.179 -0.677862 0
M  V30 4430 C 414.301 -1.13448 -1.16483 0
M  V30 4431 O 415.485 -1.41889 -1.24095 0
M  V30 4432 C 412.612 -2.78851 -1.92249 0
M  V30 4433 C 411.658 -3.96454 -1.57246 0
M  V30 4434 S 412.491 -5.31349 -0.665501 0
M  V30 4435 C 413.647 -5.9576 -1.91889 0
M  V30 4436 H 413.88 -2.96934 -0.147396 0
M  V30 4437 H 411.413 -1.54342 0.0423023 0
M  V30 4438 H 413.371 -3.14602 -2.63697 0
M  V30 4439 H 412.032 -1.99742 -2.42409 0
M  V30 4440 H 411.225 -4.37731 -2.49814 0
M  V30 4441 H 410.827 -3.62038 -0.938325 0
M  V30 4442 H 413.119 -6.13947 -2.86487 0
M  V30 4443 H 414.062 -6.9094 -1.54942 0
M  V30 4444 H 414.47 -5.2494 -2.076 0
M  V30 4445 N 413.868 0.0150385 -1.57593 0
M  V30 4446 C 414.818 1.01943 -2.0394 0
M  V30 4447 C 415.802 1.31209 -0.931286 0
M  V30 4448 O 416.994 1.30559 -1.19513 0
M  V30 4449 C 414.123 2.31621 -2.53391 0
M  V30 4450 C 413.209 2.05384 -3.7105 0
M  V30 4451 N 413.6 1.49253 -4.83278 0
M  V30 4452 C 411.898 2.35601 -3.78693 0
M  V30 4453 C 412.599 1.39143 -5.64813 0
M  V30 4454 N 411.575 1.87187 -5.10355 0
M  V30 4455 H 415.377 0.57969 -2.88126 0
M  V30 4456 H 412.891 0.221056 -1.60888 0
M  V30 4457 H 414.888 3.044 -2.84862 0
M  V30 4458 H 413.548 2.76261 -1.70616 0
M  V30 4459 H 414.559 1.17334 -5.04433 0
M  V30 4460 H 411.236 2.8322 -3.06746 0
M  V30 4461 H 412.626 0.961153 -6.6499 0
M  V30 4462 N 415.346 1.54954 0.287554 0
M  V30 4463 C 416.293 1.86834 1.35505 0
M  V30 4464 C 417.263 0.718452 1.49758 0
M  V30 4465 O 418.448 0.968358 1.644 0
M  V30 4466 C 415.588 2.13303 2.71286 0
M  V30 4467 C 414.701 3.40883 2.65373 0
M  V30 4468 C 413.836 3.57125 3.93236 0
M  V30 4469 C 412.875 4.78449 3.81776 0
M  V30 4470 N 412.012 4.91426 5.01443 0
M  V30 4471 H 416.852 2.77889 1.07619 0
M  V30 4472 H 414.389 1.37593 0.520241 0
M  V30 4473 H 416.347 2.26646 3.50267 0
M  V30 4474 H 414.977 1.25499 2.97405 0
M  V30 4475 H 414.029 3.36088 1.78182 0
M  V30 4476 H 415.341 4.29993 2.52799 0
M  V30 4477 H 414.495 3.70207 4.80658 0
M  V30 4478 H 413.234 2.66173 4.0866 0
M  V30 4479 H 412.239 4.65386 2.92738 0
M  V30 4480 H 413.464 5.70822 3.67884 0
M  V30 4481 H 411.41 4.03401 5.17304 0
M  V30 4482 H 411.327 5.74559 4.91343 0
M  V30 4483 H 412.595 5.08879 5.90477 0
M  V30 4484 N 416.824 -0.551391 1.4764 0
M  V30 4485 C 417.734 -1.68525 1.63207 0
M  V30 4486 C 418.75 -1.6621 0.514815 0
M  V30 4487 O 419.926 -1.85551 0.783113 0
M  V30 4488 C 416.991 -3.05025 1.64805 0
M  V30 4489 C 416.052 -3.18362 2.88 0
M  V30 4490 C 415.285 -4.4835 2.89513 0
M  V30 4491 O 415.508 -5.34163 2.00065 0
M  V30 4492 O 414.442 -4.65602 3.81443 0
M  V30 4493 H 418.268 -1.58333 2.59161 0
M  V30 4494 H 415.853 -0.722063 1.30792 0
M  V30 4495 H 417.735 -3.86245 1.68502 0
M  V30 4496 H 416.41 -3.15587 0.720197 0
M  V30 4497 H 415.317 -2.36518 2.89845 0
M  V30 4498 H 416.65 -3.12707 3.80099 0
M  V30 4499 N 418.302 -1.35869 -0.798587 0
M  V30 4500 C 419.548 -1.2978 -1.55836 0
M  V30 4501 C 419.881 0.125322 -1.93795 0
M  V30 4502 O 419.156 1.07658 -1.61987 0
M  V30 4503 C 419.439 -2.21188 -2.84162 0
M  V30 4504 C 419.292 -3.72155 -2.52628 0
M  V30 4505 C 420.611 -2.11545 -3.85923 0
M  V30 4506 H 417.73 -0.472769 -0.565383 0
M  V30 4507 H 420.372 -1.66341 -0.918192 0
M  V30 4508 H 418.522 -1.90139 -3.38791 0
M  V30 4509 H 420.194 -4.13682 -2.04121 0
M  V30 4510 H 418.437 -3.92042 -1.85704 0
M  V30 4511 H 419.108 -4.31511 -3.44242 0
M  V30 4512 H 421.584 -2.38855 -3.40716 0
M  V30 4513 H 420.46 -2.77688 -4.73477 0
M  V30 4514 H 420.721 -1.09987 -4.282 0
M  V30 4515 N 419.78 1.02168 -1.19998 0
M  V30 4516 C 420.71 2.12488 -0.96804 0
M  V30 4517 C 421.691 1.69799 0.101185 0
M  V30 4518 O 422.876 1.94121 -0.0552993 0
M  V30 4519 C 420.006 3.43479 -0.513776 0
M  V30 4520 C 418.96 3.99884 -1.52566 0
M  V30 4521 C 418.286 5.26582 -0.928214 0
M  V30 4522 C 419.586 4.33861 -2.90795 0
M  V30 4523 H 421.28 2.32149 -1.89069 0
M  V30 4524 H 418.826 1.11564 -0.910468 0
M  V30 4525 H 420.779 4.20036 -0.338774 0
M  V30 4526 H 419.503 3.23561 0.444493 0
M  V30 4527 H 418.162 3.25429 -1.68794 0
M  V30 4528 H 417.81 5.02986 0.0378289 0
M  V30 4529 H 417.51 5.65284 -1.60397 0
M  V30 4530 H 419.034 6.05799 -0.764167 0
M  V30 4531 H 420.448 5.01327 -2.78109 0
M  V30 4532 H 418.845 4.83664 -3.55231 0
M  V30 4533 H 419.915 3.42848 -3.42904 0
M  V30 4534 N 421.258 1.00505 1.21394 0
M  V30 4535 C 422.168 0.574806 2.27449 0
M  V30 4536 C 423.184 -0.382206 1.6975 0
M  V30 4537 O 424.36 -0.246027 1.99892 0
M  V30 4538 C 421.425 -0.0917414 3.46579 0
M  V30 4539 C 420.486 0.909758 4.1955 0
M  V30 4540 C 419.719 0.274924 5.32991 0
M  V30 4541 O 419.942 -0.928254 5.62796 0
M  V30 4542 O 418.876 0.985877 5.93771 0
M  V30 4543 H 422.702 1.45744 2.66444 0
M  V30 4544 H 420.287 0.773923 1.27792 0
M  V30 4545 H 422.169 -0.464551 4.18832 0
M  V30 4546 H 420.844 -0.948755 3.09484 0
M  V30 4547 H 419.751 1.33372 3.49518 0
M  V30 4548 H 421.084 1.73636 4.60555 0
M  V30 4549 N 422.737 -1.36956 0.779787 0
M  V30 4550 C 423.647 -2.33965 0.172491 0
M  V30 4551 C 424.663 -1.60574 -0.670222 0
M  V30 4552 O 425.839 -1.92617 -0.588263 0
M  V30 4553 C 422.904 -3.39761 -0.690173 0
M  V30 4554 C 421.965 -4.28964 0.169924 0
M  V30 4555 C 421.198 -5.29707 -0.651662 0
M  V30 4556 O 421.421 -5.38238 -1.88827 0
M  V30 4557 O 420.355 -6.01873 -0.0566264 0
M  V30 4558 H 424.181 -2.87647 0.974321 0
M  V30 4559 H 421.766 -1.39258 0.541078 0
M  V30 4560 H 423.648 -4.04471 -1.1824 0
M  V30 4561 H 422.323 -2.88394 -1.47006 0
M  V30 4562 H 421.23 -3.67326 0.708696 0
M  V30 4563 H 422.563 -4.83656 0.913085 0
M  V30 4564 N 424.215 -0.530993 -1.48385 0
M  V30 4565 C 425.178 0.220497 -2.28137 0
M  V30 4566 C 426.178 0.866851 -1.35434 0
M  V30 4567 O 427.368 0.726746 -1.58316 0
M  V30 4568 C 424.5 1.31921 -3.1434 0
M  V30 4569 H 425.693 -0.479714 -2.96038 0
M  V30 4570 H 423.246 -0.286968 -1.53643 0
M  V30 4571 H 423.981 2.05264 -2.51072 0
M  V30 4572 H 423.766 0.86085 -3.82533 0
M  V30 4573 H 425.256 1.84776 -3.74497 0
M  V30 4574 N 425.693 1.55336 -0.266172 0
M  V30 4575 C 427.109 1.59356 0.0882065 0
M  V30 4576 C 427.309 1.2834 1.55342 0
M  V30 4577 O 426.365 1.03996 2.30089 0
M  V30 4578 C 427.678 2.99409 -0.278364 0
M  V30 4579 C 429.226 3.12196 -0.224243 0
M  V30 4580 C 429.701 4.545 -0.565123 0
M  V30 4581 N 431.192 4.60313 -0.51634 0
M  V30 4582 C 431.927 5.68434 -0.753013 0
M  V30 4583 N 431.423 6.84738 -1.05383 0
M  V30 4584 N 433.216 5.57942 -0.682414 0
M  V30 4585 H 425.367 1.73764 -1.22147 0
M  V30 4586 H 427.63 0.809822 -0.492841 0
M  V30 4587 H 427.336 3.2691 -1.29703 0
M  V30 4588 H 427.21 3.75228 0.385186 0
M  V30 4589 H 429.597 2.84464 0.78512 0
M  V30 4590 H 429.678 2.38609 -0.921922 0
M  V30 4591 H 429.322 4.82956 -1.57213 0
M  V30 4592 H 429.252 5.26374 0.154248 0
M  V30 4593 H 431.743 3.7676 -0.29335 0
M  V30 4594 H 432.056 7.63088 -1.22133 0
M  V30 4595 H 430.401 6.86375 -1.09151 0
M  V30 4596 H 433.592 4.65958 -0.44731 0
M  V30 4597 H 433.765 6.4213 -0.870248 0
M  V30 4598 N 427.171 -0.0066808 1.57599 0
M  V30 4599 C 428.582 -0.550379 1.78403 0
M  V30 4600 C 428.933 -1.74339 0.900014 0
M  V30 4601 O 428.058 -2.16166 0.100713 0
M  V30 4602 C 428.653 -1.00523 3.23544 0
M  V30 4603 C 427.212 -1.49428 3.45468 0
M  V30 4604 C 426.359 -0.442444 2.73748 0
M  V30 4605 H 429.31 0.219508 1.57175 0
M  V30 4606 H 429.331 -1.87157 3.31289 0
M  V30 4607 H 428.843 -0.136735 3.87859 0
M  V30 4608 H 426.944 -2.3839 2.86358 0
M  V30 4609 H 427.057 -1.52635 4.54136 0
M  V30 4610 H 425.421 -0.902578 2.38171 0
M  V30 4611 H 426.204 0.416973 3.40758 0
M  V30 4612 N 428.649 -1.55105 -0.279332 0
M  V30 4613 C 429.897 -1.75066 -1.00977 0
M  V30 4614 C 430.218 -0.551276 -1.87045 0
M  V30 4615 O 429.488 0.433984 -1.91032 0
M  V30 4616 H 428.068 -0.645578 -0.375816 0
M  V30 4617 H 430.73 -1.92497 -0.305089 0
M  V30 4618 H 429.826 -2.64894 -1.65038 0
M  V30 4619 N 430.127 0.543554 -1.4793 0
M  V30 4620 C 431.404 1.30458 -1.4574 0
M  V30 4621 C 431.784 2.1048 -0.161692 0
M  V30 4622 O 431.132 2.11831 0.856734 0
M  V30 4623 C 431.342 2.19754 -2.71126 0
M  V30 4624 C 432.69 2.80334 -3.18901 0
M  V30 4625 O 433.714 2.30049 -2.71948 0
M  V30 4626 O 432.573 3.71766 -4.00565 0
M  V30 4627 H 429.667 0.588117 -0.581418 0
M  V30 4628 H 432.213 0.561328 -1.60147 0
M  V30 4629 H 430.985 1.60316 -3.56952 0
M  V30 4630 H 430.608 3.01351 -2.59371 0
M  V30 4631 N 431.605 1.3629 0.791371 0
M  V30 4632 C 432.553 1.30514 1.92533 0
M  V30 4633 C 433.547 0.197285 1.68247 0
M  V30 4634 O 434.753 0.364176 1.76278 0
M  V30 4635 H 431.128 0.406263 0.632815 0
M  V30 4636 H 433.099 2.26282 1.94523 0
M  V30 4637 C 431.848 1.10933 3.29529 0
M  V30 4638 H 431.171 1.95427 3.48781 0
M  V30 4639 H 432.611 1.10937 4.0923 0
M  V30 4640 C 431.07 -0.186123 3.36385 0
M  V30 4641 O 431.6 -1.17664 3.84081 0
M  V30 4642 N 429.806 -0.230128 2.89687 0
M  V30 4643 H 429.353 0.576545 2.51065 0
M  V30 4644 H 429.311 -1.09658 2.94657 0
M  V30 4645 N 433.083 -1.0153 1.20538 0
M  V30 4646 C 434.332 -1.74558 1.01057 0
M  V30 4647 C 434.645 -1.90168 -0.457756 0
M  V30 4648 O 435.851 -2.60301 -0.771722 0
M  V30 4649 C 434.307 -3.13963 1.75941 0
M  V30 4650 C 433.915 -3.06361 3.26875 0
M  V30 4651 C 435.659 -3.91191 1.64832 0
M  V30 4652 C 433.566 -4.40782 3.94291 0
M  V30 4653 H 432.496 -0.654417 0.374505 0
M  V30 4654 H 435.147 -1.13521 1.44171 0
M  V30 4655 H 433.529 -3.75549 1.25614 0
M  V30 4656 H 434.703 -2.54074 3.84425 0
M  V30 4657 H 433.018 -2.42625 3.38411 0
M  V30 4658 H 435.615 -4.90644 2.12539 0
M  V30 4659 H 435.958 -4.11884 0.604745 0
M  V30 4660 H 436.491 -3.36236 2.12579 0
M  V30 4661 H 433.23 -4.25292 4.98805 0
M  V30 4662 H 432.75 -4.9307 3.41529 0
M  V30 4663 H 434.429 -5.09621 3.98617 0
M  V30 4664 N 434.561 -1.01147 -1.20859 0
M  V30 4665 C 435.809 -0.696486 -1.89719 0
M  V30 4666 C 436.13 0.775788 -1.78904 0
M  V30 4667 O 435.4 1.55759 -1.18811 0
M  V30 4668 H 433.98 -0.254628 -0.702263 0
M  V30 4669 H 436.642 -1.28197 -1.46804 0
M  V30 4670 H 435.738 -0.975357 -2.96468 0
M  V30 4671 N 436.039 1.36541 -0.78704 0
M  V30 4672 C 437.286 1.99304 -0.358341 0
M  V30 4673 C 437.614 1.62467 1.06933 0
M  V30 4674 O 436.869 0.870019 1.75297 0
M  V30 4675 C 437.168 3.54343 -0.466485 0
M  V30 4676 C 436.834 4.10993 -1.85461 0
M  V30 4677 C 435.496 4.26177 -2.23443 0
M  V30 4678 C 437.848 4.41895 -2.76366 0
M  V30 4679 C 435.176 4.69573 -3.51736 0
M  V30 4680 C 437.528 4.86722 -4.04084 0
M  V30 4681 C 436.192 5.00112 -4.42091 0
M  V30 4682 H 435.462 0.729306 -0.131126 0
M  V30 4683 H 438.109 1.63068 -1.00404 0
M  V30 4684 H 436.414 3.90918 0.262719 0
M  V30 4685 H 438.111 4.00833 -0.115854 0
M  V30 4686 H 434.701 3.99612 -1.54946 0
M  V30 4687 H 438.885 4.29735 -2.48277 0
M  V30 4688 H 434.141 4.78127 -3.81057 0
M  V30 4689 H 438.315 5.09598 -4.7464 0
M  V30 4690 H 435.942 5.33498 -5.41557 0
M  V30 4691 N 437.518 0.538854 1.48102 0
M  V30 4692 C 438.466 -0.232325 2.31437 0
M  V30 4693 C 439.46 -0.927004 1.41785 0
M  V30 4694 O 440.666 -0.850378 1.58646 0
M  V30 4695 H 437.041 -0.0937916 0.746128 0
M  V30 4696 H 439.012 0.489986 2.9435 0
M  V30 4697 C 437.761 -1.26074 3.24038 0
M  V30 4698 H 437.084 -0.735609 3.92974 0
M  V30 4699 H 438.524 -1.77157 3.85216 0
M  V30 4700 C 436.983 -2.29902 2.46265 0
M  V30 4701 O 437.513 -3.36502 2.19384 0
M  V30 4702 N 435.719 -2.03348 2.07601 0
M  V30 4703 H 435.266 -1.16675 2.29662 0
M  V30 4704 H 435.224 -2.73038 1.55877 0
M  V30 4705 N 438.996 -1.55193 0.274407 0
M  V30 4706 C 440.242 -1.99877 -0.343086 0
M  V30 4707 C 440.575 -1.16256 -1.55558 0
M  V30 4708 O 439.85 -0.232462 -1.93106 0
M  V30 4709 C 440.133 -3.52706 -0.725965 0
M  V30 4710 C 439.986 -4.47081 0.493818 0
M  V30 4711 C 441.305 -4.11422 -1.56268 0
M  V30 4712 H 438.424 -0.726625 -0.123229 0
M  V30 4713 H 441.066 -1.86136 0.38121 0
M  V30 4714 H 439.216 -3.64546 -1.34307 0
M  V30 4715 H 440.888 -4.47186 1.13237 0
M  V30 4716 H 439.131 -4.1877 1.13201 0
M  V30 4717 H 439.802 -5.51699 0.18217 0
M  V30 4718 H 442.278 -4.02855 -1.04151 0
M  V30 4719 H 441.154 -5.18568 -1.79939 0
M  V30 4720 H 441.415 -3.61607 -2.54348 0
M  V30 4721 N 440.474 -0.00167713 -1.576 0
M  V30 4722 C 441.421 0.989195 -2.08527 0
M  V30 4723 C 442.391 1.34031 -0.981065 0
M  V30 4724 O 443.576 1.43839 -1.2536 0
M  V30 4725 C 440.716 2.27537 -2.59463 0
M  V30 4726 C 439.829 1.98314 -3.83791 0
M  V30 4727 C 438.964 3.21025 -4.23222 0
M  V30 4728 C 438.003 2.87495 -5.40382 0
M  V30 4729 N 437.14 4.02749 -5.75098 0
M  V30 4730 H 441.98 0.547973 -2.92919 0
M  V30 4731 H 439.517 0.258917 -1.44803 0
M  V30 4732 H 441.475 3.02729 -2.87073 0
M  V30 4733 H 440.105 2.69325 -1.77943 0
M  V30 4734 H 439.157 1.13482 -3.63078 0
M  V30 4735 H 440.469 1.69601 -4.69081 0
M  V30 4736 H 439.623 4.04561 -4.52123 0
M  V30 4737 H 438.362 3.52877 -3.36644 0
M  V30 4738 H 437.367 2.02367 -5.11202 0
M  V30 4739 H 438.592 2.56889 -6.28637 0
M  V30 4740 H 436.538 4.34494 -4.91478 0
M  V30 4741 H 436.455 3.77566 -6.54966 0
M  V30 4742 H 437.723 4.87068 -6.08592 0
M  V30 4743 N 441.952 1.55251 0.271103 0
M  V30 4744 C 442.9 1.89054 1.35504 0
M  V30 4745 C 443.894 0.767064 1.51038 0
M  V30 4746 O 445.1 0.951429 1.528 0
M  V30 4747 H 441.475 0.600072 0.45323 0
M  V30 4748 H 443.446 2.79598 1.04247 0
M  V30 4749 C 442.195 2.18068 2.70817 0
M  V30 4750 H 441.518 3.04005 2.59656 0
M  V30 4751 H 442.958 2.4564 3.45597 0
M  V30 4752 C 441.417 0.988901 3.2206 0
M  V30 4753 O 441.947 0.224501 4.01072 0
M  V30 4754 N 440.153 0.786085 2.79766 0
M  V30 4755 H 439.7 1.40937 2.15626 0
M  V30 4756 H 439.658 -0.00969349 3.14399 0
M  V30 4757 N 443.43 -0.535701 1.48216 0
M  V30 4758 C 444.676 -1.29375 1.56173 0
M  V30 4759 C 445.009 -1.92804 0.232429 0
M  V30 4760 O 444.284 -1.78992 -0.761048 0
M  V30 4761 C 444.567 -2.38747 2.69577 0
M  V30 4762 C 444.42 -1.80046 4.12193 0
M  V30 4763 C 445.739 -3.40551 2.78771 0
M  V30 4764 H 442.858 -0.469027 0.568491 0
M  V30 4765 H 445.5 -0.597358 1.80365 0
M  V30 4766 H 443.65 -2.98147 2.4908 0
M  V30 4767 H 445.322 -1.24742 4.44114 0
M  V30 4768 H 443.565 -1.10609 4.19462 0
M  V30 4769 H 444.236 -2.59212 4.87353 0
M  V30 4770 H 446.712 -2.91099 2.97322 0
M  V30 4771 H 445.588 -4.1448 3.59857 0
M  V30 4772 H 445.849 -4.00746 1.86696 0
M  V30 4773 N 444.908 -1.36708 -0.784132 0
M  V30 4774 C 446.133 -1.34565 -1.5782 0
M  V30 4775 C 446.558 0.0695257 -1.87971 0
M  V30 4776 O 445.916 1.04302 -1.48293 0
M  V30 4777 C 445.964 -2.17952 -2.87279 0
M  V30 4778 O 445.068 -1.57563 -3.81114 0
M  V30 4779 H 444.409 -0.460337 -0.478524 0
M  V30 4780 H 446.939 -1.80064 -0.971495 0
M  V30 4781 H 446.949 -2.30721 -3.365 0
M  V30 4782 H 445.624 -3.20823 -2.64661 0
M  V30 4783 H 444.201 -1.53764 -3.39722 0
M  V30 4784 N 446.386 1.0089 -1.21074 0
M  V30 4785 C 447.632 1.74866 -1.02712 0
M  V30 4786 C 447.965 1.89178 0.438787 0
M  V30 4787 O 447.24 1.42325 1.32567 0
M  V30 4788 C 447.523 3.16347 -1.72036 0
M  V30 4789 C 447.376 3.09782 -3.26121 0
M  V30 4790 C 448.695 4.15187 -1.45973 0
M  V30 4791 H 445.814 0.634736 -0.374539 0
M  V30 4792 H 448.456 1.17646 -1.49196 0
M  V30 4793 H 446.606 3.65201 -1.32517 0
M  V30 4794 H 448.278 2.68673 -3.74983 0
M  V30 4795 H 446.521 2.46982 -3.56626 0
M  V30 4796 H 447.192 4.09829 -3.6979 0
M  V30 4797 H 449.668 3.75022 -1.80272 0
M  V30 4798 H 448.544 5.12331 -1.96999 0
M  V30 4799 H 448.805 4.40386 -0.388924 0
M  V30 4800 N 447.864 1.01787 1.20321 0
M  V30 4801 C 448.811 0.589197 2.23153 0
M  V30 4802 C 449.781 -0.391367 1.61423 0
M  V30 4803 O 450.966 -0.290518 1.88575 0
M  V30 4804 C 448.106 -0.0650747 3.45039 0
M  V30 4805 C 447.219 0.960207 4.21194 0
M  V30 4806 C 446.354 0.276854 5.30478 0
M  V30 4807 C 445.393 1.2888 5.98378 0
M  V30 4808 N 444.53 0.632031 6.99249 0
M  V30 4809 H 449.37 1.47071 2.59179 0
M  V30 4810 H 446.907 0.736192 1.27352 0
M  V30 4811 H 448.865 -0.461552 4.14639 0
M  V30 4812 H 447.495 -0.910233 3.09701 0
M  V30 4813 H 446.547 1.47484 3.50646 0
M  V30 4814 H 447.859 1.72977 4.67847 0
M  V30 4815 H 447.013 -0.175056 6.06447 0
M  V30 4816 H 445.752 -0.525004 4.84866 0
M  V30 4817 H 444.757 1.75109 5.21169 0
M  V30 4818 H 445.982 2.09196 6.46076 0
M  V30 4819 H 443.928 -0.149935 6.55829 0
M  V30 4820 H 443.845 1.33964 7.44036 0
M  V30 4821 H 445.113 0.203755 7.79234 0
M  V30 4822 N 449.342 -1.36122 0.79427 0
M  V30 4823 C 450.252 -2.33769 0.197296 0
M  V30 4824 C 451.268 -1.61276 -0.653153 0
M  V30 4825 O 452.444 -1.9323 -0.5678 0
M  V30 4826 C 449.509 -3.40474 -0.654098 0
M  V30 4827 C 448.57 -4.28759 0.215411 0
M  V30 4828 C 447.803 -5.30368 -0.595443 0
M  V30 4829 O 448.026 -5.40211 -1.83107 0
M  V30 4830 O 446.96 -6.019 0.00721351 0
M  V30 4831 H 450.786 -2.86597 1.00478 0
M  V30 4832 H 448.371 -1.38676 0.555818 0
M  V30 4833 H 450.253 -4.05703 -1.13944 0
M  V30 4834 H 448.928 -2.89937 -1.43938 0
M  V30 4835 H 447.835 -3.66554 0.747615 0
M  V30 4836 H 449.168 -4.82661 0.964332 0
M  V30 4837 N 450.82 -0.546701 -1.47814 0
M  V30 4838 C 452.069 -0.0166497 -2.01693 0
M  V30 4839 C 452.382 1.33721 -1.42752 0
M  V30 4840 O 453.588 1.95658 -1.8823 0
M  V30 4841 C 452.044 0.0206769 -3.59894 0
M  V30 4842 C 451.652 -1.3293 -4.27824 0
M  V30 4843 C 453.396 0.498674 -4.21561 0
M  V30 4844 C 451.303 -1.25165 -5.78003 0
M  V30 4845 H 450.233 -0.0024541 -0.753996 0
M  V30 4846 H 452.884 -0.692984 -1.69912 0
M  V30 4847 H 451.266 0.76244 -3.88591 0
M  V30 4848 H 452.44 -2.08795 -4.10781 0
M  V30 4849 H 450.755 -1.74438 -3.78101 0
M  V30 4850 H 453.352 0.575 -5.31599 0
M  V30 4851 H 453.695 1.5083 -3.88016 0
M  V30 4852 H 454.228 -0.18791 -3.97356 0
M  V30 4853 H 450.967 -2.23695 -6.1615 0
M  V30 4854 H 450.487 -0.53464 -5.97412 0
M  V30 4855 H 452.166 -0.949299 -6.39998 0
M  V30 4856 N 452.299 1.55045 -0.282633 0
M  V30 4857 C 453.246 2.22822 0.601566 0
M  V30 4858 C 454.216 1.20431 1.14392 0
M  V30 4859 O 455.401 1.48996 1.19184 0
M  V30 4860 C 452.541 2.95873 1.77632 0
M  V30 4861 C 451.654 4.12999 1.26711 0
M  V30 4862 C 450.789 4.73676 2.40426 0
M  V30 4863 C 449.828 5.82981 1.86545 0
M  V30 4864 N 448.965 6.3769 2.93762 0
M  V30 4865 H 453.805 2.97995 0.0169528 0
M  V30 4866 H 451.342 1.471 -0.00339964 0
M  V30 4867 H 453.3 3.36447 2.46697 0
M  V30 4868 H 451.93 2.2311 2.33285 0
M  V30 4869 H 450.982 3.77494 0.469314 0
M  V30 4870 H 452.294 4.91803 0.832518 0
M  V30 4871 H 451.448 5.17008 3.17471 0
M  V30 4872 H 450.187 3.94164 2.87203 0
M  V30 4873 H 449.192 5.39092 1.07983 0
M  V30 4874 H 450.417 6.64366 1.40694 0
M  V30 4875 H 448.363 5.61069 3.39908 0
M  V30 4876 H 448.28 7.11788 2.54744 0
M  V30 4877 H 449.548 6.8568 3.7076 0
M  V30 4878 N 453.777 0.010035 1.57597 0
M  V30 4879 C 455.193 -0.346164 1.55801 0
M  V30 4880 C 455.393 -1.74144 1.01371 0
M  V30 4881 O 454.449 -2.43938 0.651968 0
M  V30 4882 C 455.762 -0.212216 2.9995 0
M  V30 4883 C 457.31 -0.286409 3.11687 0
M  V30 4884 C 457.785 -0.18147 4.5764 0
M  V30 4885 N 459.276 -0.239056 4.62583 0
M  V30 4886 C 460.011 -0.181351 5.73113 0
M  V30 4887 N 459.507 -0.073661 6.92761 0
M  V30 4888 N 461.3 -0.233949 5.61613 0
M  V30 4889 H 453.451 0.922657 1.91313 0
M  V30 4890 H 455.714 0.354595 0.879185 0
M  V30 4891 H 455.42 0.748169 3.4365 0
M  V30 4892 H 455.294 -0.990224 3.6397 0
M  V30 4893 H 457.681 -1.23724 2.67911 0
M  V30 4894 H 457.762 0.521645 2.50425 0
M  V30 4895 H 457.406 0.765863 5.02093 0
M  V30 4896 H 457.336 -1.00814 5.1686 0
M  V30 4897 H 459.827 -0.32321 3.76515 0
M  V30 4898 H 460.14 -0.0358003 7.72792 0
M  V30 4899 H 458.485 -0.0391461 6.94989 0
M  V30 4900 H 461.676 -0.316347 4.6703 0
M  V30 4901 H 461.849 -0.185514 6.47734 0
M  V30 4902 N 455.255 -1.55392 -0.262866 0
M  V30 4903 C 456.503 -1.76127 -0.991147 0
M  V30 4904 C 456.824 -0.571083 -1.8645 0
M  V30 4905 O 456.094 0.413698 -1.91482 0
M  V30 4906 H 454.674 -0.649528 -0.368948 0
M  V30 4907 H 457.336 -1.9281 -0.284655 0
M  V30 4908 H 456.432 -2.6663 -1.62219 0
M  V30 4909 N 456.733 0.527833 -1.48498 0
M  V30 4910 C 457.963 1.30633 -1.60058 0
M  V30 4911 C 458.371 1.87394 -0.260786 0
M  V30 4912 O 457.714 1.67227 0.760317 0
M  V30 4913 C 457.776 2.49361 -2.58958 0
M  V30 4914 C 457.44 2.13671 -4.03972 0
M  V30 4915 C 458.437 1.69217 -4.91591 0
M  V30 4916 C 456.122 2.24129 -4.49524 0
M  V30 4917 C 458.116 1.35689 -6.2279 0
M  V30 4918 C 455.803 1.90212 -5.80743 0
M  V30 4919 C 456.801 1.46063 -6.67199 0
M  V30 4920 O 456.489 1.12593 -7.95976 0
M  V30 4921 H 456.221 0.403444 -0.54241 0
M  V30 4922 H 458.775 0.643233 -1.95068 0
M  V30 4923 H 457.005 3.18659 -2.19073 0
M  V30 4924 H 458.694 3.11421 -2.6033 0
M  V30 4925 H 459.46 1.60607 -4.57636 0
M  V30 4926 H 455.339 2.57447 -3.82416 0
M  V30 4927 H 458.883 1.01157 -6.90227 0
M  V30 4928 H 454.78 1.98464 -6.14233 0
M  V30 4929 H 455.548 1.25972 -8.08748 0
M  V30 4930 N 458.211 1.37122 0.776871 0
M  V30 4931 C 459.457 1.32243 1.53752 0
M  V30 4932 C 459.79 -0.0944745 1.9397 0
M  V30 4933 O 459.065 -1.05068 1.6368 0
M  V30 4934 C 459.348 2.25681 2.80607 0
M  V30 4935 C 459.201 3.76127 2.46676 0
M  V30 4936 C 460.52 2.17657 3.82509 0
M  V30 4937 H 457.639 0.481704 0.557791 0
M  V30 4938 H 460.281 1.6778 0.891612 0
M  V30 4939 H 458.431 1.95505 3.35723 0
M  V30 4940 H 460.103 4.16877 1.97513 0
M  V30 4941 H 458.346 3.94946 1.79443 0
M  V30 4942 H 459.017 4.36933 3.37333 0
M  V30 4943 H 461.493 2.44245 3.36873 0
M  V30 4944 H 460.369 2.85185 4.69 0
M  V30 4945 H 460.63 1.16785 4.26396 0
M  V30 4946 N 459.689 -1.00246 1.21608 0
M  V30 4947 C 460.652 -2.07233 0.979133 0
M  V30 4948 C 461.652 -1.6072 -0.0508219 0
M  V30 4949 O 462.842 -1.73196 0.186712 0
M  V30 4950 C 459.974 -3.37546 0.477016 0
M  V30 4951 H 461.167 -2.29687 1.92831 0
M  V30 4952 H 458.72 -1.17261 1.03342 0
M  V30 4953 H 459.455 -3.20773 -0.476966 0
M  V30 4954 H 459.24 -3.72638 1.21997 0
M  V30 4955 H 460.73 -4.16285 0.331181 0
M  V30 4956 N 461.167 -1.02423 -1.1978 0
M  V30 4957 C 462.392 -0.7373 -1.93852 0
M  V30 4958 C 462.817 0.696923 -1.74713 0
M  V30 4959 O 462.175 1.48056 -1.04638 0
M  V30 4960 C 462.223 -1.08783 -3.438 0
M  V30 4961 O 461.327 -0.20383 -4.11896 0
M  V30 4962 H 460.668 -0.27284 -0.605355 0
M  V30 4963 H 463.198 -1.36966 -1.51992 0
M  V30 4964 H 463.208 -1.04276 -3.9445 0
M  V30 4965 H 461.883 -2.13274 -3.57053 0
M  V30 4966 H 460.46 -0.307091 -3.71633 0
M  V30 4967 N 462.645 1.35699 -0.801477 0
M  V30 4968 C 463.922 1.9324 -0.302937 0
M  V30 4969 C 464.302 1.73209 1.20672 0
M  V30 4970 O 463.65 1.09809 2.00385 0
M  V30 4971 C 463.86 3.41728 -0.708747 0
M  V30 4972 C 465.208 4.18868 -0.695328 0
M  V30 4973 O 466.232 3.5022 -0.649971 0
M  V30 4974 O 465.091 5.41342 -0.749081 0
M  V30 4975 H 462.185 0.82331 -0.0780367 0
M  V30 4976 H 464.731 1.44806 -0.884832 0
M  V30 4977 H 463.503 3.50015 -1.74944 0
M  V30 4978 H 463.126 3.97471 -0.101384 0
M  V30 4979 N 464.123 0.554532 1.47522 0
M  V30 4980 C 465.351 0.034257 2.06872 0
M  V30 4981 C 465.766 -1.25826 1.40759 0
M  V30 4982 O 465.123 -1.75425 0.503217 0
M  V30 4983 C 465.174 -0.167827 3.6111 0
M  V30 4984 O 464.895 1.07351 4.24744 0
M  V30 4985 C 466.396 -0.72569 4.3732 0
M  V30 4986 H 463.616 0.0446275 0.669514 0
M  V30 4987 H 466.16 0.767181 1.89564 0
M  V30 4988 H 464.315 -0.850872 3.7794 0
M  V30 4989 H 464.729 0.869563 5.17242 0
M  V30 4990 H 466.203 -0.816394 5.45929 0
M  V30 4991 H 466.68 -1.73635 4.0342 0
M  V30 4992 H 467.286 -0.0784292 4.25228 0
M  V30 4993 N 465.601 -1.54893 0.290851 0
M  V30 4994 C 466.548 -2.23138 -0.58974 0
M  V30 4995 C 467.518 -1.21036 -1.13752 0
M  V30 4996 O 468.703 -1.49626 -1.18392 0
M  V30 4997 C 465.843 -2.96811 -1.76061 0
M  V30 4998 C 464.956 -4.13665 -1.24519 0
M  V30 4999 C 464.091 -4.74944 -2.3791 0
M  V30 5000 C 463.13 -5.83963 -1.83451 0
M  V30 5001 N 462.267 -6.39239 -2.90376 0
M  V30 5002 H 467.107 -2.98 -0.00114915 0
M  V30 5003 H 464.644 -1.47096 0.0112006 0
M  V30 5004 H 466.602 -3.37751 -2.44909 0
M  V30 5005 H 465.232 -2.24344 -2.32098 0
M  V30 5006 H 464.284 -3.77737 -0.449288 0
M  V30 5007 H 465.596 -4.92238 -0.806424 0
M  V30 5008 H 464.75 -5.18684 -3.14724 0
M  V30 5009 H 463.489 -3.95682 -2.85109 0
M  V30 5010 H 462.494 -5.39657 -1.05122 0
M  V30 5011 H 463.719 -6.65103 -1.37169 0
M  V30 5012 H 461.665 -5.62864 -3.36927 0
M  V30 5013 H 461.582 -7.13129 -2.50965 0
M  V30 5014 H 462.85 -6.87637 -3.67118 0
M  V30 5015 N 467.08 -0.0183926 -1.57589 0
M  V30 5016 C 468.028 0.985111 -2.10709 0
M  V30 5017 C 469.022 1.34397 -1.0312 0
M  V30 5018 O 470.228 1.32746 -1.21567 0
M  V30 5019 H 466.603 0.335418 -0.673052 0
M  V30 5020 H 468.574 0.511689 -2.9398 0
M  V30 5021 C 467.323 2.26202 -2.64061 0
M  V30 5022 H 466.646 1.9946 -3.4649 0
M  V30 5023 H 468.086 2.94652 -3.04887 0
M  V30 5024 C 466.545 2.98444 -1.5631 0
M  V30 5025 O 467.075 3.90142 -0.956674 0
M  V30 5026 N 465.281 2.6059 -1.28612 0
M  V30 5027 H 464.828 1.86101 -1.78112 0
M  V30 5028 H 464.786 3.09238 -0.567406 0
M  V30 5029 N 468.558 1.5553 0.254621 0
M  V30 5030 C 469.468 1.92789 1.33677 0
M  V30 5031 C 470.484 0.827356 1.53071 0
M  V30 5032 O 471.66 1.12807 1.66843 0
M  V30 5033 C 468.725 2.20827 2.67275 0
M  V30 5034 C 467.786 3.4427 2.5647 0
M  V30 5035 C 467.019 3.70961 3.83697 0
M  V30 5036 O 467.242 2.99852 4.85227 0
M  V30 5037 O 466.176 4.64491 3.82794 0
M  V30 5038 H 470.002 2.84945 1.05071 0
M  V30 5039 H 467.587 1.42312 0.454723 0
M  V30 5040 H 469.469 2.40204 3.46237 0
M  V30 5041 H 468.144 1.31851 2.9563 0
M  V30 5042 H 467.051 3.30209 1.75821 0
M  V30 5043 H 468.384 4.33524 2.33062 0
M  V30 5044 N 470.036 -0.519951 1.48776 0
M  V30 5045 C 471.447 -1.10177 1.50725 0
M  V30 5046 C 471.798 -1.94153 0.282678 0
M  V30 5047 O 470.923 -2.07645 -0.609298 0
M  V30 5048 C 471.518 -2.00482 2.73116 0
M  V30 5049 C 470.077 -2.53862 2.77905 0
M  V30 5050 C 469.224 -1.31047 2.44381 0
M  V30 5051 H 472.175 -0.30473 1.55747 0
M  V30 5052 H 472.196 -2.8491 2.52203 0
M  V30 5053 H 471.708 -1.39335 3.62225 0
M  V30 5054 H 469.809 -3.18702 1.93029 0
M  V30 5055 H 469.922 -2.9231 3.79594 0
M  V30 5056 H 468.286 -1.62953 1.95751 0
M  V30 5057 H 469.069 -0.71637 3.35743 0
M  V30 5058 N 471.514 -1.37532 -0.769588 0
M  V30 5059 C 472.477 -1.33292 -1.86456 0
M  V30 5060 C 473.477 -0.236537 -1.59051 0
M  V30 5061 O 474.667 -0.492511 -1.67093 0
M  V30 5062 C 471.799 -1.07118 -3.23633 0
M  V30 5063 H 472.992 -2.30692 -1.91628 0
M  V30 5064 H 470.545 -1.22593 -0.969572 0
M  V30 5065 H 471.28 -0.102578 -3.24138 0
M  V30 5066 H 471.065 -1.86479 -3.44917 0
M  V30 5067 H 472.555 -1.06806 -4.03711 0
M  V30 5068 N 472.992 0.995999 -1.22138 0
M  V30 5069 C 473.939 2.08551 -0.988687 0
M  V30 5070 C 474.909 1.65864 0.0885021 0
M  V30 5071 O 476.094 1.90704 -0.0604589 0
M  V30 5072 C 473.234 3.40374 -0.569191 0
M  V30 5073 C 472.347 3.96421 -1.71681 0
M  V30 5074 C 471.482 5.1639 -1.2456 0
M  V30 5075 C 470.521 5.64567 -2.36497 0
M  V30 5076 N 469.658 6.75777 -1.90445 0
M  V30 5077 H 474.498 2.2779 -1.92135 0
M  V30 5078 H 472.035 1.1168 -0.957388 0
M  V30 5079 H 473.993 4.16068 -0.307166 0
M  V30 5080 H 472.623 3.21145 0.326462 0
M  V30 5081 H 471.675 3.17628 -2.09324 0
M  V30 5082 H 472.987 4.2816 -2.55891 0
M  V30 5083 H 472.141 5.99362 -0.940774 0
M  V30 5084 H 470.88 4.86266 -0.373662 0
M  V30 5085 H 469.885 4.80185 -2.67772 0
M  V30 5086 H 471.11 5.96716 -3.24202 0
M  V30 5087 H 469.056 6.47443 -1.05609 0
M  V30 5088 H 468.973 7.06818 -2.68223 0
M  V30 5089 H 470.241 7.62262 -1.63022 0
M  V30 5090 N 474.47 1.03057 1.19235 0
M  V30 5091 C 475.718 0.726581 1.88587 0
M  V30 5092 C 476.039 -0.747227 1.80115 0
M  V30 5093 O 475.309 -1.53849 1.21274 0
M  V30 5094 H 473.889 0.265768 0.698124 0
M  V30 5095 H 476.551 1.30516 1.44746 0
M  V30 5096 H 475.647 1.0224 2.94879 0
M  V30 5097 N 475.948 -1.35272 0.808662 0
M  V30 5098 C 477.188 -2.00534 0.395668 0
M  V30 5099 C 477.552 -1.62755 -1.01857 0
M  V30 5100 O 478.753 -2.20752 -1.53368 0
M  V30 5101 C 477.024 -3.52732 0.575771 0
M  V30 5102 S 478.583 -4.38067 0.253507 0
M  V30 5103 H 475.401 -0.694962 0.150165 0
M  V30 5104 H 478.003 -1.64823 1.05137 0
M  V30 5105 H 476.707 -3.77714 1.60499 0
M  V30 5106 H 476.238 -3.93285 -0.0951739 0
M  V30 5107 H 478.253 -4.87252 -0.938068 0
M  V30 5108 N 477.426 -0.562348 -1.47226 0
M  V30 5109 C 478.651 -0.0432632 -2.07355 0
M  V30 5110 C 479.076 1.24332 -1.41149 0
M  V30 5111 O 478.434 1.74603 -0.488226 0
M  V30 5112 C 478.482 0.130288 -3.60365 0
M  V30 5113 O 477.586 1.19166 -3.94808 0
M  V30 5114 H 476.927 -0.0536334 -0.66183 0
M  V30 5115 H 479.457 -0.779495 -1.89169 0
M  V30 5116 H 479.467 0.342881 -4.06557 0
M  V30 5117 H 478.142 -0.809389 -4.07948 0
M  V30 5118 H 476.719 0.959153 -3.60354 0
M  V30 5119 N 478.904 1.54736 -0.299062 0
M  V30 5120 C 479.851 2.23448 0.577899 0
M  V30 5121 C 480.821 1.21637 1.13109 0
M  V30 5122 O 482.006 1.50252 1.17597 0
M  V30 5123 C 479.146 2.9774 1.74484 0
M  V30 5124 C 478.259 4.1432 1.22323 0
M  V30 5125 C 477.394 4.76199 2.35388 0
M  V30 5126 C 476.433 5.84927 1.80351 0
M  V30 5127 N 475.57 6.4077 2.86982 0
M  V30 5128 H 480.41 2.97996 -0.0146545 0
M  V30 5129 H 477.947 1.47088 -0.0190013 0
M  V30 5130 H 479.905 3.39045 2.43114 0
M  V30 5131 H 478.535 2.25572 2.30905 0
M  V30 5132 H 477.587 3.7797 0.429249 0
M  V30 5133 H 478.899 4.92659 0.780309 0
M  V30 5134 H 478.053 5.20346 3.11969 0
M  V30 5135 H 476.792 3.97188 2.83006 0
M  V30 5136 H 475.797 5.40207 1.02259 0
M  V30 5137 H 477.022 6.65821 1.3364 0
M  V30 5138 H 474.968 5.64643 3.33938 0
M  V30 5139 H 474.885 7.1445 2.4718 0
M  V30 5140 H 476.153 6.89574 3.63466 0
M  V30 5141 N 480.382 0.0267497 1.57577 0
M  V30 5142 C 481.629 -0.652404 1.91703 0
M  V30 5143 C 481.957 -1.72271 0.902936 0
M  V30 5144 O 481.212 -1.955 -0.0884843 0
M  V30 5145 C 481.511 -1.30914 3.3256 0
M  V30 5146 C 481.177 -0.369441 4.49384 0
M  V30 5147 C 479.839 -0.110791 4.81072 0
M  V30 5148 C 482.191 0.275971 5.20469 0
M  V30 5149 C 479.519 0.801116 5.81205 0
M  V30 5150 C 481.871 1.17592 6.21575 0
M  V30 5151 C 480.535 1.44348 6.51705 0
M  V30 5152 H 479.805 -0.238732 0.70149 0
M  V30 5153 H 482.452 0.0880091 1.91298 0
M  V30 5154 H 480.757 -2.12425 3.29216 0
M  V30 5155 H 482.454 -1.84115 3.56234 0
M  V30 5156 H 479.044 -0.581211 4.24641 0
M  V30 5157 H 483.228 0.0892 4.9622 0
M  V30 5158 H 478.484 1.01614 6.02897 0
M  V30 5159 H 482.658 1.68223 6.75777 0
M  V30 5160 H 480.285 2.15176 7.29111 0
M  V30 5161 N 481.861 -1.55662 -0.24637 0
M  V30 5162 C 483.089 -1.81575 -0.991876 0
M  V30 5163 C 483.504 -0.602545 -1.78927 0
M  V30 5164 O 482.861 0.428795 -1.77391 0
M  V30 5165 C 482.912 -3.05711 -1.92933 0
M  V30 5166 O 482.633 -4.22348 -1.1642 0
M  V30 5167 C 484.134 -3.44428 -2.79078 0
M  V30 5168 H 481.354 -0.604209 -0.291844 0
M  V30 5169 H 483.898 -2.02722 -0.269095 0
M  V30 5170 H 482.053 -2.86612 -2.60638 0
M  V30 5171 H 482.467 -4.92706 -1.79835 0
M  V30 5172 H 483.941 -4.34388 -3.40603 0
M  V30 5173 H 484.418 -2.65037 -3.50217 0
M  V30 5174 H 485.024 -3.65879 -2.16824 0
M  V30 5175 N 483.339 0.512053 -1.4905 0
M  V30 5176 C 484.302 1.59704 -1.64399 0
M  V30 5177 C 485.302 1.52285 -0.516317 0
M  V30 5178 O 486.492 1.55635 -0.782527 0
M  V30 5179 C 483.624 2.9935 -1.63102 0
M  V30 5180 H 484.817 1.47428 -2.61161 0
M  V30 5181 H 482.37 0.735469 -1.37915 0
M  V30 5182 H 483.105 3.17116 -0.678836 0
M  V30 5183 H 482.89 3.06144 -2.44986 0
M  V30 5184 H 484.38 3.782 -1.77072 0
M  V30 5185 N 484.817 1.37938 0.762283 0
M  V30 5186 C 485.749 1.30349 1.88525 0
M  V30 5187 C 486.762 0.217402 1.61342 0
M  V30 5188 O 487.951 0.474291 1.72084 0
M  V30 5189 C 485.051 0.994844 3.23969 0
M  V30 5190 C 484.224 2.18829 3.78725 0
M  V30 5191 C 483.283 1.84844 4.92665 0
M  V30 5192 O 482.309 2.57244 5.07754 0
M  V30 5193 N 483.511 0.798201 5.74986 0
M  V30 5194 H 486.276 2.27114 1.95549 0
M  V30 5195 H 483.837 1.31686 0.941825 0
M  V30 5196 H 485.829 0.748168 3.97724 0
M  V30 5197 H 484.399 0.115446 3.12387 0
M  V30 5198 H 483.619 2.59615 2.96637 0
M  V30 5199 H 484.907 2.98497 4.1204 0
M  V30 5200 H 484.305 0.197611 5.65355 0
M  V30 5201 H 482.862 0.611396 6.48926 0
M  V30 5202 N 486.295 -0.989507 1.22664 0
M  V30 5203 C 487.541 -1.7321 1.05481 0
M  V30 5204 C 487.874 -1.89852 -0.408635 0
M  V30 5205 O 487.149 -1.44416 -1.30285 0
M  V30 5206 C 487.432 -3.1357 1.77047 0
M  V30 5207 C 487.285 -3.04555 3.31008 0
M  V30 5208 C 488.604 -4.12812 1.5256 0
M  V30 5209 H 485.723 -0.628697 0.384589 0
M  V30 5210 H 488.365 -1.15258 1.51049 0
M  V30 5211 H 486.515 -3.63046 1.3831 0
M  V30 5212 H 488.187 -2.62674 3.7921 0
M  V30 5213 H 486.43 -2.41278 3.6051 0
M  V30 5214 H 487.101 -4.03894 3.76263 0
M  V30 5215 H 489.577 -3.72106 1.86215 0
M  V30 5216 H 488.453 -5.09132 2.05124 0
M  V30 5217 H 488.714 -4.39711 0.458936 0
M  V30 5218 N 487.773 -1.03688 -1.18687 0
M  V30 5219 C 489.022 -0.733235 -1.879 0
M  V30 5220 C 489.335 0.741745 -1.8099 0
M  V30 5221 O 490.541 1.15875 -2.4553 0
M  V30 5222 C 488.997 -1.26127 -3.37076 0
M  V30 5223 C 488.605 -2.76461 -3.52524 0
M  V30 5224 C 490.349 -1.03398 -4.11715 0
M  V30 5225 C 488.256 -3.22642 -4.95637 0
M  V30 5226 H 487.186 -0.270584 -0.703776 0
M  V30 5227 H 489.837 -1.25222 -1.34133 0
M  V30 5228 H 488.219 -0.670165 -3.90288 0
M  V30 5229 H 489.393 -3.41296 -3.09602 0
M  V30 5230 H 487.708 -2.97559 -2.91286 0
M  V30 5231 H 490.305 -1.3542 -5.17267 0
M  V30 5232 H 490.648 0.0289246 -4.1629 0
M  V30 5233 H 491.181 -1.5895 -3.64664 0
M  V30 5234 H 487.92 -4.28296 -4.96228 0
M  V30 5235 H 487.44 -2.62539 -5.39289 0
M  V30 5236 H 489.119 -3.16444 -5.64333 0
M  V30 5237 N 489.251 1.34841 -0.815825 0
M  V30 5238 C 490.5 1.97755 -0.396976 0
M  V30 5239 C 490.813 1.65422 1.04379 0
M  V30 5240 O 492.019 2.21771 1.5662 0
M  V30 5241 C 490.475 3.53818 -0.658869 0
M  V30 5242 C 490.083 3.95051 -2.11278 0
M  V30 5243 C 491.827 4.23397 -0.305834 0
M  V30 5244 C 489.734 5.43997 -2.31994 0
M  V30 5245 H 488.664 0.739985 -0.1447 0
M  V30 5246 H 491.315 1.53781 -1.00118 0
M  V30 5247 H 489.697 3.95997 0.0154112 0
M  V30 5248 H 490.871 3.63998 -2.82564 0
M  V30 5249 H 489.186 3.38388 -2.42657 0
M  V30 5250 H 491.783 5.32899 -0.43854 0
M  V30 5251 H 492.126 4.09508 0.748952 0
M  V30 5252 H 492.659 3.8667 -0.934403 0
M  V30 5253 H 489.398 5.62865 -3.35952 0
M  V30 5254 H 488.918 5.76589 -1.65244 0
M  V30 5255 H 490.597 6.10584 -2.14001 0
M  V30 5256 N 490.729 0.570148 1.46925 0
M  V30 5257 C 491.659 -0.158274 2.32963 0
M  V30 5258 C 492.64 -0.896093 1.44583 0
M  V30 5259 O 493.825 -0.874022 1.7342 0
M  V30 5260 C 490.955 -1.18055 3.26619 0
M  V30 5261 C 489.909 -0.558379 4.24342 0
M  V30 5262 C 489.235 -1.68623 5.07415 0
M  V30 5263 C 490.535 0.496295 5.19937 0
M  V30 5264 H 492.229 0.560046 2.94115 0
M  V30 5265 H 489.775 0.270775 1.41431 0
M  V30 5266 H 491.728 -1.69841 3.85658 0
M  V30 5267 H 490.452 -1.92899 2.63548 0
M  V30 5268 H 489.111 -0.0617157 3.66548 0
M  V30 5269 H 488.759 -2.42402 4.40738 0
M  V30 5270 H 488.459 -1.27564 5.73586 0
M  V30 5271 H 489.983 -2.20709 5.69315 0
M  V30 5272 H 491.397 0.0640052 5.73264 0
M  V30 5273 H 489.794 0.82649 5.94381 0
M  V30 5274 H 490.864 1.38735 4.6463 0
M  V30 5275 N 492.207 -1.54576 0.307264 0
M  V30 5276 C 493.155 -2.25208 -0.581723 0
M  V30 5277 C 494.149 -1.26031 -1.13192 0
M  V30 5278 O 495.355 -1.43862 -1.08184 0
M  V30 5279 H 491.73 -0.723173 -0.206214 0
M  V30 5280 H 493.701 -2.98378 0.0364663 0
M  V30 5281 C 492.45 -3.01086 -1.73904 0
M  V30 5282 H 491.773 -3.77208 -1.32491 0
M  V30 5283 H 493.213 -3.5378 -2.33701 0
M  V30 5284 C 491.672 -2.08422 -2.64692 0
M  V30 5285 O 492.202 -1.65636 -3.65961 0
M  V30 5286 N 490.408 -1.74247 -2.32564 0
M  V30 5287 H 489.955 -2.09238 -1.50257 0
M  V30 5288 H 489.913 -1.12524 -2.93574 0
M  V30 5289 N 493.685 -0.035106 -1.57561 0
M  V30 5290 C 494.635 0.954034 -2.0708 0
M  V30 5291 C 495.619 1.2818 -0.972558 0
M  V30 5292 O 496.811 1.26691 -1.23606 0
M  V30 5293 C 493.94 2.23442 -2.60631 0
M  V30 5294 C 493.026 1.93475 -3.77396 0
M  V30 5295 N 493.417 1.33802 -4.87781 0
M  V30 5296 C 491.715 2.23434 -3.85996 0
M  V30 5297 C 492.416 1.21103 -5.68954 0
M  V30 5298 N 491.392 1.70855 -5.16052 0
M  V30 5299 H 495.194 0.487731 -2.89825 0
M  V30 5300 H 492.708 0.169759 -1.6151 0
M  V30 5301 H 494.705 2.95183 -2.94402 0
M  V30 5302 H 493.365 2.70693 -1.79319 0
M  V30 5303 H 494.376 1.01227 -5.07911 0
M  V30 5304 H 491.053 2.73317 -3.15601 0
M  V30 5305 H 492.443 0.749105 -6.67711 0
M  V30 5306 N 495.163 1.55791 0.238111 0
M  V30 5307 C 496.574 1.68383 0.806472 0
M  V30 5308 C 496.925 0.634157 1.85669 0
M  V30 5309 O 496.05 -0.217913 2.153 0
M  V30 5310 C 496.645 3.05268 1.46959 0
M  V30 5311 C 495.204 3.1977 1.98555 0
M  V30 5312 C 494.351 2.64279 0.839763 0
M  V30 5313 H 497.302 1.58694 0.0137535 0
M  V30 5314 H 497.323 3.00203 2.33792 0
M  V30 5315 H 496.835 3.81643 0.704993 0
M  V30 5316 H 494.936 2.48234 2.77868 0
M  V30 5317 H 495.049 4.26788 2.17689 0
M  V30 5318 H 493.413 2.22329 1.24265 0
M  V30 5319 H 494.196 3.43187 0.0881032 0
M  V30 5320 N 496.642 -0.504142 1.49319 0
M  V30 5321 C 497.89 -1.25598 1.58334 0
M  V30 5322 C 498.211 -1.93114 0.270538 0
M  V30 5323 O 497.481 -1.82585 -0.709891 0
M  V30 5324 H 496.061 -0.466571 0.58337 0
M  V30 5325 H 498.723 -0.584547 1.85928 0
M  V30 5326 H 497.819 -2.02159 2.37778 0
M  V30 5327 N 498.12 -1.38341 -0.754957 0
M  V30 5328 C 499.03 -1.3769 -1.89944 0
M  V30 5329 C 500.046 -0.274194 -1.71826 0
M  V30 5330 O 501.222 -0.512391 -1.94773 0
M  V30 5331 C 498.287 -1.19938 -3.25293 0
M  V30 5332 C 497.348 -2.40001 -3.55946 0
M  V30 5333 C 496.581 -2.23087 -4.84838 0
M  V30 5334 O 496.804 -1.22386 -5.57116 0
M  V30 5335 O 495.738 -3.11646 -5.14937 0
M  V30 5336 H 499.564 -2.3412 -1.93446 0
M  V30 5337 H 497.149 -1.19246 -0.900044 0
M  V30 5338 H 499.031 -1.12093 -4.06218 0
M  V30 5339 H 497.706 -0.265919 -3.22606 0
M  V30 5340 H 496.613 -2.53421 -2.75188 0
M  V30 5341 H 497.946 -3.31973 -3.63394 0
M  V30 5342 N 499.598 0.982988 -1.23187 0
M  V30 5343 C 500.847 1.71817 -1.05649 0
M  V30 5344 C 501.16 1.91315 0.407176 0
M  V30 5345 O 502.366 2.62256 0.702436 0
M  V30 5346 C 500.822 3.09188 -1.84203 0
M  V30 5347 C 500.43 2.97586 -3.34882 0
M  V30 5348 C 502.174 3.86684 -1.75146 0
M  V30 5349 C 500.081 4.30173 -4.05839 0
M  V30 5350 H 499.011 0.644258 -0.391724 0
M  V30 5351 H 501.662 1.09659 -1.4713 0
M  V30 5352 H 500.044 3.72087 -1.35527 0
M  V30 5353 H 501.218 2.43793 -3.91026 0
M  V30 5354 H 499.533 2.33567 -3.44725 0
M  V30 5355 H 502.13 4.84836 -2.25473 0
M  V30 5356 H 502.473 4.10136 -0.713737 0
M  V30 5357 H 503.006 3.30482 -2.21419 0
M  V30 5358 H 499.745 4.11918 -5.09906 0
M  V30 5359 H 499.265 4.83841 -3.54482 0
M  V30 5360 H 500.944 4.98873 -4.11989 0
M  V30 5361 N 501.076 1.04316 1.18135 0
M  V30 5362 C 502.023 0.636398 2.21853 0
M  V30 5363 C 502.993 -0.357039 1.62217 0
M  V30 5364 O 504.178 -0.250453 1.89149 0
M  V30 5365 C 501.318 0.00812779 3.45099 0
M  V30 5366 C 500.431 1.04933 4.19062 0
M  V30 5367 C 499.566 0.389313 5.29771 0
M  V30 5368 C 498.605 1.41544 5.9551 0
M  V30 5369 N 497.742 0.78021 6.97751 0
M  V30 5370 H 502.582 1.52536 2.56002 0
M  V30 5371 H 500.119 0.76304 1.25762 0
M  V30 5372 H 502.077 -0.373497 4.15525 0
M  V30 5373 H 500.707 -0.844336 3.11562 0
M  V30 5374 H 499.759 1.54888 3.47439 0
M  V30 5375 H 501.071 1.82862 4.64072 0
M  V30 5376 H 500.225 -0.0463805 6.06682 0
M  V30 5377 H 498.964 -0.422038 4.8587 0
M  V30 5378 H 497.969 1.86124 5.17337 0
M  V30 5379 H 499.194 2.22854 6.41493 0
M  V30 5380 H 497.14 -0.0107899 6.55999 0
M  V30 5381 H 497.057 1.49716 7.41027 0
M  V30 5382 H 498.325 0.368996 7.78626 0
M  V30 5383 N 502.554 -1.34406 0.822964 0
M  V30 5384 C 503.502 -2.31428 0.233165 0
M  V30 5385 C 504.496 -1.57404 -0.626118 0
M  V30 5386 O 505.702 -1.72402 -0.517453 0
M  V30 5387 H 502.077 -0.749863 0.0566557 0
M  V30 5388 H 504.048 -2.78699 1.06628 0
M  V30 5389 C 502.797 -3.42653 -0.590264 0
M  V30 5390 H 502.12 -3.99753 0.0616129 0
M  V30 5391 H 503.56 -4.12778 -0.969054 0
M  V30 5392 C 502.019 -2.87112 -1.76262 0
M  V30 5393 O 502.549 -2.81995 -2.8608 0
M  V30 5394 N 500.755 -2.43934 -1.57938 0
M  V30 5395 H 500.302 -2.48296 -0.686078 0
M  V30 5396 H 500.26 -2.07123 -2.36532 0
M  V30 5397 N 504.032 -0.577932 -1.46621 0
M  V30 5398 C 505.28 -0.061566 -2.02006 0
M  V30 5399 C 505.601 1.30117 -1.4524 0
M  V30 5400 O 504.871 1.85313 -0.63529 0
M  V30 5401 H 503.451 -0.0197692 -0.746738 0
M  V30 5402 H 506.113 -0.752631 -1.79782 0
M  V30 5403 H 505.209 0.0110238 -3.12098 0
M  V30 5404 N 505.51 1.54411 -0.315457 0
M  V30 5405 C 506.74 2.04536 0.291315 0
M  V30 5406 C 507.148 1.19162 1.4696 0
M  V30 5407 O 506.491 0.213199 1.82459 0
M  V30 5408 C 506.553 3.5056 0.796725 0
M  V30 5409 C 506.217 4.5627 -0.258178 0
M  V30 5410 C 507.214 5.08312 -1.09153 0
M  V30 5411 C 504.899 5.00672 -0.404036 0
M  V30 5412 C 506.893 6.03312 -2.05655 0
M  V30 5413 C 504.58 5.95488 -1.37248 0
M  V30 5414 C 505.578 6.46693 -2.19721 0
M  V30 5415 O 505.266 7.39648 -3.14921 0
M  V30 5416 H 504.998 0.672856 0.0651165 0
M  V30 5417 H 507.552 2.00244 -0.457308 0
M  V30 5418 H 505.782 3.52223 1.59612 0
M  V30 5419 H 507.471 3.83804 1.32096 0
M  V30 5420 H 508.237 4.74793 -0.98979 0
M  V30 5421 H 504.116 4.60436 0.22799 0
M  V30 5422 H 507.66 6.43203 -2.70067 0
M  V30 5423 H 503.557 6.28424 -1.47489 0
M  V30 5424 H 504.325 7.57496 -3.10067 0
M  V30 5425 N 506.988 0.0434614 1.5754 0
M  V30 5426 C 508.216 -0.641835 1.96693 0
M  V30 5427 C 508.631 -1.64832 0.920652 0
M  V30 5428 O 507.988 -1.82247 -0.095993 0
M  V30 5429 C 508.039 -1.33557 3.35924 0
M  V30 5430 O 507.76 -0.369403 4.3654 0
M  V30 5431 C 509.261 -2.11135 3.89791 0
M  V30 5432 H 506.481 -0.176013 0.647503 0
M  V30 5433 H 509.025 0.107478 2.04217 0
M  V30 5434 H 507.18 -2.03617 3.29574 0
M  V30 5435 H 507.594 -0.863674 5.1734 0
M  V30 5436 H 509.068 -2.55107 4.89514 0
M  V30 5437 H 509.545 -2.95634 3.24803 0
M  V30 5438 H 510.151 -1.46002 3.99454 0
M  V30 5439 N 508.466 -1.55915 -0.229846 0
M  V30 5440 C 509.877 -1.68809 -0.797531 0
M  V30 5441 C 510.228 -0.643995 -1.8533 0
M  V30 5442 O 509.353 0.206492 -2.15413 0
M  V30 5443 C 509.948 -3.06043 -1.45338 0
M  V30 5444 C 508.507 -3.20819 -1.96856 0
M  V30 5445 C 507.654 -2.6472 -0.825736 0
M  V30 5446 H 510.605 -1.58699 -0.00533733 0
M  V30 5447 H 510.626 -3.01438 -2.32196 0
M  V30 5448 H 510.138 -3.82012 -0.684743 0
M  V30 5449 H 508.239 -2.49704 -2.76548 0
M  V30 5450 H 508.352 -4.27937 -2.15423 0
M  V30 5451 H 506.716 -2.22985 -1.23084 0
M  V30 5452 H 507.499 -3.43229 -0.0699019 0
M  V30 5453 N 509.944 0.496216 -1.49584 0
M  V30 5454 C 510.874 1.60576 -1.69521 0
M  V30 5455 C 511.855 1.61169 -0.543933 0
M  V30 5456 O 513.04 1.77834 -0.78031 0
M  V30 5457 C 510.17 2.99038 -1.76616 0
M  V30 5458 C 509.124 3.13312 -2.91581 0
M  V30 5459 C 508.45 4.53172 -2.83794 0
M  V30 5460 C 509.75 2.92886 -4.32452 0
M  V30 5461 H 511.444 1.44146 -2.62416 0
M  V30 5462 H 508.99 0.692024 -1.26282 0
M  V30 5463 H 510.943 3.76564 -1.8915 0
M  V30 5464 H 509.667 3.16568 -0.80324 0
M  V30 5465 H 508.326 2.38213 -2.78658 0
M  V30 5466 H 507.974 4.67585 -1.854 0
M  V30 5467 H 507.674 4.63662 -3.60958 0
M  V30 5468 H 509.198 5.32752 -2.98342 0
M  V30 5469 H 510.612 3.60178 -4.46032 0
M  V30 5470 H 509.009 3.14844 -5.10875 0
M  V30 5471 H 510.079 1.88966 -4.46565 0
M  V30 5472 N 511.423 1.38739 0.74761 0
M  V30 5473 C 512.353 1.39173 1.87492 0
M  V30 5474 C 513.334 0.256794 1.6815 0
M  V30 5475 O 514.519 0.460762 1.88655 0
M  V30 5476 C 511.649 1.22197 3.25093 0
M  V30 5477 C 510.603 2.32957 3.59047 0
M  V30 5478 C 509.929 2.01082 4.95449 0
M  V30 5479 C 511.229 3.75237 3.6331 0
M  V30 5480 H 512.923 2.3351 1.87386 0
M  V30 5481 H 510.469 1.12399 0.900134 0
M  V30 5482 H 512.422 1.21124 4.03617 0
M  V30 5483 H 511.146 0.243241 3.25693 0
M  V30 5484 H 509.805 2.33226 2.82845 0
M  V30 5485 H 509.453 1.01678 4.92616 0
M  V30 5486 H 509.153 2.75267 5.19136 0
M  V30 5487 H 510.677 2.01638 5.76346 0
M  V30 5488 H 512.091 3.76966 4.31937 0
M  V30 5489 H 510.488 4.48677 3.98509 0
M  V30 5490 H 511.558 4.07122 2.634 0
M  V30 5491 N 512.901 -0.976442 1.23707 0
M  V30 5492 C 514.178 -1.69296 0.979699 0
M  V30 5493 C 514.558 -2.0508 -0.500555 0
M  V30 5494 O 513.906 -1.74708 -1.47273 0
M  V30 5495 C 514.116 -2.93143 1.89389 0
M  V30 5496 C 515.464 -3.65572 2.15968 0
M  V30 5497 O 516.488 -3.03184 1.86971 0
M  V30 5498 O 515.347 -4.77859 2.65167 0
M  V30 5499 H 512.441 -0.739708 0.369812 0
M  V30 5500 H 514.987 -1.03131 1.34767 0
M  V30 5501 H 513.759 -2.63327 2.89439 0
M  V30 5502 H 513.382 -3.67044 1.52854 0
M  V30 5503 N 514.379 -1.04941 -1.1758 0
M  V30 5504 C 515.619 -0.766996 -1.89464 0
M  V30 5505 C 515.983 0.693123 -1.79053 0
M  V30 5506 O 517.184 1.08953 -2.45729 0
M  V30 5507 C 515.455 -1.23108 -3.35528 0
M  V30 5508 S 517.014 -1.07565 -4.25412 0
M  V30 5509 H 513.832 -0.278616 -0.654136 0
M  V30 5510 H 516.434 -1.34352 -1.4202 0
M  V30 5511 H 515.138 -2.28896 -3.40639 0
M  V30 5512 H 514.669 -0.648724 -3.88014 0
M  V30 5513 H 516.684 0.00169467 -4.962 0
M  V30 5514 N 515.857 1.33968 -0.830081 0
M  V30 5515 C 516.807 2.26845 -0.229242 0
M  V30 5516 C 517.791 1.48862 0.610659 0
M  V30 5517 O 518.983 1.70808 0.464067 0
M  V30 5518 C 516.112 3.3798 0.602057 0
M  V30 5519 C 515.198 4.23369 -0.248866 0
M  V30 5520 N 515.589 4.88182 -1.32334 0
M  V30 5521 C 513.887 4.45987 -0.0344077 0
M  V30 5522 C 514.588 5.51671 -1.84482 0
M  V30 5523 N 513.564 5.31348 -1.14762 0
M  V30 5524 H 517.366 2.74464 -1.05104 0
M  V30 5525 H 514.88 1.4777 -0.673623 0
M  V30 5526 H 516.877 4.03494 1.04873 0
M  V30 5527 H 515.537 2.9191 1.42193 0
M  V30 5528 H 516.548 4.88988 -1.70619 0
M  V30 5529 H 513.225 4.10658 0.752727 0
M  V30 5530 H 514.615 6.13308 -2.74413 0
M  V30 5531 N 517.335 0.585699 1.46312 0
M  V30 5532 C 518.563 0.0781299 2.06752 0
M  V30 5533 C 518.978 -1.22812 1.43396 0
M  V30 5534 O 518.335 -1.74318 0.540314 0
M  V30 5535 C 518.386 -0.0911927 3.61385 0
M  V30 5536 O 518.107 1.16336 4.22371 0
M  V30 5537 C 519.608 -0.632765 4.38761 0
M  V30 5538 H 516.828 0.0588188 0.668417 0
M  V30 5539 H 519.372 0.807218 1.87894 0
M  V30 5540 H 517.527 -0.770514 3.7966 0
M  V30 5541 H 517.941 0.979082 5.15281 0
M  V30 5542 H 519.415 -0.70041 5.47538 0
M  V30 5543 H 519.892 -1.65039 4.07012 0
M  V30 5544 H 520.498 0.0117856 4.25298 0
M  V30 5545 N 518.813 -1.54241 0.323641 0
M  V30 5546 C 520.038 -2.05452 -0.283605 0
M  V30 5547 C 520.463 -1.19823 -1.44997 0
M  V30 5548 O 519.821 -0.207358 -1.8011 0
M  V30 5549 C 519.869 -3.53823 -0.695795 0
M  V30 5550 O 518.973 -3.71134 -1.79815 0
M  V30 5551 H 518.314 -0.662024 -0.0511917 0
M  V30 5552 H 520.844 -1.99079 0.472073 0
M  V30 5553 H 520.854 -3.96094 -0.978434 0
M  V30 5554 H 519.529 -4.15602 0.157287 0
M  V30 5555 H 518.106 -3.40768 -1.51431 0
M  V30 5556 N 520.291 -0.0518155 -1.57515 0
M  V30 5557 C 521.241 0.932017 -2.0808 0
M  V30 5558 C 522.225 1.27141 -0.986098 0
M  V30 5559 O 523.417 1.25373 -1.24943 0
M  V30 5560 C 520.546 2.20665 -2.62986 0
M  V30 5561 C 519.632 1.89462 -3.79427 0
M  V30 5562 N 520.023 1.28621 -4.89173 0
M  V30 5563 C 518.321 2.19327 -3.88345 0
M  V30 5564 C 519.022 1.15062 -5.70207 0
M  V30 5565 N 517.998 1.65372 -5.17835 0
M  V30 5566 H 521.8 0.456964 -2.90326 0
M  V30 5567 H 519.314 0.152619 -1.61681 0
M  V30 5568 H 521.311 2.92044 -2.97516 0
M  V30 5569 H 519.971 2.68776 -1.8218 0
M  V30 5570 H 520.982 0.958341 -5.08956 0
M  V30 5571 H 517.659 2.69955 -3.18482 0
M  V30 5572 H 519.049 0.678243 -6.68468 0
M  V30 5573 N 521.769 1.56035 0.221574 0
M  V30 5574 C 523.018 1.78245 0.944016 0
M  V30 5575 C 523.331 0.620371 1.85501 0
M  V30 5576 O 524.537 0.726103 2.6161 0
M  V30 5577 C 522.993 3.15659 1.7288 0
M  V30 5578 C 522.601 4.39591 0.863942 0
M  V30 5579 C 524.345 3.47195 2.44246 0
M  V30 5580 C 522.252 5.6803 1.64607 0
M  V30 5581 H 521.182 0.664547 0.356222 0
M  V30 5582 H 523.833 1.8243 0.197904 0
M  V30 5583 H 522.215 3.0565 2.51781 0
M  V30 5584 H 523.389 4.60655 0.115464 0
M  V30 5585 H 521.704 4.15572 0.262407 0
M  V30 5586 H 524.301 4.40381 3.03263 0
M  V30 5587 H 524.644 2.69693 3.1713 0
M  V30 5588 H 525.177 3.58533 1.72334 0
M  V30 5589 H 521.916 6.48425 0.960507 0
M  V30 5590 H 521.436 5.51027 2.36917 0
M  V30 5591 H 523.115 6.08203 2.20675 0
M  V30 5592 N 523.247 -0.488276 1.49845 0
M  V30 5593 C 524.472 -1.26997 1.63971 0
M  V30 5594 C 524.897 -1.85427 0.315994 0
M  V30 5595 O 524.255 -1.66475 -0.718032 0
M  V30 5596 C 524.303 -2.36689 2.72049 0
M  V30 5597 O 523.407 -3.40882 2.32107 0
M  V30 5598 H 522.748 -0.374376 0.548396 0
M  V30 5599 H 525.278 -0.583104 1.96115 0
M  V30 5600 H 525.288 -2.82262 2.94605 0
M  V30 5601 H 523.963 -1.93529 3.68129 0
M  V30 5602 H 522.54 -3.01139 2.19931 0
M  V30 5603 N 524.725 -1.39134 -0.740242 0
M  V30 5604 C 525.965 -1.37499 -1.51239 0
M  V30 5605 C 526.329 0.0310084 -1.91975 0
M  V30 5606 O 527.53 0.172319 -2.68247 0
M  V30 5607 C 525.801 -2.31566 -2.72235 0
M  V30 5608 S 527.36 -2.48073 -3.61947 0
M  V30 5609 H 524.178 -0.48768 -0.517387 0
M  V30 5610 H 526.78 -1.75183 -0.867826 0
M  V30 5611 H 525.484 -3.32592 -2.40439 0
M  V30 5612 H 525.015 -1.9508 -3.41625 0
M  V30 5613 H 527.03 -1.71473 -4.6563 0
M  V30 5614 N 526.204 0.969867 -1.24223 0
M  V30 5615 C 527.151 2.06407 -1.0327 0
M  V30 5616 C 528.121 1.66014 0.0533 0
M  V30 5617 O 529.306 1.90533 -0.100896 0
M  V30 5618 C 526.446 3.3909 -0.641262 0
M  V30 5619 C 525.559 3.9269 -1.80051 0
M  V30 5620 C 524.694 5.13631 -1.35486 0
M  V30 5621 C 523.733 5.59423 -2.48419 0
M  V30 5622 N 522.87 6.71586 -2.04737 0
M  V30 5623 H 527.71 2.23663 -1.96923 0
M  V30 5624 H 525.247 1.09624 -0.980862 0
M  V30 5625 H 527.205 4.15323 -0.395351 0
M  V30 5626 H 525.835 3.21765 0.258269 0
M  V30 5627 H 524.887 3.13116 -2.16014 0
M  V30 5628 H 526.199 4.22636 -2.64916 0
M  V30 5629 H 525.353 5.97231 -1.0677 0
M  V30 5630 H 524.092 4.85364 -0.476722 0
M  V30 5631 H 523.097 4.74398 -2.77897 0
M  V30 5632 H 524.322 5.89705 -3.36786 0
M  V30 5633 H 522.268 6.45058 -1.19318 0
M  V30 5634 H 522.185 7.0097 -2.83156 0
M  V30 5635 H 523.453 7.58633 -1.79154 0
M  V30 5636 N 527.682 1.05563 1.17022 0
M  V30 5637 C 528.929 0.767937 1.87374 0
M  V30 5638 C 529.257 -0.705224 1.81265 0
M  V30 5639 O 528.512 -1.5318 1.21796 0
M  V30 5640 C 528.811 1.19849 3.36706 0
M  V30 5641 C 528.477 2.6745 3.63017 0
M  V30 5642 C 527.139 3.0777 3.69907 0
M  V30 5643 C 529.491 3.62811 3.74189 0
M  V30 5644 C 526.819 4.42307 3.85463 0
M  V30 5645 C 529.171 4.97087 3.91264 0
M  V30 5646 C 527.835 5.37055 3.96394 0
M  V30 5647 H 527.105 0.281008 0.68565 0
M  V30 5648 H 529.752 1.32339 1.38415 0
M  V30 5649 H 528.057 0.562096 3.87747 0
M  V30 5650 H 529.754 0.953038 3.8951 0
M  V30 5651 H 526.344 2.35228 3.58282 0
M  V30 5652 H 530.528 3.32798 3.68183 0
M  V30 5653 H 525.784 4.72769 3.87684 0
M  V30 5654 H 529.958 5.70869 3.9885 0
M  V30 5655 H 527.585 6.41308 4.082 0
M  V30 5656 N 529.16 -1.33526 0.837174 0
M  V30 5657 C 530.09 -2.31764 0.284206 0
M  V30 5658 C 531.071 -1.58896 -0.607142 0
M  V30 5659 O 532.256 -1.86798 -0.531047 0
M  V30 5660 C 529.386 -3.43029 -0.542962 0
M  V30 5661 C 528.34 -4.27255 0.252451 0
M  V30 5662 C 527.666 -5.3012 -0.69836 0
M  V30 5663 C 528.966 -5.01229 1.46858 0
M  V30 5664 H 530.66 -2.78262 1.10502 0
M  V30 5665 H 528.206 -1.3378 0.532812 0
M  V30 5666 H 530.159 -4.1078 -0.940096 0
M  V30 5667 H 528.883 -2.95216 -1.39697 0
M  V30 5668 H 527.542 -3.61127 0.631124 0
M  V30 5669 H 527.19 -4.78564 -1.54872 0
M  V30 5670 H 526.89 -5.87353 -0.170274 0
M  V30 5671 H 528.414 -6.00737 -1.09305 0
M  V30 5672 H 529.828 -5.61756 1.14469 0
M  V30 5673 H 528.225 -5.68104 1.93333 0
M  V30 5674 H 529.295 -4.301 2.23924 0
M  V30 5675 N 530.638 -0.59345 -1.46 0
M  V30 5676 C 531.586 0.146268 -2.3214 0
M  V30 5677 C 532.58 0.873743 -1.45128 0
M  V30 5678 O 533.786 0.790912 -1.61693 0
M  V30 5679 H 530.161 0.0660349 -0.749095 0
M  V30 5680 H 532.132 -0.598895 -2.92328 0
M  V30 5681 C 530.881 1.1396 -3.28494 0
M  V30 5682 H 530.204 0.589252 -3.95434 0
M  V30 5683 H 531.644 1.62738 -3.91526 0
M  V30 5684 C 530.103 2.20604 -2.54628 0
M  V30 5685 O 530.633 3.28128 -2.31722 0
M  V30 5686 N 528.839 1.95502 -2.15005 0
M  V30 5687 H 528.386 1.0807 -2.33834 0
M  V30 5688 H 528.344 2.67064 -1.65904 0
M  V30 5689 N 532.116 1.54067 -0.331816 0
M  V30 5690 C 533.365 1.99895 0.269209 0
M  V30 5691 C 533.678 1.22371 1.52593 0
M  V30 5692 O 534.884 1.58618 2.20347 0
M  V30 5693 C 533.34 3.55972 0.530244 0
M  V30 5694 C 532.948 4.4234 -0.709901 0
M  V30 5695 C 534.692 4.10247 1.09077 0
M  V30 5696 C 532.599 5.89905 -0.420312 0
M  V30 5697 H 531.529 0.746741 0.104371 0
M  V30 5698 H 534.18 1.78014 -0.445324 0
M  V30 5699 H 532.562 3.73873 1.30518 0
M  V30 5700 H 533.736 4.36215 -1.48504 0
M  V30 5701 H 532.051 3.98997 -1.19123 0
M  V30 5702 H 534.648 5.18095 1.32219 0
M  V30 5703 H 534.991 3.62739 2.0427 0
M  V30 5704 H 535.524 3.96011 0.376824 0
M  V30 5705 H 532.263 6.41623 -1.34164 0
M  V30 5706 H 531.783 5.98962 0.316962 0
M  V30 5707 H 533.462 6.46991 -0.0331956 0
M  V30 5708 N 533.594 0.0601682 1.57485 0
M  V30 5709 C 534.871 -0.651956 1.84415 0
M  V30 5710 C 535.251 -1.88498 0.950361 0
M  V30 5711 O 534.599 -2.28496 0.0136719 0
M  V30 5712 C 534.809 -1.00069 3.34346 0
M  V30 5713 C 536.157 -1.37915 4.01578 0
M  V30 5714 O 537.181 -1.09277 3.39024 0
M  V30 5715 O 536.04 -1.91399 5.11887 0
M  V30 5716 H 533.134 -0.322668 0.761455 0
M  V30 5717 H 535.68 0.0902159 1.6946 0
M  V30 5718 H 534.452 -0.124463 3.91102 0
M  V30 5719 H 534.075 -1.80001 3.54521 0
M  V30 5720 N 535.072 -1.5615 -0.213296 0
M  V30 5721 C 536.297 -1.83986 -0.957282 0
M  V30 5722 C 536.722 -0.641526 -1.76822 0
M  V30 5723 O 536.08 0.409722 -1.7661 0
M  V30 5724 C 536.128 -3.09889 -1.84393 0
M  V30 5725 O 535.232 -2.89163 -2.94038 0
M  V30 5726 H 534.573 -0.606357 -0.270605 0
M  V30 5727 H 537.103 -2.03369 -0.224111 0
M  V30 5728 H 537.113 -3.40209 -2.25215 0
M  V30 5729 H 535.788 -3.96735 -1.24795 0
M  V30 5730 H 534.365 -2.70097 -2.57103 0
M  V30 5731 N 536.55 0.480323 -1.50102 0
M  V30 5732 C 537.497 1.57946 -1.6829 0
M  V30 5733 C 538.467 1.57611 -0.524223 0
M  V30 5734 O 539.652 1.75282 -0.753709 0
M  V30 5735 C 536.792 2.95978 -1.77457 0
M  V30 5736 C 535.905 3.06173 -3.04766 0
M  V30 5737 C 535.04 4.35063 -3.04784 0
M  V30 5738 C 534.079 4.38966 -4.26586 0
M  V30 5739 N 533.216 5.59314 -4.24396 0
M  V30 5740 H 538.056 1.41743 -2.62131 0
M  V30 5741 H 535.593 0.689304 -1.2995 0
M  V30 5742 H 537.551 3.76011 -1.80752 0
M  V30 5743 H 536.181 3.10837 -0.870637 0
M  V30 5744 H 535.233 2.19071 -3.10986 0
M  V30 5745 H 536.545 3.04916 -3.9475 0
M  V30 5746 H 535.699 5.23436 -3.06757 0
M  V30 5747 H 534.438 4.38915 -2.12614 0
M  V30 5748 H 533.443 3.48992 -4.24835 0
M  V30 5749 H 534.668 4.36813 -5.19972 0
M  V30 5750 H 532.614 5.63969 -3.35074 0
M  V30 5751 H 532.531 5.5976 -5.08138 0
M  V30 5752 H 533.799 6.49837 -4.30502 0
M  V30 5753 N 538.028 1.39524 0.732853 0
M  V30 5754 C 539.277 1.36175 1.48792 0
M  V30 5755 C 539.59 -0.0388195 1.95561 0
M  V30 5756 O 540.796 -0.194899 2.708 0
M  V30 5757 C 539.252 2.39242 2.68871 0
M  V30 5758 C 538.86 3.85024 2.29042 0
M  V30 5759 C 540.604 2.44972 3.46683 0
M  V30 5760 C 538.511 4.79727 3.45856 0
M  V30 5761 H 537.441 0.506267 0.558757 0
M  V30 5762 H 540.092 1.65181 0.799226 0
M  V30 5763 H 538.474 2.0331 3.39825 0
M  V30 5764 H 539.648 4.30008 1.6562 0
M  V30 5765 H 537.963 3.82609 1.64316 0
M  V30 5766 H 540.56 3.12918 4.33574 0
M  V30 5767 H 540.903 1.4749 3.89297 0
M  V30 5768 H 541.436 2.79808 2.82759 0
M  V30 5769 H 538.175 5.78479 3.08289 0
M  V30 5770 H 537.695 4.39421 4.08251 0
M  V30 5771 H 539.374 4.98731 4.12161 0
M  V30 5772 N 539.506 -0.963266 1.24736 0
M  V30 5773 C 540.783 -1.68248 0.9976 0
M  V30 5774 C 541.163 -2.05599 -0.478776 0
M  V30 5775 O 540.511 -1.7626 -1.45412 0
M  V30 5776 C 540.721 -2.91118 1.92487 0
M  V30 5777 C 542.069 -3.63261 2.19833 0
M  V30 5778 O 543.093 -3.01184 1.90176 0
M  V30 5779 O 541.952 -4.75019 2.7022 0
M  V30 5780 H 539.046 -0.735744 0.377637 0
M  V30 5781 H 541.592 -1.01696 1.35853 0
M  V30 5782 H 540.364 -2.60242 2.92215 0
M  V30 5783 H 539.987 -3.65402 1.56738 0
M  V30 5784 N 540.985 -1.06182 -1.16461 0
M  V30 5785 C 541.932 -0.671613 -2.20812 0
M  V30 5786 C 542.902 0.331186 -1.62765 0
M  V30 5787 O 544.087 0.22033 -1.89524 0
M  V30 5788 C 541.227 -0.063029 -3.45042 0
M  V30 5789 C 540.34 -1.11587 -4.1734 0
M  V30 5790 C 539.475 -0.473546 -5.29085 0
M  V30 5791 C 538.514 -1.51 -5.93182 0
M  V30 5792 N 537.651 -0.891118 -6.96422 0
M  V30 5793 H 542.491 -1.56589 -2.53542 0
M  V30 5794 H 540.028 -0.782951 -1.24532 0
M  V30 5795 H 541.986 0.307344 -4.16066 0
M  V30 5796 H 540.616 0.794663 -3.12866 0
M  V30 5797 H 539.668 -1.60396 -3.44931 0
M  V30 5798 H 540.98 -1.90221 -4.61104 0
M  V30 5799 H 540.134 -0.0501432 -6.06679 0
M  V30 5800 H 538.873 0.344687 -4.8648 0
M  V30 5801 H 537.878 -1.94331 -5.14311 0
M  V30 5802 H 539.103 -2.33031 -6.37866 0
M  V30 5803 H 537.049 -0.0935753 -6.55933 0
M  V30 5804 H 536.966 -1.61486 -7.38551 0
M  V30 5805 H 538.234 -0.492822 -7.77941 0
M  V30 5806 N 542.463 1.3308 -0.844243 0
M  V30 5807 C 543.879 1.50447 -0.532729 0
M  V30 5808 C 544.079 1.78292 0.938837 0
M  V30 5809 O 543.135 1.84635 1.72239 0
M  V30 5810 C 544.448 2.65555 -1.41072 0
M  V30 5811 C 545.996 2.7944 -1.41005 0
M  V30 5812 C 546.471 3.97616 -2.27301 0
M  V30 5813 N 547.962 4.0486 -2.2504 0
M  V30 5814 C 548.697 4.95508 -2.88547 0
M  V30 5815 N 548.193 5.91236 -3.61126 0
M  V30 5816 N 549.986 4.88548 -2.77989 0
M  V30 5817 H 542.137 1.13269 -1.79677 0
M  V30 5818 H 544.4 0.55734 -0.766861 0
M  V30 5819 H 544.106 2.51675 -2.45668 0
M  V30 5820 H 543.98 3.61089 -1.09061 0
M  V30 5821 H 546.367 2.92749 -0.371784 0
M  V30 5822 H 546.448 1.8465 -1.77026 0
M  V30 5823 H 546.092 3.85066 -3.3119 0
M  V30 5824 H 546.022 4.91661 -1.88619 0
M  V30 5825 H 548.513 3.36353 -1.72264 0
M  V30 5826 H 548.826 6.57079 -4.06776 0
M  V30 5827 H 547.171 5.91295 -3.65234 0
M  V30 5828 H 550.362 4.12729 -2.20846 0
M  V30 5829 H 550.535 5.58994 -3.27765 0
M  V30 5830 N 543.941 0.601185 1.45683 0
M  V30 5831 C 545.166 0.0982245 2.07167 0
M  V30 5832 C 545.591 -1.20546 1.44396 0
M  V30 5833 O 544.949 -1.73247 0.534347 0
M  V30 5834 C 544.997 -0.0346976 3.60583 0
M  V30 5835 O 544.101 -1.08657 3.97828 0
M  V30 5836 H 543.442 0.0711618 0.660176 0
M  V30 5837 H 545.972 0.829376 1.87036 0
M  V30 5838 H 545.982 -0.234969 4.07323 0
M  V30 5839 H 544.657 0.917265 4.05659 0
M  V30 5840 H 543.234 -0.863275 3.6277 0
M  V30 5841 N 545.419 -1.53889 0.339982 0
M  V30 5842 C 546.667 -2.00458 -0.257112 0
M  V30 5843 C 546.988 -1.22953 -1.51353 0
M  V30 5844 O 546.258 -0.335734 -1.93002 0
M  V30 5845 H 544.838 -0.740544 -0.0979965 0
M  V30 5846 H 547.5 -1.89386 0.460317 0
M  V30 5847 H 546.596 -3.08035 -0.502057 0
M  V30 5848 N 546.897 -0.0685191 -1.57451 0
M  V30 5849 C 547.844 0.899861 -2.12535 0
M  V30 5850 C 548.814 1.29749 -1.03703 0
M  V30 5851 O 549.999 1.38392 -1.31348 0
M  V30 5852 C 547.139 2.16328 -2.6888 0
M  V30 5853 C 546.252 1.81857 -3.91857 0
M  V30 5854 C 545.387 3.02786 -4.36457 0
M  V30 5855 C 544.426 2.64317 -5.5209 0
M  V30 5856 N 543.563 3.77994 -5.91663 0
M  V30 5857 H 548.403 0.423243 -2.94979 0
M  V30 5858 H 545.94 0.197268 -1.45771 0
M  V30 5859 H 547.898 2.90281 -2.99655 0
M  V30 5860 H 546.528 2.61536 -1.89206 0
M  V30 5861 H 545.58 0.979808 -3.67565 0
M  V30 5862 H 546.892 1.49553 -4.75852 0
M  V30 5863 H 546.046 3.85021 -4.68875 0
M  V30 5864 H 544.785 3.38281 -3.51308 0
M  V30 5865 H 543.79 1.80503 -5.19325 0
M  V30 5866 H 545.015 2.29995 -6.38967 0
M  V30 5867 H 542.961 4.13258 -5.09464 0
M  V30 5868 H 542.878 3.49447 -6.7039 0
M  V30 5869 H 544.146 4.60818 -6.28703 0
M  V30 5870 N 548.375 1.56261 0.205012 0
M  V30 5871 C 549.621 1.80306 0.9283 0
M  V30 5872 C 549.954 0.640932 1.83319 0
M  V30 5873 O 549.229 -0.359032 1.91158 0
M  V30 5874 C 549.512 3.14547 1.75306 0
M  V30 5875 C 549.365 4.41236 0.873562 0
M  V30 5876 C 550.684 3.45382 2.72762 0
M  V30 5877 H 547.803 0.655929 0.336044 0
M  V30 5878 H 550.445 1.88984 0.196211 0
M  V30 5879 H 548.595 3.0728 2.37721 0
M  V30 5880 H 550.267 4.60539 0.264887 0
M  V30 5881 H 548.51 4.33427 0.179773 0
M  V30 5882 H 549.181 5.31639 1.48541 0
M  V30 5883 H 551.657 3.52884 2.20481 0
M  V30 5884 H 550.533 4.40449 3.2756 0
M  V30 5885 H 550.794 2.68377 3.51321 0
M  V30 5886 N 549.853 -0.472356 1.50355 0
M  V30 5887 C 551.099 -1.22634 1.6152 0
M  V30 5888 C 551.432 -1.91645 0.313995 0
M  V30 5889 O 550.707 -1.82059 -0.684446 0
M  V30 5890 C 550.99 -2.27099 2.7946 0
M  V30 5891 C 550.843 -1.62402 4.19459 0
M  V30 5892 C 552.162 -3.28421 2.92964 0
M  V30 5893 H 549.281 -0.444494 0.587873 0
M  V30 5894 H 551.923 -0.520321 1.82737 0
M  V30 5895 H 550.073 -2.87314 2.61501 0
M  V30 5896 H 551.745 -1.05793 4.49005 0
M  V30 5897 H 549.988 -0.927184 4.23776 0
M  V30 5898 H 550.659 -2.38309 4.97909 0
M  V30 5899 H 553.135 -2.78227 3.09401 0
M  V30 5900 H 552.011 -3.98845 3.77113 0
M  V30 5901 H 552.272 -3.92467 2.03525 0
M  V30 5902 N 551.331 -1.39911 -0.725443 0
M  V30 5903 C 552.241 -1.41688 -1.8698 0
M  V30 5904 C 553.257 -0.310579 -1.71206 0
M  V30 5905 O 554.433 -0.55359 -1.93642 0
M  V30 5906 C 551.498 -1.26811 -3.22676 0
M  V30 5907 C 550.559 -2.47497 -3.50776 0
M  V30 5908 C 549.792 -2.3332 -4.79997 0
M  V30 5909 O 550.015 -1.34175 -5.54394 0
M  V30 5910 O 548.949 -3.22498 -5.08211 0
M  V30 5911 H 552.775 -2.38171 -1.88436 0
M  V30 5912 H 550.36 -1.21128 -0.874548 0
M  V30 5913 H 552.242 -1.20684 -4.03749 0
M  V30 5914 H 550.917 -0.334289 -3.21969 0
M  V30 5915 H 549.824 -2.59201 -2.69751 0
M  V30 5916 H 551.157 -3.39606 -3.5627 0
M  V30 5917 N 552.809 0.956637 -1.25245 0
M  V30 5918 C 553.719 2.0868 -1.0719 0
M  V30 5919 C 554.735 1.73997 -0.00959074 0
M  V30 5920 O 555.911 2.00301 -0.210104 0
M  V30 5921 C 552.976 3.39754 -0.690526 0
M  V30 5922 C 552.037 3.88316 -1.83055 0
M  V30 5923 C 551.27 5.13134 -1.46728 0
M  V30 5924 O 551.493 5.6925 -0.362029 0
M  V30 5925 O 550.427 5.56356 -2.29677 0
M  V30 5926 H 554.253 2.26813 -2.01965 0
M  V30 5927 H 551.838 1.07098 -1.04165 0
M  V30 5928 H 553.72 4.18543 -0.489871 0
M  V30 5929 H 552.395 3.22896 0.227981 0
M  V30 5930 H 551.302 3.1054 -2.08604 0
M  V30 5931 H 552.635 4.09669 -2.72822 0
M  V30 5932 N 554.287 1.06798 1.15896 0
M  V30 5933 C 555.235 0.677525 2.22514 0
M  V30 5934 C 556.229 -0.308994 1.66558 0
M  V30 5935 O 557.435 -0.173308 1.79164 0
M  V30 5936 H 553.81 0.200994 0.724642 0
M  V30 5937 H 555.781 1.5865 2.52731 0
M  V30 5938 C 554.53 0.0854153 3.47595 0
M  V30 5939 H 553.853 0.835645 3.90969 0
M  V30 5940 H 555.293 -0.150199 4.23734 0
M  V30 5941 C 553.752 -1.1724 3.15843 0
M  V30 5942 O 554.282 -2.25965 3.32119 0
M  V30 5943 N 552.488 -1.07636 2.69931 0
M  V30 5944 H 552.035 -0.191559 2.56887 0
M  V30 5945 H 551.993 -1.91876 2.4906 0
M  V30 5946 N 555.766 -1.3263 0.851289 0
M  V30 5947 C 557.177 -1.79653 0.5081 0
M  V30 5948 C 557.528 -1.70327 -0.973815 0
M  V30 5949 O 556.653 -1.25986 -1.75944 0
M  V30 5950 C 557.248 -3.26196 0.915515 0
M  V30 5951 C 555.807 -3.71187 0.624277 0
M  V30 5952 C 554.954 -2.53804 1.11709 0
M  V30 5953 H 557.905 -1.19976 1.03882 0
M  V30 5954 H 557.926 -3.79801 0.230535 0
M  V30 5955 H 557.438 -3.32952 1.99411 0
M  V30 5956 H 555.539 -3.69948 -0.443737 0
M  V30 5957 H 555.652 -4.64132 1.18821 0
M  V30 5958 H 554.016 -2.48964 0.537484 0
M  V30 5959 H 554.799 -2.63315 2.20272 0
M  V30 5960 N 557.244 -0.608902 -1.45362 0
M  V30 5961 C 558.191 0.109172 -2.30542 0
M  V30 5962 C 559.161 0.858704 -1.42181 0
M  V30 5963 O 560.346 0.844178 -1.71109 0
M  V30 5964 C 557.486 1.09971 -3.27109 0
M  V30 5965 C 556.599 0.350911 -4.30572 0
M  V30 5966 C 555.734 1.33129 -5.14247 0
M  V30 5967 C 554.773 0.570377 -6.09437 0
M  V30 5968 N 553.91 1.5001 -6.85887 0
M  V30 5969 H 558.75 -0.623195 -2.91411 0
M  V30 5970 H 556.287 -0.319122 -1.43597 0
M  V30 5971 H 558.245 1.68714 -3.81564 0
M  V30 5972 H 556.875 1.79947 -2.67991 0
M  V30 5973 H 555.927 -0.352054 -3.78767 0
M  V30 5974 H 557.239 -0.242725 -4.98209 0
M  V30 5975 H 556.393 1.99074 -5.73109 0
M  V30 5976 H 555.132 1.95885 -4.46632 0
M  V30 5977 H 554.137 -0.102702 -5.49704 0
M  V30 5978 H 555.362 -0.0521607 -6.7908 0
M  V30 5979 H 553.308 2.11529 -6.2096 0
M  V30 5980 H 553.225 0.959934 -7.49881 0
M  V30 5981 H 554.493 2.14909 -7.49289 0
M  V30 5982 N 558.722 1.53707 -0.348139 0
M  V30 5983 C 559.685 2.23812 0.494058 0
M  V30 5984 C 560.685 1.23989 1.02388 0
M  V30 5985 O 561.875 1.48395 0.912396 0
M  V30 5986 C 559.007 2.96133 1.68872 0
M  V30 5987 H 560.2 2.99663 -0.119141 0
M  V30 5988 H 557.753 1.55983 -0.0995539 0
M  V30 5989 H 558.488 2.24481 2.34049 0
M  V30 5990 H 558.273 3.69357 1.31596 0
M  V30 5991 H 559.763 3.49475 2.28597 0
M  V30 5992 N 560.2 0.0768682 1.57412 0
M  V30 5993 C 561.449 -0.590679 1.92857 0
M  V30 5994 C 561.762 -1.70461 0.959293 0
M  V30 5995 O 562.968 -2.43207 1.20675 0
M  V30 5996 C 561.424 -1.10204 3.42612 0
M  V30 5997 C 561.032 -0.0188447 4.47996 0
M  V30 5998 C 562.776 -1.74336 3.87049 0
M  V30 5999 C 560.683 -0.544536 5.88888 0
M  V30 6000 H 559.613 -0.224411 0.71983 0
M  V30 6001 H 562.264 0.149924 1.82887 0
M  V30 6002 H 560.646 -1.89577 3.47673 0
M  V30 6003 H 561.82 0.755936 4.54557 0
M  V30 6004 H 560.135 0.526555 4.13057 0
M  V30 6005 H 562.732 -2.14708 4.89699 0
M  V30 6006 H 563.075 -2.60537 3.24694 0
M  V30 6007 H 563.608 -1.01577 3.84613 0
M  V30 6008 H 560.347 0.280426 6.549 0
M  V30 6009 H 559.867 -1.28673 5.85836 0
M  V30 6010 H 561.546 -1.01933 6.3892 0
M  V30 6011 N 561.678 -1.56367 -0.196722 0
M  V30 6012 C 562.625 -1.94417 -1.24382 0
M  V30 6013 C 563.595 -0.804543 -1.45315 0
M  V30 6014 O 564.78 -1.06256 -1.58475 0
M  V30 6015 C 561.92 -2.28757 -2.58388 0
M  V30 6016 C 561.033 -3.55775 -2.45047 0
M  V30 6017 C 560.168 -3.79445 -3.71746 0
M  V30 6018 C 559.207 -4.99894 -3.53231 0
M  V30 6019 N 558.344 -5.19826 -4.71938 0
M  V30 6020 H 563.184 -2.83691 -0.912338 0
M  V30 6021 H 560.721 -1.40392 -0.439135 0
M  V30 6022 H 562.679 -2.46682 -3.36457 0
M  V30 6023 H 561.309 -1.42625 -2.89582 0
M  V30 6024 H 560.361 -3.45905 -1.58284 0
M  V30 6025 H 561.673 -4.44 -2.27299 0
M  V30 6026 H 560.827 -3.97601 -4.58256 0
M  V30 6027 H 559.566 -2.89546 -3.92446 0
M  V30 6028 H 558.571 -4.81662 -2.65107 0
M  V30 6029 H 559.796 -5.913 -3.33978 0
M  V30 6030 H 557.742 -4.32875 -4.92905 0
M  V30 6031 H 557.659 -6.02228 -4.57009 0
M  V30 6032 H 558.927 -5.42439 -5.59803 0
M  V30 6033 N 563.156 0.464375 -1.50603 0
M  V30 6034 C 564.381 1.24372 -1.65971 0
M  V30 6035 C 564.806 1.84901 -0.345453 0
M  V30 6036 O 564.164 1.67596 0.691457 0
M  V30 6037 C 564.212 2.32331 -2.7578 0
M  V30 6038 O 563.316 3.37146 -2.375 0
M  V30 6039 H 562.657 0.365604 -0.554283 0
M  V30 6040 H 565.187 0.55183 -1.97018 0
M  V30 6041 H 565.197 2.77539 -2.99059 0
M  V30 6042 H 563.872 1.87648 -3.71162 0
M  V30 6043 H 562.449 2.97602 -2.24694 0
M  V30 6044 N 564.634 1.40294 0.718013 0
M  V30 6045 C 565.882 1.38167 1.47494 0
M  V30 6046 C 566.203 -0.01607 1.94993 0
M  V30 6047 O 565.473 -0.970396 1.70177 0
M  V30 6048 H 564.053 0.508505 0.547203 0
M  V30 6049 H 566.715 1.75324 0.851322 0
M  V30 6050 H 565.811 2.05503 2.34894 0
M  V30 6051 N 566.112 -0.949982 1.2575 0
M  V30 6052 C 567.389 -1.6718 1.01539 0
M  V30 6053 C 567.769 -2.06095 -0.456942 0
M  V30 6054 O 567.117 -1.77792 -1.43534 0
M  V30 6055 C 567.327 -2.8906 1.95564 0
M  V30 6056 C 568.675 -3.60909 2.23673 0
M  V30 6057 O 569.699 -2.9915 1.9336 0
M  V30 6058 O 568.558 -4.72127 2.75243 0
M  V30 6059 H 565.652 -0.731697 0.385419 0
M  V30 6060 H 568.198 -1.00249 1.36924 0
M  V30 6061 H 566.97 -2.57128 2.94959 0
M  V30 6062 H 566.593 -3.63719 1.60605 0
M  V30 6063 N 567.59 -1.07411 -1.15328 0
M  V30 6064 C 568.815 -0.818856 -1.90551 0
M  V30 6065 C 569.24 0.622194 -1.77512 0
M  V30 6066 O 568.598 1.43484 -1.10824 0
M  V30 6067 C 568.646 -1.23267 -3.38877 0
M  V30 6068 O 567.75 -0.378345 -4.10661 0
M  V30 6069 H 567.091 -0.29827 -0.593238 0
M  V30 6070 H 569.621 -1.43289 -1.46046 0
M  V30 6071 H 569.631 -1.20912 -3.89672 0
M  V30 6072 H 568.306 -2.28226 -3.47686 0
M  V30 6073 H 566.883 -0.464437 -3.69996 0
M  V30 6074 N 569.068 1.32177 -0.85831 0
M  V30 6075 C 570.031 2.27086 -0.310588 0
M  V30 6076 C 571.031 1.51751 0.531806 0
M  V30 6077 O 572.221 1.70794 0.34279 0
M  V30 6078 C 569.353 3.36266 0.560179 0
M  V30 6079 H 570.546 2.77045 -1.1483 0
M  V30 6080 H 568.099 1.42911 -0.632942 0
M  V30 6081 H 568.834 2.9158 1.41956 0
M  V30 6082 H 568.619 3.92077 -0.0428473 0
M  V30 6083 H 570.109 4.06974 0.936056 0
M  V30 6084 N 570.547 0.616602 1.45037 0
M  V30 6085 C 571.477 -0.0840787 2.33349 0
M  V30 6086 C 572.458 -0.849641 1.4736 0
M  V30 6087 O 573.643 -0.818407 1.76113 0
M  V30 6088 C 570.773 -1.07604 3.3021 0
M  V30 6089 C 569.727 -0.423096 4.25904 0
M  V30 6090 C 569.053 -1.52394 5.12523 0
M  V30 6091 C 570.353 0.661457 5.18095 0
M  V30 6092 H 572.047 0.653333 2.92185 0
M  V30 6093 H 569.593 0.315634 1.40498 0
M  V30 6094 H 571.546 -1.57485 3.90866 0
M  V30 6095 H 570.27 -1.84416 2.69552 0
M  V30 6096 H 568.929 0.05493 3.66559 0
M  V30 6097 H 568.577 -2.28257 4.48227 0
M  V30 6098 H 568.277 -1.09251 5.77354 0
M  V30 6099 H 569.801 -2.02485 5.76049 0
M  V30 6100 H 571.215 0.246353 5.7277 0
M  V30 6101 H 569.612 1.01517 5.91451 0
M  V30 6102 H 570.682 1.53446 4.59981 0
M  V30 6103 N 572.025 -1.5352 0.356285 0
M  V30 6104 C 573.271 -2.01414 -0.236653 0
M  V30 6105 C 573.604 -1.24339 -1.49176 0
M  V30 6106 O 572.879 -0.334496 -1.91602 0
M  V30 6107 C 573.162 -3.56059 -0.537982 0
M  V30 6108 C 573.015 -4.43835 0.730112 0
M  V30 6109 C 574.334 -4.19127 -1.34239 0
M  V30 6110 H 571.453 -0.732135 -0.0845386 0
M  V30 6111 H 574.095 -1.83854 0.479341 0
M  V30 6112 H 572.245 -3.71153 -1.14795 0
M  V30 6113 H 573.917 -4.40555 1.36782 0
M  V30 6114 H 572.16 -4.1218 1.3524 0
M  V30 6115 H 572.831 -5.49958 0.474358 0
M  V30 6116 H 575.307 -4.07809 -0.826498 0
M  V30 6117 H 574.183 -5.27378 -1.52198 0
M  V30 6118 H 574.444 -3.74581 -2.34822 0
M  V30 6119 N 573.503 -0.0852151 -1.57369 0
M  V30 6120 C 574.728 0.592872 -1.98746 0
M  V30 6121 C 575.153 1.61538 -0.963689 0
M  V30 6122 O 574.511 1.81168 0.069071 0
M  V30 6123 C 574.559 1.22599 -3.39119 0
M  V30 6124 O 573.663 2.34185 -3.39457 0
M  V30 6125 H 573.004 0.151314 -0.646529 0
M  V30 6126 H 575.534 -0.163703 -2.03944 0
M  V30 6127 H 575.544 1.56965 -3.76598 0
M  V30 6128 H 574.219 0.476831 -4.13158 0
M  V30 6129 H 572.796 2.01512 -3.13763 0
M  V30 6130 N 574.981 1.5647 0.188427 0
M  V30 6131 C 575.911 1.98101 1.23606 0
M  V30 6132 C 576.892 0.853961 1.47111 0
M  V30 6133 O 578.077 1.11879 1.58735 0
M  V30 6134 C 575.207 2.32624 2.57882 0
M  V30 6135 C 574.161 3.48129 2.48978 0
M  V30 6136 C 573.487 3.68347 3.87588 0
M  V30 6137 C 574.787 4.82112 2.00911 0
M  V30 6138 H 576.481 2.85864 0.890068 0
M  V30 6139 H 574.027 1.37532 0.426714 0
M  V30 6140 H 575.98 2.60343 3.3136 0
M  V30 6141 H 574.704 1.41751 2.94235 0
M  V30 6142 H 573.363 3.20511 1.77956 0
M  V30 6143 H 573.011 2.74793 4.21305 0
M  V30 6144 H 572.711 4.46055 3.82503 0
M  V30 6145 H 574.235 3.98449 4.62678 0
M  V30 6146 H 575.649 5.08819 2.64151 0
M  V30 6147 H 574.046 5.63337 2.06814 0
M  V30 6148 H 575.116 4.75249 0.96262 0
M  V30 6149 N 576.459 -0.456382 1.50847 0
M  V30 6150 C 577.369 -1.57805 1.73594 0
M  V30 6151 C 578.385 -1.62599 0.619476 0
M  V30 6152 O 579.561 -1.80195 0.899532 0
M  V30 6153 C 576.626 -2.93926 1.8387 0
M  V30 6154 C 575.687 -2.99402 3.07663 0
M  V30 6155 C 574.92 -4.29031 3.1744 0
M  V30 6156 O 575.143 -5.20358 2.33631 0
M  V30 6157 O 574.077 -4.40401 4.10281 0
M  V30 6158 H 577.903 -1.41531 2.68705 0
M  V30 6159 H 575.488 -0.637422 1.3512 0
M  V30 6160 H 577.37 -3.74747 1.92725 0
M  V30 6161 H 576.045 -3.10368 0.91944 0
M  V30 6162 H 574.952 -2.17606 3.043 0
M  V30 6163 H 576.285 -2.87901 3.99216 0
M  V30 6164 N 577.937 -1.40673 -0.710563 0
M  V30 6165 C 579.348 -1.34975 -1.28991 0
M  V30 6166 C 579.699 -0.0256272 -1.96183 0
M  V30 6167 O 578.824 0.876339 -1.97862 0
M  V30 6168 C 579.419 -2.44467 -2.34567 0
M  V30 6169 C 577.978 -2.42213 -2.88114 0
M  V30 6170 C 577.125 -2.25085 -1.61963 0
M  V30 6171 H 580.076 -1.50406 -0.506343 0
M  V30 6172 H 580.097 -2.12663 -3.15523 0
M  V30 6173 H 579.609 -3.40825 -1.85634 0
M  V30 6174 H 577.71 -1.49568 -3.41263 0
M  V30 6175 H 577.823 -3.37983 -3.39565 0
M  V30 6176 H 576.187 -1.72691 -1.87216 0
M  V30 6177 H 576.97 -3.23449 -1.15047 0
M  V30 6178 N 579.415 0.9433 -1.26252 0
M  V30 6179 C 580.362 2.0417 -1.07625 0
M  V30 6180 C 581.332 1.6609 0.0180738 0
M  V30 6181 O 582.517 1.90276 -0.141289 0
M  V30 6182 C 579.657 3.37653 -0.713043 0
M  V30 6183 C 578.77 3.88783 -1.8834 0
M  V30 6184 C 577.905 5.10642 -1.4635 0
M  V30 6185 C 576.944 5.54028 -2.60229 0
M  V30 6186 N 576.081 6.67092 -2.18936 0
M  V30 6187 H 580.921 2.19436 -2.01623 0
M  V30 6188 H 578.458 1.07519 -1.00389 0
M  V30 6189 H 580.416 4.14391 -0.483358 0
M  V30 6190 H 579.046 3.22241 0.18996 0
M  V30 6191 H 578.098 3.08464 -2.22608 0
M  V30 6192 H 579.41 4.16922 -2.73821 0
M  V30 6193 H 578.564 5.94832 -1.19414 0
M  V30 6194 H 577.303 4.84244 -0.579568 0
M  V30 6195 H 576.308 4.68396 -2.87898 0
M  V30 6196 H 577.533 5.82429 -3.49219 0
M  V30 6197 H 575.479 6.42381 -1.32974 0
M  V30 6198 H 575.396 6.94806 -2.97961 0
M  V30 6199 H 576.664 7.54662 -1.95206 0
M  V30 6200 N 580.893 1.08022 1.14757 0
M  V30 6201 C 581.84 0.706657 2.19716 0
M  V30 6202 C 582.81 -0.30525 1.63271 0
M  V30 6203 O 583.995 -0.19015 1.8985 0
M  V30 6204 C 581.135 0.117914 3.44898 0
M  V30 6205 C 580.248 1.18212 4.15512 0
M  V30 6206 C 579.383 0.557659 5.28265 0
M  V30 6207 C 578.422 1.60418 5.90705 0
M  V30 6208 N 577.559 1.0018 6.94916 0
M  V30 6209 H 582.399 1.60603 2.51019 0
M  V30 6210 H 579.936 0.802664 1.23271 0
M  V30 6211 H 581.894 -0.241112 4.16503 0
M  V30 6212 H 580.524 -0.744788 3.1409 0
M  V30 6213 H 579.576 1.65863 3.42335 0
M  V30 6214 H 580.888 1.97533 4.5802 0
M  V30 6215 H 580.042 0.146654 6.06523 0
M  V30 6216 H 578.781 -0.267249 4.86967 0
M  V30 6217 H 577.786 2.02489 5.11154 0
M  V30 6218 H 579.011 2.43149 6.34078 0
M  V30 6219 H 576.957 0.197917 6.55701 0
M  V30 6220 H 576.874 1.73216 7.35889 0
M  V30 6221 H 578.142 0.616523 7.77058 0
M  V30 6222 N 582.371 -1.3172 0.865308 0
M  V30 6223 C 583.782 -1.79104 0.527126 0
M  V30 6224 C 584.133 -1.7135 -0.955695 0
M  V30 6225 O 583.258 -1.27845 -1.74598 0
M  V30 6226 C 583.853 -3.25207 0.950061 0
M  V30 6227 C 582.412 -3.70504 0.663611 0
M  V30 6228 C 581.559 -2.52605 1.14395 0
M  V30 6229 H 584.51 -1.18868 1.05148 0
M  V30 6230 H 584.531 -3.79535 0.270805 0
M  V30 6231 H 584.043 -3.30818 2.02931 0
M  V30 6232 H 582.144 -3.70398 -0.404474 0
M  V30 6233 H 582.257 -4.62845 1.23737 0
M  V30 6234 H 580.621 -2.4838 0.563859 0
M  V30 6235 H 581.404 -2.60964 2.23053 0
M  V30 6236 N 583.85 -0.624285 -1.44708 0
M  V30 6237 C 584.783 0.133905 -2.27807 0
M  V30 6238 C 585.76 0.857794 -1.38133 0
M  V30 6239 O 586.945 0.863277 -1.6757 0
M  V30 6240 C 584.072 1.19541 -3.16903 0
M  V30 6241 C 583.118 0.572813 -4.22636 0
M  V30 6242 S 583.951 -0.631953 -5.31758 0
M  V30 6243 C 585.106 0.429733 -6.24423 0
M  V30 6244 H 585.34 -0.571072 -2.91764 0
M  V30 6245 H 582.873 -0.412261 -1.48794 0
M  V30 6246 H 584.831 1.80293 -3.68788 0
M  V30 6247 H 583.492 1.87255 -2.5218 0
M  V30 6248 H 582.685 1.37205 -4.84965 0
M  V30 6249 H 582.287 0.0400641 -3.73979 0
M  V30 6250 H 584.579 1.30421 -6.64828 0
M  V30 6251 H 585.522 -0.157804 -7.07924 0
M  V30 6252 H 585.93 0.75256 -5.59461 0
M  V30 6253 N 585.328 1.53329 -0.364422 0
M  V30 6254 C 586.574 2.01537 0.225969 0
M  V30 6255 C 586.907 1.25128 1.48515 0
M  V30 6256 O 586.182 0.344653 1.91422 0
M  V30 6257 C 586.465 3.56339 0.519092 0
M  V30 6258 C 586.318 4.43441 -0.753639 0
M  V30 6259 C 587.637 4.19833 1.32015 0
M  V30 6260 H 584.756 0.732573 0.0806548 0
M  V30 6261 H 587.398 1.83597 -0.489084 0
M  V30 6262 H 585.548 3.71756 1.12825 0
M  V30 6263 H 587.22 4.39823 -1.39116 0
M  V30 6264 H 585.463 4.11457 -1.37424 0
M  V30 6265 H 586.134 5.49699 -0.503517 0
M  V30 6266 H 588.61 4.08242 0.804859 0
M  V30 6267 H 587.486 5.28177 1.49399 0
M  V30 6268 H 587.747 3.75821 2.32832 0
M  V30 6269 N 586.806 0.0935595 1.57322 0
M  V30 6270 C 588.052 -0.571355 1.94585 0
M  V30 6271 C 588.385 -1.67929 0.975366 0
M  V30 6272 O 587.66 -1.94498 0.00816206 0
M  V30 6273 C 587.943 -1.12797 3.41978 0
M  V30 6274 C 587.796 -0.0251881 4.49793 0
M  V30 6275 C 589.115 -2.02682 3.90651 0
M  V30 6276 H 586.234 -0.206223 0.70756 0
M  V30 6277 H 588.876 0.163956 1.89291 0
M  V30 6278 H 587.026 -1.75461 3.4662 0
M  V30 6279 H 588.698 0.608979 4.57263 0
M  V30 6280 H 586.941 0.641399 4.29032 0
M  V30 6281 H 587.612 -0.455433 5.50118 0
M  V30 6282 H 590.088 -1.49925 3.88152 0
M  V30 6283 H 588.964 -2.38555 4.94351 0
M  V30 6284 H 589.225 -2.94362 3.29854 0
M  V30 6285 N 588.284 -1.56567 -0.180126 0
M  V30 6286 C 589.194 -1.98947 -1.24327 0
M  V30 6287 C 590.21 -0.899446 -1.4895 0
M  V30 6288 O 591.386 -1.20639 -1.61271 0
M  V30 6289 C 588.451 -2.33328 -2.56435 0
M  V30 6290 C 587.512 -3.56114 -2.39752 0
M  V30 6291 C 586.745 -3.88845 -3.65561 0
M  V30 6292 O 586.968 -3.22662 -4.70368 0
M  V30 6293 O 585.902 -4.82226 -3.60197 0
M  V30 6294 H 589.728 -2.89634 -0.913565 0
M  V30 6295 H 587.313 -1.44319 -0.386306 0
M  V30 6296 H 589.195 -2.5645 -3.34382 0
M  V30 6297 H 587.87 -1.45806 -2.89002 0
M  V30 6298 H 586.777 -3.38221 -1.59866 0
M  V30 6299 H 588.11 -4.4415 -2.12113 0
M  V30 6300 N 589.762 0.448376 -1.51087 0
M  V30 6301 C 590.99 1.22143 -1.66999 0
M  V30 6302 C 591.405 1.85283 -0.362699 0
M  V30 6303 O 590.762 1.70236 0.65772 0
M  V30 6304 C 590.813 2.31357 -2.7777 0
M  V30 6305 O 590.534 1.70801 -4.03434 0
M  V30 6306 C 592.035 3.21836 -3.04855 0
M  V30 6307 H 589.255 0.368558 -0.560719 0
M  V30 6308 H 591.799 0.532618 -1.97442 0
M  V30 6309 H 589.954 2.95973 -2.49958 0
M  V30 6310 H 590.368 2.42895 -4.64868 0
M  V30 6311 H 591.842 3.94627 -3.85971 0
M  V30 6312 H 592.319 3.81949 -2.16821 0
M  V30 6313 H 592.925 2.62933 -3.34285 0
M  V30 6314 N 591.24 1.41047 0.703093 0
M  V30 6315 C 592.487 1.4 1.46309 0
M  V30 6316 C 592.815 0.00654574 1.94499 0
M  V30 6317 O 592.07 -0.980255 1.6938 0
M  V30 6318 C 592.369 2.34686 2.6955 0
M  V30 6319 C 592.035 3.81684 2.40058 0
M  V30 6320 C 590.697 4.21731 2.31725 0
M  V30 6321 C 593.049 4.74525 2.15581 0
M  V30 6322 C 590.377 5.52637 1.97001 0
M  V30 6323 C 592.729 6.05744 1.82366 0
M  V30 6324 C 591.393 6.44819 1.72524 0
M  V30 6325 H 590.663 0.512295 0.535382 0
M  V30 6326 H 593.31 1.73792 0.804275 0
M  V30 6327 H 591.615 1.94122 3.40329 0
M  V30 6328 H 593.312 2.31152 3.27673 0
M  V30 6329 H 589.902 3.49963 2.47435 0
M  V30 6330 H 594.086 4.44395 2.20968 0
M  V30 6331 H 589.342 5.81802 1.87928 0
M  V30 6332 H 593.516 6.77189 1.62444 0
M  V30 6333 H 591.143 7.46168 1.45385 0
M  V30 6334 N 592.718 -0.936591 1.26751 0
M  V30 6335 C 593.946 -1.71758 1.15355 0
M  V30 6336 C 594.361 -1.86549 -0.290683 0
M  V30 6337 O 593.718 -1.37616 -1.19868 0
M  V30 6338 C 593.769 -3.12193 1.82258 0
M  V30 6339 O 593.49 -2.98105 3.21038 0
M  V30 6340 C 594.991 -4.06485 1.76875 0
M  V30 6341 H 592.211 -0.537636 0.401483 0
M  V30 6342 H 594.755 -1.17382 1.67457 0
M  V30 6343 H 592.91 -3.63456 1.34083 0
M  V30 6344 H 593.324 -3.86824 3.54214 0
M  V30 6345 H 594.798 -5.02569 2.28316 0
M  V30 6346 H 595.275 -4.32986 0.736216 0
M  V30 6347 H 595.881 -3.61144 2.24623 0
M  V30 6348 N 594.196 -1.08629 -1.14182 0
M  V30 6349 C 595.106 -0.730126 -2.22949 0
M  V30 6350 C 596.122 0.26436 -1.7198 0
M  V30 6351 O 597.298 0.107742 -2.01112 0
M  V30 6352 C 594.363 -0.147227 -3.46387 0
M  V30 6353 C 593.424 -1.19662 -4.12286 0
M  V30 6354 C 592.657 -0.641437 -5.29831 0
M  V30 6355 O 592.88 0.538351 -5.67854 0
M  V30 6356 O 591.814 -1.39257 -5.85569 0
M  V30 6357 H 595.64 -1.63753 -2.55771 0
M  V30 6358 H 593.225 -0.860118 -1.22157 0
M  V30 6359 H 595.107 0.174923 -4.21037 0
M  V30 6360 H 593.782 0.733304 -3.15285 0
M  V30 6361 H 592.689 -1.57133 -3.395 0
M  V30 6362 H 594.022 -2.0495 -4.475 0
M  V30 6363 N 595.674 1.31259 -0.872281 0
M  V30 6364 C 596.904 2.00504 -0.498183 0
M  V30 6365 C 597.312 1.65632 0.914479 0
M  V30 6366 O 596.655 0.882849 1.61095 0
M  V30 6367 C 596.717 3.5482 -0.578194 0
M  V30 6368 C 596.381 4.13172 -1.95289 0
M  V30 6369 C 597.378 4.30107 -2.92069 0
M  V30 6370 C 595.063 4.48846 -2.25483 0
M  V30 6371 C 597.057 4.81908 -4.17185 0
M  V30 6372 C 594.744 5.00349 -3.50847 0
M  V30 6373 C 595.742 5.16831 -4.46514 0
M  V30 6374 O 595.43 5.67228 -5.69656 0
M  V30 6375 H 595.162 0.648055 -0.192354 0
M  V30 6376 H 597.716 1.6841 -1.17589 0
M  V30 6377 H 595.946 3.86383 0.156438 0
M  V30 6378 H 597.635 4.05318 -0.217192 0
M  V30 6379 H 598.401 4.02862 -2.7005 0
M  V30 6380 H 594.28 4.35292 -1.51795 0
M  V30 6381 H 597.824 4.94688 -4.91863 0
M  V30 6382 H 593.721 5.27028 -3.72708 0
M  V30 6383 H 594.489 5.85592 -5.7186 0
M  V30 6384 N 597.152 0.631951 1.44375 0
M  V30 6385 C 598.563 0.219036 1.85411 0
M  V30 6386 C 598.914 -1.22974 1.52879 0
M  V30 6387 O 598.039 -1.93579 0.967266 0
M  V30 6388 C 598.634 0.39075 3.36539 0
M  V30 6389 C 597.193 0.0323351 3.76386 0
M  V30 6390 C 596.34 0.703744 2.68221 0
M  V30 6391 H 599.291 0.837056 1.3483 0
M  V30 6392 H 599.312 -0.370056 3.78696 0
M  V30 6393 H 598.824 1.44527 3.60185 0
M  V30 6394 H 596.925 -1.02042 3.58355 0
M  V30 6395 H 597.038 0.442969 4.77048 0
M  V30 6396 H 595.402 0.138974 2.54321 0
M  V30 6397 H 596.185 1.76088 2.947 0
M  V30 6398 N 598.631 -1.53133 0.372548 0
M  V30 6399 C 600.042 -1.86404 -0.105155 0
M  V30 6400 C 600.393 -1.29289 -1.47576 0
M  V30 6401 O 599.518 -0.617646 -2.07398 0
M  V30 6402 C 600.113 -3.38223 -0.197588 0
M  V30 6403 C 598.672 -3.71266 -0.619556 0
M  V30 6404 C 597.819 -2.76353 0.228919 0
M  V30 6405 H 600.77 -1.47282 0.591077 0
M  V30 6406 H 600.791 -3.66577 -1.01987 0
M  V30 6407 H 600.303 -3.79763 0.800099 0
M  V30 6408 H 598.404 -3.35287 -1.62522 0
M  V30 6409 H 598.517 -4.77515 -0.389332 0
M  V30 6410 H 596.881 -2.52888 -0.303271 0
M  V30 6411 H 597.664 -3.20728 1.22428 0
M  V30 6412 N 600.109 -0.101901 -1.5727 0
M  V30 6413 C 601.039 0.851544 -2.17419 0
M  V30 6414 C 602.02 1.28942 -1.10941 0
M  V30 6415 O 603.205 1.35509 -1.39107 0
M  V30 6416 C 600.335 2.10816 -2.75996 0
M  V30 6417 C 599.289 1.80867 -3.87906 0
M  V30 6418 C 598.615 3.13413 -4.33216 0
M  V30 6419 C 599.915 1.0903 -5.10793 0
M  V30 6420 H 601.609 0.350381 -2.97343 0
M  V30 6421 H 599.155 0.16709 -1.43027 0
M  V30 6422 H 601.108 2.77959 -3.16729 0
M  V30 6423 H 599.832 2.63227 -1.93337 0
M  V30 6424 H 598.491 1.16119 -3.47724 0
M  V30 6425 H 598.139 3.63725 -3.47438 0
M  V30 6426 H 597.839 2.94155 -5.08671 0
M  V30 6427 H 599.363 3.81704 -4.76586 0
M  V30 6428 H 600.777 1.66295 -5.48652 0
M  V30 6429 H 599.174 0.99927 -5.91722 0
M  V30 6430 H 600.244 0.0741704 -4.84843 0
M  V30 6431 N 601.587 1.56661 0.17182 0
M  V30 6432 C 602.835 1.81606 0.886774 0
M  V30 6433 C 603.156 0.678818 1.82803 0
M  V30 6434 O 602.426 -0.301354 1.93568 0
M  V30 6435 H 601.006 0.669934 0.330451 0
M  V30 6436 H 603.668 1.94142 0.171757 0
M  V30 6437 H 602.764 2.75634 1.46398 0
M  V30 6438 N 603.065 -0.440357 1.51323 0
M  V30 6439 C 604.481 -0.7766 1.39431 0
M  V30 6440 C 604.681 -1.95838 0.474296 0
M  V30 6441 O 603.737 -2.52398 -0.0716692 0
M  V30 6442 C 605.05 -1.05981 2.81405 0
M  V30 6443 C 606.598 -1.16442 2.90534 0
M  V30 6444 C 607.073 -1.48058 4.33408 0
M  V30 6445 N 608.564 -1.54988 4.36501 0
M  V30 6446 C 609.299 -1.81017 5.44078 0
M  V30 6447 N 608.795 -2.04858 6.61819 0
M  V30 6448 N 610.588 -1.82774 5.31554 0
M  V30 6449 H 602.739 0.338006 2.09693 0
M  V30 6450 H 605.002 0.0888072 0.943831 0
M  V30 6451 H 604.708 -0.264173 3.50706 0
M  V30 6452 H 604.582 -1.98822 3.20546 0
M  V30 6453 H 606.969 -1.95068 2.21432 0
M  V30 6454 H 607.05 -0.215088 2.54894 0
M  V30 6455 H 606.694 -0.699605 5.03059 0
M  V30 6456 H 606.624 -2.44192 4.66559 0
M  V30 6457 H 609.115 -1.38479 3.51613 0
M  V30 6458 H 609.428 -2.2408 7.396 0
M  V30 6459 H 607.773 -2.02187 6.6494 0
M  V30 6460 H 610.964 -1.63665 4.38556 0
M  V30 6461 H 611.137 -2.02722 6.15474 0
M  V30 6462 N 604.543 -1.41418 -0.695603 0
M  V30 6463 C 605.79 -1.40774 -1.45564 0
M  V30 6464 C 606.118 -0.0168604 -1.94493 0
M  V30 6465 O 605.373 0.971259 -1.69897 0
M  V30 6466 C 605.672 -2.36112 -2.68302 0
M  V30 6467 C 605.338 -3.82952 -2.38031 0
M  V30 6468 C 604 -4.22954 -2.29486 0
M  V30 6469 C 606.352 -4.75662 -2.13061 0
M  V30 6470 C 603.68 -5.53674 -1.94067 0
M  V30 6471 C 606.032 -6.06702 -1.79151 0
M  V30 6472 C 604.696 -6.45725 -1.69102 0
M  V30 6473 H 603.966 -0.515128 -0.532658 0
M  V30 6474 H 606.613 -1.74216 -0.795047 0
M  V30 6475 H 604.918 -1.95924 -3.39295 0
M  V30 6476 H 606.615 -2.32887 -3.26442 0
M  V30 6477 H 603.205 -3.5127 -2.45576 0
M  V30 6478 H 607.389 -4.45561 -2.18608 0
M  V30 6479 H 602.645 -5.8279 -1.8484 0
M  V30 6480 H 606.819 -6.78041 -1.5885 0
M  V30 6481 H 604.446 -7.46929 -1.41426 0
M  V30 6482 N 606.021 0.929856 -1.27246 0
M  V30 6483 C 606.984 2.01172 -1.09829 0
M  V30 6484 C 607.984 1.60743 -0.0429687 0
M  V30 6485 O 609.174 1.71813 -0.287373 0
M  V30 6486 C 606.306 3.34191 -0.673003 0
M  V30 6487 H 607.499 2.18054 -2.05895 0
M  V30 6488 H 605.052 1.11036 -1.10003 0
M  V30 6489 H 605.787 3.23009 0.289134 0
M  V30 6490 H 605.572 3.64892 -1.43515 0
M  V30 6491 H 607.062 4.13646 -0.573323 0
M  V30 6492 N 607.499 1.09233 1.13605 0
M  V30 6493 C 608.748 0.82205 1.84188 0
M  V30 6494 C 609.061 -0.654548 1.84323 0
M  V30 6495 O 610.267 -1.04029 2.50779 0
M  V30 6496 C 608.723 1.42066 3.30674 0
M  V30 6497 C 608.331 2.92965 3.38933 0
M  V30 6498 C 610.075 1.22924 4.06313 0
M  V30 6499 C 607.982 3.45922 4.79679 0
M  V30 6500 H 606.912 0.303854 0.690064 0
M  V30 6501 H 609.563 1.31479 1.28006 0
M  V30 6502 H 607.945 0.855613 3.86646 0
M  V30 6503 H 609.119 3.55679 2.92966 0
M  V30 6504 H 607.434 3.11118 2.76757 0
M  V30 6505 H 610.031 1.59945 5.10217 0
M  V30 6506 H 610.374 0.169726 4.15954 0
M  V30 6507 H 610.907 1.76168 3.56665 0
M  V30 6508 H 607.646 4.51484 4.75229 0
M  V30 6509 H 607.166 2.87971 5.26149 0
M  V30 6510 H 608.845 3.43009 5.48592 0
M  V30 6511 N 608.977 -1.30795 0.87923 0
M  V30 6512 C 610.393 -1.48981 0.57243 0
M  V30 6513 C 610.593 -1.80719 -0.891236 0
M  V30 6514 O 609.649 -1.89136 -1.67283 0
M  V30 6515 C 610.962 -2.61721 1.48063 0
M  V30 6516 C 612.51 -2.75603 1.48365 0
M  V30 6517 C 612.985 -3.91449 2.37763 0
M  V30 6518 N 614.476 -3.98751 2.35695 0
M  V30 6519 C 615.211 -4.87684 3.01583 0
M  V30 6520 N 614.707 -5.81454 3.76674 0
M  V30 6521 N 616.5 -4.81005 2.90844 0
M  V30 6522 H 608.651 -1.08465 1.82617 0
M  V30 6523 H 610.914 -0.536813 0.781368 0
M  V30 6524 H 610.62 -2.45073 2.52254 0
M  V30 6525 H 610.494 -3.58071 1.18596 0
M  V30 6526 H 612.881 -2.9166 0.44927 0
M  V30 6527 H 612.962 -1.79891 1.81859 0
M  V30 6528 H 612.606 -3.76149 3.41283 0
M  V30 6529 H 612.536 -4.86487 2.01589 0
M  V30 6530 H 615.027 -3.31668 1.81121 0
M  V30 6531 H 615.34 -6.46063 4.24054 0
M  V30 6532 H 613.685 -5.81403 3.80782 0
M  V30 6533 H 616.876 -4.06728 2.31711 0
M  V30 6534 H 617.049 -5.50107 3.42471 0
M  V30 6535 N 610.455 -0.639598 -1.44038 0
M  V30 6536 C 611.732 -0.078012 -1.95444 0
M  V30 6537 C 612.112 1.39847 -1.58133 0
M  V30 6538 O 611.46 2.11714 -0.859614 0
M  V30 6539 C 611.67 -0.309832 -3.47622 0
M  V30 6540 C 613.018 -0.207521 -4.24093 0
M  V30 6541 O 614.042 -0.241653 -3.55379 0
M  V30 6542 O 612.901 -0.119641 -5.46369 0
M  V30 6543 H 609.995 0.0174534 -0.826816 0
M  V30 6544 H 612.541 -0.711891 -1.54046 0
M  V30 6545 H 611.313 -1.33401 -3.67858 0
M  V30 6546 H 610.936 0.357777 -3.95987 0
M  V30 6547 N 611.933 1.52934 -0.380664 0
M  V30 6548 C 612.866 2.22597 0.502564 0
M  V30 6549 C 613.844 1.22345 1.071 0
M  V30 6550 O 615.028 1.51302 1.12428 0
M  V30 6551 C 612.155 2.93246 1.69482 0
M  V30 6552 C 611.201 4.07696 1.25244 0
M  V30 6553 S 612.034 5.34957 0.241159 0
M  V30 6554 C 613.19 6.09124 1.4394 0
M  V30 6555 H 613.423 2.97167 -0.089029 0
M  V30 6556 H 610.956 1.53518 -0.164817 0
M  V30 6557 H 612.914 3.34562 2.37863 0
M  V30 6558 H 611.575 2.18373 2.2577 0
M  V30 6559 H 610.768 4.56199 2.1424 0
M  V30 6560 H 610.37 3.68349 0.647664 0
M  V30 6561 H 612.662 6.34771 2.36794 0
M  V30 6562 H 613.605 7.01068 0.995464 0
M  V30 6563 H 614.013 5.39777 1.65229 0
M  V30 6564 N 613.412 0.11024 1.57214 0
M  V30 6565 C 614.828 -0.24638 1.57687 0
M  V30 6566 C 615.028 -1.67344 1.12241 0
M  V30 6567 O 614.084 -2.39298 0.805783 0
M  V30 6568 C 615.397 -0.0210288 3.00693 0
M  V30 6569 C 616.945 -0.0876077 3.12877 0
M  V30 6570 C 617.42 0.10994 4.57868 0
M  V30 6571 N 618.911 0.0556135 4.63167 0
M  V30 6572 C 619.646 0.183495 5.73106 0
M  V30 6573 N 619.142 0.367058 6.91827 0
M  V30 6574 N 620.935 0.123689 5.61964 0
M  V30 6575 H 613.086 1.04246 1.85058 0
M  V30 6576 H 615.349 0.40979 0.854854 0
M  V30 6577 H 615.055 0.965203 3.38196 0
M  V30 6578 H 614.929 -0.756748 3.69531 0
M  V30 6579 H 617.316 -1.06436 2.75237 0
M  V30 6580 H 617.397 0.67985 2.466 0
M  V30 6581 H 617.041 1.08362 4.96206 0
M  V30 6582 H 616.971 -0.677397 5.22225 0
M  V30 6583 H 619.462 -0.0831062 3.77809 0
M  V30 6584 H 619.775 0.455739 7.71455 0
M  V30 6585 H 618.12 0.40292 6.93831 0
M  V30 6586 H 621.311 -0.0186928 4.68096 0
M  V30 6587 H 621.484 0.226797 6.47603 0
M  V30 6588 N 614.89 -1.56749 -0.16351 0
M  V30 6589 C 615.822 -1.93587 -1.22705 0
M  V30 6590 C 616.835 -0.829824 -1.40063 0
M  V30 6591 O 618.024 -1.10826 -1.39928 0
M  V30 6592 C 615.124 -2.1803 -2.59454 0
M  V30 6593 C 614.297 -3.4928 -2.63292 0
M  V30 6594 C 613.356 -3.62457 -3.8146 0
M  V30 6595 O 612.382 -4.35004 -3.67096 0
M  V30 6596 N 613.584 -2.97888 -4.9824 0
M  V30 6597 H 616.349 -2.8542 -0.914081 0
M  V30 6598 H 613.91 -1.58 -0.353214 0
M  V30 6599 H 615.902 -2.24102 -3.36987 0
M  V30 6600 H 614.472 -1.32543 -2.8311 0
M  V30 6601 H 613.692 -3.54795 -1.71796 0
M  V30 6602 H 614.98 -4.35632 -2.62873 0
M  V30 6603 H 614.378 -2.38833 -5.12811 0
M  V30 6604 H 612.935 -3.09545 -5.73607 0
M  V30 6605 N 616.368 0.432326 -1.51554 0
M  V30 6606 C 617.596 1.20364 -1.68286 0
M  V30 6607 C 618.011 1.84888 -0.38233 0
M  V30 6608 O 617.368 1.70924 0.639627 0
M  V30 6609 C 617.419 2.28398 -2.80208 0
M  V30 6610 O 617.14 1.66512 -4.05223 0
M  V30 6611 C 618.641 3.18584 -3.08251 0
M  V30 6612 H 615.861 0.36259 -0.564596 0
M  V30 6613 H 618.405 0.511647 -1.97996 0
M  V30 6614 H 616.56 2.93305 -2.53083 0
M  V30 6615 H 616.974 2.37951 -4.67418 0
M  V30 6616 H 618.448 3.90511 -3.90135 0
M  V30 6617 H 618.925 3.79628 -2.2086 0
M  V30 6618 H 619.531 2.59372 -3.37055 0
M  V30 6619 N 617.846 1.41785 0.688094 0
M  V30 6620 C 619.095 1.4084 1.44385 0
M  V30 6621 C 619.408 0.0234166 1.95586 0
M  V30 6622 O 620.614 -0.108647 2.71283 0
M  V30 6623 C 619.07 2.47675 2.61123 0
M  V30 6624 C 618.678 3.92116 2.16677 0
M  V30 6625 C 620.422 2.55877 3.38714 0
M  V30 6626 C 618.329 4.90487 3.30419 0
M  V30 6627 H 617.259 0.523787 0.542368 0
M  V30 6628 H 619.91 1.6764 0.74627 0
M  V30 6629 H 618.292 2.14018 3.33185 0
M  V30 6630 H 619.466 4.35059 1.51856 0
M  V30 6631 H 617.781 3.87642 1.5206 0
M  V30 6632 H 620.378 3.26553 4.234 0
M  V30 6633 H 620.721 1.59801 3.84408 0
M  V30 6634 H 621.254 2.88662 2.73714 0
M  V30 6635 H 617.993 5.87994 2.89729 0
M  V30 6636 H 617.513 4.52187 3.94065 0
M  V30 6637 H 619.192 5.11591 3.96085 0
M  V30 6638 N 619.324 -0.923095 1.27737 0
M  V30 6639 C 620.287 -2.00587 1.10894 0
M  V30 6640 C 621.287 -1.60718 0.0514927 0
M  V30 6641 O 622.477 -1.71658 0.296481 0
M  V30 6642 C 619.609 -3.33829 0.690717 0
M  V30 6643 H 620.802 -2.16959 2.07048 0
M  V30 6644 H 618.355 -1.10451 1.1059 0
M  V30 6645 H 619.09 -3.23157 -0.272 0
M  V30 6646 H 618.875 -3.64125 1.45448 0
M  V30 6647 H 620.365 -4.13336 0.595252 0
M  V30 6648 N 620.802 -1.09834 -1.13024 0
M  V30 6649 C 622.048 -0.83819 -1.84668 0
M  V30 6650 C 622.381 0.634645 -1.83537 0
M  V30 6651 O 621.656 1.46753 -1.27647 0
M  V30 6652 C 621.939 -1.37933 -3.32636 0
M  V30 6653 C 621.792 -2.91857 -3.42257 0
M  V30 6654 C 623.111 -1.01654 -4.28199 0
M  V30 6655 H 620.23 -0.30595 -0.670495 0
M  V30 6656 H 622.872 -1.36044 -1.32635 0
M  V30 6657 H 621.022 -0.935111 -3.77078 0
M  V30 6658 H 622.694 -3.44759 -3.06495 0
M  V30 6659 H 620.937 -3.28776 -2.83 0
M  V30 6660 H 621.608 -3.24799 -4.46329 0
M  V30 6661 H 624.084 -1.39973 -3.9185 0
M  V30 6662 H 622.96 -1.42217 -5.30156 0
M  V30 6663 H 623.221 0.0747794 -4.42037 0
M  V30 6664 N 622.28 1.30327 -0.886154 0
M  V30 6665 C 623.528 1.9571 -0.504195 0
M  V30 6666 C 623.849 1.70294 0.950003 0
M  V30 6667 O 623.119 1.02718 1.66811 0
M  V30 6668 H 621.699 0.72412 -0.183465 0
M  V30 6669 H 624.361 1.58835 -1.12949 0
M  V30 6670 H 623.457 3.04704 -0.675431 0
M  V30 6671 N 623.758 0.647228 1.43697 0
M  V30 6672 C 625.007 0.155552 2.01099 0
M  V30 6673 C 625.32 -1.23569 1.51624 0
M  V30 6674 O 626.526 -1.82226 2.01261 0
M  V30 6675 C 624.982 0.227296 3.59182 0
M  V30 6676 C 624.59 1.62086 4.17651 0
M  V30 6677 C 626.334 -0.207085 4.23995 0
M  V30 6678 C 624.241 1.64685 5.68008 0
M  V30 6679 H 623.171 0.0543895 0.752036 0
M  V30 6680 H 625.822 0.808386 1.64734 0
M  V30 6681 H 624.204 -0.492937 3.9292 0
M  V30 6682 H 625.378 2.36597 3.95422 0
M  V30 6683 H 623.693 2.0007 3.65186 0
M  V30 6684 H 626.29 -0.207426 5.34298 0
M  V30 6685 H 626.633 -1.23742 3.97484 0
M  V30 6686 H 627.166 0.461193 3.95118 0
M  V30 6687 H 623.905 2.65608 5.99277 0
M  V30 6688 H 623.425 0.944914 5.9231 0
M  V30 6689 H 625.104 1.38792 6.31938 0
M  V30 6690 N 625.236 -1.5273 0.388769 0
M  V30 6691 C 626.485 -2.00757 -0.194833 0
M  V30 6692 C 626.798 -1.27951 -1.47946 0
M  V30 6693 O 628.004 -1.66686 -2.14308 0
M  V30 6694 C 626.46 -3.57695 -0.397762 0
M  V30 6695 C 626.068 -4.394 0.873583 0
M  V30 6696 C 627.812 -4.14012 -0.937759 0
M  V30 6697 C 625.719 -5.87938 0.638962 0
M  V30 6698 H 624.649 -0.750101 -0.0765845 0
M  V30 6699 H 627.3 -1.76239 0.511086 0
M  V30 6700 H 625.682 -3.7846 -1.16552 0
M  V30 6701 H 626.856 -4.30403 1.64591 0
M  V30 6702 H 625.171 -3.94301 1.33849 0
M  V30 6703 H 627.768 -5.22645 -1.12899 0
M  V30 6704 H 628.111 -3.7007 -1.90666 0
M  V30 6705 H 628.644 -3.97137 -0.229588 0
M  V30 6706 H 625.383 -6.36202 1.57885 0
M  V30 6707 H 624.903 -5.99726 -0.094443 0
M  V30 6708 H 626.582 -6.46423 0.273299 0
M  V30 6709 N 626.714 -0.118576 -1.57153 0
M  V30 6710 C 627.662 0.849114 -2.16547 0
M  V30 6711 C 628.656 1.27567 -1.11458 0
M  V30 6712 O 629.862 1.24746 -1.29763 0
M  V30 6713 H 626.237 0.291935 -0.693021 0
M  V30 6714 H 628.208 0.323693 -2.96639 0
M  V30 6715 C 626.957 2.08951 -2.77912 0
M  V30 6716 H 626.28 1.77021 -3.58474 0
M  V30 6717 H 627.72 2.74666 -3.23008 0
M  V30 6718 C 626.179 2.87899 -1.74974 0
M  V30 6719 O 626.709 3.83268 -1.20285 0
M  V30 6720 N 624.915 2.51884 -1.44924 0
M  V30 6721 H 624.462 1.74397 -1.89587 0
M  V30 6722 H 624.42 3.05003 -0.762921 0
M  V30 6723 N 628.193 1.56834 0.155195 0
M  V30 6724 C 629.125 1.94235 1.21677 0
M  V30 6725 C 630.138 0.83724 1.39621 0
M  V30 6726 O 631.327 1.11567 1.39338 0
M  V30 6727 C 628.427 2.19402 2.58294 0
M  V30 6728 C 627.6 3.50671 2.61436 0
M  V30 6729 C 626.659 3.64475 3.79532 0
M  V30 6730 O 625.685 4.36945 3.64784 0
M  V30 6731 N 626.887 3.00526 4.96653 0
M  V30 6732 H 629.652 2.85901 0.898932 0
M  V30 6733 H 627.213 1.58185 0.34483 0
M  V30 6734 H 629.205 2.25886 3.35794 0
M  V30 6735 H 627.775 1.34042 2.82403 0
M  V30 6736 H 626.995 3.55702 1.69912 0
M  V30 6737 H 628.283 4.3702 2.60559 0
M  V30 6738 H 627.681 2.41549 5.11538 0
M  V30 6739 H 626.238 3.12583 5.71958 0
M  V30 6740 N 629.671 -0.424282 1.51781 0
M  V30 6741 C 630.601 -1.52305 1.7699 0
M  V30 6742 C 631.582 -1.5839 0.620209 0
M  V30 6743 O 632.767 -1.73908 0.864268 0
M  V30 6744 C 629.897 -2.90271 1.90683 0
M  V30 6745 C 628.851 -2.99043 3.06198 0
M  V30 6746 C 628.177 -4.39116 3.05092 0
M  V30 6747 C 629.477 -2.7192 4.45934 0
M  V30 6748 H 631.171 -1.31461 2.68995 0
M  V30 6749 H 628.717 -0.630985 1.29439 0
M  V30 6750 H 630.67 -3.6711 2.06901 0
M  V30 6751 H 629.394 -3.12376 0.953365 0
M  V30 6752 H 628.053 -2.24646 2.89706 0
M  V30 6753 H 627.701 -4.58207 2.07498 0
M  V30 6754 H 627.401 -4.45912 3.82669 0
M  V30 6755 H 628.925 -5.17911 3.2342 0
M  V30 6756 H 630.339 -3.38487 4.62709 0
M  V30 6757 H 628.736 -2.90111 5.25315 0
M  V30 6758 H 629.806 -1.67445 4.55072 0
M  V30 6759 N 631.149 -1.42148 -0.680565 0
M  V30 6760 C 632.096 -1.45175 -1.79424 0
M  V30 6761 C 633.066 -0.304352 -1.63288 0
M  V30 6762 O 634.251 -0.507591 -1.83924 0
M  V30 6763 C 631.391 -1.35429 -3.17416 0
M  V30 6764 C 630.504 -2.60158 -3.4488 0
M  V30 6765 C 629.639 -2.42596 -4.72568 0
M  V30 6766 C 628.678 -3.62727 -4.93047 0
M  V30 6767 N 627.815 -3.44143 -6.11973 0
M  V30 6768 H 632.655 -2.40349 -1.76172 0
M  V30 6769 H 630.192 -1.19334 -0.860107 0
M  V30 6770 H 632.15 -1.27777 -3.97151 0
M  V30 6771 H 630.78 -0.438536 -3.19807 0
M  V30 6772 H 629.832 -2.78199 -2.5944 0
M  V30 6773 H 631.144 -3.49473 -3.55908 0
M  V30 6774 H 630.298 -2.32497 -5.60384 0
M  V30 6775 H 629.037 -1.50761 -4.63813 0
M  V30 6776 H 628.042 -3.73264 -4.03676 0
M  V30 6777 H 629.267 -4.55534 -5.03652 0
M  V30 6778 H 627.213 -2.5502 -6.04401 0
M  V30 6779 H 627.13 -4.27041 -6.23836 0
M  V30 6780 H 628.398 -3.37845 -7.02482 0
M  V30 6781 N 632.627 0.916307 -1.28225 0
M  V30 6782 C 634.043 1.19425 -1.05876 0
M  V30 6783 C 634.243 2.005 0.2005 0
M  V30 6784 O 633.299 2.35806 0.902873 0
M  V30 6785 C 634.612 1.93133 -2.30478 0
M  V30 6786 C 636.16 2.06026 -2.35632 0
M  V30 6787 C 636.635 2.83141 -3.59994 0
M  V30 6788 N 638.126 2.90704 -3.60618 0
M  V30 6789 C 638.861 3.50865 -4.53521 0
M  V30 6790 N 638.357 4.12327 -5.56739 0
M  V30 6791 N 640.15 3.48379 -4.41122 0
M  V30 6792 H 632.301 0.37496 -2.09064 0
M  V30 6793 H 634.564 0.228531 -0.920042 0
M  V30 6794 H 634.27 1.40985 -3.22205 0
M  V30 6795 H 634.144 2.93696 -2.36691 0
M  V30 6796 H 636.531 2.57355 -1.44404 0
M  V30 6797 H 636.612 1.04647 -2.33415 0
M  V30 6798 H 636.256 2.32492 -4.51564 0
M  V30 6799 H 636.186 3.84829 -3.59464 0
M  V30 6800 H 638.677 2.47034 -2.85977 0
M  V30 6801 H 638.99 4.56205 -6.23776 0
M  V30 6802 H 637.335 4.10839 -5.60568 0
M  V30 6803 H 640.526 2.99572 -3.59686 0
M  V30 6804 H 640.699 3.94974 -5.13712 0
M  V30 6805 N 634.105 1.10431 1.1244 0
M  V30 6806 C 635.052 0.753103 2.18167 0
M  V30 6807 C 636.022 -0.270549 1.63882 0
M  V30 6808 O 637.207 -0.149837 1.90211 0
M  V30 6809 C 634.347 0.191046 3.44571 0
M  V30 6810 C 633.46 1.26999 4.12911 0
M  V30 6811 C 632.595 0.669586 5.26963 0
M  V30 6812 C 631.634 1.72912 5.87169 0
M  V30 6813 N 630.771 1.14898 6.92635 0
M  V30 6814 H 635.611 1.65892 2.47556 0
M  V30 6815 H 633.148 0.828631 1.21541 0
M  V30 6816 H 635.106 -0.152712 4.1692 0
M  V30 6817 H 633.736 -0.677997 3.15599 0
M  V30 6818 H 632.788 1.73087 3.3874 0
M  V30 6819 H 634.1 2.07204 4.53727 0
M  V30 6820 H 633.254 0.275274 6.06075 0
M  V30 6821 H 631.993 -0.163895 4.87425 0
M  V30 6822 H 630.998 2.13286 5.06744 0
M  V30 6823 H 632.223 2.56544 6.28778 0
M  V30 6824 H 630.169 0.336956 6.55134 0
M  V30 6825 H 630.086 1.88786 7.32049 0
M  V30 6826 H 631.354 0.78121 7.75576 0
M  V30 6827 N 635.583 -1.29855 0.893053 0
M  V30 6828 C 636.531 -2.29867 0.355512 0
M  V30 6829 C 637.525 -1.60502 -0.541801 0
M  V30 6830 O 638.731 -1.74902 -0.425339 0
M  V30 6831 H 635.106 -0.745805 0.0963247 0
M  V30 6832 H 637.077 -2.72655 1.21252 0
M  V30 6833 C 635.826 -3.453 -0.407801 0
M  V30 6834 H 635.149 -3.98864 0.273426 0
M  V30 6835 H 636.589 -4.17334 -0.748887 0
M  V30 6836 C 635.048 -2.96051 -1.60795 0
M  V30 6837 O 635.578 -2.96763 -2.7073 0
M  V30 6838 N 633.784 -2.51963 -1.44786 0
M  V30 6839 H 633.331 -2.51583 -0.553498 0
M  V30 6840 H 633.289 -2.1937 -2.2522 0
M  V30 6841 N 637.061 -0.65484 -1.43351 0
M  V30 6842 C 637.991 0.0221809 -2.33489 0
M  V30 6843 C 638.972 0.810272 -1.49561 0
M  V30 6844 O 640.157 0.771426 -1.78221 0
M  V30 6845 C 637.287 0.988117 -3.32947 0
M  V30 6846 C 636.241 0.310026 -4.26876 0
M  V30 6847 C 635.567 1.38752 -5.16384 0
M  V30 6848 C 636.867 -0.798589 -5.16159 0
M  V30 6849 H 638.561 -0.730571 -2.9035 0
M  V30 6850 H 636.107 -0.352773 -1.39612 0
M  V30 6851 H 638.06 1.47067 -3.94904 0
M  V30 6852 H 636.784 1.77205 -2.74346 0
M  V30 6853 H 635.443 -0.152097 -3.66284 0
M  V30 6854 H 635.091 2.16293 -4.54121 0
M  V30 6855 H 634.791 0.939051 -5.80048 0
M  V30 6856 H 636.315 1.87141 -5.81215 0
M  V30 6857 H 637.729 -0.398126 -5.71916 0
M  V30 6858 H 636.126 -1.17163 -5.88552 0
M  V30 6859 H 637.196 -1.65588 -4.55751 0
M  V30 6860 N 638.539 1.52521 -0.396863 0
M  V30 6861 C 639.787 2.01274 0.182536 0
M  V30 6862 C 640.108 1.28485 1.46685 0
M  V30 6863 O 639.378 0.407134 1.91623 0
M  V30 6864 H 637.958 0.743671 0.0704442 0
M  V30 6865 H 640.62 1.87547 -0.530289 0
M  V30 6866 H 639.716 3.09687 0.387385 0
M  V30 6867 N 640.017 0.126909 1.57088 0
M  V30 6868 C 640.98 -0.806097 2.14557 0
M  V30 6869 C 641.98 -1.18918 1.08236 0
M  V30 6870 O 643.17 -1.11339 1.33975 0
M  V30 6871 C 640.302 -2.09116 2.69227 0
M  V30 6872 H 641.495 -0.306522 2.98329 0
M  V30 6873 H 639.048 -0.122393 1.5582 0
M  V30 6874 H 639.783 -2.63486 1.89065 0
M  V30 6875 H 639.568 -1.82588 3.46993 0
M  V30 6876 H 641.058 -2.75794 3.13572 0
M  V30 6877 N 641.495 -1.56914 -0.146875 0
M  V30 6878 C 642.741 -1.83628 -0.860741 0
M  V30 6879 C 643.074 -0.708528 -1.80813 0
M  V30 6880 O 642.349 0.287838 -1.92358 0
M  V30 6881 C 642.632 -3.20836 -1.63511 0
M  V30 6882 C 642.485 -4.44174 -0.709199 0
M  V30 6883 C 643.804 -3.55268 -2.59756 0
M  V30 6884 H 640.923 -0.667949 -0.311468 0
M  V30 6885 H 643.565 -1.89582 -0.125936 0
M  V30 6886 H 641.715 -3.15891 -2.26153 0
M  V30 6887 H 643.387 -4.61205 -0.0937781 0
M  V30 6888 H 641.63 -4.33796 -0.0187856 0
M  V30 6889 H 642.301 -5.36785 -1.28707 0
M  V30 6890 H 644.777 -3.60824 -2.07232 0
M  V30 6891 H 643.653 -4.52303 -3.10987 0
M  V30 6892 H 643.914 -2.81231 -3.41118 0
M  V30 6893 N 642.974 0.416227 -1.52004 0
M  V30 6894 C 644.202 1.18573 -1.69553 0
M  V30 6895 C 644.617 1.84472 -0.401919 0
M  V30 6896 O 643.974 1.71593 0.621463 0
M  V30 6897 C 644.025 2.25413 -2.82615 0
M  V30 6898 O 643.746 1.62205 -4.06966 0
M  V30 6899 C 645.247 3.15297 -3.11613 0
M  V30 6900 H 642.467 0.356582 -0.56841 0
M  V30 6901 H 645.011 0.490618 -1.98528 0
M  V30 6902 H 643.166 2.90604 -2.56179 0
M  V30 6903 H 643.58 2.3298 -4.69916 0
M  V30 6904 H 645.054 3.86351 -3.94255 0
M  V30 6905 H 645.531 3.77264 -2.24874 0
M  V30 6906 H 646.137 2.55783 -3.39787 0
M  V30 6907 N 644.452 1.42507 0.673017 0
M  V30 6908 C 645.415 1.4582 1.76831 0
M  V30 6909 C 646.415 0.345542 1.57043 0
M  V30 6910 O 647.605 0.606447 1.63303 0
M  V30 6911 C 644.737 1.29158 3.15485 0
M  V30 6912 H 645.93 2.43345 1.7528 0
M  V30 6913 H 643.483 1.28981 0.882817 0
M  V30 6914 H 644.218 0.325626 3.22661 0
M  V30 6915 H 644.003 2.09797 3.31252 0
M  V30 6916 H 645.493 1.34363 3.95394 0
M  V30 6917 N 645.93 -0.909495 1.28709 0
M  V30 6918 C 646.877 -2.01245 1.13 0
M  V30 6919 C 647.847 -1.6608 0.0259684 0
M  V30 6920 O 649.032 -1.89835 0.191687 0
M  V30 6921 C 646.172 -3.35644 0.802315 0
M  V30 6922 C 645.285 -3.83653 1.98582 0
M  V30 6923 C 644.42 -5.06582 1.59837 0
M  V30 6924 C 643.459 -5.46934 2.74827 0
M  V30 6925 N 642.596 -6.61053 2.36546 0
M  V30 6926 H 647.436 -2.14013 2.0737 0
M  V30 6927 H 644.973 -1.0482 1.03205 0
M  V30 6928 H 646.931 -4.12963 0.593057 0
M  V30 6929 H 645.561 -3.22631 -0.104457 0
M  V30 6930 H 644.613 -3.02454 2.30708 0
M  V30 6931 H 645.925 -4.09515 2.84779 0
M  V30 6932 H 645.079 -5.91457 1.35143 0
M  V30 6933 H 643.818 -4.82537 0.707753 0
M  V30 6934 H 642.823 -4.60599 3.00215 0
M  V30 6935 H 644.048 -5.72965 3.64538 0
M  V30 6936 H 641.994 -6.3863 1.49959 0
M  V30 6937 H 641.911 -6.86662 3.16277 0
M  V30 6938 H 643.179 -7.49221 2.15146 0
M  V30 6939 N 647.408 -1.11026 -1.11852 0
M  V30 6940 C 648.371 -0.768006 -2.1595 0
M  V30 6941 C 649.371 0.210538 -1.59416 0
M  V30 6942 O 650.561 -0.0133978 -1.74195 0
M  V30 6943 C 647.693 -0.138678 -3.40618 0
M  V30 6944 H 648.886 -1.69012 -2.4774 0
M  V30 6945 H 646.439 -0.911578 -1.26964 0
M  V30 6946 H 647.174 0.793872 -3.14433 0
M  V30 6947 H 646.959 -0.843012 -3.8293 0
M  V30 6948 H 648.449 0.0848039 -4.17514 0
M  V30 6949 N 648.886 1.2938 -0.899927 0
M  V30 6950 C 650.297 1.77644 -0.574427 0
M  V30 6951 C 650.648 1.73824 0.909928 0
M  V30 6952 O 649.773 1.32429 1.71147 0
M  V30 6953 C 650.368 3.22573 -1.03595 0
M  V30 6954 C 648.927 3.68614 -0.76161 0
M  V30 6955 C 648.074 2.49483 -1.21052 0
M  V30 6956 H 651.025 1.16038 -1.08263 0
M  V30 6957 H 651.046 3.78684 -0.371337 0
M  V30 6958 H 650.558 3.25321 -2.11631 0
M  V30 6959 H 648.659 3.7134 0.306127 0
M  V30 6960 H 648.772 4.59402 -1.35965 0
M  V30 6961 H 647.136 2.46798 -0.629515 0
M  V30 6962 H 647.919 2.54959 -2.29893 0
M  V30 6963 N 650.364 0.662433 1.43002 0
M  V30 6964 C 651.327 -0.0142016 2.29196 0
M  V30 6965 C 652.327 -0.741394 1.42688 0
M  V30 6966 O 653.517 -0.581257 1.64216 0
M  V30 6967 C 650.649 -1.03084 3.24941 0
M  V30 6968 H 651.842 0.7443 2.90517 0
M  V30 6969 H 649.395 0.424133 1.50435 0
M  V30 6970 H 650.13 -1.81826 2.68533 0
M  V30 6971 H 649.915 -0.512946 3.8873 0
M  V30 6972 H 651.405 -1.50308 3.89612 0
M  V30 6973 N 651.842 -1.52309 0.404946 0
M  V30 6974 C 652.789 -2.26898 -0.422597 0
M  V30 6975 C 653.759 -1.2914 -1.04461 0
M  V30 6976 O 654.944 -1.57996 -1.06967 0
M  V30 6977 C 652.084 -3.09053 -1.53559 0
M  V30 6978 C 651.197 -4.21762 -0.934908 0
M  V30 6979 C 650.332 -4.91283 -2.02025 0
M  V30 6980 C 649.371 -5.95962 -1.39628 0
M  V30 6981 N 648.508 -6.59017 -2.42159 0
M  V30 6982 H 653.348 -2.97188 0.219903 0
M  V30 6983 H 650.885 -1.46607 0.120282 0
M  V30 6984 H 652.843 -3.54987 -2.19181 0
M  V30 6985 H 651.473 -2.40942 -2.14818 0
M  V30 6986 H 650.525 -3.80029 -0.167854 0
M  V30 6987 H 651.837 -4.96864 -0.439073 0
M  V30 6988 H 650.991 -5.40601 -2.75383 0
M  V30 6989 H 649.73 -4.15741 -2.54973 0
M  V30 6990 H 648.735 -5.45968 -0.648023 0
M  V30 6991 H 649.96 -6.73445 -0.874553 0
M  V30 6992 H 647.906 -5.86306 -2.94247 0
M  V30 6993 H 647.823 -7.2978 -1.97376 0
M  V30 6994 H 649.091 -7.12974 -3.15099 0
M  V30 6995 N 653.32 -0.135238 -1.57019 0
M  V30 6996 C 654.267 0.808908 -2.1616 0
M  V30 6997 C 655.237 1.25234 -1.09113 0
M  V30 6998 O 656.422 1.32697 -1.37099 0
M  V30 6999 C 653.562 2.04729 -2.77813 0
M  V30 7000 C 652.675 1.65074 -3.99218 0
M  V30 7001 C 651.81 2.84002 -4.48906 0
M  V30 7002 C 650.849 2.40663 -5.62803 0
M  V30 7003 N 649.986 3.5256 -6.07162 0
M  V30 7004 H 654.826 0.297751 -2.96509 0
M  V30 7005 H 652.363 0.135264 -1.46477 0
M  V30 7006 H 654.321 2.7731 -3.11697 0
M  V30 7007 H 652.951 2.53275 -2.00128 0
M  V30 7008 H 652.003 0.823029 -3.7139 0
M  V30 7009 H 653.315 1.29236 -4.81767 0
M  V30 7010 H 652.469 3.64788 -4.84783 0
M  V30 7011 H 651.208 3.23076 -3.65339 0
M  V30 7012 H 650.213 1.58314 -5.26514 0
M  V30 7013 H 651.438 2.02687 -6.48147 0
M  V30 7014 H 649.384 3.91278 -5.26534 0
M  V30 7015 H 649.301 3.20699 -6.84608 0
M  V30 7016 H 650.569 4.33738 -6.47682 0
M  V30 7017 O 654.837 1.615 0.00369385 0
M  V30 7018 H 655.528 1.8348 0.620863 0
M  V30 END ATOM
M  V30 BEGIN BOND
M  V30 END BOND
M  V30 END CTAB
M  END
$$$$
