drugbank_target|Q3JWH7 2,3-bisphosphoglycerate-dependent phosphoglycerate mutase (DB02580)
 OpenBabel12092120503D

  0  0  0     0  0            999 V3000
M  V30 BEGIN CTAB
M  V30 COUNTS 3932 3978 0 0 0
M  V30 BEGIN ATOM
M  V30 1 H -0.908 1.98254 -0.117106 0
M  V30 2 N 0 1.576 0 0
M  V30 3 C 0.933 2.03868 1.02534 0
M  V30 4 C 1.911 0.928543 1.3348 0
M  V30 5 O 3.095 1.19667 1.45644 0
M  V30 6 C 0.222 2.43627 2.35294 0
M  V30 7 C -0.732 3.65373 2.2001 0
M  V30 8 S 0.101 5.13292 1.52614 0
M  V30 9 C 1.257 5.56322 2.86805 0
M  V30 10 H 1.49 2.90518 0.631377 0
M  V30 11 H -0.977 1.52953 0.210867 0
M  V30 12 H 0.981 2.67203 3.11629 0
M  V30 13 H -0.358 1.57376 2.7183 0
M  V30 14 H -1.165 3.90944 3.18086 0
M  V30 15 H -1.563 3.418 1.51819 0
M  V30 16 H 0.729 5.58782 3.83104 0
M  V30 17 H 1.672 6.56266 2.65933 0
M  V30 18 H 2.08 4.83886 2.90714 0
M  V30 19 N 1.4781 -0.272755 1.55222 0
M  V30 20 C 2.7081 -1.02107 1.79604 0
M  V30 21 C 3.1161 -1.80419 0.569693 0
M  V30 22 O 2.4591 -1.77566 -0.470743 0
M  V30 23 C 2.5211 -2.02675 2.96922 0
M  V30 24 C 2.1851 -1.43299 4.33952 0
M  V30 25 C 3.1821 -0.84853 5.12929 0
M  V30 26 C 0.8671 -1.46012 4.8061 0
M  V30 27 C 2.8611 -0.299109 6.36698 0
M  V30 28 C 0.5481 -0.906833 6.04334 0
M  V30 29 C 1.5461 -0.32733 6.82215 0
M  V30 30 O 1.2341 0.217479 8.03606 0
M  V30 31 H 0.9661 -0.307322 0.602104 0
M  V30 32 H 3.5201 -0.308862 2.03065 0
M  V30 33 H 1.7501 -2.77656 2.69155 0
M  V30 34 H 3.4391 -2.63637 3.08626 0
M  V30 35 H 4.2051 -0.820265 4.78013 0
M  V30 36 H 0.0841 -1.90056 4.2 0
M  V30 37 H 3.6281 0.153852 6.9743 0
M  V30 38 H -0.4749 -0.932339 6.38731 0
M  V30 39 H 0.2931 0.106863 8.1843 0
M  V30 40 N 2.9562 -1.48159 -0.537278 0
M  V30 41 C 3.9032 -1.62138 -1.64256 0
M  V30 42 C 4.8732 -0.463668 -1.59497 0
M  V30 43 O 6.0582 -0.686241 -1.78032 0
M  V30 44 C 3.1982 -1.66028 -3.02537 0
M  V30 45 C 2.3112 -2.92855 -3.17585 0
M  V30 46 C 1.4462 -2.87952 -4.46382 0
M  V30 47 C 0.4852 -4.09516 -4.54932 0
M  V30 48 N -0.3778 -4.02733 -5.75109 0
M  V30 49 H 4.4622 -2.56529 -1.51647 0
M  V30 50 H 1.9992 -1.27224 -0.738414 0
M  V30 51 H 3.9572 -1.66265 -3.82638 0
M  V30 52 H 2.5872 -0.751331 -3.13934 0
M  V30 53 H 1.6392 -3.02395 -2.30784 0
M  V30 54 H 2.9512 -3.82822 -3.19764 0
M  V30 55 H 2.1052 -2.8655 -5.34765 0
M  V30 56 H 0.8442 -1.95702 -4.46712 0
M  V30 57 H -0.1508 -4.11201 -3.64957 0
M  V30 58 H 1.0742 -5.02917 -4.56346 0
M  V30 59 H -0.9798 -3.13299 -5.76351 0
M  V30 60 H -1.0628 -4.86397 -5.78752 0
M  V30 61 H 0.2052 -4.05379 -6.65799 0
M  V30 62 N 4.4343 0.785586 -1.36625 0
M  V30 63 C 5.3643 1.91259 -1.33949 0
M  V30 64 C 6.3453 1.68795 -0.210325 0
M  V30 65 O 7.5303 1.89854 -0.408561 0
M  V30 66 C 4.6603 3.28339 -1.13186 0
M  V30 67 C 3.6143 3.65335 -2.22967 0
M  V30 68 C 2.9403 5.00806 -1.87342 0
M  V30 69 C 4.2403 3.7352 -3.65075 0
M  V30 70 H 5.9343 1.93755 -2.28253 0
M  V30 71 H 3.4803 0.930788 -1.09874 0
M  V30 72 H 5.4333 4.06804 -1.09948 0
M  V30 73 H 4.1573 3.2624 -0.153332 0
M  V30 74 H 2.8163 2.89169 -2.25337 0
M  V30 75 H 2.4643 4.95233 -0.880545 0
M  V30 76 H 2.1643 5.26529 -2.60846 0
M  V30 77 H 3.6883 5.81687 -1.85667 0
M  V30 78 H 5.1023 4.42168 -3.64911 0
M  V30 79 H 3.4993 4.10731 -4.37516 0
M  V30 80 H 4.5693 2.74527 -3.99703 0
M  V30 81 N 5.9124 1.20967 1.01018 0
M  V30 82 C 7.1584 1.02526 1.74975 0
M  V30 83 C 7.4914 -0.4408 1.89131 0
M  V30 84 O 6.7664 -1.32718 1.42184 0
M  V30 85 C 7.0494 1.71699 3.1653 0
M  V30 86 C 6.9024 3.25791 3.10129 0
M  V30 87 C 8.2214 1.45531 4.15342 0
M  V30 88 H 5.3404 0.373863 0.635134 0
M  V30 89 H 7.9824 1.49071 1.17805 0
M  V30 90 H 6.1324 1.32128 3.65341 0
M  V30 91 H 7.8044 3.74697 2.69072 0
M  V30 92 H 6.0474 3.56363 2.47362 0
M  V30 93 H 6.7184 3.69353 4.10222 0
M  V30 94 H 9.1944 1.79872 3.75213 0
M  V30 95 H 8.0704 1.96453 5.1254 0
M  V30 96 H 8.3314 0.384237 4.40427 0
M  V30 97 N 7.3905 -1.2043 1.01659 0
M  V30 98 C 8.3205 -2.25466 0.607226 0
M  V30 99 C 9.3015 -1.65853 -0.377716 0
M  V30 100 O 10.4865 -1.92409 -0.263149 0
M  V30 101 C 7.6165 -3.47256 -0.0552949 0
M  V30 102 C 6.5705 -4.19462 0.850632 0
M  V30 103 C 5.8965 -5.34673 0.0538859 0
M  V30 104 C 7.1965 -4.75603 2.15868 0
M  V30 105 H 8.8905 -2.59962 1.48526 0
M  V30 106 H 6.4365 -1.2496 0.715605 0
M  V30 107 H 8.3895 -4.19917 -0.353233 0
M  V30 108 H 7.1135 -3.11924 -0.968045 0
M  V30 109 H 5.7725 -3.48667 1.13257 0
M  V30 110 H 5.4205 -4.95585 -0.860514 0
M  V30 111 H 5.1205 -5.83913 0.657192 0
M  V30 112 H 6.6445 -6.10138 -0.237598 0
M  V30 113 H 8.0585 -5.40083 1.92311 0
M  V30 114 H 6.4555 -5.3528 2.71284 0
M  V30 115 H 7.5255 -3.94346 2.82169 0
M  V30 116 N 8.8686 -0.792821 -1.36206 0
M  V30 117 C 10.1176 -0.363353 -1.984 0
M  V30 118 C 10.4306 1.07172 -1.63626 0
M  V30 119 O 11.6366 1.60362 -2.19081 0
M  V30 120 C 10.0926 -0.59872 -3.54885 0
M  V30 121 C 9.7006 -2.04543 -3.9858 0
M  V30 122 C 11.4446 -0.233926 -4.23855 0
M  V30 123 C 9.3516 -2.22727 -5.47856 0
M  V30 124 H 8.2816 -0.13212 -0.742334 0
M  V30 125 H 10.9326 -0.974935 -1.55458 0
M  V30 126 H 9.3146 0.0826222 -3.95914 0
M  V30 127 H 10.4886 -2.76345 -3.68741 0
M  V30 128 H 8.8036 -2.36879 -3.42458 0
M  V30 129 H 11.4006 -0.348027 -5.33566 0
M  V30 130 H 11.7436 0.818351 -4.08177 0
M  V30 131 H 12.2766 -0.868639 -3.882 0
M  V30 132 H 9.0156 -3.2635 -5.68486 0
M  V30 133 H 8.5356 -1.55434 -5.7931 0
M  V30 134 H 10.2146 -2.03607 -6.14128 0
M  V30 135 N 10.3467 1.47872 -0.545128 0
M  V30 136 C 11.7627 1.5829 -0.204032 0
M  V30 137 C 11.9627 1.54529 1.29317 0
M  V30 138 O 11.0187 1.44232 2.07252 0
M  V30 139 C 12.3317 2.89304 -0.819987 0
M  V30 140 C 13.8797 3.02864 -0.790105 0
M  V30 141 C 14.3547 4.3656 -1.38491 0
M  V30 142 N 15.8457 4.43165 -1.34755 0
M  V30 143 C 16.5807 5.45153 -1.77753 0
M  V30 144 N 16.0767 6.54016 -2.2855 0
M  V30 145 N 17.8697 5.36125 -1.68897 0
M  V30 146 H 10.0207 1.4856 -1.51802 0
M  V30 147 H 12.2837 0.706305 -0.632327 0
M  V30 148 H 11.9897 2.97757 -1.87173 0
M  V30 149 H 11.8637 3.75957 -0.305915 0
M  V30 150 H 14.2507 2.94014 0.252913 0
M  V30 151 H 14.3317 2.17782 -1.34181 0
M  V30 152 H 13.9757 4.46164 -2.42693 0
M  V30 153 H 13.9057 5.20353 -0.808754 0
M  V30 154 H 16.3967 3.65083 -0.975855 0
M  V30 155 H 16.7097 7.27994 -2.59314 0
M  V30 156 H 15.0547 6.54938 -2.32553 0
M  V30 157 H 18.2457 4.49975 -1.28998 0
M  V30 158 H 18.4187 6.15472 -2.02726 0
M  V30 159 N 11.8248 0.280983 1.55075 0
M  V30 160 C 12.7748 -0.618585 2.19448 0
M  V30 161 C 13.7588 -1.11401 1.16098 0
M  V30 162 O 14.9508 -1.0581 1.41891 0
M  V30 163 C 12.0798 -1.79951 2.92357 0
M  V30 164 C 11.1658 -1.321 4.03002 0
M  V30 165 N 11.5568 -0.559044 5.02701 0
M  V30 166 C 9.8548 -1.60346 4.16179 0
M  V30 167 C 10.5558 -0.306722 5.80891 0
M  V30 168 N 9.5318 -0.880825 5.36416 0
M  V30 169 H 13.3338 -0.0286638 2.93886 0
M  V30 170 H 10.8478 0.0848104 1.62178 0
M  V30 171 H 12.8448 -2.45531 3.36927 0
M  V30 172 H 11.5048 -2.39333 2.19431 0
M  V30 173 H 12.5158 -0.205827 5.17491 0
M  V30 174 H 9.1928 -2.20621 3.54447 0
M  V30 175 H 10.5828 0.30391 6.71212 0
M  V30 176 N 13.3029 -1.57598 0.00835791 0
M  V30 177 C 14.5509 -1.90551 -0.6734 0
M  V30 178 C 14.8719 -0.883301 -1.73847 0
M  V30 179 O 14.1419 0.0781442 -1.95744 0
M  V30 180 H 12.7219 -0.703312 -0.251717 0
M  V30 181 H 15.3839 -1.94833 0.0512592 0
M  V30 182 H 14.4799 -2.9056 -1.13935 0
M  V30 183 N 14.781 0.264519 -1.55364 0
M  V30 184 C 15.691 1.34902 -1.91934 0
M  V30 185 C 16.707 1.53595 -0.817593 0
M  V30 186 O 17.883 1.67558 -1.11742 0
M  V30 187 C 14.948 2.68676 -2.19121 0
M  V30 188 C 14.009 2.58657 -3.4263 0
M  V30 189 C 13.242 3.86051 -3.68511 0
M  V30 190 O 13.465 4.87126 -2.96757 0
M  V30 191 O 12.399 3.85744 -4.62045 0
M  V30 192 H 16.225 1.06883 -2.8427 0
M  V30 193 H 13.81 0.463775 -1.42019 0
M  V30 194 H 15.692 3.47759 -2.37995 0
M  V30 195 H 14.367 2.96463 -1.29966 0
M  V30 196 H 13.274 1.7792 -3.29082 0
M  V30 197 H 14.607 2.35818 -4.32031 0
M  V30 198 N 16.2591 1.48442 0.529413 0
M  V30 199 C 17.4841 1.60406 1.31471 0
M  V30 200 C 17.9091 0.264738 1.86228 0
M  V30 201 O 17.2671 -0.763668 1.64432 0
M  V30 202 C 17.3151 2.65419 2.44101 0
M  V30 203 O 16.4191 2.22618 3.47153 0
M  V30 204 H 15.7601 0.537863 0.389357 0
M  V30 205 H 18.2901 1.94432 0.636965 0
M  V30 206 H 18.3001 2.86709 2.90279 0
M  V30 207 H 16.9751 3.62652 2.03608 0
M  V30 208 H 15.5521 2.11543 3.0709 0
M  V30 209 N 17.7372 -0.778329 1.37039 0
M  V30 210 C 18.9652 -1.56734 1.35063 0
M  V30 211 C 19.3802 -1.88686 -0.0655597 0
M  V30 212 O 18.7372 -1.5096 -1.02554 0
M  V30 213 C 18.7882 -2.88163 2.18276 0
M  V30 214 O 18.5092 -2.57583 3.54376 0
M  V30 215 C 20.0102 -3.82422 2.24206 0
M  V30 216 H 17.2302 -0.485778 0.462883 0
M  V30 217 H 19.7742 -0.965185 1.8029 0
M  V30 218 H 17.9292 -3.44818 1.76576 0
M  V30 219 H 18.3432 -3.41699 3.97922 0
M  V30 220 H 19.8172 -4.71667 2.86765 0
M  V30 221 H 20.2942 -4.21078 1.24861 0
M  V30 222 H 20.9002 -3.31697 2.6619 0
M  V30 223 N 19.2153 -1.21501 -1.00376 0
M  V30 224 C 20.4613 -1.04457 -1.74529 0
M  V30 225 C 20.8163 0.417386 -1.87818 0
M  V30 226 O 20.1093 1.30556 -1.40234 0
M  V30 227 C 20.3033 -1.67673 -3.15627 0
M  V30 228 C 20.1323 -3.19865 -3.16096 0
M  V30 229 C 18.9023 -3.88915 -3.22604 0
M  V30 230 C 21.1003 -4.16936 -3.01112 0
M  V30 231 N 19.0823 -5.28284 -3.12712 0
M  V30 232 C 20.4533 -5.43066 -2.99131 0
M  V30 233 C 22.5083 -4.07968 -2.85423 0
M  V30 234 C 21.2113 -6.6126 -2.83068 0
M  V30 235 C 23.2373 -5.258 -2.70718 0
M  V30 236 C 22.5993 -6.50842 -2.69414 0
M  V30 237 H 18.6983 -0.436584 -0.648782 0
M  V30 238 H 21.2823 -1.53875 -1.19293 0
M  V30 239 H 19.4533 -1.20822 -3.6913 0
M  V30 240 H 21.1853 -1.43824 -3.78281 0
M  V30 241 H 17.9403 -3.39847 -3.2985 0
M  V30 242 H 18.3643 -6.01284 -3.11105 0
M  V30 243 H 23.0063 -3.1209 -2.85236 0
M  V30 244 H 20.7243 -7.57298 -2.82002 0
M  V30 245 H 24.3103 -5.20683 -2.59577 0
M  V30 246 H 23.1903 -7.40485 -2.5817 0
M  V30 247 N 20.6934 1.19889 -1.02296 0
M  V30 248 C 21.6414 2.24938 -0.592081 0
M  V30 249 C 22.6354 1.65257 0.372357 0
M  V30 250 O 23.8414 1.78371 0.241583 0
M  V30 251 H 20.2164 0.731787 -0.173182 0
M  V30 252 H 22.1874 2.58603 -1.48885 0
M  V30 253 C 20.9364 3.47668 0.047351 0
M  V30 254 H 20.2594 3.93875 -0.685772 0
M  V30 255 H 21.6994 4.22852 0.311862 0
M  V30 256 C 20.1584 3.11136 1.29212 0
M  V30 257 O 20.6884 3.2325 2.38479 0
M  V30 258 N 18.8944 2.65625 1.17863 0
M  V30 259 H 18.4414 2.55968 0.289493 0
M  V30 260 H 18.3994 2.41553 2.01245 0
M  V30 261 N 22.1715 0.800033 1.35784 0
M  V30 262 C 23.1185 0.203848 2.29898 0
M  V30 263 C 24.0885 -0.658375 1.52495 0
M  V30 264 O 25.2735 -0.604832 1.8096 0
M  V30 265 C 22.4135 -0.64688 3.38983 0
M  V30 266 C 21.5265 0.235054 4.3136 0
M  V30 267 C 20.6615 -0.623054 5.27533 0
M  V30 268 C 19.7005 0.259682 6.11549 0
M  V30 269 N 18.8375 -0.558019 6.99879 0
M  V30 270 H 23.6775 1.01186 2.80295 0
M  V30 271 H 21.2145 0.51053 1.37957 0
M  V30 272 H 23.1725 -1.15521 4.00887 0
M  V30 273 H 21.8025 -1.42021 2.89879 0
M  V30 274 H 20.8545 0.861438 3.70518 0
M  V30 275 H 22.1665 0.914768 4.9034 0
M  V30 276 H 21.3205 -1.19678 5.94779 0
M  V30 277 H 20.0595 -1.33636 4.69034 0
M  V30 278 H 19.0645 0.845726 5.43256 0
M  V30 279 H 20.2895 0.970748 6.72126 0
M  V30 280 H 18.2355 -1.25542 6.43875 0
M  V30 281 H 18.1525 0.0637872 7.55973 0
M  V30 282 H 19.4205 -1.11523 7.71481 0
M  V30 283 N 23.6496 -1.47581 0.552962 0
M  V30 284 C 24.5596 -2.33743 -0.200353 0
M  V30 285 C 25.5756 -1.47928 -0.916151 0
M  V30 286 O 26.7516 -1.80865 -0.885993 0
M  V30 287 C 23.8166 -3.24536 -1.21973 0
M  V30 288 C 22.8776 -4.26238 -0.511819 0
M  V30 289 C 22.1106 -5.12693 -1.48263 0
M  V30 290 O 22.3336 -5.01525 -2.71714 0
M  V30 291 O 21.2676 -5.93375 -1.00945 0
M  V30 292 H 25.0936 -2.9945 0.506304 0
M  V30 293 H 22.6786 -1.46071 0.313622 0
M  V30 294 H 24.5606 -3.80631 -1.80827 0
M  V30 295 H 23.2356 -2.61462 -1.90839 0
M  V30 296 H 22.1426 -3.73914 0.117799 0
M  V30 297 H 23.4756 -4.92014 0.135308 0
M  V30 298 N 25.1277 -0.289203 -1.54924 0
M  V30 299 C 26.0757 0.607966 -2.24514 0
M  V30 300 C 27.0697 1.14655 -1.24702 0
M  V30 301 O 28.2757 1.09856 -1.4259 0
M  V30 302 H 24.6507 0.21464 -0.720718 0
M  V30 303 H 26.6217 -0.00164182 -2.984 0
M  V30 304 C 25.3707 1.77406 -2.99036 0
M  V30 305 H 24.6937 1.36884 -3.75637 0
M  V30 306 H 26.1337 2.37814 -3.51028 0
M  V30 307 C 24.5927 2.67107 -2.05318 0
M  V30 308 O 25.1227 3.6787 -1.61353 0
M  V30 309 N 23.3287 2.34582 -1.71521 0
M  V30 310 H 22.8757 1.52688 -2.07471 0
M  V30 311 H 22.8337 2.94867 -1.0909 0
M  V30 312 N 26.6058 1.57591 -0.0167156 0
M  V30 313 C 28.0218 1.55946 0.339557 0
M  V30 314 C 28.2218 1.02109 1.73713 0
M  V30 315 O 27.2778 0.662303 2.43659 0
M  V30 316 C 28.5908 3.00037 0.199499 0
M  V30 317 C 30.1388 3.11805 0.273193 0
M  V30 318 C 30.6138 4.57713 0.162068 0
M  V30 319 N 32.1048 4.6268 0.219444 0
M  V30 320 C 32.8398 5.73185 0.157054 0
M  V30 321 N 32.3358 6.92786 0.0442936 0
M  V30 322 N 34.1288 5.61707 0.21014 0
M  V30 323 H 26.2798 1.90921 -0.930758 0
M  V30 324 H 28.5428 0.877674 -0.358319 0
M  V30 325 H 28.2488 3.4333 -0.76273 0
M  V30 326 H 28.1228 3.64387 0.974786 0
M  V30 327 H 30.5098 2.68433 1.22587 0
M  V30 328 H 30.5908 2.50201 -0.532256 0
M  V30 329 H 30.2348 5.01763 -0.78714 0
M  V30 330 H 30.1648 5.17283 0.986222 0
M  V30 331 H 32.6558 3.76649 0.307246 0
M  V30 332 H 32.9688 7.728 0.00304069 0
M  V30 333 H 31.3138 6.94999 0.00968457 0
M  V30 334 H 34.5048 4.6716 0.296546 0
M  V30 335 H 34.6778 6.47807 0.158054 0
M  V30 336 N 28.0839 -0.256276 1.55502 0
M  V30 337 C 29.3309 -0.985619 1.76895 0
M  V30 338 C 29.6589 -1.85671 0.579355 0
M  V30 339 O 28.9139 -1.90744 -0.437651 0
M  V30 340 C 29.2129 -1.88432 3.03691 0
M  V30 341 C 28.8789 -1.16936 4.35473 0
M  V30 342 C 27.5409 -0.97173 4.71286 0
M  V30 343 C 29.8929 -0.661889 5.1698 0
M  V30 344 C 27.2209 -0.254179 5.86149 0
M  V30 345 C 29.5729 0.042149 6.32586 0
M  V30 346 C 28.2369 0.25134 6.67027 0
M  V30 347 H 27.5069 -0.360663 0.647304 0
M  V30 348 H 30.1539 -0.256483 1.89775 0
M  V30 349 H 28.4589 -2.68021 2.85783 0
M  V30 350 H 30.1559 -2.45015 3.1744 0
M  V30 351 H 26.7459 -1.33332 4.07333 0
M  V30 352 H 30.9299 -0.802145 4.89775 0
M  V30 353 H 26.1859 -0.0815408 6.11346 0
M  V30 354 H 30.3599 0.443049 6.94989 0
M  V30 355 H 27.9869 0.809314 7.5588 0
M  V30 356 N 29.562 -1.4872 -0.521534 0
M  V30 357 C 30.79 -1.60843 -1.30142 0
M  V30 358 C 31.205 -0.271897 -1.86832 0
M  V30 359 O 30.562 0.739969 -1.66825 0
M  V30 360 C 30.613 -2.66155 -2.4463 0
M  V30 361 O 30.334 -3.94623 -1.90275 0
M  V30 362 C 31.835 -2.88795 -3.36322 0
M  V30 363 H 29.055 -0.542075 -0.395468 0
M  V30 364 H 31.599 -1.94609 -0.628285 0
M  V30 365 H 29.754 -2.35224 -3.07812 0
M  V30 366 H 30.168 -4.52468 -2.65279 0
M  V30 367 H 31.642 -3.66264 -4.12983 0
M  V30 368 H 32.119 -1.97934 -3.9207 0
M  V30 369 H 32.725 -3.21063 -2.78924 0
M  V30 370 N 31.0401 0.771051 -1.3745 0
M  V30 371 C 32.2881 1.52661 -1.32435 0
M  V30 372 C 32.6091 1.9479 0.0905024 0
M  V30 373 O 31.8791 1.66348 1.03466 0
M  V30 374 H 30.4591 0.566218 -0.487244 0
M  V30 375 H 33.1211 0.917636 -1.71946 0
M  V30 376 H 32.2171 2.42568 -1.96385 0
M  V30 377 N 32.5182 1.22032 0.997298 0
M  V30 378 C 33.7642 1.05382 1.73972 0
M  V30 379 C 34.1192 -0.407419 1.88037 0
M  V30 380 O 33.4122 -1.29811 1.40924 0
M  V30 381 C 33.6062 1.69345 3.14733 0
M  V30 382 C 33.4352 3.21537 3.14395 0
M  V30 383 C 32.2052 3.9062 3.20537 0
M  V30 384 C 34.4032 4.18527 2.98897 0
M  V30 385 N 32.3852 5.29935 3.09906 0
M  V30 386 C 33.7562 5.44645 2.96247 0
M  V30 387 C 35.8112 4.09476 2.83255 0
M  V30 388 C 34.5142 6.62752 2.79557 0
M  V30 389 C 36.5402 5.27228 2.67926 0
M  V30 390 C 35.9022 6.52262 2.65959 0
M  V30 391 H 32.0012 0.440018 0.646458 0
M  V30 392 H 34.5852 1.54505 1.18475 0
M  V30 393 H 32.7562 1.22778 3.68484 0
M  V30 394 H 34.4882 1.45828 3.77513 0
M  V30 395 H 31.2432 3.41592 3.28043 0
M  V30 396 H 31.6672 6.02926 3.07912 0
M  V30 397 H 36.3092 3.13598 2.83577 0
M  V30 398 H 34.0272 7.58783 2.77982 0
M  V30 399 H 37.6132 5.22053 2.56812 0
M  V30 400 H 36.4932 7.41844 2.54239 0
M  V30 401 N 33.9963 -1.19345 1.0293 0
M  V30 402 C 35.2423 -1.89318 0.727083 0
M  V30 403 C 35.5753 -1.79446 -0.742483 0
M  V30 404 O 34.8503 -1.1871 -1.54072 0
M  V30 405 C 35.1333 -3.40238 1.17942 0
M  V30 406 C 34.9863 -3.58979 2.71024 0
M  V30 407 C 36.3053 -4.33479 0.760548 0
M  V30 408 H 33.4243 -0.687475 0.265606 0
M  V30 409 H 36.0663 -1.40477 1.2793 0
M  V30 410 H 34.2163 -3.81964 0.709608 0
M  V30 411 H 35.8883 -3.26421 3.25955 0
M  V30 412 H 34.1313 -3.02018 3.11396 0
M  V30 413 H 34.8023 -4.64823 2.9773 0
M  V30 414 H 37.2783 -3.99469 1.16464 0
M  V30 415 H 36.1543 -5.37664 1.10493 0
M  V30 416 H 36.4153 -4.40813 -0.337063 0
M  V30 417 N 35.4744 -0.807222 -1.35358 0
M  V30 418 C 36.7514 -0.311126 -1.9311 0
M  V30 419 C 37.1314 1.19937 -1.73719 0
M  V30 420 O 36.4794 1.99918 -1.10657 0
M  V30 421 C 36.6894 -0.723226 -3.41424 0
M  V30 422 C 38.0374 -0.713078 -4.18569 0
M  V30 423 O 39.0614 -0.664811 -3.49941 0
M  V30 424 O 37.9204 -0.772022 -5.41019 0
M  V30 425 H 35.0144 -0.081526 -0.822972 0
M  V30 426 H 37.5604 -0.890962 -1.4443 0
M  V30 427 H 36.3324 -1.76426 -3.4927 0
M  V30 428 H 35.9554 -0.118232 -3.97424 0
M  V30 429 N 36.9525 1.47285 -0.560781 0
M  V30 430 C 38.1985 2.02764 -0.0381184 0
M  V30 431 C 38.5315 1.43384 1.30976 0
M  V30 432 O 37.8065 0.590733 1.85312 0
M  V30 433 C 38.0895 3.60064 0.0511427 0
M  V30 434 C 37.9425 4.2987 -1.32408 0
M  V30 435 C 39.2615 4.33439 0.762795 0
M  V30 436 H 36.3805 0.736841 -0.0153264 0
M  V30 437 H 39.0225 1.75675 -0.723759 0
M  V30 438 H 37.1725 3.83274 0.635065 0
M  V30 439 H 38.8445 4.17989 -1.95148 0
M  V30 440 H 37.0875 3.90085 -1.8978 0
M  V30 441 H 37.7585 5.38478 -1.21431 0
M  V30 442 H 40.2345 4.15243 0.266965 0
M  V30 443 H 39.1105 5.43124 0.794221 0
M  V30 444 H 39.3715 4.02915 1.81966 0
M  V30 445 N 38.4306 0.297415 1.54768 0
M  V30 446 C 39.7076 -0.365847 1.92148 0
M  V30 447 C 40.0876 -1.71975 1.22424 0
M  V30 448 O 39.4356 -2.25666 0.358739 0
M  V30 449 C 39.6456 -0.484056 3.45627 0
M  V30 450 C 40.9936 -0.756594 4.17805 0
M  V30 451 O 42.0176 -0.568007 3.51642 0
M  V30 452 O 40.8766 -1.11863 5.34929 0
M  V30 453 H 37.9706 -0.203919 0.801465 0
M  V30 454 H 40.5166 0.34521 1.66152 0
M  V30 455 H 39.2886 0.467865 3.88493 0
M  V30 456 H 38.9116 -1.24372 3.77647 0
M  V30 457 N 39.9087 -1.5758 0.0250728 0
M  V30 458 C 40.8387 -2.13007 -0.956575 0
M  V30 459 C 41.8197 -1.0452 -1.342 0
M  V30 460 O 43.0047 -1.32332 -1.42133 0
M  V30 461 C 40.1347 -2.65386 -2.24026 0
M  V30 462 C 39.0887 -3.78623 -1.99571 0
M  V30 463 C 38.4147 -4.17414 -3.3417 0
M  V30 464 C 39.7147 -5.04867 -1.33814 0
M  V30 465 H 41.4087 -2.9528 -0.494991 0
M  V30 466 H 38.9547 -1.42042 -0.236651 0
M  V30 467 H 40.9077 -3.02794 -2.93076 0
M  V30 468 H 39.6317 -1.80268 -2.72343 0
M  V30 469 H 38.2907 -3.41646 -1.32941 0
M  V30 470 H 37.9387 -3.29284 -3.80238 0
M  V30 471 H 37.6387 -4.93719 -3.18615 0
M  V30 472 H 39.1627 -4.57402 -4.04495 0
M  V30 473 H 40.5767 -5.39888 -1.92857 0
M  V30 474 H 38.9737 -5.86144 -1.28669 0
M  V30 475 H 40.0437 -4.83904 -0.310561 0
M  V30 476 N 41.3868 0.248026 -1.55636 0
M  V30 477 C 42.6148 0.993808 -1.81469 0
M  V30 478 C 43.0298 1.78991 -0.60064 0
M  V30 479 O 42.3868 1.77345 0.430682 0
M  V30 480 C 42.4378 1.93258 -3.05506 0
M  V30 481 O 42.1588 1.16869 -4.22224 0
M  V30 482 C 43.6598 2.79444 -3.4413 0
M  V30 483 H 40.8798 0.292486 -0.603898 0
M  V30 484 H 43.4238 0.271253 -2.02693 0
M  V30 485 H 41.5788 2.60943 -2.86335 0
M  V30 486 H 41.9928 1.80359 -4.92515 0
M  V30 487 H 43.4668 3.41066 -4.34026 0
M  V30 488 H 43.9438 3.50499 -2.64665 0
M  V30 489 H 44.5498 2.17214 -3.65648 0
M  V30 490 N 42.8649 1.48995 0.513639 0
M  V30 491 C 43.7749 1.67443 1.64317 0
M  V30 492 C 44.7909 0.556947 1.64846 0
M  V30 493 O 45.9669 0.830082 1.83498 0
M  V30 494 C 43.0319 1.72515 3.00732 0
M  V30 495 C 42.0929 2.96009 3.1093 0
M  V30 496 C 41.3259 3.00829 4.40837 0
M  V30 497 O 41.5489 2.13594 5.28898 0
M  V30 498 O 40.4829 3.93168 4.55744 0
M  V30 499 H 44.3089 2.63106 1.51687 0
M  V30 500 H 41.8939 1.32588 0.688543 0
M  V30 501 H 43.7759 1.78277 3.81831 0
M  V30 502 H 42.4509 0.800278 3.13651 0
M  V30 503 H 41.3579 2.9577 2.29065 0
M  V30 504 H 42.6909 3.87934 3.02933 0
M  V30 505 N 44.343 -0.763751 1.37857 0
M  V30 506 C 45.275 -1.88664 1.30148 0
M  V30 507 C 46.288 -1.61365 0.215685 0
M  V30 508 O 47.477 -1.72134 0.472459 0
M  V30 509 C 44.577 -3.24075 0.991396 0
M  V30 510 C 43.75 -3.78958 2.18426 0
M  V30 511 C 42.809 -4.92862 1.8432 0
M  V30 512 O 41.835 -5.08027 2.56704 0
M  V30 513 N 43.037 -5.75071 0.792081 0
M  V30 514 H 45.802 -1.95791 2.26905 0
M  V30 515 H 43.363 -0.943226 1.31586 0
M  V30 516 H 45.355 -3.97804 0.743935 0
M  V30 517 H 43.925 -3.12399 0.112122 0
M  V30 518 H 43.145 -2.96913 2.59299 0
M  V30 519 H 44.433 -4.12357 2.98058 0
M  V30 520 H 43.831 -5.65375 0.191595 0
M  V30 521 H 42.388 -6.48991 0.60449 0
M  V30 522 N 45.8211 -1.22559 -0.990812 0
M  V30 523 C 47.0691 -1.04933 -1.72724 0
M  V30 524 C 47.3901 0.416158 -1.90508 0
M  V30 525 O 46.6601 1.29918 -1.46622 0
M  V30 526 H 45.2401 -0.385296 -0.639965 0
M  V30 527 H 47.9021 -1.54105 -1.19322 0
M  V30 528 H 46.9981 -1.52886 -2.72089 0
M  V30 529 N 47.2992 1.18797 -1.03562 0
M  V30 530 C 48.2472 2.24297 -0.615905 0
M  V30 531 C 49.2412 1.65643 0.354808 0
M  V30 532 O 50.4472 1.78618 0.22265 0
M  V30 533 H 46.8222 0.729909 -0.180934 0
M  V30 534 H 48.7932 2.5701 -1.5162 0
M  V30 535 C 47.5422 3.47698 0.0104735 0
M  V30 536 H 46.8652 3.93125 -0.727509 0
M  V30 537 H 48.3052 4.23159 0.266995 0
M  V30 538 C 46.7642 3.12489 1.25905 0
M  V30 539 O 47.2942 3.25761 2.35038 0
M  V30 540 N 45.5002 2.6686 1.15039 0
M  V30 541 H 45.0472 2.56261 0.262328 0
M  V30 542 H 45.0052 2.43674 1.98672 0
M  V30 543 N 48.7773 0.814389 1.34928 0
M  V30 544 C 50.1933 0.499084 1.51596 0
M  V30 545 C 50.3933 -0.978319 1.76157 0
M  V30 546 O 49.4493 -1.76309 1.80752 0
M  V30 547 C 50.7623 1.35121 2.68631 0
M  V30 548 C 52.3103 1.34746 2.82511 0
M  V30 549 C 52.7853 2.18388 4.0258 0
M  V30 550 N 54.2763 2.15966 4.09772 0
M  V30 551 C 55.0113 2.77437 5.01813 0
M  V30 552 N 54.5073 3.47866 5.99134 0
M  V30 553 N 56.3003 2.67037 4.94619 0
M  V30 554 H 48.4513 1.7711 1.17243 0
M  V30 555 H 50.7143 0.754256 0.574284 0
M  V30 556 H 50.4203 2.40001 2.57085 0
M  V30 557 H 50.2943 1.00991 3.63429 0
M  V30 558 H 52.6813 0.30648 2.93504 0
M  V30 559 H 52.7623 1.72869 1.88547 0
M  V30 560 H 52.4063 3.2253 3.92347 0
M  V30 561 H 52.3363 1.77621 4.9574 0
M  V30 562 H 54.8273 1.64729 3.40107 0
M  V30 563 H 55.1403 3.92038 6.65977 0
M  V30 564 H 53.4853 3.51972 5.99284 0
M  V30 565 H 56.6763 2.11597 4.17546 0
M  V30 566 H 56.8493 3.15232 5.66156 0
M  V30 567 N 50.2554 -1.46986 0.568584 0
M  V30 568 C 51.1654 -2.33942 -0.17555 0
M  V30 569 C 52.1814 -1.48891 -0.90041 0
M  V30 570 O 53.3574 -1.81794 -0.86676 0
M  V30 571 C 50.4224 -3.25811 -1.18524 0
M  V30 572 C 49.4834 -4.26757 -0.466582 0
M  V30 573 C 48.7164 -5.14236 -1.42817 0
M  V30 574 O 48.9394 -5.04379 -2.66379 0
M  V30 575 O 47.8734 -5.94412 -0.946453 0
M  V30 576 H 51.6994 -2.98896 0.538036 0
M  V30 577 H 49.2844 -1.4573 0.329097 0
M  V30 578 H 51.1664 -3.82527 -1.76779 0
M  V30 579 H 49.8414 -2.63471 -1.88055 0
M  V30 580 H 48.7484 -3.73769 0.157451 0
M  V30 581 H 50.0814 -4.91843 0.187485 0
M  V30 582 N 51.7335 -0.305618 -1.54608 0
M  V30 583 C 52.6965 0.555591 -2.22364 0
M  V30 584 C 53.6965 1.05768 -1.21119 0
M  V30 585 O 54.8865 0.952972 -1.45822 0
M  V30 586 C 52.0185 1.76974 -2.91364 0
M  V30 587 H 53.2115 -0.0364572 -2.99878 0
M  V30 588 H 50.7645 -0.0565007 -1.56198 0
M  V30 589 H 51.4995 2.40151 -2.17941 0
M  V30 590 H 51.2845 1.41732 -3.65588 0
M  V30 591 H 52.7745 2.38148 -3.43038 0
M  V30 592 N 53.2116 1.57565 -0.0334293 0
M  V30 593 C 54.6276 1.56297 0.322997 0
M  V30 594 C 54.8276 1.03945 1.7262 0
M  V30 595 O 53.8836 0.688109 2.42943 0
M  V30 596 C 55.1966 3.00232 0.167664 0
M  V30 597 C 56.7446 3.12078 0.240107 0
M  V30 598 C 57.2196 4.57859 0.113513 0
M  V30 599 N 58.7106 4.62887 0.170359 0
M  V30 600 C 59.4456 5.73319 0.0962517 0
M  V30 601 N 58.9416 6.92794 -0.0291881 0
M  V30 602 N 60.7346 5.61898 0.150551 0
M  V30 603 H 52.8856 1.89923 -0.950956 0
M  V30 604 H 55.1486 0.873824 -0.367608 0
M  V30 605 H 54.8546 3.42501 -0.799102 0
M  V30 606 H 54.7286 3.654 0.936083 0
M  V30 607 H 57.1156 2.69718 1.19733 0
M  V30 608 H 57.1966 2.49623 -0.558763 0
M  V30 609 H 56.8406 5.009 -0.840314 0
M  V30 610 H 56.7706 5.18299 0.931302 0
M  V30 611 H 59.2616 3.76954 0.26728 0
M  V30 612 H 59.5746 7.7276 -0.0789252 0
M  V30 613 H 57.9196 6.94971 -0.0640299 0
M  V30 614 H 61.1106 4.67448 0.246981 0
M  V30 615 H 61.2836 6.47938 0.0893365 0
M  V30 616 N 54.6897 -0.239769 1.55765 0
M  V30 617 C 55.6217 -1.32001 1.87372 0
M  V30 618 C 56.6347 -1.43944 0.760522 0
M  V30 619 O 57.8237 -1.45167 1.0387 0
M  V30 620 C 54.9237 -2.69779 2.05115 0
M  V30 621 C 54.0967 -2.80014 3.36022 0
M  V30 622 C 53.1557 -3.98684 3.4342 0
M  V30 623 O 52.1817 -3.87877 4.16582 0
M  V30 624 N 53.3837 -5.12176 2.73232 0
M  V30 625 H 56.1487 -1.0522 2.80622 0
M  V30 626 H 53.7097 -0.429857 1.56089 0
M  V30 627 H 55.7017 -3.47517 2.07399 0
M  V30 628 H 54.2717 -2.89237 1.18577 0
M  V30 629 H 53.4917 -1.88896 3.45994 0
M  V30 630 H 54.7797 -2.83808 4.22292 0
M  V30 631 H 54.1777 -5.2385 2.13536 0
M  V30 632 H 52.7347 -5.88022 2.81199 0
M  V30 633 N 56.1678 -1.49265 -0.50573 0
M  V30 634 C 57.1308 -1.65075 -1.59006 0
M  V30 635 C 58.1308 -0.522768 -1.52065 0
M  V30 636 O 59.3208 -0.789117 -1.55302 0
M  V30 637 C 56.4528 -1.64369 -2.98656 0
M  V30 638 H 57.6458 -2.61784 -1.46319 0
M  V30 639 H 55.1988 -1.38226 -0.729616 0
M  V30 640 H 55.9338 -0.692272 -3.16825 0
M  V30 641 H 55.7188 -2.46282 -3.05103 0
M  V30 642 H 57.2088 -1.78674 -3.77446 0
M  V30 643 N 57.6459 0.756429 -1.3826 0
M  V30 644 C 58.8939 1.51248 -1.34047 0
M  V30 645 C 59.2149 1.94875 0.0698372 0
M  V30 646 O 58.4849 1.67436 1.01696 0
M  V30 647 H 57.0649 0.561018 -0.493222 0
M  V30 648 H 59.7269 0.899347 -1.7291 0
M  V30 649 H 58.8229 2.40472 -1.98947 0
M  V30 650 N 59.124 1.23083 0.984299 0
M  V30 651 C 60.056 0.96636 2.07832 0
M  V30 652 C 61.069 -0.0582135 1.62696 0
M  V30 653 O 62.258 0.176843 1.77622 0
M  V30 654 C 59.358 0.433397 3.36117 0
M  V30 655 C 58.531 1.51722 4.10243 0
M  V30 656 C 57.59 0.989821 5.16807 0
M  V30 657 O 56.616 1.67794 5.43906 0
M  V30 658 N 57.818 -0.184367 5.80207 0
M  V30 659 H 60.583 1.90824 2.31098 0
M  V30 660 H 58.144 1.13888 1.1507 0
M  V30 661 H 60.136 0.065699 4.04647 0
M  V30 662 H 58.706 -0.413806 3.09849 0
M  V30 663 H 57.926 2.05786 3.36223 0
M  V30 664 H 59.214 2.24619 4.56534 0
M  V30 665 H 58.612 -0.760062 5.60571 0
M  V30 666 H 57.169 -0.493366 6.4993 0
M  V30 667 N 60.6021 -1.18246 1.0419 0
M  V30 668 C 61.5321 -2.24127 0.654914 0
M  V30 669 C 62.5131 -1.66617 -0.342451 0
M  V30 670 O 63.6981 -1.92924 -0.222277 0
M  V30 671 C 60.8281 -3.47295 0.0183757 0
M  V30 672 C 59.7821 -4.17563 0.939414 0
M  V30 673 C 59.1081 -5.34438 0.167286 0
M  V30 674 C 60.4081 -4.70917 2.25908 0
M  V30 675 H 62.1021 -2.56753 1.54007 0
M  V30 676 H 59.6481 -1.23414 0.74195 0
M  V30 677 H 61.6011 -4.20572 -0.264082 0
M  V30 678 H 60.3251 -3.13907 -0.901664 0
M  V30 679 H 58.9841 -3.46186 1.20628 0
M  V30 680 H 58.6321 -4.97298 -0.7552 0
M  V30 681 H 58.3321 -5.82388 0.780901 0
M  V30 682 H 59.8561 -6.10504 -0.108125 0
M  V30 683 H 61.2701 -5.35882 2.03724 0
M  V30 684 H 59.6671 -5.29406 2.82577 0
M  V30 685 H 60.7371 -3.88272 2.9047 0
M  V30 686 N 62.0802 -0.821533 -1.34494 0
M  V30 687 C 63.0102 -0.257138 -2.3208 0
M  V30 688 C 63.9912 0.625645 -1.58176 0
M  V30 689 O 65.1762 0.552811 -1.86166 0
M  V30 690 C 62.3062 0.582958 -3.42372 0
M  V30 691 C 61.2602 -0.202571 -4.2752 0
M  V30 692 C 60.5862 0.760179 -5.29269 0
M  V30 693 C 61.8862 -1.40998 -5.02908 0
M  V30 694 H 63.5802 -1.07247 -2.79532 0
M  V30 695 H 61.1262 -0.517163 -1.34393 0
M  V30 696 H 63.0792 0.987972 -4.09655 0
M  V30 697 H 61.8032 1.43133 -2.93565 0
M  V30 698 H 60.4622 -0.588936 -3.61838 0
M  V30 699 H 60.1102 1.60447 -4.76724 0
M  V30 700 H 59.8102 0.238809 -5.87115 0
M  V30 701 H 61.3342 1.16308 -5.9942 0
M  V30 702 H 62.7482 -1.07905 -5.63054 0
M  V30 703 H 61.1452 -1.86689 -5.70322 0
M  V30 704 H 62.2152 -2.1889 -4.32684 0
M  V30 705 N 63.5583 1.46682 -0.576371 0
M  V30 706 C 64.5053 2.30241 0.160499 0
M  V30 707 C 65.4753 1.40233 0.890162 0
M  V30 708 O 66.6603 1.69186 0.882084 0
M  V30 709 C 63.8003 3.24578 1.1723 0
M  V30 710 C 62.9133 4.29684 0.446736 0
M  V30 711 C 62.0483 5.11154 1.44551 0
M  V30 712 C 61.0873 6.08015 0.70599 0
M  V30 713 N 60.2243 6.82376 1.65251 0
M  V30 714 H 65.0643 2.92727 -0.558127 0
M  V30 715 H 62.6013 1.44272 -0.287056 0
M  V30 716 H 64.5593 3.77711 1.77172 0
M  V30 717 H 63.1893 2.63916 1.85872 0
M  V30 718 H 62.2413 3.79458 -0.267594 0
M  V30 719 H 63.5533 4.98626 -0.131686 0
M  V30 720 H 62.7073 5.68533 2.11791 0
M  V30 721 H 61.4463 4.42158 2.05786 0
M  V30 722 H 60.4513 5.49796 0.0197725 0
M  V30 723 H 61.6763 6.79028 0.09912 0
M  V30 724 H 59.6223 6.16094 2.25308 0
M  V30 725 H 59.5393 7.47556 1.12673 0
M  V30 726 H 60.8073 7.44316 2.31546 0
M  V30 727 N 65.0364 0.313813 1.54444 0
M  V30 728 C 65.9464 -0.565714 2.27677 0
M  V30 729 C 66.9624 -1.13754 1.31666 0
M  V30 730 O 68.1384 -1.15959 1.64668 0
M  V30 731 C 65.2034 -1.71528 3.01296 0
M  V30 732 C 64.2644 -1.17624 4.12872 0
M  V30 733 C 63.4974 -2.27102 4.8297 0
M  V30 734 O 63.7204 -3.47256 4.52514 0
M  V30 735 O 62.6544 -1.9307 5.70094 0
M  V30 736 H 66.4804 0.0287296 3.03686 0
M  V30 737 H 64.0654 0.0798312 1.49187 0
M  V30 738 H 65.9474 -2.38476 3.4743 0
M  V30 739 H 64.6224 -2.29608 2.2817 0
M  V30 740 H 63.5294 -0.472124 3.71109 0
M  V30 741 H 64.8624 -0.640695 4.88012 0
M  V30 742 N 66.5145 -1.57545 0.0417849 0
M  V30 743 C 67.4775 -2.09885 -0.92093 0
M  V30 744 C 68.4775 -1.01648 -1.24596 0
M  V30 745 O 69.6675 -1.27759 -1.1842 0
M  V30 746 C 66.7995 -2.57527 -2.23367 0
M  V30 747 H 67.9925 -2.96236 -0.467382 0
M  V30 748 H 65.5455 -1.5493 -0.206467 0
M  V30 749 H 66.2805 -1.74542 -2.73323 0
M  V30 750 H 66.0655 -3.36613 -2.01083 0
M  V30 751 H 67.5555 -2.98201 -2.92346 0
M  V30 752 N 67.9926 0.231505 -1.5589 0
M  V30 753 C 69.2406 0.955461 -1.78088 0
M  V30 754 C 69.5616 1.85262 -0.608533 0
M  V30 755 O 68.8316 1.92277 0.375035 0
M  V30 756 H 67.4116 0.355787 -0.656829 0
M  V30 757 H 70.0736 0.245751 -1.93344 0
M  V30 758 H 69.1696 1.56814 -2.69844 0
M  V30 759 N 69.4707 1.49531 0.497807 0
M  V30 760 C 70.7007 1.62657 1.27382 0
M  V30 761 C 71.1087 0.298488 1.86831 0
M  V30 762 O 70.4517 -0.72647 1.68725 0
M  V30 763 C 70.5137 2.6393 2.44093 0
M  V30 764 C 70.1777 4.08195 2.05489 0
M  V30 765 C 71.1747 4.949 1.59279 0
M  V30 766 C 68.8597 4.53948 2.15026 0
M  V30 767 C 70.8537 6.25397 1.23113 0
M  V30 768 C 68.5407 5.84458 1.78473 0
M  V30 769 C 69.5387 6.70006 1.32591 0
M  V30 770 O 69.2267 7.98083 0.965327 0
M  V30 771 H 68.9587 0.550429 0.392434 0
M  V30 772 H 71.5127 1.96325 0.603801 0
M  V30 773 H 69.7427 2.25449 3.14181 0
M  V30 774 H 71.4317 2.66552 3.06113 0
M  V30 775 H 72.1977 4.60779 1.51354 0
M  V30 776 H 68.0767 3.87525 2.4969 0
M  V30 777 H 71.6207 6.92125 0.872299 0
M  V30 778 H 67.5177 6.18107 1.86048 0
M  V30 779 H 68.2857 8.11122 1.09652 0
M  V30 780 N 70.9488 -0.749086 1.3866 0
M  V30 781 C 72.1768 -1.53834 1.38358 0
M  V30 782 C 72.5918 -1.88783 -0.0255219 0
M  V30 783 O 71.9488 -1.53101 -0.993292 0
M  V30 784 C 71.9998 -2.83468 2.2434 0
M  V30 785 O 71.7208 -2.50008 3.5976 0
M  V30 786 C 73.2218 -3.7758 2.32267 0
M  V30 787 H 70.4418 -0.47585 0.473083 0
M  V30 788 H 72.9858 -0.926726 1.82297 0
M  V30 789 H 71.1408 -3.40995 1.83851 0
M  V30 790 H 71.5548 -3.33182 4.05081 0
M  V30 791 H 73.0288 -4.65478 2.96706 0
M  V30 792 H 73.5058 -4.18334 1.33765 0
M  V30 793 H 74.1118 -3.25976 2.73166 0
M  V30 794 N 72.4269 -1.23603 -0.977757 0
M  V30 795 C 73.6739 -1.06971 -1.71941 0
M  V30 796 C 74.0019 0.393009 -1.90488 0
M  V30 797 O 73.2569 1.30719 -1.4564 0
M  V30 798 C 73.5559 -1.7433 -3.11999 0
M  V30 799 C 73.2219 -3.24252 -3.13323 0
M  V30 800 C 71.8839 -3.65156 -3.13392 0
M  V30 801 C 74.2359 -4.20141 -3.08433 0
M  V30 802 C 71.5639 -5.00403 -3.0629 0
M  V30 803 C 73.9159 -5.55384 -3.02873 0
M  V30 804 C 72.5799 -5.95647 -3.01265 0
M  V30 805 H 71.8499 -0.391433 -0.629175 0
M  V30 806 H 74.4969 -1.53572 -1.14403 0
M  V30 807 H 72.8019 -1.20096 -3.7294 0
M  V30 808 H 74.4989 -1.58936 -3.68158 0
M  V30 809 H 71.0889 -2.91692 -3.14029 0
M  V30 810 H 75.2729 -3.89547 -3.07517 0
M  V30 811 H 70.5289 -5.3081 -3.03399 0
M  V30 812 H 74.7029 -6.29398 -2.98046 0
M  V30 813 H 72.3299 -7.0041 -2.95516 0
M  V30 814 N 73.905 1.17692 -1.04816 0
M  V30 815 C 75.182 1.83768 -0.669963 0
M  V30 816 C 75.562 1.93232 0.849986 0
M  V30 817 O 74.91 1.46397 1.75443 0
M  V30 818 C 75.12 3.21641 -1.35455 0
M  V30 819 C 76.468 3.97592 -1.49017 0
M  V30 820 O 77.492 3.31107 -1.31326 0
M  V30 821 O 76.351 5.16729 -1.77914 0
M  V30 822 H 73.445 0.792799 -0.235368 0
M  V30 823 H 75.991 1.25021 -1.14751 0
M  V30 824 H 74.763 3.097 -2.39168 0
M  V30 825 H 74.386 3.88052 -0.866107 0
M  V30 826 N 75.3831 0.828654 1.34056 0
M  V30 827 C 76.6321 0.415828 1.97367 0
M  V30 828 C 76.9451 -1.02796 1.6641 0
M  V30 829 O 78.1511 -1.54497 2.23255 0
M  V30 830 C 76.6071 0.692601 3.53173 0
M  V30 831 C 76.2151 2.15038 3.93017 0
M  V30 832 C 77.9591 0.346222 4.23086 0
M  V30 833 C 75.8661 2.37174 5.41758 0
M  V30 834 H 74.7961 0.151755 0.738571 0
M  V30 835 H 77.4471 1.01581 1.52819 0
M  V30 836 H 75.8291 0.0223764 3.95994 0
M  V30 837 H 77.0031 2.86024 3.61285 0
M  V30 838 H 75.3181 2.45875 3.36057 0
M  V30 839 H 77.9151 0.48937 5.32456 0
M  V30 840 H 78.2581 -0.709842 4.10204 0
M  V30 841 H 78.7911 0.971258 3.85761 0
M  V30 842 H 75.5301 3.41308 5.59633 0
M  V30 843 H 75.0501 1.70738 5.74986 0
M  V30 844 H 76.7291 2.19818 6.08514 0
M  V30 845 N 76.8612 -1.46375 0.584142 0
M  V30 846 C 77.8242 -2.28784 -0.138108 0
M  V30 847 C 78.8242 -1.38471 -0.817462 0
M  V30 848 O 80.0142 -1.60833 -0.669199 0
M  V30 849 C 77.1462 -3.18892 -1.20503 0
M  V30 850 H 78.3392 -2.94117 0.586127 0
M  V30 851 H 75.8922 -1.52509 0.342171 0
M  V30 852 H 76.6272 -2.58309 -1.96079 0
M  V30 853 H 76.4122 -3.85388 -0.722384 0
M  V30 854 H 77.9022 -3.80914 -1.71155 0
M  V30 855 N 78.3393 -0.321999 -1.54275 0
M  V30 856 C 79.5693 0.282642 -2.04658 0
M  V30 857 C 79.9773 1.46453 -1.19784 0
M  V30 858 O 79.3203 1.82367 -0.220932 0
M  V30 859 C 79.3823 0.781857 -3.50895 0
M  V30 860 C 79.0463 -0.277517 -4.56157 0
M  V30 861 C 80.0433 -1.11307 -5.07845 0
M  V30 862 C 77.7283 -0.425256 -5.00497 0
M  V30 863 C 79.7223 -2.08211 -6.02434 0
M  V30 864 C 77.4093 -1.39771 -5.94901 0
M  V30 865 C 78.4073 -2.2246 -6.45756 0
M  V30 866 O 78.0953 -3.18054 -7.38307 0
M  V30 867 H 77.8273 0.0622636 -0.673126 0
M  V30 868 H 80.3813 -0.465792 -2.00049 0
M  V30 869 H 78.6113 1.58118 -3.52896 0
M  V30 870 H 80.3003 1.30467 -3.84361 0
M  V30 871 H 81.0663 -1.00991 -4.74369 0
M  V30 872 H 76.9453 0.20847 -4.60528 0
M  V30 873 H 80.4893 -2.72791 -6.42052 0
M  V30 874 H 76.3863 -1.50152 -6.27794 0
M  V30 875 H 77.1543 -3.13275 -7.56175 0
M  V30 876 N 79.8174 1.5752 -0.0501392 0
M  V30 877 C 81.0454 1.96963 0.633492 0
M  V30 878 C 81.4604 0.927631 1.6444 0
M  V30 879 O 80.8174 -0.0882665 1.82286 0
M  V30 880 C 80.8684 3.36487 1.32132 0
M  V30 881 O 80.5894 4.36693 0.350894 0
M  V30 882 C 82.0904 3.90682 2.09481 0
M  V30 883 H 79.3104 0.648244 0.173266 0
M  V30 884 H 81.8544 2.0417 -0.116134 0
M  V30 885 H 80.0094 3.30434 2.02218 0
M  V30 886 H 80.4234 5.17702 0.841735 0
M  V30 887 H 81.8974 4.90591 2.5303 0
M  V30 888 H 82.3744 3.26053 2.94255 0
M  V30 889 H 82.9804 4.00069 1.44307 0
M  V30 890 N 81.2955 -0.223234 1.56011 0
M  V30 891 C 82.5205 -0.968978 1.83373 0
M  V30 892 C 82.9455 -1.77227 0.630254 0
M  V30 893 O 82.3035 -1.76345 -0.420959 0
M  V30 894 C 82.3515 -1.86363 3.08709 0
M  V30 895 O 81.4555 -2.95873 2.87285 0
M  V30 896 H 80.7965 -0.274461 0.604622 0
M  V30 897 H 83.3265 -0.237056 2.03222 0
M  V30 898 H 83.3365 -2.27376 3.38768 0
M  V30 899 H 82.0115 -1.27319 3.95933 0
M  V30 900 H 80.5885 -2.58818 2.68454 0
M  V30 901 N 82.7736 -1.49793 -0.48987 0
M  V30 902 C 84.0196 -1.60078 -1.24511 0
M  V30 903 C 84.3526 -0.291608 -1.91998 0
M  V30 904 O 83.6276 0.705647 -1.81248 0
M  V30 905 C 83.9106 -2.76791 -2.30345 0
M  V30 906 C 83.7636 -4.17535 -1.67286 0
M  V30 907 C 85.0826 -2.89111 -3.31817 0
M  V30 908 H 82.2016 -0.582645 -0.451324 0
M  V30 909 H 84.8436 -1.82117 -0.541612 0
M  V30 910 H 82.9936 -2.5813 -2.90346 0
M  V30 911 H 84.6656 -4.4774 -1.11026 0
M  V30 912 H 82.9086 -4.22665 -0.976577 0
M  V30 913 H 83.5796 -4.95094 -2.44103 0
M  V30 914 H 86.0556 -3.06133 -2.81819 0
M  V30 915 H 84.9316 -3.72433 -4.03219 0
M  V30 916 H 85.1926 -1.9893 -3.94815 0
M  V30 917 N 84.2517 0.741722 -1.39055 0
M  V30 918 C 85.1817 1.869 -1.39966 0
M  V30 919 C 86.1627 1.6804 -0.26392 0
M  V30 920 O 87.3477 1.88458 -0.468755 0
M  V30 921 C 84.4777 3.24572 -1.23574 0
M  V30 922 C 83.4317 3.58056 -2.34477 0
M  V30 923 C 82.7577 4.94593 -2.0318 0
M  V30 924 C 84.0577 3.61716 -3.76774 0
M  V30 925 H 85.7517 1.86395 -2.34302 0
M  V30 926 H 83.2977 0.895361 -1.1278 0
M  V30 927 H 85.2507 4.031 -1.22834 0
M  V30 928 H 83.9747 3.25587 -0.257045 0
M  V30 929 H 82.6337 2.81854 -2.34423 0
M  V30 930 H 82.2817 4.92181 -1.03765 0
M  V30 931 H 81.9817 5.17964 -2.77465 0
M  V30 932 H 83.5057 5.75486 -2.04079 0
M  V30 933 H 84.9197 4.30335 -3.78794 0
M  V30 934 H 83.3167 3.96603 -4.50362 0
M  V30 935 H 84.3867 2.61672 -4.08235 0
M  V30 936 N 85.7298 1.2412 0.971189 0
M  V30 937 C 86.6768 1.0305 2.06517 0
M  V30 938 C 87.6468 -0.0550666 1.66009 0
M  V30 939 O 88.8318 0.0988688 1.90544 0
M  V30 940 C 85.9718 0.637653 3.39158 0
M  V30 941 C 85.0848 1.79633 3.92882 0
M  V30 942 C 84.2198 1.34939 5.13775 0
M  V30 943 C 83.2588 2.47823 5.59687 0
M  V30 944 N 82.3958 2.04022 6.71803 0
M  V30 945 H 87.2358 1.96685 2.23873 0
M  V30 946 H 84.7728 0.979694 1.09729 0
M  V30 947 H 86.7308 0.390931 4.15364 0
M  V30 948 H 85.3608 -0.261693 3.21737 0
M  V30 949 H 84.4128 2.15681 3.13346 0
M  V30 950 H 85.7248 2.64466 4.22918 0
M  V30 951 H 84.8788 1.06134 5.97345 0
M  V30 952 H 83.6178 0.471557 4.85415 0
M  V30 953 H 82.6228 2.77392 4.74693 0
M  V30 954 H 83.8478 3.36158 5.90063 0
M  V30 955 H 81.7938 1.18632 6.45184 0
M  V30 956 H 81.7108 2.82409 7.01271 0
M  V30 957 H 82.9788 1.78347 7.58823 0
M  V30 958 N 87.2079 -1.17134 1.05439 0
M  V30 959 C 88.6239 -1.39454 0.776201 0
M  V30 960 C 88.8239 -1.91454 -0.628307 0
M  V30 961 O 87.8799 -2.10777 -1.39031 0
M  V30 962 C 89.1929 -2.38305 1.83388 0
M  V30 963 C 90.7409 -2.52006 1.85639 0
M  V30 964 C 91.2159 -3.54133 2.90437 0
M  V30 965 N 92.7069 -3.61653 2.89415 0
M  V30 966 C 93.4419 -4.4044 3.67152 0
M  V30 967 N 92.9379 -5.22721 4.54681 0
M  V30 968 N 94.7309 -4.35337 3.55581 0
M  V30 969 H 86.8819 -0.817134 1.96053 0
M  V30 970 H 89.1449 -0.421626 0.849079 0
M  V30 971 H 88.8509 -2.07173 2.84204 0
M  V30 972 H 88.7249 -3.37841 1.67761 0
M  V30 973 H 91.1119 -2.82447 0.85486 0
M  V30 974 H 91.1929 -1.52537 2.05344 0
M  V30 975 H 90.8369 -3.24431 3.90777 0
M  V30 976 H 90.7669 -4.53313 2.67983 0
M  V30 977 H 93.2579 -3.02909 2.25952 0
M  V30 978 H 93.5709 -5.80027 5.10674 0
M  V30 979 H 91.9159 -5.22093 4.58741 0
M  V30 980 H 95.1069 -3.70112 2.86592 0
M  V30 981 H 95.2799 -4.96494 4.1641 0
M  V30 982 N 88.686 -0.835752 -1.33615 0
M  V30 983 C 89.649 -0.272 -2.2758 0
M  V30 984 C 90.649 0.557487 -1.50827 0
M  V30 985 O 91.839 0.37173 -1.70188 0
M  V30 986 C 88.971 0.617173 -3.35267 0
M  V30 987 H 90.164 -1.10111 -2.78954 0
M  V30 988 H 87.717 -0.608594 -1.43965 0
M  V30 989 H 88.452 1.46884 -2.89129 0
M  V30 990 H 88.237 0.0237066 -3.92093 0
M  V30 991 H 89.727 1.005 -4.05326 0
M  V30 992 N 90.1641 1.46063 -0.591896 0
M  V30 993 C 91.4131 2.01547 -0.0786637 0
M  V30 994 C 91.7261 1.46796 1.29268 0
M  V30 995 O 92.9321 1.94157 1.89777 0
M  V30 996 C 91.3881 3.59787 -0.0900024 0
M  V30 997 C 90.9961 4.23534 -1.46023 0
M  V30 998 C 92.7401 4.22895 0.368806 0
M  V30 999 C 90.6471 5.73881 -1.4288 0
M  V30 1000 H 89.5771 0.753564 -0.0256388 0
M  V30 1001 H 92.2281 1.677 -0.744905 0
M  V30 1002 H 90.6101 3.90752 0.642586 0
M  V30 1003 H 91.7841 4.04167 -2.21328 0
M  V30 1004 H 90.0991 3.72558 -1.85982 0
M  V30 1005 H 92.6961 5.33116 0.411258 0
M  V30 1006 H 93.0391 3.9247 1.38827 0
M  V30 1007 H 93.5721 3.9659 -0.31001 0
M  V30 1008 H 90.3111 6.0898 -2.42536 0
M  V30 1009 H 89.8311 5.95486 -0.718095 0
M  V30 1010 H 91.5101 6.36776 -1.14565 0
M  V30 1011 N 91.6422 0.330177 1.54103 0
M  V30 1012 C 93.0582 -0.0222371 1.59585 0
M  V30 1013 C 93.2582 -1.49902 1.34654 0
M  V30 1014 O 92.3142 -2.25592 1.13421 0
M  V30 1015 C 93.6272 0.401932 2.98002 0
M  V30 1016 C 95.1752 0.353145 3.11001 0
M  V30 1017 C 95.6502 0.752576 4.51775 0
M  V30 1018 N 97.1412 0.706239 4.57784 0
M  V30 1019 C 97.8762 0.987417 5.64834 0
M  V30 1020 N 97.3722 1.33607 6.79795 0
M  V30 1021 N 99.1652 0.91254 5.54643 0
M  V30 1022 H 91.3162 1.29228 1.68564 0
M  V30 1023 H 93.5792 0.525906 0.78875 0
M  V30 1024 H 93.2852 1.4311 3.21267 0
M  V30 1025 H 93.1592 -0.229699 3.765 0
M  V30 1026 H 95.5462 -0.666822 2.87467 0
M  V30 1027 H 95.6272 1.0198 2.34593 0
M  V30 1028 H 95.2712 1.77049 4.76042 0
M  V30 1029 H 95.2012 0.0635409 5.26562 0
M  V30 1030 H 97.6922 0.44889 3.75224 0
M  V30 1031 H 98.0052 1.53582 7.57385 0
M  V30 1032 H 96.3502 1.37439 6.81275 0
M  V30 1033 H 99.5412 0.639601 4.6371 0
M  V30 1034 H 99.7142 1.13503 6.37982 0
M  V30 1035 N 93.1203 -1.57491 0.0584922 0
M  V30 1036 C 94.3483 -1.97296 -0.623037 0
M  V30 1037 C 94.7633 -0.936338 -1.63946 0
M  V30 1038 O 94.1203 0.0785981 -1.82331 0
M  V30 1039 C 94.1713 -3.37183 -1.30345 0
M  V30 1040 O 93.8923 -4.36872 -0.32773 0
M  V30 1041 C 95.3933 -3.91788 -2.07406 0
M  V30 1042 H 92.6133 -0.649153 -0.169826 0
M  V30 1043 H 95.1573 -2.04106 0.12696 0
M  V30 1044 H 93.3123 -3.31502 -2.00463 0
M  V30 1045 H 93.7263 -5.18141 -0.814269 0
M  V30 1046 H 95.2003 -4.91926 -2.50425 0
M  V30 1047 H 95.6773 -3.27609 -2.92521 0
M  V30 1048 H 96.2833 -4.00829 -1.42184 0
M  V30 1049 N 94.5984 0.214957 -1.56127 0
M  V30 1050 C 95.5284 1.2695 -1.95974 0
M  V30 1051 C 96.5094 1.48539 -0.828868 0
M  V30 1052 O 97.6944 1.60611 -1.09168 0
M  V30 1053 C 94.8244 2.61794 -2.28214 0
M  V30 1054 C 93.7784 2.54851 -3.43853 0
M  V30 1055 C 93.1044 3.93785 -3.61715 0
M  V30 1056 C 94.4044 2.09065 -4.78632 0
M  V30 1057 H 96.0984 0.93846 -2.84312 0
M  V30 1058 H 93.6444 0.449996 -1.36788 0
M  V30 1059 H 95.5974 3.35731 -2.54682 0
M  V30 1060 H 94.3214 2.96599 -1.36736 0
M  V30 1061 H 92.9804 1.8337 -3.17444 0
M  V30 1062 H 92.6284 4.25908 -2.67602 0
M  V30 1063 H 92.3284 3.90019 -4.39498 0
M  V30 1064 H 93.8524 4.69374 -3.90539 0
M  V30 1065 H 95.2664 2.7275 -5.04262 0
M  V30 1066 H 93.6634 2.16346 -5.59745 0
M  V30 1067 H 94.7334 1.04315 -4.73547 0
M  V30 1068 N 96.0765 1.50051 0.48192 0
M  V30 1069 C 97.3225 1.61706 1.2338 0
M  V30 1070 C 97.6775 0.308488 1.89911 0
M  V30 1071 O 96.9705 -0.692798 1.78636 0
M  V30 1072 C 97.1645 2.72717 2.30998 0
M  V30 1073 C 96.9935 4.14242 1.75024 0
M  V30 1074 C 95.7635 4.80786 1.55476 0
M  V30 1075 C 97.9615 4.98846 1.25128 0
M  V30 1076 N 95.9435 6.06563 0.946311 0
M  V30 1077 C 97.3145 6.15258 0.765382 0
M  V30 1078 C 99.3695 4.84702 1.13881 0
M  V30 1079 C 98.0725 7.19079 0.178113 0
M  V30 1080 C 100.098 5.8869 0.565486 0
M  V30 1081 C 99.4605 7.04343 0.0899105 0
M  V30 1082 H 95.5595 0.645958 0.440753 0
M  V30 1083 H 98.1435 1.8713 0.537624 0
M  V30 1084 H 96.3145 2.49033 2.98055 0
M  V30 1085 H 98.0465 2.73789 2.9803 0
M  V30 1086 H 94.8015 4.37899 1.80392 0
M  V30 1087 H 95.2255 6.73767 0.660812 0
M  V30 1088 H 99.8675 3.95583 1.49244 0
M  V30 1089 H 97.5855 8.07882 -0.187749 0
M  V30 1090 H 101.171 5.79808 0.480974 0
M  V30 1091 H 100.051 7.83433 -0.346782 0
M  V30 1092 N 97.5546 -0.734337 1.39446 0
M  V30 1093 C 98.5046 -1.83949 1.34709 0
M  V30 1094 C 99.4886 -1.59279 0.227851 0
M  V30 1095 O 100.681 -1.70771 0.465438 0
M  V30 1096 C 97.8096 -3.21884 1.19356 0
M  V30 1097 C 96.8956 -3.52381 2.35984 0
M  V30 1098 N 97.2866 -3.53811 3.61457 0
M  V30 1099 C 95.5846 -3.82747 2.28956 0
M  V30 1100 C 96.2856 -3.82122 4.38586 0
M  V30 1101 N 95.2616 -3.9993 3.68181 0
M  V30 1102 H 99.0636 -1.83361 2.29687 0
M  V30 1103 H 96.5776 -0.932609 1.32952 0
M  V30 1104 H 98.5746 -4.00998 1.14046 0
M  V30 1105 H 97.2346 -3.23711 0.253295 0
M  V30 1106 H 98.2456 -3.35107 3.94872 0
M  V30 1107 H 94.9226 -3.92175 1.43194 0
M  V30 1108 H 96.3126 -3.89691 5.47349 0
M  V30 1109 N 99.0327 -1.24633 -0.964593 0
M  V30 1110 C 100.279 -1.08949 -1.71049 0
M  V30 1111 C 100.612 0.370302 -1.90637 0
M  V30 1112 O 99.8867 1.27349 -1.47011 0
M  V30 1113 C 100.17 -1.83329 -3.0994 0
M  V30 1114 C 100.023 -3.37077 -2.97824 0
M  V30 1115 C 101.342 -1.60846 -4.09654 0
M  V30 1116 H 98.4607 -0.397178 -0.620821 0
M  V30 1117 H 101.103 -1.5334 -1.12191 0
M  V30 1118 H 99.2527 -1.45597 -3.60186 0
M  V30 1119 H 100.925 -3.84425 -2.5498 0
M  V30 1120 H 99.1677 -3.65298 -2.33965 0
M  V30 1121 H 99.8387 -3.84324 -3.96231 0
M  V30 1122 H 102.315 -1.93674 -3.68279 0
M  V30 1123 H 101.191 -2.1534 -5.04896 0
M  V30 1124 H 101.452 -0.547434 -4.38698 0
M  V30 1125 N 100.511 1.16574 -1.06058 0
M  V30 1126 C 101.443 2.2045 -0.627239 0
M  V30 1127 C 102.456 1.59752 0.313534 0
M  V30 1128 O 103.645 1.78192 0.104896 0
M  V30 1129 C 100.745 3.3875 0.100974 0
M  V30 1130 C 99.9178 4.29008 -0.852687 0
M  V30 1131 C 98.9768 5.25944 -0.164152 0
M  V30 1132 O 98.0028 5.63535 -0.801047 0
M  V30 1133 N 99.2048 5.70075 1.09518 0
M  V30 1134 H 101.97 2.58249 -1.52077 0
M  V30 1135 H 99.5308 1.3156 -0.943594 0
M  V30 1136 H 101.523 4.00638 0.57194 0
M  V30 1137 H 100.093 2.99476 0.89628 0
M  V30 1138 H 99.3128 3.64419 -1.50308 0
M  V30 1139 H 100.601 4.86195 -1.49972 0
M  V30 1140 H 99.9988 5.41624 1.6328 0
M  V30 1141 H 98.5558 6.34067 1.51006 0
M  V30 1142 N 101.989 0.842826 1.3317 0
M  V30 1143 C 103.266 0.362216 1.92217 0
M  V30 1144 C 103.646 -1.15289 1.76838 0
M  V30 1145 O 102.994 -1.96914 1.15919 0
M  V30 1146 C 103.204 0.813495 3.39387 0
M  V30 1147 C 104.552 0.823804 4.16532 0
M  V30 1148 O 105.576 0.757358 3.48055 0
M  V30 1149 O 104.435 0.915193 5.38782 0
M  V30 1150 H 101.529 0.103317 0.820521 0
M  V30 1151 H 104.075 0.928942 1.42017 0
M  V30 1152 H 102.847 1.85624 3.4447 0
M  V30 1153 H 102.47 0.223561 3.96971 0
M  V30 1154 N 103.467 -1.45747 0.599634 0
M  V30 1155 C 104.399 -2.28628 -0.161879 0
M  V30 1156 C 105.412 -1.39494 -0.839367 0
M  V30 1157 O 106.601 -1.63941 -0.706089 0
M  V30 1158 C 103.701 -3.15014 -1.24976 0
M  V30 1159 C 102.874 -4.32378 -0.660935 0
M  V30 1160 C 101.933 -5.00033 -1.63869 0
M  V30 1161 O 100.959 -5.57085 -1.1681 0
M  V30 1162 N 102.161 -4.98589 -2.97303 0
M  V30 1163 H 104.926 -2.94624 0.549265 0
M  V30 1164 H 102.487 -1.55847 0.438565 0
M  V30 1165 H 104.479 -3.5714 -1.9035 0
M  V30 1166 H 103.049 -2.5098 -1.86354 0
M  V30 1167 H 102.269 -3.9383 0.170688 0
M  V30 1168 H 103.557 -5.08197 -0.247619 0
M  V30 1169 H 102.955 -4.53514 -3.38145 0
M  V30 1170 H 101.512 -5.44603 -3.58121 0
M  V30 1171 N 104.945 -0.338344 -1.53925 0
M  V30 1172 C 105.878 0.563758 -2.21127 0
M  V30 1173 C 106.856 1.10433 -1.19345 0
M  V30 1174 O 108.04 1.16557 -1.48144 0
M  V30 1175 C 105.167 1.77505 -2.88461 0
M  V30 1176 C 104.213 1.3644 -4.04087 0
M  V30 1177 S 105.046 0.388593 -5.34088 0
M  V30 1178 C 106.202 1.60683 -6.04923 0
M  V30 1179 H 106.435 -0.00704546 -2.97299 0
M  V30 1180 H 103.968 -0.122418 -1.53914 0
M  V30 1181 H 105.926 2.46999 -3.27875 0
M  V30 1182 H 104.587 2.31706 -2.12064 0
M  V30 1183 H 103.78 2.26739 -4.50117 0
M  V30 1184 H 103.382 0.748998 -3.66423 0
M  V30 1185 H 105.674 2.54209 -6.28 0
M  V30 1186 H 106.617 1.18842 -6.98056 0
M  V30 1187 H 107.025 1.80052 -5.35015 0
M  V30 1188 N 106.423 1.57458 -0.0668435 0
M  V30 1189 C 107.7 1.8469 0.644132 0
M  V30 1190 C 108.08 0.958343 1.88093 0
M  V30 1191 O 107.428 0.0233579 2.28488 0
M  V30 1192 C 107.638 3.34767 0.986509 0
M  V30 1193 C 108.986 4.02159 1.36212 0
M  V30 1194 O 110.01 3.39484 1.07839 0
M  V30 1195 O 108.869 5.12694 1.89227 0
M  V30 1196 H 105.963 0.762816 0.319437 0
M  V30 1197 H 108.509 1.6942 -0.0973986 0
M  V30 1198 H 107.281 3.91151 0.107883 0
M  V30 1199 H 106.904 3.55281 1.78497 0
M  V30 1200 N 107.901 -0.206675 1.56239 0
M  V30 1201 C 108.831 -1.25909 1.96645 0
M  V30 1202 C 109.812 -1.48097 0.836734 0
M  V30 1203 O 110.997 -1.6003 1.10019 0
M  V30 1204 C 108.127 -2.6058 2.29599 0
M  V30 1205 C 107.081 -2.53024 3.452 0
M  V30 1206 C 106.407 -3.91861 3.63798 0
M  V30 1207 C 107.707 -2.06524 4.79734 0
M  V30 1208 H 109.401 -0.923369 2.84806 0
M  V30 1209 H 106.947 -0.442735 1.37025 0
M  V30 1210 H 108.9 -3.34375 2.56459 0
M  V30 1211 H 107.624 -2.95869 1.38307 0
M  V30 1212 H 106.283 -1.81684 3.18412 0
M  V30 1213 H 105.931 -4.24483 2.69857 0
M  V30 1214 H 105.631 -3.87683 4.4156 0
M  V30 1215 H 107.155 -4.67296 3.93022 0
M  V30 1216 H 108.569 -2.70072 5.05702 0
M  V30 1217 H 106.966 -2.13374 5.60885 0
M  V30 1218 H 108.036 -1.01802 4.74093 0
M  V30 1219 N 109.379 -1.50304 -0.473955 0
M  V30 1220 C 110.312 -1.63595 -1.59097 0
M  V30 1221 C 111.29 -0.484142 -1.55225 0
M  V30 1222 O 112.474 -0.703271 -1.7489 0
M  V30 1223 C 109.601 -1.61589 -2.97669 0
M  V30 1224 C 108.647 -2.82295 -3.19705 0
M  V30 1225 S 109.48 -4.43635 -2.99913 0
M  V30 1226 C 110.636 -4.44317 -4.40832 0
M  V30 1227 H 110.869 -2.58082 -1.47583 0
M  V30 1228 H 108.402 -1.39531 -0.661087 0
M  V30 1229 H 110.36 -1.61116 -3.7756 0
M  V30 1230 H 109.021 -0.683421 -3.06575 0
M  V30 1231 H 108.214 -2.77188 -4.20931 0
M  V30 1232 H 107.816 -2.8032 -2.47582 0
M  V30 1233 H 110.108 -4.17703 -5.33414 0
M  V30 1234 H 111.051 -5.45911 -4.50984 0
M  V30 1235 H 111.459 -3.74059 -4.22777 0
M  V30 1236 N 110.857 0.726932 -1.39834 0
M  V30 1237 C 112.087 1.51393 -1.40583 0
M  V30 1238 C 112.495 1.892 -0.000740625 0
M  V30 1239 O 111.838 1.55189 0.982951 0
M  V30 1240 C 111.9 2.82588 -2.22226 0
M  V30 1241 C 111.564 2.67169 -3.70769 0
M  V30 1242 C 112.561 2.3518 -4.63666 0
M  V30 1243 C 110.246 2.83788 -4.14451 0
M  V30 1244 C 112.24 2.20002 -5.98229 0
M  V30 1245 C 109.927 2.68229 -5.49087 0
M  V30 1246 C 110.925 2.36382 -6.4079 0
M  V30 1247 O 110.613 2.2093 -7.72946 0
M  V30 1248 H 110.345 0.474168 -0.48181 0
M  V30 1249 H 112.899 0.905247 -1.84376 0
M  V30 1250 H 111.129 3.45746 -1.73195 0
M  V30 1251 H 112.818 3.44247 -2.15055 0
M  V30 1252 H 113.584 2.21984 -4.31217 0
M  V30 1253 H 109.463 3.07566 -3.43401 0
M  V30 1254 H 113.007 1.95067 -6.69772 0
M  V30 1255 H 108.904 2.81006 -5.81125 0
M  V30 1256 H 109.672 2.35937 -7.83757 0
M  V30 1257 N 112.336 1.25143 0.95797 0
M  V30 1258 C 113.582 1.09855 1.70469 0
M  V30 1259 C 113.915 -0.360187 1.90831 0
M  V30 1260 O 113.19 -1.26568 1.47685 0
M  V30 1261 C 113.473 1.8497 3.08963 0
M  V30 1262 C 113.326 3.38652 2.96032 0
M  V30 1263 C 114.645 1.63016 4.08795 0
M  V30 1264 H 111.764 0.400465 0.618706 0
M  V30 1265 H 114.406 1.53933 1.11376 0
M  V30 1266 H 112.556 1.47505 3.59409 0
M  V30 1267 H 114.228 3.85772 2.52938 0
M  V30 1268 H 112.471 3.66534 2.32025 0
M  V30 1269 H 113.142 3.8642 3.94187 0
M  V30 1270 H 115.618 1.95625 3.67247 0
M  V30 1271 H 114.494 2.18015 5.03747 0
M  V30 1272 H 114.755 0.570692 4.38401 0
M  V30 1273 N 113.814 -1.1601 1.06675 0
M  V30 1274 C 115.225 -1.68235 0.809565 0
M  V30 1275 C 115.576 -1.8454 -0.666303 0
M  V30 1276 O 114.701 -1.54374 -1.5165 0
M  V30 1277 C 115.296 -3.05585 1.46299 0
M  V30 1278 C 113.855 -3.54915 1.25349 0
M  V30 1279 C 113.002 -2.30804 1.53703 0
M  V30 1280 H 115.953 -1.00318 1.22971 0
M  V30 1281 H 115.974 -3.70174 0.880431 0
M  V30 1282 H 115.486 -2.93686 2.53713 0
M  V30 1283 H 113.587 -3.72067 0.199261 0
M  V30 1284 H 113.7 -4.36774 1.9689 0
M  V30 1285 H 112.064 -2.36007 0.957739 0
M  V30 1286 H 112.847 -2.21499 2.62284 0
M  V30 1287 N 115.292 -0.849877 -1.32721 0
M  V30 1288 C 116.538 -0.451591 -1.97708 0
M  V30 1289 C 116.871 0.989175 -1.6712 0
M  V30 1290 O 116.146 1.69334 -0.956891 0
M  V30 1291 C 116.429 -0.685598 -3.53513 0
M  V30 1292 C 116.282 -2.17444 -3.93749 0
M  V30 1293 C 117.601 -0.138874 -4.39881 0
M  V30 1294 H 114.72 -0.16555 -0.718166 0
M  V30 1295 H 117.362 -1.06742 -1.57182 0
M  V30 1296 H 115.512 -0.161416 -3.88165 0
M  V30 1297 H 117.184 -2.76433 -3.693 0
M  V30 1298 H 115.427 -2.65476 -3.43081 0
M  V30 1299 H 116.098 -2.28888 -5.02309 0
M  V30 1300 H 118.574 -0.587068 -4.11938 0
M  V30 1301 H 117.45 -0.332213 -5.47894 0
M  V30 1302 H 117.711 0.95806 -4.31594 0
M  V30 1303 N 116.77 1.45427 -0.607355 0
M  V30 1304 C 118.016 2.0254 -0.102607 0
M  V30 1305 C 118.349 1.47478 1.26348 0
M  V30 1306 O 117.624 0.64939 1.83339 0
M  V30 1307 C 117.907 3.60044 -0.0634347 0
M  V30 1308 C 117.76 4.2544 -1.46017 0
M  V30 1309 C 119.079 4.35646 0.624514 0
M  V30 1310 H 116.198 0.73598 -0.0387607 0
M  V30 1311 H 118.84 1.73284 -0.779282 0
M  V30 1312 H 116.99 3.85101 0.512808 0
M  V30 1313 H 118.662 4.11569 -2.08347 0
M  V30 1314 H 116.905 3.83849 -2.02094 0
M  V30 1315 H 117.576 5.34342 -1.385 0
M  V30 1316 H 120.052 4.15882 0.134723 0
M  V30 1317 H 118.928 5.45376 0.621028 0
M  V30 1318 H 119.189 4.08501 1.69055 0
M  V30 1319 N 118.248 0.346503 1.53744 0
M  V30 1320 C 119.198 -0.524953 2.21874 0
M  V30 1321 C 120.182 -1.06376 1.20718 0
M  V30 1322 O 121.374 -0.996972 1.46251 0
M  V30 1323 C 118.503 -1.6739 2.99726 0
M  V30 1324 C 117.589 -1.14888 4.08242 0
M  V30 1325 N 117.98 -0.345329 5.0462 0
M  V30 1326 C 116.278 -1.4255 4.22606 0
M  V30 1327 C 116.979 -0.0600706 5.81669 0
M  V30 1328 N 115.955 -0.65252 5.39669 0
M  V30 1329 H 119.757 0.0960091 2.93743 0
M  V30 1330 H 117.271 0.15352 1.61673 0
M  V30 1331 H 119.268 -2.3102 3.47038 0
M  V30 1332 H 117.928 -2.29811 2.29384 0
M  V30 1333 H 118.939 0.0138439 5.17898 0
M  V30 1334 H 115.616 -2.05389 3.63486 0
M  V30 1335 H 117.006 0.588321 6.69319 0
M  V30 1336 N 119.726 -1.57421 0.075193 0
M  V30 1337 C 120.951 -1.98364 -0.605515 0
M  V30 1338 C 121.376 -0.953383 -1.62149 0
M  V30 1339 O 120.734 0.0806053 -1.81121 0
M  V30 1340 C 120.782 -3.38332 -1.24756 0
M  V30 1341 O 119.886 -3.37959 -2.36342 0
M  V30 1342 H 119.227 -0.645553 -0.155428 0
M  V30 1343 H 121.757 -2.04044 0.150714 0
M  V30 1344 H 121.767 -3.75591 -1.5936 0
M  V30 1345 H 120.442 -4.12846 -0.503129 0
M  V30 1346 H 119.019 -3.12474 -2.03506 0
M  V30 1347 N 121.204 0.198386 -1.56346 0
M  V30 1348 C 122.45 0.916115 -1.81601 0
M  V30 1349 C 122.805 1.81025 -0.651744 0
M  V30 1350 O 122.098 1.88316 0.353229 0
M  V30 1351 C 122.292 1.77031 -3.10475 0
M  V30 1352 C 122.121 0.960365 -4.39326 0
M  V30 1353 C 120.891 0.646093 -5.01152 0
M  V30 1354 C 123.089 0.314628 -5.13337 0
M  V30 1355 N 121.071 -0.182828 -6.13628 0
M  V30 1356 C 122.442 -0.37664 -6.18855 0
M  V30 1357 C 124.497 0.230019 -4.97368 0
M  V30 1358 C 123.2 -1.14445 -7.10137 0
M  V30 1359 C 125.226 -0.524389 -5.89071 0
M  V30 1360 C 124.588 -1.20412 -6.94032 0
M  V30 1361 H 120.687 0.314732 -0.715868 0
M  V30 1362 H 123.271 0.185102 -1.93818 0
M  V30 1363 H 121.442 2.47295 -2.99499 0
M  V30 1364 H 123.174 2.42727 -3.2383 0
M  V30 1365 H 119.929 0.969724 -4.63566 0
M  V30 1366 H 120.353 -0.586802 -6.74452 0
M  V30 1367 H 124.995 0.741184 -4.16253 0
M  V30 1368 H 122.713 -1.66706 -7.90718 0
M  V30 1369 H 126.299 -0.591167 -5.78789 0
M  V30 1370 H 125.179 -1.77853 -7.63766 0
M  V30 1371 N 122.682 1.50554 0.465978 0
M  V30 1372 C 124.098 1.38093 0.800154 0
M  V30 1373 C 124.298 0.440988 1.96615 0
M  V30 1374 O 123.354 -0.114499 2.5224 0
M  V30 1375 C 124.667 2.79565 1.10742 0
M  V30 1376 C 126.215 2.88516 1.21357 0
M  V30 1377 C 126.69 4.30833 1.55393 0
M  V30 1378 N 128.181 4.33807 1.62375 0
M  V30 1379 C 128.916 5.40927 1.90225 0
M  V30 1380 N 128.412 6.58247 2.16062 0
M  V30 1381 N 130.205 5.28376 1.9177 0
M  V30 1382 H 122.356 2.10237 -0.302366 0
M  V30 1383 H 124.619 0.945203 -0.0727746 0
M  V30 1384 H 124.325 3.50208 0.323661 0
M  V30 1385 H 124.199 3.17125 2.04234 0
M  V30 1386 H 126.586 2.1809 1.98799 0
M  V30 1387 H 126.667 2.54492 0.258321 0
M  V30 1388 H 126.311 5.01799 0.784889 0
M  V30 1389 H 126.241 4.62347 2.52076 0
M  V30 1390 H 128.732 3.49212 1.44427 0
M  V30 1391 H 129.045 7.3569 2.36601 0
M  V30 1392 H 127.39 6.61413 2.13444 0
M  V30 1393 H 130.581 4.35715 1.71085 0
M  V30 1394 H 130.754 6.11944 2.13139 0
M  V30 1395 N 124.16 -0.719506 1.40217 0
M  V30 1396 C 125.09 -1.8465 1.42922 0
M  V30 1397 C 126.071 -1.67599 0.29062 0
M  V30 1398 O 127.256 -1.87688 0.498677 0
M  V30 1399 C 124.386 -3.22565 1.28722 0
M  V30 1400 C 123.34 -3.54281 2.40144 0
M  V30 1401 C 122.666 -4.91298 2.11023 0
M  V30 1402 C 123.966 -3.55676 3.82481 0
M  V30 1403 H 125.66 -1.82644 2.37237 0
M  V30 1404 H 123.206 -0.877305 1.1419 0
M  V30 1405 H 125.159 -4.01095 1.29232 0
M  V30 1406 H 123.883 -3.25137 0.308811 0
M  V30 1407 H 122.542 -2.78088 2.38877 0
M  V30 1408 H 122.19 -4.90468 1.11582 0
M  V30 1409 H 121.89 -5.13485 2.8567 0
M  V30 1410 H 123.414 -5.72166 2.13209 0
M  V30 1411 H 124.828 -4.24254 3.85592 0
M  V30 1412 H 123.225 -3.89388 4.56614 0
M  V30 1413 H 124.295 -2.55144 4.12346 0
M  V30 1414 N 125.638 -1.25649 -0.95132 0
M  V30 1415 C 126.586 -1.06118 -2.06982 0
M  V30 1416 C 127.58 0.00889169 -1.69398 0
M  V30 1417 O 128.786 -0.146988 -1.79399 0
M  V30 1418 H 125.161 -0.326248 -0.677544 0
M  V30 1419 H 127.132 -2.00932 -2.2061 0
M  V30 1420 C 125.881 -0.700145 -3.40578 0
M  V30 1421 H 125.204 -1.51537 -3.69968 0
M  V30 1422 H 126.644 -0.603211 -4.19687 0
M  V30 1423 C 125.103 0.59403 -3.31622 0
M  V30 1424 O 125.633 1.63522 -3.66911 0
M  V30 1425 N 123.839 0.58089 -2.84735 0
M  V30 1426 H 123.386 -0.266783 -2.56215 0
M  V30 1427 H 123.344 1.44695 -2.79125 0
M  V30 1428 N 127.117 1.15442 -1.07289 0
M  V30 1429 C 128.027 2.23786 -0.704057 0
M  V30 1430 C 129.043 1.7166 0.284413 0
M  V30 1431 O 130.219 2.00972 0.131205 0
M  V30 1432 C 127.284 3.46535 -0.106792 0
M  V30 1433 C 126.345 4.13654 -1.14842 0
M  V30 1434 C 125.578 5.30544 -0.57956 0
M  V30 1435 O 125.801 5.67187 0.604585 0
M  V30 1436 O 124.735 5.87154 -1.32414 0
M  V30 1437 H 128.561 2.57664 -1.60757 0
M  V30 1438 H 126.146 1.23152 -0.845803 0
M  V30 1439 H 128.028 4.20804 0.224048 0
M  V30 1440 H 126.703 3.14407 0.770049 0
M  V30 1441 H 125.61 3.4131 -1.5316 0
M  V30 1442 H 126.943 4.49861 -1.99714 0
M  V30 1443 N 128.595 0.856903 1.32268 0
M  V30 1444 C 130.011 0.547061 1.49931 0
M  V30 1445 C 130.211 -0.921781 1.7918 0
M  V30 1446 O 129.267 -1.70469 1.8627 0
M  V30 1447 C 130.58 1.43599 2.64196 0
M  V30 1448 C 132.128 1.43665 2.78081 0
M  V30 1449 C 132.603 2.31085 3.95428 0
M  V30 1450 N 134.094 2.28893 4.02694 0
M  V30 1451 C 134.829 2.93262 4.92732 0
M  V30 1452 N 134.325 3.66751 5.87763 0
M  V30 1453 N 136.118 2.82638 4.85873 0
M  V30 1454 H 128.269 1.8075 1.11549 0
M  V30 1455 H 130.532 0.772144 0.549997 0
M  V30 1456 H 130.238 2.48058 2.49319 0
M  V30 1457 H 130.112 1.12502 3.60032 0
M  V30 1458 H 132.499 0.399701 2.92381 0
M  V30 1459 H 132.58 1.7878 1.82952 0
M  V30 1460 H 132.224 3.34849 3.81888 0
M  V30 1461 H 132.154 1.93302 4.89839 0
M  V30 1462 H 134.645 1.75466 3.34694 0
M  V30 1463 H 134.958 4.13027 6.53168 0
M  V30 1464 H 133.303 3.70859 5.87783 0
M  V30 1465 H 136.494 2.24774 4.10602 0
M  V30 1466 H 136.667 3.33084 5.55841 0
M  V30 1467 N 130.073 -1.45103 0.615059 0
M  V30 1468 C 131.023 -2.27679 -0.120966 0
M  V30 1469 C 132.007 -1.3775 -0.831491 0
M  V30 1470 O 133.199 -1.61683 -0.720249 0
M  V30 1471 C 130.328 -3.24767 -1.1127 0
M  V30 1472 C 129.414 -4.22184 -0.402627 0
M  V30 1473 N 129.805 -5.02692 0.559884 0
M  V30 1474 C 128.103 -4.4125 -0.649202 0
M  V30 1475 C 128.804 -5.73421 0.977942 0
M  V30 1476 N 127.78 -5.42657 0.320104 0
M  V30 1477 H 131.582 -2.87325 0.618181 0
M  V30 1478 H 129.096 -1.56345 0.439304 0
M  V30 1479 H 131.093 -3.82666 -1.65446 0
M  V30 1480 H 129.753 -2.66682 -1.85232 0
M  V30 1481 H 130.764 -5.09354 0.936976 0
M  V30 1482 H 127.441 -3.9428 -1.37293 0
M  V30 1483 H 128.831 -6.48107 1.77222 0
M  V30 1484 N 131.551 -0.354651 -1.53558 0
M  V30 1485 C 132.781 0.239167 -2.05211 0
M  V30 1486 C 133.189 1.43879 -1.22863 0
M  V30 1487 O 132.532 1.81857 -0.259565 0
M  V30 1488 C 132.594 0.707251 -3.52474 0
M  V30 1489 C 132.258 -0.374212 -4.55465 0
M  V30 1490 C 133.255 -1.22054 -5.0537 0
M  V30 1491 C 130.94 -0.531323 -4.99482 0
M  V30 1492 C 132.934 -2.20942 -5.97882 0
M  V30 1493 C 130.621 -1.52358 -5.91802 0
M  V30 1494 C 131.619 -2.36108 -6.40892 0
M  V30 1495 O 131.307 -3.33643 -7.31394 0
M  V30 1496 H 131.039 0.0479716 -0.674296 0
M  V30 1497 H 133.593 -0.508121 -1.99016 0
M  V30 1498 H 131.823 1.50596 -3.56171 0
M  V30 1499 H 133.512 1.22285 -3.87042 0
M  V30 1500 H 134.278 -1.1103 -4.7212 0
M  V30 1501 H 130.157 0.110738 -4.60867 0
M  V30 1502 H 133.701 -2.86348 -6.36121 0
M  V30 1503 H 129.598 -1.63434 -6.24467 0
M  V30 1504 H 130.366 -3.29244 -7.4936 0
M  V30 1505 N 133.029 1.57378 -0.0835403 0
M  V30 1506 C 134.277 1.93547 0.581718 0
M  V30 1507 C 134.598 0.96524 1.69435 0
M  V30 1508 O 133.868 0.0153369 1.95894 0
M  V30 1509 H 132.448 0.714521 0.217874 0
M  V30 1510 H 135.11 1.94366 -0.144158 0
M  V30 1511 H 134.206 2.95665 0.999423 0
M  V30 1512 N 134.507 -0.190092 1.56449 0
M  V30 1513 C 135.47 -1.21925 1.9408 0
M  V30 1514 C 136.47 -1.38176 0.822431 0
M  V30 1515 O 137.66 -1.35903 1.08977 0
M  V30 1516 C 134.792 -2.58773 2.21922 0
M  V30 1517 H 135.985 -0.897464 2.86157 0
M  V30 1518 H 133.538 -0.43181 1.50217 0
M  V30 1519 H 134.273 -2.95998 1.32499 0
M  V30 1520 H 134.058 -2.48348 3.03424 0
M  V30 1521 H 135.548 -3.32978 2.52022 0
M  V30 1522 N 135.985 -1.50799 -0.457987 0
M  V30 1523 C 136.915 -1.73553 -1.5621 0
M  V30 1524 C 137.896 -0.584774 -1.59732 0
M  V30 1525 O 139.081 -0.825314 -1.7579 0
M  V30 1526 C 136.211 -1.84169 -2.94447 0
M  V30 1527 C 135.165 -2.99461 -3.0579 0
M  V30 1528 C 134.491 -2.95235 -4.45803 0
M  V30 1529 C 135.791 -4.39766 -2.81786 0
M  V30 1530 H 137.485 -2.66 -1.37421 0
M  V30 1531 H 135.031 -1.28002 -0.659662 0
M  V30 1532 H 136.984 -1.98672 -3.71628 0
M  V30 1533 H 135.708 -0.883545 -3.14422 0
M  V30 1534 H 134.367 -2.8463 -2.31044 0
M  V30 1535 H 134.015 -1.97239 -4.62715 0
M  V30 1536 H 133.715 -3.72642 -4.54326 0
M  V30 1537 H 135.239 -3.11803 -5.24987 0
M  V30 1538 H 136.653 -4.55054 -3.4871 0
M  V30 1539 H 135.05 -5.18722 -3.0174 0
M  V30 1540 H 136.12 -4.51229 -1.7754 0
M  V30 1541 N 137.463 0.71206 -1.40597 0
M  V30 1542 C 138.688 1.50617 -1.42581 0
M  V30 1543 C 139.113 1.88079 -0.0282102 0
M  V30 1544 O 138.471 1.53511 0.964579 0
M  V30 1545 C 138.519 2.7557 -2.3258 0
M  V30 1546 O 137.623 3.72414 -1.77148 0
M  V30 1547 H 136.964 0.453966 -0.484573 0
M  V30 1548 H 139.494 0.876649 -1.84868 0
M  V30 1549 H 139.504 3.2406 -2.47889 0
M  V30 1550 H 138.179 2.47639 -3.34138 0
M  V30 1551 H 136.756 3.31276 -1.71204 0
M  V30 1552 N 138.941 1.26152 0.944643 0
M  V30 1553 C 140.189 1.11271 1.6871 0
M  V30 1554 C 140.51 -0.345166 1.91921 0
M  V30 1555 O 139.78 -1.24387 1.51343 0
M  V30 1556 H 138.36 0.408783 0.625224 0
M  V30 1557 H 141.022 1.58427 1.1352 0
M  V30 1558 H 140.118 1.62879 2.66227 0
M  V30 1559 N 140.419 -1.14872 1.07899 0
M  V30 1560 C 141.349 -2.2193 0.725887 0
M  V30 1561 C 142.33 -1.67622 -0.28927 0
M  V30 1562 O 143.515 -1.93533 -0.160787 0
M  V30 1563 C 140.645 -3.47061 0.128856 0
M  V30 1564 C 139.599 -4.14363 1.07178 0
M  V30 1565 C 138.925 -5.33636 0.337229 0
M  V30 1566 C 140.225 -4.63492 2.40775 0
M  V30 1567 H 141.919 -2.51724 1.62097 0
M  V30 1568 H 139.465 -1.20991 0.780838 0
M  V30 1569 H 141.418 -4.21199 -0.130147 0
M  V30 1570 H 140.142 -3.16617 -0.80134 0
M  V30 1571 H 138.801 -3.42173 1.3158 0
M  V30 1572 H 138.449 -4.99449 -0.596606 0
M  V30 1573 H 138.149 -5.79609 0.965788 0
M  V30 1574 H 139.673 -6.10539 0.0861567 0
M  V30 1575 H 141.087 -5.2913 2.20669 0
M  V30 1576 H 139.484 -5.20148 2.99276 0
M  V30 1577 H 140.554 -3.78834 3.02676 0
M  V30 1578 N 141.898 -0.863906 -1.31812 0
M  V30 1579 C 142.846 -0.30422 -2.30602 0
M  V30 1580 C 143.84 0.577419 -1.59255 0
M  V30 1581 O 145.046 0.464194 -1.73912 0
M  V30 1582 H 141.421 -0.0796877 -0.747766 0
M  V30 1583 H 143.392 -1.15148 -2.75288 0
M  V30 1584 C 142.141 0.484617 -3.44306 0
M  V30 1585 H 141.464 -0.18451 -3.99374 0
M  V30 1586 H 142.904 0.841664 -4.15562 0
M  V30 1587 C 141.363 1.6735 -2.92396 0
M  V30 1588 O 141.893 2.77273 -2.90659 0
M  V30 1589 N 140.099 1.50362 -2.48676 0
M  V30 1590 H 139.646 0.609402 -2.50288 0
M  V30 1591 H 139.604 2.30051 -2.14299 0
M  V30 1592 N 143.376 1.44774 -0.622745 0
M  V30 1593 C 144.323 2.30635 0.0871679 0
M  V30 1594 C 145.293 1.42994 0.845097 0
M  V30 1595 O 146.478 1.71907 0.827812 0
M  V30 1596 C 143.618 3.28144 1.06844 0
M  V30 1597 C 142.731 4.30888 0.309809 0
M  V30 1598 C 141.866 5.15494 1.28215 0
M  V30 1599 C 140.905 6.09953 0.512198 0
M  V30 1600 N 140.042 6.87287 1.43458 0
M  V30 1601 H 144.882 2.90803 -0.650974 0
M  V30 1602 H 142.419 1.43286 -0.33281 0
M  V30 1603 H 144.377 3.83157 1.65066 0
M  V30 1604 H 143.007 2.69695 1.77382 0
M  V30 1605 H 142.059 3.78414 -0.388181 0
M  V30 1606 H 143.371 4.97955 -0.290254 0
M  V30 1607 H 142.525 5.74983 1.93596 0
M  V30 1608 H 141.264 4.48481 1.91614 0
M  V30 1609 H 140.269 5.49581 -0.155151 0
M  V30 1610 H 141.494 6.78999 -0.116958 0
M  V30 1611 H 139.44 6.2295 2.05594 0
M  V30 1612 H 139.357 7.50763 0.888335 0
M  V30 1613 H 140.625 7.51306 2.07749 0
M  V30 1614 N 144.854 0.36279 1.53368 0
M  V30 1615 C 145.817 -0.472679 2.24273 0
M  V30 1616 C 146.817 -1.012 1.24961 0
M  V30 1617 O 148.007 -0.898194 1.49259 0
M  V30 1618 C 145.139 -1.66039 2.97731 0
M  V30 1619 H 146.332 0.14773 2.99536 0
M  V30 1620 H 143.885 0.114434 1.55881 0
M  V30 1621 H 144.62 -2.31896 2.26704 0
M  V30 1622 H 144.405 -1.28066 3.70596 0
M  V30 1623 H 145.895 -2.25252 3.51641 0
M  V30 1624 N 146.332 -1.57332 0.0918853 0
M  V30 1625 C 147.242 -2.17368 -0.882505 0
M  V30 1626 C 148.258 -1.14226 -1.31257 0
M  V30 1627 O 149.434 -1.46582 -1.38115 0
M  V30 1628 C 146.499 -2.73962 -2.12476 0
M  V30 1629 C 145.56 -3.92048 -1.7492 0
M  V30 1630 C 144.793 -4.45933 -2.93223 0
M  V30 1631 O 145.016 -3.98764 -4.07852 0
M  V30 1632 O 143.95 -5.36999 -2.71875 0
M  V30 1633 H 147.776 -3.01031 -0.40172 0
M  V30 1634 H 145.361 -1.48813 -0.132291 0
M  V30 1635 H 147.243 -3.10147 -2.85283 0
M  V30 1636 H 145.918 -1.93347 -2.59613 0
M  V30 1637 H 144.825 -3.6068 -0.993025 0
M  V30 1638 H 146.158 -4.74017 -1.32548 0
M  V30 1639 N 147.81 0.181792 -1.56548 0
M  V30 1640 C 149.038 0.915947 -1.85521 0
M  V30 1641 C 149.453 1.76282 -0.676016 0
M  V30 1642 O 148.81 1.79012 0.355077 0
M  V30 1643 C 148.861 1.80126 -3.13427 0
M  V30 1644 O 148.582 0.988562 -4.26801 0
M  V30 1645 C 150.083 2.64597 -3.55673 0
M  V30 1646 H 147.303 0.26661 -0.61576 0
M  V30 1647 H 149.847 0.185039 -2.03661 0
M  V30 1648 H 148.002 2.48563 -2.97145 0
M  V30 1649 H 148.416 1.59308 -4.99721 0
M  V30 1650 H 149.89 3.2235 -4.48101 0
M  V30 1651 H 150.367 3.38958 -2.79292 0
M  V30 1652 H 150.973 2.0151 -3.74532 0
M  V30 1653 N 149.288 1.51039 0.449983 0
M  V30 1654 C 150.251 1.70863 1.5277 0
M  V30 1655 C 151.251 0.578846 1.5002 0
M  V30 1656 O 152.441 0.846213 1.52266 0
M  V30 1657 C 149.573 1.75341 2.9235 0
M  V30 1658 H 150.766 2.67034 1.36502 0
M  V30 1659 H 148.319 1.40838 0.677812 0
M  V30 1660 H 149.054 0.809383 3.14037 0
M  V30 1661 H 148.839 2.57436 2.95752 0
M  V30 1662 H 150.329 1.92559 3.70555 0
M  V30 1663 N 150.766 -0.704594 1.40972 0
M  V30 1664 C 151.729 -1.80035 1.41845 0
M  V30 1665 C 152.729 -1.57774 0.310474 0
M  V30 1666 O 153.919 -1.64613 0.56992 0
M  V30 1667 C 151.051 -3.18284 1.22098 0
M  V30 1668 H 152.244 -1.80658 2.3938 0
M  V30 1669 H 149.797 -0.911329 1.26982 0
M  V30 1670 H 150.532 -3.23306 0.253672 0
M  V30 1671 H 150.317 -3.35843 2.02366 0
M  V30 1672 H 151.807 -3.98289 1.25522 0
M  V30 1673 N 152.244 -1.26651 -0.937939 0
M  V30 1674 C 153.191 -1.0849 -2.03712 0
M  V30 1675 C 154.161 0.011033 -1.66096 0
M  V30 1676 O 155.346 -0.149353 -1.90215 0
M  V30 1677 C 152.486 -0.72735 -3.37348 0
M  V30 1678 C 151.599 -1.89986 -3.87981 0
M  V30 1679 C 150.734 -1.48513 -5.10017 0
M  V30 1680 C 149.773 -2.62575 -5.5292 0
M  V30 1681 N 148.91 -2.21762 -6.66158 0
M  V30 1682 H 153.75 -2.02551 -2.18579 0
M  V30 1683 H 151.287 -1.00844 -1.07093 0
M  V30 1684 H 153.245 -0.50092 -4.14182 0
M  V30 1685 H 151.875 0.176298 -3.22318 0
M  V30 1686 H 150.927 -2.23913 -3.07518 0
M  V30 1687 H 152.239 -2.75586 -4.15757 0
M  V30 1688 H 151.393 -1.21934 -5.94321 0
M  V30 1689 H 150.132 -0.60009 -4.83994 0
M  V30 1690 H 149.137 -2.8988 -4.67172 0
M  V30 1691 H 150.362 -3.51685 -5.80943 0
M  V30 1692 H 148.308 -1.35696 -6.41812 0
M  V30 1693 H 148.225 -3.00903 -6.93537 0
M  V30 1694 H 149.493 -1.98403 -7.53828 0
M  V30 1695 N 153.722 1.14298 -1.08507 0
M  V30 1696 C 154.952 1.88945 -0.835663 0
M  V30 1697 C 155.36 1.78894 0.615928 0
M  V30 1698 O 154.703 1.1468 1.43506 0
M  V30 1699 C 154.765 3.39585 -1.17994 0
M  V30 1700 C 154.429 3.7342 -2.63451 0
M  V30 1701 C 155.426 3.73454 -3.61702 0
M  V30 1702 C 153.111 4.03368 -2.99332 0
M  V30 1703 C 155.105 4.02961 -4.93864 0
M  V30 1704 C 152.792 4.32538 -4.31687 0
M  V30 1705 C 153.79 4.32318 -5.28763 0
M  V30 1706 O 153.478 4.6078 -6.58739 0
M  V30 1707 H 153.21 0.605307 -0.300965 0
M  V30 1708 H 155.764 1.45673 -1.44806 0
M  V30 1709 H 153.994 3.83315 -0.51055 0
M  V30 1710 H 155.683 3.9554 -0.911182 0
M  V30 1711 H 156.449 3.50403 -3.35325 0
M  V30 1712 H 152.328 4.02692 -2.24411 0
M  V30 1713 H 155.872 4.02704 -5.69627 0
M  V30 1714 H 151.769 4.55059 -4.57812 0
M  V30 1715 H 152.537 4.78492 -6.64069 0
M  V30 1716 N 155.201 0.870884 1.31352 0
M  V30 1717 C 156.449 0.48132 1.96285 0
M  V30 1718 C 156.77 -0.969813 1.69173 0
M  V30 1719 O 156.04 -1.67998 1.00764 0
M  V30 1720 H 154.62 0.175002 0.726212 0
M  V30 1721 H 157.282 1.11087 1.60143 0
M  V30 1722 H 156.378 0.639825 3.05471 0
M  V30 1723 N 156.679 -1.44442 0.630414 0
M  V30 1724 C 157.956 -1.9549 0.0655657 0
M  V30 1725 C 158.336 -1.5724 -1.40851 0
M  V30 1726 O 157.684 -0.846116 -2.12257 0
M  V30 1727 C 157.894 -3.47812 0.287691 0
M  V30 1728 C 159.242 -4.24216 0.180513 0
M  V30 1729 O 160.266 -3.55526 0.219019 0
M  V30 1730 O 159.125 -5.46434 0.0848493 0
M  V30 1731 H 156.219 -0.826688 -0.0227177 0
M  V30 1732 H 158.765 -1.54496 0.702068 0
M  V30 1733 H 157.537 -3.687 1.31056 0
M  V30 1734 H 157.16 -3.95751 -0.382984 0
M  V30 1735 N 158.157 -0.370918 -1.53173 0
M  V30 1736 C 159.067 0.480823 -2.2962 0
M  V30 1737 C 160.083 1.08789 -1.35798 0
M  V30 1738 O 161.259 1.09768 -1.68858 0
M  V30 1739 C 158.324 1.60227 -3.07454 0
M  V30 1740 C 157.385 1.0222 -4.16953 0
M  V30 1741 C 156.618 2.0902 -4.91066 0
M  V30 1742 O 156.841 3.30222 -4.65091 0
M  V30 1743 O 155.775 1.71778 -5.76867 0
M  V30 1744 H 159.601 -0.141421 -3.03371 0
M  V30 1745 H 157.186 -0.135146 -1.48787 0
M  V30 1746 H 159.068 2.25417 -3.56041 0
M  V30 1747 H 157.743 2.20982 -2.36535 0
M  V30 1748 H 156.65 0.334064 -3.72605 0
M  V30 1749 H 157.983 0.459131 -4.90054 0
M  V30 1750 N 159.635 1.57281 -0.100228 0
M  V30 1751 C 160.567 2.11342 0.886972 0
M  V30 1752 C 161.58 1.05182 1.24261 0
M  V30 1753 O 162.769 1.32613 1.19483 0
M  V30 1754 C 159.869 2.5825 2.19454 0
M  V30 1755 C 159.042 3.88302 2.01346 0
M  V30 1756 C 158.101 4.21004 3.15661 0
M  V30 1757 O 157.127 4.9014 2.89398 0
M  V30 1758 N 158.329 3.76818 4.41575 0
M  V30 1759 H 161.094 2.96668 0.425216 0
M  V30 1760 H 158.655 1.61678 0.0847334 0
M  V30 1761 H 160.647 2.7717 2.94888 0
M  V30 1762 H 159.217 1.77907 2.57037 0
M  V30 1763 H 158.437 3.7848 1.10212 0
M  V30 1764 H 159.725 4.73375 1.8653 0
M  V30 1765 H 159.123 3.2102 4.65792 0
M  V30 1766 H 157.68 4.00882 5.13942 0
M  V30 1767 N 161.113 -0.173488 1.56642 0
M  V30 1768 C 162.359 -0.891784 1.8214 0
M  V30 1769 C 162.692 -1.8199 0.677736 0
M  V30 1770 O 161.967 -1.91842 -0.320446 0
M  V30 1771 C 162.25 -1.68933 3.18015 0
M  V30 1772 C 162.103 -0.784487 4.42906 0
M  V30 1773 C 163.422 -2.65748 3.50808 0
M  V30 1774 H 160.541 -0.322761 0.662567 0
M  V30 1775 H 163.183 -0.158095 1.89341 0
M  V30 1776 H 161.333 -2.31482 3.12007 0
M  V30 1777 H 163.005 -0.172046 4.60979 0
M  V30 1778 H 161.248 -0.0924117 4.33702 0
M  V30 1779 H 161.919 -1.37799 5.34524 0
M  V30 1780 H 164.395 -2.13327 3.57255 0
M  V30 1781 H 163.271 -3.18619 4.4696 0
M  V30 1782 H 163.532 -3.45842 2.75401 0
M  V30 1783 N 162.591 -1.51276 -0.441967 0
M  V30 1784 C 163.521 -1.752 -1.54361 0
M  V30 1785 C 164.502 -0.601682 -1.59103 0
M  V30 1786 O 165.687 -0.843913 -1.74905 0
M  V30 1787 C 162.817 -1.87282 -2.92477 0
M  V30 1788 C 161.771 -3.02687 -3.02596 0
M  V30 1789 C 161.097 -2.99947 -4.42647 0
M  V30 1790 C 162.397 -4.4273 -2.77106 0
M  V30 1791 H 164.091 -2.67442 -1.34592 0
M  V30 1792 H 161.637 -1.28694 -0.646048 0
M  V30 1793 H 163.59 -2.02602 -3.695 0
M  V30 1794 H 162.314 -0.916844 -3.13467 0
M  V30 1795 H 160.973 -2.87065 -2.28012 0
M  V30 1796 H 160.621 -2.02136 -4.60597 0
M  V30 1797 H 160.321 -3.77439 -4.50348 0
M  V30 1798 H 161.845 -3.17354 -5.2165 0
M  V30 1799 H 163.259 -4.58727 -3.43864 0
M  V30 1800 H 161.656 -5.21893 -2.96222 0
M  V30 1801 H 162.726 -4.53087 -1.72744 0
M  V30 1802 N 164.069 0.697108 -1.41344 0
M  V30 1803 C 165.315 1.4593 -1.40827 0
M  V30 1804 C 165.648 1.94193 -0.0167098 0
M  V30 1805 O 164.923 1.69425 0.955263 0
M  V30 1806 C 165.206 2.67229 -2.41373 0
M  V30 1807 C 165.059 2.24741 -3.8963 0
M  V30 1808 C 166.378 3.69423 -2.39196 0
M  V30 1809 H 163.497 0.529303 -0.512842 0
M  V30 1810 H 166.139 0.794112 -1.72609 0
M  V30 1811 H 164.289 3.23982 -2.14401 0
M  V30 1812 H 165.961 1.73327 -4.27499 0
M  V30 1813 H 164.204 1.56542 -4.0457 0
M  V30 1814 H 164.875 3.1177 -4.55525 0
M  V30 1815 H 167.351 3.2234 -2.63128 0
M  V30 1816 H 166.227 4.51907 -3.11563 0
M  V30 1817 H 166.488 4.19012 -1.41001 0
M  V30 1818 N 165.547 1.27147 0.931209 0
M  V30 1819 C 166.793 1.14455 1.68141 0
M  V30 1820 C 167.148 -0.307172 1.89932 0
M  V30 1821 O 166.441 -1.22158 1.47607 0
M  V30 1822 C 166.635 1.8579 3.05314 0
M  V30 1823 C 166.464 3.3775 2.96909 0
M  V30 1824 C 165.234 4.07062 2.99381 0
M  V30 1825 C 167.432 4.33783 2.76291 0
M  V30 1826 N 165.414 5.45618 2.8138 0
M  V30 1827 C 166.785 5.59582 2.6696 0
M  V30 1828 C 168.84 4.23915 2.61152 0
M  V30 1829 C 167.543 6.76639 2.44033 0
M  V30 1830 C 169.569 5.40689 2.39602 0
M  V30 1831 C 168.931 6.65443 2.3101 0
M  V30 1832 H 165.03 0.473667 0.622225 0
M  V30 1833 H 167.614 1.60568 1.10118 0
M  V30 1834 H 165.785 1.42138 3.61457 0
M  V30 1835 H 167.517 1.65634 3.69253 0
M  V30 1836 H 164.272 3.585 3.09475 0
M  V30 1837 H 164.696 6.184 2.75519 0
M  V30 1838 H 169.338 3.28189 2.66555 0
M  V30 1839 H 167.056 7.72451 2.3737 0
M  V30 1840 H 170.642 5.34932 2.28778 0
M  V30 1841 H 169.522 7.54277 2.14558 0
M  V30 1842 N 167.025 -1.13721 1.09112 0
M  V30 1843 C 168.441 -1.36914 0.820174 0
M  V30 1844 C 168.641 -1.93356 -0.567079 0
M  V30 1845 O 167.697 -2.15093 -1.32255 0
M  V30 1846 C 169.01 -2.3235 1.90877 0
M  V30 1847 C 170.558 -2.45973 1.93562 0
M  V30 1848 C 171.033 -3.44714 3.01556 0
M  V30 1849 N 172.524 -3.52263 3.00775 0
M  V30 1850 C 173.259 -4.28536 3.80978 0
M  V30 1851 N 172.755 -5.07991 4.71081 0
M  V30 1852 N 174.548 -4.23804 3.69251 0
M  V30 1853 H 166.699 -0.754348 1.98553 0
M  V30 1854 H 168.962 -0.3944 0.862063 0
M  V30 1855 H 168.668 -1.98027 2.90651 0
M  V30 1856 H 168.542 -3.32332 1.78424 0
M  V30 1857 H 170.929 -2.79584 0.944286 0
M  V30 1858 H 171.01 -1.45926 2.10093 0
M  V30 1859 H 170.654 -3.11835 4.00901 0
M  V30 1860 H 170.584 -4.44558 2.82269 0
M  V30 1861 H 173.075 -2.95567 2.35475 0
M  V30 1862 H 173.388 -5.63487 5.28869 0
M  V30 1863 H 171.733 -5.07235 4.75119 0
M  V30 1864 H 174.924 -3.60806 2.98222 0
M  V30 1865 H 175.097 -4.82995 4.31995 0
M  V30 1866 N 168.503 -0.877838 -1.30888 0
M  V30 1867 C 169.919 -0.570844 -1.49042 0
M  V30 1868 C 170.119 0.893159 -1.80624 0
M  V30 1869 O 169.175 1.67485 -1.88958 0
M  V30 1870 C 170.488 -1.47784 -2.61878 0
M  V30 1871 C 172.036 -1.48071 -2.75761 0
M  V30 1872 C 172.511 -2.37347 -3.91702 0
M  V30 1873 N 174.002 -2.35271 -3.99001 0
M  V30 1874 C 174.737 -3.01063 -4.88004 0
M  V30 1875 N 174.233 -3.76055 -5.81854 0
M  V30 1876 N 176.026 -2.90332 -4.81315 0
M  V30 1877 H 168.177 -1.82502 -1.0866 0
M  V30 1878 H 170.44 -0.780797 -0.537644 0
M  V30 1879 H 170.146 -2.51993 -2.45341 0
M  V30 1880 H 170.02 -1.18215 -3.58197 0
M  V30 1881 H 172.407 -0.446166 -2.91708 0
M  V30 1882 H 172.488 -1.81668 -1.80085 0
M  V30 1883 H 172.132 -3.40883 -3.76512 0
M  V30 1884 H 172.062 -2.01071 -4.86701 0
M  V30 1885 H 174.553 -1.80768 -3.3186 0
M  V30 1886 H 174.866 -4.23366 -6.46514 0
M  V30 1887 H 173.211 -3.80163 -5.81808 0
M  V30 1888 H 176.402 -2.31278 -4.06974 0
M  V30 1889 H 176.575 -3.41885 -5.50471 0
M  V30 1890 N 169.982 1.44106 -0.638065 0
M  V30 1891 C 171.207 2.0685 -0.150916 0
M  V30 1892 C 171.632 1.47417 1.16833 0
M  V30 1893 O 170.99 0.578264 1.71831 0
M  V30 1894 C 171.038 3.60555 -0.05708 0
M  V30 1895 O 170.142 4.00465 0.984972 0
M  V30 1896 H 169.483 0.658151 -0.0879399 0
M  V30 1897 H 172.013 1.84865 -0.876707 0
M  V30 1898 H 172.023 4.07789 0.131232 0
M  V30 1899 H 170.698 4.03193 -1.02021 0
M  V30 1900 H 169.275 3.64849 0.770672 0
M  V30 1901 N 171.46 0.379036 1.52974 0
M  V30 1902 C 172.69 -0.20649 2.05566 0
M  V30 1903 C 173.098 -1.41906 1.25137 0
M  V30 1904 O 172.441 -1.81421 0.288464 0
M  V30 1905 C 172.503 -0.651086 3.53555 0
M  V30 1906 C 172.167 0.446626 4.54812 0
M  V30 1907 C 173.164 1.30079 5.03364 0
M  V30 1908 C 170.849 0.610719 4.98573 0
M  V30 1909 C 172.843 2.30426 5.94292 0
M  V30 1910 C 170.53 1.61754 5.89304 0
M  V30 1911 C 171.528 2.46274 6.37054 0
M  V30 1912 O 171.216 3.45237 7.25994 0
M  V30 1913 H 170.948 -0.0372381 0.674974 0
M  V30 1914 H 173.502 0.539718 1.98182 0
M  V30 1915 H 171.732 -1.44911 3.58522 0
M  V30 1916 H 173.421 -1.16112 3.88938 0
M  V30 1917 H 174.187 1.18527 4.70294 0
M  V30 1918 H 170.066 -0.0374044 4.60985 0
M  V30 1919 H 173.61 2.96432 6.31485 0
M  V30 1920 H 169.507 1.73348 6.21788 0
M  V30 1921 H 170.275 3.41124 7.44027 0
M  V30 1922 N 172.938 -1.57226 0.108567 0
M  V30 1923 C 174.215 -1.86333 -0.594939 0
M  V30 1924 C 174.595 -1.00788 -1.85486 0
M  V30 1925 O 173.943 -0.0839293 -2.28346 0
M  V30 1926 C 174.153 -3.37265 -0.897405 0
M  V30 1927 C 175.501 -4.05629 -1.25501 0
M  V30 1928 O 176.525 -3.42224 -0.987998 0
M  V30 1929 O 175.384 -5.17531 -1.75567 0
M  V30 1930 H 172.478 -0.771018 -0.2991 0
M  V30 1931 H 175.024 -1.69102 0.142283 0
M  V30 1932 H 173.796 -3.913 -0.00413806 0
M  V30 1933 H 173.419 -3.59889 -1.69014 0
M  V30 1934 N 174.416 0.165178 -1.56732 0
M  V30 1935 C 175.644 0.896218 -1.86482 0
M  V30 1936 C 176.059 1.75555 -0.694675 0
M  V30 1937 O 175.416 1.79379 0.33607 0
M  V30 1938 C 175.467 1.76792 -3.1532 0
M  V30 1939 O 175.188 0.943239 -4.27825 0
M  V30 1940 C 176.689 2.6081 -3.58459 0
M  V30 1941 H 173.909 0.260064 -0.618553 0
M  V30 1942 H 176.453 0.163428 -2.03846 0
M  V30 1943 H 174.608 2.45398 -2.99764 0
M  V30 1944 H 175.022 1.53998 -5.01383 0
M  V30 1945 H 176.496 3.17579 -4.51495 0
M  V30 1946 H 176.973 3.35977 -2.82872 0
M  V30 1947 H 177.579 1.97526 -3.76648 0
M  V30 1948 N 175.894 1.51508 0.433938 0
M  V30 1949 C 177.305 1.56784 1.01369 0
M  V30 1950 C 177.656 0.393349 1.92217 0
M  V30 1951 O 176.781 -0.489441 2.10792 0
M  V30 1952 C 177.376 2.84144 1.8452 0
M  V30 1953 C 175.935 2.9198 2.37539 0
M  V30 1954 C 175.082 2.51482 1.16843 0
M  V30 1955 H 178.033 1.57236 0.215081 0
M  V30 1956 H 178.054 2.68098 2.70007 0
M  V30 1957 H 177.566 3.69607 1.18373 0
M  V30 1958 H 175.667 2.10955 3.0713 0
M  V30 1959 H 175.78 3.95704 2.70103 0
M  V30 1960 H 174.144 2.04758 1.51481 0
M  V30 1961 H 174.927 3.39293 0.523015 0
M  V30 1962 N 177.372 -0.689602 1.41712 0
M  V30 1963 C 178.783 -1.26973 1.36875 0
M  V30 1964 C 179.134 -1.96124 0.054748 0
M  V30 1965 O 178.259 -1.99141 -0.84687 0
M  V30 1966 C 178.854 -2.30912 2.47922 0
M  V30 1967 C 177.413 -2.84486 2.46464 0
M  V30 1968 C 176.56 -1.58603 2.27465 0
M  V30 1969 H 179.511 -0.48396 1.51141 0
M  V30 1970 H 179.532 -3.12331 2.17323 0
M  V30 1971 H 179.044 -1.80554 3.43543 0
M  V30 1972 H 177.145 -3.39005 1.54617 0
M  V30 1973 H 177.258 -3.34511 3.42986 0
M  V30 1974 H 175.622 -1.84632 1.75451 0
M  V30 1975 H 176.405 -1.10233 3.25121 0
M  V30 1976 N 178.85 -1.27639 -0.924453 0
M  V30 1977 C 180.261 -1.12834 -1.48746 0
M  V30 1978 C 180.612 0.285505 -1.94112 0
M  V30 1979 O 179.737 1.17874 -1.81479 0
M  V30 1980 C 180.332 -2.04217 -2.70334 0
M  V30 1981 C 178.891 -1.93509 -3.22848 0
M  V30 1982 C 178.038 -1.96583 -1.95577 0
M  V30 1983 H 180.989 -1.40484 -0.738233 0
M  V30 1984 H 181.01 -1.59989 -3.4523 0
M  V30 1985 H 180.522 -3.07111 -2.37285 0
M  V30 1986 H 178.623 -0.936131 -3.60649 0
M  V30 1987 H 178.736 -2.79917 -3.88823 0
M  V30 1988 H 177.1 -1.4085 -2.12211 0
M  V30 1989 H 177.883 -3.01137 -1.64837 0
M  V30 1990 N 180.328 1.1314 -1.09713 0
M  V30 1991 C 181.291 2.16831 -0.742751 0
M  V30 1992 C 182.291 1.59159 0.229129 0
M  V30 1993 O 183.481 1.74199 0.00693237 0
M  V30 1994 C 180.613 3.40756 -0.0989168 0
M  V30 1995 H 181.806 2.49695 -1.66109 0
M  V30 1996 H 179.359 1.2802 -0.896699 0
M  V30 1997 H 180.094 3.13485 0.830514 0
M  V30 1998 H 179.879 3.83888 -0.798265 0
M  V30 1999 H 181.369 4.17386 0.133524 0
M  V30 2000 N 181.806 0.884767 1.30421 0
M  V30 2001 C 182.736 0.367574 2.30589 0
M  V30 2002 C 183.717 -0.549464 1.60981 0
M  V30 2003 O 184.902 -0.46336 1.88591 0
M  V30 2004 C 182.032 -0.418944 3.44764 0
M  V30 2005 C 180.986 0.406316 4.26067 0
M  V30 2006 C 180.312 -0.506793 5.32293 0
M  V30 2007 C 181.612 1.64832 4.95608 0
M  V30 2008 H 183.306 1.20462 2.74097 0
M  V30 2009 H 180.852 0.580695 1.31772 0
M  V30 2010 H 182.805 -0.791395 4.13902 0
M  V30 2011 H 181.529 -1.28964 3.0006 0
M  V30 2012 H 180.188 0.760903 3.58617 0
M  V30 2013 H 179.836 -1.37519 4.83836 0
M  V30 2014 H 179.536 0.0415828 5.87585 0
M  V30 2015 H 181.06 -0.875764 6.04287 0
M  V30 2016 H 182.474 1.34646 5.57264 0
M  V30 2017 H 180.871 2.13688 5.60765 0
M  V30 2018 H 181.941 2.39284 4.21748 0
M  V30 2019 N 183.284 -1.43765 0.645699 0
M  V30 2020 C 184.194 -2.34544 -0.0512957 0
M  V30 2021 C 185.21 -1.53455 -0.82022 0
M  V30 2022 O 186.386 -1.86133 -0.769176 0
M  V30 2023 C 183.451 -3.31636 -1.01087 0
M  V30 2024 C 182.512 -4.2863 -0.239712 0
M  V30 2025 C 181.745 -5.21084 -1.15358 0
M  V30 2026 O 181.968 -5.1779 -2.39269 0
M  V30 2027 O 180.902 -5.98593 -0.630038 0
M  V30 2028 H 184.728 -2.95624 0.695718 0
M  V30 2029 H 182.313 -1.43781 0.405882 0
M  V30 2030 H 184.195 -3.9136 -1.56254 0
M  V30 2031 H 182.87 -2.73069 -1.73824 0
M  V30 2032 H 181.777 -3.72408 0.355356 0
M  V30 2033 H 183.11 -4.90157 0.447936 0
M  V30 2034 N 184.763 -0.387143 -1.52771 0
M  V30 2035 C 186.174 0.0873634 -1.86495 0
M  V30 2036 C 186.525 1.46336 -1.30691 0
M  V30 2037 O 185.65 2.068 -0.637409 0
M  V30 2038 C 186.245 0.165305 -3.38396 0
M  V30 2039 C 184.804 0.584101 -3.7184 0
M  V30 2040 C 183.951 -0.255279 -2.76122 0
M  V30 2041 H 186.902 -0.605104 -1.46711 0
M  V30 2042 H 186.923 0.984848 -3.67534 0
M  V30 2043 H 186.435 -0.836301 -3.78982 0
M  V30 2044 H 184.536 1.59315 -3.36823 0
M  V30 2045 H 184.649 0.343749 -4.77865 0
M  V30 2046 H 183.013 0.279126 -2.53166 0
M  V30 2047 H 183.796 -1.25482 -3.19545 0
M  V30 2048 N 186.241 1.57166 -0.116904 0
M  V30 2049 C 187.489 1.94737 0.540533 0
M  V30 2050 C 187.81 1.00096 1.67349 0
M  V30 2051 O 187.08 0.0568854 1.95817 0
M  V30 2052 H 185.66 0.718981 0.202669 0
M  V30 2053 H 188.322 1.94017 -0.185353 0
M  V30 2054 H 187.418 2.97719 0.936483 0
M  V30 2055 N 187.719 -0.156864 1.56817 0
M  V30 2056 C 188.996 -0.899244 1.73704 0
M  V30 2057 C 189.376 -1.99771 0.682254 0
M  V30 2058 O 188.724 -2.26515 -0.300522 0
M  V30 2059 C 188.934 -1.45075 3.17418 0
M  V30 2060 C 190.282 -1.91802 3.7881 0
M  V30 2061 O 191.306 -1.54838 3.20786 0
M  V30 2062 O 190.165 -2.5994 4.80722 0
M  V30 2063 H 187.259 -0.424267 0.709878 0
M  V30 2064 H 189.805 -0.143561 1.69092 0
M  V30 2065 H 188.577 -0.660846 3.85679 0
M  V30 2066 H 188.2 -2.27021 3.26416 0
M  V30 2067 N 189.197 -1.51736 -0.425897 0
M  V30 2068 C 190.107 -1.76738 -1.54275 0
M  V30 2069 C 191.123 -0.65211 -1.61318 0
M  V30 2070 O 192.299 -0.935654 -1.78346 0
M  V30 2071 C 189.364 -1.89755 -2.90162 0
M  V30 2072 C 188.425 -3.13633 -2.93143 0
M  V30 2073 C 187.658 -3.2602 -4.22548 0
M  V30 2074 O 187.881 -2.44067 -5.15546 0
M  V30 2075 O 186.815 -4.19071 -4.32046 0
M  V30 2076 H 190.641 -2.71502 -1.36089 0
M  V30 2077 H 188.226 -1.36376 -0.610069 0
M  V30 2078 H 190.108 -2.00236 -3.70788 0
M  V30 2079 H 188.783 -0.981785 -3.08452 0
M  V30 2080 H 187.69 -3.08622 -2.11431 0
M  V30 2081 H 189.023 -4.04936 -2.798 0
M  V30 2082 N 190.675 0.682077 -1.42076 0
M  V30 2083 C 192.091 0.994324 -1.24841 0
M  V30 2084 C 192.291 2.0096 -0.147389 0
M  V30 2085 O 191.347 2.47822 0.483782 0
M  V30 2086 C 192.66 1.50607 -2.60265 0
M  V30 2087 C 194.208 1.62421 -2.6756 0
M  V30 2088 C 194.683 2.16994 -4.03333 0
M  V30 2089 N 196.174 2.24337 -4.0525 0
M  V30 2090 C 196.909 2.67621 -5.07116 0
M  V30 2091 N 196.405 3.1041 -6.19368 0
M  V30 2092 N 198.198 2.67305 -4.94474 0
M  V30 2093 H 190.349 0.00973908 -2.12398 0
M  V30 2094 H 192.612 0.0668593 -0.945639 0
M  V30 2095 H 192.318 0.834583 -3.41654 0
M  V30 2096 H 192.192 2.48602 -2.83684 0
M  V30 2097 H 194.579 2.28678 -1.86521 0
M  V30 2098 H 194.66 0.629352 -2.47937 0
M  V30 2099 H 194.304 1.51349 -4.84826 0
M  V30 2100 H 194.234 3.17258 -4.20304 0
M  V30 2101 H 196.725 1.94158 -3.24209 0
M  V30 2102 H 197.038 3.42103 -6.92954 0
M  V30 2103 H 195.383 3.08286 -6.22884 0
M  V30 2104 H 198.574 2.33233 -4.05857 0
M  V30 2105 H 198.747 3.00718 -5.73997 0
M  V30 2106 N 192.153 1.28127 0.917671 0
M  V30 2107 C 193.116 1.11744 2.00115 0
M  V30 2108 C 194.116 0.0583052 1.60694 0
M  V30 2109 O 195.306 0.303755 1.71531 0
M  V30 2110 C 192.438 0.704862 3.33533 0
M  V30 2111 H 193.631 2.07966 2.16079 0
M  V30 2112 H 191.184 1.11058 1.09981 0
M  V30 2113 H 191.919 -0.258299 3.2327 0
M  V30 2114 H 191.704 1.4699 3.63505 0
M  V30 2115 H 193.194 0.612768 4.1308 0
M  V30 2116 N 193.631 -1.12557 1.10312 0
M  V30 2117 C 195.042 -1.65574 0.862678 0
M  V30 2118 C 195.393 -1.86566 -0.607256 0
M  V30 2119 O 194.518 -1.59121 -1.46662 0
M  V30 2120 C 195.113 -3.00776 1.55947 0
M  V30 2121 C 193.672 -3.50748 1.36576 0
M  V30 2122 C 192.819 -2.25797 1.60968 0
M  V30 2123 H 195.77 -0.963552 1.26101 0
M  V30 2124 H 195.791 -3.67185 0.997753 0
M  V30 2125 H 195.303 -2.85465 2.62928 0
M  V30 2126 H 193.404 -3.71245 0.317531 0
M  V30 2127 H 193.517 -4.30289 2.10686 0
M  V30 2128 H 191.881 -2.32841 1.03234 0
M  V30 2129 H 192.664 -2.13043 2.69198 0
M  V30 2130 N 195.109 -0.891671 -1.2995 0
M  V30 2131 C 196.339 -0.527893 -1.99742 0
M  V30 2132 C 196.747 0.88979 -1.66971 0
M  V30 2133 O 196.09 1.59766 -0.906667 0
M  V30 2134 C 196.152 -0.630804 -3.53922 0
M  V30 2135 C 195.816 -2.01401 -4.10228 0
M  V30 2136 C 196.813 -2.98422 -4.25724 0
M  V30 2137 C 194.498 -2.32121 -4.45449 0
M  V30 2138 C 196.492 -4.24293 -4.75662 0
M  V30 2139 C 194.179 -3.58237 -4.95086 0
M  V30 2140 C 195.177 -4.54137 -5.10146 0
M  V30 2141 O 194.865 -5.78014 -5.58708 0
M  V30 2142 H 194.597 -0.201953 -0.645129 0
M  V30 2143 H 197.151 -1.20076 -1.66646 0
M  V30 2144 H 195.381 0.0990616 -3.86573 0
M  V30 2145 H 197.07 -0.277338 -4.04951 0
M  V30 2146 H 197.836 -2.76001 -3.98809 0
M  V30 2147 H 193.715 -1.5824 -4.32991 0
M  V30 2148 H 197.259 -4.99153 -4.87332 0
M  V30 2149 H 193.156 -3.80491 -5.21437 0
M  V30 2150 H 193.924 -5.8049 -5.77039 0
M  V30 2151 N 196.587 1.43421 -0.653314 0
M  V30 2152 C 197.55 2.29182 0.0287951 0
M  V30 2153 C 198.55 1.42213 0.750465 0
M  V30 2154 O 199.74 1.63843 0.591701 0
M  V30 2155 C 196.872 3.24278 1.05151 0
M  V30 2156 H 198.065 2.90985 -0.725786 0
M  V30 2157 H 195.618 1.50702 -0.414545 0
M  V30 2158 H 196.353 2.6737 1.83532 0
M  V30 2159 H 196.138 3.88396 0.537687 0
M  V30 2160 H 197.628 3.88647 1.52786 0
M  V30 2161 N 198.065 0.39524 1.52563 0
M  V30 2162 C 199.342 -0.242908 1.94086 0
M  V30 2163 C 199.722 -1.63841 1.33114 0
M  V30 2164 O 199.07 -2.22928 0.501529 0
M  V30 2165 C 199.28 -0.26327 3.48006 0
M  V30 2166 C 200.628 -0.489354 4.21771 0
M  V30 2167 O 201.652 -0.343226 3.54543 0
M  V30 2168 O 200.511 -0.776169 5.4096 0
M  V30 2169 H 197.605 -0.152536 0.812811 0
M  V30 2170 H 200.151 0.450178 1.6362 0
M  V30 2171 H 198.923 0.713985 3.84731 0
M  V30 2172 H 198.546 -1.00103 3.84792 0
M  V30 2173 N 199.544 -1.57102 0.125237 0
M  V30 2174 C 200.955 -1.82384 -0.399142 0
M  V30 2175 C 201.306 -1.04276 -1.66195 0
M  V30 2176 O 200.431 -0.281269 -2.14564 0
M  V30 2177 C 201.026 -3.30821 -0.730932 0
M  V30 2178 C 199.585 -3.56762 -1.19992 0
M  V30 2179 C 198.732 -2.7649 -0.211792 0
M  V30 2180 H 201.683 -1.54786 0.350277 0
M  V30 2181 H 201.704 -3.4579 -1.58775 0
M  V30 2182 H 201.216 -3.87643 0.188345 0
M  V30 2183 H 199.317 -3.05305 -2.13588 0
M  V30 2184 H 199.43 -4.65317 -1.14093 0
M  V30 2185 H 197.794 -2.4489 -0.700085 0
M  V30 2186 H 198.577 -3.36073 0.700691 0
M  V30 2187 N 201.022 0.148545 -1.56898 0
M  V30 2188 C 202.438 0.501131 -1.51528 0
M  V30 2189 C 202.638 1.83458 -0.833399 0
M  V30 2190 O 201.694 2.49259 -0.40328 0
M  V30 2191 C 203.007 0.512864 -2.96294 0
M  V30 2192 C 204.555 0.598487 -3.07225 0
M  V30 2193 C 205.03 0.640897 -4.53494 0
M  V30 2194 N 206.521 0.703163 -4.57832 0
M  V30 2195 C 207.256 0.756935 -5.68382 0
M  V30 2196 N 206.752 0.770147 -6.88506 0
M  V30 2197 N 208.545 0.797698 -5.56411 0
M  V30 2198 H 200.696 -0.725532 -1.99624 0
M  V30 2199 H 202.959 -0.264358 -0.910395 0
M  V30 2200 H 202.665 -0.398691 -3.49433 0
M  V30 2201 H 202.539 1.35133 -3.52163 0
M  V30 2202 H 204.926 1.50046 -2.54106 0
M  V30 2203 H 205.007 -0.267093 -2.54402 0
M  V30 2204 H 204.651 -0.256915 -5.0725 0
M  V30 2205 H 204.581 1.52295 -5.04097 0
M  V30 2206 H 207.072 0.700314 -3.71354 0
M  V30 2207 H 207.385 0.812983 -7.68512 0
M  V30 2208 H 205.73 0.738049 -6.9107 0
M  V30 2209 H 208.921 0.784535 -4.61479 0
M  V30 2210 H 209.094 0.83614 -6.42583 0
M  V30 2211 N 202.5 1.5196 0.417844 0
M  V30 2212 C 203.73 1.69181 1.18581 0
M  V30 2213 C 204.138 0.397104 1.84986 0
M  V30 2214 O 203.481 -0.636011 1.72339 0
M  V30 2215 C 203.543 2.76497 2.29759 0
M  V30 2216 C 203.207 4.18514 1.83563 0
M  V30 2217 C 204.204 5.02648 1.32821 0
M  V30 2218 C 201.889 4.64708 1.90661 0
M  V30 2219 C 203.883 6.31044 0.897894 0
M  V30 2220 C 201.57 5.93096 1.47241 0
M  V30 2221 C 202.568 6.76093 0.968891 0
M  V30 2222 O 202.256 8.02078 0.540924 0
M  V30 2223 H 201.988 0.570457 0.362705 0
M  V30 2224 H 204.542 1.99249 0.498885 0
M  V30 2225 H 202.772 2.41786 3.01789 0
M  V30 2226 H 204.461 2.82403 2.91553 0
M  V30 2227 H 205.227 4.68154 1.26716 0
M  V30 2228 H 201.106 4.00216 2.28797 0
M  V30 2229 H 204.65 6.95776 0.504192 0
M  V30 2230 H 200.547 6.271 1.53022 0
M  V30 2231 H 201.315 8.15794 0.66502 0
M  V30 2232 N 203.978 -0.674533 1.42435 0
M  V30 2233 C 204.941 -1.76986 1.45632 0
M  V30 2234 C 205.941 -1.5708 0.343871 0
M  V30 2235 O 207.131 -1.63367 0.604709 0
M  V30 2236 C 204.263 -3.15623 1.28822 0
M  V30 2237 H 205.456 -1.75539 2.43158 0
M  V30 2238 H 203.009 -0.884189 1.28887 0
M  V30 2239 H 203.744 -3.22696 0.322193 0
M  V30 2240 H 203.529 -3.31475 2.09444 0
M  V30 2241 H 205.019 -3.95537 1.33942 0
M  V30 2242 N 205.456 -1.28612 -0.910864 0
M  V30 2243 C 206.403 -1.12786 -2.01365 0
M  V30 2244 C 207.373 -0.024201 -1.66082 0
M  V30 2245 O 208.558 -0.189667 -1.89855 0
M  V30 2246 C 205.698 -0.798743 -3.35729 0
M  V30 2247 C 204.811 -1.98173 -3.83864 0
M  V30 2248 C 203.946 -1.59298 -5.06752 0
M  V30 2249 C 202.985 -2.74245 -5.47226 0
M  V30 2250 N 202.122 -2.35842 -6.61304 0
M  V30 2251 H 206.962 -2.07142 -2.14234 0
M  V30 2252 H 204.499 -1.03093 -1.0493 0
M  V30 2253 H 206.457 -0.588662 -4.13026 0
M  V30 2254 H 205.087 0.10789 -3.2262 0
M  V30 2255 H 204.139 -2.30386 -3.02699 0
M  V30 2256 H 205.451 -2.84343 -4.09818 0
M  V30 2257 H 204.605 -1.34513 -5.916 0
M  V30 2258 H 203.344 -0.702618 -4.82612 0
M  V30 2259 H 202.349 -2.99725 -4.60918 0
M  V30 2260 H 203.574 -3.63928 -5.73353 0
M  V30 2261 H 201.52 -1.49279 -6.38789 0
M  V30 2262 H 201.437 -3.15546 -6.86998 0
M  V30 2263 H 202.705 -2.14348 -7.4945 0
M  V30 2264 N 206.934 1.1197 -1.10907 0
M  V30 2265 C 208.18 1.8386 -0.855773 0
M  V30 2266 C 208.513 1.84134 0.617103 0
M  V30 2267 O 207.788 1.29041 1.45529 0
M  V30 2268 C 208.071 3.31305 -1.411 0
M  V30 2269 C 207.924 3.39456 -2.9511 0
M  V30 2270 C 209.243 4.2721 -1.05736 0
M  V30 2271 H 206.362 0.667545 -0.312334 0
M  V30 2272 H 209.004 1.31331 -1.37303 0
M  V30 2273 H 207.154 3.76169 -0.97105 0
M  V30 2274 H 208.826 3.03191 -3.47668 0
M  V30 2275 H 207.069 2.79849 -3.31462 0
M  V30 2276 H 207.74 4.43209 -3.29044 0
M  V30 2277 H 210.216 3.90497 -1.43706 0
M  V30 2278 H 209.092 5.28775 -1.47269 0
M  V30 2279 H 209.353 4.42088 0.0325958 0
M  V30 2280 N 208.412 0.89855 1.29475 0
M  V30 2281 C 209.823 0.572537 1.77705 0
M  V30 2282 C 210.174 -0.911778 1.73727 0
M  V30 2283 O 209.299 -1.71288 1.32247 0
M  V30 2284 C 209.894 1.03252 3.22683 0
M  V30 2285 C 208.453 0.757687 3.68695 0
M  V30 2286 C 207.6 1.20787 2.49612 0
M  V30 2287 H 210.551 1.08139 1.16153 0
M  V30 2288 H 210.572 0.367307 3.78723 0
M  V30 2289 H 210.084 2.11285 3.25546 0
M  V30 2290 H 208.185 -0.310079 3.71308 0
M  V30 2291 H 208.298 1.35476 4.59547 0
M  V30 2292 H 206.662 0.626888 2.46865 0
M  V30 2293 H 207.445 2.29622 2.55203 0
M  V30 2294 N 209.89 -1.43072 0.660911 0
M  V30 2295 C 211.306 -1.56169 0.329173 0
M  V30 2296 C 211.506 -1.64317 -1.16629 0
M  V30 2297 O 210.562 -1.60245 -1.95135 0
M  V30 2298 C 211.875 -2.81873 1.04729 0
M  V30 2299 C 213.423 -2.95627 1.02828 0
M  V30 2300 C 213.898 -4.24174 1.72744 0
M  V30 2301 N 215.389 -4.31055 1.69545 0
M  V30 2302 C 216.124 -5.29304 2.20511 0
M  V30 2303 N 215.62 -6.33786 2.79799 0
M  V30 2304 N 217.413 -5.21008 2.10966 0
M  V30 2305 H 209.564 -1.36027 1.63127 0
M  V30 2306 H 211.827 -0.653823 0.686454 0
M  V30 2307 H 211.533 -2.81942 2.10242 0
M  V30 2308 H 211.407 -3.72338 0.603702 0
M  V30 2309 H 213.794 -2.95094 -0.0184742 0
M  V30 2310 H 213.875 -2.06431 1.51063 0
M  V30 2311 H 213.519 -4.25467 2.7738 0
M  V30 2312 H 213.449 -5.1228 1.2197 0
M  V30 2313 H 215.94 -3.56174 1.26288 0
M  V30 2314 H 216.253 -7.05086 3.16344 0
M  V30 2315 H 214.598 -6.34387 2.83863 0
M  V30 2316 H 217.789 -4.38301 1.64347 0
M  V30 2317 H 217.962 -5.97416 2.50993 0
M  V30 2318 N 211.368 -0.403325 -1.52352 0
M  V30 2319 C 212.278 0.432009 -2.30588 0
M  V30 2320 C 213.294 1.05884 -1.38075 0
M  V30 2321 O 214.47 1.06161 -1.71148 0
M  V30 2322 C 211.535 1.53669 -3.10784 0
M  V30 2323 C 210.596 0.933525 -4.19027 0
M  V30 2324 C 209.829 1.98557 -4.9539 0
M  V30 2325 O 210.052 3.20283 -4.71991 0
M  V30 2326 O 208.986 1.59504 -5.80381 0
M  V30 2327 H 212.812 -0.205739 -3.03002 0
M  V30 2328 H 210.397 -0.166675 -1.48467 0
M  V30 2329 H 212.279 2.17814 -3.60742 0
M  V30 2330 H 210.954 2.15915 -2.41169 0
M  V30 2331 H 209.861 0.254954 -3.7323 0
M  V30 2332 H 211.194 0.35508 -4.90918 0
M  V30 2333 N 212.846 1.57033 -0.133567 0
M  V30 2334 C 213.778 2.13176 0.841944 0
M  V30 2335 C 214.791 1.07794 1.22001 0
M  V30 2336 O 215.98 1.35117 1.16643 0
M  V30 2337 C 213.08 2.62847 2.13926 0
M  V30 2338 C 212.253 3.92486 1.93064 0
M  V30 2339 C 211.312 4.27605 3.0666 0
M  V30 2340 O 210.338 4.96168 2.78937 0
M  V30 2341 N 211.54 3.861 4.33483 0
M  V30 2342 H 214.305 2.97503 0.362192 0
M  V30 2343 H 211.866 1.61821 0.05042 0
M  V30 2344 H 213.858 2.83363 2.88942 0
M  V30 2345 H 212.428 1.83319 2.53205 0
M  V30 2346 H 211.648 3.80732 1.02159 0
M  V30 2347 H 212.936 4.77225 1.76447 0
M  V30 2348 H 212.334 3.30828 4.58878 0
M  V30 2349 H 210.891 4.11694 5.05323 0
M  V30 2350 N 214.325 -0.140222 1.56975 0
M  V30 2351 C 215.255 -1.17456 2.01808 0
M  V30 2352 C 216.236 -1.44415 0.898794 0
M  V30 2353 O 217.421 -1.5522 1.16707 0
M  V30 2354 C 214.551 -2.50607 2.40444 0
M  V30 2355 C 213.505 -2.38155 3.55621 0
M  V30 2356 C 212.831 -3.76078 3.80091 0
M  V30 2357 C 214.131 -1.85991 4.88062 0
M  V30 2358 H 215.825 -0.801743 2.88466 0
M  V30 2359 H 213.371 -0.38422 1.38779 0
M  V30 2360 H 215.324 -3.23197 2.7041 0
M  V30 2361 H 214.048 -2.89737 1.50732 0
M  V30 2362 H 212.707 -1.68016 3.25832 0
M  V30 2363 H 212.355 -4.12656 2.87618 0
M  V30 2364 H 212.055 -3.68606 4.57606 0
M  V30 2365 H 213.579 -4.50206 4.12488 0
M  V30 2366 H 214.993 -2.4838 5.16701 0
M  V30 2367 H 213.39 -1.89393 5.6943 0
M  V30 2368 H 214.46 -0.816023 4.77984 0
M  V30 2369 N 215.803 -1.52179 -0.40978 0
M  V30 2370 C 217.214 -1.58377 -0.988615 0
M  V30 2371 C 217.565 -0.423879 -1.91566 0
M  V30 2372 O 216.69 0.455844 -2.11544 0
M  V30 2373 C 217.285 -2.87044 -1.79976 0
M  V30 2374 C 215.844 -2.95722 -2.32863 0
M  V30 2375 C 214.991 -2.53309 -1.12828 0
M  V30 2376 H 217.942 -1.57558 -0.190039 0
M  V30 2377 H 217.963 -2.7236 -2.65707 0
M  V30 2378 H 217.475 -3.71444 -1.12478 0
M  V30 2379 H 215.576 -2.15814 -3.03735 0
M  V30 2380 H 215.689 -3.99951 -2.63773 0
M  V30 2381 H 214.053 -2.07142 -1.48204 0
M  V30 2382 H 214.836 -3.40082 -0.46897 0
M  V30 2383 N 217.281 0.66697 -1.42791 0
M  V30 2384 C 218.211 1.79218 -1.49677 0
M  V30 2385 C 219.192 1.66405 -0.352623 0
M  V30 2386 O 220.377 1.85708 -0.567993 0
M  V30 2387 C 217.507 3.17565 -1.40605 0
M  V30 2388 C 216.461 3.45124 -2.53127 0
M  V30 2389 C 215.787 4.83127 -2.29112 0
M  V30 2390 C 217.087 3.41236 -3.95418 0
M  V30 2391 H 218.781 1.73713 -2.43853 0
M  V30 2392 H 216.327 0.83432 -1.17367 0
M  V30 2393 H 218.28 3.96022 -1.44029 0
M  V30 2394 H 217.004 3.23767 -0.429271 0
M  V30 2395 H 215.663 2.69031 -2.49034 0
M  V30 2396 H 215.311 4.85988 -1.29709 0
M  V30 2397 H 215.011 5.02528 -3.04531 0
M  V30 2398 H 216.535 5.63859 -2.34297 0
M  V30 2399 H 217.949 4.09651 -4.01073 0
M  V30 2400 H 216.346 3.72173 -4.70752 0
M  V30 2401 H 217.416 2.39665 -4.21532 0
M  V30 2402 N 218.759 1.29093 0.90403 0
M  V30 2403 C 219.987 1.19689 1.68766 0
M  V30 2404 C 220.402 -0.243113 1.87228 0
M  V30 2405 O 219.759 -1.16326 1.40621 0
M  V30 2406 C 219.81 1.90144 3.07453 0
M  V30 2407 O 219.531 3.2852 2.89838 0
M  V30 2408 C 221.032 1.87162 4.01852 0
M  V30 2409 H 218.252 0.415035 0.527244 0
M  V30 2410 H 220.796 1.7039 1.13082 0
M  V30 2411 H 218.951 1.43289 3.59926 0
M  V30 2412 H 219.365 3.63944 3.77684 0
M  V30 2413 H 220.839 2.41032 4.96596 0
M  V30 2414 H 221.316 0.84617 4.30972 0
M  V30 2415 H 221.922 2.33741 3.5531 0
M  V30 2416 N 220.237 -1.11381 1.11499 0
M  V30 2417 C 221.147 -2.21019 0.786628 0
M  V30 2418 C 222.163 -1.72597 -0.220507 0
M  V30 2419 O 223.339 -2.01321 -0.0565251 0
M  V30 2420 C 220.404 -3.459 0.235333 0
M  V30 2421 C 219.465 -4.09107 1.30115 0
M  V30 2422 C 218.698 -5.28027 0.776068 0
M  V30 2423 O 218.921 -5.6904 -0.393661 0
M  V30 2424 O 217.855 -5.81835 1.54114 0
M  V30 2425 H 221.681 -2.51521 1.70209 0
M  V30 2426 H 219.266 -1.19928 0.890928 0
M  V30 2427 H 221.148 -4.21346 -0.067715 0
M  V30 2428 H 219.823 -3.17049 -0.652828 0
M  V30 2429 H 218.73 -3.35391 1.65722 0
M  V30 2430 H 220.063 -4.42139 2.16273 0
M  V30 2431 N 221.715 -0.905404 -1.28997 0
M  V30 2432 C 222.955 -0.541232 -1.97104 0
M  V30 2433 C 223.319 0.896841 -1.69767 0
M  V30 2434 O 224.52 1.36817 -2.31375 0
M  V30 2435 C 222.791 -0.832134 -3.47578 0
M  V30 2436 S 224.35 -0.573127 -4.35041 0
M  V30 2437 H 221.168 -0.200576 -0.682122 0
M  V30 2438 H 223.77 -1.16906 -1.56694 0
M  V30 2439 H 222.474 -1.87687 -3.64968 0
M  V30 2440 H 222.005 -0.192636 -3.92928 0
M  V30 2441 H 224.02 0.579297 -4.92807 0
M  V30 2442 N 223.193 1.4272 -0.668489 0
M  V30 2443 C 224.123 2.335 -0.000100175 0
M  V30 2444 C 225.104 1.50328 0.795964 0
M  V30 2445 O 226.289 1.78949 0.754385 0
M  V30 2446 C 223.419 3.33874 0.956302 0
M  V30 2447 C 222.373 4.27152 0.269278 0
M  V30 2448 C 221.699 5.17684 1.33818 0
M  V30 2449 C 222.999 5.15373 -0.847805 0
M  V30 2450 H 224.693 2.89639 -0.758244 0
M  V30 2451 H 222.239 1.39269 -0.366079 0
M  V30 2452 H 224.192 3.9629 1.43292 0
M  V30 2453 H 222.916 2.76025 1.74579 0
M  V30 2454 H 221.575 3.66123 -0.187042 0
M  V30 2455 H 221.223 4.56165 2.1195 0
M  V30 2456 H 220.923 5.80918 0.883659 0
M  V30 2457 H 222.447 5.82974 1.81586 0
M  V30 2458 H 223.861 5.7151 -0.452681 0
M  V30 2459 H 222.258 5.87407 -1.22773 0
M  V30 2460 H 223.328 4.5415 -1.69929 0
M  V30 2461 N 224.671 0.411399 1.52136 0
M  V30 2462 C 225.618 -0.412975 2.27075 0
M  V30 2463 C 226.588 -1.03912 1.29582 0
M  V30 2464 O 227.773 -1.06296 1.58448 0
M  V30 2465 C 224.913 -1.52247 3.09701 0
M  V30 2466 C 224.026 -0.917021 4.22155 0
M  V30 2467 C 223.161 -1.9994 4.92135 0
M  V30 2468 C 222.2 -1.37101 5.96548 0
M  V30 2469 N 221.337 -2.39364 6.60038 0
M  V30 2470 H 226.177 0.232499 2.97092 0
M  V30 2471 H 223.714 0.126496 1.46555 0
M  V30 2472 H 225.672 -2.17674 3.55913 0
M  V30 2473 H 224.302 -2.13794 2.41851 0
M  V30 2474 H 223.354 -0.151742 3.80097 0
M  V30 2475 H 224.666 -0.418006 4.97045 0
M  V30 2476 H 223.82 -2.73088 5.41763 0
M  V30 2477 H 222.559 -2.53208 4.16818 0
M  V30 2478 H 221.564 -0.624873 5.46237 0
M  V30 2479 H 222.789 -0.845998 6.7381 0
M  V30 2480 H 220.735 -2.91759 5.87548 0
M  V30 2481 H 220.652 -1.9428 7.3061 0
M  V30 2482 H 221.92 -3.12074 7.14304 0
M  V30 2483 N 226.149 -1.5696 0.141893 0
M  V30 2484 C 227.426 -1.87553 -0.555281 0
M  V30 2485 C 227.806 -1.04699 -1.83306 0
M  V30 2486 O 227.154 -0.132346 -2.28116 0
M  V30 2487 C 227.364 -3.39093 -0.825664 0
M  V30 2488 C 228.712 -4.08199 -1.16869 0
M  V30 2489 O 229.736 -3.44242 -0.915185 0
M  V30 2490 O 228.595 -5.21139 -1.6455 0
M  V30 2491 H 225.689 -0.777188 -0.282679 0
M  V30 2492 H 228.235 -1.68763 0.17812 0
M  V30 2493 H 227.007 -3.91221 0.0788633 0
M  V30 2494 H 226.63 -3.63393 -1.61343 0
M  V30 2495 N 227.627 0.131896 -1.57047 0
M  V30 2496 C 228.855 0.856461 -1.88341 0
M  V30 2497 C 229.27 1.74042 -0.731757 0
M  V30 2498 O 228.627 1.80051 0.297945 0
M  V30 2499 C 228.678 1.70064 -3.18999 0
M  V30 2500 O 228.399 0.852278 -4.2973 0
M  V30 2501 C 229.9 2.53148 -3.63911 0
M  V30 2502 H 227.12 0.246885 -0.62393 0
M  V30 2503 H 229.664 0.120152 -2.04147 0
M  V30 2504 H 227.819 2.38984 -3.04902 0
M  V30 2505 H 228.233 1.43329 -5.04537 0
M  V30 2506 H 229.707 3.07931 -4.58129 0
M  V30 2507 H 230.184 3.29901 -2.89935 0
M  V30 2508 H 230.79 1.89492 -3.80753 0
M  V30 2509 N 229.106 1.52395 0.401703 0
M  V30 2510 C 230.352 1.67065 1.14966 0
M  V30 2511 C 230.685 0.403052 1.89971 0
M  V30 2512 O 229.96 -0.598774 1.85054 0
M  V30 2513 C 230.243 2.8975 2.13815 0
M  V30 2514 C 230.096 4.26578 1.42658 0
M  V30 2515 C 231.415 3.07965 3.14397 0
M  V30 2516 H 228.534 0.607968 0.416587 0
M  V30 2517 H 231.176 1.84965 0.434511 0
M  V30 2518 H 229.326 2.74619 2.74803 0
M  V30 2519 H 230.998 4.53451 0.847329 0
M  V30 2520 H 229.241 4.27639 0.72849 0
M  V30 2521 H 229.912 5.08483 2.14823 0
M  V30 2522 H 232.388 3.22043 2.63491 0
M  V30 2523 H 231.264 3.95308 3.80819 0
M  V30 2524 H 231.525 2.21611 3.82545 0
M  V30 2525 N 230.584 -0.659388 1.43143 0
M  V30 2526 C 231.547 -1.75432 1.47501 0
M  V30 2527 C 232.547 -1.56707 0.360512 0
M  V30 2528 O 233.737 -1.62717 0.622002 0
M  V30 2529 C 230.869 -3.14239 1.32162 0
M  V30 2530 H 232.062 -1.7295 2.45006 0
M  V30 2531 H 229.615 -0.870469 1.29817 0
M  V30 2532 H 230.35 -3.22336 0.356401 0
M  V30 2533 H 230.135 -3.29235 2.12948 0
M  V30 2534 H 231.625 -3.94094 1.3813 0
M  V30 2535 N 232.062 -1.29571 -0.897171 0
M  V30 2536 C 233.478 -1.07637 -1.17841 0
M  V30 2537 C 233.678 0.170713 -2.00776 0
M  V30 2538 O 232.734 0.867768 -2.3712 0
M  V30 2539 C 234.047 -2.3332 -1.8969 0
M  V30 2540 C 235.595 -2.38664 -2.02505 0
M  V30 2541 C 236.07 -3.64157 -2.77765 0
M  V30 2542 N 237.561 -3.64894 -2.85318 0
M  V30 2543 C 238.296 -4.58679 -3.44094 0
M  V30 2544 N 237.792 -5.62799 -4.04017 0
M  V30 2545 N 239.585 -4.46245 -3.41793 0
M  V30 2546 H 231.736 -2.09598 -0.343883 0
M  V30 2547 H 233.999 -0.923333 -0.214848 0
M  V30 2548 H 233.705 -3.24262 -1.36187 0
M  V30 2549 H 233.579 -2.41025 -2.9015 0
M  V30 2550 H 235.966 -1.48208 -2.55183 0
M  V30 2551 H 236.047 -2.34943 -1.01171 0
M  V30 2552 H 235.691 -4.54965 -2.25763 0
M  V30 2553 H 235.621 -3.65137 -3.7945 0
M  V30 2554 H 238.112 -2.89613 -2.42761 0
M  V30 2555 H 238.425 -6.3048 -4.46895 0
M  V30 2556 H 236.77 -5.66605 -4.02472 0
M  V30 2557 H 239.961 -3.64094 -2.94199 0
M  V30 2558 H 240.134 -5.19518 -3.87304 0
M  V30 2559 N 233.54 1.10788 -1.12088 0
M  V30 2560 C 234.786 1.82942 -0.875226 0
M  V30 2561 C 235.119 1.84779 0.597538 0
M  V30 2562 O 234.394 1.30578 1.44152 0
M  V30 2563 C 234.677 3.29789 -1.44606 0
M  V30 2564 C 234.53 3.36307 -2.98693 0
M  V30 2565 C 235.849 4.26064 -1.10261 0
M  V30 2566 H 232.968 0.664195 -0.319397 0
M  V30 2567 H 235.61 1.29867 -1.38689 0
M  V30 2568 H 233.76 3.75118 -1.01089 0
M  V30 2569 H 235.432 2.99487 -3.50864 0
M  V30 2570 H 233.675 2.76318 -3.34411 0
M  V30 2571 H 234.346 4.39694 -3.33726 0
M  V30 2572 H 236.822 3.88951 -1.4784 0
M  V30 2573 H 235.698 5.27183 -1.52869 0
M  V30 2574 H 235.959 4.42098 -0.0142953 0
M  V30 2575 N 235.018 0.912232 1.28515 0
M  V30 2576 C 235.948 0.416403 2.29757 0
M  V30 2577 C 236.929 -0.515194 1.6211 0
M  V30 2578 O 238.114 -0.423253 1.89532 0
M  V30 2579 C 235.244 -0.34572 3.45575 0
M  V30 2580 C 234.198 0.496599 4.25109 0
M  V30 2581 C 233.524 -0.393771 5.33248 0
M  V30 2582 C 234.824 1.75307 4.92001 0
M  V30 2583 H 236.518 1.26249 2.7148 0
M  V30 2584 H 234.064 0.608515 1.30511 0
M  V30 2585 H 236.017 -0.703422 4.15488 0
M  V30 2586 H 234.741 -1.2257 3.02728 0
M  V30 2587 H 233.4 0.8368 3.56922 0
M  V30 2588 H 233.048 -1.27225 4.86644 0
M  V30 2589 H 232.748 0.166209 5.87365 0
M  V30 2590 H 234.272 -0.747389 6.06009 0
M  V30 2591 H 235.686 1.46437 5.54283 0
M  V30 2592 H 234.083 2.25534 5.56106 0
M  V30 2593 H 235.153 2.48176 4.16577 0
M  V30 2594 N 236.496 -1.42363 0.676048 0
M  V30 2595 C 237.907 -1.84649 0.275948 0
M  V30 2596 C 238.258 -1.56588 -1.18214 0
M  V30 2597 O 237.383 -1.02634 -1.90513 0
M  V30 2598 C 237.978 -3.35178 0.494053 0
M  V30 2599 C 236.537 -3.76109 0.148061 0
M  V30 2600 C 235.684 -2.65931 0.785891 0
M  V30 2601 H 238.635 -1.32192 0.878121 0
M  V30 2602 H 238.656 -3.79655 -0.25343 0
M  V30 2603 H 238.168 -3.55571 1.55535 0
M  V30 2604 H 236.269 -3.61323 -0.909742 0
M  V30 2605 H 236.382 -4.7546 0.589454 0
M  V30 2606 H 234.746 -2.53773 0.217113 0
M  V30 2607 H 235.529 -2.89146 1.85067 0
M  V30 2608 N 237.974 -0.419461 -1.51915 0
M  V30 2609 C 238.904 0.391813 -2.30189 0
M  V30 2610 C 239.885 1.03699 -1.34836 0
M  V30 2611 O 241.07 1.04403 -1.63748 0
M  V30 2612 C 238.2 1.50312 -3.13087 0
M  V30 2613 C 237.154 0.9824 -4.16573 0
M  V30 2614 C 236.48 2.18809 -4.8788 0
M  V30 2615 C 237.78 0.0292356 -5.22292 0
M  V30 2616 H 239.474 -0.26135 -2.98257 0
M  V30 2617 H 237.02 -0.127134 -1.43438 0
M  V30 2618 H 238.973 2.07773 -3.66617 0
M  V30 2619 H 237.697 2.18431 -2.42807 0
M  V30 2620 H 236.356 0.430119 -3.64068 0
M  V30 2621 H 236.004 2.85507 -4.14119 0
M  V30 2622 H 235.704 1.84615 -5.57845 0
M  V30 2623 H 237.228 2.76858 -5.44226 0
M  V30 2624 H 238.642 0.512976 -5.71 0
M  V30 2625 H 237.039 -0.2244 -5.9968 0
M  V30 2626 H 238.109 -0.912931 -4.76228 0
M  V30 2627 N 239.452 1.56882 -0.150215 0
M  V30 2628 C 240.698 1.97299 0.494427 0
M  V30 2629 C 241.053 1.0338 1.62266 0
M  V30 2630 O 240.346 0.0694497 1.91474 0
M  V30 2631 C 240.54 3.41801 1.04437 0
M  V30 2632 C 240.369 4.49691 -0.0290451 0
M  V30 2633 C 239.139 5.03095 -0.47156 0
M  V30 2634 C 241.337 5.07693 -0.821703 0
M  V30 2635 N 239.319 5.94593 -1.52749 0
M  V30 2636 C 240.69 5.95431 -1.72805 0
M  V30 2637 C 242.745 4.90256 -0.869134 0
M  V30 2638 C 241.448 6.67599 -2.67777 0
M  V30 2639 C 243.474 5.63127 -1.8067 0
M  V30 2640 C 242.836 6.50576 -2.70057 0
M  V30 2641 H 238.935 0.76755 0.149639 0
M  V30 2642 H 241.519 1.93145 -0.24556 0
M  V30 2643 H 239.69 3.46541 1.75396 0
M  V30 2644 H 241.422 3.69272 1.6559 0
M  V30 2645 H 238.177 4.73543 -0.0732101 0
M  V30 2646 H 238.601 6.45047 -2.05531 0
M  V30 2647 H 243.243 4.22363 -0.192134 0
M  V30 2648 H 240.961 7.34717 -3.36476 0
M  V30 2649 H 244.547 5.51629 -1.84924 0
M  V30 2650 H 243.427 7.05974 -3.41424 0
M  V30 2651 N 240.93 -0.123565 1.57115 0
M  V30 2652 C 241.878 -1.17082 2.00984 0
M  V30 2653 C 242.872 -1.43136 0.906009 0
M  V30 2654 O 244.078 -1.43152 1.09121 0
M  V30 2655 H 240.453 -0.394653 0.64012 0
M  V30 2656 H 242.424 -0.774292 2.88179 0
M  V30 2657 C 241.173 -2.49057 2.42623 0
M  V30 2658 H 240.496 -2.29846 3.27125 0
M  V30 2659 H 241.936 -3.20906 2.7712 0
M  V30 2660 C 240.395 -3.11305 1.28805 0
M  V30 2661 O 240.925 -3.97171 0.60153 0
M  V30 2662 N 239.131 -2.71111 1.04628 0
M  V30 2663 H 238.678 -2.01382 1.60634 0
M  V30 2664 H 238.636 -3.1309 0.286685 0
M  V30 2665 N 242.408 -1.52605 -0.393616 0
M  V30 2666 C 243.318 -1.79971 -1.50492 0
M  V30 2667 C 244.334 -0.686181 -1.59899 0
M  V30 2668 O 245.51 -0.973274 -1.76322 0
M  V30 2669 C 242.575 -1.95867 -2.86072 0
M  V30 2670 C 241.636 -3.19781 -2.86424 0
M  V30 2671 C 240.869 -3.34909 -4.15538 0
M  V30 2672 O 241.092 -2.54948 -5.10253 0
M  V30 2673 O 240.026 -4.28141 -4.23059 0
M  V30 2674 H 243.852 -2.74328 -1.30299 0
M  V30 2675 H 241.437 -1.3764 -0.581005 0
M  V30 2676 H 243.319 -2.08056 -3.66457 0
M  V30 2677 H 241.994 -1.04699 -3.063 0
M  V30 2678 H 240.901 -3.13038 -2.04837 0
M  V30 2679 H 242.234 -4.1078 -2.71147 0
M  V30 2680 N 243.887 0.651787 -1.4349 0
M  V30 2681 C 245.112 1.44434 -1.48841 0
M  V30 2682 C 245.537 1.8779 -0.107955 0
M  V30 2683 O 244.895 1.57464 0.898602 0
M  V30 2684 C 244.943 2.65458 -2.44059 0
M  V30 2685 O 244.047 3.64566 -1.92784 0
M  V30 2686 H 243.388 0.433005 -0.503391 0
M  V30 2687 H 245.918 0.797451 -1.88419 0
M  V30 2688 H 245.928 3.13255 -2.6141 0
M  V30 2689 H 244.603 2.33244 -3.4434 0
M  V30 2690 H 243.18 3.23716 -1.851 0
M  V30 2691 N 245.365 1.30045 0.890287 0
M  V30 2692 C 246.614 1.17929 1.63633 0
M  V30 2693 C 246.927 -0.266204 1.9378 0
M  V30 2694 O 248.133 -0.508804 2.6669 0
M  V30 2695 C 246.589 2.06317 2.94892 0
M  V30 2696 C 246.197 3.55745 2.72305 0
M  V30 2697 C 247.941 2.0295 3.72843 0
M  V30 2698 C 245.848 4.36205 3.99348 0
M  V30 2699 H 244.778 0.437782 0.613892 0
M  V30 2700 H 247.429 1.54754 0.986075 0
M  V30 2701 H 245.811 1.6237 3.61182 0
M  V30 2702 H 246.985 4.07805 2.1455 0
M  V30 2703 H 245.3 3.6088 2.07737 0
M  V30 2704 H 247.897 2.60319 4.67053 0
M  V30 2705 H 248.24 1.0117 4.0382 0
M  V30 2706 H 248.773 2.4499 3.13408 0
M  V30 2707 H 245.512 5.38659 3.73533 0
M  V30 2708 H 245.032 3.8891 4.56628 0
M  V30 2709 H 246.711 4.47362 4.67415 0
M  V30 2710 N 246.843 -1.10192 1.12674 0
M  V30 2711 C 247.806 -2.14786 0.799979 0
M  V30 2712 C 248.806 -1.59711 -0.18685 0
M  V30 2713 O 249.996 -1.74156 0.0392558 0
M  V30 2714 C 247.128 -3.40374 0.189228 0
M  V30 2715 H 248.321 -2.45203 1.72671 0
M  V30 2716 H 245.874 -1.25597 0.930326 0
M  V30 2717 H 246.609 -3.15577 -0.747107 0
M  V30 2718 H 246.394 -3.81637 0.899766 0
M  V30 2719 H 247.884 -4.17594 -0.0228143 0
M  V30 2720 N 248.321 -0.919034 -1.28029 0
M  V30 2721 C 249.732 -0.600735 -1.76771 0
M  V30 2722 C 250.083 0.884024 -1.75156 0
M  V30 2723 O 249.208 1.69163 -1.34956 0
M  V30 2724 C 249.803 -1.08372 -3.21 0
M  V30 2725 C 248.362 -0.816248 -3.67443 0
M  V30 2726 C 247.509 -1.24742 -2.47658 0
M  V30 2727 H 250.46 -1.09974 -1.14418 0
M  V30 2728 H 250.481 -0.427512 -3.78091 0
M  V30 2729 H 249.993 -2.16437 -3.22144 0
M  V30 2730 H 248.094 0.250968 -3.71754 0
M  V30 2731 H 248.207 -1.4277 -4.57333 0
M  V30 2732 H 246.571 -0.666083 -2.45836 0
M  V30 2733 H 247.354 -2.33653 -2.51518 0
M  V30 2734 N 249.799 1.42003 -0.683588 0
M  V30 2735 C 250.762 2.29191 -0.0198243 0
M  V30 2736 C 251.762 1.43773 0.72013 0
M  V30 2737 O 252.952 1.65061 0.556815 0
M  V30 2738 C 250.084 3.26435 0.982487 0
M  V30 2739 H 251.277 2.8938 -0.787345 0
M  V30 2740 H 248.83 1.49789 -0.446418 0
M  V30 2741 H 249.565 2.71203 1.77819 0
M  V30 2742 H 249.35 3.89449 0.455182 0
M  V30 2743 H 250.84 3.918 1.44508 0
M  V30 2744 N 251.277 0.427512 1.51691 0
M  V30 2745 C 252.523 -0.142439 2.02299 0
M  V30 2746 C 252.856 -1.43214 1.31162 0
M  V30 2747 O 252.131 -1.89833 0.423511 0
M  V30 2748 C 252.414 -0.371301 3.58181 0
M  V30 2749 C 252.267 0.936358 4.39946 0
M  V30 2750 C 253.586 -1.14542 4.24933 0
M  V30 2751 H 250.705 -0.0502937 0.735282 0
M  V30 2752 H 253.347 0.564584 1.81418 0
M  V30 2753 H 251.497 -0.973559 3.76104 0
M  V30 2754 H 253.169 1.57184 4.33694 0
M  V30 2755 H 251.412 1.5432 4.05423 0
M  V30 2756 H 252.083 0.730388 5.47147 0
M  V30 2757 H 254.559 -0.635362 4.11221 0
M  V30 2758 H 253.435 -1.27431 5.33903 0
M  V30 2759 H 253.696 -2.17093 3.85127 0
M  V30 2760 N 252.755 -1.56801 0.158532 0
M  V30 2761 C 253.702 -2.17337 -0.776729 0
M  V30 2762 C 254.672 -1.1096 -1.23601 0
M  V30 2763 O 255.857 -1.39054 -1.30647 0
M  V30 2764 C 252.997 -2.80822 -2.00582 0
M  V30 2765 C 252.11 -4.01624 -1.59129 0
M  V30 2766 C 251.245 -4.53072 -2.77306 0
M  V30 2767 C 250.284 -5.66314 -2.32282 0
M  V30 2768 N 249.421 -6.12329 -3.43508 0
M  V30 2769 H 254.261 -2.96918 -0.253701 0
M  V30 2770 H 251.798 -1.46661 -0.113504 0
M  V30 2771 H 253.756 -3.15779 -2.72652 0
M  V30 2772 H 252.386 -2.03866 -2.50277 0
M  V30 2773 H 251.438 -3.72571 -0.767806 0
M  V30 2774 H 252.75 -4.83633 -1.2207 0
M  V30 2775 H 251.904 -4.90145 -3.57551 0
M  V30 2776 H 250.643 -3.70095 -3.17617 0
M  V30 2777 H 249.648 -5.28806 -1.5048 0
M  V30 2778 H 250.873 -6.51085 -1.93043 0
M  V30 2779 H 248.819 -5.32284 -3.83418 0
M  V30 2780 H 248.736 -6.89293 -3.105 0
M  V30 2781 H 250.004 -6.5405 -4.24075 0
M  V30 2782 N 254.233 0.115231 -1.57178 0
M  V30 2783 C 255.196 1.12526 -1.99676 0
M  V30 2784 C 256.196 1.34095 -0.88742 0
M  V30 2785 O 257.386 1.30548 -1.15337 0
M  V30 2786 C 254.518 2.4789 -2.34015 0
M  V30 2787 H 255.711 0.759912 -2.90113 0
M  V30 2788 H 253.264 0.359648 -1.52106 0
M  V30 2789 H 253.999 2.89339 -1.4647 0
M  V30 2790 H 253.784 2.33588 -3.14927 0
M  V30 2791 H 255.274 3.20575 -2.67622 0
M  V30 2792 N 255.711 1.52812 0.385517 0
M  V30 2793 C 256.959 1.67694 1.12797 0
M  V30 2794 C 257.28 0.421115 1.90399 0
M  V30 2795 O 256.55 -0.564551 1.87589 0
M  V30 2796 H 255.13 0.618155 0.419396 0
M  V30 2797 H 257.792 1.89938 0.436972 0
M  V30 2798 H 256.888 2.52896 1.82894 0
M  V30 2799 N 257.189 -0.644168 1.43834 0
M  V30 2800 C 258.136 -1.75671 1.49694 0
M  V30 2801 C 259.106 -1.6246 0.345809 0
M  V30 2802 O 260.291 -1.82573 0.554234 0
M  V30 2803 C 257.431 -3.13867 1.43463 0
M  V30 2804 C 256.544 -3.38147 2.6885 0
M  V30 2805 C 255.679 -4.66241 2.54544 0
M  V30 2806 C 254.718 -4.83657 3.75157 0
M  V30 2807 N 253.855 -6.03016 3.59605 0
M  V30 2808 H 258.695 -1.69998 2.44754 0
M  V30 2809 H 256.232 -0.829458 1.21484 0
M  V30 2810 H 258.19 -3.9377 1.37843 0
M  V30 2811 H 256.82 -3.18588 0.519783 0
M  V30 2812 H 255.872 -2.52276 2.84712 0
M  V30 2813 H 257.184 -3.46899 3.58417 0
M  V30 2814 H 256.338 -5.54285 2.46683 0
M  V30 2815 H 255.077 -4.59826 1.62516 0
M  V30 2816 H 254.082 -3.94046 3.83416 0
M  V30 2817 H 255.307 -4.91896 4.68204 0
M  V30 2818 H 253.253 -5.97715 2.7032 0
M  V30 2819 H 253.17 -6.12766 4.42779 0
M  V30 2820 H 254.438 -6.93657 3.55613 0
M  V30 2821 N 258.668 -1.30515 -0.883378 0
M  V30 2822 C 259.6 -1.12846 -1.99496 0
M  V30 2823 C 260.613 -0.0712571 -1.62644 0
M  V30 2824 O 261.802 -0.317432 -1.75655 0
M  V30 2825 C 258.902 -0.699123 -3.3161 0
M  V30 2826 C 258.075 -1.83842 -3.96889 0
M  V30 2827 C 257.134 -1.39737 -5.07307 0
M  V30 2828 O 256.16 -2.10485 -5.28852 0
M  V30 2829 N 257.362 -0.277279 -5.79837 0
M  V30 2830 H 260.127 -2.08585 -2.15203 0
M  V30 2831 H 257.688 -1.22672 -1.05656 0
M  V30 2832 H 259.68 -0.387044 -4.02845 0
M  V30 2833 H 258.25 0.166276 -3.12157 0
M  V30 2834 H 257.47 -2.31853 -3.18807 0
M  V30 2835 H 258.758 -2.60187 -4.37241 0
M  V30 2836 H 258.156 0.3122 -5.64838 0
M  V30 2837 H 256.713 -0.0246623 -6.51795 0
M  V30 2838 N 260.146 1.09593 -1.13257 0
M  V30 2839 C 261.392 1.82003 -0.89458 0
M  V30 2840 C 261.725 1.85402 0.577906 0
M  V30 2841 O 261 1.32099 1.42759 0
M  V30 2842 C 261.283 3.28237 -1.48096 0
M  V30 2843 C 261.136 3.3312 -3.02244 0
M  V30 2844 C 262.455 4.24871 -1.14774 0
M  V30 2845 H 259.574 0.66077 -0.326424 0
M  V30 2846 H 262.216 1.28389 -1.40058 0
M  V30 2847 H 260.366 3.74024 -1.05062 0
M  V30 2848 H 262.038 2.95748 -3.54021 0
M  V30 2849 H 260.281 2.72756 -3.37323 0
M  V30 2850 H 260.952 4.3613 -3.38371 0
M  V30 2851 H 263.428 3.87361 -1.51957 0
M  V30 2852 H 262.304 5.25532 -1.58452 0
M  V30 2853 H 262.565 4.42058 -0.0611849 0
M  V30 2854 N 261.624 0.925811 1.2754 0
M  V30 2855 C 262.554 0.440748 2.29303 0
M  V30 2856 C 263.535 -0.497971 1.62648 0
M  V30 2857 O 264.72 -0.403126 1.8997 0
M  V30 2858 C 261.85 -0.309048 3.45922 0
M  V30 2859 C 260.804 0.54166 4.24559 0
M  V30 2860 C 260.13 -0.337191 5.33636 0
M  V30 2861 C 261.43 1.80516 4.90114 0
M  V30 2862 H 263.124 1.29121 2.70126 0
M  V30 2863 H 260.67 0.622323 1.29858 0
M  V30 2864 H 262.623 -0.659315 4.1621 0
M  V30 2865 H 261.347 -1.19352 3.04011 0
M  V30 2866 H 260.006 0.874609 3.56014 0
M  V30 2867 H 259.654 -1.22056 4.87966 0
M  V30 2868 H 259.354 0.228497 5.87156 0
M  V30 2869 H 260.878 -0.683072 6.06767 0
M  V30 2870 H 262.292 1.52307 5.52698 0
M  V30 2871 H 260.689 2.3142 5.53683 0
M  V30 2872 H 261.759 2.52581 4.13921 0
M  V30 2873 N 263.102 -1.41638 0.69111 0
M  V30 2874 C 264.351 -2.00526 0.217318 0
M  V30 2875 C 264.664 -1.55353 -1.18848 0
M  V30 2876 O 265.87 -2.06769 -1.75951 0
M  V30 2877 C 264.326 -3.58313 0.337639 0
M  V30 2878 C 263.934 -4.12469 1.74852 0
M  V30 2879 C 265.678 -4.24431 -0.0766066 0
M  V30 2880 C 263.585 -5.62675 1.82074 0
M  V30 2881 H 262.515 -0.750008 0.0774893 0
M  V30 2882 H 265.166 -1.6217 0.858661 0
M  V30 2883 H 263.548 -3.9425 -0.371879 0
M  V30 2884 H 264.722 -3.8796 2.48644 0
M  V30 2885 H 263.037 -3.58861 2.11205 0
M  V30 2886 H 265.634 -5.34683 -0.0430284 0
M  V30 2887 H 265.977 -4.01101 -1.1146 0
M  V30 2888 H 266.51 -3.93512 0.582476 0
M  V30 2889 H 263.249 -5.90826 2.83911 0
M  V30 2890 H 262.769 -5.89124 1.12661 0
M  V30 2891 H 264.448 -6.27371 1.58159 0
M  V30 2892 N 264.58 -0.43555 -1.51462 0
M  V30 2893 C 265.543 0.365137 -2.26273 0
M  V30 2894 C 266.543 0.951227 -1.29647 0
M  V30 2895 O 267.733 0.825958 -1.53374 0
M  V30 2896 C 264.865 1.51645 -3.05314 0
M  V30 2897 H 266.058 -0.290474 -2.9849 0
M  V30 2898 H 263.611 -0.188676 -1.55157 0
M  V30 2899 H 264.346 2.20816 -2.3751 0
M  V30 2900 H 264.131 1.10238 -3.76284 0
M  V30 2901 H 265.621 2.08218 -3.61987 0
M  V30 2902 N 266.058 1.56714 -0.166846 0
M  V30 2903 C 267.021 2.16539 0.751232 0
M  V30 2904 C 268.021 1.11228 1.16125 0
M  V30 2905 O 269.211 1.36765 1.07894 0
M  V30 2906 C 266.343 2.74462 2.02196 0
M  V30 2907 H 267.536 2.99013 0.230499 0
M  V30 2908 H 265.089 1.56081 0.0826982 0
M  V30 2909 H 265.824 1.95709 2.58589 0
M  V30 2910 H 265.609 3.51527 1.73698 0
M  V30 2911 H 267.099 3.20489 2.67725 0
M  V30 2912 N 267.536 -0.106894 1.57237 0
M  V30 2913 C 268.486 -1.1366 1.9765 0
M  V30 2914 C 269.47 -1.36416 0.853203 0
M  V30 2915 O 270.662 -1.37305 1.11697 0
M  V30 2916 C 267.791 -2.46 2.39455 0
M  V30 2917 C 266.877 -2.26668 3.58445 0
M  V30 2918 N 267.268 -1.77176 4.73754 0
M  V30 2919 C 265.566 -2.57279 3.64312 0
M  V30 2920 C 266.267 -1.71836 5.5574 0
M  V30 2921 N 265.243 -2.16623 4.98573 0
M  V30 2922 H 269.045 -0.74669 2.84256 0
M  V30 2923 H 266.559 -0.314483 1.59326 0
M  V30 2924 H 268.556 -3.2049 2.6663 0
M  V30 2925 H 267.216 -2.85738 1.54219 0
M  V30 2926 H 268.227 -1.46545 4.96734 0
M  V30 2927 H 264.904 -3.00622 2.89711 0
M  V30 2928 H 266.294 -1.34723 6.58255 0
M  V30 2929 N 269.014 -1.53014 -0.377408 0
M  V30 2930 C 270.262 -1.6829 -1.11906 0
M  V30 2931 C 270.583 -0.431206 -1.90173 0
M  V30 2932 O 269.853 0.554595 -1.87886 0
M  V30 2933 H 268.433 -0.620371 -0.416112 0
M  V30 2934 H 271.095 -1.90167 -0.426893 0
M  V30 2935 H 270.191 -2.53862 -1.8155 0
M  V30 2936 N 270.492 0.636531 -1.44174 0
M  V30 2937 C 271.44 1.76995 -1.50915 0
M  V30 2938 C 272.434 1.65053 -0.381295 0
M  V30 2939 O 273.64 1.71197 -0.55601 0
M  V30 2940 H 270.015 0.584247 -0.473455 0
M  V30 2941 H 271.986 1.68432 -2.4632 0
M  V30 2942 C 270.735 3.15314 -1.46534 0
M  V30 2943 H 270.058 3.25149 -2.32633 0
M  V30 2944 H 271.498 3.9453 -1.55312 0
M  V30 2945 C 269.957 3.3639 -0.185305 0
M  V30 2946 O 270.487 3.94699 0.746688 0
M  V30 2947 N 268.693 2.9046 -0.0901606 0
M  V30 2948 H 268.24 2.43193 -0.849416 0
M  V30 2949 H 268.198 3.04937 0.765553 0
M  V30 2950 N 271.97 1.30982 0.876444 0
M  V30 2951 C 273.195 1.23373 1.66715 0
M  V30 2952 C 273.62 -0.19885 1.87046 0
M  V30 2953 O 272.978 -1.1427 1.40756 0
M  V30 2954 C 273.026 1.97644 3.01611 0
M  V30 2955 O 272.13 1.30935 3.91062 0
M  V30 2956 H 271.471 0.426279 0.509099 0
M  V30 2957 H 274.001 1.72944 1.09323 0
M  V30 2958 H 274.011 2.06992 3.51594 0
M  V30 2959 H 272.686 3.01829 2.86133 0
M  V30 2960 H 271.263 1.29996 3.49507 0
M  V30 2961 N 273.449 -1.08991 1.13837 0
M  V30 2962 C 274.379 -2.17771 0.842507 0
M  V30 2963 C 275.36 -1.6892 -0.20001 0
M  V30 2964 O 276.545 -1.94113 -0.0579731 0
M  V30 2965 C 273.675 -3.4589 0.312644 0
M  V30 2966 C 272.629 -4.08099 1.28992 0
M  V30 2967 C 271.955 -5.31098 0.619623 0
M  V30 2968 C 273.255 -4.50077 2.65005 0
M  V30 2969 H 274.949 -2.42777 1.75213 0
M  V30 2970 H 272.495 -1.16682 0.843875 0
M  V30 2971 H 274.448 -4.21297 0.0933043 0
M  V30 2972 H 273.172 -3.20419 -0.632382 0
M  V30 2973 H 271.831 -3.34717 1.49533 0
M  V30 2974 H 271.479 -5.0191 -0.33102 0
M  V30 2975 H 271.179 -5.73674 1.27167 0
M  V30 2976 H 272.703 -6.09224 0.409669 0
M  V30 2977 H 274.117 -5.16688 2.48407 0
M  V30 2978 H 272.514 -5.03553 3.26427 0
M  V30 2979 H 273.584 -3.62257 3.22332 0
M  V30 2980 N 274.927 -0.932562 -1.27047 0
M  V30 2981 C 276.343 -0.633544 -1.46487 0
M  V30 2982 C 276.543 0.815746 -1.84249 0
M  V30 2983 O 275.599 1.59319 -1.95892 0
M  V30 2984 C 276.912 -1.58758 -2.55375 0
M  V30 2985 C 278.46 -1.59634 -2.69232 0
M  V30 2986 C 278.935 -2.53747 -3.81283 0
M  V30 2987 N 280.426 -2.51982 -3.88664 0
M  V30 2988 C 281.161 -3.21491 -4.74796 0
M  V30 2989 N 280.657 -4.00395 -5.65381 0
M  V30 2990 N 282.45 -3.10485 -4.68568 0
M  V30 2991 H 274.601 -1.86946 -1.00821 0
M  V30 2992 H 276.864 -0.802897 -0.504044 0
M  V30 2993 H 276.57 -2.62172 -2.34432 0
M  V30 2994 H 276.444 -1.33301 -3.52861 0
M  V30 2995 H 278.831 -0.569488 -2.89553 0
M  V30 2996 H 278.912 -1.89142 -1.72218 0
M  V30 2997 H 278.556 -3.56545 -3.61715 0
M  V30 2998 H 278.486 -2.21532 -4.77735 0
M  V30 2999 H 280.977 -1.94681 -3.23895 0
M  V30 3000 H 281.29 -4.50406 -6.27976 0
M  V30 3001 H 279.635 -4.04498 -5.65161 0
M  V30 3002 H 282.826 -2.48331 -3.96799 0
M  V30 3003 H 282.999 -3.64925 -5.35475 0
M  V30 3004 N 276.405 1.4127 -0.698611 0
M  V30 3005 C 277.368 2.29158 -0.044132 0
M  V30 3006 C 278.368 1.44529 0.704841 0
M  V30 3007 O 279.558 1.65643 0.539276 0
M  V30 3008 C 276.69 3.27459 0.947809 0
M  V30 3009 H 277.883 2.88529 -0.817994 0
M  V30 3010 H 275.436 1.49307 -0.46228 0
M  V30 3011 H 276.171 2.73073 1.74933 0
M  V30 3012 H 275.956 3.8991 0.41385 0
M  V30 3013 H 277.446 3.93311 1.40344 0
M  V30 3014 N 277.883 0.443576 1.51229 0
M  V30 3015 C 278.813 -0.355142 2.30783 0
M  V30 3016 C 279.794 -1.0154 1.36468 0
M  V30 3017 O 280.979 -1.01785 1.65389 0
M  V30 3018 C 278.109 -1.45312 3.15439 0
M  V30 3019 C 277.063 -0.916002 4.18083 0
M  V30 3020 C 276.389 -2.1102 4.91299 0
M  V30 3021 C 277.689 0.0538602 5.22272 0
M  V30 3022 H 279.383 0.308767 2.97804 0
M  V30 3023 H 276.929 0.149937 1.43217 0
M  V30 3024 H 278.882 -2.01914 3.69876 0
M  V30 3025 H 277.606 -2.14541 2.46252 0
M  V30 3026 H 276.265 -0.372145 3.64706 0
M  V30 3027 H 275.913 -2.78882 4.18609 0
M  V30 3028 H 275.613 -1.75717 5.60712 0
M  V30 3029 H 277.137 -2.68164 5.48562 0
M  V30 3030 H 278.551 -0.422069 5.71744 0
M  V30 3031 H 276.948 0.319776 5.99247 0
M  V30 3032 H 278.018 0.98858 4.74716 0
M  V30 3033 N 279.361 -1.56624 0.175154 0
M  V30 3034 C 280.61 -1.96173 -0.468921 0
M  V30 3035 C 280.923 -1.06401 -1.64128 0
M  V30 3036 O 282.129 -1.35648 -2.35185 0
M  V30 3037 C 280.585 -3.48833 -0.885633 0
M  V30 3038 C 280.193 -4.47237 0.261343 0
M  V30 3039 C 281.937 -3.97194 -1.49791 0
M  V30 3040 C 279.844 -5.9114 -0.175214 0
M  V30 3041 H 278.774 -0.732455 -0.178958 0
M  V30 3042 H 281.425 -1.81591 0.263997 0
M  V30 3043 H 279.807 -3.58848 -1.67464 0
M  V30 3044 H 280.981 -4.4894 1.03871 0
M  V30 3045 H 279.296 -4.08956 0.783827 0
M  V30 3046 H 281.893 -5.02167 -1.83665 0
M  V30 3047 H 282.236 -3.40351 -2.39722 0
M  V30 3048 H 282.769 -3.90212 -0.773267 0
M  V30 3049 H 279.508 -6.51865 0.689414 0
M  V30 3050 H 279.028 -5.92735 -0.91786 0
M  V30 3051 H 280.707 -6.44044 -0.617792 0
M  V30 3052 N 280.839 0.0985539 -1.57292 0
M  V30 3053 C 281.786 1.11981 -2.01814 0
M  V30 3054 C 282.756 1.39999 -0.89384 0
M  V30 3055 O 283.941 1.5152 -1.15958 0
M  V30 3056 C 281.081 2.43577 -2.44467 0
M  V30 3057 C 280.194 2.2232 -3.70402 0
M  V30 3058 C 279.329 3.4729 -4.01949 0
M  V30 3059 C 278.368 3.2128 -5.21005 0
M  V30 3060 N 277.505 4.38507 -5.48321 0
M  V30 3061 H 282.345 0.733149 -2.88841 0
M  V30 3062 H 279.882 0.350482 -1.42864 0
M  V30 3063 H 281.84 3.20373 -2.6724 0
M  V30 3064 H 280.47 2.80097 -1.60455 0
M  V30 3065 H 279.522 1.36343 -3.55126 0
M  V30 3066 H 280.834 1.99089 -4.57345 0
M  V30 3067 H 279.988 4.32495 -4.25479 0
M  V30 3068 H 278.727 3.73572 -3.13521 0
M  V30 3069 H 277.732 2.34468 -4.97298 0
M  V30 3070 H 278.957 2.96348 -6.11028 0
M  V30 3071 H 276.903 4.64871 -4.62851 0
M  V30 3072 H 276.82 4.18455 -6.29628 0
M  V30 3073 H 278.088 5.24787 -5.76385 0
M  V30 3074 N 282.317 1.53212 0.369288 0
M  V30 3075 C 283.547 1.72868 1.13139 0
M  V30 3076 C 283.955 0.455754 1.83629 0
M  V30 3077 O 283.298 -0.580861 1.74275 0
M  V30 3078 C 283.36 2.83667 2.20847 0
M  V30 3079 C 283.024 4.24142 1.70155 0
M  V30 3080 C 284.021 5.06619 1.16763 0
M  V30 3081 C 281.706 4.70539 1.7578 0
M  V30 3082 C 283.7 6.33581 0.696678 0
M  V30 3083 C 281.387 5.97481 1.28297 0
M  V30 3084 C 282.385 6.78833 0.753307 0
M  V30 3085 O 282.073 8.03393 0.285475 0
M  V30 3086 H 281.805 0.581707 0.344373 0
M  V30 3087 H 284.359 2.00736 0.435243 0
M  V30 3088 H 282.589 2.51265 2.93944 0
M  V30 3089 H 284.278 2.91536 2.82421 0
M  V30 3090 H 285.044 4.71948 1.11758 0
M  V30 3091 H 280.923 4.07293 2.15949 0
M  V30 3092 H 284.467 6.97027 0.282581 0
M  V30 3093 H 280.364 6.31651 1.32994 0
M  V30 3094 H 281.132 8.17497 0.405145 0
M  V30 3095 N 283.795 -0.628877 1.44509 0
M  V30 3096 C 284.725 -1.75187 1.54376 0
M  V30 3097 C 285.706 -1.65411 0.396618 0
M  V30 3098 O 286.891 -1.84137 0.617031 0
M  V30 3099 C 284.021 -3.13725 1.48976 0
M  V30 3100 C 282.975 -3.38291 2.62189 0
M  V30 3101 C 282.301 -4.76883 2.41841 0
M  V30 3102 C 283.601 -3.30632 4.04326 0
M  V30 3103 H 285.295 -1.67187 2.48373 0
M  V30 3104 H 282.841 -0.802909 1.19538 0
M  V30 3105 H 284.794 -3.92064 1.54478 0
M  V30 3106 H 283.518 -3.22515 0.514961 0
M  V30 3107 H 282.177 -2.62334 2.56079 0
M  V30 3108 H 281.825 -4.82378 1.42548 0
M  V30 3109 H 281.525 -4.94278 3.17747 0
M  V30 3110 H 283.049 -5.57449 2.49165 0
M  V30 3111 H 284.463 -3.98873 4.11793 0
M  V30 3112 H 282.86 -3.59561 4.80454 0
M  V30 3113 H 283.93 -2.28404 4.27738 0
M  V30 3114 N 285.273 -1.31445 -0.869486 0
M  V30 3115 C 286.55 -1.11795 -1.60503 0
M  V30 3116 C 286.93 0.327168 -2.08549 0
M  V30 3117 O 286.278 1.32135 -1.8642 0
M  V30 3118 C 286.488 -2.13258 -2.76265 0
M  V30 3119 C 287.836 -2.45805 -3.46215 0
M  V30 3120 O 288.86 -2.11688 -2.86473 0
M  V30 3121 O 287.719 -3.04228 -4.5399 0
M  V30 3122 H 284.813 -0.430421 -0.706163 0
M  V30 3123 H 287.359 -1.42925 -0.914907 0
M  V30 3124 H 286.131 -3.10461 -2.3818 0
M  V30 3125 H 285.754 -1.83035 -3.52964 0
M  V30 3126 N 286.751 1.08385 -1.14413 0
M  V30 3127 C 287.999 1.80419 -0.910679 0
M  V30 3128 C 288.32 1.86658 0.564243 0
M  V30 3129 O 287.59 1.35985 1.41014 0
M  V30 3130 H 286.17 0.668204 -0.333934 0
M  V30 3131 H 288.832 1.31037 -1.44275 0
M  V30 3132 H 287.928 2.83238 -1.31082 0
M  V30 3133 N 288.23 0.939286 1.26551 0
M  V30 3134 C 289.479 0.581601 1.93133 0
M  V30 3135 C 289.792 -0.883224 1.74524 0
M  V30 3136 O 290.998 -1.3502 2.35546 0
M  V30 3137 C 289.454 0.989425 3.46032 0
M  V30 3138 C 289.062 2.47573 3.73379 0
M  V30 3139 C 290.806 0.703544 4.18629 0
M  V30 3140 C 288.713 2.82235 5.19709 0
M  V30 3141 H 287.643 0.213803 0.723052 0
M  V30 3142 H 290.294 1.14167 1.4366 0
M  V30 3143 H 288.676 0.357902 3.94379 0
M  V30 3144 H 289.85 3.15614 3.35744 0
M  V30 3145 H 288.165 2.73471 3.1401 0
M  V30 3146 H 290.762 0.938869 5.26393 0
M  V30 3147 H 291.105 -0.359639 4.14744 0
M  V30 3148 H 291.638 1.2947 3.76141 0
M  V30 3149 H 288.377 3.87509 5.28694 0
M  V30 3150 H 287.897 2.18854 5.58447 0
M  V30 3151 H 289.576 2.70599 5.87695 0
M  V30 3152 N 289.708 -1.40897 0.706093 0
M  V30 3153 C 290.933 -2.05895 0.249435 0
M  V30 3154 C 291.358 -1.52823 -1.09666 0
M  V30 3155 O 290.716 -0.659589 -1.68876 0
M  V30 3156 C 290.764 -3.59872 0.22904 0
M  V30 3157 O 289.868 -4.04708 -0.792784 0
M  V30 3158 H 289.209 -0.653206 0.119241 0
M  V30 3159 H 291.739 -1.80471 0.96391 0
M  V30 3160 H 291.749 -4.07951 0.0634791 0
M  V30 3161 H 290.424 -3.97866 1.21141 0
M  V30 3162 H 289.001 -3.68111 -0.59572 0
M  V30 3163 N 291.186 -0.45159 -1.50991 0
M  V30 3164 C 292.463 0.170707 -1.94854 0
M  V30 3165 C 292.843 1.58788 -1.39103 0
M  V30 3166 O 292.191 2.20913 -0.583921 0
M  V30 3167 C 292.401 0.133929 -3.48743 0
M  V30 3168 C 293.749 0.33248 -4.23296 0
M  V30 3169 O 294.773 0.211403 -3.55572 0
M  V30 3170 O 293.632 0.57486 -5.43468 0
M  V30 3171 H 290.726 0.122264 -0.817912 0
M  V30 3172 H 293.272 -0.510594 -1.61836 0
M  V30 3173 H 292.044 -0.856283 -3.81816 0
M  V30 3174 H 291.667 0.857529 -3.88242 0
M  V30 3175 N 292.664 1.56529 -0.183458 0
M  V30 3176 C 293.627 2.17324 0.728223 0
M  V30 3177 C 294.627 1.12453 1.14939 0
M  V30 3178 O 295.817 1.37902 1.06437 0
M  V30 3179 C 292.949 2.76591 1.99274 0
M  V30 3180 H 294.142 2.99241 0.198772 0
M  V30 3181 H 291.695 1.5616 0.0661391 0
M  V30 3182 H 292.43 1.98441 2.56499 0
M  V30 3183 H 292.215 3.5335 1.69959 0
M  V30 3184 H 293.705 3.23311 2.6431 0
M  V30 3185 N 294.142 -0.090211 1.57342 0
M  V30 3186 C 295.419 -0.824761 1.77361 0
M  V30 3187 C 295.799 -1.96698 0.76637 0
M  V30 3188 O 295.147 -2.27586 -0.204179 0
M  V30 3189 C 295.357 -1.31481 3.23286 0
M  V30 3190 C 296.705 -1.75563 3.86604 0
M  V30 3191 O 297.729 -1.41093 3.27065 0
M  V30 3192 O 296.588 -2.39317 4.91314 0
M  V30 3193 H 293.682 -0.393776 0.727234 0
M  V30 3194 H 296.228 -0.0717138 1.69548 0
M  V30 3195 H 295 -0.496671 3.88135 0
M  V30 3196 H 294.623 -2.12973 3.35751 0
M  V30 3197 N 295.62 -1.53406 -0.361157 0
M  V30 3198 C 296.869 -1.69022 -1.10066 0
M  V30 3199 C 297.182 -0.450838 -1.90333 0
M  V30 3200 O 298.388 -0.487617 -2.67085 0
M  V30 3201 C 296.844 -2.98812 -2.00598 0
M  V30 3202 C 296.452 -4.30027 -1.25621 0
M  V30 3203 C 298.196 -3.23795 -2.74513 0
M  V30 3204 C 296.103 -5.50903 -2.1508 0
M  V30 3205 H 295.033 -0.629776 -0.414606 0
M  V30 3206 H 297.684 -1.79907 -0.361348 0
M  V30 3207 H 296.066 -2.8174 -2.78278 0
M  V30 3208 H 297.24 -4.57745 -0.529739 0
M  V30 3209 H 295.555 -4.11522 -0.635496 0
M  V30 3210 H 298.152 -4.11289 -3.41681 0
M  V30 3211 H 298.495 -2.40045 -3.40123 0
M  V30 3212 H 299.028 -3.41561 -2.03914 0
M  V30 3213 H 295.767 -6.37143 -1.54041 0
M  V30 3214 H 295.287 -5.27459 -2.85565 0
M  V30 3215 H 296.966 -5.85865 -2.74538 0
M  V30 3216 N 297.098 0.621204 -1.44841 0
M  V30 3217 C 298.344 1.3826 -1.48365 0
M  V30 3218 C 298.677 1.93831 -0.119624 0
M  V30 3219 O 297.952 1.74251 0.864111 0
M  V30 3220 C 298.235 2.54058 -2.55199 0
M  V30 3221 C 298.088 2.03772 -4.00995 0
M  V30 3222 C 299.407 3.56225 -2.58442 0
M  V30 3223 H 296.526 0.501374 -0.540179 0
M  V30 3224 H 299.168 0.7015 -1.76576 0
M  V30 3225 H 297.318 3.12162 -2.31274 0
M  V30 3226 H 298.99 1.50423 -4.36086 0
M  V30 3227 H 297.233 1.34876 -4.12299 0
M  V30 3228 H 297.904 2.87185 -4.71411 0
M  V30 3229 H 300.38 3.07939 -2.79844 0
M  V30 3230 H 299.256 4.34756 -3.3508 0
M  V30 3231 H 299.517 4.10949 -1.63013 0
M  V30 3232 N 298.576 1.31904 0.862503 0
M  V30 3233 C 299.824 1.21776 1.61292 0
M  V30 3234 C 300.145 -0.222413 1.93727 0
M  V30 3235 O 299.415 -1.1451 1.58947 0
M  V30 3236 H 297.995 0.447717 0.597962 0
M  V30 3237 H 300.657 1.65326 1.03215 0
M  V30 3238 H 299.753 1.7948 2.5533 0
M  V30 3239 N 300.054 -1.07777 1.14986 0
M  V30 3240 C 300.984 -2.16865 0.865557 0
M  V30 3241 C 301.965 -1.69123 -0.182083 0
M  V30 3242 O 303.15 -1.94164 -0.0373815 0
M  V30 3243 C 300.28 -3.45539 0.349313 0
M  V30 3244 C 299.234 -4.06708 1.33313 0
M  V30 3245 C 298.56 -5.30411 0.675918 0
M  V30 3246 C 299.86 -4.47241 2.69764 0
M  V30 3247 H 301.554 -2.40905 1.77778 0
M  V30 3248 H 299.1 -1.15781 0.856203 0
M  V30 3249 H 301.053 -4.21174 0.137983 0
M  V30 3250 H 299.777 -3.21072 -0.598362 0
M  V30 3251 H 298.436 -3.33112 1.53075 0
M  V30 3252 H 298.084 -5.02232 -0.277767 0
M  V30 3253 H 297.784 -5.72293 1.33244 0
M  V30 3254 H 299.308 -6.08755 0.474262 0
M  V30 3255 H 300.722 -5.14025 2.53873 0
M  V30 3256 H 299.119 -5.00062 3.3175 0
M  V30 3257 H 300.189 -3.58818 3.26156 0
M  V30 3258 N 301.532 -0.945985 -1.26051 0
M  V30 3259 C 302.48 -0.450259 -2.282 0
M  V30 3260 C 303.474 0.47497 -1.62605 0
M  V30 3261 O 304.68 0.352653 -1.76512 0
M  V30 3262 H 301.055 -0.127081 -0.741184 0
M  V30 3263 H 303.026 -1.32422 -2.67408 0
M  V30 3264 C 301.775 0.26467 -3.46691 0
M  V30 3265 H 301.098 -0.438123 -3.97392 0
M  V30 3266 H 302.538 0.575678 -4.20074 0
M  V30 3267 C 300.997 1.48416 -3.02447 0
M  V30 3268 O 301.527 2.58227 -3.07704 0
M  V30 3269 N 299.733 1.34243 -2.57735 0
M  V30 3270 H 299.28 0.448994 -2.53657 0
M  V30 3271 H 299.238 2.15957 -2.28495 0
M  V30 3272 N 303.011 1.40521 -0.713556 0
M  V30 3273 C 304.26 2.00155 -0.249192 0
M  V30 3274 C 304.573 1.57224 1.16362 0
M  V30 3275 O 305.779 2.09542 1.72639 0
M  V30 3276 C 304.235 3.5773 -0.3946 0
M  V30 3277 C 303.843 4.09635 -1.81392 0
M  V30 3278 C 305.587 4.24499 0.00907364 0
M  V30 3279 C 303.494 5.59707 -1.91003 0
M  V30 3280 H 302.424 0.74868 -0.0894114 0
M  V30 3281 H 305.075 1.60784 -0.884352 0
M  V30 3282 H 303.457 3.94792 0.30911 0
M  V30 3283 H 304.631 3.83955 -2.54785 0
M  V30 3284 H 302.946 3.55456 -2.16888 0
M  V30 3285 H 305.543 5.34683 -0.0420404 0
M  V30 3286 H 305.886 4.02824 1.05065 0
M  V30 3287 H 306.419 3.92536 -0.645007 0
M  V30 3288 H 303.158 5.86234 -2.93275 0
M  V30 3289 H 302.678 5.87258 -1.22019 0
M  V30 3290 H 304.357 6.24776 -1.6812 0
M  V30 3291 N 304.489 0.459591 1.5075 0
M  V30 3292 C 305.9 0.00171547 1.867 0
M  V30 3293 C 306.251 -1.39934 1.37525 0
M  V30 3294 O 305.376 -2.03523 0.735349 0
M  V30 3295 C 305.971 -0.00366298 3.388 0
M  V30 3296 C 304.53 -0.406026 3.74204 0
M  V30 3297 C 303.677 0.38673 2.7459 0
M  V30 3298 H 306.628 0.674413 1.43657 0
M  V30 3299 H 306.649 -0.808371 3.71814 0
M  V30 3300 H 306.161 1.01617 3.74561 0
M  V30 3301 H 304.262 -1.43063 3.4404 0
M  V30 3302 H 304.375 -0.115362 4.78961 0
M  V30 3303 H 302.739 -0.158019 2.54209 0
M  V30 3304 H 303.522 1.40585 3.13194 0
M  V30 3305 N 305.967 -1.56429 0.191757 0
M  V30 3306 C 306.915 -2.20273 -0.747174 0
M  V30 3307 C 307.909 -1.17288 -1.22229 0
M  V30 3308 O 309.115 -1.35441 -1.18557 0
M  V30 3309 H 305.49 -0.705885 -0.259289 0
M  V30 3310 H 307.461 -2.97826 -0.184963 0
M  V30 3311 C 306.21 -2.87356 -1.95759 0
M  V30 3312 H 305.533 -3.66341 -1.60106 0
M  V30 3313 H 306.973 -3.3547 -2.59299 0
M  V30 3314 C 305.432 -1.88213 -2.79423 0
M  V30 3315 O 305.962 -1.38033 -3.7724 0
M  V30 3316 N 304.168 -1.56516 -2.44849 0
M  V30 3317 H 303.715 -1.97516 -1.65364 0
M  V30 3318 H 303.673 -0.904369 -3.01112 0
M  V30 3319 N 307.445 0.0818655 -1.57387 0
M  V30 3320 C 308.693 0.781368 -1.86384 0
M  V30 3321 C 309.014 1.78618 -0.782342 0
M  V30 3322 O 308.284 1.94976 0.190061 0
M  V30 3323 H 306.864 0.291562 -0.687751 0
M  V30 3324 H 309.526 0.060348 -1.94807 0
M  V30 3325 H 308.622 1.3038 -2.83562 0
M  V30 3326 N 308.923 1.53595 0.353017 0
M  V30 3327 C 310.169 1.70638 1.09593 0
M  V30 3328 C 310.502 0.463286 1.88593 0
M  V30 3329 O 309.777 -0.539597 1.86865 0
M  V30 3330 C 310.06 2.96406 2.04489 0
M  V30 3331 C 309.913 4.30901 1.29014 0
M  V30 3332 C 311.232 3.17812 3.0444 0
M  V30 3333 H 308.351 0.620913 0.397034 0
M  V30 3334 H 310.993 1.86254 0.375446 0
M  V30 3335 H 309.143 2.83223 2.65927 0
M  V30 3336 H 310.815 4.55917 0.702638 0
M  V30 3337 H 309.058 4.29741 0.592071 0
M  V30 3338 H 309.729 5.1506 1.98537 0
M  V30 3339 H 312.205 3.30263 2.53112 0
M  V30 3340 H 311.081 4.07223 3.6805 0
M  V30 3341 H 311.342 2.33669 3.75301 0
M  V30 3342 N 310.401 -0.613514 1.45168 0
M  V30 3343 C 311.812 -1.19539 1.43413 0
M  V30 3344 C 312.163 -1.95558 0.158632 0
M  V30 3345 O 311.288 -2.0335 -0.740119 0
M  V30 3346 C 311.883 -2.17445 2.59813 0
M  V30 3347 C 310.442 -2.71022 2.61197 0
M  V30 3348 C 309.589 -1.46323 2.35552 0
M  V30 3349 H 312.54 -0.403163 1.53494 0
M  V30 3350 H 312.561 -3.00373 2.33574 0
M  V30 3351 H 312.073 -1.62089 3.52631 0
M  V30 3352 H 310.174 -3.30332 1.7237 0
M  V30 3353 H 310.287 -3.15859 3.60236 0
M  V30 3354 H 308.651 -1.75072 1.84992 0
M  V30 3355 H 309.434 -0.92844 3.30507 0
M  V30 3356 N 311.879 -1.3236 -0.855495 0
M  V30 3357 C 312.809 -1.23833 -1.97958 0
M  V30 3358 C 313.79 -0.122361 -1.69659 0
M  V30 3359 O 314.975 -0.30939 -1.9172 0
M  V30 3360 C 312.105 -0.959772 -3.33775 0
M  V30 3361 C 311.059 -2.03689 -3.76424 0
M  V30 3362 C 310.385 -1.61075 -5.09862 0
M  V30 3363 C 311.685 -3.4518 -3.9198 0
M  V30 3364 H 313.379 -2.1788 -2.0535 0
M  V30 3365 H 310.925 -1.04891 -0.986605 0
M  V30 3366 H 312.878 -0.886678 -4.11966 0
M  V30 3367 H 311.602 0.0163404 -3.26596 0
M  V30 3368 H 310.261 -2.10012 -3.00484 0
M  V30 3369 H 309.909 -0.622107 -4.99138 0
M  V30 3370 H 309.609 -2.33143 -5.39368 0
M  V30 3371 H 311.133 -1.55201 -5.90546 0
M  V30 3372 H 312.547 -3.4145 -4.60526 0
M  V30 3373 H 310.944 -4.1559 -4.32903 0
M  V30 3374 H 312.014 -3.84903 -2.94919 0
M  V30 3375 N 313.357 1.07166 -1.15556 0
M  V30 3376 C 314.603 1.80065 -0.932984 0
M  V30 3377 C 314.936 1.86586 0.53845 0
M  V30 3378 O 314.211 1.35098 1.39924 0
M  V30 3379 C 314.494 3.25022 -1.55025 0
M  V30 3380 C 314.347 3.26634 -3.09242 0
M  V30 3381 C 315.666 4.22341 -1.2376 0
M  V30 3382 H 312.785 0.653697 -0.340366 0
M  V30 3383 H 315.427 1.25389 -1.4275 0
M  V30 3384 H 313.577 3.71712 -1.12972 0
M  V30 3385 H 315.249 2.88173 -3.60214 0
M  V30 3386 H 313.492 2.65539 -3.43033 0
M  V30 3387 H 314.163 4.28854 -3.47546 0
M  V30 3388 H 316.639 3.8405 -1.60139 0
M  V30 3389 H 315.515 5.22053 -1.69564 0
M  V30 3390 H 315.776 4.41828 -0.154938 0
M  V30 3391 N 314.835 0.952656 1.25548 0
M  V30 3392 C 316.065 0.622592 1.96996 0
M  V30 3393 C 316.473 -0.809112 1.71026 0
M  V30 3394 O 315.816 -1.55258 0.981861 0
M  V30 3395 C 315.878 0.798946 3.5051 0
M  V30 3396 C 315.542 2.20744 4.00151 0
M  V30 3397 C 316.539 3.18394 4.11001 0
M  V30 3398 C 314.224 2.5311 4.33867 0
M  V30 3399 C 316.218 4.46504 4.54877 0
M  V30 3400 C 313.905 3.8145 4.7743 0
M  V30 3401 C 314.903 4.77959 4.87897 0
M  V30 3402 O 314.591 6.04012 5.30494 0
M  V30 3403 H 314.323 0.232503 0.634758 0
M  V30 3404 H 316.877 1.2789 1.60728 0
M  V30 3405 H 315.107 0.0854903 3.86605 0
M  V30 3406 H 316.796 0.47023 4.03167 0
M  V30 3407 H 317.562 2.94715 3.85186 0
M  V30 3408 H 313.441 1.78719 4.24948 0
M  V30 3409 H 316.985 5.21835 4.62962 0
M  V30 3410 H 312.882 4.04936 5.0269 0
M  V30 3411 H 313.65 6.0736 5.48685 0
M  V30 3412 N 316.313 -1.40141 0.720998 0
M  V30 3413 C 317.223 -2.34486 0.0731031 0
M  V30 3414 C 318.239 -1.57587 -0.737723 0
M  V30 3415 O 319.415 -1.89949 -0.669429 0
M  V30 3416 C 316.48 -3.36528 -0.833656 0
M  V30 3417 C 315.541 -4.29298 -0.0121673 0
M  V30 3418 C 314.774 -5.26466 -0.875742 0
M  V30 3419 O 314.997 -5.29745 -2.11485 0
M  V30 3420 O 313.931 -6.01092 -0.31185 0
M  V30 3421 H 317.757 -2.9152 0.851444 0
M  V30 3422 H 315.342 -1.41427 0.481527 0
M  V30 3423 H 317.224 -3.99093 -1.35289 0
M  V30 3424 H 315.899 -2.81899 -1.59105 0
M  V30 3425 H 314.806 -3.70001 0.552262 0
M  V30 3426 H 316.139 -4.87094 0.707129 0
M  V30 3427 N 317.792 -0.46758 -1.50504 0
M  V30 3428 C 318.722 0.318381 -2.31319 0
M  V30 3429 C 319.703 0.993564 -1.38066 0
M  V30 3430 O 320.888 0.991411 -1.66987 0
M  V30 3431 C 318.018 1.40275 -3.17711 0
M  V30 3432 C 316.972 0.849373 -4.19487 0
M  V30 3433 C 316.298 2.03177 -4.94594 0
M  V30 3434 C 317.598 -0.136942 -5.2212 0
M  V30 3435 H 319.292 -0.356106 -2.97275 0
M  V30 3436 H 316.838 -0.172703 -1.42961 0
M  V30 3437 H 318.791 1.96004 -3.73042 0
M  V30 3438 H 317.515 2.10596 -2.49634 0
M  V30 3439 H 316.174 0.314076 -3.65252 0
M  V30 3440 H 315.822 2.72187 -4.22993 0
M  V30 3441 H 315.522 1.66774 -5.63436 0
M  V30 3442 H 317.046 2.59403 -5.52759 0
M  V30 3443 H 318.46 0.331056 -5.72343 0
M  V30 3444 H 316.857 -0.41507 -5.98663 0
M  V30 3445 H 317.927 -1.06398 -4.73083 0
M  V30 3446 N 319.27 1.56325 -0.20005 0
M  V30 3447 C 320.547 1.89484 0.48529 0
M  V30 3448 C 320.927 1.1143 1.79294 0
M  V30 3449 O 320.275 0.216919 2.27468 0
M  V30 3450 C 320.485 3.41923 0.699243 0
M  V30 3451 C 321.833 4.12256 1.01638 0
M  V30 3452 O 322.857 3.47402 0.786792 0
M  V30 3453 O 321.716 5.26887 1.45095 0
M  V30 3454 H 318.81 0.787144 0.253639 0
M  V30 3455 H 321.356 1.67985 -0.240633 0
M  V30 3456 H 320.128 3.90658 -0.224008 0
M  V30 3457 H 319.751 3.69131 1.47744 0
M  V30 3458 N 320.748 -0.0735177 1.57428 0
M  V30 3459 C 321.658 -1.10547 2.06922 0
M  V30 3460 C 322.674 -1.42506 0.998402 0
M  V30 3461 O 323.85 -1.52717 1.31299 0
M  V30 3462 C 320.915 -2.40019 2.50184 0
M  V30 3463 C 319.976 -2.15046 3.71556 0
M  V30 3464 C 319.209 -3.38345 4.12745 0
M  V30 3465 O 319.432 -4.47399 3.53822 0
M  V30 3466 O 318.366 -3.2666 5.05546 0
M  V30 3467 H 322.192 -0.715013 2.95163 0
M  V30 3468 H 319.777 -0.287531 1.46607 0
M  V30 3469 H 321.659 -3.16218 2.78539 0
M  V30 3470 H 320.334 -2.78447 1.65072 0
M  V30 3471 H 319.241 -1.36558 3.48285 0
M  V30 3472 H 320.574 -1.81499 4.57514 0
M  V30 3473 N 322.226 -1.5378 -0.344866 0
M  V30 3474 C 323.451 -1.75211 -1.10977 0
M  V30 3475 C 323.876 -0.48936 -1.81623 0
M  V30 3476 O 323.234 0.557925 -1.72502 0
M  V30 3477 C 323.282 -2.93147 -2.09993 0
M  V30 3478 O 322.386 -2.63203 -3.17487 0
M  V30 3479 H 321.727 -0.581241 -0.321021 0
M  V30 3480 H 324.257 -2.00738 -0.395661 0
M  V30 3481 H 324.267 -3.19898 -2.53237 0
M  V30 3482 H 322.942 -3.84731 -1.5797 0
M  V30 3483 H 321.519 -2.47336 -2.79069 0
M  V30 3484 N 323.704 0.605807 -1.45491 0
M  V30 3485 C 324.634 1.72709 -1.57143 0
M  V30 3486 C 325.615 1.6476 -0.422884 0
M  V30 3487 O 326.8 1.83132 -0.646247 0
M  V30 3488 C 323.93 3.11316 -1.53948 0
M  V30 3489 C 322.884 3.34077 -2.67537 0
M  V30 3490 C 322.21 4.72975 -2.49397 0
M  V30 3491 C 323.51 3.24158 -4.09535 0
M  V30 3492 H 325.204 1.63214 -2.51001 0
M  V30 3493 H 322.75 0.78379 -1.208 0
M  V30 3494 H 324.703 3.89557 -1.60696 0
M  V30 3495 H 323.427 3.21655 -0.566205 0
M  V30 3496 H 322.086 2.58227 -2.6022 0
M  V30 3497 H 321.734 4.8005 -1.50205 0
M  V30 3498 H 321.434 4.8916 -3.25571 0
M  V30 3499 H 322.958 5.53414 -2.58002 0
M  V30 3500 H 324.372 3.92271 -4.18086 0
M  V30 3501 H 322.769 3.51872 -4.86113 0
M  V30 3502 H 323.839 2.2157 -4.31317 0
M  V30 3503 N 325.182 1.32811 0.848464 0
M  V30 3504 C 326.41 1.26739 1.63538 0
M  V30 3505 C 326.825 -0.163484 1.88091 0
M  V30 3506 O 326.182 -1.10258 1.45429 0
M  V30 3507 C 326.233 2.03013 2.99112 0
M  V30 3508 O 325.954 3.40518 2.75643 0
M  V30 3509 C 327.455 2.04038 3.93552 0
M  V30 3510 H 324.675 0.437024 0.509167 0
M  V30 3511 H 327.219 1.75033 1.05753 0
M  V30 3512 H 325.374 1.58426 3.53525 0
M  V30 3513 H 325.788 3.79635 3.61908 0
M  V30 3514 H 327.262 2.61877 4.85926 0
M  V30 3515 H 327.739 1.0282 4.26995 0
M  V30 3516 H 328.345 2.486 3.45077 0
M  V30 3517 N 326.66 -1.06551 1.16123 0
M  V30 3518 C 328.071 -1.60768 0.949232 0
M  V30 3519 C 328.422 -1.89523 -0.507508 0
M  V30 3520 O 327.547 -1.66671 -1.38021 0
M  V30 3521 C 328.142 -2.92086 1.71671 0
M  V30 3522 C 326.701 -3.43015 1.54977 0
M  V30 3523 C 325.848 -2.16947 1.72711 0
M  V30 3524 H 328.799 -0.895354 1.31031 0
M  V30 3525 H 328.82 -3.6138 1.19099 0
M  V30 3526 H 328.332 -2.71127 2.7769 0
M  V30 3527 H 326.433 -3.69039 0.513873 0
M  V30 3528 H 326.546 -4.18516 2.33198 0
M  V30 3529 H 324.91 -2.27041 1.15431 0
M  V30 3530 H 325.693 -1.98473 2.80113 0
M  V30 3531 N 328.138 -0.959301 -1.25041 0
M  V30 3532 C 329.387 -0.612254 -1.92183 0
M  V30 3533 C 329.7 0.855347 -1.75907 0
M  V30 3534 O 330.906 1.31256 -2.37664 0
M  V30 3535 C 329.362 -1.04435 -3.44414 0
M  V30 3536 C 328.97 -2.53482 -3.69393 0
M  V30 3537 C 330.714 -0.770055 -4.17457 0
M  V30 3538 C 328.621 -2.90468 -5.15153 0
M  V30 3539 H 327.551 -0.225279 -0.719559 0
M  V30 3540 H 330.202 -1.16438 -1.41825 0
M  V30 3541 H 328.584 -0.4206 -3.9376 0
M  V30 3542 H 329.758 -3.20916 -3.30681 0
M  V30 3543 H 328.073 -2.78432 -3.0962 0
M  V30 3544 H 330.67 -1.02249 -5.24832 0
M  V30 3545 H 331.013 0.293611 -4.15263 0
M  V30 3546 H 331.546 -1.35437 -3.74034 0
M  V30 3547 H 328.285 -3.95871 -5.22462 0
M  V30 3548 H 327.805 -2.27711 -5.54894 0
M  V30 3549 H 329.484 -2.79914 -5.83315 0
M  V30 3550 N 329.616 1.39756 -0.72842 0
M  V30 3551 C 331.032 1.5442 -0.403308 0
M  V30 3552 C 331.232 1.69694 1.08656 0
M  V30 3553 O 330.288 1.69373 1.87267 0
M  V30 3554 C 331.601 2.76555 -1.18058 0
M  V30 3555 C 333.149 2.90384 -1.16815 0
M  V30 3556 C 333.624 4.15449 -1.92785 0
M  V30 3557 N 335.115 4.22475 -1.89918 0
M  V30 3558 C 335.85 5.1818 -2.45514 0
M  V30 3559 N 335.346 6.19714 -3.09719 0
M  V30 3560 N 337.139 5.1035 -2.35584 0
M  V30 3561 H 329.29 1.28089 -1.69431 0
M  V30 3562 H 331.553 0.620327 -0.716867 0
M  V30 3563 H 331.259 2.7159 -2.23455 0
M  V30 3564 H 331.133 3.69033 -0.780662 0
M  V30 3565 H 333.52 2.94846 -0.12234 0
M  V30 3566 H 333.601 1.98988 -1.6074 0
M  V30 3567 H 333.245 4.11749 -2.97364 0
M  V30 3568 H 333.175 5.05877 -1.46272 0
M  V30 3569 H 335.666 3.49743 -1.43138 0
M  V30 3570 H 335.979 6.8919 -3.49625 0
M  V30 3571 H 334.324 6.20121 -3.13807 0
M  V30 3572 H 337.515 4.2996 -1.85072 0
M  V30 3573 H 337.688 5.84761 -2.79211 0
M  V30 3574 N 331.094 0.475555 1.50254 0
M  V30 3575 C 332.044 -0.335025 2.25525 0
M  V30 3576 C 333.028 -0.957625 1.29299 0
M  V30 3577 O 334.22 -0.869436 1.54175 0
M  V30 3578 C 331.349 -1.41385 3.12834 0
M  V30 3579 C 330.435 -0.798762 4.1651 0
M  V30 3580 N 330.826 0.0835815 5.05731 0
M  V30 3581 C 329.124 -1.06221 4.33166 0
M  V30 3582 C 329.825 0.433113 5.80085 0
M  V30 3583 N 328.801 -0.1928 5.43258 0
M  V30 3584 H 332.603 0.344612 2.91873 0
M  V30 3585 H 330.117 0.289986 1.5979 0
M  V30 3586 H 332.114 -2.00777 3.65368 0
M  V30 3587 H 330.774 -2.09543 2.48036 0
M  V30 3588 H 331.785 0.452715 5.15918 0
M  V30 3589 H 328.462 -1.73844 3.79585 0
M  V30 3590 H 329.852 1.15346 6.61925 0
M  V30 3591 N 332.573 -1.56217 0.208337 0
M  V30 3592 C 333.803 -2.02043 -0.431523 0
M  V30 3593 C 334.211 -1.08755 -1.54819 0
M  V30 3594 O 333.554 -0.0870009 -1.83494 0
M  V30 3595 C 333.616 -3.44239 -1.03633 0
M  V30 3596 C 333.28 -4.56965 -0.0567502 0
M  V30 3597 C 334.277 -5.14624 0.738773 0
M  V30 3598 C 331.962 -5.02266 0.0581736 0
M  V30 3599 C 333.956 -6.16045 1.63605 0
M  V30 3600 C 331.643 -6.03528 0.959001 0
M  V30 3601 C 332.641 -6.60293 1.7465 0
M  V30 3602 O 332.329 -7.59586 2.6322 0
M  V30 3603 H 332.061 -0.666772 -0.111313 0
M  V30 3604 H 334.615 -2.02919 0.318277 0
M  V30 3605 H 332.845 -3.40391 -1.83497 0
M  V30 3606 H 334.534 -3.73793 -1.58221 0
M  V30 3607 H 335.3 -4.80483 0.660364 0
M  V30 3608 H 331.179 -4.57771 -0.544633 0
M  V30 3609 H 334.723 -6.60279 2.25116 0
M  V30 3610 H 330.62 -6.37092 1.03848 0
M  V30 3611 H 331.388 -7.77057 2.57148 0
M  V30 3612 N 334.051 0.0651679 -1.57465 0
M  V30 3613 C 335.281 0.774683 -1.91526 0
M  V30 3614 C 335.689 1.71305 -0.803196 0
M  V30 3615 O 335.032 1.82231 0.231881 0
M  V30 3616 C 335.094 1.61645 -3.21109 0
M  V30 3617 C 334.758 0.846753 -4.49087 0
M  V30 3618 C 335.755 0.163024 -5.19644 0
M  V30 3619 C 333.44 0.811966 -4.95694 0
M  V30 3620 C 335.434 -0.54519 -6.35064 0
M  V30 3621 C 333.121 0.0999836 -6.11018 0
M  V30 3622 C 334.119 -0.577388 -6.80555 0
M  V30 3623 O 333.807 -1.27789 -7.93678 0
M  V30 3624 H 333.539 0.225031 -0.637446 0
M  V30 3625 H 336.093 0.0377134 -2.05365 0
M  V30 3626 H 334.323 2.39638 -3.03497 0
M  V30 3627 H 336.012 2.20525 -3.40769 0
M  V30 3628 H 336.778 0.181163 -4.84662 0
M  V30 3629 H 332.657 1.32867 -4.41438 0
M  V30 3630 H 336.201 -1.07446 -6.89276 0
M  V30 3631 H 332.098 0.0797945 -6.45451 0
M  V30 3632 H 332.866 -1.18784 -8.09835 0
M  V30 3633 N 335.529 1.53961 0.336706 0
M  V30 3634 C 336.459 1.85417 1.41925 0
M  V30 3635 C 337.44 0.709856 1.5458 0
M  V30 3636 O 338.625 0.962396 1.68676 0
M  V30 3637 C 335.755 2.06985 2.78881 0
M  V30 3638 C 334.709 3.22813 2.81026 0
M  V30 3639 C 334.035 3.29727 4.20932 0
M  V30 3640 C 335.335 4.60767 2.45949 0
M  V30 3641 H 337.029 2.76079 1.15848 0
M  V30 3642 H 334.575 1.32839 0.555859 0
M  V30 3643 H 336.528 2.27575 3.54665 0
M  V30 3644 H 335.252 1.13061 3.06406 0
M  V30 3645 H 333.911 3.0209 2.07695 0
M  V30 3646 H 333.559 2.33385 4.45579 0
M  V30 3647 H 333.259 4.07566 4.23277 0
M  V30 3648 H 334.783 3.52536 4.98549 0
M  V30 3649 H 336.197 4.81325 3.11446 0
M  V30 3650 H 334.594 5.4106 2.59566 0
M  V30 3651 H 335.664 4.6391 1.41122 0
M  V30 3652 N 337.007 -0.598083 1.45811 0
M  V30 3653 C 338.255 -1.35413 1.50026 0
M  V30 3654 C 338.576 -1.94444 0.147177 0
M  V30 3655 O 337.846 -1.77701 -0.824571 0
M  V30 3656 H 336.426 -0.502727 0.552517 0
M  V30 3657 H 339.088 -0.701606 1.81834 0
M  V30 3658 H 338.184 -2.16871 2.2444 0
M  V30 3659 N 338.485 -1.33259 -0.841409 0
M  V30 3660 C 339.762 -1.15174 -1.58096 0
M  V30 3661 C 340.142 0.282858 -2.09196 0
M  V30 3662 O 339.49 1.28151 -1.89181 0
M  V30 3663 C 339.7 -2.1907 -2.71679 0
M  V30 3664 C 341.048 -2.53093 -3.40924 0
M  V30 3665 O 342.072 -2.17717 -2.81918 0
M  V30 3666 O 340.931 -3.1379 -4.47435 0
M  V30 3667 H 338.025 -0.445303 -0.696875 0
M  V30 3668 H 340.571 -1.44833 -0.884385 0
M  V30 3669 H 339.343 -3.15443 -2.31541 0
M  V30 3670 H 338.966 -1.90481 -3.49002 0
M  V30 3671 N 339.963 1.05934 -1.16686 0
M  V30 3672 C 340.895 2.13468 -0.834503 0
M  V30 3673 C 341.908 1.62013 0.15984 0
M  V30 3674 O 343.097 1.7838 -0.0654228 0
M  V30 3675 C 340.197 3.3817 -0.222361 0
M  V30 3676 C 339.37 4.18928 -1.25771 0
M  V30 3677 C 338.429 5.21985 -0.664703 0
M  V30 3678 O 337.455 5.53334 -1.33453 0
M  V30 3679 N 338.657 5.77919 0.546834 0
M  V30 3680 H 341.422 2.42578 -1.75999 0
M  V30 3681 H 338.983 1.21967 -1.06469 0
M  V30 3682 H 340.975 4.04266 0.187472 0
M  V30 3683 H 339.545 3.06655 0.606758 0
M  V30 3684 H 338.765 3.48433 -1.84358 0
M  V30 3685 H 340.053 4.69687 -1.95631 0
M  V30 3686 H 339.451 5.54721 1.10912 0
M  V30 3687 H 338.008 6.45573 0.898829 0
M  V30 3688 N 341.441 0.965919 1.2453 0
M  V30 3689 C 342.351 0.502154 2.29163 0
M  V30 3690 C 343.367 -0.436017 1.68448 0
M  V30 3691 O 344.543 -0.309497 1.99008 0
M  V30 3692 C 341.608 -0.201956 3.46111 0
M  V30 3693 C 340.669 0.775821 4.22232 0
M  V30 3694 C 339.902 0.105217 5.33596 0
M  V30 3695 O 340.125 -1.10683 5.59558 0
M  V30 3696 O 339.059 0.796475 5.96607 0
M  V30 3697 H 342.885 1.37194 2.70946 0
M  V30 3698 H 340.47 0.732875 1.30189 0
M  V30 3699 H 342.352 -0.597564 4.17142 0
M  V30 3700 H 341.027 -1.04673 3.06309 0
M  V30 3701 H 339.934 1.22185 3.53584 0
M  V30 3702 H 341.267 1.58896 4.65846 0
M  V30 3703 N 342.919 -1.39368 0.735821 0
M  V30 3704 C 343.882 -2.2896 0.104874 0
M  V30 3705 C 344.882 -1.46347 -0.666274 0
M  V30 3706 O 346.072 -1.67014 -0.49517 0
M  V30 3707 C 343.204 -3.29857 -0.860656 0
M  V30 3708 H 344.397 -2.86259 0.894205 0
M  V30 3709 H 341.95 -1.48029 0.501704 0
M  V30 3710 H 342.685 -2.77615 -1.67631 0
M  V30 3711 H 342.47 -3.9087 -0.310327 0
M  V30 3712 H 343.96 -3.96893 -1.29867 0
M  V30 3713 N 344.397 -0.483516 -1.5 0
M  V30 3714 C 345.646 0.0689102 -2.01582 0
M  V30 3715 C 345.959 1.39655 -1.36952 0
M  V30 3716 O 347.165 2.03465 -1.79762 0
M  V30 3717 C 345.621 0.173302 -3.59483 0
M  V30 3718 C 345.229 -1.14665 -4.33077 0
M  V30 3719 C 346.973 0.677024 -4.19066 0
M  V30 3720 C 344.88 -1.00537 -5.82792 0
M  V30 3721 H 343.81 0.0295277 -0.753422 0
M  V30 3722 H 346.461 -0.620295 -1.72698 0
M  V30 3723 H 344.843 0.926569 -3.85007 0
M  V30 3724 H 346.017 -1.91184 -4.19268 0
M  V30 3725 H 344.332 -1.58244 -3.85159 0
M  V30 3726 H 346.929 0.799952 -5.28682 0
M  V30 3727 H 347.272 1.67151 -3.81269 0
M  V30 3728 H 347.805 -0.0192083 -3.97795 0
M  V30 3729 H 344.544 -1.9736 -6.25083 0
M  V30 3730 H 344.064 -0.280776 -5.99142 0
M  V30 3731 H 345.743 -0.677 -6.43448 0
M  V30 3732 N 345.875 1.56104 -0.216619 0
M  V30 3733 C 346.838 2.18819 0.681962 0
M  V30 3734 C 347.838 1.14866 1.12528 0
M  V30 3735 O 349.028 1.40128 1.03488 0
M  V30 3736 C 346.16 2.80756 1.93362 0
M  V30 3737 H 347.353 2.99595 0.135254 0
M  V30 3738 H 344.906 1.56265 0.0330003 0
M  V30 3739 H 345.641 2.03837 2.52232 0
M  V30 3740 H 345.426 3.56876 1.62426 0
M  V30 3741 H 346.916 3.28844 2.57393 0
M  V30 3742 N 347.353 -0.0568162 1.57498 0
M  V30 3743 C 348.3 -1.06591 2.04712 0
M  V30 3744 C 349.27 -1.3758 0.930644 0
M  V30 3745 O 350.455 -1.48392 1.19935 0
M  V30 3746 C 347.595 -2.3701 2.50839 0
M  V30 3747 C 346.708 -2.12421 3.76167 0
M  V30 3748 C 345.843 -3.36511 4.11015 0
M  V30 3749 C 344.882 -3.07353 5.2934 0
M  V30 3750 N 344.019 -4.23816 5.59754 0
M  V30 3751 H 348.859 -0.65631 2.90683 0
M  V30 3752 H 346.396 -0.312481 1.43743 0
M  V30 3753 H 348.354 -3.13175 2.7564 0
M  V30 3754 H 346.984 -2.75744 1.67825 0
M  V30 3755 H 346.036 -1.2688 3.58616 0
M  V30 3756 H 347.348 -1.86894 4.62463 0
M  V30 3757 H 346.502 -4.21062 4.36797 0
M  V30 3758 H 345.241 -3.65128 3.23315 0
M  V30 3759 H 344.246 -2.212 5.03339 0
M  V30 3760 H 345.471 -2.80043 6.1867 0
M  V30 3761 H 343.417 -4.52436 4.75014 0
M  V30 3762 H 343.334 -4.01614 6.40501 0
M  V30 3763 H 344.602 -5.0932 5.90096 0
M  V30 3764 N 348.832 -1.54138 -0.328536 0
M  V30 3765 C 349.795 -1.82462 -1.38709 0
M  V30 3766 C 350.795 -0.696229 -1.44946 0
M  V30 3767 O 351.985 -0.964535 -1.4506 0
M  V30 3768 C 349.117 -1.98018 -2.77492 0
M  V30 3769 H 350.31 -2.77037 -1.14851 0
M  V30 3770 H 347.863 -1.45779 -0.563751 0
M  V30 3771 H 348.598 -1.05637 -3.06613 0
M  V30 3772 H 348.383 -2.80124 -2.74359 0
M  V30 3773 H 349.873 -2.21396 -3.54081 0
M  V30 3774 N 350.31 0.590341 -1.46126 0
M  V30 3775 C 351.242 1.71427 -1.52136 0
M  V30 3776 C 352.255 1.57542 -0.41042 0
M  V30 3777 O 353.444 1.65106 -0.678389 0
M  V30 3778 C 350.544 3.09605 -1.37834 0
M  V30 3779 C 349.717 3.49566 -2.62912 0
M  V30 3780 C 348.776 4.66773 -2.42918 0
M  V30 3781 O 347.802 4.73019 -3.1661 0
M  V30 3782 N 349.004 5.61161 -1.4859 0
M  V30 3783 H 351.769 1.66728 -2.49042 0
M  V30 3784 H 349.33 0.776113 -1.42085 0
M  V30 3785 H 351.322 3.85796 -1.22243 0
M  V30 3786 H 349.892 3.08714 -0.491393 0
M  V30 3787 H 349.112 2.63158 -2.93499 0
M  V30 3788 H 350.4 3.73028 -3.46017 0
M  V30 3789 H 349.798 5.58844 -0.87808 0
M  V30 3790 H 348.355 6.36814 -1.38965 0
M  V30 3791 N 351.788 1.33704 0.83433 0
M  V30 3792 C 352.751 1.24244 1.92603 0
M  V30 3793 C 353.751 0.160383 1.59998 0
M  V30 3794 O 354.941 0.412228 1.69252 0
M  V30 3795 C 352.073 0.91555 3.28376 0
M  V30 3796 H 353.266 2.21287 2.02416 0
M  V30 3797 H 350.819 1.17827 1.02696 0
M  V30 3798 H 351.554 -0.0521886 3.24258 0
M  V30 3799 H 351.339 1.69811 3.53422 0
M  V30 3800 H 352.829 0.874231 4.08347 0
M  V30 3801 N 353.266 -1.05314 1.17247 0
M  V30 3802 C 354.229 -2.112 0.890357 0
M  V30 3803 C 355.229 -1.60359 -0.118943 0
M  V30 3804 O 356.419 -1.73833 0.113086 0
M  V30 3805 C 353.551 -3.39266 0.333422 0
M  V30 3806 H 354.744 -2.37659 1.82916 0
M  V30 3807 H 352.297 -1.21538 0.982758 0
M  V30 3808 H 353.032 -3.18462 -0.612587 0
M  V30 3809 H 352.817 -3.77477 1.06082 0
M  V30 3810 H 354.307 -4.17315 0.154322 0
M  V30 3811 N 354.744 -0.972509 -1.24016 0
M  V30 3812 C 355.99 -0.637978 -1.92504 0
M  V30 3813 C 356.323 0.825383 -1.75787 0
M  V30 3814 O 355.598 1.59442 -1.11393 0
M  V30 3815 C 355.881 -1.01942 -3.45369 0
M  V30 3816 C 355.734 -2.53983 -3.71231 0
M  V30 3817 C 357.053 -0.55751 -4.36555 0
M  V30 3818 H 354.172 -0.233248 -0.699117 0
M  V30 3819 H 356.814 -1.21238 -1.46292 0
M  V30 3820 H 354.964 -0.530656 -3.84859 0
M  V30 3821 H 356.636 -3.10374 -3.41271 0
M  V30 3822 H 354.879 -2.96968 -3.16216 0
M  V30 3823 H 355.55 -2.75723 -4.78206 0
M  V30 3824 H 358.026 -0.977029 -4.04467 0
M  V30 3825 H 356.902 -0.85292 -5.42233 0
M  V30 3826 H 357.163 0.542328 -4.38761 0
M  V30 3827 N 356.222 1.38976 -0.743202 0
M  V30 3828 C 357.185 2.28901 -0.117014 0
M  V30 3829 C 358.185 1.46698 0.658503 0
M  V30 3830 O 359.375 1.67274 0.486305 0
M  V30 3831 C 356.507 3.30309 0.84315 0
M  V30 3832 H 357.7 2.8578 -0.909373 0
M  V30 3833 H 355.253 1.47761 -0.509547 0
M  V30 3834 H 355.988 2.785 1.66157 0
M  V30 3835 H 355.773 3.91029 0.289594 0
M  V30 3836 H 357.263 3.97577 1.2776 0
M  V30 3837 N 357.7 0.491464 1.49741 0
M  V30 3838 C 358.632 -0.328609 2.26832 0
M  V30 3839 C 359.645 -0.939113 1.32983 0
M  V30 3840 O 360.834 -0.824067 1.58339 0
M  V30 3841 C 357.934 -1.47675 3.05033 0
M  V30 3842 C 357.107 -0.975305 4.26388 0
M  V30 3843 C 356.166 -1.99991 4.86714 0
M  V30 3844 O 355.192 -1.57229 5.47054 0
M  V30 3845 N 356.394 -3.32962 4.75517 0
M  V30 3846 H 359.159 0.332377 2.97851 0
M  V30 3847 H 356.72 0.323441 1.58636 0
M  V30 3848 H 358.712 -2.15954 3.42266 0
M  V30 3849 H 357.282 -2.04206 2.36683 0
M  V30 3850 H 356.502 -0.117723 3.94024 0
M  V30 3851 H 357.79 -0.618531 5.05026 0
M  V30 3852 H 357.188 -3.70399 4.27576 0
M  V30 3853 H 355.745 -3.96982 5.16961 0
M  V30 3854 N 359.178 -1.55987 0.224894 0
M  V30 3855 C 360.11 -2.17722 -0.716224 0
M  V30 3856 C 361.123 -1.14723 -1.15509 0
M  V30 3857 O 362.312 -1.41688 -1.08567 0
M  V30 3858 C 359.412 -2.74873 -1.98238 0
M  V30 3859 C 358.585 -4.03074 -1.69853 0
M  V30 3860 C 357.644 -4.44757 -2.81208 0
M  V30 3861 O 356.67 -5.11587 -2.49534 0
M  V30 3862 N 357.872 -4.10716 -4.10235 0
M  V30 3863 H 360.637 -2.99109 -0.188123 0
M  V30 3864 H 358.198 -1.6184 0.0440123 0
M  V30 3865 H 360.19 -2.99727 -2.7193 0
M  V30 3866 H 358.76 -1.9777 -2.42086 0
M  V30 3867 H 357.98 -3.86041 -0.797875 0
M  V30 3868 H 359.268 -4.86701 -1.48324 0
M  V30 3869 H 358.666 -3.57019 -4.38809 0
M  V30 3870 H 357.223 -4.40455 -4.80461 0
M  V30 3871 N 360.656 0.0484629 -1.57525 0
M  V30 3872 C 361.904 0.741657 -1.88 0
M  V30 3873 C 362.225 1.76918 -0.820054 0
M  V30 3874 O 361.495 1.95335 0.148661 0
M  V30 3875 H 360.075 0.276908 -0.69378 0
M  V30 3876 H 362.737 0.019013 -1.94891 0
M  V30 3877 H 361.833 1.24336 -2.86264 0
M  V30 3878 N 362.134 1.5431 0.320358 0
M  V30 3879 C 363.081 1.83918 1.39438 0
M  V30 3880 C 364.051 0.686525 1.51248 0
M  V30 3881 O 365.236 0.933269 1.66417 0
M  V30 3882 C 362.376 2.075 2.75749 0
M  V30 3883 C 361.489 3.35177 2.72544 0
M  V30 3884 C 360.624 3.48704 4.00723 0
M  V30 3885 C 359.663 4.70244 3.91838 0
M  V30 3886 N 358.8 4.80679 5.11754 0
M  V30 3887 H 363.64 2.75544 1.13489 0
M  V30 3888 H 361.177 1.36459 0.549309 0
M  V30 3889 H 363.135 2.19166 3.54996 0
M  V30 3890 H 361.765 1.19163 3 0
M  V30 3891 H 360.817 3.32233 1.85271 0
M  V30 3892 H 362.129 4.24534 2.61863 0
M  V30 3893 H 361.283 3.59928 4.88402 0
M  V30 3894 H 360.022 2.57445 4.14214 0
M  V30 3895 H 359.027 4.59072 3.02544 0
M  V30 3896 H 360.252 5.6289 3.7991 0
M  V30 3897 H 358.198 3.92337 5.25745 0
M  V30 3898 H 358.115 5.64007 5.0342 0
M  V30 3899 H 359.383 4.96239 6.01138 0
M  V30 3900 N 363.613 -0.582584 1.46437 0
M  V30 3901 C 364.838 -1.37168 1.55563 0
M  V30 3902 C 365.263 -1.87061 0.19743 0
M  V30 3903 O 364.621 -1.61572 -0.822451 0
M  V30 3904 C 364.669 -2.53511 2.56446 0
M  V30 3905 O 363.773 -3.54953 2.09958 0
M  V30 3906 H 363.114 -0.408494 0.523477 0
M  V30 3907 H 365.644 -0.706646 1.9201 0
M  V30 3908 H 365.654 -3.00426 2.76058 0
M  V30 3909 H 364.329 -2.16549 3.55076 0
M  V30 3910 H 362.906 -3.14516 2.00334 0
M  V30 3911 N 365.091 -1.34144 -0.827227 0
M  V30 3912 C 366.054 -1.25264 -1.91942 0
M  V30 3913 C 367.054 -0.168866 -1.59911 0
M  V30 3914 O 368.244 -0.421198 -1.69031 0
M  V30 3915 C 365.376 -0.932952 -3.27885 0
M  V30 3916 H 366.569 -2.22357 -2.0124 0
M  V30 3917 H 364.122 -1.1837 -1.0207 0
M  V30 3918 H 364.857 0.0349917 -3.24281 0
M  V30 3919 H 364.642 -1.71682 -3.52516 0
M  V30 3920 H 366.132 -0.895874 -4.07877 0
M  V30 3921 N 366.569 1.04691 -1.17803 0
M  V30 3922 C 367.532 2.10724 -0.901545 0
M  V30 3923 C 368.532 1.6042 0.110437 0
M  V30 3924 O 369.722 1.7377 -0.122303 0
M  V30 3925 C 366.854 3.39084 -0.351409 0
M  V30 3926 H 368.047 2.36686 -1.84174 0
M  V30 3927 H 365.6 1.21015 -0.98919 0
M  V30 3928 H 366.335 3.18782 0.59569 0
M  V30 3929 H 366.12 3.76909 -1.08083 0
M  V30 3930 H 367.61 4.17227 -0.176451 0
M  V30 3931 O 368.086 1.10799 1.17498 0
M  V30 3932 H 368.777 0.811108 1.759 0
M  V30 END ATOM
M  V30 BEGIN BOND
M  V30 END BOND
M  V30 END CTAB
M  END
$$$$
