drugbank_target|P20292 Arachidonate 5-lipoxygenase-activating protein (DB04929; DB05225; DB06346)
 OpenBabel12092120103D

  0  0  0     0  0            999 V3000
M  V30 BEGIN CTAB
M  V30 COUNTS 2576 2609 0 0 0
M  V30 BEGIN ATOM
M  V30 1 H -0.908 1.98254 -0.117106 0
M  V30 2 N 0 1.576 0 0
M  V30 3 C 0.933 2.03868 1.02534 0
M  V30 4 C 1.911 0.928543 1.3348 0
M  V30 5 O 3.095 1.19667 1.45644 0
M  V30 6 C 0.222 2.43627 2.35294 0
M  V30 7 C -0.732 3.65373 2.2001 0
M  V30 8 S 0.101 5.13292 1.52614 0
M  V30 9 C 1.257 5.56322 2.86805 0
M  V30 10 H 1.49 2.90518 0.631377 0
M  V30 11 H -0.977 1.52953 0.210867 0
M  V30 12 H 0.981 2.67203 3.11629 0
M  V30 13 H -0.358 1.57376 2.7183 0
M  V30 14 H -1.165 3.90944 3.18086 0
M  V30 15 H -1.563 3.418 1.51819 0
M  V30 16 H 0.729 5.58782 3.83104 0
M  V30 17 H 1.672 6.56266 2.65933 0
M  V30 18 H 2.08 4.83886 2.90714 0
M  V30 19 N 1.4781 -0.272755 1.55222 0
M  V30 20 C 2.7551 -1.02562 1.66555 0
M  V30 21 C 3.1351 -2.04282 0.532189 0
M  V30 22 O 2.4831 -2.23662 -0.467717 0
M  V30 23 C 2.6931 -1.6822 3.05782 0
M  V30 24 C 4.0411 -2.19373 3.63539 0
M  V30 25 O 5.0651 -1.78206 3.08417 0
M  V30 26 O 3.9241 -2.94883 4.60115 0
M  V30 27 H 1.0181 -0.475755 0.676451 0
M  V30 28 H 3.5641 -0.268593 1.67561 0
M  V30 29 H 2.3361 -0.945112 3.79715 0
M  V30 30 H 1.9591 -2.50609 3.08676 0
M  V30 31 N 2.9562 -1.48159 -0.537278 0
M  V30 32 C 3.8882 -1.58218 -1.65831 0
M  V30 33 C 4.9012 -0.466948 -1.5596 0
M  V30 34 O 6.0902 -0.73747 -1.62553 0
M  V30 35 C 3.1902 -1.48906 -3.04434 0
M  V30 36 C 2.3632 -2.75343 -3.3986 0
M  V30 37 C 1.4222 -2.59588 -4.57712 0
M  V30 38 O 0.4482 -3.33457 -4.61297 0
M  V30 39 N 1.6502 -1.68724 -5.55439 0
M  V30 40 H 4.4152 -2.54891 -1.57641 0
M  V30 41 H 1.9762 -1.4479 -0.724386 0
M  V30 42 H 3.9682 -1.36072 -3.81139 0
M  V30 43 H 2.5382 -0.602368 -3.06741 0
M  V30 44 H 1.7582 -3.02795 -2.52406 0
M  V30 45 H 3.0462 -3.5924 -3.60311 0
M  V30 46 H 2.4442 -1.07898 -5.55315 0
M  V30 47 H 1.0012 -1.61832 -6.3139 0
M  V30 48 N 4.4343 0.785586 -1.36625 0
M  V30 49 C 5.3443 1.92964 -1.33425 0
M  V30 50 C 6.3603 1.72394 -0.235851 0
M  V30 51 O 7.5363 1.95866 -0.468878 0
M  V30 52 C 4.6013 3.27884 -1.12662 0
M  V30 53 C 3.6623 3.61204 -2.32013 0
M  V30 54 C 2.8953 4.89687 -2.12231 0
M  V30 55 O 3.1183 5.59704 -1.09945 0
M  V30 56 O 2.0523 5.21752 -3.00098 0
M  V30 57 H 5.8783 1.98613 -2.29753 0
M  V30 58 H 3.4633 0.926384 -1.17211 0
M  V30 59 H 5.3453 4.08614 -1.03016 0
M  V30 60 H 4.0203 3.23118 -0.193991 0
M  V30 61 H 2.9273 2.80765 -2.47228 0
M  V30 62 H 4.2603 3.70698 -3.23796 0
M  V30 63 N 5.9124 1.20967 1.01018 0
M  V30 64 C 7.1404 1.04956 1.78303 0
M  V30 65 C 7.5554 -0.400915 1.84494 0
M  V30 66 O 6.9124 -1.27826 1.30257 0
M  V30 67 C 6.9634 1.63403 3.22462 0
M  V30 68 O 6.6844 3.02775 3.16637 0
M  V30 69 C 8.1854 1.52432 4.16268 0
M  V30 70 H 5.4054 0.368858 0.560522 0
M  V30 71 H 7.9494 1.60193 1.27116 0
M  V30 72 H 6.1044 1.1227 3.70775 0
M  V30 73 H 6.5184 3.30626 4.07169 0
M  V30 74 H 7.9924 1.98078 5.15237 0
M  V30 75 H 8.4694 0.477875 4.36592 0
M  V30 76 H 9.0754 2.02787 3.73841 0
M  V30 77 N 7.3905 -1.2043 1.01659 0
M  V30 78 C 8.6365 -1.90079 0.706963 0
M  V30 79 C 8.9695 -1.78648 -0.761474 0
M  V30 80 O 8.2445 -1.17069 -1.55323 0
M  V30 81 C 8.5275 -3.41469 1.14327 0
M  V30 82 C 8.3805 -3.61833 2.67201 0
M  V30 83 C 9.6995 -4.34261 0.714529 0
M  V30 84 H 6.8185 -0.690254 0.2583 0
M  V30 85 H 9.4605 -1.41826 1.26433 0
M  V30 86 H 7.6105 -3.82696 0.669056 0
M  V30 87 H 9.2825 -3.2986 3.22475 0
M  V30 88 H 7.5255 -3.05304 3.08175 0
M  V30 89 H 8.1965 -4.67955 2.92783 0
M  V30 90 H 10.6725 -4.00682 1.12221 0
M  V30 91 H 9.5485 -5.38806 1.04784 0
M  V30 92 H 9.8095 -4.40431 -0.383799 0
M  V30 93 N 8.8686 -0.792821 -1.36206 0
M  V30 94 C 10.1166 -0.366062 -1.98757 0
M  V30 95 C 10.4376 1.0668 -1.63231 0
M  V30 96 O 9.7076 1.73587 -0.907978 0
M  V30 97 H 8.2876 -0.132364 -0.735179 0
M  V30 98 H 10.9496 -1.01562 -1.66347 0
M  V30 99 H 10.0456 -0.460638 -3.08682 0
M  V30 100 N 10.3467 1.47872 -0.545128 0
M  V30 101 C 11.2947 2.31533 0.222512 0
M  V30 102 C 12.2887 1.42177 0.920985 0
M  V30 103 O 13.4947 1.59005 0.843645 0
M  V30 104 H 9.8697 0.746519 0.0906278 0
M  V30 105 H 11.8407 2.94139 -0.50246 0
M  V30 106 C 10.5897 3.2457 1.24699 0
M  V30 107 H 9.9127 3.93283 0.718944 0
M  V30 108 H 11.3527 3.85963 1.75523 0
M  V30 109 C 9.8117 2.47237 2.28856 0
M  V30 110 O 10.3417 2.20808 3.35569 0
M  V30 111 N 8.5477 2.08461 2.02466 0
M  V30 112 H 8.0947 2.30155 1.157 0
M  V30 113 H 8.0527 1.57033 2.72375 0
M  V30 114 N 11.8248 0.280983 1.55075 0
M  V30 115 C 13.0708 -0.33461 2.00021 0
M  V30 116 C 13.4038 -1.55063 1.16915 0
M  V30 117 O 12.6788 -1.93006 0.240646 0
M  V30 118 C 12.9618 -0.711007 3.53011 0
M  V30 119 C 12.8148 0.512766 4.46868 0
M  V30 120 C 14.1338 -1.54522 4.12081 0
M  V30 121 H 11.2528 -0.120147 0.727141 0
M  V30 122 H 13.8948 0.389097 1.85973 0
M  V30 123 H 12.0448 -1.32761 3.65112 0
M  V30 124 H 13.7168 1.15131 4.46702 0
M  V30 125 H 11.9598 1.14975 4.18286 0
M  V30 126 H 12.6308 0.205556 5.51617 0
M  V30 127 H 15.1068 -1.02442 4.03293 0
M  V30 128 H 13.9828 -1.77739 5.19327 0
M  V30 129 H 14.2438 -2.52813 3.62682 0
M  V30 130 N 13.3029 -1.57598 0.00835791 0
M  V30 131 C 14.5489 -1.91211 -0.675732 0
M  V30 132 C 14.8819 -0.883139 -1.72958 0
M  V30 133 O 14.1569 0.097016 -1.94258 0
M  V30 134 C 14.4399 -3.35379 -1.31123 0
M  V30 135 C 14.2929 -4.48999 -0.268356 0
M  V30 136 C 15.6119 -3.7912 -2.23508 0
M  V30 137 H 12.7309 -0.695374 -0.244179 0
M  V30 138 H 15.3729 -1.89901 0.0613655 0
M  V30 139 H 13.5229 -3.36626 -1.93946 0
M  V30 140 H 15.1949 -4.59887 0.360844 0
M  V30 141 H 13.4379 -4.31873 0.408482 0
M  V30 142 H 14.1089 -5.46851 -0.752218 0
M  V30 143 H 16.5849 -3.79477 -1.70693 0
M  V30 144 H 15.4609 -4.80729 -2.64936 0
M  V30 145 H 15.7219 -3.13455 -3.11766 0
M  V30 146 N 14.781 0.264519 -1.55364 0
M  V30 147 C 15.711 1.33121 -1.91836 0
M  V30 148 C 16.692 1.51101 -0.781192 0
M  V30 149 O 17.877 1.64003 -1.04003 0
M  V30 150 C 15.007 2.68921 -2.19769 0
M  V30 151 C 13.961 2.65661 -3.35571 0
M  V30 152 C 13.287 4.05093 -3.49004 0
M  V30 153 C 14.587 2.24187 -4.71739 0
M  V30 154 H 16.281 1.02844 -2.81182 0
M  V30 155 H 13.827 0.493286 -1.35287 0
M  V30 156 H 15.78 3.43663 -2.43872 0
M  V30 157 H 14.504 3.00799 -1.27231 0
M  V30 158 H 13.163 1.93377 -3.1145 0
M  V30 159 H 12.811 4.34206 -2.53917 0
M  V30 160 H 12.511 4.03804 -4.26868 0
M  V30 161 H 14.035 4.81561 -3.75408 0
M  V30 162 H 15.449 2.88654 -4.9533 0
M  V30 163 H 13.846 2.34044 -5.52579 0
M  V30 164 H 14.916 1.19327 -4.69988 0
M  V30 165 N 16.2591 1.48442 0.529413 0
M  V30 166 C 17.1891 1.65902 1.64313 0
M  V30 167 C 18.1701 0.507897 1.6234 0
M  V30 168 O 19.3551 0.740503 1.79528 0
M  V30 169 C 16.4851 1.69911 3.02898 0
M  V30 170 C 15.4391 2.8453 3.19729 0
M  V30 171 C 14.7651 2.73629 4.59381 0
M  V30 172 C 16.0651 4.25821 3.02447 0
M  V30 173 H 17.7591 2.5914 1.49955 0
M  V30 174 H 15.3051 1.24709 0.719982 0
M  V30 175 H 17.2581 1.80715 3.80684 0
M  V30 176 H 15.9821 0.732524 3.18279 0
M  V30 177 H 14.6411 2.73283 2.44361 0
M  V30 178 H 14.2891 1.74938 4.71599 0
M  V30 179 H 13.9891 3.50541 4.71588 0
M  V30 180 H 15.5131 2.86401 5.39265 0
M  V30 181 H 16.9271 4.37898 3.70024 0
M  V30 182 H 15.3241 5.03735 3.26146 0
M  V30 183 H 16.3941 4.42244 1.98867 0
M  V30 184 N 17.7372 -0.778329 1.37039 0
M  V30 185 C 18.7002 -1.87301 1.32102 0
M  V30 186 C 19.7002 -1.59198 0.226405 0
M  V30 187 O 20.8902 -1.67403 0.481861 0
M  V30 188 C 18.0222 -3.24309 1.05055 0
M  V30 189 H 19.2152 -1.93093 2.29467 0
M  V30 190 H 16.7682 -0.977358 1.21973 0
M  V30 191 H 17.5032 -3.24196 0.0819373 0
M  V30 192 H 17.2882 -3.46098 1.84279 0
M  V30 193 H 18.7782 -4.04382 1.04234 0
M  V30 194 N 19.2153 -1.21501 -1.00376 0
M  V30 195 C 20.4643 -1.02718 -1.73586 0
M  V30 196 C 20.7773 0.439589 -1.90596 0
M  V30 197 O 21.9833 0.746848 -2.61026 0
M  V30 198 C 20.4393 -1.78929 -3.1227 0
M  V30 199 C 20.0473 -3.29783 -3.03228 0
M  V30 200 C 21.7913 -1.68557 -3.89601 0
M  V30 201 C 19.6983 -3.98479 -4.36999 0
M  V30 202 H 18.6283 -0.380733 -0.650814 0
M  V30 203 H 21.2793 -1.45248 -1.1214 0
M  V30 204 H 19.6613 -1.29192 -3.74333 0
M  V30 205 H 20.8353 -3.86832 -2.50395 0
M  V30 206 H 19.1503 -3.40711 -2.39385 0
M  V30 207 H 21.7473 -2.17211 -4.88593 0
M  V30 208 H 22.0903 -0.644021 -4.11288 0
M  V30 209 H 22.6233 -2.15778 -3.34193 0
M  V30 210 H 19.3623 -5.02841 -4.20513 0
M  V30 211 H 18.8823 -3.46219 -4.89788 0
M  V30 212 H 20.5613 -4.03462 -5.05794 0
M  V30 213 N 20.6934 1.19889 -1.02296 0
M  V30 214 C 21.9394 1.89701 -0.717033 0
M  V30 215 C 22.2724 1.7905 0.751989 0
M  V30 216 O 21.5474 1.17891 1.547 0
M  V30 217 C 21.8304 3.40858 -1.16136 0
M  V30 218 C 21.6834 3.60411 -2.69117 0
M  V30 219 C 23.0024 4.33876 -0.737549 0
M  V30 220 H 20.1214 0.688874 -0.261957 0
M  V30 221 H 22.7634 1.41154 -1.27183 0
M  V30 222 H 20.9134 3.82335 -0.689342 0
M  V30 223 H 22.5854 3.28145 -3.2422 0
M  V30 224 H 20.8284 3.03665 -3.0979 0
M  V30 225 H 21.4994 4.66396 -2.95261 0
M  V30 226 H 23.9754 4.00081 -1.14344 0
M  V30 227 H 22.8514 5.38242 -1.0764 0
M  V30 228 H 23.1124 4.40628 0.360436 0
M  V30 229 N 22.1715 0.800033 1.35784 0
M  V30 230 C 23.3995 0.389606 2.03199 0
M  V30 231 C 23.8145 -0.997375 1.60306 0
M  V30 232 O 23.1715 -1.64154 0.797481 0
M  V30 233 C 23.2225 0.455855 3.58614 0
M  V30 234 O 22.9435 1.78815 3.99946 0
M  V30 235 C 24.4445 0.0374032 4.43284 0
M  V30 236 H 21.6645 0.159132 0.651857 0
M  V30 237 H 24.2085 1.08183 1.73541 0
M  V30 238 H 22.3635 -0.188057 3.86943 0
M  V30 239 H 22.7775 1.74636 4.94573 0
M  V30 240 H 24.2515 0.134882 5.51835 0
M  V30 241 H 24.7285 -1.01651 4.27275 0
M  V30 242 H 25.3345 0.654215 4.20238 0
M  V30 243 N 23.6496 -1.47581 0.552962 0
M  V30 244 C 24.5796 -2.32762 -0.185451 0
M  V30 245 C 25.5606 -1.43527 -0.912905 0
M  V30 246 O 26.7456 -1.72388 -0.894201 0
M  V30 247 C 23.8756 -3.25219 -1.21859 0
M  V30 248 C 22.8296 -4.23661 -0.607864 0
M  V30 249 C 22.1556 -5.05413 -1.74533 0
M  V30 250 C 23.4556 -5.20481 0.435582 0
M  V30 251 H 25.1496 -2.94749 0.525684 0
M  V30 252 H 22.6956 -1.41738 0.254251 0
M  V30 253 H 24.6486 -3.8365 -1.7433 0
M  V30 254 H 23.3726 -2.61279 -1.95961 0
M  V30 255 H 22.0316 -3.66451 -0.104489 0
M  V30 256 H 21.6796 -4.3788 -2.47529 0
M  V30 257 H 21.3796 -5.72059 -1.34249 0
M  V30 258 H 22.9036 -5.66701 -2.27338 0
M  V30 259 H 24.3176 -5.733 -0.00290157 0
M  V30 260 H 22.7146 -5.95305 0.757067 0
M  V30 261 H 23.7846 -4.66217 1.33303 0
M  V30 262 N 25.1277 -0.289203 -1.54924 0
M  V30 263 C 26.3767 0.324231 -1.99077 0
M  V30 264 C 26.6897 1.5591 -1.18117 0
M  V30 265 O 27.8957 2.24637 -1.52481 0
M  V30 266 C 26.3517 0.628209 -3.54375 0
M  V30 267 C 25.9597 -0.587647 -4.44129 0
M  V30 268 C 27.7037 1.20349 -4.07083 0
M  V30 269 C 25.6107 -0.257475 -5.90839 0
M  V30 270 H 24.5407 0.124924 -0.743579 0
M  V30 271 H 27.1917 -0.396063 -1.79175 0
M  V30 272 H 25.5737 1.40778 -3.70132 0
M  V30 273 H 26.7477 -1.36418 -4.40144 0
M  V30 274 H 25.0627 -1.08074 -4.0213 0
M  V30 275 H 27.6597 1.46456 -5.14252 0
M  V30 276 H 28.0027 2.14195 -3.56968 0
M  V30 277 H 28.5357 0.485889 -3.94821 0
M  V30 278 H 25.2747 -1.16419 -6.45079 0
M  V30 279 H 24.7947 0.482018 -5.9786 0
M  V30 280 H 26.4737 0.145238 -6.46837 0
M  V30 281 N 26.6058 1.57591 -0.0167156 0
M  V30 282 C 27.8308 1.9598 0.67872 0
M  V30 283 C 28.2558 0.892546 1.65575 0
M  V30 284 O 27.6138 -0.147772 1.80697 0
M  V30 285 C 27.6618 3.33468 1.37227 0
M  V30 286 O 26.7658 3.28954 2.48722 0
M  V30 287 H 26.1068 0.639339 0.17928 0
M  V30 288 H 28.6368 2.04463 -0.0748802 0
M  V30 289 H 28.6468 3.69417 1.7319 0
M  V30 290 H 27.3218 4.10694 0.656007 0
M  V30 291 H 25.8988 3.04705 2.14963 0
M  V30 292 N 28.0839 -0.256276 1.55502 0
M  V30 293 C 29.3299 -0.987079 1.77157 0
M  V30 294 C 29.6629 -1.85327 0.580315 0
M  V30 295 O 28.9379 -1.89874 -0.421686 0
M  V30 296 C 29.2209 -1.85553 3.08613 0
M  V30 297 C 29.0739 -1.01816 4.38125 0
M  V30 298 C 30.3929 -2.8397 3.36228 0
M  V30 299 H 27.5119 -0.357428 0.644526 0
M  V30 300 H 30.1539 -0.258239 1.88237 0
M  V30 301 H 28.3039 -2.47695 2.99298 0
M  V30 302 H 29.9759 -0.416159 4.59419 0
M  V30 303 H 28.2189 -0.322178 4.32602 0
M  V30 304 H 28.8899 -1.65939 5.26468 0
M  V30 305 H 31.3659 -2.31964 3.45445 0
M  V30 306 H 30.2419 -3.41864 4.29442 0
M  V30 307 H 30.5029 -3.59955 2.56681 0
M  V30 308 N 29.562 -1.4872 -0.521534 0
M  V30 309 C 30.808 -1.574 -1.27879 0
M  V30 310 C 31.141 -0.250817 -1.92573 0
M  V30 311 O 30.416 0.743934 -1.79711 0
M  V30 312 C 30.699 -2.71843 -2.36164 0
M  V30 313 C 30.552 -4.13893 -1.76105 0
M  V30 314 C 31.871 -2.82008 -3.37875 0
M  V30 315 H 28.99 -0.572941 -0.463581 0
M  V30 316 H 31.632 -1.80927 -0.580119 0
M  V30 317 H 29.782 -2.51914 -2.95756 0
M  V30 318 H 31.454 -4.45284 -1.20499 0
M  V30 319 H 29.697 -4.20498 -1.06601 0
M  V30 320 H 30.368 -4.89804 -2.5455 0
M  V30 321 H 32.844 -3.00086 -2.88249 0
M  V30 322 H 31.72 -3.63796 -4.11028 0
M  V30 323 H 31.981 -1.90511 -3.98946 0
M  V30 324 N 31.0401 0.771051 -1.3745 0
M  V30 325 C 31.9721 1.89352 -1.29146 0
M  V30 326 C 32.9851 1.61477 -0.207124 0
M  V30 327 O 34.1741 1.72382 -0.463324 0
M  V30 328 C 31.2741 3.24596 -0.974195 0
M  V30 329 C 30.4471 3.80111 -2.16413 0
M  V30 330 C 29.5061 4.93832 -1.81703 0
M  V30 331 O 28.5321 5.09382 -2.54006 0
M  V30 332 N 29.7341 5.75483 -0.761573 0
M  V30 333 H 32.4991 1.96991 -2.25864 0
M  V30 334 H 30.0601 0.950191 -1.31084 0
M  V30 335 H 32.0521 3.98193 -0.722828 0
M  V30 336 H 30.6221 3.12454 -0.0955527 0
M  V30 337 H 29.8421 2.98284 -2.57721 0
M  V30 338 H 31.1301 4.13932 -2.95867 0
M  V30 339 H 30.5281 5.65469 -0.161609 0
M  V30 340 H 29.0851 6.49302 -0.570064 0
M  V30 341 N 32.5182 1.22032 0.997298 0
M  V30 342 C 33.4662 0.983634 2.10778 0
M  V30 343 C 34.4602 -0.0717564 1.69248 0
M  V30 344 O 35.6662 0.080304 1.79821 0
M  V30 345 H 32.0412 0.300877 0.689186 0
M  V30 346 H 34.0122 1.92606 2.27916 0
M  V30 347 C 32.7612 0.57326 3.42942 0
M  V30 348 H 32.0842 1.37702 3.75338 0
M  V30 349 H 33.5242 0.447031 4.21637 0
M  V30 350 C 31.9832 -0.7167 3.29188 0
M  V30 351 O 32.5132 -1.77027 3.60589 0
M  V30 352 N 30.7192 -0.686167 2.82383 0
M  V30 353 H 30.2662 0.171507 2.57028 0
M  V30 354 H 30.2242 -1.54955 2.73562 0
M  V30 355 N 33.9963 -1.19345 1.0293 0
M  V30 356 C 35.2443 -1.88665 0.724574 0
M  V30 357 C 35.5653 -1.80036 -0.749144 0
M  V30 358 O 34.8353 -1.2111 -1.53978 0
M  V30 359 H 33.4153 -0.698406 0.265025 0
M  V30 360 H 36.0773 -1.44885 1.30362 0
M  V30 361 H 35.1733 -2.94987 1.01926 0
M  V30 362 N 35.4744 -0.807222 -1.35358 0
M  V30 363 C 36.7214 -0.387888 -1.9875 0
M  V30 364 C 37.0494 1.04509 -1.64037 0
M  V30 365 O 36.3044 1.73986 -0.895946 0
M  V30 366 C 36.6034 -0.519036 -3.53611 0
M  V30 367 C 36.2694 -1.91542 -4.08194 0
M  V30 368 C 34.9314 -2.29745 -4.22813 0
M  V30 369 C 37.2834 -2.82896 -4.37744 0
M  V30 370 C 34.6114 -3.58668 -4.643 0
M  V30 371 C 36.9634 -4.11265 -4.8067 0
M  V30 372 C 35.6274 -4.49466 -4.93494 0
M  V30 373 H 34.8974 -0.141938 -0.727279 0
M  V30 374 H 37.5444 -1.02814 -1.6156 0
M  V30 375 H 35.8494 0.204658 -3.91265 0
M  V30 376 H 37.5464 -0.175345 -4.00616 0
M  V30 377 H 34.1364 -1.60862 -3.97268 0
M  V30 378 H 38.3204 -2.54629 -4.26002 0
M  V30 379 H 33.5764 -3.88113 -4.72418 0
M  V30 380 H 37.7504 -4.82153 -5.02496 0
M  V30 381 H 35.3774 -5.49418 -5.25399 0
M  V30 382 N 36.9525 1.47285 -0.560781 0
M  V30 383 C 38.1995 2.02464 -0.038062 0
M  V30 384 C 38.5275 1.43474 1.31322 0
M  V30 385 O 37.7825 0.581311 1.86867 0
M  V30 386 C 38.0815 3.57258 0.100784 0
M  V30 387 C 37.7475 4.35184 -1.18007 0
M  V30 388 C 36.4095 4.56194 -1.53103 0
M  V30 389 C 38.7615 4.80098 -2.02867 0
M  V30 390 C 36.0895 5.19367 -2.729 0
M  V30 391 C 38.4415 5.44593 -3.21871 0
M  V30 392 C 37.1055 5.63835 -3.57276 0
M  V30 393 H 36.3755 0.740869 -0.0139279 0
M  V30 394 H 39.0225 1.76916 -0.733012 0
M  V30 395 H 37.3275 3.81819 0.878724 0
M  V30 396 H 39.0245 3.97606 0.520639 0
M  V30 397 H 35.6145 4.19113 -0.8968 0
M  V30 398 H 39.7985 4.63642 -1.7706 0
M  V30 399 H 35.0545 5.32459 -3.00496 0
M  V30 400 H 39.2285 5.78358 -3.87911 0
M  V30 401 H 36.8555 6.12557 -4.50197 0
M  V30 402 N 38.4306 0.297415 1.54768 0
M  V30 403 C 39.3936 -0.567375 2.22066 0
M  V30 404 C 40.3936 -1.06409 1.20556 0
M  V30 405 O 41.5836 -0.960691 1.45315 0
M  V30 406 C 38.7156 -1.78517 2.90421 0
M  V30 407 H 39.9086 0.0205534 2.99893 0
M  V30 408 H 37.4616 0.0482163 1.56226 0
M  V30 409 H 38.1966 -2.41303 2.16664 0
M  V30 410 H 37.9816 -1.43669 3.64831 0
M  V30 411 H 39.4716 -2.39964 3.41771 0
M  V30 412 N 39.9087 -1.5758 0.0250728 0
M  V30 413 C 40.8587 -2.06468 -0.967201 0
M  V30 414 C 41.8427 -0.964376 -1.28797 0
M  V30 415 O 43.0347 -1.22797 -1.27475 0
M  V30 416 C 40.1637 -2.59203 -2.25097 0
M  V30 417 C 39.2497 -3.76157 -1.95874 0
M  V30 418 N 39.6407 -4.86919 -1.36905 0
M  V30 419 C 37.9387 -3.84566 -2.25887 0
M  V30 420 C 38.6397 -5.68172 -1.24724 0
M  V30 421 N 37.6157 -5.14953 -1.74138 0
M  V30 422 H 41.4177 -2.89508 -0.506176 0
M  V30 423 H 38.9317 -1.61399 -0.18004 0
M  V30 424 H 40.9287 -2.92517 -2.97052 0
M  V30 425 H 39.5887 -1.77592 -2.71829 0
M  V30 426 H 40.5997 -5.07256 -1.04459 0
M  V30 427 H 37.2767 -3.13854 -2.75321 0
M  V30 428 H 38.6667 -6.67221 -0.791605 0
M  V30 429 N 41.3868 0.248026 -1.55636 0
M  V30 430 C 42.3338 1.30707 -1.90222 0
M  V30 431 C 43.3038 1.47881 -0.756332 0
M  V30 432 O 44.4888 1.61883 -1.00988 0
M  V30 433 C 41.6288 2.65769 -2.20138 0
M  V30 434 C 40.7418 2.56612 -3.47526 0
M  V30 435 C 39.8768 3.8402 -3.67017 0
M  V30 436 C 38.9158 3.69476 -4.8801 0
M  V30 437 N 38.0528 4.88774 -5.04029 0
M  V30 438 H 42.8928 1.00512 -2.80538 0
M  V30 439 H 40.4298 0.485055 -1.38873 0
M  V30 440 H 42.3878 3.44386 -2.35487 0
M  V30 441 H 41.0178 2.94115 -1.33027 0
M  V30 442 H 40.0698 1.69571 -3.40514 0
M  V30 443 H 41.3818 2.41774 -4.36287 0
M  V30 444 H 40.5358 4.7108 -3.8232 0
M  V30 445 H 39.2748 4.01754 -2.76487 0
M  V30 446 H 38.2798 2.80799 -4.72686 0
M  V30 447 H 39.5048 3.53238 -5.8 0
M  V30 448 H 37.4508 5.0687 -4.16435 0
M  V30 449 H 37.3678 4.76562 -5.86877 0
M  V30 450 H 38.6358 5.77335 -5.23741 0
M  V30 451 N 42.8649 1.48995 0.513639 0
M  V30 452 C 44.1109 1.58076 1.27042 0
M  V30 453 C 44.4439 0.261026 1.92438 0
M  V30 454 O 43.7189 -0.734393 1.80103 0
M  V30 455 C 44.0019 2.73091 2.34719 0
M  V30 456 C 43.8549 4.14821 1.73907 0
M  V30 457 C 45.1739 2.83796 3.36375 0
M  V30 458 H 42.2929 0.575391 0.460536 0
M  V30 459 H 44.9349 1.81232 0.570516 0
M  V30 460 H 43.0849 2.53479 2.94416 0
M  V30 461 H 44.7569 4.45917 1.18135 0
M  V30 462 H 42.9999 4.21058 1.0437 0
M  V30 463 H 43.6709 4.91147 2.51949 0
M  V30 464 H 46.1469 3.01611 2.86653 0
M  V30 465 H 45.0229 3.65971 4.09093 0
M  V30 466 H 45.2839 1.92624 3.9793 0
M  V30 467 N 44.343 -0.763751 1.37857 0
M  V30 468 C 45.253 -1.90817 1.36478 0
M  V30 469 C 46.269 -1.71997 0.263248 0
M  V30 470 O 47.445 -1.95095 0.499979 0
M  V30 471 C 44.51 -3.2605 1.17864 0
M  V30 472 C 43.571 -3.57467 2.3773 0
M  V30 473 C 42.804 -4.86249 2.19995 0
M  V30 474 O 43.027 -5.57884 1.18836 0
M  V30 475 O 41.961 -5.16911 3.08361 0
M  V30 476 H 45.787 -1.94933 2.32884 0
M  V30 477 H 43.372 -0.907619 1.1867 0
M  V30 478 H 45.254 -4.06924 1.09504 0
M  V30 479 H 43.929 -3.22769 0.245372 0
M  V30 480 H 42.836 -2.76796 2.51664 0
M  V30 481 H 44.169 -3.655 3.29652 0
M  V30 482 N 45.8211 -1.22559 -0.990812 0
M  V30 483 C 46.7711 -0.964807 -2.0658 0
M  V30 484 C 47.7551 0.0853472 -1.60673 0
M  V30 485 O 48.9471 -0.125443 -1.76555 0
M  V30 486 C 46.0761 -0.546707 -3.38919 0
M  V30 487 C 45.1621 -1.6317 -3.91454 0
M  V30 488 N 45.5531 -2.85985 -4.17189 0
M  V30 489 C 43.8511 -1.50387 -4.19881 0
M  V30 490 C 44.5521 -3.56159 -4.59919 0
M  V30 491 N 43.5281 -2.83637 -4.63736 0
M  V30 492 H 47.3301 -1.89769 -2.24421 0
M  V30 493 H 44.8441 -1.12343 -1.17273 0
M  V30 494 H 46.8411 -0.34119 -4.15502 0
M  V30 495 H 45.5011 0.379254 -3.22478 0
M  V30 496 H 46.5121 -3.22392 -4.05319 0
M  V30 497 H 43.1891 -0.644254 -4.12499 0
M  V30 498 H 44.5791 -4.6139 -4.88435 0
M  V30 499 N 47.2992 1.18797 -1.03562 0
M  V30 500 C 48.2092 2.25913 -0.632505 0
M  V30 501 C 49.2252 1.70668 0.338882 0
M  V30 502 O 50.4012 2.00453 0.195076 0
M  V30 503 C 47.4662 3.467 0.00350942 0
M  V30 504 C 46.5272 4.17098 -1.01624 0
M  V30 505 C 45.7602 5.32119 -0.410478 0
M  V30 506 O 45.9832 5.64976 0.784725 0
M  V30 507 O 44.9172 5.9107 -1.13667 0
M  V30 508 H 48.7432 2.62648 -1.52478 0
M  V30 509 H 46.3282 1.25781 -0.806195 0
M  V30 510 H 48.2102 4.19878 0.35781 0
M  V30 511 H 46.8852 3.11798 0.869686 0
M  V30 512 H 45.7922 3.4601 -1.42224 0
M  V30 513 H 47.1252 4.55987 -1.85301 0
M  V30 514 N 48.7773 0.814389 1.34928 0
M  V30 515 C 50.0023 0.410097 2.03305 0
M  V30 516 C 50.4273 -0.973464 1.60951 0
M  V30 517 O 49.7853 -1.63185 0.789964 0
M  V30 518 C 49.8333 0.51049 3.56968 0
M  V30 519 O 48.9373 -0.473035 4.09678 0
M  V30 520 H 48.2783 0.170088 0.641846 0
M  V30 521 H 50.8083 1.10244 1.72358 0
M  V30 522 H 50.8183 0.383135 4.06197 0
M  V30 523 H 49.4933 1.51963 3.87144 0
M  V30 524 H 48.0703 -0.305272 3.71648 0
M  V30 525 N 50.2554 -1.46986 0.568584 0
M  V30 526 C 51.6714 -1.57946 0.229189 0
M  V30 527 C 51.8714 -1.56567 -1.26843 0
M  V30 528 O 50.9274 -1.47511 -2.04931 0
M  V30 529 C 52.2404 -2.87963 0.865909 0
M  V30 530 C 53.7884 -3.01568 0.838188 0
M  V30 531 C 54.2634 -4.34301 1.45419 0
M  V30 532 N 55.7544 -4.40965 1.41788 0
M  V30 533 C 56.4894 -5.42256 1.86403 0
M  V30 534 N 55.9854 -6.50297 2.38926 0
M  V30 535 N 57.7784 -5.3337 1.77405 0
M  V30 536 H 49.9294 -1.46126 1.54146 0
M  V30 537 H 52.1924 -0.696156 0.643484 0
M  V30 538 H 51.8984 -2.94742 1.91886 0
M  V30 539 H 51.7724 -3.75423 0.365687 0
M  V30 540 H 54.1594 -2.94379 -0.206106 0
M  V30 541 H 54.2404 -2.1562 1.37629 0
M  V30 542 H 53.8844 -4.42247 2.49761 0
M  V30 543 H 53.8144 -5.19 0.891435 0
M  V30 544 H 56.3054 -3.63484 1.03381 0
M  V30 545 H 56.6184 -7.23777 2.70863 0
M  V30 546 H 54.9634 -6.51155 2.42944 0
M  V30 547 H 58.1544 -4.47865 1.3614 0
M  V30 548 H 58.3274 -6.12169 2.12492 0
M  V30 549 N 51.7335 -0.305618 -1.54608 0
M  V30 550 C 52.9615 0.304775 -2.04643 0
M  V30 551 C 53.3765 1.47167 -1.18268 0
M  V30 552 O 52.7335 1.81296 -0.209328 0
M  V30 553 C 52.7845 0.756564 -3.53495 0
M  V30 554 O 52.5055 -0.36389 -4.36586 0
M  V30 555 C 54.0065 1.43163 -4.19546 0
M  V30 556 H 51.2265 0.0655481 -0.667791 0
M  V30 557 H 53.7705 -0.446592 -1.99564 0
M  V30 558 H 51.9255 1.45794 -3.58919 0
M  V30 559 H 52.3395 -0.0113121 -5.24499 0
M  V30 560 H 53.8135 1.69886 -5.25207 0
M  V30 561 H 54.2905 2.37318 -3.69563 0
M  V30 562 H 54.8965 0.773307 -4.18211 0
M  V30 563 N 53.2116 1.57565 -0.0334293 0
M  V30 564 C 54.1436 2.0739 0.975811 0
M  V30 565 C 55.1566 0.998166 1.2861 0
M  V30 566 O 56.3456 1.27426 1.25 0
M  V30 567 C 53.4456 2.4871 2.30209 0
M  V30 568 C 52.6186 3.79413 2.17634 0
M  V30 569 C 51.6776 4.07237 3.33233 0
M  V30 570 O 50.7036 4.77425 3.09927 0
M  V30 571 N 51.9056 3.5775 4.5716 0
M  V30 572 H 54.6706 2.94598 0.55066 0
M  V30 573 H 52.2316 1.61173 0.15323 0
M  V30 574 H 54.2236 2.64413 3.06378 0
M  V30 575 H 52.7936 1.66845 2.64351 0
M  V30 576 H 52.0136 3.73465 1.26165 0
M  V30 577 H 53.3016 4.65038 2.0644 0
M  V30 578 H 52.6996 3.00976 4.78989 0
M  V30 579 H 51.2566 3.78724 5.30482 0
M  V30 580 N 54.6897 -0.239769 1.55765 0
M  V30 581 C 55.6377 -1.31668 1.91745 0
M  V30 582 C 56.6317 -1.49462 0.797338 0
M  V30 583 O 57.8377 -1.50852 0.982021 0
M  V30 584 H 54.2127 -0.441048 0.609082 0
M  V30 585 H 56.1837 -0.985923 2.81642 0
M  V30 586 C 54.9327 -2.66368 2.2348 0
M  V30 587 H 54.2557 -2.53478 3.09175 0
M  V30 588 H 55.6957 -3.40578 2.52553 0
M  V30 589 C 54.1547 -3.20002 1.05359 0
M  V30 590 O 54.6847 -4.00538 0.305261 0
M  V30 591 N 52.8907 -2.78126 0.842292 0
M  V30 592 H 52.4377 -2.12742 1.45253 0
M  V30 593 H 52.3957 -3.14354 0.053652 0
M  V30 594 N 56.1678 -1.49265 -0.50573 0
M  V30 595 C 57.4158 -1.582 -1.25766 0
M  V30 596 C 57.7368 -0.268482 -1.93143 0
M  V30 597 O 57.0068 0.711833 -1.8251 0
M  V30 598 H 55.5868 -0.582873 -0.467191 0
M  V30 599 H 58.2488 -1.85865 -0.586525 0
M  V30 600 H 57.3448 -2.37563 -2.02412 0
M  V30 601 N 57.6459 0.756429 -1.3826 0
M  V30 602 C 59.0619 1.0591 -1.19395 0
M  V30 603 C 59.2619 2.01459 -0.0406567 0
M  V30 604 O 58.3179 2.44909 0.614467 0
M  V30 605 C 59.6309 1.64191 -2.51916 0
M  V30 606 C 61.1789 1.76376 -2.58574 0
M  V30 607 C 61.6539 2.38069 -3.91264 0
M  V30 608 N 63.1449 2.45503 -3.92788 0
M  V30 609 C 63.8799 2.94126 -4.92217 0
M  V30 610 N 63.3759 3.42805 -6.02043 0
M  V30 611 N 65.1689 2.9314 -4.7961 0
M  V30 612 H 57.3199 0.122313 -2.12048 0
M  V30 613 H 59.5829 0.116892 -0.940766 0
M  V30 614 H 59.2889 1.01451 -3.3675 0
M  V30 615 H 59.1629 2.6329 -2.70108 0
M  V30 616 H 61.5499 2.38244 -1.74137 0
M  V30 617 H 61.6309 0.759894 -2.44252 0
M  V30 618 H 61.2749 1.76835 -4.76121 0
M  V30 619 H 61.2049 3.39091 -4.02895 0
M  V30 620 H 63.6959 2.1107 -3.13461 0
M  V30 621 H 64.0089 3.78354 -6.73846 0
M  V30 622 H 62.3539 3.4087 -6.05667 0
M  V30 623 H 65.5449 2.54419 -3.92923 0
M  V30 624 H 65.7179 3.30721 -5.5725 0
M  V30 625 N 59.124 1.23083 0.984299 0
M  V30 626 C 60.349 1.088 1.76571 0
M  V30 627 C 60.774 -0.356657 1.84688 0
M  V30 628 O 60.132 -1.25788 1.30565 0
M  V30 629 C 60.18 1.71371 3.17277 0
M  V30 630 O 59.284 0.973213 4.00752 0
M  V30 631 H 58.625 0.381599 0.543395 0
M  V30 632 H 61.155 1.63057 1.23587 0
M  V30 633 H 61.165 1.76449 3.67872 0
M  V30 634 H 59.84 2.76493 3.10684 0
M  V30 635 H 58.417 0.999078 3.59267 0
M  V30 636 N 60.6021 -1.18246 1.0419 0
M  V30 637 C 61.8491 -1.88257 0.746017 0
M  V30 638 C 62.1771 -1.80429 -0.726331 0
M  V30 639 O 61.4321 -1.2 -1.54591 0
M  V30 640 C 61.7311 -3.38082 1.15911 0
M  V30 641 C 61.3971 -3.66114 2.63195 0
M  V30 642 C 60.0591 -3.73474 3.03432 0
M  V30 643 C 62.4111 -3.78398 3.5842 0
M  V30 644 C 59.7391 -3.90599 4.37778 0
M  V30 645 C 62.0911 -3.97039 4.92487 0
M  V30 646 C 60.7551 -4.02635 5.32392 0
M  V30 647 H 60.0251 -0.688883 0.272987 0
M  V30 648 H 62.6721 -1.3995 1.30715 0
M  V30 649 H 60.9771 -3.88377 0.516806 0
M  V30 650 H 62.6741 -3.90596 0.907516 0
M  V30 651 H 59.2641 -3.61003 2.3103 0
M  V30 652 H 63.4481 -3.72042 3.28479 0
M  V30 653 H 58.7041 -3.93175 4.68213 0
M  V30 654 H 62.8781 -4.05486 5.66175 0
M  V30 655 H 60.5051 -4.15657 6.36501 0
M  V30 656 N 62.0802 -0.821533 -1.34494 0
M  V30 657 C 63.0122 -0.199946 -2.28326 0
M  V30 658 C 64.0252 0.609377 -1.50965 0
M  V30 659 O 65.2142 0.439285 -1.7301 0
M  V30 660 C 62.3142 0.738431 -3.30757 0
M  V30 661 C 61.4872 -0.0277632 -4.37391 0
M  V30 662 C 60.5462 0.831332 -5.19591 0
M  V30 663 O 59.5722 0.276822 -5.68526 0
M  V30 664 N 60.7742 2.15132 -5.39165 0
M  V30 665 H 63.5392 -1.00609 -2.82308 0
M  V30 666 H 61.1002 -0.678366 -1.47003 0
M  V30 667 H 63.0922 1.31773 -3.82646 0
M  V30 668 H 61.6622 1.44533 -2.7718 0
M  V30 669 H 60.8822 -0.788359 -3.86236 0
M  V30 670 H 62.1702 -0.555251 -5.05761 0
M  V30 671 H 61.5682 2.62559 -5.01078 0
M  V30 672 H 60.1252 2.6795 -5.94177 0
M  V30 673 N 63.5583 1.46682 -0.576371 0
M  V30 674 C 64.9743 1.57822 -0.237562 0
M  V30 675 C 65.1743 1.57237 1.26011 0
M  V30 676 O 64.2303 1.48596 2.04146 0
M  V30 677 C 65.5433 2.87499 -0.881168 0
M  V30 678 C 67.0913 3.01119 -0.85417 0
M  V30 679 C 67.5663 4.33524 -1.4772 0
M  V30 680 N 69.0573 4.40207 -1.44125 0
M  V30 681 C 69.7923 5.4126 -1.89276 0
M  V30 682 N 69.2883 6.49021 -2.42371 0
M  V30 683 N 71.0813 5.32422 -1.80231 0
M  V30 684 H 63.2323 1.45306 -1.54919 0
M  V30 685 H 65.4953 0.692733 -0.647167 0
M  V30 686 H 65.2013 2.9372 -1.93447 0
M  V30 687 H 65.0753 3.75224 -0.385592 0
M  V30 688 H 67.4623 2.94485 0.190491 0
M  V30 689 H 67.5433 2.14887 -1.3877 0
M  V30 690 H 67.1873 4.40916 -2.52103 0
M  V30 691 H 67.1173 5.1852 -0.918947 0
M  V30 692 H 69.6083 3.62931 -1.05307 0
M  V30 693 H 69.9213 7.2233 -2.74698 0
M  V30 694 H 68.2663 6.49858 -2.46393 0
M  V30 695 H 71.4573 4.47137 -1.38514 0
M  V30 696 H 71.6303 6.11034 -2.15735 0
M  V30 697 N 65.0364 0.313813 1.54444 0
M  V30 698 C 66.2644 -0.293918 2.04802 0
M  V30 699 C 66.6794 -1.46537 1.19047 0
M  V30 700 O 66.0364 -1.81182 0.218939 0
M  V30 701 C 66.0874 -0.737806 3.53891 0
M  V30 702 O 65.8084 0.387038 4.36387 0
M  V30 703 C 67.3094 -1.40936 4.203 0
M  V30 704 H 64.5294 -0.0620057 0.668129 0
M  V30 705 H 67.0734 0.457169 1.99324 0
M  V30 706 H 65.2284 -1.43889 3.59687 0
M  V30 707 H 65.6424 0.0391274 5.24485 0
M  V30 708 H 67.1164 -1.67099 5.26101 0
M  V30 709 H 67.5934 -2.35355 3.70816 0
M  V30 710 H 68.1994 -0.751117 4.18615 0
M  V30 711 N 66.5145 -1.57545 0.0417849 0
M  V30 712 C 67.7625 -1.91937 -0.632829 0
M  V30 713 C 68.0835 -0.919978 -1.71934 0
M  V30 714 O 67.3535 0.0366064 -1.95866 0
M  V30 715 H 65.9335 -0.708493 -0.236742 0
M  V30 716 H 68.5955 -1.9468 0.0925745 0
M  V30 717 H 67.6915 -2.92912 -1.07746 0
M  V30 718 N 67.9926 0.231505 -1.5589 0
M  V30 719 C 69.2206 0.974505 -1.82513 0
M  V30 720 C 69.6356 1.78344 -0.619591 0
M  V30 721 O 68.9926 1.77792 0.411848 0
M  V30 722 C 69.0436 1.90007 -3.07538 0
M  V30 723 O 68.7646 1.12385 -4.2344 0
M  V30 724 C 70.2656 2.75779 -3.47075 0
M  V30 725 H 67.4856 0.286065 -0.606966 0
M  V30 726 H 70.0296 0.249739 -2.02969 0
M  V30 727 H 68.1846 2.57891 -2.89086 0
M  V30 728 H 68.5986 1.75125 -4.944 0
M  V30 729 H 70.0726 3.36443 -4.37619 0
M  V30 730 H 70.5496 3.47672 -2.68367 0
M  V30 731 H 71.1556 2.13323 -3.67931 0
M  V30 732 N 69.4707 1.49531 0.497807 0
M  V30 733 C 70.4007 1.6935 1.60757 0
M  V30 734 C 71.3817 0.542218 1.61227 0
M  V30 735 O 72.5667 0.778417 1.77917 0
M  V30 736 C 69.6967 1.76298 2.99226 0
M  V30 737 C 68.6507 2.91248 3.13622 0
M  V30 738 C 67.9767 2.83312 4.53474 0
M  V30 739 C 69.2767 4.3214 2.93346 0
M  V30 740 H 70.9707 2.62263 1.44425 0
M  V30 741 H 68.5167 1.26208 0.693367 0
M  V30 742 H 70.4697 1.88749 3.76765 0
M  V30 743 H 69.1937 0.799871 3.16654 0
M  V30 744 H 67.8527 2.78404 2.38509 0
M  V30 745 H 67.5007 1.84902 4.67782 0
M  V30 746 H 67.2007 3.60465 4.64046 0
M  V30 747 H 68.7247 2.97775 5.33069 0
M  V30 748 H 70.1387 4.45649 3.60652 0
M  V30 749 H 68.5357 5.1054 3.15387 0
M  V30 750 H 69.6057 4.46363 1.89441 0
M  V30 751 N 70.9488 -0.749086 1.3866 0
M  V30 752 C 71.9118 -1.84457 1.36045 0
M  V30 753 C 72.9118 -1.58682 0.260122 0
M  V30 754 O 74.1018 -1.66343 0.517261 0
M  V30 755 C 71.2338 -3.22008 1.11911 0
M  V30 756 H 72.4268 -1.88182 2.33512 0
M  V30 757 H 69.9798 -0.951266 1.24019 0
M  V30 758 H 70.7148 -3.2395 0.150686 0
M  V30 759 H 70.4998 -3.42111 1.91579 0
M  V30 760 H 71.9898 -4.0208 1.12788 0
M  V30 761 N 72.4269 -1.23603 -0.977757 0
M  V30 762 C 73.6739 -1.06971 -1.71941 0
M  V30 763 C 74.0019 0.393009 -1.90488 0
M  V30 764 O 73.2569 1.30719 -1.4564 0
M  V30 765 C 73.5559 -1.7433 -3.11999 0
M  V30 766 C 73.2219 -3.24252 -3.13323 0
M  V30 767 C 71.8839 -3.65156 -3.13392 0
M  V30 768 C 74.2359 -4.20141 -3.08433 0
M  V30 769 C 71.5639 -5.00403 -3.0629 0
M  V30 770 C 73.9159 -5.55384 -3.02873 0
M  V30 771 C 72.5799 -5.95647 -3.01265 0
M  V30 772 H 71.8499 -0.391433 -0.629175 0
M  V30 773 H 74.4969 -1.53572 -1.14403 0
M  V30 774 H 72.8019 -1.20096 -3.7294 0
M  V30 775 H 74.4989 -1.58936 -3.68158 0
M  V30 776 H 71.0889 -2.91692 -3.14029 0
M  V30 777 H 75.2729 -3.89547 -3.07517 0
M  V30 778 H 70.5289 -5.3081 -3.03399 0
M  V30 779 H 74.7029 -6.29398 -2.98046 0
M  V30 780 H 72.3299 -7.0041 -2.95516 0
M  V30 781 N 73.905 1.17692 -1.04816 0
M  V30 782 C 74.815 2.25229 -0.65643 0
M  V30 783 C 75.831 1.71018 0.320761 0
M  V30 784 O 77.007 2.00649 0.173805 0
M  V30 785 C 74.072 3.46684 -0.0332629 0
M  V30 786 C 73.133 4.15997 -1.06042 0
M  V30 787 C 72.366 5.31654 -0.466893 0
M  V30 788 O 72.589 5.65777 0.724758 0
M  V30 789 O 71.523 5.89831 -1.1993 0
M  V30 790 H 75.349 2.61016 -1.55255 0
M  V30 791 H 72.934 1.24919 -0.81949 0
M  V30 792 H 74.816 4.20234 0.313256 0
M  V30 793 H 73.491 3.12703 0.836566 0
M  V30 794 H 72.398 3.44482 -1.45886 0
M  V30 795 H 73.731 4.53996 -1.90127 0
M  V30 796 N 75.3831 0.828654 1.34056 0
M  V30 797 C 76.7991 0.515135 1.51058 0
M  V30 798 C 76.9991 -0.959581 1.77184 0
M  V30 799 O 76.0551 -1.74382 1.82612 0
M  V30 800 C 77.3681 1.37963 2.67183 0
M  V30 801 C 78.9161 1.37735 2.81066 0
M  V30 802 C 79.3911 2.22645 4.00241 0
M  V30 803 N 80.8821 2.203 4.07458 0
M  V30 804 C 81.6171 2.82744 4.98842 0
M  V30 805 N 81.1131 3.54201 5.9541 0
M  V30 806 N 82.9061 2.72268 4.91759 0
M  V30 807 H 75.0571 1.78343 1.15358 0
M  V30 808 H 77.3201 0.760304 0.566252 0
M  V30 809 H 77.0261 2.42714 2.54525 0
M  V30 810 H 76.9001 1.0484 3.62338 0
M  V30 811 H 79.2871 0.337593 2.93163 0
M  V30 812 H 79.3681 1.74859 1.86703 0
M  V30 813 H 79.0121 3.26674 3.88905 0
M  V30 814 H 78.9421 1.82869 4.93829 0
M  V30 815 H 81.4331 1.68327 3.38341 0
M  V30 816 H 81.7461 3.9908 6.61782 0
M  V30 817 H 80.0911 3.58308 5.95517 0
M  V30 818 H 83.2821 2.16014 4.15278 0
M  V30 819 H 83.4551 3.21219 5.62781 0
M  V30 820 N 76.8612 -1.46375 0.584142 0
M  V30 821 C 78.1072 -2.02678 0.0703716 0
M  V30 822 C 78.4402 -1.4545 -1.28678 0
M  V30 823 O 77.7152 -0.62014 -1.84349 0
M  V30 824 C 77.9982 -3.60099 0.00614674 0
M  V30 825 C 77.8512 -4.27709 1.3923 0
M  V30 826 C 79.1702 -4.34598 -0.693742 0
M  V30 827 H 76.2892 -0.736504 0.027047 0
M  V30 828 H 78.9312 -1.74501 0.751615 0
M  V30 829 H 77.0812 -3.84236 -0.574009 0
M  V30 830 H 78.7532 -4.14832 2.01773 0
M  V30 831 H 76.9962 -3.87016 1.95962 0
M  V30 832 H 77.6672 -5.36478 1.29982 0
M  V30 833 H 80.1432 -4.15615 -0.200869 0
M  V30 834 H 79.0192 -5.44318 -0.707714 0
M  V30 835 H 79.2802 -4.05759 -1.75533 0
M  V30 836 N 78.3393 -0.321999 -1.54275 0
M  V30 837 C 79.5693 0.282642 -2.04658 0
M  V30 838 C 79.9773 1.46453 -1.19784 0
M  V30 839 O 79.3203 1.82367 -0.220932 0
M  V30 840 C 79.3823 0.781857 -3.50895 0
M  V30 841 C 79.0463 -0.277517 -4.56157 0
M  V30 842 C 80.0433 -1.11307 -5.07845 0
M  V30 843 C 77.7283 -0.425256 -5.00497 0
M  V30 844 C 79.7223 -2.08211 -6.02434 0
M  V30 845 C 77.4093 -1.39771 -5.94901 0
M  V30 846 C 78.4073 -2.2246 -6.45756 0
M  V30 847 O 78.0953 -3.18054 -7.38307 0
M  V30 848 H 77.8273 0.0622636 -0.673126 0
M  V30 849 H 80.3813 -0.465792 -2.00049 0
M  V30 850 H 78.6113 1.58118 -3.52896 0
M  V30 851 H 80.3003 1.30467 -3.84361 0
M  V30 852 H 81.0663 -1.00991 -4.74369 0
M  V30 853 H 76.9453 0.20847 -4.60528 0
M  V30 854 H 80.4893 -2.72791 -6.42052 0
M  V30 855 H 76.3863 -1.50152 -6.27794 0
M  V30 856 H 77.1543 -3.13275 -7.56175 0
M  V30 857 N 79.8174 1.5752 -0.0501392 0
M  V30 858 C 81.0454 1.96963 0.633492 0
M  V30 859 C 81.4604 0.927631 1.6444 0
M  V30 860 O 80.8174 -0.0882665 1.82286 0
M  V30 861 C 80.8684 3.36487 1.32132 0
M  V30 862 O 80.5894 4.36693 0.350894 0
M  V30 863 C 82.0904 3.90682 2.09481 0
M  V30 864 H 79.3104 0.648244 0.173266 0
M  V30 865 H 81.8544 2.0417 -0.116134 0
M  V30 866 H 80.0094 3.30434 2.02218 0
M  V30 867 H 80.4234 5.17702 0.841735 0
M  V30 868 H 81.8974 4.90591 2.5303 0
M  V30 869 H 82.3744 3.26053 2.94255 0
M  V30 870 H 82.9804 4.00069 1.44307 0
M  V30 871 N 81.2955 -0.223234 1.56011 0
M  V30 872 C 82.2585 -1.26014 1.9145 0
M  V30 873 C 83.2585 -1.3989 0.792937 0
M  V30 874 O 84.4485 -1.38184 1.0607 0
M  V30 875 C 81.5805 -2.63422 2.16383 0
M  V30 876 H 82.7735 -0.95796 2.84189 0
M  V30 877 H 80.3265 -0.463576 1.49267 0
M  V30 878 H 81.0615 -2.98741 1.2619 0
M  V30 879 H 80.8465 -2.54728 2.98088 0
M  V30 880 H 82.3365 -3.38249 2.44903 0
M  V30 881 N 82.7736 -1.49793 -0.48987 0
M  V30 882 C 83.7216 -1.67783 -1.61095 0
M  V30 883 C 84.7156 -0.543683 -1.60438 0
M  V30 884 O 85.9216 -0.723647 -1.64813 0
M  V30 885 H 82.2966 -0.529255 -0.534222 0
M  V30 886 H 84.2676 -2.61861 -1.43078 0
M  V30 887 C 83.0166 -1.77191 -2.99164 0
M  V30 888 H 82.3396 -2.63841 -3.0038 0
M  V30 889 H 83.7796 -1.93809 -3.77113 0
M  V30 890 C 82.2386 -0.519203 -3.32875 0
M  V30 891 O 82.7686 0.350124 -4.00171 0
M  V30 892 N 80.9746 -0.378816 -2.8812 0
M  V30 893 H 80.5216 -1.08725 -2.33531 0
M  V30 894 H 80.4796 0.458239 -3.11043 0
M  V30 895 N 84.2517 0.741722 -1.39055 0
M  V30 896 C 85.1837 1.8657 -1.33133 0
M  V30 897 C 86.1967 1.61001 -0.241329 0
M  V30 898 O 87.3857 1.7136 -0.499784 0
M  V30 899 C 84.4857 3.22457 -1.04283 0
M  V30 900 C 83.6587 3.75435 -2.24427 0
M  V30 901 C 82.7177 4.89867 -1.92138 0
M  V30 902 O 81.7437 5.03879 -2.64754 0
M  V30 903 N 82.9457 5.73738 -0.88347 0
M  V30 904 H 85.7107 1.92156 -2.29991 0
M  V30 905 H 83.2717 0.922172 -1.3307 0
M  V30 906 H 85.2637 3.9657 -0.807128 0
M  V30 907 H 83.8337 3.12181 -0.161807 0
M  V30 908 H 83.0537 2.92751 -2.6399 0
M  V30 909 H 84.3417 4.07563 -3.04581 0
M  V30 910 H 83.7397 5.64999 -0.281517 0
M  V30 911 H 82.2967 6.47947 -0.707662 0
M  V30 912 N 85.7298 1.2412 0.971189 0
M  V30 913 C 86.6778 1.02812 2.08644 0
M  V30 914 C 87.6718 -0.0358403 1.69362 0
M  V30 915 O 88.8778 0.118429 1.7961 0
M  V30 916 H 85.2528 0.315428 0.682649 0
M  V30 917 H 87.2238 1.97397 2.23779 0
M  V30 918 C 85.9728 0.645874 3.41649 0
M  V30 919 H 85.2958 1.45632 3.72332 0
M  V30 920 H 86.7358 0.536366 4.20594 0
M  V30 921 C 85.1948 -0.646713 3.30635 0
M  V30 922 O 85.7248 -1.69338 3.64263 0
M  V30 923 N 83.9308 -0.626115 2.83775 0
M  V30 924 H 83.4778 0.225988 2.56607 0
M  V30 925 H 83.4358 -1.49117 2.76788 0
M  V30 926 N 87.2079 -1.17134 1.05439 0
M  V30 927 C 88.4479 -1.89137 0.77502 0
M  V30 928 C 88.8119 -1.79345 -0.685526 0
M  V30 929 O 90.0129 -2.46188 -1.0791 0
M  V30 930 C 88.2839 -3.35003 1.2453 0
M  V30 931 S 89.8429 -4.24952 1.09367 0
M  V30 932 H 86.6609 -0.652949 0.281387 0
M  V30 933 H 89.2629 -1.4145 1.34953 0
M  V30 934 H 87.9669 -3.39666 2.30338 0
M  V30 935 H 87.4979 -3.87736 0.665166 0
M  V30 936 H 89.5129 -4.96196 0.0193397 0
M  V30 937 N 88.686 -0.835752 -1.33615 0
M  V30 938 C 89.932 -0.430596 -1.98176 0
M  V30 939 C 90.265 1.00684 -1.66061 0
M  V30 940 O 89.54 1.70339 -0.938877 0
M  V30 941 C 89.823 -0.648065 -3.5422 0
M  V30 942 C 89.676 -2.13255 -3.96033 0
M  V30 943 C 90.995 -0.0922113 -4.40003 0
M  V30 944 H 88.114 -0.157924 -0.719881 0
M  V30 945 H 90.756 -1.05069 -1.58305 0
M  V30 946 H 88.906 -0.120237 -3.88314 0
M  V30 947 H 90.578 -2.725 -3.72211 0
M  V30 948 H 88.821 -2.61823 -3.45878 0
M  V30 949 H 89.492 -2.23547 -5.04708 0
M  V30 950 H 91.968 -0.543343 -4.12537 0
M  V30 951 H 90.844 -0.274083 -5.48215 0
M  V30 952 H 91.105 1.00378 -4.30554 0
M  V30 953 N 90.1641 1.46063 -0.591896 0
M  V30 954 C 91.4411 1.95595 -0.0137119 0
M  V30 955 C 91.8211 1.5345 1.4497 0
M  V30 956 O 91.1691 0.789543 2.14426 0
M  V30 957 C 91.3791 3.48453 -0.195373 0
M  V30 958 C 92.7271 4.24546 -0.0679765 0
M  V30 959 O 93.7511 3.55982 -0.124681 0
M  V30 960 O 92.6101 5.46467 0.0600579 0
M  V30 961 H 89.7041 0.825795 0.0446279 0
M  V30 962 H 92.2501 1.56303 -0.660859 0
M  V30 963 H 91.0221 3.72045 -1.21235 0
M  V30 964 H 90.6451 3.94597 0.487775 0
M  V30 965 N 91.6422 0.330177 1.54103 0
M  V30 966 C 92.6052 -0.520144 2.2322 0
M  V30 967 C 93.6052 -1.03828 1.22786 0
M  V30 968 O 94.7952 -0.929652 1.4732 0
M  V30 969 C 91.9272 -1.72317 2.94142 0
M  V30 970 H 93.1202 0.0841605 2.99782 0
M  V30 971 H 90.6732 0.0813433 1.56088 0
M  V30 972 H 91.4082 -2.36653 2.21734 0
M  V30 973 H 91.1932 -1.35898 3.67796 0
M  V30 974 H 92.6832 -2.3266 3.46784 0
M  V30 975 N 93.1203 -1.57491 0.0584922 0
M  V30 976 C 94.3503 -1.9701 -0.622134 0
M  V30 977 C 94.7583 -0.935034 -1.6448 0
M  V30 978 O 94.1013 0.0882904 -1.83488 0
M  V30 979 C 94.1633 -3.32794 -1.35972 0
M  V30 980 C 93.8273 -4.54343 -0.492043 0
M  V30 981 C 94.8243 -5.19323 0.244901 0
M  V30 982 C 92.5093 -5.00534 -0.420821 0
M  V30 983 C 94.5033 -6.28835 1.04143 0
M  V30 984 C 92.1903 -6.09921 0.379389 0
M  V30 985 C 93.1883 -6.73933 1.10919 0
M  V30 986 O 92.8763 -7.81216 1.89623 0
M  V30 987 H 92.6083 -0.653127 -0.174359 0
M  V30 988 H 95.1623 -2.05029 0.123418 0
M  V30 989 H 93.3923 -3.21351 -2.15105 0
M  V30 990 H 95.0813 -3.5701 -1.93129 0
M  V30 991 H 95.8473 -4.8459 0.19939 0
M  V30 992 H 91.7263 -4.50496 -0.978474 0
M  V30 993 H 95.2703 -6.7873 1.61157 0
M  V30 994 H 91.1673 -6.44089 0.426512 0
M  V30 995 H 91.9353 -7.98029 1.81913 0
M  V30 996 N 94.5984 0.214957 -1.56127 0
M  V30 997 C 96.0094 0.781386 -1.69562 0
M  V30 998 C 96.3604 1.84707 -0.66165 0
M  V30 999 O 95.4854 2.156 0.185927 0
M  V30 1000 C 96.0804 1.42411 -3.07416 0
M  V30 1001 C 94.6394 1.93786 -3.22683 0
M  V30 1002 C 93.7864 0.800438 -2.65496 0
M  V30 1003 H 96.7374 -0.00980633 -1.58697 0
M  V30 1004 H 96.7584 2.29309 -3.0364 0
M  V30 1005 H 96.2704 0.64826 -3.82648 0
M  V30 1006 H 94.3714 2.74152 -2.52332 0
M  V30 1007 H 94.4844 2.1133 -4.29973 0
M  V30 1008 H 92.8484 1.2095 -2.2415 0
M  V30 1009 H 93.6314 0.0371471 -3.4328 0
M  V30 1010 N 96.0765 1.50051 0.48192 0
M  V30 1011 C 97.3045 1.64237 1.25832 0
M  V30 1012 C 97.7195 0.321336 1.86045 0
M  V30 1013 O 97.0765 -0.695478 1.68729 0
M  V30 1014 C 97.1275 2.72548 2.37487 0
M  V30 1015 O 96.8485 3.99529 1.79745 0
M  V30 1016 C 98.3495 2.9761 3.28547 0
M  V30 1017 H 95.5695 0.55237 0.380957 0
M  V30 1018 H 98.1135 1.96207 0.576467 0
M  V30 1019 H 96.2685 2.43303 3.01467 0
M  V30 1020 H 96.6825 4.59342 2.5319 0
M  V30 1021 H 98.1565 3.77084 4.03127 0
M  V30 1022 H 98.6335 2.0826 3.86684 0
M  V30 1023 H 99.2395 3.28345 2.70314 0
M  V30 1024 N 97.5546 -0.734337 1.39446 0
M  V30 1025 C 98.8016 -1.49391 1.36706 0
M  V30 1026 C 99.1296 -1.94465 -0.0367813 0
M  V30 1027 O 98.3846 -1.67154 -1.01774 0
M  V30 1028 C 98.6836 -2.74711 2.28623 0
M  V30 1029 C 98.3496 -2.48501 3.76242 0
M  V30 1030 C 97.0116 -2.41062 4.16464 0
M  V30 1031 C 99.3636 -2.26098 4.69606 0
M  V30 1032 C 96.6916 -2.09262 5.48112 0
M  V30 1033 C 99.0436 -1.95814 6.01531 0
M  V30 1034 C 97.7076 -1.86845 6.40816 0
M  V30 1035 H 96.9776 -0.546661 0.500243 0
M  V30 1036 H 99.6246 -0.842788 1.71957 0
M  V30 1037 H 97.9296 -3.44569 1.86492 0
M  V30 1038 H 99.6266 -3.32741 2.23796 0
M  V30 1039 H 96.2166 -2.55169 3.44364 0
M  V30 1040 H 100.401 -2.30812 4.39363 0
M  V30 1041 H 95.6566 -2.00841 5.77471 0
M  V30 1042 H 99.8306 -1.77488 6.73403 0
M  V30 1043 H 97.4576 -1.6197 7.42745 0
M  V30 1044 N 99.0327 -1.24633 -0.964593 0
M  V30 1045 C 99.9627 -1.06611 -2.07741 0
M  V30 1046 C 100.944 0.0218666 -1.70086 0
M  V30 1047 O 102.129 -0.145793 -1.93652 0
M  V30 1048 C 99.2587 -0.673444 -3.40708 0
M  V30 1049 C 98.2127 -1.71054 -3.92332 0
M  V30 1050 C 97.5387 -1.17285 -5.21678 0
M  V30 1051 C 98.8387 -3.10718 -4.19824 0
M  V30 1052 H 100.533 -1.99693 -2.23076 0
M  V30 1053 H 98.0787 -0.96152 -1.07195 0
M  V30 1054 H 100.032 -0.534345 -4.17998 0
M  V30 1055 H 98.7557 0.293073 -3.25282 0
M  V30 1056 H 97.4147 -1.83791 -3.17201 0
M  V30 1057 H 97.0627 -0.196847 -5.02615 0
M  V30 1058 H 96.7627 -1.86592 -5.57187 0
M  V30 1059 H 98.2867 -1.04593 -6.01575 0
M  V30 1060 H 99.7007 -3.01192 -4.87808 0
M  V30 1061 H 98.0977 -3.77406 -4.66567 0
M  V30 1062 H 99.1677 -3.58524 -3.26479 0
M  V30 1063 N 100.511 1.16574 -1.06058 0
M  V30 1064 C 101.474 2.19085 -0.673392 0
M  V30 1065 C 102.474 1.5835 0.279648 0
M  V30 1066 O 103.664 1.74088 0.0623488 0
M  V30 1067 C 100.796 3.40899 0.00954234 0
M  V30 1068 H 101.989 2.54853 -1.58081 0
M  V30 1069 H 99.5418 1.30808 -0.855516 0
M  V30 1070 H 100.277 3.10684 0.929826 0
M  V30 1071 H 100.062 3.86233 -0.67573 0
M  V30 1072 H 101.552 4.1675 0.266245 0
M  V30 1073 N 101.989 0.842826 1.3317 0
M  V30 1074 C 103.235 0.441099 1.97945 0
M  V30 1075 C 103.568 -0.998024 1.66593 0
M  V30 1076 O 102.843 -1.69839 0.947898 0
M  V30 1077 C 103.126 0.666841 3.53872 0
M  V30 1078 C 102.979 2.15352 3.94897 0
M  V30 1079 C 104.298 0.115544 4.39948 0
M  V30 1080 H 101.417 0.161739 0.719034 0
M  V30 1081 H 104.059 1.05907 1.57746 0
M  V30 1082 H 102.209 0.140828 3.88245 0
M  V30 1083 H 103.881 2.7447 3.70761 0
M  V30 1084 H 102.124 2.63653 3.44484 0
M  V30 1085 H 102.795 2.26221 5.03516 0
M  V30 1086 H 105.271 0.565213 4.12243 0
M  V30 1087 H 104.147 0.303152 5.48062 0
M  V30 1088 H 104.408 -0.980935 4.3108 0
M  V30 1089 N 103.467 -1.45747 0.599634 0
M  V30 1090 C 104.397 -2.33235 -0.111306 0
M  V30 1091 C 105.378 -1.46359 -0.866781 0
M  V30 1092 O 106.563 -1.75146 -0.838904 0
M  V30 1093 C 103.693 -3.28932 -1.11451 0
M  V30 1094 C 102.647 -4.25381 -0.472772 0
M  V30 1095 C 101.973 -5.1071 -1.58365 0
M  V30 1096 C 103.273 -5.18831 0.600948 0
M  V30 1097 H 104.967 -2.92927 0.61919 0
M  V30 1098 H 102.513 -1.40857 0.299215 0
M  V30 1099 H 104.466 -3.89002 -1.62036 0
M  V30 1100 H 103.19 -2.67381 -1.8755 0
M  V30 1101 H 101.849 -3.66598 0.0121472 0
M  V30 1102 H 101.497 -4.45533 -2.33473 0
M  V30 1103 H 101.197 -5.7604 -1.15982 0
M  V30 1104 H 102.721 -5.73647 -2.09194 0
M  V30 1105 H 104.135 -5.73019 0.179491 0
M  V30 1106 H 102.532 -5.92595 0.946076 0
M  V30 1107 H 103.602 -4.6174 1.48068 0
M  V30 1108 N 104.945 -0.338344 -1.53925 0
M  V30 1109 C 106.191 0.252842 -2.01822 0
M  V30 1110 C 106.546 1.48612 -1.22197 0
M  V30 1111 O 105.839 1.89238 -0.299892 0
M  V30 1112 C 106.033 0.62448 -3.51902 0
M  V30 1113 C 105.862 -0.571235 -4.46057 0
M  V30 1114 C 104.632 -1.07493 -4.93734 0
M  V30 1115 C 106.83 -1.42807 -4.94076 0
M  V30 1116 N 104.812 -2.23351 -5.71828 0
M  V30 1117 C 106.183 -2.43362 -5.70241 0
M  V30 1118 C 108.238 -1.45412 -4.76193 0
M  V30 1119 C 106.941 -3.46346 -6.30426 0
M  V30 1120 C 108.967 -2.47274 -5.37224 0
M  V30 1121 C 108.329 -3.46555 -6.13253 0
M  V30 1122 H 104.428 0.0559669 -0.779995 0
M  V30 1123 H 107.012 -0.476732 -1.88773 0
M  V30 1124 H 105.183 1.32317 -3.65167 0
M  V30 1125 H 106.915 1.19841 -3.86549 0
M  V30 1126 H 103.67 -0.643848 -4.69203 0
M  V30 1127 H 104.094 -2.81834 -6.15548 0
M  V30 1128 H 108.736 -0.700171 -4.16962 0
M  V30 1129 H 106.454 -4.22638 -6.88769 0
M  V30 1130 H 110.04 -2.50109 -5.25297 0
M  V30 1131 H 108.92 -4.24083 -6.59638 0
M  V30 1132 N 106.423 1.57458 -0.0668435 0
M  V30 1133 C 107.648 1.9804 0.616027 0
M  V30 1134 C 108.073 0.944771 1.62652 0
M  V30 1135 O 107.431 -0.0902094 1.81075 0
M  V30 1136 C 107.479 3.37665 1.26549 0
M  V30 1137 O 106.583 3.36701 2.38131 0
M  V30 1138 H 105.924 0.644719 0.158849 0
M  V30 1139 H 108.454 2.04121 -0.139891 0
M  V30 1140 H 108.464 3.7474 1.6135 0
M  V30 1141 H 107.139 4.12573 0.525016 0
M  V30 1142 H 105.716 3.1139 2.0516 0
M  V30 1143 N 107.901 -0.206675 1.56239 0
M  V30 1144 C 108.864 -1.23976 1.92776 0
M  V30 1145 C 109.864 -1.39041 0.807729 0
M  V30 1146 O 111.054 -1.37051 1.0753 0
M  V30 1147 C 108.186 -2.61112 2.19165 0
M  V30 1148 H 109.379 -0.927764 2.85189 0
M  V30 1149 H 106.932 -0.447718 1.4975 0
M  V30 1150 H 107.667 -2.97386 1.29352 0
M  V30 1151 H 107.452 -2.51552 3.00772 0
M  V30 1152 H 108.942 -3.35633 2.48476 0
M  V30 1153 N 109.379 -1.50304 -0.473955 0
M  V30 1154 C 110.627 -1.60832 -1.22382 0
M  V30 1155 C 110.948 -0.30939 -1.9253 0
M  V30 1156 O 110.218 0.67296 -1.83978 0
M  V30 1157 H 108.798 -0.592652 -0.454723 0
M  V30 1158 H 111.46 -1.87068 -0.546968 0
M  V30 1159 H 110.556 -2.41803 -1.97327 0
M  V30 1160 N 110.857 0.726932 -1.39834 0
M  V30 1161 C 111.787 1.85405 -1.41941 0
M  V30 1162 C 112.768 1.67751 -0.281728 0
M  V30 1163 O 113.953 1.8795 -0.488717 0
M  V30 1164 C 111.083 3.23243 -1.2701 0
M  V30 1165 C 110.037 3.55549 -2.38262 0
M  V30 1166 C 109.363 4.9241 -2.08415 0
M  V30 1167 C 110.663 3.577 -3.80589 0
M  V30 1168 H 112.357 1.83899 -2.36266 0
M  V30 1169 H 109.903 0.883349 -1.13723 0
M  V30 1170 H 111.856 4.01775 -1.27103 0
M  V30 1171 H 110.58 3.25296 -0.291564 0
M  V30 1172 H 109.239 2.79351 -2.37399 0
M  V30 1173 H 108.887 4.91052 -1.0898 0
M  V30 1174 H 108.587 5.14992 -2.82943 0
M  V30 1175 H 110.111 5.73289 -2.10171 0
M  V30 1176 H 111.525 4.26293 -3.83337 0
M  V30 1177 H 109.922 3.91804 -4.54543 0
M  V30 1178 H 110.992 2.57328 -4.10987 0
M  V30 1179 N 112.336 1.25143 0.95797 0
M  V30 1180 C 113.266 1.07711 2.07173 0
M  V30 1181 C 114.247 -0.0128462 1.70095 0
M  V30 1182 O 115.432 0.156061 1.93572 0
M  V30 1183 C 112.562 0.691503 3.40346 0
M  V30 1184 C 111.516 1.73132 3.9142 0
M  V30 1185 C 110.842 1.20049 5.21049 0
M  V30 1186 C 112.142 3.1294 4.1817 0
M  V30 1187 H 113.836 2.00873 2.22014 0
M  V30 1188 H 111.382 0.967191 1.06684 0
M  V30 1189 H 113.335 0.556505 4.17709 0
M  V30 1190 H 112.059 -0.275819 3.25433 0
M  V30 1191 H 110.718 1.8547 3.16222 0
M  V30 1192 H 110.366 0.223499 5.02503 0
M  V30 1193 H 110.066 1.89545 5.56189 0
M  V30 1194 H 111.59 1.07782 6.01012 0
M  V30 1195 H 113.004 3.03775 4.86203 0
M  V30 1196 H 111.401 3.79875 4.64559 0
M  V30 1197 H 112.471 3.6025 3.24573 0
M  V30 1198 N 113.814 -1.1601 1.06675 0
M  V30 1199 C 115.054 -1.88304 0.795037 0
M  V30 1200 C 115.418 -1.80062 -0.666466 0
M  V30 1201 O 116.619 -2.47319 -1.05293 0
M  V30 1202 C 114.89 -3.33664 1.28076 0
M  V30 1203 S 116.449 -4.23768 1.13868 0
M  V30 1204 H 113.267 -0.649928 0.288296 0
M  V30 1205 H 115.869 -1.4001 1.36445 0
M  V30 1206 H 114.573 -3.37203 2.33927 0
M  V30 1207 H 114.104 -3.87009 0.706253 0
M  V30 1208 H 116.119 -4.96148 0.0719668 0
M  V30 1209 N 115.292 -0.849877 -1.32721 0
M  V30 1210 C 116.517 -0.463856 -2.02146 0
M  V30 1211 C 116.942 0.930449 -1.63476 0
M  V30 1212 O 116.3 1.61033 -0.832952 0
M  V30 1213 C 116.348 -0.604955 -3.55489 0
M  V30 1214 O 115.452 0.36425 -4.10788 0
M  V30 1215 H 114.793 -0.187046 -0.637111 0
M  V30 1216 H 117.323 -1.14775 -1.69375 0
M  V30 1217 H 117.333 -0.490696 -4.05038 0
M  V30 1218 H 116.008 -1.62174 -3.82978 0
M  V30 1219 H 114.585 0.206628 -3.72327 0
M  V30 1220 N 116.77 1.45427 -0.607355 0
M  V30 1221 C 117.702 2.2871 0.149752 0
M  V30 1222 C 118.715 1.39937 0.831958 0
M  V30 1223 O 119.904 1.64313 0.697385 0
M  V30 1224 C 117.004 3.15673 1.23304 0
M  V30 1225 C 116.177 4.32722 0.637996 0
M  V30 1226 C 115.236 5.00895 1.61215 0
M  V30 1227 O 114.262 5.57697 1.13854 0
M  V30 1228 N 115.464 5.00159 2.94655 0
M  V30 1229 H 118.229 2.94328 -0.564882 0
M  V30 1230 H 115.79 1.55612 -0.446823 0
M  V30 1231 H 117.782 3.58144 1.88454 0
M  V30 1232 H 116.352 2.51965 1.8502 0
M  V30 1233 H 115.572 3.93734 -0.191572 0
M  V30 1234 H 116.86 5.08321 0.220665 0
M  V30 1235 H 116.258 4.553 3.35735 0
M  V30 1236 H 114.815 5.46495 3.55228 0
M  V30 1237 N 118.248 0.346503 1.53744 0
M  V30 1238 C 119.494 -0.249473 2.0126 0
M  V30 1239 C 119.827 -1.49965 1.23386 0
M  V30 1240 O 119.102 -1.91811 0.32229 0
M  V30 1241 C 119.385 -0.560643 3.55709 0
M  V30 1242 C 119.238 0.701836 4.44291 0
M  V30 1243 C 120.557 -1.36905 4.18264 0
M  V30 1244 H 117.676 -0.0891987 0.731582 0
M  V30 1245 H 120.318 0.467624 1.84156 0
M  V30 1246 H 118.468 -1.17156 3.70414 0
M  V30 1247 H 120.14 1.33974 4.41417 0
M  V30 1248 H 118.383 1.32612 4.13033 0
M  V30 1249 H 119.054 0.43933 5.50249 0
M  V30 1250 H 121.53 -0.852448 4.07275 0
M  V30 1251 H 120.406 -1.55553 5.26398 0
M  V30 1252 H 120.667 -2.37203 3.73078 0
M  V30 1253 N 119.726 -1.57421 0.075193 0
M  V30 1254 C 121.137 -1.81021 -0.456964 0
M  V30 1255 C 121.488 -0.98936 -1.69429 0
M  V30 1256 O 120.613 -0.212865 -2.15351 0
M  V30 1257 C 121.208 -3.28329 -0.83581 0
M  V30 1258 C 119.767 -3.52764 -1.31281 0
M  V30 1259 C 118.914 -2.75676 -0.299648 0
M  V30 1260 H 121.865 -1.55822 0.300856 0
M  V30 1261 H 121.886 -3.40564 -1.69696 0
M  V30 1262 H 121.398 -3.88046 0.0649238 0
M  V30 1263 H 119.499 -2.98355 -2.23193 0
M  V30 1264 H 119.612 -4.61451 -1.28839 0
M  V30 1265 H 117.976 -2.42538 -0.777641 0
M  V30 1266 H 118.759 -3.38132 0.593417 0
M  V30 1267 N 121.204 0.198386 -1.56346 0
M  V30 1268 C 122.167 1.22952 -1.93431 0
M  V30 1269 C 123.167 1.38611 -0.815092 0
M  V30 1270 O 124.357 1.36479 -1.08255 0
M  V30 1271 C 121.489 2.59946 -2.20546 0
M  V30 1272 H 122.682 0.912626 -2.85677 0
M  V30 1273 H 120.235 0.43977 -1.49986 0
M  V30 1274 H 120.97 2.96696 -1.30927 0
M  V30 1275 H 120.755 2.49953 -3.02102 0
M  V30 1276 H 122.245 3.3431 -2.50253 0
M  V30 1277 N 122.682 1.50554 0.465978 0
M  V30 1278 C 123.645 1.69233 1.54574 0
M  V30 1279 C 124.645 0.562901 1.50626 0
M  V30 1280 O 125.835 0.830016 1.53155 0
M  V30 1281 C 122.967 1.7223 2.94193 0
M  V30 1282 H 124.16 2.65571 1.39327 0
M  V30 1283 H 121.713 1.40111 0.692711 0
M  V30 1284 H 122.448 0.77603 3.14878 0
M  V30 1285 H 122.233 2.54285 2.98466 0
M  V30 1286 H 123.723 1.88618 3.72576 0
M  V30 1287 N 124.16 -0.719506 1.40217 0
M  V30 1288 C 125.407 -1.47933 1.38283 0
M  V30 1289 C 125.735 -1.94493 -0.0161536 0
M  V30 1290 O 124.99 -1.68224 -0.999956 0
M  V30 1291 C 125.289 -2.72271 2.31524 0
M  V30 1292 C 124.955 -2.44496 3.78857 0
M  V30 1293 C 123.617 -2.36631 4.18998 0
M  V30 1294 C 125.969 -2.21104 4.71977 0
M  V30 1295 C 123.297 -2.03437 5.503 0
M  V30 1296 C 125.649 -1.89423 6.03574 0
M  V30 1297 C 124.313 -1.80038 6.42762 0
M  V30 1298 H 123.583 -0.541325 0.506012 0
M  V30 1299 H 126.23 -0.824502 1.72842 0
M  V30 1300 H 124.535 -3.42572 1.90137 0
M  V30 1301 H 126.232 -3.30348 2.27313 0
M  V30 1302 H 122.822 -2.51503 3.47051 0
M  V30 1303 H 127.006 -2.26139 4.41786 0
M  V30 1304 H 122.262 -1.94705 5.79569 0
M  V30 1305 H 126.436 -1.70336 6.75247 0
M  V30 1306 H 124.063 -1.54083 7.44421 0
M  V30 1307 N 125.638 -1.25649 -0.95132 0
M  V30 1308 C 126.601 -1.06399 -2.03007 0
M  V30 1309 C 127.601 -0.0156794 -1.60792 0
M  V30 1310 O 128.791 -0.25817 -1.72276 0
M  V30 1311 C 125.923 -0.616184 -3.35285 0
M  V30 1312 H 127.116 -2.02164 -2.21517 0
M  V30 1313 H 124.669 -1.08103 -1.12887 0
M  V30 1314 H 125.404 0.343917 -3.22471 0
M  V30 1315 H 125.189 -1.37301 -3.67275 0
M  V30 1316 H 126.679 -0.503032 -4.14559 0
M  V30 1317 N 127.117 1.15442 -1.07289 0
M  V30 1318 C 128.365 1.85845 -0.794096 0
M  V30 1319 C 128.686 1.82692 0.681809 0
M  V30 1320 O 127.956 1.26741 1.49377 0
M  V30 1321 H 126.536 0.688089 -0.290763 0
M  V30 1322 H 129.198 1.39947 -1.3565 0
M  V30 1323 H 128.294 2.91001 -1.12804 0
M  V30 1324 N 128.595 0.856903 1.32268 0
M  V30 1325 C 129.525 0.31858 2.31316 0
M  V30 1326 C 130.506 -0.583487 1.59779 0
M  V30 1327 O 131.691 -0.503259 1.87566 0
M  V30 1328 C 128.821 -0.491979 3.43798 0
M  V30 1329 C 127.775 0.315849 4.26833 0
M  V30 1330 C 127.101 -0.619586 5.31098 0
M  V30 1331 C 128.401 1.54282 4.98993 0
M  V30 1332 H 130.095 1.14621 2.76591 0
M  V30 1333 H 127.641 0.552613 1.32974 0
M  V30 1334 H 129.594 -0.879012 4.1213 0
M  V30 1335 H 128.318 -1.35299 2.97257 0
M  V30 1336 H 126.977 0.684664 3.6015 0
M  V30 1337 H 126.625 -1.47751 4.8081 0
M  V30 1338 H 126.325 -0.0830621 5.87541 0
M  V30 1339 H 127.849 -1.00375 6.02293 0
M  V30 1340 H 129.263 1.22796 5.59995 0
M  V30 1341 H 127.66 2.01745 5.65172 0
M  V30 1342 H 128.73 2.30285 4.26728 0
M  V30 1343 N 130.073 -1.45103 0.615059 0
M  V30 1344 C 131.006 -2.27717 -0.148408 0
M  V30 1345 C 131.984 -1.37584 -0.866572 0
M  V30 1346 O 133.168 -1.67017 -0.87393 0
M  V30 1347 C 130.295 -3.16136 -1.21557 0
M  V30 1348 C 129.341 -4.22263 -0.599712 0
M  V30 1349 S 130.174 -5.3215 0.598081 0
M  V30 1350 C 131.33 -6.24137 -0.469484 0
M  V30 1351 H 131.563 -2.92121 0.552483 0
M  V30 1352 H 129.096 -1.49054 0.402778 0
M  V30 1353 H 131.054 -3.67633 -1.82638 0
M  V30 1354 H 129.715 -2.50982 -1.88857 0
M  V30 1355 H 128.908 -4.84081 -1.4029 0
M  V30 1356 H 128.51 -3.73945 -0.063876 0
M  V30 1357 H 130.802 -6.63984 -1.34652 0
M  V30 1358 H 131.745 -7.0801 0.112725 0
M  V30 1359 H 132.153 -5.58971 -0.788168 0
M  V30 1360 N 131.551 -0.354651 -1.53558 0
M  V30 1361 C 132.781 0.239167 -2.05211 0
M  V30 1362 C 133.189 1.43879 -1.22863 0
M  V30 1363 O 132.532 1.81857 -0.259565 0
M  V30 1364 C 132.594 0.707251 -3.52474 0
M  V30 1365 C 132.258 -0.374212 -4.55465 0
M  V30 1366 C 133.255 -1.22054 -5.0537 0
M  V30 1367 C 130.94 -0.531323 -4.99482 0
M  V30 1368 C 132.934 -2.20942 -5.97882 0
M  V30 1369 C 130.621 -1.52358 -5.91802 0
M  V30 1370 C 131.619 -2.36108 -6.40892 0
M  V30 1371 O 131.307 -3.33643 -7.31394 0
M  V30 1372 H 131.039 0.0479716 -0.674296 0
M  V30 1373 H 133.593 -0.508121 -1.99016 0
M  V30 1374 H 131.823 1.50596 -3.56171 0
M  V30 1375 H 133.512 1.22285 -3.87042 0
M  V30 1376 H 134.278 -1.1103 -4.7212 0
M  V30 1377 H 130.157 0.110738 -4.60867 0
M  V30 1378 H 133.701 -2.86348 -6.36121 0
M  V30 1379 H 129.598 -1.63434 -6.24467 0
M  V30 1380 H 130.366 -3.29244 -7.4936 0
M  V30 1381 N 133.029 1.57378 -0.0835403 0
M  V30 1382 C 133.959 2.1641 0.87686 0
M  V30 1383 C 134.94 1.09429 1.30228 0
M  V30 1384 O 136.125 1.37516 1.37124 0
M  V30 1385 C 133.255 2.73517 2.14022 0
M  V30 1386 C 132.209 3.85769 1.85381 0
M  V30 1387 C 131.535 4.29529 3.18448 0
M  V30 1388 C 132.835 5.09486 1.14984 0
M  V30 1389 H 134.529 2.96914 0.385059 0
M  V30 1390 H 132.075 1.42823 0.18377 0
M  V30 1391 H 134.028 3.13463 2.81636 0
M  V30 1392 H 132.752 1.90252 2.65465 0
M  V30 1393 H 131.411 3.46345 1.20169 0
M  V30 1394 H 131.059 3.43169 3.67755 0
M  V30 1395 H 130.759 5.05204 3.00071 0
M  V30 1396 H 132.283 4.72099 3.8724 0
M  V30 1397 H 133.697 5.46674 1.72687 0
M  V30 1398 H 132.094 5.90515 1.06826 0
M  V30 1399 H 133.164 4.84724 0.130749 0
M  V30 1400 N 134.507 -0.190092 1.56449 0
M  V30 1401 C 135.754 -0.909705 1.80916 0
M  V30 1402 C 136.082 -1.83047 0.657583 0
M  V30 1403 O 135.337 -1.92428 -0.356356 0
M  V30 1404 C 135.636 -1.75382 3.1141 0
M  V30 1405 C 135.302 -0.983606 4.40041 0
M  V30 1406 C 133.964 -0.770967 4.74984 0
M  V30 1407 C 136.316 -0.442024 5.19322 0
M  V30 1408 C 133.644 -0.0053448 5.867 0
M  V30 1409 C 135.996 0.310412 6.31838 0
M  V30 1410 C 134.66 0.534023 6.6536 0
M  V30 1411 H 133.93 -0.332885 0.662019 0
M  V30 1412 H 136.577 -0.175762 1.90692 0
M  V30 1413 H 134.882 -2.55659 2.96893 0
M  V30 1414 H 136.579 -2.31331 3.27547 0
M  V30 1415 H 133.169 -1.15936 4.12622 0
M  V30 1416 H 137.353 -0.593693 4.92736 0
M  V30 1417 H 132.609 0.177825 6.11141 0
M  V30 1418 H 136.783 0.737419 6.92485 0
M  V30 1419 H 134.41 1.12918 7.51767 0
M  V30 1420 N 135.985 -1.50799 -0.457987 0
M  V30 1421 C 137.231 -1.62683 -1.21088 0
M  V30 1422 C 137.564 -0.332268 -1.91336 0
M  V30 1423 O 136.839 0.667043 -1.82704 0
M  V30 1424 C 137.122 -2.81615 -2.24422 0
M  V30 1425 C 136.975 -4.20989 -1.58392 0
M  V30 1426 C 138.294 -2.96085 -3.2561 0
M  V30 1427 H 135.413 -0.592087 -0.438864 0
M  V30 1428 H 138.055 -1.83225 -0.50286 0
M  V30 1429 H 136.205 -2.64231 -2.84806 0
M  V30 1430 H 137.877 -4.49994 -1.01504 0
M  V30 1431 H 136.12 -4.24641 -0.886704 0
M  V30 1432 H 136.791 -5.0016 -2.33547 0
M  V30 1433 H 139.267 -3.12042 -2.75262 0
M  V30 1434 H 138.143 -3.80902 -3.95228 0
M  V30 1435 H 138.404 -2.0726 -3.90507 0
M  V30 1436 N 137.463 0.71206 -1.40597 0
M  V30 1437 C 138.879 1.02058 -1.22704 0
M  V30 1438 C 139.079 2.01228 -0.104729 0
M  V30 1439 O 138.135 2.4674 0.53624 0
M  V30 1440 C 139.448 1.56094 -2.57012 0
M  V30 1441 C 140.996 1.6806 -2.64054 0
M  V30 1442 C 141.471 2.25501 -3.9864 0
M  V30 1443 N 142.962 2.32882 -4.004 0
M  V30 1444 C 143.697 2.78317 -5.01325 0
M  V30 1445 N 143.193 3.23478 -6.12645 0
M  V30 1446 N 144.986 2.77733 -4.88693 0
M  V30 1447 H 137.137 0.0547896 -2.12329 0
M  V30 1448 H 139.4 0.0869027 -0.944008 0
M  V30 1449 H 139.106 0.906865 -3.39807 0
M  V30 1450 H 138.98 2.54564 -2.78347 0
M  V30 1451 H 141.367 2.32583 -1.81629 0
M  V30 1452 H 141.448 0.681802 -2.46546 0
M  V30 1453 H 141.092 1.61598 -4.81506 0
M  V30 1454 H 141.022 3.26102 -4.13479 0
M  V30 1455 H 143.513 2.00991 -3.20017 0
M  V30 1456 H 143.826 3.56725 -6.85542 0
M  V30 1457 H 142.171 3.21429 -6.16205 0
M  V30 1458 H 145.362 2.4179 -4.00818 0
M  V30 1459 H 145.535 3.12826 -5.67489 0
M  V30 1460 N 138.941 1.26152 0.944643 0
M  V30 1461 C 139.873 1.03199 2.04652 0
M  V30 1462 C 140.886 -0.00642356 1.62799 0
M  V30 1463 O 142.075 0.233263 1.76969 0
M  V30 1464 C 139.175 0.540111 3.34568 0
M  V30 1465 C 138.348 1.64697 4.05208 0
M  V30 1466 C 137.407 1.15374 5.13396 0
M  V30 1467 O 136.433 1.85013 5.38293 0
M  V30 1468 N 137.635 0.00031529 5.805 0
M  V30 1469 H 140.4 1.9808 2.2491 0
M  V30 1470 H 137.961 1.17491 1.11389 0
M  V30 1471 H 139.953 0.194401 4.04233 0
M  V30 1472 H 138.523 -0.315021 3.11009 0
M  V30 1473 H 137.743 2.16379 3.29506 0
M  V30 1474 H 139.031 2.3903 4.49157 0
M  V30 1475 H 138.429 -0.581336 5.62705 0
M  V30 1476 H 136.986 -0.286346 6.51171 0
M  V30 1477 N 140.419 -1.14872 1.07899 0
M  V30 1478 C 141.366 -2.19791 0.704319 0
M  V30 1479 C 142.336 -1.63238 -0.306987 0
M  V30 1480 O 143.521 -1.8983 -0.192171 0
M  V30 1481 C 140.661 -3.44911 0.114244 0
M  V30 1482 C 139.774 -4.15637 1.1777 0
M  V30 1483 C 138.909 -5.28324 0.552037 0
M  V30 1484 C 137.948 -5.90875 1.59789 0
M  V30 1485 N 137.085 -6.95022 0.994404 0
M  V30 1486 H 141.925 -2.5119 1.60336 0
M  V30 1487 H 139.462 -1.23356 0.801352 0
M  V30 1488 H 141.42 -4.16477 -0.245544 0
M  V30 1489 H 140.05 -3.14011 -0.74813 0
M  V30 1490 H 139.102 -3.42512 1.65499 0
M  V30 1491 H 140.414 -4.5823 1.97046 0
M  V30 1492 H 139.568 -6.06538 0.1402 0
M  V30 1493 H 138.307 -4.86939 -0.272431 0
M  V30 1494 H 137.312 -5.11369 2.01945 0
M  V30 1495 H 138.537 -6.34337 2.42474 0
M  V30 1496 H 136.483 -6.55722 0.190939 0
M  V30 1497 H 136.4 -7.36073 1.72432 0
M  V30 1498 H 137.668 -7.77123 0.608253 0
M  V30 1499 N 141.898 -0.863906 -1.31812 0
M  V30 1500 C 143.128 -0.485406 -2.00817 0
M  V30 1501 C 143.536 0.925007 -1.65046 0
M  V30 1502 O 142.879 1.61653 -0.872574 0
M  V30 1503 C 142.941 -0.555589 -3.55181 0
M  V30 1504 C 142.605 -1.92654 -4.14407 0
M  V30 1505 C 143.602 -2.89324 -4.31958 0
M  V30 1506 C 141.287 -2.2262 -4.50273 0
M  V30 1507 C 143.281 -4.14108 -4.84555 0
M  V30 1508 C 140.968 -3.47654 -5.02573 0
M  V30 1509 C 141.966 -4.43214 -5.19664 0
M  V30 1510 O 141.654 -5.66033 -5.70843 0
M  V30 1511 H 141.386 -0.188224 -0.649267 0
M  V30 1512 H 143.94 -1.16514 -1.69156 0
M  V30 1513 H 142.17 0.181037 -3.86276 0
M  V30 1514 H 143.859 -0.19138 -4.05449 0
M  V30 1515 H 144.625 -2.6748 -4.04573 0
M  V30 1516 H 140.504 -1.4902 -4.3625 0
M  V30 1517 H 144.048 -4.88703 -4.9781 0
M  V30 1518 H 139.945 -3.69345 -5.29391 0
M  V30 1519 H 140.713 -5.6812 -5.89222 0
M  V30 1520 N 143.376 1.44774 -0.622745 0
M  V30 1521 C 144.623 2.02121 -0.1239 0
M  V30 1522 C 144.951 1.48915 1.25118 0
M  V30 1523 O 144.206 0.660045 1.84233 0
M  V30 1524 C 144.505 3.57364 -0.0508323 0
M  V30 1525 C 144.171 4.29787 -1.36358 0
M  V30 1526 C 142.833 4.4929 -1.72314 0
M  V30 1527 C 145.185 4.71062 -2.23048 0
M  V30 1528 C 142.513 5.07325 -2.94682 0
M  V30 1529 C 144.865 5.30452 -3.44679 0
M  V30 1530 C 143.529 5.48175 -3.80868 0
M  V30 1531 H 142.799 0.739612 -0.0453381 0
M  V30 1532 H 145.446 1.73648 -0.807389 0
M  V30 1533 H 143.751 3.85202 0.715991 0
M  V30 1534 H 145.448 3.99456 0.351533 0
M  V30 1535 H 142.038 4.14932 -1.07375 0
M  V30 1536 H 146.222 4.55715 -1.96565 0
M  V30 1537 H 141.478 5.19235 -3.22809 0
M  V30 1538 H 145.652 5.61385 -4.12092 0
M  V30 1539 H 143.279 5.92912 -4.75773 0
M  V30 1540 N 144.854 0.36279 1.53368 0
M  V30 1541 C 146.1 -0.228113 2.01513 0
M  V30 1542 C 146.433 -1.48648 1.2497 0
M  V30 1543 O 145.708 -1.91459 0.342616 0
M  V30 1544 C 145.991 -0.522884 3.56284 0
M  V30 1545 C 145.844 0.74892 4.43521 0
M  V30 1546 C 147.163 -1.32461 4.19693 0
M  V30 1547 H 144.282 -0.0814343 0.732487 0
M  V30 1548 H 146.924 0.48713 1.83649 0
M  V30 1549 H 145.074 -1.1322 3.71636 0
M  V30 1550 H 146.746 1.38648 4.39971 0
M  V30 1551 H 144.989 1.36986 4.11603 0
M  V30 1552 H 145.66 0.497667 5.49752 0
M  V30 1553 H 148.136 -0.809203 4.08156 0
M  V30 1554 H 147.012 -1.49961 5.28018 0
M  V30 1555 H 147.273 -2.33232 3.75573 0
M  V30 1556 N 146.332 -1.57332 0.0918853 0
M  V30 1557 C 147.58 -1.93853 -0.571446 0
M  V30 1558 C 147.901 -0.974212 -1.6892 0
M  V30 1559 O 147.171 -0.0257254 -1.95883 0
M  V30 1560 H 145.751 -0.715666 -0.214082 0
M  V30 1561 H 148.413 -1.94287 0.154464 0
M  V30 1562 H 147.509 -2.96191 -0.983729 0
M  V30 1563 N 147.81 0.181792 -1.56548 0
M  V30 1564 C 149.04 0.914618 -1.85252 0
M  V30 1565 C 149.448 1.76791 -0.673914 0
M  V30 1566 O 148.791 1.80009 0.366416 0
M  V30 1567 C 148.853 1.85019 -3.08234 0
M  V30 1568 C 148.517 1.17754 -4.41569 0
M  V30 1569 C 149.514 0.548035 -5.17003 0
M  V30 1570 C 147.199 1.17742 -4.88305 0
M  V30 1571 C 149.193 -0.0726128 -6.37359 0
M  V30 1572 C 146.88 0.552946 -6.08593 0
M  V30 1573 C 147.878 -0.070978 -6.82963 0
M  V30 1574 O 147.566 -0.685635 -8.00971 0
M  V30 1575 H 147.298 0.271695 -0.618998 0
M  V30 1576 H 149.852 0.189944 -2.0452 0
M  V30 1577 H 148.082 2.61491 -2.84885 0
M  V30 1578 H 149.771 2.45195 -3.23472 0
M  V30 1579 H 150.537 0.540174 -4.81982 0
M  V30 1580 H 146.416 1.65246 -4.30366 0
M  V30 1581 H 149.96 -0.560213 -6.95347 0
M  V30 1582 H 145.857 0.558354 -6.43081 0
M  V30 1583 H 146.625 -0.58385 -8.16415 0
M  V30 1584 N 149.288 1.51039 0.449983 0
M  V30 1585 C 150.218 1.74379 1.55288 0
M  V30 1586 C 151.199 0.593236 1.5942 0
M  V30 1587 O 152.384 0.834625 1.7535 0
M  V30 1588 C 149.514 1.85728 2.93466 0
M  V30 1589 C 148.468 3.01078 3.04197 0
M  V30 1590 C 147.794 2.97595 4.44231 0
M  V30 1591 C 149.094 4.41254 2.7945 0
M  V30 1592 H 150.788 2.66725 1.36008 0
M  V30 1593 H 148.334 1.2835 0.652864 0
M  V30 1594 H 150.287 2.0064 3.70569 0
M  V30 1595 H 149.011 0.900207 3.13949 0
M  V30 1596 H 147.67 2.85851 2.29531 0
M  V30 1597 H 147.318 1.99691 4.61663 0
M  V30 1598 H 147.018 3.75046 4.52343 0
M  V30 1599 H 148.542 3.14583 5.23326 0
M  V30 1600 H 149.956 4.56897 3.46292 0
M  V30 1601 H 148.353 5.20315 2.98985 0
M  V30 1602 H 149.423 4.52164 1.75144 0
M  V30 1603 N 150.766 -0.704594 1.40972 0
M  V30 1604 C 152.014 -1.46169 1.39568 0
M  V30 1605 C 152.335 -1.95 0.00253745 0
M  V30 1606 O 151.605 -1.71095 -0.954114 0
M  V30 1607 H 150.185 -0.542326 0.513704 0
M  V30 1608 H 152.847 -0.834553 1.76128 0
M  V30 1609 H 151.943 -2.32922 2.07735 0
M  V30 1610 N 152.244 -1.26651 -0.937939 0
M  V30 1611 C 153.154 -1.10276 -2.07066 0
M  V30 1612 C 154.17 -0.0354197 -1.73964 0
M  V30 1613 O 155.346 -0.239816 -1.99967 0
M  V30 1614 C 152.411 -0.740887 -3.38691 0
M  V30 1615 C 151.472 -1.88799 -3.85556 0
M  V30 1616 C 150.705 -1.54329 -5.10899 0
M  V30 1617 O 150.928 -0.446494 -5.6865 0
M  V30 1618 O 149.862 -2.37911 -5.52885 0
M  V30 1619 H 153.688 -2.05309 -2.23789 0
M  V30 1620 H 151.273 -1.05743 -1.0554 0
M  V30 1621 H 153.155 -0.55195 -4.1777 0
M  V30 1622 H 151.83 0.180022 -3.23199 0
M  V30 1623 H 150.737 -2.13191 -3.07409 0
M  V30 1624 H 152.07 -2.78874 -4.05574 0
M  V30 1625 N 153.722 1.14298 -1.08507 0
M  V30 1626 C 155.138 1.37347 -0.812901 0
M  V30 1627 C 155.338 1.93052 0.577325 0
M  V30 1628 O 154.394 2.14389 1.33393 0
M  V30 1629 C 155.707 2.33359 -1.89642 0
M  V30 1630 C 157.255 2.46996 -1.92255 0
M  V30 1631 C 157.73 3.46309 -2.99724 0
M  V30 1632 N 159.221 3.53853 -2.98902 0
M  V30 1633 C 159.956 4.3055 -3.787 0
M  V30 1634 N 159.452 5.10482 -4.6838 0
M  V30 1635 N 161.245 4.25757 -3.66998 0
M  V30 1636 H 153.396 0.764867 -1.9815 0
M  V30 1637 H 155.659 0.398966 -0.859959 0
M  V30 1638 H 155.365 1.99565 -2.89597 0
M  V30 1639 H 155.239 3.33274 -1.76659 0
M  V30 1640 H 157.626 2.80081 -0.929445 0
M  V30 1641 H 157.707 1.47039 -2.09316 0
M  V30 1642 H 157.351 3.13957 -3.99241 0
M  V30 1643 H 157.281 4.46049 -2.79907 0
M  V30 1644 H 159.772 2.96812 -2.33904 0
M  V30 1645 H 160.085 5.66284 -5.25873 0
M  V30 1646 H 158.43 5.09747 -4.72422 0
M  V30 1647 H 161.621 3.62383 -2.96304 0
M  V30 1648 H 161.794 4.85279 -4.29427 0
M  V30 1649 N 155.201 0.870884 1.31352 0
M  V30 1650 C 156.429 0.49677 2.00848 0
M  V30 1651 C 156.844 -0.910998 1.65367 0
M  V30 1652 O 156.201 -1.59696 0.883374 0
M  V30 1653 C 156.252 0.645308 3.55694 0
M  V30 1654 O 155.973 1.99764 3.89905 0
M  V30 1655 C 157.474 0.272326 4.42463 0
M  V30 1656 H 154.694 0.193462 0.642506 0
M  V30 1657 H 157.238 1.1723 1.67563 0
M  V30 1658 H 155.393 0.0173176 3.87396 0
M  V30 1659 H 155.807 2.00607 4.84621 0
M  V30 1660 H 157.281 0.427208 5.50344 0
M  V30 1661 H 157.758 -0.788587 4.32062 0
M  V30 1662 H 158.364 0.876054 4.1618 0
M  V30 1663 N 156.679 -1.44442 0.630414 0
M  V30 1664 C 157.611 -2.2892 -0.113347 0
M  V30 1665 C 158.624 -1.41243 -0.80959 0
M  V30 1666 O 159.813 -1.65402 -0.671156 0
M  V30 1667 C 156.913 -3.17594 -1.18266 0
M  V30 1668 C 156.086 -4.33682 -0.569073 0
M  V30 1669 C 155.145 -5.03397 -1.53226 0
M  V30 1670 O 154.171 -5.59438 -1.04967 0
M  V30 1671 N 155.373 -5.04783 -2.86661 0
M  V30 1672 H 158.138 -2.93392 0.611636 0
M  V30 1673 H 155.699 -1.54881 0.471523 0
M  V30 1674 H 157.691 -3.61097 -1.82732 0
M  V30 1675 H 156.261 -2.54876 -1.80988 0
M  V30 1676 H 155.481 -3.9338 0.254187 0
M  V30 1677 H 156.769 -5.08608 -0.139767 0
M  V30 1678 H 156.167 -4.60584 -3.28449 0
M  V30 1679 H 154.724 -5.52077 -3.46489 0
M  V30 1680 N 158.157 -0.370918 -1.53173 0
M  V30 1681 C 159.382 0.220293 -2.06227 0
M  V30 1682 C 159.807 1.41243 -1.24225 0
M  V30 1683 O 159.165 1.79387 -0.262645 0
M  V30 1684 C 159.213 0.586663 -3.55796 0
M  V30 1685 O 158.317 1.68317 -3.76488 0
M  V30 1686 H 157.658 0.0308099 -0.663285 0
M  V30 1687 H 160.188 -0.533068 -1.97534 0
M  V30 1688 H 160.198 0.85617 -3.98916 0
M  V30 1689 H 158.873 -0.285013 -4.14922 0
M  V30 1690 H 157.45 1.40881 -3.45264 0
M  V30 1691 N 159.635 1.57281 -0.100228 0
M  V30 1692 C 160.863 1.98879 0.570509 0
M  V30 1693 C 161.278 0.979476 1.61405 0
M  V30 1694 O 160.635 -0.0302288 1.82475 0
M  V30 1695 C 160.686 3.4052 1.2136 0
M  V30 1696 O 160.407 4.37588 0.211786 0
M  V30 1697 C 161.908 3.97149 1.96945 0
M  V30 1698 H 159.128 0.653428 0.152555 0
M  V30 1699 H 161.672 2.03697 -0.18103 0
M  V30 1700 H 159.827 3.367 1.91603 0
M  V30 1701 H 160.241 5.20118 0.676607 0
M  V30 1702 H 161.715 4.98393 2.37294 0
M  V30 1703 H 162.192 3.3525 2.83733 0
M  V30 1704 H 162.798 4.04458 1.31506 0
M  V30 1705 N 161.113 -0.173488 1.56642 0
M  V30 1706 C 162.524 -0.736155 1.71574 0
M  V30 1707 C 162.875 -1.82888 0.710389 0
M  V30 1708 O 162 -2.16017 -0.1287 0
M  V30 1709 C 162.595 -1.34211 3.11083 0
M  V30 1710 C 161.154 -1.85162 3.27707 0
M  V30 1711 C 160.301 -0.729765 2.67525 0
M  V30 1712 H 163.252 0.0518786 1.58615 0
M  V30 1713 H 163.273 -2.21178 3.09613 0
M  V30 1714 H 162.785 -0.546579 3.84232 0
M  V30 1715 H 160.886 -2.67366 2.59512 0
M  V30 1716 H 160.999 -1.99855 4.35425 0
M  V30 1717 H 159.363 -1.14965 2.27278 0
M  V30 1718 H 160.146 0.0538806 3.43258 0
M  V30 1719 N 162.591 -1.51276 -0.441967 0
M  V30 1720 C 163.839 -1.63392 -1.18943 0
M  V30 1721 C 164.16 -0.350159 -1.9183 0
M  V30 1722 O 163.43 0.633784 -1.85364 0
M  V30 1723 H 162.01 -0.602164 -0.442049 0
M  V30 1724 H 164.672 -1.88186 -0.507165 0
M  V30 1725 H 163.768 -2.45934 -1.92154 0
M  V30 1726 N 164.069 0.697108 -1.41344 0
M  V30 1727 C 165.299 1.48377 -1.43763 0
M  V30 1728 C 165.707 1.89156 -0.0408726 0
M  V30 1729 O 165.05 1.57239 0.949812 0
M  V30 1730 C 165.112 2.7781 -2.2817 0
M  V30 1731 C 164.776 2.59244 -3.76353 0
M  V30 1732 C 165.773 2.25292 -4.68551 0
M  V30 1733 C 163.458 2.74933 -4.20378 0
M  V30 1734 C 165.452 2.07264 -6.02761 0
M  V30 1735 C 163.139 2.56521 -5.54653 0
M  V30 1736 C 164.137 2.22737 -6.4566 0
M  V30 1737 O 163.825 2.04485 -7.77458 0
M  V30 1738 H 163.557 0.463842 -0.491759 0
M  V30 1739 H 166.111 0.865934 -1.86255 0
M  V30 1740 H 164.341 3.41995 -1.8049 0
M  V30 1741 H 166.03 3.39608 -2.22309 0
M  V30 1742 H 166.796 2.12787 -4.35829 0
M  V30 1743 H 162.675 3.00213 -3.49848 0
M  V30 1744 H 166.219 1.80817 -6.73759 0
M  V30 1745 H 162.116 2.68616 -5.86955 0
M  V30 1746 H 162.884 2.1926 -7.88586 0
M  V30 1747 N 165.547 1.27147 0.931209 0
M  V30 1748 C 166.796 1.12664 1.67302 0
M  V30 1749 C 167.109 -0.327718 1.92835 0
M  V30 1750 O 168.315 -0.593392 2.64936 0
M  V30 1751 C 166.771 1.9683 3.01307 0
M  V30 1752 C 166.379 3.46901 2.83485 0
M  V30 1753 C 168.123 1.90985 3.79111 0
M  V30 1754 C 166.03 4.23279 4.13024 0
M  V30 1755 H 164.96 0.41803 0.627509 0
M  V30 1756 H 167.611 1.51539 1.03481 0
M  V30 1757 H 165.993 1.50797 3.66164 0
M  V30 1758 H 167.167 4.00773 2.27415 0
M  V30 1759 H 165.482 3.54088 2.19113 0
M  V30 1760 H 168.079 2.45328 4.75098 0
M  V30 1761 H 168.422 0.882718 4.06834 0
M  V30 1762 H 168.955 2.34895 3.21044 0
M  V30 1763 H 165.694 5.26503 3.90481 0
M  V30 1764 H 165.214 3.74186 4.6877 0
M  V30 1765 H 166.893 4.32265 4.81411 0
M  V30 1766 N 167.025 -1.13721 1.09112 0
M  V30 1767 C 168.272 -1.84924 0.825192 0
M  V30 1768 C 168.6 -1.83347 -0.649151 0
M  V30 1769 O 167.855 -1.26449 -1.49362 0
M  V30 1770 C 168.154 -3.32861 1.30146 0
M  V30 1771 C 167.82 -3.54621 2.78486 0
M  V30 1772 C 166.482 -3.60268 3.18999 0
M  V30 1773 C 168.834 -3.62855 3.74146 0
M  V30 1774 C 166.162 -3.71679 4.53951 0
M  V30 1775 C 168.514 -3.75793 5.08883 0
M  V30 1776 C 167.178 -3.79692 5.4899 0
M  V30 1777 H 166.448 -0.676684 0.301959 0
M  V30 1778 H 169.095 -1.3428 1.36533 0
M  V30 1779 H 167.4 -3.85835 0.681064 0
M  V30 1780 H 169.097 -3.86395 1.07236 0
M  V30 1781 H 165.687 -3.50879 2.46134 0
M  V30 1782 H 169.871 -3.57775 3.43963 0
M  V30 1783 H 165.127 -3.72963 4.84467 0
M  V30 1784 H 169.301 -3.81107 5.82864 0
M  V30 1785 H 166.928 -3.88287 6.53558 0
M  V30 1786 N 168.503 -0.877838 -1.30888 0
M  V30 1787 C 169.751 -0.491723 -1.96027 0
M  V30 1788 C 170.072 0.960827 -1.69685 0
M  V30 1789 O 169.342 1.67462 -1.01654 0
M  V30 1790 H 167.922 -0.17885 -0.725273 0
M  V30 1791 H 170.584 -1.11935 -1.59551 0
M  V30 1792 H 169.68 -0.656016 -3.05128 0
M  V30 1793 N 169.982 1.44106 -0.638065 0
M  V30 1794 C 170.929 2.30715 0.062701 0
M  V30 1795 C 171.899 1.43882 0.829883 0
M  V30 1796 O 173.084 1.72775 0.809532 0
M  V30 1797 C 170.224 3.29258 1.03358 0
M  V30 1798 C 169.337 4.31192 0.26409 0
M  V30 1799 C 168.472 5.16825 1.22741 0
M  V30 1800 C 167.511 6.10462 0.447475 0
M  V30 1801 N 166.648 6.8877 1.36161 0
M  V30 1802 H 171.488 2.90096 -0.681781 0
M  V30 1803 H 169.025 1.42925 -0.347988 0
M  V30 1804 H 170.983 3.84886 1.60992 0
M  V30 1805 H 169.613 2.71562 1.74511 0
M  V30 1806 H 168.665 3.77981 -0.428295 0
M  V30 1807 H 169.977 4.97619 -0.343052 0
M  V30 1808 H 169.131 5.77004 1.87487 0
M  V30 1809 H 167.87 4.50488 1.86847 0
M  V30 1810 H 166.875 5.49386 -0.213433 0
M  V30 1811 H 168.1 6.78837 -0.188968 0
M  V30 1812 H 166.046 6.25096 1.98975 0
M  V30 1813 H 165.963 7.51663 0.808656 0
M  V30 1814 H 167.231 7.53467 1.99769 0
M  V30 1815 N 171.46 0.379036 1.52974 0
M  V30 1816 C 172.876 0.0285448 1.59574 0
M  V30 1817 C 173.076 -1.45542 1.39355 0
M  V30 1818 O 172.132 -2.2187 1.20541 0
M  V30 1819 C 173.445 0.496535 2.96572 0
M  V30 1820 C 174.993 0.451909 3.0972 0
M  V30 1821 C 175.468 0.895924 4.49152 0
M  V30 1822 N 176.959 0.851522 4.55306 0
M  V30 1823 C 177.694 1.16661 5.61407 0
M  V30 1824 N 177.19 1.55166 6.752 0
M  V30 1825 N 178.983 1.08853 5.51459 0
M  V30 1826 H 171.134 1.34525 1.64367 0
M  V30 1827 H 173.397 0.550733 0.771619 0
M  V30 1828 H 173.103 1.53258 3.16552 0
M  V30 1829 H 172.977 -0.109802 3.7704 0
M  V30 1830 H 175.364 -0.575029 2.89443 0
M  V30 1831 H 175.445 1.09392 2.3123 0
M  V30 1832 H 175.089 1.92104 4.70168 0
M  V30 1833 H 175.019 0.23103 5.26093 0
M  V30 1834 H 177.51 0.568038 3.73606 0
M  V30 1835 H 177.823 1.776 7.52116 0
M  V30 1836 H 176.168 1.59044 6.76557 0
M  V30 1837 H 179.359 0.786803 4.6144 0
M  V30 1838 H 179.532 1.33742 6.34048 0
M  V30 1839 N 172.938 -1.57226 0.108567 0
M  V30 1840 C 174.187 -1.94008 -0.551703 0
M  V30 1841 C 174.5 -0.993442 -1.68494 0
M  V30 1842 O 175.706 -1.25551 -2.40726 0
M  V30 1843 C 174.162 -3.44763 -1.03279 0
M  V30 1844 C 173.77 -4.47943 0.0714193 0
M  V30 1845 C 175.514 -3.90483 -1.66503 0
M  V30 1846 C 173.421 -5.89865 -0.425779 0
M  V30 1847 H 172.351 -0.724206 -0.209863 0
M  V30 1848 H 175.002 -1.82547 0.186741 0
M  V30 1849 H 173.384 -3.51422 -1.82533 0
M  V30 1850 H 174.558 -4.52942 0.847365 0
M  V30 1851 H 172.873 -4.11913 0.609669 0
M  V30 1852 H 175.47 -4.93925 -2.04798 0
M  V30 1853 H 175.813 -3.29877 -2.53942 0
M  V30 1854 H 176.346 -3.86581 -0.938074 0
M  V30 1855 H 173.085 -6.54202 0.412316 0
M  V30 1856 H 172.605 -5.88309 -1.16843 0
M  V30 1857 H 174.284 -6.40844 -0.890397 0
M  V30 1858 N 174.416 0.165178 -1.56732 0
M  V30 1859 C 175.665 0.879143 -1.81532 0
M  V30 1860 C 175.978 1.83144 -0.686842 0
M  V30 1861 O 177.184 2.58823 -0.819944 0
M  V30 1862 C 175.64 1.61388 -3.21686 0
M  V30 1863 C 175.248 0.704904 -4.4242 0
M  V30 1864 C 176.992 2.3157 -3.55774 0
M  V30 1865 C 174.899 1.44022 -5.73595 0
M  V30 1866 H 173.829 0.332033 -0.676957 0
M  V30 1867 H 176.48 0.132008 -1.83025 0
M  V30 1868 H 174.862 2.40599 -3.14529 0
M  V30 1869 H 176.036 -0.0506815 -4.60772 0
M  V30 1870 H 174.351 0.112419 -4.16248 0
M  V30 1871 H 176.948 2.8719 -4.51028 0
M  V30 1872 H 177.291 3.07201 -2.8095 0
M  V30 1873 H 177.824 1.59297 -3.64513 0
M  V30 1874 H 174.563 0.72612 -6.51466 0
M  V30 1875 H 174.083 2.16898 -5.5921 0
M  V30 1876 H 175.762 1.98606 -6.15764 0
M  V30 1877 N 175.894 1.51508 0.433938 0
M  V30 1878 C 176.824 1.76016 1.53429 0
M  V30 1879 C 177.805 0.610112 1.58782 0
M  V30 1880 O 178.99 0.853177 1.74455 0
M  V30 1881 C 176.12 1.88831 2.9148 0
M  V30 1882 C 175.074 3.04288 3.00987 0
M  V30 1883 C 174.4 3.0229 4.4105 0
M  V30 1884 C 175.7 4.44193 2.74754 0
M  V30 1885 H 177.394 2.68152 1.33171 0
M  V30 1886 H 174.94 1.29035 0.639214 0
M  V30 1887 H 176.893 2.04559 3.6842 0
M  V30 1888 H 175.617 0.933455 3.12976 0
M  V30 1889 H 174.276 2.8827 2.26486 0
M  V30 1890 H 173.924 2.04576 4.59519 0
M  V30 1891 H 173.624 3.79822 4.4834 0
M  V30 1892 H 175.148 3.20116 5.1996 0
M  V30 1893 H 176.562 4.60544 3.41426 0
M  V30 1894 H 174.959 5.23457 2.9345 0
M  V30 1895 H 176.029 4.53996 1.70339 0
M  V30 1896 N 177.372 -0.689602 1.41712 0
M  V30 1897 C 178.619 -1.44966 1.4139 0
M  V30 1898 C 178.947 -1.94484 0.025105 0
M  V30 1899 O 178.202 -1.70307 -0.964048 0
M  V30 1900 C 178.501 -2.67298 2.37247 0
M  V30 1901 C 178.167 -2.36405 3.83958 0
M  V30 1902 C 176.829 -2.27691 4.23923 0
M  V30 1903 C 179.181 -2.11043 4.76561 0
M  V30 1904 C 176.509 -1.91719 5.54492 0
M  V30 1905 C 178.861 -1.76578 6.07456 0
M  V30 1906 C 177.525 -1.66363 6.46436 0
M  V30 1907 H 176.795 -0.53047 0.517381 0
M  V30 1908 H 179.442 -0.787655 1.74552 0
M  V30 1909 H 177.747 -3.38461 1.9736 0
M  V30 1910 H 179.444 -3.25452 2.34269 0
M  V30 1911 H 176.034 -2.44085 3.52308 0
M  V30 1912 H 180.218 -2.16717 4.46483 0
M  V30 1913 H 175.474 -1.82367 5.83568 0
M  V30 1914 H 179.648 -1.55974 6.78708 0
M  V30 1915 H 177.275 -1.38258 7.47522 0
M  V30 1916 N 178.85 -1.27639 -0.924453 0
M  V30 1917 C 179.78 -1.13166 -2.04244 0
M  V30 1918 C 180.761 -0.032256 -1.70069 0
M  V30 1919 O 181.946 -0.207328 -1.9309 0
M  V30 1920 C 179.076 -0.781496 -3.38393 0
M  V30 1921 C 178.03 -1.83449 -3.86692 0
M  V30 1922 C 177.356 -1.33822 -5.17683 0
M  V30 1923 C 178.656 -3.23917 -4.09726 0
M  V30 1924 H 180.35 -2.06689 -2.1661 0
M  V30 1925 H 177.896 -0.995136 -1.04082 0
M  V30 1926 H 179.849 -0.667057 -4.16087 0
M  V30 1927 H 178.573 0.189439 -3.2605 0
M  V30 1928 H 177.232 -1.93789 -3.11193 0
M  V30 1929 H 176.88 -0.35665 -5.01734 0
M  V30 1930 H 176.58 -2.04224 -5.50968 0
M  V30 1931 H 178.104 -1.23679 -5.97943 0
M  V30 1932 H 179.518 -3.16559 -4.77978 0
M  V30 1933 H 177.915 -3.92059 -4.54324 0
M  V30 1934 H 178.985 -3.68729 -3.14908 0
M  V30 1935 N 180.328 1.1314 -1.09713 0
M  V30 1936 C 181.575 1.84484 -0.834987 0
M  V30 1937 C 181.903 1.83689 0.639418 0
M  V30 1938 O 181.158 1.2724 1.4869 0
M  V30 1939 C 181.457 3.32167 -1.3191 0
M  V30 1940 C 181.123 3.53139 -2.80363 0
M  V30 1941 C 179.785 3.58571 -3.20905 0
M  V30 1942 C 182.137 3.60866 -3.76065 0
M  V30 1943 C 179.465 3.69267 -4.55916 0
M  V30 1944 C 181.817 3.73089 -5.10869 0
M  V30 1945 C 180.481 3.76775 -5.50996 0
M  V30 1946 H 179.751 0.675073 -0.305544 0
M  V30 1947 H 182.398 1.33554 -1.37243 0
M  V30 1948 H 180.703 3.85469 -0.701517 0
M  V30 1949 H 182.4 3.85821 -1.09284 0
M  V30 1950 H 178.99 3.49569 -2.47991 0
M  V30 1951 H 183.174 3.55946 -3.45855 0
M  V30 1952 H 178.43 3.70388 -4.86438 0
M  V30 1953 H 182.604 3.78011 -5.84877 0
M  V30 1954 H 180.231 3.84815 -6.55608 0
M  V30 1955 N 181.806 0.884767 1.30421 0
M  V30 1956 C 182.736 0.367574 2.30589 0
M  V30 1957 C 183.717 -0.549464 1.60981 0
M  V30 1958 O 184.902 -0.46336 1.88591 0
M  V30 1959 C 182.032 -0.418944 3.44764 0
M  V30 1960 C 180.986 0.406316 4.26067 0
M  V30 1961 C 180.312 -0.506793 5.32293 0
M  V30 1962 C 181.612 1.64832 4.95608 0
M  V30 1963 H 183.306 1.20462 2.74097 0
M  V30 1964 H 180.852 0.580695 1.31772 0
M  V30 1965 H 182.805 -0.791395 4.13902 0
M  V30 1966 H 181.529 -1.28964 3.0006 0
M  V30 1967 H 180.188 0.760903 3.58617 0
M  V30 1968 H 179.836 -1.37519 4.83836 0
M  V30 1969 H 179.536 0.0415828 5.87585 0
M  V30 1970 H 181.06 -0.875764 6.04287 0
M  V30 1971 H 182.474 1.34646 5.57264 0
M  V30 1972 H 180.871 2.13688 5.60765 0
M  V30 1973 H 181.941 2.39284 4.21748 0
M  V30 1974 N 183.284 -1.43765 0.645699 0
M  V30 1975 C 184.217 -2.2798 -0.100072 0
M  V30 1976 C 185.195 -1.39391 -0.837194 0
M  V30 1977 O 186.379 -1.68833 -0.838306 0
M  V30 1978 C 183.506 -3.18643 -1.14823 0
M  V30 1979 C 182.552 -4.2344 -0.510009 0
M  V30 1980 S 183.385 -5.30761 0.710824 0
M  V30 1981 C 184.541 -6.24992 -0.33699 0
M  V30 1982 H 184.774 -2.90884 0.614322 0
M  V30 1983 H 182.307 -1.48166 0.434304 0
M  V30 1984 H 184.265 -3.71424 -1.74799 0
M  V30 1985 H 182.926 -2.54932 -1.8349 0
M  V30 1986 H 182.119 -4.86948 -1.29991 0
M  V30 1987 H 181.721 -3.73997 0.0154577 0
M  V30 1988 H 184.013 -6.66691 -1.20537 0
M  V30 1989 H 184.956 -7.07612 0.262879 0
M  V30 1990 H 185.364 -5.60517 -0.669425 0
M  V30 1991 N 184.763 -0.387143 -1.52771 0
M  V30 1992 C 185.988 0.198407 -2.06449 0
M  V30 1993 C 186.413 1.39918 -1.25716 0
M  V30 1994 O 185.771 1.79099 -0.281657 0
M  V30 1995 C 185.819 0.548893 -3.56398 0
M  V30 1996 O 184.923 1.64315 -3.78252 0
M  V30 1997 H 184.264 0.0237731 -0.663574 0
M  V30 1998 H 186.794 -0.553989 -1.96957 0
M  V30 1999 H 186.804 0.813812 -3.99801 0
M  V30 2000 H 185.479 -0.329005 -4.14597 0
M  V30 2001 H 184.056 1.37211 -3.46738 0
M  V30 2002 N 186.241 1.57166 -0.116904 0
M  V30 2003 C 187.487 1.95412 0.542405 0
M  V30 2004 C 187.82 1.00019 1.66463 0
M  V30 2005 O 187.095 0.0370346 1.94465 0
M  V30 2006 C 187.378 3.43615 1.07708 0
M  V30 2007 C 187.231 4.49781 -0.0415868 0
M  V30 2008 C 188.55 3.93616 1.96861 0
M  V30 2009 H 185.669 0.710543 0.195696 0
M  V30 2010 H 188.311 1.89027 -0.192038 0
M  V30 2011 H 186.461 3.49187 1.70296 0
M  V30 2012 H 188.133 4.56308 -0.676793 0
M  V30 2013 H 186.376 4.28033 -0.705019 0
M  V30 2014 H 187.047 5.50733 0.373717 0
M  V30 2015 H 189.523 3.90335 1.44146 0
M  V30 2016 H 188.399 4.97838 2.3119 0
M  V30 2017 H 188.66 3.34188 2.89432 0
M  V30 2018 N 187.719 -0.156864 1.56817 0
M  V30 2019 C 188.682 -1.17781 1.96622 0
M  V30 2020 C 189.682 -1.36401 0.851555 0
M  V30 2021 O 190.872 -1.33561 1.11836 0
M  V30 2022 C 188.004 -2.54008 2.27361 0
M  V30 2023 H 189.197 -0.836564 2.87996 0
M  V30 2024 H 186.75 -0.39985 1.51099 0
M  V30 2025 H 187.485 -2.9312 1.38748 0
M  V30 2026 H 187.27 -2.41856 3.08623 0
M  V30 2027 H 188.76 -3.27558 2.59029 0
M  V30 2028 N 189.197 -1.51736 -0.425897 0
M  V30 2029 C 190.445 -1.64644 -1.17204 0
M  V30 2030 C 190.766 -0.370486 -1.91448 0
M  V30 2031 O 190.036 0.614088 -1.86026 0
M  V30 2032 H 188.616 -0.606819 -0.435638 0
M  V30 2033 H 191.278 -1.88713 -0.487177 0
M  V30 2034 H 190.374 -2.47958 -1.89534 0
M  V30 2035 N 190.675 0.682077 -1.42076 0
M  V30 2036 C 191.924 1.43786 -1.41451 0
M  V30 2037 C 192.237 1.95574 -0.0317074 0
M  V30 2038 O 193.443 2.71326 0.0971462 0
M  V30 2039 C 191.899 2.60071 -2.48779 0
M  V30 2040 C 191.507 2.15013 -3.93031 0
M  V30 2041 C 193.251 3.37626 -2.57311 0
M  V30 2042 C 191.158 3.28336 -4.91883 0
M  V30 2043 H 190.088 0.540143 -0.526082 0
M  V30 2044 H 192.739 0.739157 -1.67955 0
M  V30 2045 H 191.121 3.32275 -2.15429 0
M  V30 2046 H 192.295 1.5001 -4.35699 0
M  V30 2047 H 190.61 1.50416 -3.88284 0
M  V30 2048 H 193.207 4.22012 -3.28345 0
M  V30 2049 H 193.55 3.83727 -1.61429 0
M  V30 2050 H 194.083 2.72488 -2.89819 0
M  V30 2051 H 190.822 2.87234 -5.89217 0
M  V30 2052 H 190.342 3.92145 -4.53853 0
M  V30 2053 H 192.021 3.93913 -5.13265 0
M  V30 2054 N 192.153 1.28127 0.917671 0
M  V30 2055 C 193.4 1.15052 1.66641 0
M  V30 2056 C 193.728 -0.301677 1.92146 0
M  V30 2057 O 192.983 -1.23622 1.51711 0
M  V30 2058 C 193.282 1.89018 3.03327 0
M  V30 2059 C 192.948 3.38832 2.97496 0
M  V30 2060 C 191.61 3.79693 2.95613 0
M  V30 2061 C 193.962 4.34378 2.88036 0
M  V30 2062 C 191.29 5.14447 2.82066 0
M  V30 2063 C 193.642 5.69201 2.7603 0
M  V30 2064 C 192.306 6.09343 2.72502 0
M  V30 2065 H 191.576 0.421006 0.609783 0
M  V30 2066 H 194.223 1.58855 1.06945 0
M  V30 2067 H 192.528 1.37752 3.66785 0
M  V30 2068 H 194.225 1.76321 3.60156 0
M  V30 2069 H 190.815 3.06342 2.99754 0
M  V30 2070 H 194.999 4.03775 2.88581 0
M  V30 2071 H 190.255 5.44681 2.77728 0
M  V30 2072 H 194.429 6.42901 2.67678 0
M  V30 2073 H 192.056 7.13712 2.61762 0
M  V30 2074 N 193.631 -1.12557 1.10312 0
M  V30 2075 C 194.579 -2.20325 0.745629 0
M  V30 2076 C 195.573 -1.67429 -0.25763 0
M  V30 2077 O 196.779 -1.79612 -0.118132 0
M  V30 2078 H 193.154 -0.718118 0.223182 0
M  V30 2079 H 195.125 -2.47733 1.66346 0
M  V30 2080 C 193.874 -3.47168 0.192262 0
M  V30 2081 H 193.197 -3.88215 0.955475 0
M  V30 2082 H 194.637 -4.23995 -0.0198274 0
M  V30 2083 C 193.096 -3.19298 -1.07472 0
M  V30 2084 O 193.626 -3.3891 -2.15645 0
M  V30 2085 N 191.832 -2.73113 -0.992847 0
M  V30 2086 H 191.379 -2.57354 -0.112474 0
M  V30 2087 H 191.337 -2.54842 -1.84127 0
M  V30 2088 N 195.109 -0.891671 -1.2995 0
M  V30 2089 C 196.339 -0.527893 -1.99742 0
M  V30 2090 C 196.747 0.88979 -1.66971 0
M  V30 2091 O 196.09 1.59766 -0.906667 0
M  V30 2092 C 196.152 -0.630804 -3.53922 0
M  V30 2093 C 195.816 -2.01401 -4.10228 0
M  V30 2094 C 196.813 -2.98422 -4.25724 0
M  V30 2095 C 194.498 -2.32121 -4.45449 0
M  V30 2096 C 196.492 -4.24293 -4.75662 0
M  V30 2097 C 194.179 -3.58237 -4.95086 0
M  V30 2098 C 195.177 -4.54137 -5.10146 0
M  V30 2099 O 194.865 -5.78014 -5.58708 0
M  V30 2100 H 194.597 -0.201953 -0.645129 0
M  V30 2101 H 197.151 -1.20076 -1.66646 0
M  V30 2102 H 195.381 0.0990616 -3.86573 0
M  V30 2103 H 197.07 -0.277338 -4.04951 0
M  V30 2104 H 197.836 -2.76001 -3.98809 0
M  V30 2105 H 193.715 -1.5824 -4.32991 0
M  V30 2106 H 197.259 -4.99153 -4.87332 0
M  V30 2107 H 193.156 -3.80491 -5.21437 0
M  V30 2108 H 193.924 -5.8049 -5.77039 0
M  V30 2109 N 196.587 1.43421 -0.653314 0
M  V30 2110 C 197.817 2.05864 -0.174238 0
M  V30 2111 C 198.225 1.49052 1.16534 0
M  V30 2112 O 197.568 0.616481 1.73047 0
M  V30 2113 C 197.63 3.59499 -0.00875873 0
M  V30 2114 C 197.294 4.38893 -1.27364 0
M  V30 2115 C 198.291 4.70947 -2.20239 0
M  V30 2116 C 195.976 4.789 -1.51525 0
M  V30 2117 C 197.97 5.41916 -3.35568 0
M  V30 2118 C 195.657 5.49614 -2.67147 0
M  V30 2119 C 196.655 5.81044 -3.58994 0
M  V30 2120 O 196.343 6.50313 -4.72597 0
M  V30 2121 H 196.075 0.670345 -0.0872549 0
M  V30 2122 H 198.629 1.84913 -0.894226 0
M  V30 2123 H 196.859 3.79025 0.7666 0
M  V30 2124 H 198.548 4.0364 0.427687 0
M  V30 2125 H 199.314 4.40558 -2.02815 0
M  V30 2126 H 195.193 4.53843 -0.809158 0
M  V30 2127 H 198.737 5.66365 -4.07279 0
M  V30 2128 H 194.634 5.79419 -2.84505 0
M  V30 2129 H 195.402 6.68795 -4.71864 0
M  V30 2130 N 198.065 0.39524 1.52563 0
M  V30 2131 C 198.995 -0.428384 2.29537 0
M  V30 2132 C 199.976 -1.05831 1.33169 0
M  V30 2133 O 201.161 -1.06995 1.62067 0
M  V30 2134 C 198.291 -1.55274 3.10656 0
M  V30 2135 C 197.245 -1.04855 4.14957 0
M  V30 2136 C 196.571 -2.26543 4.84337 0
M  V30 2137 C 197.871 -0.112324 5.22179 0
M  V30 2138 H 199.565 0.213867 2.98635 0
M  V30 2139 H 197.111 0.104298 1.43622 0
M  V30 2140 H 199.064 -2.1358 3.63265 0
M  V30 2141 H 197.788 -2.22266 2.39302 0
M  V30 2142 H 196.447 -0.487985 3.63338 0
M  V30 2143 H 196.095 -2.92059 4.09525 0
M  V30 2144 H 195.795 -1.93466 5.54837 0
M  V30 2145 H 197.319 -2.85481 5.39753 0
M  V30 2146 H 198.733 -0.603752 5.70112 0
M  V30 2147 H 197.13 0.128968 5.99961 0
M  V30 2148 H 198.2 0.837052 4.77621 0
M  V30 2149 N 199.544 -1.57102 0.125237 0
M  V30 2150 C 200.793 -1.94582 -0.531095 0
M  V30 2151 C 201.106 -1.01126 -1.6743 0
M  V30 2152 O 202.312 -1.28097 -2.39381 0
M  V30 2153 C 200.768 -3.45839 -0.996164 0
M  V30 2154 C 200.376 -4.47842 0.118926 0
M  V30 2155 C 202.12 -3.92227 -1.62352 0
M  V30 2156 C 200.027 -5.90284 -0.363192 0
M  V30 2157 H 198.957 -0.726391 -0.20217 0
M  V30 2158 H 201.608 -1.82339 0.206092 0
M  V30 2159 H 199.99 -3.53338 -1.78796 0
M  V30 2160 H 201.164 -4.52018 0.895358 0
M  V30 2161 H 199.479 -4.11243 0.653324 0
M  V30 2162 H 202.076 -4.96069 -1.99548 0
M  V30 2163 H 202.419 -3.32552 -2.50429 0
M  V30 2164 H 202.952 -3.87554 -0.897019 0
M  V30 2165 H 199.691 -6.53728 0.481679 0
M  V30 2166 H 199.211 -5.89515 -1.10597 0
M  V30 2167 H 200.89 -6.41752 -0.822377 0
M  V30 2168 N 201.022 0.148545 -1.56898 0
M  V30 2169 C 202.269 0.861418 -1.83264 0
M  V30 2170 C 202.597 1.81239 -0.705883 0
M  V30 2171 O 201.852 1.93305 0.305212 0
M  V30 2172 C 202.151 1.67064 -3.1595 0
M  V30 2173 C 201.817 0.866591 -4.42494 0
M  V30 2174 C 200.479 0.644762 -4.76861 0
M  V30 2175 C 202.831 0.30418 -5.20312 0
M  V30 2176 C 200.159 -0.15021 -5.86508 0
M  V30 2177 C 202.511 -0.477824 -6.30793 0
M  V30 2178 C 201.175 -0.710244 -6.63711 0
M  V30 2179 H 200.445 0.315215 -0.670612 0
M  V30 2180 H 203.092 0.125142 -1.91091 0
M  V30 2181 H 201.397 2.47698 -3.03567 0
M  V30 2182 H 203.094 2.22566 -3.33565 0
M  V30 2183 H 199.684 1.04955 -4.15551 0
M  V30 2184 H 203.868 0.462844 -4.94137 0
M  V30 2185 H 199.124 -0.339796 -6.10455 0
M  V30 2186 H 203.298 -0.92076 -6.90286 0
M  V30 2187 H 200.925 -1.3281 -7.48509 0
M  V30 2188 N 202.5 1.5196 0.417844 0
M  V30 2189 C 203.747 1.65591 1.16559 0
M  V30 2190 C 204.075 0.381565 1.90721 0
M  V30 2191 O 203.33 -0.635156 1.85106 0
M  V30 2192 C 203.629 2.82269 2.19223 0
M  V30 2193 C 203.295 4.20819 1.61933 0
M  V30 2194 C 201.957 4.58506 1.46033 0
M  V30 2195 C 204.309 5.07196 1.20008 0
M  V30 2196 C 201.637 5.80257 0.867113 0
M  V30 2197 C 203.989 6.29544 0.621086 0
M  V30 2198 C 202.653 6.65987 0.449144 0
M  V30 2199 H 201.923 0.605939 0.42652 0
M  V30 2200 H 204.57 1.86041 0.45397 0
M  V30 2201 H 202.875 2.56118 2.96498 0
M  V30 2202 H 204.572 2.90012 2.76936 0
M  V30 2203 H 201.162 3.91116 1.7529 0
M  V30 2204 H 205.346 4.7867 1.31105 0
M  V30 2205 H 200.602 6.07124 0.721833 0
M  V30 2206 H 204.776 6.95805 0.287798 0
M  V30 2207 H 202.403 7.60199 -0.012632 0
M  V30 2208 N 203.978 -0.674533 1.42435 0
M  V30 2209 C 205.225 -1.43459 1.42919 0
M  V30 2210 C 205.553 -1.94446 0.0457312 0
M  V30 2211 O 204.808 -1.7132 -0.94593 0
M  V30 2212 C 205.107 -2.64767 2.40069 0
M  V30 2213 C 204.773 -2.3232 3.86443 0
M  V30 2214 C 203.435 -2.23182 4.26314 0
M  V30 2215 C 205.787 -2.05977 4.78773 0
M  V30 2216 C 203.115 -1.85827 5.56494 0
M  V30 2217 C 205.467 -1.70125 6.09295 0
M  V30 2218 C 204.131 -1.59498 6.48164 0
M  V30 2219 H 203.401 -0.524952 0.522978 0
M  V30 2220 H 206.048 -0.769097 1.75377 0
M  V30 2221 H 204.353 -3.36349 2.00939 0
M  V30 2222 H 206.05 -3.22949 2.37707 0
M  V30 2223 H 202.64 -2.40334 3.54877 0
M  V30 2224 H 206.824 -2.11969 4.48757 0
M  V30 2225 H 202.08 -1.76168 5.8547 0
M  V30 2226 H 206.254 -1.48767 6.80324 0
M  V30 2227 H 203.881 -1.30322 7.48946 0
M  V30 2228 N 205.456 -1.28612 -0.910864 0
M  V30 2229 C 206.704 -1.15705 -1.65701 0
M  V30 2230 C 207.025 0.29416 -1.92769 0
M  V30 2231 O 206.295 1.20331 -1.54588 0
M  V30 2232 H 204.875 -0.425216 -0.614167 0
M  V30 2233 H 207.537 -1.61381 -1.0928 0
M  V30 2234 H 206.633 -1.6988 -2.61815 0
M  V30 2235 N 206.934 1.1197 -1.10907 0
M  V30 2236 C 208.159 1.87942 -0.877064 0
M  V30 2237 C 208.584 1.79341 0.567314 0
M  V30 2238 O 207.942 1.15184 1.40009 0
M  V30 2239 C 207.99 3.34926 -1.33629 0
M  V30 2240 O 207.094 4.09303 -0.504447 0
M  V30 2241 H 206.435 0.583785 -0.316371 0
M  V30 2242 H 208.965 1.4157 -1.47712 0
M  V30 2243 H 208.975 3.8577 -1.32837 0
M  V30 2244 H 207.65 3.40504 -2.3881 0
M  V30 2245 H 206.227 3.68393 -0.577993 0
M  V30 2246 N 208.412 0.89855 1.29475 0
M  V30 2247 C 209.689 0.443416 1.90508 0
M  V30 2248 C 210.069 -1.07685 1.81569 0
M  V30 2249 O 209.417 -1.9182 1.24166 0
M  V30 2250 C 209.627 0.956708 3.35631 0
M  V30 2251 C 210.975 0.999728 4.12663 0
M  V30 2252 O 211.999 0.904299 3.4453 0
M  V30 2253 O 210.858 1.14289 5.34416 0
M  V30 2254 H 207.952 0.138025 0.815401 0
M  V30 2255 H 210.498 0.98834 1.37949 0
M  V30 2256 H 209.27 2.00067 3.36287 0
M  V30 2257 H 208.893 0.391728 3.95666 0
M  V30 2258 N 209.89 -1.43072 0.660911 0
M  V30 2259 C 211.137 -2.01721 0.177445 0
M  V30 2260 C 211.465 -1.5218 -1.21126 0
M  V30 2261 O 210.72 -0.708659 -1.82419 0
M  V30 2262 C 211.019 -3.57103 0.145563 0
M  V30 2263 C 210.685 -4.26021 1.47705 0
M  V30 2264 C 209.347 -4.44563 1.84165 0
M  V30 2265 C 211.699 -4.64983 2.35458 0
M  V30 2266 C 209.027 -4.99334 3.0803 0
M  V30 2267 C 211.379 -5.21127 3.58622 0
M  V30 2268 C 210.043 -5.37884 3.95268 0
M  V30 2269 H 209.313 -0.73815 0.0649317 0
M  V30 2270 H 211.96 -1.71446 0.853144 0
M  V30 2271 H 210.265 -3.86965 -0.61361 0
M  V30 2272 H 211.962 -4.00248 -0.2455 0
M  V30 2273 H 208.552 -4.11939 1.18339 0
M  V30 2274 H 212.736 -4.50343 2.08579 0
M  V30 2275 H 207.992 -5.10493 3.36462 0
M  V30 2276 H 212.166 -5.50262 4.26831 0
M  V30 2277 H 209.793 -5.80089 4.91325 0
M  V30 2278 N 211.368 -0.403325 -1.52352 0
M  V30 2279 C 212.278 0.432009 -2.30588 0
M  V30 2280 C 213.294 1.05884 -1.38075 0
M  V30 2281 O 214.47 1.06161 -1.71148 0
M  V30 2282 C 211.535 1.53669 -3.10784 0
M  V30 2283 C 210.596 0.933525 -4.19027 0
M  V30 2284 C 209.829 1.98557 -4.9539 0
M  V30 2285 O 210.052 3.20283 -4.71991 0
M  V30 2286 O 208.986 1.59504 -5.80381 0
M  V30 2287 H 212.812 -0.205739 -3.03002 0
M  V30 2288 H 210.397 -0.166675 -1.48467 0
M  V30 2289 H 212.279 2.17814 -3.60742 0
M  V30 2290 H 210.954 2.15915 -2.41169 0
M  V30 2291 H 209.861 0.254954 -3.7323 0
M  V30 2292 H 211.194 0.35508 -4.90918 0
M  V30 2293 N 212.846 1.57033 -0.133567 0
M  V30 2294 C 213.794 2.17348 0.828412 0
M  V30 2295 C 214.788 1.12671 1.26498 0
M  V30 2296 O 215.994 1.30947 1.23502 0
M  V30 2297 H 212.369 0.695775 0.285309 0
M  V30 2298 H 214.34 2.96935 0.295372 0
M  V30 2299 C 213.089 2.79893 2.06289 0
M  V30 2300 H 212.412 3.60147 1.73592 0
M  V30 2301 H 213.852 3.25615 2.71572 0
M  V30 2302 C 212.311 1.77713 2.86216 0
M  V30 2303 O 212.841 1.23937 3.82103 0
M  V30 2304 N 211.047 1.47321 2.50489 0
M  V30 2305 H 210.594 1.91243 1.7258 0
M  V30 2306 H 210.552 0.79199 3.04261 0
M  V30 2307 N 214.325 -0.140222 1.56975 0
M  V30 2308 C 215.555 -0.865181 1.87612 0
M  V30 2309 C 215.963 -1.74942 0.72055 0
M  V30 2310 O 215.306 -1.80917 -0.318561 0
M  V30 2311 C 215.368 -1.76782 3.13031 0
M  V30 2312 C 215.032 -1.06005 4.44536 0
M  V30 2313 C 216.029 -0.410768 5.18275 0
M  V30 2314 C 213.714 -1.04754 4.91255 0
M  V30 2315 C 215.708 0.241572 6.36942 0
M  V30 2316 C 213.395 -0.391394 6.09845 0
M  V30 2317 C 214.393 0.252029 6.82535 0
M  V30 2318 O 214.081 0.897757 7.98871 0
M  V30 2319 H 213.813 -0.255188 0.625983 0
M  V30 2320 H 216.367 -0.135653 2.04952 0
M  V30 2321 H 214.597 -2.53846 2.91718 0
M  V30 2322 H 216.286 -2.36533 3.29859 0
M  V30 2323 H 217.052 -0.412195 4.83245 0
M  V30 2324 H 212.931 -1.53777 4.34596 0
M  V30 2325 H 216.475 0.744375 6.93617 0
M  V30 2326 H 212.372 -0.387656 6.44335 0
M  V30 2327 H 213.14 0.800102 8.1458 0
M  V30 2328 N 215.803 -1.52179 -0.40978 0
M  V30 2329 C 217.052 -1.65434 -1.15388 0
M  V30 2330 C 217.365 -0.390056 -1.91671 0
M  V30 2331 O 218.571 -0.402399 -2.68501 0
M  V30 2332 C 217.027 -2.92279 -2.10003 0
M  V30 2333 C 216.635 -4.25813 -1.39239 0
M  V30 2334 C 218.379 -3.14897 -2.84675 0
M  V30 2335 C 216.286 -5.43782 -2.32498 0
M  V30 2336 H 215.216 -0.616267 -0.434432 0
M  V30 2337 H 217.867 -1.78666 -0.418401 0
M  V30 2338 H 216.249 -2.72744 -2.871 0
M  V30 2339 H 217.423 -4.55828 -0.675099 0
M  V30 2340 H 215.738 -4.09292 -0.766097 0
M  V30 2341 H 218.335 -4.0021 -3.54593 0
M  V30 2342 H 218.678 -2.29103 -3.47588 0
M  V30 2343 H 219.211 -3.34901 -2.14677 0
M  V30 2344 H 215.95 -6.3192 -1.74233 0
M  V30 2345 H 215.47 -5.18106 -3.02201 0
M  V30 2346 H 217.149 -5.76834 -2.93038 0
M  V30 2347 N 217.281 0.66697 -1.42791 0
M  V30 2348 C 218.228 1.7803 -1.4688 0
M  V30 2349 C 219.198 1.6299 -0.319919 0
M  V30 2350 O 220.383 1.83432 -0.525118 0
M  V30 2351 C 217.523 3.1611 -1.38451 0
M  V30 2352 C 216.636 3.42381 -2.63437 0
M  V30 2353 C 215.771 4.70232 -2.47094 0
M  V30 2354 C 214.81 4.89564 -3.67415 0
M  V30 2355 N 213.947 6.08661 -3.49966 0
M  V30 2356 H 218.787 1.7387 -2.42019 0
M  V30 2357 H 216.324 0.84868 -1.20149 0
M  V30 2358 H 218.282 3.95914 -1.31561 0
M  V30 2359 H 216.912 3.19374 -0.469033 0
M  V30 2360 H 215.964 2.56774 -2.80662 0
M  V30 2361 H 217.276 3.52557 -3.52853 0
M  V30 2362 H 216.43 5.5814 -2.37834 0
M  V30 2363 H 215.169 4.62353 -1.5518 0
M  V30 2364 H 214.174 4.00096 -3.77099 0
M  V30 2365 H 215.399 4.99282 -4.6032 0
M  V30 2366 H 213.345 6.0194 -2.60776 0
M  V30 2367 H 213.262 6.19733 -4.32975 0
M  V30 2368 H 214.53 6.99226 -3.44532 0
M  V30 2369 N 218.759 1.29093 0.90403 0
M  V30 2370 C 219.987 1.19689 1.68766 0
M  V30 2371 C 220.402 -0.243113 1.87228 0
M  V30 2372 O 219.759 -1.16326 1.40621 0
M  V30 2373 C 219.81 1.90144 3.07453 0
M  V30 2374 O 219.531 3.2852 2.89838 0
M  V30 2375 C 221.032 1.87162 4.01852 0
M  V30 2376 H 218.252 0.415035 0.527244 0
M  V30 2377 H 220.796 1.7039 1.13082 0
M  V30 2378 H 218.951 1.43289 3.59926 0
M  V30 2379 H 219.365 3.63944 3.77684 0
M  V30 2380 H 220.839 2.41032 4.96596 0
M  V30 2381 H 221.316 0.84617 4.30972 0
M  V30 2382 H 221.922 2.33741 3.5531 0
M  V30 2383 N 220.237 -1.11381 1.11499 0
M  V30 2384 C 221.486 -1.82494 0.858993 0
M  V30 2385 C 221.799 -1.85605 -0.617278 0
M  V30 2386 O 223.005 -2.52824 -0.989552 0
M  V30 2387 C 221.461 -3.27745 1.48699 0
M  V30 2388 C 221.069 -3.32961 2.99735 0
M  V30 2389 C 222.813 -4.03754 1.31085 0
M  V30 2390 C 220.72 -4.72612 3.55516 0
M  V30 2391 H 219.65 -0.683802 0.317696 0
M  V30 2392 H 222.301 -1.25331 1.34031 0
M  V30 2393 H 220.683 -3.84844 0.933339 0
M  V30 2394 H 221.857 -2.85741 3.61509 0
M  V30 2395 H 220.172 -2.70433 3.16631 0
M  V30 2396 H 222.769 -5.06891 1.70192 0
M  V30 2397 H 223.112 -4.15527 0.253496 0
M  V30 2398 H 223.645 -3.53043 1.83318 0
M  V30 2399 H 220.384 -4.66036 4.60967 0
M  V30 2400 H 219.904 -5.2024 2.98513 0
M  V30 2401 H 221.583 -5.4157 3.53992 0
M  V30 2402 N 221.715 -0.905404 -1.28997 0
M  V30 2403 C 222.94 -0.549175 -1.99997 0
M  V30 2404 C 223.365 0.860276 -1.67275 0
M  V30 2405 O 222.723 1.57355 -0.900502 0
M  V30 2406 C 222.771 -0.755185 -3.52604 0
M  V30 2407 O 221.875 0.189692 -4.11964 0
M  V30 2408 H 221.216 -0.213899 -0.628604 0
M  V30 2409 H 223.746 -1.21856 -1.64354 0
M  V30 2410 H 223.756 -0.662045 -4.02593 0
M  V30 2411 H 222.431 -1.78271 -3.75755 0
M  V30 2412 H 221.008 0.0485257 -3.72868 0
M  V30 2413 N 223.193 1.4272 -0.668489 0
M  V30 2414 C 224.421 2.05966 -0.196348 0
M  V30 2415 C 224.836 1.50191 1.14403 0
M  V30 2416 O 224.193 0.639208 1.7094 0
M  V30 2417 C 224.244 3.61314 -0.115815 0
M  V30 2418 O 223.965 4.1502 -1.40322 0
M  V30 2419 C 225.466 4.41663 0.380579 0
M  V30 2420 H 222.686 0.663954 -0.0969829 0
M  V30 2421 H 225.23 1.82966 -0.913446 0
M  V30 2422 H 223.385 3.83448 0.551931 0
M  V30 2423 H 223.799 5.08832 -1.27243 0
M  V30 2424 H 225.273 5.5065 0.385848 0
M  V30 2425 H 225.75 4.15792 1.41471 0
M  V30 2426 H 226.356 4.24534 -0.255209 0
M  V30 2427 N 224.671 0.411399 1.52136 0
M  V30 2428 C 225.899 -0.163076 2.06256 0
M  V30 2429 C 226.314 -1.3867 1.28125 0
M  V30 2430 O 225.671 -1.79423 0.333721 0
M  V30 2431 C 225.722 -0.511252 3.57867 0
M  V30 2432 O 225.443 0.66378 4.33042 0
M  V30 2433 C 226.944 -1.13921 4.28412 0
M  V30 2434 H 224.164 -0.0193897 0.67072 0
M  V30 2435 H 226.708 0.583007 1.96013 0
M  V30 2436 H 224.863 -1.20723 3.6811 0
M  V30 2437 H 225.277 0.372601 5.23175 0
M  V30 2438 H 226.751 -1.33302 5.35663 0
M  V30 2439 H 227.228 -2.11296 3.85033 0
M  V30 2440 H 227.834 -0.483373 4.22544 0
M  V30 2441 N 226.149 -1.5696 0.141893 0
M  V30 2442 C 227.398 -1.95135 -0.510427 0
M  V30 2443 C 227.711 -1.02896 -1.66348 0
M  V30 2444 O 228.917 -1.30629 -2.38009 0
M  V30 2445 C 227.373 -3.46876 -0.959427 0
M  V30 2446 C 226.981 -4.47691 0.166419 0
M  V30 2447 C 228.725 -3.93927 -1.58183 0
M  V30 2448 C 226.632 -5.90636 -0.300565 0
M  V30 2449 H 225.562 -0.728494 -0.194454 0
M  V30 2450 H 228.213 -1.8211 0.22542 0
M  V30 2451 H 226.595 -3.55215 -1.75038 0
M  V30 2452 H 227.769 -4.51043 0.94325 0
M  V30 2453 H 226.084 -4.10527 0.696905 0
M  V30 2454 H 228.681 -4.98158 -1.94275 0
M  V30 2455 H 229.024 -3.3519 -2.46888 0
M  V30 2456 H 229.557 -3.88484 -0.855863 0
M  V30 2457 H 226.296 -6.5318 0.550989 0
M  V30 2458 H 225.816 -5.90655 -1.04338 0
M  V30 2459 H 227.495 -6.42588 -0.754265 0
M  V30 2460 N 227.627 0.131896 -1.57047 0
M  V30 2461 C 228.852 0.860418 -1.8871 0
M  V30 2462 C 229.277 1.73251 -0.73251 0
M  V30 2463 O 228.635 1.785 0.317429 0
M  V30 2464 C 228.683 1.68047 -3.19049 0
M  V30 2465 O 227.787 2.7862 -3.04047 0
M  V30 2466 H 227.128 0.238743 -0.619595 0
M  V30 2467 H 229.658 0.118169 -2.04258 0
M  V30 2468 H 229.668 2.07238 -3.51449 0
M  V30 2469 H 228.343 1.04018 -4.02682 0
M  V30 2470 H 226.92 2.42726 -2.83088 0
M  V30 2471 N 229.106 1.52395 0.401703 0
M  V30 2472 C 230.517 1.58899 0.980202 0
M  V30 2473 C 230.868 0.434032 1.91339 0
M  V30 2474 O 229.993 -0.444619 2.11783 0
M  V30 2475 C 230.588 2.87994 1.78451 0
M  V30 2476 C 229.147 2.96953 2.31292 0
M  V30 2477 C 228.294 2.53903 1.11483 0
M  V30 2478 H 231.245 1.57657 0.18168 0
M  V30 2479 H 231.266 2.73765 2.64259 0
M  V30 2480 H 230.778 3.72035 1.10506 0
M  V30 2481 H 228.879 2.17422 3.02586 0
M  V30 2482 H 228.992 4.01344 2.61649 0
M  V30 2483 H 227.356 2.07925 1.47104 0
M  V30 2484 H 228.139 3.40326 0.450928 0
M  V30 2485 N 230.584 -0.659388 1.43143 0
M  V30 2486 C 231.514 -1.78422 1.50625 0
M  V30 2487 C 232.495 -1.66216 0.361443 0
M  V30 2488 O 233.68 -1.85404 0.577834 0
M  V30 2489 C 230.81 -3.16815 1.42287 0
M  V30 2490 C 229.764 -3.43777 2.54954 0
M  V30 2491 C 229.09 -4.81905 2.31671 0
M  V30 2492 C 230.39 -3.39134 3.97222 0
M  V30 2493 H 232.084 -1.72417 2.44771 0
M  V30 2494 H 229.63 -0.828084 1.17808 0
M  V30 2495 H 231.583 -3.95253 1.46127 0
M  V30 2496 H 230.307 -3.23534 0.446435 0
M  V30 2497 H 228.966 -2.67707 2.50457 0
M  V30 2498 H 228.614 -4.85294 1.32284 0
M  V30 2499 H 228.314 -5.00906 3.07192 0
M  V30 2500 H 229.838 -5.62609 2.37284 0
M  V30 2501 H 231.252 -4.07518 4.03239 0
M  V30 2502 H 229.649 -3.69671 4.72719 0
M  V30 2503 H 230.719 -2.37426 4.22797 0
M  V30 2504 N 232.062 -1.29571 -0.897171 0
M  V30 2505 C 232.992 -1.17473 -2.01798 0
M  V30 2506 C 233.973 -0.068323 -1.69963 0
M  V30 2507 O 235.158 -0.248239 -1.92607 0
M  V30 2508 C 232.288 -0.853099 -3.36659 0
M  V30 2509 C 231.242 -1.9161 -3.82713 0
M  V30 2510 C 230.568 -1.44773 -5.14728 0
M  V30 2511 C 231.868 -3.32535 -4.02763 0
M  V30 2512 H 233.562 -2.11237 -2.12177 0
M  V30 2513 H 231.108 -1.01699 -1.01948 0
M  V30 2514 H 233.061 -0.755165 -4.14578 0
M  V30 2515 H 231.785 0.120236 -3.26379 0
M  V30 2516 H 230.444 -2.00346 -3.07013 0
M  V30 2517 H 230.092 -0.462995 -5.00865 0
M  V30 2518 H 229.792 -2.15865 -5.46513 0
M  V30 2519 H 231.316 -1.36334 -5.95185 0
M  V30 2520 H 232.73 -3.26626 -4.71156 0
M  V30 2521 H 231.127 -4.01607 -4.45905 0
M  V30 2522 H 232.197 -3.75326 -3.07016 0
M  V30 2523 N 233.54 1.10788 -1.12088 0
M  V30 2524 C 234.47 2.19083 -0.807755 0
M  V30 2525 C 235.451 1.6858 0.226859 0
M  V30 2526 O 236.636 1.93997 0.0888475 0
M  V30 2527 C 233.766 3.46344 -0.257576 0
M  V30 2528 C 232.72 4.101 -1.22483 0
M  V30 2529 C 232.046 5.32016 -0.535052 0
M  V30 2530 C 233.346 4.54236 -2.57811 0
M  V30 2531 H 235.04 2.45534 -1.71328 0
M  V30 2532 H 232.586 1.1801 -0.825205 0
M  V30 2533 H 234.539 4.21392 -0.0262679 0
M  V30 2534 H 233.263 3.19373 0.683278 0
M  V30 2535 H 231.922 3.37054 -1.44189 0
M  V30 2536 H 231.57 5.01319 0.410827 0
M  V30 2537 H 231.27 5.75625 -1.18024 0
M  V30 2538 H 232.794 6.09799 -0.312695 0
M  V30 2539 H 234.208 5.20575 -2.40155 0
M  V30 2540 H 232.605 5.08682 -3.18375 0
M  V30 2541 H 233.675 3.6734 -3.16528 0
M  V30 2542 N 235.018 0.912232 1.28515 0
M  V30 2543 C 236.267 0.540504 1.94323 0
M  V30 2544 C 236.58 -0.920044 1.72611 0
M  V30 2545 O 237.786 -1.39986 2.32629 0
M  V30 2546 C 236.242 0.915803 3.48053 0
M  V30 2547 C 235.85 2.39598 3.78546 0
M  V30 2548 C 237.594 0.614588 4.20027 0
M  V30 2549 C 235.501 2.71148 5.25578 0
M  V30 2550 H 234.431 0.198418 0.727424 0
M  V30 2551 H 237.082 1.11094 1.46049 0
M  V30 2552 H 235.464 0.274168 3.9505 0
M  V30 2553 H 236.638 3.08422 3.42364 0
M  V30 2554 H 234.953 2.66749 3.1974 0
M  V30 2555 H 237.55 0.827002 5.28266 0
M  V30 2556 H 237.893 -0.447531 4.13887 0
M  V30 2557 H 238.426 1.21462 3.78803 0
M  V30 2558 H 235.165 3.76207 5.36794 0
M  V30 2559 H 234.685 2.0696 5.62963 0
M  V30 2560 H 236.364 2.58072 5.93302 0
M  V30 2561 N 236.496 -1.42363 0.676048 0
M  V30 2562 C 237.907 -1.84649 0.275948 0
M  V30 2563 C 238.258 -1.56588 -1.18214 0
M  V30 2564 O 237.383 -1.02634 -1.90513 0
M  V30 2565 C 237.978 -3.35178 0.494053 0
M  V30 2566 C 236.537 -3.76109 0.148061 0
M  V30 2567 C 235.684 -2.65931 0.785891 0
M  V30 2568 H 238.635 -1.32192 0.878121 0
M  V30 2569 H 238.656 -3.79655 -0.25343 0
M  V30 2570 H 238.168 -3.55571 1.55535 0
M  V30 2571 H 236.269 -3.61323 -0.909742 0
M  V30 2572 H 236.382 -4.7546 0.589454 0
M  V30 2573 H 234.746 -2.53773 0.217113 0
M  V30 2574 H 235.529 -2.89146 1.85067 0
M  V30 2575 O 238.013 -0.561574 -1.51422 0
M  V30 2576 H 238.704 -0.0603133 -1.93606 0
M  V30 END ATOM
M  V30 BEGIN BOND
M  V30 END BOND
M  V30 END CTAB
M  END
$$$$
