drugbank_target|Q02156 Protein kinase C epsilon type (DB06064; DB11752; DB12010)
 OpenBabel12092120323D

  0  0  0     0  0            999 V3000
M  V30 BEGIN CTAB
M  V30 COUNTS 11695 11825 0 0 0
M  V30 BEGIN ATOM
M  V30 1 H -0.908 1.98254 -0.117106 0
M  V30 2 N 0 1.576 0 0
M  V30 3 C 0.933 2.03868 1.02534 0
M  V30 4 C 1.911 0.928543 1.3348 0
M  V30 5 O 3.095 1.19667 1.45644 0
M  V30 6 C 0.222 2.43627 2.35294 0
M  V30 7 C -0.732 3.65373 2.2001 0
M  V30 8 S 0.101 5.13292 1.52614 0
M  V30 9 C 1.257 5.56322 2.86805 0
M  V30 10 H 1.49 2.90518 0.631377 0
M  V30 11 H -0.977 1.52953 0.210867 0
M  V30 12 H 0.981 2.67203 3.11629 0
M  V30 13 H -0.358 1.57376 2.7183 0
M  V30 14 H -1.165 3.90944 3.18086 0
M  V30 15 H -1.563 3.418 1.51819 0
M  V30 16 H 0.729 5.58782 3.83104 0
M  V30 17 H 1.672 6.56266 2.65933 0
M  V30 18 H 2.08 4.83886 2.90714 0
M  V30 19 N 1.4781 -0.272755 1.55222 0
M  V30 20 C 2.7241 -1.00581 1.761 0
M  V30 21 C 3.0571 -1.85932 0.560625 0
M  V30 22 O 2.3321 -1.89416 -0.441801 0
M  V30 23 C 2.6151 -1.88816 3.06628 0
M  V30 24 C 2.4681 -1.06457 4.37021 0
M  V30 25 C 3.7871 -2.8752 3.33197 0
M  V30 26 H 0.9061 -0.364244 0.640699 0
M  V30 27 H 3.5481 -0.278189 1.87952 0
M  V30 28 H 1.6981 -2.50856 2.96654 0
M  V30 29 H 3.3701 -0.464863 4.58952 0
M  V30 30 H 1.6131 -0.368043 4.32236 0
M  V30 31 H 2.2841 -1.71514 5.24678 0
M  V30 32 H 4.7601 -2.35615 3.42965 0
M  V30 33 H 3.6361 -3.46399 4.25792 0
M  V30 34 H 3.8971 -3.62657 2.52849 0
M  V30 35 N 2.9562 -1.48159 -0.537278 0
M  V30 36 C 4.2022 -1.56035 -1.29541 0
M  V30 37 C 4.5352 -0.230377 -1.92829 0
M  V30 38 O 3.8102 0.762952 -1.78911 0
M  V30 39 C 4.0932 -2.69323 -2.39034 0
M  V30 40 C 3.9462 -4.12002 -1.80485 0
M  V30 41 C 5.2652 -2.78408 -3.40847 0
M  V30 42 H 2.3842 -0.567992 -0.469632 0
M  V30 43 H 5.0262 -1.80302 -0.599277 0
M  V30 44 H 3.1762 -2.48763 -2.98412 0
M  V30 45 H 4.8482 -4.43981 -1.25215 0
M  V30 46 H 3.0912 -4.19344 -1.11055 0
M  V30 47 H 3.7622 -4.87077 -2.59731 0
M  V30 48 H 6.2382 -2.97012 -2.91416 0
M  V30 49 H 5.1142 -3.59416 -4.14863 0
M  V30 50 H 5.3752 -1.86269 -4.00944 0
M  V30 51 N 4.4343 0.785586 -1.36625 0
M  V30 52 C 5.6813 1.54362 -1.31067 0
M  V30 53 C 6.0093 1.94195 0.10893 0
M  V30 54 O 5.2643 1.63262 1.07908 0
M  V30 55 C 5.5633 2.83007 -2.1827 0
M  V30 56 C 5.2293 2.62294 -3.6676 0
M  V30 57 C 3.8913 2.56353 -4.0723 0
M  V30 58 C 6.2433 2.43371 -4.6089 0
M  V30 59 C 3.5713 2.29461 -5.39967 0
M  V30 60 C 5.9233 2.18005 -5.93849 0
M  V30 61 C 4.5873 2.105 -6.3344 0
M  V30 62 H 3.8573 0.564851 -0.479609 0
M  V30 63 H 6.5043 0.906028 -1.68711 0
M  V30 64 H 4.8093 3.51253 -1.73576 0
M  V30 65 H 6.5063 3.40817 -2.11292 0
M  V30 66 H 3.0963 2.67774 -3.34656 0
M  V30 67 H 7.2803 2.46959 -4.30494 0
M  V30 68 H 2.5363 2.22135 -5.69619 0
M  V30 69 H 6.7103 2.02359 -6.66351 0
M  V30 70 H 4.3373 1.89425 -7.36222 0
M  V30 71 N 5.9124 1.20967 1.01018 0
M  V30 72 C 6.8604 0.961223 2.1181 0
M  V30 73 C 7.8544 -0.0897034 1.69162 0
M  V30 74 O 9.0604 0.0612271 1.79896 0
M  V30 75 H 5.4354 0.29355 0.692338 0
M  V30 76 H 7.4064 1.90178 2.29946 0
M  V30 77 C 6.1554 0.536854 3.4353 0
M  V30 78 H 5.4784 1.33713 3.76777 0
M  V30 79 H 6.9184 0.402286 4.22087 0
M  V30 80 C 5.3774 -0.751574 3.2841 0
M  V30 81 O 5.9074 -1.80841 3.58691 0
M  V30 82 N 4.1134 -0.716079 2.81639 0
M  V30 83 H 3.6604 0.144236 2.57196 0
M  V30 84 H 3.6184 -1.57847 2.71904 0
M  V30 85 N 7.3905 -1.2043 1.01659 0
M  V30 86 C 8.6385 -1.89423 0.704522 0
M  V30 87 C 8.9595 -1.79231 -0.768197 0
M  V30 88 O 8.2295 -1.1947 -1.55254 0
M  V30 89 H 6.8095 -0.701178 0.257602 0
M  V30 90 H 9.4715 -1.4626 1.28818 0
M  V30 91 H 8.5675 -2.96052 0.987916 0
M  V30 92 N 8.8686 -0.792821 -1.36206 0
M  V30 93 C 9.7986 -0.207853 -2.32573 0
M  V30 94 C 10.7796 0.659055 -1.56813 0
M  V30 95 O 11.9646 0.592176 -1.84951 0
M  V30 96 C 9.0946 0.655449 -3.41059 0
M  V30 97 C 8.0486 -0.111842 -4.27854 0
M  V30 98 C 7.3746 0.872274 -5.27537 0
M  V30 99 C 8.6746 -1.30299 -5.05786 0
M  V30 100 H 10.3686 -1.01294 -2.81744 0
M  V30 101 H 7.9146 -0.48854 -1.3546 0
M  V30 102 H 9.8676 1.07464 -4.07467 0
M  V30 103 H 8.5916 1.49328 -2.90463 0
M  V30 104 H 7.2506 -0.512053 -3.63006 0
M  V30 105 H 6.8986 1.70523 -4.73214 0
M  V30 106 H 6.5986 0.363291 -5.86476 0
M  V30 107 H 8.1226 1.28996 -5.96818 0
M  V30 108 H 9.5366 -0.959379 -5.65216 0
M  V30 109 H 7.9336 -1.7455 -5.74154 0
M  V30 110 H 9.0036 -2.09663 -4.37229 0
M  V30 111 N 10.3467 1.47872 -0.545128 0
M  V30 112 C 11.2767 2.32661 0.197793 0
M  V30 113 C 12.2577 1.43041 0.920504 0
M  V30 114 O 13.4427 1.71912 0.90333 0
M  V30 115 C 10.5727 3.24569 1.23582 0
M  V30 116 C 9.5267 4.23333 0.630323 0
M  V30 117 C 8.8527 5.0448 1.77211 0
M  V30 118 C 10.1527 5.20704 -0.407974 0
M  V30 119 H 11.8467 2.95024 -0.510045 0
M  V30 120 H 9.3927 1.4187 -0.246731 0
M  V30 121 H 11.3457 3.8272 1.76362 0
M  V30 122 H 10.0697 2.60236 1.97344 0
M  V30 123 H 8.7287 3.6639 0.123922 0
M  V30 124 H 8.3767 4.36561 2.49847 0
M  V30 125 H 8.0767 5.71339 1.37281 0
M  V30 126 H 9.6007 5.65487 2.3034 0
M  V30 127 H 11.0147 5.7329 0.033305 0
M  V30 128 H 9.4117 5.95699 -0.725486 0
M  V30 129 H 10.4817 4.66917 -1.30828 0
M  V30 130 N 11.8248 0.280983 1.55075 0
M  V30 131 C 12.7718 -0.603937 2.22758 0
M  V30 132 C 13.7418 -1.1452 1.20309 0
M  V30 133 O 14.9268 -1.19343 1.48869 0
M  V30 134 C 12.0668 -1.77947 2.95684 0
M  V30 135 C 11.1798 -1.2715 4.12864 0
M  V30 136 C 10.3148 -2.4093 4.7342 0
M  V30 137 C 9.3538 -1.87165 5.82783 0
M  V30 138 N 8.4908 -2.94441 6.37377 0
M  V30 139 H 13.3308 -0.020124 2.97993 0
M  V30 140 H 10.8678 0.00183425 1.471 0
M  V30 141 H 12.8258 -2.47055 3.36184 0
M  V30 142 H 11.4558 -2.33522 2.22861 0
M  V30 143 H 10.5078 -0.473331 3.77444 0
M  V30 144 H 11.8198 -0.837751 4.91715 0
M  V30 145 H 10.9738 -3.18021 5.1667 0
M  V30 146 H 9.7128 -2.87623 3.93859 0
M  V30 147 H 8.7178 -1.08556 5.38976 0
M  V30 148 H 9.9428 -1.41401 6.64216 0
M  V30 149 H 7.8888 -3.40505 5.60707 0
M  V30 150 H 7.8058 -2.55501 7.11516 0
M  V30 151 H 9.0738 -3.71489 6.85285 0
M  V30 152 N 13.3029 -1.57598 0.00835791 0
M  V30 153 C 14.5519 -1.90107 -0.673968 0
M  V30 154 C 14.8649 -0.884275 -1.7447 0
M  V30 155 O 16.0709 -1.09987 -2.48224 0
M  V30 156 C 14.5269 -3.37497 -1.24995 0
M  V30 157 C 14.1349 -4.47491 -0.2136 0
M  V30 158 C 15.8789 -3.79104 -1.90999 0
M  V30 159 C 13.7859 -5.85963 -0.80005 0
M  V30 160 H 12.7159 -0.709393 -0.255495 0
M  V30 161 H 15.3669 -1.83365 0.0702693 0
M  V30 162 H 13.7489 -3.39102 -2.04513 0
M  V30 163 H 14.9229 -4.57414 0.557596 0
M  V30 164 H 13.2379 -4.14956 0.346474 0
M  V30 165 H 15.8349 -4.79901 -2.35795 0
M  V30 166 H 16.1779 -3.1306 -2.74407 0
M  V30 167 H 16.7109 -3.79833 -1.18203 0
M  V30 168 H 13.4499 -6.555 -0.00456708 0
M  V30 169 H 12.9699 -5.79687 -1.54021 0
M  V30 170 H 14.6489 -6.33884 -1.29615 0
M  V30 171 N 14.781 0.264519 -1.55364 0
M  V30 172 C 15.728 1.32717 -1.88825 0
M  V30 173 C 16.698 1.48675 -0.740605 0
M  V30 174 O 17.883 1.62945 -0.992657 0
M  V30 175 C 15.023 2.68089 -2.17307 0
M  V30 176 C 14.136 2.60284 -3.44785 0
M  V30 177 C 13.271 3.87892 -3.62924 0
M  V30 178 C 12.31 3.74631 -4.84064 0
M  V30 179 N 11.447 4.94092 -4.98816 0
M  V30 180 H 16.287 1.03481 -2.79456 0
M  V30 181 H 13.824 0.499757 -1.3835 0
M  V30 182 H 15.782 3.46864 -2.31821 0
M  V30 183 H 14.412 2.95509 -1.299 0
M  V30 184 H 13.464 1.73173 -3.38697 0
M  V30 185 H 14.776 2.46388 -4.33698 0
M  V30 186 H 13.93 4.75109 -3.77302 0
M  V30 187 H 12.669 4.04664 -2.7221 0
M  V30 188 H 11.674 2.85797 -4.69681 0
M  V30 189 H 12.899 3.5937 -5.76221 0
M  V30 190 H 10.845 5.11259 -4.11036 0
M  V30 191 H 10.762 4.8276 -5.81789 0
M  V30 192 H 12.03 5.82857 -5.17588 0
M  V30 193 N 16.2591 1.48442 0.529413 0
M  V30 194 C 17.5081 1.55742 1.28169 0
M  V30 195 C 17.8211 0.236511 1.94165 0
M  V30 196 O 19.0271 0.187761 2.7085 0
M  V30 197 C 17.4831 2.74667 2.32564 0
M  V30 198 C 17.0911 4.13402 1.72636 0
M  V30 199 C 18.8351 2.9128 3.08798 0
M  V30 200 C 16.7421 5.23587 2.74975 0
M  V30 201 H 15.6721 0.579796 0.48203 0
M  V30 202 H 18.3231 1.74776 0.559056 0
M  V30 203 H 16.7051 2.49067 3.07866 0
M  V30 204 H 17.8791 4.49022 1.03519 0
M  V30 205 H 16.1941 4.0191 1.08892 0
M  V30 206 H 18.7911 3.70767 3.85274 0
M  V30 207 H 19.1341 2.00757 3.64695 0
M  V30 208 H 19.6671 3.16782 2.40611 0
M  V30 209 H 16.4061 6.16076 2.23897 0
M  V30 210 H 15.9261 4.92454 3.42417 0
M  V30 211 H 17.6051 5.51724 3.37949 0
M  V30 212 N 17.7372 -0.778329 1.37039 0
M  V30 213 C 18.9772 -1.54973 1.33276 0
M  V30 214 C 19.3412 -1.91816 -0.0839376 0
M  V30 215 O 20.5422 -2.6767 -0.246228 0
M  V30 216 C 18.8132 -2.78517 2.23971 0
M  V30 217 S 20.3722 -3.6865 2.37997 0
M  V30 218 H 17.1902 -0.530639 0.473226 0
M  V30 219 H 19.7922 -0.915806 1.72723 0
M  V30 220 H 18.4962 -2.4952 3.25835 0
M  V30 221 H 18.0272 -3.46875 1.85584 0
M  V30 222 H 20.0422 -4.70182 1.58567 0
M  V30 223 N 19.2153 -1.21501 -1.00376 0
M  V30 224 C 20.1253 -0.991447 -2.12621 0
M  V30 225 C 21.1413 0.0568446 -1.73907 0
M  V30 226 O 22.3173 -0.13348 -2.00957 0
M  V30 227 C 19.3823 -0.560312 -3.42142 0
M  V30 228 C 18.4433 -1.68096 -3.95022 0
M  V30 229 C 17.6763 -1.2703 -5.18362 0
M  V30 230 O 17.8993 -0.144438 -5.70217 0
M  V30 231 O 16.8333 -2.08269 -5.64719 0
M  V30 232 H 20.6593 -1.93158 -2.34358 0
M  V30 233 H 18.2443 -0.999999 -1.10997 0
M  V30 234 H 20.1263 -0.329724 -4.20108 0
M  V30 235 H 18.8013 0.351089 -3.2179 0
M  V30 236 H 17.7083 -1.96597 -3.18278 0
M  V30 237 H 19.0413 -2.56983 -4.19786 0
M  V30 238 N 20.6934 1.19889 -1.02296 0
M  V30 239 C 21.6564 2.21116 -0.603351 0
M  V30 240 C 22.6564 1.5738 0.329884 0
M  V30 241 O 23.8464 1.73802 0.117702 0
M  V30 242 C 20.9784 3.40696 0.117992 0
M  V30 243 H 22.1714 2.59754 -1.49893 0
M  V30 244 H 19.7244 1.33463 -0.813468 0
M  V30 245 H 20.4594 3.07569 1.0282 0
M  V30 246 H 20.2444 3.88188 -0.552511 0
M  V30 247 H 21.7344 4.15692 0.398696 0
M  V30 248 N 22.1715 0.800033 1.35784 0
M  V30 249 C 23.4175 0.377901 1.99248 0
M  V30 250 C 23.7505 -1.05052 1.63333 0
M  V30 251 O 23.0255 -1.72768 0.893385 0
M  V30 252 C 23.3085 0.553922 3.55814 0
M  V30 253 C 23.1615 2.0268 4.01548 0
M  V30 254 C 24.4805 -0.0244802 4.40093 0
M  V30 255 H 21.5995 0.138782 0.723815 0
M  V30 256 H 24.2415 1.00835 1.61035 0
M  V30 257 H 22.3915 0.0172398 3.88496 0
M  V30 258 H 24.0635 2.62536 3.79305 0
M  V30 259 H 22.3065 2.5256 3.52698 0
M  V30 260 H 22.9775 2.10087 5.10458 0
M  V30 261 H 25.4535 0.433775 4.13833 0
M  V30 262 H 24.3295 0.128637 5.48749 0
M  V30 263 H 24.5905 -1.11758 4.27741 0
M  V30 264 N 23.6496 -1.47581 0.552962 0
M  V30 265 C 24.8746 -2.07378 0.0300593 0
M  V30 266 C 25.2996 -1.40355 -1.25229 0
M  V30 267 O 24.6576 -0.477099 -1.7491 0
M  V30 268 C 24.7056 -3.60274 -0.153231 0
M  V30 269 O 23.8096 -3.94041 -1.21678 0
M  V30 270 H 23.1506 -0.662158 0.0494182 0
M  V30 271 H 25.6806 -1.89662 0.767434 0
M  V30 272 H 25.6906 -4.0633 -0.368761 0
M  V30 273 H 24.3656 -4.08455 0.783397 0
M  V30 274 H 22.9426 -3.59735 -0.982079 0
M  V30 275 N 25.1277 -0.289203 -1.54924 0
M  V30 276 C 26.0577 0.58549 -2.2604 0
M  V30 277 C 27.0387 1.14753 -1.25562 0
M  V30 278 O 28.2237 1.17906 -1.54311 0
M  V30 279 C 25.3537 1.76305 -2.99222 0
M  V30 280 C 24.3077 1.33191 -4.06748 0
M  V30 281 C 23.6337 2.5937 -4.6758 0
M  V30 282 C 24.9337 0.471775 -5.20165 0
M  V30 283 H 26.6277 -0.00763532 -2.99399 0
M  V30 284 H 24.1737 -0.00511229 -1.43999 0
M  V30 285 H 26.1267 2.38097 -3.47689 0
M  V30 286 H 24.8507 2.38223 -2.23422 0
M  V30 287 H 23.5097 0.737121 -3.59113 0
M  V30 288 H 23.1577 3.19576 -3.88433 0
M  V30 289 H 22.8577 2.31228 -5.40192 0
M  V30 290 H 24.3817 3.21985 -5.18804 0
M  V30 291 H 25.7957 0.995056 -5.64599 0
M  V30 292 H 24.1927 0.284639 -5.99425 0
M  V30 293 H 25.2627 -0.506041 -4.82252 0
M  V30 294 N 26.6058 1.57591 -0.0167156 0
M  V30 295 C 27.5528 2.09462 0.969251 0
M  V30 296 C 28.5228 0.99381 1.33089 0
M  V30 297 O 29.7078 1.26726 1.42636 0
M  V30 298 C 26.8478 2.61622 2.25051 0
M  V30 299 C 25.9608 3.85666 1.94642 0
M  V30 300 C 25.0958 4.26266 3.16972 0
M  V30 301 C 24.1348 5.43101 2.82326 0
M  V30 302 N 23.2718 5.78915 3.97243 0
M  V30 303 H 28.1118 2.93428 0.519997 0
M  V30 304 H 25.6488 1.45044 0.245087 0
M  V30 305 H 27.6068 2.89949 2.99976 0
M  V30 306 H 26.2368 1.80505 2.67615 0
M  V30 307 H 25.2888 3.64145 1.10013 0
M  V30 308 H 26.6008 4.70678 1.65117 0
M  V30 309 H 25.7548 4.55963 4.00228 0
M  V30 310 H 24.4938 3.39996 3.49648 0
M  V30 311 H 23.4988 5.1311 1.97479 0
M  V30 312 H 24.7238 6.3106 2.50879 0
M  V30 313 H 22.6698 4.95602 4.29785 0
M  V30 314 H 22.5868 6.58539 3.71299 0
M  V30 315 H 23.8548 6.13212 4.81239 0
M  V30 316 N 28.0839 -0.256276 1.55502 0
M  V30 317 C 29.4949 -0.826068 1.67431 0
M  V30 318 C 29.8459 -1.86396 0.612446 0
M  V30 319 O 28.9709 -2.15031 -0.243025 0
M  V30 320 C 29.5659 -1.50512 3.03532 0
M  V30 321 C 28.1249 -2.02273 3.17431 0
M  V30 322 C 27.2719 -0.870548 2.63281 0
M  V30 323 H 30.2229 -0.0322728 1.58667 0
M  V30 324 H 30.2439 -2.37279 2.97454 0
M  V30 325 H 29.7559 -0.749484 3.80794 0
M  V30 326 H 27.8569 -2.80746 2.44974 0
M  V30 327 H 27.9699 -2.22655 4.24219 0
M  V30 328 H 26.3339 -1.26851 2.20864 0
M  V30 329 H 27.1169 -0.128149 3.43061 0
M  V30 330 N 29.562 -1.4872 -0.521534 0
M  V30 331 C 30.79 -1.60843 -1.30142 0
M  V30 332 C 31.205 -0.271897 -1.86832 0
M  V30 333 O 30.562 0.739969 -1.66825 0
M  V30 334 C 30.613 -2.66155 -2.4463 0
M  V30 335 O 30.334 -3.94623 -1.90275 0
M  V30 336 C 31.835 -2.88795 -3.36322 0
M  V30 337 H 29.055 -0.542075 -0.395468 0
M  V30 338 H 31.599 -1.94609 -0.628285 0
M  V30 339 H 29.754 -2.35224 -3.07812 0
M  V30 340 H 30.168 -4.52468 -2.65279 0
M  V30 341 H 31.642 -3.66264 -4.12983 0
M  V30 342 H 32.119 -1.97934 -3.9207 0
M  V30 343 H 32.725 -3.21063 -2.78924 0
M  V30 344 N 31.0401 0.771051 -1.3745 0
M  V30 345 C 32.0031 1.86598 -1.33093 0
M  V30 346 C 33.0031 1.59076 -0.234845 0
M  V30 347 O 34.1931 1.67145 -0.490732 0
M  V30 348 C 31.3251 3.23747 -1.06773 0
M  V30 349 H 32.5181 1.91873 -2.30488 0
M  V30 350 H 30.0711 0.970876 -1.2249 0
M  V30 351 H 30.8061 3.24148 -0.099129 0
M  V30 352 H 30.5911 3.45115 -1.86112 0
M  V30 353 H 32.0811 4.03824 -1.06377 0
M  V30 354 N 32.5182 1.22032 0.997298 0
M  V30 355 C 33.7642 1.05382 1.73972 0
M  V30 356 C 34.1192 -0.407419 1.88037 0
M  V30 357 O 33.4122 -1.29811 1.40924 0
M  V30 358 C 33.6062 1.69345 3.14733 0
M  V30 359 C 33.4352 3.21537 3.14395 0
M  V30 360 C 32.2052 3.9062 3.20537 0
M  V30 361 C 34.4032 4.18527 2.98897 0
M  V30 362 N 32.3852 5.29935 3.09906 0
M  V30 363 C 33.7562 5.44645 2.96247 0
M  V30 364 C 35.8112 4.09476 2.83255 0
M  V30 365 C 34.5142 6.62752 2.79557 0
M  V30 366 C 36.5402 5.27228 2.67926 0
M  V30 367 C 35.9022 6.52262 2.65959 0
M  V30 368 H 32.0012 0.440018 0.646458 0
M  V30 369 H 34.5852 1.54505 1.18475 0
M  V30 370 H 32.7562 1.22778 3.68484 0
M  V30 371 H 34.4882 1.45828 3.77513 0
M  V30 372 H 31.2432 3.41592 3.28043 0
M  V30 373 H 31.6672 6.02926 3.07912 0
M  V30 374 H 36.3092 3.13598 2.83577 0
M  V30 375 H 34.0272 7.58783 2.77982 0
M  V30 376 H 37.6132 5.22053 2.56812 0
M  V30 377 H 36.4932 7.41844 2.54239 0
M  V30 378 N 33.9963 -1.19345 1.0293 0
M  V30 379 C 35.2213 -1.93538 0.745511 0
M  V30 380 C 35.6463 -1.75007 -0.689511 0
M  V30 381 O 35.0043 -1.05265 -1.47611 0
M  V30 382 C 35.0523 -3.43336 1.10239 0
M  V30 383 O 34.1563 -4.11806 0.221289 0
M  V30 384 H 33.4973 -0.604193 0.275404 0
M  V30 385 H 36.0273 -1.5141 1.37609 0
M  V30 386 H 36.0373 -3.94004 1.05947 0
M  V30 387 H 34.7123 -3.56146 2.14786 0
M  V30 388 H 33.2893 -3.715 0.322842 0
M  V30 389 N 35.4744 -0.807222 -1.35358 0
M  V30 390 C 36.4044 -0.232509 -2.3234 0
M  V30 391 C 37.3854 0.642386 -1.57504 0
M  V30 392 O 38.5704 0.572526 -1.85569 0
M  V30 393 C 35.7004 0.619238 -3.41735 0
M  V30 394 C 34.6544 -0.157215 -4.27711 0
M  V30 395 C 33.9804 0.816273 -5.28433 0
M  V30 396 C 35.2804 -1.35656 -5.04376 0
M  V30 397 H 36.9744 -1.04276 -2.80654 0
M  V30 398 H 34.5204 -0.50288 -1.34934 0
M  V30 399 H 36.4734 1.03137 -4.08584 0
M  V30 400 H 35.1974 1.46239 -2.92031 0
M  V30 401 H 33.8564 -0.550525 -3.62443 0
M  V30 402 H 33.5044 1.65494 -4.74996 0
M  V30 403 H 33.2044 0.301067 -5.86828 0
M  V30 404 H 34.7284 1.22659 -5.98153 0
M  V30 405 H 36.1424 -1.01927 -5.64166 0
M  V30 406 H 34.5394 -1.8063 -5.7227 0
M  V30 407 H 35.6094 -2.14288 -4.34981 0
M  V30 408 N 36.9525 1.47285 -0.560781 0
M  V30 409 C 38.3685 1.58065 -0.22081 0
M  V30 410 C 38.5685 1.55892 1.27671 0
M  V30 411 O 37.6245 1.46422 2.0571 0
M  V30 412 C 38.9375 2.88418 -0.850625 0
M  V30 413 C 40.4855 3.02009 -0.822184 0
M  V30 414 C 40.9605 4.35066 -1.43113 0
M  V30 415 N 42.4515 4.41711 -1.39448 0
M  V30 416 C 43.1865 5.43237 -1.83525 0
M  V30 417 N 42.6825 6.51555 -2.35474 0
M  V30 418 N 44.4755 5.34304 -1.74574 0
M  V30 419 H 36.6265 1.46941 -1.53369 0
M  V30 420 H 38.8895 0.699558 -0.639783 0
M  V30 421 H 38.5955 2.95755 -1.9032 0
M  V30 422 H 38.4695 3.75612 -0.345773 0
M  V30 423 H 40.8565 2.94266 0.221714 0
M  V30 424 H 40.9375 2.16347 -1.36483 0
M  V30 425 H 40.5815 4.43565 -2.47412 0
M  V30 426 H 40.5115 5.19465 -0.863899 0
M  V30 427 H 43.0025 3.64027 -1.01452 0
M  V30 428 H 43.3155 7.25203 -2.67021 0
M  V30 429 H 41.6605 6.52435 -2.39487 0
M  V30 430 H 44.8515 4.48581 -1.33763 0
M  V30 431 H 45.0245 6.13288 -2.09242 0
M  V30 432 N 38.4306 0.297415 1.54768 0
M  V30 433 C 39.3806 -0.595275 2.20092 0
M  V30 434 C 40.3646 -1.10163 1.17273 0
M  V30 435 O 41.5566 -1.043 1.43006 0
M  V30 436 C 38.6856 -1.7684 2.94249 0
M  V30 437 C 37.7716 -1.27818 4.0438 0
M  V30 438 N 38.1626 -0.505695 5.03266 0
M  V30 439 C 36.4606 -1.55923 4.17857 0
M  V30 440 C 37.1616 -0.245094 5.81183 0
M  V30 441 N 36.1376 -0.823881 5.3732 0
M  V30 442 H 39.9396 0.00250837 2.939 0
M  V30 443 H 37.4536 0.102007 1.62079 0
M  V30 444 H 39.4506 -2.41944 3.39513 0
M  V30 445 H 38.1106 -2.36992 2.21957 0
M  V30 446 H 39.1216 -0.150928 5.1768 0
M  V30 447 H 35.7986 -2.16849 3.56767 0
M  V30 448 H 37.1886 0.375084 6.70852 0
M  V30 449 N 39.9087 -1.5758 0.0250728 0
M  V30 450 C 40.8717 -2.08896 -0.943139 0
M  V30 451 C 41.8717 -1.00321 -1.25668 0
M  V30 452 O 43.0617 -1.26495 -1.19769 0
M  V30 453 C 40.1937 -2.55143 -2.26086 0
M  V30 454 H 41.3867 -2.95723 -0.498775 0
M  V30 455 H 38.9397 -1.54703 -0.222888 0
M  V30 456 H 39.6747 -1.71633 -2.75159 0
M  V30 457 H 39.4597 -3.34461 -2.04641 0
M  V30 458 H 40.9497 -2.95083 -2.95492 0
M  V30 459 N 41.3868 0.248026 -1.55636 0
M  V30 460 C 42.6328 0.97767 -1.77678 0
M  V30 461 C 42.9658 1.85016 -0.590135 0
M  V30 462 O 42.2408 1.90095 0.411611 0
M  V30 463 C 42.5238 1.83914 -3.09593 0
M  V30 464 C 42.3768 0.99491 -4.38659 0
M  V30 465 C 43.6958 2.82183 -3.37729 0
M  V30 466 H 40.8148 0.354005 -0.646413 0
M  V30 467 H 43.4568 0.248253 -1.88371 0
M  V30 468 H 41.6068 2.46104 -3.00608 0
M  V30 469 H 43.2788 0.391789 -4.59633 0
M  V30 470 H 41.5218 0.299231 -4.32767 0
M  V30 471 H 42.1928 1.63145 -5.2734 0
M  V30 472 H 44.6688 2.30129 -3.4667 0
M  V30 473 H 43.5448 3.39582 -4.31249 0
M  V30 474 H 43.8058 3.58588 -2.58586 0
M  V30 475 N 42.8649 1.48995 0.513639 0
M  V30 476 C 44.1129 1.57531 1.26604 0
M  V30 477 C 44.4339 0.258236 1.93283 0
M  V30 478 O 43.7039 -0.721502 1.8213 0
M  V30 479 H 42.2839 0.580387 0.470276 0
M  V30 480 H 44.9459 1.85552 0.596373 0
M  V30 481 H 44.0419 2.36486 2.03669 0
M  V30 482 N 44.343 -0.763751 1.37857 0
M  V30 483 C 45.754 -1.3405 1.29952 0
M  V30 484 C 46.105 -1.96138 -0.0492898 0
M  V30 485 O 45.23 -1.94372 -0.951239 0
M  V30 486 C 45.825 -2.43729 2.35333 0
M  V30 487 C 44.384 -2.97151 2.31037 0
M  V30 488 C 43.531 -1.70438 2.18738 0
M  V30 489 H 46.482 -0.563396 1.48363 0
M  V30 490 H 46.503 -3.23412 2.00462 0
M  V30 491 H 46.015 -1.9851 3.33489 0
M  V30 492 H 44.116 -3.46724 1.3643 0
M  V30 493 H 44.229 -3.52221 3.24772 0
M  V30 494 H 42.593 -1.93673 1.65418 0
M  V30 495 H 43.376 -1.27312 3.18821 0
M  V30 496 N 45.8211 -1.22559 -0.990812 0
M  V30 497 C 47.2371 -0.985996 -1.255 0
M  V30 498 C 47.4371 0.319173 -1.98956 0
M  V30 499 O 46.4931 1.04127 -2.3003 0
M  V30 500 C 47.8061 -2.18607 -2.06474 0
M  V30 501 C 49.3541 -2.22985 -2.19651 0
M  V30 502 C 49.8291 -3.4255 -3.04012 0
M  V30 503 N 51.3201 -3.42725 -3.11599 0
M  V30 504 C 52.0551 -4.31892 -3.7717 0
M  V30 505 N 51.5511 -5.31279 -4.44651 0
M  V30 506 N 53.3441 -4.19662 -3.73952 0
M  V30 507 H 45.4951 -2.06469 -0.49841 0
M  V30 508 H 47.7581 -0.904853 -0.282747 0
M  V30 509 H 47.4641 -3.13267 -1.59865 0
M  V30 510 H 47.3381 -2.18838 -3.07229 0
M  V30 511 H 49.7251 -1.28871 -2.65474 0
M  V30 512 H 49.8061 -2.26791 -1.18319 0
M  V30 513 H 49.4501 -4.36965 -2.58889 0
M  V30 514 H 49.3801 -3.35984 -4.0549 0
M  V30 515 H 51.8711 -2.70807 -2.63575 0
M  V30 516 H 52.1841 -5.95593 -4.92431 0
M  V30 517 H 50.5291 -5.3519 -4.43392 0
M  V30 518 H 53.7201 -3.41268 -3.20396 0
M  V30 519 H 53.8931 -4.89358 -4.24774 0
M  V30 520 N 47.2992 1.18797 -1.03562 0
M  V30 521 C 48.7102 1.70322 -0.764676 0
M  V30 522 C 49.0612 1.82708 0.714996 0
M  V30 523 O 48.1862 1.50299 1.55689 0
M  V30 524 C 48.7812 3.09356 -1.38145 0
M  V30 525 C 47.3402 3.58114 -1.15895 0
M  V30 526 C 46.4872 2.34798 -1.4753 0
M  V30 527 H 49.4382 1.03543 -1.20268 0
M  V30 528 H 49.4592 3.72378 -0.781977 0
M  V30 529 H 48.9712 3.00309 -2.45837 0
M  V30 530 H 47.0722 3.72464 -0.100544 0
M  V30 531 H 47.1852 4.4184 -1.8524 0
M  V30 532 H 45.5492 2.38464 -0.894829 0
M  V30 533 H 46.3322 2.28375 -2.56319 0
M  V30 534 N 48.7773 0.814389 1.34928 0
M  V30 535 C 49.7093 0.187834 2.28429 0
M  V30 536 C 50.7223 -0.617374 1.5064 0
M  V30 537 O 51.9113 -0.448454 1.72775 0
M  V30 538 C 49.0113 -0.755962 3.30361 0
M  V30 539 C 48.1843 0.00456686 4.374 0
M  V30 540 C 47.2433 -0.858876 5.19143 0
M  V30 541 O 46.2693 -0.306968 5.68372 0
M  V30 542 N 47.4713 -2.17988 5.38016 0
M  V30 543 H 50.2363 0.991105 2.82838 0
M  V30 544 H 47.7973 0.670561 1.4736 0
M  V30 545 H 49.7893 -1.338 3.81942 0
M  V30 546 H 48.3593 -1.46001 2.7641 0
M  V30 547 H 47.5793 0.767865 3.86649 0
M  V30 548 H 48.8673 0.528422 5.06049 0
M  V30 549 H 48.2653 -2.65212 4.99679 0
M  V30 550 H 46.8223 -2.71098 5.92747 0
M  V30 551 N 50.2554 -1.46986 0.568584 0
M  V30 552 C 51.4834 -2.0683 0.0539956 0
M  V30 553 C 51.8984 -1.41953 -1.24478 0
M  V30 554 O 51.2554 -0.519933 -1.74937 0
M  V30 555 C 51.3064 -3.61254 -0.133362 0
M  V30 556 O 51.0274 -4.237 1.11399 0
M  V30 557 C 52.5284 -4.37992 -0.683927 0
M  V30 558 H 49.7484 -0.669058 0.0510141 0
M  V30 559 H 52.2924 -1.88824 0.785234 0
M  V30 560 H 50.4474 -3.78735 -0.81477 0
M  V30 561 H 50.8614 -5.16388 0.91888 0
M  V30 562 H 52.3354 -5.46684 -0.764263 0
M  V30 563 H 52.8124 -4.05058 -1.69778 0
M  V30 564 H 53.4184 -4.25283 -0.0378494 0
M  V30 565 N 51.7335 -0.305618 -1.54608 0
M  V30 566 C 52.9805 0.302298 -2.00231 0
M  V30 567 C 53.3085 1.5354 -1.19398 0
M  V30 568 O 52.5635 1.93973 -0.259423 0
M  V30 569 C 52.8625 0.698983 -3.50498 0
M  V30 570 C 52.5285 -0.432903 -4.48817 0
M  V30 571 C 51.1905 -0.743622 -4.75419 0
M  V30 572 C 53.5425 -1.19409 -5.07337 0
M  V30 573 C 50.8705 -1.81857 -5.57804 0
M  V30 574 C 53.2225 -2.25899 -5.90891 0
M  V30 575 C 51.8865 -2.57572 -6.15803 0
M  V30 576 H 51.1565 0.110619 -0.732697 0
M  V30 577 H 53.8035 -0.425674 -1.86709 0
M  V30 578 H 52.1085 1.50711 -3.61654 0
M  V30 579 H 53.8055 1.1806 -3.83227 0
M  V30 580 H 50.3955 -0.18063 -4.28219 0
M  V30 581 H 54.5795 -0.967295 -4.86782 0
M  V30 582 H 49.8355 -2.06864 -5.75341 0
M  V30 583 H 54.0095 -2.85335 -6.35261 0
M  V30 584 H 51.6365 -3.40998 -6.7943 0
M  V30 585 N 53.2116 1.57565 -0.0334293 0
M  V30 586 C 54.1416 2.13511 0.945265 0
M  V30 587 C 55.1226 1.05231 1.33643 0
M  V30 588 O 56.3076 1.33084 1.41429 0
M  V30 589 C 53.4376 2.6657 2.22616 0
M  V30 590 C 52.3916 3.79676 1.97561 0
M  V30 591 C 51.7176 4.1918 3.31952 0
M  V30 592 C 53.0176 5.0557 1.31135 0
M  V30 593 H 54.7116 2.95538 0.479325 0
M  V30 594 H 52.2576 1.42166 0.229115 0
M  V30 595 H 54.2106 3.04344 2.91466 0
M  V30 596 H 52.9346 1.8171 2.71384 0
M  V30 597 H 51.5936 3.42347 1.31127 0
M  V30 598 H 51.2416 3.31296 3.78487 0
M  V30 599 H 50.9416 4.95402 3.15992 0
M  V30 600 H 52.4656 4.59541 4.02063 0
M  V30 601 H 53.8796 5.40903 1.89992 0
M  V30 602 H 52.2766 5.86818 1.25559 0
M  V30 603 H 53.3466 4.84062 0.284894 0
M  V30 604 N 54.6897 -0.239769 1.55765 0
M  V30 605 C 55.6197 -1.30052 1.9393 0
M  V30 606 C 56.6007 -1.49839 0.805132 0
M  V30 607 O 57.7857 -1.62328 1.06599 0
M  V30 608 C 54.9157 -2.65391 2.2402 0
M  V30 609 C 53.8697 -2.60289 3.39755 0
M  V30 610 C 53.1957 -3.99489 3.55405 0
M  V30 611 C 54.4957 -2.16654 4.75246 0
M  V30 612 H 56.1897 -0.983573 2.82783 0
M  V30 613 H 53.7357 -0.471701 1.36055 0
M  V30 614 H 55.6887 -3.3974 2.49308 0
M  V30 615 H 54.4127 -2.98736 1.32 0
M  V30 616 H 53.0717 -1.88398 3.14487 0
M  V30 617 H 52.7197 -4.30112 2.60793 0
M  V30 618 H 52.4197 -3.96962 4.33238 0
M  V30 619 H 53.9437 -4.75528 3.83022 0
M  V30 620 H 55.3577 -2.80737 4.99859 0
M  V30 621 H 53.7547 -2.25223 5.56232 0
M  V30 622 H 54.8247 -1.11835 4.71827 0
M  V30 623 N 56.1678 -1.49265 -0.50573 0
M  V30 624 C 57.4448 -1.49012 -1.26707 0
M  V30 625 C 57.8248 -0.215205 -2.1 0
M  V30 626 O 57.1728 0.802547 -2.13943 0
M  V30 627 C 57.3828 -2.7663 -2.12783 0
M  V30 628 C 58.7308 -3.25932 -2.72127 0
M  V30 629 O 59.7548 -2.77715 -2.23054 0
M  V30 630 O 58.6138 -4.09897 -3.61451 0
M  V30 631 H 55.7078 -0.596197 -0.57313 0
M  V30 632 H 58.2538 -1.61524 -0.52039 0
M  V30 633 H 57.0258 -3.60916 -1.5118 0
M  V30 634 H 56.6488 -2.66956 -2.94653 0
M  V30 635 N 57.6459 0.756429 -1.3826 0
M  V30 636 C 59.0569 1.33359 -1.30661 0
M  V30 637 C 59.4079 1.96161 0.0388875 0
M  V30 638 O 58.5329 1.94874 0.940918 0
M  V30 639 C 59.1279 2.42477 -2.36622 0
M  V30 640 C 57.6869 2.95922 -2.3261 0
M  V30 641 C 56.8339 1.69275 -2.19639 0
M  V30 642 H 59.7849 0.55552 -1.4866 0
M  V30 643 H 59.8059 3.22345 -2.02174 0
M  V30 644 H 59.3179 1.96739 -3.34538 0
M  V30 645 H 57.4189 3.45996 -1.38267 0
M  V30 646 H 57.5319 3.50494 -3.26636 0
M  V30 647 H 55.8959 1.92793 -1.66442 0
M  V30 648 H 56.6789 1.25619 -3.19491 0
M  V30 649 N 59.124 1.23083 0.984299 0
M  V30 650 C 60.354 1.08556 1.75781 0
M  V30 651 C 60.762 -0.366171 1.85623 0
M  V30 652 O 60.105 -1.26524 1.33182 0
M  V30 653 C 60.167 1.63208 3.20318 0
M  V30 654 C 59.831 3.11922 3.33997 0
M  V30 655 C 60.828 4.09259 3.2063 0
M  V30 656 C 58.513 3.51552 3.58771 0
M  V30 657 C 60.507 5.4421 3.31835 0
M  V30 658 C 58.194 4.86649 3.69616 0
M  V30 659 C 59.192 5.82787 3.56157 0
M  V30 660 O 58.88 7.15431 3.66626 0
M  V30 661 H 58.612 0.380713 0.5586 0
M  V30 662 H 61.166 1.63321 1.2456 0
M  V30 663 H 59.396 1.0286 3.72769 0
M  V30 664 H 61.085 1.44216 3.79416 0
M  V30 665 H 61.851 3.79984 3.01392 0
M  V30 666 H 57.73 2.77239 3.6832 0
M  V30 667 H 61.274 6.1923 3.21247 0
M  V30 668 H 57.171 5.15601 3.88363 0
M  V30 669 H 57.939 7.23127 3.83445 0
M  V30 670 N 60.6021 -1.18246 1.0419 0
M  V30 671 C 61.8511 -1.87588 0.741194 0
M  V30 672 C 62.1641 -1.81303 -0.734066 0
M  V30 673 O 63.3701 -2.46019 -1.14834 0
M  V30 674 C 61.8261 -3.36538 1.27555 0
M  V30 675 C 61.4341 -3.51349 2.77953 0
M  V30 676 C 63.1781 -4.11273 1.05143 0
M  V30 677 C 61.0851 -4.94265 3.2474 0
M  V30 678 H 60.0151 -0.702622 0.273565 0
M  V30 679 H 62.6661 -1.33601 1.25789 0
M  V30 680 H 61.0481 -3.9 0.686703 0
M  V30 681 H 62.2221 -3.08153 3.42605 0
M  V30 682 H 60.5371 -2.90022 2.98791 0
M  V30 683 H 63.1341 -5.16689 1.37611 0
M  V30 684 H 63.4771 -4.16298 -0.0112774 0
M  V30 685 H 64.0101 -3.63987 1.60495 0
M  V30 686 H 60.7491 -4.94408 4.30396 0
M  V30 687 H 60.2691 -5.38172 2.64823 0
M  V30 688 H 61.9481 -5.62987 3.18834 0
M  V30 689 N 62.0802 -0.821533 -1.34494 0
M  V30 690 C 63.0432 -0.247847 -2.27856 0
M  V30 691 C 64.0432 0.573453 -1.50227 0
M  V30 692 O 65.2332 0.389759 -1.69784 0
M  V30 693 C 62.3652 0.652698 -3.34593 0
M  V30 694 H 63.5582 -1.07146 -2.80107 0
M  V30 695 H 61.1112 -0.593291 -1.44602 0
M  V30 696 H 61.8462 1.49943 -2.87555 0
M  V30 697 H 61.6312 0.065292 -3.92046 0
M  V30 698 H 63.1212 1.04793 -4.04238 0
M  V30 699 N 63.5583 1.46682 -0.576371 0
M  V30 700 C 64.4883 2.33028 0.148397 0
M  V30 701 C 65.4693 1.44961 0.889956 0
M  V30 702 O 66.6543 1.73789 0.866662 0
M  V30 703 C 63.7843 3.27117 1.1667 0
M  V30 704 C 62.7383 4.24575 0.540386 0
M  V30 705 C 62.0643 5.08126 1.6647 0
M  V30 706 C 63.3643 5.19722 -0.518331 0
M  V30 707 H 65.0583 2.93875 -0.572509 0
M  V30 708 H 62.6043 1.41315 -0.276768 0
M  V30 709 H 64.5573 3.86374 1.68204 0
M  V30 710 H 63.2813 2.64364 1.9178 0
M  V30 711 H 61.9403 3.66571 0.0461769 0
M  V30 712 H 61.5883 4.41762 2.40531 0
M  V30 713 H 61.2883 5.74122 1.25131 0
M  V30 714 H 62.8123 5.70246 2.18293 0
M  V30 715 H 64.2263 5.73232 -0.0883058 0
M  V30 716 H 62.6233 5.94026 -0.851679 0
M  V30 717 H 63.6933 4.64037 -1.40703 0
M  V30 718 N 65.0364 0.313813 1.54444 0
M  V30 719 C 65.9844 -0.572171 2.25453 0
M  V30 720 C 66.9784 -1.12657 1.2651 0
M  V30 721 O 68.1844 -1.07573 1.44319 0
M  V30 722 H 64.5594 -0.203146 0.724041 0
M  V30 723 H 66.5304 0.0491145 2.9836 0
M  V30 724 C 65.2794 -1.72626 3.0182 0
M  V30 725 H 64.6024 -1.30891 3.77767 0
M  V30 726 H 66.0424 -2.32199 3.54767 0
M  V30 727 C 64.5014 -2.63806 2.09542 0
M  V30 728 O 65.0314 -3.65256 1.67185 0
M  V30 729 N 63.2374 -2.31824 1.75232 0
M  V30 730 H 62.7844 -1.49368 2.09873 0
M  V30 731 H 62.7424 -2.93095 1.13767 0
M  V30 732 N 66.5145 -1.57545 0.0417849 0
M  V30 733 C 67.7605 -1.92601 -0.635021 0
M  V30 734 C 68.0935 -0.919627 -1.71045 0
M  V30 735 O 67.3685 0.0557892 -1.9442 0
M  V30 736 C 67.6515 -3.38085 -1.23979 0
M  V30 737 C 67.5045 -4.49467 -0.173057 0
M  V30 738 C 68.8235 -3.83776 -2.15416 0
M  V30 739 H 65.9425 -0.700397 -0.229374 0
M  V30 740 H 68.5845 -1.89728 0.101633 0
M  V30 741 H 66.7345 -3.40664 -1.86762 0
M  V30 742 H 68.4065 -4.59018 0.458312 0
M  V30 743 H 66.6495 -4.30909 0.499996 0
M  V30 744 H 67.3205 -5.48323 -0.636054 0
M  V30 745 H 69.7965 -3.83013 -1.62605 0
M  V30 746 H 68.6725 -4.8624 -2.54679 0
M  V30 747 H 68.9335 -3.19998 -3.05047 0
M  V30 748 N 67.9926 0.231505 -1.5589 0
M  V30 749 C 69.2696 0.981096 -1.69215 0
M  V30 750 C 69.6496 2.02799 -0.586164 0
M  V30 751 O 68.9976 2.24823 0.408253 0
M  V30 752 C 69.2076 1.60054 -3.10135 0
M  V30 753 C 70.5556 2.09658 -3.69227 0
M  V30 754 O 71.5796 1.69967 -3.13033 0
M  V30 755 O 70.4386 2.8258 -4.67772 0
M  V30 756 H 67.5326 0.457653 -0.688827 0
M  V30 757 H 70.0786 0.224073 -1.68214 0
M  V30 758 H 68.8506 0.844105 -3.82087 0
M  V30 759 H 68.4736 2.42336 -3.15212 0
M  V30 760 N 69.4707 1.49531 0.497807 0
M  V30 761 C 70.7477 1.49682 1.25915 0
M  V30 762 C 71.1277 0.226339 2.09883 0
M  V30 763 O 70.4757 -0.791189 2.14365 0
M  V30 764 C 70.6857 2.77755 2.11313 0
M  V30 765 C 72.0337 3.27371 2.70395 0
M  V30 766 O 73.0577 2.78894 2.21578 0
M  V30 767 O 71.9167 4.11808 3.59272 0
M  V30 768 H 69.0107 0.599228 0.56996 0
M  V30 769 H 71.5567 1.61798 0.511816 0
M  V30 770 H 70.3287 3.61713 1.49264 0
M  V30 771 H 69.9517 2.68515 2.93233 0
M  V30 772 N 70.9488 -0.749086 1.3866 0
M  V30 773 C 72.1738 -1.54344 1.38538 0
M  V30 774 C 72.5988 -1.88088 -0.0216655 0
M  V30 775 O 71.9568 -1.50899 -1.00494 0
M  V30 776 C 72.0048 -2.8164 2.25192 0
M  V30 777 O 71.1088 -3.7698 1.67212 0
M  V30 778 H 70.4498 -0.466654 0.472367 0
M  V30 779 H 72.9798 -0.925355 1.82478 0
M  V30 780 H 72.9898 -3.30519 2.3921 0
M  V30 781 H 71.6648 -2.56411 3.27454 0
M  V30 782 H 70.2418 -3.35699 1.6236 0
M  V30 783 N 72.4269 -1.23603 -0.977757 0
M  V30 784 C 73.8429 -0.999251 -1.24447 0
M  V30 785 C 74.0429 0.298053 -1.99283 0
M  V30 786 O 73.0989 1.01681 -2.31122 0
M  V30 787 C 74.4119 -2.20784 -2.04144 0
M  V30 788 C 75.9599 -2.25303 -2.17273 0
M  V30 789 C 76.4349 -3.45755 -3.00362 0
M  V30 790 N 77.9259 -3.4601 -3.07947 0
M  V30 791 C 78.6609 -4.35868 -3.72568 0
M  V30 792 N 78.1569 -5.35966 -4.38991 0
M  V30 793 N 79.9499 -4.23605 -3.6948 0
M  V30 794 H 72.1009 -2.06986 -0.476483 0
M  V30 795 H 74.3639 -0.907801 -0.273134 0
M  V30 796 H 74.0699 -3.14945 -1.56533 0
M  V30 797 H 73.9439 -2.22085 -3.04891 0
M  V30 798 H 76.3309 -1.3168 -2.64092 0
M  V30 799 H 76.4119 -2.28033 -1.15907 0
M  V30 800 H 76.0559 -4.39687 -2.5424 0
M  V30 801 H 75.9859 -3.40266 -4.01904 0
M  V30 802 H 78.4769 -2.73588 -2.60688 0
M  V30 803 H 78.7899 -6.00783 -4.86086 0
M  V30 804 H 77.1349 -5.39863 -4.37691 0
M  V30 805 H 80.3259 -3.44647 -3.16759 0
M  V30 806 H 80.4989 -4.93836 -4.1956 0
M  V30 807 N 73.905 1.17692 -1.04816 0
M  V30 808 C 75.154 1.87192 -0.751132 0
M  V30 809 C 75.467 1.8169 0.724441 0
M  V30 810 O 76.673 2.46625 1.13527 0
M  V30 811 C 75.129 3.35857 -1.29338 0
M  V30 812 C 74.737 3.4987 -2.79812 0
M  V30 813 C 76.481 4.10709 -1.07322 0
M  V30 814 C 74.388 4.92536 -3.27356 0
M  V30 815 H 73.318 0.701162 -0.277288 0
M  V30 816 H 75.969 1.32932 -1.26496 0
M  V30 817 H 74.351 3.89631 -0.707376 0
M  V30 818 H 75.525 3.06332 -3.44235 0
M  V30 819 H 73.84 2.88433 -3.00325 0
M  V30 820 H 76.437 5.15952 -1.4035 0
M  V30 821 H 76.78 4.16299 -0.0108001 0
M  V30 822 H 77.313 3.6313 -1.62423 0
M  V30 823 H 74.052 4.92119 -4.33012 0
M  V30 824 H 73.572 5.3676 -2.67673 0
M  V30 825 H 75.251 5.61288 -3.21815 0
M  V30 826 N 75.3831 0.828654 1.34056 0
M  V30 827 C 76.6311 0.41863 1.97717 0
M  V30 828 C 76.9521 -1.02314 1.66002 0
M  V30 829 O 76.2221 -1.71119 0.953683 0
M  V30 830 H 74.8021 0.151809 0.731412 0
M  V30 831 H 77.4641 1.05936 1.63596 0
M  V30 832 H 76.5601 0.542318 3.07352 0
M  V30 833 N 76.8612 -1.46375 0.584142 0
M  V30 834 C 77.7932 -2.28443 -0.186119 0
M  V30 835 C 78.8062 -1.38596 -0.854115 0
M  V30 836 O 79.9952 -1.63183 -0.723438 0
M  V30 837 C 77.0952 -3.13671 -1.28311 0
M  V30 838 C 76.2682 -4.31652 -0.706758 0
M  V30 839 C 75.3272 -4.98267 -1.69163 0
M  V30 840 O 74.3532 -5.55815 -1.22712 0
M  V30 841 N 75.5552 -4.95408 -3.02575 0
M  V30 842 H 78.3202 -2.9519 0.517986 0
M  V30 843 H 75.8812 -1.56303 0.42201 0
M  V30 844 H 77.8732 -3.55101 -1.94128 0
M  V30 845 H 76.4432 -2.48989 -1.89005 0
M  V30 846 H 75.6632 -3.93989 0.128908 0
M  V30 847 H 76.9512 -5.07906 -0.301506 0
M  V30 848 H 76.3492 -4.49902 -3.42936 0
M  V30 849 H 74.9062 -5.40774 -3.63877 0
M  V30 850 N 78.3393 -0.321999 -1.54275 0
M  V30 851 C 79.5673 0.283052 -2.04955 0
M  V30 852 C 79.9823 1.45904 -1.19823 0
M  V30 853 O 79.3393 1.81063 -0.228545 0
M  V30 854 C 79.3903 0.719028 -3.54277 0
M  V30 855 O 79.1113 -0.410175 -4.36176 0
M  V30 856 C 80.6123 1.38705 -4.21041 0
M  V30 857 H 77.8323 0.0584616 -0.668448 0
M  V30 858 H 80.3763 -0.467734 -1.99079 0
M  V30 859 H 78.5313 1.41979 -3.60445 0
M  V30 860 H 78.9453 -0.0669416 -5.24457 0
M  V30 861 H 80.4193 1.64306 -5.2698 0
M  V30 862 H 80.8963 2.33385 -3.72059 0
M  V30 863 H 81.5023 0.728906 -4.19007 0
M  V30 864 N 79.8174 1.5752 -0.0501392 0
M  V30 865 C 80.7804 2.1037 0.909786 0
M  V30 866 C 81.7804 1.02308 1.24056 0
M  V30 867 O 82.9704 1.28385 1.17741 0
M  V30 868 C 80.1024 2.58708 2.21998 0
M  V30 869 H 81.2954 2.96479 0.451665 0
M  V30 870 H 78.8484 1.55038 0.198248 0
M  V30 871 H 79.5834 1.75989 2.72394 0
M  V30 872 H 79.3684 3.37675 1.99295 0
M  V30 873 H 80.8584 2.99747 2.9076 0
M  V30 874 N 81.2955 -0.223234 1.56011 0
M  V30 875 C 82.5235 -0.964812 1.83027 0
M  V30 876 C 82.9385 -1.78013 0.62904 0
M  V30 877 O 82.2955 -1.78008 -0.402414 0
M  V30 878 C 82.3465 -1.88373 3.08542 0
M  V30 879 O 82.0675 -1.10137 4.2403 0
M  V30 880 C 83.5685 -2.73934 3.48533 0
M  V30 881 H 80.7885 -0.282842 0.608475 0
M  V30 882 H 83.3325 -0.238971 2.03099 0
M  V30 883 H 81.4875 -2.56354 2.9045 0
M  V30 884 H 81.9015 -1.72501 4.95322 0
M  V30 885 H 83.3755 -3.34117 4.39397 0
M  V30 886 H 83.8525 -3.46244 2.70207 0
M  V30 887 H 84.4585 -2.11369 3.69057 0
M  V30 888 N 82.7736 -1.49793 -0.48987 0
M  V30 889 C 83.7206 -1.67281 -1.59014 0
M  V30 890 C 84.6906 -0.514177 -1.57941 0
M  V30 891 O 85.8756 -0.742533 -1.75759 0
M  V30 892 C 83.0156 -1.75569 -2.97102 0
M  V30 893 C 82.1286 -3.0281 -3.08107 0
M  V30 894 C 81.2636 -3.02008 -4.36995 0
M  V30 895 C 80.3026 -4.23782 -4.41673 0
M  V30 896 N 79.4396 -4.20826 -5.62005 0
M  V30 897 H 84.2796 -2.61224 -1.43409 0
M  V30 898 H 81.8166 -1.29508 -0.697565 0
M  V30 899 H 83.7746 -1.78354 -3.77155 0
M  V30 900 H 82.4046 -0.850827 -3.11385 0
M  V30 901 H 81.4566 -3.09584 -2.21047 0
M  V30 902 H 82.7686 -3.92801 -3.07423 0
M  V30 903 H 81.9226 -3.03418 -5.25378 0
M  V30 904 H 80.6616 -2.09815 -4.4026 0
M  V30 905 H 79.6666 -4.22604 -3.5169 0
M  V30 906 H 80.8916 -5.17181 -4.40115 0
M  V30 907 H 78.8376 -3.31476 -5.66091 0
M  V30 908 H 78.7546 -5.04564 -5.62984 0
M  V30 909 H 80.0226 -4.26355 -6.52565 0
M  V30 910 N 84.2517 0.741722 -1.39055 0
M  V30 911 C 85.1837 1.8657 -1.33133 0
M  V30 912 C 86.1967 1.61001 -0.241329 0
M  V30 913 O 87.3857 1.7136 -0.499784 0
M  V30 914 C 84.4857 3.22457 -1.04283 0
M  V30 915 C 83.6587 3.75435 -2.24427 0
M  V30 916 C 82.7177 4.89867 -1.92138 0
M  V30 917 O 81.7437 5.03879 -2.64754 0
M  V30 918 N 82.9457 5.73738 -0.88347 0
M  V30 919 H 85.7107 1.92156 -2.29991 0
M  V30 920 H 83.2717 0.922172 -1.3307 0
M  V30 921 H 85.2637 3.9657 -0.807128 0
M  V30 922 H 83.8337 3.12181 -0.161807 0
M  V30 923 H 83.0537 2.92751 -2.6399 0
M  V30 924 H 84.3417 4.07563 -3.04581 0
M  V30 925 H 83.7397 5.64999 -0.281517 0
M  V30 926 H 82.2967 6.47947 -0.707662 0
M  V30 927 N 85.7298 1.2412 0.971189 0
M  V30 928 C 86.6768 1.0305 2.06517 0
M  V30 929 C 87.6468 -0.0550666 1.66009 0
M  V30 930 O 88.8318 0.0988688 1.90544 0
M  V30 931 C 85.9718 0.637653 3.39158 0
M  V30 932 C 85.0848 1.79633 3.92882 0
M  V30 933 C 84.2198 1.34939 5.13775 0
M  V30 934 C 83.2588 2.47823 5.59687 0
M  V30 935 N 82.3958 2.04022 6.71803 0
M  V30 936 H 87.2358 1.96685 2.23873 0
M  V30 937 H 84.7728 0.979694 1.09729 0
M  V30 938 H 86.7308 0.390931 4.15364 0
M  V30 939 H 85.3608 -0.261693 3.21737 0
M  V30 940 H 84.4128 2.15681 3.13346 0
M  V30 941 H 85.7248 2.64466 4.22918 0
M  V30 942 H 84.8788 1.06134 5.97345 0
M  V30 943 H 83.6178 0.471557 4.85415 0
M  V30 944 H 82.6228 2.77392 4.74693 0
M  V30 945 H 83.8478 3.36158 5.90063 0
M  V30 946 H 81.7938 1.18632 6.45184 0
M  V30 947 H 81.7108 2.82409 7.01271 0
M  V30 948 H 82.9788 1.78347 7.58823 0
M  V30 949 N 87.2079 -1.17134 1.05439 0
M  V30 950 C 88.4359 -1.91372 0.786414 0
M  V30 951 C 88.8509 -1.76955 -0.658202 0
M  V30 952 O 88.2079 -1.10838 -1.44987 0
M  V30 953 C 88.2589 -3.42356 1.1608 0
M  V30 954 O 87.9799 -3.56332 2.54871 0
M  V30 955 C 89.4809 -4.33663 0.919322 0
M  V30 956 H 86.7009 -0.607118 0.285743 0
M  V30 957 H 89.2449 -1.48525 1.40572 0
M  V30 958 H 87.3999 -3.82939 0.586191 0
M  V30 959 H 87.8139 -4.49896 2.69618 0
M  V30 960 H 89.2879 -5.38099 1.231 0
M  V30 961 H 89.7649 -4.38959 -0.145359 0
M  V30 962 H 90.3709 -3.98796 1.47789 0
M  V30 963 N 88.686 -0.835752 -1.33615 0
M  V30 964 C 89.634 -0.255238 -2.31195 0
M  V30 965 C 90.628 0.61107 -1.57995 0
M  V30 966 O 91.834 0.500979 -1.72888 0
M  V30 967 H 88.209 -0.0638085 -0.749288 0
M  V30 968 H 90.18 -1.09283 -2.77669 0
M  V30 969 C 88.929 0.55754 -3.43201 0
M  V30 970 H 88.252 -0.0997553 -3.99676 0
M  V30 971 H 89.692 0.929622 -4.13683 0
M  V30 972 C 88.151 1.73515 -2.88781 0
M  V30 973 O 88.681 2.83376 -2.84712 0
M  V30 974 N 86.887 1.55603 -2.4543 0
M  V30 975 H 86.434 0.662354 -2.48939 0
M  V30 976 H 86.392 2.34545 -2.09371 0
M  V30 977 N 90.1641 1.46063 -0.591896 0
M  V30 978 C 91.3891 2.07226 -0.0850314 0
M  V30 979 C 91.8141 1.43625 1.21463 0
M  V30 980 O 91.1721 0.523305 1.73583 0
M  V30 981 C 91.2201 3.60554 0.0576567 0
M  V30 982 O 90.3241 3.97128 1.11188 0
M  V30 983 H 89.6651 0.660615 -0.0669568 0
M  V30 984 H 92.1951 1.8756 -0.81745 0
M  V30 985 H 92.2051 4.07165 0.2609 0
M  V30 986 H 90.8801 4.06235 -0.891416 0
M  V30 987 H 89.4571 3.62213 0.886356 0
M  V30 988 N 91.6422 0.330177 1.54103 0
M  V30 989 C 93.0532 -0.15652 1.86043 0
M  V30 990 C 93.4042 -1.51086 1.2517 0
M  V30 991 O 92.5292 -2.09023 0.560217 0
M  V30 992 C 93.1242 -0.290784 3.3755 0
M  V30 993 C 91.6832 -0.721705 3.69416 0
M  V30 994 C 90.8302 0.152622 2.7688 0
M  V30 995 H 93.7812 0.550237 1.48856 0
M  V30 996 H 93.8022 -1.12058 3.63625 0
M  V30 997 H 93.3142 0.695068 3.81825 0
M  V30 998 H 91.4152 -1.71706 3.30678 0
M  V30 999 H 91.5282 -0.520869 4.7626 0
M  V30 1000 H 89.8922 -0.372894 2.51956 0
M  V30 1001 H 90.6752 1.13536 3.23982 0
M  V30 1002 N 93.1203 -1.57491 0.0584922 0
M  V30 1003 C 94.0833 -2.1085 -0.898617 0
M  V30 1004 C 95.0833 -1.02964 -1.23511 0
M  V30 1005 O 96.2733 -1.29007 -1.17059 0
M  V30 1006 C 93.4053 -2.59881 -2.20623 0
M  V30 1007 H 94.5983 -2.96715 -0.435936 0
M  V30 1008 H 92.1513 -1.55141 -0.190023 0
M  V30 1009 H 92.8863 -1.77431 -2.71457 0
M  V30 1010 H 92.6713 -3.38727 -1.97501 0
M  V30 1011 H 94.1613 -3.01285 -2.89166 0
M  V30 1012 N 94.5984 0.214957 -1.56127 0
M  V30 1013 C 95.8444 0.935325 -1.80619 0
M  V30 1014 C 96.1994 1.81706 -0.632507 0
M  V30 1015 O 95.4924 1.87931 0.373182 0
M  V30 1016 C 95.6864 1.80314 -3.0858 0
M  V30 1017 C 95.5154 1.00691 -4.38282 0
M  V30 1018 C 94.2854 0.699211 -5.00439 0
M  V30 1019 C 96.4834 0.369057 -5.12974 0
M  V30 1020 N 94.4654 -0.117734 -6.13787 0
M  V30 1021 C 95.8364 -0.310981 -6.1922 0
M  V30 1022 C 97.8914 0.282759 -4.97096 0
M  V30 1023 C 96.5944 -1.06907 -7.11311 0
M  V30 1024 C 98.6204 -0.461881 -5.89594 0
M  V30 1025 C 97.9824 -1.13044 -6.9527 0
M  V30 1026 H 94.0814 0.322307 -0.71249 0
M  V30 1027 H 96.6654 0.205649 -1.93611 0
M  V30 1028 H 94.8364 2.50458 -2.96859 0
M  V30 1029 H 96.5684 2.46148 -3.21237 0
M  V30 1030 H 93.3234 1.01884 -4.62511 0
M  V30 1031 H 93.7474 -0.515235 -6.75037 0
M  V30 1032 H 98.3894 0.785292 -4.15443 0
M  V30 1033 H 96.1074 -1.5831 -7.92442 0
M  V30 1034 H 99.6934 -0.529746 -5.79383 0
M  V30 1035 H 98.5734 -1.69742 -7.65609 0
M  V30 1036 N 96.0765 1.50051 0.48192 0
M  V30 1037 C 97.0265 1.64512 1.5786 0
M  V30 1038 C 98.0105 0.500073 1.52932 0
M  V30 1039 O 99.2025 0.753964 1.60139 0
M  V30 1040 C 96.3315 1.73263 2.9637 0
M  V30 1041 C 95.4175 2.93409 3.06222 0
M  V30 1042 N 95.8085 4.17236 2.85915 0
M  V30 1043 C 94.1065 2.91742 3.37346 0
M  V30 1044 C 94.8075 4.981 3.00451 0
M  V30 1045 N 93.7835 4.3184 3.30174 0
M  V30 1046 H 97.5855 2.57955 1.40842 0
M  V30 1047 H 95.0995 1.47086 0.688439 0
M  V30 1048 H 97.0965 1.81724 3.75209 0
M  V30 1049 H 95.7565 0.809711 3.14442 0
M  V30 1050 H 96.7675 4.46909 2.6171 0
M  V30 1051 H 93.4445 2.08907 3.61475 0
M  V30 1052 H 94.8345 6.06532 2.89082 0
M  V30 1053 N 97.5546 -0.734337 1.39446 0
M  V30 1054 C 98.8316 -1.48579 1.27215 0
M  V30 1055 C 99.2116 -2.1077 -0.117968 0
M  V30 1056 O 98.5596 -1.98646 -1.12924 0
M  V30 1057 C 98.7696 -2.53667 2.39696 0
M  V30 1058 C 100.118 -3.20031 2.79044 0
M  V30 1059 O 101.142 -2.6398 2.39151 0
M  V30 1060 O 100.001 -4.21455 3.47905 0
M  V30 1061 H 97.0946 -0.659816 0.49857 0
M  V30 1062 H 99.6406 -0.768106 1.51322 0
M  V30 1063 H 98.4126 -2.06096 3.32626 0
M  V30 1064 H 98.0356 -3.32994 2.17258 0
M  V30 1065 N 99.0327 -1.24633 -0.964593 0
M  V30 1066 C 99.9427 -1.05859 -2.09359 0
M  V30 1067 C 100.959 0.00148855 -1.74 0
M  V30 1068 O 102.135 -0.197346 -2.00431 0
M  V30 1069 C 99.1997 -0.668879 -3.40187 0
M  V30 1070 C 98.2607 -1.80578 -3.89474 0
M  V30 1071 C 97.4937 -1.43457 -5.14058 0
M  V30 1072 O 97.7167 -0.325775 -5.69469 0
M  V30 1073 O 96.6507 -2.2613 -5.57807 0
M  V30 1074 H 100.477 -2.00516 -2.28094 0
M  V30 1075 H 98.0617 -1.03481 -1.0776 0
M  V30 1076 H 99.9437 -0.463211 -4.18846 0
M  V30 1077 H 98.6187 0.248536 -3.22744 0
M  V30 1078 H 97.5257 -2.06623 -3.11862 0
M  V30 1079 H 98.8587 -2.70208 -4.11398 0
M  V30 1080 N 100.511 1.16574 -1.06058 0
M  V30 1081 C 101.758 1.87047 -0.775873 0
M  V30 1082 C 102.086 1.81562 0.697534 0
M  V30 1083 O 101.341 1.22445 1.52662 0
M  V30 1084 C 101.64 3.36195 -1.21275 0
M  V30 1085 C 101.306 3.6188 -2.68986 0
M  V30 1086 C 99.9678 3.68599 -3.09335 0
M  V30 1087 C 102.32 3.72648 -3.64394 0
M  V30 1088 C 99.6478 3.83584 -4.43937 0
M  V30 1089 C 102 3.89154 -4.98741 0
M  V30 1090 C 100.664 3.94114 -5.3873 0
M  V30 1091 H 99.9338 0.684452 -0.283912 0
M  V30 1092 H 102.581 1.37853 -1.32925 0
M  V30 1093 H 100.886 3.87505 -0.578528 0
M  V30 1094 H 102.583 3.89103 -0.969542 0
M  V30 1095 H 99.1728 3.57281 -2.36744 0
M  V30 1096 H 103.357 3.66769 -3.34356 0
M  V30 1097 H 98.6128 3.85677 -4.74409 0
M  V30 1098 H 102.787 3.96427 -5.72554 0
M  V30 1099 H 100.414 4.05478 -6.43033 0
M  V30 1100 N 101.989 0.842826 1.3317 0
M  V30 1101 C 103.235 0.441099 1.97945 0
M  V30 1102 C 103.568 -0.998024 1.66593 0
M  V30 1103 O 102.843 -1.69839 0.947898 0
M  V30 1104 C 103.126 0.666841 3.53872 0
M  V30 1105 C 102.979 2.15352 3.94897 0
M  V30 1106 C 104.298 0.115544 4.39948 0
M  V30 1107 H 101.417 0.161739 0.719034 0
M  V30 1108 H 104.059 1.05907 1.57746 0
M  V30 1109 H 102.209 0.140828 3.88245 0
M  V30 1110 H 103.881 2.7447 3.70761 0
M  V30 1111 H 102.124 2.63653 3.44484 0
M  V30 1112 H 102.795 2.26221 5.03516 0
M  V30 1113 H 105.271 0.565213 4.12243 0
M  V30 1114 H 104.147 0.303152 5.48062 0
M  V30 1115 H 104.408 -0.980935 4.3108 0
M  V30 1116 N 103.467 -1.45747 0.599634 0
M  V30 1117 C 104.695 -2.06668 0.0978551 0
M  V30 1118 C 105.11 -1.44562 -1.21439 0
M  V30 1119 O 104.467 -0.556923 -1.73795 0
M  V30 1120 C 104.518 -3.61456 -0.0567044 0
M  V30 1121 O 104.239 -4.21242 1.20361 0
M  V30 1122 C 105.74 -4.39345 -0.590869 0
M  V30 1123 H 102.96 -0.667825 0.0651943 0
M  V30 1124 H 105.504 -1.87115 0.82511 0
M  V30 1125 H 103.659 -3.80378 -0.734251 0
M  V30 1126 H 104.073 -5.14323 1.02821 0
M  V30 1127 H 105.547 -5.48182 -0.648131 0
M  V30 1128 H 106.024 -4.08568 -1.61147 0
M  V30 1129 H 106.63 -4.25268 0.0523679 0
M  V30 1130 N 104.945 -0.338344 -1.53925 0
M  V30 1131 C 106.222 0.314774 -1.93051 0
M  V30 1132 C 106.602 1.68669 -1.26941 0
M  V30 1133 O 105.95 2.24636 -0.418445 0
M  V30 1134 C 106.16 0.392249 -3.46789 0
M  V30 1135 C 107.508 0.645554 -4.19664 0
M  V30 1136 O 108.532 0.474575 -3.53024 0
M  V30 1137 O 107.391 0.976408 -5.37707 0
M  V30 1138 H 104.485 0.182598 -0.80659 0
M  V30 1139 H 107.031 -0.389141 -1.65178 0
M  V30 1140 H 105.803 -0.570702 -3.87116 0
M  V30 1141 H 105.426 1.14316 -3.80812 0
M  V30 1142 N 106.423 1.57458 -0.0668435 0
M  V30 1143 C 107.669 1.93587 0.6043 0
M  V30 1144 C 108.002 0.946722 1.69561 0
M  V30 1145 O 107.277 -0.0248516 1.94484 0
M  V30 1146 C 107.56 3.40014 1.18585 0
M  V30 1147 C 107.413 4.49685 0.101529 0
M  V30 1148 C 108.732 3.87154 2.09284 0
M  V30 1149 H 105.851 0.703958 0.218202 0
M  V30 1150 H 108.493 1.89542 -0.131804 0
M  V30 1151 H 106.643 3.43592 1.81319 0
M  V30 1152 H 108.315 4.5823 -0.531279 0
M  V30 1153 H 106.558 4.30059 -0.568487 0
M  V30 1154 H 107.229 5.49266 0.54874 0
M  V30 1155 H 109.705 3.85551 1.56491 0
M  V30 1156 H 108.581 4.90231 2.46911 0
M  V30 1157 H 108.842 3.2481 2.99918 0
M  V30 1158 N 107.901 -0.206675 1.56239 0
M  V30 1159 C 109.141 -0.93574 1.81723 0
M  V30 1160 C 109.505 -1.80927 0.642609 0
M  V30 1161 O 110.706 -2.57323 0.777081 0
M  V30 1162 C 108.977 -1.74012 3.12177 0
M  V30 1163 S 110.536 -2.52279 3.59028 0
M  V30 1164 H 107.354 -0.314065 0.637875 0
M  V30 1165 H 109.956 -0.200071 1.94474 0
M  V30 1166 H 108.66 -1.0888 3.95693 0
M  V30 1167 H 108.191 -2.51782 3.02274 0
M  V30 1168 H 110.206 -3.76209 3.23545 0
M  V30 1169 N 109.379 -1.50304 -0.473955 0
M  V30 1170 C 110.327 -1.69482 -1.59307 0
M  V30 1171 C 111.321 -0.560669 -1.59853 0
M  V30 1172 O 112.527 -0.741087 -1.64036 0
M  V30 1173 H 108.902 -0.534892 -0.528578 0
M  V30 1174 H 110.873 -2.63364 -1.40293 0
M  V30 1175 C 109.622 -1.80354 -2.97267 0
M  V30 1176 H 108.945 -2.67012 -2.97564 0
M  V30 1177 H 110.385 -1.97798 -3.75036 0
M  V30 1178 C 108.844 -0.55448 -3.32306 0
M  V30 1179 O 109.374 0.307661 -4.0052 0
M  V30 1180 N 107.58 -0.409354 -2.87702 0
M  V30 1181 H 107.127 -1.11196 -2.32364 0
M  V30 1182 H 107.085 0.425223 -3.11511 0
M  V30 1183 N 110.857 0.726932 -1.39834 0
M  V30 1184 C 112.105 1.4837 -1.37225 0
M  V30 1185 C 112.426 1.94979 0.0284857 0
M  V30 1186 O 111.696 1.69555 0.981213 0
M  V30 1187 H 110.276 0.55043 -0.505011 0
M  V30 1188 H 112.938 0.862468 -1.74778 0
M  V30 1189 H 112.034 2.36198 -2.04003 0
M  V30 1190 N 112.336 1.25143 0.95797 0
M  V30 1191 C 113.752 1.01892 1.22842 0
M  V30 1192 C 113.952 -0.266311 1.99732 0
M  V30 1193 O 113.008 -0.979913 2.3271 0
M  V30 1194 C 114.321 2.24004 2.00606 0
M  V30 1195 C 115.869 2.28731 2.13662 0
M  V30 1196 C 116.344 3.5049 2.94823 0
M  V30 1197 N 117.835 3.50866 3.02403 0
M  V30 1198 C 118.57 4.4174 3.65586 0
M  V30 1199 N 118.066 5.42882 4.30408 0
M  V30 1200 N 119.859 4.29429 3.62694 0
M  V30 1201 H 112.01 2.07718 0.443493 0
M  V30 1202 H 114.273 0.912031 0.258657 0
M  V30 1203 H 113.979 3.17395 1.51503 0
M  V30 1204 H 113.853 2.26907 3.01319 0
M  V30 1205 H 116.24 1.35865 2.61963 0
M  V30 1206 H 116.321 2.29848 1.12265 0
M  V30 1207 H 115.965 4.43676 2.47213 0
M  V30 1208 H 115.895 3.46617 3.96439 0
M  V30 1209 H 118.386 2.777 2.56302 0
M  V30 1210 H 118.699 6.0844 4.76467 0
M  V30 1211 H 117.044 5.46758 4.29047 0
M  V30 1212 H 120.235 3.49643 3.11236 0
M  V30 1213 H 120.408 5.00448 4.1165 0
M  V30 1214 N 113.814 -1.1601 1.06675 0
M  V30 1215 C 114.761 -2.20525 0.680967 0
M  V30 1216 C 115.731 -1.62904 -0.324283 0
M  V30 1217 O 116.916 -1.89615 -0.212294 0
M  V30 1218 C 114.056 -3.45013 0.0776551 0
M  V30 1219 C 113.169 -4.16863 1.13355 0
M  V30 1220 C 112.304 -5.2888 0.49597 0
M  V30 1221 C 111.343 -5.92537 1.53513 0
M  V30 1222 N 110.48 -6.96038 0.920631 0
M  V30 1223 H 115.32 -2.52876 1.57663 0
M  V30 1224 H 112.857 -1.24199 0.788223 0
M  V30 1225 H 114.815 -4.16193 -0.289704 0
M  V30 1226 H 113.445 -3.132 -0.781393 0
M  V30 1227 H 112.497 -3.44248 1.61857 0
M  V30 1228 H 113.809 -4.60294 1.92174 0
M  V30 1229 H 112.963 -6.06653 0.0758604 0
M  V30 1230 H 111.702 -4.86622 -0.324062 0
M  V30 1231 H 110.707 -5.13482 1.9651 0
M  V30 1232 H 111.932 -6.36873 2.35733 0
M  V30 1233 H 109.878 -6.55888 0.12138 0
M  V30 1234 H 109.795 -7.3786 1.64616 0
M  V30 1235 H 111.063 -7.77725 0.525795 0
M  V30 1236 N 115.292 -0.849877 -1.32721 0
M  V30 1237 C 116.541 -0.447175 -1.96681 0
M  V30 1238 C 116.854 1.00135 -1.68025 0
M  V30 1239 O 118.06 1.50926 -2.25685 0
M  V30 1240 C 116.516 -0.7487 -3.52026 0
M  V30 1241 C 116.124 -2.21264 -3.89546 0
M  V30 1242 C 117.868 -0.413487 -4.22481 0
M  V30 1243 C 115.775 -2.45763 -5.37917 0
M  V30 1244 H 114.705 -0.163486 -0.736063 0
M  V30 1245 H 117.356 -1.03999 -1.51183 0
M  V30 1246 H 115.738 -0.0853727 -3.95908 0
M  V30 1247 H 116.912 -2.91736 -3.56689 0
M  V30 1248 H 115.227 -2.5119 -3.32103 0
M  V30 1249 H 117.824 -0.574017 -5.3161 0
M  V30 1250 H 118.167 0.644492 -4.11281 0
M  V30 1251 H 118.7 -1.03251 -3.84167 0
M  V30 1252 H 115.439 -3.50168 -5.54132 0
M  V30 1253 H 114.959 -1.79864 -5.72197 0
M  V30 1254 H 116.638 -2.29471 -6.0494 0
M  V30 1255 N 116.77 1.45427 -0.607355 0
M  V30 1256 C 117.68 2.34325 0.113463 0
M  V30 1257 C 118.696 1.51226 0.860617 0
M  V30 1258 O 119.872 1.84029 0.818255 0
M  V30 1259 C 116.937 3.28839 1.09844 0
M  V30 1260 C 115.998 4.27844 0.353271 0
M  V30 1261 C 115.231 5.17842 1.29133 0
M  V30 1262 O 115.454 5.11264 2.52913 0
M  V30 1263 O 114.388 5.96713 0.788523 0
M  V30 1264 H 118.214 2.97364 -0.617094 0
M  V30 1265 H 115.799 1.44807 -0.367619 0
M  V30 1266 H 117.681 3.8708 1.66575 0
M  V30 1267 H 116.356 2.68365 1.81003 0
M  V30 1268 H 115.263 3.7322 -0.256494 0
M  V30 1269 H 116.596 4.91173 -0.317822 0
M  V30 1270 N 118.248 0.346503 1.53744 0
M  V30 1271 C 119.178 -0.501193 2.28058 0
M  V30 1272 C 120.159 -1.10014 1.29734 0
M  V30 1273 O 121.344 -1.12097 1.58581 0
M  V30 1274 C 118.474 -1.65078 3.05559 0
M  V30 1275 C 117.428 -1.18003 4.11411 0
M  V30 1276 C 116.754 -2.41837 4.76884 0
M  V30 1277 C 118.054 -0.278394 5.21558 0
M  V30 1278 H 119.748 0.11875 2.99164 0
M  V30 1279 H 117.294 0.0585531 1.43881 0
M  V30 1280 H 119.247 -2.25028 3.56287 0
M  V30 1281 H 117.971 -2.29767 2.32109 0
M  V30 1282 H 116.63 -0.603331 3.61601 0
M  V30 1283 H 116.278 -3.0494 4.00026 0
M  V30 1284 H 115.978 -2.1102 5.48402 0
M  V30 1285 H 117.502 -3.02508 5.30397 0
M  V30 1286 H 118.916 -0.784823 5.67903 0
M  V30 1287 H 117.313 -0.0619707 6.00068 0
M  V30 1288 H 118.383 0.684677 4.80042 0
M  V30 1289 N 119.726 -1.57421 0.075193 0
M  V30 1290 C 120.689 -2.11791 -0.876203 0
M  V30 1291 C 121.689 -1.04268 -1.22412 0
M  V30 1292 O 122.879 -1.30242 -1.15684 0
M  V30 1293 C 120.011 -2.62207 -2.17854 0
M  V30 1294 H 121.204 -2.9716 -0.40444 0
M  V30 1295 H 118.757 -1.55333 -0.173557 0
M  V30 1296 H 119.492 -1.803 -2.6956 0
M  V30 1297 H 119.277 -3.40802 -1.93897 0
M  V30 1298 H 120.767 -3.04335 -2.85955 0
M  V30 1299 N 121.204 0.198386 -1.56346 0
M  V30 1300 C 122.45 0.920648 -1.80698 0
M  V30 1301 C 122.783 1.83045 -0.648697 0
M  V30 1302 O 122.058 1.91308 0.350925 0
M  V30 1303 C 122.341 1.73971 -3.15287 0
M  V30 1304 C 122.194 0.85485 -4.41602 0
M  V30 1305 C 123.513 2.71296 -3.46535 0
M  V30 1306 H 120.632 0.333261 -0.657348 0
M  V30 1307 H 123.274 0.188198 -1.89066 0
M  V30 1308 H 121.424 2.36416 -3.08285 0
M  V30 1309 H 123.096 0.245362 -4.60647 0
M  V30 1310 H 121.339 0.161398 -4.335 0
M  V30 1311 H 122.01 1.46286 -5.32264 0
M  V30 1312 H 124.486 2.18983 -3.53816 0
M  V30 1313 H 123.362 3.2569 -4.41834 0
M  V30 1314 H 123.623 3.5018 -2.69864 0
M  V30 1315 N 122.682 1.50554 0.465978 0
M  V30 1316 C 123.929 1.61798 1.21768 0
M  V30 1317 C 124.257 0.320696 1.91838 0
M  V30 1318 O 123.512 -0.693724 1.82992 0
M  V30 1319 C 123.811 2.75152 2.28093 0
M  V30 1320 C 123.477 4.15454 1.75239 0
M  V30 1321 C 122.139 4.53628 1.60546 0
M  V30 1322 C 124.491 5.03121 1.36083 0
M  V30 1323 C 121.819 5.77204 1.05128 0
M  V30 1324 C 124.171 6.27249 0.821056 0
M  V30 1325 C 122.835 6.64221 0.660795 0
M  V30 1326 H 122.105 0.592063 0.445582 0
M  V30 1327 H 124.752 1.84503 0.512927 0
M  V30 1328 H 123.057 2.46556 3.04496 0
M  V30 1329 H 124.754 2.81055 2.86023 0
M  V30 1330 H 121.344 3.85341 1.87644 0
M  V30 1331 H 125.528 4.74257 1.46267 0
M  V30 1332 H 120.784 6.0452 0.91462 0
M  V30 1333 H 124.958 6.94537 0.509018 0
M  V30 1334 H 122.585 7.59854 0.229226 0
M  V30 1335 N 124.16 -0.719506 1.40217 0
M  V30 1336 C 125.11 -1.8251 1.36653 0
M  V30 1337 C 126.094 -1.59028 0.244732 0
M  V30 1338 O 127.286 -1.70268 0.483524 0
M  V30 1339 C 124.415 -3.20599 1.22763 0
M  V30 1340 C 123.501 -3.49858 2.39708 0
M  V30 1341 N 123.892 -3.49957 3.6519 0
M  V30 1342 C 122.19 -3.80297 2.33002 0
M  V30 1343 C 122.891 -3.77449 4.42614 0
M  V30 1344 N 121.867 -3.96002 3.72402 0
M  V30 1345 H 125.669 -1.80914 2.31619 0
M  V30 1346 H 123.183 -0.918455 1.33933 0
M  V30 1347 H 125.18 -3.99766 1.18292 0
M  V30 1348 H 123.84 -3.23424 0.287614 0
M  V30 1349 H 124.851 -3.309 3.98404 0
M  V30 1350 H 121.528 -3.90635 1.47346 0
M  V30 1351 H 122.918 -3.83863 5.51451 0
M  V30 1352 N 125.638 -1.25649 -0.95132 0
M  V30 1353 C 126.915 -1.01361 -1.67288 0
M  V30 1354 C 127.295 0.459135 -2.06046 0
M  V30 1355 O 126.643 1.43723 -1.7764 0
M  V30 1356 C 126.853 -1.95256 -2.89268 0
M  V30 1357 C 128.201 -2.23289 -3.61147 0
M  V30 1358 O 129.225 -1.93041 -2.99355 0
M  V30 1359 O 128.084 -2.74741 -4.72419 0
M  V30 1360 H 125.178 -0.38464 -0.732107 0
M  V30 1361 H 127.724 -1.36817 -1.00395 0
M  V30 1362 H 126.496 -2.94685 -2.57442 0
M  V30 1363 H 126.119 -1.60218 -3.6389 0
M  V30 1364 N 127.117 1.15442 -1.07289 0
M  V30 1365 C 128.08 2.18358 -0.696591 0
M  V30 1366 C 129.08 1.58637 0.262837 0
M  V30 1367 O 130.27 1.74145 0.0438809 0
M  V30 1368 C 127.402 3.4089 -0.0266151 0
M  V30 1369 H 128.595 2.53162 -1.60776 0
M  V30 1370 H 126.148 1.29893 -0.869342 0
M  V30 1371 H 126.883 3.11653 0.896822 0
M  V30 1372 H 126.668 3.85495 -0.716657 0
M  V30 1373 H 128.158 4.17009 0.222028 0
M  V30 1374 N 128.595 0.856903 1.32268 0
M  V30 1375 C 130.006 0.515711 1.79436 0
M  V30 1376 C 130.357 -0.966586 1.70738 0
M  V30 1377 O 129.482 -1.75409 1.26731 0
M  V30 1378 C 130.077 0.929335 3.25805 0
M  V30 1379 C 128.636 0.640006 3.70919 0
M  V30 1380 C 127.783 1.12784 2.53328 0
M  V30 1381 H 130.734 1.04389 1.19535 0
M  V30 1382 H 130.755 0.246633 3.797 0
M  V30 1383 H 130.267 2.00821 3.32103 0
M  V30 1384 H 128.368 -0.428051 3.70133 0
M  V30 1385 H 128.481 1.20788 4.63624 0
M  V30 1386 H 126.845 0.548033 2.48734 0
M  V30 1387 H 127.628 2.21387 2.62379 0
M  V30 1388 N 130.073 -1.45103 0.615059 0
M  V30 1389 C 131.322 -2.01396 0.110718 0
M  V30 1390 C 131.635 -1.48834 -1.26916 0
M  V30 1391 O 132.841 -1.97152 -1.86664 0
M  V30 1392 C 131.297 -3.59599 0.14723 0
M  V30 1393 C 130.905 -4.21158 1.52743 0
M  V30 1394 C 132.649 -4.23428 -0.30148 0
M  V30 1395 C 130.556 -5.71535 1.51992 0
M  V30 1396 H 129.486 -0.753061 0.0376241 0
M  V30 1397 H 132.137 -1.66494 0.77149 0
M  V30 1398 H 130.519 -3.91724 -0.580339 0
M  V30 1399 H 131.693 -4.00594 2.2773 0
M  V30 1400 H 130.008 -3.69552 1.91886 0
M  V30 1401 H 132.605 -5.33703 -0.326392 0
M  V30 1402 H 132.948 -3.94629 -1.32565 0
M  V30 1403 H 133.481 -3.96047 0.373065 0
M  V30 1404 H 130.22 -6.05044 2.52193 0
M  V30 1405 H 129.74 -5.94268 0.81274 0
M  V30 1406 H 131.419 -6.34873 1.24681 0
M  V30 1407 N 131.551 -0.354651 -1.53558 0
M  V30 1408 C 132.799 0.237972 -2.00694 0
M  V30 1409 C 133.12 1.50173 -1.24391 0
M  V30 1410 O 132.39 1.92673 -0.354135 0
M  V30 1411 H 130.97 0.0909256 -0.741446 0
M  V30 1412 H 133.632 -0.478368 -1.88938 0
M  V30 1413 H 132.728 0.47264 -3.085 0
M  V30 1414 N 133.029 1.57378 -0.0835403 0
M  V30 1415 C 134.259 1.97975 0.590713 0
M  V30 1416 C 134.667 0.961083 1.62972 0
M  V30 1417 O 134.01 -0.0590879 1.83605 0
M  V30 1418 C 134.072 3.34915 1.3066 0
M  V30 1419 C 133.736 4.55069 0.419698 0
M  V30 1420 C 134.733 5.18868 -0.32749 0
M  V30 1421 C 132.418 5.0114 0.341137 0
M  V30 1422 C 134.412 6.27098 -1.14134 0
M  V30 1423 C 132.099 6.0924 -0.476374 0
M  V30 1424 C 133.097 6.72083 -1.21627 0
M  V30 1425 O 132.785 7.781 -2.02028 0
M  V30 1426 H 132.517 0.655818 0.163947 0
M  V30 1427 H 135.071 2.04807 -0.156021 0
M  V30 1428 H 133.301 3.24733 2.09966 0
M  V30 1429 H 134.99 3.60037 1.87424 0
M  V30 1430 H 135.756 4.84211 -0.276459 0
M  V30 1431 H 131.635 4.51996 0.90668 0
M  V30 1432 H 135.179 6.7608 -1.71935 0
M  V30 1433 H 131.076 6.43329 -0.528927 0
M  V30 1434 H 131.844 7.95034 -1.94586 0
M  V30 1435 N 134.507 -0.190092 1.56449 0
M  V30 1436 C 135.784 -0.935886 1.71757 0
M  V30 1437 C 136.164 -2.01173 0.639726 0
M  V30 1438 O 135.512 -2.25827 -0.348502 0
M  V30 1439 C 135.722 -1.51775 3.1427 0
M  V30 1440 C 137.07 -1.99794 3.74656 0
M  V30 1441 O 138.094 -1.61607 3.1743 0
M  V30 1442 O 136.953 -2.70079 4.751 0
M  V30 1443 H 134.047 -0.439229 0.700719 0
M  V30 1444 H 136.593 -0.179395 1.68749 0
M  V30 1445 H 135.365 -0.742505 3.84191 0
M  V30 1446 H 134.988 -2.33894 3.21527 0
M  V30 1447 N 135.985 -1.50799 -0.457987 0
M  V30 1448 C 137.262 -1.52968 -1.21902 0
M  V30 1449 C 137.642 -0.281906 -2.09209 0
M  V30 1450 O 136.99 0.734076 -2.16388 0
M  V30 1451 C 137.2 -2.8326 -2.03875 0
M  V30 1452 C 138.548 -3.34425 -2.6162 0
M  V30 1453 O 139.572 -2.8467 -2.14106 0
M  V30 1454 O 138.431 -4.21188 -3.48228 0
M  V30 1455 H 135.525 -0.614129 -0.553873 0
M  V30 1456 H 138.071 -1.63098 -0.468739 0
M  V30 1457 H 136.843 -3.65543 -1.39621 0
M  V30 1458 H 136.466 -2.76195 -2.8601 0
M  V30 1459 N 137.463 0.71206 -1.40597 0
M  V30 1460 C 138.71 1.47197 -1.39065 0
M  V30 1461 C 139.038 1.94499 0.00583891 0
M  V30 1462 O 138.293 1.68752 0.99102 0
M  V30 1463 C 138.592 2.71039 -2.32965 0
M  V30 1464 C 138.258 2.42484 -3.80148 0
M  V30 1465 C 136.92 2.34406 -4.20247 0
M  V30 1466 C 139.272 2.18598 -4.73143 0
M  V30 1467 C 136.6 2.00516 -5.51371 0
M  V30 1468 C 138.952 1.8622 -6.0457 0
M  V30 1469 C 137.616 1.76626 -6.43708 0
M  V30 1470 H 136.886 0.538634 -0.508876 0
M  V30 1471 H 139.533 0.815325 -1.73276 0
M  V30 1472 H 137.838 3.41558 -1.91951 0
M  V30 1473 H 139.535 3.29138 -2.29061 0
M  V30 1474 H 136.125 2.49659 -3.4838 0
M  V30 1475 H 140.309 2.23793 -4.42979 0
M  V30 1476 H 135.565 1.91628 -5.80593 0
M  V30 1477 H 139.739 1.66752 -6.76141 0
M  V30 1478 H 137.366 1.50133 -7.45228 0
M  V30 1479 N 138.941 1.26152 0.944643 0
M  V30 1480 C 140.187 1.11657 1.69294 0
M  V30 1481 C 140.52 -0.339926 1.91202 0
M  V30 1482 O 139.795 -1.24994 1.49019 0
M  V30 1483 C 140.078 1.88236 3.06984 0
M  V30 1484 C 139.931 3.41772 2.92424 0
M  V30 1485 C 141.25 1.67343 4.07043 0
M  V30 1486 H 138.369 0.407004 0.614424 0
M  V30 1487 H 141.011 1.55106 1.09737 0
M  V30 1488 H 139.161 1.51308 3.57824 0
M  V30 1489 H 140.833 3.88433 2.48832 0
M  V30 1490 H 139.076 3.68974 2.28124 0
M  V30 1491 H 139.747 3.90579 3.90067 0
M  V30 1492 H 142.223 1.99509 3.65151 0
M  V30 1493 H 141.099 2.23346 5.01406 0
M  V30 1494 H 141.36 0.617158 4.37771 0
M  V30 1495 N 140.419 -1.14872 1.07899 0
M  V30 1496 C 141.382 -2.17986 0.708161 0
M  V30 1497 C 142.382 -1.58775 -0.25442 0
M  V30 1498 O 143.572 -1.74166 -0.034645 0
M  V30 1499 C 140.704 -3.40871 0.0446929 0
M  V30 1500 H 141.897 -2.52306 1.62116 0
M  V30 1501 H 139.45 -1.2943 0.876218 0
M  V30 1502 H 140.185 -3.12124 -0.880281 0
M  V30 1503 H 139.97 -3.8511 0.737091 0
M  V30 1504 H 141.46 -4.17121 -0.19991 0
M  V30 1505 N 141.898 -0.863906 -1.31812 0
M  V30 1506 C 142.846 -0.30422 -2.30602 0
M  V30 1507 C 143.84 0.577419 -1.59255 0
M  V30 1508 O 145.046 0.464194 -1.73912 0
M  V30 1509 H 141.421 -0.0796877 -0.747766 0
M  V30 1510 H 143.392 -1.15148 -2.75288 0
M  V30 1511 C 142.141 0.484617 -3.44306 0
M  V30 1512 H 141.464 -0.18451 -3.99374 0
M  V30 1513 H 142.904 0.841664 -4.15562 0
M  V30 1514 C 141.363 1.6735 -2.92396 0
M  V30 1515 O 141.893 2.77273 -2.90659 0
M  V30 1516 N 140.099 1.50362 -2.48676 0
M  V30 1517 H 139.646 0.609402 -2.50288 0
M  V30 1518 H 139.604 2.30051 -2.14299 0
M  V30 1519 N 143.376 1.44774 -0.622745 0
M  V30 1520 C 144.616 2.04004 -0.127102 0
M  V30 1521 C 144.98 1.47862 1.22478 0
M  V30 1522 O 146.181 1.98541 1.81204 0
M  V30 1523 C 144.452 3.57247 -0.104429 0
M  V30 1524 S 146.011 4.37574 0.327814 0
M  V30 1525 H 142.829 0.708713 -0.0569776 0
M  V30 1526 H 145.431 1.77275 -0.824253 0
M  V30 1527 H 144.135 3.95616 -1.09159 0
M  V30 1528 H 143.666 3.88575 0.614236 0
M  V30 1529 H 145.681 4.70575 1.57395 0
M  V30 1530 N 144.854 0.36279 1.53368 0
M  V30 1531 C 146.082 -0.228613 2.05633 0
M  V30 1532 C 146.497 -1.42676 1.23649 0
M  V30 1533 O 145.854 -1.80394 0.27647 0
M  V30 1534 C 145.905 -0.624845 3.56059 0
M  V30 1535 O 145.626 0.525675 4.34935 0
M  V30 1536 C 147.127 -1.27493 4.24571 0
M  V30 1537 H 144.347 -0.0407183 0.669763 0
M  V30 1538 H 146.891 0.520352 1.97769 0
M  V30 1539 H 145.046 -1.32373 3.64083 0
M  V30 1540 H 145.46 0.205969 5.24095 0
M  V30 1541 H 146.934 -1.50277 5.31151 0
M  V30 1542 H 147.411 -2.23439 3.78116 0
M  V30 1543 H 148.017 -0.617558 4.20792 0
M  V30 1544 N 146.332 -1.57332 0.0918853 0
M  V30 1545 C 147.581 -1.93412 -0.572249 0
M  V30 1546 C 147.894 -0.975515 -1.69538 0
M  V30 1547 O 149.1 -1.22991 -2.42045 0
M  V30 1548 C 147.556 -3.43648 -1.0693 0
M  V30 1549 C 147.164 -4.47994 0.0239049 0
M  V30 1550 C 148.908 -3.88695 -1.70635 0
M  V30 1551 C 146.815 -5.89381 -0.488319 0
M  V30 1552 H 145.745 -0.721939 -0.217532 0
M  V30 1553 H 148.396 -1.82735 0.167369 0
M  V30 1554 H 146.778 -3.49466 -1.8625 0
M  V30 1555 H 147.952 -4.53815 0.799277 0
M  V30 1556 H 146.267 -4.12536 0.565946 0
M  V30 1557 H 148.864 -4.91725 -2.10025 0
M  V30 1558 H 149.207 -3.27166 -2.57426 0
M  V30 1559 H 149.74 -3.85564 -0.979023 0
M  V30 1560 H 146.479 -6.54602 0.342906 0
M  V30 1561 H 145.999 -5.87037 -1.23077 0
M  V30 1562 H 147.678 -6.39863 -0.958317 0
M  V30 1563 N 147.81 0.181792 -1.56548 0
M  V30 1564 C 148.742 1.24956 -1.92142 0
M  V30 1565 C 149.755 1.41022 -0.813422 0
M  V30 1566 O 150.944 1.41212 -1.09186 0
M  V30 1567 C 148.044 2.61981 -2.14987 0
M  V30 1568 C 147.217 2.6735 -3.46183 0
M  V30 1569 C 146.276 3.85664 -3.5798 0
M  V30 1570 O 145.302 3.72148 -4.30691 0
M  V30 1571 N 146.504 5.01683 -2.92053 0
M  V30 1572 H 149.269 0.947329 -2.84334 0
M  V30 1573 H 146.83 0.371629 -1.57577 0
M  V30 1574 H 148.822 3.3958 -2.20154 0
M  V30 1575 H 147.392 2.84637 -1.2923 0
M  V30 1576 H 146.612 1.75925 -3.52766 0
M  V30 1577 H 147.9 2.67939 -4.32534 0
M  V30 1578 H 147.298 5.15564 -2.32832 0
M  V30 1579 H 145.855 5.77181 -3.0283 0
M  V30 1580 N 149.288 1.51039 0.449983 0
M  V30 1581 C 150.535 1.63081 1.20045 0
M  V30 1582 C 150.863 0.341024 1.91487 0
M  V30 1583 O 150.118 -0.674276 1.83717 0
M  V30 1584 C 150.417 2.77556 2.25161 0
M  V30 1585 C 150.083 4.17289 1.70823 0
M  V30 1586 C 148.745 4.55305 1.55725 0
M  V30 1587 C 151.097 5.04536 1.3074 0
M  V30 1588 C 148.425 5.78287 0.989999 0
M  V30 1589 C 150.777 6.28085 0.754482 0
M  V30 1590 C 149.441 6.64885 0.590308 0
M  V30 1591 H 148.711 0.596755 0.439277 0
M  V30 1592 H 151.358 1.85037 0.49333 0
M  V30 1593 H 149.663 2.49771 3.01863 0
M  V30 1594 H 151.36 2.84073 2.83026 0
M  V30 1595 H 147.95 3.8731 1.83546 0
M  V30 1596 H 152.134 4.75782 1.41229 0
M  V30 1597 H 147.39 6.05456 0.850451 0
M  V30 1598 H 151.564 6.95038 0.435324 0
M  V30 1599 H 149.191 7.60055 0.14862 0
M  V30 1600 N 150.766 -0.704594 1.40972 0
M  V30 1601 C 151.676 -1.84856 1.44448 0
M  V30 1602 C 152.692 -1.70726 0.335961 0
M  V30 1603 O 153.868 -1.92799 0.582276 0
M  V30 1604 C 150.933 -3.20758 1.31587 0
M  V30 1605 C 149.994 -3.47063 2.52677 0
M  V30 1606 C 149.227 -4.76481 2.4042 0
M  V30 1607 O 149.45 -5.52341 1.42391 0
M  V30 1608 O 148.384 -5.03367 3.30007 0
M  V30 1609 H 152.21 -1.8488 2.40942 0
M  V30 1610 H 149.795 -0.85647 1.22413 0
M  V30 1611 H 151.677 -4.01913 1.26665 0
M  V30 1612 H 150.352 -3.21438 0.382049 0
M  V30 1613 H 149.259 -2.65873 2.63177 0
M  V30 1614 H 150.592 -3.5119 3.44858 0
M  V30 1615 N 152.244 -1.26651 -0.937939 0
M  V30 1616 C 153.154 -1.10276 -2.07066 0
M  V30 1617 C 154.17 -0.0354197 -1.73964 0
M  V30 1618 O 155.346 -0.239816 -1.99967 0
M  V30 1619 C 152.411 -0.740887 -3.38691 0
M  V30 1620 C 151.472 -1.88799 -3.85556 0
M  V30 1621 C 150.705 -1.54329 -5.10899 0
M  V30 1622 O 150.928 -0.446494 -5.6865 0
M  V30 1623 O 149.862 -2.37911 -5.52885 0
M  V30 1624 H 153.688 -2.05309 -2.23789 0
M  V30 1625 H 151.273 -1.05743 -1.0554 0
M  V30 1626 H 153.155 -0.55195 -4.1777 0
M  V30 1627 H 151.83 0.180022 -3.23199 0
M  V30 1628 H 150.737 -2.13191 -3.07409 0
M  V30 1629 H 152.07 -2.78874 -4.05574 0
M  V30 1630 N 153.722 1.14298 -1.08507 0
M  V30 1631 C 154.652 2.21542 -0.737646 0
M  V30 1632 C 155.633 1.67773 0.280377 0
M  V30 1633 O 156.818 1.93616 0.150521 0
M  V30 1634 C 153.948 3.46988 -0.147259 0
M  V30 1635 C 152.902 4.13789 -1.09374 0
M  V30 1636 C 152.228 5.33449 -0.365524 0
M  V30 1637 C 153.528 4.62208 -2.4323 0
M  V30 1638 H 155.222 2.5086 -1.6343 0
M  V30 1639 H 152.768 1.20576 -0.787243 0
M  V30 1640 H 154.721 4.21262 0.107808 0
M  V30 1641 H 153.445 3.17037 0.784538 0
M  V30 1642 H 152.104 3.4147 -1.33393 0
M  V30 1643 H 151.752 4.99759 0.57011 0
M  V30 1644 H 151.452 5.79088 -0.996512 0
M  V30 1645 H 152.976 6.10485 -0.118534 0
M  V30 1646 H 154.39 5.27952 -2.23472 0
M  V30 1647 H 152.787 5.18553 -3.02031 0
M  V30 1648 H 153.857 3.77224 -3.04681 0
M  V30 1649 N 155.201 0.870884 1.31352 0
M  V30 1650 C 156.131 0.343096 2.30966 0
M  V30 1651 C 157.112 -0.566507 1.60389 0
M  V30 1652 O 158.297 -0.483336 1.88089 0
M  V30 1653 C 155.427 -0.455487 3.443 0
M  V30 1654 C 154.381 0.361103 4.26474 0
M  V30 1655 C 153.707 -0.563221 5.31725 0
M  V30 1656 C 155.007 1.59566 4.97329 0
M  V30 1657 H 156.701 1.17548 2.75359 0
M  V30 1658 H 154.247 0.566686 1.32381 0
M  V30 1659 H 156.2 -0.83525 4.13039 0
M  V30 1660 H 154.924 -1.32139 2.98675 0
M  V30 1661 H 153.583 0.722825 3.59403 0
M  V30 1662 H 153.231 -1.42643 4.82351 0
M  V30 1663 H 152.931 -0.0207409 5.87596 0
M  V30 1664 H 154.455 -0.939808 6.03324 0
M  V30 1665 H 155.869 1.28728 5.58661 0
M  V30 1666 H 154.266 2.07728 5.63 0
M  V30 1667 H 155.336 2.34798 4.24262 0
M  V30 1668 N 156.679 -1.44442 0.630414 0
M  V30 1669 C 157.611 -2.2892 -0.113347 0
M  V30 1670 C 158.624 -1.41243 -0.80959 0
M  V30 1671 O 159.813 -1.65402 -0.671156 0
M  V30 1672 C 156.913 -3.17594 -1.18266 0
M  V30 1673 C 156.086 -4.33682 -0.569073 0
M  V30 1674 C 155.145 -5.03397 -1.53226 0
M  V30 1675 O 154.171 -5.59438 -1.04967 0
M  V30 1676 N 155.373 -5.04783 -2.86661 0
M  V30 1677 H 158.138 -2.93392 0.611636 0
M  V30 1678 H 155.699 -1.54881 0.471523 0
M  V30 1679 H 157.691 -3.61097 -1.82732 0
M  V30 1680 H 156.261 -2.54876 -1.80988 0
M  V30 1681 H 155.481 -3.9338 0.254187 0
M  V30 1682 H 156.769 -5.08608 -0.139767 0
M  V30 1683 H 156.167 -4.60584 -3.28449 0
M  V30 1684 H 154.724 -5.52077 -3.46489 0
M  V30 1685 N 158.157 -0.370918 -1.53173 0
M  V30 1686 C 159.105 0.488101 -2.27421 0
M  V30 1687 C 160.099 1.07884 -1.30604 0
M  V30 1688 O 161.305 1.02143 -1.48212 0
M  V30 1689 H 157.68 0.176134 -0.731082 0
M  V30 1690 H 159.651 -0.159815 -2.97972 0
M  V30 1691 C 158.4 1.61306 -3.08019 0
M  V30 1692 H 157.723 1.1678 -3.82364 0
M  V30 1693 H 159.163 2.18872 -3.63141 0
M  V30 1694 C 157.622 2.55848 -2.19188 0
M  V30 1695 O 158.152 3.58799 -1.80626 0
M  V30 1696 N 156.358 2.2516 -1.83715 0
M  V30 1697 H 155.905 1.41476 -2.15273 0
M  V30 1698 H 155.863 2.8867 -1.24567 0
M  V30 1699 N 159.635 1.57281 -0.100228 0
M  V30 1700 C 160.883 1.94153 0.561157 0
M  V30 1701 C 161.204 0.983157 1.68401 0
M  V30 1702 O 160.474 0.0361132 1.95867 0
M  V30 1703 H 159.054 0.716791 0.210283 0
M  V30 1704 H 161.716 1.94202 -0.164765 0
M  V30 1705 H 160.812 2.96709 0.968008 0
M  V30 1706 N 161.113 -0.173488 1.56642 0
M  V30 1707 C 162.338 -0.910149 1.86363 0
M  V30 1708 C 162.763 -1.75132 0.686318 0
M  V30 1709 O 162.121 -1.77595 -0.364643 0
M  V30 1710 C 162.169 -1.76447 3.14482 0
M  V30 1711 O 161.273 -2.86584 2.96553 0
M  V30 1712 H 160.614 -0.255086 0.613047 0
M  V30 1713 H 163.144 -0.172283 2.03873 0
M  V30 1714 H 163.154 -2.16483 3.45831 0
M  V30 1715 H 161.829 -1.14658 3.99783 0
M  V30 1716 H 160.406 -2.50146 2.76553 0
M  V30 1717 N 162.591 -1.51276 -0.441967 0
M  V30 1718 C 164.007 -1.39349 -0.778083 0
M  V30 1719 C 164.207 -0.472212 -1.95889 0
M  V30 1720 O 163.263 0.0743551 -2.5239 0
M  V30 1721 C 164.576 -2.81292 -1.0628 0
M  V30 1722 C 166.124 -2.9041 -1.16751 0
M  V30 1723 C 166.599 -4.33251 -1.48519 0
M  V30 1724 N 168.09 -4.36336 -1.55453 0
M  V30 1725 C 168.825 -5.43885 -1.81596 0
M  V30 1726 N 168.321 -6.61601 -2.05562 0
M  V30 1727 N 170.114 -5.3136 -1.8334 0
M  V30 1728 H 162.265 -2.09729 0.335774 0
M  V30 1729 H 164.528 -0.943925 0.0878028 0
M  V30 1730 H 164.234 -3.50678 -0.267905 0
M  V30 1731 H 164.108 -3.20334 -1.99163 0
M  V30 1732 H 166.495 -2.21225 -1.95304 0
M  V30 1733 H 166.576 -2.54871 -0.217801 0
M  V30 1734 H 166.22 -5.02984 -0.704958 0
M  V30 1735 H 166.15 -4.66299 -2.44689 0
M  V30 1736 H 168.641 -3.51466 -1.38853 0
M  V30 1737 H 168.954 -7.39361 -2.24867 0
M  V30 1738 H 167.299 -6.64725 -2.02894 0
M  V30 1739 H 170.49 -4.38382 -1.64132 0
M  V30 1740 H 170.663 -6.15258 -2.03377 0
M  V30 1741 N 164.069 0.697108 -1.41344 0
M  V30 1742 C 165.019 1.80313 -1.39539 0
M  V30 1743 C 166.003 1.58618 -0.270001 0
M  V30 1744 O 167.195 1.69477 -0.510551 0
M  V30 1745 C 164.324 3.18606 -1.27848 0
M  V30 1746 C 163.41 3.46001 -2.45244 0
M  V30 1747 N 163.801 3.44103 -3.70711 0
M  V30 1748 C 162.099 3.76542 -2.39023 0
M  V30 1749 C 162.8 3.7036 -4.48563 0
M  V30 1750 N 161.776 3.90027 -3.78655 0
M  V30 1751 H 165.578 1.77207 -2.34468 0
M  V30 1752 H 163.092 0.897031 -1.35378 0
M  V30 1753 H 165.089 3.97833 -1.24637 0
M  V30 1754 H 163.749 3.22925 -0.339032 0
M  V30 1755 H 164.76 3.2452 -4.03618 0
M  V30 1756 H 161.437 3.88241 -1.53542 0
M  V30 1757 H 162.827 3.75042 -5.57488 0
M  V30 1758 N 165.547 1.27147 0.931209 0
M  V30 1759 C 166.794 1.13278 1.67852 0
M  V30 1760 C 167.122 -0.32204 1.91815 0
M  V30 1761 O 166.377 -1.25224 1.50391 0
M  V30 1762 C 166.676 1.8579 3.05314 0
M  V30 1763 C 166.342 3.35657 3.01073 0
M  V30 1764 C 165.004 3.76536 2.99623 0
M  V30 1765 C 167.356 4.31299 2.92627 0
M  V30 1766 C 164.684 5.11426 2.87506 0
M  V30 1767 C 167.036 5.66242 2.82051 0
M  V30 1768 C 165.7 6.06418 2.7895 0
M  V30 1769 H 164.97 0.414515 0.614214 0
M  V30 1770 H 167.617 1.57712 1.08624 0
M  V30 1771 H 165.922 1.33854 3.68226 0
M  V30 1772 H 167.619 1.72491 3.62005 0
M  V30 1773 H 164.209 3.03146 3.02986 0
M  V30 1774 H 168.393 4.00692 2.92848 0
M  V30 1775 H 163.649 5.41705 2.83489 0
M  V30 1776 H 167.823 6.40026 2.74481 0
M  V30 1777 H 165.45 7.10895 2.69318 0
M  V30 1778 N 167.025 -1.13721 1.09112 0
M  V30 1779 C 167.935 -2.22638 0.73957 0
M  V30 1780 C 168.951 -1.72091 -0.257068 0
M  V30 1781 O 170.127 -2.01155 -0.0992154 0
M  V30 1782 C 167.192 -3.46322 0.16191 0
M  V30 1783 C 166.253 -4.11775 1.21408 0
M  V30 1784 C 165.486 -5.29555 0.663891 0
M  V30 1785 O 165.709 -5.68077 -0.514274 0
M  V30 1786 O 164.643 -5.84973 1.41738 0
M  V30 1787 H 168.469 -2.55074 1.64836 0
M  V30 1788 H 166.054 -1.21791 0.865289 0
M  V30 1789 H 167.936 -4.21107 -0.157073 0
M  V30 1790 H 166.611 -3.15593 -0.719932 0
M  V30 1791 H 165.518 -3.3883 1.58571 0
M  V30 1792 H 166.851 -4.46627 2.06845 0
M  V30 1793 N 168.503 -0.877838 -1.30888 0
M  V30 1794 C 169.78 -0.413052 -1.91189 0
M  V30 1795 C 170.16 1.1056 -1.79832 0
M  V30 1796 O 169.508 1.93771 -1.21099 0
M  V30 1797 C 169.718 -0.903191 -3.3711 0
M  V30 1798 C 171.066 -0.93395 -4.14201 0
M  V30 1799 O 172.09 -0.849373 -3.45925 0
M  V30 1800 O 170.949 -1.05772 -5.36167 0
M  V30 1801 H 168.043 -0.125035 -0.817493 0
M  V30 1802 H 170.589 -0.966269 -1.39504 0
M  V30 1803 H 169.361 -1.94692 -3.39427 0
M  V30 1804 H 168.984 -0.328732 -3.96239 0
M  V30 1805 N 169.982 1.44106 -0.638065 0
M  V30 1806 C 171.228 2.02815 -0.15409 0
M  V30 1807 C 171.583 1.49342 1.21304 0
M  V30 1808 O 170.876 0.670699 1.79478 0
M  V30 1809 C 171.07 3.5729 -0.0887327 0
M  V30 1810 C 170.899 4.2575 -1.44799 0
M  V30 1811 C 169.669 4.62443 -2.03653 0
M  V30 1812 C 171.867 4.55746 -2.38327 0
M  V30 1813 N 169.849 5.15903 -3.32741 0
M  V30 1814 C 171.22 5.10364 -3.52036 0
M  V30 1815 C 173.275 4.37703 -2.3732 0
M  V30 1816 C 171.978 5.48837 -4.64941 0
M  V30 1817 C 174.004 4.77229 -3.49294 0
M  V30 1818 C 173.366 5.31966 -4.61726 0
M  V30 1819 H 169.465 0.775519 -0.100466 0
M  V30 1820 H 172.049 1.755 -0.843071 0
M  V30 1821 H 170.22 3.84201 0.569548 0
M  V30 1822 H 171.952 4.02671 0.404711 0
M  V30 1823 H 168.707 4.46987 -1.56523 0
M  V30 1824 H 169.131 5.47102 -3.98758 0
M  V30 1825 H 173.773 3.94671 -1.51641 0
M  V30 1826 H 171.491 5.9082 -5.51323 0
M  V30 1827 H 175.077 4.64976 -3.49698 0
M  V30 1828 H 173.957 5.61986 -5.46939 0
M  V30 1829 N 171.46 0.379036 1.52974 0
M  V30 1830 C 172.709 -0.207612 2.00629 0
M  V30 1831 C 173.022 -1.48758 1.27006 0
M  V30 1832 O 174.228 -2.15365 1.65318 0
M  V30 1833 C 172.684 -0.42053 3.57435 0
M  V30 1834 C 172.292 0.845587 4.39948 0
M  V30 1835 C 174.036 -0.964102 4.13407 0
M  V30 1836 C 171.943 0.601513 5.88333 0
M  V30 1837 H 170.873 -0.0813591 0.749598 0
M  V30 1838 H 173.524 0.499853 1.76561 0
M  V30 1839 H 171.906 -1.18959 3.7771 0
M  V30 1840 H 173.08 1.61848 4.31442 0
M  V30 1841 H 171.395 1.31336 3.95145 0
M  V30 1842 H 173.992 -1.16225 5.21916 0
M  V30 1843 H 174.335 -1.93019 3.68849 0
M  V30 1844 H 174.868 -0.25487 3.96983 0
M  V30 1845 H 171.607 1.53831 6.37194 0
M  V30 1846 H 171.127 -0.132628 5.99653 0
M  V30 1847 H 172.806 0.232134 6.46583 0
M  V30 1848 N 172.938 -1.57226 0.108567 0
M  V30 1849 C 174.215 -1.86333 -0.594939 0
M  V30 1850 C 174.595 -1.00788 -1.85486 0
M  V30 1851 O 173.943 -0.0839293 -2.28346 0
M  V30 1852 C 174.153 -3.37265 -0.897405 0
M  V30 1853 C 175.501 -4.05629 -1.25501 0
M  V30 1854 O 176.525 -3.42224 -0.987998 0
M  V30 1855 O 175.384 -5.17531 -1.75567 0
M  V30 1856 H 172.478 -0.771018 -0.2991 0
M  V30 1857 H 175.024 -1.69102 0.142283 0
M  V30 1858 H 173.796 -3.913 -0.00413806 0
M  V30 1859 H 173.419 -3.59889 -1.69014 0
M  V30 1860 N 174.416 0.165178 -1.56732 0
M  V30 1861 C 175.346 1.20651 -1.99914 0
M  V30 1862 C 176.327 1.45827 -0.875705 0
M  V30 1863 O 177.512 1.57057 -1.14223 0
M  V30 1864 C 174.642 2.54401 -2.36427 0
M  V30 1865 C 173.596 2.43782 -3.51787 0
M  V30 1866 C 172.922 3.82078 -3.7406 0
M  V30 1867 C 174.222 1.93732 -4.85041 0
M  V30 1868 H 175.916 0.847534 -2.87154 0
M  V30 1869 H 173.462 0.40625 -1.38151 0
M  V30 1870 H 175.415 3.27458 -2.65234 0
M  V30 1871 H 174.139 2.92098 -1.46103 0
M  V30 1872 H 172.798 1.73178 -3.23117 0
M  V30 1873 H 172.446 4.17179 -2.81017 0
M  V30 1874 H 172.146 3.7584 -4.51684 0
M  V30 1875 H 173.67 4.56712 -4.05274 0
M  V30 1876 H 175.084 2.56569 -5.12684 0
M  V30 1877 H 173.481 1.98428 -5.66345 0
M  V30 1878 H 174.551 0.891962 -4.76626 0
M  V30 1879 N 175.894 1.51508 0.433938 0
M  V30 1880 C 176.804 1.75917 1.5521 0
M  V30 1881 C 177.82 0.643545 1.61662 0
M  V30 1882 O 178.996 0.926183 1.7884 0
M  V30 1883 C 176.061 1.88213 2.91164 0
M  V30 1884 C 175.122 3.12074 2.94802 0
M  V30 1885 C 174.355 3.23774 4.24271 0
M  V30 1886 O 174.578 2.4133 5.16833 0
M  V30 1887 O 173.512 4.16774 4.34262 0
M  V30 1888 H 177.338 2.70777 1.37527 0
M  V30 1889 H 174.923 1.36051 0.617293 0
M  V30 1890 H 176.805 1.98267 3.71845 0
M  V30 1891 H 175.48 0.965413 3.08968 0
M  V30 1892 H 174.387 3.07497 2.13065 0
M  V30 1893 H 175.72 4.03446 2.81943 0
M  V30 1894 N 177.372 -0.689602 1.41712 0
M  V30 1895 C 178.783 -1.26973 1.36875 0
M  V30 1896 C 179.134 -1.96124 0.054748 0
M  V30 1897 O 178.259 -1.99141 -0.84687 0
M  V30 1898 C 178.854 -2.30912 2.47922 0
M  V30 1899 C 177.413 -2.84486 2.46464 0
M  V30 1900 C 176.56 -1.58603 2.27465 0
M  V30 1901 H 179.511 -0.48396 1.51141 0
M  V30 1902 H 179.532 -3.12331 2.17323 0
M  V30 1903 H 179.044 -1.80554 3.43543 0
M  V30 1904 H 177.145 -3.39005 1.54617 0
M  V30 1905 H 177.258 -3.34511 3.42986 0
M  V30 1906 H 175.622 -1.84632 1.75451 0
M  V30 1907 H 176.405 -1.10233 3.25121 0
M  V30 1908 N 178.85 -1.27639 -0.924453 0
M  V30 1909 C 179.76 -1.12466 -2.05885 0
M  V30 1910 C 180.776 -0.053869 -1.73917 0
M  V30 1911 O 181.952 -0.261012 -1.99702 0
M  V30 1912 C 179.017 -0.776768 -3.37886 0
M  V30 1913 C 178.078 -1.92878 -3.83532 0
M  V30 1914 C 177.311 -1.59739 -5.09234 0
M  V30 1915 O 177.534 -0.506782 -5.68144 0
M  V30 1916 O 176.468 -2.43761 -5.50331 0
M  V30 1917 H 180.294 -2.07671 -2.21599 0
M  V30 1918 H 177.879 -1.06857 -1.04413 0
M  V30 1919 H 179.761 -0.596229 -4.17161 0
M  V30 1920 H 178.436 0.145732 -3.23372 0
M  V30 1921 H 177.343 -2.1644 -3.0513 0
M  V30 1922 H 178.676 -2.8316 -4.02593 0
M  V30 1923 N 180.328 1.1314 -1.09713 0
M  V30 1924 C 181.576 1.84119 -0.833338 0
M  V30 1925 C 181.897 1.84097 0.642904 0
M  V30 1926 O 181.167 1.29881 1.46655 0
M  V30 1927 H 179.747 0.681766 -0.305293 0
M  V30 1928 H 182.409 1.37038 -1.38588 0
M  V30 1929 H 181.505 2.88543 -1.18951 0
M  V30 1930 N 181.806 0.884767 1.30421 0
M  V30 1931 C 183.222 0.57874 1.48737 0
M  V30 1932 C 183.422 -0.883567 1.81095 0
M  V30 1933 O 182.478 -1.6648 1.89844 0
M  V30 1934 C 183.791 1.49171 2.61091 0
M  V30 1935 C 185.339 1.49532 2.74971 0
M  V30 1936 C 185.814 2.39421 3.90438 0
M  V30 1937 N 187.305 2.37383 3.97748 0
M  V30 1938 C 188.04 3.03647 4.86401 0
M  V30 1939 N 187.536 3.79136 5.79852 0
M  V30 1940 N 189.329 2.9288 4.79768 0
M  V30 1941 H 181.48 1.83075 1.0769 0
M  V30 1942 H 183.743 0.783637 0.533495 0
M  V30 1943 H 183.449 2.53291 2.44001 0
M  V30 1944 H 183.323 1.20113 3.57565 0
M  V30 1945 H 185.71 0.46163 2.91467 0
M  V30 1946 H 185.791 1.8262 1.79119 0
M  V30 1947 H 185.435 3.42874 3.74699 0
M  V30 1948 H 185.365 2.03649 4.85628 0
M  V30 1949 H 187.856 1.82525 3.30897 0
M  V30 1950 H 188.169 4.26789 6.4426 0
M  V30 1951 H 186.514 3.83243 5.79784 0
M  V30 1952 H 189.705 2.33433 4.05742 0
M  V30 1953 H 189.878 3.448 5.4865 0
M  V30 1954 N 183.284 -1.43765 0.645699 0
M  V30 1955 C 184.53 -2.02197 0.156271 0
M  V30 1956 C 184.863 -1.50776 -1.22393 0
M  V30 1957 O 184.138 -0.697771 -1.81553 0
M  V30 1958 C 184.421 -3.59749 0.158872 0
M  V30 1959 C 184.274 -4.21419 1.57245 0
M  V30 1960 C 185.593 -4.37149 -0.50879 0
M  V30 1961 H 182.712 -0.734694 0.0582602 0
M  V30 1962 H 185.354 -1.71157 0.824951 0
M  V30 1963 H 183.504 -3.86325 -0.410525 0
M  V30 1964 H 185.176 -4.059 2.19186 0
M  V30 1965 H 183.419 -3.78356 2.122 0
M  V30 1966 H 184.09 -5.30482 1.52619 0
M  V30 1967 H 186.566 -4.16093 -0.024412 0
M  V30 1968 H 185.442 -5.4683 -0.476213 0
M  V30 1969 H 185.703 -4.12839 -1.58165 0
M  V30 1970 N 184.763 -0.387143 -1.52771 0
M  V30 1971 C 185.993 0.195585 -2.05672 0
M  V30 1972 C 186.401 1.41241 -1.25887 0
M  V30 1973 O 185.744 1.81265 -0.298081 0
M  V30 1974 C 185.806 0.632327 -3.53895 0
M  V30 1975 C 185.47 -0.470739 -4.54569 0
M  V30 1976 C 186.467 -1.32746 -5.02667 0
M  V30 1977 C 184.152 -0.637151 -4.98243 0
M  V30 1978 C 186.146 -2.33574 -5.93061 0
M  V30 1979 C 183.833 -1.64877 -5.88438 0
M  V30 1980 C 184.831 -2.49649 -6.35739 0
M  V30 1981 O 184.519 -3.49082 -7.24153 0
M  V30 1982 H 184.251 0.033658 -0.675162 0
M  V30 1983 H 186.805 -0.550221 -1.97893 0
M  V30 1984 H 185.035 1.43008 -3.59285 0
M  V30 1985 H 186.724 1.14048 -3.89548 0
M  V30 1986 H 187.49 -1.21019 -4.69659 0
M  V30 1987 H 183.369 0.0129567 -4.60998 0
M  V30 1988 H 186.913 -2.99777 -6.29904 0
M  V30 1989 H 182.81 -1.76643 -6.2086 0
M  V30 1990 H 183.578 -3.45065 -7.42208 0
M  V30 1991 N 186.241 1.57166 -0.116904 0
M  V30 1992 C 187.487 1.95412 0.542405 0
M  V30 1993 C 187.82 1.00019 1.66463 0
M  V30 1994 O 187.095 0.0370346 1.94465 0
M  V30 1995 C 187.378 3.43615 1.07708 0
M  V30 1996 C 187.231 4.49781 -0.0415868 0
M  V30 1997 C 188.55 3.93616 1.96861 0
M  V30 1998 H 185.669 0.710543 0.195696 0
M  V30 1999 H 188.311 1.89027 -0.192038 0
M  V30 2000 H 186.461 3.49187 1.70296 0
M  V30 2001 H 188.133 4.56308 -0.676793 0
M  V30 2002 H 186.376 4.28033 -0.705019 0
M  V30 2003 H 187.047 5.50733 0.373717 0
M  V30 2004 H 189.523 3.90335 1.44146 0
M  V30 2005 H 188.399 4.97838 2.3119 0
M  V30 2006 H 188.66 3.34188 2.89432 0
M  V30 2007 N 187.719 -0.156864 1.56817 0
M  V30 2008 C 188.968 -0.869504 1.81996 0
M  V30 2009 C 189.281 -1.82777 0.696545 0
M  V30 2010 O 190.487 -2.58384 0.833658 0
M  V30 2011 C 188.943 -1.59679 3.22538 0
M  V30 2012 C 188.551 -0.681431 4.42787 0
M  V30 2013 C 190.295 -2.2968 3.56997 0
M  V30 2014 C 188.202 -1.40978 5.74351 0
M  V30 2015 H 187.132 -0.328438 0.678708 0
M  V30 2016 H 189.783 -0.1223 1.83092 0
M  V30 2017 H 188.165 -2.38927 3.158 0
M  V30 2018 H 189.339 0.0751166 4.60739 0
M  V30 2019 H 187.654 -0.0903431 4.16302 0
M  V30 2020 H 190.251 -2.84794 4.52544 0
M  V30 2021 H 190.594 -3.05707 2.82576 0
M  V30 2022 H 191.127 -1.57361 3.65352 0
M  V30 2023 H 187.866 -0.691561 6.51842 0
M  V30 2024 H 187.386 -2.13929 5.60352 0
M  V30 2025 H 189.065 -1.95337 6.16808 0
M  V30 2026 N 189.197 -1.51736 -0.425897 0
M  V30 2027 C 190.446 -1.64201 -1.17136 0
M  V30 2028 C 190.759 -0.369705 -1.92074 0
M  V30 2029 O 191.965 -0.373898 -2.68913 0
M  V30 2030 C 190.421 -2.90035 -2.13091 0
M  V30 2031 C 190.029 -4.24312 -1.43747 0
M  V30 2032 C 191.773 -3.1186 -2.87999 0
M  V30 2033 C 189.68 -5.41285 -2.38253 0
M  V30 2034 H 188.61 -0.611624 -0.440944 0
M  V30 2035 H 191.261 -1.78212 -0.437328 0
M  V30 2036 H 189.643 -2.69684 -2.89977 0
M  V30 2037 H 190.817 -4.55086 -0.723408 0
M  V30 2038 H 189.132 -4.08456 -0.809465 0
M  V30 2039 H 191.729 -3.96427 -3.58817 0
M  V30 2040 H 192.072 -2.25403 -3.49999 0
M  V30 2041 H 192.605 -3.32605 -2.18217 0
M  V30 2042 H 189.344 -6.30037 -1.80925 0
M  V30 2043 H 188.864 -5.14872 -3.0768 0
M  V30 2044 H 190.543 -5.73694 -2.99139 0
M  V30 2045 N 190.675 0.682077 -1.42076 0
M  V30 2046 C 191.952 1.43755 -1.32642 0
M  V30 2047 C 192.332 2.11063 0.0396611 0
M  V30 2048 O 191.68 2.02701 1.05474 0
M  V30 2049 C 191.89 2.44596 -2.48946 0
M  V30 2050 C 193.238 3.09454 -2.9073 0
M  V30 2051 O 194.262 2.54922 -2.48783 0
M  V30 2052 O 193.121 4.08253 -3.63307 0
M  V30 2053 H 190.215 0.640857 -0.522715 0
M  V30 2054 H 192.761 0.711415 -1.54068 0
M  V30 2055 H 191.533 1.93609 -3.40046 0
M  V30 2056 H 191.156 3.24701 -2.29467 0
M  V30 2057 N 192.153 1.28127 0.917671 0
M  V30 2058 C 193.083 1.14248 2.03641 0
M  V30 2059 C 194.064 0.0412748 1.7005 0
M  V30 2060 O 195.249 0.217566 1.92977 0
M  V30 2061 C 192.379 0.799431 3.37974 0
M  V30 2062 C 191.333 1.85497 3.85713 0
M  V30 2063 C 190.659 1.36565 5.16966 0
M  V30 2064 C 191.959 3.26085 4.08002 0
M  V30 2065 H 193.653 2.07835 2.15511 0
M  V30 2066 H 191.199 1.00064 1.03553 0
M  V30 2067 H 193.152 0.689114 4.15727 0
M  V30 2068 H 191.876 -0.172145 3.26146 0
M  V30 2069 H 190.535 1.95437 3.10161 0
M  V30 2070 H 190.183 0.383253 5.01538 0
M  V30 2071 H 189.883 2.07143 5.49878 0
M  V30 2072 H 191.407 1.26848 5.97279 0
M  V30 2073 H 192.821 3.19089 4.76293 0
M  V30 2074 H 191.218 3.94462 4.52238 0
M  V30 2075 H 192.288 3.70394 3.12948 0
M  V30 2076 N 193.631 -1.12557 1.10312 0
M  V30 2077 C 194.856 -1.88405 0.867085 0
M  V30 2078 C 195.281 -1.79038 -0.576817 0
M  V30 2079 O 194.639 -1.14439 -1.40618 0
M  V30 2080 C 194.687 -3.3563 1.31851 0
M  V30 2081 O 193.791 -4.09565 0.482734 0
M  V30 2082 H 193.132 -0.585455 0.313271 0
M  V30 2083 H 195.662 -1.42352 1.4696 0
M  V30 2084 H 195.672 -3.86469 1.3079 0
M  V30 2085 H 194.347 -3.41765 2.37001 0
M  V30 2086 H 192.924 -3.68695 0.558448 0
M  V30 2087 N 195.109 -0.891671 -1.2995 0
M  V30 2088 C 196.357 -0.512486 -1.95494 0
M  V30 2089 C 196.678 0.942776 -1.70695 0
M  V30 2090 O 195.948 1.66374 -1.03424 0
M  V30 2091 H 194.528 -0.186533 -0.723336 0
M  V30 2092 H 197.19 -1.13621 -1.58355 0
M  V30 2093 H 196.286 -0.688342 -3.04415 0
M  V30 2094 N 196.587 1.43421 -0.653314 0
M  V30 2095 C 197.812 2.06678 -0.172846 0
M  V30 2096 C 198.237 1.48648 1.15262 0
M  V30 2097 O 197.595 0.596457 1.71208 0
M  V30 2098 C 197.643 3.60474 -0.0953184 0
M  V30 2099 O 196.747 4.01487 0.942442 0
M  V30 2100 H 196.088 0.657181 -0.0949155 0
M  V30 2101 H 198.618 1.83925 -0.896265 0
M  V30 2102 H 198.628 4.07905 0.0879728 0
M  V30 2103 H 197.303 4.02088 -1.06291 0
M  V30 2104 H 195.88 3.65646 0.731932 0
M  V30 2105 N 198.065 0.39524 1.52563 0
M  V30 2106 C 199.29 -0.187456 2.06551 0
M  V30 2107 C 199.715 -1.39249 1.26457 0
M  V30 2108 O 199.073 -1.78947 0.291151 0
M  V30 2109 C 199.121 -0.529985 3.56684 0
M  V30 2110 O 198.225 -1.62307 3.79118 0
M  V30 2111 H 197.566 -0.0202537 0.663691 0
M  V30 2112 H 200.096 0.564426 1.96661 0
M  V30 2113 H 200.106 -0.792598 4.00227 0
M  V30 2114 H 198.781 0.350987 4.14416 0
M  V30 2115 H 197.358 -1.3537 3.47461 0
M  V30 2116 N 199.544 -1.57102 0.125237 0
M  V30 2117 C 200.792 -1.95021 -0.530198 0
M  V30 2118 C 201.113 -1.00982 -1.66816 0
M  V30 2119 O 200.383 -0.0672693 -1.95784 0
M  V30 2120 H 198.963 -0.720046 -0.198853 0
M  V30 2121 H 201.625 -1.93916 0.19564 0
M  V30 2122 H 200.721 -2.98211 -0.920681 0
M  V30 2123 N 201.022 0.148545 -1.56898 0
M  V30 2124 C 201.932 1.20293 -2.01412 0
M  V30 2125 C 202.948 1.47107 -0.929273 0
M  V30 2126 O 204.124 1.58807 -1.23863 0
M  V30 2127 C 201.189 2.51682 -2.38447 0
M  V30 2128 C 200.25 2.32529 -3.60872 0
M  V30 2129 C 199.483 3.57653 -3.96132 0
M  V30 2130 O 199.706 4.63771 -3.32073 0
M  V30 2131 O 198.64 3.50408 -4.89385 0
M  V30 2132 H 202.466 0.855025 -2.91416 0
M  V30 2133 H 200.051 0.357151 -1.45068 0
M  V30 2134 H 201.933 3.29147 -2.63135 0
M  V30 2135 H 200.608 2.86006 -1.51599 0
M  V30 2136 H 199.515 1.53019 -3.41373 0
M  V30 2137 H 200.848 2.03121 -4.48333 0
M  V30 2138 N 202.5 1.5196 0.417844 0
M  V30 2139 C 203.463 1.74065 1.49111 0
M  V30 2140 C 204.463 0.610537 1.48758 0
M  V30 2141 O 205.653 0.87832 1.50437 0
M  V30 2142 C 202.785 1.81502 2.88565 0
M  V30 2143 H 203.978 2.69869 1.30807 0
M  V30 2144 H 201.531 1.42244 0.647785 0
M  V30 2145 H 202.266 0.875813 3.1225 0
M  V30 2146 H 202.051 2.63651 2.90225 0
M  V30 2147 H 203.541 2.00376 3.66387 0
M  V30 2148 N 203.978 -0.674533 1.42435 0
M  V30 2149 C 205.389 -1.25514 1.38214 0
M  V30 2150 C 205.74 -1.96055 0.0755464 0
M  V30 2151 O 204.865 -2.00028 -0.8257 0
M  V30 2152 C 205.46 -2.28269 2.50357 0
M  V30 2153 C 204.019 -2.81856 2.49467 0
M  V30 2154 C 203.166 -1.56182 2.29134 0
M  V30 2155 H 206.117 -0.467902 1.51646 0
M  V30 2156 H 206.138 -3.10009 2.20624 0
M  V30 2157 H 205.65 -1.769 3.45439 0
M  V30 2158 H 203.751 -3.37346 1.58204 0
M  V30 2159 H 203.864 -3.30854 3.46515 0
M  V30 2160 H 202.228 -1.82761 1.774 0
M  V30 2161 H 203.011 -1.06778 3.26272 0
M  V30 2162 N 205.456 -1.28612 -0.910864 0
M  V30 2163 C 206.403 -1.12786 -2.01365 0
M  V30 2164 C 207.373 -0.024201 -1.66082 0
M  V30 2165 O 208.558 -0.189667 -1.89855 0
M  V30 2166 C 205.698 -0.798743 -3.35729 0
M  V30 2167 C 204.811 -1.98173 -3.83864 0
M  V30 2168 C 203.946 -1.59298 -5.06752 0
M  V30 2169 C 202.985 -2.74245 -5.47226 0
M  V30 2170 N 202.122 -2.35842 -6.61304 0
M  V30 2171 H 206.962 -2.07142 -2.14234 0
M  V30 2172 H 204.499 -1.03093 -1.0493 0
M  V30 2173 H 206.457 -0.588662 -4.13026 0
M  V30 2174 H 205.087 0.10789 -3.2262 0
M  V30 2175 H 204.139 -2.30386 -3.02699 0
M  V30 2176 H 205.451 -2.84343 -4.09818 0
M  V30 2177 H 204.605 -1.34513 -5.916 0
M  V30 2178 H 203.344 -0.702618 -4.82612 0
M  V30 2179 H 202.349 -2.99725 -4.60918 0
M  V30 2180 H 203.574 -3.63928 -5.73353 0
M  V30 2181 H 201.52 -1.49279 -6.38789 0
M  V30 2182 H 201.437 -3.15546 -6.86998 0
M  V30 2183 H 202.705 -2.14348 -7.4945 0
M  V30 2184 N 206.934 1.1197 -1.10907 0
M  V30 2185 C 208.211 1.79959 -0.766432 0
M  V30 2186 C 208.591 1.97466 0.746363 0
M  V30 2187 O 207.939 1.55491 1.67436 0
M  V30 2188 C 208.149 3.14009 -1.52314 0
M  V30 2189 C 209.497 3.89134 -1.69883 0
M  V30 2190 O 210.521 3.2368 -1.48692 0
M  V30 2191 O 209.38 5.06572 -2.05054 0
M  V30 2192 H 206.474 0.779208 -0.277062 0
M  V30 2193 H 209.02 1.18762 -1.21217 0
M  V30 2194 H 207.792 2.96587 -2.55249 0
M  V30 2195 H 207.415 3.82915 -1.07059 0
M  V30 2196 N 208.412 0.89855 1.29475 0
M  V30 2197 C 209.36 0.365253 2.29714 0
M  V30 2198 C 210.354 -0.534993 1.6073 0
M  V30 2199 O 211.56 -0.417921 1.75081 0
M  V30 2200 H 207.935 0.0994853 0.74539 0
M  V30 2201 H 209.906 1.22406 2.72138 0
M  V30 2202 C 208.655 -0.393159 3.4547 0
M  V30 2203 H 207.978 0.290332 3.98744 0
M  V30 2204 H 209.418 -0.731189 4.17648 0
M  V30 2205 C 207.877 -1.59539 2.9673 0
M  V30 2206 O 208.407 -2.69469 2.97908 0
M  V30 2207 N 206.613 -1.43716 2.52575 0
M  V30 2208 H 206.16 -0.542828 2.51816 0
M  V30 2209 H 206.118 -2.24288 2.20323 0
M  V30 2210 N 209.89 -1.43072 0.660911 0
M  V30 2211 C 210.8 -2.34585 -0.0264163 0
M  V30 2212 C 211.816 -1.54316 -0.803898 0
M  V30 2213 O 212.992 -1.86939 -0.749391 0
M  V30 2214 C 210.057 -3.32689 -0.975639 0
M  V30 2215 C 209.118 -4.2886 -0.194236 0
M  V30 2216 C 208.351 -5.22278 -1.09825 0
M  V30 2217 O 208.574 -5.20299 -2.33763 0
M  V30 2218 O 207.508 -5.99228 -0.566513 0
M  V30 2219 H 211.334 -2.94869 0.727034 0
M  V30 2220 H 208.919 -1.43342 0.42111 0
M  V30 2221 H 210.801 -3.92995 -1.52094 0
M  V30 2222 H 209.476 -2.74898 -1.70918 0
M  V30 2223 H 208.383 -3.72011 0.394835 0
M  V30 2224 H 209.716 -4.89655 0.499899 0
M  V30 2225 N 211.368 -0.403325 -1.52352 0
M  V30 2226 C 212.278 0.432009 -2.30588 0
M  V30 2227 C 213.294 1.05884 -1.38075 0
M  V30 2228 O 214.47 1.06161 -1.71148 0
M  V30 2229 C 211.535 1.53669 -3.10784 0
M  V30 2230 C 210.596 0.933525 -4.19027 0
M  V30 2231 C 209.829 1.98557 -4.9539 0
M  V30 2232 O 210.052 3.20283 -4.71991 0
M  V30 2233 O 208.986 1.59504 -5.80381 0
M  V30 2234 H 212.812 -0.205739 -3.03002 0
M  V30 2235 H 210.397 -0.166675 -1.48467 0
M  V30 2236 H 212.279 2.17814 -3.60742 0
M  V30 2237 H 210.954 2.15915 -2.41169 0
M  V30 2238 H 209.861 0.254954 -3.7323 0
M  V30 2239 H 211.194 0.35508 -4.90918 0
M  V30 2240 N 212.846 1.57033 -0.133567 0
M  V30 2241 C 214.262 1.58035 0.222944 0
M  V30 2242 C 214.462 1.14713 1.6566 0
M  V30 2243 O 213.518 0.841218 2.38075 0
M  V30 2244 C 214.831 3.00691 -0.0236116 0
M  V30 2245 C 216.379 3.12973 0.0411512 0
M  V30 2246 C 216.854 4.57654 -0.177899 0
M  V30 2247 N 218.345 4.63033 -0.124365 0
M  V30 2248 C 219.08 5.72771 -0.268553 0
M  V30 2249 N 218.576 6.91206 -0.46972 0
M  V30 2250 N 220.369 5.61718 -0.2071 0
M  V30 2251 H 212.52 1.8349 -1.06981 0
M  V30 2252 H 214.783 0.848677 -0.422436 0
M  V30 2253 H 214.489 3.36726 -1.0153 0
M  V30 2254 H 214.363 3.70614 0.701808 0
M  V30 2255 H 216.75 2.76787 1.02338 0
M  V30 2256 H 216.831 2.45564 -0.716383 0
M  V30 2257 H 216.475 4.94542 -1.15717 0
M  V30 2258 H 216.405 5.23173 0.599797 0
M  V30 2259 H 218.896 3.7789 0.027011 0
M  V30 2260 H 219.209 7.70693 -0.570212 0
M  V30 2261 H 217.554 6.93156 -0.505876 0
M  V30 2262 H 220.745 4.68072 -0.0507986 0
M  V30 2263 H 220.918 6.47195 -0.322909 0
M  V30 2264 N 214.325 -0.140222 1.56975 0
M  V30 2265 C 215.571 -0.852949 1.83991 0
M  V30 2266 C 215.904 -1.80512 0.716187 0
M  V30 2267 O 215.179 -1.92479 -0.279681 0
M  V30 2268 C 215.462 -1.6215 3.21527 0
M  V30 2269 C 215.315 -0.690363 4.4447 0
M  V30 2270 C 216.634 -2.58247 3.56366 0
M  V30 2271 H 213.753 -0.308634 0.669264 0
M  V30 2272 H 216.395 -0.117898 1.89634 0
M  V30 2273 H 214.545 -2.24812 3.16847 0
M  V30 2274 H 216.217 -0.0742264 4.6124 0
M  V30 2275 H 214.46 -0.000396433 4.338 0
M  V30 2276 H 215.131 -1.2643 5.37326 0
M  V30 2277 H 217.607 -2.05701 3.61699 0
M  V30 2278 H 216.483 -3.09067 4.53617 0
M  V30 2279 H 216.744 -3.39923 2.82674 0
M  V30 2280 N 215.803 -1.52179 -0.40978 0
M  V30 2281 C 217.05 -1.66206 -1.15679 0
M  V30 2282 C 217.378 -0.391674 -1.90516 0
M  V30 2283 O 216.633 0.62533 -1.8544 0
M  V30 2284 C 216.932 -2.83428 -2.17723 0
M  V30 2285 C 216.598 -4.21672 -1.59699 0
M  V30 2286 C 215.26 -4.59274 -1.43599 0
M  V30 2287 C 217.612 -5.07825 -1.17317 0
M  V30 2288 C 214.94 -5.80709 -0.836328 0
M  V30 2289 C 217.292 -6.29864 -0.587691 0
M  V30 2290 C 215.956 -6.66216 -0.413818 0
M  V30 2291 H 215.226 -0.608192 -0.423301 0
M  V30 2292 H 217.873 -1.86279 -0.444097 0
M  V30 2293 H 216.178 -2.57687 -2.95135 0
M  V30 2294 H 217.875 -2.91477 -2.75394 0
M  V30 2295 H 214.465 -3.9204 -1.73213 0
M  V30 2296 H 218.649 -4.79359 -1.28565 0
M  V30 2297 H 213.905 -6.07498 -0.689626 0
M  V30 2298 H 218.079 -6.95948 -0.250894 0
M  V30 2299 H 215.706 -7.60182 0.0529471 0
M  V30 2300 N 217.281 0.66697 -1.42791 0
M  V30 2301 C 218.697 0.981027 -1.25889 0
M  V30 2302 C 218.897 2.00793 -0.168695 0
M  V30 2303 O 217.953 2.48321 0.45747 0
M  V30 2304 C 219.266 1.47838 -2.61848 0
M  V30 2305 C 220.814 1.59575 -2.69267 0
M  V30 2306 C 221.289 2.12704 -4.05612 0
M  V30 2307 N 222.78 2.20026 -4.07606 0
M  V30 2308 C 223.515 2.62227 -5.09926 0
M  V30 2309 N 223.011 3.03824 -6.22626 0
M  V30 2310 N 224.804 2.62045 -4.97281 0
M  V30 2311 H 216.955 -0.0127891 -2.12396 0
M  V30 2312 H 219.218 0.0568258 -0.946295 0
M  V30 2313 H 218.924 0.798299 -3.4252 0
M  V30 2314 H 218.798 2.45579 -2.86305 0
M  V30 2315 H 221.185 2.26687 -1.88936 0
M  V30 2316 H 221.266 0.60302 -2.48591 0
M  V30 2317 H 220.91 1.46198 -4.86404 0
M  V30 2318 H 220.84 3.12782 -4.23645 0
M  V30 2319 H 223.331 1.90708 -3.2625 0
M  V30 2320 H 223.644 3.34734 -6.96544 0
M  V30 2321 H 221.989 3.01662 -6.26119 0
M  V30 2322 H 225.18 2.28916 -4.08308 0
M  V30 2323 H 225.353 2.94613 -5.77154 0
M  V30 2324 N 218.759 1.29093 0.90403 0
M  V30 2325 C 219.669 1.15727 2.0407 0
M  V30 2326 C 220.685 0.0815308 1.73809 0
M  V30 2327 O 221.861 0.292749 1.99261 0
M  V30 2328 C 218.926 0.830424 3.36608 0
M  V30 2329 C 217.987 1.98955 3.80415 0
M  V30 2330 C 217.22 1.6782 5.06628 0
M  V30 2331 O 217.443 0.597105 5.67266 0
M  V30 2332 O 216.377 2.52486 5.46383 0
M  V30 2333 H 220.203 2.11171 2.18267 0
M  V30 2334 H 217.788 1.08504 1.027 0
M  V30 2335 H 219.67 0.662521 4.16159 0
M  V30 2336 H 218.345 -0.0942678 3.23563 0
M  V30 2337 H 217.252 2.21267 3.01648 0
M  V30 2338 H 218.585 2.89529 3.98037 0
M  V30 2339 N 220.237 -1.11381 1.11499 0
M  V30 2340 C 221.653 -1.35143 0.849031 0
M  V30 2341 C 221.853 -1.94515 -0.525938 0
M  V30 2342 O 220.909 -2.1785 -1.27662 0
M  V30 2343 C 222.222 -2.28249 1.95762 0
M  V30 2344 C 223.77 -2.41812 1.98736 0
M  V30 2345 C 224.245 -3.3824 3.088 0
M  V30 2346 N 225.736 -3.45803 3.08179 0
M  V30 2347 C 226.471 -4.20358 3.89982 0
M  V30 2348 N 225.967 -4.97884 4.8175 0
M  V30 2349 N 227.76 -4.15877 3.78157 0
M  V30 2350 H 219.911 -0.712062 2.00109 0
M  V30 2351 H 222.174 -0.376025 0.870235 0
M  V30 2352 H 221.88 -1.91817 2.94787 0
M  V30 2353 H 221.754 -3.28473 1.85433 0
M  V30 2354 H 224.141 -2.77518 1.00338 0
M  V30 2355 H 224.222 -1.41437 2.13141 0
M  V30 2356 H 223.866 -3.03261 4.07425 0
M  V30 2357 H 223.796 -4.38471 2.91635 0
M  V30 2358 H 226.287 -2.90506 2.41691 0
M  V30 2359 H 226.6 -5.52142 5.40702 0
M  V30 2360 H 224.945 -4.97043 4.85771 0
M  V30 2361 H 228.136 -3.544 3.05808 0
M  V30 2362 H 228.309 -4.73723 4.42143 0
M  V30 2363 N 221.715 -0.905404 -1.28997 0
M  V30 2364 C 222.648 -0.331959 -2.25773 0
M  V30 2365 C 223.626 0.559099 -1.52685 0
M  V30 2366 O 224.81 0.50463 -1.8162 0
M  V30 2367 C 221.937 0.526276 -3.34586 0
M  V30 2368 C 220.983 -0.298249 -4.25456 0
M  V30 2369 S 221.816 -1.69968 -5.0781 0
M  V30 2370 C 222.972 -0.848519 -6.20122 0
M  V30 2371 H 223.205 -1.15222 -2.74064 0
M  V30 2372 H 220.738 -0.706112 -1.37308 0
M  V30 2373 H 222.696 1.01565 -3.97737 0
M  V30 2374 H 221.357 1.32084 -2.84978 0
M  V30 2375 H 220.55 0.357607 -5.0273 0
M  V30 2376 H 220.152 -0.720968 -3.66985 0
M  V30 2377 H 222.444 -0.0744325 -6.77459 0
M  V30 2378 H 223.387 -1.59353 -6.89937 0
M  V30 2379 H 223.795 -0.400383 -5.63078 0
M  V30 2380 N 223.193 1.4272 -0.668489 0
M  V30 2381 C 224.609 1.55992 -0.33745 0
M  V30 2382 C 224.809 1.64933 1.15756 0
M  V30 2383 O 223.865 1.61278 1.94282 0
M  V30 2384 C 225.178 2.81314 -1.06222 0
M  V30 2385 C 226.726 2.95078 -1.04394 0
M  V30 2386 C 227.201 4.23252 -1.74991 0
M  V30 2387 N 228.692 4.3015 -1.71829 0
M  V30 2388 C 229.427 5.28127 -2.23315 0
M  V30 2389 N 228.923 6.32293 -2.83156 0
M  V30 2390 N 230.716 5.19882 -2.13726 0
M  V30 2391 H 222.867 1.3516 -1.63846 0
M  V30 2392 H 225.13 0.650174 -0.689912 0
M  V30 2393 H 224.836 2.80823 -2.11734 0
M  V30 2394 H 224.71 3.72012 -0.62344 0
M  V30 2395 H 227.097 2.951 0.0028244 0
M  V30 2396 H 227.178 2.05627 -1.52155 0
M  V30 2397 H 226.822 4.2399 -2.79633 0
M  V30 2398 H 226.752 5.11626 -1.24685 0
M  V30 2399 H 229.243 3.55499 -1.28175 0
M  V30 2400 H 229.556 7.03398 -3.20079 0
M  V30 2401 H 227.901 6.32873 -2.87223 0
M  V30 2402 H 231.092 4.37423 -1.66669 0
M  V30 2403 H 231.265 5.96077 -2.54158 0
M  V30 2404 N 224.671 0.411399 1.52136 0
M  V30 2405 C 226.082 -0.0576826 1.86611 0
M  V30 2406 C 226.433 -1.44238 1.33003 0
M  V30 2407 O 225.558 -2.05759 0.670228 0
M  V30 2408 C 226.153 -0.111448 3.38617 0
M  V30 2409 C 224.712 -0.52487 3.72723 0
M  V30 2410 C 223.859 0.299176 2.75681 0
M  V30 2411 H 226.81 0.628368 1.4573 0
M  V30 2412 H 226.831 -0.926252 3.69054 0
M  V30 2413 H 226.343 0.896488 3.77604 0
M  V30 2414 H 224.444 -1.53936 3.39315 0
M  V30 2415 H 224.557 -0.267681 4.78352 0
M  V30 2416 H 222.921 -0.238814 2.53578 0
M  V30 2417 H 223.704 1.3055 3.17508 0
M  V30 2418 N 226.149 -1.5696 0.141893 0
M  V30 2419 C 227.565 -1.58151 -0.21456 0
M  V30 2420 C 227.765 -1.1559 -1.65049 0
M  V30 2421 O 226.821 -0.853832 -2.37626 0
M  V30 2422 C 228.134 -3.00674 0.0395576 0
M  V30 2423 C 229.682 -3.1299 -0.0245529 0
M  V30 2424 C 230.157 -4.57554 0.202167 0
M  V30 2425 N 231.648 -4.62961 0.148919 0
M  V30 2426 C 232.383 -5.7262 0.298924 0
M  V30 2427 N 231.879 -6.90947 0.50637 0
M  V30 2428 N 233.672 -5.61601 0.236886 0
M  V30 2429 H 225.823 -1.8292 1.07953 0
M  V30 2430 H 228.086 -0.846425 0.42693 0
M  V30 2431 H 227.792 -3.36183 1.03315 0
M  V30 2432 H 227.666 -3.70981 -0.682143 0
M  V30 2433 H 230.053 -2.77326 -1.00869 0
M  V30 2434 H 230.134 -2.4518 0.729396 0
M  V30 2435 H 229.778 -4.93922 1.18338 0
M  V30 2436 H 229.708 -5.23484 -0.572044 0
M  V30 2437 H 232.199 -3.77899 -0.00697015 0
M  V30 2438 H 232.512 -7.7038 0.611076 0
M  V30 2439 H 230.857 -6.92878 0.542628 0
M  V30 2440 H 234.048 -4.68039 0.0756209 0
M  V30 2441 H 234.221 -6.47015 0.357227 0
M  V30 2442 N 227.627 0.131896 -1.57047 0
M  V30 2443 C 228.574 1.16236 -1.99393 0
M  V30 2444 C 229.544 1.41863 -0.863943 0
M  V30 2445 O 230.729 1.53946 -1.12718 0
M  V30 2446 C 227.869 2.48708 -2.39245 0
M  V30 2447 C 226.982 2.30127 -3.65603 0
M  V30 2448 C 226.117 3.55738 -3.94492 0
M  V30 2449 C 225.156 3.32259 -5.14073 0
M  V30 2450 N 224.293 4.50039 -5.38896 0
M  V30 2451 H 229.133 0.794251 -2.87221 0
M  V30 2452 H 226.67 0.380707 -1.42088 0
M  V30 2453 H 228.628 3.25969 -2.60384 0
M  V30 2454 H 227.258 2.83437 -1.54478 0
M  V30 2455 H 226.31 1.43845 -3.52154 0
M  V30 2456 H 227.622 2.08746 -4.5302 0
M  V30 2457 H 226.776 4.41423 -4.1621 0
M  V30 2458 H 225.515 3.80138 -3.05526 0
M  V30 2459 H 224.52 2.44963 -4.92212 0
M  V30 2460 H 225.745 3.09242 -6.04604 0
M  V30 2461 H 223.691 4.74584 -4.52886 0
M  V30 2462 H 223.608 4.31716 -6.2061 0
M  V30 2463 H 224.876 5.36895 -5.65123 0
M  V30 2464 N 229.106 1.52395 0.401703 0
M  V30 2465 C 230.522 1.41363 0.740864 0
M  V30 2466 C 230.722 0.523982 1.94568 0
M  V30 2467 O 229.778 -0.00741204 2.52499 0
M  V30 2468 C 231.091 2.84011 0.987847 0
M  V30 2469 C 232.639 2.93404 1.09011 0
M  V30 2470 C 233.114 4.37036 1.3698 0
M  V30 2471 N 234.605 4.40304 1.43829 0
M  V30 2472 C 235.34 5.48508 1.67112 0
M  V30 2473 N 234.836 6.66819 1.87949 0
M  V30 2474 N 236.629 5.36034 1.69187 0
M  V30 2475 H 228.78 2.08765 -0.391262 0
M  V30 2476 H 231.043 0.941265 -0.112798 0
M  V30 2477 H 230.749 3.51265 0.174835 0
M  V30 2478 H 230.623 3.25502 1.906 0
M  V30 2479 H 233.01 2.26325 1.8937 0
M  V30 2480 H 233.091 2.55359 0.15015 0
M  V30 2481 H 232.735 5.04676 0.571353 0
M  V30 2482 H 232.665 4.72623 2.3224 0
M  V30 2483 H 235.156 3.55024 1.29486 0
M  V30 2484 H 235.469 7.45063 2.05185 0
M  V30 2485 H 233.814 6.6987 1.85199 0
M  V30 2486 H 237.005 4.42579 1.52451 0
M  V30 2487 H 237.178 6.20434 1.86993 0
M  V30 2488 N 230.584 -0.659388 1.43143 0
M  V30 2489 C 231.516 -1.7849 1.43784 0
M  V30 2490 C 232.529 -1.5932 0.334787 0
M  V30 2491 O 233.718 -1.68155 0.598842 0
M  V30 2492 C 230.818 -3.15828 1.22906 0
M  V30 2493 C 229.991 -3.61711 2.45934 0
M  V30 2494 C 229.05 -4.77831 2.20371 0
M  V30 2495 O 228.076 -4.87586 2.93681 0
M  V30 2496 N 229.278 -5.67611 1.21647 0
M  V30 2497 H 232.043 -1.7842 2.40803 0
M  V30 2498 H 229.604 -0.84302 1.3822 0
M  V30 2499 H 231.596 -3.91189 1.03697 0
M  V30 2500 H 230.166 -3.10707 0.343542 0
M  V30 2501 H 229.386 -2.76861 2.80609 0
M  V30 2502 H 230.674 -3.89112 3.27825 0
M  V30 2503 H 230.072 -5.62397 0.610449 0
M  V30 2504 H 228.629 -6.42719 1.08423 0
M  V30 2505 N 232.062 -1.29571 -0.897171 0
M  V30 2506 C 233.31 -1.17456 -1.64464 0
M  V30 2507 C 233.631 0.273698 -1.9307 0
M  V30 2508 O 232.901 1.18684 -1.55855 0
M  V30 2509 H 231.481 -0.431706 -0.609622 0
M  V30 2510 H 234.143 -1.62531 -1.07562 0
M  V30 2511 H 233.239 -1.72648 -2.59998 0
M  V30 2512 N 233.54 1.10788 -1.12088 0
M  V30 2513 C 234.503 2.15207 -0.788577 0
M  V30 2514 C 235.503 1.59609 0.195317 0
M  V30 2515 O 236.693 1.74174 -0.0300193 0
M  V30 2516 C 233.825 3.4047 -0.171174 0
M  V30 2517 H 235.018 2.46116 -1.71368 0
M  V30 2518 H 232.571 1.26089 -0.923652 0
M  V30 2519 H 233.306 3.15176 0.763832 0
M  V30 2520 H 233.091 3.82109 -0.879514 0
M  V30 2521 H 234.581 4.17576 0.04496 0
M  V30 2522 N 235.018 0.912232 1.28515 0
M  V30 2523 C 236.264 0.545405 1.95328 0
M  V30 2524 C 236.597 -0.908313 1.71649 0
M  V30 2525 O 235.872 -1.64575 1.03659 0
M  V30 2526 C 236.155 0.853483 3.4984 0
M  V30 2527 C 236.008 2.35982 3.82926 0
M  V30 2528 C 237.327 0.348589 4.38717 0
M  V30 2529 H 234.446 0.199626 0.709449 0
M  V30 2530 H 237.088 1.1412 1.5191 0
M  V30 2531 H 235.238 0.34643 3.86952 0
M  V30 2532 H 236.91 2.93738 3.55691 0
M  V30 2533 H 235.153 2.81543 3.30024 0
M  V30 2534 H 235.824 2.52593 4.90816 0
M  V30 2535 H 238.3 0.78294 4.08668 0
M  V30 2536 H 237.176 0.593242 5.45685 0
M  V30 2537 H 237.437 -0.751049 4.35674 0
M  V30 2538 N 236.496 -1.42363 0.676048 0
M  V30 2539 C 237.912 -1.55811 0.345718 0
M  V30 2540 C 238.112 -1.65544 -1.14879 0
M  V30 2541 O 237.168 -1.62306 -1.93424 0
M  V30 2542 C 238.481 -2.80746 1.07713 0
M  V30 2543 C 240.029 -2.9452 1.05958 0
M  V30 2544 C 240.504 -4.22318 1.77233 0
M  V30 2545 N 241.995 -4.29233 1.74108 0
M  V30 2546 C 242.73 -5.26935 2.26113 0
M  V30 2547 N 242.226 -6.30783 2.86505 0
M  V30 2548 N 244.019 -5.18741 2.1648 0
M  V30 2549 H 236.17 -1.34289 1.6456 0
M  V30 2550 H 238.433 -0.646506 0.69335 0
M  V30 2551 H 238.139 -2.79696 2.13221 0
M  V30 2552 H 238.013 -3.71676 0.64316 0
M  V30 2553 H 240.4 -2.95097 0.0128255 0
M  V30 2554 H 240.481 -2.04817 1.53244 0
M  V30 2555 H 240.125 -4.22502 2.81877 0
M  V30 2556 H 240.055 -5.10958 1.27396 0
M  V30 2557 H 242.546 -3.54814 1.30059 0
M  V30 2558 H 242.859 -7.01691 3.23805 0
M  V30 2559 H 241.204 -6.31341 2.90575 0
M  V30 2560 H 244.395 -4.36533 1.68987 0
M  V30 2561 H 244.568 -5.94721 2.57316 0
M  V30 2562 N 237.974 -0.419461 -1.51915 0
M  V30 2563 C 239.39 -0.0708431 -1.59443 0
M  V30 2564 C 239.59 1.41796 -1.43164 0
M  V30 2565 O 238.646 2.18596 -1.26381 0
M  V30 2566 C 239.959 -0.574991 -2.95151 0
M  V30 2567 C 241.507 -0.533867 -3.08413 0
M  V30 2568 C 241.982 -1.01469 -4.46618 0
M  V30 2569 N 243.473 -0.971939 -4.52888 0
M  V30 2570 C 244.208 -1.31505 -5.58116 0
M  V30 2571 N 243.704 -1.73014 -6.70849 0
M  V30 2572 N 245.497 -1.23436 -5.48379 0
M  V30 2573 H 237.648 -1.38836 -1.60743 0
M  V30 2574 H 239.911 -0.570998 -0.756747 0
M  V30 2575 H 239.617 -1.61597 -3.12377 0
M  V30 2576 H 239.491 0.00979777 -3.77199 0
M  V30 2577 H 241.878 0.498086 -2.90866 0
M  V30 2578 H 241.959 -1.15484 -2.28248 0
M  V30 2579 H 241.603 -2.04502 -4.6491 0
M  V30 2580 H 241.533 -0.370433 -5.25295 0
M  V30 2581 H 244.024 -0.666893 -3.71969 0
M  V30 2582 H 244.337 -1.97479 -7.47143 0
M  V30 2583 H 242.682 -1.76926 -6.72103 0
M  V30 2584 H 245.873 -0.908869 -4.59192 0
M  V30 2585 H 246.046 -1.50506 -6.30279 0
M  V30 2586 N 239.452 1.56882 -0.150215 0
M  V30 2587 C 240.868 1.58263 0.20617 0
M  V30 2588 C 241.068 1.16464 1.64434 0
M  V30 2589 O 240.124 0.866422 2.3717 0
M  V30 2590 C 241.437 3.00649 -0.0555025 0
M  V30 2591 C 242.985 3.12999 0.00795388 0
M  V30 2592 C 243.46 4.5744 -0.226429 0
M  V30 2593 N 244.951 4.62875 -0.173469 0
M  V30 2594 C 245.686 5.72454 -0.329288 0
M  V30 2595 N 245.182 6.90669 -0.543005 0
M  V30 2596 N 246.975 5.61467 -0.266666 0
M  V30 2597 H 239.126 1.82345 -1.08922 0
M  V30 2598 H 241.389 0.844149 -0.431413 0
M  V30 2599 H 241.095 3.3563 -1.05096 0
M  V30 2600 H 240.969 3.71337 0.66246 0
M  V30 2601 H 243.356 2.77857 0.993966 0
M  V30 2602 H 243.437 2.4479 -0.742388 0
M  V30 2603 H 243.081 4.93287 -1.20956 0
M  V30 2604 H 243.011 5.2378 0.544274 0
M  V30 2605 H 245.502 3.77898 -0.0130709 0
M  V30 2606 H 245.815 7.70045 -0.651922 0
M  V30 2607 H 244.16 6.92581 -0.579366 0
M  V30 2608 H 247.351 4.67992 -0.100441 0
M  V30 2609 H 247.524 6.46816 -0.391535 0
M  V30 2610 N 240.93 -0.123565 1.57115 0
M  V30 2611 C 242.176 -0.833386 1.84885 0
M  V30 2612 C 242.509 -1.79742 0.735292 0
M  V30 2613 O 241.784 -1.92764 -0.25925 0
M  V30 2614 C 242.067 -1.5873 3.23228 0
M  V30 2615 C 241.92 -0.643183 4.45178 0
M  V30 2616 C 243.239 -2.54453 3.59085 0
M  V30 2617 H 240.358 -0.301518 0.6725 0
M  V30 2618 H 243 -0.097778 1.89748 0
M  V30 2619 H 241.15 -2.21438 3.19214 0
M  V30 2620 H 242.822 -0.0253015 4.61293 0
M  V30 2621 H 241.065 0.0456139 4.33776 0
M  V30 2622 H 241.736 -1.20724 5.38637 0
M  V30 2623 H 244.212 -2.01853 3.63861 0
M  V30 2624 H 243.088 -3.04238 4.5687 0
M  V30 2625 H 243.349 -3.36906 2.86264 0
M  V30 2626 N 242.408 -1.52605 -0.393616 0
M  V30 2627 C 243.358 -1.73436 -1.48 0
M  V30 2628 C 244.342 -0.588386 -1.49756 0
M  V30 2629 O 245.534 -0.846047 -1.5547 0
M  V30 2630 C 242.663 -1.90247 -2.85764 0
M  V30 2631 C 241.749 -3.10763 -2.88595 0
M  V30 2632 N 242.14 -4.33196 -2.61103 0
M  V30 2633 C 240.438 -3.10914 -3.19763 0
M  V30 2634 C 241.139 -5.1477 -2.70899 0
M  V30 2635 N 240.115 -4.50356 -3.04435 0
M  V30 2636 H 243.917 -2.65727 -1.25563 0
M  V30 2637 H 241.431 -1.5085 -0.601513 0
M  V30 2638 H 243.428 -2.03291 -3.63976 0
M  V30 2639 H 242.088 -0.991663 -3.09186 0
M  V30 2640 H 243.099 -4.61408 -2.35209 0
M  V30 2641 H 239.776 -2.29626 -3.4868 0
M  V30 2642 H 241.166 -6.22355 -2.53227 0
M  V30 2643 N 243.887 0.651787 -1.4349 0
M  V30 2644 C 244.819 1.77725 -1.44729 0
M  V30 2645 C 245.832 1.59141 -0.343231 0
M  V30 2646 O 247.021 1.67835 -0.607751 0
M  V30 2647 C 244.121 3.15172 -1.24579 0
M  V30 2648 C 243.294 3.60402 -2.47849 0
M  V30 2649 C 242.353 4.76656 -2.22902 0
M  V30 2650 O 241.379 4.86022 -2.96263 0
M  V30 2651 N 242.581 5.66958 -1.24656 0
M  V30 2652 H 245.346 1.77141 -2.41746 0
M  V30 2653 H 242.907 0.835678 -1.38665 0
M  V30 2654 H 244.899 3.90634 -1.0577 0
M  V30 2655 H 243.469 3.1052 -0.360015 0
M  V30 2656 H 242.689 2.75369 -2.82073 0
M  V30 2657 H 243.977 3.87368 -3.29884 0
M  V30 2658 H 243.375 5.62065 -0.640265 0
M  V30 2659 H 241.932 6.42135 -1.1183 0
M  V30 2660 N 245.365 1.30045 0.890287 0
M  V30 2661 C 246.611 1.18737 1.64406 0
M  V30 2662 C 246.944 -0.258525 1.92472 0
M  V30 2663 O 246.219 -1.18562 1.54186 0
M  V30 2664 C 246.502 2.01087 2.98724 0
M  V30 2665 C 246.355 3.53867 2.77665 0
M  V30 2666 C 247.674 1.84457 3.9958 0
M  V30 2667 H 244.793 0.432698 0.596608 0
M  V30 2668 H 247.435 1.5962 1.0306 0
M  V30 2669 H 245.585 1.66349 3.51084 0
M  V30 2670 H 247.257 3.98637 2.32133 0
M  V30 2671 H 245.5 3.78318 2.12269 0
M  V30 2672 H 246.171 4.06772 3.7315 0
M  V30 2673 H 248.647 2.14817 3.56361 0
M  V30 2674 H 247.523 2.44411 4.91482 0
M  V30 2675 H 247.784 0.802276 4.3476 0
M  V30 2676 N 246.843 -1.10192 1.12674 0
M  V30 2677 C 247.791 -2.18694 0.792196 0
M  V30 2678 C 248.785 -1.67938 -0.222058 0
M  V30 2679 O 249.991 -1.79822 -0.0800074 0
M  V30 2680 H 246.366 -0.713223 0.238364 0
M  V30 2681 H 248.337 -2.44149 1.71564 0
M  V30 2682 C 247.086 -3.46682 0.265859 0
M  V30 2683 H 246.409 -3.86101 1.03761 0
M  V30 2684 H 247.849 -4.23942 0.0701128 0
M  V30 2685 C 246.308 -3.21506 -1.00675 0
M  V30 2686 O 246.838 -3.43408 -2.08408 0
M  V30 2687 N 245.044 -2.75158 -0.934692 0
M  V30 2688 H 244.591 -2.57535 -0.0578604 0
M  V30 2689 H 244.549 -2.58691 -1.7868 0
M  V30 2690 N 248.321 -0.919034 -1.28029 0
M  V30 2691 C 249.569 -0.553838 -1.94363 0
M  V30 2692 C 249.89 0.906357 -1.72656 0
M  V30 2693 O 249.16 1.64143 -1.0693 0
M  V30 2694 H 247.74 -0.201834 -0.719216 0
M  V30 2695 H 250.402 -1.16954 -1.55909 0
M  V30 2696 H 249.498 -0.752758 -3.02886 0
M  V30 2697 N 249.799 1.42003 -0.683588 0
M  V30 2698 C 250.749 2.27997 0.0121992 0
M  V30 2699 C 251.733 1.4156 0.764822 0
M  V30 2700 O 252.925 1.64935 0.642287 0
M  V30 2701 C 250.054 3.29706 0.956482 0
M  V30 2702 C 249.14 4.23625 0.200739 0
M  V30 2703 N 249.531 4.99448 -0.799087 0
M  V30 2704 C 247.829 4.43845 0.437937 0
M  V30 2705 C 248.53 5.68102 -1.25041 0
M  V30 2706 N 247.506 5.40511 -0.578648 0
M  V30 2707 H 251.308 2.84048 -0.754564 0
M  V30 2708 H 248.822 1.54071 -0.513398 0
M  V30 2709 H 250.819 3.90124 1.47 0
M  V30 2710 H 249.479 2.75216 1.72297 0
M  V30 2711 H 250.49 5.04303 -1.17893 0
M  V30 2712 H 247.167 4.00382 1.18325 0
M  V30 2713 H 248.557 6.38913 -2.07942 0
M  V30 2714 N 251.277 0.427512 1.51691 0
M  V30 2715 C 252.224 -0.388867 2.275 0
M  V30 2716 C 253.194 -1.02532 1.30677 0
M  V30 2717 O 254.379 -1.0461 1.59566 0
M  V30 2718 C 251.519 -1.48954 3.11298 0
M  V30 2719 C 250.632 -0.872194 4.23104 0
M  V30 2720 C 249.767 -1.94709 4.94228 0
M  V30 2721 C 248.806 -1.30766 5.97969 0
M  V30 2722 N 247.943 -2.32349 6.62539 0
M  V30 2723 H 252.783 0.263997 2.96828 0
M  V30 2724 H 250.32 0.142033 1.46413 0
M  V30 2725 H 252.278 -2.13887 3.58201 0
M  V30 2726 H 250.908 -2.11217 2.44105 0
M  V30 2727 H 249.96 -0.111419 3.80237 0
M  V30 2728 H 251.272 -0.365264 4.97461 0
M  V30 2729 H 250.426 -2.67327 5.44629 0
M  V30 2730 H 249.165 -2.48773 4.1948 0
M  V30 2731 H 248.17 -0.566902 5.4687 0
M  V30 2732 H 249.395 -0.774483 6.74669 0
M  V30 2733 H 247.341 -2.85511 5.90609 0
M  V30 2734 H 247.258 -1.8652 7.3263 0
M  V30 2735 H 248.526 -3.04481 7.17574 0
M  V30 2736 N 252.755 -1.56801 0.158532 0
M  V30 2737 C 254.002 -1.9649 -0.489679 0
M  V30 2738 C 254.33 -1.04394 -1.6411 0
M  V30 2739 O 253.585 -0.0754401 -1.95555 0
M  V30 2740 C 253.884 -3.4235 -1.02623 0
M  V30 2741 C 253.55 -4.50899 0.00794526 0
M  V30 2742 C 252.212 -4.80312 0.292207 0
M  V30 2743 C 254.564 -5.16333 0.710584 0
M  V30 2744 C 251.892 -5.72461 1.28472 0
M  V30 2745 C 254.244 -6.09553 1.69199 0
M  V30 2746 C 252.908 -6.37339 1.98383 0
M  V30 2747 H 252.178 -0.719009 -0.179186 0
M  V30 2748 H 254.825 -1.8989 0.247798 0
M  V30 2749 H 253.13 -3.45838 -1.84128 0
M  V30 2750 H 254.827 -3.70393 -1.53656 0
M  V30 2751 H 251.417 -4.28015 -0.22379 0
M  V30 2752 H 255.601 -4.93732 0.504174 0
M  V30 2753 H 250.857 -5.92278 1.51714 0
M  V30 2754 H 255.031 -6.59327 2.24189 0
M  V30 2755 H 252.658 -7.08546 2.7544 0
M  V30 2756 N 254.233 0.115231 -1.57178 0
M  V30 2757 C 255.166 1.17166 -1.95825 0
M  V30 2758 C 256.144 1.39912 -0.828463 0
M  V30 2759 O 257.328 1.54004 -1.08697 0
M  V30 2760 C 254.455 2.52478 -2.25771 0
M  V30 2761 C 253.501 2.46136 -3.48309 0
M  V30 2762 S 254.334 1.89736 -5.0076 0
M  V30 2763 C 255.49 3.26713 -5.33863 0
M  V30 2764 H 255.723 0.842103 -2.85124 0
M  V30 2765 H 253.256 0.322136 -1.51002 0
M  V30 2766 H 255.214 3.30332 -2.43702 0
M  V30 2767 H 253.875 2.82609 -1.37079 0
M  V30 2768 H 253.068 3.45819 -3.66641 0
M  V30 2769 H 252.67 1.76404 -3.29784 0
M  V30 2770 H 254.962 4.22935 -5.29275 0
M  V30 2771 H 255.905 3.13205 -6.35065 0
M  V30 2772 H 256.313 3.25316 -4.61335 0
M  V30 2773 N 255.711 1.52812 0.385517 0
M  V30 2774 C 256.674 1.77188 1.45386 0
M  V30 2775 C 257.674 0.641953 1.4743 0
M  V30 2776 O 258.864 0.910033 1.4854 0
M  V30 2777 C 255.996 1.87582 2.8465 0
M  V30 2778 H 257.189 2.72583 1.25054 0
M  V30 2779 H 254.742 1.43586 0.617467 0
M  V30 2780 H 255.477 0.941849 3.10322 0
M  V30 2781 H 255.262 2.69748 2.84567 0
M  V30 2782 H 256.752 2.08102 3.62054 0
M  V30 2783 N 257.189 -0.644168 1.43834 0
M  V30 2784 C 258.417 -1.43147 1.49387 0
M  V30 2785 C 258.832 -1.88452 0.114583 0
M  V30 2786 O 258.189 -1.60047 -0.876989 0
M  V30 2787 C 258.24 -2.66046 2.44748 0
M  V30 2788 O 257.961 -2.22633 3.77314 0
M  V30 2789 C 259.462 -3.59311 2.59635 0
M  V30 2790 H 256.682 -0.439447 0.507077 0
M  V30 2791 H 259.226 -0.78895 1.88669 0
M  V30 2792 H 257.381 -3.26418 2.08638 0
M  V30 2793 H 257.795 -3.02216 4.28679 0
M  V30 2794 H 259.269 -4.42187 3.30416 0
M  V30 2795 H 259.746 -4.07259 1.64427 0
M  V30 2796 H 260.352 -3.04816 2.96593 0
M  V30 2797 N 258.668 -1.30515 -0.883378 0
M  V30 2798 C 259.898 -1.22182 -1.66599 0
M  V30 2799 C 260.306 0.217507 -1.87946 0
M  V30 2800 O 259.649 1.1554 -1.42815 0
M  V30 2801 C 259.711 -1.88146 -3.06335 0
M  V30 2802 C 259.375 -3.37476 -3.08154 0
M  V30 2803 C 260.372 -4.33443 -2.87094 0
M  V30 2804 C 258.057 -3.7895 -3.29701 0
M  V30 2805 C 260.051 -5.68858 -2.8754 0
M  V30 2806 C 257.738 -5.14482 -3.29776 0
M  V30 2807 C 258.736 -6.09246 -3.0872 0
M  V30 2808 O 258.424 -7.42302 -3.08615 0
M  V30 2809 H 258.156 -0.423898 -0.52658 0
M  V30 2810 H 260.71 -1.72703 -1.11188 0
M  V30 2811 H 258.94 -1.32157 -3.63416 0
M  V30 2812 H 260.629 -1.7391 -3.66756 0
M  V30 2813 H 261.395 -4.02733 -2.70243 0
M  V30 2814 H 257.274 -3.05631 -3.45124 0
M  V30 2815 H 260.818 -6.428 -2.71024 0
M  V30 2816 H 256.715 -5.44832 -3.46163 0
M  V30 2817 H 257.483 -7.5131 -3.24769 0
M  V30 2818 N 260.146 1.09593 -1.13257 0
M  V30 2819 C 261.076 2.18214 -0.830946 0
M  V30 2820 C 262.057 1.68812 0.208966 0
M  V30 2821 O 263.242 1.9408 0.0682666 0
M  V30 2822 C 260.372 3.46051 -0.294296 0
M  V30 2823 C 259.326 4.08778 -1.26826 0
M  V30 2824 C 258.652 5.31419 -0.591449 0
M  V30 2825 C 259.952 4.51476 -2.62615 0
M  V30 2826 H 261.646 2.43703 -1.73923 0
M  V30 2827 H 259.192 1.17128 -0.837675 0
M  V30 2828 H 261.145 4.2134 -0.0709606 0
M  V30 2829 H 259.869 3.20079 0.649366 0
M  V30 2830 H 258.528 3.35505 -1.47756 0
M  V30 2831 H 258.176 5.01727 0.357633 0
M  V30 2832 H 257.876 5.74341 -1.24123 0
M  V30 2833 H 259.4 6.09433 -0.377355 0
M  V30 2834 H 260.814 5.17999 -2.45663 0
M  V30 2835 H 259.211 5.05277 -3.23752 0
M  V30 2836 H 260.281 3.63962 -3.20406 0
M  V30 2837 N 261.624 0.925811 1.2754 0
M  V30 2838 C 263.04 0.625767 1.46821 0
M  V30 2839 C 263.24 -0.825506 1.83814 0
M  V30 2840 O 262.296 -1.60356 1.95044 0
M  V30 2841 C 263.609 1.57402 2.56213 0
M  V30 2842 C 265.157 1.58204 2.70075 0
M  V30 2843 C 265.632 2.51721 3.82623 0
M  V30 2844 N 267.123 2.49917 3.89994 0
M  V30 2845 C 267.858 3.18968 4.76494 0
M  V30 2846 N 267.354 3.97391 5.67496 0
M  V30 2847 N 269.147 3.07996 4.70208 0
M  V30 2848 H 261.298 1.86409 1.01811 0
M  V30 2849 H 263.561 0.800213 0.508295 0
M  V30 2850 H 263.267 2.60925 2.35819 0
M  V30 2851 H 263.141 1.31428 3.53563 0
M  V30 2852 H 265.528 0.554124 2.89851 0
M  V30 2853 H 265.609 1.88226 1.73218 0
M  V30 2854 H 265.253 3.54622 3.63601 0
M  V30 2855 H 265.183 2.18996 4.78903 0
M  V30 2856 H 267.674 1.9296 3.24923 0
M  V30 2857 H 267.987 4.4707 6.30356 0
M  V30 2858 H 266.332 4.01495 5.67298 0
M  V30 2859 H 269.523 2.46223 3.9811 0
M  V30 2860 H 269.696 3.6208 5.37403 0
M  V30 2861 N 263.102 -1.41638 0.69111 0
M  V30 2862 C 264.034 -2.29194 -0.0161523 0
M  V30 2863 C 265.047 -1.44549 -0.748955 0
M  V30 2864 O 266.236 -1.681 -0.6004 0
M  V30 2865 C 263.336 -3.22325 -1.0469 0
M  V30 2866 C 262.509 -4.35706 -0.384621 0
M  V30 2867 C 261.568 -5.09443 -1.31737 0
M  V30 2868 O 260.594 -5.63386 -0.811451 0
M  V30 2869 N 261.796 -5.16487 -2.64993 0
M  V30 2870 H 264.561 -2.90534 0.735523 0
M  V30 2871 H 262.122 -1.52742 0.53679 0
M  V30 2872 H 264.114 -3.68522 -1.67252 0
M  V30 2873 H 262.684 -2.62323 -1.70015 0
M  V30 2874 H 261.904 -3.91948 0.420804 0
M  V30 2875 H 263.192 -5.08743 0.0760765 0
M  V30 2876 H 262.59 -4.741 -3.08619 0
M  V30 2877 H 261.147 -5.66276 -3.22761 0
M  V30 2878 N 264.58 -0.43555 -1.51462 0
M  V30 2879 C 265.991 0.0279871 -1.86679 0
M  V30 2880 C 266.342 1.42104 -1.35281 0
M  V30 2881 O 265.467 2.04667 -0.702878 0
M  V30 2882 C 266.062 0.0575626 -3.38751 0
M  V30 2883 C 264.621 0.465507 -3.7351 0
M  V30 2884 C 263.768 -0.342996 -2.75171 0
M  V30 2885 H 266.719 -0.651473 -1.44712 0
M  V30 2886 H 266.74 0.867421 -3.70481 0
M  V30 2887 H 266.252 -0.956448 -3.7613 0
M  V30 2888 H 264.353 1.48519 -3.41721 0
M  V30 2889 H 264.466 0.191546 -4.78717 0
M  V30 2890 H 262.83 0.198442 -2.53926 0
M  V30 2891 H 263.613 -1.35585 -3.15391 0
M  V30 2892 N 266.058 1.56714 -0.166846 0
M  V30 2893 C 267.286 2.0112 0.485644 0
M  V30 2894 C 267.701 1.04705 1.57106 0
M  V30 2895 O 267.058 0.0471923 1.82439 0
M  V30 2896 C 267.109 3.45361 1.06808 0
M  V30 2897 O 266.83 4.38092 0.0259995 0
M  V30 2898 C 268.331 4.05145 1.79924 0
M  V30 2899 H 265.551 0.65931 0.124704 0
M  V30 2900 H 268.095 2.02746 -0.267262 0
M  V30 2901 H 266.25 3.44524 1.7715 0
M  V30 2902 H 266.664 5.22519 0.455398 0
M  V30 2903 H 268.138 5.08009 2.15942 0
M  V30 2904 H 268.615 3.46982 2.69258 0
M  V30 2905 H 269.221 4.09672 1.14234 0
M  V30 2906 N 267.536 -0.106894 1.57237 0
M  V30 2907 C 268.766 -0.825191 1.89405 0
M  V30 2908 C 269.174 -1.73374 0.757496 0
M  V30 2909 O 268.517 -1.81552 -0.280115 0
M  V30 2910 C 268.579 -1.70102 3.1671 0
M  V30 2911 C 268.243 -0.965523 4.46684 0
M  V30 2912 C 269.24 -0.300741 5.19029 0
M  V30 2913 C 266.925 -0.943105 4.93367 0
M  V30 2914 C 268.919 0.376622 6.36286 0
M  V30 2915 C 266.606 -0.261949 6.10538 0
M  V30 2916 C 267.604 0.396748 6.81847 0
M  V30 2917 O 267.292 1.06701 7.96787 0
M  V30 2918 H 267.024 -0.241852 0.631255 0
M  V30 2919 H 269.578 -0.0921491 2.05193 0
M  V30 2920 H 267.808 -2.47601 2.97036 0
M  V30 2921 H 269.497 -2.29483 3.34802 0
M  V30 2922 H 270.263 -0.309599 4.84011 0
M  V30 2923 H 266.142 -1.44524 4.3776 0
M  V30 2924 H 269.686 0.891334 6.91882 0
M  V30 2925 H 265.583 -0.250896 6.45012 0
M  V30 2926 H 266.351 0.972707 8.127 0
M  V30 2927 N 269.014 -1.53014 -0.377408 0
M  V30 2928 C 270.254 -1.70318 -1.1301 0
M  V30 2929 C 270.618 -0.439538 -1.86901 0
M  V30 2930 O 271.819 -0.489095 -2.64313 0
M  V30 2931 C 270.09 -2.91125 -2.07319 0
M  V30 2932 S 271.649 -3.29075 -2.90268 0
M  V30 2933 H 268.467 -0.599426 -0.382374 0
M  V30 2934 H 271.069 -1.91089 -0.412933 0
M  V30 2935 H 269.773 -3.81303 -1.51777 0
M  V30 2936 H 269.304 -2.7272 -2.83526 0
M  V30 2937 H 271.319 -2.80165 -4.09539 0
M  V30 2938 N 270.492 0.636531 -1.44174 0
M  V30 2939 C 271.717 1.42847 -1.50364 0
M  V30 2940 C 272.142 1.87665 -0.127867 0
M  V30 2941 O 271.5 1.58408 0.88185 0
M  V30 2942 C 271.548 2.62854 -2.4686 0
M  V30 2943 O 270.652 3.62501 -1.9664 0
M  V30 2944 H 269.993 0.427642 -0.507955 0
M  V30 2945 H 272.523 0.777422 -1.89255 0
M  V30 2946 H 272.533 3.10465 -2.64718 0
M  V30 2947 H 271.208 2.29578 -3.46795 0
M  V30 2948 H 269.785 3.21735 -1.88523 0
M  V30 2949 N 271.97 1.30982 0.876444 0
M  V30 2950 C 272.92 1.14688 1.97055 0
M  V30 2951 C 273.904 0.0596593 1.60789 0
M  V30 2952 O 275.096 0.283892 1.74708 0
M  V30 2953 C 272.225 0.849627 3.3262 0
M  V30 2954 C 271.311 1.97752 3.75173 0
M  V30 2955 N 271.702 3.22384 3.89746 0
M  V30 2956 C 270 1.8758 4.04635 0
M  V30 2957 C 270.701 3.96121 4.25985 0
M  V30 2958 N 269.677 3.24237 4.36315 0
M  V30 2959 H 273.479 2.09204 2.06424 0
M  V30 2960 H 270.993 1.22445 1.06682 0
M  V30 2961 H 272.99 0.713895 4.10742 0
M  V30 2962 H 271.65 -0.087376 3.24582 0
M  V30 2963 H 272.661 3.57575 3.74647 0
M  V30 2964 H 269.338 1.01303 4.05024 0
M  V30 2965 H 270.728 5.03491 4.44911 0
M  V30 2966 N 273.449 -1.08991 1.13837 0
M  V30 2967 C 274.689 -1.82867 0.913183 0
M  V30 2968 C 275.053 -1.83936 -0.550604 0
M  V30 2969 O 276.254 -2.53515 -0.893515 0
M  V30 2970 C 274.525 -3.24843 1.49036 0
M  V30 2971 S 276.084 -4.15669 1.40588 0
M  V30 2972 H 272.902 -0.630278 0.329046 0
M  V30 2973 H 275.504 -1.31049 1.45073 0
M  V30 2974 H 274.208 -3.21644 2.54899 0
M  V30 2975 H 273.739 -3.81734 0.950947 0
M  V30 2976 H 275.754 -4.94686 0.387353 0
M  V30 2977 N 274.927 -0.932562 -1.27047 0
M  V30 2978 C 276.343 -0.633544 -1.46487 0
M  V30 2979 C 276.543 0.815746 -1.84249 0
M  V30 2980 O 275.599 1.59319 -1.95892 0
M  V30 2981 C 276.912 -1.58758 -2.55375 0
M  V30 2982 C 278.46 -1.59634 -2.69232 0
M  V30 2983 C 278.935 -2.53747 -3.81283 0
M  V30 2984 N 280.426 -2.51982 -3.88664 0
M  V30 2985 C 281.161 -3.21491 -4.74796 0
M  V30 2986 N 280.657 -4.00395 -5.65381 0
M  V30 2987 N 282.45 -3.10485 -4.68568 0
M  V30 2988 H 274.601 -1.86946 -1.00821 0
M  V30 2989 H 276.864 -0.802897 -0.504044 0
M  V30 2990 H 276.57 -2.62172 -2.34432 0
M  V30 2991 H 276.444 -1.33301 -3.52861 0
M  V30 2992 H 278.831 -0.569488 -2.89553 0
M  V30 2993 H 278.912 -1.89142 -1.72218 0
M  V30 2994 H 278.556 -3.56545 -3.61715 0
M  V30 2995 H 278.486 -2.21532 -4.77735 0
M  V30 2996 H 280.977 -1.94681 -3.23895 0
M  V30 2997 H 281.29 -4.50406 -6.27976 0
M  V30 2998 H 279.635 -4.04498 -5.65161 0
M  V30 2999 H 282.826 -2.48331 -3.96799 0
M  V30 3000 H 282.999 -3.64925 -5.35475 0
M  V30 3001 N 276.405 1.4127 -0.698611 0
M  V30 3002 C 277.682 1.94955 -0.158762 0
M  V30 3003 C 278.062 1.63781 1.33188 0
M  V30 3004 O 277.41 0.946423 2.07979 0
M  V30 3005 C 277.62 3.46044 -0.453309 0
M  V30 3006 C 278.968 4.22872 -0.382707 0
M  V30 3007 O 279.992 3.54076 -0.388396 0
M  V30 3008 O 278.851 5.45407 -0.345463 0
M  V30 3009 H 275.945 0.82683 -0.0167505 0
M  V30 3010 H 278.491 1.50971 -0.77498 0
M  V30 3011 H 277.263 3.62028 -1.48498 0
M  V30 3012 H 276.886 3.97128 0.19373 0
M  V30 3013 N 277.883 0.443576 1.51229 0
M  V30 3014 C 279.13 -0.120796 2.02139 0
M  V30 3015 C 279.458 -1.42166 1.32736 0
M  V30 3016 O 278.713 -1.90849 0.43301 0
M  V30 3017 C 279.012 -0.380579 3.55368 0
M  V30 3018 C 278.678 0.83523 4.43097 0
M  V30 3019 C 277.34 1.16864 4.66794 0
M  V30 3020 C 279.692 1.64601 4.94526 0
M  V30 3021 C 277.02 2.31339 5.39165 0
M  V30 3022 C 279.372 2.78181 5.68153 0
M  V30 3023 C 278.036 3.11969 5.90112 0
M  V30 3024 H 277.306 -0.0442023 0.73968 0
M  V30 3025 H 279.953 0.592046 1.82118 0
M  V30 3026 H 278.258 -1.17538 3.73754 0
M  V30 3027 H 279.955 -0.830777 3.923 0
M  V30 3028 H 276.545 0.565437 4.24854 0
M  V30 3029 H 280.729 1.40163 4.76097 0
M  V30 3030 H 275.985 2.57823 5.5438 0
M  V30 3031 H 280.159 3.41371 6.06992 0
M  V30 3032 H 277.786 4.00784 6.45969 0
M  V30 3033 N 279.361 -1.56624 0.175154 0
M  V30 3034 C 280.61 -1.96173 -0.468921 0
M  V30 3035 C 280.923 -1.06401 -1.64128 0
M  V30 3036 O 282.129 -1.35648 -2.35185 0
M  V30 3037 C 280.585 -3.48833 -0.885633 0
M  V30 3038 C 280.193 -4.47237 0.261343 0
M  V30 3039 C 281.937 -3.97194 -1.49791 0
M  V30 3040 C 279.844 -5.9114 -0.175214 0
M  V30 3041 H 278.774 -0.732455 -0.178958 0
M  V30 3042 H 281.425 -1.81591 0.263997 0
M  V30 3043 H 279.807 -3.58848 -1.67464 0
M  V30 3044 H 280.981 -4.4894 1.03871 0
M  V30 3045 H 279.296 -4.08956 0.783827 0
M  V30 3046 H 281.893 -5.02167 -1.83665 0
M  V30 3047 H 282.236 -3.40351 -2.39722 0
M  V30 3048 H 282.769 -3.90212 -0.773267 0
M  V30 3049 H 279.508 -6.51865 0.689414 0
M  V30 3050 H 279.028 -5.92735 -0.91786 0
M  V30 3051 H 280.707 -6.44044 -0.617792 0
M  V30 3052 N 280.839 0.0985539 -1.57292 0
M  V30 3053 C 282.085 0.798769 -1.87059 0
M  V30 3054 C 282.44 1.76514 -0.76555 0
M  V30 3055 O 281.733 1.90181 0.232752 0
M  V30 3056 C 281.927 1.56927 -3.21105 0
M  V30 3057 C 281.756 0.679026 -4.44544 0
M  V30 3058 C 280.526 0.326071 -5.04247 0
M  V30 3059 C 282.724 -0.0124715 -5.14298 0
M  V30 3060 N 280.706 -0.572702 -6.11223 0
M  V30 3061 C 282.077 -0.769446 -6.15207 0
M  V30 3062 C 284.132 -0.0867545 -4.97824 0
M  V30 3063 C 282.835 -1.59376 -7.01421 0
M  V30 3064 C 284.861 -0.897955 -5.84543 0
M  V30 3065 C 284.223 -1.64306 -6.84969 0
M  V30 3066 H 280.322 0.268568 -0.734435 0
M  V30 3067 H 282.906 0.0614664 -1.94603 0
M  V30 3068 H 281.077 2.27748 -3.1462 0
M  V30 3069 H 282.809 2.21641 -3.38611 0
M  V30 3070 H 279.564 0.67295 -4.68795 0
M  V30 3071 H 279.988 -1.01454 -6.69355 0
M  V30 3072 H 284.63 0.474963 -4.20124 0
M  V30 3073 H 282.348 -2.16655 -7.78515 0
M  V30 3074 H 285.934 -0.958059 -5.73858 0
M  V30 3075 H 284.814 -2.26065 -7.50909 0
M  V30 3076 N 282.317 1.53212 0.369288 0
M  V30 3077 C 283.565 1.68881 1.11012 0
M  V30 3078 C 283.886 0.441285 1.89941 0
M  V30 3079 O 283.156 -0.544623 1.88177 0
M  V30 3080 H 281.736 0.622569 0.412816 0
M  V30 3081 H 284.398 1.90391 0.416802 0
M  V30 3082 H 283.494 2.54822 1.80201 0
M  V30 3083 N 283.795 -0.628877 1.44509 0
M  V30 3084 C 285.041 -1.39045 1.47629 0
M  V30 3085 C 285.374 -1.93892 0.109343 0
M  V30 3086 O 284.649 -1.7379 -0.87334 0
M  V30 3087 C 284.932 -2.55408 2.53848 0
M  V30 3088 C 284.785 -2.05896 3.99909 0
M  V30 3089 C 286.104 -3.5759 2.56549 0
M  V30 3090 H 283.223 -0.504232 0.537512 0
M  V30 3091 H 285.865 -0.710854 1.76201 0
M  V30 3092 H 284.015 -3.13384 2.29615 0
M  V30 3093 H 285.687 -1.52734 4.35282 0
M  V30 3094 H 283.93 -1.37061 4.11578 0
M  V30 3095 H 284.601 -2.89681 4.69882 0
M  V30 3096 H 287.077 -3.09419 2.78207 0
M  V30 3097 H 285.953 -4.36527 3.32769 0
M  V30 3098 H 286.214 -4.11808 1.60832 0
M  V30 3099 N 285.273 -1.31445 -0.869486 0
M  V30 3100 C 286.522 -1.20517 -1.61736 0
M  V30 3101 C 286.835 0.235341 -1.94179 0
M  V30 3102 O 288.041 0.466312 -2.67465 0
M  V30 3103 C 286.497 -2.10982 -2.91573 0
M  V30 3104 C 286.105 -3.60032 -2.66611 0
M  V30 3105 C 287.849 -2.08856 -3.69567 0
M  V30 3106 C 285.756 -4.42503 -3.92358 0
M  V30 3107 H 284.686 -0.447493 -0.606849 0
M  V30 3108 H 287.337 -1.56303 -0.96133 0
M  V30 3109 H 285.719 -1.68095 -3.58553 0
M  V30 3110 H 286.893 -4.11167 -2.08035 0
M  V30 3111 H 285.208 -3.64139 -2.0197 0
M  V30 3112 H 287.805 -2.67716 -4.62852 0
M  V30 3113 H 288.148 -1.07582 -4.02159 0
M  V30 3114 H 288.681 -2.49945 -3.09471 0
M  V30 3115 H 285.42 -5.44533 -3.64916 0
M  V30 3116 H 284.94 -3.96125 -4.50383 0
M  V30 3117 H 286.619 -4.54741 -4.60238 0
M  V30 3118 N 286.751 1.08385 -1.14413 0
M  V30 3119 C 287.999 1.80419 -0.910679 0
M  V30 3120 C 288.32 1.86658 0.564243 0
M  V30 3121 O 287.59 1.35985 1.41014 0
M  V30 3122 H 286.17 0.668204 -0.333934 0
M  V30 3123 H 288.832 1.31037 -1.44275 0
M  V30 3124 H 287.928 2.83238 -1.31082 0
M  V30 3125 N 288.23 0.939286 1.26551 0
M  V30 3126 C 289.177 0.446088 2.26448 0
M  V30 3127 C 290.147 -0.493234 1.58608 0
M  V30 3128 O 291.332 -0.409857 1.86346 0
M  V30 3129 C 288.472 -0.284375 3.43926 0
M  V30 3130 C 287.585 0.690399 4.26448 0
M  V30 3131 C 286.72 -0.0610712 5.31165 0
M  V30 3132 C 285.759 0.905649 6.05363 0
M  V30 3133 N 284.896 0.186055 7.01853 0
M  V30 3134 H 289.736 1.30291 2.68008 0
M  V30 3135 H 287.273 0.65371 1.31776 0
M  V30 3136 H 289.231 -0.724313 4.10864 0
M  V30 3137 H 287.861 -1.10535 3.03285 0
M  V30 3138 H 286.913 1.24885 3.59316 0
M  V30 3139 H 288.225 1.42873 4.779 0
M  V30 3140 H 287.379 -0.56038 6.04106 0
M  V30 3141 H 286.118 -0.832297 4.80546 0
M  V30 3142 H 285.123 1.4161 5.3125 0
M  V30 3143 H 286.348 1.67685 6.58072 0
M  V30 3144 H 284.294 -0.566714 6.53548 0
M  V30 3145 H 284.211 0.863752 7.51049 0
M  V30 3146 H 285.479 -0.292221 7.78952 0
M  V30 3147 N 289.708 -1.40897 0.706093 0
M  V30 3148 C 290.64 -2.29199 0.00815776 0
M  V30 3149 C 291.653 -1.45336 -0.733582 0
M  V30 3150 O 292.842 -1.68727 -0.582537 0
M  V30 3151 C 289.942 -3.23417 -1.01265 0
M  V30 3152 C 289.115 -4.36089 -0.338387 0
M  V30 3153 C 288.174 -5.10811 -1.26326 0
M  V30 3154 O 287.2 -5.64215 -0.751651 0
M  V30 3155 N 288.402 -5.19269 -2.595 0
M  V30 3156 H 291.167 -2.89738 0.766297 0
M  V30 3157 H 288.728 -1.52164 0.55296 0
M  V30 3158 H 290.72 -3.70276 -1.63334 0
M  V30 3159 H 289.29 -2.64112 -1.67223 0
M  V30 3160 H 288.51 -3.91479 0.462352 0
M  V30 3161 H 289.798 -5.08634 0.130031 0
M  V30 3162 H 289.196 -4.77347 -3.03573 0
M  V30 3163 H 287.753 -5.69667 -3.16737 0
M  V30 3164 N 291.186 -0.45159 -1.50991 0
M  V30 3165 C 292.434 0.109857 -2.01801 0
M  V30 3166 C 292.755 1.41958 -1.3369 0
M  V30 3167 O 292.025 1.9003 -0.475951 0
M  V30 3168 H 290.605 0.0435884 -0.745727 0
M  V30 3169 H 293.267 -0.597557 -1.85514 0
M  V30 3170 H 292.363 0.275489 -3.10882 0
M  V30 3171 N 292.664 1.56529 -0.183458 0
M  V30 3172 C 293.894 2.01331 0.463612 0
M  V30 3173 C 294.302 1.06278 1.5653 0
M  V30 3174 O 293.645 0.0577976 1.83609 0
M  V30 3175 C 293.707 3.42547 1.09096 0
M  V30 3176 C 293.371 4.56817 0.129442 0
M  V30 3177 C 294.368 5.15734 -0.656807 0
M  V30 3178 C 292.053 5.02295 0.02174 0
M  V30 3179 C 294.047 6.1857 -1.53784 0
M  V30 3180 C 291.734 6.04978 -0.862864 0
M  V30 3181 C 292.732 6.62988 -1.64123 0
M  V30 3182 O 292.42 7.63677 -2.51103 0
M  V30 3183 H 292.152 0.664917 0.121907 0
M  V30 3184 H 294.706 2.034 -0.285954 0
M  V30 3185 H 292.936 3.37428 1.88889 0
M  V30 3186 H 294.625 3.71228 1.64148 0
M  V30 3187 H 295.391 4.81473 -0.583839 0
M  V30 3188 H 291.27 4.56847 0.617392 0
M  V30 3189 H 294.814 6.63777 -2.14583 0
M  V30 3190 H 290.711 6.38663 -0.93699 0
M  V30 3191 H 291.479 7.81049 -2.44753 0
M  V30 3192 N 294.142 -0.090211 1.57342 0
M  V30 3193 C 295.074 -1.13541 1.99101 0
M  V30 3194 C 296.087 -1.3604 0.894258 0
M  V30 3195 O 297.276 -1.34606 1.17233 0
M  V30 3196 C 294.376 -2.49001 2.29895 0
M  V30 3197 C 293.549 -2.46712 3.61182 0
M  V30 3198 C 292.608 -3.64136 3.79857 0
M  V30 3199 O 291.634 -3.46405 4.51655 0
M  V30 3200 N 292.836 -4.83802 3.20806 0
M  V30 3201 H 295.601 -0.779942 2.89373 0
M  V30 3202 H 293.162 -0.279125 1.59476 0
M  V30 3203 H 295.154 -3.26166 2.39578 0
M  V30 3204 H 293.724 -2.76619 1.45605 0
M  V30 3205 H 292.944 -1.55058 3.62423 0
M  V30 3206 H 294.232 -2.42265 4.4742 0
M  V30 3207 H 293.63 -5.01112 2.62494 0
M  V30 3208 H 292.187 -5.58543 3.35966 0
M  V30 3209 N 295.62 -1.53406 -0.361157 0
M  V30 3210 C 296.86 -1.71507 -1.11197 0
M  V30 3211 C 297.224 -0.459337 -1.86425 0
M  V30 3212 O 298.425 -0.517102 -2.63779 0
M  V30 3213 C 296.696 -2.93307 -2.0422 0
M  V30 3214 S 298.255 -3.32135 -2.86761 0
M  V30 3215 H 295.073 -0.603448 -0.375995 0
M  V30 3216 H 297.675 -1.91516 -0.392642 0
M  V30 3217 H 296.379 -3.82891 -1.47724 0
M  V30 3218 H 295.91 -2.75712 -2.80618 0
M  V30 3219 H 297.925 -2.84493 -4.06544 0
M  V30 3220 N 297.098 0.621204 -1.44841 0
M  V30 3221 C 298.03 1.74615 -1.48466 0
M  V30 3222 C 299.043 1.58377 -0.37691 0
M  V30 3223 O 300.232 1.66508 -0.643215 0
M  V30 3224 C 297.332 3.12459 -1.31236 0
M  V30 3225 C 296.505 3.55064 -2.55438 0
M  V30 3226 C 295.564 4.71821 -2.32963 0
M  V30 3227 O 294.59 4.79628 -3.06505 0
M  V30 3228 N 295.792 5.64186 -1.36654 0
M  V30 3229 H 298.557 1.71973 -2.45449 0
M  V30 3230 H 296.118 0.806077 -1.40407 0
M  V30 3231 H 298.11 3.88302 -1.14032 0
M  V30 3232 H 296.68 3.09686 -0.4258 0
M  V30 3233 H 295.9 2.69324 -2.87851 0
M  V30 3234 H 297.188 3.80284 -3.38026 0
M  V30 3235 H 296.586 5.6058 -0.759344 0
M  V30 3236 H 295.143 6.39618 -1.25425 0
M  V30 3237 N 298.576 1.31904 0.862503 0
M  V30 3238 C 299.822 1.22197 1.61851 0
M  V30 3239 C 300.155 -0.217641 1.92977 0
M  V30 3240 O 299.43 -1.15264 1.56666 0
M  V30 3241 C 299.713 2.07378 2.94391 0
M  V30 3242 C 299.566 3.59678 2.70096 0
M  V30 3243 C 300.885 1.92891 3.95577 0
M  V30 3244 H 298.004 0.445255 0.587296 0
M  V30 3245 H 300.646 1.6177 0.99651 0
M  V30 3246 H 298.796 1.73758 3.47477 0
M  V30 3247 H 300.468 4.03472 2.23625 0
M  V30 3248 H 298.711 3.82735 2.04197 0
M  V30 3249 H 299.382 4.14595 3.64438 0
M  V30 3250 H 301.858 2.22327 3.51724 0
M  V30 3251 H 300.734 2.54781 4.86187 0
M  V30 3252 H 300.995 0.894315 4.3296 0
M  V30 3253 N 300.054 -1.07777 1.14986 0
M  V30 3254 C 301.294 -1.81888 0.932527 0
M  V30 3255 C 301.658 -1.84509 -0.531064 0
M  V30 3256 O 302.859 -2.54448 -0.866577 0
M  V30 3257 C 301.13 -3.23244 1.52473 0
M  V30 3258 S 302.689 -4.14154 1.44989 0
M  V30 3259 H 299.507 -0.626752 0.335712 0
M  V30 3260 H 302.109 -1.29503 1.46455 0
M  V30 3261 H 300.813 -3.18922 2.58296 0
M  V30 3262 H 300.344 -3.80704 0.991381 0
M  V30 3263 H 302.359 -4.94247 0.439799 0
M  V30 3264 N 301.532 -0.945985 -1.26051 0
M  V30 3265 C 302.76 -0.613025 -1.9761 0
M  V30 3266 C 303.175 0.813035 -1.70397 0
M  V30 3267 O 302.532 1.54274 -0.974979 0
M  V30 3268 C 302.583 -0.85159 -3.51326 0
M  V30 3269 O 302.304 -2.22157 -3.77595 0
M  V30 3270 C 303.805 -0.529831 -4.40122 0
M  V30 3271 H 301.025 -0.230593 -0.630133 0
M  V30 3272 H 303.569 -1.268 -1.60443 0
M  V30 3273 H 301.724 -0.243151 -3.86636 0
M  V30 3274 H 302.138 -2.2852 -4.721 0
M  V30 3275 H 303.612 -0.747348 -5.46917 0
M  V30 3276 H 304.089 0.535341 -4.35925 0
M  V30 3277 H 304.695 -1.11721 -4.10364 0
M  V30 3278 N 303.011 1.40521 -0.713556 0
M  V30 3279 C 304.251 2.02783 -0.256584 0
M  V30 3280 C 304.615 1.55352 1.12827 0
M  V30 3281 O 305.816 2.09663 1.68211 0
M  V30 3282 C 304.087 3.5586 -0.331414 0
M  V30 3283 S 305.646 4.38773 0.0488703 0
M  V30 3284 H 302.464 0.703655 -0.101934 0
M  V30 3285 H 305.066 1.71674 -0.935325 0
M  V30 3286 H 303.77 3.87874 -1.34098 0
M  V30 3287 H 303.301 3.91695 0.365873 0
M  V30 3288 H 305.316 4.79633 1.2715 0
M  V30 3289 N 304.489 0.459591 1.5075 0
M  V30 3290 C 305.735 -0.0994966 2.02556 0
M  V30 3291 C 306.068 -1.40399 1.3417 0
M  V30 3292 O 305.343 -1.88892 0.463683 0
M  V30 3293 C 305.626 -0.295242 3.58888 0
M  V30 3294 C 305.479 1.02947 4.37861 0
M  V30 3295 C 306.798 -1.05502 4.27267 0
M  V30 3296 H 303.917 -0.034686 0.736183 0
M  V30 3297 H 306.559 0.602938 1.8018 0
M  V30 3298 H 304.709 -0.893563 3.78084 0
M  V30 3299 H 306.381 1.66348 4.30263 0
M  V30 3300 H 304.624 1.62885 4.02058 0
M  V30 3301 H 305.295 0.846281 5.45474 0
M  V30 3302 H 307.771 -0.547993 4.12476 0
M  V30 3303 H 306.647 -1.16077 5.36486 0
M  V30 3304 H 306.908 -2.08875 3.89645 0
M  V30 3305 N 305.967 -1.56429 0.191757 0
M  V30 3306 C 307.213 -1.97777 -0.448554 0
M  V30 3307 C 307.546 -1.07847 -1.61501 0
M  V30 3308 O 306.821 -0.129774 -1.94067 0
M  V30 3309 C 307.104 -3.48362 -0.911906 0
M  V30 3310 C 306.957 -4.4907 0.256136 0
M  V30 3311 C 308.276 -4.02561 -1.77857 0
M  V30 3312 H 305.395 -0.719071 -0.161572 0
M  V30 3313 H 308.037 -1.87896 0.282007 0
M  V30 3314 H 306.187 -3.56914 -1.53442 0
M  V30 3315 H 307.859 -4.5256 0.893733 0
M  V30 3316 H 306.102 -4.24181 0.908436 0
M  V30 3317 H 306.773 -5.51889 -0.11053 0
M  V30 3318 H 309.249 -3.96767 -1.25359 0
M  V30 3319 H 308.125 -5.08301 -2.07174 0
M  V30 3320 H 308.386 -3.47616 -2.73158 0
M  V30 3321 N 307.445 0.0818655 -1.57387 0
M  V30 3322 C 308.395 1.10501 -1.99433 0
M  V30 3323 C 309.379 1.35041 -0.874798 0
M  V30 3324 O 310.571 1.35511 -1.13868 0
M  V30 3325 C 307.7 2.42159 -2.43339 0
M  V30 3326 C 306.786 2.20937 -3.62005 0
M  V30 3327 N 307.177 1.69616 -4.76512 0
M  V30 3328 C 305.475 2.51451 -3.68359 0
M  V30 3329 C 306.176 1.62973 -5.58404 0
M  V30 3330 N 305.152 2.08664 -5.01956 0
M  V30 3331 H 308.954 0.701373 -2.85408 0
M  V30 3332 H 306.468 0.289096 -1.59806 0
M  V30 3333 H 308.465 3.16208 -2.71695 0
M  V30 3334 H 307.125 2.83249 -1.58746 0
M  V30 3335 H 308.136 1.38624 -4.99003 0
M  V30 3336 H 304.813 2.95975 -2.94457 0
M  V30 3337 H 306.203 1.24233 -6.60315 0
M  V30 3338 N 308.923 1.53595 0.353017 0
M  V30 3339 C 309.87 1.80919 1.43308 0
M  V30 3340 C 310.84 0.654288 1.5267 0
M  V30 3341 O 312.025 0.897759 1.6836 0
M  V30 3342 C 309.165 2.01605 2.80089 0
M  V30 3343 C 308.278 3.29321 2.79593 0
M  V30 3344 C 307.413 3.40125 4.0803 0
M  V30 3345 C 306.452 4.61826 4.01725 0
M  V30 3346 N 305.589 4.69716 5.21834 0
M  V30 3347 H 310.429 2.73074 1.19308 0
M  V30 3348 H 307.966 1.35263 0.578131 0
M  V30 3349 H 309.924 2.11586 3.59565 0
M  V30 3350 H 308.554 1.12772 3.0246 0
M  V30 3351 H 307.606 3.28229 1.92276 0
M  V30 3352 H 308.918 4.18884 2.70809 0
M  V30 3353 H 308.072 3.49488 4.95927 0
M  V30 3354 H 306.811 2.48601 4.19582 0
M  V30 3355 H 305.816 4.52552 3.12213 0
M  V30 3356 H 307.041 5.54705 3.91764 0
M  V30 3357 H 304.987 3.81097 5.33948 0
M  V30 3358 H 304.904 5.53202 5.1527 0
M  V30 3359 H 306.172 4.83376 6.11529 0
M  V30 3360 N 310.401 -0.613514 1.45168 0
M  V30 3361 C 311.817 -0.933629 1.29443 0
M  V30 3362 C 312.017 -2.00028 0.243101 0
M  V30 3363 O 311.073 -2.49848 -0.364992 0
M  V30 3364 C 312.386 -1.38018 2.67155 0
M  V30 3365 C 313.934 -1.49471 2.75004 0
M  V30 3366 C 314.409 -1.97503 4.13227 0
M  V30 3367 N 315.9 -2.04746 4.15491 0
M  V30 3368 C 316.635 -2.43121 5.19307 0
M  V30 3369 N 316.131 -2.80506 6.33473 0
M  V30 3370 N 317.924 -2.43408 5.06664 0
M  V30 3371 H 310.075 0.0916097 2.12202 0
M  V30 3372 H 312.338 -0.0216655 0.947752 0
M  V30 3373 H 312.044 -0.670625 3.45247 0
M  V30 3374 H 311.918 -2.34784 2.95222 0
M  V30 3375 H 314.305 -2.19519 1.9722 0
M  V30 3376 H 314.386 -0.510342 2.50657 0
M  V30 3377 H 314.03 -1.28045 4.91495 0
M  V30 3378 H 313.96 -2.96843 4.34962 0
M  V30 3379 H 316.451 -1.78468 3.33103 0
M  V30 3380 H 316.764 -3.08652 7.08487 0
M  V30 3381 H 315.109 -2.78216 6.36884 0
M  V30 3382 H 318.3 -2.13604 4.16523 0
M  V30 3383 H 318.473 -2.72989 5.87691 0
M  V30 3384 N 311.879 -1.3236 -0.855495 0
M  V30 3385 C 313.119 -1.24187 -1.62348 0
M  V30 3386 C 313.483 0.193597 -1.91021 0
M  V30 3387 O 314.684 0.39904 -2.65822 0
M  V30 3388 C 312.955 -2.07661 -2.90881 0
M  V30 3389 S 314.514 -2.16505 -3.81669 0
M  V30 3390 H 311.332 -0.442076 -0.556857 0
M  V30 3391 H 313.934 -1.67198 -1.01317 0
M  V30 3392 H 312.638 -3.11018 -2.67761 0
M  V30 3393 H 312.169 -1.65425 -3.56929 0
M  V30 3394 H 314.184 -1.31394 -4.78487 0
M  V30 3395 N 313.357 1.07166 -1.15556 0
M  V30 3396 C 314.307 2.12649 -0.82247 0
M  V30 3397 C 315.291 1.59725 0.194129 0
M  V30 3398 O 316.483 1.76999 -0.00540402 0
M  V30 3399 C 313.612 3.41847 -0.315572 0
M  V30 3400 C 312.698 4.0162 -1.36244 0
M  V30 3401 N 313.089 4.35625 -2.5703 0
M  V30 3402 C 311.387 4.29114 -1.21562 0
M  V30 3403 C 312.088 4.83017 -3.24144 0
M  V30 3404 N 311.064 4.81906 -2.51531 0
M  V30 3405 H 314.866 2.36776 -1.74111 0
M  V30 3406 H 312.38 1.24622 -1.0413 0
M  V30 3407 H 314.377 4.16859 -0.0585855 0
M  V30 3408 H 313.037 3.19163 0.597105 0
M  V30 3409 H 314.048 4.26253 -2.94158 0
M  V30 3410 H 310.725 4.15919 -0.362988 0
M  V30 3411 H 312.115 5.18605 -4.27198 0
M  V30 3412 N 314.835 0.952656 1.25548 0
M  V30 3413 C 315.745 0.47782 2.29682 0
M  V30 3414 C 316.761 -0.453859 1.67977 0
M  V30 3415 O 317.937 -0.330587 1.98668 0
M  V30 3416 C 315.002 -0.238655 3.45878 0
M  V30 3417 C 314.063 0.730994 4.23031 0
M  V30 3418 C 313.296 0.0486165 5.33678 0
M  V30 3419 O 313.519 -1.16612 5.58353 0
M  V30 3420 O 312.453 0.733152 5.97418 0
M  V30 3421 H 316.279 1.34312 2.72386 0
M  V30 3422 H 313.864 0.719026 1.30959 0
M  V30 3423 H 315.746 -0.641774 4.16484 0
M  V30 3424 H 314.421 -1.07916 3.05181 0
M  V30 3425 H 313.328 1.18428 3.5486 0
M  V30 3426 H 314.661 1.53946 4.67506 0
M  V30 3427 N 316.313 -1.40141 0.720998 0
M  V30 3428 C 317.243 -2.33339 0.0867621 0
M  V30 3429 C 318.224 -1.53178 -0.739622 0
M  V30 3430 O 319.409 -1.81625 -0.687449 0
M  V30 3431 C 316.539 -3.37194 -0.831728 0
M  V30 3432 C 315.493 -4.27857 -0.110558 0
M  V30 3433 C 314.819 -5.22294 -1.14513 0
M  V30 3434 C 316.119 -5.11872 1.0385 0
M  V30 3435 H 317.813 -2.86626 0.865219 0
M  V30 3436 H 315.359 -1.37814 0.417516 0
M  V30 3437 H 317.312 -4.01335 -1.28485 0
M  V30 3438 H 316.036 -2.82314 -1.64214 0
M  V30 3439 H 314.695 -3.65176 0.322797 0
M  V30 3440 H 314.343 -4.63717 -1.94874 0
M  V30 3441 H 314.043 -5.83797 -0.667446 0
M  V30 3442 H 315.567 -5.89312 -1.59824 0
M  V30 3443 H 316.981 -5.69436 0.664482 0
M  V30 3444 H 315.378 -5.82445 1.4449 0
M  V30 3445 H 316.448 -4.4753 1.86668 0
M  V30 3446 N 317.792 -0.46758 -1.50504 0
M  V30 3447 C 319.041 0.0902868 -2.01498 0
M  V30 3448 C 319.354 1.411 -1.35463 0
M  V30 3449 O 320.56 2.0536 -1.77594 0
M  V30 3450 C 319.016 0.21142 -3.59278 0
M  V30 3451 C 318.624 -1.10065 -4.34269 0
M  V30 3452 C 320.368 0.721433 -4.18325 0
M  V30 3453 C 318.275 -0.943505 -5.83825 0
M  V30 3454 H 317.205 0.037517 -0.753066 0
M  V30 3455 H 319.856 -0.601943 -1.73346 0
M  V30 3456 H 318.238 0.967352 -3.84003 0
M  V30 3457 H 319.412 -1.86726 -4.21272 0
M  V30 3458 H 317.727 -1.5415 -3.86816 0
M  V30 3459 H 320.324 0.85598 -5.27804 0
M  V30 3460 H 320.667 1.71186 -3.79475 0
M  V30 3461 H 321.2 0.0229843 -3.97793 0
M  V30 3462 H 317.939 -1.90719 -6.27141 0
M  V30 3463 H 317.459 -0.217213 -5.99407 0
M  V30 3464 H 319.138 -0.608715 -6.4413 0
M  V30 3465 N 319.27 1.56325 -0.20005 0
M  V30 3466 C 320.519 1.96895 0.437652 0
M  V30 3467 C 320.832 1.08999 1.62415 0
M  V30 3468 O 322.038 1.39372 2.32997 0
M  V30 3469 C 320.494 3.50198 0.830025 0
M  V30 3470 C 320.102 4.46765 -0.332461 0
M  V30 3471 C 321.846 3.99526 1.43453 0
M  V30 3472 C 319.753 5.91344 0.0811468 0
M  V30 3473 H 318.683 0.735209 0.167282 0
M  V30 3474 H 321.334 1.81148 -0.292853 0
M  V30 3475 H 319.716 3.61467 1.61734 0
M  V30 3476 H 320.89 4.47231 -1.11 0
M  V30 3477 H 319.205 4.07657 -0.848789 0
M  V30 3478 H 321.802 5.05025 1.75652 0
M  V30 3479 H 322.145 3.44122 2.34277 0
M  V30 3480 H 322.678 3.91393 0.71109 0
M  V30 3481 H 319.417 6.50685 -0.793033 0
M  V30 3482 H 318.937 5.94121 0.823445 0
M  V30 3483 H 320.616 6.44945 0.515252 0
M  V30 3484 N 320.748 -0.0735177 1.57428 0
M  V30 3485 C 321.976 -0.785969 1.9139 0
M  V30 3486 C 322.391 -1.71207 0.795847 0
M  V30 3487 O 321.748 -1.81033 -0.230915 0
M  V30 3488 C 321.799 -1.58107 3.25091 0
M  V30 3489 O 321.52 -0.6922 4.32597 0
M  V30 3490 C 323.021 -2.39467 3.73055 0
M  V30 3491 H 320.241 -0.223558 0.632663 0
M  V30 3492 H 322.785 -0.044302 2.04452 0
M  V30 3493 H 320.94 -2.27503 3.13562 0
M  V30 3494 H 321.354 -1.24504 5.09508 0
M  V30 3495 H 322.828 -2.90716 4.69242 0
M  V30 3496 H 323.305 -3.18913 3.01979 0
M  V30 3497 H 323.911 -1.7523 3.87523 0
M  V30 3498 N 322.226 -1.5378 -0.344866 0
M  V30 3499 C 323.173 -1.81676 -1.42346 0
M  V30 3500 C 324.143 -0.662376 -1.52321 0
M  V30 3501 O 325.328 -0.906675 -1.67881 0
M  V30 3502 C 322.468 -2.03087 -2.79015 0
M  V30 3503 C 321.581 -3.30799 -2.77842 0
M  V30 3504 C 320.716 -3.42285 -4.0622 0
M  V30 3505 C 319.755 -4.6395 -3.9927 0
M  V30 3506 N 318.892 -4.72477 -5.19336 0
M  V30 3507 H 323.732 -2.73703 -1.17858 0
M  V30 3508 H 321.269 -1.35568 -0.570949 0
M  V30 3509 H 323.227 -2.1349 -3.58438 0
M  V30 3510 H 321.857 -1.14375 -3.01858 0
M  V30 3511 H 320.909 -3.29244 -1.90533 0
M  V30 3512 H 322.221 -4.20314 -2.68584 0
M  V30 3513 H 321.375 -3.52113 -4.94066 0
M  V30 3514 H 320.114 -2.50823 -4.18258 0
M  V30 3515 H 319.119 -4.54201 -3.09809 0
M  V30 3516 H 320.344 -5.56775 -3.88817 0
M  V30 3517 H 318.29 -3.83924 -5.3192 0
M  V30 3518 H 318.207 -5.55927 -5.12329 0
M  V30 3519 H 319.475 -4.86613 -6.08957 0
M  V30 3520 N 323.704 0.605807 -1.45491 0
M  V30 3521 C 324.944 1.37606 -1.51142 0
M  V30 3522 C 325.308 1.91413 -0.150075 0
M  V30 3523 O 326.509 2.68677 -0.0812828 0
M  V30 3524 C 324.78 2.49197 -2.56195 0
M  V30 3525 S 326.339 3.36953 -2.81083 0
M  V30 3526 H 323.157 0.469118 -0.534275 0
M  V30 3527 H 325.759 0.698845 -1.82583 0
M  V30 3528 H 324.463 2.0802 -3.53773 0
M  V30 3529 H 323.994 3.21717 -2.26411 0
M  V30 3530 H 326.009 4.47395 -2.14598 0
M  V30 3531 N 325.182 1.32811 0.848464 0
M  V30 3532 C 326.145 1.22194 1.9391 0
M  V30 3533 C 327.145 0.143404 1.60159 0
M  V30 3534 O 328.335 0.394253 1.6968 0
M  V30 3535 C 325.467 0.88067 3.29328 0
M  V30 3536 H 326.66 2.19127 2.04752 0
M  V30 3537 H 324.213 1.16731 1.0394 0
M  V30 3538 H 324.948 -0.0865776 3.24184 0
M  V30 3539 H 324.733 1.66052 3.55203 0
M  V30 3540 H 326.223 0.830871 4.09251 0
M  V30 3541 N 326.66 -1.06551 1.16123 0
M  V30 3542 C 327.908 -1.78947 0.939267 0
M  V30 3543 C 328.229 -1.87532 -0.534476 0
M  V30 3544 O 327.499 -1.38211 -1.38833 0
M  V30 3545 H 326.079 -0.662807 0.344523 0
M  V30 3546 H 328.741 -1.28725 1.46342 0
M  V30 3547 H 327.837 -2.81117 1.35572 0
M  V30 3548 N 328.138 -0.959301 -1.25041 0
M  V30 3549 C 329.068 -0.501388 -2.28053 0
M  V30 3550 C 330.049 0.454673 -1.63911 0
M  V30 3551 O 331.234 0.352618 -1.90972 0
M  V30 3552 C 328.364 0.217224 -3.4662 0
M  V30 3553 C 327.318 -0.654034 -4.22973 0
M  V30 3554 C 326.644 0.195589 -5.34342 0
M  V30 3555 C 327.944 -1.93447 -4.85155 0
M  V30 3556 H 329.638 -1.36238 -2.66608 0
M  V30 3557 H 327.184 -0.656534 -1.28163 0
M  V30 3558 H 329.137 0.548732 -4.17812 0
M  V30 3559 H 327.861 1.1125 -3.07068 0
M  V30 3560 H 326.52 -0.968693 -3.5357 0
M  V30 3561 H 326.168 1.09076 -4.91031 0
M  V30 3562 H 325.868 -0.384091 -5.86343 0
M  V30 3563 H 327.392 0.521958 -6.08365 0
M  V30 3564 H 328.806 -1.66908 -5.48466 0
M  V30 3565 H 327.203 -2.46018 -5.47353 0
M  V30 3566 H 328.273 -2.63466 -4.07079 0
M  V30 3567 N 329.616 1.39756 -0.72842 0
M  V30 3568 C 330.563 2.30647 -0.0841519 0
M  V30 3569 C 331.533 1.48869 0.7367 0
M  V30 3570 O 332.718 1.77574 0.698015 0
M  V30 3571 C 329.858 3.35165 0.822091 0
M  V30 3572 C 328.971 4.31999 -0.0106663 0
M  V30 3573 C 328.106 5.23585 0.896241 0
M  V30 3574 C 327.145 6.12072 0.0583381 0
M  V30 3575 N 326.282 6.96035 0.920818 0
M  V30 3576 H 331.122 2.85173 -0.864891 0
M  V30 3577 H 328.659 1.40422 -0.438179 0
M  V30 3578 H 330.617 3.94345 1.36189 0
M  V30 3579 H 329.247 2.8211 1.56888 0
M  V30 3580 H 328.299 3.74492 -0.66781 0
M  V30 3581 H 329.611 4.9443 -0.658825 0
M  V30 3582 H 328.765 5.87759 1.50412 0
M  V30 3583 H 327.504 4.61459 1.57819 0
M  V30 3584 H 326.509 5.46916 -0.562389 0
M  V30 3585 H 327.734 6.76261 -0.6203 0
M  V30 3586 H 325.68 6.36485 1.58818 0
M  V30 3587 H 325.597 7.55284 0.32899 0
M  V30 3588 H 326.865 7.64646 1.51447 0
M  V30 3589 N 331.094 0.475555 1.50254 0
M  V30 3590 C 332.041 -0.316293 2.28622 0
M  V30 3591 C 333.011 -0.983227 1.33873 0
M  V30 3592 O 334.196 -0.994805 1.62814 0
M  V30 3593 C 331.336 -1.38975 3.1588 0
M  V30 3594 C 330.449 -0.737146 4.25664 0
M  V30 3595 C 329.584 -1.78887 5.00173 0
M  V30 3596 C 328.623 -1.11676 6.01826 0
M  V30 3597 N 327.76 -2.11154 6.69596 0
M  V30 3598 H 332.6 0.358297 2.95838 0
M  V30 3599 H 330.137 0.188541 1.45887 0
M  V30 3600 H 332.095 -2.02383 3.64825 0
M  V30 3601 H 330.725 -2.03344 2.50701 0
M  V30 3602 H 329.777 0.0096065 3.80399 0
M  V30 3603 H 331.089 -0.206816 4.98371 0
M  V30 3604 H 330.243 -2.49865 5.52859 0
M  V30 3605 H 328.982 -2.35302 4.27182 0
M  V30 3606 H 327.987 -0.392633 5.48396 0
M  V30 3607 H 329.212 -0.55945 6.76792 0
M  V30 3608 H 327.158 -2.66577 5.99394 0
M  V30 3609 H 327.075 -1.63118 7.38193 0
M  V30 3610 H 328.343 -2.81497 7.26897 0
M  V30 3611 N 332.573 -1.56217 0.208337 0
M  V30 3612 C 333.505 -2.1695 -0.739276 0
M  V30 3613 C 334.518 -1.13492 -1.1672 0
M  V30 3614 O 335.707 -1.40529 -1.10063 0
M  V30 3615 C 332.807 -2.72755 -2.01142 0
M  V30 3616 C 331.98 -4.0125 -1.74118 0
M  V30 3617 C 331.039 -4.41749 -2.85909 0
M  V30 3618 O 330.065 -5.08912 -2.54946 0
M  V30 3619 N 331.267 -4.06342 -4.14568 0
M  V30 3620 H 334.032 -2.98893 -0.219837 0
M  V30 3621 H 331.593 -1.61878 0.0268445 0
M  V30 3622 H 333.585 -2.96826 -2.75094 0
M  V30 3623 H 332.155 -1.95191 -2.4417 0
M  V30 3624 H 331.375 -3.85173 -0.838775 0
M  V30 3625 H 332.663 -4.851 -1.53477 0
M  V30 3626 H 332.061 -3.52345 -4.42571 0
M  V30 3627 H 330.618 -4.35335 -4.85105 0
M  V30 3628 N 334.051 0.0651679 -1.57465 0
M  V30 3629 C 334.961 1.09448 -2.07505 0
M  V30 3630 C 335.977 1.41974 -1.00595 0
M  V30 3631 O 337.153 1.52018 -1.32107 0
M  V30 3632 C 334.218 2.38689 -2.51453 0
M  V30 3633 C 333.279 2.13073 -3.72691 0
M  V30 3634 C 332.512 3.36152 -4.14533 0
M  V30 3635 O 332.735 4.45517 -3.56189 0
M  V30 3636 O 331.669 3.23974 -5.07272 0
M  V30 3637 H 335.495 0.69935 -2.95538 0
M  V30 3638 H 333.08 0.279752 -1.46757 0
M  V30 3639 H 334.962 3.14736 -2.80212 0
M  V30 3640 H 333.637 2.77568 -1.66546 0
M  V30 3641 H 332.544 1.34709 -3.49005 0
M  V30 3642 H 333.877 1.79071 -4.5847 0
M  V30 3643 N 335.529 1.53961 0.336706 0
M  V30 3644 C 336.757 1.75483 1.09605 0
M  V30 3645 C 337.172 0.4972 1.82136 0
M  V30 3646 O 336.529 -0.53149 1.74589 0
M  V30 3647 C 336.58 2.93943 2.10428 0
M  V30 3648 O 336.301 4.14842 1.40846 0
M  V30 3649 C 337.802 3.27571 2.98684 0
M  V30 3650 H 335.022 0.586166 0.326574 0
M  V30 3651 H 337.566 2.00808 0.38683 0
M  V30 3652 H 335.721 2.70929 2.76905 0
M  V30 3653 H 336.135 4.81383 2.08255 0
M  V30 3654 H 337.609 4.13791 3.6535 0
M  V30 3655 H 338.086 2.44168 3.65074 0
M  V30 3656 H 338.692 3.52615 2.37787 0
M  V30 3657 N 337.007 -0.598083 1.45811 0
M  V30 3658 C 338.418 -1.18011 1.44673 0
M  V30 3659 C 338.769 -1.95378 0.179364 0
M  V30 3660 O 337.894 -2.04124 -0.718509 0
M  V30 3661 C 338.489 -2.14677 2.62105 0
M  V30 3662 C 337.048 -2.68236 2.64057 0
M  V30 3663 C 336.195 -1.43816 2.37091 0
M  V30 3664 H 339.146 -0.38686 1.53913 0
M  V30 3665 H 339.167 -2.97878 2.36746 0
M  V30 3666 H 338.679 -1.5834 3.5433 0
M  V30 3667 H 336.78 -3.28486 1.75864 0
M  V30 3668 H 336.893 -3.12021 3.63566 0
M  V30 3669 H 335.257 -1.731 1.86838 0
M  V30 3670 H 336.04 -0.893333 3.31473 0
M  V30 3671 N 338.485 -1.33259 -0.841409 0
M  V30 3672 C 339.762 -1.15174 -1.58096 0
M  V30 3673 C 340.142 0.282858 -2.09196 0
M  V30 3674 O 339.49 1.28151 -1.89181 0
M  V30 3675 C 339.7 -2.1907 -2.71679 0
M  V30 3676 C 341.048 -2.53093 -3.40924 0
M  V30 3677 O 342.072 -2.17717 -2.81918 0
M  V30 3678 O 340.931 -3.1379 -4.47435 0
M  V30 3679 H 338.025 -0.445303 -0.696875 0
M  V30 3680 H 340.571 -1.44833 -0.884385 0
M  V30 3681 H 339.343 -3.15443 -2.31541 0
M  V30 3682 H 338.966 -1.90481 -3.49002 0
M  V30 3683 N 339.963 1.05934 -1.16686 0
M  V30 3684 C 340.895 2.13468 -0.834503 0
M  V30 3685 C 341.908 1.62013 0.15984 0
M  V30 3686 O 343.097 1.7838 -0.0654228 0
M  V30 3687 C 340.197 3.3817 -0.222361 0
M  V30 3688 C 339.37 4.18928 -1.25771 0
M  V30 3689 C 338.429 5.21985 -0.664703 0
M  V30 3690 O 337.455 5.53334 -1.33453 0
M  V30 3691 N 338.657 5.77919 0.546834 0
M  V30 3692 H 341.422 2.42578 -1.75999 0
M  V30 3693 H 338.983 1.21967 -1.06469 0
M  V30 3694 H 340.975 4.04266 0.187472 0
M  V30 3695 H 339.545 3.06655 0.606758 0
M  V30 3696 H 338.765 3.48433 -1.84358 0
M  V30 3697 H 340.053 4.69687 -1.95631 0
M  V30 3698 H 339.451 5.54721 1.10912 0
M  V30 3699 H 338.008 6.45573 0.898829 0
M  V30 3700 N 341.441 0.965919 1.2453 0
M  V30 3701 C 342.687 0.62776 1.92839 0
M  V30 3702 C 343.02 -0.834694 1.75347 0
M  V30 3703 O 342.295 -1.60031 1.10546 0
M  V30 3704 C 342.578 1.00109 3.45905 0
M  V30 3705 C 342.431 2.52011 3.72573 0
M  V30 3706 C 343.75 0.53435 4.36844 0
M  V30 3707 H 340.869 0.229537 0.700344 0
M  V30 3708 H 343.511 1.2046 1.46933 0
M  V30 3709 H 341.661 0.510238 3.85135 0
M  V30 3710 H 343.333 3.08559 3.42912 0
M  V30 3711 H 341.576 2.95287 3.17786 0
M  V30 3712 H 342.247 2.73183 4.79661 0
M  V30 3713 H 344.723 0.955565 4.04979 0
M  V30 3714 H 343.599 0.824152 5.42678 0
M  V30 3715 H 343.86 -0.565589 4.38467 0
M  V30 3716 N 342.919 -1.39368 0.735821 0
M  V30 3717 C 344.167 -2.00101 0.283562 0
M  V30 3718 C 344.488 -1.5868 -1.13338 0
M  V30 3719 O 343.758 -0.835423 -1.77193 0
M  V30 3720 H 342.338 -0.740024 0.101851 0
M  V30 3721 H 345 -1.70404 0.945962 0
M  V30 3722 H 344.096 -3.10323 0.332604 0
M  V30 3723 N 344.397 -0.483516 -1.5 0
M  V30 3724 C 345.622 0.0667119 -2.07293 0
M  V30 3725 C 346.047 1.3164 -1.3436 0
M  V30 3726 O 345.405 1.76945 -0.394987 0
M  V30 3727 C 345.453 0.321126 -3.59167 0
M  V30 3728 O 344.557 1.39927 -3.87936 0
M  V30 3729 H 343.898 -0.0184758 -0.663743 0
M  V30 3730 H 346.428 -0.678125 -1.93035 0
M  V30 3731 H 346.438 0.557906 -4.04168 0
M  V30 3732 H 345.113 -0.592007 -4.11665 0
M  V30 3733 H 343.69 1.14882 -3.54763 0
M  V30 3734 N 345.875 1.56104 -0.216619 0
M  V30 3735 C 346.807 2.17339 0.72776 0
M  V30 3736 C 347.82 1.14109 1.16116 0
M  V30 3737 O 349.009 1.4111 1.09317 0
M  V30 3738 C 346.109 2.73818 1.99693 0
M  V30 3739 C 345.282 4.02168 1.71988 0
M  V30 3740 C 344.341 4.43259 2.83562 0
M  V30 3741 O 343.367 5.10257 2.52244 0
M  V30 3742 N 344.569 4.08535 4.12407 0
M  V30 3743 H 347.334 2.99005 0.203983 0
M  V30 3744 H 344.895 1.61861 -0.0354289 0
M  V30 3745 H 346.887 2.9828 2.73516 0
M  V30 3746 H 345.457 1.96483 2.43132 0
M  V30 3747 H 344.677 3.85612 0.818337 0
M  V30 3748 H 345.965 4.85907 1.50903 0
M  V30 3749 H 345.363 3.54687 4.40696 0
M  V30 3750 H 343.92 4.37901 4.8279 0
M  V30 3751 N 347.353 -0.0568162 1.57498 0
M  V30 3752 C 348.769 -0.411933 1.54192 0
M  V30 3753 C 348.969 -1.78287 0.938942 0
M  V30 3754 O 348.025 -2.46483 0.547919 0
M  V30 3755 C 349.338 -0.339244 2.9878 0
M  V30 3756 C 350.886 -0.418348 3.10192 0
M  V30 3757 C 351.361 -0.375407 4.56459 0
M  V30 3758 N 352.852 -0.435038 4.61153 0
M  V30 3759 C 353.587 -0.424265 5.71828 0
M  V30 3760 N 353.083 -0.367418 6.91825 0
M  V30 3761 N 354.876 -0.471938 5.60115 0
M  V30 3762 H 347.027 0.840684 1.95055 0
M  V30 3763 H 349.29 0.316987 0.893433 0
M  V30 3764 H 348.996 0.601742 3.46514 0
M  V30 3765 H 348.87 -1.14371 3.59443 0
M  V30 3766 H 351.257 -1.34976 2.62422 0
M  V30 3767 H 351.338 0.414962 2.52412 0
M  V30 3768 H 350.982 0.552219 5.04889 0
M  V30 3769 H 350.912 -1.22645 5.12119 0
M  V30 3770 H 353.403 -0.482612 3.74806 0
M  V30 3771 H 353.716 -0.363535 7.71944 0
M  V30 3772 H 352.061 -0.333879 6.94198 0
M  V30 3773 H 355.252 -0.514145 4.65268 0
M  V30 3774 H 355.425 -0.460073 6.46365 0
M  V30 3775 N 348.832 -1.54138 -0.328536 0
M  V30 3776 C 350.079 -1.72105 -1.06706 0
M  V30 3777 C 350.407 -0.492111 -1.88171 0
M  V30 3778 O 349.662 0.526153 -1.88494 0
M  V30 3779 C 349.961 -2.9457 -2.02393 0
M  V30 3780 C 349.627 -4.29544 -1.37122 0
M  V30 3781 C 348.289 -4.6624 -1.19052 0
M  V30 3782 C 350.641 -5.1333 -0.902331 0
M  V30 3783 C 347.969 -5.84325 -0.527331 0
M  V30 3784 C 350.321 -6.32094 -0.252988 0
M  V30 3785 C 348.985 -6.67473 -0.0600901 0
M  V30 3786 H 348.255 -0.629775 -0.390466 0
M  V30 3787 H 350.902 -1.88372 -0.34473 0
M  V30 3788 H 349.207 -2.72969 -2.81061 0
M  V30 3789 H 350.904 -3.05665 -2.59557 0
M  V30 3790 H 347.494 -4.0067 -1.52188 0
M  V30 3791 H 351.678 -4.855 -1.02974 0
M  V30 3792 H 346.934 -6.103 -0.366634 0
M  V30 3793 H 351.108 -6.96299 0.118366 0
M  V30 3794 H 348.735 -7.58832 0.455828 0
M  V30 3795 N 350.31 0.590341 -1.46126 0
M  V30 3796 C 351.535 1.37991 -1.54833 0
M  V30 3797 C 351.96 1.87163 -0.187506 0
M  V30 3798 O 351.318 1.61133 0.831008 0
M  V30 3799 C 351.366 2.54867 -2.55098 0
M  V30 3800 O 350.47 3.56061 -2.08073 0
M  V30 3801 H 349.811 0.411265 -0.521303 0
M  V30 3802 H 352.341 0.716819 -1.91632 0
M  V30 3803 H 352.351 3.01886 -2.74461 0
M  V30 3804 H 351.026 2.18429 -3.53923 0
M  V30 3805 H 349.603 3.15574 -1.98664 0
M  V30 3806 N 351.788 1.33704 0.83433 0
M  V30 3807 C 353.034 1.25603 1.59222 0
M  V30 3808 C 353.367 -0.176659 1.93395 0
M  V30 3809 O 352.642 -1.11915 1.59076 0
M  V30 3810 C 352.925 2.13576 2.89926 0
M  V30 3811 C 352.778 3.65326 2.62406 0
M  V30 3812 C 354.097 2.01238 3.91397 0
M  V30 3813 H 351.216 0.457613 0.577719 0
M  V30 3814 H 353.858 1.63848 0.961972 0
M  V30 3815 H 352.008 1.8109 3.43713 0
M  V30 3816 H 353.68 4.08124 2.15017 0
M  V30 3817 H 351.923 3.8698 1.96033 0
M  V30 3818 H 352.594 4.22232 3.55562 0
M  V30 3819 H 355.07 2.29738 3.46929 0
M  V30 3820 H 353.946 2.65036 4.80673 0
M  V30 3821 H 354.207 0.985951 4.30966 0
M  V30 3822 N 353.266 -1.05314 1.17247 0
M  V30 3823 C 354.214 -2.15137 0.884238 0
M  V30 3824 C 355.208 -1.68729 -0.15063 0
M  V30 3825 O 356.414 -1.8 -0.00366673 0
M  V30 3826 H 352.789 -0.702471 0.2684 0
M  V30 3827 H 354.76 -2.36652 1.81764 0
M  V30 3828 C 353.509 -3.45243 0.412659 0
M  V30 3829 H 352.832 -3.81352 1.20043 0
M  V30 3830 H 354.272 -4.23263 0.249858 0
M  V30 3831 C 352.731 -3.25487 -0.86948 0
M  V30 3832 O 353.261 -3.51938 -1.93655 0
M  V30 3833 N 351.467 -2.78875 -0.817147 0
M  V30 3834 H 351.014 -2.57549 0.0514211 0
M  V30 3835 H 350.972 -2.66036 -1.67547 0
M  V30 3836 N 354.744 -0.972509 -1.24016 0
M  V30 3837 C 355.677 -0.45117 -2.23696 0
M  V30 3838 C 356.655 0.477378 -1.55434 0
M  V30 3839 O 357.839 0.407647 -1.84039 0
M  V30 3840 C 354.966 0.34818 -3.36906 0
M  V30 3841 C 354.012 -0.523355 -4.23277 0
M  V30 3842 S 354.845 -1.96647 -4.98087 0
M  V30 3843 C 356.001 -1.17604 -6.14752 0
M  V30 3844 H 356.234 -1.29588 -2.67571 0
M  V30 3845 H 353.767 -0.777903 -1.33372 0
M  V30 3846 H 355.725 0.803387 -4.02562 0
M  V30 3847 H 354.386 1.16792 -2.91579 0
M  V30 3848 H 353.579 0.0906181 -5.03919 0
M  V30 3849 H 353.181 -0.914485 -3.62647 0
M  V30 3850 H 355.473 -0.433434 -6.76112 0
M  V30 3851 H 356.416 -1.95701 -6.8052 0
M  V30 3852 H 356.824 -0.698295 -5.60164 0
M  V30 3853 N 356.222 1.38976 -0.743202 0
M  V30 3854 C 357.633 1.83123 -0.363732 0
M  V30 3855 C 357.984 1.6205 1.10609 0
M  V30 3856 O 357.109 1.11606 1.854 0
M  V30 3857 C 357.704 3.32439 -0.653408 0
M  V30 3858 C 356.263 3.74974 -0.327338 0
M  V30 3859 C 355.41 2.61878 -0.911875 0
M  V30 3860 H 358.361 1.27852 -0.940191 0
M  V30 3861 H 358.382 3.80432 0.0720031 0
M  V30 3862 H 357.894 3.47745 -1.72323 0
M  V30 3863 H 355.995 3.65252 0.736314 0
M  V30 3864 H 356.108 4.72106 -0.815631 0
M  V30 3865 H 354.472 2.52448 -0.337944 0
M  V30 3866 H 355.255 2.79987 -1.98651 0
M  V30 3867 N 357.7 0.491464 1.49741 0
M  V30 3868 C 358.65 -0.311086 2.25868 0
M  V30 3869 C 359.634 -0.943857 1.30308 0
M  V30 3870 O 360.826 -0.853035 1.55088 0
M  V30 3871 C 357.955 -1.38059 3.14316 0
M  V30 3872 C 357.041 -0.754541 4.17334 0
M  V30 3873 N 357.432 0.137216 5.05614 0
M  V30 3874 C 355.73 -1.01621 4.34269 0
M  V30 3875 C 356.431 0.494614 5.79593 0
M  V30 3876 N 355.407 -0.135169 5.43432 0
M  V30 3877 H 359.209 0.37555 2.91491 0
M  V30 3878 H 356.723 0.306917 1.59473 0
M  V30 3879 H 358.72 -1.96891 3.67477 0
M  V30 3880 H 357.38 -2.06901 2.50244 0
M  V30 3881 H 358.391 0.50741 5.15408 0
M  V30 3882 H 355.068 -1.69808 3.81407 0
M  V30 3883 H 356.458 1.2236 6.60665 0
M  V30 3884 N 359.178 -1.55987 0.224894 0
M  V30 3885 C 360.125 -2.20436 -0.68385 0
M  V30 3886 C 361.095 -1.16102 -1.18783 0
M  V30 3887 O 362.28 -1.4447 -1.24632 0
M  V30 3888 C 359.42 -2.89076 -1.88491 0
M  V30 3889 C 358.533 -4.08012 -1.41951 0
M  V30 3890 C 357.668 -4.64426 -2.5784 0
M  V30 3891 C 356.707 -5.75656 -2.08053 0
M  V30 3892 N 355.844 -6.26347 -3.17227 0
M  V30 3893 H 360.684 -2.97727 -0.12754 0
M  V30 3894 H 358.221 -1.47011 -0.0511978 0
M  V30 3895 H 360.179 -3.27059 -2.59014 0
M  V30 3896 H 358.809 -2.14298 -2.41405 0
M  V30 3897 H 357.861 -3.75492 -0.609095 0
M  V30 3898 H 359.173 -4.88375 -1.01447 0
M  V30 3899 H 358.327 -5.04869 -3.3644 0
M  V30 3900 H 357.066 -3.83233 -3.01635 0
M  V30 3901 H 356.071 -5.34712 -1.27916 0
M  V30 3902 H 357.296 -6.58686 -1.65255 0
M  V30 3903 H 355.242 -5.48067 -3.60497 0
M  V30 3904 H 355.159 -7.01843 -2.80986 0
M  V30 3905 H 356.427 -6.71447 -3.95953 0
M  V30 3906 N 360.656 0.0484629 -1.57525 0
M  V30 3907 C 361.903 0.743125 -1.88372 0
M  V30 3908 C 362.231 1.76383 -0.819715 0
M  V30 3909 O 361.486 1.94855 0.181659 0
M  V30 3910 C 361.785 1.46632 -3.25935 0
M  V30 3911 C 361.451 0.583427 -4.4711 0
M  V30 3912 C 360.113 0.340191 -4.79996 0
M  V30 3913 C 362.465 -0.0273345 -5.21193 0
M  V30 3914 C 359.793 -0.522903 -5.84365 0
M  V30 3915 C 362.145 -0.878017 -6.26477 0
M  V30 3916 C 360.809 -1.1309 -6.5785 0
M  V30 3917 H 360.079 0.271929 -0.689301 0
M  V30 3918 H 362.726 0.00336166 -1.915 0
M  V30 3919 H 361.031 2.2789 -3.18706 0
M  V30 3920 H 362.728 2.00902 -3.47044 0
M  V30 3921 H 359.318 0.783151 -4.21384 0
M  V30 3922 H 363.502 0.147654 -4.9608 0
M  V30 3923 H 358.758 -0.727335 -6.07058 0
M  V30 3924 H 362.932 -1.35789 -6.83033 0
M  V30 3925 H 360.559 -1.80144 -7.38547 0
M  V30 3926 N 362.134 1.5431 0.320358 0
M  V30 3927 C 363.382 1.72327 1.05583 0
M  V30 3928 C 363.703 0.50149 1.88441 0
M  V30 3929 O 362.973 -0.48448 1.89815 0
M  V30 3930 H 361.553 0.635387 0.3928 0
M  V30 3931 H 364.215 1.91621 0.356019 0
M  V30 3932 H 363.311 2.60426 1.72003 0
M  V30 3933 N 363.613 -0.582584 1.46437 0
M  V30 3934 C 364.862 -1.337 1.5102 0
M  V30 3935 C 365.175 -1.94891 0.166359 0
M  V30 3936 O 366.381 -2.71351 0.0899954 0
M  V30 3937 C 364.837 -2.42315 2.66104 0
M  V30 3938 C 364.445 -1.87427 4.06909 0
M  V30 3939 C 366.189 -3.19099 2.79958 0
M  V30 3940 C 364.096 -2.93672 5.13333 0
M  V30 3941 H 363.026 -0.502619 0.562041 0
M  V30 3942 H 365.677 -0.621701 1.72647 0
M  V30 3943 H 364.059 -3.16645 2.37807 0
M  V30 3944 H 365.233 -1.19639 4.44998 0
M  V30 3945 H 363.548 -1.2331 3.97723 0
M  V30 3946 H 366.145 -3.9839 3.56636 0
M  V30 3947 H 366.488 -3.71695 1.87479 0
M  V30 3948 H 367.021 -2.51875 3.07902 0
M  V30 3949 H 363.76 -2.45962 6.07604 0
M  V30 3950 H 363.28 -3.59948 4.79789 0
M  V30 3951 H 364.959 -3.5762 5.39182 0
M  V30 3952 N 365.091 -1.34144 -0.827227 0
M  V30 3953 C 366.041 -1.21923 -1.92663 0
M  V30 3954 C 367.025 -0.119294 -1.60457 0
M  V30 3955 O 368.217 -0.348539 -1.73534 0
M  V30 3956 C 365.346 -0.972492 -3.29238 0
M  V30 3957 C 364.432 -2.1154 -3.67576 0
M  V30 3958 N 364.823 -3.36627 -3.77512 0
M  V30 3959 C 363.121 -2.02468 -3.97395 0
M  V30 3960 C 363.822 -4.11658 -4.1099 0
M  V30 3961 N 362.798 -3.40207 -4.23981 0
M  V30 3962 H 366.6 -2.16721 -1.98517 0
M  V30 3963 H 364.114 -1.2632 -1.02064 0
M  V30 3964 H 366.111 -0.865847 -4.0781 0
M  V30 3965 H 364.771 -0.0331509 -3.24683 0
M  V30 3966 H 365.782 -3.71234 -3.61118 0
M  V30 3967 H 362.459 -1.16265 -4.00985 0
M  V30 3968 H 363.849 -5.19657 -4.25918 0
M  V30 3969 N 366.569 1.04691 -1.17803 0
M  V30 3970 C 367.517 2.14665 -0.895635 0
M  V30 3971 C 368.511 1.68806 0.141679 0
M  V30 3972 O 369.717 1.79999 -0.00587914 0
M  V30 3973 H 366.092 0.701038 -0.272121 0
M  V30 3974 H 368.063 2.35685 -1.83017 0
M  V30 3975 C 366.812 3.45019 -0.430962 0
M  V30 3976 H 366.135 3.8071 -1.22064 0
M  V30 3977 H 367.575 4.23125 -0.272301 0
M  V30 3978 C 366.034 3.25943 0.852207 0
M  V30 3979 O 366.564 3.5296 1.91786 0
M  V30 3980 N 364.77 2.79304 0.802346 0
M  V30 3981 H 364.317 2.57518 -0.0650788 0
M  V30 3982 H 364.275 2.66921 1.66134 0
M  V30 3983 N 368.047 0.979072 1.23499 0
M  V30 3984 C 369.277 0.664237 1.95631 0
M  V30 3985 C 369.685 -0.772653 1.72704 0
M  V30 3986 O 369.028 -1.53141 1.01457 0
M  V30 3987 C 369.09 0.873115 3.48736 0
M  V30 3988 C 368.754 2.29182 3.95379 0
M  V30 3989 C 369.751 3.2704 4.04155 0
M  V30 3990 C 367.436 2.62256 4.28401 0
M  V30 3991 C 369.43 4.56052 4.45304 0
M  V30 3992 C 367.117 3.91491 4.69231 0
M  V30 3993 C 368.115 4.88201 4.77649 0
M  V30 3994 O 367.803 6.15129 5.17563 0
M  V30 3995 H 367.535 0.245915 0.629684 0
M  V30 3996 H 370.089 1.3127 1.57979 0
M  V30 3997 H 368.319 0.167476 3.86337 0
M  V30 3998 H 370.008 0.555642 4.02079 0
M  V30 3999 H 370.774 3.02819 3.78848 0
M  V30 4000 H 366.653 1.87692 4.21061 0
M  V30 4001 H 370.197 5.31538 4.51789 0
M  V30 4002 H 366.094 4.15508 4.93987 0
M  V30 4003 H 366.862 6.18862 5.35679 0
M  V30 4004 N 369.525 -1.3858 0.750561 0
M  V30 4005 C 370.472 -2.30483 0.120835 0
M  V30 4006 C 371.442 -1.50022 -0.712923 0
M  V30 4007 O 372.627 -1.78662 -0.669676 0
M  V30 4008 C 369.767 -3.36431 -0.768666 0
M  V30 4009 C 368.88 -4.31927 0.0793922 0
M  V30 4010 C 368.015 -5.24944 -0.81283 0
M  V30 4011 C 367.054 -6.12088 0.0390447 0
M  V30 4012 N 366.191 -6.97412 -0.809969 0
M  V30 4013 H 371.031 -2.83761 0.91015 0
M  V30 4014 H 368.568 -1.39707 0.460463 0
M  V30 4015 H 370.526 -3.96462 -1.29898 0
M  V30 4016 H 369.156 -2.8457 -1.5238 0
M  V30 4017 H 368.208 -3.73382 0.727303 0
M  V30 4018 H 369.52 -4.93319 0.737401 0
M  V30 4019 H 368.674 -5.90078 -1.41042 0
M  V30 4020 H 367.413 -4.63911 -1.50458 0
M  V30 4021 H 366.418 -5.45952 0.649328 0
M  V30 4022 H 367.643 -6.75189 0.727809 0
M  V30 4023 H 365.589 -6.38931 -1.48672 0
M  V30 4024 H 365.506 -7.55712 -0.208789 0
M  V30 4025 H 366.774 -7.66959 -1.39263 0
M  V30 4026 N 371.003 -0.499398 -1.49478 0
M  V30 4027 C 372.249 0.0457576 -2.02748 0
M  V30 4028 C 372.582 1.36793 -1.37846 0
M  V30 4029 O 371.857 1.87596 -0.513601 0
M  V30 4030 C 372.14 0.199986 -3.59544 0
M  V30 4031 C 371.993 -1.1452 -4.34977 0
M  V30 4032 C 373.312 0.94137 -4.29914 0
M  V30 4033 H 370.431 0.0151552 -0.736844 0
M  V30 4034 H 373.073 -0.650498 -1.78518 0
M  V30 4035 H 371.223 0.793007 -3.8032 0
M  V30 4036 H 372.895 -1.77697 -4.25701 0
M  V30 4037 H 371.138 -1.73488 -3.97598 0
M  V30 4038 H 371.809 -0.990607 -5.43039 0
M  V30 4039 H 374.285 0.43844 -4.13784 0
M  V30 4040 H 373.161 1.01812 -5.39375 0
M  V30 4041 H 373.422 1.98471 -3.95046 0
M  V30 4042 N 372.481 1.55866 -0.233164 0
M  V30 4043 C 373.892 1.847 0.272554 0
M  V30 4044 C 374.243 1.15477 1.58617 0
M  V30 4045 O 373.368 0.42841 2.12117 0
M  V30 4046 C 373.963 3.35071 0.501299 0
M  V30 4047 C 372.522 3.6418 0.951304 0
M  V30 4048 C 371.669 2.77292 0.0208209 0
M  V30 4049 H 374.62 1.52005 -0.456074 0
M  V30 4050 H 374.641 3.55906 1.34577 0
M  V30 4051 H 374.153 3.85424 -0.454936 0
M  V30 4052 H 372.254 3.19293 1.92049 0
M  V30 4053 H 372.367 4.72071 0.817675 0
M  V30 4054 H 370.731 2.49131 0.529723 0
M  V30 4055 H 371.514 3.30448 -0.93054 0
M  V30 4056 N 373.959 -0.0401083 1.57549 0
M  V30 4057 C 375.187 -0.745196 1.93014 0
M  V30 4058 C 375.602 -1.6948 0.831984 0
M  V30 4059 O 374.959 -1.81482 -0.192463 0
M  V30 4060 C 375.01 -1.51176 3.28372 0
M  V30 4061 O 374.731 -0.600284 4.33968 0
M  V30 4062 C 376.232 -2.315 3.78051 0
M  V30 4063 H 373.452 -0.210088 0.637263 0
M  V30 4064 H 375.996 -0.000924689 2.045 0
M  V30 4065 H 374.151 -2.20801 3.18317 0
M  V30 4066 H 374.565 -1.13669 5.12035 0
M  V30 4067 H 376.039 -2.80697 4.75303 0
M  V30 4068 H 376.516 -3.12436 3.08675 0
M  V30 4069 H 377.122 -1.66971 3.91153 0
M  V30 4070 N 375.437 -1.54477 -0.31217 0
M  V30 4071 C 376.684 -1.73227 -1.04875 0
M  V30 4072 C 377.012 -0.512042 -1.87639 0
M  V30 4073 O 376.267 0.506131 -1.89042 0
M  V30 4074 C 376.566 -2.967 -1.99258 0
M  V30 4075 C 376.232 -4.30974 -1.32559 0
M  V30 4076 C 374.894 -4.67477 -1.141 0
M  V30 4077 C 377.246 -5.14258 -0.847835 0
M  V30 4078 C 374.574 -5.84852 -0.465326 0
M  V30 4079 C 376.926 -6.32327 -0.185931 0
M  V30 4080 C 375.59 -6.67499 0.0107077 0
M  V30 4081 H 374.86 -0.633881 -0.383765 0
M  V30 4082 H 377.507 -1.88727 -0.324731 0
M  V30 4083 H 375.812 -2.75935 -2.7815 0
M  V30 4084 H 377.509 -3.08401 -2.563 0
M  V30 4085 H 374.099 -4.02262 -1.4793 0
M  V30 4086 H 378.283 -4.86565 -0.978192 0
M  V30 4087 H 373.539 -6.10654 -0.301883 0
M  V30 4088 H 377.713 -6.96135 0.192211 0
M  V30 4089 H 375.34 -7.58306 0.536287 0
M  V30 4090 N 376.915 0.57481 -1.46744 0
M  V30 4091 C 378.155 1.34369 -1.54027 0
M  V30 4092 C 378.519 1.91051 -0.190642 0
M  V30 4093 O 379.72 2.68444 -0.138255 0
M  V30 4094 C 377.991 2.43706 -2.61423 0
M  V30 4095 S 379.55 3.30915 -2.88167 0
M  V30 4096 H 376.368 0.45768 -0.544105 0
M  V30 4097 H 378.97 0.659959 -1.84024 0
M  V30 4098 H 377.674 2.0047 -3.58106 0
M  V30 4099 H 377.205 3.16842 -2.33184 0
M  V30 4100 H 379.22 4.42742 -2.24039 0
M  V30 4101 N 378.394 1.34581 0.820102 0
M  V30 4102 C 379.671 1.17675 1.56244 0
M  V30 4103 C 380.051 -0.249541 2.0962 0
M  V30 4104 O 379.399 -1.25125 1.91196 0
M  V30 4105 C 379.609 2.23364 2.6816 0
M  V30 4106 C 380.957 2.58485 3.36854 0
M  V30 4107 O 381.981 2.22175 2.78418 0
M  V30 4108 O 380.84 3.20868 4.42386 0
M  V30 4109 H 377.934 0.456333 0.689702 0
M  V30 4110 H 380.48 1.46222 0.861231 0
M  V30 4111 H 379.252 3.19087 2.26493 0
M  V30 4112 H 378.875 1.96009 3.45928 0
M  V30 4113 N 379.872 -1.04064 1.18357 0
M  V30 4114 C 380.822 -2.10393 0.878561 0
M  V30 4115 C 381.806 -1.60183 -0.151713 0
M  V30 4116 O 382.998 -1.76923 0.0523303 0
M  V30 4117 C 380.127 -3.4089 0.406096 0
M  V30 4118 C 379.213 -3.97866 1.46844 0
M  V30 4119 N 379.604 -4.28657 2.68489 0
M  V30 4120 C 377.902 -4.2574 1.32896 0
M  V30 4121 C 378.603 -4.74253 3.36836 0
M  V30 4122 N 377.579 -4.75068 2.64219 0
M  V30 4123 H 381.381 -2.32076 1.80327 0
M  V30 4124 H 378.895 -1.21818 1.07397 0
M  V30 4125 H 380.892 -4.16557 0.169088 0
M  V30 4126 H 379.552 -3.20633 -0.512275 0
M  V30 4127 H 380.563 -4.18304 3.05356 0
M  V30 4128 H 377.24 -4.1481 0.473134 0
M  V30 4129 H 378.63 -5.07096 4.40798 0
M  V30 4130 N 381.35 -0.985608 -1.22978 0
M  V30 4131 C 382.59 -0.665487 -1.93263 0
M  V30 4132 C 382.954 0.78706 -1.75127 0
M  V30 4133 O 384.155 1.21826 -2.39608 0
M  V30 4134 C 382.426 -1.0515 -3.41582 0
M  V30 4135 S 383.985 -0.848637 -4.30516 0
M  V30 4136 H 380.803 -0.24355 -0.667985 0
M  V30 4137 H 383.405 -1.26635 -1.48942 0
M  V30 4138 H 382.109 -2.10517 -3.52293 0
M  V30 4139 H 381.64 -0.442134 -3.90908 0
M  V30 4140 H 383.655 0.264717 -4.95493 0
M  V30 4141 N 382.828 1.3818 -0.7579 0
M  V30 4142 C 384.076 1.99624 -0.315361 0
M  V30 4143 C 384.397 1.60464 1.10799 0
M  V30 4144 O 383.667 0.863507 1.75842 0
M  V30 4145 H 382.247 0.73831 -0.113611 0
M  V30 4146 H 384.909 1.68878 -0.972952 0
M  V30 4147 H 384.005 3.09754 -0.381931 0
M  V30 4148 N 384.306 0.507319 1.49211 0
M  V30 4149 C 385.531 -0.033725 2.07373 0
M  V30 4150 C 385.956 -1.29485 1.36437 0
M  V30 4151 O 385.314 -1.76294 0.423087 0
M  V30 4152 C 385.362 -0.263945 3.59633 0
M  V30 4153 O 384.466 -1.33737 3.90113 0
M  V30 4154 H 383.807 0.0290331 0.663365 0
M  V30 4155 H 386.337 0.708749 1.91932 0
M  V30 4156 H 386.347 -0.493536 4.05004 0
M  V30 4157 H 385.022 0.657424 4.10671 0
M  V30 4158 H 383.599 -1.09224 3.56545 0
M  V30 4159 N 385.784 -1.5574 0.241426 0
M  V30 4160 C 386.714 -2.24133 -0.654722 0
M  V30 4161 C 387.695 -1.21974 -1.1856 0
M  V30 4162 O 388.88 -1.50612 -1.22595 0
M  V30 4163 C 386.01 -2.93659 -1.85423 0
M  V30 4164 C 384.964 -4.0246 -1.45636 0
M  V30 4165 C 384.29 -4.59383 -2.73626 0
M  V30 4166 C 385.59 -5.18468 -0.631506 0
M  V30 4167 H 387.284 -2.99281 -0.0844353 0
M  V30 4168 H 384.83 -1.43947 -0.0391707 0
M  V30 4169 H 386.783 -3.40203 -2.48676 0
M  V30 4170 H 385.507 -2.15991 -2.44981 0
M  V30 4171 H 384.166 -3.56676 -0.847202 0
M  V30 4172 H 383.814 -3.78422 -3.3137 0
M  V30 4173 H 383.514 -5.32826 -2.4773 0
M  V30 4174 H 385.038 -5.08658 -3.37786 0
M  V30 4175 H 386.452 -5.61272 -1.1682 0
M  V30 4176 H 384.849 -5.98266 -0.468831 0
M  V30 4177 H 385.919 -4.8358 0.357506 0
M  V30 4178 N 387.262 0.0317525 -1.57568 0
M  V30 4179 C 388.192 1.03274 -2.0942 0
M  V30 4180 C 389.173 1.3788 -0.996143 0
M  V30 4181 O 390.358 1.46811 -1.27122 0
M  V30 4182 C 387.488 2.33448 -2.57137 0
M  V30 4183 C 386.442 2.13091 -3.71182 0
M  V30 4184 C 385.768 3.49001 -4.05095 0
M  V30 4185 C 387.068 1.51928 -4.99715 0
M  V30 4186 H 388.762 0.60112 -2.93303 0
M  V30 4187 H 386.308 0.287705 -1.41097 0
M  V30 4188 H 388.261 3.03802 -2.92032 0
M  V30 4189 H 386.985 2.78665 -1.70333 0
M  V30 4190 H 385.644 1.45171 -3.36632 0
M  V30 4191 H 385.292 3.91862 -3.15362 0
M  V30 4192 H 384.992 3.36207 -4.81911 0
M  V30 4193 H 386.516 4.20721 -4.42522 0
M  V30 4194 H 387.93 2.12196 -5.32584 0
M  V30 4195 H 386.327 1.49716 -5.81124 0
M  V30 4196 H 387.397 0.484811 -4.8247 0
M  V30 4197 N 388.74 1.54641 0.303973 0
M  V30 4198 C 389.986 1.74969 1.03718 0
M  V30 4199 C 390.341 0.527461 1.85029 0
M  V30 4200 O 389.634 -0.480143 1.85486 0
M  V30 4201 C 389.828 2.97753 1.97681 0
M  V30 4202 C 389.657 4.318 1.25613 0
M  V30 4203 C 388.427 4.95616 0.984518 0
M  V30 4204 C 390.625 5.10021 0.662081 0
M  V30 4205 N 388.607 6.13455 0.233794 0
M  V30 4206 C 389.978 6.19984 0.0439736 0
M  V30 4207 C 392.033 4.94663 0.566835 0
M  V30 4208 C 390.736 7.16264 -0.66016 0
M  V30 4209 C 392.762 5.91271 -0.123637 0
M  V30 4210 C 392.124 7.00601 -0.730608 0
M  V30 4211 H 388.223 0.692873 0.362562 0
M  V30 4212 H 390.807 1.92116 0.316135 0
M  V30 4213 H 388.978 2.82036 2.6704 0
M  V30 4214 H 390.71 3.06621 2.64132 0
M  V30 4215 H 387.465 4.55921 1.28191 0
M  V30 4216 H 387.889 6.76879 -0.127996 0
M  V30 4217 H 392.531 4.10267 1.02181 0
M  V30 4218 H 390.249 8.00204 -1.12691 0
M  V30 4219 H 393.835 5.81466 -0.197236 0
M  V30 4220 H 392.715 7.7407 -1.2564 0
M  V30 4221 N 390.218 -0.567019 1.47046 0
M  V30 4222 C 391.466 -1.322 1.52864 0
M  V30 4223 C 391.787 -1.94088 0.188388 0
M  V30 4224 O 391.057 -1.7941 -0.786693 0
M  V30 4225 H 389.637 -0.490894 0.563056 0
M  V30 4226 H 392.299 -0.662879 1.83281 0
M  V30 4227 H 391.395 -2.12062 2.2899 0
M  V30 4228 N 391.696 -1.35014 -0.812953 0
M  V30 4229 C 392.626 -1.30069 -1.93919 0
M  V30 4230 C 393.607 -0.176275 -1.69184 0
M  V30 4231 O 394.792 -0.370227 -1.90638 0
M  V30 4232 C 391.922 -1.06547 -3.30552 0
M  V30 4233 C 390.876 -2.15561 -3.69753 0
M  V30 4234 C 390.202 -1.77214 -5.04479 0
M  V30 4235 C 391.502 -3.57476 -3.808 0
M  V30 4236 H 393.196 -2.24303 -1.98314 0
M  V30 4237 H 390.742 -1.07977 -0.952736 0
M  V30 4238 H 392.695 -1.01729 -4.08937 0
M  V30 4239 H 391.419 -0.0875719 -3.26483 0
M  V30 4240 H 390.078 -2.19466 -2.9365 0
M  V30 4241 H 389.726 -0.780589 -4.96906 0
M  V30 4242 H 389.426 -2.50184 -5.31678 0
M  V30 4243 H 390.95 -1.7391 -5.8531 0
M  V30 4244 H 392.364 -3.55929 -4.4943 0
M  V30 4245 H 390.761 -4.29152 -4.19462 0
M  V30 4246 H 391.831 -3.94091 -2.82525 0
M  V30 4247 N 393.175 1.03435 -1.18907 0
M  V30 4248 C 394.105 2.13503 -0.945448 0
M  V30 4249 C 395.086 1.69682 0.119189 0
M  V30 4250 O 396.271 1.94169 -0.034707 0
M  V30 4251 C 393.401 3.44004 -0.477316 0
M  V30 4252 C 392.355 4.0148 -1.48316 0
M  V30 4253 C 391.681 5.27537 -0.872311 0
M  V30 4254 C 392.981 4.36921 -2.86177 0
M  V30 4255 H 394.675 2.34141 -1.86597 0
M  V30 4256 H 392.221 1.12523 -0.898584 0
M  V30 4257 H 394.174 4.20372 -0.294204 0
M  V30 4258 H 392.898 3.23072 0.478786 0
M  V30 4259 H 391.557 3.27201 -1.65332 0
M  V30 4260 H 391.205 5.02917 0.0911752 0
M  V30 4261 H 390.905 5.66954 -1.54393 0
M  V30 4262 H 392.429 6.06576 -0.699871 0
M  V30 4263 H 393.843 5.04248 -2.72776 0
M  V30 4264 H 392.24 4.87405 -3.50081 0
M  V30 4265 H 393.31 3.46466 -3.39248 0
M  V30 4266 N 394.653 0.992116 1.22453 0
M  V30 4267 C 396.069 0.702713 1.43297 0
M  V30 4268 C 396.269 -0.726909 1.87932 0
M  V30 4269 O 395.325 -1.49792 2.0327 0
M  V30 4270 C 396.638 1.70762 2.47509 0
M  V30 4271 C 398.186 1.72298 2.61309 0
M  V30 4272 C 398.661 2.71649 3.68742 0
M  V30 4273 N 400.152 2.70239 3.76199 0
M  V30 4274 C 400.887 3.43778 4.58917 0
M  V30 4275 N 400.383 4.26914 5.45633 0
M  V30 4276 N 402.176 3.32487 4.5322 0
M  V30 4277 H 394.327 1.91543 0.917871 0
M  V30 4278 H 396.59 0.826031 0.465162 0
M  V30 4279 H 396.296 2.73059 2.21657 0
M  V30 4280 H 396.17 1.49985 3.46099 0
M  V30 4281 H 398.557 0.706989 2.86506 0
M  V30 4282 H 398.638 1.97143 1.62997 0
M  V30 4283 H 398.282 3.73397 3.44292 0
M  V30 4284 H 398.212 2.44074 4.66622 0
M  V30 4285 H 400.703 2.09912 3.14237 0
M  V30 4286 H 401.016 4.79855 6.05771 0
M  V30 4287 H 399.361 4.31002 5.45218 0
M  V30 4288 H 402.552 2.6698 3.84499 0
M  V30 4289 H 402.725 3.90058 5.17454 0
M  V30 4290 N 396.131 -1.37776 0.765217 0
M  V30 4291 C 397.063 -2.28958 0.105361 0
M  V30 4292 C 398.076 -1.48316 -0.67128 0
M  V30 4293 O 399.265 -1.71046 -0.51045 0
M  V30 4294 C 396.365 -3.27421 -0.874569 0
M  V30 4295 C 395.538 -4.37132 -0.153123 0
M  V30 4296 C 394.597 -5.1571 -1.04547 0
M  V30 4297 O 393.623 -5.66896 -0.511672 0
M  V30 4298 N 394.825 -5.29808 -2.37243 0
M  V30 4299 H 397.59 -2.86227 0.888495 0
M  V30 4300 H 395.151 -1.49682 0.617 0
M  V30 4301 H 397.143 -3.7687 -1.47483 0
M  V30 4302 H 395.713 -2.70967 -1.55871 0
M  V30 4303 H 394.933 -3.89166 0.627975 0
M  V30 4304 H 396.221 -5.07625 0.345643 0
M  V30 4305 H 395.619 -4.89793 -2.83054 0
M  V30 4306 H 394.176 -5.82589 -2.9229 0
M  V30 4307 N 397.609 -0.515225 -1.4894 0
M  V30 4308 C 398.857 0.0241671 -2.02086 0
M  V30 4309 C 399.178 1.3616 -1.3959 0
M  V30 4310 O 398.448 1.87841 -0.556121 0
M  V30 4311 H 397.028 0.0119203 -0.746905 0
M  V30 4312 H 399.69 -0.675702 -1.82812 0
M  V30 4313 H 398.786 0.143385 -3.1177 0
M  V30 4314 N 399.087 1.5561 -0.249682 0
M  V30 4315 C 400.017 2.24477 0.642826 0
M  V30 4316 C 400.998 1.22601 1.17911 0
M  V30 4317 O 402.183 1.5126 1.21795 0
M  V30 4318 C 399.313 2.94638 1.83863 0
M  V30 4319 C 398.267 4.03227 1.435 0
M  V30 4320 C 397.593 4.60828 2.71186 0
M  V30 4321 C 398.893 5.18796 0.604002 0
M  V30 4322 H 400.587 2.99321 0.0685625 0
M  V30 4323 H 398.133 1.43965 0.0315363 0
M  V30 4324 H 400.086 3.41517 2.46868 0
M  V30 4325 H 398.81 2.17287 2.43832 0
M  V30 4326 H 397.469 3.57121 0.828275 0
M  V30 4327 H 397.117 3.80174 3.29358 0
M  V30 4328 H 396.817 5.34132 2.44901 0
M  V30 4329 H 398.341 5.10442 3.35084 0
M  V30 4330 H 399.755 5.61883 1.13842 0
M  V30 4331 H 398.152 5.98506 0.437097 0
M  V30 4332 H 399.222 4.83384 -0.383147 0
M  V30 4333 N 400.565 -0.0233959 1.57583 0
M  V30 4334 C 401.497 -1.04994 2.03737 0
M  V30 4335 C 402.51 -1.32125 0.951152 0
M  V30 4336 O 403.699 -1.29512 1.22837 0
M  V30 4337 C 400.799 -2.39026 2.40249 0
M  V30 4338 C 399.972 -2.31171 3.7132 0
M  V30 4339 C 399.031 -3.47698 3.94959 0
M  V30 4340 O 398.057 -3.26937 4.65941 0
M  V30 4341 N 399.259 -4.6976 3.41037 0
M  V30 4342 H 402.024 -0.656507 2.92421 0
M  V30 4343 H 399.585 -0.211235 1.60516 0
M  V30 4344 H 401.577 -3.15712 2.53196 0
M  V30 4345 H 400.147 -2.70194 1.57207 0
M  V30 4346 H 399.367 -1.39547 3.68674 0
M  V30 4347 H 400.655 -2.23071 4.57293 0
M  V30 4348 H 400.053 -4.89528 2.83512 0
M  V30 4349 H 398.61 -5.43791 3.59353 0
M  V30 4350 N 402.043 -1.548 -0.295768 0
M  V30 4351 C 403.283 -1.76069 -1.03823 0
M  V30 4352 C 403.647 -0.537992 -1.84309 0
M  V30 4353 O 404.848 -0.628514 -2.61349 0
M  V30 4354 C 403.119 -3.01705 -1.91596 0
M  V30 4355 S 404.678 -3.43998 -2.72416 0
M  V30 4356 H 401.496 -0.618852 -0.350062 0
M  V30 4357 H 404.098 -1.93009 -0.31106 0
M  V30 4358 H 402.802 -3.88812 -1.31351 0
M  V30 4359 H 402.333 -2.87366 -2.68671 0
M  V30 4360 H 404.348 -3.0148 -3.94112 0
M  V30 4361 N 403.521 0.559213 -1.47345 0
M  V30 4362 C 404.468 1.66645 -1.59682 0
M  V30 4363 C 405.438 1.60168 -0.43994 0
M  V30 4364 O 406.623 1.79031 -0.659736 0
M  V30 4365 C 403.763 3.04969 -1.61518 0
M  V30 4366 C 402.876 3.21897 -2.88108 0
M  V30 4367 C 402.011 4.50608 -2.81294 0
M  V30 4368 C 401.05 4.60961 -4.02717 0
M  V30 4369 N 400.187 5.81024 -3.94151 0
M  V30 4370 H 405.027 1.55439 -2.54249 0
M  V30 4371 H 402.564 0.757219 -1.26113 0
M  V30 4372 H 404.522 3.85064 -1.60566 0
M  V30 4373 H 403.152 3.15015 -0.704645 0
M  V30 4374 H 402.204 2.35248 -2.98936 0
M  V30 4375 H 403.516 3.25412 -3.78032 0
M  V30 4376 H 402.67 5.3896 -2.7858 0
M  V30 4377 H 401.409 4.49568 -1.89049 0
M  V30 4378 H 400.414 3.71021 -4.05738 0
M  V30 4379 H 401.639 4.63761 -4.96087 0
M  V30 4380 H 399.585 5.80938 -3.04708 0
M  V30 4381 H 399.502 5.85909 -4.77752 0
M  V30 4382 H 400.77 6.71744 -3.9545 0
M  V30 4383 N 404.999 1.35443 0.805782 0
M  V30 4384 C 406.245 1.28952 1.56522 0
M  V30 4385 C 406.578 -0.135597 1.93726 0
M  V30 4386 O 405.853 -1.08516 1.61414 0
M  V30 4387 C 406.136 2.19678 2.85331 0
M  V30 4388 C 405.989 3.7081 2.54598 0
M  V30 4389 C 407.308 2.09495 3.8704 0
M  V30 4390 H 404.427 0.469764 0.567883 0
M  V30 4391 H 407.069 1.65851 0.927001 0
M  V30 4392 H 405.219 1.8834 3.39795 0
M  V30 4393 H 406.891 4.12593 2.06312 0
M  V30 4394 H 405.134 3.91051 1.8778 0
M  V30 4395 H 405.805 4.29679 3.46525 0
M  V30 4396 H 408.281 2.37045 3.41978 0
M  V30 4397 H 407.157 2.75173 4.74943 0
M  V30 4398 H 407.418 1.07714 4.28777 0
M  V30 4399 N 406.477 -1.02803 1.19454 0
M  V30 4400 C 407.717 -1.77769 1.00883 0
M  V30 4401 C 408.081 -1.86596 -0.45233 0
M  V30 4402 O 409.282 -2.57895 -0.757877 0
M  V30 4403 C 407.553 -3.16486 1.66046 0
M  V30 4404 S 409.112 -4.07632 1.62424 0
M  V30 4405 H 405.93 -0.611949 0.361993 0
M  V30 4406 H 408.532 -1.23175 1.51816 0
M  V30 4407 H 407.236 -3.0768 2.7159 0
M  V30 4408 H 406.767 -3.76156 1.15196 0
M  V30 4409 H 408.782 -4.91937 0.64903 0
M  V30 4410 N 407.956 -0.998596 -1.21925 0
M  V30 4411 C 408.903 -0.553621 -2.24062 0
M  V30 4412 C 409.873 0.416999 -1.6078 0
M  V30 4413 O 411.058 0.320482 -1.88089 0
M  V30 4414 C 408.198 0.119959 -3.44891 0
M  V30 4415 C 407.311 -0.893077 -4.22668 0
M  V30 4416 C 406.446 -0.192424 -5.30851 0
M  V30 4417 C 405.485 -1.19344 -6.00353 0
M  V30 4418 N 404.622 -0.520707 -7.00166 0
M  V30 4419 H 409.462 -1.4293 -2.61486 0
M  V30 4420 H 406.999 -0.715838 -1.28507 0
M  V30 4421 H 408.957 0.527459 -4.13852 0
M  V30 4422 H 407.587 0.959389 -3.08214 0
M  V30 4423 H 406.639 -1.41886 -3.52948 0
M  V30 4424 H 407.951 -1.65512 -4.70539 0
M  V30 4425 H 407.105 0.271515 -6.06092 0
M  V30 4426 H 405.844 0.602075 -4.83969 0
M  V30 4427 H 404.849 -1.66795 -5.23889 0
M  V30 4428 H 406.074 -1.98891 -6.49322 0
M  V30 4429 H 404.02 0.254252 -6.55507 0
M  V30 4430 H 403.937 -1.2211 -7.46073 0
M  V30 4431 H 405.205 -0.0797596 -7.79459 0
M  V30 4432 N 409.434 1.37368 -0.772513 0
M  V30 4433 C 410.367 2.27956 -0.105593 0
M  V30 4434 C 411.345 1.46362 0.708295 0
M  V30 4435 O 412.529 1.75695 0.682895 0
M  V30 4436 C 409.656 3.27687 0.856686 0
M  V30 4437 C 408.702 4.26312 0.1267 0
M  V30 4438 S 409.535 5.22206 -1.1858 0
M  V30 4439 C 410.691 6.25488 -0.227081 0
M  V30 4440 H 410.924 2.84171 -0.87372 0
M  V30 4441 H 408.457 1.43654 -0.565939 0
M  V30 4442 H 410.415 3.85653 1.40648 0
M  V30 4443 H 409.076 2.70417 1.59793 0
M  V30 4444 H 408.269 4.96674 0.856212 0
M  V30 4445 H 407.871 3.72339 -0.352117 0
M  V30 4446 H 410.163 6.74836 0.600231 0
M  V30 4447 H 411.106 7.02371 -0.898899 0
M  V30 4448 H 411.514 5.64267 0.162053 0
M  V30 4449 N 410.912 0.523116 1.48665 0
M  V30 4450 C 411.86 -0.256859 2.31177 0
M  V30 4451 C 412.854 -0.94199 1.40794 0
M  V30 4452 O 414.06 -0.867157 1.57735 0
M  V30 4453 H 410.435 -0.1017 0.745091 0
M  V30 4454 H 412.406 0.458739 2.94853 0
M  V30 4455 C 411.155 -1.29503 3.22683 0
M  V30 4456 H 410.478 -0.777248 3.92172 0
M  V30 4457 H 411.918 -1.81233 3.83315 0
M  V30 4458 C 410.377 -2.32501 2.43813 0
M  V30 4459 O 410.907 -3.3881 2.15803 0
M  V30 4460 N 409.113 -2.05538 2.05432 0
M  V30 4461 H 408.66 -1.19104 2.28412 0
M  V30 4462 H 408.618 -2.74676 1.52973 0
M  V30 4463 N 412.39 -1.55475 0.257931 0
M  V30 4464 C 413.636 -1.99502 -0.364266 0
M  V30 4465 C 413.969 -1.146 -1.56782 0
M  V30 4466 O 413.244 -0.211968 -1.93342 0
M  V30 4467 C 413.527 -3.51917 -0.763333 0
M  V30 4468 C 413.38 -4.4758 0.446371 0
M  V30 4469 C 414.699 -4.09742 -1.60623 0
M  V30 4470 H 411.818 -0.725277 -0.130929 0
M  V30 4471 H 414.46 -1.8653 0.361446 0
M  V30 4472 H 412.61 -3.63101 -1.38166 0
M  V30 4473 H 414.282 -4.48362 1.08487 0
M  V30 4474 H 412.525 -4.19947 1.08753 0
M  V30 4475 H 413.196 -5.51862 0.123645 0
M  V30 4476 H 415.672 -4.01727 -1.08418 0
M  V30 4477 H 414.548 -5.16631 -1.85429 0
M  V30 4478 H 414.809 -3.58889 -2.58169 0
M  V30 4479 N 413.868 0.0150385 -1.57593 0
M  V30 4480 C 414.818 1.01943 -2.0394 0
M  V30 4481 C 415.802 1.31209 -0.931286 0
M  V30 4482 O 416.994 1.30559 -1.19513 0
M  V30 4483 C 414.123 2.31621 -2.53391 0
M  V30 4484 C 413.209 2.05384 -3.7105 0
M  V30 4485 N 413.6 1.49253 -4.83278 0
M  V30 4486 C 411.898 2.35601 -3.78693 0
M  V30 4487 C 412.599 1.39143 -5.64813 0
M  V30 4488 N 411.575 1.87187 -5.10355 0
M  V30 4489 H 415.377 0.57969 -2.88126 0
M  V30 4490 H 412.891 0.221056 -1.60888 0
M  V30 4491 H 414.888 3.044 -2.84862 0
M  V30 4492 H 413.548 2.76261 -1.70616 0
M  V30 4493 H 414.559 1.17334 -5.04433 0
M  V30 4494 H 411.236 2.8322 -3.06746 0
M  V30 4495 H 412.626 0.961153 -6.6499 0
M  V30 4496 N 415.346 1.54954 0.287554 0
M  V30 4497 C 416.762 1.46469 0.633964 0
M  V30 4498 C 416.962 0.666865 1.90145 0
M  V30 4499 O 416.018 0.179906 2.51858 0
M  V30 4500 C 417.331 2.90556 0.774454 0
M  V30 4501 C 418.879 3.00681 0.869462 0
M  V30 4502 C 419.354 4.45993 1.04184 0
M  V30 4503 N 420.845 4.4976 1.10772 0
M  V30 4504 C 421.58 5.59393 1.25964 0
M  V30 4505 N 421.076 6.78923 1.37968 0
M  V30 4506 N 422.869 5.47107 1.28959 0
M  V30 4507 H 415.02 2.05288 -0.545041 0
M  V30 4508 H 417.283 0.930305 -0.182308 0
M  V30 4509 H 416.989 3.51594 -0.086207 0
M  V30 4510 H 416.863 3.38743 1.6593 0
M  V30 4511 H 419.25 2.39749 1.7206 0
M  V30 4512 H 419.331 2.55769 -0.0396831 0
M  V30 4513 H 418.975 5.07524 0.195422 0
M  V30 4514 H 418.905 4.88548 1.96542 0
M  V30 4515 H 421.396 3.63651 1.02794 0
M  V30 4516 H 421.709 7.58231 1.49353 0
M  V30 4517 H 420.054 6.81763 1.34999 0
M  V30 4518 H 423.245 4.52668 1.19202 0
M  V30 4519 H 423.418 6.32595 1.40455 0
M  V30 4520 N 416.824 -0.551391 1.4764 0
M  V30 4521 C 418.24 -0.877887 1.33287 0
M  V30 4522 C 418.44 -1.98817 0.327721 0
M  V30 4523 O 417.496 -2.51171 -0.258695 0
M  V30 4524 C 418.809 -1.26563 2.72768 0
M  V30 4525 C 420.357 -1.37673 2.81097 0
M  V30 4526 C 420.832 -1.79799 4.21232 0
M  V30 4527 N 422.323 -1.8694 4.23802 0
M  V30 4528 C 423.058 -2.20876 5.29151 0
M  V30 4529 N 422.554 -2.53386 6.448 0
M  V30 4530 N 424.347 -2.217 5.16532 0
M  V30 4531 H 416.498 0.18153 2.11623 0
M  V30 4532 H 418.761 0.0185514 0.947818 0
M  V30 4533 H 418.467 -0.523591 3.47781 0
M  V30 4534 H 418.341 -2.22052 3.04915 0
M  V30 4535 H 420.728 -2.10956 2.06353 0
M  V30 4536 H 420.809 -0.40357 2.52596 0
M  V30 4537 H 420.453 -1.07083 4.96483 0
M  V30 4538 H 420.383 -2.78128 4.4716 0
M  V30 4539 H 422.874 -1.64179 3.40373 0
M  V30 4540 H 423.187 -2.78325 7.20941 0
M  V30 4541 H 421.532 -2.50953 6.48111 0
M  V30 4542 H 424.723 -1.95745 4.25207 0
M  V30 4543 H 424.896 -2.47818 5.98741 0
M  V30 4544 N 418.302 -1.35869 -0.798587 0
M  V30 4545 C 419.542 -1.30961 -1.56935 0
M  V30 4546 C 419.906 0.112404 -1.91671 0
M  V30 4547 O 421.107 0.285937 -2.67275 0
M  V30 4548 C 419.378 -2.19811 -2.81811 0
M  V30 4549 S 420.937 -2.32498 -3.72143 0
M  V30 4550 H 417.755 -0.465297 -0.537606 0
M  V30 4551 H 420.357 -1.71344 -0.941346 0
M  V30 4552 H 419.061 -3.22095 -2.54329 0
M  V30 4553 H 418.592 -1.80415 -3.49591 0
M  V30 4554 H 420.607 -1.5157 -4.72484 0
M  V30 4555 N 419.78 1.02168 -1.19998 0
M  V30 4556 C 420.69 2.14069 -0.959774 0
M  V30 4557 C 421.706 1.73804 0.082655 0
M  V30 4558 O 422.882 2.01133 -0.103633 0
M  V30 4559 C 419.947 3.42936 -0.509459 0
M  V30 4560 C 419.008 3.97474 -1.62213 0
M  V30 4561 C 418.241 5.2019 -1.19321 0
M  V30 4562 O 418.464 5.70369 -0.0597726 0
M  V30 4563 O 417.398 5.67749 -1.99863 0
M  V30 4564 H 421.224 2.37199 -1.89658 0
M  V30 4565 H 418.809 1.12469 -0.983411 0
M  V30 4566 H 420.691 4.20551 -0.267322 0
M  V30 4567 H 419.366 3.21234 0.398821 0
M  V30 4568 H 418.273 3.21161 -1.9185 0
M  V30 4569 H 419.606 4.23555 -2.50723 0
M  V30 4570 N 421.258 1.00505 1.21394 0
M  V30 4571 C 422.486 0.706609 1.9446 0
M  V30 4572 C 422.901 -0.73081 1.74082 0
M  V30 4573 O 422.258 -1.49446 1.04747 0
M  V30 4574 C 422.309 1.01824 3.46863 0
M  V30 4575 O 422.03 2.39919 3.66566 0
M  V30 4576 C 423.531 0.739216 4.37093 0
M  V30 4577 H 420.751 0.260394 0.618414 0
M  V30 4578 H 423.295 1.34311 1.54211 0
M  V30 4579 H 421.45 0.427343 3.85036 0
M  V30 4580 H 421.864 2.50784 4.6066 0
M  V30 4581 H 423.338 1.00744 5.42729 0
M  V30 4582 H 423.815 -0.326746 4.37983 0
M  V30 4583 H 424.421 1.31173 4.04566 0
M  V30 4584 N 422.737 -1.36956 0.779787 0
M  V30 4585 C 423.685 -2.32053 0.15942 0
M  V30 4586 C 424.679 -1.55333 -0.675878 0
M  V30 4587 O 425.885 -1.70668 -0.57204 0
M  V30 4588 H 422.26 -0.751286 0.0327707 0
M  V30 4589 H 424.231 -2.8195 0.977078 0
M  V30 4590 C 422.98 -3.40602 -0.698977 0
M  V30 4591 H 422.303 -3.99746 -0.0655966 0
M  V30 4592 H 423.743 -4.09486 -1.09989 0
M  V30 4593 C 422.202 -2.81359 -1.85307 0
M  V30 4594 O 422.732 -2.72751 -2.94906 0
M  V30 4595 N 420.938 -2.38786 -1.65619 0
M  V30 4596 H 420.485 -2.45987 -0.764725 0
M  V30 4597 H 420.443 -1.99493 -2.43002 0
M  V30 4598 N 424.215 -0.530993 -1.48385 0
M  V30 4599 C 425.461 0.00274135 -2.028 0
M  V30 4600 C 425.794 1.33838 -1.40716 0
M  V30 4601 O 425.069 1.86465 -0.553277 0
M  V30 4602 C 425.352 0.123676 -3.59888 0
M  V30 4603 C 425.205 -1.2372 -4.3245 0
M  V30 4604 C 426.524 0.849967 -4.31814 0
M  V30 4605 H 423.643 -0.000477758 -0.737 0
M  V30 4606 H 426.285 -0.688217 -1.77098 0
M  V30 4607 H 424.435 0.712157 -3.81917 0
M  V30 4608 H 426.107 -1.86687 -4.21836 0
M  V30 4609 H 424.35 -1.81882 -3.93829 0
M  V30 4610 H 425.021 -1.10557 -5.40815 0
M  V30 4611 H 427.497 0.350572 -4.14621 0
M  V30 4612 H 426.373 0.903486 -5.41413 0
M  V30 4613 H 426.634 1.90047 -3.99167 0
M  V30 4614 N 425.693 1.55336 -0.266172 0
M  V30 4615 C 426.656 2.20878 0.612001 0
M  V30 4616 C 427.656 1.18388 1.08816 0
M  V30 4617 O 428.846 1.4335 0.989774 0
M  V30 4618 C 425.978 2.86765 1.84332 0
M  V30 4619 H 427.171 2.99873 0.0398718 0
M  V30 4620 H 424.724 1.56291 -0.0167309 0
M  V30 4621 H 425.459 2.11759 2.45619 0
M  V30 4622 H 425.244 3.61862 1.5099 0
M  V30 4623 H 426.734 3.36867 2.46801 0
M  V30 4624 N 427.171 -0.0066808 1.57599 0
M  V30 4625 C 428.582 -0.550379 1.78403 0
M  V30 4626 C 428.933 -1.74339 0.900014 0
M  V30 4627 O 428.058 -2.16166 0.100713 0
M  V30 4628 C 428.653 -1.00523 3.23544 0
M  V30 4629 C 427.212 -1.49428 3.45468 0
M  V30 4630 C 426.359 -0.442444 2.73748 0
M  V30 4631 H 429.31 0.219508 1.57175 0
M  V30 4632 H 429.331 -1.87157 3.31289 0
M  V30 4633 H 428.843 -0.136735 3.87859 0
M  V30 4634 H 426.944 -2.3839 2.86358 0
M  V30 4635 H 427.057 -1.52635 4.54136 0
M  V30 4636 H 425.421 -0.902578 2.38171 0
M  V30 4637 H 426.204 0.416973 3.40758 0
M  V30 4638 N 428.649 -1.55105 -0.279332 0
M  V30 4639 C 429.597 -1.88333 -1.36505 0
M  V30 4640 C 430.591 -0.759043 -1.51443 0
M  V30 4641 O 431.797 -0.943312 -1.53302 0
M  V30 4642 H 428.172 -0.59766 -0.456406 0
M  V30 4643 H 430.143 -2.79041 -1.05728 0
M  V30 4644 C 428.892 -2.16628 -2.7197 0
M  V30 4645 H 428.215 -3.02624 -2.61264 0
M  V30 4646 H 429.655 -2.43803 -3.46895 0
M  V30 4647 C 428.114 -0.971807 -3.22579 0
M  V30 4648 O 428.644 -0.203228 -4.01186 0
M  V30 4649 N 426.85 -0.771238 -2.80179 0
M  V30 4650 H 426.397 -1.39792 -2.1637 0
M  V30 4651 H 426.355 0.0263667 -3.14389 0
M  V30 4652 N 430.127 0.543554 -1.4793 0
M  V30 4653 C 431.367 1.31072 -1.56843 0
M  V30 4654 C 431.731 1.90604 -0.231124 0
M  V30 4655 O 432.932 2.68091 -0.195165 0
M  V30 4656 C 431.203 2.38106 -2.66533 0
M  V30 4657 S 432.762 3.24729 -2.95122 0
M  V30 4658 H 429.58 0.446035 -0.553691 0
M  V30 4659 H 432.182 0.620777 -1.85382 0
M  V30 4660 H 430.886 1.92828 -3.62278 0
M  V30 4661 H 430.417 3.11824 -2.39852 0
M  V30 4662 H 432.432 4.37891 -2.3338 0
M  V30 4663 N 431.605 1.3629 0.791371 0
M  V30 4664 C 432.853 1.30154 1.5461 0
M  V30 4665 C 433.174 -0.119409 1.94634 0
M  V30 4666 O 432.444 -1.05924 1.64794 0
M  V30 4667 H 431.024 0.478784 0.573389 0
M  V30 4668 H 433.686 1.70565 0.94306 0
M  V30 4669 H 432.782 1.92762 2.45457 0
M  V30 4670 N 433.083 -1.0153 1.20538 0
M  V30 4671 C 434.329 -1.75408 1.01783 0
M  V30 4672 C 434.662 -1.88943 -0.448814 0
M  V30 4673 O 433.937 -1.4162 -1.33319 0
M  V30 4674 C 434.22 -3.17255 1.70356 0
M  V30 4675 C 434.073 -3.11508 3.24473 0
M  V30 4676 C 435.392 -4.15955 1.43769 0
M  V30 4677 H 432.511 -0.636713 0.371167 0
M  V30 4678 H 435.153 -1.18436 1.4857 0
M  V30 4679 H 433.303 -3.65898 1.30578 0
M  V30 4680 H 434.975 -2.70658 3.73553 0
M  V30 4681 H 433.218 -2.4887 3.55311 0
M  V30 4682 H 433.889 -4.11784 3.67611 0
M  V30 4683 H 436.365 -3.75973 1.7828 0
M  V30 4684 H 435.241 -5.13368 1.94279 0
M  V30 4685 H 435.502 -4.40586 0.365564 0
M  V30 4686 N 434.561 -1.01147 -1.20859 0
M  V30 4687 C 435.838 -0.613136 -1.85742 0
M  V30 4688 C 436.218 0.909004 -1.90526 0
M  V30 4689 O 435.566 1.79862 -1.40932 0
M  V30 4690 C 435.776 -1.255 -3.25654 0
M  V30 4691 C 437.124 -1.3672 -4.01986 0
M  V30 4692 O 438.148 -1.21082 -3.34989 0
M  V30 4693 O 437.007 -1.6194 -5.21956 0
M  V30 4694 H 434.101 -0.210878 -0.799662 0
M  V30 4695 H 436.647 -1.10853 -1.2849 0
M  V30 4696 H 435.419 -2.29532 -3.16908 0
M  V30 4697 H 435.042 -0.746369 -3.90532 0
M  V30 4698 N 436.039 1.36541 -0.78704 0
M  V30 4699 C 437.002 2.28413 -0.189778 0
M  V30 4700 C 438.002 1.48719 0.611499 0
M  V30 4701 O 439.192 1.68737 0.432842 0
M  V30 4702 C 436.324 3.32824 0.737638 0
M  V30 4703 H 437.517 2.82743 -0.999831 0
M  V30 4704 H 435.07 1.46065 -0.556298 0
M  V30 4705 H 435.805 2.83646 1.57212 0
M  V30 4706 H 435.59 3.91752 0.165044 0
M  V30 4707 H 437.08 4.0144 1.15047 0
M  V30 4708 N 437.518 0.538854 1.48102 0
M  V30 4709 C 438.934 0.19732 1.58376 0
M  V30 4710 C 439.134 -1.29971 1.5398 0
M  V30 4711 O 438.19 -2.07861 1.43352 0
M  V30 4712 C 439.503 0.807716 2.89649 0
M  V30 4713 C 441.051 0.77726 3.03196 0
M  V30 4714 C 441.526 1.36639 4.37143 0
M  V30 4715 N 443.017 1.32875 4.43732 0
M  V30 4716 C 443.752 1.7544 5.45901 0
M  V30 4717 N 443.248 2.25776 6.54979 0
M  V30 4718 N 445.041 1.66623 5.36836 0
M  V30 4719 H 437.192 1.5117 1.49202 0
M  V30 4720 H 439.455 0.629327 0.708979 0
M  V30 4721 H 439.161 1.85909 2.98548 0
M  V30 4722 H 439.035 0.289975 3.76084 0
M  V30 4723 H 441.422 -0.265374 2.93904 0
M  V30 4724 H 441.503 1.33256 2.18349 0
M  V30 4725 H 441.147 2.408 4.47189 0
M  V30 4726 H 441.077 0.786689 5.20691 0
M  V30 4727 H 443.568 0.96037 3.65493 0
M  V30 4728 H 443.881 2.56226 7.29087 0
M  V30 4729 H 442.226 2.29775 6.55918 0
M  V30 4730 H 445.417 1.27089 4.50517 0
M  V30 4731 H 445.59 2.00115 6.16326 0
M  V30 4732 N 438.996 -1.55193 0.274407 0
M  V30 4733 C 440.244 -1.99187 -0.341902 0
M  V30 4734 C 440.565 -1.16422 -1.56431 0
M  V30 4735 O 439.835 -0.253573 -1.94252 0
M  V30 4736 H 438.415 -0.735721 -0.129317 0
M  V30 4737 H 441.077 -1.91168 0.379578 0
M  V30 4738 H 440.173 -3.05629 -0.632253 0
M  V30 4739 N 440.474 -0.00167713 -1.576 0
M  V30 4740 C 441.723 0.682021 -1.89819 0
M  V30 4741 C 442.036 1.74844 -0.876871 0
M  V30 4742 O 443.242 2.48688 -1.08934 0
M  V30 4743 C 441.698 1.26425 -3.36964 0
M  V30 4744 C 441.306 0.232568 -4.47396 0
M  V30 4745 C 443.05 1.92604 -3.78291 0
M  V30 4746 C 440.957 0.824882 -5.85619 0
M  V30 4747 H 439.887 0.258499 -0.708304 0
M  V30 4748 H 442.538 -0.0624957 -1.83394 0
M  V30 4749 H 440.92 2.05949 -3.38232 0
M  V30 4750 H 442.094 -0.5382 -4.57646 0
M  V30 4751 H 440.409 -0.32888 -4.15099 0
M  V30 4752 H 443.006 2.37827 -4.78897 0
M  V30 4753 H 443.349 2.75732 -3.11894 0
M  V30 4754 H 443.882 1.19812 -3.79328 0
M  V30 4755 H 440.621 0.0323542 -6.55492 0
M  V30 4756 H 440.141 1.56477 -5.79029 0
M  V30 4757 H 441.82 1.32301 -6.33329 0
M  V30 4758 N 441.952 1.55251 0.271103 0
M  V30 4759 C 442.915 1.87484 1.31842 0
M  V30 4760 C 443.915 0.749545 1.42262 0
M  V30 4761 O 445.105 1.01771 1.4138 0
M  V30 4762 C 442.237 2.0818 2.69951 0
M  V30 4763 H 443.43 2.81108 1.0449 0
M  V30 4764 H 440.983 1.47771 0.509258 0
M  V30 4765 H 441.718 1.16944 3.02481 0
M  V30 4766 H 441.503 2.90114 2.63774 0
M  V30 4767 H 442.993 2.34385 3.4562 0
M  V30 4768 N 443.43 -0.535701 1.48216 0
M  V30 4769 C 444.377 -1.64083 1.62312 0
M  V30 4770 C 445.347 -1.59448 0.465365 0
M  V30 4771 O 446.532 -1.77959 0.688135 0
M  V30 4772 C 443.672 -3.0236 1.66349 0
M  V30 4773 C 442.785 -3.17273 2.93193 0
M  V30 4774 C 441.92 -4.46075 2.88427 0
M  V30 4775 C 440.959 -4.54496 4.1 0
M  V30 4776 N 440.096 -5.7468 4.03345 0
M  V30 4777 H 444.936 -1.51374 2.5669 0
M  V30 4778 H 442.473 -0.737059 1.27302 0
M  V30 4779 H 444.431 -3.82461 1.66672 0
M  V30 4780 H 443.061 -3.13854 0.754672 0
M  V30 4781 H 442.113 -2.30462 3.02641 0
M  V30 4782 H 443.425 -3.19357 3.83162 0
M  V30 4783 H 442.579 -5.3446 2.87119 0
M  V30 4784 H 441.318 -4.46504 1.96177 0
M  V30 4785 H 440.323 -3.64519 4.11589 0
M  V30 4786 H 441.548 -4.5581 5.03402 0
M  V30 4787 H 439.494 -5.76017 3.13912 0
M  V30 4788 H 439.411 -5.78234 4.87013 0
M  V30 4789 H 440.679 -6.65367 4.06087 0
M  V30 4790 N 444.908 -1.36708 -0.784132 0
M  V30 4791 C 446.154 -1.31426 -1.54451 0
M  V30 4792 C 446.487 0.10476 -1.93917 0
M  V30 4793 O 445.762 1.05934 -1.6312 0
M  V30 4794 C 446.045 -2.24189 -2.818 0
M  V30 4795 C 445.898 -3.74813 -2.48667 0
M  V30 4796 C 447.217 -2.15626 -3.83658 0
M  V30 4797 H 444.336 -0.478739 -0.560337 0
M  V30 4798 H 446.978 -1.67305 -0.900498 0
M  V30 4799 H 445.128 -1.93722 -3.36755 0
M  V30 4800 H 446.8 -4.15823 -1.99722 0
M  V30 4801 H 445.043 -3.93989 -1.81535 0
M  V30 4802 H 445.714 -4.35138 -3.39646 0
M  V30 4803 H 448.19 -2.42456 -3.38163 0
M  V30 4804 H 447.066 -2.82694 -4.70506 0
M  V30 4805 H 447.327 -1.14522 -4.27009 0
M  V30 4806 N 446.386 1.0089 -1.21074 0
M  V30 4807 C 447.316 2.1145 -0.990523 0
M  V30 4808 C 448.297 1.69897 0.0831699 0
M  V30 4809 O 449.482 1.94052 -0.0758853 0
M  V30 4810 C 446.612 3.42914 -0.550177 0
M  V30 4811 C 445.566 3.98244 -1.56799 0
M  V30 4812 C 444.892 5.25568 -0.984013 0
M  V30 4813 C 446.192 4.30752 -2.95381 0
M  V30 4814 H 447.886 2.3013 -1.91521 0
M  V30 4815 H 445.432 1.10592 -0.92225 0
M  V30 4816 H 447.385 4.19653 -0.383305 0
M  V30 4817 H 446.109 3.24014 0.41015 0
M  V30 4818 H 444.768 3.23621 -1.72236 0
M  V30 4819 H 444.416 5.02998 -0.0155216 0
M  V30 4820 H 444.116 5.63551 -1.66384 0
M  V30 4821 H 445.64 6.04955 -0.828378 0
M  V30 4822 H 447.054 4.98349 -2.8341 0
M  V30 4823 H 445.451 4.79869 -3.60341 0
M  V30 4824 H 446.521 3.39192 -3.46521 0
M  V30 4825 N 447.864 1.01787 1.20321 0
M  V30 4826 C 448.827 0.593972 2.2137 0
M  V30 4827 C 449.827 -0.336553 1.57239 0
M  V30 4828 O 451.017 -0.125069 1.7375 0
M  V30 4829 C 448.149 -0.132433 3.40643 0
M  V30 4830 H 449.342 1.48791 2.60387 0
M  V30 4831 H 446.895 0.807803 1.33807 0
M  V30 4832 H 447.63 -1.04123 3.0713 0
M  V30 4833 H 447.415 0.53605 3.88418 0
M  V30 4834 H 448.905 -0.416314 4.1552 0
M  V30 4835 N 449.342 -1.36122 0.79427 0
M  V30 4836 C 450.619 -1.93398 0.292685 0
M  V30 4837 C 450.999 -1.72567 -1.21589 0
M  V30 4838 O 450.347 -1.08745 -2.00965 0
M  V30 4839 C 450.557 -3.42099 0.690614 0
M  V30 4840 C 451.905 -4.19231 0.673105 0
M  V30 4841 O 452.929 -3.50559 0.631389 0
M  V30 4842 O 451.788 -5.41732 0.720362 0
M  V30 4843 H 448.882 -0.823712 0.0736693 0
M  V30 4844 H 451.428 -1.45273 0.87714 0
M  V30 4845 H 450.2 -3.50938 1.73085 0
M  V30 4846 H 449.823 -3.97519 0.0803036 0
M  V30 4847 N 450.82 -0.546701 -1.47814 0
M  V30 4848 C 451.75 0.195317 -2.32682 0
M  V30 4849 C 452.731 0.918981 -1.43139 0
M  V30 4850 O 453.916 0.901501 -1.72008 0
M  V30 4851 C 451.046 1.23237 -3.247 0
M  V30 4852 C 450 0.625818 -4.234 0
M  V30 4853 C 449.326 1.76674 -5.04669 0
M  V30 4854 C 450.626 -0.413515 -5.2066 0
M  V30 4855 H 452.32 -0.513184 -2.94969 0
M  V30 4856 H 449.866 -0.248241 -1.41844 0
M  V30 4857 H 451.819 1.75955 -3.82907 0
M  V30 4858 H 450.543 1.97067 -2.60446 0
M  V30 4859 H 449.202 0.120023 -3.66403 0
M  V30 4860 H 448.85 2.49383 -4.36826 0
M  V30 4861 H 448.55 1.36673 -5.71484 0
M  V30 4862 H 450.074 2.29738 -5.65732 0
M  V30 4863 H 451.488 0.0272042 -5.73294 0
M  V30 4864 H 449.885 -0.731825 -5.95621 0
M  V30 4865 H 450.955 -1.31325 -4.66778 0
M  V30 4866 N 452.299 1.55045 -0.282633 0
M  V30 4867 C 453.547 1.99365 0.331334 0
M  V30 4868 C 453.868 1.1725 1.55812 0
M  V30 4869 O 453.138 0.263871 1.94115 0
M  V30 4870 H 451.718 0.736397 0.125414 0
M  V30 4871 H 454.38 1.90964 -0.389711 0
M  V30 4872 H 453.476 3.0596 0.616036 0
M  V30 4873 N 453.777 0.010035 1.57597 0
M  V30 4874 C 455.023 -0.673697 1.91283 0
M  V30 4875 C 455.356 -1.72863 0.884979 0
M  V30 4876 O 454.631 -1.94268 -0.0949487 0
M  V30 4877 C 454.914 -1.30766 3.35518 0
M  V30 4878 C 454.767 -0.263578 4.49027 0
M  V30 4879 C 456.086 -2.23105 3.79358 0
M  V30 4880 H 453.205 -0.243439 0.695634 0
M  V30 4881 H 455.847 0.0633864 1.89894 0
M  V30 4882 H 453.997 -1.93588 3.36832 0
M  V30 4883 H 455.669 0.365738 4.59848 0
M  V30 4884 H 453.912 0.413077 4.31829 0
M  V30 4885 H 454.583 -0.746398 5.4693 0
M  V30 4886 H 457.059 -1.70289 3.79659 0
M  V30 4887 H 455.935 -2.64424 4.81011 0
M  V30 4888 H 456.196 -3.11433 3.13787 0
M  V30 4889 N 455.255 -1.55392 -0.262866 0
M  V30 4890 C 456.483 -1.80513 -1.01108 0
M  V30 4891 C 456.898 -0.583533 -1.79556 0
M  V30 4892 O 456.255 0.447585 -1.76926 0
M  V30 4893 C 456.306 -3.03648 -1.96164 0
M  V30 4894 O 456.027 -4.2109 -1.20893 0
M  V30 4895 C 457.528 -3.41448 -2.82715 0
M  V30 4896 H 454.748 -0.601079 -0.298236 0
M  V30 4897 H 457.292 -2.02425 -0.290582 0
M  V30 4898 H 455.447 -2.83832 -2.63663 0
M  V30 4899 H 455.861 -4.90771 -1.85051 0
M  V30 4900 H 457.335 -4.30751 -3.45192 0
M  V30 4901 H 457.812 -2.61308 -3.53008 0
M  V30 4902 H 458.418 -3.63559 -2.20693 0
M  V30 4903 N 456.733 0.527833 -1.48498 0
M  V30 4904 C 458.144 1.10975 -1.50138 0
M  V30 4905 C 458.495 1.943 -0.272378 0
M  V30 4906 O 457.62 2.07319 0.620301 0
M  V30 4907 C 458.215 2.01927 -2.72049 0
M  V30 4908 C 456.774 2.55332 -2.76554 0
M  V30 4909 C 455.921 1.32341 -2.43683 0
M  V30 4910 H 458.872 0.312986 -1.55583 0
M  V30 4911 H 458.893 2.86244 -2.50689 0
M  V30 4912 H 458.405 1.41254 -3.61481 0
M  V30 4913 H 456.506 3.19721 -1.91336 0
M  V30 4914 H 456.619 2.94319 -3.78038 0
M  V30 4915 H 454.983 1.63989 -1.94884 0
M  V30 4916 H 455.766 0.734165 -3.35358 0
M  V30 4917 N 458.211 1.37122 0.776871 0
M  V30 4918 C 459.488 1.22586 1.52421 0
M  V30 4919 C 459.868 -0.182726 2.10308 0
M  V30 4920 O 459.216 -1.18979 1.9508 0
M  V30 4921 C 459.426 2.31782 2.60918 0
M  V30 4922 C 460.774 2.69071 3.2846 0
M  V30 4923 O 461.798 2.3092 2.71209 0
M  V30 4924 O 460.657 3.3478 4.31954 0
M  V30 4925 H 457.751 0.478045 0.674835 0
M  V30 4926 H 460.297 1.48888 0.814275 0
M  V30 4927 H 459.069 3.26131 2.16227 0
M  V30 4928 H 458.692 2.06916 3.39517 0
M  V30 4929 N 459.689 -1.00246 1.21608 0
M  V30 4930 C 460.636 -2.09073 0.977613 0
M  V30 4931 C 461.606 -1.65815 -0.097297 0
M  V30 4932 O 462.791 -1.90734 0.0503445 0
M  V30 4933 C 459.931 -3.40671 0.551133 0
M  V30 4934 C 459.044 -3.97326 1.69576 0
M  V30 4935 C 458.179 -5.17043 1.2182 0
M  V30 4936 C 457.218 -5.65813 2.335 0
M  V30 4937 N 456.355 -6.76778 1.86859 0
M  V30 4938 H 461.195 -2.28806 1.90924 0
M  V30 4939 H 458.732 -1.12186 0.951452 0
M  V30 4940 H 460.69 -4.16225 0.285097 0
M  V30 4941 H 459.32 -3.20967 -0.343489 0
M  V30 4942 H 458.372 -3.18734 2.07637 0
M  V30 4943 H 459.684 -4.29511 2.53617 0
M  V30 4944 H 458.838 -5.99852 0.908975 0
M  V30 4945 H 457.577 -4.86458 0.347869 0
M  V30 4946 H 456.582 -4.81599 2.65222 0
M  V30 4947 H 457.807 -5.98427 3.21033 0
M  V30 4948 H 455.753 -6.47994 1.02174 0
M  V30 4949 H 455.67 -7.08231 2.64471 0
M  V30 4950 H 456.938 -7.63116 1.58978 0
M  V30 4951 N 461.167 -1.02423 -1.1978 0
M  V30 4952 C 462.416 -0.713265 -1.88667 0
M  V30 4953 C 462.729 0.7609 -1.80193 0
M  V30 4954 O 463.935 1.18473 -2.44288 0
M  V30 4955 C 462.391 -1.22545 -3.38394 0
M  V30 4956 C 461.999 -2.72706 -3.55437 0
M  V30 4957 C 463.743 -0.990257 -4.12788 0
M  V30 4958 C 461.65 -3.17367 -4.99031 0
M  V30 4959 H 460.58 -0.263105 -0.706606 0
M  V30 4960 H 463.231 -1.23792 -1.35454 0
M  V30 4961 H 461.613 -0.628732 -3.90977 0
M  V30 4962 H 462.787 -3.37993 -3.13205 0
M  V30 4963 H 461.102 -2.94453 -2.94425 0
M  V30 4964 H 463.699 -1.29926 -5.18675 0
M  V30 4965 H 464.042 0.0730761 -4.16236 0
M  V30 4966 H 464.575 -1.55074 -3.66329 0
M  V30 4967 H 461.314 -4.23009 -5.00743 0
M  V30 4968 H 460.834 -2.56805 -5.42044 0
M  V30 4969 H 462.513 -3.10441 -5.67658 0
M  V30 4970 N 462.645 1.35699 -0.801477 0
M  V30 4971 C 463.873 2.03157 -0.391768 0
M  V30 4972 C 464.288 1.60412 0.995668 0
M  V30 4973 O 463.645 0.799228 1.64069 0
M  V30 4974 C 463.696 3.58566 -0.459671 0
M  V30 4975 O 463.417 3.99756 -1.7924 0
M  V30 4976 C 464.918 4.4328 -0.0421205 0
M  V30 4977 H 462.138 0.651688 -0.159825 0
M  V30 4978 H 464.682 1.73426 -1.08368 0
M  V30 4979 H 462.837 3.86963 0.183939 0
M  V30 4980 H 463.251 4.94387 -1.75162 0
M  V30 4981 H 464.725 5.51821 -0.140754 0
M  V30 4982 H 465.202 4.27383 1.01196 0
M  V30 4983 H 465.808 4.20168 -0.658687 0
M  V30 4984 N 464.123 0.554532 1.47522 0
M  V30 4985 C 465.071 -0.207765 2.3167 0
M  V30 4986 C 466.065 -0.911914 1.4276 0
M  V30 4987 O 467.271 -0.833504 1.59539 0
M  V30 4988 H 463.646 -0.0858726 0.747081 0
M  V30 4989 H 465.617 0.521178 2.93813 0
M  V30 4990 C 464.366 -1.2263 3.25357 0
M  V30 4991 H 463.689 -0.693887 3.93732 0
M  V30 4992 H 465.129 -1.73062 3.87073 0
M  V30 4993 C 463.588 -2.27278 2.4869 0
M  V30 4994 O 464.118 -3.34156 2.22941 0
M  V30 4995 N 462.324 -2.01134 2.09746 0
M  V30 4996 H 461.871 -1.14232 2.30887 0
M  V30 4997 H 461.829 -2.71369 1.58765 0
M  V30 4998 N 465.601 -1.54893 0.290851 0
M  V30 4999 C 466.826 -2.04804 -0.32712 0
M  V30 5000 C 467.251 -1.16721 -1.47506 0
M  V30 5001 O 466.609 -0.169107 -1.8051 0
M  V30 5002 C 466.657 -3.52268 -0.770689 0
M  V30 5003 O 465.761 -3.67236 -1.87647 0
M  V30 5004 H 465.102 -0.660789 -0.0652227 0
M  V30 5005 H 467.632 -2.00036 0.429739 0
M  V30 5006 H 467.642 -3.9393 -1.06223 0
M  V30 5007 H 466.317 -4.15843 0.069096 0
M  V30 5008 H 464.894 -3.37479 -1.58626 0
M  V30 5009 N 467.08 -0.0183926 -1.57589 0
M  V30 5010 C 468.328 0.661253 -1.90976 0
M  V30 5011 C 468.649 1.73281 -0.894353 0
M  V30 5012 O 467.919 1.9579 0.0656788 0
M  V30 5013 H 466.499 0.247233 -0.704901 0
M  V30 5014 H 469.161 -0.0636639 -1.94796 0
M  V30 5015 H 468.257 1.12083 -2.9128 0
M  V30 5016 N 468.558 1.5553 0.254621 0
M  V30 5017 C 469.49 1.86104 1.33783 0
M  V30 5018 C 470.503 0.746752 1.44663 0
M  V30 5019 O 471.692 1.0248 1.46151 0
M  V30 5020 C 468.792 2.02532 2.71724 0
M  V30 5021 C 467.965 3.33335 2.83208 0
M  V30 5022 C 467.024 3.396 4.01943 0
M  V30 5023 O 466.05 4.12862 3.91834 0
M  V30 5024 N 467.252 2.68332 5.1476 0
M  V30 5025 H 470.017 2.79605 1.07893 0
M  V30 5026 H 467.578 1.55672 0.444732 0
M  V30 5027 H 469.57 2.04074 3.4948 0
M  V30 5028 H 468.14 1.15811 2.90356 0
M  V30 5029 H 467.36 3.44176 1.92189 0
M  V30 5030 H 468.648 4.19565 2.87824 0
M  V30 5031 H 468.046 2.08528 5.25864 0
M  V30 5032 H 466.603 2.75575 5.90679 0
M  V30 5033 N 470.036 -0.519951 1.48776 0
M  V30 5034 C 471.452 -0.849418 1.35119 0
M  V30 5035 C 471.652 -1.98077 0.36982 0
M  V30 5036 O 470.708 -2.51664 -0.205359 0
M  V30 5037 C 472.021 -1.20748 2.75391 0
M  V30 5038 C 473.569 -1.31679 2.83954 0
M  V30 5039 C 474.044 -1.70824 4.24951 0
M  V30 5040 N 475.535 -1.77908 4.27672 0
M  V30 5041 C 476.27 -2.09603 5.33717 0
M  V30 5042 N 475.766 -2.39652 6.5003 0
M  V30 5043 N 477.559 -2.10694 5.21119 0
M  V30 5044 H 469.71 0.226377 2.1119 0
M  V30 5045 H 471.973 0.0386519 0.947212 0
M  V30 5046 H 471.679 -0.449703 3.48813 0
M  V30 5047 H 471.553 -2.15534 3.09556 0
M  V30 5048 H 473.94 -2.06532 2.10781 0
M  V30 5049 H 474.021 -0.3499 2.53396 0
M  V30 5050 H 473.665 -0.965282 4.98643 0
M  V30 5051 H 473.595 -2.6858 4.52959 0
M  V30 5052 H 476.086 -1.56923 3.43779 0
M  V30 5053 H 476.399 -2.6297 7.26682 0
M  V30 5054 H 474.744 -2.37149 6.53288 0
M  V30 5055 H 477.935 -1.86682 4.29264 0
M  V30 5056 H 478.108 -2.35062 6.03863 0
M  V30 5057 N 471.514 -1.37532 -0.769588 0
M  V30 5058 C 472.93 -1.18379 -1.07045 0
M  V30 5059 C 473.13 -0.0214312 -2.01489 0
M  V30 5060 O 472.186 0.637809 -2.44312 0
M  V30 5061 C 473.499 -2.50338 -1.66588 0
M  V30 5062 C 475.047 -2.56879 -1.78835 0
M  V30 5063 C 475.522 -3.88974 -2.41792 0
M  V30 5064 N 477.013 -3.90428 -2.4924 0
M  V30 5065 C 477.748 -4.89388 -2.98809 0
M  V30 5066 N 477.244 -5.98745 -3.48535 0
M  V30 5067 N 479.037 -4.76791 -2.97703 0
M  V30 5068 H 471.188 -2.11921 -0.142541 0
M  V30 5069 H 473.451 -0.939608 -0.125863 0
M  V30 5070 H 473.157 -3.35767 -1.0466 0
M  V30 5071 H 473.031 -2.67583 -2.65856 0
M  V30 5072 H 475.418 -1.71856 -2.39895 0
M  V30 5073 H 475.499 -2.43516 -0.783166 0
M  V30 5074 H 475.143 -4.74412 -1.81371 0
M  V30 5075 H 475.073 -3.99641 -3.4292 0
M  V30 5076 H 477.564 -3.11433 -2.14052 0
M  V30 5077 H 477.877 -6.70205 -3.84767 0
M  V30 5078 H 476.222 -6.02387 -3.46634 0
M  V30 5079 H 479.413 -3.90478 -2.58157 0
M  V30 5080 H 479.586 -5.54069 -3.36024 0
M  V30 5081 N 472.992 0.995999 -1.22138 0
M  V30 5082 C 473.939 2.08551 -0.988687 0
M  V30 5083 C 474.909 1.65864 0.0885021 0
M  V30 5084 O 476.094 1.90704 -0.0604589 0
M  V30 5085 C 473.234 3.40374 -0.569191 0
M  V30 5086 C 472.347 3.96421 -1.71681 0
M  V30 5087 C 471.482 5.1639 -1.2456 0
M  V30 5088 C 470.521 5.64567 -2.36497 0
M  V30 5089 N 469.658 6.75777 -1.90445 0
M  V30 5090 H 474.498 2.2779 -1.92135 0
M  V30 5091 H 472.035 1.1168 -0.957388 0
M  V30 5092 H 473.993 4.16068 -0.307166 0
M  V30 5093 H 472.623 3.21145 0.326462 0
M  V30 5094 H 471.675 3.17628 -2.09324 0
M  V30 5095 H 472.987 4.2816 -2.55891 0
M  V30 5096 H 472.141 5.99362 -0.940774 0
M  V30 5097 H 470.88 4.86266 -0.373662 0
M  V30 5098 H 469.885 4.80185 -2.67772 0
M  V30 5099 H 471.11 5.96716 -3.24202 0
M  V30 5100 H 469.056 6.47443 -1.05609 0
M  V30 5101 H 468.973 7.06818 -2.68223 0
M  V30 5102 H 470.241 7.62262 -1.63022 0
M  V30 5103 N 474.47 1.03057 1.19235 0
M  V30 5104 C 475.417 0.612832 2.22515 0
M  V30 5105 C 476.387 -0.374224 1.61829 0
M  V30 5106 O 477.572 -0.270501 1.88873 0
M  V30 5107 C 474.712 -0.028475 3.45088 0
M  V30 5108 C 473.825 1.00483 4.20151 0
M  V30 5109 C 472.96 0.333102 5.30155 0
M  V30 5110 C 471.999 1.3522 5.96977 0
M  V30 5111 N 471.136 0.70616 6.9854 0
M  V30 5112 H 475.976 1.49812 2.57605 0
M  V30 5113 H 473.513 0.749658 1.26564 0
M  V30 5114 H 475.471 -0.417548 4.15105 0
M  V30 5115 H 474.101 -0.877334 3.10649 0
M  V30 5116 H 473.153 1.51194 3.49062 0
M  V30 5117 H 474.465 1.77929 4.65986 0
M  V30 5118 H 473.619 -0.110725 6.06599 0
M  V30 5119 H 472.358 -0.473547 4.85396 0
M  V30 5120 H 471.363 1.80627 5.19282 0
M  V30 5121 H 472.588 2.16037 6.4382 0
M  V30 5122 H 470.534 -0.0803667 6.55951 0
M  V30 5123 H 470.451 1.41848 7.42573 0
M  V30 5124 H 471.719 0.286391 7.78974 0
M  V30 5125 N 475.948 -1.35272 0.808662 0
M  V30 5126 C 476.878 -2.32315 0.234981 0
M  V30 5127 C 477.859 -1.57572 -0.64071 0
M  V30 5128 O 479.044 -1.8563 -0.570551 0
M  V30 5129 C 476.174 -3.41801 -0.615601 0
M  V30 5130 C 475.128 -4.27694 0.161767 0
M  V30 5131 C 474.454 -5.28519 -0.810649 0
M  V30 5132 C 475.754 -5.04231 1.36193 0
M  V30 5133 H 477.448 -2.80543 1.04575 0
M  V30 5134 H 474.994 -1.3488 0.504315 0
M  V30 5135 H 476.947 -4.08693 -1.02702 0
M  V30 5136 H 475.671 -2.92186 -1.45928 0
M  V30 5137 H 474.33 -3.62384 0.554382 0
M  V30 5138 H 473.978 -4.75171 -1.64988 0
M  V30 5139 H 473.678 -5.8686 -0.294822 0
M  V30 5140 H 475.202 -5.98283 -1.22023 0
M  V30 5141 H 476.616 -5.64058 1.02528 0
M  V30 5142 H 475.013 -5.72077 1.81239 0
M  V30 5143 H 476.083 -4.34753 2.14751 0
M  V30 5144 N 477.426 -0.562348 -1.47226 0
M  V30 5145 C 478.675 -0.038041 -2.01664 0
M  V30 5146 C 478.988 1.32199 -1.44162 0
M  V30 5147 O 480.194 1.9365 -1.90294 0
M  V30 5148 C 478.65 -0.0174958 -3.59896 0
M  V30 5149 C 478.258 -1.3746 -4.2639 0
M  V30 5150 C 480.002 0.453934 -4.22066 0
M  V30 5151 C 477.909 -1.31289 -5.76643 0
M  V30 5152 H 476.839 -0.0104511 -0.753928 0
M  V30 5153 H 479.49 -0.710966 -1.69167 0
M  V30 5154 H 477.872 0.721182 -3.89378 0
M  V30 5155 H 479.046 -2.1314 -4.08544 0
M  V30 5156 H 477.361 -1.78438 -3.7623 0
M  V30 5157 H 479.958 0.518584 -5.32179 0
M  V30 5158 H 480.301 1.46706 -3.89594 0
M  V30 5159 H 480.834 -0.230044 -3.97134 0
M  V30 5160 H 477.573 -2.30217 -6.13743 0
M  V30 5161 H 477.093 -0.597973 -5.96812 0
M  V30 5162 H 478.772 -1.01713 -6.38955 0
M  V30 5163 N 478.904 1.54736 -0.299062 0
M  V30 5164 C 479.867 2.22127 0.565012 0
M  V30 5165 C 480.867 1.20669 1.06281 0
M  V30 5166 O 482.057 1.45417 0.959145 0
M  V30 5167 C 479.189 2.90611 1.78208 0
M  V30 5168 H 480.382 2.99891 -0.0237448 0
M  V30 5169 H 477.935 1.5622 -0.0498788 0
M  V30 5170 H 478.67 2.16921 2.41072 0
M  V30 5171 H 478.455 3.64984 1.43281 0
M  V30 5172 H 479.945 3.42026 2.396 0
M  V30 5173 N 480.382 0.0267497 1.57577 0
M  V30 5174 C 481.63 -0.651116 1.91324 0
M  V30 5175 C 481.951 -1.72804 0.90353 0
M  V30 5176 O 481.221 -1.95822 -0.0552946 0
M  V30 5177 H 479.801 -0.243491 0.706202 0
M  V30 5178 H 482.463 0.0739935 1.94759 0
M  V30 5179 H 481.559 -1.10536 2.9187 0
M  V30 5180 N 481.861 -1.55662 -0.24637 0
M  V30 5181 C 482.824 -1.89558 -1.28842 0
M  V30 5182 C 483.824 -0.772082 -1.41052 0
M  V30 5183 O 485.014 -1.04007 -1.39743 0
M  V30 5184 C 482.146 -2.12449 -2.66605 0
M  V30 5185 H 483.339 -2.82735 -1.00004 0
M  V30 5186 H 480.892 -1.48562 -0.485684 0
M  V30 5187 H 481.627 -1.21742 -3.00582 0
M  V30 5188 H 481.412 -2.94273 -2.59125 0
M  V30 5189 H 482.902 -2.39854 -3.41847 0
M  V30 5190 N 483.339 0.512053 -1.4905 0
M  V30 5191 C 484.249 1.64139 -1.67617 0
M  V30 5192 C 485.265 1.64786 -0.558701 0
M  V30 5193 O 486.441 1.8341 -0.832034 0
M  V30 5194 C 483.506 3.00548 -1.72835 0
M  V30 5195 C 482.567 3.10615 -2.96339 0
M  V30 5196 C 481.8 4.40517 -3.01298 0
M  V30 5197 O 482.023 5.28671 -2.14157 0
M  V30 5198 O 480.957 4.55325 -3.93653 0
M  V30 5199 H 484.783 1.51407 -2.63267 0
M  V30 5200 H 482.368 0.687131 -1.32661 0
M  V30 5201 H 484.25 3.81641 -1.78683 0
M  V30 5202 H 482.925 3.13566 -0.803616 0
M  V30 5203 H 481.832 2.2875 -2.96014 0
M  V30 5204 H 483.165 3.0252 -3.88256 0
M  V30 5205 N 484.817 1.37938 0.762283 0
M  V30 5206 C 486.042 1.37059 1.55659 0
M  V30 5207 C 486.467 -0.0396123 1.88058 0
M  V30 5208 O 485.825 -1.01929 1.49934 0
M  V30 5209 C 485.873 2.22494 2.83776 0
M  V30 5210 O 484.977 1.63607 3.78559 0
M  V30 5211 H 484.318 0.467892 0.47114 0
M  V30 5212 H 486.848 1.81587 0.942725 0
M  V30 5213 H 486.858 2.36045 3.32786 0
M  V30 5214 H 485.533 3.24993 2.59524 0
M  V30 5215 H 484.11 1.5915 3.37233 0
M  V30 5216 N 486.295 -0.989507 1.22664 0
M  V30 5217 C 487.706 -1.54406 1.04955 0
M  V30 5218 C 488.057 -1.92366 -0.385951 0
M  V30 5219 O 487.182 -1.75111 -1.27142 0
M  V30 5220 C 487.777 -2.80578 1.89899 0
M  V30 5221 C 486.336 -3.32464 1.76478 0
M  V30 5222 C 485.483 -2.05524 1.86159 0
M  V30 5223 H 488.434 -0.810211 1.3646 0
M  V30 5224 H 488.455 -3.53075 1.4184 0
M  V30 5225 H 487.967 -2.52918 2.94371 0
M  V30 5226 H 486.068 -3.65024 0.747528 0
M  V30 5227 H 486.181 -4.02838 2.59342 0
M  V30 5228 H 484.545 -2.19241 1.29636 0
M  V30 5229 H 485.328 -1.80258 2.92168 0
M  V30 5230 N 487.773 -1.03688 -1.18687 0
M  V30 5231 C 488.705 -0.582696 -2.21669 0
M  V30 5232 C 489.718 0.345656 -1.59088 0
M  V30 5233 O 490.907 0.140776 -1.77944 0
M  V30 5234 C 488.007 0.169204 -3.38477 0
M  V30 5235 C 487.18 -0.766079 -4.30639 0
M  V30 5236 C 486.239 -0.0581541 -5.26168 0
M  V30 5237 O 485.265 -0.687346 -5.65035 0
M  V30 5238 N 486.467 1.20981 -5.67753 0
M  V30 5239 H 489.232 -1.46843 -2.61261 0
M  V30 5240 H 486.793 -0.916896 -1.33434 0
M  V30 5241 H 488.785 0.652543 -3.99405 0
M  V30 5242 H 487.355 0.956435 -2.97609 0
M  V30 5243 H 486.575 -1.42935 -3.67373 0
M  V30 5244 H 487.863 -1.40146 -4.89118 0
M  V30 5245 H 487.261 1.74159 -5.38224 0
M  V30 5246 H 485.818 1.6375 -6.30896 0
M  V30 5247 N 489.251 1.34841 -0.815825 0
M  V30 5248 C 490.662 1.80937 -0.46029 0
M  V30 5249 C 491.013 1.67685 1.01863 0
M  V30 5250 O 490.138 1.21277 1.79223 0
M  V30 5251 C 490.733 3.28509 -0.828708 0
M  V30 5252 C 489.292 3.72712 -0.525644 0
M  V30 5253 C 488.439 2.56676 -1.04941 0
M  V30 5254 H 491.39 1.22688 -1.00664 0
M  V30 5255 H 491.411 3.80279 -0.129757 0
M  V30 5256 H 490.923 3.38122 -1.90513 0
M  V30 5257 H 489.024 3.68642 0.541666 0
M  V30 5258 H 489.137 4.67119 -1.06474 0
M  V30 5259 H 487.501 2.50302 -0.471286 0
M  V30 5260 H 488.284 2.69063 -2.13214 0
M  V30 5261 N 490.729 0.570148 1.46925 0
M  V30 5262 C 491.692 -0.159933 2.28641 0
M  V30 5263 C 492.692 -0.830638 1.37685 0
M  V30 5264 O 493.882 -0.684516 1.60187 0
M  V30 5265 C 491.014 -1.2354 3.17727 0
M  V30 5266 H 492.207 0.558035 2.94662 0
M  V30 5267 H 489.76 0.327603 1.52828 0
M  V30 5268 H 490.495 -1.98535 2.56426 0
M  V30 5269 H 490.28 -0.759125 3.84681 0
M  V30 5270 H 491.77 -1.74782 3.79264 0
M  V30 5271 N 492.207 -1.54576 0.307264 0
M  V30 5272 C 493.432 -2.05139 -0.305379 0
M  V30 5273 C 493.857 -1.18278 -1.46259 0
M  V30 5274 O 493.215 -0.188243 -1.8032 0
M  V30 5275 C 493.263 -3.53066 -0.733283 0
M  V30 5276 O 492.367 -3.69206 -1.83741 0
M  V30 5277 H 491.708 -0.661444 -0.0582105 0
M  V30 5278 H 494.238 -1.99569 0.450931 0
M  V30 5279 H 494.248 -3.95034 -1.02039 0
M  V30 5280 H 492.923 -4.15746 0.113198 0
M  V30 5281 H 491.5 -3.39143 -1.55037 0
M  V30 5282 N 493.685 -0.035106 -1.57561 0
M  V30 5283 C 494.933 0.64096 -1.91667 0
M  V30 5284 C 495.254 1.72323 -0.912681 0
M  V30 5285 O 494.524 1.95849 0.0449089 0
M  V30 5286 H 493.104 0.239743 -0.707483 0
M  V30 5287 H 495.766 -0.084321 -1.94718 0
M  V30 5288 H 494.862 1.08987 -2.92452 0
M  V30 5289 N 495.163 1.55791 0.238111 0
M  V30 5290 C 496.388 1.8244 0.986432 0
M  V30 5291 C 496.813 0.613314 1.7782 0
M  V30 5292 O 496.171 -0.437767 1.75935 0
M  V30 5293 C 496.219 3.06917 1.893 0
M  V30 5294 O 495.323 2.84449 2.98601 0
M  V30 5295 H 494.664 0.601975 0.280218 0
M  V30 5296 H 497.194 2.02987 0.256437 0
M  V30 5297 H 497.204 3.36583 2.30598 0
M  V30 5298 H 495.879 3.947 1.31091 0
M  V30 5299 H 494.456 2.65972 2.61368 0
M  V30 5300 N 496.642 -0.504142 1.49319 0
M  V30 5301 C 497.867 -1.28729 1.62615 0
M  V30 5302 C 498.292 -1.85752 0.296309 0
M  V30 5303 O 497.65 -1.65704 -0.735649 0
M  V30 5304 C 497.698 -2.39561 2.69524 0
M  V30 5305 O 496.802 -3.43324 2.28478 0
M  V30 5306 H 496.143 -0.380172 0.544395 0
M  V30 5307 H 498.673 -0.603872 1.95485 0
M  V30 5308 H 498.683 -2.8537 2.91595 0
M  V30 5309 H 497.358 -1.97423 3.66056 0
M  V30 5310 H 495.935 -3.03455 2.16725 0
M  V30 5311 N 498.12 -1.38341 -0.754957 0
M  V30 5312 C 499.531 -1.30803 -1.3322 0
M  V30 5313 C 499.882 0.0368 -1.96165 0
M  V30 5314 O 499.007 0.938844 -1.94974 0
M  V30 5315 C 499.602 -2.3688 -2.42225 0
M  V30 5316 C 498.161 -2.32925 -2.95674 0
M  V30 5317 C 497.308 -2.19819 -1.69042 0
M  V30 5318 H 500.259 -1.48719 -0.553937 0
M  V30 5319 H 500.28 -2.02517 -3.22129 0
M  V30 5320 H 499.792 -3.34747 -1.96383 0
M  V30 5321 H 497.893 -1.38635 -3.45848 0
M  V30 5322 H 498.006 -3.27008 -3.50146 0
M  V30 5323 H 496.37 -1.66648 -1.92615 0
M  V30 5324 H 497.153 -3.19625 -1.25279 0
M  V30 5325 N 499.598 0.982988 -1.23187 0
M  V30 5326 C 500.823 1.76455 -1.08988 0
M  V30 5327 C 501.248 1.84726 0.354691 0
M  V30 5328 O 500.606 1.30699 1.25649 0
M  V30 5329 C 500.654 3.17094 -1.71708 0
M  V30 5330 O 499.758 4.00648 -0.977477 0
M  V30 5331 H 499.099 0.542988 -0.382177 0
M  V30 5332 H 501.629 1.23413 -1.63188 0
M  V30 5333 H 501.639 3.67684 -1.76841 0
M  V30 5334 H 500.314 3.10389 -2.76823 0
M  V30 5335 H 498.891 3.59161 -1.0029 0
M  V30 5336 N 501.076 1.04316 1.18135 0
M  V30 5337 C 501.986 0.646876 2.25505 0
M  V30 5338 C 503.002 -0.328008 1.7088 0
M  V30 5339 O 504.178 -0.182309 2.00573 0
M  V30 5340 C 501.243 0.0185664 3.46695 0
M  V30 5341 C 500.304 1.04277 4.16443 0
M  V30 5342 C 499.537 0.444352 5.31847 0
M  V30 5343 O 499.76 -0.748735 5.65465 0
M  V30 5344 O 498.694 1.17428 5.90334 0
M  V30 5345 H 502.52 1.54147 2.61672 0
M  V30 5346 H 500.105 0.814188 1.25265 0
M  V30 5347 H 501.987 -0.331068 4.20097 0
M  V30 5348 H 500.662 -0.849814 3.12346 0
M  V30 5349 H 499.569 1.44425 3.45098 0
M  V30 5350 H 500.902 1.882 4.54798 0
M  V30 5351 N 502.554 -1.34406 0.822964 0
M  V30 5352 C 503.464 -2.33298 0.246838 0
M  V30 5353 C 504.48 -1.62625 -0.618797 0
M  V30 5354 O 505.656 -1.94391 -0.526685 0
M  V30 5355 C 502.721 -3.41785 -0.581731 0
M  V30 5356 C 501.782 -4.28206 0.306309 0
M  V30 5357 C 501.015 -5.31512 -0.48281 0
M  V30 5358 O 501.238 -5.43973 -1.71607 0
M  V30 5359 O 500.172 -6.01749 0.134884 0
M  V30 5360 H 503.998 -2.84401 1.06534 0
M  V30 5361 H 501.583 -1.37466 0.585108 0
M  V30 5362 H 503.465 -4.08028 -1.05313 0
M  V30 5363 H 502.14 -2.92925 -1.37756 0
M  V30 5364 H 501.047 -3.64885 0.825199 0
M  V30 5365 H 502.38 -4.80507 1.06649 0
M  V30 5366 N 504.032 -0.577932 -1.46621 0
M  V30 5367 C 505.309 0.00495287 -1.95599 0
M  V30 5368 C 505.689 1.46428 -1.5206 0
M  V30 5369 O 505.037 2.1517 -0.769046 0
M  V30 5370 C 505.247 -0.162114 -3.48623 0
M  V30 5371 C 506.595 -0.0274623 -4.24591 0
M  V30 5372 O 507.619 -0.0907067 -3.56084 0
M  V30 5373 O 506.478 0.1122 -5.46385 0
M  V30 5374 H 503.572 0.0525057 -0.825332 0
M  V30 5375 H 506.118 -0.645914 -1.56927 0
M  V30 5376 H 504.89 -1.17679 -3.73185 0
M  V30 5377 H 504.513 0.525407 -3.94113 0
M  V30 5378 N 505.51 1.54411 -0.315457 0
M  V30 5379 C 506.926 1.59556 0.037464 0
M  V30 5380 C 507.126 1.33217 1.5118 0
M  V30 5381 O 506.182 1.11264 2.26664 0
M  V30 5382 C 507.495 2.98372 -0.373477 0
M  V30 5383 C 509.043 3.11324 -0.323452 0
M  V30 5384 C 509.518 4.52472 -0.709433 0
M  V30 5385 N 511.009 4.58437 -0.662524 0
M  V30 5386 C 511.744 5.65751 -0.933474 0
M  V30 5387 N 511.24 6.81039 -1.27114 0
M  V30 5388 N 513.033 5.55489 -0.859573 0
M  V30 5389 H 505.184 1.6979 -1.27614 0
M  V30 5390 H 507.447 0.793732 -0.518356 0
M  V30 5391 H 507.153 3.22618 -1.40037 0
M  V30 5392 H 507.027 3.76264 0.265615 0
M  V30 5393 H 509.414 2.86818 0.694223 0
M  V30 5394 H 509.495 2.35555 -0.997367 0
M  V30 5395 H 509.139 4.7771 -1.72498 0
M  V30 5396 H 509.069 5.26598 -0.0132923 0
M  V30 5397 H 511.56 3.75636 -0.413065 0
M  V30 5398 H 511.873 7.58816 -1.46348 0
M  V30 5399 H 510.218 6.82555 -1.30932 0
M  V30 5400 H 513.409 4.64299 -0.595324 0
M  V30 5401 H 513.582 6.39036 -1.0741 0
M  V30 5402 N 506.988 0.0434614 1.5754 0
M  V30 5403 C 508.213 -0.645358 1.97104 0
M  V30 5404 C 508.638 -1.64037 0.920521 0
M  V30 5405 O 507.996 -1.80922 -0.11708 0
M  V30 5406 C 508.044 -1.31547 3.35749 0
M  V30 5407 O 507.148 -2.43103 3.33129 0
M  V30 5408 H 506.489 -0.168403 0.64229 0
M  V30 5409 H 509.019 0.109573 2.04306 0
M  V30 5410 H 509.029 -1.66895 3.72304 0
M  V30 5411 H 507.704 -0.586205 4.11748 0
M  V30 5412 H 506.281 -2.0976 3.0831 0
M  V30 5413 N 508.466 -1.55915 -0.229846 0
M  V30 5414 C 509.413 -1.91734 -1.28478 0
M  V30 5415 C 510.383 -0.773539 -1.46988 0
M  V30 5416 O 511.568 -1.02871 -1.60693 0
M  V30 5417 C 508.708 -2.23224 -2.63182 0
M  V30 5418 C 507.821 -3.50497 -2.52539 0
M  V30 5419 C 506.956 -3.71474 -3.79711 0
M  V30 5420 C 505.995 -4.92289 -3.63755 0
M  V30 5421 N 505.132 -5.09698 -4.82858 0
M  V30 5422 H 509.972 -2.81692 -0.972308 0
M  V30 5423 H 507.509 -1.39429 -0.468815 0
M  V30 5424 H 509.467 -2.3949 -3.41614 0
M  V30 5425 H 508.097 -1.36451 -2.92542 0
M  V30 5426 H 507.149 -3.4247 -1.65585 0
M  V30 5427 H 508.461 -4.39079 -2.36666 0
M  V30 5428 H 507.615 -3.87791 -4.66586 0
M  V30 5429 H 506.354 -2.81157 -3.985 0
M  V30 5430 H 505.359 -4.7593 -2.75264 0
M  V30 5431 H 506.584 -5.84083 -3.46445 0
M  V30 5432 H 504.53 -4.22322 -5.01976 0
M  V30 5433 H 504.447 -5.92399 -4.69681 0
M  V30 5434 H 505.715 -5.30443 -5.71183 0
M  V30 5435 N 509.944 0.496216 -1.49584 0
M  V30 5436 C 511.169 1.27865 -1.63295 0
M  V30 5437 C 511.594 1.85592 -0.306156 0
M  V30 5438 O 510.952 1.66092 0.726851 0
M  V30 5439 C 511 2.38128 -2.7079 0
M  V30 5440 O 510.104 3.42108 -2.30296 0
M  V30 5441 H 509.445 0.377279 -0.546403 0
M  V30 5442 H 511.975 0.593497 -1.95803 0
M  V30 5443 H 511.985 2.8382 -2.93104 0
M  V30 5444 H 510.66 1.95479 -3.67098 0
M  V30 5445 H 509.237 3.02301 -2.18331 0
M  V30 5446 N 511.423 1.38739 0.74761 0
M  V30 5447 C 512.386 1.36241 1.84312 0
M  V30 5448 C 513.386 0.261811 1.58654 0
M  V30 5449 O 514.576 0.519031 1.66288 0
M  V30 5450 C 511.708 1.12253 3.21888 0
M  V30 5451 H 512.901 2.33712 1.87933 0
M  V30 5452 H 510.454 1.2412 0.949946 0
M  V30 5453 H 511.189 0.154133 3.23934 0
M  V30 5454 H 510.974 1.91943 3.41907 0
M  V30 5455 H 512.464 1.13215 4.0196 0
M  V30 5456 N 512.901 -0.976442 1.23707 0
M  V30 5457 C 514.312 -1.53284 1.06587 0
M  V30 5458 C 514.663 -1.92765 -0.365526 0
M  V30 5459 O 513.788 -1.7645 -1.25277 0
M  V30 5460 C 514.383 -2.78548 1.92864 0
M  V30 5461 C 512.942 -3.30574 1.79994 0
M  V30 5462 C 512.089 -2.03538 1.88328 0
M  V30 5463 H 515.04 -0.795692 1.37311 0
M  V30 5464 H 515.061 -3.5155 1.45577 0
M  V30 5465 H 514.573 -2.49782 2.97037 0
M  V30 5466 H 512.674 -3.64211 0.786202 0
M  V30 5467 H 512.787 -4.00065 2.636 0
M  V30 5468 H 511.151 -2.17853 1.31954 0
M  V30 5469 H 511.934 -1.77149 2.94063 0
M  V30 5470 N 514.379 -1.04941 -1.1758 0
M  V30 5471 C 515.607 -0.778294 -1.91703 0
M  V30 5472 C 516.022 0.665697 -1.76675 0
M  V30 5473 O 515.379 1.45456 -1.10222 0
M  V30 5474 C 515.43 -1.14628 -3.42845 0
M  V30 5475 O 515.151 -2.53359 -3.57409 0
M  V30 5476 C 516.652 -0.900931 -4.34049 0
M  V30 5477 H 513.872 -0.283167 -0.608323 0
M  V30 5478 H 516.416 -1.39942 -1.49119 0
M  V30 5479 H 514.571 -0.569953 -3.83184 0
M  V30 5480 H 514.985 -2.67709 -4.51035 0
M  V30 5481 H 516.459 -1.20817 -5.38616 0
M  V30 5482 H 516.936 0.163966 -4.38894 0
M  V30 5483 H 517.542 -1.46097 -3.99419 0
M  V30 5484 N 515.857 1.33968 -0.830081 0
M  V30 5485 C 517.082 2.02813 -0.433796 0
M  V30 5486 C 517.507 1.62076 0.954614 0
M  V30 5487 O 516.865 0.808955 1.62252 0
M  V30 5488 C 516.913 3.56348 -0.552115 0
M  V30 5489 O 516.017 4.10202 0.425191 0
M  V30 5490 H 515.358 0.639817 -0.177567 0
M  V30 5491 H 517.888 1.7106 -1.12248 0
M  V30 5492 H 517.898 4.05722 -0.430513 0
M  V30 5493 H 516.573 3.85344 -1.56471 0
M  V30 5494 H 515.15 3.71979 0.261878 0
M  V30 5495 N 517.335 0.585699 1.46312 0
M  V30 5496 C 518.746 0.159938 1.86014 0
M  V30 5497 C 519.097 -1.27775 1.48889 0
M  V30 5498 O 518.222 -1.96559 0.90519 0
M  V30 5499 C 518.817 0.283485 3.37612 0
M  V30 5500 C 517.376 -0.0874256 3.76298 0
M  V30 5501 C 516.523 0.618055 2.70325 0
M  V30 5502 H 519.474 0.793737 1.37425 0
M  V30 5503 H 519.495 -0.490348 3.77327 0
M  V30 5504 H 519.007 1.32995 3.64601 0
M  V30 5505 H 517.108 -1.13391 3.54927 0
M  V30 5506 H 517.221 0.290975 4.78216 0
M  V30 5507 H 515.585 0.057993 2.54634 0
M  V30 5508 H 516.368 1.66623 3.00153 0
M  V30 5509 N 518.813 -1.54241 0.323641 0
M  V30 5510 C 520.053 -2.0248 -0.279502 0
M  V30 5511 C 520.417 -1.20672 -1.49339 0
M  V30 5512 O 521.618 -1.58715 -2.1694 0
M  V30 5513 C 519.889 -3.52238 -0.605266 0
M  V30 5514 S 521.448 -4.22411 -1.18805 0
M  V30 5515 H 518.266 -0.705957 -0.0845313 0
M  V30 5516 H 520.868 -1.90089 0.456781 0
M  V30 5517 H 519.572 -4.094 0.286339 0
M  V30 5518 H 519.103 -3.6871 -1.37174 0
M  V30 5519 H 521.118 -4.30075 -2.47487 0
M  V30 5520 N 520.291 -0.0518155 -1.57515 0
M  V30 5521 C 521.568 0.661727 -1.84067 0
M  V30 5522 C 521.948 1.88999 -0.940351 0
M  V30 5523 O 521.296 2.285 -0.00155404 0
M  V30 5524 C 521.506 1.01841 -3.3381 0
M  V30 5525 C 522.854 1.40043 -4.00841 0
M  V30 5526 O 523.878 1.11073 -3.38439 0
M  V30 5527 O 522.737 1.94111 -5.10865 0
M  V30 5528 H 519.831 0.326702 -0.759733 0
M  V30 5529 H 522.377 -0.0812277 -1.69505 0
M  V30 5530 H 521.149 0.145202 -3.91031 0
M  V30 5531 H 520.772 1.81879 -3.53562 0
M  V30 5532 N 521.769 1.56035 0.221574 0
M  V30 5533 C 522.701 1.889 1.29805 0
M  V30 5534 C 523.714 0.777269 1.43047 0
M  V30 5535 O 524.903 1.05557 1.43945 0
M  V30 5536 C 522.003 2.0825 2.67367 0
M  V30 5537 C 521.176 3.39267 2.76073 0
M  V30 5538 C 520.235 3.48049 3.94649 0
M  V30 5539 O 519.261 4.2108 3.82988 0
M  V30 5540 N 520.463 2.79191 5.08953 0
M  V30 5541 H 523.228 2.81831 1.01938 0
M  V30 5542 H 520.789 1.5658 0.411612 0
M  V30 5543 H 522.781 2.11441 3.45072 0
M  V30 5544 H 521.351 1.21944 2.87834 0
M  V30 5545 H 520.571 3.48175 1.84846 0
M  V30 5546 H 521.859 4.25575 2.7886 0
M  V30 5547 H 521.257 2.19635 5.21322 0
M  V30 5548 H 519.814 2.88043 5.84701 0
M  V30 5549 N 523.247 -0.488276 1.49845 0
M  V30 5550 C 524.157 -1.61451 1.70207 0
M  V30 5551 C 525.173 -1.63877 0.584846 0
M  V30 5552 O 526.349 -1.82063 0.861107 0
M  V30 5553 C 523.414 -2.9776 1.77594 0
M  V30 5554 C 522.475 -3.05861 3.01243 0
M  V30 5555 C 521.708 -4.35668 3.08268 0
M  V30 5556 O 521.931 -5.25197 2.22541 0
M  V30 5557 O 520.865 -4.49005 4.00847 0
M  V30 5558 H 524.691 -1.47199 2.65643 0
M  V30 5559 H 522.276 -0.665939 1.33737 0
M  V30 5560 H 524.158 -3.7875 1.84732 0
M  V30 5561 H 522.833 -3.12248 0.8534 0
M  V30 5562 H 521.74 -2.24012 2.99616 0
M  V30 5563 H 523.073 -2.96304 3.9302 0
M  V30 5564 N 524.725 -1.39134 -0.740242 0
M  V30 5565 C 525.974 -1.35384 -1.49512 0
M  V30 5566 C 526.287 0.04919 -1.95538 0
M  V30 5567 O 527.493 0.209257 -2.70692 0
M  V30 5568 C 525.949 -2.37812 -2.70136 0
M  V30 5569 C 525.557 -3.83804 -2.31081 0
M  V30 5570 C 527.301 -2.4313 -3.47977 0
M  V30 5571 C 525.208 -4.77886 -3.48395 0
M  V30 5572 H 524.138 -0.503297 -0.561434 0
M  V30 5573 H 526.789 -1.64754 -0.807974 0
M  V30 5574 H 525.171 -2.01505 -3.40899 0
M  V30 5575 H 526.345 -4.29123 -1.67898 0
M  V30 5576 H 524.66 -3.81732 -1.66343 0
M  V30 5577 H 527.257 -3.10614 -4.35228 0
M  V30 5578 H 527.6 -1.45423 -3.90074 0
M  V30 5579 H 528.133 -2.78304 -2.84239 0
M  V30 5580 H 524.872 -5.76836 -3.11353 0
M  V30 5581 H 524.392 -4.3725 -4.10576 0
M  V30 5582 H 526.071 -4.96538 -4.148 0
M  V30 5583 N 526.204 0.969867 -1.24223 0
M  V30 5584 C 527.151 2.06407 -1.0327 0
M  V30 5585 C 528.121 1.66014 0.0533 0
M  V30 5586 O 529.306 1.90533 -0.100896 0
M  V30 5587 C 526.446 3.3909 -0.641262 0
M  V30 5588 C 525.559 3.9269 -1.80051 0
M  V30 5589 C 524.694 5.13631 -1.35486 0
M  V30 5590 C 523.733 5.59423 -2.48419 0
M  V30 5591 N 522.87 6.71586 -2.04737 0
M  V30 5592 H 527.71 2.23663 -1.96923 0
M  V30 5593 H 525.247 1.09624 -0.980862 0
M  V30 5594 H 527.205 4.15323 -0.395351 0
M  V30 5595 H 525.835 3.21765 0.258269 0
M  V30 5596 H 524.887 3.13116 -2.16014 0
M  V30 5597 H 526.199 4.22636 -2.64916 0
M  V30 5598 H 525.353 5.97231 -1.0677 0
M  V30 5599 H 524.092 4.85364 -0.476722 0
M  V30 5600 H 523.097 4.74398 -2.77897 0
M  V30 5601 H 524.322 5.89705 -3.36786 0
M  V30 5602 H 522.268 6.45058 -1.19318 0
M  V30 5603 H 522.185 7.0097 -2.83156 0
M  V30 5604 H 523.453 7.58633 -1.79154 0
M  V30 5605 N 527.682 1.05563 1.17022 0
M  V30 5606 C 528.592 0.670758 2.24807 0
M  V30 5607 C 529.608 -0.309865 1.71219 0
M  V30 5608 O 530.784 -0.161025 2.00755 0
M  V30 5609 C 527.849 0.055337 3.46656 0
M  V30 5610 C 526.91 1.08688 4.15314 0
M  V30 5611 C 526.143 0.500736 5.31346 0
M  V30 5612 O 526.366 -0.688718 5.66227 0
M  V30 5613 O 525.3 1.23683 5.89055 0
M  V30 5614 H 529.126 1.56914 2.60023 0
M  V30 5615 H 526.711 0.827428 1.24395 0
M  V30 5616 H 528.593 -0.286492 4.20425 0
M  V30 5617 H 527.268 -0.816638 3.13229 0
M  V30 5618 H 526.175 1.48077 3.43546 0
M  V30 5619 H 527.508 1.93014 4.52777 0
M  V30 5620 N 529.16 -1.33526 0.837174 0
M  V30 5621 C 530.09 -2.31764 0.284206 0
M  V30 5622 C 531.071 -1.58896 -0.607142 0
M  V30 5623 O 532.256 -1.86798 -0.531047 0
M  V30 5624 C 529.386 -3.43029 -0.542962 0
M  V30 5625 C 528.34 -4.27255 0.252451 0
M  V30 5626 C 527.666 -5.3012 -0.69836 0
M  V30 5627 C 528.966 -5.01229 1.46858 0
M  V30 5628 H 530.66 -2.78262 1.10502 0
M  V30 5629 H 528.206 -1.3378 0.532812 0
M  V30 5630 H 530.159 -4.1078 -0.940096 0
M  V30 5631 H 528.883 -2.95216 -1.39697 0
M  V30 5632 H 527.542 -3.61127 0.631124 0
M  V30 5633 H 527.19 -4.78564 -1.54872 0
M  V30 5634 H 526.89 -5.87353 -0.170274 0
M  V30 5635 H 528.414 -6.00737 -1.09305 0
M  V30 5636 H 529.828 -5.61756 1.14469 0
M  V30 5637 H 528.225 -5.68104 1.93333 0
M  V30 5638 H 529.295 -4.301 2.23924 0
M  V30 5639 N 530.638 -0.59345 -1.46 0
M  V30 5640 C 531.548 0.135817 -2.34207 0
M  V30 5641 C 532.564 0.875008 -1.50398 0
M  V30 5642 O 533.74 0.835778 -1.83239 0
M  V30 5643 C 530.805 1.12977 -3.27776 0
M  V30 5644 C 529.866 0.394081 -4.27487 0
M  V30 5645 C 529.099 1.34068 -5.16586 0
M  V30 5646 O 529.322 2.5778 -5.08828 0
M  V30 5647 O 528.256 0.845426 -5.95933 0
M  V30 5648 H 532.082 -0.588691 -2.9794 0
M  V30 5649 H 529.667 -0.353784 -1.45151 0
M  V30 5650 H 531.549 1.70261 -3.85473 0
M  V30 5651 H 530.224 1.83556 -2.66625 0
M  V30 5652 H 529.131 -0.220869 -3.73447 0
M  V30 5653 H 530.464 -0.270939 -4.91454 0
M  V30 5654 N 532.116 1.54067 -0.331816 0
M  V30 5655 C 533.064 2.26105 0.54582 0
M  V30 5656 C 534.058 1.27816 1.11173 0
M  V30 5657 O 535.264 1.45565 1.05882 0
M  V30 5658 H 531.639 0.726363 0.194683 0
M  V30 5659 H 533.61 2.98282 -0.083931 0
M  V30 5660 C 532.359 3.03814 1.69092 0
M  V30 5661 H 531.682 3.79269 1.26473 0
M  V30 5662 H 533.122 3.57453 2.28043 0
M  V30 5663 C 531.581 2.12606 2.61343 0
M  V30 5664 O 532.111 1.71437 3.6328 0
M  V30 5665 N 530.317 1.77925 2.29763 0
M  V30 5666 H 529.864 2.11602 1.46909 0
M  V30 5667 H 529.822 1.1718 2.91747 0
M  V30 5668 N 533.594 0.0601682 1.57485 0
M  V30 5669 C 534.542 -0.928899 2.13247 0
M  V30 5670 C 535.536 -1.31616 1.06647 0
M  V30 5671 O 536.742 -1.29476 1.25043 0
M  V30 5672 H 533.117 -0.317455 0.681708 0
M  V30 5673 H 535.088 -0.433566 2.95233 0
M  V30 5674 C 533.837 -2.19121 2.69965 0
M  V30 5675 H 533.16 -1.90204 3.51657 0
M  V30 5676 H 534.6 -2.86465 3.12592 0
M  V30 5677 C 533.059 -2.94195 1.64168 0
M  V30 5678 O 533.589 -3.87468 1.05978 0
M  V30 5679 N 531.795 -2.57089 1.35476 0
M  V30 5680 H 531.342 -1.81314 1.82984 0
M  V30 5681 H 531.3 -3.07624 0.649196 0
M  V30 5682 N 535.072 -1.5615 -0.213296 0
M  V30 5683 C 536.321 -1.78743 -0.93455 0
M  V30 5684 C 536.634 -0.630199 -1.8517 0
M  V30 5685 O 537.84 -0.739966 -2.61222 0
M  V30 5686 C 536.296 -3.16571 -1.71203 0
M  V30 5687 C 535.904 -4.40043 -0.840617 0
M  V30 5688 C 537.648 -3.48485 -2.42401 0
M  V30 5689 C 535.555 -5.68895 -1.61592 0
M  V30 5690 H 534.485 -0.666426 -0.352692 0
M  V30 5691 H 537.136 -1.82532 -0.188227 0
M  V30 5692 H 535.518 -3.06981 -2.50157 0
M  V30 5693 H 536.692 -4.6071 -0.0910326 0
M  V30 5694 H 535.007 -4.15706 -0.240365 0
M  V30 5695 H 537.604 -4.41983 -3.00924 0
M  V30 5696 H 537.947 -2.71371 -3.15695 0
M  V30 5697 H 538.48 -3.59442 -1.7043 0
M  V30 5698 H 535.219 -6.48925 -0.926106 0
M  V30 5699 H 534.739 -5.52275 -2.33991 0
M  V30 5700 H 536.418 -6.09365 -2.17447 0
M  V30 5701 N 536.55 0.480323 -1.50102 0
M  V30 5702 C 537.966 0.813295 -1.37323 0
M  V30 5703 C 538.166 1.97027 -0.422206 0
M  V30 5704 O 537.222 2.5212 0.138563 0
M  V30 5705 C 538.535 1.13404 -2.78496 0
M  V30 5706 C 540.083 1.24104 -2.87345 0
M  V30 5707 C 540.558 1.59497 -4.29331 0
M  V30 5708 N 542.049 1.66507 -4.32238 0
M  V30 5709 C 542.784 1.95378 -5.39087 0
M  V30 5710 N 542.28 2.22333 -6.56155 0
M  V30 5711 N 544.073 1.96803 -5.26522 0
M  V30 5712 H 536.224 -0.282291 -2.10516 0
M  V30 5713 H 538.487 -0.063752 -0.945854 0
M  V30 5714 H 538.193 0.357064 -3.49883 0
M  V30 5715 H 538.067 2.07251 -3.15162 0
M  V30 5716 H 540.454 2.00871 -2.16183 0
M  V30 5717 H 540.535 0.282593 -2.54234 0
M  V30 5718 H 540.179 0.832736 -5.01027 0
M  V30 5719 H 540.109 2.56477 -4.59921 0
M  V30 5720 H 542.6 1.47753 -3.47818 0
M  V30 5721 H 542.913 2.43611 -7.33399 0
M  V30 5722 H 541.258 2.19745 -6.59346 0
M  V30 5723 H 544.449 1.75235 -4.34062 0
M  V30 5724 H 544.622 2.18969 -6.09883 0
M  V30 5725 N 538.028 1.39524 0.732853 0
M  V30 5726 C 538.975 1.38416 1.84688 0
M  V30 5727 C 539.945 0.243539 1.64305 0
M  V30 5728 O 541.13 0.438979 1.85681 0
M  V30 5729 C 538.27 1.23555 3.22224 0
M  V30 5730 C 537.383 2.47179 3.54298 0
M  V30 5731 C 536.518 2.2489 4.81246 0
M  V30 5732 C 535.557 3.44178 5.0617 0
M  V30 5733 N 534.694 3.21192 6.24323 0
M  V30 5734 H 539.534 2.33645 1.84971 0
M  V30 5735 H 537.071 1.16059 0.903804 0
M  V30 5736 H 539.029 1.12949 4.0162 0
M  V30 5737 H 537.659 0.31954 3.21215 0
M  V30 5738 H 536.711 2.68379 2.69587 0
M  V30 5739 H 538.023 3.36022 3.68633 0
M  V30 5740 H 537.177 2.11538 5.68627 0
M  V30 5741 H 535.916 1.33443 4.69089 0
M  V30 5742 H 534.921 3.58025 4.17251 0
M  V30 5743 H 536.146 4.36528 5.20212 0
M  V30 5744 H 534.092 2.32413 6.1345 0
M  V30 5745 H 534.009 4.03594 6.39256 0
M  V30 5746 H 535.277 3.1154 7.14537 0
M  V30 5747 N 539.506 -0.963266 1.24736 0
M  V30 5748 C 540.469 -2.04013 1.04457 0
M  V30 5749 C 541.469 -1.608 0.000335555 0
M  V30 5750 O 542.659 -1.72515 0.241719 0
M  V30 5751 C 539.791 -3.35858 0.584162 0
M  V30 5752 H 540.984 -2.23436 2.00041 0
M  V30 5753 H 538.537 -1.13914 1.07021 0
M  V30 5754 H 539.272 -3.22128 -0.374673 0
M  V30 5755 H 539.057 -3.68568 1.3379 0
M  V30 5756 H 540.547 -4.1502 0.463451 0
M  V30 5757 N 540.985 -1.06182 -1.16461 0
M  V30 5758 C 541.915 -0.692861 -2.22984 0
M  V30 5759 C 542.896 0.314122 -1.67174 0
M  V30 5760 O 544.081 0.189499 -1.93273 0
M  V30 5761 C 541.211 -0.07732 -3.47214 0
M  V30 5762 C 540.165 -1.01015 -4.15909 0
M  V30 5763 C 539.491 -0.257973 -5.34077 0
M  V30 5764 C 540.791 -2.33868 -4.67015 0
M  V30 5765 H 542.485 -1.58343 -2.54102 0
M  V30 5766 H 540.031 -0.76279 -1.22137 0
M  V30 5767 H 541.984 0.19266 -4.20959 0
M  V30 5768 H 540.708 0.848254 -3.15392 0
M  V30 5769 H 539.367 -1.26486 -3.44088 0
M  V30 5770 H 539.015 0.670684 -4.98509 0
M  V30 5771 H 538.715 -0.879638 -5.80979 0
M  V30 5772 H 540.239 0.00448788 -6.106 0
M  V30 5773 H 541.653 -2.1279 -5.32347 0
M  V30 5774 H 540.05 -2.91522 -5.24533 0
M  V30 5775 H 541.12 -2.97019 -3.83286 0
M  V30 5776 N 542.463 1.3308 -0.844243 0
M  V30 5777 C 543.688 2.02341 -0.455282 0
M  V30 5778 C 544.113 1.6308 0.93737 0
M  V30 5779 O 543.471 0.826118 1.61385 0
M  V30 5780 C 543.519 3.55743 -0.58988 0
M  V30 5781 O 542.623 4.1063 0.38166 0
M  V30 5782 H 541.964 0.637898 -0.184343 0
M  V30 5783 H 544.494 1.6986 -1.14056 0
M  V30 5784 H 544.504 4.05243 -0.473522 0
M  V30 5785 H 543.179 3.83662 -1.60549 0
M  V30 5786 H 541.756 3.72236 0.22241 0
M  V30 5787 N 543.941 0.601185 1.45683 0
M  V30 5788 C 545.188 0.0938811 2.02282 0
M  V30 5789 C 545.516 -1.27315 1.47041 0
M  V30 5790 O 544.771 -1.85193 0.632623 0
M  V30 5791 C 545.07 -0.00222425 3.574 0
M  V30 5792 C 544.736 1.29963 4.31764 0
M  V30 5793 C 543.398 1.65625 4.51798 0
M  V30 5794 C 545.75 2.1603 4.74321 0
M  V30 5795 C 543.078 2.87119 5.11644 0
M  V30 5796 C 545.43 3.36766 5.3551 0
M  V30 5797 C 544.094 3.72689 5.53768 0
M  V30 5798 H 543.364 0.0343535 0.740203 0
M  V30 5799 H 546.011 0.781522 1.74827 0
M  V30 5800 H 544.316 -0.773096 3.84097 0
M  V30 5801 H 546.013 -0.410794 3.9889 0
M  V30 5802 H 542.603 1.01204 4.1648 0
M  V30 5803 H 546.787 1.89778 4.58582 0
M  V30 5804 H 542.043 3.15065 5.2397 0
M  V30 5805 H 546.217 4.03713 5.67441 0
M  V30 5806 H 543.844 4.66918 5.99909 0
M  V30 5807 N 545.419 -1.53889 0.339982 0
M  V30 5808 C 546.696 -1.93084 -0.312719 0
M  V30 5809 C 547.076 -1.2712 -1.68534 0
M  V30 5810 O 546.424 -0.420835 -2.24591 0
M  V30 5811 C 546.634 -3.4683 -0.388558 0
M  V30 5812 C 547.982 -4.19732 -0.641088 0
M  V30 5813 O 549.006 -3.53075 -0.470818 0
M  V30 5814 O 547.865 -5.3781 -0.970685 0
M  V30 5815 H 544.959 -0.806784 -0.18174 0
M  V30 5816 H 547.505 -1.65137 0.390898 0
M  V30 5817 H 546.277 -3.87055 0.574821 0
M  V30 5818 H 545.9 -3.80933 -1.1391 0
M  V30 5819 N 546.897 -0.0685191 -1.57451 0
M  V30 5820 C 547.845 0.917577 -2.13736 0
M  V30 5821 C 548.839 1.31049 -1.07344 0
M  V30 5822 O 550.045 1.28811 -1.25728 0
M  V30 5823 H 546.42 0.313835 -0.683382 0
M  V30 5824 H 548.391 0.417903 -2.95459 0
M  V30 5825 C 547.14 2.17686 -2.71123 0
M  V30 5826 H 546.463 1.88336 -3.52661 0
M  V30 5827 H 547.903 2.84803 -3.14107 0
M  V30 5828 C 546.362 2.9332 -1.65726 0
M  V30 5829 O 546.892 3.86901 -1.08031 0
M  V30 5830 N 545.098 2.56367 -1.36837 0
M  V30 5831 H 544.645 1.80341 -1.83943 0
M  V30 5832 H 544.603 3.07276 -0.665501 0
M  V30 5833 N 548.375 1.56261 0.205012 0
M  V30 5834 C 549.791 1.49623 0.555433 0
M  V30 5835 C 549.991 0.766719 1.86343 0
M  V30 5836 O 549.047 0.313158 2.50551 0
M  V30 5837 C 550.36 2.94253 0.619347 0
M  V30 5838 C 551.908 3.04868 0.708855 0
M  V30 5839 C 552.383 4.50888 0.803969 0
M  V30 5840 N 553.874 4.54999 0.867758 0
M  V30 5841 C 554.609 5.65284 0.96135 0
M  V30 5842 N 554.105 6.85282 1.01786 0
M  V30 5843 N 555.898 5.53174 0.997771 0
M  V30 5844 H 548.049 2.0211 -0.653094 0
M  V30 5845 H 550.312 0.919333 -0.231366 0
M  V30 5846 H 550.018 3.50643 -0.272458 0
M  V30 5847 H 549.892 3.47063 1.47741 0
M  V30 5848 H 552.279 2.48532 1.5911 0
M  V30 5849 H 552.36 2.55199 -0.175205 0
M  V30 5850 H 552.004 5.07846 -0.0738798 0
M  V30 5851 H 551.934 4.98279 1.70369 0
M  V30 5852 H 554.425 3.68588 0.833735 0
M  V30 5853 H 554.738 7.65081 1.08951 0
M  V30 5854 H 553.083 6.8796 0.986706 0
M  V30 5855 H 556.274 4.5835 0.950392 0
M  V30 5856 H 556.447 6.39151 1.06725 0
M  V30 5857 N 549.853 -0.472356 1.50355 0
M  V30 5858 C 551.101 -1.22211 1.60962 0
M  V30 5859 C 551.422 -1.92497 0.311439 0
M  V30 5860 O 550.692 -1.8405 -0.671002 0
M  V30 5861 H 549.272 -0.454092 0.593135 0
M  V30 5862 H 551.934 -0.544977 1.87126 0
M  V30 5863 H 551.03 -1.9707 2.42012 0
M  V30 5864 N 551.331 -1.39911 -0.725443 0
M  V30 5865 C 552.241 -1.41688 -1.8698 0
M  V30 5866 C 553.257 -0.310579 -1.71206 0
M  V30 5867 O 554.433 -0.55359 -1.93642 0
M  V30 5868 C 551.498 -1.26811 -3.22676 0
M  V30 5869 C 550.559 -2.47497 -3.50776 0
M  V30 5870 C 549.792 -2.3332 -4.79997 0
M  V30 5871 O 550.015 -1.34175 -5.54394 0
M  V30 5872 O 548.949 -3.22498 -5.08211 0
M  V30 5873 H 552.775 -2.38171 -1.88436 0
M  V30 5874 H 550.36 -1.21128 -0.874548 0
M  V30 5875 H 552.242 -1.20684 -4.03749 0
M  V30 5876 H 550.917 -0.334289 -3.21969 0
M  V30 5877 H 549.824 -2.59201 -2.69751 0
M  V30 5878 H 551.157 -3.39606 -3.5627 0
M  V30 5879 N 552.809 0.956637 -1.25245 0
M  V30 5880 C 553.719 2.0868 -1.0719 0
M  V30 5881 C 554.735 1.73997 -0.00959074 0
M  V30 5882 O 555.911 2.00301 -0.210104 0
M  V30 5883 C 552.976 3.39754 -0.690526 0
M  V30 5884 C 552.037 3.88316 -1.83055 0
M  V30 5885 C 551.27 5.13134 -1.46728 0
M  V30 5886 O 551.493 5.6925 -0.362029 0
M  V30 5887 O 550.427 5.56356 -2.29677 0
M  V30 5888 H 554.253 2.26813 -2.01965 0
M  V30 5889 H 551.838 1.07098 -1.04165 0
M  V30 5890 H 553.72 4.18543 -0.489871 0
M  V30 5891 H 552.395 3.22896 0.227981 0
M  V30 5892 H 551.302 3.1054 -2.08604 0
M  V30 5893 H 552.635 4.09669 -2.72822 0
M  V30 5894 N 554.287 1.06798 1.15896 0
M  V30 5895 C 555.237 0.653213 2.18443 0
M  V30 5896 C 556.221 -0.318763 1.57711 0
M  V30 5897 O 557.413 -0.133388 1.76497 0
M  V30 5898 C 554.542 0.0465785 3.43268 0
M  V30 5899 C 553.628 1.04336 4.11066 0
M  V30 5900 N 554.019 2.22084 4.54436 0
M  V30 5901 C 552.317 0.875433 4.37324 0
M  V30 5902 C 553.018 2.85276 5.06944 0
M  V30 5903 N 551.994 2.12973 5.00143 0
M  V30 5904 H 555.796 1.55011 2.49698 0
M  V30 5905 H 553.31 0.940384 1.32403 0
M  V30 5906 H 555.307 -0.26843 4.16035 0
M  V30 5907 H 553.967 -0.845504 3.13499 0
M  V30 5908 H 554.978 2.59833 4.48004 0
M  V30 5909 H 551.655 0.0357721 4.17485 0
M  V30 5910 H 553.045 3.85223 5.50503 0
M  V30 5911 N 555.766 -1.3263 0.851289 0
M  V30 5912 C 557.182 -1.50162 0.5407 0
M  V30 5913 C 557.382 -1.78788 -0.929369 0
M  V30 5914 O 556.438 -1.85545 -1.71258 0
M  V30 5915 C 557.751 -2.64803 1.42478 0
M  V30 5916 C 559.299 -2.78688 1.42485 0
M  V30 5917 C 559.774 -3.96405 2.29407 0
M  V30 5918 N 561.265 -4.0366 2.27184 0
M  V30 5919 C 562 -4.93971 2.9117 0
M  V30 5920 N 561.496 -5.89313 3.64256 0
M  V30 5921 N 563.289 -4.87066 2.80576 0
M  V30 5922 H 555.44 -1.12315 1.80275 0
M  V30 5923 H 557.703 -0.553266 0.769806 0
M  V30 5924 H 557.409 -2.50368 2.46999 0
M  V30 5925 H 557.283 -3.60506 1.10974 0
M  V30 5926 H 559.67 -2.92547 0.387304 0
M  V30 5927 H 559.751 -1.83708 1.78002 0
M  V30 5928 H 559.395 -3.83304 3.33228 0
M  V30 5929 H 559.325 -4.90654 1.91224 0
M  V30 5930 H 561.816 -3.35435 1.74045 0
M  V30 5931 H 562.129 -6.54913 4.10255 0
M  V30 5932 H 560.474 -5.8935 3.68364 0
M  V30 5933 H 563.665 -4.11552 2.23031 0
M  V30 5934 H 563.838 -5.57248 3.30725 0
M  V30 5935 N 557.244 -0.608902 -1.45362 0
M  V30 5936 C 558.207 0.0992563 -2.28985 0
M  V30 5937 C 559.207 0.793841 -1.39838 0
M  V30 5938 O 560.397 0.641804 -1.61946 0
M  V30 5939 C 557.529 1.15073 -3.20891 0
M  V30 5940 H 558.722 -0.635964 -2.93079 0
M  V30 5941 H 556.275 -0.368007 -1.51906 0
M  V30 5942 H 557.01 1.91667 -2.616 0
M  V30 5943 H 556.795 0.656867 -3.86559 0
M  V30 5944 H 558.285 1.64665 -3.83765 0
M  V30 5945 N 558.722 1.53707 -0.348139 0
M  V30 5946 C 559.685 2.23812 0.494058 0
M  V30 5947 C 560.685 1.23989 1.02388 0
M  V30 5948 O 561.875 1.48395 0.912396 0
M  V30 5949 C 559.007 2.96133 1.68872 0
M  V30 5950 H 560.2 2.99663 -0.119141 0
M  V30 5951 H 557.753 1.55983 -0.0995539 0
M  V30 5952 H 558.488 2.24481 2.34049 0
M  V30 5953 H 558.273 3.69357 1.31596 0
M  V30 5954 H 559.763 3.49475 2.28597 0
M  V30 5955 N 560.2 0.0768682 1.57412 0
M  V30 5956 C 561.425 -0.603404 1.98428 0
M  V30 5957 C 561.85 -1.62047 0.955108 0
M  V30 5958 O 561.208 -1.81129 -0.0786778 0
M  V30 5959 C 561.256 -1.24396 3.38464 0
M  V30 5960 O 560.36 -2.35982 3.3821 0
M  V30 5961 H 559.701 -0.154741 0.645718 0
M  V30 5962 H 562.231 0.152885 2.04028 0
M  V30 5963 H 562.241 -1.5896 3.7576 0
M  V30 5964 H 560.916 -0.498735 4.12899 0
M  V30 5965 H 559.493 -2.03173 3.1269 0
M  V30 5966 N 561.678 -1.56367 -0.196722 0
M  V30 5967 C 562.903 -1.84991 -0.937714 0
M  V30 5968 C 563.328 -0.660244 -1.76132 0
M  V30 5969 O 562.686 0.390967 -1.77034 0
M  V30 5970 C 562.734 -3.11828 -1.81096 0
M  V30 5971 O 561.838 -2.92266 -2.90955 0
M  V30 5972 H 561.179 -0.609193 -0.264159 0
M  V30 5973 H 563.709 -2.03595 -0.202529 0
M  V30 5974 H 563.719 -3.42579 -2.21594 0
M  V30 5975 H 562.394 -3.98037 -1.2058 0
M  V30 5976 H 560.971 -2.72809 -2.54224 0
M  V30 5977 N 563.156 0.464375 -1.50603 0
M  V30 5978 C 564.567 1.04507 -1.5471 0
M  V30 5979 C 564.918 1.9297 -0.354542 0
M  V30 5980 O 564.043 2.09763 0.531812 0
M  V30 5981 C 564.638 1.90207 -2.80369 0
M  V30 5982 C 563.197 2.43373 -2.87135 0
M  V30 5983 C 562.344 1.21886 -2.49076 0
M  V30 5984 H 565.295 0.246716 -1.56771 0
M  V30 5985 H 565.316 2.75353 -2.62604 0
M  V30 5986 H 564.828 1.25796 -3.67147 0
M  V30 5987 H 562.929 3.11318 -2.04724 0
M  V30 5988 H 563.042 2.7802 -3.90181 0
M  V30 5989 H 561.406 1.55575 -2.01664 0
M  V30 5990 H 562.189 0.591268 -3.3817 0
M  V30 5991 N 564.634 1.40294 0.718013 0
M  V30 5992 C 565.911 1.2894 1.47084 0
M  V30 5993 C 566.291 -0.0933625 2.10893 0
M  V30 5994 O 565.639 -1.10598 1.99951 0
M  V30 5995 C 565.849 2.4264 2.50852 0
M  V30 5996 C 567.197 2.8276 3.16752 0
M  V30 5997 O 568.221 2.42215 2.61171 0
M  V30 5998 O 567.08 3.528 4.17366 0
M  V30 5999 H 564.174 0.506236 0.653952 0
M  V30 6000 H 566.72 1.52208 0.750394 0
M  V30 6001 H 565.492 3.35009 2.022 0
M  V30 6002 H 565.115 2.21129 3.30435 0
M  V30 6003 N 566.112 -0.949982 1.2575 0
M  V30 6004 C 567.36 -1.6918 1.10555 0
M  V30 6005 C 567.681 -1.91773 -0.353298 0
M  V30 6006 O 566.951 -1.50814 -1.25027 0
M  V30 6007 H 565.531 -0.626952 0.406129 0
M  V30 6008 H 568.193 -1.1419 1.57945 0
M  V30 6009 H 567.289 -2.66915 1.61749 0
M  V30 6010 N 567.59 -1.07411 -1.15328 0
M  V30 6011 C 568.522 -0.652924 -2.19703 0
M  V30 6012 C 569.535 0.294869 -1.60107 0
M  V30 6013 O 570.724 0.0840932 -1.78302 0
M  V30 6014 C 567.824 0.061434 -3.38844 0
M  V30 6015 C 566.997 -0.902696 -4.27984 0
M  V30 6016 C 566.056 -0.225521 -5.25717 0
M  V30 6017 O 565.082 -0.86676 -5.62562 0
M  V30 6018 N 566.284 1.02858 -5.71315 0
M  V30 6019 H 569.049 -1.55081 -2.56457 0
M  V30 6020 H 566.61 -0.958883 -1.30449 0
M  V30 6021 H 568.602 0.525145 -4.01278 0
M  V30 6022 H 567.172 0.861269 -3.00501 0
M  V30 6023 H 566.392 -1.54551 -3.6264 0
M  V30 6024 H 567.68 -1.55636 -4.84412 0
M  V30 6025 H 567.078 1.56948 -5.43492 0
M  V30 6026 H 565.635 1.43596 -6.35786 0
M  V30 6027 N 569.068 1.32177 -0.85831 0
M  V30 6028 C 569.998 2.31282 -0.321041 0
M  V30 6029 C 570.979 1.59841 0.581786 0
M  V30 6030 O 572.164 1.87619 0.501262 0
M  V30 6031 C 569.294 3.4385 0.48832 0
M  V30 6032 C 568.248 4.26799 -0.320391 0
M  V30 6033 C 567.574 5.31164 0.613934 0
M  V30 6034 C 568.874 4.98829 -1.54813 0
M  V30 6035 H 570.568 2.76469 -1.14915 0
M  V30 6036 H 568.114 1.32916 -0.554028 0
M  V30 6037 H 570.067 4.12224 0.874626 0
M  V30 6038 H 568.791 2.97401 1.34983 0
M  V30 6039 H 567.45 3.60077 -0.688497 0
M  V30 6040 H 567.098 4.80967 1.47239 0
M  V30 6041 H 566.798 5.8755 0.0768097 0
M  V30 6042 H 568.322 6.024 0.997336 0
M  V30 6043 H 569.736 5.59864 -1.23392 0
M  V30 6044 H 568.133 5.64957 -2.02346 0
M  V30 6045 H 569.203 4.26483 -2.30739 0
M  V30 6046 N 570.547 0.616602 1.45037 0
M  V30 6047 C 571.48 -0.145984 2.27733 0
M  V30 6048 C 572.458 -0.865108 1.37676 0
M  V30 6049 O 573.642 -0.872152 1.6711 0
M  V30 6050 C 570.769 -1.2122 3.16265 0
M  V30 6051 C 569.815 -0.595218 4.22326 0
M  V30 6052 S 570.648 0.603744 5.32086 0
M  V30 6053 C 571.804 -0.462842 6.24186 0
M  V30 6054 H 572.037 0.555591 2.92062 0
M  V30 6055 H 569.57 0.404364 1.49011 0
M  V30 6056 H 571.528 -1.82247 3.67827 0
M  V30 6057 H 570.189 -1.88589 2.51183 0
M  V30 6058 H 569.382 -1.39775 4.8423 0
M  V30 6059 H 568.984 -0.0598965 3.73952 0
M  V30 6060 H 571.276 -1.33945 6.64127 0
M  V30 6061 H 572.219 0.120259 7.07998 0
M  V30 6062 H 572.627 -0.782219 5.59054 0
M  V30 6063 N 572.025 -1.5352 0.356285 0
M  V30 6064 C 573.25 -2.06007 -0.239961 0
M  V30 6065 C 573.675 -1.22872 -1.42422 0
M  V30 6066 O 573.033 -0.245516 -1.7963 0
M  V30 6067 C 573.081 -3.5522 -0.620587 0
M  V30 6068 O 572.185 -3.74864 -1.71902 0
M  V30 6069 H 571.526 -0.662961 -0.0371377 0
M  V30 6070 H 574.056 -1.98033 0.514194 0
M  V30 6071 H 574.066 -3.98081 -0.894197 0
M  V30 6072 H 572.741 -4.15175 0.245407 0
M  V30 6073 H 571.318 -3.43904 -1.44169 0
M  V30 6074 N 573.503 -0.0852151 -1.57369 0
M  V30 6075 C 574.914 0.445428 -1.81309 0
M  V30 6076 C 575.265 1.68795 -1.00013 0
M  V30 6077 O 574.39 2.15211 -0.226573 0
M  V30 6078 C 574.985 0.814887 -3.28854 0
M  V30 6079 C 573.544 1.29032 -3.53592 0
M  V30 6080 C 572.691 0.282089 -2.75861 0
M  V30 6081 H 575.642 -0.310771 -1.55627 0
M  V30 6082 H 575.663 1.67524 -3.41637 0
M  V30 6083 H 575.175 -0.0896309 -3.87996 0
M  V30 6084 H 573.276 2.21289 -2.9977 0
M  V30 6085 H 573.389 1.25898 -4.62262 0
M  V30 6086 H 571.753 0.762182 -2.43029 0
M  V30 6087 H 572.536 -0.614936 -3.37748 0
M  V30 6088 N 574.981 1.5647 0.188427 0
M  V30 6089 C 576.229 1.80655 0.905986 0
M  V30 6090 C 576.55 0.659391 1.83513 0
M  V30 6091 O 575.82 -0.321868 1.93238 0
M  V30 6092 H 574.4 0.666391 0.337538 0
M  V30 6093 H 577.062 1.93949 0.192339 0
M  V30 6094 H 576.158 2.74066 1.49313 0
M  V30 6095 N 576.459 -0.456382 1.50847 0
M  V30 6096 C 577.369 -1.57805 1.73594 0
M  V30 6097 C 578.385 -1.62599 0.619476 0
M  V30 6098 O 579.561 -1.80195 0.899532 0
M  V30 6099 C 576.626 -2.93926 1.8387 0
M  V30 6100 C 575.687 -2.99402 3.07663 0
M  V30 6101 C 574.92 -4.29031 3.1744 0
M  V30 6102 O 575.143 -5.20358 2.33631 0
M  V30 6103 O 574.077 -4.40401 4.10281 0
M  V30 6104 H 577.903 -1.41531 2.68705 0
M  V30 6105 H 575.488 -0.637422 1.3512 0
M  V30 6106 H 577.37 -3.74747 1.92725 0
M  V30 6107 H 576.045 -3.10368 0.91944 0
M  V30 6108 H 574.952 -2.17606 3.043 0
M  V30 6109 H 576.285 -2.87901 3.99216 0
M  V30 6110 N 577.937 -1.40673 -0.710563 0
M  V30 6111 C 578.885 -1.41517 -1.84596 0
M  V30 6112 C 579.879 -0.295043 -1.66811 0
M  V30 6113 O 581.085 -0.466331 -1.73854 0
M  V30 6114 H 577.46 -0.442467 -0.608052 0
M  V30 6115 H 579.431 -2.37238 -1.80999 0
M  V30 6116 C 578.18 -1.29957 -3.225 0
M  V30 6117 H 577.503 -2.15429 -3.36794 0
M  V30 6118 H 578.943 -1.34608 -4.02066 0
M  V30 6119 C 577.402 -0.0103164 -3.36898 0
M  V30 6120 O 577.932 0.950707 -3.90288 0
M  V30 6121 N 576.138 0.0608409 -2.90536 0
M  V30 6122 H 575.685 -0.721943 -2.47277 0
M  V30 6123 H 575.643 0.92292 -3.00549 0
M  V30 6124 N 579.415 0.9433 -1.26252 0
M  V30 6125 C 580.663 1.68592 -1.11451 0
M  V30 6126 C 580.984 1.91957 0.343123 0
M  V30 6127 O 580.254 1.51475 1.24226 0
M  V30 6128 H 578.834 0.624789 -0.409448 0
M  V30 6129 H 581.496 1.13351 -1.58548 0
M  V30 6130 H 580.592 2.66054 -1.63162 0
M  V30 6131 N 580.893 1.08022 1.14757 0
M  V30 6132 C 581.803 0.718292 2.23333 0
M  V30 6133 C 582.819 -0.273477 1.71837 0
M  V30 6134 O 583.995 -0.118406 2.01052 0
M  V30 6135 C 581.06 0.128855 3.4646 0
M  V30 6136 C 580.121 1.17473 4.12915 0
M  V30 6137 C 579.354 0.61333 5.30164 0
M  V30 6138 O 579.577 -0.568458 5.6756 0
M  V30 6139 O 578.511 1.3615 5.86299 0
M  V30 6140 H 582.337 1.62394 2.56636 0
M  V30 6141 H 579.922 0.853628 1.22611 0
M  V30 6142 H 581.804 -0.197249 4.20938 0
M  V30 6143 H 580.479 -0.750014 3.14891 0
M  V30 6144 H 579.386 1.5533 3.40328 0
M  V30 6145 H 580.719 2.02574 4.48581 0
M  V30 6146 N 582.371 -1.3172 0.865308 0
M  V30 6147 C 583.617 -1.97168 0.474633 0
M  V30 6148 C 583.95 -1.68263 -0.969604 0
M  V30 6149 O 583.225 -0.976588 -1.68205 0
M  V30 6150 C 583.508 -3.52689 0.726808 0
M  V30 6151 C 583.361 -3.91185 2.22024 0
M  V30 6152 C 584.68 -4.39689 0.190201 0
M  V30 6153 H 581.799 -0.716185 0.17392 0
M  V30 6154 H 584.441 -1.55925 1.08569 0
M  V30 6155 H 582.591 -3.8795 0.206705 0
M  V30 6156 H 584.263 -3.66049 2.80724 0
M  V30 6157 H 582.506 -3.3996 2.69462 0
M  V30 6158 H 583.177 -4.99604 2.34735 0
M  V30 6159 H 585.653 -4.11225 0.635103 0
M  V30 6160 H 584.529 -5.47469 0.396132 0
M  V30 6161 H 584.79 -4.32683 -0.907625 0
M  V30 6162 N 583.85 -0.624285 -1.44708 0
M  V30 6163 C 585.266 -0.289322 -1.56956 0
M  V30 6164 C 585.466 1.20773 -1.61295 0
M  V30 6165 O 584.522 1.9915 -1.55227 0
M  V30 6166 C 585.835 -0.975215 -2.84447 0
M  V30 6167 C 587.383 -0.952709 -2.98148 0
M  V30 6168 C 587.858 -1.61893 -4.28433 0
M  V30 6169 N 589.349 -1.5852 -4.35231 0
M  V30 6170 C 590.084 -2.06969 -5.34744 0
M  V30 6171 N 589.58 -2.63579 -6.40701 0
M  V30 6172 N 591.373 -1.97638 -5.26209 0
M  V30 6173 H 583.524 -1.59612 -1.40135 0
M  V30 6174 H 585.787 -0.669592 -0.671081 0
M  V30 6175 H 585.493 -2.02999 -2.87201 0
M  V30 6176 H 585.367 -0.508749 -3.73753 0
M  V30 6177 H 587.754 0.093568 -2.94952 0
M  V30 6178 H 587.835 -1.4576 -2.10209 0
M  V30 6179 H 587.479 -2.66463 -4.32389 0
M  V30 6180 H 587.409 -1.08893 -5.15218 0
M  V30 6181 H 589.899 -1.17183 -3.59272 0
M  V30 6182 H 590.213 -2.98298 -7.12908 0
M  V30 6183 H 588.558 -2.67626 -6.41406 0
M  V30 6184 H 591.749 -1.5314 -4.42341 0
M  V30 6185 H 591.922 -2.35708 -6.03611 0
M  V30 6186 N 585.328 1.53329 -0.364422 0
M  V30 6187 C 586.26 2.23286 0.517293 0
M  V30 6188 C 587.273 1.24657 1.04711 0
M  V30 6189 O 588.462 1.50887 0.95369 0
M  V30 6190 C 585.562 2.91604 1.72685 0
M  V30 6191 C 584.735 4.1673 1.32873 0
M  V30 6192 C 583.794 4.68269 2.40022 0
M  V30 6193 O 582.82 5.31976 2.02461 0
M  V30 6194 N 584.022 4.45983 3.7159 0
M  V30 6195 H 586.787 2.99588 -0.0819391 0
M  V30 6196 H 584.348 1.60787 -0.189544 0
M  V30 6197 H 586.34 3.22992 2.4384 0
M  V30 6198 H 584.91 2.18763 2.23297 0
M  V30 6199 H 584.13 3.91657 0.447069 0
M  V30 6200 H 585.418 4.98078 1.03902 0
M  V30 6201 H 584.816 3.95077 4.04883 0
M  V30 6202 H 583.373 4.81924 4.38854 0
M  V30 6203 N 586.806 0.0935595 1.57322 0
M  V30 6204 C 588.054 -0.569383 1.93913 0
M  V30 6205 C 588.375 -1.68817 0.976009 0
M  V30 6206 O 587.645 -1.9588 0.0278099 0
M  V30 6207 H 586.225 -0.21332 0.715894 0
M  V30 6208 H 588.887 0.156531 1.9427 0
M  V30 6209 H 587.983 -0.980577 2.96296 0
M  V30 6210 N 588.284 -1.56567 -0.180126 0
M  V30 6211 C 589.216 -1.92275 -1.24751 0
M  V30 6212 C 590.229 -0.814922 -1.40936 0
M  V30 6213 O 591.418 -1.09336 -1.41095 0
M  V30 6214 C 588.518 -2.15265 -2.61752 0
M  V30 6215 C 587.691 -3.46467 -2.66981 0
M  V30 6216 C 586.75 -3.58391 -3.85283 0
M  V30 6217 O 585.776 -4.31086 -3.7169 0
M  V30 6218 N 586.978 -2.92587 -5.01371 0
M  V30 6219 H 589.743 -2.84435 -0.944302 0
M  V30 6220 H 587.304 -1.57617 -0.369952 0
M  V30 6221 H 589.296 -2.20515 -3.39345 0
M  V30 6222 H 587.866 -1.29533 -2.845 0
M  V30 6223 H 587.086 -3.52953 -1.75549 0
M  V30 6224 H 588.374 -4.32819 -2.67479 0
M  V30 6225 H 587.772 -2.3338 -5.15316 0
M  V30 6226 H 586.329 -3.03444 -5.76858 0
M  V30 6227 N 589.762 0.448376 -1.51087 0
M  V30 6228 C 590.725 1.52588 -1.71025 0
M  V30 6229 C 591.725 1.49958 -0.580442 0
M  V30 6230 O 592.915 1.52176 -0.847833 0
M  V30 6231 C 590.047 2.92163 -1.75652 0
M  V30 6232 H 591.24 1.36218 -2.67179 0
M  V30 6233 H 588.793 0.676313 -1.4091 0
M  V30 6234 H 589.528 3.13951 -0.812724 0
M  V30 6235 H 589.313 2.95478 -2.57751 0
M  V30 6236 H 590.803 3.70349 -1.92953 0
M  V30 6237 N 591.24 1.41047 0.703093 0
M  V30 6238 C 592.187 1.42302 1.81711 0
M  V30 6239 C 593.157 0.278336 1.63751 0
M  V30 6240 O 594.342 0.478266 1.84709 0
M  V30 6241 C 591.482 1.30362 3.19531 0
M  V30 6242 C 590.595 2.54638 3.48975 0
M  V30 6243 C 589.73 2.35047 4.76368 0
M  V30 6244 C 588.769 3.54837 4.98756 0
M  V30 6245 N 587.906 3.34363 6.1737 0
M  V30 6246 H 592.746 2.37516 1.79973 0
M  V30 6247 H 590.283 1.1795 0.878983 0
M  V30 6248 H 592.241 1.21443 3.99134 0
M  V30 6249 H 590.871 0.387602 3.20464 0
M  V30 6250 H 589.923 2.74037 2.63833 0
M  V30 6251 H 591.235 3.43766 3.61423 0
M  V30 6252 H 590.389 2.23552 5.64012 0
M  V30 6253 H 589.128 1.43363 4.66153 0
M  V30 6254 H 588.133 3.66795 4.09563 0
M  V30 6255 H 589.358 4.47464 5.10835 0
M  V30 6256 H 587.304 2.45373 6.08382 0
M  V30 6257 H 587.221 4.17063 6.30551 0
M  V30 6258 H 588.489 3.26626 7.07768 0
M  V30 6259 N 592.718 -0.936591 1.26751 0
M  V30 6260 C 594.134 -1.21095 1.03963 0
M  V30 6261 C 594.334 -2.00156 -0.232372 0
M  V30 6262 O 593.39 -2.3434 -0.940274 0
M  V30 6263 C 594.703 -1.96775 2.27377 0
M  V30 6264 C 596.251 -2.09749 2.32324 0
M  V30 6265 C 596.726 -2.88832 3.55443 0
M  V30 6266 N 598.217 -2.96404 3.55948 0
M  V30 6267 C 598.952 -3.58036 4.47881 0
M  V30 6268 N 598.448 -4.21132 5.50109 0
M  V30 6269 N 600.241 -3.55353 4.35523 0
M  V30 6270 H 592.392 -0.408173 2.08441 0
M  V30 6271 H 594.655 -0.243139 0.91629 0
M  V30 6272 H 594.361 -1.46094 3.19921 0
M  V30 6273 H 594.235 -2.97424 2.31989 0
M  V30 6274 H 596.622 -2.5962 1.40291 0
M  V30 6275 H 596.703 -1.08347 2.31721 0
M  V30 6276 H 596.347 -2.39647 4.47808 0
M  V30 6277 H 596.277 -3.90499 3.53296 0
M  V30 6278 H 598.768 -2.51552 2.82011 0
M  V30 6279 H 599.081 -4.66071 6.16439 0
M  V30 6280 H 597.426 -4.19705 5.53961 0
M  V30 6281 H 600.617 -3.05256 3.54875 0
M  V30 6282 H 600.79 -4.03097 5.07363 0
M  V30 6283 N 594.196 -1.08629 -1.14182 0
M  V30 6284 C 595.126 -0.740003 -2.21464 0
M  V30 6285 C 596.107 0.278591 -1.67803 0
M  V30 6286 O 597.292 0.148461 -1.93632 0
M  V30 6287 C 594.422 -0.150952 -3.46972 0
M  V30 6288 C 593.376 -1.09815 -4.13672 0
M  V30 6289 C 592.702 -0.3712 -5.3341 0
M  V30 6290 C 594.002 -2.43722 -4.61949 0
M  V30 6291 H 595.696 -1.63697 -2.50686 0
M  V30 6292 H 593.242 -0.788526 -1.20492 0
M  V30 6293 H 595.195 0.103325 -4.21273 0
M  V30 6294 H 593.919 0.781164 -3.1712 0
M  V30 6295 H 592.578 -1.33756 -3.41328 0
M  V30 6296 H 592.226 0.564792 -4.99819 0
M  V30 6297 H 591.926 -1.00267 -5.78982 0
M  V30 6298 H 593.45 -0.12503 -6.10472 0
M  V30 6299 H 594.864 -2.24034 -5.27714 0
M  V30 6300 H 593.261 -3.02582 -5.18232 0
M  V30 6301 H 594.331 -3.05082 -3.76899 0
M  V30 6302 N 595.674 1.31259 -0.872281 0
M  V30 6303 C 596.922 1.96233 -0.483409 0
M  V30 6304 C 597.243 1.69276 0.968012 0
M  V30 6305 O 596.513 1.00943 1.67891 0
M  V30 6306 H 595.093 0.726025 -0.175774 0
M  V30 6307 H 597.755 1.60024 -1.11258 0
M  V30 6308 H 596.851 3.05403 -0.643075 0
M  V30 6309 N 597.152 0.631951 1.44375 0
M  V30 6310 C 598.082 -0.0593243 2.33425 0
M  V30 6311 C 599.063 -0.833964 1.48253 0
M  V30 6312 O 600.248 -0.799682 1.76971 0
M  V30 6313 C 597.378 -1.04096 3.31333 0
M  V30 6314 C 596.332 -0.377899 4.26328 0
M  V30 6315 C 595.658 -1.4695 5.14111 0
M  V30 6316 C 596.958 0.716371 5.17364 0
M  V30 6317 H 598.652 0.684287 2.91475 0
M  V30 6318 H 596.198 0.330518 1.40156 0
M  V30 6319 H 598.151 -1.53331 3.92514 0
M  V30 6320 H 596.875 -1.81547 2.71493 0
M  V30 6321 H 595.534 0.0938054 3.6648 0
M  V30 6322 H 595.182 -2.2349 4.50623 0
M  V30 6323 H 594.882 -1.03121 5.78481 0
M  V30 6324 H 596.406 -1.96363 5.78164 0
M  V30 6325 H 597.82 0.307089 5.72477 0
M  V30 6326 H 596.217 1.07784 5.90341 0
M  V30 6327 H 597.287 1.58316 4.58327 0
M  V30 6328 N 598.631 -1.53133 0.372548 0
M  V30 6329 C 599.908 -1.93704 -0.271693 0
M  V30 6330 C 600.288 -1.30667 -1.65799 0
M  V30 6331 O 599.636 -0.46838 -2.23648 0
M  V30 6332 C 599.846 -3.47576 -0.314903 0
M  V30 6333 C 601.194 -4.20998 -0.551912 0
M  V30 6334 O 602.218 -3.53994 -0.39582 0
M  V30 6335 O 601.077 -5.39748 -0.85639 0
M  V30 6336 H 598.171 -0.810457 -0.164586 0
M  V30 6337 H 600.717 -1.6427 0.425838 0
M  V30 6338 H 599.489 -3.85749 0.656792 0
M  V30 6339 H 599.112 -3.83264 -1.05804 0
M  V30 6340 N 600.109 -0.101901 -1.5727 0
M  V30 6341 C 601.019 0.868647 -2.17926 0
M  V30 6342 C 602.035 1.30527 -1.1506 0
M  V30 6343 O 603.211 1.37178 -1.47459 0
M  V30 6344 C 600.276 2.10727 -2.75309 0
M  V30 6345 C 599.337 1.7242 -3.93154 0
M  V30 6346 C 598.57 2.90377 -4.47791 0
M  V30 6347 O 598.793 4.05305 -4.01353 0
M  V30 6348 O 597.727 2.6845 -5.38719 0
M  V30 6349 H 601.553 0.382544 -3.01281 0
M  V30 6350 H 599.138 0.122812 -1.48894 0
M  V30 6351 H 601.02 2.83303 -3.11958 0
M  V30 6352 H 599.695 2.58376 -1.94996 0
M  V30 6353 H 598.602 0.970039 -3.61305 0
M  V30 6354 H 599.935 1.29528 -4.74851 0
M  V30 6355 N 601.587 1.56661 0.17182 0
M  V30 6356 C 602.834 1.81965 0.888529 0
M  V30 6357 C 603.162 0.6789 1.82267 0
M  V30 6358 O 602.417 -0.333875 1.92831 0
M  V30 6359 C 602.716 3.13435 1.71736 0
M  V30 6360 C 602.382 4.41159 0.932184 0
M  V30 6361 C 601.044 4.75851 0.715481 0
M  V30 6362 C 603.396 5.19803 0.381387 0
M  V30 6363 C 600.724 5.86666 -0.063126 0
M  V30 6364 C 603.076 6.31433 -0.384129 0
M  V30 6365 C 601.74 6.64692 -0.611637 0
M  V30 6366 H 601.01 0.665859 0.325136 0
M  V30 6367 H 603.657 1.90884 0.153495 0
M  V30 6368 H 601.962 2.99857 2.52177 0
M  V30 6369 H 603.659 3.30224 2.27493 0
M  V30 6370 H 600.249 4.13947 1.11112 0
M  V30 6371 H 604.433 4.93396 0.536148 0
M  V30 6372 H 599.689 6.10892 -0.249136 0
M  V30 6373 H 603.863 6.91577 -0.818185 0
M  V30 6374 H 601.49 7.50398 -1.21684 0
M  V30 6375 N 603.065 -0.440357 1.51323 0
M  V30 6376 C 604.013 -1.55492 1.72988 0
M  V30 6377 C 605.007 -1.58564 0.596138 0
M  V30 6378 O 606.213 -1.62345 0.777443 0
M  V30 6379 H 602.588 -0.516532 0.546533 0
M  V30 6380 H 604.559 -1.34392 2.66423 0
M  V30 6381 C 603.308 -2.93176 1.86931 0
M  V30 6382 H 602.631 -2.91543 2.73574 0
M  V30 6383 H 604.071 -3.70537 2.06103 0
M  V30 6384 C 602.53 -3.30988 0.628365 0
M  V30 6385 O 603.06 -4.01106 -0.218367 0
M  V30 6386 N 601.266 -2.86719 0.473339 0
M  V30 6387 H 600.813 -2.2983 1.16345 0
M  V30 6388 H 600.771 -3.12381 -0.355727 0
M  V30 6389 N 604.543 -1.41418 -0.695603 0
M  V30 6390 C 605.79 -1.40774 -1.45564 0
M  V30 6391 C 606.118 -0.0168604 -1.94493 0
M  V30 6392 O 605.373 0.971259 -1.69897 0
M  V30 6393 C 605.672 -2.36112 -2.68302 0
M  V30 6394 C 605.338 -3.82952 -2.38031 0
M  V30 6395 C 604 -4.22954 -2.29486 0
M  V30 6396 C 606.352 -4.75662 -2.13061 0
M  V30 6397 C 603.68 -5.53674 -1.94067 0
M  V30 6398 C 606.032 -6.06702 -1.79151 0
M  V30 6399 C 604.696 -6.45725 -1.69102 0
M  V30 6400 H 603.966 -0.515128 -0.532658 0
M  V30 6401 H 606.613 -1.74216 -0.795047 0
M  V30 6402 H 604.918 -1.95924 -3.39295 0
M  V30 6403 H 606.615 -2.32887 -3.26442 0
M  V30 6404 H 603.205 -3.5127 -2.45576 0
M  V30 6405 H 607.389 -4.45561 -2.18608 0
M  V30 6406 H 602.645 -5.8279 -1.8484 0
M  V30 6407 H 606.819 -6.78041 -1.5885 0
M  V30 6408 H 604.446 -7.46929 -1.41426 0
M  V30 6409 N 606.021 0.929856 -1.27246 0
M  V30 6410 C 607.27 1.67182 -1.12842 0
M  V30 6411 C 607.583 1.9287 0.325666 0
M  V30 6412 O 608.789 2.64999 0.590572 0
M  V30 6413 C 607.245 3.01097 -1.97151 0
M  V30 6414 C 606.853 2.83115 -3.47203 0
M  V30 6415 C 608.597 3.78907 -1.91389 0
M  V30 6416 C 606.504 4.12573 -4.23719 0
M  V30 6417 H 605.434 0.627064 -0.418697 0
M  V30 6418 H 608.085 1.0332 -1.51649 0
M  V30 6419 H 606.467 3.66004 -1.51186 0
M  V30 6420 H 607.641 2.26989 -4.01015 0
M  V30 6421 H 605.956 2.18736 -3.54321 0
M  V30 6422 H 608.553 4.74837 -2.45834 0
M  V30 6423 H 608.896 4.0674 -0.887047 0
M  V30 6424 H 609.429 3.20794 -2.35237 0
M  V30 6425 H 606.168 3.8992 -5.26918 0
M  V30 6426 H 605.688 4.68371 -3.74685 0
M  V30 6427 H 607.367 4.8095 -4.32777 0
M  V30 6428 N 607.499 1.09233 1.13605 0
M  V30 6429 C 608.446 0.729921 2.18954 0
M  V30 6430 C 609.416 -0.287916 1.63586 0
M  V30 6431 O 610.601 -0.170003 1.90041 0
M  V30 6432 C 607.741 0.154489 3.44754 0
M  V30 6433 C 606.854 1.22613 4.14234 0
M  V30 6434 C 605.989 0.613657 5.27644 0
M  V30 6435 C 605.028 1.66674 5.8897 0
M  V30 6436 N 604.165 1.07545 6.93814 0
M  V30 6437 H 609.005 1.63257 2.49302 0
M  V30 6438 H 606.542 0.815693 1.22413 0
M  V30 6439 H 608.5 -0.196923 4.16735 0
M  V30 6440 H 607.13 -0.711433 3.14863 0
M  V30 6441 H 606.182 1.69485 3.40557 0
M  V30 6442 H 607.494 2.0238 4.55899 0
M  V30 6443 H 606.648 0.210976 6.06333 0
M  V30 6444 H 605.387 -0.215584 4.87223 0
M  V30 6445 H 604.392 2.07899 5.08978 0
M  V30 6446 H 605.617 2.49861 6.31464 0
M  V30 6447 H 603.563 0.267451 6.55455 0
M  V30 6448 H 603.48 1.81011 7.3401 0
M  V30 6449 H 604.748 0.698906 7.7636 0
M  V30 6450 N 608.977 -1.30795 0.87923 0
M  V30 6451 C 610.223 -1.96653 0.495519 0
M  V30 6452 C 610.556 -1.69282 -0.951703 0
M  V30 6453 O 609.831 -0.994374 -1.6716 0
M  V30 6454 C 610.114 -3.51898 0.764174 0
M  V30 6455 C 609.967 -3.88808 2.2616 0
M  V30 6456 C 611.286 -4.39462 0.236825 0
M  V30 6457 H 608.405 -0.7143 0.181507 0
M  V30 6458 H 611.047 -1.54765 1.10217 0
M  V30 6459 H 609.197 -3.87709 0.247841 0
M  V30 6460 H 610.869 -3.63051 2.8459 0
M  V30 6461 H 609.112 -3.37082 2.73053 0
M  V30 6462 H 609.783 -4.97086 2.4002 0
M  V30 6463 H 612.259 -4.10528 0.678683 0
M  V30 6464 H 611.135 -5.47018 0.454176 0
M  V30 6465 H 611.396 -4.33621 -0.861683 0
M  V30 6466 N 610.455 -0.639598 -1.44038 0
M  V30 6467 C 611.385 0.0469443 -2.33453 0
M  V30 6468 C 612.366 0.82609 -1.48694 0
M  V30 6469 O 613.551 0.790285 -1.77393 0
M  V30 6470 C 610.681 1.02338 -3.3188 0
M  V30 6471 C 609.635 0.355284 -4.26523 0
M  V30 6472 C 608.961 1.44221 -5.14883 0
M  V30 6473 C 610.261 -0.743798 -5.16977 0
M  V30 6474 H 611.955 -0.699735 -2.91108 0
M  V30 6475 H 609.501 -0.337946 -1.39978 0
M  V30 6476 H 611.454 1.51247 -3.93322 0
M  V30 6477 H 610.178 1.80105 -2.72451 0
M  V30 6478 H 608.837 -0.113239 -3.66425 0
M  V30 6479 H 608.485 2.21097 -4.51802 0
M  V30 6480 H 608.185 1.00052 -5.79019 0
M  V30 6481 H 609.709 1.93295 -5.79197 0
M  V30 6482 H 611.123 -0.337444 -5.72306 0
M  V30 6483 H 609.52 -1.10914 -5.89761 0
M  V30 6484 H 610.59 -1.60745 -4.57481 0
M  V30 6485 N 611.933 1.52934 -0.380664 0
M  V30 6486 C 613.181 2.01069 0.203874 0
M  V30 6487 C 613.502 1.26922 1.4804 0
M  V30 6488 O 612.772 0.386787 1.92044 0
M  V30 6489 H 611.352 0.742882 0.0783279 0
M  V30 6490 H 614.014 1.88099 -0.510368 0
M  V30 6491 H 613.11 3.09258 0.42021 0
M  V30 6492 N 613.412 0.11024 1.57214 0
M  V30 6493 C 614.359 -0.843195 2.14846 0
M  V30 6494 C 615.329 -1.26954 1.07107 0
M  V30 6495 O 616.514 -1.34861 1.34971 0
M  V30 6496 C 613.654 -2.09123 2.74521 0
M  V30 6497 C 612.767 -1.71404 3.96541 0
M  V30 6498 C 611.902 -2.91107 4.44331 0
M  V30 6499 C 610.941 -2.49586 5.58903 0
M  V30 6500 N 610.078 -3.62175 6.01477 0
M  V30 6501 H 614.918 -0.344886 2.95998 0
M  V30 6502 H 612.455 -0.15855 1.46243 0
M  V30 6503 H 614.413 -2.82234 3.07246 0
M  V30 6504 H 613.043 -2.56427 1.96074 0
M  V30 6505 H 612.095 -0.88201 3.70033 0
M  V30 6506 H 613.407 -1.36884 4.7965 0
M  V30 6507 H 612.561 -3.72454 4.78919 0
M  V30 6508 H 611.3 -3.28848 3.60153 0
M  V30 6509 H 610.305 -1.6667 5.23929 0
M  V30 6510 H 611.53 -2.12973 6.4484 0
M  V30 6511 H 609.476 -3.99605 5.20242 0
M  V30 6512 H 609.393 -3.3155 6.79419 0
M  V30 6513 H 610.661 -4.43987 6.407 0
M  V30 6514 N 614.89 -1.56749 -0.16351 0
M  V30 6515 C 616.138 -1.82074 -0.87713 0
M  V30 6516 C 616.459 -0.688503 -1.82441 0
M  V30 6517 O 615.729 0.291085 -1.93725 0
M  V30 6518 H 614.309 -0.671677 -0.326893 0
M  V30 6519 H 616.971 -1.9423 -0.161459 0
M  V30 6520 H 616.067 -2.76407 -1.44934 0
M  V30 6521 N 616.368 0.432326 -1.51554 0
M  V30 6522 C 617.593 1.20824 -1.68571 0
M  V30 6523 C 618.018 1.84126 -0.384596 0
M  V30 6524 O 617.376 1.69025 0.655751 0
M  V30 6525 C 617.424 2.26429 -2.80646 0
M  V30 6526 O 616.528 3.32032 -2.44598 0
M  V30 6527 H 615.869 0.353765 -0.561913 0
M  V30 6528 H 618.399 0.509916 -1.98144 0
M  V30 6529 H 618.409 2.71133 -3.04878 0
M  V30 6530 H 617.084 1.79733 -3.75058 0
M  V30 6531 H 615.661 2.92769 -2.30956 0
M  V30 6532 N 617.846 1.41785 0.688094 0
M  V30 6533 C 619.093 1.41544 1.44816 0
M  V30 6534 C 619.421 0.0271746 1.94481 0
M  V30 6535 O 618.676 -0.962235 1.7041 0
M  V30 6536 C 618.975 2.37532 2.67046 0
M  V30 6537 C 618.641 3.84209 2.35996 0
M  V30 6538 C 617.303 4.24165 2.27239 0
M  V30 6539 C 619.655 4.76785 2.10536 0
M  V30 6540 C 616.983 5.54695 1.91128 0
M  V30 6541 C 619.335 6.07644 1.75931 0
M  V30 6542 C 617.999 6.46613 1.65675 0
M  V30 6543 H 617.269 0.517945 0.529919 0
M  V30 6544 H 619.916 1.74635 0.785797 0
M  V30 6545 H 618.221 1.9772 3.38251 0
M  V30 6546 H 619.918 2.34615 3.25203 0
M  V30 6547 H 616.508 3.52567 2.4371 0
M  V30 6548 H 620.692 4.46714 2.16242 0
M  V30 6549 H 615.948 5.83762 1.81746 0
M  V30 6550 H 620.122 6.78874 1.55252 0
M  V30 6551 H 617.749 7.47668 1.37463 0
M  V30 6552 N 619.324 -0.923095 1.27737 0
M  V30 6553 C 620.572 -1.66797 1.14119 0
M  V30 6554 C 620.893 -1.92479 -0.312541 0
M  V30 6555 O 620.163 -1.53432 -1.218 0
M  V30 6556 H 618.743 -0.618196 0.419336 0
M  V30 6557 H 621.405 -1.10815 1.60331 0
M  V30 6558 H 620.501 -2.63424 1.67374 0
M  V30 6559 N 620.802 -1.09834 -1.13024 0
M  V30 6560 C 621.749 -0.741522 -2.18564 0
M  V30 6561 C 622.719 0.279236 -1.63736 0
M  V30 6562 O 623.904 0.159923 -1.90129 0
M  V30 6563 C 621.044 -0.17277 -3.44667 0
M  V30 6564 C 620.157 -1.24808 -4.13578 0
M  V30 6565 C 619.292 -0.641631 -5.27311 0
M  V30 6566 C 618.331 -1.69795 -5.88078 0
M  V30 6567 N 617.468 -1.11223 -6.93234 0
M  V30 6568 H 622.308 -1.64576 -2.48432 0
M  V30 6569 H 619.845 -0.822174 -1.21978 0
M  V30 6570 H 621.803 0.17482 -4.16834 0
M  V30 6571 H 620.433 0.694725 -3.15235 0
M  V30 6572 H 619.485 -1.71288 -3.39653 0
M  V30 6573 H 620.797 -2.04795 -4.54819 0
M  V30 6574 H 619.951 -0.243128 -6.06213 0
M  V30 6575 H 618.69 0.189742 -4.87331 0
M  V30 6576 H 617.695 -2.10595 -5.07868 0
M  V30 6577 H 618.92 -2.53206 -6.3013 0
M  V30 6578 H 616.866 -0.302208 -6.55304 0
M  V30 6579 H 616.783 -1.84901 -7.3304 0
M  V30 6580 H 618.051 -0.740068 -7.75979 0
M  V30 6581 N 622.28 1.30327 -0.886154 0
M  V30 6582 C 623.526 1.96388 -0.505941 0
M  V30 6583 C 623.859 1.69784 0.942712 0
M  V30 6584 O 623.134 1.00322 1.6663 0
M  V30 6585 C 623.417 3.51488 -0.782826 0
M  V30 6586 C 623.27 3.87603 -2.28219 0
M  V30 6587 C 624.589 4.39331 -0.260128 0
M  V30 6588 H 621.708 0.713327 -0.185292 0
M  V30 6589 H 624.35 1.54178 -1.11036 0
M  V30 6590 H 622.5 3.87572 -0.268399 0
M  V30 6591 H 624.172 3.61537 -2.86512 0
M  V30 6592 H 622.415 3.3563 -2.74837 0
M  V30 6593 H 623.086 4.95806 -2.42653 0
M  V30 6594 H 625.562 4.10162 -0.700444 0
M  V30 6595 H 624.438 5.46769 -0.483179 0
M  V30 6596 H 624.699 4.34072 0.838674 0
M  V30 6597 N 623.758 0.647228 1.43697 0
M  V30 6598 C 624.691 -0.097646 2.27991 0
M  V30 6599 C 625.669 -0.83571 1.3948 0
M  V30 6600 O 626.853 -0.836509 1.68922 0
M  V30 6601 C 623.98 -1.14484 3.18765 0
M  V30 6602 C 623.026 -0.505503 4.23494 0
M  V30 6603 S 623.859 0.716471 5.30685 0
M  V30 6604 C 625.015 -0.330339 6.25028 0
M  V30 6605 H 625.248 0.617417 2.90818 0
M  V30 6606 H 622.781 0.435881 1.4812 0
M  V30 6607 H 624.739 -1.74403 3.7161 0
M  V30 6608 H 623.4 -1.83219 2.55127 0
M  V30 6609 H 622.593 -1.29473 4.87086 0
M  V30 6610 H 622.195 0.0194377 3.73995 0
M  V30 6611 H 624.487 -1.19828 6.66819 0
M  V30 6612 H 625.43 0.270409 7.07583 0
M  V30 6613 H 625.838 -0.663459 5.60588 0
M  V30 6614 N 625.236 -1.5273 0.388769 0
M  V30 6615 C 626.166 -2.29353 -0.438111 0
M  V30 6616 C 627.147 -1.32719 -1.06394 0
M  V30 6617 O 628.332 -1.61612 -1.07681 0
M  V30 6618 C 625.462 -3.09995 -1.56589 0
M  V30 6619 C 624.416 -4.14509 -1.06613 0
M  V30 6620 C 623.742 -4.83372 -2.28594 0
M  V30 6621 C 625.042 -5.22127 -0.134459 0
M  V30 6622 H 626.736 -2.98723 0.201206 0
M  V30 6623 H 624.282 -1.43665 0.0982089 0
M  V30 6624 H 626.235 -3.62357 -2.15118 0
M  V30 6625 H 624.959 -2.38357 -2.23279 0
M  V30 6626 H 623.618 -3.63128 -0.503383 0
M  V30 6627 H 623.266 -4.08283 -2.93792 0
M  V30 6628 H 622.966 -5.54012 -1.95817 0
M  V30 6629 H 624.49 -5.38538 -2.87766 0
M  V30 6630 H 625.904 -5.69851 -0.627914 0
M  V30 6631 H 624.301 -6.00011 0.103534 0
M  V30 6632 H 625.371 -4.77971 0.816798 0
M  V30 6633 N 626.714 -0.118576 -1.57153 0
M  V30 6634 C 627.677 0.817464 -2.14127 0
M  V30 6635 C 628.677 1.1949 -1.07604 0
M  V30 6636 O 629.867 1.12048 -1.33382 0
M  V30 6637 C 626.999 2.10541 -2.68115 0
M  V30 6638 H 628.192 0.322339 -2.98163 0
M  V30 6639 H 625.745 0.130655 -1.55753 0
M  V30 6640 H 626.48 2.64485 -1.87665 0
M  V30 6641 H 626.265 1.84425 -3.4602 0
M  V30 6642 H 627.755 2.77453 -3.12105 0
M  V30 6643 N 628.193 1.56834 0.155195 0
M  V30 6644 C 629.103 2.009 1.21146 0
M  V30 6645 C 630.119 0.923029 1.475 0
M  V30 6646 O 631.295 1.23189 1.59331 0
M  V30 6647 C 628.36 2.37378 2.52691 0
M  V30 6648 C 627.421 3.59883 2.34057 0
M  V30 6649 C 626.654 3.94612 3.59329 0
M  V30 6650 O 626.877 3.30104 4.65175 0
M  V30 6651 O 625.811 4.87895 3.52479 0
M  V30 6652 H 629.637 2.9105 0.867371 0
M  V30 6653 H 627.222 1.44916 0.363298 0
M  V30 6654 H 629.104 2.61737 3.3026 0
M  V30 6655 H 627.779 1.50385 2.86646 0
M  V30 6656 H 626.686 3.40722 1.54465 0
M  V30 6657 H 628.019 4.47468 2.0502 0
M  V30 6658 N 629.671 -0.424282 1.51781 0
M  V30 6659 C 630.601 -1.52305 1.7699 0
M  V30 6660 C 631.582 -1.5839 0.620209 0
M  V30 6661 O 632.767 -1.73908 0.864268 0
M  V30 6662 C 629.897 -2.90271 1.90683 0
M  V30 6663 C 628.851 -2.99043 3.06198 0
M  V30 6664 C 628.177 -4.39116 3.05092 0
M  V30 6665 C 629.477 -2.7192 4.45934 0
M  V30 6666 H 631.171 -1.31461 2.68995 0
M  V30 6667 H 628.717 -0.630985 1.29439 0
M  V30 6668 H 630.67 -3.6711 2.06901 0
M  V30 6669 H 629.394 -3.12376 0.953365 0
M  V30 6670 H 628.053 -2.24646 2.89706 0
M  V30 6671 H 627.701 -4.58207 2.07498 0
M  V30 6672 H 627.401 -4.45912 3.82669 0
M  V30 6673 H 628.925 -5.17911 3.2342 0
M  V30 6674 H 630.339 -3.38487 4.62709 0
M  V30 6675 H 628.736 -2.90111 5.25315 0
M  V30 6676 H 629.806 -1.67445 4.55072 0
M  V30 6677 N 631.149 -1.42148 -0.680565 0
M  V30 6678 C 632.096 -1.45175 -1.79424 0
M  V30 6679 C 633.066 -0.304352 -1.63288 0
M  V30 6680 O 634.251 -0.507591 -1.83924 0
M  V30 6681 C 631.391 -1.35429 -3.17416 0
M  V30 6682 C 630.504 -2.60158 -3.4488 0
M  V30 6683 C 629.639 -2.42596 -4.72568 0
M  V30 6684 C 628.678 -3.62727 -4.93047 0
M  V30 6685 N 627.815 -3.44143 -6.11973 0
M  V30 6686 H 632.655 -2.40349 -1.76172 0
M  V30 6687 H 630.192 -1.19334 -0.860107 0
M  V30 6688 H 632.15 -1.27777 -3.97151 0
M  V30 6689 H 630.78 -0.438536 -3.19807 0
M  V30 6690 H 629.832 -2.78199 -2.5944 0
M  V30 6691 H 631.144 -3.49473 -3.55908 0
M  V30 6692 H 630.298 -2.32497 -5.60384 0
M  V30 6693 H 629.037 -1.50761 -4.63813 0
M  V30 6694 H 628.042 -3.73264 -4.03676 0
M  V30 6695 H 629.267 -4.55534 -5.03652 0
M  V30 6696 H 627.213 -2.5502 -6.04401 0
M  V30 6697 H 627.13 -4.27041 -6.23836 0
M  V30 6698 H 628.398 -3.37845 -7.02482 0
M  V30 6699 N 632.627 0.916307 -1.28225 0
M  V30 6700 C 633.875 1.6619 -1.15002 0
M  V30 6701 C 634.196 1.92642 0.302329 0
M  V30 6702 O 633.466 1.54076 1.20985 0
M  V30 6703 H 632.046 0.615964 -0.422608 0
M  V30 6704 H 634.708 1.09963 -1.60917 0
M  V30 6705 H 633.804 2.62533 -1.68769 0
M  V30 6706 N 634.105 1.10431 1.1244 0
M  V30 6707 C 635.052 0.753103 2.18167 0
M  V30 6708 C 636.022 -0.270549 1.63882 0
M  V30 6709 O 637.207 -0.149837 1.90211 0
M  V30 6710 C 634.347 0.191046 3.44571 0
M  V30 6711 C 633.46 1.26999 4.12911 0
M  V30 6712 C 632.595 0.669586 5.26963 0
M  V30 6713 C 631.634 1.72912 5.87169 0
M  V30 6714 N 630.771 1.14898 6.92635 0
M  V30 6715 H 635.611 1.65892 2.47556 0
M  V30 6716 H 633.148 0.828631 1.21541 0
M  V30 6717 H 635.106 -0.152712 4.1692 0
M  V30 6718 H 633.736 -0.677997 3.15599 0
M  V30 6719 H 632.788 1.73087 3.3874 0
M  V30 6720 H 634.1 2.07204 4.53727 0
M  V30 6721 H 633.254 0.275274 6.06075 0
M  V30 6722 H 631.993 -0.163895 4.87425 0
M  V30 6723 H 630.998 2.13286 5.06744 0
M  V30 6724 H 632.223 2.56544 6.28778 0
M  V30 6725 H 630.169 0.336956 6.55134 0
M  V30 6726 H 630.086 1.88786 7.32049 0
M  V30 6727 H 631.354 0.78121 7.75576 0
M  V30 6728 N 635.583 -1.29855 0.893053 0
M  V30 6729 C 636.86 -1.90694 0.435336 0
M  V30 6730 C 637.24 -1.8111 -1.08454 0
M  V30 6731 O 636.588 -1.23352 -1.92345 0
M  V30 6732 C 636.798 -3.36033 0.942472 0
M  V30 6733 C 638.146 -4.13083 0.982226 0
M  V30 6734 O 639.17 -3.4491 0.889686 0
M  V30 6735 O 638.029 -5.34896 1.12022 0
M  V30 6736 H 635.123 -0.815978 0.134567 0
M  V30 6737 H 637.669 -1.38367 0.982484 0
M  V30 6738 H 636.441 -3.37132 1.9864 0
M  V30 6739 H 636.064 -3.95828 0.374952 0
M  V30 6740 N 637.061 -0.65484 -1.43351 0
M  V30 6741 C 637.971 0.0363603 -2.34572 0
M  V30 6742 C 638.987 0.810432 -1.53974 0
M  V30 6743 O 640.163 0.757308 -1.86619 0
M  V30 6744 C 637.228 0.989733 -3.32273 0
M  V30 6745 C 636.289 0.212414 -4.28774 0
M  V30 6746 C 635.522 1.12038 -5.21808 0
M  V30 6747 O 635.745 2.35967 -5.19303 0
M  V30 6748 O 634.679 0.59191 -5.98982 0
M  V30 6749 H 638.505 -0.714527 -2.95175 0
M  V30 6750 H 636.09 -0.415029 -1.4352 0
M  V30 6751 H 637.972 1.53759 -3.92347 0
M  V30 6752 H 636.647 1.72082 -2.74171 0
M  V30 6753 H 635.554 -0.379062 -3.72175 0
M  V30 6754 H 636.887 -0.479138 -4.89862 0
M  V30 6755 N 638.539 1.52521 -0.396863 0
M  V30 6756 C 639.785 2.01971 0.183169 0
M  V30 6757 C 640.118 1.2825 1.45827 0
M  V30 6758 O 639.393 0.385179 1.90648 0
M  V30 6759 C 639.676 3.5736 0.443391 0
M  V30 6760 C 639.529 4.41743 -0.84753 0
M  V30 6761 C 640.848 4.22539 1.2308 0
M  V30 6762 H 637.967 0.734119 0.0650976 0
M  V30 6763 H 640.609 1.82519 -0.527918 0
M  V30 6764 H 638.759 3.74066 1.04914 0
M  V30 6765 H 640.431 4.36773 -1.48414 0
M  V30 6766 H 638.674 4.0845 -1.4612 0
M  V30 6767 H 639.345 5.48507 -0.620003 0
M  V30 6768 H 641.821 4.09857 0.718084 0
M  V30 6769 H 640.697 5.31227 1.38162 0
M  V30 6770 H 640.958 3.80675 2.24808 0
M  V30 6771 N 640.017 0.126909 1.57088 0
M  V30 6772 C 641.247 -0.535892 1.99529 0
M  V30 6773 C 641.655 -1.60259 1.00566 0
M  V30 6774 O 640.998 -1.83698 -0.00843269 0
M  V30 6775 C 641.06 -1.21374 3.38391 0
M  V30 6776 C 640.724 -0.294044 4.56053 0
M  V30 6777 C 641.721 0.470454 5.17767 0
M  V30 6778 C 639.406 -0.202808 5.0189 0
M  V30 6779 C 641.4 1.31384 6.23712 0
M  V30 6780 C 639.087 0.644203 6.07695 0
M  V30 6781 C 640.085 1.40115 6.68473 0
M  V30 6782 O 639.773 2.23408 7.72233 0
M  V30 6783 H 639.505 -0.145799 0.66009 0
M  V30 6784 H 642.059 0.212441 2.04298 0
M  V30 6785 H 640.289 -2.00931 3.30399 0
M  V30 6786 H 641.978 -1.77424 3.65069 0
M  V30 6787 H 642.744 0.409884 4.83265 0
M  V30 6788 H 638.623 -0.781688 4.54324 0
M  V30 6789 H 642.167 1.90514 6.71081 0
M  V30 6790 H 638.064 0.706137 6.41626 0
M  V30 6791 H 638.832 2.16436 7.89365 0
M  V30 6792 N 641.495 -1.56914 -0.146875 0
M  V30 6793 C 642.458 -1.97368 -1.16526 0
M  V30 6794 C 643.458 -0.860223 -1.35856 0
M  V30 6795 O 644.648 -1.12684 -1.32846 0
M  V30 6796 C 641.78 -2.28974 -2.52555 0
M  V30 6797 H 642.973 -2.88523 -0.818209 0
M  V30 6798 H 640.526 -1.5135 -0.390221 0
M  V30 6799 H 641.261 -1.40611 -2.92231 0
M  V30 6800 H 641.046 -3.10157 -2.39886 0
M  V30 6801 H 642.536 -2.61109 -3.25902 0
M  V30 6802 N 642.974 0.416227 -1.52004 0
M  V30 6803 C 644.22 1.16555 -1.6596 0
M  V30 6804 C 644.553 1.90347 -0.384906 0
M  V30 6805 O 643.828 1.84474 0.616405 0
M  V30 6806 C 644.111 2.1657 -2.87696 0
M  V30 6807 C 643.964 1.46722 -4.25197 0
M  V30 6808 C 645.283 3.17321 -3.04951 0
M  V30 6809 H 642.402 0.422369 -0.603965 0
M  V30 6810 H 645.044 0.452141 -1.84542 0
M  V30 6811 H 643.194 2.77411 -2.71985 0
M  V30 6812 H 644.866 0.89056 -4.52622 0
M  V30 6813 H 643.109 0.769263 -4.26925 0
M  V30 6814 H 643.78 2.19665 -5.0641 0
M  V30 6815 H 646.256 2.66552 -3.19514 0
M  V30 6816 H 645.132 3.84573 -3.91656 0
M  V30 6817 H 645.393 3.84643 -2.17951 0
M  V30 6818 N 644.452 1.42507 0.673017 0
M  V30 6819 C 645.399 1.46124 1.78651 0
M  V30 6820 C 646.369 0.313007 1.63124 0
M  V30 6821 O 647.554 0.517337 1.83653 0
M  V30 6822 C 644.694 1.3711 3.16694 0
M  V30 6823 C 643.807 2.61983 3.43495 0
M  V30 6824 C 642.942 2.45098 4.71275 0
M  V30 6825 C 641.981 3.65336 4.91117 0
M  V30 6826 N 641.118 3.47383 6.10139 0
M  V30 6827 H 645.958 2.4128 1.74895 0
M  V30 6828 H 643.495 1.19788 0.853766 0
M  V30 6829 H 645.453 1.29881 3.96468 0
M  V30 6830 H 644.083 0.45549 3.1957 0
M  V30 6831 H 643.135 2.79571 2.57961 0
M  V30 6832 H 644.447 3.51355 3.5405 0
M  V30 6833 H 643.601 2.35466 5.59143 0
M  V30 6834 H 642.34 1.53219 4.63007 0
M  V30 6835 H 641.345 3.754 4.0169 0
M  V30 6836 H 642.57 4.58199 5.01229 0
M  V30 6837 H 640.516 2.58222 6.0304 0
M  V30 6838 H 640.433 4.30344 6.21563 0
M  V30 6839 H 641.701 3.41565 7.00681 0
M  V30 6840 N 645.93 -0.909495 1.28709 0
M  V30 6841 C 647.176 -1.66151 1.16283 0
M  V30 6842 C 647.509 -1.92067 -0.287069 0
M  V30 6843 O 646.784 -1.52409 -1.20837 0
M  V30 6844 C 647.067 -3.01676 1.9663 0
M  V30 6845 C 646.92 -2.82888 3.49707 0
M  V30 6846 C 648.239 -4.02274 1.78504 0
M  V30 6847 H 645.358 -0.602966 0.423793 0
M  V30 6848 H 648 -1.05418 1.58073 0
M  V30 6849 H 646.15 -3.53515 1.61119 0
M  V30 6850 H 647.822 -2.38026 3.95147 0
M  V30 6851 H 646.065 -2.17862 3.75125 0
M  V30 6852 H 646.736 -3.79147 4.01187 0
M  V30 6853 H 649.212 -3.59511 2.09503 0
M  V30 6854 H 648.088 -4.95056 2.37088 0
M  V30 6855 H 648.349 -4.35903 0.737647 0
M  V30 6856 N 647.408 -1.11026 -1.11852 0
M  V30 6857 C 648.338 -0.786812 -2.19844 0
M  V30 6858 C 649.319 0.242935 -1.68356 0
M  V30 6859 O 650.504 0.107355 -1.93903 0
M  V30 6860 C 647.634 -0.224516 -3.46574 0
M  V30 6861 C 646.588 -1.18564 -4.1125 0
M  V30 6862 C 645.914 -0.484261 -5.32503 0
M  V30 6863 C 647.214 -2.53465 -4.56676 0
M  V30 6864 H 648.908 -1.68978 -2.47158 0
M  V30 6865 H 646.454 -0.813906 -1.18792 0
M  V30 6866 H 648.407 0.0139435 -4.21398 0
M  V30 6867 H 647.131 0.713722 -3.18706 0
M  V30 6868 H 645.79 -1.40966 -3.38414 0
M  V30 6869 H 645.438 0.458646 -5.00905 0
M  V30 6870 H 645.138 -1.12526 -5.76725 0
M  V30 6871 H 646.662 -0.254492 -6.10069 0
M  V30 6872 H 648.076 -2.35177 -5.22843 0
M  V30 6873 H 646.473 -3.13507 -5.11697 0
M  V30 6874 H 647.543 -3.13008 -3.70343 0
M  V30 6875 N 648.886 1.2938 -0.899927 0
M  V30 6876 C 649.833 2.27713 -0.376243 0
M  V30 6877 C 650.803 1.57016 0.541774 0
M  V30 6878 O 651.988 1.84997 0.466966 0
M  V30 6879 C 649.128 3.42889 0.39 0
M  V30 6880 C 648.241 4.28369 -0.558938 0
M  V30 6881 C 647.376 5.30726 0.224379 0
M  V30 6882 C 646.415 6.07862 -0.719068 0
M  V30 6883 N 645.552 7.02094 0.0298569 0
M  V30 6884 H 650.392 2.71888 -1.21988 0
M  V30 6885 H 647.929 1.33724 -0.612879 0
M  V30 6886 H 649.887 4.08443 0.850314 0
M  V30 6887 H 648.517 2.99743 1.19809 0
M  V30 6888 H 647.569 3.62986 -1.13777 0
M  V30 6889 H 648.881 4.82068 -1.2811 0
M  V30 6890 H 648.035 6.02098 0.745881 0
M  V30 6891 H 646.774 4.77759 0.979674 0
M  V30 6892 H 645.779 5.35353 -1.25207 0
M  V30 6893 H 647.004 6.62917 -1.4737 0
M  V30 6894 H 644.95 6.51496 0.767415 0
M  V30 6895 H 644.867 7.5335 -0.632391 0
M  V30 6896 H 646.135 7.77685 0.531615 0
M  V30 6897 N 650.364 0.662433 1.43002 0
M  V30 6898 C 651.311 -0.0235324 2.30788 0
M  V30 6899 C 652.281 -0.805342 1.4527 0
M  V30 6900 O 653.466 -0.78009 1.74124 0
M  V30 6901 C 650.606 -0.977545 3.30965 0
M  V30 6902 C 649.719 -0.190865 4.31578 0
M  V30 6903 C 648.854 -1.13951 5.18834 0
M  V30 6904 C 647.893 -0.343796 6.11134 0
M  V30 6905 N 647.03 -1.2445 6.90982 0
M  V30 6906 H 651.87 0.730921 2.88897 0
M  V30 6907 H 649.407 0.372197 1.42313 0
M  V30 6908 H 651.365 -1.54437 3.87563 0
M  V30 6909 H 649.995 -1.69877 2.74484 0
M  V30 6910 H 649.047 0.492388 3.772 0
M  V30 6911 H 650.359 0.427464 4.96965 0
M  V30 6912 H 649.513 -1.77666 5.80103 0
M  V30 6913 H 648.252 -1.79174 4.53595 0
M  V30 6914 H 647.257 0.30665 5.48944 0
M  V30 6915 H 648.482 0.304161 6.78419 0
M  V30 6916 H 646.428 -1.88336 6.28383 0
M  V30 6917 H 646.345 -0.680959 7.52927 0
M  V30 6918 H 647.613 -1.86952 7.56749 0
M  V30 6919 N 651.842 -1.52309 0.404946 0
M  V30 6920 C 653.119 -1.94237 -0.230544 0
M  V30 6921 C 653.499 -1.34154 -1.6299 0
M  V30 6922 O 652.847 -0.515713 -2.22604 0
M  V30 6923 C 653.057 -3.48166 -0.241106 0
M  V30 6924 C 654.405 -4.22074 -0.462488 0
M  V30 6925 O 655.429 -3.54754 -0.320644 0
M  V30 6926 O 654.288 -5.41443 -0.741708 0
M  V30 6927 H 651.382 -0.813766 -0.147358 0
M  V30 6928 H 653.928 -1.6333 0.460587 0
M  V30 6929 H 652.7 -3.84269 0.738467 0
M  V30 6930 H 652.323 -3.85422 -0.97651 0
M  V30 6931 N 653.32 -0.135238 -1.57019 0
M  V30 6932 C 654.566 0.519563 -1.96032 0
M  V30 6933 C 654.899 1.65284 -1.01955 0
M  V30 6934 O 654.174 1.94408 -0.059727 0
M  V30 6935 C 654.457 1.0369 -3.44848 0
M  V30 6936 C 654.31 -0.0940754 -4.49702 0
M  V30 6937 C 655.629 1.92254 -3.95887 0
M  V30 6938 H 652.748 0.18739 -0.712779 0
M  V30 6939 H 655.39 -0.214086 -1.8879 0
M  V30 6940 H 653.54 1.66209 -3.5115 0
M  V30 6941 H 655.212 -0.73 -4.55487 0
M  V30 6942 H 653.455 -0.754924 -4.27181 0
M  V30 6943 H 654.126 0.309419 -5.51132 0
M  V30 6944 H 656.602 1.39581 -3.9199 0
M  V30 6945 H 655.478 2.25364 -5.00502 0
M  V30 6946 H 655.739 2.85513 -3.37543 0
M  V30 6947 N 654.798 1.5699 0.138552 0
M  V30 6948 C 656.047 1.82998 0.848205 0
M  V30 6949 C 656.36 0.717829 1.81952 0
M  V30 6950 O 657.566 0.863756 2.57394 0
M  V30 6951 C 656.022 3.24379 1.55904 0
M  V30 6952 C 655.63 4.43552 0.62971 0
M  V30 6953 C 657.374 3.59654 2.25498 0
M  V30 6954 C 655.281 5.75957 1.34266 0
M  V30 6955 H 654.211 0.682495 0.320495 0
M  V30 6956 H 656.862 1.83222 0.100924 0
M  V30 6957 H 655.244 3.18567 2.35226 0
M  V30 6958 H 656.418 4.6062 -0.128882 0
M  V30 6959 H 654.733 4.16379 0.0417526 0
M  V30 6960 H 657.33 4.55837 2.79493 0
M  V30 6961 H 657.673 2.86124 3.02388 0
M  V30 6962 H 658.206 3.67164 1.53087 0
M  V30 6963 H 654.945 6.52604 0.615441 0
M  V30 6964 H 654.465 5.62811 2.07375 0
M  V30 6965 H 656.144 6.19046 1.88126 0
M  V30 6966 N 656.276 -0.40816 1.52223 0
M  V30 6967 C 657.206 -1.5042 1.78595 0
M  V30 6968 C 658.187 -1.57723 0.636974 0
M  V30 6969 O 659.372 -1.72982 0.882664 0
M  V30 6970 C 656.502 -2.88232 1.93751 0
M  V30 6971 C 655.456 -2.95779 3.09352 0
M  V30 6972 C 654.782 -4.35855 3.09732 0
M  V30 6973 C 656.082 -2.67175 4.48793 0
M  V30 6974 H 657.776 -1.28601 2.70374 0
M  V30 6975 H 655.322 -0.617221 1.30101 0
M  V30 6976 H 657.275 -3.64895 2.10783 0
M  V30 6977 H 655.999 -3.11347 0.986443 0
M  V30 6978 H 654.658 -2.21561 2.92072 0
M  V30 6979 H 654.306 -4.55981 2.12346 0
M  V30 6980 H 654.006 -4.41829 3.87377 0
M  V30 6981 H 655.53 -5.14451 3.28895 0
M  V30 6982 H 656.944 -3.3356 4.66273 0
M  V30 6983 H 655.341 -2.84523 5.28362 0
M  V30 6984 H 656.411 -1.62609 4.56822 0
M  V30 6985 N 657.755 -1.42862 -0.66545 0
M  V30 6986 C 658.687 -1.43026 -1.79098 0
M  V30 6987 C 659.7 -0.32803 -1.59461 0
M  V30 6988 O 660.889 -0.591709 -1.68407 0
M  V30 6989 C 657.989 -1.21566 -3.16346 0
M  V30 6990 C 657.162 -2.44399 -3.62751 0
M  V30 6991 C 656.221 -2.18344 -4.78761 0
M  V30 6992 O 655.247 -2.91611 -4.88827 0
M  V30 6993 N 656.449 -1.1924 -5.68122 0
M  V30 6994 H 659.214 -2.40045 -1.79439 0
M  V30 6995 H 656.775 -1.37861 -0.848872 0
M  V30 6996 H 658.767 -1.02037 -3.91625 0
M  V30 6997 H 657.337 -0.330368 -3.10849 0
M  V30 6998 H 656.557 -2.79433 -2.78048 0
M  V30 6999 H 657.845 -3.26173 -3.90498 0
M  V30 7000 H 657.243 -0.586603 -5.6265 0
M  V30 7001 H 655.8 -1.05698 -6.43173 0
M  V30 7002 N 659.233 0.902656 -1.29189 0
M  V30 7003 C 660.51 1.63296 -1.07674 0
M  V30 7004 C 660.89 2.07649 0.380137 0
M  V30 7005 O 660.238 1.82997 1.36837 0
M  V30 7006 C 660.448 2.81603 -2.06158 0
M  V30 7007 C 661.796 3.52359 -2.36914 0
M  V30 7008 O 662.82 2.91767 -2.04329 0
M  V30 7009 O 661.679 4.61586 -2.92576 0
M  V30 7010 H 658.773 0.716889 -0.41231 0
M  V30 7011 H 661.319 0.950984 -1.4055 0
M  V30 7012 H 660.091 2.46004 -3.04299 0
M  V30 7013 H 659.714 3.57508 -1.73993 0
M  V30 7014 N 660.711 1.11618 1.11262 0
M  V30 7015 C 661.988 0.777876 1.79467 0
M  V30 7016 C 662.368 -0.733774 1.97937 0
M  V30 7017 O 661.716 -1.66443 1.56554 0
M  V30 7018 C 661.926 1.5431 3.13032 0
M  V30 7019 C 663.274 1.72357 3.88044 0
M  V30 7020 O 664.298 1.5075 3.22727 0
M  V30 7021 O 663.157 2.08276 5.05256 0
M  V30 7022 H 660.251 0.282018 0.777428 0
M  V30 7023 H 662.797 1.21971 1.17988 0
M  V30 7024 H 661.569 2.57132 2.94956 0
M  V30 7025 H 661.192 1.09495 3.82226 0
M  V30 7026 N 662.189 -1.289 0.906776 0
M  V30 7027 C 663.466 -1.90221 0.455537 0
M  V30 7028 C 663.846 -1.82251 -1.06527 0
M  V30 7029 O 663.194 -1.25385 -1.91026 0
M  V30 7030 C 663.404 -3.35015 0.97806 0
M  V30 7031 C 664.752 -4.12018 1.02598 0
M  V30 7032 O 665.776 -3.43947 0.926218 0
M  V30 7033 O 664.635 -5.33677 1.17689 0
M  V30 7034 H 661.729 -0.814505 0.143214 0
M  V30 7035 H 664.275 -1.37317 0.997104 0
M  V30 7036 H 663.047 -3.35006 2.02204 0
M  V30 7037 H 662.67 -3.95408 0.416914 0
M  V30 7038 N 663.667 -0.670007 -1.42649 0
M  V30 7039 C 664.913 -0.190568 -2.01903 0
M  V30 7040 C 665.246 1.19817 -1.52832 0
M  V30 7041 O 664.521 1.80342 -0.728485 0
M  V30 7042 C 664.804 -0.21991 -3.59428 0
M  V30 7043 C 664.657 -1.64376 -4.18689 0
M  V30 7044 C 665.976 0.434519 -4.3795 0
M  V30 7045 H 663.095 -0.0707219 -0.733599 0
M  V30 7046 H 665.737 -0.853883 -1.69732 0
M  V30 7047 H 663.887 0.344894 -3.86966 0
M  V30 7048 H 665.559 -2.26044 -4.02122 0
M  V30 7049 H 663.802 -2.18591 -3.747 0
M  V30 7050 H 664.473 -1.61601 -5.27815 0
M  V30 7051 H 666.949 -0.0462156 -4.16074 0
M  V30 7052 H 665.825 0.38333 -5.4756 0
M  V30 7053 H 666.086 1.51135 -4.15464 0
M  V30 7054 N 665.145 1.52092 -0.413018 0
M  V30 7055 C 666.422 1.94356 0.22024 0
M  V30 7056 C 666.802 1.35017 1.62277 0
M  V30 7057 O 666.15 0.527511 2.22328 0
M  V30 7058 C 666.36 3.48289 0.222638 0
M  V30 7059 C 667.708 4.22313 0.440098 0
M  V30 7060 O 668.732 3.54919 0.301826 0
M  V30 7061 O 667.591 5.41829 0.712984 0
M  V30 7062 H 664.685 0.814536 0.14304 0
M  V30 7063 H 667.231 1.63083 -0.469242 0
M  V30 7064 H 666.003 3.83872 -0.758836 0
M  V30 7065 H 665.626 3.85934 0.956057 0
M  V30 7066 N 666.623 0.143563 1.56945 0
M  V30 7067 C 667.863 -0.511198 1.97904 0
M  V30 7068 C 668.227 -1.62262 1.0264 0
M  V30 7069 O 669.428 -2.338 1.32631 0
M  V30 7070 C 667.699 -1.00753 3.42905 0
M  V30 7071 S 669.258 -1.66737 4.05887 0
M  V30 7072 H 666.076 -0.165399 0.691494 0
M  V30 7073 H 668.678 0.234464 1.94089 0
M  V30 7074 H 667.382 -0.187817 4.0997 0
M  V30 7075 H 666.913 -1.7879 3.50425 0
M  V30 7076 H 668.928 -2.95444 3.98657 0
M  V30 7077 N 668.101 -1.57061 -0.130224 0
M  V30 7078 C 669.329 -1.88432 -0.854456 0
M  V30 7079 C 669.744 -0.733608 -1.73964 0
M  V30 7080 O 669.101 0.296029 -1.80083 0
M  V30 7081 C 669.152 -3.1918 -1.69724 0
M  V30 7082 O 668.873 -4.2982 -0.847705 0
M  V30 7083 C 670.374 -3.6418 -2.5276 0
M  V30 7084 H 667.594 -0.624193 -0.246221 0
M  V30 7085 H 670.138 -2.04159 -0.11798 0
M  V30 7086 H 668.293 -3.05156 -2.3866 0
M  V30 7087 H 668.707 -5.04689 -1.42792 0
M  V30 7088 H 670.181 -4.58457 -3.07443 0
M  V30 7089 H 670.658 -2.90285 -3.29592 0
M  V30 7090 H 671.264 -3.80954 -1.89087 0
M  V30 7091 N 669.579 0.400081 -1.52437 0
M  V30 7092 C 670.512 1.50929 -1.7116 0
M  V30 7093 C 671.49 1.52679 -0.559275 0
M  V30 7094 O 672.674 1.71251 -0.787735 0
M  V30 7095 C 669.801 2.89433 -1.75915 0
M  V30 7096 C 668.847 3.05556 -2.97553 0
M  V30 7097 S 669.68 2.77919 -4.57735 0
M  V30 7098 C 670.836 4.18636 -4.6529 0
M  V30 7099 H 671.069 1.3482 -2.64973 0
M  V30 7100 H 668.602 0.592245 -1.4259 0
M  V30 7101 H 670.56 3.69253 -1.7934 0
M  V30 7102 H 669.221 3.02877 -0.832137 0
M  V30 7103 H 668.414 4.0691 -2.97388 0
M  V30 7104 H 668.016 2.33615 -2.92062 0
M  V30 7105 H 670.308 5.12406 -4.43223 0
M  V30 7106 H 671.251 4.23821 -5.67258 0
M  V30 7107 H 671.659 4.04029 -3.94234 0
M  V30 7108 N 671.057 1.43213 0.657864 0
M  V30 7109 C 672.285 1.48015 1.44566 0
M  V30 7110 C 672.7 0.0965951 1.88553 0
M  V30 7111 O 672.057 -0.892221 1.59203 0
M  V30 7112 C 672.108 2.42199 2.68369 0
M  V30 7113 O 671.829 3.75173 2.26223 0
M  V30 7114 C 673.33 2.56195 3.61772 0
M  V30 7115 H 670.55 0.502861 0.444266 0
M  V30 7116 H 673.094 1.87907 0.806917 0
M  V30 7117 H 671.249 2.05514 3.28394 0
M  V30 7118 H 671.663 4.25776 3.06293 0
M  V30 7119 H 673.137 3.26182 4.4532 0
M  V30 7120 H 673.614 1.60534 4.0881 0
M  V30 7121 H 674.22 2.93671 3.07632 0
M  V30 7122 N 672.536 -0.895792 1.29666 0
M  V30 7123 C 673.446 -2.03329 1.17024 0
M  V30 7124 C 674.462 -1.73753 0.0925962 0
M  V30 7125 O 675.638 -1.99071 0.305431 0
M  V30 7126 C 672.703 -3.36072 0.851841 0
M  V30 7127 C 671.764 -3.7914 2.01373 0
M  V30 7128 C 670.997 -5.05549 1.71043 0
M  V30 7129 O 671.22 -5.66874 0.633213 0
M  V30 7130 O 670.154 -5.44764 2.5596 0
M  V30 7131 H 673.98 -2.16918 2.12556 0
M  V30 7132 H 671.565 -1.02007 1.09156 0
M  V30 7133 H 673.447 -4.15729 0.689006 0
M  V30 7134 H 672.122 -3.23616 -0.0736634 0
M  V30 7135 H 671.029 -3.00233 2.23183 0
M  V30 7136 H 672.362 -3.96186 2.92058 0
M  V30 7137 N 674.014 -1.12206 -1.10668 0
M  V30 7138 C 674.961 -0.787716 -2.16942 0
M  V30 7139 C 675.931 0.244442 -1.64291 0
M  V30 7140 O 677.116 0.119558 -1.90425 0
M  V30 7141 C 674.256 -0.24584 -3.44223 0
M  V30 7142 C 673.369 -1.33552 -4.10838 0
M  V30 7143 C 672.504 -0.753337 -5.25831 0
M  V30 7144 C 671.543 -1.82231 -5.84344 0
M  V30 7145 N 670.68 -1.25902 -6.90719 0
M  V30 7146 H 675.52 -1.69809 -2.44885 0
M  V30 7147 H 673.057 -0.847862 -1.20207 0
M  V30 7148 H 675.015 0.0863639 -4.17111 0
M  V30 7149 H 673.645 0.627702 -3.16638 0
M  V30 7150 H 672.697 -1.78454 -3.35944 0
M  V30 7151 H 674.009 -2.14396 -4.50373 0
M  V30 7152 H 673.163 -0.37166 -6.05561 0
M  V30 7153 H 671.902 0.0863297 -4.87624 0
M  V30 7154 H 670.907 -2.2132 -5.03287 0
M  V30 7155 H 672.132 -2.66515 -6.24617 0
M  V30 7156 H 670.078 -0.44114 -6.54515 0
M  V30 7157 H 669.995 -2.00408 -7.28953 0
M  V30 7158 H 671.263 -0.904498 -7.74235 0
M  V30 7159 N 675.492 1.28418 -0.913599 0
M  V30 7160 C 676.908 1.47411 -0.611728 0
M  V30 7161 C 677.108 1.83018 0.843008 0
M  V30 7162 O 676.164 1.93505 1.6221 0
M  V30 7163 C 677.477 2.57703 -1.5495 0
M  V30 7164 C 679.025 2.71572 -1.5562 0
M  V30 7165 C 679.5 3.85008 -2.48058 0
M  V30 7166 N 680.991 3.92361 -2.46184 0
M  V30 7167 C 681.726 4.79516 -3.14407 0
M  V30 7168 N 681.222 5.71262 -3.91958 0
M  V30 7169 N 683.015 4.73125 -3.03495 0
M  V30 7170 H 675.166 1.03585 -1.85429 0
M  V30 7171 H 677.429 0.515907 -0.795326 0
M  V30 7172 H 677.135 2.38298 -2.58663 0
M  V30 7173 H 677.009 3.54801 -1.28048 0
M  V30 7174 H 679.396 2.90366 -0.526441 0
M  V30 7175 H 679.477 1.75006 -1.86565 0
M  V30 7176 H 679.121 3.66969 -3.51136 0
M  V30 7177 H 679.051 4.80971 -2.14416 0
M  V30 7178 H 681.542 3.26749 -1.89851 0
M  V30 7179 H 681.855 6.34593 -4.41034 0
M  V30 7180 H 680.2 5.71103 -3.96063 0
M  V30 7181 H 683.391 4.00442 -2.42413 0
M  V30 7182 H 683.564 5.40834 -3.56935 0
M  V30 7183 N 676.97 0.677563 1.42291 0
M  V30 7184 C 678.219 0.198173 2.00724 0
M  V30 7185 C 678.532 -1.20325 1.54211 0
M  V30 7186 O 679.738 -1.77916 2.05081 0
M  V30 7187 C 678.194 0.303432 3.58619 0
M  V30 7188 C 677.802 1.70909 4.14119 0
M  V30 7189 C 679.546 -0.117103 4.24338 0
M  V30 7190 C 677.453 1.76696 5.64387 0
M  V30 7191 H 676.383 0.070329 0.750713 0
M  V30 7192 H 679.034 0.843147 1.62982 0
M  V30 7193 H 677.416 -0.409482 3.93877 0
M  V30 7194 H 678.59 2.44931 3.90315 0
M  V30 7195 H 676.905 2.07771 3.6086 0
M  V30 7196 H 679.502 -0.0940471 5.34617 0
M  V30 7197 H 679.845 -1.15283 4.00019 0
M  V30 7198 H 680.378 0.5449 3.9405 0
M  V30 7199 H 677.117 2.7826 5.93508 0
M  V30 7200 H 676.637 1.07034 5.90173 0
M  V30 7201 H 678.316 1.52166 6.28852 0
M  V30 7202 N 678.448 -1.51871 0.421078 0
M  V30 7203 C 679.378 -2.30231 -0.389363 0
M  V30 7204 C 680.359 -1.34946 -1.03555 0
M  V30 7205 O 681.544 -1.63859 -1.04229 0
M  V30 7206 C 678.674 -3.13247 -1.49979 0
M  V30 7207 C 677.628 -4.16677 -0.977966 0
M  V30 7208 C 676.954 -4.88112 -2.1829 0
M  V30 7209 C 678.254 -5.22295 -0.0236775 0
M  V30 7210 H 679.948 -2.98229 0.264524 0
M  V30 7211 H 677.494 -1.43424 0.12866 0
M  V30 7212 H 679.447 -3.66838 -2.07383 0
M  V30 7213 H 678.171 -2.4304 -2.18173 0
M  V30 7214 H 676.83 -3.64114 -0.426245 0
M  V30 7215 H 676.478 -4.14423 -2.85066 0
M  V30 7216 H 676.178 -5.58041 -1.84021 0
M  V30 7217 H 677.702 -5.44521 -2.76278 0
M  V30 7218 H 679.116 -5.71055 -0.506899 0
M  V30 7219 H 677.513 -5.99656 0.230782 0
M  V30 7220 H 678.583 -4.76131 0.917999 0
M  V30 7221 N 679.926 -0.151884 -1.56866 0
M  V30 7222 C 680.889 0.771861 -2.15812 0
M  V30 7223 C 681.889 1.17181 -1.10115 0
M  V30 7224 O 683.079 1.09194 -1.35729 0
M  V30 7225 C 680.211 2.04806 -2.7252 0
M  V30 7226 H 681.404 0.259021 -2.98779 0
M  V30 7227 H 678.957 0.097588 -1.55995 0
M  V30 7228 H 679.692 2.60445 -1.93233 0
M  V30 7229 H 679.477 1.77044 -3.49854 0
M  V30 7230 H 680.967 2.70771 -3.1792 0
M  V30 7231 N 681.404 1.57128 0.121893 0
M  V30 7232 C 682.334 2.03165 1.15092 0
M  V30 7233 C 683.315 0.915587 1.43356 0
M  V30 7234 O 684.5 1.1851 1.53847 0
M  V30 7235 C 681.63 2.43352 2.47784 0
M  V30 7236 C 680.584 3.58376 2.33989 0
M  V30 7237 C 679.91 3.84454 3.71617 0
M  V30 7238 C 681.21 4.90199 1.80283 0
M  V30 7239 H 682.904 2.89382 0.768023 0
M  V30 7240 H 680.45 1.39218 0.367998 0
M  V30 7241 H 682.403 2.74163 3.20019 0
M  V30 7242 H 681.127 1.54103 2.87958 0
M  V30 7243 H 679.786 3.2777 1.64202 0
M  V30 7244 H 679.434 2.92414 4.09271 0
M  V30 7245 H 679.134 4.61877 3.6324 0
M  V30 7246 H 680.658 4.17714 4.45362 0
M  V30 7247 H 682.072 5.19565 2.42333 0
M  V30 7248 H 680.469 5.71601 1.82735 0
M  V30 7249 H 681.539 4.78904 0.760184 0
M  V30 7250 N 682.882 -0.391992 1.52647 0
M  V30 7251 C 683.845 -1.46135 1.7657 0
M  V30 7252 C 684.845 -1.47701 0.635698 0
M  V30 7253 O 686.035 -1.48924 0.903728 0
M  V30 7254 C 683.167 -2.85443 1.86374 0
M  V30 7255 H 684.36 -1.26208 2.72051 0
M  V30 7256 H 681.913 -0.623549 1.43323 0
M  V30 7257 H 682.648 -3.10718 0.928685 0
M  V30 7258 H 682.433 -2.85708 2.68539 0
M  V30 7259 H 683.923 -3.62933 2.06566 0
M  V30 7260 N 684.36 -1.4356 -0.65026 0
M  V30 7261 C 685.776 -1.27025 -0.966269 0
M  V30 7262 C 685.976 -0.192117 -2.00582 0
M  V30 7263 O 685.032 0.428459 -2.48838 0
M  V30 7264 C 686.345 -2.63556 -1.44772 0
M  V30 7265 C 687.893 -2.71111 -1.56421 0
M  V30 7266 C 688.368 -4.08067 -2.07956 0
M  V30 7267 N 689.859 -4.10146 -2.15254 0
M  V30 7268 C 690.594 -5.12952 -2.56258 0
M  V30 7269 N 690.09 -6.26129 -2.96537 0
M  V30 7270 N 691.883 -5.00306 -2.56224 0
M  V30 7271 H 684.034 -2.12367 0.0375758 0
M  V30 7272 H 686.297 -0.946894 -0.0457782 0
M  V30 7273 H 686.003 -3.43429 -0.758271 0
M  V30 7274 H 685.877 -2.89152 -2.42221 0
M  V30 7275 H 688.264 -1.91569 -2.24467 0
M  V30 7276 H 688.345 -2.49277 -0.573967 0
M  V30 7277 H 687.989 -4.88077 -1.40511 0
M  V30 7278 H 687.919 -4.27266 -3.07817 0
M  V30 7279 H 690.41 -3.28453 -1.86887 0
M  V30 7280 H 690.723 -7.00403 -3.26582 0
M  V30 7281 H 689.068 -6.29597 -2.94334 0
M  V30 7282 H 692.259 -4.10952 -2.24135 0
M  V30 7283 H 692.432 -5.80553 -2.87857 0
M  V30 7284 N 685.838 0.888903 -1.30139 0
M  V30 7285 C 686.785 1.99422 -1.16188 0
M  V30 7286 C 687.755 1.66017 -0.0523869 0
M  V30 7287 O 688.94 1.89506 -0.221864 0
M  V30 7288 C 686.08 3.34325 -0.855612 0
M  V30 7289 C 685.193 3.80445 -2.0466 0
M  V30 7290 C 684.328 5.03975 -1.67876 0
M  V30 7291 C 683.367 5.42492 -2.83493 0
M  V30 7292 N 682.504 6.57206 -2.47032 0
M  V30 7293 H 687.344 2.10687 -2.10749 0
M  V30 7294 H 684.881 1.03165 -1.04859 0
M  V30 7295 H 686.839 4.11968 -0.658681 0
M  V30 7296 H 685.469 3.22756 0.0531155 0
M  V30 7297 H 684.521 2.98745 -2.3549 0
M  V30 7298 H 685.833 4.04933 -2.91257 0
M  V30 7299 H 684.987 5.89232 -1.44535 0
M  V30 7300 H 683.726 4.8135 -0.784431 0
M  V30 7301 H 682.731 4.55764 -3.07505 0
M  V30 7302 H 683.956 5.67093 -3.73607 0
M  V30 7303 H 681.902 6.36164 -1.601 0
M  V30 7304 H 681.819 6.81543 -3.27161 0
M  V30 7305 H 683.087 7.45704 -2.27038 0
M  V30 7306 N 687.317 1.12792 1.10072 0
M  V30 7307 C 688.267 0.768086 2.14673 0
M  V30 7308 C 689.251 -0.234716 1.59179 0
M  V30 7309 O 690.443 -0.039643 1.76956 0
M  V30 7310 C 687.572 0.228472 3.42539 0
M  V30 7311 C 686.658 1.25979 4.04957 0
M  V30 7312 N 687.049 2.4586 4.42025 0
M  V30 7313 C 685.347 1.10602 4.32069 0
M  V30 7314 C 686.048 3.11747 4.9111 0
M  V30 7315 N 685.024 2.39185 4.88151 0
M  V30 7316 H 688.826 1.68029 2.4113 0
M  V30 7317 H 686.34 1.00925 1.27232 0
M  V30 7318 H 688.337 -0.0475216 4.16873 0
M  V30 7319 H 686.997 -0.678136 3.1754 0
M  V30 7320 H 688.008 2.83215 4.33601 0
M  V30 7321 H 684.685 0.257021 4.16708 0
M  V30 7322 H 686.075 4.13862 5.29309 0
M  V30 7323 N 688.795 -1.27931 0.920396 0
M  V30 7324 C 690.206 -1.76707 0.602616 0
M  V30 7325 C 690.557 -1.75249 -0.882159 0
M  V30 7326 O 689.682 -1.35135 -1.69019 0
M  V30 7327 C 690.277 -3.20884 1.08714 0
M  V30 7328 C 688.836 -3.67356 0.820157 0
M  V30 7329 C 687.983 -2.47525 1.25006 0
M  V30 7330 H 690.934 -1.14301 1.10095 0
M  V30 7331 H 690.955 -3.78045 0.431535 0
M  V30 7332 H 690.467 -3.21913 2.1678 0
M  V30 7333 H 688.568 -3.7178 -0.247012 0
M  V30 7334 H 688.681 -4.57181 1.43257 0
M  V30 7335 H 687.045 -2.45765 0.668698 0
M  V30 7336 H 687.828 -2.51269 2.3392 0
M  V30 7337 N 690.273 -0.685099 -1.4193 0
M  V30 7338 C 691.503 -0.220052 -2.05425 0
M  V30 7339 C 691.911 1.13185 -1.51611 0
M  V30 7340 O 691.254 1.71631 -0.654875 0
M  V30 7341 C 691.316 -0.0888364 -3.5939 0
M  V30 7342 C 690.98 -1.37109 -4.35947 0
M  V30 7343 C 691.977 -2.30675 -4.65924 0
M  V30 7344 C 689.662 -1.62155 -4.75406 0
M  V30 7345 C 691.656 -3.47556 -5.34306 0
M  V30 7346 C 689.343 -2.79324 -5.43527 0
M  V30 7347 C 690.341 -3.71848 -5.72903 0
M  V30 7348 O 690.029 -4.86966 -6.39624 0
M  V30 7349 H 689.761 -0.102165 -0.668235 0
M  V30 7350 H 692.315 -0.935194 -1.82875 0
M  V30 7351 H 690.545 0.681981 -3.80639 0
M  V30 7352 H 692.234 0.337669 -4.04493 0
M  V30 7353 H 693 -2.12579 -4.3593 0
M  V30 7354 H 688.879 -0.910053 -4.51928 0
M  V30 7355 H 692.423 -4.19794 -5.57153 0
M  V30 7356 H 688.32 -2.97342 -5.72938 0
M  V30 7357 H 689.088 -4.86644 -6.58118 0
M  V30 7358 N 691.751 1.51645 -0.429126 0
M  V30 7359 C 692.681 2.30434 0.377148 0
M  V30 7360 C 693.662 1.35493 1.02838 0
M  V30 7361 O 694.847 1.6441 1.03359 0
M  V30 7362 C 691.977 3.14038 1.48315 0
M  V30 7363 C 690.931 4.1719 0.955855 0
M  V30 7364 C 690.257 4.89263 2.15698 0
M  V30 7365 C 691.557 5.223 -0.00402136 0
M  V30 7366 H 693.251 2.98085 -0.280336 0
M  V30 7367 H 690.797 1.43354 -0.136265 0
M  V30 7368 H 692.75 3.67933 2.05435 0
M  V30 7369 H 691.474 2.44193 2.16881 0
M  V30 7370 H 690.133 3.64335 0.406929 0
M  V30 7371 H 689.781 4.15929 2.82864 0
M  V30 7372 H 689.481 5.59009 1.81059 0
M  V30 7373 H 691.005 5.45978 2.73387 0
M  V30 7374 H 692.419 5.71315 0.476607 0
M  V30 7375 H 690.816 5.99525 -0.26258 0
M  V30 7376 H 691.886 4.75638 -0.943236 0
M  V30 7377 N 693.229 0.160201 1.56784 0
M  V30 7378 C 694.457 -0.494165 2.00912 0
M  V30 7379 C 694.872 -1.57548 1.04038 0
M  V30 7380 O 694.229 -1.82457 0.0394581 0
M  V30 7381 C 694.28 -1.08271 3.44905 0
M  V30 7382 O 694.001 -0.0445704 4.38077 0
M  V30 7383 C 695.502 -1.8164 4.04378 0
M  V30 7384 H 692.722 -0.127498 0.658776 0
M  V30 7385 H 695.266 0.258665 2.02858 0
M  V30 7386 H 693.421 -1.78609 3.4377 0
M  V30 7387 H 693.835 -0.477544 5.22322 0
M  V30 7388 H 695.309 -2.18094 5.07089 0
M  V30 7389 H 695.786 -2.70727 3.45838 0
M  V30 7390 H 696.392 -1.15969 4.09184 0
M  V30 7391 N 694.707 -1.5719 -0.113559 0
M  V30 7392 C 695.639 -1.97393 -1.16484 0
M  V30 7393 C 696.652 -0.873964 -1.37352 0
M  V30 7394 O 697.841 -1.15222 -1.36331 0
M  V30 7395 C 694.941 -2.26174 -2.52386 0
M  V30 7396 C 694.114 -3.57479 -2.52046 0
M  V30 7397 C 693.173 -3.74409 -3.69735 0
M  V30 7398 O 692.199 -4.46463 -3.53071 0
M  V30 7399 N 693.401 -3.13588 -4.88511 0
M  V30 7400 H 696.166 -2.88184 -0.822814 0
M  V30 7401 H 693.727 -1.59044 -0.302769 0
M  V30 7402 H 695.719 -2.3471 -3.29687 0
M  V30 7403 H 694.289 -1.41483 -2.7875 0
M  V30 7404 H 693.509 -3.60081 -1.60421 0
M  V30 7405 H 694.797 -4.43775 -2.48881 0
M  V30 7406 H 694.195 -2.55026 -5.04953 0
M  V30 7407 H 692.752 -3.27637 -5.63469 0
M  V30 7408 N 696.185 0.383891 -1.52853 0
M  V30 7409 C 697.115 1.47559 -1.80965 0
M  V30 7410 C 698.096 1.5669 -0.661986 0
M  V30 7411 O 699.281 1.71556 -0.910072 0
M  V30 7412 C 696.411 2.85114 -1.98312 0
M  V30 7413 C 695.365 2.9082 -3.14019 0
M  V30 7414 C 694.691 4.30873 -3.16627 0
M  V30 7415 C 695.991 2.60001 -4.52986 0
M  V30 7416 H 697.685 1.24283 -2.72386 0
M  V30 7417 H 695.231 0.596445 -1.31067 0
M  V30 7418 H 697.184 3.61496 -2.16561 0
M  V30 7419 H 695.908 3.09738 -1.03585 0
M  V30 7420 H 694.567 2.16886 -2.9556 0
M  V30 7421 H 694.215 4.52545 -2.19573 0
M  V30 7422 H 693.915 4.3561 -3.94357 0
M  V30 7423 H 695.439 5.09154 -3.37038 0
M  V30 7424 H 696.853 3.261 -4.71521 0
M  V30 7425 H 695.25 2.76081 -5.32822 0
M  V30 7426 H 696.32 1.5532 -4.59351 0
M  V30 7427 N 697.663 1.43903 0.642637 0
M  V30 7428 C 698.893 1.49323 1.4278 0
M  V30 7429 C 699.301 0.113058 1.88862 0
M  V30 7430 O 698.644 -0.889089 1.60751 0
M  V30 7431 C 698.706 2.3861 2.68897 0
M  V30 7432 C 698.37 3.85976 2.44687 0
M  V30 7433 C 699.367 4.7681 2.07239 0
M  V30 7434 C 697.052 4.30567 2.58683 0
M  V30 7435 C 699.046 6.10234 1.841 0
M  V30 7436 C 696.733 5.64042 2.35159 0
M  V30 7437 C 697.731 6.53693 1.97925 0
M  V30 7438 O 697.419 7.84698 1.74654 0
M  V30 7439 H 697.151 0.509109 0.444729 0
M  V30 7440 H 699.705 1.89425 0.794195 0
M  V30 7441 H 697.935 1.93415 3.34855 0
M  V30 7442 H 699.624 2.35112 3.30873 0
M  V30 7443 H 700.39 4.43635 1.95993 0
M  V30 7444 H 696.269 3.61054 2.86637 0
M  V30 7445 H 699.813 6.80171 1.54962 0
M  V30 7446 H 695.71 5.96782 2.46011 0
M  V30 7447 H 696.478 7.96382 1.88993 0
M  V30 7448 N 699.141 -0.881989 1.30609 0
M  V30 7449 C 700.381 -1.64817 1.20891 0
M  V30 7450 C 700.745 -1.90593 -0.232043 0
M  V30 7451 O 701.946 -2.64964 -0.452516 0
M  V30 7452 C 700.217 -2.95006 2.01758 0
M  V30 7453 S 701.776 -3.85953 2.08771 0
M  V30 7454 H 698.594 -0.565651 0.430767 0
M  V30 7455 H 701.196 -1.04665 1.65122 0
M  V30 7456 H 699.9 -2.73973 3.0556 0
M  V30 7457 H 699.431 -3.60189 1.582 0
M  V30 7458 H 701.446 -4.81037 1.21727 0
M  V30 7459 N 700.619 -1.13374 -1.09472 0
M  V30 7460 C 701.859 -0.905422 -1.83252 0
M  V30 7461 C 702.223 0.558396 -1.83701 0
M  V30 7462 O 703.424 0.904254 -2.53134 0
M  V30 7463 C 701.695 -1.47658 -3.25472 0
M  V30 7464 S 703.254 -1.38825 -4.16261 0
M  V30 7465 H 700.072 -0.326371 -0.631667 0
M  V30 7466 H 702.674 -1.44517 -1.31663 0
M  V30 7467 H 701.378 -2.53533 -3.22722 0
M  V30 7468 H 700.909 -0.934756 -3.82133 0
M  V30 7469 H 702.924 -0.366379 -4.94846 0
M  V30 7470 N 702.098 1.27442 -0.927168 0
M  V30 7471 C 703.345 1.94391 -0.567324 0
M  V30 7472 C 703.673 1.72875 0.891321 0
M  V30 7473 O 702.928 1.05071 1.65102 0
M  V30 7474 C 703.227 3.47413 -0.838994 0
M  V30 7475 C 702.893 3.89049 -2.2793 0
M  V30 7476 C 701.555 4.00127 -2.67305 0
M  V30 7477 C 703.907 4.10154 -3.21595 0
M  V30 7478 C 701.235 4.29697 -3.99471 0
M  V30 7479 C 703.587 4.41208 -4.53341 0
M  V30 7480 C 702.251 4.50499 -4.92551 0
M  V30 7481 H 701.521 0.711325 -0.207598 0
M  V30 7482 H 704.168 1.51523 -1.17103 0
M  V30 7483 H 702.473 3.91503 -0.152609 0
M  V30 7484 H 704.17 3.97354 -0.53955 0
M  V30 7485 H 700.76 3.80962 -1.96381 0
M  V30 7486 H 704.944 4.01036 -2.92377 0
M  V30 7487 H 700.2 4.35099 -4.29533 0
M  V30 7488 H 704.374 4.56486 -5.25922 0
M  V30 7489 H 702.001 4.73167 -5.94994 0
M  V30 7490 N 703.576 0.692616 1.41565 0
M  V30 7491 C 704.508 -0.0137132 2.29196 0
M  V30 7492 C 705.521 -0.747417 1.44629 0
M  V30 7493 O 706.71 -0.598611 1.68163 0
M  V30 7494 C 703.81 -1.04347 3.22436 0
M  V30 7495 C 702.983 -0.379985 4.35746 0
M  V30 7496 C 702.042 -1.31195 5.09583 0
M  V30 7497 O 701.068 -0.805455 5.63472 0
M  V30 7498 N 702.27 -2.64443 5.16769 0
M  V30 7499 H 705.035 0.738614 2.90456 0
M  V30 7500 H 702.596 0.538415 1.52685 0
M  V30 7501 H 704.588 -1.6686 3.687 0
M  V30 7502 H 703.158 -1.69736 2.62504 0
M  V30 7503 H 702.378 0.424975 3.91903 0
M  V30 7504 H 703.666 0.0814904 5.08735 0
M  V30 7505 H 703.064 -3.08114 4.74428 0
M  V30 7506 H 701.621 -3.22159 5.66619 0
M  V30 7507 N 705.054 -1.51416 0.437162 0
M  V30 7508 C 706.282 -2.06503 -0.128045 0
M  V30 7509 C 706.697 -1.30461 -1.36475 0
M  V30 7510 O 706.054 -0.364127 -1.78831 0
M  V30 7511 C 706.105 -3.58683 -0.450437 0
M  V30 7512 O 705.826 -4.31853 0.737186 0
M  V30 7513 C 707.327 -4.30284 -1.06633 0
M  V30 7514 H 704.547 -0.670952 -0.00800269 0
M  V30 7515 H 707.091 -1.94996 0.616193 0
M  V30 7516 H 705.246 -3.70106 -1.14457 0
M  V30 7517 H 705.66 -5.22467 0.461347 0
M  V30 7518 H 707.134 -5.37848 -1.24191 0
M  V30 7519 H 707.611 -3.88564 -2.0473 0
M  V30 7520 H 708.217 -4.23304 -0.411585 0
M  V30 7521 N 706.532 -0.168513 -1.56696 0
M  V30 7522 C 707.479 0.762875 -2.17828 0
M  V30 7523 C 708.449 1.22892 -1.11745 0
M  V30 7524 O 709.634 1.29759 -1.39883 0
M  V30 7525 C 706.774 1.9879 -2.82093 0
M  V30 7526 C 705.887 1.56568 -4.02629 0
M  V30 7527 C 705.022 2.74416 -4.54829 0
M  V30 7528 C 704.061 2.28671 -5.67782 0
M  V30 7529 N 703.198 3.39602 -6.14504 0
M  V30 7530 H 708.038 0.23479 -2.97074 0
M  V30 7531 H 705.575 0.104163 -1.46731 0
M  V30 7532 H 707.533 2.70636 -3.17509 0
M  V30 7533 H 706.163 2.48973 -2.05456 0
M  V30 7534 H 705.215 0.744067 -3.73052 0
M  V30 7535 H 706.527 1.18988 -4.844 0
M  V30 7536 H 705.681 3.54423 -4.92412 0
M  V30 7537 H 704.42 3.15254 -3.7211 0
M  V30 7538 H 703.425 1.4711 -5.29753 0
M  V30 7539 H 704.65 1.88894 -6.52301 0
M  V30 7540 H 702.596 3.80021 -5.34715 0
M  V30 7541 H 702.513 3.06105 -6.91257 0
M  V30 7542 H 703.781 4.19902 -6.56737 0
M  V30 7543 N 708.01 1.57248 0.105221 0
M  V30 7544 C 709.287 1.76566 0.841647 0
M  V30 7545 C 709.667 0.747566 1.9742 0
M  V30 7546 O 709.015 -0.225886 2.27381 0
M  V30 7547 C 709.225 3.22016 1.3456 0
M  V30 7548 C 710.573 3.84911 1.79244 0
M  V30 7549 O 711.597 3.25703 1.44207 0
M  V30 7550 O 710.456 4.89008 2.43995 0
M  V30 7551 H 707.55 0.723443 0.400698 0
M  V30 7552 H 710.096 1.69472 0.0878893 0
M  V30 7553 H 708.868 3.87644 0.533685 0
M  V30 7554 H 708.491 3.33703 2.16167 0
M  V30 7555 N 709.488 -0.375779 1.53054 0
M  V30 7556 C 710.904 -0.716764 1.426 0
M  V30 7557 C 711.104 -1.93651 0.556931 0
M  V30 7558 O 710.16 -2.52475 0.0354461 0
M  V30 7559 C 711.473 -0.939499 2.85646 0
M  V30 7560 C 713.021 -1.04015 2.95212 0
M  V30 7561 C 713.496 -1.29543 4.39298 0
M  V30 7562 N 714.987 -1.36335 4.42682 0
M  V30 7563 C 715.722 -1.57778 5.51266 0
M  V30 7564 N 715.218 -1.76604 6.69913 0
M  V30 7565 N 717.011 -1.60065 5.38828 0
M  V30 7566 H 709.162 0.42664 2.08071 0
M  V30 7567 H 711.425 0.128758 0.939215 0
M  V30 7568 H 711.131 -0.115189 3.51511 0
M  V30 7569 H 711.005 -1.85048 3.2869 0
M  V30 7570 H 713.392 -1.85501 2.29507 0
M  V30 7571 H 713.473 -0.106785 2.55577 0
M  V30 7572 H 713.117 -0.485611 5.05573 0
M  V30 7573 H 713.047 -2.24184 4.76497 0
M  V30 7574 H 715.538 -1.23441 3.5717 0
M  V30 7575 H 715.851 -1.9251 7.48438 0
M  V30 7576 H 714.196 -1.73802 6.72917 0
M  V30 7577 H 717.387 -1.44917 4.45103 0
M  V30 7578 H 717.56 -1.76435 6.23518 0
M  V30 7579 N 710.966 -1.44241 -0.634997 0
M  V30 7580 C 711.896 -1.53632 -1.7584 0
M  V30 7581 C 712.877 -0.389603 -1.65578 0
M  V30 7582 O 714.062 -0.609219 -1.84397 0
M  V30 7583 C 711.192 -1.47644 -3.14354 0
M  V30 7584 C 710.146 -2.60752 -3.394 0
M  V30 7585 C 709.472 -2.39817 -4.77904 0
M  V30 7586 C 710.772 -4.02921 -3.32343 0
M  V30 7587 H 712.466 -2.47662 -1.68238 0
M  V30 7588 H 710.012 -1.19197 -0.807969 0
M  V30 7589 H 711.965 -1.52815 -3.92716 0
M  V30 7590 H 710.689 -0.501284 -3.2273 0
M  V30 7591 H 709.348 -2.54965 -2.63417 0
M  V30 7592 H 708.996 -1.40502 -4.82978 0
M  V30 7593 H 708.696 -3.15649 -4.9562 0
M  V30 7594 H 710.22 -2.46799 -5.585 0
M  V30 7595 H 711.634 -4.10098 -4.00615 0
M  V30 7596 H 710.031 -4.78925 -3.61595 0
M  V30 7597 H 711.101 -4.26766 -2.30215 0
M  V30 7598 N 712.444 0.87505 -1.31075 0
M  V30 7599 C 713.691 1.62768 -1.20469 0
M  V30 7600 C 714.019 1.93034 0.23834 0
M  V30 7601 O 713.274 1.55693 1.18567 0
M  V30 7602 C 713.573 2.96948 -1.98888 0
M  V30 7603 C 713.239 2.86195 -3.4843 0
M  V30 7604 C 711.901 2.82969 -3.89207 0
M  V30 7605 C 714.253 2.73599 -4.43614 0
M  V30 7606 C 711.581 2.64999 -5.23443 0
M  V30 7607 C 713.933 2.57166 -5.77969 0
M  V30 7608 C 712.597 2.52321 -6.17973 0
M  V30 7609 H 711.867 0.595611 -0.440827 0
M  V30 7610 H 714.514 1.01665 -1.62285 0
M  V30 7611 H 712.819 3.62058 -1.49737 0
M  V30 7612 H 714.516 3.54164 -1.88067 0
M  V30 7613 H 711.106 2.8952 -3.16032 0
M  V30 7614 H 715.29 2.7515 -4.13045 0
M  V30 7615 H 710.546 2.5967 -5.53517 0
M  V30 7616 H 714.72 2.46396 -6.51354 0
M  V30 7617 H 712.347 2.38156 -7.21932 0
M  V30 7618 N 713.922 1.13953 1.08869 0
M  V30 7619 C 715.169 0.90481 1.81161 0
M  V30 7620 C 715.497 -0.568824 1.85996 0
M  V30 7621 O 714.752 -1.43723 1.32823 0
M  V30 7622 C 715.051 1.44495 3.26888 0
M  V30 7623 C 714.717 2.93641 3.42178 0
M  V30 7624 C 713.379 3.34361 3.46059 0
M  V30 7625 C 715.731 3.89568 3.46246 0
M  V30 7626 C 713.059 4.69681 3.51592 0
M  V30 7627 C 715.411 5.2474 3.53314 0
M  V30 7628 C 714.075 5.64979 3.55465 0
M  V30 7629 H 713.345 0.331094 0.662916 0
M  V30 7630 H 715.992 1.42242 1.28217 0
M  V30 7631 H 714.297 0.848169 3.82509 0
M  V30 7632 H 715.994 1.23934 3.81368 0
M  V30 7633 H 712.584 2.61156 3.39846 0
M  V30 7634 H 716.768 3.59192 3.42483 0
M  V30 7635 H 712.024 5.00224 3.51547 0
M  V30 7636 H 716.198 5.98882 3.55406 0
M  V30 7637 H 713.825 6.69821 3.59505 0
M  V30 7638 N 715.4 -1.26948 0.933913 0
M  V30 7639 C 716.646 -1.94374 0.57848 0
M  V30 7640 C 716.979 -1.73166 -0.879048 0
M  V30 7641 O 716.254 -1.06438 -1.62792 0
M  V30 7642 C 716.537 -3.4834 0.912739 0
M  V30 7643 C 716.39 -3.78866 2.42448 0
M  V30 7644 C 717.709 -4.38062 0.423003 0
M  V30 7645 H 714.828 -0.705959 0.211639 0
M  V30 7646 H 717.47 -1.49951 1.16682 0
M  V30 7647 H 715.62 -3.86309 0.412058 0
M  V30 7648 H 717.292 -3.50654 2.99733 0
M  V30 7649 H 715.535 -3.25198 2.87104 0
M  V30 7650 H 716.206 -4.86458 2.60887 0
M  V30 7651 H 718.682 -4.0728 0.852191 0
M  V30 7652 H 717.558 -5.44599 0.685776 0
M  V30 7653 H 717.819 -4.36886 -0.676994 0
M  V30 7654 N 716.879 -0.700114 -1.41195 0
M  V30 7655 C 717.812 0.0129614 -2.28196 0
M  V30 7656 C 718.79 0.783367 -1.42486 0
M  V30 7657 O 719.974 0.773238 -1.71911 0
M  V30 7658 C 717.101 1.02575 -3.22794 0
M  V30 7659 C 716.147 0.347977 -4.25078 0
M  V30 7660 S 716.98 -0.912938 -5.27661 0
M  V30 7661 C 718.136 0.0981362 -6.25823 0
M  V30 7662 H 718.369 -0.724927 -2.88326 0
M  V30 7663 H 715.902 -0.490554 -1.464 0
M  V30 7664 H 717.86 1.60491 -3.77826 0
M  V30 7665 H 716.521 1.73624 -2.61751 0
M  V30 7666 H 715.714 1.11305 -4.91556 0
M  V30 7667 H 715.316 -0.15823 -3.73665 0
M  V30 7668 H 717.608 0.949965 -6.70807 0
M  V30 7669 H 718.551 -0.532838 -7.06092 0
M  V30 7670 H 718.959 0.454944 -5.62664 0
M  V30 7671 N 718.357 1.51182 -0.445186 0
M  V30 7672 C 719.267 2.31692 0.368255 0
M  V30 7673 C 720.283 1.40942 1.02036 0
M  V30 7674 O 721.459 1.74011 1.01401 0
M  V30 7675 C 718.524 3.14903 1.45041 0
M  V30 7676 C 717.585 4.21442 0.817615 0
M  V30 7677 C 716.818 5.00677 1.8482 0
M  V30 7678 O 717.041 4.80644 3.07145 0
M  V30 7679 O 715.975 5.84559 1.43438 0
M  V30 7680 H 719.801 3.0232 -0.289219 0
M  V30 7681 H 717.386 1.47951 -0.207555 0
M  V30 7682 H 719.268 3.66612 2.07783 0
M  V30 7683 H 717.943 2.47031 2.09182 0
M  V30 7684 H 716.85 3.73791 0.151931 0
M  V30 7685 H 718.183 4.9171 0.219564 0
M  V30 7686 N 719.835 0.176821 1.56605 0
M  V30 7687 C 721.065 -0.472142 2.01133 0
M  V30 7688 C 721.473 -1.56979 1.05614 0
M  V30 7689 O 720.816 -1.83632 0.0500137 0
M  V30 7690 C 720.878 -1.10547 3.42081 0
M  V30 7691 C 720.542 -0.148806 4.56758 0
M  V30 7692 C 721.539 0.634939 5.16008 0
M  V30 7693 C 719.224 -0.0430325 5.02282 0
M  V30 7694 C 721.218 1.5116 6.19217 0
M  V30 7695 C 718.905 0.83721 6.05338 0
M  V30 7696 C 719.903 1.61311 6.63677 0
M  V30 7697 O 719.591 2.47863 7.64735 0
M  V30 7698 H 719.323 -0.124725 0.664394 0
M  V30 7699 H 721.877 0.277329 2.03519 0
M  V30 7700 H 720.107 -1.90318 3.36625 0
M  V30 7701 H 721.796 -1.6572 3.70529 0
M  V30 7702 H 722.562 0.563424 4.81716 0
M  V30 7703 H 718.441 -0.636753 4.56581 0
M  V30 7704 H 721.985 2.11767 6.64681 0
M  V30 7705 H 717.882 0.909908 6.39055 0
M  V30 7706 H 718.65 2.4144 7.8208 0
M  V30 7707 N 721.313 -1.57302 -0.09688 0
M  V30 7708 C 722.559 -1.86273 -0.801885 0
M  V30 7709 C 722.892 -0.765694 -1.78468 0
M  V30 7710 O 722.167 0.226495 -1.93177 0
M  V30 7711 C 722.45 -3.25876 -1.53221 0
M  V30 7712 C 722.303 -4.46205 -0.567529 0
M  V30 7713 C 723.622 -3.63352 -2.48321 0
M  V30 7714 H 720.741 -0.67752 -0.29006 0
M  V30 7715 H 723.383 -1.89887 -0.0655577 0
M  V30 7716 H 721.533 -3.22926 -2.15988 0
M  V30 7717 H 723.205 -4.6127 0.0529982 0
M  V30 7718 H 721.448 -4.33636 0.119233 0
M  V30 7719 H 722.119 -5.40608 -1.11564 0
M  V30 7720 H 724.595 -3.67234 -1.95648 0
M  V30 7721 H 723.471 -4.61968 -2.9644 0
M  V30 7722 H 723.732 -2.91941 -3.31998 0
M  V30 7723 N 722.791 0.367657 -1.53252 0
M  V30 7724 C 723.739 1.47061 -1.8021 0
M  V30 7725 C 724.733 1.55539 -0.671112 0
M  V30 7726 O 725.939 1.58451 -0.854014 0
M  V30 7727 H 722.314 0.489868 -0.570555 0
M  V30 7728 H 724.285 1.21527 -2.72532 0
M  V30 7729 C 723.034 2.83924 -2.00706 0
M  V30 7730 H 722.357 2.78158 -2.87172 0
M  V30 7731 H 723.797 3.60281 -2.23547 0
M  V30 7732 C 722.256 3.27613 -0.785568 0
M  V30 7733 O 722.786 4.01691 0.0267459 0
M  V30 7734 N 720.992 2.84134 -0.609597 0
M  V30 7735 H 720.539 2.24017 -1.27178 0
M  V30 7736 H 720.497 3.13723 0.206281 0
M  V30 7737 N 724.269 1.44576 0.627338 0
M  V30 7738 C 725.517 1.47267 1.38408 0
M  V30 7739 C 725.838 0.107971 1.94701 0
M  V30 7740 O 725.108 -0.860206 1.76004 0
M  V30 7741 H 723.688 0.542276 0.513756 0
M  V30 7742 H 726.35 1.80383 0.738099 0
M  V30 7743 H 725.446 2.20025 2.21349 0
M  V30 7744 N 725.747 -0.868086 1.31537 0
M  V30 7745 C 726.995 -1.61807 1.21091 0
M  V30 7746 C 727.316 -1.93631 -0.230623 0
M  V30 7747 O 726.586 -1.5846 -1.15183 0
M  V30 7748 H 725.166 -0.599854 0.445178 0
M  V30 7749 H 727.828 -1.03915 1.64887 0
M  V30 7750 H 726.924 -2.56088 1.78396 0
M  V30 7751 N 727.225 -1.14528 -1.08264 0
M  V30 7752 C 728.502 -0.825185 -1.77342 0
M  V30 7753 C 728.882 0.681037 -1.99813 0
M  V30 7754 O 728.23 1.62234 -1.60912 0
M  V30 7755 C 728.44 -1.62556 -3.08831 0
M  V30 7756 C 729.788 -1.82585 -3.83338 0
M  V30 7757 O 730.812 -1.59254 -3.18617 0
M  V30 7758 O 729.671 -2.21598 -4.99556 0
M  V30 7759 H 726.765 -0.302531 -0.769678 0
M  V30 7760 H 729.311 -1.25056 -1.14713 0
M  V30 7761 H 728.083 -2.64862 -2.88035 0
M  V30 7762 H 727.706 -1.1959 -3.79189 0
M  V30 7763 N 728.703 1.26451 -0.940633 0
M  V30 7764 C 729.633 2.28773 -0.467479 0
M  V30 7765 C 730.614 1.63218 0.478955 0
M  V30 7766 O 731.799 1.90427 0.380929 0
M  V30 7767 C 728.929 3.46259 0.268656 0
M  V30 7768 C 727.883 4.23898 -0.591171 0
M  V30 7769 C 727.209 5.33993 0.274891 0
M  V30 7770 C 728.509 4.87974 -1.86223 0
M  V30 7771 H 730.203 2.68601 -1.32265 0
M  V30 7772 H 727.749 1.29123 -0.637436 0
M  V30 7773 H 729.702 4.16951 0.610696 0
M  V30 7774 H 728.426 3.05383 1.15796 0
M  V30 7775 H 727.085 3.54969 -0.916098 0
M  V30 7776 H 726.733 4.89358 1.16353 0
M  V30 7777 H 726.433 5.86849 -0.297006 0
M  V30 7778 H 727.957 6.07523 0.612213 0
M  V30 7779 H 729.371 5.50883 -1.58747 0
M  V30 7780 H 727.768 5.50945 -2.37866 0
M  V30 7781 H 728.838 4.10945 -2.57394 0
M  V30 7782 N 730.181 0.707592 1.40822 0
M  V30 7783 C 731.114 -0.000859377 2.282 0
M  V30 7784 C 732.092 -0.7758 1.42899 0
M  V30 7785 O 733.276 -0.76411 1.72318 0
M  V30 7786 C 730.403 -1.00861 3.23334 0
M  V30 7787 C 729.449 -0.32543 4.25257 0
M  V30 7788 S 730.282 0.940908 5.27169 0
M  V30 7789 C 731.438 -0.0649459 6.25866 0
M  V30 7790 H 731.671 0.740207 2.87938 0
M  V30 7791 H 729.204 0.498311 1.46138 0
M  V30 7792 H 731.162 -1.58485 3.78672 0
M  V30 7793 H 729.823 -1.72233 2.62668 0
M  V30 7794 H 729.016 -1.08697 4.92139 0
M  V30 7795 H 728.618 0.178044 3.73576 0
M  V30 7796 H 730.91 -0.914377 6.71301 0
M  V30 7797 H 731.853 0.570276 7.058 0
M  V30 7798 H 732.261 -0.425098 5.62897 0
M  V30 7799 N 731.66 -1.50943 0.453197 0
M  V30 7800 C 732.907 -2.02212 -0.107922 0
M  V30 7801 C 733.235 -1.33639 -1.41318 0
M  V30 7802 O 732.49 -0.445154 -1.9057 0
M  V30 7803 C 732.789 -3.55603 -0.357944 0
M  V30 7804 C 732.455 -4.42556 0.863427 0
M  V30 7805 C 731.117 -4.6604 1.19834 0
M  V30 7806 C 733.469 -4.93468 1.67747 0
M  V30 7807 C 730.797 -5.37681 2.34768 0
M  V30 7808 C 733.149 -5.6637 2.81793 0
M  V30 7809 C 731.813 -5.88113 3.1572 0
M  V30 7810 H 731.083 -0.739947 -0.0394916 0
M  V30 7811 H 733.73 -1.81738 0.60363 0
M  V30 7812 H 732.035 -3.74495 -1.15156 0
M  V30 7813 H 733.732 -3.92821 -0.805781 0
M  V30 7814 H 730.322 -4.24485 0.592478 0
M  V30 7815 H 734.506 -4.75194 1.43192 0
M  V30 7816 H 729.762 -5.52727 2.61348 0
M  V30 7817 H 733.936 -6.04806 3.45229 0
M  V30 7818 H 731.563 -6.43404 4.04889 0
M  V30 7819 N 733.138 -0.185124 -1.56509 0
M  V30 7820 C 734.07 0.771401 -2.15829 0
M  V30 7821 C 735.083 1.18392 -1.11747 0
M  V30 7822 O 736.272 1.12137 -1.38879 0
M  V30 7823 C 733.372 2.05169 -2.69739 0
M  V30 7824 C 732.545 1.80056 -3.98621 0
M  V30 7825 C 731.604 2.92435 -4.37456 0
M  V30 7826 O 730.63 2.62473 -5.05071 0
M  V30 7827 N 731.832 4.20554 -4.00143 0
M  V30 7828 H 734.597 0.264184 -2.98533 0
M  V30 7829 H 732.158 -0.00281069 -1.619 0
M  V30 7830 H 734.15 2.7947 -2.92709 0
M  V30 7831 H 732.72 2.47041 -1.91545 0
M  V30 7832 H 731.94 0.895862 -3.83885 0
M  V30 7833 H 733.228 1.60662 -4.82768 0
M  V30 7834 H 732.626 4.47753 -3.45736 0
M  V30 7835 H 731.183 4.91514 -4.28085 0
M  V30 7836 N 734.616 1.57351 0.0885366 0
M  V30 7837 C 735.865 1.85604 0.789556 0
M  V30 7838 C 736.178 0.775352 1.79576 0
M  V30 7839 O 737.384 0.945206 2.54515 0
M  V30 7840 C 735.84 3.29175 1.45506 0
M  V30 7841 C 735.448 4.45331 0.488278 0
M  V30 7842 C 737.192 3.66646 2.13942 0
M  V30 7843 C 735.099 5.79937 1.15874 0
M  V30 7844 H 734.029 0.692346 0.298619 0
M  V30 7845 H 736.68 1.83451 0.0425821 0
M  V30 7846 H 735.062 3.25889 2.24972 0
M  V30 7847 H 736.236 4.59977 -0.275359 0
M  V30 7848 H 734.551 4.16301 -0.0907363 0
M  V30 7849 H 737.148 4.64498 2.6485 0
M  V30 7850 H 737.491 2.956 2.93132 0
M  V30 7851 H 738.024 3.71848 1.41328 0
M  V30 7852 H 734.763 6.54232 0.407508 0
M  V30 7853 H 734.283 5.69123 1.89364 0
M  V30 7854 H 735.962 6.24718 1.68336 0
M  V30 7855 N 736.094 -0.359525 1.53444 0
M  V30 7856 C 737.026 -1.46098 1.76602 0
M  V30 7857 C 738.039 -1.49395 0.646912 0
M  V30 7858 O 739.228 -1.52765 0.923307 0
M  V30 7859 C 736.328 -2.84836 1.83635 0
M  V30 7860 C 735.501 -3.05164 3.13358 0
M  V30 7861 C 734.56 -4.24051 3.11556 0
M  V30 7862 O 733.586 -4.18935 3.85334 0
M  V30 7863 N 734.788 -5.31775 2.328 0
M  V30 7864 H 737.553 -1.2661 2.71643 0
M  V30 7865 H 735.114 -0.549294 1.52297 0
M  V30 7866 H 737.106 -3.62516 1.799 0
M  V30 7867 H 735.676 -2.97542 0.958509 0
M  V30 7868 H 734.896 -2.15091 3.30348 0
M  V30 7869 H 736.184 -3.15619 3.99076 0
M  V30 7870 H 735.582 -5.38796 1.7238 0
M  V30 7871 H 734.139 -6.0801 2.34877 0
M  V30 7872 N 737.572 -1.44907 -0.619662 0
M  V30 7873 C 738.988 -1.29046 -0.939107 0
M  V30 7874 C 739.188 -0.23462 -2.00129 0
M  V30 7875 O 738.244 0.37558 -2.49691 0
M  V30 7876 C 739.557 -2.66567 -1.39149 0
M  V30 7877 C 741.105 -2.74368 -1.50635 0
M  V30 7878 C 741.58 -4.12386 -1.99253 0
M  V30 7879 N 743.071 -4.1462 -2.06506 0
M  V30 7880 C 743.806 -5.18272 -2.4532 0
M  V30 7881 N 743.302 -6.32278 -2.83189 0
M  V30 7882 N 745.095 -5.05628 -2.45554 0
M  V30 7883 H 737.246 -2.12239 0.0826135 0
M  V30 7884 H 739.509 -0.947652 -0.0256829 0
M  V30 7885 H 739.215 -3.4496 -0.685254 0
M  V30 7886 H 739.089 -2.94224 -2.36034 0
M  V30 7887 H 741.476 -1.96287 -2.20353 0
M  V30 7888 H 741.557 -2.50439 -0.520963 0
M  V30 7889 H 741.201 -4.90947 -1.30127 0
M  V30 7890 H 741.131 -4.33699 -2.98684 0
M  V30 7891 H 743.622 -3.32343 -1.79878 0
M  V30 7892 H 743.935 -7.07172 -3.11652 0
M  V30 7893 H 742.28 -6.35699 -2.80913 0
M  V30 7894 H 745.471 -4.15613 -2.15367 0
M  V30 7895 H 745.644 -5.86529 -2.75478 0
M  V30 7896 N 739.05 0.861098 -1.31996 0
M  V30 7897 C 740.275 1.65264 -1.2531 0
M  V30 7898 C 740.7 1.87265 0.177007 0
M  V30 7899 O 740.058 1.4208 1.12619 0
M  V30 7900 C 740.106 2.99284 -2.0115 0
M  V30 7901 O 739.21 3.89508 -1.3549 0
M  V30 7902 H 738.551 0.50409 -0.432192 0
M  V30 7903 H 741.081 1.07297 -1.74208 0
M  V30 7904 H 741.091 3.49154 -2.11081 0
M  V30 7905 H 739.766 2.82591 -3.05148 0
M  V30 7906 H 738.343 3.47966 -1.34066 0
M  V30 7907 N 740.528 1.15101 1.07655 0
M  V30 7908 C 741.944 0.893004 1.32279 0
M  V30 7909 C 742.144 -0.461701 1.96139 0
M  V30 7910 O 741.2 -1.20431 2.21929 0
M  V30 7911 C 742.513 2.03161 2.21689 0
M  V30 7912 C 744.061 2.06579 2.35147 0
M  V30 7913 C 744.536 3.19754 3.27905 0
M  V30 7914 N 746.027 3.19382 3.35484 0
M  V30 7915 C 746.762 4.03592 4.07309 0
M  V30 7916 N 746.258 4.97859 4.81776 0
M  V30 7917 N 748.051 3.91626 4.03219 0
M  V30 7918 H 740.202 2.02341 0.645886 0
M  V30 7919 H 742.465 0.882127 0.347211 0
M  V30 7920 H 742.171 3.00934 1.82021 0
M  V30 7921 H 742.045 1.96132 3.22199 0
M  V30 7922 H 744.432 1.09408 2.74069 0
M  V30 7923 H 744.513 2.17676 1.34353 0
M  V30 7924 H 744.157 4.17175 2.89702 0
M  V30 7925 H 744.087 3.05893 4.28645 0
M  V30 7926 H 746.578 2.51112 2.82403 0
M  V30 7927 H 746.891 5.58563 5.34067 0
M  V30 7928 H 745.236 5.0185 4.80803 0
M  V30 7929 H 748.427 3.17295 3.44154 0
M  V30 7930 H 748.6 4.57479 4.5893 0
M  V30 7931 N 742.006 -1.2595 0.947325 0
M  V30 7932 C 742.953 -2.26159 0.460497 0
M  V30 7933 C 743.923 -1.58919 -0.483125 0
M  V30 7934 O 745.108 -1.86603 -0.397983 0
M  V30 7935 C 742.248 -3.441 -0.26247 0
M  V30 7936 C 741.361 -4.25999 0.717539 0
M  V30 7937 C 740.496 -5.31193 -0.0272486 0
M  V30 7938 C 739.535 -6.04774 0.944177 0
M  V30 7939 N 738.672 -7.01721 0.230741 0
M  V30 7940 H 743.512 -2.67173 1.31995 0
M  V30 7941 H 741.049 -1.31358 0.662088 0
M  V30 7942 H 743.007 -4.11317 -0.698137 0
M  V30 7943 H 741.637 -3.03983 -1.08602 0
M  V30 7944 H 740.689 -3.58513 1.27171 0
M  V30 7945 H 742.001 -4.76981 1.45913 0
M  V30 7946 H 741.155 -6.04451 -0.521903 0
M  V30 7947 H 739.894 -4.81066 -0.801682 0
M  V30 7948 H 738.899 -5.30338 1.4499 0
M  V30 7949 H 740.124 -6.56991 1.71872 0
M  V30 7950 H 738.07 -6.53895 -0.525088 0
M  V30 7951 H 737.987 -7.50484 0.911556 0
M  V30 7952 H 739.255 -7.79122 -0.242616 0
M  V30 7953 N 743.484 -0.715051 -1.40445 0
M  V30 7954 C 744.731 -0.254328 -2.00897 0
M  V30 7955 C 745.059 1.15228 -1.56693 0
M  V30 7956 O 744.314 1.7958 -0.777786 0
M  V30 7957 C 744.613 -0.281791 -3.56287 0
M  V30 7958 C 744.279 -1.63862 -4.20071 0
M  V30 7959 C 742.941 -2.01003 -4.37208 0
M  V30 7960 C 745.293 -2.53039 -4.55654 0
M  V30 7961 C 742.621 -3.26869 -4.8721 0
M  V30 7962 C 744.973 -3.78256 -5.07055 0
M  V30 7963 C 743.637 -4.15515 -5.22401 0
M  V30 7964 H 742.907 -0.0930652 -0.735133 0
M  V30 7965 H 745.554 -0.917977 -1.68064 0
M  V30 7966 H 743.859 0.465428 -3.89026 0
M  V30 7967 H 745.556 0.0925158 -4.00893 0
M  V30 7968 H 742.146 -1.33979 -4.07121 0
M  V30 7969 H 746.33 -2.2562 -4.42051 0
M  V30 7970 H 741.586 -3.55706 -4.97276 0
M  V30 7971 H 745.76 -4.47528 -5.33565 0
M  V30 7972 H 743.387 -5.13114 -5.60909 0
M  V30 7973 N 744.962 1.50701 -0.461195 0
M  V30 7974 C 746.239 1.94958 0.158296 0
M  V30 7975 C 746.619 1.40111 1.57899 0
M  V30 7976 O 745.967 0.597976 2.20537 0
M  V30 7977 C 746.177 3.48821 0.11172 0
M  V30 7978 C 747.525 4.23499 0.30552 0
M  V30 7979 O 748.549 3.557 0.188758 0
M  V30 7980 O 747.408 5.43823 0.540244 0
M  V30 7981 H 744.502 0.818674 0.117054 0
M  V30 7982 H 747.048 1.61508 -0.520888 0
M  V30 7983 H 745.82 3.81263 -0.880577 0
M  V30 7984 H 745.443 3.88781 0.832791 0
M  V30 7985 N 746.441 0.193421 1.56409 0
M  V30 7986 C 747.351 -0.740112 2.2262 0
M  V30 7987 C 748.367 -1.23597 1.22474 0
M  V30 7988 O 749.543 -1.28348 1.55206 0
M  V30 7989 C 746.608 -1.94317 2.87127 0
M  V30 7990 C 745.669 -1.49205 4.02538 0
M  V30 7991 C 744.902 -2.63776 4.63959 0
M  V30 7992 O 745.125 -3.81215 4.24301 0
M  V30 7993 O 744.059 -2.36585 5.53454 0
M  V30 7994 H 747.885 -0.206238 3.02999 0
M  V30 7995 H 745.47 -0.0357938 1.49357 0
M  V30 7996 H 747.352 -2.64633 3.27944 0
M  V30 7997 H 746.027 -2.46568 2.09728 0
M  V30 7998 H 744.934 -0.757738 3.66346 0
M  V30 7999 H 746.267 -1.01622 4.81595 0
M  V30 8000 N 747.919 -1.57396 -0.0801906 0
M  V30 8001 C 749.33 -1.75642 -0.633002 0
M  V30 8002 C 749.681 -0.817708 -1.78348 0
M  V30 8003 O 748.806 0.000233743 -2.164 0
M  V30 8004 C 749.401 -3.18502 -1.15507 0
M  V30 8005 C 747.96 -3.38121 -1.65381 0
M  V30 8006 C 747.107 -2.71386 -0.569661 0
M  V30 8007 H 750.058 -1.58027 0.145949 0
M  V30 8008 H 750.079 -3.22198 -2.02408 0
M  V30 8009 H 749.591 -3.86799 -0.317515 0
M  V30 8010 H 747.692 -2.74926 -2.51488 0
M  V30 8011 H 747.805 -4.46521 -1.73654 0
M  V30 8012 H 746.169 -2.33702 -1.0127 0
M  V30 8013 H 746.952 -3.42332 0.257561 0
M  V30 8014 N 749.397 0.351382 -1.53633 0
M  V30 8015 C 750.813 0.693987 -1.43722 0
M  V30 8016 C 751.013 1.9274 -0.587669 0
M  V30 8017 O 750.069 2.52387 -0.0756082 0
M  V30 8018 C 751.382 0.893937 -2.87105 0
M  V30 8019 C 752.93 0.993051 -2.96829 0
M  V30 8020 C 753.405 1.22537 -4.41303 0
M  V30 8021 N 754.896 1.29275 -4.44795 0
M  V30 8022 C 755.631 1.48988 -5.53706 0
M  V30 8023 N 755.127 1.65924 -6.72637 0
M  V30 8024 N 756.92 1.51472 -5.41306 0
M  V30 8025 H 749.071 -0.459688 -2.07366 0
M  V30 8026 H 751.334 -0.143684 -0.937048 0
M  V30 8027 H 751.04 0.0592517 -3.5165 0
M  V30 8028 H 750.914 1.79795 -3.31592 0
M  V30 8029 H 753.301 1.81827 -2.32429 0
M  V30 8030 H 753.382 0.0661119 -2.55715 0
M  V30 8031 H 753.026 0.405117 -5.06282 0
M  V30 8032 H 752.956 2.16575 -4.80003 0
M  V30 8033 H 755.447 1.17743 -3.59089 0
M  V30 8034 H 755.76 1.80578 -7.51406 0
M  V30 8035 H 754.105 1.63075 -6.75597 0
M  V30 8036 H 757.296 1.37818 -4.47352 0
M  V30 8037 H 757.469 1.66493 -6.26246 0
M  V30 8038 N 750.875 1.45233 0.611969 0
M  V30 8039 C 752.1 1.52767 1.40274 0
M  V30 8040 C 752.525 0.159701 1.87421 0
M  V30 8041 O 751.883 -0.854837 1.59882 0
M  V30 8042 C 751.931 2.51286 2.58626 0
M  V30 8043 O 751.035 2.02764 3.59111 0
M  V30 8044 H 750.376 0.515141 0.418958 0
M  V30 8045 H 752.906 1.90547 0.745188 0
M  V30 8046 H 752.916 2.69949 3.05927 0
M  V30 8047 H 751.591 3.50641 2.23659 0
M  V30 8048 H 750.168 1.93957 3.18489 0
M  V30 8049 N 752.353 -0.854086 1.3245 0
M  V30 8050 C 753.769 -1.14238 1.11453 0
M  V30 8051 C 753.969 -2.01228 -0.10461 0
M  V30 8052 O 753.025 -2.39845 -0.789339 0
M  V30 8053 C 754.338 -1.81916 2.39431 0
M  V30 8054 C 755.886 -1.94549 2.45193 0
M  V30 8055 C 756.361 -2.65642 3.73093 0
M  V30 8056 N 757.852 -2.73167 3.74078 0
M  V30 8057 C 758.587 -3.28828 4.69744 0
M  V30 8058 N 758.083 -3.85295 5.75778 0
M  V30 8059 N 759.876 -3.26936 4.57241 0
M  V30 8060 H 752.027 -0.274786 2.10615 0
M  V30 8061 H 754.29 -0.184375 0.929898 0
M  V30 8062 H 753.996 -1.25452 3.28565 0
M  V30 8063 H 753.87 -2.82068 2.50434 0
M  V30 8064 H 756.257 -2.50172 1.56518 0
M  V30 8065 H 756.338 -0.933914 2.38142 0
M  V30 8066 H 755.982 -2.10683 4.62142 0
M  V30 8067 H 755.912 -3.6724 3.77415 0
M  V30 8068 H 758.403 -2.33108 2.97438 0
M  V30 8069 H 758.716 -4.25925 6.44832 0
M  V30 8070 H 757.061 -3.83625 5.79531 0
M  V30 8071 H 760.252 -2.8207 3.7357 0
M  V30 8072 H 760.425 -3.70014 5.31971 0
M  V30 8073 N 753.831 -1.1567 -1.07043 0
M  V30 8074 C 755.078 -0.933517 -1.79699 0
M  V30 8075 C 755.406 0.539162 -1.86878 0
M  V30 8076 O 754.661 1.41592 -1.35093 0
M  V30 8077 C 754.96 -1.49677 -3.24548 0
M  V30 8078 C 754.626 -2.99047 -3.37463 0
M  V30 8079 C 753.288 -3.39824 -3.40695 0
M  V30 8080 C 755.64 -3.95027 -3.40004 0
M  V30 8081 C 752.968 -4.75215 -3.44075 0
M  V30 8082 C 755.32 -5.30295 -3.44921 0
M  V30 8083 C 753.984 -5.70562 -3.46432 0
M  V30 8084 H 753.254 -0.341598 -0.657565 0
M  V30 8085 H 755.901 -1.44263 -1.25938 0
M  V30 8086 H 754.206 -0.908915 -3.81111 0
M  V30 8087 H 755.903 -1.29986 -3.79348 0
M  V30 8088 H 752.493 -2.6653 -3.35648 0
M  V30 8089 H 756.677 -3.64596 -3.36725 0
M  V30 8090 H 751.933 -5.05754 -3.43545 0
M  V30 8091 H 756.107 -6.0446 -3.45833 0
M  V30 8092 H 753.734 -6.75456 -3.48803 0
M  V30 8093 N 755.309 1.25446 -0.953992 0
M  V30 8094 C 756.539 1.96929 -0.624688 0
M  V30 8095 C 756.947 1.71112 0.807292 0
M  V30 8096 O 756.29 0.983512 1.55154 0
M  V30 8097 C 756.352 3.50425 -0.802676 0
M  V30 8098 C 756.016 3.99916 -2.21169 0
M  V30 8099 C 757.013 4.10662 -3.18831 0
M  V30 8100 C 754.698 4.33598 -2.53571 0
M  V30 8101 C 756.692 4.54401 -4.46988 0
M  V30 8102 C 754.379 4.77024 -3.81958 0
M  V30 8103 C 755.377 4.87388 -4.78478 0
M  V30 8104 O 755.065 5.29851 -6.04577 0
M  V30 8105 H 754.797 0.634511 -0.233179 0
M  V30 8106 H 757.351 1.60591 -1.28061 0
M  V30 8107 H 755.581 3.86596 -0.0896044 0
M  V30 8108 H 757.27 4.03117 -0.47452 0
M  V30 8109 H 758.036 3.84872 -2.95124 0
M  V30 8110 H 753.915 4.24757 -1.79171 0
M  V30 8111 H 757.459 4.62406 -5.22328 0
M  V30 8112 H 753.356 5.02258 -4.05471 0
M  V30 8113 H 754.124 5.48039 -6.07944 0
M  V30 8114 N 756.787 0.722489 1.40064 0
M  V30 8115 C 757.75 0.0830209 2.2905 0
M  V30 8116 C 758.75 -0.680208 1.45705 0
M  V30 8117 O 759.94 -0.511084 1.66534 0
M  V30 8118 C 757.072 -0.892092 3.29021 0
M  V30 8119 H 758.265 0.866848 2.87099 0
M  V30 8120 H 755.818 0.487556 1.48501 0
M  V30 8121 H 756.553 -1.70273 2.76003 0
M  V30 8122 H 756.338 -0.34761 3.90556 0
M  V30 8123 H 757.828 -1.33648 3.95636 0
M  V30 8124 N 758.265 -1.50454 0.469181 0
M  V30 8125 C 759.228 -2.2703 -0.314643 0
M  V30 8126 C 760.228 -1.31734 -0.922111 0
M  V30 8127 O 761.418 -1.55176 -0.791588 0
M  V30 8128 C 758.55 -3.08616 -1.44806 0
M  V30 8129 H 759.743 -2.97769 0.356892 0
M  V30 8130 H 757.296 -1.54698 0.223191 0
M  V30 8131 H 758.031 -2.42369 -2.1547 0
M  V30 8132 H 757.816 -3.78647 -1.01829 0
M  V30 8133 H 759.306 -3.66536 -2.00103 0
M  V30 8134 N 759.743 -0.201713 -1.56304 0
M  V30 8135 C 760.653 0.728296 -2.23009 0
M  V30 8136 C 761.669 1.22945 -1.23128 0
M  V30 8137 O 762.845 1.27523 -1.55884 0
M  V30 8138 C 759.91 1.92792 -2.88153 0
M  V30 8139 C 758.971 1.47068 -4.03323 0
M  V30 8140 C 758.204 2.61312 -4.65351 0
M  V30 8141 O 758.427 3.7896 -4.26317 0
M  V30 8142 O 757.361 2.33646 -5.54701 0
M  V30 8143 H 761.187 0.190166 -3.03104 0
M  V30 8144 H 758.772 0.0278725 -1.49374 0
M  V30 8145 H 760.654 2.6289 -3.29343 0
M  V30 8146 H 759.329 2.45452 -2.11033 0
M  V30 8147 H 758.236 0.738299 -3.66742 0
M  V30 8148 H 759.569 0.990666 -4.82127 0
M  V30 8149 N 761.222 1.57436 0.0718424 0
M  V30 8150 C 762.468 1.87525 0.772149 0
M  V30 8151 C 762.801 0.79399 1.77227 0
M  V30 8152 O 762.076 -0.195733 1.93513 0
M  V30 8153 C 762.359 3.28272 1.48018 0
M  V30 8154 C 762.212 4.47052 0.49647 0
M  V30 8155 C 763.531 3.67256 2.42509 0
M  V30 8156 H 760.65 0.682049 0.279245 0
M  V30 8157 H 763.292 1.89967 0.03534 0
M  V30 8158 H 761.442 3.26321 2.10824 0
M  V30 8159 H 763.114 4.61127 -0.126375 0
M  V30 8160 H 761.357 4.33392 -0.188205 0
M  V30 8161 H 762.028 5.42315 1.02949 0
M  V30 8162 H 764.504 3.70301 1.89781 0
M  V30 8163 H 763.38 4.66626 2.89053 0
M  V30 8164 H 763.641 2.97186 3.27312 0
M  V30 8165 N 762.7 -0.34323 1.53817 0
M  V30 8166 C 763.928 -1.10348 1.75017 0
M  V30 8167 C 764.343 -1.82345 0.489475 0
M  V30 8168 O 763.7 -1.74362 -0.538886 0
M  V30 8169 C 763.751 -2.11672 2.93048 0
M  V30 8170 O 763.472 -1.42603 4.14241 0
M  V30 8171 C 764.973 -3.0007 3.26301 0
M  V30 8172 H 762.193 -0.329056 0.584776 0
M  V30 8173 H 764.737 -0.395339 2.00642 0
M  V30 8174 H 762.892 -2.78051 2.69753 0
M  V30 8175 H 763.306 -2.10294 4.80496 0
M  V30 8176 H 764.78 -3.67101 4.12239 0
M  V30 8177 H 765.257 -3.66105 2.42618 0
M  V30 8178 H 765.863 -2.3928 3.51604 0
M  V30 8179 N 764.178 -1.45556 -0.604258 0
M  V30 8180 C 765.403 -1.53509 -1.39462 0
M  V30 8181 C 765.828 -0.169638 -1.87333 0
M  V30 8182 O 765.186 0.846346 -1.60333 0
M  V30 8183 C 765.234 -2.52654 -2.5729 0
M  V30 8184 O 764.338 -2.04666 -3.5803 0
M  V30 8185 H 763.679 -0.517355 -0.416221 0
M  V30 8186 H 766.209 -1.90939 -0.735072 0
M  V30 8187 H 766.219 -2.71568 -3.04491 0
M  V30 8188 H 764.894 -3.51823 -2.21797 0
M  V30 8189 H 763.471 -1.95643 -3.17456 0
M  V30 8190 N 765.656 0.84705 -1.32902 0
M  V30 8191 C 766.619 1.9378 -1.224 0
M  V30 8192 C 767.619 1.60144 -0.145108 0
M  V30 8193 O 768.809 1.69638 -0.396058 0
M  V30 8194 C 765.941 3.29234 -0.884174 0
M  V30 8195 H 767.134 2.04518 -2.19345 0
M  V30 8196 H 764.687 1.03816 -1.16842 0
M  V30 8197 H 765.422 3.24193 0.0831277 0
M  V30 8198 H 765.207 3.55026 -1.6643 0
M  V30 8199 H 766.697 4.09162 -0.835226 0
M  V30 8200 N 767.134 1.16236 1.06428 0
M  V30 8201 C 768.064 0.890807 2.1584 0
M  V30 8202 C 769.045 -0.162333 1.69324 0
M  V30 8203 O 770.23 -0.0147191 1.94194 0
M  V30 8204 C 767.36 0.389615 3.45108 0
M  V30 8205 C 766.314 1.38051 4.05125 0
M  V30 8206 C 765.64 0.737773 5.29586 0
M  V30 8207 C 766.94 2.74965 4.44062 0
M  V30 8208 H 768.634 1.80577 2.38814 0
M  V30 8209 H 766.18 0.869657 1.14774 0
M  V30 8210 H 768.133 0.187127 4.20984 0
M  V30 8211 H 766.857 -0.560851 3.21748 0
M  V30 8212 H 765.516 1.56952 3.31303 0
M  V30 8213 H 765.164 -0.219135 5.02522 0
M  V30 8214 H 764.864 1.39914 5.70699 0
M  V30 8215 H 766.388 0.545275 6.0816 0
M  V30 8216 H 767.802 2.59855 5.11027 0
M  V30 8217 H 766.199 3.37563 4.96156 0
M  V30 8218 H 767.269 3.30321 3.54987 0
M  V30 8219 N 768.612 -1.24939 0.960631 0
M  V30 8220 C 769.545 -2.24116 0.429804 0
M  V30 8221 C 770.523 -1.54972 -0.492188 0
M  V30 8222 O 771.707 -1.83642 -0.42519 0
M  V30 8223 C 768.834 -3.36558 -0.380312 0
M  V30 8224 C 767.88 -4.23757 0.482941 0
M  V30 8225 S 768.713 -4.9994 1.91885 0
M  V30 8226 C 769.869 -6.15846 1.11732 0
M  V30 8227 H 770.102 -2.68795 1.27029 0
M  V30 8228 H 767.635 -1.34108 0.765141 0
M  V30 8229 H 769.593 -4.01777 -0.841764 0
M  V30 8230 H 768.254 -2.90451 -1.19569 0
M  V30 8231 H 767.447 -5.03809 -0.138699 0
M  V30 8232 H 767.049 -3.63504 0.879839 0
M  V30 8233 H 769.341 -6.76495 0.368898 0
M  V30 8234 H 770.284 -6.82356 1.89198 0
M  V30 8235 H 770.692 -5.60805 0.644812 0
M  V30 8236 N 770.09 -0.729906 -1.39679 0
M  V30 8237 C 771.337 -0.275622 -2.00615 0
M  V30 8238 C 771.665 1.13559 -1.57907 0
M  V30 8239 O 770.92 1.78745 -0.796789 0
M  V30 8240 C 771.219 -0.319564 -3.55968 0
M  V30 8241 C 770.885 -1.68308 -4.1831 0
M  V30 8242 C 769.547 -2.05629 -4.35052 0
M  V30 8243 C 771.899 -2.57857 -4.52945 0
M  V30 8244 C 769.227 -3.32018 -4.83716 0
M  V30 8245 C 771.579 -3.83613 -5.03015 0
M  V30 8246 C 770.243 -4.21033 -5.17965 0
M  V30 8247 H 769.513 -0.100857 -0.734104 0
M  V30 8248 H 772.16 -0.93575 -1.67081 0
M  V30 8249 H 770.465 0.42414 -3.89497 0
M  V30 8250 H 772.162 0.0499905 -4.00969 0
M  V30 8251 H 768.752 -1.3829 -4.05677 0
M  V30 8252 H 772.936 -2.30295 -4.39634 0
M  V30 8253 H 768.192 -3.6096 -4.93475 0
M  V30 8254 H 772.366 -4.53162 -5.28788 0
M  V30 8255 H 769.993 -5.19034 -5.55435 0
M  V30 8256 N 771.568 1.50203 -0.477153 0
M  V30 8257 C 772.498 2.31517 0.303646 0
M  V30 8258 C 773.479 1.38696 0.984753 0
M  V30 8259 O 774.664 1.67615 0.980758 0
M  V30 8260 C 771.794 3.18598 1.38249 0
M  V30 8261 C 770.748 4.2002 0.822645 0
M  V30 8262 C 770.074 4.95878 2.00024 0
M  V30 8263 C 771.374 5.22023 -0.170185 0
M  V30 8264 H 773.068 2.97042 -0.375027 0
M  V30 8265 H 770.614 1.42848 -0.181802 0
M  V30 8266 H 772.567 3.74282 1.93625 0
M  V30 8267 H 771.291 2.5097 2.09002 0
M  V30 8268 H 769.95 3.65445 0.290813 0
M  V30 8269 H 769.598 4.24717 2.69489 0
M  V30 8270 H 769.298 5.64487 1.63183 0
M  V30 8271 H 770.822 5.54399 2.55878 0
M  V30 8272 H 772.236 5.72543 0.294606 0
M  V30 8273 H 770.633 5.98386 -0.453181 0
M  V30 8274 H 771.703 4.72396 -1.09408 0
M  V30 8275 N 773.046 0.209999 1.56195 0
M  V30 8276 C 773.996 -0.717978 2.164 0
M  V30 8277 C 774.98 -1.16577 1.10899 0
M  V30 8278 O 776.172 -1.12169 1.3692 0
M  V30 8279 C 773.301 -1.93091 2.8385 0
M  V30 8280 C 772.387 -1.50333 3.96561 0
M  V30 8281 N 772.778 -0.787621 4.9963 0
M  V30 8282 C 771.076 -1.79151 4.08437 0
M  V30 8283 C 771.777 -0.571204 5.78889 0
M  V30 8284 N 770.753 -1.12444 5.31843 0
M  V30 8285 H 774.555 -0.162603 2.9345 0
M  V30 8286 H 772.069 0.0107928 1.62396 0
M  V30 8287 H 774.066 -2.60635 3.25384 0
M  V30 8288 H 772.726 -2.49087 2.08293 0
M  V30 8289 H 773.737 -0.441513 5.16015 0
M  V30 8290 H 770.414 -2.36549 3.44022 0
M  V30 8291 H 771.804 -0.00237941 6.719 0
M  V30 8292 N 774.524 -1.57472 -0.0634922 0
M  V30 8293 C 775.456 -2.00999 -1.10145 0
M  V30 8294 C 776.469 -0.917219 -1.34503 0
M  V30 8295 O 777.658 -1.19501 -1.32596 0
M  V30 8296 C 774.758 -2.34089 -2.45063 0
M  V30 8297 C 773.931 -3.65317 -2.40546 0
M  V30 8298 C 772.99 -3.85982 -3.57637 0
M  V30 8299 O 772.016 -4.5747 -3.38689 0
M  V30 8300 N 773.218 -3.28971 -4.78287 0
M  V30 8301 H 775.983 -2.90656 -0.730714 0
M  V30 8302 H 773.544 -1.59926 -0.252017 0
M  V30 8303 H 775.536 -2.4508 -3.22053 0
M  V30 8304 H 774.106 -1.50279 -2.74107 0
M  V30 8305 H 773.326 -3.65003 -1.48885 0
M  V30 8306 H 774.614 -4.51468 -2.34636 0
M  V30 8307 H 774.012 -2.70962 -4.96584 0
M  V30 8308 H 772.569 -3.45398 -5.5276 0
M  V30 8309 N 776.003 0.335068 -1.53997 0
M  V30 8310 C 776.953 1.4127 -1.7896 0
M  V30 8311 C 777.937 1.474 -0.64513 0
M  V30 8312 O 779.129 1.52127 -0.904785 0
M  V30 8313 C 776.258 2.78292 -2.01018 0
M  V30 8314 C 775.344 2.7652 -3.21555 0
M  V30 8315 N 775.735 2.44374 -4.42849 0
M  V30 8316 C 774.033 3.0766 -3.22895 0
M  V30 8317 C 774.734 2.51049 -5.24737 0
M  V30 8318 N 773.71 2.8702 -4.6165 0
M  V30 8319 H 777.512 1.15327 -2.70327 0
M  V30 8320 H 775.026 0.543483 -1.53036 0
M  V30 8321 H 777.023 3.55949 -2.17039 0
M  V30 8322 H 775.683 3.05175 -1.10898 0
M  V30 8323 H 776.694 2.17422 -4.70051 0
M  V30 8324 H 773.371 3.3966 -2.42771 0
M  V30 8325 H 774.761 2.29283 -6.31569 0
M  V30 8326 N 777.481 1.45874 0.596531 0
M  V30 8327 C 778.729 1.5017 1.35253 0
M  V30 8328 C 779.05 0.149246 1.94428 0
M  V30 8329 O 778.32 -0.82268 1.77789 0
M  V30 8330 H 776.9 0.553052 0.502138 0
M  V30 8331 H 779.562 1.81908 0.699671 0
M  V30 8332 H 778.658 2.24671 2.16632 0
M  V30 8333 N 778.959 -0.83999 1.33349 0
M  V30 8334 C 780.205 -1.59753 1.24927 0
M  V30 8335 C 780.538 -1.93318 -0.184855 0
M  V30 8336 O 779.813 -1.586 -1.12589 0
M  V30 8337 C 780.096 -2.90829 2.12345 0
M  V30 8338 C 779.949 -2.63953 3.6421 0
M  V30 8339 C 781.268 -3.92246 1.99577 0
M  V30 8340 H 778.387 -0.579654 0.45516 0
M  V30 8341 H 781.029 -0.968909 1.63439 0
M  V30 8342 H 779.179 -3.44478 1.79631 0
M  V30 8343 H 780.851 -2.16745 4.07209 0
M  V30 8344 H 779.094 -1.97671 3.86146 0
M  V30 8345 H 779.765 -3.57348 4.20721 0
M  V30 8346 H 782.241 -3.479 2.28265 0
M  V30 8347 H 781.117 -4.81793 2.62996 0
M  V30 8348 H 781.378 -4.3138 0.967673 0
M  V30 8349 N 780.437 -1.16799 -1.0581 0
M  V30 8350 C 781.686 -0.94698 -1.78088 0
M  V30 8351 C 781.999 0.526016 -1.88394 0
M  V30 8352 O 783.205 0.865061 -2.5735 0
M  V30 8353 C 781.661 -1.64508 -3.20102 0
M  V30 8354 C 781.269 -3.15618 -3.17946 0
M  V30 8355 C 783.013 -1.50622 -3.96879 0
M  V30 8356 C 780.92 -3.78144 -4.5471 0
M  V30 8357 H 779.85 -0.35067 -0.667493 0
M  V30 8358 H 782.501 -1.39985 -1.18645 0
M  V30 8359 H 780.883 -1.11993 -3.79834 0
M  V30 8360 H 782.057 -3.75016 -2.67768 0
M  V30 8361 H 780.372 -3.29444 -2.54667 0
M  V30 8362 H 782.969 -1.94713 -4.97987 0
M  V30 8363 H 783.312 -0.455864 -4.13797 0
M  V30 8364 H 783.845 -2.00319 -3.43682 0
M  V30 8365 H 780.584 -4.83149 -4.42998 0
M  V30 8366 H 780.104 -3.23532 -5.05062 0
M  V30 8367 H 781.783 -3.79986 -5.2366 0
M  V30 8368 N 781.915 1.24427 -0.967243 0
M  V30 8369 C 783.145 1.96256 -0.64554 0
M  V30 8370 C 783.553 1.71959 0.789098 0
M  V30 8371 O 782.896 0.999913 1.54102 0
M  V30 8372 C 782.958 3.49553 -0.839798 0
M  V30 8373 C 782.622 3.97548 -2.25399 0
M  V30 8374 C 783.619 4.07257 -3.23168 0
M  V30 8375 C 781.304 4.30884 -2.58156 0
M  V30 8376 C 783.298 4.49635 -4.51782 0
M  V30 8377 C 780.985 4.72946 -3.86996 0
M  V30 8378 C 781.983 4.82286 -4.83621 0
M  V30 8379 O 781.671 5.23409 -6.10162 0
M  V30 8380 H 781.403 0.632002 -0.239895 0
M  V30 8381 H 783.957 1.59224 -1.29757 0
M  V30 8382 H 782.187 3.86479 -0.130603 0
M  V30 8383 H 783.876 4.02591 -0.517249 0
M  V30 8384 H 784.642 3.8172 -2.9919 0
M  V30 8385 H 780.521 4.22833 -1.83666 0
M  V30 8386 H 784.065 4.5684 -5.27203 0
M  V30 8387 H 779.962 4.9793 -4.10775 0
M  V30 8388 H 780.73 5.4156 -6.13722 0
M  V30 8389 N 783.393 0.737304 1.3929 0
M  V30 8390 C 784.809 0.413132 1.5416 0
M  V30 8391 C 785.009 -1.07574 1.70382 0
M  V30 8392 O 784.065 -1.86185 1.70562 0
M  V30 8393 C 785.378 1.19817 2.75798 0
M  V30 8394 C 786.926 1.18662 2.89635 0
M  V30 8395 C 787.401 1.95427 4.14213 0
M  V30 8396 N 788.892 1.92605 4.21257 0
M  V30 8397 C 789.627 2.48808 5.16606 0
M  V30 8398 N 789.123 3.13659 6.1773 0
M  V30 8399 N 790.916 2.38829 5.08839 0
M  V30 8400 H 783.067 1.70243 1.27008 0
M  V30 8401 H 785.33 0.720802 0.61575 0
M  V30 8402 H 785.036 2.25179 2.70161 0
M  V30 8403 H 784.91 0.804144 3.68529 0
M  V30 8404 H 787.297 0.141112 2.94762 0
M  V30 8405 H 787.378 1.62003 1.97961 0
M  V30 8406 H 787.022 2.9998 4.09847 0
M  V30 8407 H 786.952 1.4949 5.04936 0
M  V30 8408 H 789.443 1.45362 3.48824 0
M  V30 8409 H 789.756 3.54006 6.8695 0
M  V30 8410 H 788.101 3.17749 6.1811 0
M  V30 8411 H 791.292 1.87806 4.28773 0
M  V30 8412 H 791.465 2.82929 5.82971 0
M  V30 8413 N 784.871 -1.49948 0.485112 0
M  V30 8414 C 786.148 -1.95186 -0.12726 0
M  V30 8415 C 786.528 -1.42605 -1.5565 0
M  V30 8416 O 785.876 -0.632986 -2.19558 0
M  V30 8417 C 786.086 -3.48955 -0.0562117 0
M  V30 8418 C 787.434 -4.23932 -0.238106 0
M  V30 8419 O 788.458 -3.55955 -0.132145 0
M  V30 8420 O 787.317 -5.44614 -0.453658 0
M  V30 8421 H 784.411 -0.820433 -0.104014 0
M  V30 8422 H 786.957 -1.60659 0.546517 0
M  V30 8423 H 785.729 -3.79814 0.941122 0
M  V30 8424 H 785.352 -3.90056 -0.770834 0
M  V30 8425 N 786.349 -0.21828 -1.56081 0
M  V30 8426 C 787.279 0.687922 -2.23136 0
M  V30 8427 C 788.26 1.20357 -1.202 0
M  V30 8428 O 789.445 1.24817 -1.48776 0
M  V30 8429 C 786.575 1.89762 -2.90874 0
M  V30 8430 C 785.529 1.51595 -4.00254 0
M  V30 8431 C 784.855 2.80415 -4.55271 0
M  V30 8432 C 786.155 0.708404 -5.17474 0
M  V30 8433 H 787.849 0.128854 -2.99123 0
M  V30 8434 H 785.395 0.0605354 -1.43873 0
M  V30 8435 H 787.348 2.53699 -3.36474 0
M  V30 8436 H 786.072 2.4816 -2.1233 0
M  V30 8437 H 784.731 0.900058 -3.55379 0
M  V30 8438 H 784.379 3.36951 -3.73461 0
M  V30 8439 H 784.079 2.55613 -5.2909 0
M  V30 8440 H 785.603 3.453 -5.03587 0
M  V30 8441 H 787.017 1.2514 -5.59476 0
M  V30 8442 H 785.414 0.557593 -5.97504 0
M  V30 8443 H 786.484 -0.285679 -4.84058 0
M  V30 8444 N 787.827 1.57504 0.0551401 0
M  V30 8445 C 788.774 2.04825 1.06373 0
M  V30 8446 C 789.744 0.932108 1.37481 0
M  V30 8447 O 790.929 1.20093 1.48265 0
M  V30 8448 C 788.069 2.51091 2.36743 0
M  V30 8449 C 787.182 3.76392 2.12021 0
M  V30 8450 C 786.317 4.11373 3.36074 0
M  V30 8451 C 785.356 5.29666 3.0679 0
M  V30 8452 N 784.493 5.60205 4.2322 0
M  V30 8453 H 789.333 2.90753 0.653216 0
M  V30 8454 H 786.87 1.43776 0.310951 0
M  V30 8455 H 788.828 2.75973 3.12881 0
M  V30 8456 H 787.458 1.68118 2.75565 0
M  V30 8457 H 786.51 3.58751 1.26498 0
M  V30 8458 H 787.822 4.62662 1.86401 0
M  V30 8459 H 786.976 4.37245 4.20597 0
M  V30 8460 H 785.715 3.23704 3.64784 0
M  V30 8461 H 784.72 5.03574 2.20664 0
M  V30 8462 H 785.945 6.18968 2.79385 0
M  V30 8463 H 783.891 4.75495 4.5193 0
M  V30 8464 H 783.808 6.40928 4.00933 0
M  V30 8465 H 785.076 5.90637 5.08692 0
M  V30 8466 N 789.305 -0.326896 1.54172 0
M  V30 8467 C 790.235 -1.40741 1.86317 0
M  V30 8468 C 791.216 -1.54125 0.719684 0
M  V30 8469 O 792.401 -1.6806 0.973117 0
M  V30 8470 C 789.531 -2.77557 2.08757 0
M  V30 8471 C 788.485 -2.78965 3.24596 0
M  V30 8472 C 787.811 -4.18824 3.32401 0
M  V30 8473 C 789.111 -2.4301 4.62324 0
M  V30 8474 H 790.805 -1.14088 2.76811 0
M  V30 8475 H 788.351 -0.547389 1.3319 0
M  V30 8476 H 790.304 -3.53209 2.29829 0
M  V30 8477 H 789.028 -3.0568 1.15009 0
M  V30 8478 H 787.687 -2.05767 3.03406 0
M  V30 8479 H 787.335 -4.44083 2.36218 0
M  V30 8480 H 787.035 -4.20673 4.10253 0
M  V30 8481 H 788.559 -4.96294 3.55703 0
M  V30 8482 H 789.973 -3.08375 4.83299 0
M  V30 8483 H 788.37 -2.56116 5.42701 0
M  V30 8484 H 789.44 -1.38165 4.64799 0
M  V30 8485 N 790.784 -1.46188 -0.588786 0
M  V30 8486 C 792.061 -1.41659 -1.34878 0
M  V30 8487 C 792.441 -0.0968913 -2.10878 0
M  V30 8488 O 791.789 0.921468 -2.09096 0
M  V30 8489 C 791.999 -2.6424 -2.27988 0
M  V30 8490 C 793.347 -3.1013 -2.90008 0
M  V30 8491 O 794.371 -2.64745 -2.38303 0
M  V30 8492 O 793.23 -3.88944 -3.83908 0
M  V30 8493 H 790.324 -0.563058 -0.605718 0
M  V30 8494 H 792.87 -1.58346 -0.610309 0
M  V30 8495 H 791.642 -3.51853 -1.71217 0
M  V30 8496 H 791.265 -2.49982 -3.09184 0
M  V30 8497 N 792.262 0.832906 -1.33792 0
M  V30 8498 C 793.21 1.96455 -1.24532 0
M  V30 8499 C 794.204 1.68774 -0.145455 0
M  V30 8500 O 795.41 1.77314 -0.309797 0
M  V30 8501 H 791.785 0.645008 -0.386611 0
M  V30 8502 H 793.756 2.01389 -2.20193 0
M  V30 8503 C 792.505 3.32784 -1.00748 0
M  V30 8504 H 791.828 3.54626 -1.84609 0
M  V30 8505 H 793.268 4.12447 -0.98301 0
M  V30 8506 C 791.727 3.35654 0.289475 0
M  V30 8507 O 792.257 3.80281 1.29419 0
M  V30 8508 N 790.463 2.88843 0.3191 0
M  V30 8509 H 790.01 2.52719 -0.499069 0
M  V30 8510 H 789.968 2.91145 1.18667 0
M  V30 8511 N 793.74 1.17359 1.05189 0
M  V30 8512 C 794.989 0.956412 1.77583 0
M  V30 8513 C 795.302 -0.516018 1.88671 0
M  V30 8514 O 796.508 -0.851401 2.57805 0
M  V30 8515 C 794.964 1.66203 3.19225 0
M  V30 8516 C 794.572 3.17299 3.16267 0
M  V30 8517 C 796.316 1.52725 3.96075 0
M  V30 8518 C 794.223 3.8055 4.52698 0
M  V30 8519 H 793.153 0.354204 0.665624 0
M  V30 8520 H 795.804 1.40612 1.17901 0
M  V30 8521 H 794.186 1.14006 3.79234 0
M  V30 8522 H 795.36 3.76431 2.65776 0
M  V30 8523 H 793.675 3.3079 2.52917 0
M  V30 8524 H 796.272 1.97351 4.96947 0
M  V30 8525 H 796.615 0.477803 4.13549 0
M  V30 8526 H 797.148 2.02139 3.42614 0
M  V30 8527 H 793.887 4.85492 4.4043 0
M  V30 8528 H 793.407 3.26206 5.03339 0
M  V30 8529 H 795.086 3.82757 5.21638 0
M  V30 8530 N 795.218 -1.23913 0.973828 0
M  V30 8531 C 796.148 -2.27453 0.527969 0
M  V30 8532 C 797.129 -1.6443 -0.435513 0
M  V30 8533 O 798.314 -1.9137 -0.330306 0
M  V30 8534 C 795.444 -3.4685 -0.176757 0
M  V30 8535 C 794.398 -4.22181 0.703352 0
M  V30 8536 C 793.724 -5.34534 -0.133215 0
M  V30 8537 C 795.024 -4.82865 1.99096 0
M  V30 8538 H 796.718 -2.65 1.3934 0
M  V30 8539 H 794.264 -1.27388 0.671446 0
M  V30 8540 H 796.217 -4.18424 -0.499934 0
M  V30 8541 H 794.941 -3.08346 -1.07659 0
M  V30 8542 H 793.6 -3.52416 1.00989 0
M  V30 8543 H 793.248 -4.92271 -1.03338 0
M  V30 8544 H 792.948 -5.85855 0.452494 0
M  V30 8545 H 794.472 -6.08933 -0.450924 0
M  V30 8546 H 795.886 -5.46481 1.73297 0
M  V30 8547 H 794.283 -5.44444 2.52389 0
M  V30 8548 H 795.353 -4.03977 2.68199 0
M  V30 8549 N 796.696 -0.74468 -1.38897 0
M  V30 8550 C 797.626 -0.126355 -2.33158 0
M  V30 8551 C 798.607 0.713517 -1.54412 0
M  V30 8552 O 799.792 0.656523 -1.82766 0
M  V30 8553 C 796.922 0.774375 -3.38557 0
M  V30 8554 C 795.876 0.0379214 -4.27983 0
M  V30 8555 C 795.202 1.05631 -5.24162 0
M  V30 8556 C 796.502 -1.12523 -5.10035 0
M  V30 8557 H 798.196 -0.913744 -2.85116 0
M  V30 8558 H 795.742 -0.440847 -1.37086 0
M  V30 8559 H 797.695 1.21655 -4.03458 0
M  V30 8560 H 796.419 1.59399 -2.85061 0
M  V30 8561 H 795.078 -0.384733 -3.64576 0
M  V30 8562 H 794.726 1.86975 -4.66958 0
M  V30 8563 H 794.426 0.568261 -5.84846 0
M  V30 8564 H 795.95 1.49799 -5.9194 0
M  V30 8565 H 797.364 -0.761037 -5.68226 0
M  V30 8566 H 795.761 -1.54355 -5.79909 0
M  V30 8567 H 796.831 -1.94237 -4.44297 0
M  V30 8568 N 798.174 1.49689 -0.493057 0
M  V30 8569 C 799.451 1.9525 0.116907 0
M  V30 8570 C 799.831 1.43429 1.54892 0
M  V30 8571 O 799.179 0.644621 2.19219 0
M  V30 8572 C 799.389 3.4898 0.037705 0
M  V30 8573 C 800.737 4.24052 0.215621 0
M  V30 8574 O 801.761 3.5602 0.113266 0
M  V30 8575 O 800.62 5.44847 0.42477 0
M  V30 8576 H 797.714 0.820973 0.099662 0
M  V30 8577 H 800.26 1.60367 -0.555029 0
M  V30 8578 H 799.032 3.79309 -0.961251 0
M  V30 8579 H 798.655 3.9046 0.750137 0
M  V30 8580 N 799.652 0.226554 1.55963 0
M  V30 8581 C 800.615 -0.668015 2.19249 0
M  V30 8582 C 801.615 -1.11794 1.1558 0
M  V30 8583 O 802.805 -1.02593 1.40784 0
M  V30 8584 C 799.937 -1.91571 2.81981 0
M  V30 8585 H 801.13 -0.116175 2.99675 0
M  V30 8586 H 798.683 -0.0230497 1.56283 0
M  V30 8587 H 799.418 -2.50929 2.05439 0
M  V30 8588 H 799.203 -1.6015 3.57903 0
M  V30 8589 H 800.693 -2.55294 3.30477 0
M  V30 8590 N 801.13 -1.57531 -0.0467866 0
M  V30 8591 C 802.04 -2.08768 -1.07018 0
M  V30 8592 C 803.056 -1.02245 -1.40791 0
M  V30 8593 O 804.232 -1.33873 -1.50466 0
M  V30 8594 C 801.297 -2.54221 -2.35738 0
M  V30 8595 C 800.358 -3.75152 -2.08709 0
M  V30 8596 C 799.591 -4.18428 -3.31291 0
M  V30 8597 O 799.814 -3.61365 -4.4133 0
M  V30 8598 O 798.748 -5.11018 -3.18032 0
M  V30 8599 H 802.574 -2.96334 -0.664812 0
M  V30 8600 H 800.159 -1.47074 -0.262605 0
M  V30 8601 H 802.041 -2.83866 -3.11445 0
M  V30 8602 H 800.716 -1.69774 -2.75605 0
M  V30 8603 H 799.623 -3.50553 -1.30627 0
M  V30 8604 H 800.956 -4.60528 -1.73708 0
M  V30 8605 N 802.608 0.318715 -1.54344 0
M  V30 8606 C 803.856 1.054 -1.72439 0
M  V30 8607 C 804.177 1.88388 -0.503495 0
M  V30 8608 O 803.447 1.89866 0.48246 0
M  V30 8609 H 802.027 0.392124 -0.635805 0
M  V30 8610 H 804.689 0.35398 -1.91659 0
M  V30 8611 H 803.785 1.71726 -2.60608 0
M  V30 8612 N 804.086 1.46499 0.581025 0
M  V30 8613 C 805.036 1.53606 1.68491 0
M  V30 8614 C 806.02 0.396853 1.55929 0
M  V30 8615 O 807.212 0.645366 1.64815 0
M  V30 8616 C 804.341 1.53089 3.07276 0
M  V30 8617 C 803.427 2.72309 3.25128 0
M  V30 8618 N 803.818 3.97216 3.13134 0
M  V30 8619 C 802.116 2.68568 3.56072 0
M  V30 8620 C 802.817 4.7693 3.33036 0
M  V30 8621 N 801.793 4.08833 3.58269 0
M  V30 8622 H 805.595 2.47976 1.5775 0
M  V30 8623 H 803.109 1.42161 0.785104 0
M  V30 8624 H 805.106 1.56268 3.86505 0
M  V30 8625 H 803.766 0.597969 3.19146 0
M  V30 8626 H 804.777 4.28439 2.90964 0
M  V30 8627 H 801.454 1.84307 3.74616 0
M  V30 8628 H 802.844 5.85879 3.28932 0
M  V30 8629 N 805.565 -0.825799 1.34232 0
M  V30 8630 C 806.805 -1.59541 1.27773 0
M  V30 8631 C 807.169 -1.91405 -0.150998 0
M  V30 8632 O 808.37 -2.66644 -0.339728 0
M  V30 8633 C 806.641 -2.86183 2.14089 0
M  V30 8634 S 808.2 -3.76751 2.24953 0
M  V30 8635 H 805.018 -0.546871 0.454371 0
M  V30 8636 H 807.62 -0.975677 1.69413 0
M  V30 8637 H 806.324 -2.60767 3.16905 0
M  V30 8638 H 805.855 -3.53155 1.73335 0
M  V30 8639 H 807.87 -4.75442 1.4202 0
M  V30 8640 N 807.043 -1.17915 -1.04565 0
M  V30 8641 C 807.99 -0.901605 -2.12461 0
M  V30 8642 C 808.96 0.157011 -1.65356 0
M  V30 8643 O 810.145 0.0184494 -1.90791 0
M  V30 8644 C 807.285 -0.42796 -3.42436 0
M  V30 8645 C 806.398 -1.55142 -4.03181 0
M  V30 8646 C 805.533 -1.03101 -5.21098 0
M  V30 8647 C 804.572 -2.1295 -5.73863 0
M  V30 8648 N 803.709 -1.62339 -6.83074 0
M  V30 8649 H 808.549 -1.82551 -2.3554 0
M  V30 8650 H 806.086 -0.910389 -1.15544 0
M  V30 8651 H 808.044 -0.134859 -4.16982 0
M  V30 8652 H 806.674 0.458977 -3.1952 0
M  V30 8653 H 805.726 -1.96011 -3.26012 0
M  V30 8654 H 807.038 -2.37968 -4.38375 0
M  V30 8655 H 806.192 -0.692132 -6.02739 0
M  V30 8656 H 804.931 -0.17227 -4.87396 0
M  V30 8657 H 803.936 -2.47687 -4.90847 0
M  V30 8658 H 805.161 -2.9925 -6.09611 0
M  V30 8659 H 803.107 -0.787464 -6.51256 0
M  V30 8660 H 803.024 -2.38767 -7.17305 0
M  V30 8661 H 804.292 -1.31363 -7.68351 0
M  V30 8662 N 808.521 1.23394 -0.980386 0
M  V30 8663 C 809.451 2.2717 -0.540024 0
M  V30 8664 C 810.432 1.64659 0.426787 0
M  V30 8665 O 811.617 1.91543 0.320153 0
M  V30 8666 C 808.747 3.46939 0.15836 0
M  V30 8667 C 807.701 4.21802 -0.725732 0
M  V30 8668 C 807.027 5.34597 0.104866 0
M  V30 8669 C 808.327 4.81802 -2.01654 0
M  V30 8670 H 810.021 2.64257 -1.40743 0
M  V30 8671 H 807.567 1.2703 -0.678193 0
M  V30 8672 H 809.52 4.18683 0.477737 0
M  V30 8673 H 808.244 3.08912 1.06022 0
M  V30 8674 H 806.903 3.51875 -1.02857 0
M  V30 8675 H 806.551 4.92812 1.00726 0
M  V30 8676 H 806.251 5.85607 -0.483557 0
M  V30 8677 H 807.775 6.09163 0.418624 0
M  V30 8678 H 809.189 5.45554 -1.76193 0
M  V30 8679 H 807.586 5.43098 -2.55273 0
M  V30 8680 H 808.656 4.02549 -2.70338 0
M  V30 8681 N 809.999 0.752036 1.385 0
M  V30 8682 C 810.962 0.131587 2.28822 0
M  V30 8683 C 811.962 -0.649149 1.47115 0
M  V30 8684 O 813.152 -0.475645 1.67581 0
M  V30 8685 C 810.284 -0.822101 3.30839 0
M  V30 8686 H 811.477 0.927551 2.85196 0
M  V30 8687 H 809.03 0.518945 1.47434 0
M  V30 8688 H 809.765 -1.6438 2.79553 0
M  V30 8689 H 809.55 -0.264689 3.91206 0
M  V30 8690 H 811.04 -1.25226 3.98382 0
M  V30 8691 N 811.477 -1.49425 0.500989 0
M  V30 8692 C 812.754 -1.9531 -0.106551 0
M  V30 8693 C 813.134 -1.44248 -1.54129 0
M  V30 8694 O 812.482 -0.656237 -2.18874 0
M  V30 8695 C 812.692 -3.48995 -0.0191972 0
M  V30 8696 C 814.04 -4.24161 -0.193129 0
M  V30 8697 O 815.064 -3.56075 -0.0943843 0
M  V30 8698 O 813.923 -5.45064 -0.395869 0
M  V30 8699 H 811.017 -0.82149 -0.0953068 0
M  V30 8700 H 813.563 -1.6007 0.563526 0
M  V30 8701 H 812.335 -3.78794 0.981353 0
M  V30 8702 H 811.958 -3.90852 -0.72942 0
M  V30 8703 N 812.955 -0.234822 -1.55841 0
M  V30 8704 C 814.202 0.39326 -1.98645 0
M  V30 8705 C 814.53 1.58823 -1.12274 0
M  V30 8706 O 813.785 1.94954 -0.170731 0
M  V30 8707 C 814.084 0.858032 -3.46947 0
M  V30 8708 C 813.75 -0.227858 -4.50324 0
M  V30 8709 C 812.412 -0.526128 -4.78315 0
M  V30 8710 C 814.764 -0.961576 -5.12253 0
M  V30 8711 C 812.092 -1.5624 -5.65514 0
M  V30 8712 C 814.444 -1.98728 -6.00575 0
M  V30 8713 C 813.108 -2.29233 -6.26904 0
M  V30 8714 H 812.378 0.143904 -0.726892 0
M  V30 8715 H 815.025 -0.34012 -1.88455 0
M  V30 8716 H 813.33 1.67041 -3.54408 0
M  V30 8717 H 815.027 1.35407 -3.77447 0
M  V30 8718 H 811.617 0.0147624 -4.28597 0
M  V30 8719 H 815.801 -0.744388 -4.90686 0
M  V30 8720 H 811.057 -1.80422 -5.84173 0
M  V30 8721 H 815.231 -2.5608 -6.47608 0
M  V30 8722 H 812.858 -3.09671 -6.94268 0
M  V30 8723 N 814.433 1.57553 0.0384317 0
M  V30 8724 C 815.681 1.88468 0.729672 0
M  V30 8725 C 816.002 0.831302 1.76393 0
M  V30 8726 O 815.272 -0.13622 1.95426 0
M  V30 8727 H 813.852 0.695529 0.272485 0
M  V30 8728 H 816.514 1.94899 0.0066032 0
M  V30 8729 H 815.61 2.8705 1.22511 0
M  V30 8730 N 815.911 -0.310526 1.54511 0
M  V30 8731 C 816.844 -1.40693 1.79668 0
M  V30 8732 C 817.822 -1.49159 0.64734 0
M  V30 8733 O 819.006 -1.66367 0.886239 0
M  V30 8734 C 816.133 -2.78685 1.92491 0
M  V30 8735 C 815.179 -2.87688 3.14861 0
M  V30 8736 S 816.012 -2.50759 4.7316 0
M  V30 8737 C 817.168 -3.90797 4.88906 0
M  V30 8738 H 817.401 -1.19142 2.72383 0
M  V30 8739 H 814.934 -0.508103 1.458 0
M  V30 8740 H 816.892 -3.58168 2.00563 0
M  V30 8741 H 815.553 -2.9751 1.00731 0
M  V30 8742 H 814.746 -3.8888 3.20607 0
M  V30 8743 H 814.348 -2.16189 3.05186 0
M  V30 8744 H 816.64 -4.85693 4.72344 0
M  V30 8745 H 817.583 -3.90027 5.91003 0
M  V30 8746 H 817.991 -3.80357 4.1712 0
M  V30 8747 N 817.389 -1.46805 -0.573248 0
M  V30 8748 C 818.629 -1.5417 -1.34205 0
M  V30 8749 C 818.993 -0.192675 -1.91031 0
M  V30 8750 O 820.194 -0.141111 -2.68429 0
M  V30 8751 C 818.465 -2.61682 -2.43428 0
M  V30 8752 S 820.024 -2.88519 -3.30609 0
M  V30 8753 H 816.842 -0.544592 -0.4571 0
M  V30 8754 H 819.444 -1.84094 -0.658001 0
M  V30 8755 H 818.148 -3.58319 -2.00088 0
M  V30 8756 H 817.679 -2.33521 -3.16594 0
M  V30 8757 H 819.694 -2.2451 -4.42504 0
M  V30 8758 N 818.867 0.818669 -1.34668 0
M  V30 8759 C 819.814 1.92983 -1.26595 0
M  V30 8760 C 820.784 1.65506 -0.140315 0
M  V30 8761 O 821.969 1.88063 -0.322005 0
M  V30 8762 C 819.109 3.2932 -1.03163 0
M  V30 8763 C 818.222 3.69061 -2.24539 0
M  V30 8764 C 817.357 4.94368 -1.94355 0
M  V30 8765 C 816.396 5.26702 -3.11851 0
M  V30 8766 N 815.533 6.43187 -2.81522 0
M  V30 8767 H 820.373 1.99219 -2.2162 0
M  V30 8768 H 817.91 0.974612 -1.1018 0
M  V30 8769 H 819.868 4.07897 -0.87613 0
M  V30 8770 H 818.498 3.22584 -0.118045 0
M  V30 8771 H 817.55 2.85842 -2.50995 0
M  V30 8772 H 818.862 3.88924 -3.12313 0
M  V30 8773 H 818.016 5.80742 -1.75566 0
M  V30 8774 H 816.755 4.76515 -1.03848 0
M  V30 8775 H 815.76 4.38823 -3.31231 0
M  V30 8776 H 816.985 5.46492 -4.03142 0
M  V30 8777 H 814.931 6.26783 -1.93596 0
M  V30 8778 H 814.848 6.63243 -3.62829 0
M  V30 8779 H 816.116 7.32621 -2.66247 0
M  V30 8780 N 820.346 1.18468 1.03938 0
M  V30 8781 C 821.256 0.927889 2.1547 0
M  V30 8782 C 822.272 -0.108447 1.73662 0
M  V30 8783 O 823.448 0.0737636 2.01265 0
M  V30 8784 C 820.513 0.458494 3.43655 0
M  V30 8785 C 819.574 1.56295 3.99838 0
M  V30 8786 C 818.807 1.11586 5.21904 0
M  V30 8787 O 819.03 -0.0249057 5.70395 0
M  V30 8788 O 817.964 1.91412 5.70653 0
M  V30 8789 H 821.79 1.86116 2.39989 0
M  V30 8790 H 819.375 0.966607 1.13917 0
M  V30 8791 H 821.257 0.204861 4.20902 0
M  V30 8792 H 819.932 -0.446464 3.20606 0
M  V30 8793 H 818.839 1.87061 3.23974 0
M  V30 8794 H 820.172 2.44408 4.2723 0
M  V30 8795 N 821.824 -1.22873 0.986916 0
M  V30 8796 C 823.072 -1.91084 0.658121 0
M  V30 8797 C 823.393 -1.77304 -0.811675 0
M  V30 8798 O 822.663 -1.15649 -1.58121 0
M  V30 8799 H 821.243 -0.707251 0.240427 0
M  V30 8800 H 823.905 -1.49357 1.25213 0
M  V30 8801 H 823.001 -2.98373 0.915428 0
M  V30 8802 N 823.302 -0.75937 -1.38099 0
M  V30 8803 C 824.551 -0.314864 -1.99227 0
M  V30 8804 C 824.864 1.1113 -1.60964 0
M  V30 8805 O 826.07 1.65657 -2.15105 0
M  V30 8806 C 824.526 -0.512001 -3.56239 0
M  V30 8807 C 824.134 -1.94762 -4.0345 0
M  V30 8808 C 825.878 -0.130497 -4.24299 0
M  V30 8809 C 823.785 -2.09301 -5.53125 0
M  V30 8810 H 822.715 -0.113978 -0.745335 0
M  V30 8811 H 825.366 -0.936736 -1.57789 0
M  V30 8812 H 823.748 0.179144 -3.95595 0
M  V30 8813 H 824.922 -2.67271 -3.75371 0
M  V30 8814 H 823.237 -2.28457 -3.48133 0
M  V30 8815 H 825.834 -0.21781 -5.34256 0
M  V30 8816 H 826.177 0.917644 -4.0606 0
M  V30 8817 H 826.71 -0.773716 -3.90203 0
M  V30 8818 H 823.449 -3.1239 -5.76275 0
M  V30 8819 H 822.969 -1.41261 -5.82928 0
M  V30 8820 H 824.648 -1.88571 -6.1891 0
M  V30 8821 N 824.78 1.49157 -0.508906 0
M  V30 8822 C 825.71 2.32109 0.254469 0
M  V30 8823 C 826.691 1.40754 0.955111 0
M  V30 8824 O 827.876 1.69658 0.944983 0
M  V30 8825 C 825.006 3.21458 1.3146 0
M  V30 8826 C 823.96 4.2167 0.733368 0
M  V30 8827 C 823.286 5.00009 1.8946 0
M  V30 8828 C 824.586 5.21544 -0.280875 0
M  V30 8829 H 826.28 2.9618 -0.43795 0
M  V30 8830 H 823.826 1.4243 -0.212062 0
M  V30 8831 H 825.779 3.78305 1.85643 0
M  V30 8832 H 824.503 2.55346 2.03632 0
M  V30 8833 H 823.162 3.65979 0.213231 0
M  V30 8834 H 822.81 4.30338 2.60419 0
M  V30 8835 H 822.51 5.67821 1.51173 0
M  V30 8836 H 824.034 5.59702 2.44061 0
M  V30 8837 H 825.448 5.73039 0.173095 0
M  V30 8838 H 823.845 5.97291 -0.580006 0
M  V30 8839 H 824.915 4.69969 -1.19404 0
M  V30 8840 N 826.258 0.243083 1.55714 0
M  V30 8841 C 827.206 -0.674349 2.2261 0
M  V30 8842 C 828.2 -1.18307 1.21243 0
M  V30 8843 O 829.406 -1.1404 1.39265 0
M  V30 8844 H 825.781 -0.235941 0.714028 0
M  V30 8845 H 827.752 -0.0869446 2.98273 0
M  V30 8846 C 826.501 -1.86206 2.93637 0
M  V30 8847 H 825.824 -1.47975 3.71407 0
M  V30 8848 H 827.264 -2.4813 3.43813 0
M  V30 8849 C 825.723 -2.73084 1.97298 0
M  V30 8850 O 826.253 -3.72497 1.50361 0
M  V30 8851 N 824.459 -2.39571 1.64482 0
M  V30 8852 H 824.006 -1.5878 2.02846 0
M  V30 8853 H 823.964 -2.97976 1.00288 0
M  V30 8854 N 827.736 -1.57571 -0.0300757 0
M  V30 8855 C 828.984 -1.88852 -0.719666 0
M  V30 8856 C 829.305 -0.840645 -1.75949 0
M  V30 8857 O 828.575 0.125854 -1.95495 0
M  V30 8858 H 827.155 -0.696965 -0.268792 0
M  V30 8859 H 829.817 -1.949 0.00373285 0
M  V30 8860 H 828.913 -2.87695 -1.20987 0
M  V30 8861 N 829.214 0.302327 -1.54673 0
M  V30 8862 C 830.46 1.03924 -1.74149 0
M  V30 8863 C 830.793 1.86968 -0.525041 0
M  V30 8864 O 830.068 1.88538 0.477868 0
M  V30 8865 C 830.351 1.94633 -3.02969 0
M  V30 8866 C 830.204 1.14778 -4.34909 0
M  V30 8867 C 831.523 2.93826 -3.27649 0
M  V30 8868 H 828.642 0.376405 -0.633631 0
M  V30 8869 H 831.284 0.314007 -1.87387 0
M  V30 8870 H 829.434 2.56471 -2.91813 0
M  V30 8871 H 831.106 0.552363 -4.57981 0
M  V30 8872 H 829.349 0.450462 -4.31455 0
M  V30 8873 H 830.02 1.81495 -5.21309 0
M  V30 8874 H 832.496 2.42117 -3.38406 0
M  V30 8875 H 831.372 3.54462 -4.19104 0
M  V30 8876 H 831.633 3.67416 -2.45882 0
M  V30 8877 N 830.692 1.47107 0.565454 0
M  V30 8878 C 831.92 1.56909 1.3486 0
M  V30 8879 C 832.335 0.216312 1.87557 0
M  V30 8880 O 831.692 -0.789168 1.64555 0
M  V30 8881 C 831.743 2.58776 2.52423 0
M  V30 8882 O 831.464 3.888 2.01906 0
M  V30 8883 C 832.965 2.78683 3.44747 0
M  V30 8884 H 830.185 0.530096 0.411387 0
M  V30 8885 H 832.729 1.92658 0.685782 0
M  V30 8886 H 830.884 2.25983 3.1466 0
M  V30 8887 H 831.298 4.44393 2.78595 0
M  V30 8888 H 832.772 3.53842 4.23674 0
M  V30 8889 H 833.249 1.86208 3.97773 0
M  V30 8890 H 833.855 3.12641 2.88333 0
M  V30 8891 N 832.17 -0.811516 1.35101 0
M  V30 8892 C 833.398 -1.59981 1.31201 0
M  V30 8893 C 833.813 -1.8847 -0.111552 0
M  V30 8894 O 833.17 -1.48414 -1.06205 0
M  V30 8895 C 833.221 -2.934 2.11184 0
M  V30 8896 O 832.942 -2.66148 3.4799 0
M  V30 8897 C 834.443 -3.87776 2.14813 0
M  V30 8898 H 831.663 -0.496921 0.450899 0
M  V30 8899 H 834.207 -1.00886 1.77883 0
M  V30 8900 H 832.362 -3.49022 1.68115 0
M  V30 8901 H 832.776 -3.51301 3.89471 0
M  V30 8902 H 834.25 -4.7852 2.75178 0
M  V30 8903 H 834.727 -4.23997 1.14556 0
M  V30 8904 H 835.333 -3.3809 2.58022 0
M  V30 8905 N 833.648 -1.19017 -1.03309 0
M  V30 8906 C 834.876 -1.01534 -1.80273 0
M  V30 8907 C 835.291 0.43605 -1.83696 0
M  V30 8908 O 834.648 1.30288 -1.27794 0
M  V30 8909 C 834.699 -1.5722 -3.25522 0
M  V30 8910 O 834.42 -2.96677 -3.22358 0
M  V30 8911 C 835.921 -1.4446 -4.19102 0
M  V30 8912 H 833.141 -0.358094 -0.567459 0
M  V30 8913 H 835.685 -1.57738 -1.3015 0
M  V30 8914 H 833.84 -1.05174 -3.7285 0
M  V30 8915 H 834.254 -3.22795 -4.13405 0
M  V30 8916 H 835.728 -1.88209 -5.18923 0
M  V30 8917 H 836.205 -0.394471 -4.37425 0
M  V30 8918 H 836.811 -1.95616 -3.77643 0
M  V30 8919 N 835.127 1.22348 -0.993418 0
M  V30 8920 C 836.355 1.95125 -0.688021 0
M  V30 8921 C 836.77 1.73377 0.747388 0
M  V30 8922 O 836.127 1.03317 1.50439 0
M  V30 8923 C 836.178 3.47819 -0.985097 0
M  V30 8924 O 835.899 3.68838 -2.3641 0
M  V30 8925 C 837.4 4.37779 -0.697474 0
M  V30 8926 H 834.62 0.62087 -0.254481 0
M  V30 8927 H 837.164 1.55485 -1.32833 0
M  V30 8928 H 835.319 3.85426 -0.390583 0
M  V30 8929 H 835.733 4.63032 -2.46377 0
M  V30 8930 H 837.207 5.43666 -0.955604 0
M  V30 8931 H 837.684 4.37651 0.368524 0
M  V30 8932 H 838.29 4.05799 -1.27306 0
M  V30 8933 N 836.605 0.766683 1.37694 0
M  V30 8934 C 837.852 0.328714 1.99814 0
M  V30 8935 C 838.18 -1.09333 1.60862 0
M  V30 8936 O 837.435 -1.7657 0.8439 0
M  V30 8937 C 837.734 0.413831 3.54996 0
M  V30 8938 C 837.4 1.7934 4.137 0
M  V30 8939 C 836.062 2.17092 4.29447 0
M  V30 8940 C 838.414 2.69776 4.45949 0
M  V30 8941 C 835.742 3.44726 4.74743 0
M  V30 8942 C 838.094 3.96814 4.92667 0
M  V30 8943 C 836.758 4.34618 5.0662 0
M  V30 8944 H 836.028 0.120285 0.731172 0
M  V30 8945 H 838.675 0.97972 1.64541 0
M  V30 8946 H 836.98 -0.320723 3.90485 0
M  V30 8947 H 838.677 0.0563369 4.0096 0
M  V30 8948 H 835.267 1.48997 4.01868 0
M  V30 8949 H 839.451 2.41871 4.33373 0
M  V30 8950 H 834.707 3.73917 4.83731 0
M  V30 8951 H 838.881 4.67022 5.16588 0
M  V30 8952 H 836.508 5.33578 5.41478 0
M  V30 8953 N 838.083 -1.48885 0.516809 0
M  V30 8954 C 839.323 -2.0439 -0.0202232 0
M  V30 8955 C 839.687 -1.38652 -1.32814 0
M  V30 8956 O 840.888 -1.84968 -1.95039 0
M  V30 8957 C 839.159 -3.57071 -0.153257 0
M  V30 8958 S 840.718 -4.34074 -0.642256 0
M  V30 8959 H 837.536 -0.710977 0.00576322 0
M  V30 8960 H 840.138 -1.82753 0.694376 0
M  V30 8961 H 838.842 -4.02454 0.803695 0
M  V30 8962 H 838.373 -3.83139 -0.892627 0
M  V30 8963 H 840.388 -4.58011 -1.90893 0
M  V30 8964 N 839.561 -0.251338 -1.55583 0
M  V30 8965 C 840.809 0.371434 -1.98657 0
M  V30 8966 C 841.13 1.58143 -1.14087 0
M  V30 8967 O 840.4 1.94607 -0.224708 0
M  V30 8968 H 838.98 0.140225 -0.733721 0
M  V30 8969 H 841.642 -0.351157 -1.9171 0
M  V30 8970 H 840.738 0.677554 -3.04657 0
M  V30 8971 N 841.039 1.57585 0.0217189 0
M  V30 8972 C 842.267 1.93871 0.722619 0
M  V30 8973 C 842.682 0.851706 1.68498 0
M  V30 8974 O 842.039 -0.17127 1.81695 0
M  V30 8975 C 842.09 3.30114 1.47333 0
M  V30 8976 O 841.811 4.34639 0.549597 0
M  V30 8977 C 843.312 3.80727 2.27072 0
M  V30 8978 H 840.532 0.639671 0.202637 0
M  V30 8979 H 843.076 2.04487 -0.0229414 0
M  V30 8980 H 841.231 3.20872 2.17071 0
M  V30 8981 H 841.645 5.13326 1.07686 0
M  V30 8982 H 843.119 4.78547 2.75131 0
M  V30 8983 H 843.596 3.12301 3.08812 0
M  V30 8984 H 844.202 3.93075 1.62395 0
M  V30 8985 N 842.517 -0.29412 1.54831 0
M  V30 8986 C 843.928 -0.866651 1.65366 0
M  V30 8987 C 844.279 -1.87834 0.56681 0
M  V30 8988 O 843.404 -2.14374 -0.295389 0
M  V30 8989 C 843.999 -1.57869 2.99771 0
M  V30 8990 C 842.558 -2.09954 3.12404 0
M  V30 8991 C 841.705 -0.934492 2.6108 0
M  V30 8992 H 844.656 -0.0709551 1.58541 0
M  V30 8993 H 844.677 -2.44462 2.91579 0
M  V30 8994 H 844.189 -0.84212 3.78853 0
M  V30 8995 H 842.29 -2.86637 2.38055 0
M  V30 8996 H 842.403 -2.32934 4.18663 0
M  V30 8997 H 840.767 -1.32199 2.17705 0
M  V30 8998 H 841.55 -0.211768 3.42646 0
M  V30 8999 N 843.995 -1.47404 -0.557645 0
M  V30 9000 C 845.272 -1.44488 -1.31843 0
M  V30 9001 C 845.652 -0.1416 -2.10625 0
M  V30 9002 O 845 0.876908 -2.11004 0
M  V30 9003 C 845.21 -2.69016 -2.22331 0
M  V30 9004 C 846.558 -3.16212 -2.83364 0
M  V30 9005 O 847.582 -2.69741 -2.32634 0
M  V30 9006 O 846.441 -3.96999 -3.75571 0
M  V30 9007 H 843.535 -0.57578 -0.593639 0
M  V30 9008 H 846.081 -1.59605 -0.576584 0
M  V30 9009 H 844.853 -3.55406 -1.63715 0
M  V30 9010 H 844.476 -2.56484 -3.03812 0
M  V30 9011 N 845.473 0.80434 -1.35529 0
M  V30 9012 C 846.703 1.59052 -1.31856 0
M  V30 9013 C 847.111 1.88905 0.105549 0
M  V30 9014 O 846.454 1.49422 1.06858 0
M  V30 9015 C 846.516 2.94626 -2.06 0
M  V30 9016 C 846.18 2.87576 -3.55175 0
M  V30 9017 C 847.177 2.60856 -4.49722 0
M  V30 9018 C 844.862 3.06623 -3.97854 0
M  V30 9019 C 846.856 2.53262 -5.84925 0
M  V30 9020 C 844.543 2.98652 -5.33151 0
M  V30 9021 C 845.541 2.72007 -6.26499 0
M  V30 9022 O 845.229 2.64003 -7.59314 0
M  V30 9023 H 844.961 0.500486 -0.454411 0
M  V30 9024 H 847.515 1.0074 -1.78999 0
M  V30 9025 H 845.745 3.5493 -1.53498 0
M  V30 9026 H 847.434 3.55785 -1.95376 0
M  V30 9027 H 848.2 2.45858 -4.18066 0
M  V30 9028 H 844.079 3.26372 -3.2558 0
M  V30 9029 H 847.623 2.32386 -6.57756 0
M  V30 9030 H 843.52 3.13208 -5.64421 0
M  V30 9031 H 844.288 2.79595 -7.69265 0
M  V30 9032 N 846.951 1.19563 1.02676 0
M  V30 9033 C 848.2 0.993864 1.75514 0
M  V30 9034 C 848.513 -0.475882 1.89723 0
M  V30 9035 O 849.719 -0.796525 2.59553 0
M  V30 9036 C 848.175 1.72937 3.15628 0
M  V30 9037 C 847.783 3.23937 3.09466 0
M  V30 9038 C 849.527 1.61092 3.92746 0
M  V30 9039 C 847.434 3.90067 4.44524 0
M  V30 9040 H 846.364 0.368244 0.657961 0
M  V30 9041 H 849.015 1.43081 1.14891 0
M  V30 9042 H 847.397 1.22025 3.76731 0
M  V30 9043 H 848.571 3.81983 2.57731 0
M  V30 9044 H 846.886 3.3608 2.45843 0
M  V30 9045 H 849.483 2.07848 4.92649 0
M  V30 9046 H 849.826 0.565415 4.12442 0
M  V30 9047 H 850.359 2.09361 3.3825 0
M  V30 9048 H 847.098 4.94725 4.30032 0
M  V30 9049 H 846.618 3.36809 4.96306 0
M  V30 9050 H 848.297 3.93736 5.13401 0
M  V30 9051 N 848.429 -1.21819 0.999893 0
M  V30 9052 C 849.392 -2.22227 0.561044 0
M  V30 9053 C 850.392 -1.56722 -0.359858 0
M  V30 9054 O 851.582 -1.73546 -0.150848 0
M  V30 9055 C 848.714 -3.40409 -0.182987 0
M  V30 9056 H 849.907 -2.62567 1.44909 0
M  V30 9057 H 847.46 -1.34991 0.78785 0
M  V30 9058 H 848.195 -3.05551 -1.08671 0
M  V30 9059 H 847.98 -3.89171 0.47833 0
M  V30 9060 H 849.47 -4.14856 -0.477952 0
M  V30 9061 N 849.908 -0.773975 -1.37286 0
M  V30 9062 C 851.319 -0.404433 -1.82267 0
M  V30 9063 C 851.67 1.06971 -1.64474 0
M  V30 9064 O 850.795 1.82867 -1.15708 0
M  V30 9065 C 851.39 -0.727298 -3.30902 0
M  V30 9066 C 849.949 -0.410784 -3.74152 0
M  V30 9067 C 849.096 -0.969983 -2.59782 0
M  V30 9068 H 852.047 -0.968437 -1.25726 0
M  V30 9069 H 852.068 -0.0127575 -3.80498 0
M  V30 9070 H 851.58 -1.80026 -3.4382 0
M  V30 9071 H 849.681 0.65477 -3.66802 0
M  V30 9072 H 849.794 -0.920592 -4.70172 0
M  V30 9073 H 848.158 -0.394094 -2.51633 0
M  V30 9074 H 848.941 -2.04839 -2.75492 0
M  V30 9075 N 851.386 1.48609 -0.524698 0
M  V30 9076 C 852.296 2.33318 0.244923 0
M  V30 9077 C 853.312 1.46153 0.944214 0
M  V30 9078 O 854.488 1.79141 0.920347 0
M  V30 9079 C 851.553 3.22149 1.28144 0
M  V30 9080 C 850.614 4.25184 0.593068 0
M  V30 9081 C 849.847 5.0977 1.5802 0
M  V30 9082 O 850.07 4.96249 2.81235 0
M  V30 9083 O 849.004 5.9134 1.1225 0
M  V30 9084 H 852.83 3.00362 -0.449066 0
M  V30 9085 H 850.415 1.46643 -0.285689 0
M  V30 9086 H 852.297 3.77111 1.88057 0
M  V30 9087 H 850.972 2.57772 1.95793 0
M  V30 9088 H 849.879 3.74071 -0.0464214 0
M  V30 9089 H 851.212 4.92183 -0.0413893 0
M  V30 9090 N 852.864 0.259585 1.55447 0
M  V30 9091 C 854.113 -0.362163 1.98422 0
M  V30 9092 C 854.426 -1.58135 1.1512 0
M  V30 9093 O 855.632 -2.27506 1.48166 0
M  V30 9094 C 854.088 -0.695722 3.53111 0
M  V30 9095 C 853.696 0.502784 4.4517 0
M  V30 9096 C 855.44 -1.28096 4.04712 0
M  V30 9097 C 853.347 0.144674 5.91223 0
M  V30 9098 H 852.277 -0.139092 0.74106 0
M  V30 9099 H 854.928 0.361798 1.79898 0
M  V30 9100 H 853.31 -1.47816 3.67378 0
M  V30 9101 H 854.484 1.27994 4.42667 0
M  V30 9102 H 852.799 1.0038 4.0412 0
M  V30 9103 H 855.396 -1.56243 5.11363 0
M  V30 9104 H 855.739 -2.20969 3.52815 0
M  V30 9105 H 856.272 -0.561146 3.93822 0
M  V30 9106 H 853.011 1.04087 6.47183 0
M  V30 9107 H 852.531 -0.596023 5.96831 0
M  V30 9108 H 854.21 -0.268651 6.46442 0
M  V30 9109 N 854.342 -1.57594 -0.0133615 0
M  V30 9110 C 855.272 -2.10611 -1.00823 0
M  V30 9111 C 856.253 -1.01217 -1.36708 0
M  V30 9112 O 857.438 -1.28827 -1.45318 0
M  V30 9113 C 854.568 -2.59844 -2.30431 0
M  V30 9114 C 853.522 -3.73644 -2.08745 0
M  V30 9115 C 852.848 -4.09141 -3.4425 0
M  V30 9116 C 854.148 -5.01454 -1.46086 0
M  V30 9117 H 855.842 -2.93985 -0.566849 0
M  V30 9118 H 853.388 -1.41423 -0.271219 0
M  V30 9119 H 855.341 -2.95557 -3.00373 0
M  V30 9120 H 854.065 -1.73573 -2.76658 0
M  V30 9121 H 852.724 -3.38303 -1.41232 0
M  V30 9122 H 852.372 -3.19914 -3.88155 0
M  V30 9123 H 852.072 -4.85802 -3.3056 0
M  V30 9124 H 853.596 -4.47402 -4.15528 0
M  V30 9125 H 855.01 -5.35024 -2.05966 0
M  V30 9126 H 853.407 -5.82832 -1.42924 0
M  V30 9127 H 854.477 -4.83003 -0.428471 0
M  V30 9128 N 855.82 0.285905 -1.54985 0
M  V30 9129 C 856.752 1.37505 -1.83371 0
M  V30 9130 C 857.765 1.46138 -0.717454 0
M  V30 9131 O 858.954 1.48186 -0.995142 0
M  V30 9132 C 856.054 2.7575 -1.97016 0
M  V30 9133 C 855.227 2.89866 -3.27561 0
M  V30 9134 C 854.286 4.08704 -3.31433 0
M  V30 9135 O 853.312 4.00073 -4.04883 0
M  V30 9136 N 854.514 5.20062 -2.57907 0
M  V30 9137 H 857.279 1.13505 -2.77375 0
M  V30 9138 H 854.84 0.476006 -1.54744 0
M  V30 9139 H 856.832 3.5352 -1.96991 0
M  V30 9140 H 855.402 2.9263 -1.09938 0
M  V30 9141 H 854.622 1.99085 -3.40234 0
M  V30 9142 H 855.91 2.96219 -4.13681 0
M  V30 9143 H 855.308 5.29958 -1.97891 0
M  V30 9144 H 853.865 5.96111 -2.63619 0
M  V30 9145 N 857.298 1.47698 0.54982 0
M  V30 9146 C 858.208 1.63386 1.68351 0
M  V30 9147 C 859.224 0.516583 1.66155 0
M  V30 9148 O 860.4 0.785088 1.85468 0
M  V30 9149 C 857.465 1.6513 3.04849 0
M  V30 9150 C 856.526 2.88338 3.18056 0
M  V30 9151 C 855.759 2.8999 4.48042 0
M  V30 9152 O 855.982 2.00633 5.3395 0
M  V30 9153 O 854.916 3.81938 4.65196 0
M  V30 9154 H 858.742 2.59329 1.58057 0
M  V30 9155 H 856.327 1.30869 0.72067 0
M  V30 9156 H 858.209 1.68913 3.86065 0
M  V30 9157 H 856.884 0.723555 3.1551 0
M  V30 9158 H 855.791 2.90097 2.36209 0
M  V30 9159 H 857.124 3.80431 3.12302 0
M  V30 9160 N 858.776 -0.797141 1.35954 0
M  V30 9161 C 859.706 -1.92387 1.32323 0
M  V30 9162 C 860.687 -1.68967 0.196007 0
M  V30 9163 O 861.872 -1.90193 0.39245 0
M  V30 9164 C 859.002 -3.29286 1.10398 0
M  V30 9165 C 857.956 -3.67212 2.19862 0
M  V30 9166 C 857.282 -5.02377 1.8309 0
M  V30 9167 C 858.582 -3.76602 3.61896 0
M  V30 9168 H 860.276 -1.95683 2.26602 0
M  V30 9169 H 857.822 -0.94007 1.09081 0
M  V30 9170 H 859.775 -4.07721 1.06495 0
M  V30 9171 H 858.499 -3.26358 0.125668 0
M  V30 9172 H 857.158 -2.91069 2.22878 0
M  V30 9173 H 856.806 -4.95961 0.838527 0
M  V30 9174 H 856.506 -5.28722 2.56372 0
M  V30 9175 H 858.03 -5.8324 1.80729 0
M  V30 9176 H 859.444 -4.45246 3.6115 0
M  V30 9177 H 857.841 -4.14425 4.34018 0
M  V30 9178 H 858.911 -2.77906 3.97361 0
M  V30 9179 N 860.254 -1.20106 -1.0204 0
M  V30 9180 C 861.164 -0.962051 -2.13967 0
M  V30 9181 C 862.18 0.0808053 -1.73812 0
M  V30 9182 O 863.356 -0.105774 -2.01122 0
M  V30 9183 C 860.421 -0.513108 -3.42882 0
M  V30 9184 C 859.482 -1.62636 -3.97301 0
M  V30 9185 C 858.715 -1.19875 -5.20063 0
M  V30 9186 O 858.938 -0.0658423 -5.70362 0
M  V30 9187 O 857.872 -2.00467 -5.67536 0
M  V30 9188 H 861.698 -1.8991 -2.36998 0
M  V30 9189 H 859.283 -0.984608 -1.12365 0
M  V30 9190 H 861.165 -0.271797 -4.20523 0
M  V30 9191 H 859.84 0.395402 -3.21276 0
M  V30 9192 H 858.747 -1.92192 -3.20957 0
M  V30 9193 H 860.08 -2.51174 -4.23288 0
M  V30 9194 N 861.732 1.21287 -1.00634 0
M  V30 9195 C 862.962 1.94103 -0.70765 0
M  V30 9196 C 863.37 1.74382 0.733991 0
M  V30 9197 O 862.713 1.04843 1.50843 0
M  V30 9198 C 862.775 3.46705 -0.950581 0
M  V30 9199 C 862.439 3.90176 -2.37932 0
M  V30 9200 C 863.436 3.96769 -3.35961 0
M  V30 9201 C 861.121 4.22453 -2.71733 0
M  V30 9202 C 863.115 4.35034 -4.65858 0
M  V30 9203 C 860.802 4.60394 -4.01846 0
M  V30 9204 C 861.8 4.66656 -4.9872 0
M  V30 9205 O 861.488 5.03732 -6.26505 0
M  V30 9206 H 861.22 0.62405 -0.259881 0
M  V30 9207 H 863.774 1.55015 -1.34757 0
M  V30 9208 H 862.004 3.85868 -0.253492 0
M  V30 9209 H 863.693 4.00741 -0.645069 0
M  V30 9210 H 864.459 3.72009 -3.11182 0
M  V30 9211 H 860.338 4.16776 -1.97025 0
M  V30 9212 H 863.882 4.39836 -5.4147 0
M  V30 9213 H 859.779 4.84609 -4.26409 0
M  V30 9214 H 860.547 5.21761 -6.30641 0
M  V30 9215 N 863.21 0.781244 1.36873 0
M  V30 9216 C 864.458 0.349198 1.9906 0
M  V30 9217 C 864.779 -1.0806 1.62321 0
M  V30 9218 O 864.049 -1.74351 0.893229 0
M  V30 9219 H 862.629 0.126126 0.736275 0
M  V30 9220 H 865.291 1.00148 1.67202 0
M  V30 9221 H 864.387 0.434451 3.09061 0
M  V30 9222 N 864.689 -1.48329 0.532571 0
M  V30 9223 C 866.1 -1.86469 0.0927749 0
M  V30 9224 C 866.451 -1.44186 -1.3306 0
M  V30 9225 O 865.576 -0.833741 -1.99694 0
M  V30 9226 C 866.171 -3.38414 0.161588 0
M  V30 9227 C 864.73 -3.75739 -0.223028 0
M  V30 9228 C 863.877 -2.72377 0.520199 0
M  V30 9229 H 866.828 -1.40197 0.743678 0
M  V30 9230 H 866.849 -3.75314 -0.626059 0
M  V30 9231 H 866.361 -3.69159 1.19765 0
M  V30 9232 H 864.462 -3.50608 -1.26113 0
M  V30 9233 H 864.575 -4.78954 0.118385 0
M  V30 9234 H 862.939 -2.54678 -0.0338425 0
M  V30 9235 H 863.722 -3.05965 1.55694 0
M  V30 9236 N 866.167 -0.267825 -1.55308 0
M  V30 9237 C 867.392 0.357487 -2.04296 0
M  V30 9238 C 867.817 1.49222 -1.14518 0
M  V30 9239 O 867.175 1.80741 -0.142292 0
M  V30 9240 C 867.223 0.822899 -3.51085 0
M  V30 9241 O 866.327 1.93078 -3.6441 0
M  V30 9242 H 865.668 0.075025 -0.659748 0
M  V30 9243 H 868.198 -0.399996 -2.00652 0
M  V30 9244 H 868.208 1.12059 -3.92309 0
M  V30 9245 H 866.883 -0.0073562 -4.15899 0
M  V30 9246 H 865.46 1.63618 -3.35087 0
M  V30 9247 N 867.645 1.57599 0.00500368 0
M  V30 9248 C 868.891 1.90631 0.691919 0
M  V30 9249 C 869.224 0.868443 1.737 0
M  V30 9250 O 868.499 -0.113482 1.94169 0
M  V30 9251 C 868.782 3.34255 1.33961 0
M  V30 9252 C 868.635 4.48755 0.306413 0
M  V30 9253 C 869.954 3.77211 2.26715 0
M  V30 9254 H 867.073 0.693279 0.250066 0
M  V30 9255 H 869.715 1.89946 -0.0452634 0
M  V30 9256 H 867.865 3.3497 1.96793 0
M  V30 9257 H 869.537 4.60176 -0.321841 0
M  V30 9258 H 867.78 4.32203 -0.371852 0
M  V30 9259 H 868.451 5.46193 0.798554 0
M  V30 9260 H 870.927 3.78017 1.73904 0
M  V30 9261 H 869.803 4.78466 2.69002 0
M  V30 9262 H 870.064 3.10801 3.14413 0
M  V30 9263 N 869.123 -0.277682 1.55134 0
M  V30 9264 C 870.4 -1.0309 1.66228 0
M  V30 9265 C 870.78 -2.0445 0.525701 0
M  V30 9266 O 870.128 -2.23512 -0.474816 0
M  V30 9267 C 870.338 -1.6919 3.05247 0
M  V30 9268 C 871.686 -2.20526 3.62841 0
M  V30 9269 O 872.71 -1.79185 3.07849 0
M  V30 9270 O 871.569 -2.96342 4.59177 0
M  V30 9271 H 868.663 -0.4779 0.674937 0
M  V30 9272 H 871.209 -0.273912 1.67475 0
M  V30 9273 H 869.981 -0.957163 3.79413 0
M  V30 9274 H 869.604 -2.51587 3.07879 0
M  V30 9275 N 870.601 -1.47988 -0.541979 0
M  V30 9276 C 871.847 -1.56604 -1.29795 0
M  V30 9277 C 872.202 -0.231728 -1.90999 0
M  V30 9278 O 871.495 0.764203 -1.757 0
M  V30 9279 C 871.689 -2.63189 -2.41798 0
M  V30 9280 C 871.518 -4.06855 -1.9157 0
M  V30 9281 C 870.288 -4.74132 -1.74719 0
M  V30 9282 C 872.486 -4.934 -1.45123 0
M  V30 9283 N 870.468 -6.02258 -1.18991 0
M  V30 9284 C 871.839 -6.11675 -1.01263 0
M  V30 9285 C 873.894 -4.7972 -1.33315 0
M  V30 9286 C 872.597 -7.17778 -0.467663 0
M  V30 9287 C 874.623 -5.85934 -0.802192 0
M  V30 9288 C 873.985 -7.03409 -0.373595 0
M  V30 9289 H 870.084 -0.627677 -0.466418 0
M  V30 9290 H 872.668 -1.84812 -0.612576 0
M  V30 9291 H 870.839 -2.36823 -3.07846 0
M  V30 9292 H 872.571 -2.6156 -3.08818 0
M  V30 9293 H 869.326 -4.30276 -1.97887 0
M  V30 9294 H 869.75 -6.70558 -0.931715 0
M  V30 9295 H 874.392 -3.89249 -1.6506 0
M  V30 9296 H 872.11 -8.07982 -0.137874 0
M  V30 9297 H 875.696 -5.774 -0.714171 0
M  V30 9298 H 874.576 -7.84194 0.0308796 0
M  V30 9299 N 872.079 0.78992 -1.36375 0
M  V30 9300 C 873.325 1.54939 -1.31778 0
M  V30 9301 C 873.68 1.92128 0.102327 0
M  V30 9302 O 872.973 1.59823 1.05675 0
M  V30 9303 C 873.167 2.83698 -2.17371 0
M  V30 9304 C 872.996 2.59093 -3.67561 0
M  V30 9305 C 871.766 2.5414 -4.36739 0
M  V30 9306 C 873.964 2.28325 -4.60838 0
M  V30 9307 N 871.946 2.21427 -5.72576 0
M  V30 9308 C 873.317 2.05596 -5.84919 0
M  V30 9309 C 875.372 2.14328 -4.49409 0
M  V30 9310 C 874.075 1.70285 -6.98853 0
M  V30 9311 C 876.101 1.80415 -5.63209 0
M  V30 9312 C 875.463 1.58533 -6.86328 0
M  V30 9313 H 871.562 0.568011 -0.537483 0
M  V30 9314 H 874.146 0.923183 -1.71422 0
M  V30 9315 H 872.317 3.44187 -1.79972 0
M  V30 9316 H 874.049 3.49425 -2.04167 0
M  V30 9317 H 870.804 2.69368 -3.89535 0
M  V30 9318 H 871.228 2.07818 -6.44314 0
M  V30 9319 H 875.87 2.29935 -3.54809 0
M  V30 9320 H 873.588 1.53415 -7.93404 0
M  V30 9321 H 877.174 1.70269 -5.56327 0
M  V30 9322 H 876.054 1.32677 -7.72895 0
M  V30 9323 N 873.557 1.20646 1.01402 0
M  V30 9324 C 874.52 0.959314 2.08158 0
M  V30 9325 C 875.52 -0.0661558 1.60664 0
M  V30 9326 O 876.71 0.170177 1.73367 0
M  V30 9327 C 873.842 0.444785 3.37986 0
M  V30 9328 H 875.035 1.90631 2.31517 0
M  V30 9329 H 872.588 1.02219 1.18241 0
M  V30 9330 H 873.323 -0.507553 3.20304 0
M  V30 9331 H 873.108 1.18435 3.73785 0
M  V30 9332 H 874.598 0.291443 4.16582 0
M  V30 9333 N 875.035 -1.20752 1.01276 0
M  V30 9334 C 875.965 -2.25658 0.600064 0
M  V30 9335 C 876.946 -1.65733 -0.38298 0
M  V30 9336 O 878.131 -1.92324 -0.269256 0
M  V30 9337 C 875.261 -3.47237 -0.0663197 0
M  V30 9338 C 874.215 -4.1973 0.83731 0
M  V30 9339 C 873.541 -5.34687 0.0369102 0
M  V30 9340 C 874.841 -4.76286 2.14357 0
M  V30 9341 H 876.535 -2.60432 1.477 0
M  V30 9342 H 874.081 -1.25187 0.711634 0
M  V30 9343 H 876.034 -4.19803 -0.366563 0
M  V30 9344 H 874.758 -3.11615 -0.977944 0
M  V30 9345 H 873.417 -3.49024 1.1215 0
M  V30 9346 H 873.065 -4.95309 -0.876244 0
M  V30 9347 H 872.765 -5.84119 0.63865 0
M  V30 9348 H 874.289 -6.10059 -0.256968 0
M  V30 9349 H 875.703 -5.40691 1.90595 0
M  V30 9350 H 874.1 -5.36139 2.69583 0
M  V30 9351 H 875.17 -3.9524 2.80916 0
M  V30 9352 N 876.513 -0.788492 -1.36457 0
M  V30 9353 C 877.761 -0.359749 -1.98872 0
M  V30 9354 C 878.082 1.07197 -1.62892 0
M  V30 9355 O 877.352 1.73875 -0.902463 0
M  V30 9356 H 875.932 -0.130029 -0.735596 0
M  V30 9357 H 878.594 -1.01033 -1.66668 0
M  V30 9358 H 877.69 -0.450835 -3.08827 0
M  V30 9359 N 877.991 1.48044 -0.54043 0
M  V30 9360 C 879.237 2.02797 -0.0101718 0
M  V30 9361 C 879.57 1.41565 1.32939 0
M  V30 9362 O 878.845 0.565139 1.86109 0
M  V30 9363 C 879.128 3.59959 0.100758 0
M  V30 9364 C 878.981 4.31654 -1.26471 0
M  V30 9365 C 880.3 4.32347 0.822455 0
M  V30 9366 H 877.419 0.736982 -0.00517052 0
M  V30 9367 H 880.061 1.76656 -0.69948 0
M  V30 9368 H 878.211 3.82363 0.687824 0
M  V30 9369 H 879.883 4.20639 -1.89369 0
M  V30 9370 H 878.126 3.92663 -1.84386 0
M  V30 9371 H 878.797 5.401 -1.13998 0
M  V30 9372 H 881.273 4.14835 0.324164 0
M  V30 9373 H 880.149 5.41978 0.868993 0
M  V30 9374 H 880.41 4.00369 1.87501 0
M  V30 9375 N 879.47 0.276058 1.55163 0
M  V30 9376 C 880.4 -0.604633 2.25536 0
M  V30 9377 C 881.381 -1.15813 1.24585 0
M  V30 9378 O 882.566 -1.1921 1.53306 0
M  V30 9379 C 879.696 -1.78836 2.97716 0
M  V30 9380 C 878.65 -1.36635 4.05604 0
M  V30 9381 C 877.976 -2.63325 4.65364 0
M  V30 9382 C 879.276 -0.515858 5.19746 0
M  V30 9383 H 880.97 -0.0177483 2.99395 0
M  V30 9384 H 878.516 -0.00709627 1.43998 0
M  V30 9385 H 880.469 -2.41036 3.45658 0
M  V30 9386 H 879.193 -2.40109 2.21394 0
M  V30 9387 H 877.852 -0.767541 3.58475 0
M  V30 9388 H 877.5 -3.22858 3.85709 0
M  V30 9389 H 877.2 -2.358 5.38212 0
M  V30 9390 H 878.724 -3.26372 5.16056 0
M  V30 9391 H 880.138 -1.04289 5.63735 0
M  V30 9392 H 878.535 -0.335449 5.99162 0
M  V30 9393 H 879.605 0.465137 4.82664 0
M  V30 9394 N 880.948 -1.576 0.00335426 0
M  V30 9395 C 881.881 -2.04085 -1.021 0
M  V30 9396 C 882.859 -0.931382 -1.33282 0
M  V30 9397 O 884.043 -1.19976 -1.45389 0
M  V30 9398 C 881.17 -2.44128 -2.34775 0
M  V30 9399 C 880.216 -3.65841 -2.19232 0
M  V30 9400 S 881.049 -5.13616 -1.51521 0
M  V30 9401 C 882.205 -5.56931 -2.8562 0
M  V30 9402 H 882.438 -2.90652 -0.625192 0
M  V30 9403 H 879.971 -1.52998 -0.207611 0
M  V30 9404 H 881.929 -2.67866 -3.1106 0
M  V30 9405 H 880.59 -1.57954 -2.71495 0
M  V30 9406 H 879.783 -3.9162 -3.17253 0
M  V30 9407 H 879.385 -3.42122 -1.51091 0
M  V30 9408 H 881.677 -5.59596 -3.81914 0
M  V30 9409 H 882.62 -6.5683 -2.64536 0
M  V30 9410 H 883.028 -4.84504 -2.89683 0
M  V30 9411 N 882.426 0.269451 -1.5528 0
M  V30 9412 C 883.656 1.01724 -1.79821 0
M  V30 9413 C 884.064 1.80298 -0.573532 0
M  V30 9414 O 883.407 1.77666 0.466963 0
M  V30 9415 C 883.469 2.02043 -2.97353 0
M  V30 9416 C 883.133 1.42375 -4.34256 0
M  V30 9417 C 884.13 0.837611 -5.13108 0
M  V30 9418 C 881.815 1.44988 -4.8092 0
M  V30 9419 C 883.809 0.285557 -6.3676 0
M  V30 9420 C 881.496 0.893969 -6.04526 0
M  V30 9421 C 882.494 0.312809 -6.82283 0
M  V30 9422 O 882.182 -0.234582 -8.03558 0
M  V30 9423 H 881.914 0.30604 -0.602757 0
M  V30 9424 H 884.468 0.30454 -2.0313 0
M  V30 9425 H 882.698 2.77082 -2.69745 0
M  V30 9426 H 884.387 2.6298 -3.09187 0
M  V30 9427 H 885.153 0.81009 -4.78187 0
M  V30 9428 H 881.032 1.89162 -4.20403 0
M  V30 9429 H 884.576 -0.168696 -6.97396 0
M  V30 9430 H 880.473 0.918742 -6.38928 0
M  V30 9431 H 881.241 -0.124282 -8.18406 0
M  V30 9432 N 883.904 1.48273 0.534124 0
M  V30 9433 C 884.814 1.65162 1.66609 0
M  V30 9434 C 885.83 0.534177 1.65598 0
M  V30 9435 O 887.006 0.804715 1.84625 0
M  V30 9436 C 884.071 1.68354 3.03081 0
M  V30 9437 C 883.132 2.91696 3.1498 0
M  V30 9438 C 882.365 2.94725 4.44941 0
M  V30 9439 O 882.588 2.06285 5.31792 0
M  V30 9440 O 881.522 3.8685 4.61119 0
M  V30 9441 H 885.348 2.60991 1.55298 0
M  V30 9442 H 882.933 1.31626 0.706749 0
M  V30 9443 H 884.815 1.72998 3.84252 0
M  V30 9444 H 883.49 0.756978 3.14725 0
M  V30 9445 H 882.397 2.92586 2.33119 0
M  V30 9446 H 883.73 3.83722 3.0825 0
M  V30 9447 N 885.382 -0.782676 1.36792 0
M  V30 9448 C 886.315 -1.90241 1.2603 0
M  V30 9449 C 887.293 -1.61969 0.143055 0
M  V30 9450 O 888.477 -1.85843 0.315366 0
M  V30 9451 C 885.604 -3.25218 0.946082 0
M  V30 9452 C 884.65 -3.72414 2.0787 0
M  V30 9453 S 885.483 -3.87376 3.69729 0
M  V30 9454 C 886.639 -5.25219 3.40435 0
M  V30 9455 H 886.872 -1.99079 2.20805 0
M  V30 9456 H 884.405 -0.942625 1.22286 0
M  V30 9457 H 886.363 -4.03183 0.771612 0
M  V30 9458 H 885.024 -3.14096 0.0159991 0
M  V30 9459 H 884.217 -4.7024 1.81358 0
M  V30 9460 H 883.819 -3.01519 2.21274 0
M  V30 9461 H 886.111 -6.10025 2.94746 0
M  V30 9462 H 887.054 -5.56738 4.37549 0
M  V30 9463 H 887.462 -4.92638 2.75622 0
M  V30 9464 N 886.86 -1.21182 -1.00761 0
M  V30 9465 C 887.793 -0.912033 -2.09182 0
M  V30 9466 C 888.771 0.139421 -1.62001 0
M  V30 9467 O 889.955 0.0110272 -1.88497 0
M  V30 9468 C 887.082 -0.368957 -3.36684 0
M  V30 9469 C 886.128 -1.4028 -4.0277 0
M  V30 9470 S 886.961 -2.97108 -4.45519 0
M  V30 9471 C 888.117 -2.444 -5.76211 0
M  V30 9472 H 888.35 -1.83019 -2.34289 0
M  V30 9473 H 885.883 -1.04127 -1.14004 0
M  V30 9474 H 887.841 -0.0621883 -4.10453 0
M  V30 9475 H 886.502 0.527841 -3.09633 0
M  V30 9476 H 885.695 -0.97238 -4.94531 0
M  V30 9477 H 885.297 -1.65752 -3.35265 0
M  V30 9478 H 887.589 -1.84723 -6.51831 0
M  V30 9479 H 888.532 -3.34593 -6.24062 0
M  V30 9480 H 888.94 -1.86203 -5.32906 0
M  V30 9481 N 888.338 1.20213 -1.01915 0
M  V30 9482 C 889.301 2.21307 -0.596327 0
M  V30 9483 C 890.301 1.57274 0.334879 0
M  V30 9484 O 891.491 1.73764 0.12322 0
M  V30 9485 C 888.623 3.40657 0.128808 0
M  V30 9486 H 889.816 2.60228 -1.49068 0
M  V30 9487 H 887.369 1.33721 -0.809226 0
M  V30 9488 H 888.104 3.07241 1.03796 0
M  V30 9489 H 887.889 3.88361 -0.540183 0
M  V30 9490 H 889.379 4.15564 0.411892 0
M  V30 9491 N 889.816 0.795718 1.36037 0
M  V30 9492 C 891.064 0.370291 1.98679 0
M  V30 9493 C 891.385 -1.06332 1.63458 0
M  V30 9494 O 890.655 -1.73394 0.911671 0
M  V30 9495 H 889.235 0.133928 0.734896 0
M  V30 9496 H 891.897 1.01915 1.6613 0
M  V30 9497 H 890.993 0.467207 3.08583 0
M  V30 9498 N 891.294 -1.47756 0.548274 0
M  V30 9499 C 892.226 -2.27921 -0.24177 0
M  V30 9500 C 893.239 -1.36471 -0.887658 0
M  V30 9501 O 894.428 -1.6137 -0.763016 0
M  V30 9502 C 891.528 -3.10449 -1.35922 0
M  V30 9503 C 890.701 -4.298 -0.811808 0
M  V30 9504 C 889.76 -4.93994 -1.81264 0
M  V30 9505 O 888.786 -5.52657 -1.3623 0
M  V30 9506 N 889.988 -4.87882 -3.14566 0
M  V30 9507 H 892.753 -2.96365 0.445848 0
M  V30 9508 H 890.314 -1.57286 0.383769 0
M  V30 9509 H 892.306 -3.50261 -2.02729 0
M  V30 9510 H 890.876 -2.44306 -1.95021 0
M  V30 9511 H 890.096 -3.94186 0.0327929 0
M  V30 9512 H 891.384 -5.0702 -0.425272 0
M  V30 9513 H 890.782 -4.41405 -3.53805 0
M  V30 9514 H 889.339 -5.3174 -3.76956 0
M  V30 9515 N 892.772 -0.284283 -1.55015 0
M  V30 9516 C 894.183 0.211681 -1.85496 0
M  V30 9517 C 894.534 1.54735 -1.2063 0
M  V30 9518 O 893.659 2.10594 -0.497918 0
M  V30 9519 C 894.254 0.390864 -3.36538 0
M  V30 9520 C 892.813 0.831055 -3.67111 0
M  V30 9521 C 891.96 -0.0703581 -2.77211 0
M  V30 9522 H 894.911 -0.505803 -1.50424 0
M  V30 9523 H 894.932 1.22803 -3.60138 0
M  V30 9524 H 894.444 -0.581409 -3.8372 0
M  V30 9525 H 892.545 1.81447 -3.25434 0
M  V30 9526 H 892.658 0.662026 -4.74504 0
M  V30 9527 H 891.022 0.447528 -2.50737 0
M  V30 9528 H 891.805 -1.03868 -3.2721 0
M  V30 9529 N 894.251 1.57596 -0.0117121 0
M  V30 9530 C 895.662 1.79033 0.529521 0
M  V30 9531 C 896.013 0.920299 1.73277 0
M  V30 9532 O 895.138 0.125934 2.16033 0
M  V30 9533 C 895.733 3.24695 0.967405 0
M  V30 9534 C 894.292 3.47188 1.45387 0
M  V30 9535 C 893.439 2.74245 0.410466 0
M  V30 9536 H 896.39 1.56908 -0.237836 0
M  V30 9537 H 896.411 3.33451 1.83278 0
M  V30 9538 H 895.923 3.87992 0.0914605 0
M  V30 9539 H 894.024 2.89121 2.35032 0
M  V30 9540 H 894.137 4.55886 1.47325 0
M  V30 9541 H 892.501 2.39209 0.874721 0
M  V30 9542 H 893.284 3.40248 -0.456713 0
M  V30 9543 N 895.729 -0.261212 1.5542 0
M  V30 9544 C 896.976 -0.99123 1.76581 0
M  V30 9545 C 897.304 -1.85854 0.573457 0
M  V30 9546 O 896.559 -1.90604 -0.443705 0
M  V30 9547 C 896.858 -1.89395 3.03091 0
M  V30 9548 C 896.524 -1.18318 4.351 0
M  V30 9549 C 895.186 -0.986688 4.70975 0
M  V30 9550 C 897.538 -0.678299 5.16767 0
M  V30 9551 C 894.866 -0.272788 5.86065 0
M  V30 9552 C 897.218 0.0220646 6.32596 0
M  V30 9553 C 895.882 0.230161 6.67103 0
M  V30 9554 H 895.152 -0.362717 0.646156 0
M  V30 9555 H 897.799 -0.262506 1.89692 0
M  V30 9556 H 896.104 -2.68927 2.8493 0
M  V30 9557 H 897.801 -2.46022 3.16661 0
M  V30 9558 H 894.391 -1.34625 4.06908 0
M  V30 9559 H 898.575 -0.817691 4.89518 0
M  V30 9560 H 893.831 -0.10095 6.11317 0
M  V30 9561 H 898.005 0.420981 6.95126 0
M  V30 9562 H 895.632 0.785312 7.56133 0
M  V30 9563 N 897.207 -1.48554 -0.526253 0
M  V30 9564 C 898.117 -1.66044 -1.65731 0
M  V30 9565 C 899.133 -0.542951 -1.65312 0
M  V30 9566 O 900.309 -0.814495 -1.84195 0
M  V30 9567 C 897.374 -1.69959 -3.02184 0
M  V30 9568 C 896.435 -2.93362 -3.13428 0
M  V30 9569 C 895.668 -2.97081 -4.43372 0
M  V30 9570 O 895.891 -2.09103 -5.3069 0
M  V30 9571 O 894.825 -3.8929 -4.59061 0
M  V30 9572 H 898.651 -2.61811 -1.53912 0
M  V30 9573 H 896.236 -1.31999 -0.699759 0
M  V30 9574 H 898.118 -1.75033 -3.83329 0
M  V30 9575 H 896.793 -0.773658 -3.14319 0
M  V30 9576 H 895.7 -2.93818 -2.31564 0
M  V30 9577 H 897.033 -3.85352 -3.06211 0
M  V30 9578 N 898.685 0.775411 -1.37205 0
M  V30 9579 C 899.648 1.8702 -1.325 0
M  V30 9580 C 900.648 1.5915 -0.229793 0
M  V30 9581 O 901.838 1.673 -0.485423 0
M  V30 9582 C 898.97 3.24085 -1.05745 0
M  V30 9583 H 900.163 1.92604 -2.29878 0
M  V30 9584 H 897.716 0.97476 -1.22181 0
M  V30 9585 H 898.451 3.24178 -0.0888371 0
M  V30 9586 H 898.236 3.45705 -1.85016 0
M  V30 9587 H 899.726 4.0416 -1.05094 0
M  V30 9588 N 900.163 1.21714 1.00117 0
M  V30 9589 C 901.44 0.945391 1.71236 0
M  V30 9590 C 901.82 -0.541772 2.0403 0
M  V30 9591 O 901.168 -1.50763 1.71705 0
M  V30 9592 C 901.378 1.83444 2.96899 0
M  V30 9593 C 902.726 2.08558 3.69849 0
M  V30 9594 O 903.75 1.80824 3.06889 0
M  V30 9595 O 902.609 2.55485 4.83104 0
M  V30 9596 H 899.703 0.354834 0.747009 0
M  V30 9597 H 902.249 1.32661 1.05825 0
M  V30 9598 H 901.021 2.84075 2.69105 0
M  V30 9599 H 900.644 1.45428 3.70049 0
M  V30 9600 N 901.641 -1.19671 1.02551 0
M  V30 9601 C 902.589 -2.24812 0.596867 0
M  V30 9602 C 903.583 -1.65336 -0.368839 0
M  V30 9603 O 904.789 -1.78422 -0.237786 0
M  V30 9604 H 901.164 -0.731417 0.174739 0
M  V30 9605 H 903.135 -2.58286 1.49435 0
M  V30 9606 C 901.884 -3.47677 -0.0399514 0
M  V30 9607 H 901.207 -3.93728 0.694153 0
M  V30 9608 H 902.647 -4.22917 -0.302861 0
M  V30 9609 C 901.106 -3.11411 -1.2855 0
M  V30 9610 O 901.636 -3.23757 -2.37791 0
M  V30 9611 N 899.842 -2.65875 -1.17297 0
M  V30 9612 H 899.389 -2.56029 -0.284045 0
M  V30 9613 H 899.347 -2.41981 -2.00731 0
M  V30 9614 N 903.119 -0.802921 -1.35613 0
M  V30 9615 C 904.029 -0.212177 -2.33639 0
M  V30 9616 C 905.045 0.642871 -1.61689 0
M  V30 9617 O 906.221 0.555485 -1.93588 0
M  V30 9618 C 903.286 0.632406 -3.40883 0
M  V30 9619 C 902.347 -0.242708 -4.28613 0
M  V30 9620 C 901.58 0.56166 -5.30736 0
M  V30 9621 O 901.803 1.79664 -5.41366 0
M  V30 9622 O 900.737 -0.0455387 -6.01883 0
M  V30 9623 H 904.563 -1.023 -2.85952 0
M  V30 9624 H 902.148 -0.564636 -1.38319 0
M  V30 9625 H 904.03 1.11358 -4.0642 0
M  V30 9626 H 902.705 1.42089 -2.90848 0
M  V30 9627 H 901.612 -0.77094 -3.6607 0
M  V30 9628 H 902.945 -0.995046 -4.82037 0
M  V30 9629 N 904.597 1.47463 -0.556102 0
M  V30 9630 C 905.874 1.9557 0.0339892 0
M  V30 9631 C 906.254 1.49869 1.48669 0
M  V30 9632 O 905.602 0.737019 2.16288 0
M  V30 9633 C 905.812 3.48826 -0.110343 0
M  V30 9634 C 907.16 4.24585 0.0355716 0
M  V30 9635 O 908.184 3.5618 -0.0378356 0
M  V30 9636 O 907.043 5.46158 0.193299 0
M  V30 9637 H 904.137 0.824461 0.0647521 0
M  V30 9638 H 906.683 1.57868 -0.622547 0
M  V30 9639 H 905.455 3.74891 -1.12126 0
M  V30 9640 H 905.078 3.9329 0.583855 0
M  V30 9641 N 906.075 0.2925 1.54862 0
M  V30 9642 C 907.352 -0.371946 1.92031 0
M  V30 9643 C 907.732 -1.72363 1.21878 0
M  V30 9644 O 907.08 -2.25779 0.351573 0
M  V30 9645 C 907.29 -0.495027 3.45471 0
M  V30 9646 C 908.638 -0.769855 4.17562 0
M  V30 9647 O 909.662 -0.579168 3.5146 0
M  V30 9648 O 908.521 -1.13561 5.34571 0
M  V30 9649 H 905.615 -0.206463 0.800813 0
M  V30 9650 H 908.161 0.339933 1.6626 0
M  V30 9651 H 906.933 0.455528 3.88639 0
M  V30 9652 H 906.556 -1.2557 3.7725 0
M  V30 9653 N 907.553 -1.57587 0.0200696 0
M  V30 9654 C 908.483 -2.12702 -0.963333 0
M  V30 9655 C 909.464 -1.04094 -1.34531 0
M  V30 9656 O 910.649 -1.31881 -1.42552 0
M  V30 9657 C 907.779 -2.64673 -2.24868 0
M  V30 9658 C 906.733 -3.77987 -2.00772 0
M  V30 9659 C 906.059 -4.16351 -3.35494 0
M  V30 9660 C 907.359 -5.0444 -1.35416 0
M  V30 9661 H 909.053 -2.95121 -0.504363 0
M  V30 9662 H 906.599 -1.41966 -0.24116 0
M  V30 9663 H 908.552 -3.01862 -2.94036 0
M  V30 9664 H 907.276 -1.79403 -2.72914 0
M  V30 9665 H 905.935 -3.41223 -1.34025 0
M  V30 9666 H 905.583 -3.28075 -3.81282 0
M  V30 9667 H 905.283 -4.92705 -3.20181 0
M  V30 9668 H 906.807 -4.56115 -4.05945 0
M  V30 9669 H 908.221 -5.39273 -1.94571 0
M  V30 9670 H 906.618 -5.85732 -1.30529 0
M  V30 9671 H 907.688 -4.83803 -0.325923 0
M  V30 9672 N 909.032 0.252966 -1.55557 0
M  V30 9673 C 910.279 0.981852 -1.77104 0
M  V30 9674 C 910.607 1.85547 -0.583305 0
M  V30 9675 O 909.862 1.90836 0.43359 0
M  V30 9676 C 910.161 1.87785 -3.04091 0
M  V30 9677 C 909.827 1.16009 -4.35721 0
M  V30 9678 C 908.489 0.961697 -4.71492 0
M  V30 9679 C 910.841 0.650884 -5.1712 0
M  V30 9680 C 908.169 0.241704 -5.86202 0
M  V30 9681 C 910.521 -0.0556124 -6.32576 0
M  V30 9682 C 909.185 -0.265536 -6.66972 0
M  V30 9683 H 908.455 0.359285 -0.64807 0
M  V30 9684 H 911.102 0.252443 -1.89829 0
M  V30 9685 H 909.407 2.67412 -2.86353 0
M  V30 9686 H 911.104 2.44339 -3.17961 0
M  V30 9687 H 907.694 1.32465 -4.07616 0
M  V30 9688 H 911.878 0.791719 -4.89944 0
M  V30 9689 H 907.134 0.0685292 -6.11362 0
M  V30 9690 H 911.308 -0.457839 -6.94893 0
M  V30 9691 H 908.935 -0.8254 -7.55706 0
M  V30 9692 N 910.51 1.48831 0.518367 0
M  V30 9693 C 911.42 1.6692 1.64848 0
M  V30 9694 C 912.436 0.551711 1.65022 0
M  V30 9695 O 913.612 0.824251 1.83761 0
M  V30 9696 C 910.677 1.71559 3.01278 0
M  V30 9697 C 909.738 2.9502 3.11868 0
M  V30 9698 C 908.971 2.99428 4.4179 0
M  V30 9699 O 909.194 2.11914 5.29574 0
M  V30 9700 O 908.128 3.91719 4.5699 0
M  V30 9701 H 911.954 2.62623 1.52521 0
M  V30 9702 H 909.539 1.32368 0.692749 0
M  V30 9703 H 911.421 1.77064 3.82396 0
M  V30 9704 H 910.096 0.790316 3.13904 0
M  V30 9705 H 909.003 2.95042 2.30003 0
M  V30 9706 H 910.336 3.8697 3.04163 0
M  V30 9707 N 911.988 -0.768124 1.37614 0
M  V30 9708 C 913.213 -1.56239 1.36397 0
M  V30 9709 C 913.638 -1.8804 -0.0475839 0
M  V30 9710 O 912.996 -1.495 -1.02564 0
M  V30 9711 C 913.044 -2.84716 2.21289 0
M  V30 9712 O 912.148 -3.79249 1.62001 0
M  V30 9713 H 911.489 -0.473119 0.465891 0
M  V30 9714 H 914.019 -0.950415 1.81186 0
M  V30 9715 H 914.029 -3.33784 2.34632 0
M  V30 9716 H 912.704 -2.60899 3.2389 0
M  V30 9717 H 911.281 -3.37904 1.57719 0
M  V30 9718 N 913.466 -1.22244 -0.994698 0
M  V30 9719 C 914.715 -1.04005 -1.72817 0
M  V30 9720 C 915.028 0.425413 -1.90918 0
M  V30 9721 O 916.234 0.727429 -2.61574 0
M  V30 9722 C 914.69 -1.81244 -3.10932 0
M  V30 9723 C 914.298 -3.32028 -3.00768 0
M  V30 9724 C 916.042 -1.71448 -3.88337 0
M  V30 9725 C 913.949 -4.01716 -4.34026 0
M  V30 9726 H 912.879 -0.385559 -0.647966 0
M  V30 9727 H 915.53 -1.46077 -1.11058 0
M  V30 9728 H 913.912 -1.3197 -3.73363 0
M  V30 9729 H 915.086 -3.88682 -2.47513 0
M  V30 9730 H 913.401 -3.4248 -2.36846 0
M  V30 9731 H 915.998 -2.20836 -4.86965 0
M  V30 9732 H 916.341 -0.674568 -4.10798 0
M  V30 9733 H 916.874 -2.18256 -3.3258 0
M  V30 9734 H 913.613 -5.05952 -4.16765 0
M  V30 9735 H 913.133 -3.49849 -4.87202 0
M  V30 9736 H 914.812 -4.0721 -5.02782 0
M  V30 9737 N 914.944 1.19125 -1.03184 0
M  V30 9738 C 915.874 2.24675 -0.635889 0
M  V30 9739 C 916.855 1.66321 0.356565 0
M  V30 9740 O 918.04 1.92728 0.238625 0
M  V30 9741 C 915.17 3.47298 0.011069 0
M  V30 9742 C 914.124 4.18345 -0.903979 0
M  V30 9743 C 913.45 5.34561 -0.12197 0
M  V30 9744 C 914.75 4.72816 -2.21907 0
M  V30 9745 H 916.444 2.5805 -1.51825 0
M  V30 9746 H 913.99 1.24039 -0.73146 0
M  V30 9747 H 915.943 4.20333 0.299729 0
M  V30 9748 H 914.667 3.13131 0.928245 0
M  V30 9749 H 913.326 3.47196 -1.17688 0
M  V30 9750 H 912.974 4.9664 0.797334 0
M  V30 9751 H 912.674 5.83029 -0.731498 0
M  V30 9752 H 914.198 6.10391 0.159881 0
M  V30 9753 H 915.612 5.3759 -1.99173 0
M  V30 9754 H 914.009 5.31782 -2.78078 0
M  V30 9755 H 915.079 3.9072 -2.87168 0
M  V30 9756 N 916.422 0.810101 1.35185 0
M  V30 9757 C 917.372 0.195541 2.2716 0
M  V30 9758 C 918.356 -0.632691 1.47939 0
M  V30 9759 O 919.548 -0.489372 1.701 0
M  V30 9760 C 916.677 -0.652164 3.37049 0
M  V30 9761 C 915.763 0.185989 4.23692 0
M  V30 9762 N 916.154 1.25073 4.90092 0
M  V30 9763 C 914.452 -0.0318033 4.45989 0
M  V30 9764 C 915.153 1.76272 5.54349 0
M  V30 9765 N 914.129 1.06861 5.32993 0
M  V30 9766 H 917.931 1.01018 2.75994 0
M  V30 9767 H 915.445 0.651612 1.48754 0
M  V30 9768 H 917.442 -1.10851 4.01893 0
M  V30 9769 H 916.102 -1.46511 2.89767 0
M  V30 9770 H 917.113 1.63341 4.91467 0
M  V30 9771 H 913.79 -0.813607 4.09496 0
M  V30 9772 H 915.18 2.65278 6.17315 0
M  V30 9773 N 917.9 -1.47166 0.563914 0
M  V30 9774 C 919.177 -1.95586 -0.0236172 0
M  V30 9775 C 919.557 -1.50655 -1.47872 0
M  V30 9776 O 918.905 -0.748479 -2.15894 0
M  V30 9777 C 919.115 -3.48762 0.128841 0
M  V30 9778 C 920.463 -4.24598 -0.0130544 0
M  V30 9779 O 921.487 -3.56155 0.0567242 0
M  V30 9780 O 920.346 -5.46253 -0.164332 0
M  V30 9781 H 917.44 -0.824793 -0.0603789 0
M  V30 9782 H 919.986 -1.57536 0.63091 0
M  V30 9783 H 918.758 -3.74291 1.14113 0
M  V30 9784 H 918.381 -3.93594 -0.56299 0
M  V30 9785 N 919.378 -0.300708 -1.54705 0
M  V30 9786 C 920.655 0.361757 -1.92226 0
M  V30 9787 C 921.035 1.71714 -1.2279 0
M  V30 9788 O 920.383 2.2559 -0.363542 0
M  V30 9789 C 920.593 0.476699 -3.45729 0
M  V30 9790 C 921.941 0.7477 -4.17965 0
M  V30 9791 O 922.965 0.560521 -3.51762 0
M  V30 9792 O 921.824 1.10724 -5.35166 0
M  V30 9793 H 918.918 0.202213 -0.801897 0
M  V30 9794 H 921.464 -0.348746 -1.66078 0
M  V30 9795 H 920.236 -0.476132 -3.88392 0
M  V30 9796 H 919.859 1.23568 -3.77911 0
M  V30 9797 N 920.856 1.57574 -0.0284266 0
M  V30 9798 C 922.102 1.92056 0.651327 0
M  V30 9799 C 922.435 0.905092 1.71819 0
M  V30 9800 O 921.71 -0.0722703 1.94366 0
M  V30 9801 C 921.993 3.37021 1.26841 0
M  V30 9802 C 921.846 4.49304 0.211157 0
M  V30 9803 C 923.165 3.81936 2.18662 0
M  V30 9804 H 920.284 0.698428 0.235304 0
M  V30 9805 H 922.926 1.89807 -0.0855435 0
M  V30 9806 H 921.076 3.39068 1.89644 0
M  V30 9807 H 922.748 4.5939 -0.419379 0
M  V30 9808 H 920.991 4.31317 -0.463445 0
M  V30 9809 H 921.662 5.47764 0.682518 0
M  V30 9810 H 924.138 3.8162 1.65847 0
M  V30 9811 H 923.014 4.84064 2.58792 0
M  V30 9812 H 923.275 3.174 3.07749 0
M  V30 9813 N 922.334 -0.244713 1.55689 0
M  V30 9814 C 923.264 -1.30667 1.93516 0
M  V30 9815 C 924.245 -1.50094 0.800371 0
M  V30 9816 O 925.43 -1.62665 1.06083 0
M  V30 9817 C 922.56 -2.66101 2.23176 0
M  V30 9818 C 921.514 -2.61366 3.38927 0
M  V30 9819 C 920.84 -4.00616 3.54134 0
M  V30 9820 C 922.14 -2.18161 4.74555 0
M  V30 9821 H 923.834 -0.992546 2.82469 0
M  V30 9822 H 921.38 -0.476018 1.35905 0
M  V30 9823 H 923.333 -3.4053 2.48228 0
M  V30 9824 H 922.057 -2.99154 1.31051 0
M  V30 9825 H 920.716 -1.89395 3.13887 0
M  V30 9826 H 920.364 -4.30938 2.59426 0
M  V30 9827 H 920.064 -3.98335 4.31975 0
M  V30 9828 H 921.588 -4.76741 3.8151 0
M  V30 9829 H 923.002 -2.82323 4.98965 0
M  V30 9830 H 921.399 -2.26988 5.55515 0
M  V30 9831 H 922.469 -1.13333 4.7147 0
M  V30 9832 N 923.813 -1.49104 -0.510467 0
M  V30 9833 C 925.043 -1.61571 -1.28757 0
M  V30 9834 C 925.451 -0.282638 -1.87077 0
M  V30 9835 O 924.794 0.740749 -1.68103 0
M  V30 9836 C 924.856 -2.61851 -2.46322 0
M  V30 9837 C 924.52 -4.06438 -2.08942 0
M  V30 9838 C 925.517 -4.93532 -1.63469 0
M  V30 9839 C 923.202 -4.52109 -2.18867 0
M  V30 9840 C 925.196 -6.24331 -1.28411 0
M  V30 9841 C 922.883 -5.82924 -1.83421 0
M  V30 9842 C 923.881 -6.68858 -1.38267 0
M  V30 9843 O 923.569 -7.97236 -1.03296 0
M  V30 9844 H 923.301 -0.547082 -0.397086 0
M  V30 9845 H 925.855 -1.95806 -0.620424 0
M  V30 9846 H 924.085 -2.22777 -3.16081 0
M  V30 9847 H 925.774 -2.63947 -3.08362 0
M  V30 9848 H 926.54 -4.59479 -1.55255 0
M  V30 9849 H 922.419 -3.85395 -2.52966 0
M  V30 9850 H 925.963 -6.9136 -0.930946 0
M  V30 9851 H 921.86 -6.16507 -1.91282 0
M  V30 9852 H 922.628 -8.10163 -1.16525 0
M  V30 9853 N 925.291 0.760815 -1.38019 0
M  V30 9854 C 926.702 1.33773 -1.30237 0
M  V30 9855 C 927.053 1.96148 0.0451153 0
M  V30 9856 O 926.178 1.94574 0.9471 0
M  V30 9857 C 926.773 2.43227 -2.35851 0
M  V30 9858 C 925.332 2.96659 -2.31669 0
M  V30 9859 C 924.479 1.69972 -2.191 0
M  V30 9860 H 927.43 0.560237 -1.48482 0
M  V30 9861 H 927.451 3.22985 -2.01149 0
M  V30 9862 H 926.963 1.978 -3.33911 0
M  V30 9863 H 925.064 3.46433 -1.37167 0
M  V30 9864 H 925.177 3.51529 -3.25521 0
M  V30 9865 H 923.541 1.9332 -1.65829 0
M  V30 9866 H 924.324 1.26633 -3.19091 0
M  V30 9867 N 926.769 1.22769 0.988202 0
M  V30 9868 C 928.015 1.05665 1.73097 0
M  V30 9869 C 928.348 -0.406615 1.89895 0
M  V30 9870 O 927.623 -1.30132 1.44554 0
M  V30 9871 C 927.906 1.77381 3.13382 0
M  V30 9872 C 927.759 3.31332 3.04203 0
M  V30 9873 C 929.078 1.52999 4.12649 0
M  V30 9874 H 926.197 0.385258 0.628288 0
M  V30 9875 H 928.839 1.51171 1.15097 0
M  V30 9876 H 926.989 1.38696 3.62899 0
M  V30 9877 H 928.661 3.79489 2.6227 0
M  V30 9878 H 926.904 3.60767 2.40894 0
M  V30 9879 H 927.575 3.76692 4.03493 0
M  V30 9880 H 930.051 1.86611 3.71908 0
M  V30 9881 H 928.927 2.05666 5.08913 0
M  V30 9882 H 929.188 0.463615 4.39662 0
M  V30 9883 N 928.247 -1.18576 1.03814 0
M  V30 9884 C 929.493 -1.89032 0.750892 0
M  V30 9885 C 929.848 -1.78683 -0.713444 0
M  V30 9886 O 929.141 -1.1746 -1.51373 0
M  V30 9887 C 929.335 -3.38448 1.14837 0
M  V30 9888 C 929.164 -3.63339 2.64981 0
M  V30 9889 C 927.934 -3.80847 3.3209 0
M  V30 9890 C 930.132 -3.64131 3.63198 0
M  V30 9891 N 928.114 -3.93453 4.71241 0
M  V30 9892 C 929.485 -3.82421 4.88011 0
M  V30 9893 C 931.54 -3.47206 3.56865 0
M  V30 9894 C 930.243 -3.85538 6.0725 0
M  V30 9895 C 932.269 -3.51605 4.75529 0
M  V30 9896 C 931.631 -3.70388 5.99159 0
M  V30 9897 H 927.73 -0.710447 0.326786 0
M  V30 9898 H 930.314 -1.42444 1.32732 0
M  V30 9899 H 928.485 -3.83737 0.600058 0
M  V30 9900 H 930.217 -3.96462 0.812406 0
M  V30 9901 H 926.972 -3.80122 2.82496 0
M  V30 9902 H 927.396 -4.03584 5.43552 0
M  V30 9903 H 932.038 -3.31632 2.6226 0
M  V30 9904 H 929.756 -3.99901 7.02214 0
M  V30 9905 H 933.342 -3.39787 4.72267 0
M  V30 9906 H 932.222 -3.73679 6.89445 0
M  V30 9907 N 929.725 -0.817259 -1.34754 0
M  V30 9908 C 930.655 -0.249769 -2.3216 0
M  V30 9909 C 931.636 0.630663 -1.57977 0
M  V30 9910 O 932.821 0.558719 -1.85989 0
M  V30 9911 C 929.951 0.593825 -3.42186 0
M  V30 9912 C 928.905 -0.188997 -4.27583 0
M  V30 9913 C 928.231 0.776979 -5.29025 0
M  V30 9914 C 929.531 -1.39401 -5.03354 0
M  V30 9915 H 931.225 -1.06359 -2.79872 0
M  V30 9916 H 928.771 -0.512894 -1.34556 0
M  V30 9917 H 930.724 1.00097 -4.09339 0
M  V30 9918 H 929.448 1.44064 -2.93109 0
M  V30 9919 H 928.107 -0.577445 -3.62024 0
M  V30 9920 H 927.755 1.61959 -4.76212 0
M  V30 9921 H 927.455 0.257448 -5.87036 0
M  V30 9922 H 928.979 1.18211 -5.99048 0
M  V30 9923 H 930.393 -1.06117 -5.63393 0
M  V30 9924 H 928.79 -1.84878 -5.70912 0
M  V30 9925 H 929.86 -2.17515 -4.33377 0
M  V30 9926 N 931.203 1.46865 -0.571711 0
M  V30 9927 C 932.428 2.07323 -0.0564655 0
M  V30 9928 C 932.853 1.41938 1.23431 0
M  V30 9929 O 932.211 0.499334 1.74288 0
M  V30 9930 C 932.259 3.6044 0.107339 0
M  V30 9931 O 931.363 3.95558 1.1665 0
M  V30 9932 H 930.704 0.661475 -0.0578465 0
M  V30 9933 H 933.234 1.88669 -0.791524 0
M  V30 9934 H 933.244 4.06767 0.316987 0
M  V30 9935 H 931.919 4.07425 -0.835348 0
M  V30 9936 H 930.496 3.60957 0.936189 0
M  V30 9937 N 932.681 0.308908 1.54543 0
M  V30 9938 C 933.628 -0.563659 2.23811 0
M  V30 9939 C 934.598 -1.12332 1.22355 0
M  V30 9940 O 935.783 -1.16638 1.50997 0
M  V30 9941 C 932.923 -1.72585 2.98845 0
M  V30 9942 C 932.036 -1.19682 4.1509 0
M  V30 9943 C 931.171 -2.32351 4.77688 0
M  V30 9944 C 930.21 -1.76623 5.86064 0
M  V30 9945 N 929.347 -2.82896 6.42584 0
M  V30 9946 H 934.187 0.0336288 2.97981 0
M  V30 9947 H 931.724 0.0283666 1.47073 0
M  V30 9948 H 933.682 -2.40951 3.40586 0
M  V30 9949 H 932.312 -2.29464 2.27037 0
M  V30 9950 H 931.364 -0.405173 3.78236 0
M  V30 9951 H 932.676 -0.748923 4.93146 0
M  V30 9952 H 931.83 -3.0865 5.22322 0
M  V30 9953 H 930.569 -2.80472 3.98982 0
M  V30 9954 H 929.574 -0.988171 5.40847 0
M  V30 9955 H 930.799 -1.29398 6.66658 0
M  V30 9956 H 928.745 -3.30336 5.66758 0
M  V30 9957 H 928.662 -2.42626 7.16009 0
M  V30 9958 H 929.93 -3.59068 6.91875 0
M  V30 9959 N 934.159 -1.57557 0.0367827 0
M  V30 9960 C 935.069 -2.14148 -0.958017 0
M  V30 9961 C 936.085 -1.09564 -1.35173 0
M  V30 9962 O 937.261 -1.4166 -1.43158 0
M  V30 9963 C 934.326 -2.6636 -2.21931 0
M  V30 9964 C 933.387 -3.85688 -1.8853 0
M  V30 9965 C 932.62 -4.35401 -3.08645 0
M  V30 9966 O 932.843 -3.8425 -4.21554 0
M  V30 9967 O 931.777 -5.27158 -2.90497 0
M  V30 9968 H 935.603 -2.99442 -0.506797 0
M  V30 9969 H 933.188 -1.48259 -0.184275 0
M  V30 9970 H 935.07 -2.99976 -2.9596 0
M  V30 9971 H 933.745 -1.84145 -2.66219 0
M  V30 9972 H 932.652 -3.56985 -1.11861 0
M  V30 9973 H 933.985 -4.69089 -1.49052 0
M  V30 9974 N 935.637 0.236453 -1.55816 0
M  V30 9975 C 936.6 1.27633 -1.90375 0
M  V30 9976 C 937.6 1.40557 -0.781048 0
M  V30 9977 O 938.79 1.39078 -1.04895 0
M  V30 9978 C 935.922 2.65247 -2.14142 0
M  V30 9979 H 937.115 0.982019 -2.83366 0
M  V30 9980 H 934.668 0.476215 -1.48869 0
M  V30 9981 H 935.403 2.99801 -1.23653 0
M  V30 9982 H 935.188 2.57246 -2.95917 0
M  V30 9983 H 936.678 3.40313 -2.42026 0
M  V30 9984 N 937.115 1.49373 0.502552 0
M  V30 9985 C 938.361 1.59016 1.25864 0
M  V30 9986 C 938.694 0.27532 1.92238 0
M  V30 9987 O 937.969 -0.720988 1.80643 0
M  V30 9988 C 938.252 2.74828 2.32683 0
M  V30 9989 C 938.105 4.16102 1.7082 0
M  V30 9990 C 939.424 2.86288 3.34256 0
M  V30 9991 H 936.543 0.578798 0.456248 0
M  V30 9992 H 939.185 1.81651 0.557032 0
M  V30 9993 H 937.335 2.5566 2.92524 0
M  V30 9994 H 939.007 4.46782 1.14818 0
M  V30 9995 H 937.25 4.21822 1.01238 0
M  V30 9996 H 937.921 4.93006 2.48292 0
M  V30 9997 H 940.397 3.03733 2.84404 0
M  V30 9998 H 939.273 3.69001 4.06362 0
M  V30 9999 H 939.534 1.95576 3.96488 0
M  V30 10000 N 938.594 -0.753485 1.38421 0
M  V30 10001 C 939.819 -1.54783 1.38047 0
M  V30 10002 C 940.244 -1.8808 -0.0276371 0
M  V30 10003 O 939.602 -1.5058 -1.00973 0
M  V30 10004 C 939.65 -2.82353 2.24297 0
M  V30 10005 O 938.754 -3.77509 1.66014 0
M  V30 10006 H 938.095 -0.468151 0.470883 0
M  V30 10007 H 940.625 -0.931144 1.82184 0
M  V30 10008 H 940.635 -3.31277 2.38159 0
M  V30 10009 H 939.31 -2.57449 3.26639 0
M  V30 10010 H 937.887 -3.36212 1.61294 0
M  V30 10011 N 940.072 -1.23292 -0.981677 0
M  V30 10012 C 941.321 -1.05832 -1.71705 0
M  V30 10013 C 941.634 0.40514 -1.91358 0
M  V30 10014 O 942.84 0.699645 -2.6233 0
M  V30 10015 C 941.296 -1.84532 -3.08992 0
M  V30 10016 C 940.904 -3.35199 -2.9723 0
M  V30 10017 C 942.648 -1.75557 -3.86497 0
M  V30 10018 C 940.555 -4.06296 -4.29741 0
M  V30 10019 H 939.485 -0.39241 -0.64384 0
M  V30 10020 H 942.136 -1.47247 -1.09502 0
M  V30 10021 H 940.518 -1.35923 -3.71942 0
M  V30 10022 H 941.692 -3.91286 -2.43377 0
M  V30 10023 H 940.007 -3.44973 -2.332 0
M  V30 10024 H 942.604 -2.25989 -4.84596 0
M  V30 10025 H 942.947 -0.718101 -4.1006 0
M  V30 10026 H 943.48 -2.21771 -3.30246 0
M  V30 10027 H 940.219 -5.10344 -4.11375 0
M  V30 10028 H 939.739 -3.54997 -4.83464 0
M  V30 10029 H 941.418 -4.12519 -4.98434 0
M  V30 10030 N 941.55 1.18024 -1.04442 0
M  V30 10031 C 942.48 2.23988 -0.659683 0
M  V30 10032 C 943.461 1.6669 0.338904 0
M  V30 10033 O 944.646 1.92971 0.21817 0
M  V30 10034 C 941.776 3.4729 -0.0257672 0
M  V30 10035 C 940.73 4.17362 -0.948299 0
M  V30 10036 C 940.056 5.34401 -0.17866 0
M  V30 10037 C 941.356 4.70435 -2.26909 0
M  V30 10038 H 943.05 2.56425 -1.54553 0
M  V30 10039 H 940.596 1.23256 -0.744575 0
M  V30 10040 H 942.549 4.20627 0.255131 0
M  V30 10041 H 941.273 3.14098 0.894981 0
M  V30 10042 H 939.932 3.45928 -1.21364 0
M  V30 10043 H 939.58 4.97458 0.744614 0
M  V30 10044 H 939.28 5.8222 -0.793294 0
M  V30 10045 H 940.804 6.10526 0.0951315 0
M  V30 10046 H 942.218 5.35447 -2.04864 0
M  V30 10047 H 940.615 5.28803 -2.83703 0
M  V30 10048 H 941.685 3.87653 -2.91296 0
M  V30 10049 N 943.028 0.824394 1.34319 0
M  V30 10050 C 943.975 0.245282 2.29493 0
M  V30 10051 C 944.945 -0.630762 1.53657 0
M  V30 10052 O 946.13 -0.572094 1.82021 0
M  V30 10053 C 943.27 -0.585631 3.40095 0
M  V30 10054 C 942.383 0.312821 4.30866 0
M  V30 10055 C 941.518 -0.527801 5.28571 0
M  V30 10056 C 940.557 0.369946 6.10981 0
M  V30 10057 N 939.694 -0.43169 7.00772 0
M  V30 10058 H 944.534 1.06225 2.78425 0
M  V30 10059 H 942.071 0.53533 1.37013 0
M  V30 10060 H 944.029 -1.08271 4.02906 0
M  V30 10061 H 942.659 -1.3677 2.92393 0
M  V30 10062 H 941.711 0.928129 3.68904 0
M  V30 10063 H 943.023 1.00306 4.8861 0
M  V30 10064 H 942.177 -1.0893 5.96841 0
M  V30 10065 H 940.916 -1.25154 4.71368 0
M  V30 10066 H 939.921 0.943577 5.41643 0
M  V30 10067 H 941.146 1.09182 6.70266 0
M  V30 10068 H 939.092 -1.13908 6.46035 0
M  V30 10069 H 939.009 0.200133 7.55735 0
M  V30 10070 H 940.277 -0.975894 7.73367 0
M  V30 10071 N 944.506 -1.46559 0.579492 0
M  V30 10072 C 945.469 -2.28739 -0.145371 0
M  V30 10073 C 946.469 -1.38211 -0.821854 0
M  V30 10074 O 947.659 -1.6062 -0.674302 0
M  V30 10075 C 944.791 -3.18507 -1.21515 0
M  V30 10076 H 945.984 -2.94301 0.576786 0
M  V30 10077 H 943.537 -1.52616 0.337327 0
M  V30 10078 H 944.272 -2.57685 -1.96899 0
M  V30 10079 H 944.057 -3.85157 -0.734616 0
M  V30 10080 H 945.547 -3.80369 -1.72363 0
M  V30 10081 N 945.984 -0.3171 -1.54377 0
M  V30 10082 C 947.231 0.28741 -2.0045 0
M  V30 10083 C 947.559 1.52648 -1.20535 0
M  V30 10084 O 946.814 1.93775 -0.273831 0
M  V30 10085 C 947.113 0.672917 -3.51008 0
M  V30 10086 C 946.779 -0.466245 -4.48483 0
M  V30 10087 C 945.441 -0.778933 -4.74854 0
M  V30 10088 C 947.793 -1.23176 -5.06436 0
M  V30 10089 C 945.121 -1.85997 -5.56437 0
M  V30 10090 C 947.473 -2.30284 -5.89196 0
M  V30 10091 C 946.137 -2.62141 -6.13872 0
M  V30 10092 H 945.407 0.105171 -0.733499 0
M  V30 10093 H 948.054 -0.439538 -1.86388 0
M  V30 10094 H 946.359 1.48019 -3.62764 0
M  V30 10095 H 948.056 1.15209 -3.84094 0
M  V30 10096 H 944.646 -0.212449 -4.28073 0
M  V30 10097 H 948.83 -1.00344 -4.8605 0
M  V30 10098 H 944.086 -2.11134 -5.73788 0
M  V30 10099 H 948.26 -2.90048 -6.33123 0
M  V30 10100 H 945.887 -3.46037 -6.76877 0
M  V30 10101 N 947.462 1.57535 -0.0451378 0
M  V30 10102 C 948.395 2.06721 0.96653 0
M  V30 10103 C 949.373 0.966392 1.30766 0
M  V30 10104 O 950.557 1.23789 1.42157 0
M  V30 10105 C 947.684 2.50266 2.2822 0
M  V30 10106 C 946.73 3.71525 2.09455 0
M  V30 10107 S 947.563 5.17453 1.37851 0
M  V30 10108 C 948.719 5.64308 2.70753 0
M  V30 10109 H 948.952 2.92207 0.547911 0
M  V30 10110 H 946.485 1.53494 0.166973 0
M  V30 10111 H 948.443 2.76019 3.03849 0
M  V30 10112 H 947.104 1.65097 2.67211 0
M  V30 10113 H 946.297 3.99894 3.06759 0
M  V30 10114 H 945.899 3.46008 1.41967 0
M  V30 10115 H 948.191 5.69525 3.66943 0
M  V30 10116 H 949.134 6.63613 2.47028 0
M  V30 10117 H 949.542 4.92014 2.76736 0
M  V30 10118 N 948.94 -0.228186 1.55939 0
M  V30 10119 C 950.168 -0.970618 1.8272 0
M  V30 10120 C 950.583 -1.78212 0.623385 0
M  V30 10121 O 949.94 -1.77879 -0.408063 0
M  V30 10122 C 949.991 -1.89352 3.07942 0
M  V30 10123 O 949.712 -1.11483 4.23678 0
M  V30 10124 C 951.213 -2.75039 3.47661 0
M  V30 10125 H 948.433 -0.284772 0.607574 0
M  V30 10126 H 950.977 -0.245419 2.03022 0
M  V30 10127 H 949.132 -2.57275 2.89635 0
M  V30 10128 H 949.546 -1.74073 4.94772 0
M  V30 10129 H 951.02 -3.35511 4.38334 0
M  V30 10130 H 951.497 -3.471 2.69106 0
M  V30 10131 H 952.103 -2.1254 3.68384 0
M  V30 10132 N 950.418 -1.49637 -0.494624 0
M  V30 10133 C 951.365 -1.66776 -1.59545 0
M  V30 10134 C 952.335 -0.509159 -1.58104 0
M  V30 10135 O 953.52 -0.736949 -1.75993 0
M  V30 10136 C 950.66 -1.74624 -2.97658 0
M  V30 10137 C 949.773 -3.01831 -3.09067 0
M  V30 10138 C 948.908 -3.00619 -4.37952 0
M  V30 10139 C 947.947 -4.22378 -4.43016 0
M  V30 10140 N 947.084 -4.1904 -5.63339 0
M  V30 10141 H 951.924 -2.60767 -1.44238 0
M  V30 10142 H 949.461 -1.29286 -0.701673 0
M  V30 10143 H 951.419 -1.77156 -3.77719 0
M  V30 10144 H 950.049 -0.840936 -3.11654 0
M  V30 10145 H 949.101 -3.08881 -2.22029 0
M  V30 10146 H 950.413 -3.91823 -3.08669 0
M  V30 10147 H 949.567 -3.01749 -5.26339 0
M  V30 10148 H 948.306 -2.08416 -4.40924 0
M  V30 10149 H 947.311 -4.21485 -3.5303 0
M  V30 10150 H 948.536 -5.15781 -4.41755 0
M  V30 10151 H 946.482 -3.29677 -5.67141 0
M  V30 10152 H 946.399 -5.02774 -5.64583 0
M  V30 10153 H 947.667 -4.24281 -6.53916 0
M  V30 10154 N 951.896 0.746133 -1.38819 0
M  V30 10155 C 952.844 1.88137 -1.36774 0
M  V30 10156 C 953.838 1.67508 -0.252495 0
M  V30 10157 O 955.044 1.74985 -0.421935 0
M  V30 10158 H 951.419 0.619116 -0.426849 0
M  V30 10159 H 953.39 1.86978 -2.32555 0
M  V30 10160 C 952.139 3.25703 -1.21708 0
M  V30 10161 H 951.462 3.42168 -2.06788 0
M  V30 10162 H 952.902 4.05361 -1.24332 0
M  V30 10163 C 951.361 3.36816 0.0754257 0
M  V30 10164 O 951.891 3.87742 1.04972 0
M  V30 10165 N 950.097 2.90287 0.134761 0
M  V30 10166 H 949.644 2.49034 -0.658779 0
M  V30 10167 H 949.602 2.98103 0.999109 0
M  V30 10168 N 953.375 1.23811 0.975125 0
M  V30 10169 C 954.786 1.0675 1.53171 0
M  V30 10170 C 955.137 -0.363475 1.92804 0
M  V30 10171 O 954.262 -1.25089 1.76583 0
M  V30 10172 C 954.857 1.93161 2.78342 0
M  V30 10173 C 953.416 1.80346 3.30382 0
M  V30 10174 C 952.563 1.88544 2.03338 0
M  V30 10175 H 955.514 1.37396 0.79423 0
M  V30 10176 H 955.535 1.45951 3.51395 0
M  V30 10177 H 955.047 2.97302 2.49465 0
M  V30 10178 H 953.148 0.790077 3.64127 0
M  V30 10179 H 953.261 2.64026 3.99784 0
M  V30 10180 H 951.625 1.32186 2.17713 0
M  V30 10181 H 952.408 2.94252 1.76836 0
M  V30 10182 N 954.853 -1.17469 1.05066 0
M  V30 10183 C 955.803 -2.19388 0.620713 0
M  V30 10184 C 956.787 -1.5722 -0.34214 0
M  V30 10185 O 957.979 -1.76279 -0.159574 0
M  V30 10186 C 955.108 -3.433 -0.00438518 0
M  V30 10187 C 954.194 -4.12569 0.982218 0
M  V30 10188 N 954.585 -4.57683 2.15313 0
M  V30 10189 C 952.883 -4.38575 0.810416 0
M  V30 10190 C 953.584 -5.11124 2.77719 0
M  V30 10191 N 952.56 -5.0325 2.05525 0
M  V30 10192 H 956.362 -2.51971 1.51287 0
M  V30 10193 H 953.876 -1.33784 0.920625 0
M  V30 10194 H 955.873 -4.15591 -0.330161 0
M  V30 10195 H 954.533 -3.12209 -0.89195 0
M  V30 10196 H 955.544 -4.51812 2.53154 0
M  V30 10197 H 952.221 -4.17492 -0.0262078 0
M  V30 10198 H 953.611 -5.56161 3.77008 0
M  V30 10199 N 956.331 -0.831506 -1.3388 0
M  V30 10200 C 957.278 -0.257449 -2.2936 0
M  V30 10201 C 958.248 0.622604 -1.5399 0
M  V30 10202 O 959.433 0.562432 -1.82322 0
M  V30 10203 C 956.573 0.567587 -3.404 0
M  V30 10204 C 955.686 -0.335666 -4.30694 0
M  V30 10205 C 954.821 0.499762 -5.28844 0
M  V30 10206 C 953.86 -0.402343 -6.10776 0
M  V30 10207 N 952.997 0.39452 -7.00991 0
M  V30 10208 H 957.837 -1.077 -2.77857 0
M  V30 10209 H 955.374 -0.542589 -1.36727 0
M  V30 10210 H 957.332 1.06133 -4.03474 0
M  V30 10211 H 955.962 1.35217 -2.93115 0
M  V30 10212 H 955.014 -0.94768 -3.68406 0
M  V30 10213 H 956.326 -1.02896 -4.88072 0
M  V30 10214 H 955.48 1.05763 -5.9741 0
M  V30 10215 H 954.219 1.22652 -4.72025 0
M  V30 10216 H 953.224 -0.972288 -5.41135 0
M  V30 10217 H 954.449 -1.12735 -6.69677 0
M  V30 10218 H 952.395 1.1048 -6.4663 0
M  V30 10219 H 952.312 -0.240209 -7.55618 0
M  V30 10220 H 953.58 0.934867 -7.73874 0
M  V30 10221 N 957.809 1.4625 -0.587256 0
M  V30 10222 C 959.225 1.57641 -0.249284 0
M  V30 10223 C 959.425 1.58169 1.24839 0
M  V30 10224 O 958.481 1.50109 2.03036 0
M  V30 10225 C 959.794 2.86837 -0.902509 0
M  V30 10226 C 961.342 3.00476 -0.876524 0
M  V30 10227 C 961.817 4.32414 -1.50938 0
M  V30 10228 N 963.308 4.39124 -1.47392 0
M  V30 10229 C 964.043 5.39838 -1.93293 0
M  V30 10230 N 963.539 6.47202 -2.47188 0
M  V30 10231 N 965.332 5.31068 -1.84183 0
M  V30 10232 H 957.483 1.44151 -1.55994 0
M  V30 10233 H 959.746 0.687905 -0.652297 0
M  V30 10234 H 959.452 2.92274 -1.95624 0
M  V30 10235 H 959.326 3.74927 -0.413466 0
M  V30 10236 H 961.713 2.94618 0.168601 0
M  V30 10237 H 961.794 2.1385 -1.40363 0
M  V30 10238 H 961.438 4.3903 -2.55372 0
M  V30 10239 H 961.368 5.17823 -0.957455 0
M  V30 10240 H 963.859 3.62138 -1.08002 0
M  V30 10241 H 964.172 7.20269 -2.80058 0
M  V30 10242 H 962.517 6.48009 -2.51216 0
M  V30 10243 H 965.708 4.46095 -1.41833 0
M  V30 10244 H 965.881 6.09414 -2.2027 0
M  V30 10245 N 959.287 0.325282 1.54207 0
M  V30 10246 C 960.217 -0.532574 2.27345 0
M  V30 10247 C 961.198 -1.11791 1.28206 0
M  V30 10248 O 962.383 -1.14272 1.57021 0
M  V30 10249 C 959.513 -1.69274 3.03255 0
M  V30 10250 C 958.467 -1.23662 4.09746 0
M  V30 10251 C 957.793 -2.48386 4.73506 0
M  V30 10252 C 959.093 -0.350244 5.21124 0
M  V30 10253 H 960.787 0.0775108 2.993 0
M  V30 10254 H 958.333 0.0387193 1.43948 0
M  V30 10255 H 960.286 -2.29917 3.53152 0
M  V30 10256 H 959.01 -2.32944 2.28921 0
M  V30 10257 H 957.669 -0.653106 3.60735 0
M  V30 10258 H 957.317 -3.10424 3.95786 0
M  V30 10259 H 957.017 -2.18558 5.45441 0
M  V30 10260 H 958.541 -3.09789 5.26178 0
M  V30 10261 H 959.955 -0.863011 5.66767 0
M  V30 10262 H 958.352 -0.14466 5.99926 0
M  V30 10263 H 959.422 0.618457 4.8094 0
M  V30 10264 N 960.765 -1.57509 0.0534917 0
M  V30 10265 C 962.013 -1.92402 -0.618548 0
M  V30 10266 C 962.334 -0.93273 -1.71246 0
M  V30 10267 O 961.604 0.0220495 -1.95888 0
M  V30 10268 H 960.184 -0.710233 -0.23147 0
M  V30 10269 H 962.846 -1.94606 0.10704 0
M  V30 10270 H 961.942 -2.93704 -1.05566 0
M  V30 10271 N 962.243 0.219913 -1.56058 0
M  V30 10272 C 963.483 0.951113 -1.80923 0
M  V30 10273 C 963.847 1.81465 -0.627247 0
M  V30 10274 O 965.048 2.57972 -0.755237 0
M  V30 10275 C 963.319 1.76652 -3.10691 0
M  V30 10276 S 964.878 2.55314 -3.56876 0
M  V30 10277 H 961.696 0.319461 -0.635189 0
M  V30 10278 H 964.298 0.216551 -1.94297 0
M  V30 10279 H 963.002 1.12231 -3.94756 0
M  V30 10280 H 962.533 2.54335 -3.00128 0
M  V30 10281 H 964.548 3.78938 -3.20344 0
M  V30 10282 N 963.721 1.49897 0.486681 0
M  V30 10283 C 964.967 1.60342 1.2417 0
M  V30 10284 C 965.3 0.295694 1.91936 0
M  V30 10285 O 964.575 -0.701788 1.81398 0
M  V30 10286 C 964.858 2.77281 2.29755 0
M  V30 10287 C 964.711 4.1789 1.66397 0
M  V30 10288 C 966.03 2.89817 3.31201 0
M  V30 10289 H 963.149 0.583605 0.450083 0
M  V30 10290 H 965.791 1.82232 0.537734 0
M  V30 10291 H 963.941 2.58748 2.89796 0
M  V30 10292 H 965.613 4.47975 1.10073 0
M  V30 10293 H 963.856 4.22872 0.967579 0
M  V30 10294 H 964.527 4.95612 2.43049 0
M  V30 10295 H 967.003 3.06732 2.81167 0
M  V30 10296 H 965.879 3.7329 4.02425 0
M  V30 10297 H 966.14 1.9977 3.94391 0
M  V30 10298 N 965.199 -0.738761 1.39212 0
M  V30 10299 C 966.162 -1.83441 1.37412 0
M  V30 10300 C 967.162 -1.58484 0.271908 0
M  V30 10301 O 968.352 -1.65954 0.529609 0
M  V30 10302 C 965.484 -3.21167 1.143 0
M  V30 10303 H 966.677 -1.86441 2.34904 0
M  V30 10304 H 964.23 -0.942023 1.24722 0
M  V30 10305 H 964.965 -3.23829 0.174756 0
M  V30 10306 H 964.75 -3.40678 1.94116 0
M  V30 10307 H 966.24 -4.01231 1.15773 0
M  V30 10308 N 966.677 -1.24326 -0.968545 0
M  V30 10309 C 967.902 -1.1104 -1.75171 0
M  V30 10310 C 968.327 0.333109 -1.85127 0
M  V30 10311 O 967.685 1.24115 -1.32156 0
M  V30 10312 C 967.733 -1.75397 -3.15068 0
M  V30 10313 O 966.837 -1.02417 -3.9948 0
M  V30 10314 H 966.178 -0.388488 -0.538491 0
M  V30 10315 H 968.708 -1.64617 -1.215 0
M  V30 10316 H 968.718 -1.8112 -3.65595 0
M  V30 10317 H 967.393 -2.80427 -3.07138 0
M  V30 10318 H 965.97 -1.04475 -3.57966 0
M  V30 10319 N 968.156 1.1691 -1.05688 0
M  V30 10320 C 969.088 2.20648 -0.620237 0
M  V30 10321 C 970.101 1.59652 0.318604 0
M  V30 10322 O 971.29 1.78157 0.110553 0
M  V30 10323 C 968.39 3.38716 0.111729 0
M  V30 10324 C 967.563 4.29277 -0.839062 0
M  V30 10325 C 966.622 5.25993 -0.147453 0
M  V30 10326 O 965.648 5.63787 -0.783151 0
M  V30 10327 N 966.85 5.69725 1.11327 0
M  V30 10328 H 969.615 2.58731 -1.51256 0
M  V30 10329 H 967.176 1.31858 -0.939412 0
M  V30 10330 H 969.168 4.00455 0.584657 0
M  V30 10331 H 967.738 2.99189 0.905784 0
M  V30 10332 H 966.958 3.64894 -1.4915 0
M  V30 10333 H 968.246 4.86669 -1.48428 0
M  V30 10334 H 967.644 5.41103 1.64999 0
M  V30 10335 H 966.201 6.33584 1.53018 0
M  V30 10336 N 969.634 0.838594 1.33437 0
M  V30 10337 C 970.582 0.260158 2.31141 0
M  V30 10338 C 971.576 -0.607706 1.58124 0
M  V30 10339 O 972.782 -0.497298 1.72994 0
M  V30 10340 H 969.157 0.0654031 0.74915 0
M  V30 10341 H 971.128 1.09874 2.77435 0
M  V30 10342 C 969.877 -0.550234 3.43319 0
M  V30 10343 H 969.2 0.108262 3.99653 0
M  V30 10344 H 970.64 -0.920815 4.1388 0
M  V30 10345 C 969.099 -1.729 2.89149 0
M  V30 10346 O 969.629 -2.82769 2.85315 0
M  V30 10347 N 967.835 -1.5508 2.45761 0
M  V30 10348 H 967.382 -0.657055 2.49079 0
M  V30 10349 H 967.34 -2.34099 2.0987 0
M  V30 10350 N 971.112 -1.45937 0.595003 0
M  V30 10351 C 972.36 -2.01921 0.0851368 0
M  V30 10352 C 972.681 -1.46748 -1.28413 0
M  V30 10353 O 971.951 -0.656873 -1.84559 0
M  V30 10354 H 970.531 -0.746457 0.0284826 0
M  V30 10355 H 973.193 -1.78891 0.773561 0
M  V30 10356 H 972.289 -3.1209 0.0254002 0
M  V30 10357 N 972.59 -0.333456 -1.54032 0
M  V30 10358 C 973.5 0.536674 -2.28379 0
M  V30 10359 C 974.516 1.12068 -1.33104 0
M  V30 10360 O 975.692 1.13853 -1.66131 0
M  V30 10361 C 972.757 1.67677 -3.03456 0
M  V30 10362 C 971.818 1.12357 -4.14336 0
M  V30 10363 C 971.051 2.20933 -4.85823 0
M  V30 10364 O 971.274 3.41466 -4.569 0
M  V30 10365 O 970.208 1.85795 -5.72507 0
M  V30 10366 H 974.034 -0.0674003 -3.03625 0
M  V30 10367 H 971.619 -0.098823 -1.49073 0
M  V30 10368 H 973.501 2.34032 -3.50438 0
M  V30 10369 H 972.176 2.26684 -2.31076 0
M  V30 10370 H 971.083 0.424827 -3.7168 0
M  V30 10371 H 972.416 0.578497 -4.88789 0
M  V30 10372 N 974.068 1.57479 -0.061844 0
M  V30 10373 C 975.345 1.84484 0.649993 0
M  V30 10374 C 975.725 0.952366 1.88396 0
M  V30 10375 O 975.073 0.0161035 2.28494 0
M  V30 10376 C 975.283 3.34452 0.997133 0
M  V30 10377 C 976.631 4.01724 1.37488 0
M  V30 10378 O 977.655 3.3914 1.08916 0
M  V30 10379 O 976.514 5.12091 1.90854 0
M  V30 10380 H 973.608 0.761798 0.321858 0
M  V30 10381 H 976.154 1.6945 -0.0920192 0
M  V30 10382 H 974.926 3.91115 0.120301 0
M  V30 10383 H 974.549 3.54713 1.79624 0
M  V30 10384 N 975.546 -0.211634 1.56173 0
M  V30 10385 C 976.509 -1.24588 1.92381 0
M  V30 10386 C 977.509 -1.39297 0.803311 0
M  V30 10387 O 978.699 -1.37392 1.07094 0
M  V30 10388 C 975.831 -2.61807 2.18335 0
M  V30 10389 H 977.024 -0.936814 2.84893 0
M  V30 10390 H 974.577 -0.452471 1.49607 0
M  V30 10391 H 975.312 -2.97795 1.28407 0
M  V30 10392 H 975.097 -2.52506 2.99972 0
M  V30 10393 H 976.587 -3.3642 2.4741 0
M  V30 10394 N 977.024 -1.50153 -0.478725 0
M  V30 10395 C 978.273 -1.60002 -1.22809 0
M  V30 10396 C 978.586 -0.302277 -1.9325 0
M  V30 10397 O 979.792 -0.279583 -2.70057 0
M  V30 10398 C 978.248 -2.82402 -2.23108 0
M  V30 10399 C 977.856 -4.19023 -1.58505 0
M  V30 10400 C 979.6 -3.01593 -2.98734 0
M  V30 10401 C 977.507 -5.32618 -2.57045 0
M  V30 10402 H 976.437 -0.595822 -0.462073 0
M  V30 10403 H 979.088 -1.76573 -0.499412 0
M  V30 10404 H 977.47 -2.59373 -2.99235 0
M  V30 10405 H 978.644 -4.52277 -0.882187 0
M  V30 10406 H 976.959 -4.05374 -0.951877 0
M  V30 10407 H 979.556 -3.8363 -3.72468 0
M  V30 10408 H 979.899 -2.1302 -3.57671 0
M  V30 10409 H 980.432 -3.24766 -2.29721 0
M  V30 10410 H 977.171 -6.23321 -2.02858 0
M  V30 10411 H 976.691 -5.03792 -3.25505 0
M  V30 10412 H 978.37 -5.62877 -3.19028 0
M  V30 10413 N 978.502 0.731368 -1.39602 0
M  V30 10414 C 979.449 1.84541 -1.38612 0
M  V30 10415 C 980.419 1.64279 -0.245287 0
M  V30 10416 O 981.604 1.85635 -0.440954 0
M  V30 10417 C 978.744 3.22092 -1.23897 0
M  V30 10418 C 977.857 3.54034 -2.47555 0
M  V30 10419 C 976.992 4.81007 -2.25402 0
M  V30 10420 C 976.031 5.05804 -3.44716 0
M  V30 10421 N 975.168 6.23981 -3.21857 0
M  V30 10422 H 980.008 1.84722 -2.33841 0
M  V30 10423 H 977.545 0.902569 -1.16156 0
M  V30 10424 H 979.503 4.01499 -1.13376 0
M  V30 10425 H 978.133 3.2118 -0.322958 0
M  V30 10426 H 977.185 2.69301 -2.68665 0
M  V30 10427 H 978.497 3.68275 -3.36415 0
M  V30 10428 H 977.651 5.68401 -2.12143 0
M  V30 10429 H 976.39 4.68946 -1.33943 0
M  V30 10430 H 975.395 4.1687 -3.58468 0
M  V30 10431 H 976.62 5.19747 -4.37081 0
M  V30 10432 H 974.566 6.13202 -2.33065 0
M  V30 10433 H 974.483 6.38826 -4.04274 0
M  V30 10434 H 975.751 7.14205 -3.123 0
M  V30 10435 N 979.98 1.24838 0.961938 0
M  V30 10436 C 980.912 1.00369 2.06055 0
M  V30 10437 C 981.925 -0.0288583 1.62774 0
M  V30 10438 O 983.114 0.208853 1.77274 0
M  V30 10439 C 980.214 0.493953 3.35281 0
M  V30 10440 C 979.387 1.59097 4.07439 0
M  V30 10441 C 978.446 1.08288 5.14937 0
M  V30 10442 O 977.472 1.77577 5.40791 0
M  V30 10443 N 978.674 -0.0796836 5.80445 0
M  V30 10444 H 981.439 1.94962 2.27618 0
M  V30 10445 H 979 1.15945 1.12997 0
M  V30 10446 H 980.992 0.138675 4.04462 0
M  V30 10447 H 979.562 -0.357851 3.10545 0
M  V30 10448 H 978.782 2.11817 3.32456 0
M  V30 10449 H 980.07 2.32817 4.52409 0
M  V30 10450 H 979.468 -0.658827 5.6185 0
M  V30 10451 H 978.025 -0.376057 6.50714 0
M  V30 10452 N 981.458 -1.16348 1.06306 0
M  V30 10453 C 982.408 -2.18717 0.643947 0
M  V30 10454 C 983.392 -1.57574 -0.325445 0
M  V30 10455 O 984.584 -1.76439 -0.140868 0
M  V30 10456 C 981.713 -3.43285 0.0320266 0
M  V30 10457 C 980.799 -4.11504 1.02592 0
M  V30 10458 N 981.19 -4.55374 2.20155 0
M  V30 10459 C 979.488 -4.37691 0.856887 0
M  V30 10460 C 980.189 -5.08149 2.83124 0
M  V30 10461 N 979.165 -5.01042 2.10851 0
M  V30 10462 H 982.967 -2.50353 1.53951 0
M  V30 10463 H 980.481 -1.328 0.934763 0
M  V30 10464 H 982.478 -4.15917 -0.286064 0
M  V30 10465 H 981.138 -3.13137 -0.858786 0
M  V30 10466 H 982.149 -4.49101 2.57931 0
M  V30 10467 H 978.826 -4.17496 0.0180742 0
M  V30 10468 H 980.216 -5.52131 3.82885 0
M  V30 10469 N 982.937 -0.845659 -1.3299 0
M  V30 10470 C 984.348 -0.50048 -1.79867 0
M  V30 10471 C 984.699 0.981027 -1.69913 0
M  V30 10472 O 983.824 1.76477 -1.25239 0
M  V30 10473 C 984.419 -0.901679 -3.26581 0
M  V30 10474 C 982.978 -0.608536 -3.71448 0
M  V30 10475 C 982.125 -1.10632 -2.54275 0
M  V30 10476 H 985.076 -1.03372 -1.20416 0
M  V30 10477 H 985.097 -0.214433 -3.79895 0
M  V30 10478 H 984.609 -1.97998 -3.33794 0
M  V30 10479 H 982.71 0.459416 -3.69757 0
M  V30 10480 H 982.823 -1.16853 -4.64631 0
M  V30 10481 H 981.187 -0.526925 -2.4919 0
M  V30 10482 H 981.97 -2.19154 -2.64247 0
M  V30 10483 N 984.415 1.45619 -0.602734 0
M  V30 10484 C 985.662 2.02272 -0.0960337 0
M  V30 10485 C 985.99 1.47177 1.27159 0
M  V30 10486 O 985.245 0.634593 1.85125 0
M  V30 10487 C 985.544 3.574 -0.00157909 0
M  V30 10488 C 985.21 4.31626 -1.30422 0
M  V30 10489 C 983.872 4.51622 -1.66106 0
M  V30 10490 C 986.224 4.74091 -2.16535 0
M  V30 10491 C 983.552 5.11338 -2.87663 0
M  V30 10492 C 985.904 5.35151 -3.37336 0
M  V30 10493 C 984.568 5.53371 -3.73278 0
M  V30 10494 H 983.838 0.740166 -0.0351412 0
M  V30 10495 H 986.485 1.74744 -0.783382 0
M  V30 10496 H 984.79 3.84179 0.769008 0
M  V30 10497 H 986.487 3.98934 0.406549 0
M  V30 10498 H 983.077 4.16372 -1.01647 0
M  V30 10499 H 987.261 4.5838 -1.90266 0
M  V30 10500 H 982.517 5.23634 -3.15622 0
M  V30 10501 H 986.691 5.67011 -4.04316 0
M  V30 10502 H 984.318 5.99412 -4.67556 0
M  V30 10503 N 985.893 0.34162 1.53853 0
M  V30 10504 C 987.14 -0.255484 2.00882 0
M  V30 10505 C 987.468 -1.50711 1.22949 0
M  V30 10506 O 986.723 -1.93315 0.304625 0
M  V30 10507 C 987.022 -0.616989 3.52034 0
M  V30 10508 C 986.688 0.537536 4.47684 0
M  V30 10509 C 985.35 0.854379 4.73554 0
M  V30 10510 C 987.702 1.31217 5.04412 0
M  V30 10511 C 985.03 1.94826 5.53407 0
M  V30 10512 C 987.382 2.39628 5.85458 0
M  V30 10513 C 986.046 2.71874 6.09623 0
M  V30 10514 H 985.316 -0.0934881 0.735079 0
M  V30 10515 H 987.963 0.469135 1.85665 0
M  V30 10516 H 986.268 -1.42229 3.65073 0
M  V30 10517 H 987.965 -1.09084 3.85878 0
M  V30 10518 H 984.555 0.280524 4.27681 0
M  V30 10519 H 988.739 1.08064 4.84392 0
M  V30 10520 H 983.995 2.20235 5.70356 0
M  V30 10521 H 988.169 3.00084 6.28429 0
M  V30 10522 H 985.796 3.56762 6.71286 0
M  V30 10523 N 987.371 -1.57444 0.0701946 0
M  V30 10524 C 988.318 -2.12631 -0.897599 0
M  V30 10525 C 989.288 -1.03841 -1.29639 0
M  V30 10526 O 990.473 -1.31495 -1.38253 0
M  V30 10527 C 987.613 -2.6911 -2.16041 0
M  V30 10528 C 986.726 -3.9205 -1.8144 0
M  V30 10529 C 985.861 -4.36778 -3.02321 0
M  V30 10530 C 984.9 -5.52371 -2.63729 0
M  V30 10531 N 984.037 -5.92065 -3.77364 0
M  V30 10532 H 988.877 -2.95024 -0.420104 0
M  V30 10533 H 986.414 -1.45792 -0.195716 0
M  V30 10534 H 988.372 -2.99963 -2.89962 0
M  V30 10535 H 987.002 -1.89484 -2.61334 0
M  V30 10536 H 986.054 -3.67669 -0.975896 0
M  V30 10537 H 987.366 -4.76011 -1.49046 0
M  V30 10538 H 986.52 -4.69285 -3.84521 0
M  V30 10539 H 985.259 -3.51668 -3.37907 0
M  V30 10540 H 984.264 -5.19517 -1.7995 0
M  V30 10541 H 985.489 -6.39212 -2.29315 0
M  V30 10542 H 983.435 -5.09904 -4.12715 0
M  V30 10543 H 983.352 -6.70762 -3.48733 0
M  V30 10544 H 984.62 -6.29193 -4.60148 0
M  V30 10545 N 988.849 0.203349 -1.56283 0
M  V30 10546 C 989.759 1.27266 -1.9708 0
M  V30 10547 C 990.775 1.50268 -0.877236 0
M  V30 10548 O 991.951 1.63044 -1.18231 0
M  V30 10549 C 989.016 2.59871 -2.29495 0
M  V30 10550 C 988.077 2.45012 -3.52516 0
M  V30 10551 C 987.31 3.71293 -3.83376 0
M  V30 10552 O 987.533 4.75106 -3.15643 0
M  V30 10553 O 986.467 3.67316 -4.76826 0
M  V30 10554 H 990.293 0.956461 -2.88246 0
M  V30 10555 H 987.878 0.407688 -1.4373 0
M  V30 10556 H 989.76 3.38152 -2.51458 0
M  V30 10557 H 988.435 2.91135 -1.415 0
M  V30 10558 H 987.342 1.6487 -3.35811 0
M  V30 10559 H 988.675 2.18683 -4.40952 0
M  V30 10560 N 990.327 1.50405 0.470755 0
M  V30 10561 C 991.576 1.60652 1.21959 0
M  V30 10562 C 991.889 0.312521 1.93087 0
M  V30 10563 O 993.095 0.293901 2.69905 0
M  V30 10564 C 991.551 2.83581 2.21607 0
M  V30 10565 C 991.159 4.19858 1.5628 0
M  V30 10566 C 992.903 3.03173 2.9713 0
M  V30 10567 C 990.81 5.33974 2.54217 0
M  V30 10568 H 989.74 0.598264 0.458907 0
M  V30 10569 H 992.391 1.76836 0.490041 0
M  V30 10570 H 990.773 2.60957 2.97855 0
M  V30 10571 H 991.947 4.52738 0.85819 0
M  V30 10572 H 990.262 4.05873 0.930366 0
M  V30 10573 H 992.859 3.856 3.70428 0
M  V30 10574 H 993.202 2.14914 3.56536 0
M  V30 10575 H 993.735 3.2598 2.27995 0
M  V30 10576 H 990.474 6.24388 1.99549 0
M  V30 10577 H 989.994 5.05511 3.22829 0
M  V30 10578 H 991.673 5.64561 3.16039 0
M  V30 10579 N 991.805 -0.723954 1.39988 0
M  V30 10580 C 993.082 -1.4763 1.28316 0
M  V30 10581 C 993.462 -2.10852 -0.102302 0
M  V30 10582 O 992.81 -1.9948 -1.11445 0
M  V30 10583 C 993.02 -2.51878 2.41574 0
M  V30 10584 C 994.368 -3.17948 2.81415 0
M  V30 10585 O 995.392 -2.62195 2.41106 0
M  V30 10586 O 994.251 -4.18858 3.51027 0
M  V30 10587 H 991.345 -0.656092 0.50346 0
M  V30 10588 H 993.891 -0.75684 1.51888 0
M  V30 10589 H 992.663 -2.03618 3.34149 0
M  V30 10590 H 992.286 -3.3137 2.19727 0
M  V30 10591 N 993.283 -1.25346 -0.955304 0
M  V30 10592 C 994.529 -1.11226 -1.70295 0
M  V30 10593 C 994.884 0.343362 -1.89311 0
M  V30 10594 O 994.177 1.24953 -1.45249 0
M  V30 10595 C 994.371 -1.7993 -3.08804 0
M  V30 10596 C 994.2 -3.32023 -3.033 0
M  V30 10597 C 992.97 -4.01274 -3.07094 0
M  V30 10598 C 995.168 -4.28431 -2.84519 0
M  V30 10599 N 993.15 -5.40149 -2.91741 0
M  V30 10600 C 994.521 -5.54386 -2.7759 0
M  V30 10601 C 996.576 -4.18854 -2.69194 0
M  V30 10602 C 995.279 -6.71859 -2.56902 0
M  V30 10603 C 997.305 -5.36018 -2.49876 0
M  V30 10604 C 996.667 -6.60913 -2.43667 0
M  V30 10605 H 992.766 -0.461707 -0.631151 0
M  V30 10606 H 995.35 -1.58437 -1.13162 0
M  V30 10607 H 993.521 -1.35214 -3.64104 0
M  V30 10608 H 995.253 -1.58557 -3.72346 0
M  V30 10609 H 992.008 -3.52529 -3.1626 0
M  V30 10610 H 992.432 -6.13029 -2.8727 0
M  V30 10611 H 997.074 -3.23043 -2.7277 0
M  V30 10612 H 994.792 -7.67781 -2.52068 0
M  V30 10613 H 998.378 -5.30468 -2.38944 0
M  V30 10614 H 997.258 -7.50045 -2.28914 0
M  V30 10615 N 994.761 1.15782 -1.06922 0
M  V30 10616 C 996.007 1.86741 -0.790922 0
M  V30 10617 C 996.34 1.81863 0.681149 0
M  V30 10618 O 995.615 1.23871 1.49954 0
M  V30 10619 C 995.898 3.36038 -1.29422 0
M  V30 10620 C 995.751 3.49573 -2.83052 0
M  V30 10621 C 997.07 4.30647 -0.907239 0
M  V30 10622 H 994.189 0.678064 -0.288787 0
M  V30 10623 H 996.831 1.36054 -1.32624 0
M  V30 10624 H 994.981 3.79336 -0.838843 0
M  V30 10625 H 996.653 3.1517 -3.36847 0
M  V30 10626 H 994.896 2.91275 -3.21467 0
M  V30 10627 H 995.567 4.5445 -3.13335 0
M  V30 10628 H 998.043 3.95286 -1.29956 0
M  V30 10629 H 996.919 5.33604 -1.28679 0
M  V30 10630 H 997.18 4.41703 0.187251 0
M  V30 10631 N 996.239 0.8527 1.3254 0
M  V30 10632 C 997.169 0.311234 2.31416 0
M  V30 10633 C 998.15 -0.588557 1.59593 0
M  V30 10634 O 999.335 -0.509211 1.87405 0
M  V30 10635 C 996.465 -0.502892 3.4364 0
M  V30 10636 C 995.419 0.302296 4.26931 0
M  V30 10637 C 994.745 -0.636445 5.30899 0
M  V30 10638 C 996.045 1.52697 4.99481 0
M  V30 10639 H 997.739 1.13742 2.76953 0
M  V30 10640 H 995.285 0.548389 1.33149 0
M  V30 10641 H 997.238 -0.892092 4.11849 0
M  V30 10642 H 995.962 -1.36242 2.96826 0
M  V30 10643 H 994.621 0.673226 3.60365 0
M  V30 10644 H 994.269 -1.49277 4.80339 0
M  V30 10645 H 993.969 -0.101716 5.87512 0
M  V30 10646 H 995.493 -1.02286 6.01972 0
M  V30 10647 H 996.907 1.21017 5.60382 0
M  V30 10648 H 995.304 1.9995 5.65809 0
M  V30 10649 H 996.374 2.28929 4.27457 0
M  V30 10650 N 997.718 -1.45297 0.610449 0
M  V30 10651 C 998.648 -2.33311 -0.0939698 0
M  V30 10652 C 999.629 -1.46999 -0.85588 0
M  V30 10653 O 1000.81 -1.75764 -0.825865 0
M  V30 10654 C 997.944 -3.29751 -1.09003 0
M  V30 10655 C 996.898 -4.2572 -0.441146 0
M  V30 10656 C 996.224 -5.11873 -1.54566 0
M  V30 10657 C 997.524 -5.1837 0.639489 0
M  V30 10658 H 999.218 -2.92459 0.640941 0
M  V30 10659 H 996.764 -1.40631 0.309675 0
M  V30 10660 H 998.717 -3.90195 -1.59141 0
M  V30 10661 H 997.441 -2.68768 -1.85557 0
M  V30 10662 H 996.1 -3.66579 0.0393908 0
M  V30 10663 H 995.748 -4.47256 -2.30155 0
M  V30 10664 H 995.448 -5.76886 -1.11698 0
M  V30 10665 H 996.972 -5.75185 -2.04925 0
M  V30 10666 H 998.386 -5.7287 0.22207 0
M  V30 10667 H 996.783 -5.91876 0.990089 0
M  V30 10668 H 997.853 -4.60627 1.51495 0
M  V30 10669 N 999.196 -0.349774 -1.5367 0
M  V30 10670 C 1000.11 0.512421 -2.28935 0
M  V30 10671 C 1001.12 1.1065 -1.34286 0
M  V30 10672 O 1002.3 1.12084 -1.67329 0
M  V30 10673 C 999.363 1.64449 -3.05217 0
M  V30 10674 C 998.424 1.07956 -4.15505 0
M  V30 10675 C 997.657 2.15768 -4.88139 0
M  V30 10676 O 997.88 3.366 -4.60496 0
M  V30 10677 O 996.814 1.79712 -5.74445 0
M  V30 10678 H 1000.64 -0.0996001 -3.03537 0
M  V30 10679 H 998.225 -0.114629 -1.4896 0
M  V30 10680 H 1000.11 2.30302 -3.52901 0
M  V30 10681 H 998.782 2.24221 -2.33467 0
M  V30 10682 H 997.689 0.385381 -3.7211 0
M  V30 10683 H 999.022 0.526621 -4.89375 0
M  V30 10684 N 1000.67 1.57404 -0.0785433 0
M  V30 10685 C 1001.61 2.101 0.916013 0
M  V30 10686 C 1002.62 1.03459 1.25698 0
M  V30 10687 O 1003.81 1.30954 1.21299 0
M  V30 10688 C 1000.91 2.55202 2.22992 0
M  V30 10689 C 1000.08 3.85491 2.06678 0
M  V30 10690 C 999.14 4.16614 3.21433 0
M  V30 10691 O 998.166 4.86105 2.96126 0
M  V30 10692 N 999.368 3.70697 4.46726 0
M  V30 10693 H 1002.13 2.96054 0.466059 0
M  V30 10694 H 999.694 1.61546 0.107006 0
M  V30 10695 H 1001.69 2.7308 2.9868 0
M  V30 10696 H 1000.26 1.74348 2.59464 0
M  V30 10697 H 999.476 3.76925 1.15417 0
M  V30 10698 H 1000.76 4.70759 1.93036 0
M  V30 10699 H 1000.16 3.14571 4.70172 0
M  V30 10700 H 998.719 3.93762 5.19418 0
M  V30 10701 N 1002.15 -0.195058 1.56388 0
M  V30 10702 C 1003.1 -1.24175 1.94549 0
M  V30 10703 C 1004.07 -1.45229 0.806089 0
M  V30 10704 O 1005.25 -1.58362 1.06425 0
M  V30 10705 C 1002.39 -2.58145 2.29031 0
M  V30 10706 C 1001.51 -2.44669 3.56035 0
M  V30 10707 C 1000.64 -3.71342 3.7984 0
M  V30 10708 C 999.681 -3.52699 5.0027 0
M  V30 10709 N 998.818 -4.71385 5.20328 0
M  V30 10710 H 1003.66 -0.909319 2.83788 0
M  V30 10711 H 1001.19 -0.437641 1.40439 0
M  V30 10712 H 1003.15 -3.36195 2.4704 0
M  V30 10713 H 1001.78 -2.8943 1.42933 0
M  V30 10714 H 1000.83 -1.57916 3.46073 0
M  V30 10715 H 1002.15 -2.26827 4.44242 0
M  V30 10716 H 1001.3 -4.57832 3.98088 0
M  V30 10717 H 1000.04 -3.92138 2.89964 0
M  V30 10718 H 999.045 -2.64594 4.81944 0
M  V30 10719 H 1000.27 -3.33349 5.91655 0
M  V30 10720 H 998.216 -4.92444 4.33399 0
M  V30 10721 H 998.133 -4.56368 6.02714 0
M  V30 10722 H 999.401 -5.59226 5.43035 0
M  V30 10723 N 1003.63 -1.50653 -0.462772 0
M  V30 10724 C 1004.58 -1.70122 -1.55971 0
M  V30 10725 C 1005.55 -0.542581 -1.56988 0
M  V30 10726 O 1006.73 -0.774114 -1.74391 0
M  V30 10727 C 1003.87 -1.80899 -2.93887 0
M  V30 10728 C 1002.98 -3.08318 -3.02595 0
M  V30 10729 C 1002.12 -3.09841 -4.31477 0
M  V30 10730 C 1001.16 -4.3168 -4.33957 0
M  V30 10731 N 1000.3 -4.30894 -5.54323 0
M  V30 10732 H 1005.14 -2.63768 -1.38674 0
M  V30 10733 H 1002.67 -1.30746 -0.674091 0
M  V30 10734 H 1004.63 -1.85128 -3.73876 0
M  V30 10735 H 1003.26 -0.906854 -3.098 0
M  V30 10736 H 1002.31 -3.13521 -2.15427 0
M  V30 10737 H 1003.62 -3.98282 -3.00288 0
M  V30 10738 H 1002.78 -3.12845 -5.1982 0
M  V30 10739 H 1001.52 -2.17722 -4.36404 0
M  V30 10740 H 1000.52 -4.28879 -3.4401 0
M  V30 10741 H 1001.75 -5.25035 -4.30715 0
M  V30 10742 H 999.694 -3.41633 -5.6002 0
M  V30 10743 H 999.611 -5.14636 -5.53792 0
M  V30 10744 H 1000.88 -4.38056 -6.44769 0
M  V30 10745 N 1005.11 0.71652 -1.4037 0
M  V30 10746 C 1006.36 1.47193 -1.37903 0
M  V30 10747 C 1006.67 1.95593 0.0159939 0
M  V30 10748 O 1007.88 2.71009 0.163282 0
M  V30 10749 C 1006.33 2.6606 -2.42363 0
M  V30 10750 C 1005.94 2.24533 -3.87671 0
M  V30 10751 C 1007.68 3.438 -2.49001 0
M  V30 10752 C 1005.59 3.40234 -4.8373 0
M  V30 10753 H 1004.52 0.552811 -0.512753 0
M  V30 10754 H 1007.17 0.779894 -1.66102 0
M  V30 10755 H 1005.55 3.37429 -2.07262 0
M  V30 10756 H 1006.73 1.6059 -4.31911 0
M  V30 10757 H 1005.04 1.59839 -3.845 0
M  V30 10758 H 1007.64 4.29893 -3.17956 0
M  V30 10759 H 1007.98 3.8755 -1.52023 0
M  V30 10760 H 1008.52 2.79474 -2.83088 0
M  V30 10761 H 1005.26 3.01517 -5.82037 0
M  V30 10762 H 1004.78 4.03095 -4.44156 0
M  V30 10763 H 1006.45 4.06312 -5.03507 0
M  V30 10764 N 1006.59 1.25851 0.948643 0
M  V30 10765 C 1007.53 1.06759 2.04625 0
M  V30 10766 C 1008.5 -0.0251144 1.66081 0
M  V30 10767 O 1009.69 0.133221 1.90334 0
M  V30 10768 C 1006.83 0.698724 3.37952 0
M  V30 10769 C 1005.94 1.8669 3.89578 0
M  V30 10770 C 1005.08 1.44184 5.11258 0
M  V30 10771 C 1004.12 2.57878 5.55126 0
M  V30 10772 N 1003.25 2.16106 6.68014 0
M  V30 10773 H 1008.09 2.00691 2.20289 0
M  V30 10774 H 1005.63 0.999327 1.07944 0
M  V30 10775 H 1007.59 0.465788 4.14592 0
M  V30 10776 H 1006.22 -0.203618 3.22157 0
M  V30 10777 H 1005.27 2.21298 3.09405 0
M  V30 10778 H 1006.58 2.72051 4.18079 0
M  V30 10779 H 1005.74 1.16891 5.95333 0
M  V30 10780 H 1004.47 0.559035 4.84485 0
M  V30 10781 H 1003.48 2.85909 4.69612 0
M  V30 10782 H 1004.7 3.46747 5.83904 0
M  V30 10783 H 1002.65 1.3025 6.42939 0
M  V30 10784 H 1002.57 2.95012 6.96063 0
M  V30 10785 H 1003.84 1.92005 7.55483 0
M  V30 10786 N 1008.06 -1.15214 1.07534 0
M  V30 10787 C 1009.48 -1.67628 0.822045 0
M  V30 10788 C 1009.83 -1.8503 -0.652571 0
M  V30 10789 O 1008.95 -1.55497 -1.50498 0
M  V30 10790 C 1009.55 -3.04489 1.48566 0
M  V30 10791 C 1008.11 -3.53974 1.27983 0
M  V30 10792 C 1007.25 -2.29656 1.55414 0
M  V30 10793 H 1010.2 -0.994016 1.23713 0
M  V30 10794 H 1010.22 -3.69509 0.907916 0
M  V30 10795 H 1009.74 -2.91792 2.55888 0
M  V30 10796 H 1007.84 -3.71908 0.226906 0
M  V30 10797 H 1007.95 -4.35298 2.0013 0
M  V30 10798 H 1006.31 -2.35289 0.975251 0
M  V30 10799 H 1007.1 -2.19544 2.63923 0
M  V30 10800 N 1009.54 -0.859717 -1.32086 0
M  V30 10801 C 1010.95 -0.519529 -1.79326 0
M  V30 10802 C 1011.3 0.96295 -1.70944 0
M  V30 10803 O 1010.43 1.75139 -1.27104 0
M  V30 10804 C 1011.02 -0.936267 -3.25606 0
M  V30 10805 C 1009.58 -0.647899 -3.70782 0
M  V30 10806 C 1008.73 -1.13323 -2.53087 0
M  V30 10807 H 1011.68 -1.04643 -1.19312 0
M  V30 10808 H 1011.7 -0.254714 -3.79646 0
M  V30 10809 H 1011.21 -2.01527 -3.31675 0
M  V30 10810 H 1009.32 0.420172 -3.70223 0
M  V30 10811 H 1009.43 -1.21774 -4.63366 0
M  V30 10812 H 1007.79 -0.553325 -2.48617 0
M  V30 10813 H 1008.58 -2.21945 -2.61907 0
M  V30 10814 N 1011.02 1.44971 -0.618145 0
M  V30 10815 C 1012.27 2.02159 -0.117482 0
M  V30 10816 C 1012.6 1.48517 1.2559 0
M  V30 10817 O 1011.85 0.654192 1.84442 0
M  V30 10818 C 1012.15 3.57378 -0.0394861 0
M  V30 10819 C 1011.82 4.30218 -1.34993 0
M  V30 10820 C 1010.48 4.49835 -1.70886 0
M  V30 10821 C 1012.83 4.71768 -2.21551 0
M  V30 10822 C 1010.16 5.08258 -2.9307 0
M  V30 10823 C 1012.51 5.31543 -3.42993 0
M  V30 10824 C 1011.17 5.49381 -3.79126 0
M  V30 10825 H 1010.44 0.739752 -0.0429897 0
M  V30 10826 H 1013.09 1.73903 -0.801871 0
M  V30 10827 H 1011.4 3.84973 0.728217 0
M  V30 10828 H 1013.09 3.99343 0.364213 0
M  V30 10829 H 1009.68 4.15271 -1.06057 0
M  V30 10830 H 1013.87 4.56336 -1.95117 0
M  V30 10831 H 1009.12 5.20257 -3.21158 0
M  V30 10832 H 1013.3 5.62691 -4.10308 0
M  V30 10833 H 1010.92 5.94419 -4.73888 0
M  V30 10834 N 1012.5 0.357919 1.53482 0
M  V30 10835 C 1013.45 -0.49217 2.25491 0
M  V30 10836 C 1014.42 -1.08382 1.25867 0
M  V30 10837 O 1015.6 -1.11775 1.54632 0
M  V30 10838 C 1012.74 -1.6299 3.04185 0
M  V30 10839 C 1011.85 -1.06416 4.18688 0
M  V30 10840 C 1010.99 -2.17037 4.84839 0
M  V30 10841 C 1010.03 -1.57889 5.91386 0
M  V30 10842 N 1009.16 -2.6231 6.51259 0
M  V30 10843 H 1014 0.128412 2.97723 0
M  V30 10844 H 1011.54 0.0751423 1.46908 0
M  V30 10845 H 1013.5 -2.29993 3.48079 0
M  V30 10846 H 1012.13 -2.22125 2.34223 0
M  V30 10847 H 1011.18 -0.284635 3.79334 0
M  V30 10848 H 1012.49 -0.591654 4.95279 0
M  V30 10849 H 1011.65 -2.91876 5.31877 0
M  V30 10850 H 1010.39 -2.67636 4.07703 0
M  V30 10851 H 1009.39 -0.815605 5.43717 0
M  V30 10852 H 1010.62 -1.08123 6.70437 0
M  V30 10853 H 1008.56 -3.12137 5.7698 0
M  V30 10854 H 1008.48 -2.19724 7.23365 0
M  V30 10855 H 1009.75 -3.36875 7.02948 0
M  V30 10856 N 1013.98 -1.5736 0.0868897 0
M  V30 10857 C 1015.39 -1.81356 -0.443499 0
M  V30 10858 C 1015.74 -1.00192 -1.68689 0
M  V30 10859 O 1014.86 -0.228863 -2.15186 0
M  V30 10860 C 1015.46 -3.28941 -0.811387 0
M  V30 10861 C 1014.02 -3.53729 -1.28656 0
M  V30 10862 C 1013.16 -2.75891 -0.279153 0
M  V30 10863 H 1016.12 -1.55594 0.312427 0
M  V30 10864 H 1016.14 -3.41815 -1.6716 0
M  V30 10865 H 1015.65 -3.87987 0.0937598 0
M  V30 10866 H 1013.75 -3.00005 -2.2097 0
M  V30 10867 H 1013.86 -4.62396 -1.25406 0
M  V30 10868 H 1012.23 -2.4311 -0.759595 0
M  V30 10869 H 1013.01 -3.37682 0.618529 0
M  V30 10870 N 1015.45 0.186762 -1.56489 0
M  V30 10871 C 1016.87 0.537933 -1.50261 0
M  V30 10872 C 1017.07 1.85435 -0.788414 0
M  V30 10873 O 1016.13 2.50168 -0.342377 0
M  V30 10874 C 1017.44 0.584965 -2.94955 0
M  V30 10875 C 1018.99 0.673228 -3.05674 0
M  V30 10876 C 1019.46 0.751294 -4.51796 0
M  V30 10877 N 1020.95 0.814599 -4.55981 0
M  V30 10878 C 1021.69 0.895313 -5.66367 0
M  V30 10879 N 1021.18 0.937814 -6.86423 0
M  V30 10880 N 1022.98 0.933145 -5.543 0
M  V30 10881 H 1015.13 -0.676636 -2.01334 0
M  V30 10882 H 1017.39 -0.242079 -0.916571 0
M  V30 10883 H 1017.1 -0.313361 -3.50301 0
M  V30 10884 H 1016.97 1.4368 -3.48763 0
M  V30 10885 H 1019.36 1.56198 -2.50372 0
M  V30 10886 H 1019.44 -0.204976 -2.54977 0
M  V30 10887 H 1019.08 -0.133143 -5.07725 0
M  V30 10888 H 1019.01 1.64542 -5.00233 0
M  V30 10889 H 1021.5 0.790662 -3.69536 0
M  V30 10890 H 1021.82 1.00015 -7.66301 0
M  V30 10891 H 1020.16 0.906351 -6.89065 0
M  V30 10892 H 1023.35 0.896836 -4.59428 0
M  V30 10893 H 1023.53 0.992588 -6.40353 0
M  V30 10894 N 1016.93 1.50896 0.454776 0
M  V30 10895 C 1018.18 1.61936 1.20248 0
M  V30 10896 C 1018.49 0.332983 1.92745 0
M  V30 10897 O 1019.7 0.322512 2.69578 0
M  V30 10898 C 1018.16 2.85916 2.18587 0
M  V30 10899 C 1017.76 4.21492 1.51818 0
M  V30 10900 C 1019.51 3.06307 2.93898 0
M  V30 10901 C 1017.42 5.3664 2.48539 0
M  V30 10902 H 1016.35 0.603098 0.452536 0
M  V30 10903 H 1019 1.77345 0.471257 0
M  V30 10904 H 1017.38 2.64101 2.95071 0
M  V30 10905 H 1018.55 4.53623 0.810123 0
M  V30 10906 H 1016.87 4.06837 0.887265 0
M  V30 10907 H 1019.46 3.89507 3.66317 0
M  V30 10908 H 1019.81 2.18683 3.54236 0
M  V30 10909 H 1020.34 3.2838 2.24525 0
M  V30 10910 H 1017.08 6.26469 1.92916 0
M  V30 10911 H 1016.6 5.08907 3.17449 0
M  V30 10912 H 1018.28 5.67881 3.10033 0
M  V30 10913 N 1018.41 -0.709066 1.40748 0
M  V30 10914 C 1019.36 -1.82312 1.4153 0
M  V30 10915 C 1020.33 -1.63868 0.271392 0
M  V30 10916 O 1021.51 -1.8491 0.470431 0
M  V30 10917 C 1018.65 -3.2008 1.29006 0
M  V30 10918 C 1017.77 -3.50051 2.53156 0
M  V30 10919 C 1016.9 -4.7736 2.33025 0
M  V30 10920 C 1015.94 -5.00255 3.52719 0
M  V30 10921 N 1015.08 -6.18782 3.31743 0
M  V30 10922 H 1019.92 -1.80978 2.36751 0
M  V30 10923 H 1017.45 -0.883975 1.17577 0
M  V30 10924 H 1019.41 -3.99645 1.19749 0
M  V30 10925 H 1018.04 -3.20626 0.374014 0
M  V30 10926 H 1017.09 -2.64993 2.72916 0
M  V30 10927 H 1018.41 -3.62877 3.42231 0
M  V30 10928 H 1017.56 -5.64954 2.21159 0
M  V30 10929 H 1016.3 -4.66756 1.41386 0
M  V30 10930 H 1015.3 -4.11114 3.65055 0
M  V30 10931 H 1016.53 -5.12728 4.45295 0
M  V30 10932 H 1014.47 -6.09416 2.42791 0
M  V30 10933 H 1014.39 -6.32313 4.14386 0
M  V30 10934 H 1015.66 -7.09146 3.23623 0
M  V30 10935 N 1019.89 -1.26353 -0.941956 0
M  V30 10936 C 1021.12 -1.14626 -1.72245 0
M  V30 10937 C 1021.53 0.298588 -1.86424 0
M  V30 10938 O 1020.89 1.2045 -1.37106 0
M  V30 10939 C 1020.94 -1.80933 -3.12963 0
M  V30 10940 O 1020.66 -3.19771 -2.99463 0
M  V30 10941 C 1022.16 -1.7515 -4.07231 0
M  V30 10942 H 1019.38 -0.3992 -0.539333 0
M  V30 10943 H 1021.93 -1.66958 -1.1809 0
M  V30 10944 H 1020.08 -1.32541 -3.64021 0
M  V30 10945 H 1020.5 -3.52571 -3.88322 0
M  V30 10946 H 1021.97 -2.26183 -5.03533 0
M  V30 10947 H 1022.45 -0.717855 -4.33294 0
M  V30 10948 H 1023.05 -2.2309 -3.62093 0
M  V30 10949 N 1021.37 1.14642 -1.08144 0
M  V30 10950 C 1022.31 2.1964 -0.708995 0
M  V30 10951 C 1023.28 1.63303 0.303512 0
M  V30 10952 O 1024.47 1.8987 0.18813 0
M  V30 10953 C 1021.61 3.44886 -0.121585 0
M  V30 10954 C 1020.72 4.15386 -1.18654 0
M  V30 10955 C 1019.86 5.28205 -0.56328 0
M  V30 10956 C 1018.9 5.90534 -1.61046 0
M  V30 10957 N 1018.03 6.94809 -1.00919 0
M  V30 10958 H 1022.87 2.50848 -1.6087 0
M  V30 10959 H 1020.41 1.23185 -0.803975 0
M  V30 10960 H 1022.37 4.16528 0.23668 0
M  V30 10961 H 1021 3.14169 0.741445 0
M  V30 10962 H 1020.05 3.42159 -1.66227 0
M  V30 10963 H 1021.36 4.57809 -1.9802 0
M  V30 10964 H 1020.52 6.06507 -0.153109 0
M  V30 10965 H 1019.26 4.86995 0.262066 0
M  V30 10966 H 1018.26 5.10938 -2.03033 0
M  V30 10967 H 1019.49 6.33819 -2.43824 0
M  V30 10968 H 1017.43 6.5568 -0.204894 0
M  V30 10969 H 1017.35 7.35704 -1.73999 0
M  V30 10970 H 1018.62 7.76992 -0.624792 0
M  V30 10971 N 1022.85 0.866709 1.31628 0
M  V30 10972 C 1024.26 0.558188 1.49521 0
M  V30 10973 C 1024.46 -0.90844 1.7986 0
M  V30 10974 O 1023.52 -1.6908 1.87531 0
M  V30 10975 C 1024.83 1.45559 2.63122 0
M  V30 10976 C 1026.38 1.45728 2.77006 0
M  V30 10977 C 1026.85 2.34017 3.937 0
M  V30 10978 N 1028.34 2.31879 4.00982 0
M  V30 10979 C 1029.08 2.96915 4.90539 0
M  V30 10980 N 1028.58 3.71109 5.85021 0
M  V30 10981 N 1030.37 2.86241 4.83759 0
M  V30 10982 H 1022.52 1.81574 1.10203 0
M  V30 10983 H 1024.78 0.77621 0.544244 0
M  V30 10984 H 1024.49 2.49904 2.47469 0
M  V30 10985 H 1024.36 1.15174 3.59186 0
M  V30 10986 H 1026.75 0.421419 2.92075 0
M  V30 10987 H 1026.83 1.80134 1.81619 0
M  V30 10988 H 1026.47 3.37678 3.79389 0
M  V30 10989 H 1026.4 1.96937 4.88388 0
M  V30 10990 H 1028.9 1.77948 3.33381 0
M  V30 10991 H 1029.21 4.1787 6.5008 0
M  V30 10992 H 1027.55 3.75217 5.8501 0
M  V30 10993 H 1030.74 2.27819 4.08921 0
M  V30 10994 H 1030.92 3.37206 5.5335 0
M  V30 10995 N 1024.32 -1.44642 0.625825 0
M  V30 10996 C 1025.6 -1.9551 0.0593587 0
M  V30 10997 C 1025.98 -1.56792 -1.41349 0
M  V30 10998 O 1025.33 -0.839373 -2.12525 0
M  V30 10999 C 1025.54 -3.47902 0.276647 0
M  V30 11000 C 1026.89 -4.24271 0.167044 0
M  V30 11001 O 1027.91 -3.55594 0.207731 0
M  V30 11002 O 1026.77 -5.46458 0.0675 0
M  V30 11003 H 1023.86 -0.826612 -0.0253422 0
M  V30 11004 H 1026.41 -1.54718 0.697159 0
M  V30 11005 H 1025.18 -3.69115 1.29885 0
M  V30 11006 H 1024.8 -3.95628 -0.395547 0
M  V30 11007 N 1025.8 -0.366053 -1.5329 0
M  V30 11008 C 1027.05 0.223824 -2.01561 0
M  V30 11009 C 1027.38 1.48382 -1.25286 0
M  V30 11010 O 1026.66 1.91385 -0.34669 0
M  V30 11011 C 1026.94 0.5153 -3.56394 0
M  V30 11012 C 1026.79 -0.758357 -4.43361 0
M  V30 11013 C 1028.11 1.31568 -4.19974 0
M  V30 11014 H 1025.23 0.0798751 -0.732659 0
M  V30 11015 H 1027.87 -0.491038 -1.83545 0
M  V30 11016 H 1026.02 1.12429 -3.71876 0
M  V30 11017 H 1027.69 -1.39584 -4.39675 0
M  V30 11018 H 1025.94 -1.37862 -4.11311 0
M  V30 11019 H 1026.61 -0.509366 -5.49645 0
M  V30 11020 H 1029.08 0.800514 -4.08327 0
M  V30 11021 H 1027.96 1.48837 -5.28336 0
M  V30 11022 H 1028.22 2.32432 -3.76069 0
M  V30 11023 N 1027.28 1.57312 -0.0952337 0
M  V30 11024 C 1028.23 2.15263 0.881167 0
M  V30 11025 C 1029.22 1.09552 1.29208 0
M  V30 11026 O 1030.43 1.27897 1.26659 0
M  V30 11027 H 1026.8 0.688611 0.302191 0
M  V30 11028 H 1028.77 2.96126 0.367694 0
M  V30 11029 C 1027.52 2.74779 2.13053 0
M  V30 11030 H 1026.85 3.55807 1.82323 0
M  V30 11031 H 1028.29 3.18895 2.79431 0
M  V30 11032 C 1026.74 1.7068 2.90465 0
M  V30 11033 O 1027.27 1.14582 3.85011 0
M  V30 11034 N 1025.48 1.41169 2.54007 0
M  V30 11035 H 1025.03 1.86977 1.77193 0
M  V30 11036 H 1024.99 0.717559 3.06102 0
M  V30 11037 N 1028.76 -0.17846 1.56586 0
M  V30 11038 C 1029.71 -1.24042 1.96765 0
M  V30 11039 C 1030.7 -1.46218 0.855375 0
M  V30 11040 O 1031.91 -1.46882 1.04046 0
M  V30 11041 H 1028.28 -0.416807 0.62592 0
M  V30 11042 H 1030.25 -0.874644 2.85294 0
M  V30 11043 C 1029 -2.57394 2.3376 0
M  V30 11044 H 1028.32 -2.41151 3.18883 0
M  V30 11045 H 1029.76 -3.30405 2.65723 0
M  V30 11046 C 1028.22 -3.15621 1.17835 0
M  V30 11047 O 1028.75 -3.99032 0.462202 0
M  V30 11048 N 1026.96 -2.74606 0.950783 0
M  V30 11049 H 1026.51 -2.06878 1.5349 0
M  V30 11050 H 1026.46 -3.13902 0.176967 0
M  V30 11051 N 1030.24 -1.51135 -0.446768 0
M  V30 11052 C 1031.48 -1.63336 -1.19698 0
M  V30 11053 C 1031.81 -0.345099 -1.91414 0
M  V30 11054 O 1031.07 0.670365 -1.8386 0
M  V30 11055 C 1031.36 -2.78034 -2.2457 0
M  V30 11056 C 1031.03 -4.17652 -1.69934 0
M  V30 11057 C 1029.69 -4.55636 -1.54756 0
M  V30 11058 C 1032.04 -5.04813 -1.29665 0
M  V30 11059 C 1029.37 -5.78496 -0.977689 0
M  V30 11060 C 1031.72 -6.28244 -0.741112 0
M  V30 11061 C 1030.39 -6.65009 -0.576156 0
M  V30 11062 H 1029.66 -0.597689 -0.438006 0
M  V30 11063 H 1032.31 -1.85141 -0.48939 0
M  V30 11064 H 1030.61 -2.50413 -3.01331 0
M  V30 11065 H 1032.31 -2.84675 -2.8242 0
M  V30 11066 H 1028.9 -3.87699 -1.82722 0
M  V30 11067 H 1033.08 -4.76081 -1.40216 0
M  V30 11068 H 1028.34 -6.05636 -0.837563 0
M  V30 11069 H 1032.51 -6.95129 -0.42053 0
M  V30 11070 H 1030.14 -7.60085 -0.132443 0
M  V30 11071 N 1031.71 0.701592 -1.41122 0
M  V30 11072 C 1032.99 1.45569 -1.30648 0
M  V30 11073 C 1033.37 2.10988 0.068744 0
M  V30 11074 O 1032.72 2.01228 1.08257 0
M  V30 11075 C 1032.93 2.48003 -2.45551 0
M  V30 11076 C 1034.28 3.13431 -2.86437 0
M  V30 11077 O 1035.3 2.58327 -2.45247 0
M  V30 11078 O 1034.16 4.13221 -3.57646 0
M  V30 11079 H 1031.25 0.648 -0.513834 0
M  V30 11080 H 1033.8 0.73258 -1.53073 0
M  V30 11081 H 1032.57 1.98276 -3.37346 0
M  V30 11082 H 1032.19 3.27832 -2.24971 0
M  V30 11083 N 1033.19 1.2685 0.935242 0
M  V30 11084 C 1034.12 1.04717 2.0388 0
M  V30 11085 C 1035.14 0.00567507 1.62799 0
M  V30 11086 O 1036.33 0.246408 1.76791 0
M  V30 11087 C 1033.43 0.56496 3.34158 0
M  V30 11088 C 1032.6 1.67704 4.03973 0
M  V30 11089 C 1031.66 1.19186 5.12524 0
M  V30 11090 O 1030.68 1.89008 5.36903 0
M  V30 11091 N 1031.89 0.0434554 5.80484 0
M  V30 11092 H 1034.65 1.99746 2.23431 0
M  V30 11093 H 1032.21 1.18316 1.10512 0
M  V30 11094 H 1034.2 0.224436 4.04077 0
M  V30 11095 H 1032.77 -0.291899 3.11234 0
M  V30 11096 H 1031.99 2.18821 3.27889 0
M  V30 11097 H 1033.28 2.42361 4.47368 0
M  V30 11098 H 1032.68 -0.539502 5.63122 0
M  V30 11099 H 1031.24 -0.237946 6.51366 0
M  V30 11100 N 1034.67 -1.14067 1.0875 0
M  V30 11101 C 1035.95 -1.81389 0.73195 0
M  V30 11102 C 1036.33 -1.96005 -0.78391 0
M  V30 11103 O 1035.68 -1.52267 -1.70373 0
M  V30 11104 C 1035.89 -3.16858 1.46294 0
M  V30 11105 C 1037.23 -3.92305 1.62426 0
M  V30 11106 O 1038.26 -3.26459 1.42488 0
M  V30 11107 O 1037.12 -5.10393 1.9535 0
M  V30 11108 H 1034.21 -0.784354 0.262141 0
M  V30 11109 H 1036.76 -1.21054 1.18929 0
M  V30 11110 H 1035.53 -3.01404 2.49542 0
M  V30 11111 H 1035.15 -3.84889 0.997318 0
M  V30 11112 N 1036.15 -0.873678 -1.31166 0
M  V30 11113 C 1037.4 -0.486457 -1.9657 0
M  V30 11114 C 1037.72 0.962042 -1.69041 0
M  V30 11115 O 1036.98 1.69305 -0.981543 0
M  V30 11116 C 1037.28 -0.69462 -3.50585 0
M  V30 11117 C 1036.94 -2.11647 -3.98141 0
M  V30 11118 C 1035.61 -2.50531 -4.10838 0
M  V30 11119 C 1037.96 -3.0436 -4.23101 0
M  V30 11120 C 1035.29 -3.81361 -4.45848 0
M  V30 11121 C 1037.64 -4.34709 -4.59577 0
M  V30 11122 C 1036.3 -4.73502 -4.70481 0
M  V30 11123 H 1035.57 -0.178007 -0.719301 0
M  V30 11124 H 1038.22 -1.10737 -1.56235 0
M  V30 11125 H 1036.52 0.00940878 -3.91799 0
M  V30 11126 H 1038.22 -0.374782 -3.99245 0
M  V30 11127 H 1034.81 -1.8046 -3.88757 0
M  V30 11128 H 1038.99 -2.75544 -4.12782 0
M  V30 11129 H 1034.25 -4.11174 -4.52488 0
M  V30 11130 H 1038.42 -5.06596 -4.77842 0
M  V30 11131 H 1036.05 -5.74919 -4.97365 0
M  V30 11132 N 1037.63 1.44308 -0.633487 0
M  V30 11133 C 1038.85 2.06384 -0.146063 0
M  V30 11134 C 1039.27 1.47357 1.18031 0
M  V30 11135 O 1038.63 0.597334 1.72448 0
M  V30 11136 C 1038.68 3.61489 -0.0276722 0
M  V30 11137 O 1038.4 4.18318 -1.3016 0
M  V30 11138 C 1039.9 4.40604 0.488168 0
M  V30 11139 H 1037.12 0.666122 -0.0807632 0
M  V30 11140 H 1039.66 1.85139 -0.868557 0
M  V30 11141 H 1037.82 3.81988 0.645273 0
M  V30 11142 H 1038.23 5.11783 -1.14797 0
M  V30 11143 H 1039.71 5.49545 0.520013 0
M  V30 11144 H 1040.18 4.12218 1.51568 0
M  V30 11145 H 1040.79 4.2503 -0.151608 0
M  V30 11146 N 1039.1 0.374177 1.53094 0
M  V30 11147 C 1040.52 0.0234783 1.59583 0
M  V30 11148 C 1040.72 -1.45984 1.38892 0
M  V30 11149 O 1039.78 -2.22251 1.19836 0
M  V30 11150 C 1041.09 0.487117 2.96728 0
M  V30 11151 C 1042.64 0.442073 3.09862 0
M  V30 11152 C 1043.11 0.881659 4.49434 0
M  V30 11153 N 1044.6 0.837062 4.55574 0
M  V30 11154 C 1045.34 1.14878 5.61774 0
M  V30 11155 N 1044.83 1.53022 6.75689 0
M  V30 11156 N 1046.63 1.07102 5.51802 0
M  V30 11157 H 1038.78 1.34003 1.64794 0
M  V30 11158 H 1041.04 0.548281 0.773364 0
M  V30 11159 H 1040.75 1.52252 3.17037 0
M  V30 11160 H 1040.62 -0.121772 3.77003 0
M  V30 11161 H 1043.01 -0.584216 2.89259 0
M  V30 11162 H 1043.09 1.08657 2.31576 0
M  V30 11163 H 1042.73 1.90611 4.70776 0
M  V30 11164 H 1042.66 0.214326 5.26164 0
M  V30 11165 H 1045.15 0.556173 3.73785 0
M  V30 11166 H 1045.47 1.75211 7.52676 0
M  V30 11167 H 1043.81 1.56895 6.77059 0
M  V30 11168 H 1047 0.772149 4.61688 0
M  V30 11169 H 1047.18 1.31728 6.3447 0
M  V30 11170 N 1040.58 -1.57259 0.103575 0
M  V30 11171 C 1041.49 -2.18018 -0.866327 0
M  V30 11172 C 1042.51 -1.15198 -1.30404 0
M  V30 11173 O 1043.68 -1.47605 -1.37021 0
M  V30 11174 C 1040.75 -2.75533 -2.10434 0
M  V30 11175 C 1039.81 -3.93337 -1.72002 0
M  V30 11176 C 1039.04 -4.481 -2.89901 0
M  V30 11177 O 1039.27 -4.01784 -4.04877 0
M  V30 11178 O 1038.2 -5.39004 -2.67877 0
M  V30 11179 H 1042.03 -3.01322 -0.379338 0
M  V30 11180 H 1039.61 -1.48907 -0.121228 0
M  V30 11181 H 1041.49 -3.12259 -2.8297 0
M  V30 11182 H 1040.17 -1.9527 -2.58169 0
M  V30 11183 H 1039.08 -3.61408 -0.966193 0
M  V30 11184 H 1040.41 -4.74989 -1.29022 0
M  V30 11185 N 1042.06 0.170153 -1.56679 0
M  V30 11186 C 1042.97 1.23057 -1.99735 0
M  V30 11187 C 1043.99 1.48374 -0.908912 0
M  V30 11188 O 1045.16 1.60499 -1.21663 0
M  V30 11189 C 1042.23 2.54944 -2.34956 0
M  V30 11190 C 1041.29 2.3748 -3.57634 0
M  V30 11191 C 1040.52 3.63078 -3.91165 0
M  V30 11192 O 1040.74 4.68304 -3.2565 0
M  V30 11193 O 1039.68 3.57119 -4.8451 0
M  V30 11194 H 1043.5 0.895104 -2.9021 0
M  V30 11195 H 1041.09 0.377109 -1.44562 0
M  V30 11196 H 1042.97 3.32742 -2.58574 0
M  V30 11197 H 1041.65 2.88068 -1.47643 0
M  V30 11198 H 1040.55 1.57709 -3.39232 0
M  V30 11199 H 1041.89 2.0928 -4.45491 0
M  V30 11200 N 1043.54 1.5137 0.438746 0
M  V30 11201 C 1044.95 1.56462 1.01866 0
M  V30 11202 C 1045.3 0.387244 1.9234 0
M  V30 11203 O 1044.43 -0.496131 2.10636 0
M  V30 11204 C 1045.02 2.83557 1.85421 0
M  V30 11205 C 1043.58 2.91224 2.38464 0
M  V30 11206 C 1042.73 2.51109 1.17641 0
M  V30 11207 H 1045.68 1.57167 0.220072 0
M  V30 11208 H 1045.7 2.6724 2.70857 0
M  V30 11209 H 1045.21 3.69229 1.19546 0
M  V30 11210 H 1043.31 2.09979 3.07798 0
M  V30 11211 H 1043.42 3.94844 2.71358 0
M  V30 11212 H 1041.79 2.04276 1.5213 0
M  V30 11213 H 1042.57 3.39125 0.533785 0
M  V30 11214 N 1045.02 -0.694098 1.41492 0
M  V30 11215 C 1046.26 -1.4563 1.41137 0
M  V30 11216 C 1046.6 -1.94189 0.0208428 0
M  V30 11217 O 1045.87 -1.69628 -0.951655 0
M  V30 11218 C 1046.15 -2.66714 2.41941 0
M  V30 11219 C 1046.01 -2.23912 3.90107 0
M  V30 11220 C 1047.33 -3.68913 2.39981 0
M  V30 11221 H 1044.44 -0.52821 0.513968 0
M  V30 11222 H 1047.09 -0.790437 1.72778 0
M  V30 11223 H 1045.24 -3.23525 2.1509 0
M  V30 11224 H 1046.91 -1.72417 4.27867 0
M  V30 11225 H 1045.15 -1.5568 4.04903 0
M  V30 11226 H 1045.82 -3.108 4.56188 0
M  V30 11227 H 1048.3 -3.21779 2.63813 0
M  V30 11228 H 1047.17 -4.51242 3.12524 0
M  V30 11229 H 1047.44 -4.18711 1.41892 0
M  V30 11230 N 1046.49 -1.27344 -0.928501 0
M  V30 11231 C 1047.42 -1.12517 -2.04602 0
M  V30 11232 C 1048.41 -0.0268563 -1.70079 0
M  V30 11233 O 1049.59 -0.201197 -1.93155 0
M  V30 11234 C 1046.72 -0.770749 -3.3864 0
M  V30 11235 C 1045.67 -1.8222 -3.87272 0
M  V30 11236 C 1045 -1.32178 -5.18105 0
M  V30 11237 C 1046.3 -3.22614 -4.10752 0
M  V30 11238 H 1047.99 -2.06 -2.17265 0
M  V30 11239 H 1045.54 -0.991827 -1.04397 0
M  V30 11240 H 1047.49 -0.653843 -4.16297 0
M  V30 11241 H 1046.22 0.19979 -3.25988 0
M  V30 11242 H 1044.88 -1.928 -3.11807 0
M  V30 11243 H 1044.52 -0.340719 -5.01845 0
M  V30 11244 H 1044.22 -2.02474 -5.51614 0
M  V30 11245 H 1045.75 -1.2178 -5.98333 0
M  V30 11246 H 1047.16 -3.1504 -4.78981 0
M  V30 11247 H 1045.56 -3.90614 -4.55566 0
M  V30 11248 H 1046.63 -3.67727 -3.16077 0
M  V30 11249 N 1047.97 1.13488 -1.09353 0
M  V30 11250 C 1049.2 1.88592 -0.850915 0
M  V30 11251 C 1049.62 1.79087 0.597761 0
M  V30 11252 O 1048.97 1.15695 1.41142 0
M  V30 11253 C 1049.02 3.38219 -1.27633 0
M  V30 11254 O 1048.74 3.47476 -2.66819 0
M  V30 11255 C 1050.25 4.30293 -1.06598 0
M  V30 11256 H 1047.47 0.597069 -0.306185 0
M  V30 11257 H 1050.01 1.43668 -1.45533 0
M  V30 11258 H 1048.16 3.80729 -0.715828 0
M  V30 11259 H 1048.58 4.40485 -2.84733 0
M  V30 11260 H 1050.05 5.33611 -1.41293 0
M  V30 11261 H 1050.53 4.392 -0.0037135 0
M  V30 11262 H 1051.14 3.9355 -1.6124 0
M  V30 11263 N 1049.45 0.880621 1.30701 0
M  V30 11264 C 1050.38 0.360251 2.30704 0
M  V30 11265 C 1051.36 -0.554572 1.60806 0
M  V30 11266 O 1052.55 -0.469345 1.88443 0
M  V30 11267 C 1049.68 -0.429888 3.44629 0
M  V30 11268 C 1048.63 0.392786 4.26194 0
M  V30 11269 C 1047.96 -0.52369 5.32129 0
M  V30 11270 C 1049.26 1.63258 4.96129 0
M  V30 11271 H 1050.95 1.19591 2.74478 0
M  V30 11272 H 1048.5 0.576508 1.31956 0
M  V30 11273 H 1050.45 -0.804532 4.13649 0
M  V30 11274 H 1049.17 -1.29916 2.99649 0
M  V30 11275 H 1047.83 0.749514 3.58856 0
M  V30 11276 H 1047.48 -1.39054 4.83397 0
M  V30 11277 H 1047.18 0.0229272 5.87596 0
M  V30 11278 H 1048.71 -0.894946 6.04006 0
M  V30 11279 H 1050.12 1.32877 5.57689 0
M  V30 11280 H 1048.52 2.11906 5.61441 0
M  V30 11281 H 1049.59 2.37944 4.22505 0
M  V30 11282 N 1050.93 -1.4397 0.641131 0
M  V30 11283 C 1052.18 -2.02246 0.14985 0
M  V30 11284 C 1052.51 -1.50387 -1.22871 0
M  V30 11285 O 1051.78 -0.692003 -1.81773 0
M  V30 11286 C 1052.07 -3.59798 0.147449 0
M  V30 11287 C 1051.92 -4.21916 1.55907 0
M  V30 11288 C 1053.24 -4.36985 -0.522667 0
M  V30 11289 H 1050.36 -0.734875 0.0559274 0
M  V30 11290 H 1053 -1.71418 0.819513 0
M  V30 11291 H 1051.15 -3.86193 -0.422789 0
M  V30 11292 H 1052.82 -4.06594 2.17896 0
M  V30 11293 H 1051.06 -3.79028 2.10998 0
M  V30 11294 H 1051.74 -5.30964 1.50934 0
M  V30 11295 H 1054.21 -4.16083 -0.0376226 0
M  V30 11296 H 1053.09 -5.46676 -0.493572 0
M  V30 11297 H 1053.35 -4.12335 -1.59475 0
M  V30 11298 N 1052.41 -0.382291 -1.52893 0
M  V30 11299 C 1053.68 0.259354 -1.93873 0
M  V30 11300 C 1054.06 1.64964 -1.3172 0
M  V30 11301 O 1053.41 2.23345 -0.482611 0
M  V30 11302 C 1053.62 0.292765 -3.4777 0
M  V30 11303 C 1054.97 0.525095 -4.21341 0
M  V30 11304 O 1055.99 0.373272 -3.54239 0
M  V30 11305 O 1054.85 0.822004 -5.40283 0
M  V30 11306 H 1051.95 0.159422 -0.811489 0
M  V30 11307 H 1054.49 -0.436289 -1.63996 0
M  V30 11308 H 1053.27 -0.681341 -3.85323 0
M  V30 11309 H 1052.89 1.03362 -3.8393 0
M  V30 11310 N 1053.89 1.57202 -0.111913 0
M  V30 11311 C 1054.8 2.18475 0.854753 0
M  V30 11312 C 1055.81 1.15888 1.29792 0
M  V30 11313 O 1056.99 1.48329 1.36237 0
M  V30 11314 C 1054.05 2.76645 2.0897 0
M  V30 11315 C 1053.11 3.94244 1.69913 0
M  V30 11316 C 1052.35 4.49631 2.8752 0
M  V30 11317 O 1052.57 4.03926 4.02741 0
M  V30 11318 O 1051.5 5.40417 2.65015 0
M  V30 11319 H 1055.33 3.01519 0.363352 0
M  V30 11320 H 1052.91 1.4897 0.113329 0
M  V30 11321 H 1054.8 3.13755 2.81311 0
M  V30 11322 H 1053.47 1.96637 2.5713 0
M  V30 11323 H 1052.38 3.61915 0.947013 0
M  V30 11324 H 1053.71 4.75666 1.26501 0
M  V30 11325 N 1055.36 -0.161842 1.56767 0
M  V30 11326 C 1056.33 -1.18404 1.96247 0
M  V30 11327 C 1057.33 -1.3667 0.84722 0
M  V30 11328 O 1058.52 -1.33915 1.11411 0
M  V30 11329 C 1055.65 -2.54728 2.26553 0
M  V30 11330 H 1056.84 -0.845703 2.87729 0
M  V30 11331 H 1054.39 -0.404645 1.50971 0
M  V30 11332 H 1055.13 -2.93559 1.37816 0
M  V30 11333 H 1054.91 -2.42834 3.07854 0
M  V30 11334 H 1056.4 -3.28378 2.57987 0
M  V30 11335 N 1056.84 -1.516 -0.430713 0
M  V30 11336 C 1058.09 -1.63829 -1.17657 0
M  V30 11337 C 1058.4 -0.363605 -1.92191 0
M  V30 11338 O 1059.61 -0.365358 -2.6903 0
M  V30 11339 C 1058.07 -2.89357 -2.14011 0
M  V30 11340 C 1057.67 -4.23854 -1.45094 0
M  V30 11341 C 1059.42 -3.10944 -2.88988 0
M  V30 11342 C 1057.32 -5.40526 -2.3997 0
M  V30 11343 H 1056.25 -0.610221 -0.442884 0
M  V30 11344 H 1058.91 -1.78073 -0.442984 0
M  V30 11345 H 1057.29 -2.68762 -2.90832 0
M  V30 11346 H 1058.46 -4.54854 -0.737853 0
M  V30 11347 H 1056.78 -4.08197 -0.822429 0
M  V30 11348 H 1059.37 -3.95286 -3.60074 0
M  V30 11349 H 1059.72 -2.24291 -3.50712 0
M  V30 11350 H 1060.25 -3.3191 -2.19272 0
M  V30 11351 H 1056.99 -6.29459 -1.82925 0
M  V30 11352 H 1056.51 -5.13893 -3.09313 0
M  V30 11353 H 1058.19 -5.72741 -3.00959 0
M  V30 11354 N 1058.32 0.686584 -1.41858 0
M  V30 11355 C 1059.57 1.44879 -1.41908 0
M  V30 11356 C 1059.9 1.94175 -0.0311408 0
M  V30 11357 O 1059.17 1.70131 0.942646 0
M  V30 11358 C 1059.46 2.65428 -2.43352 0
M  V30 11359 C 1059.31 2.2184 -3.91289 0
M  V30 11360 C 1060.63 3.67635 -2.41934 0
M  V30 11361 H 1057.75 0.525477 -0.516762 0
M  V30 11362 H 1060.39 0.781263 -1.73194 0
M  V30 11363 H 1058.54 3.2238 -2.16803 0
M  V30 11364 H 1060.21 1.70146 -4.28775 0
M  V30 11365 H 1058.45 1.53531 -4.05722 0
M  V30 11366 H 1059.13 3.08376 -4.5783 0
M  V30 11367 H 1061.6 3.20376 -2.65516 0
M  V30 11368 H 1060.48 4.49579 -3.14913 0
M  V30 11369 H 1060.74 4.17953 -1.44111 0
M  V30 11370 N 1059.8 1.27835 0.921735 0
M  V30 11371 C 1060.74 1.11075 2.02314 0
M  V30 11372 C 1061.71 0.0101195 1.66097 0
M  V30 11373 O 1062.9 0.173564 1.90009 0
M  V30 11374 C 1060.04 0.770251 3.36394 0
M  V30 11375 C 1059.15 1.94912 3.8553 0
M  V30 11376 C 1058.29 1.54996 5.08084 0
M  V30 11377 C 1057.33 2.69595 5.49531 0
M  V30 11378 N 1056.46 2.30227 6.6328 0
M  V30 11379 H 1061.3 2.05319 2.15982 0
M  V30 11380 H 1058.84 1.022 1.058 0
M  V30 11381 H 1060.8 0.553624 4.1351 0
M  V30 11382 H 1059.43 -0.135238 3.22517 0
M  V30 11383 H 1058.48 2.27811 3.04641 0
M  V30 11384 H 1059.79 2.80858 4.12214 0
M  V30 11385 H 1058.95 1.29493 5.9272 0
M  V30 11386 H 1057.69 0.661676 4.83191 0
M  V30 11387 H 1056.69 2.95806 4.63442 0
M  V30 11388 H 1057.92 3.59054 5.76417 0
M  V30 11389 H 1055.86 1.43858 6.40032 0
M  V30 11390 H 1055.78 3.09711 6.89649 0
M  V30 11391 H 1057.05 2.07987 7.5124 0
M  V30 11392 N 1061.28 -1.12907 1.09954 0
M  V30 11393 C 1062.21 -2.18194 0.701701 0
M  V30 11394 C 1063.22 -1.60724 -0.259131 0
M  V30 11395 O 1064.41 -1.78445 -0.0443549 0
M  V30 11396 C 1061.51 -3.38897 0.0140602 0
M  V30 11397 C 1060.68 -4.25867 0.997807 0
M  V30 11398 C 1059.74 -5.25084 0.34257 0
M  V30 11399 O 1058.77 -5.60492 0.991857 0
M  V30 11400 N 1059.97 -5.73464 -0.901058 0
M  V30 11401 H 1062.73 -2.52939 1.60755 0
M  V30 11402 H 1060.3 -1.28281 0.987703 0
M  V30 11403 H 1062.29 -4.02349 -0.435628 0
M  V30 11404 H 1060.86 -3.02345 -0.794118 0
M  V30 11405 H 1060.08 -3.59107 1.6259 0
M  V30 11406 H 1061.37 -4.80825 1.66388 0
M  V30 11407 H 1060.76 -5.46854 -1.44802 0
M  V30 11408 H 1059.32 -6.38827 -1.29398 0
M  V30 11409 N 1062.75 -0.88754 -1.30232 0
M  V30 11410 C 1064 -0.503322 -1.95319 0
M  V30 11411 C 1064.32 0.952817 -1.70824 0
M  V30 11412 O 1065.52 1.444 -2.29915 0
M  V30 11413 C 1063.98 -0.849216 -3.49738 0
M  V30 11414 C 1063.59 -2.3233 -3.83049 0
M  V30 11415 C 1065.33 -0.53432 -4.21124 0
M  V30 11416 C 1063.24 -2.61069 -5.30657 0
M  V30 11417 H 1062.17 -0.1845 -0.731078 0
M  V30 11418 H 1064.82 -1.08287 -1.48143 0
M  V30 11419 H 1063.2 -0.198729 -3.95501 0
M  V30 11420 H 1064.37 -3.01832 -3.48187 0
M  V30 11421 H 1062.69 -2.60599 -3.24773 0
M  V30 11422 H 1065.29 -0.726039 -5.29748 0
M  V30 11423 H 1065.63 0.526434 -4.12958 0
M  V30 11424 H 1066.16 -1.14211 -3.81052 0
M  V30 11425 H 1062.9 -3.65895 -5.43876 0
M  V30 11426 H 1062.42 -1.96179 -5.6681 0
M  V30 11427 H 1064.1 -2.46703 -5.98119 0
M  V30 11428 N 1064.23 1.43628 -0.648757 0
M  V30 11429 C 1065.18 2.32529 0.057536 0
M  V30 11430 C 1066.17 1.48358 0.817699 0
M  V30 11431 O 1067.38 1.64595 0.728605 0
M  V30 11432 H 1063.76 0.75107 0.037388 0
M  V30 11433 H 1065.73 2.89829 -0.710062 0
M  V30 11434 C 1064.48 3.32605 1.01336 0
M  V30 11435 H 1063.8 3.97395 0.437855 0
M  V30 11436 H 1065.24 3.97453 1.47672 0
M  V30 11437 C 1063.7 2.62865 2.10722 0
M  V30 11438 O 1064.23 2.4408 3.19042 0
M  V30 11439 N 1062.43 2.22312 1.87152 0
M  V30 11440 H 1061.98 2.3779 0.990644 0
M  V30 11441 H 1061.94 1.75979 2.60536 0
M  V30 11442 N 1065.71 0.390394 1.52688 0
M  V30 11443 C 1066.64 -0.479319 2.24132 0
M  V30 11444 C 1067.66 -1.0258 1.26416 0
M  V30 11445 O 1068.84 -0.927943 1.52484 0
M  V30 11446 C 1065.94 -1.67711 2.94493 0
M  V30 11447 C 1065.12 -1.2578 4.18925 0
M  V30 11448 C 1064.18 -2.3204 4.72275 0
M  V30 11449 O 1063.2 -1.93402 5.35336 0
M  V30 11450 N 1064.4 -3.63967 4.52226 0
M  V30 11451 H 1067.17 0.132777 2.99406 0
M  V30 11452 H 1064.73 0.216807 1.60442 0
M  V30 11453 H 1066.72 -2.38323 3.27084 0
M  V30 11454 H 1065.29 -2.19552 2.22521 0
M  V30 11455 H 1064.51 -0.380528 3.92359 0
M  V30 11456 H 1065.8 -0.954329 4.9977 0
M  V30 11457 H 1065.2 -3.98119 4.01892 0
M  V30 11458 H 1063.76 -4.30611 4.89303 0
M  V30 11459 N 1067.19 -1.57141 0.120249 0
M  V30 11460 C 1068.1 -2.18925 -0.843155 0
M  V30 11461 C 1069.11 -1.16575 -1.29175 0
M  V30 11462 O 1070.29 -1.4905 -1.35448 0
M  V30 11463 C 1067.36 -2.7775 -2.075 0
M  V30 11464 C 1066.42 -3.95139 -1.6782 0
M  V30 11465 C 1065.65 -4.51149 -2.85132 0
M  V30 11466 O 1065.87 -4.06056 -4.00593 0
M  V30 11467 O 1064.81 -5.41815 -2.62145 0
M  V30 11468 H 1068.63 -3.01707 -0.347357 0
M  V30 11469 H 1066.22 -1.49028 -0.105427 0
M  V30 11470 H 1068.1 -3.15243 -2.79643 0
M  V30 11471 H 1066.77 -1.97998 -2.56083 0
M  V30 11472 H 1065.68 -3.62412 -0.927807 0
M  V30 11473 H 1067.01 -4.7633 -1.23977 0
M  V30 11474 N 1068.67 0.153526 -1.5685 0
M  V30 11475 C 1069.58 1.20932 -2.01029 0
M  V30 11476 C 1070.59 1.47401 -0.924598 0
M  V30 11477 O 1071.77 1.592 -1.23359 0
M  V30 11478 C 1068.83 2.52438 -2.37647 0
M  V30 11479 C 1067.89 2.33673 -3.60132 0
M  V30 11480 C 1067.13 3.58909 -3.94994 0
M  V30 11481 O 1067.35 4.64823 -3.30599 0
M  V30 11482 O 1066.28 3.5196 -4.8827 0
M  V30 11483 H 1070.11 0.864273 -2.91143 0
M  V30 11484 H 1067.7 0.361755 -1.44954 0
M  V30 11485 H 1069.58 3.29981 -2.62088 0
M  V30 11486 H 1068.25 2.86486 -1.5069 0
M  V30 11487 H 1067.16 1.54102 -3.40886 0
M  V30 11488 H 1068.49 2.04544 -4.47686 0
M  V30 11489 N 1070.14 1.51827 0.422667 0
M  V30 11490 C 1071.39 1.6522 1.17084 0
M  V30 11491 C 1071.72 0.375508 1.90841 0
M  V30 11492 O 1070.97 -0.641029 1.84903 0
M  V30 11493 C 1071.27 2.81572 2.20119 0
M  V30 11494 C 1070.94 4.20303 1.63268 0
M  V30 11495 C 1069.6 4.5804 1.47488 0
M  V30 11496 C 1071.95 5.06812 1.21618 0
M  V30 11497 C 1069.28 5.79979 0.885531 0
M  V30 11498 C 1071.63 6.29343 0.641071 0
M  V30 11499 C 1070.3 6.65841 0.470286 0
M  V30 11500 H 1069.57 0.604581 0.428442 0
M  V30 11501 H 1072.21 1.85896 0.459874 0
M  V30 11502 H 1070.52 2.55175 2.97309 0
M  V30 11503 H 1072.22 2.89132 2.77856 0
M  V30 11504 H 1068.81 3.90557 1.76531 0
M  V30 11505 H 1072.99 4.78251 1.32624 0
M  V30 11506 H 1068.25 6.06892 0.741105 0
M  V30 11507 H 1072.42 6.9571 0.309888 0
M  V30 11508 H 1070.05 7.60199 0.0115038 0
M  V30 11509 N 1071.62 -0.679052 1.4222 0
M  V30 11510 C 1072.57 -1.79269 1.45366 0
M  V30 11511 C 1073.54 -1.63255 0.306089 0
M  V30 11512 O 1074.72 -1.8387 0.509548 0
M  V30 11513 C 1071.86 -3.17272 1.35766 0
M  V30 11514 C 1070.98 -3.44603 2.60525 0
M  V30 11515 C 1070.11 -4.7231 2.43098 0
M  V30 11516 C 1069.15 -4.92661 3.63251 0
M  V30 11517 N 1068.29 -6.11606 3.44794 0
M  V30 11518 H 1073.13 -1.75916 2.40536 0
M  V30 11519 H 1070.67 -0.858836 1.19425 0
M  V30 11520 H 1072.62 -3.97015 1.282 0
M  V30 11521 H 1071.25 -3.1976 0.441939 0
M  V30 11522 H 1070.31 -2.59144 2.78475 0
M  V30 11523 H 1071.62 -3.55536 3.49851 0
M  V30 11524 H 1070.77 -5.60136 2.33093 0
M  V30 11525 H 1069.51 -4.63652 1.51255 0
M  V30 11526 H 1068.52 -4.03278 3.73693 0
M  V30 11527 H 1069.74 -5.03167 4.5607 0
M  V30 11528 H 1067.69 -6.04129 2.55663 0
M  V30 11529 H 1067.6 -6.23381 4.27705 0
M  V30 11530 H 1068.87 -7.02122 3.38592 0
M  V30 11531 N 1073.1 -1.28322 -0.914942 0
M  V30 11532 C 1074.35 -1.15179 -1.66067 0
M  V30 11533 C 1074.67 0.300279 -1.92674 0
M  V30 11534 O 1073.94 1.20821 -1.54205 0
M  V30 11535 H 1072.52 -0.423264 -0.615513 0
M  V30 11536 H 1075.18 -1.61034 -1.09791 0
M  V30 11537 H 1074.28 -1.69048 -2.62353 0
M  V30 11538 N 1074.58 1.12322 -1.10551 0
M  V30 11539 C 1075.83 1.83858 -0.848674 0
M  V30 11540 C 1076.15 1.84159 0.62575 0
M  V30 11541 O 1075.41 1.28341 1.4774 0
M  V30 11542 C 1075.71 3.31177 -1.34375 0
M  V30 11543 C 1075.37 3.51046 -2.8298 0
M  V30 11544 C 1074.04 3.56177 -3.23561 0
M  V30 11545 C 1076.39 3.58061 -3.78737 0
M  V30 11546 C 1073.72 3.65868 -4.58647 0
M  V30 11547 C 1076.07 3.69283 -5.13627 0
M  V30 11548 C 1074.73 3.7267 -5.53781 0
M  V30 11549 H 1074 0.672784 -0.310552 0
M  V30 11550 H 1076.65 1.3253 -1.38232 0
M  V30 11551 H 1074.95 3.84937 -0.730144 0
M  V30 11552 H 1076.65 3.84998 -1.12148 0
M  V30 11553 H 1073.24 3.47716 -2.50582 0
M  V30 11554 H 1077.42 3.53366 -3.48491 0
M  V30 11555 H 1072.68 3.66763 -4.89178 0
M  V30 11556 H 1076.85 3.73654 -5.8767 0
M  V30 11557 H 1074.48 3.79932 -6.58449 0
M  V30 11558 N 1076.06 0.894434 1.2976 0
M  V30 11559 C 1077.28 0.5322 2.00455 0
M  V30 11560 C 1077.71 -0.874427 1.66539 0
M  V30 11561 O 1077.06 -1.58113 0.887129 0
M  V30 11562 C 1077.11 0.725264 3.53231 0
M  V30 11563 O 1076.22 -0.224612 4.11788 0
M  V30 11564 H 1075.56 0.208562 0.630395 0
M  V30 11565 H 1078.09 1.20458 1.65382 0
M  V30 11566 H 1078.1 0.627889 4.0314 0
M  V30 11567 H 1076.77 1.75079 3.77253 0
M  V30 11568 H 1075.35 -0.0801361 3.72814 0
M  V30 11569 N 1077.53 -1.43282 0.656365 0
M  V30 11570 C 1078.76 -2.05826 0.178619 0
M  V30 11571 C 1079.17 -1.493 -1.16216 0
M  V30 11572 O 1078.52 -0.620163 -1.72915 0
M  V30 11573 C 1078.58 -3.59496 0.0164101 0
M  V30 11574 C 1078.24 -4.38621 1.28298 0
M  V30 11575 C 1079.24 -4.70477 2.21241 0
M  V30 11576 C 1076.92 -4.78577 1.52544 0
M  V30 11577 C 1078.92 -5.412 3.36721 0
M  V30 11578 C 1076.6 -5.49044 2.68316 0
M  V30 11579 C 1077.6 -5.80279 3.6023 0
M  V30 11580 O 1077.29 -6.49306 4.7398 0
M  V30 11581 H 1077.02 -0.670158 0.0886814 0
M  V30 11582 H 1079.58 -1.84722 0.89816 0
M  V30 11583 H 1077.81 -3.79188 -0.758532 0
M  V30 11584 H 1079.5 -4.03731 -0.419096 0
M  V30 11585 H 1080.26 -4.40125 2.03753 0
M  V30 11586 H 1076.14 -4.5367 0.818816 0
M  V30 11587 H 1079.68 -5.65497 4.08483 0
M  V30 11588 H 1075.58 -5.78813 2.85738 0
M  V30 11589 H 1076.35 -6.67789 4.73286 0
M  V30 11590 N 1079.01 -0.398486 -1.52479 0
M  V30 11591 C 1080.26 0.180752 -2.01692 0
M  V30 11592 C 1080.59 1.46044 -1.28457 0
M  V30 11593 O 1079.84 1.92051 -0.376162 0
M  V30 11594 C 1080.14 0.485909 -3.54081 0
M  V30 11595 C 1079.81 -0.703321 -4.45381 0
M  V30 11596 C 1078.47 -1.02955 -4.70057 0
M  V30 11597 C 1080.82 -1.49848 -4.99194 0
M  V30 11598 C 1078.15 -2.15231 -5.45795 0
M  V30 11599 C 1080.5 -2.61192 -5.76161 0
M  V30 11600 C 1079.17 -2.94313 -5.99113 0
M  V30 11601 H 1078.44 0.0661417 -0.738042 0
M  V30 11602 H 1081.08 -0.53772 -1.83796 0
M  V30 11603 H 1079.39 1.28582 -3.701 0
M  V30 11604 H 1081.09 0.946872 -3.89661 0
M  V30 11605 H 1077.68 -0.439062 -4.26345 0
M  V30 11606 H 1081.86 -1.25968 -4.80048 0
M  V30 11607 H 1077.12 -2.41252 -5.61789 0
M  V30 11608 H 1081.29 -3.23201 -6.16858 0
M  V30 11609 H 1078.92 -3.81431 -6.57583 0
M  V30 11610 N 1080.49 1.57075 -0.12858 0
M  V30 11611 C 1081.74 1.95134 0.526046 0
M  V30 11612 C 1082.06 1.01337 1.66601 0
M  V30 11613 O 1081.33 0.0714361 1.9577 0
M  V30 11614 H 1079.91 0.720468 0.19732 0
M  V30 11615 H 1082.57 1.93874 -0.199767 0
M  V30 11616 H 1081.67 2.98406 0.914332 0
M  V30 11617 N 1081.97 -0.145205 1.5693 0
M  V30 11618 C 1082.88 -1.19864 2.01667 0
M  V30 11619 C 1083.9 -1.46909 0.932402 0
M  V30 11620 O 1085.07 -1.58543 1.24201 0
M  V30 11621 C 1082.14 -2.51174 2.38982 0
M  V30 11622 C 1081.2 -2.3176 3.61366 0
M  V30 11623 C 1080.43 -3.56809 3.96892 0
M  V30 11624 O 1080.65 -4.63063 3.33059 0
M  V30 11625 O 1079.59 -3.49366 4.9013 0
M  V30 11626 H 1083.41 -0.848821 2.91597 0
M  V30 11627 H 1081 -0.354063 1.45144 0
M  V30 11628 H 1082.88 -3.28587 2.63835 0
M  V30 11629 H 1081.56 -2.85683 1.52207 0
M  V30 11630 H 1080.46 -1.52293 3.41698 0
M  V30 11631 H 1081.8 -2.02167 4.48764 0
M  V30 11632 N 1083.45 -1.52049 -0.414609 0
M  V30 11633 C 1084.72 -1.56397 -1.17471 0
M  V30 11634 C 1085.1 -0.34171 -2.08316 0
M  V30 11635 O 1084.45 0.6718 -2.18401 0
M  V30 11636 C 1084.66 -2.88983 -1.95678 0
M  V30 11637 C 1086.01 -3.41781 -2.51935 0
M  V30 11638 O 1087.03 -2.90686 -2.05865 0
M  V30 11639 O 1085.89 -4.30989 -3.36022 0
M  V30 11640 H 1082.99 -0.62974 -0.536056 0
M  V30 11641 H 1085.53 -1.64374 -0.421834 0
M  V30 11642 H 1084.31 -3.69392 -1.29094 0
M  V30 11643 H 1083.93 -2.84274 -2.77983 0
M  V30 11644 N 1084.93 0.6715 -1.42579 0
M  V30 11645 C 1085.86 1.79693 -1.49107 0
M  V30 11646 C 1086.84 1.66516 -0.347338 0
M  V30 11647 O 1088.02 1.85887 -0.562094 0
M  V30 11648 C 1085.15 3.1801 -1.39596 0
M  V30 11649 C 1084.11 3.45926 -2.5203 0
M  V30 11650 C 1083.43 4.83852 -2.27577 0
M  V30 11651 C 1084.73 3.4249 -3.94333 0
M  V30 11652 H 1086.43 1.74486 -2.433 0
M  V30 11653 H 1083.97 0.838042 -1.17102 0
M  V30 11654 H 1085.92 3.96478 -1.42771 0
M  V30 11655 H 1084.65 3.23901 -0.418989 0
M  V30 11656 H 1083.31 2.6982 -2.48178 0
M  V30 11657 H 1082.96 4.86398 -1.28165 0
M  V30 11658 H 1082.66 5.03493 -3.02934 0
M  V30 11659 H 1084.18 5.646 -2.32506 0
M  V30 11660 H 1085.59 4.10922 -3.9977 0
M  V30 11661 H 1083.99 3.73666 -4.69568 0
M  V30 11662 H 1085.06 2.41002 -4.20768 0
M  V30 11663 N 1086.4 1.28806 0.908124 0
M  V30 11664 C 1087.34 1.07538 2.01273 0
M  V30 11665 C 1088.31 -0.0102454 1.62597 0
M  V30 11666 O 1089.5 0.138797 1.87988 0
M  V30 11667 C 1086.63 0.635337 3.32688 0
M  V30 11668 C 1085.67 1.71843 3.90349 0
M  V30 11669 S 1086.5 3.31571 4.20501 0
M  V30 11670 C 1087.66 2.89416 5.54968 0
M  V30 11671 H 1087.89 2.01058 2.19005 0
M  V30 11672 H 1085.43 1.12857 1.05369 0
M  V30 11673 H 1087.38 0.388159 4.08661 0
M  V30 11674 H 1086.05 -0.280122 3.12848 0
M  V30 11675 H 1085.24 1.36228 4.8524 0
M  V30 11676 H 1084.84 1.91869 3.21033 0
M  V30 11677 H 1087.13 2.35936 6.35091 0
M  V30 11678 H 1088.08 3.83126 5.955 0
M  V30 11679 H 1088.48 2.27962 5.16424 0
M  V30 11680 N 1087.88 -1.11734 1.11145 0
M  V30 11681 C 1089.29 -1.64928 0.874959 0
M  V30 11682 C 1089.64 -1.87012 -0.593375 0
M  V30 11683 O 1088.77 -1.60206 -1.45475 0
M  V30 11684 C 1089.36 -2.99608 1.58178 0
M  V30 11685 C 1087.92 -3.49723 1.39179 0
M  V30 11686 C 1087.07 -2.24595 1.62642 0
M  V30 11687 H 1090.02 -0.954154 1.26813 0
M  V30 11688 H 1090.04 -3.66434 1.02501 0
M  V30 11689 H 1089.55 -2.83504 2.65042 0
M  V30 11690 H 1087.65 -3.70998 0.345111 0
M  V30 11691 H 1087.77 -4.28711 2.13878 0
M  V30 11692 H 1086.13 -2.32067 1.04961 0
M  V30 11693 H 1086.91 -2.11036 2.70774 0
M  V30 11694 O 1089.4 -1.03367 -1.24087 0
M  V30 11695 H 1090.09 -0.701445 -1.80553 0
M  V30 END ATOM
M  V30 BEGIN BOND
M  V30 END BOND
M  V30 END CTAB
M  END
$$$$
