drugbank_target|Q08751 Neopullulanase 2 (DB02237; DB02379; DB03995)
 OpenBabel12092119543D

  0  0  0     0  0            999 V3000
M  V30 BEGIN CTAB
M  V30 COUNTS 9383 9513 0 0 0
M  V30 BEGIN ATOM
M  V30 1 H -0.908 1.98254 -0.117106 0
M  V30 2 N 0 1.576 0 0
M  V30 3 C 0.933 2.03868 1.02534 0
M  V30 4 C 1.911 0.928543 1.3348 0
M  V30 5 O 3.095 1.19667 1.45644 0
M  V30 6 C 0.222 2.43627 2.35294 0
M  V30 7 C -0.732 3.65373 2.2001 0
M  V30 8 S 0.101 5.13292 1.52614 0
M  V30 9 C 1.257 5.56322 2.86805 0
M  V30 10 H 1.49 2.90518 0.631377 0
M  V30 11 H -0.977 1.52953 0.210867 0
M  V30 12 H 0.981 2.67203 3.11629 0
M  V30 13 H -0.358 1.57376 2.7183 0
M  V30 14 H -1.165 3.90944 3.18086 0
M  V30 15 H -1.563 3.418 1.51819 0
M  V30 16 H 0.729 5.58782 3.83104 0
M  V30 17 H 1.672 6.56266 2.65933 0
M  V30 18 H 2.08 4.83886 2.90714 0
M  V30 19 N 1.4781 -0.272755 1.55222 0
M  V30 20 C 2.4081 -1.34136 1.91127 0
M  V30 21 C 3.3891 -1.51513 0.773168 0
M  V30 22 O 4.5741 -1.64552 1.03132 0
M  V30 23 C 1.7041 -2.70083 2.1834 0
M  V30 24 C 0.6581 -2.67437 3.34158 0
M  V30 25 C -0.0159 -4.06938 3.46851 0
M  V30 26 C 1.2841 -2.26686 4.70543 0
M  V30 27 H 2.9781 -1.04333 2.80633 0
M  V30 28 H 0.5241 -0.500454 1.35024 0
M  V30 29 H 2.4771 -3.44952 2.42046 0
M  V30 30 H 1.2011 -3.01469 1.25634 0
M  V30 31 H -0.1399 -1.95026 3.1042 0
M  V30 32 H -0.4919 -4.35547 2.51611 0
M  V30 33 H -0.7919 -4.06062 4.2472 0
M  V30 34 H 0.7321 -4.83545 3.72849 0
M  V30 35 H 2.1461 -2.91277 4.93792 0
M  V30 36 H 0.5431 -2.36971 5.5133 0
M  V30 37 H 1.6131 -1.21818 4.69349 0
M  V30 38 N 2.9562 -1.48159 -0.537278 0
M  V30 39 C 3.8862 -1.65029 -1.6519 0
M  V30 40 C 4.8672 -0.499281 -1.62607 0
M  V30 41 O 6.0522 -0.730972 -1.79918 0
M  V30 42 C 3.1822 -1.68303 -3.03795 0
M  V30 43 C 2.1362 -2.8283 -3.21234 0
M  V30 44 C 1.4622 -2.71189 -4.60826 0
M  V30 45 C 2.7622 -4.24211 -3.04701 0
M  V30 46 H 4.4562 -2.58341 -1.51328 0
M  V30 47 H 2.0022 -1.24325 -0.726585 0
M  V30 48 H 3.9552 -1.78693 -3.81637 0
M  V30 49 H 2.6792 -0.715635 -3.18663 0
M  V30 50 H 1.3382 -2.71983 -2.45807 0
M  V30 51 H 0.9862 -1.72435 -4.7252 0
M  V30 52 H 0.6862 -3.48035 -4.7344 0
M  V30 53 H 2.2102 -2.83537 -5.40777 0
M  V30 54 H 3.6242 -4.3593 -3.72341 0
M  V30 55 H 2.0212 -5.01998 -3.28813 0
M  V30 56 H 3.0912 -4.41184 -2.01209 0
M  V30 57 N 4.4343 0.785586 -1.36625 0
M  V30 58 C 5.3443 1.92964 -1.33425 0
M  V30 59 C 6.3603 1.72394 -0.235851 0
M  V30 60 O 7.5363 1.95866 -0.468878 0
M  V30 61 C 4.6013 3.27884 -1.12662 0
M  V30 62 C 3.6623 3.61204 -2.32013 0
M  V30 63 C 2.8953 4.89687 -2.12231 0
M  V30 64 O 3.1183 5.59704 -1.09945 0
M  V30 65 O 2.0523 5.21752 -3.00098 0
M  V30 66 H 5.8783 1.98613 -2.29753 0
M  V30 67 H 3.4633 0.926384 -1.17211 0
M  V30 68 H 5.3453 4.08614 -1.03016 0
M  V30 69 H 4.0203 3.23118 -0.193991 0
M  V30 70 H 2.9273 2.80765 -2.47228 0
M  V30 71 H 4.2603 3.70698 -3.23796 0
M  V30 72 N 5.9124 1.20967 1.01018 0
M  V30 73 C 6.8754 0.965918 2.07853 0
M  V30 74 C 7.8754 -0.0610545 1.60684 0
M  V30 75 O 9.0654 0.175681 1.73312 0
M  V30 76 C 6.1974 0.455513 3.37843 0
M  V30 77 H 7.3904 1.91365 2.3091 0
M  V30 78 H 4.9434 1.02594 1.17916 0
M  V30 79 H 5.6784 -0.497381 3.20463 0
M  V30 80 H 5.4634 1.19622 3.73407 0
M  V30 81 H 6.9534 0.304667 4.16487 0
M  V30 82 N 7.3905 -1.2043 1.01659 0
M  V30 83 C 8.6395 -1.89118 0.701237 0
M  V30 84 C 8.9525 -1.79705 -0.772358 0
M  V30 85 O 10.1585 -2.43528 -1.20026 0
M  V30 86 C 8.6145 -3.39168 1.20388 0
M  V30 87 C 8.2225 -3.57166 2.70438 0
M  V30 88 C 9.9665 -4.1341 0.963953 0
M  V30 89 C 7.8735 -5.01042 3.14183 0
M  V30 90 H 6.8035 -0.708267 0.2586 0
M  V30 91 H 9.4545 -1.36239 1.22927 0
M  V30 92 H 7.8365 -3.91369 0.603824 0
M  V30 93 H 9.0105 -3.15351 3.35992 0
M  V30 94 H 7.3255 -2.96294 2.92572 0
M  V30 95 H 9.9225 -5.19491 1.26621 0
M  V30 96 H 10.2655 -4.16181 -0.099578 0
M  V30 97 H 10.7985 -3.67309 1.52738 0
M  V30 98 H 7.5375 -5.03426 4.19812 0
M  V30 99 H 7.0575 -5.43668 2.53348 0
M  V30 100 H 8.7365 -5.69623 3.0682 0
M  V30 101 N 8.8686 -0.792821 -1.36206 0
M  V30 102 C 10.1156 -0.366786 -1.99151 0
M  V30 103 C 10.4436 1.06243 -1.62919 0
M  V30 104 O 9.6986 1.74927 -0.877442 0
M  V30 105 C 9.9976 -0.481501 -3.54142 0
M  V30 106 C 9.6636 -1.87202 -4.10203 0
M  V30 107 C 8.3256 -2.25248 -4.25226 0
M  V30 108 C 10.6776 -2.78237 -4.40719 0
M  V30 109 C 8.0056 -3.53723 -4.68078 0
M  V30 110 C 10.3576 -4.06144 -4.85005 0
M  V30 111 C 9.0216 -4.44207 -4.98234 0
M  V30 112 H 8.2916 -0.134217 -0.728743 0
M  V30 113 H 10.9386 -1.01094 -1.62641 0
M  V30 114 H 9.2436 0.246146 -3.91026 0
M  V30 115 H 10.9406 -0.132844 -4.0078 0
M  V30 116 H 7.5306 -1.56639 -3.98951 0
M  V30 117 H 11.7146 -2.50097 -4.28679 0
M  V30 118 H 6.9706 -3.8308 -4.76508 0
M  V30 119 H 11.1446 -4.76796 -5.07581 0
M  V30 120 H 8.7716 -5.43814 -5.31197 0
M  V30 121 N 10.3467 1.47872 -0.545128 0
M  V30 122 C 11.2967 2.26842 0.229456 0
M  V30 123 C 12.2807 1.33626 0.896267 0
M  V30 124 O 13.4727 1.58063 0.79657 0
M  V30 125 C 10.6017 3.19089 1.26638 0
M  V30 126 C 9.6877 4.19783 0.603598 0
M  V30 127 N 10.0787 5.0479 -0.319405 0
M  V30 128 C 8.3767 4.3765 0.858989 0
M  V30 129 C 9.0777 5.77433 -0.703241 0
M  V30 130 N 8.0537 5.43566 -0.0608309 0
M  V30 131 H 11.8557 2.89947 -0.480391 0
M  V30 132 H 9.3697 1.58263 -0.364209 0
M  V30 133 H 11.3667 3.74337 1.83515 0
M  V30 134 H 10.0267 2.5754 1.97745 0
M  V30 135 H 11.0377 5.13244 -0.692889 0
M  V30 136 H 7.7147 3.87281 1.55948 0
M  V30 137 H 9.1047 6.55824 -1.46098 0
M  V30 138 N 11.8248 0.280983 1.55075 0
M  V30 139 C 12.7348 -0.61388 2.26426 0
M  V30 140 C 13.7508 -1.16521 1.29224 0
M  V30 141 O 14.9268 -1.19426 1.62171 0
M  V30 142 C 11.9918 -1.7788 2.9759 0
M  V30 143 C 11.0528 -1.26355 4.10284 0
M  V30 144 C 10.2858 -2.37295 4.78045 0
M  V30 145 O 10.5088 -3.56777 4.45047 0
M  V30 146 O 9.4428 -2.05119 5.65871 0
M  V30 147 H 13.2688 -0.0356932 3.03679 0
M  V30 148 H 10.8538 0.0481686 1.49322 0
M  V30 149 H 12.7358 -2.45791 3.42293 0
M  V30 150 H 11.4108 -2.34397 2.23249 0
M  V30 151 H 10.3178 -0.550735 3.70024 0
M  V30 152 H 11.6508 -0.744065 4.86543 0
M  V30 153 N 13.3029 -1.57598 0.00835791 0
M  V30 154 C 14.2659 -2.07884 -0.965242 0
M  V30 155 C 15.2659 -0.989825 -1.26725 0
M  V30 156 O 16.4559 -1.25218 -1.21104 0
M  V30 157 C 13.5879 -2.52731 -2.28779 0
M  V30 158 H 14.7809 -2.95178 -0.530112 0
M  V30 159 H 12.3339 -1.54458 -0.239283 0
M  V30 160 H 13.0689 -1.68705 -2.76964 0
M  V30 161 H 12.8539 -3.32272 -2.08177 0
M  V30 162 H 14.3439 -2.91933 -2.98605 0
M  V30 163 N 14.781 0.264519 -1.55364 0
M  V30 164 C 15.728 1.32717 -1.88825 0
M  V30 165 C 16.698 1.48675 -0.740605 0
M  V30 166 O 17.883 1.62945 -0.992657 0
M  V30 167 C 15.023 2.68089 -2.17307 0
M  V30 168 C 14.136 2.60284 -3.44785 0
M  V30 169 C 13.271 3.87892 -3.62924 0
M  V30 170 C 12.31 3.74631 -4.84064 0
M  V30 171 N 11.447 4.94092 -4.98816 0
M  V30 172 H 16.287 1.03481 -2.79456 0
M  V30 173 H 13.824 0.499757 -1.3835 0
M  V30 174 H 15.782 3.46864 -2.31821 0
M  V30 175 H 14.412 2.95509 -1.299 0
M  V30 176 H 13.464 1.73173 -3.38697 0
M  V30 177 H 14.776 2.46388 -4.33698 0
M  V30 178 H 13.93 4.75109 -3.77302 0
M  V30 179 H 12.669 4.04664 -2.7221 0
M  V30 180 H 11.674 2.85797 -4.69681 0
M  V30 181 H 12.899 3.5937 -5.76221 0
M  V30 182 H 10.845 5.11259 -4.11036 0
M  V30 183 H 10.762 4.8276 -5.81789 0
M  V30 184 H 12.03 5.82857 -5.17588 0
M  V30 185 N 16.2591 1.48442 0.529413 0
M  V30 186 C 17.5071 1.56179 1.28267 0
M  V30 187 C 17.8281 0.237721 1.93546 0
M  V30 188 O 17.0981 -0.740779 1.81354 0
M  V30 189 H 15.6781 0.575367 0.476405 0
M  V30 190 H 18.3401 1.84909 0.61602 0
M  V30 191 H 17.4361 2.34312 2.06165 0
M  V30 192 N 17.7372 -0.778329 1.37039 0
M  V30 193 C 18.9622 -1.57248 1.35233 0
M  V30 194 C 19.3872 -1.87999 -0.0615568 0
M  V30 195 O 18.7452 -1.48734 -1.03672 0
M  V30 196 C 18.7932 -2.86353 2.19167 0
M  V30 197 O 17.8972 -3.80442 1.59178 0
M  V30 198 H 17.2382 -0.476569 0.462362 0
M  V30 199 H 19.7682 -0.963853 1.80474 0
M  V30 200 H 19.7782 -3.35519 2.32145 0
M  V30 201 H 18.4532 -2.63299 3.21942 0
M  V30 202 H 17.0302 -3.39067 1.55203 0
M  V30 203 N 19.2153 -1.21501 -1.00376 0
M  V30 204 C 20.4453 -1.05746 -1.77486 0
M  V30 205 C 20.8533 0.395655 -1.85017 0
M  V30 206 O 20.1963 1.28626 -1.31152 0
M  V30 207 C 20.2583 -1.58092 -3.22873 0
M  V30 208 C 19.9223 -3.06568 -3.38917 0
M  V30 209 C 20.9193 -4.04106 -3.271 0
M  V30 210 C 18.6043 -3.45799 -3.64319 0
M  V30 211 C 20.5983 -5.38862 -3.40451 0
M  V30 212 C 18.2853 -4.80707 -3.77311 0
M  V30 213 C 19.2833 -5.77047 -3.65384 0
M  V30 214 O 18.9713 -7.09507 -3.77961 0
M  V30 215 H 18.7033 -0.371778 -0.564586 0
M  V30 216 H 21.2573 -1.61319 -1.27143 0
M  V30 217 H 19.4873 -0.969163 -3.74358 0
M  V30 218 H 21.1763 -1.38162 -3.81662 0
M  V30 219 H 21.9423 -3.75141 -3.07399 0
M  V30 220 H 17.8213 -2.71344 -3.72684 0
M  V30 221 H 21.3653 -6.14041 -3.31058 0
M  V30 222 H 17.2623 -5.09357 -3.96517 0
M  V30 223 H 18.0303 -7.16935 -3.94901 0
M  V30 224 N 20.6934 1.19889 -1.02296 0
M  V30 225 C 21.6564 2.21116 -0.603351 0
M  V30 226 C 22.6564 1.5738 0.329884 0
M  V30 227 O 23.8464 1.73802 0.117702 0
M  V30 228 C 20.9784 3.40696 0.117992 0
M  V30 229 H 22.1714 2.59754 -1.49893 0
M  V30 230 H 19.7244 1.33463 -0.813468 0
M  V30 231 H 20.4594 3.07569 1.0282 0
M  V30 232 H 20.2444 3.88188 -0.552511 0
M  V30 233 H 21.7344 4.15692 0.398696 0
M  V30 234 N 22.1715 0.800033 1.35784 0
M  V30 235 C 23.4015 0.389041 2.02904 0
M  V30 236 C 23.8095 -1.0027 1.60445 0
M  V30 237 O 23.1525 -1.65633 0.794453 0
M  V30 238 C 23.2145 0.385495 3.57427 0
M  V30 239 C 22.8785 1.72662 4.23127 0
M  V30 240 C 23.8755 2.68385 4.4527 0
M  V30 241 C 21.5605 2.00883 4.60381 0
M  V30 242 C 23.5545 3.90517 5.03761 0
M  V30 243 C 21.2415 3.2328 5.18588 0
M  V30 244 C 22.2395 4.17915 5.40218 0
M  V30 245 O 21.9275 5.38153 5.97199 0
M  V30 246 H 21.6595 0.157032 0.657508 0
M  V30 247 H 24.2135 1.08311 1.74522 0
M  V30 248 H 22.4435 -0.365128 3.84972 0
M  V30 249 H 24.1325 -0.00228296 4.059 0
M  V30 250 H 24.8985 2.47872 4.16874 0
M  V30 251 H 20.7775 1.28037 4.42863 0
M  V30 252 H 24.3215 4.64395 5.2056 0
M  V30 253 H 20.2185 3.43667 5.4641 0
M  V30 254 H 20.9865 5.3936 6.15656 0
M  V30 255 N 23.6496 -1.47581 0.552962 0
M  V30 256 C 25.0606 -1.86324 0.118463 0
M  V30 257 C 25.4116 -1.46006 -1.3106 0
M  V30 258 O 24.5366 -0.861182 -1.98526 0
M  V30 259 C 25.1316 -3.3816 0.20821 0
M  V30 260 C 23.6906 -3.7601 -0.171226 0
M  V30 261 C 22.8376 -2.71634 0.557686 0
M  V30 262 H 25.7886 -1.39159 0.762928 0
M  V30 263 H 25.8096 -3.76141 -0.574278 0
M  V30 264 H 25.3216 -3.67473 1.24841 0
M  V30 265 H 23.4226 -3.52313 -1.21269 0
M  V30 266 H 23.5356 -4.78745 0.184379 0
M  V30 267 H 21.8996 -2.547 0.00125792 0
M  V30 268 H 22.6826 -3.0379 1.59896 0
M  V30 269 N 25.1277 -0.289203 -1.54924 0
M  V30 270 C 26.3767 0.324231 -1.99077 0
M  V30 271 C 26.6897 1.5591 -1.18117 0
M  V30 272 O 27.8957 2.24637 -1.52481 0
M  V30 273 C 26.3517 0.628209 -3.54375 0
M  V30 274 C 25.9597 -0.587647 -4.44129 0
M  V30 275 C 27.7037 1.20349 -4.07083 0
M  V30 276 C 25.6107 -0.257475 -5.90839 0
M  V30 277 H 24.5407 0.124924 -0.743579 0
M  V30 278 H 27.1917 -0.396063 -1.79175 0
M  V30 279 H 25.5737 1.40778 -3.70132 0
M  V30 280 H 26.7477 -1.36418 -4.40144 0
M  V30 281 H 25.0627 -1.08074 -4.0213 0
M  V30 282 H 27.6597 1.46456 -5.14252 0
M  V30 283 H 28.0027 2.14195 -3.56968 0
M  V30 284 H 28.5357 0.485889 -3.94821 0
M  V30 285 H 25.2747 -1.16419 -6.45079 0
M  V30 286 H 24.7947 0.482018 -5.9786 0
M  V30 287 H 26.4737 0.145238 -6.46837 0
M  V30 288 N 26.6058 1.57591 -0.0167156 0
M  V30 289 C 27.8308 1.9598 0.67872 0
M  V30 290 C 28.2558 0.892546 1.65575 0
M  V30 291 O 27.6138 -0.147772 1.80697 0
M  V30 292 C 27.6618 3.33468 1.37227 0
M  V30 293 O 26.7658 3.28954 2.48722 0
M  V30 294 H 26.1068 0.639339 0.17928 0
M  V30 295 H 28.6368 2.04463 -0.0748802 0
M  V30 296 H 28.6468 3.69417 1.7319 0
M  V30 297 H 27.3218 4.10694 0.656007 0
M  V30 298 H 25.8988 3.04705 2.14963 0
M  V30 299 N 28.0839 -0.256276 1.55502 0
M  V30 300 C 28.9939 -1.33882 1.92647 0
M  V30 301 C 30.0099 -1.53159 0.825727 0
M  V30 302 O 31.1859 -1.66963 1.12629 0
M  V30 303 C 28.2509 -2.6751 2.20543 0
M  V30 304 C 27.3119 -2.56836 3.43997 0
M  V30 305 C 26.5449 -3.84092 3.70553 0
M  V30 306 O 26.7679 -4.85545 2.99336 0
M  V30 307 O 25.7019 -3.83288 4.64084 0
M  V30 308 H 29.5279 -1.05374 2.84833 0
M  V30 309 H 27.1129 -0.456237 1.42263 0
M  V30 310 H 28.9949 -3.46492 2.39835 0
M  V30 311 H 27.6699 -2.9577 1.31536 0
M  V30 312 H 26.5769 -1.76172 3.30021 0
M  V30 313 H 27.9099 -2.33523 4.33275 0
M  V30 314 N 29.562 -1.4872 -0.521534 0
M  V30 315 C 30.79 -1.60843 -1.30142 0
M  V30 316 C 31.205 -0.271897 -1.86832 0
M  V30 317 O 30.562 0.739969 -1.66825 0
M  V30 318 C 30.613 -2.66155 -2.4463 0
M  V30 319 O 30.334 -3.94623 -1.90275 0
M  V30 320 C 31.835 -2.88795 -3.36322 0
M  V30 321 H 29.055 -0.542075 -0.395468 0
M  V30 322 H 31.599 -1.94609 -0.628285 0
M  V30 323 H 29.754 -2.35224 -3.07812 0
M  V30 324 H 30.168 -4.52468 -2.65279 0
M  V30 325 H 31.642 -3.66264 -4.12983 0
M  V30 326 H 32.119 -1.97934 -3.9207 0
M  V30 327 H 32.725 -3.21063 -2.78924 0
M  V30 328 N 31.0401 0.771051 -1.3745 0
M  V30 329 C 31.9721 1.89352 -1.29146 0
M  V30 330 C 32.9851 1.61477 -0.207124 0
M  V30 331 O 34.1741 1.72382 -0.463324 0
M  V30 332 C 31.2741 3.24596 -0.974195 0
M  V30 333 C 30.4471 3.80111 -2.16413 0
M  V30 334 C 29.5061 4.93832 -1.81703 0
M  V30 335 O 28.5321 5.09382 -2.54006 0
M  V30 336 N 29.7341 5.75483 -0.761573 0
M  V30 337 H 32.4991 1.96991 -2.25864 0
M  V30 338 H 30.0601 0.950191 -1.31084 0
M  V30 339 H 32.0521 3.98193 -0.722828 0
M  V30 340 H 30.6221 3.12454 -0.0955527 0
M  V30 341 H 29.8421 2.98284 -2.57721 0
M  V30 342 H 31.1301 4.13932 -2.95867 0
M  V30 343 H 30.5281 5.65469 -0.161609 0
M  V30 344 H 29.0851 6.49302 -0.570064 0
M  V30 345 N 32.5182 1.22032 0.997298 0
M  V30 346 C 33.4482 1.01065 2.10495 0
M  V30 347 C 34.4292 -0.0669542 1.69968 0
M  V30 348 O 35.6142 0.0943987 1.9397 0
M  V30 349 C 32.7442 0.582874 3.42374 0
M  V30 350 C 31.6982 1.60592 3.96729 0
M  V30 351 C 31.0242 1.03412 5.24605 0
M  V30 352 C 32.3242 2.99478 4.27914 0
M  V30 353 H 34.0182 1.93708 2.28292 0
M  V30 354 H 31.5642 0.932761 1.09707 0
M  V30 355 H 33.5172 0.423332 4.19268 0
M  V30 356 H 32.2412 -0.379213 3.24391 0
M  V30 357 H 30.9002 1.75316 3.21963 0
M  V30 358 H 30.5482 0.063518 5.0296 0
M  V30 359 H 30.2482 1.71754 5.61938 0
M  V30 360 H 31.7722 0.886066 6.04137 0
M  V30 361 H 33.1862 2.88153 4.95622 0
M  V30 362 H 31.5832 3.64903 4.76409 0
M  V30 363 H 32.6532 3.49742 3.3587 0
M  V30 364 N 33.9963 -1.19345 1.0293 0
M  V30 365 C 35.4123 -1.41069 0.746446 0
M  V30 366 C 35.6123 -1.90078 -0.668776 0
M  V30 367 O 34.6683 -2.0778 -1.4347 0
M  V30 368 C 35.9813 -2.42141 1.78292 0
M  V30 369 C 37.5293 -2.55887 1.80252 0
M  V30 370 C 38.0043 -3.60214 2.8286 0
M  V30 371 N 39.4953 -3.67711 2.81679 0
M  V30 372 C 40.2303 -4.48128 3.57727 0
M  V30 373 N 39.7263 -5.32248 4.43491 0
M  V30 374 N 41.5193 -4.42782 3.46267 0
M  V30 375 H 33.6703 -0.858536 1.94275 0
M  V30 376 H 35.9333 -0.439541 0.839945 0
M  V30 377 H 35.6393 -2.13155 2.79746 0
M  V30 378 H 35.5133 -3.41323 1.60557 0
M  V30 379 H 37.9003 -2.84196 0.794757 0
M  V30 380 H 37.9813 -1.56858 2.02062 0
M  V30 381 H 37.6253 -3.32647 3.83807 0
M  V30 382 H 37.5553 -4.58895 2.58307 0
M  V30 383 H 40.0463 -3.07634 2.19476 0
M  V30 384 H 40.3593 -5.90729 4.98256 0
M  V30 385 H 38.7043 -5.31707 4.47564 0
M  V30 386 H 41.8953 -3.76107 2.78677 0
M  V30 387 H 42.0683 -5.05215 4.05785 0
M  V30 388 N 35.4744 -0.807222 -1.35358 0
M  V30 389 C 36.7204 -0.388463 -1.99045 0
M  V30 390 C 37.0534 1.04184 -1.63888 0
M  V30 391 O 36.3284 1.72292 -0.902535 0
M  V30 392 C 36.6114 -0.572783 -3.55515 0
M  V30 393 C 36.4644 -2.04807 -4.00468 0
M  V30 394 C 37.7834 0.00114064 -4.401 0
M  V30 395 H 34.9024 -0.142619 -0.723069 0
M  V30 396 H 37.5444 -1.01687 -1.60498 0
M  V30 397 H 35.6944 -0.0378425 -3.88482 0
M  V30 398 H 37.3664 -2.64544 -3.77908 0
M  V30 399 H 35.6094 -2.54427 -3.51353 0
M  V30 400 H 36.2804 -2.12792 -5.09337 0
M  V30 401 H 38.7564 -0.455716 -4.13597 0
M  V30 402 H 37.6324 -0.157737 -5.48673 0
M  V30 403 H 37.8934 1.09488 -4.28328 0
M  V30 404 N 36.9525 1.47285 -0.560781 0
M  V30 405 C 38.3685 1.58065 -0.22081 0
M  V30 406 C 38.5685 1.55892 1.27671 0
M  V30 407 O 37.6245 1.46422 2.0571 0
M  V30 408 C 38.9375 2.88418 -0.850625 0
M  V30 409 C 40.4855 3.02009 -0.822184 0
M  V30 410 C 40.9605 4.35066 -1.43113 0
M  V30 411 N 42.4515 4.41711 -1.39448 0
M  V30 412 C 43.1865 5.43237 -1.83525 0
M  V30 413 N 42.6825 6.51555 -2.35474 0
M  V30 414 N 44.4755 5.34304 -1.74574 0
M  V30 415 H 36.6265 1.46941 -1.53369 0
M  V30 416 H 38.8895 0.699558 -0.639783 0
M  V30 417 H 38.5955 2.95755 -1.9032 0
M  V30 418 H 38.4695 3.75612 -0.345773 0
M  V30 419 H 40.8565 2.94266 0.221714 0
M  V30 420 H 40.9375 2.16347 -1.36483 0
M  V30 421 H 40.5815 4.43565 -2.47412 0
M  V30 422 H 40.5115 5.19465 -0.863899 0
M  V30 423 H 43.0025 3.64027 -1.01452 0
M  V30 424 H 43.3155 7.25203 -2.67021 0
M  V30 425 H 41.6605 6.52435 -2.39487 0
M  V30 426 H 44.8515 4.48581 -1.33763 0
M  V30 427 H 45.0245 6.13288 -2.09242 0
M  V30 428 N 38.4306 0.297415 1.54768 0
M  V30 429 C 39.3606 -0.573494 2.26348 0
M  V30 430 C 40.3416 -1.14085 1.26169 0
M  V30 431 O 41.5266 -1.17086 1.54934 0
M  V30 432 C 38.6566 -1.74716 3.00153 0
M  V30 433 C 37.6106 -1.31032 4.07449 0
M  V30 434 C 36.9366 -2.56887 4.68949 0
M  V30 435 C 38.2366 -0.444183 5.20408 0
M  V30 436 H 39.9306 0.0235131 2.99391 0
M  V30 437 H 37.4766 0.0127488 1.43994 0
M  V30 438 H 39.4296 -2.3625 3.48947 0
M  V30 439 H 38.1536 -2.37035 2.24682 0
M  V30 440 H 36.8126 -0.718066 3.59499 0
M  V30 441 H 36.4606 -3.17512 3.90122 0
M  V30 442 H 36.1606 -2.2836 5.41411 0
M  V30 443 H 37.6846 -3.19229 5.20505 0
M  V30 444 H 39.0986 -0.9651 5.65118 0
M  V30 445 H 37.4956 -0.252846 5.99567 0
M  V30 446 H 38.5656 0.531609 4.81977 0
M  V30 447 N 39.9087 -1.5758 0.0250728 0
M  V30 448 C 41.3247 -1.56124 -0.331282 0
M  V30 449 C 41.5247 -1.03029 -1.73169 0
M  V30 450 O 40.5807 -0.675215 -2.43305 0
M  V30 451 C 41.8937 -3.00139 -0.183584 0
M  V30 452 C 43.4417 -3.11946 -0.256654 0
M  V30 453 C 43.9167 -4.57793 -0.137792 0
M  V30 454 N 45.4077 -4.6279 -0.194904 0
M  V30 455 C 46.1427 -5.7326 -0.126655 0
M  V30 456 N 45.6387 -6.928 -0.00755288 0
M  V30 457 N 47.4317 -5.61811 -0.180348 0
M  V30 458 H 39.5827 -1.90424 0.94087 0
M  V30 459 H 41.8457 -0.875761 0.362968 0
M  V30 460 H 41.5517 -3.4292 0.780927 0
M  V30 461 H 41.4257 -3.64899 -0.955448 0
M  V30 462 H 43.8127 -2.69079 -1.21162 0
M  V30 463 H 43.8937 -2.49915 0.545517 0
M  V30 464 H 43.5377 -5.01339 0.813739 0
M  V30 465 H 43.4677 -5.17798 -0.958775 0
M  V30 466 H 45.9587 -3.76807 -0.287267 0
M  V30 467 H 46.2717 -7.72791 0.0379428 0
M  V30 468 H 44.6167 -6.94995 0.0271731 0
M  V30 469 H 47.8077 -4.6731 -0.271767 0
M  V30 470 H 47.9807 -6.47882 -0.123697 0
M  V30 471 N 41.3868 0.248026 -1.55636 0
M  V30 472 C 42.3498 1.29044 -1.89421 0
M  V30 473 C 43.3498 1.41134 -0.770581 0
M  V30 474 O 44.5398 1.39854 -1.03858 0
M  V30 475 C 41.6718 2.66831 -2.12165 0
M  V30 476 H 42.8648 1.00305 -2.82629 0
M  V30 477 H 40.4178 0.487265 -1.48511 0
M  V30 478 H 41.1528 3.00711 -1.21422 0
M  V30 479 H 40.9378 2.59438 -2.93997 0
M  V30 480 H 42.4278 3.42103 -2.3949 0
M  V30 481 N 42.8649 1.48995 0.513639 0
M  V30 482 C 43.8119 1.6473 1.61656 0
M  V30 483 C 44.7819 0.488984 1.58739 0
M  V30 484 O 45.9669 0.714478 1.76918 0
M  V30 485 C 43.1069 1.7082 2.99858 0
M  V30 486 C 42.2199 2.9787 3.12885 0
M  V30 487 C 41.3549 2.95017 4.41744 0
M  V30 488 C 40.3939 4.16702 4.48359 0
M  V30 489 N 39.5309 4.11832 5.68629 0
M  V30 490 H 44.3709 2.58909 1.47547 0
M  V30 491 H 41.9079 1.28382 0.71808 0
M  V30 492 H 43.8659 1.72331 3.79944 0
M  V30 493 H 42.4959 0.801181 3.12699 0
M  V30 494 H 41.5479 3.06029 2.25944 0
M  V30 495 H 42.8599 3.8786 3.13633 0
M  V30 496 H 42.0139 2.95021 5.30139 0
M  V30 497 H 40.7529 2.02784 4.43542 0
M  V30 498 H 39.7579 4.16955 3.58369 0
M  V30 499 H 40.9829 5.10113 4.48287 0
M  V30 500 H 38.9289 3.22428 5.71293 0
M  V30 501 H 38.8459 4.95543 5.7094 0
M  V30 502 H 40.1139 4.1592 6.59266 0
M  V30 503 N 44.343 -0.763751 1.37857 0
M  V30 504 C 45.29 -1.87726 1.34267 0
M  V30 505 C 46.26 -1.64807 0.206879 0
M  V30 506 O 47.445 -1.86613 0.397508 0
M  V30 507 C 44.585 -3.24896 1.16346 0
M  V30 508 C 43.698 -3.59716 2.39225 0
M  V30 509 C 42.833 -4.86137 2.14114 0
M  V30 510 C 41.872 -5.13711 3.32817 0
M  V30 511 N 41.009 -6.31323 3.07206 0
M  V30 512 H 45.849 -1.90129 2.29466 0
M  V30 513 H 43.386 -0.929433 1.14017 0
M  V30 514 H 45.344 -4.04036 1.03975 0
M  V30 515 H 43.974 -3.21847 0.247909 0
M  V30 516 H 43.026 -2.75498 2.62307 0
M  V30 517 H 44.338 -3.76027 3.27728 0
M  V30 518 H 43.492 -5.73198 1.9882 0
M  V30 519 H 42.231 -4.71945 1.22961 0
M  V30 520 H 41.236 -4.25123 3.48641 0
M  V30 521 H 42.461 -5.29807 4.24832 0
M  V30 522 H 40.407 -6.18474 2.1869 0
M  V30 523 H 40.324 -6.48087 3.89254 0
M  V30 524 H 41.592 -7.213 2.95546 0
M  V30 525 N 45.8211 -1.22559 -0.990812 0
M  V30 526 C 47.0691 -1.04933 -1.72724 0
M  V30 527 C 47.3901 0.416158 -1.90508 0
M  V30 528 O 46.6601 1.29918 -1.46622 0
M  V30 529 H 45.2401 -0.385296 -0.639965 0
M  V30 530 H 47.9021 -1.54105 -1.19322 0
M  V30 531 H 46.9981 -1.52886 -2.72089 0
M  V30 532 N 47.2992 1.18797 -1.03562 0
M  V30 533 C 48.5762 1.84469 -0.650434 0
M  V30 534 C 48.9562 1.92319 0.870433 0
M  V30 535 O 48.3042 1.44528 1.76986 0
M  V30 536 C 48.5142 3.2306 -1.32036 0
M  V30 537 C 49.8622 3.9915 -1.44792 0
M  V30 538 O 50.8862 3.32481 -1.27806 0
M  V30 539 O 49.7452 5.18587 -1.72423 0
M  V30 540 H 46.8392 0.795251 -0.226946 0
M  V30 541 H 49.3852 1.26231 -1.13419 0
M  V30 542 H 48.1572 3.1222 -2.3587 0
M  V30 543 H 47.7802 3.88949 -0.8249 0
M  V30 544 N 48.7773 0.814389 1.34928 0
M  V30 545 C 50.0233 0.399013 1.98836 0
M  V30 546 C 50.3563 -1.03314 1.64438 0
M  V30 547 O 49.6313 -1.71811 0.911659 0
M  V30 548 C 49.9143 0.591629 3.55207 0
M  V30 549 C 49.7673 2.06928 3.99376 0
M  V30 550 C 51.0863 0.022199 4.40094 0
M  V30 551 H 48.2053 0.146451 0.722303 0
M  V30 552 H 50.8473 1.02537 1.59957 0
M  V30 553 H 48.9973 0.0584441 3.88456 0
M  V30 554 H 50.6693 2.66544 3.76499 0
M  V30 555 H 48.9123 2.56287 3.49999 0
M  V30 556 H 49.5833 2.1549 5.08201 0
M  V30 557 H 52.0593 0.477643 4.13349 0
M  V30 558 H 50.9353 0.186832 5.48582 0
M  V30 559 H 51.1963 -1.07215 4.28902 0
M  V30 560 N 50.2554 -1.46986 0.568584 0
M  V30 561 C 51.5014 -2.02741 0.0488709 0
M  V30 562 C 51.8344 -1.44077 -1.30214 0
M  V30 563 O 51.1094 -0.600552 -1.84996 0
M  V30 564 C 51.3924 -3.60086 -0.032047 0
M  V30 565 C 51.2454 -4.29162 1.34686 0
M  V30 566 C 52.5644 -4.33838 -0.739798 0
M  V30 567 H 49.6834 -0.736749 0.0192338 0
M  V30 568 H 52.3254 -1.75289 0.733065 0
M  V30 569 H 50.4754 -3.83606 -0.61473 0
M  V30 570 H 52.1474 -4.16948 1.97362 0
M  V30 571 H 50.3904 -3.89073 1.91846 0
M  V30 572 H 51.0614 -5.37826 1.24285 0
M  V30 573 H 53.5374 -4.15378 -0.244939 0
M  V30 574 H 52.4134 -5.43537 -0.765406 0
M  V30 575 H 52.6744 -4.03875 -1.79827 0
M  V30 576 N 51.7335 -0.305618 -1.54608 0
M  V30 577 C 53.1495 0.0476228 -1.59529 0
M  V30 578 C 53.3495 1.52025 -1.32252 0
M  V30 579 O 52.4055 2.27368 -1.09818 0
M  V30 580 C 53.7185 -0.354471 -2.98603 0
M  V30 581 C 55.2665 -0.303622 -3.11524 0
M  V30 582 C 55.7415 -0.680608 -4.52915 0
M  V30 583 N 57.2325 -0.63332 -4.5885 0
M  V30 584 C 57.9675 -0.897432 -5.66334 0
M  V30 585 N 57.4635 -1.22775 -6.81834 0
M  V30 586 N 59.2565 -0.824186 -5.56025 0
M  V30 587 H 51.4075 -1.2653 -1.70599 0
M  V30 588 H 53.6705 -0.513291 -0.797017 0
M  V30 589 H 53.3765 -1.3798 -3.23503 0
M  V30 590 H 53.2505 0.289568 -3.76087 0
M  V30 591 H 55.6375 0.712472 -2.8637 0
M  V30 592 H 55.7185 -0.982348 -2.36185 0
M  V30 593 H 55.3625 -1.69453 -4.78799 0
M  V30 594 H 55.2925 0.0202385 -5.26596 0
M  V30 595 H 57.7835 -0.389138 -3.75891 0
M  V30 596 H 58.0965 -1.41513 -7.59733 0
M  V30 597 H 56.4415 -1.26583 -6.83375 0
M  V30 598 H 59.6325 -0.565748 -4.64669 0
M  V30 599 H 59.8055 -1.03338 -6.39707 0
M  V30 600 N 53.2116 1.57565 -0.0334293 0
M  V30 601 C 54.4516 1.93844 0.648379 0
M  V30 602 C 54.8156 0.910387 1.69044 0
M  V30 603 O 56.0166 1.15952 2.42505 0
M  V30 604 C 54.2876 3.35017 1.24492 0
M  V30 605 S 55.8466 3.93229 1.94721 0
M  V30 606 H 52.6646 0.678231 0.213364 0
M  V30 607 H 55.2666 1.95254 -0.0981253 0
M  V30 608 H 53.9706 4.07652 0.474128 0
M  V30 609 H 53.5016 3.37061 2.02864 0
M  V30 610 H 55.5166 3.77014 3.22606 0
M  V30 611 N 54.6897 -0.239769 1.55765 0
M  V30 612 C 55.5997 -1.31831 1.94056 0
M  V30 613 C 56.6157 -1.52275 0.841925 0
M  V30 614 O 57.7917 -1.65759 1.14394 0
M  V30 615 C 54.8567 -2.65156 2.23368 0
M  V30 616 C 53.9177 -2.53173 3.46701 0
M  V30 617 C 53.1507 -3.8014 3.74606 0
M  V30 618 O 53.3737 -4.82343 3.04469 0
M  V30 619 O 52.3077 -3.78344 4.68123 0
M  V30 620 H 56.1337 -1.02347 2.85935 0
M  V30 621 H 53.7187 -0.441123 1.42739 0
M  V30 622 H 55.6007 -3.43929 2.43497 0
M  V30 623 H 54.2757 -2.94358 1.34666 0
M  V30 624 H 53.1827 -1.72662 3.31871 0
M  V30 625 H 54.5157 -2.28915 4.35728 0
M  V30 626 N 56.1678 -1.49265 -0.50573 0
M  V30 627 C 57.4138 -1.58748 -1.26202 0
M  V30 628 C 57.7468 -0.271227 -1.92297 0
M  V30 629 O 57.0218 0.724831 -1.80489 0
M  V30 630 C 57.3048 -2.74332 -2.33268 0
M  V30 631 C 57.1578 -4.15737 -1.71705 0
M  V30 632 C 58.4768 -2.85576 -3.34865 0
M  V30 633 H 55.5958 -0.577826 -0.457478 0
M  V30 634 H 58.2378 -1.81532 -0.560897 0
M  V30 635 H 56.3878 -2.55036 -2.93068 0
M  V30 636 H 58.0598 -4.46537 -1.15769 0
M  V30 637 H 56.3028 -4.21605 -1.02135 0
M  V30 638 H 56.9738 -4.92477 -2.49341 0
M  V30 639 H 59.4498 -3.03127 -2.8505 0
M  V30 640 H 58.3258 -3.68135 -4.07146 0
M  V30 641 H 58.5868 -1.94732 -3.96903 0
M  V30 642 N 57.6459 0.756429 -1.3826 0
M  V30 643 C 58.5759 1.88374 -1.37976 0
M  V30 644 C 59.5569 1.68311 -0.246082 0
M  V30 645 O 60.7419 1.88944 -0.44874 0
M  V30 646 C 57.8719 3.25864 -1.20125 0
M  V30 647 C 56.8259 3.60523 -2.30666 0
M  V30 648 C 56.1519 4.9672 -1.97923 0
M  V30 649 C 57.4519 3.65692 -3.72916 0
M  V30 650 H 59.1459 1.88869 -2.32312 0
M  V30 651 H 56.6919 0.907272 -1.11824 0
M  V30 652 H 58.6449 4.0438 -1.18552 0
M  V30 653 H 57.3689 3.25841 -0.222498 0
M  V30 654 H 56.0279 2.84324 -2.3142 0
M  V30 655 H 55.6759 4.93253 -0.985393 0
M  V30 656 H 55.3759 5.20878 -2.71955 0
M  V30 657 H 56.8999 5.77618 -1.97964 0
M  V30 658 H 58.3139 4.34328 -3.74208 0
M  V30 659 H 56.7109 4.01358 -4.4613 0
M  V30 660 H 57.7809 2.65987 -4.05436 0
M  V30 661 N 59.124 1.23083 0.984299 0
M  V30 662 C 60.354 1.08556 1.75781 0
M  V30 663 C 60.762 -0.366171 1.85623 0
M  V30 664 O 60.105 -1.26524 1.33182 0
M  V30 665 C 60.167 1.63208 3.20318 0
M  V30 666 C 59.831 3.11922 3.33997 0
M  V30 667 C 60.828 4.09259 3.2063 0
M  V30 668 C 58.513 3.51552 3.58771 0
M  V30 669 C 60.507 5.4421 3.31835 0
M  V30 670 C 58.194 4.86649 3.69616 0
M  V30 671 C 59.192 5.82787 3.56157 0
M  V30 672 O 58.88 7.15431 3.66626 0
M  V30 673 H 58.612 0.380713 0.5586 0
M  V30 674 H 61.166 1.63321 1.2456 0
M  V30 675 H 59.396 1.0286 3.72769 0
M  V30 676 H 61.085 1.44216 3.79416 0
M  V30 677 H 61.851 3.79984 3.01392 0
M  V30 678 H 57.73 2.77239 3.6832 0
M  V30 679 H 61.274 6.1923 3.21247 0
M  V30 680 H 57.171 5.15601 3.88363 0
M  V30 681 H 57.939 7.23127 3.83445 0
M  V30 682 N 60.6021 -1.18246 1.0419 0
M  V30 683 C 61.5651 -2.20128 0.638452 0
M  V30 684 C 62.5651 -1.57885 -0.304805 0
M  V30 685 O 63.7551 -1.73967 -0.0900369 0
M  V30 686 C 60.8871 -3.4084 -0.0637751 0
M  V30 687 H 62.0801 -2.57336 1.54007 0
M  V30 688 H 59.6331 -1.32152 0.834598 0
M  V30 689 H 60.3681 -3.09166 -0.979136 0
M  V30 690 H 60.1531 -3.8726 0.614198 0
M  V30 691 H 61.6431 -4.16274 -0.332512 0
M  V30 692 N 62.0802 -0.821533 -1.34494 0
M  V30 693 C 63.3572 -0.33159 -1.92769 0
M  V30 694 C 63.7372 1.18088 -1.74981 0
M  V30 695 O 63.0852 1.98733 -1.12772 0
M  V30 696 C 63.2952 -0.759398 -3.40638 0
M  V30 697 C 64.6432 -0.757433 -4.1779 0
M  V30 698 O 65.6672 -0.70189 -3.49216 0
M  V30 699 O 64.5262 -0.829361 -5.4017 0
M  V30 700 H 61.6202 -0.0902502 -0.822061 0
M  V30 701 H 64.1662 -0.906231 -1.43477 0
M  V30 702 H 62.9382 -1.8012 -3.47379 0
M  V30 703 H 62.5612 -0.160378 -3.97276 0
M  V30 704 N 63.5583 1.46682 -0.576371 0
M  V30 705 C 64.9743 1.57822 -0.237562 0
M  V30 706 C 65.1743 1.57237 1.26011 0
M  V30 707 O 64.2303 1.48596 2.04146 0
M  V30 708 C 65.5433 2.87499 -0.881168 0
M  V30 709 C 67.0913 3.01119 -0.85417 0
M  V30 710 C 67.5663 4.33524 -1.4772 0
M  V30 711 N 69.0573 4.40207 -1.44125 0
M  V30 712 C 69.7923 5.4126 -1.89276 0
M  V30 713 N 69.2883 6.49021 -2.42371 0
M  V30 714 N 71.0813 5.32422 -1.80231 0
M  V30 715 H 63.2323 1.45306 -1.54919 0
M  V30 716 H 65.4953 0.692733 -0.647167 0
M  V30 717 H 65.2013 2.9372 -1.93447 0
M  V30 718 H 65.0753 3.75224 -0.385592 0
M  V30 719 H 67.4623 2.94485 0.190491 0
M  V30 720 H 67.5433 2.14887 -1.3877 0
M  V30 721 H 67.1873 4.40916 -2.52103 0
M  V30 722 H 67.1173 5.1852 -0.918947 0
M  V30 723 H 69.6083 3.62931 -1.05307 0
M  V30 724 H 69.9213 7.2233 -2.74698 0
M  V30 725 H 68.2663 6.49858 -2.46393 0
M  V30 726 H 71.4573 4.47137 -1.38514 0
M  V30 727 H 71.6303 6.11034 -2.15735 0
M  V30 728 N 65.0364 0.313813 1.54444 0
M  V30 729 C 66.2664 -0.293491 2.04505 0
M  V30 730 C 66.6744 -1.47086 1.19005 0
M  V30 731 O 66.0174 -1.82481 0.211257 0
M  V30 732 C 66.0794 -0.800455 3.50475 0
M  V30 733 C 65.7434 0.253322 4.56297 0
M  V30 734 C 66.7404 1.08612 5.08428 0
M  V30 735 C 64.4254 0.398708 5.00715 0
M  V30 736 C 66.4194 2.05013 6.0353 0
M  V30 737 C 64.1064 1.36614 5.95634 0
M  V30 738 C 65.1044 2.19033 6.46926 0
M  V30 739 O 64.7924 3.14134 7.39983 0
M  V30 740 H 64.5244 -0.0658325 0.672787 0
M  V30 741 H 67.0784 0.455177 2.00293 0
M  V30 742 H 65.3084 -1.59987 3.52053 0
M  V30 743 H 66.9974 -1.32504 3.83663 0
M  V30 744 H 67.7634 0.984736 4.74898 0
M  V30 745 H 63.6424 -0.23289 4.60411 0
M  V30 746 H 67.1864 2.69382 6.4349 0
M  V30 747 H 63.0834 1.4682 6.28581 0
M  V30 748 H 63.8514 3.0926 7.57826 0
M  V30 749 N 66.5145 -1.57545 0.0417849 0
M  V30 750 C 67.4775 -2.09885 -0.92093 0
M  V30 751 C 68.4775 -1.01648 -1.24596 0
M  V30 752 O 69.6675 -1.27759 -1.1842 0
M  V30 753 C 66.7995 -2.57527 -2.23367 0
M  V30 754 H 67.9925 -2.96236 -0.467382 0
M  V30 755 H 65.5455 -1.5493 -0.206467 0
M  V30 756 H 66.2805 -1.74542 -2.73323 0
M  V30 757 H 66.0655 -3.36613 -2.01083 0
M  V30 758 H 67.5555 -2.98201 -2.92346 0
M  V30 759 N 67.9926 0.231505 -1.5589 0
M  V30 760 C 69.2176 0.978689 -1.82856 0
M  V30 761 C 69.6426 1.77559 -0.620846 0
M  V30 762 O 69.0006 1.76119 0.430305 0
M  V30 763 C 69.0486 1.87997 -3.07716 0
M  V30 764 O 68.1526 2.97393 -2.85712 0
M  V30 765 H 67.4936 0.277663 -0.603158 0
M  V30 766 H 70.0236 0.24783 -2.03093 0
M  V30 767 H 70.0336 2.2917 -3.37558 0
M  V30 768 H 68.7086 1.29417 -3.95252 0
M  V30 769 H 67.2856 2.60238 -2.67078 0
M  V30 770 N 69.4707 1.49531 0.497807 0
M  V30 771 C 70.8817 1.52344 1.07927 0
M  V30 772 C 71.2327 0.311469 1.93712 0
M  V30 773 O 70.3577 -0.578405 2.08527 0
M  V30 774 C 70.9527 2.76062 1.96405 0
M  V30 775 C 69.5117 2.81643 2.49709 0
M  V30 776 C 68.6587 2.46299 1.27404 0
M  V30 777 H 71.6097 1.56182 0.281576 0
M  V30 778 H 71.6307 2.56405 2.81135 0
M  V30 779 H 71.1427 3.64254 1.33943 0
M  V30 780 H 69.2437 1.97739 3.15801 0
M  V30 781 H 69.3567 3.83891 2.86643 0
M  V30 782 H 67.7207 1.98148 1.60029 0
M  V30 783 H 68.5037 3.36769 0.66645 0
M  V30 784 N 70.9488 -0.749086 1.3866 0
M  V30 785 C 71.8588 -1.89358 1.38494 0
M  V30 786 C 72.8748 -1.71708 0.281476 0
M  V30 787 O 74.0508 -1.94554 0.520643 0
M  V30 788 C 71.1158 -3.24782 1.21316 0
M  V30 789 C 70.1768 -3.54926 2.41508 0
M  V30 790 C 69.4098 -4.83888 2.2514 0
M  V30 791 O 69.6328 -5.56592 1.24746 0
M  V30 792 O 68.5668 -5.13612 3.13826 0
M  V30 793 H 72.3928 -1.92452 2.34938 0
M  V30 794 H 69.9778 -0.894981 1.19626 0
M  V30 795 H 71.8598 -4.05739 1.13814 0
M  V30 796 H 70.5348 -3.2249 0.279592 0
M  V30 797 H 69.4418 -2.74112 2.54585 0
M  V30 798 H 70.7748 -3.61983 3.3351 0
M  V30 799 N 72.4269 -1.23603 -0.977757 0
M  V30 800 C 73.3369 -1.03632 -2.1047 0
M  V30 801 C 74.3529 0.0199435 -1.73989 0
M  V30 802 O 75.5289 -0.176076 -2.00629 0
M  V30 803 C 72.5939 -0.63276 -3.40877 0
M  V30 804 C 71.6549 -1.76437 -3.91367 0
M  V30 805 C 70.8879 -1.37997 -5.15551 0
M  V30 806 O 71.1109 -0.265357 -5.69782 0
M  V30 807 O 70.0449 -2.20201 -5.60174 0
M  V30 808 H 73.8709 -1.98086 -2.30208 0
M  V30 809 H 71.4559 -1.02332 -1.08851 0
M  V30 810 H 73.3379 -0.418761 -4.19314 0
M  V30 811 H 72.0129 0.282754 -3.22463 0
M  V30 812 H 70.9199 -2.03304 -3.14036 0
M  V30 813 H 72.2529 -2.6583 -4.14241 0
M  V30 814 N 73.905 1.17692 -1.04816 0
M  V30 815 C 74.815 2.25229 -0.65643 0
M  V30 816 C 75.831 1.71018 0.320761 0
M  V30 817 O 77.007 2.00649 0.173805 0
M  V30 818 C 74.072 3.46684 -0.0332629 0
M  V30 819 C 73.133 4.15997 -1.06042 0
M  V30 820 C 72.366 5.31654 -0.466893 0
M  V30 821 O 72.589 5.65777 0.724758 0
M  V30 822 O 71.523 5.89831 -1.1993 0
M  V30 823 H 75.349 2.61016 -1.55255 0
M  V30 824 H 72.934 1.24919 -0.81949 0
M  V30 825 H 74.816 4.20234 0.313256 0
M  V30 826 H 73.491 3.12703 0.836566 0
M  V30 827 H 72.398 3.44482 -1.45886 0
M  V30 828 H 73.731 4.53996 -1.90127 0
M  V30 829 N 75.3831 0.828654 1.34056 0
M  V30 830 C 76.3131 0.269443 2.3194 0
M  V30 831 C 77.2941 -0.617247 1.58506 0
M  V30 832 O 78.4791 -0.542931 1.86456 0
M  V30 833 C 75.6091 -0.564793 3.42677 0
M  V30 834 C 74.5631 0.225241 4.27407 0
M  V30 835 C 73.8891 -0.7321 5.29664 0
M  V30 836 C 75.1891 1.43663 5.02154 0
M  V30 837 H 76.8831 1.08728 2.7896 0
M  V30 838 H 74.4291 0.524283 1.34117 0
M  V30 839 H 76.3821 -0.966233 4.10173 0
M  V30 840 H 75.1061 -1.41574 2.9432 0
M  V30 841 H 73.7651 0.608117 3.61521 0
M  V30 842 H 73.4131 -1.57916 4.77568 0
M  V30 843 H 73.1131 -0.20767 5.87233 0
M  V30 844 H 74.6371 -1.13128 6.00029 0
M  V30 845 H 76.0511 1.1089 5.62473 0
M  V30 846 H 74.4481 1.89711 5.69324 0
M  V30 847 H 75.5181 2.21181 4.31517 0
M  V30 848 N 76.8612 -1.46375 0.584142 0
M  V30 849 C 77.8242 -2.28784 -0.138108 0
M  V30 850 C 78.8242 -1.38471 -0.817462 0
M  V30 851 O 80.0142 -1.60833 -0.669199 0
M  V30 852 C 77.1462 -3.18892 -1.20503 0
M  V30 853 H 78.3392 -2.94117 0.586127 0
M  V30 854 H 75.8922 -1.52509 0.342171 0
M  V30 855 H 76.6272 -2.58309 -1.96079 0
M  V30 856 H 76.4122 -3.85388 -0.722384 0
M  V30 857 H 77.9022 -3.80914 -1.71155 0
M  V30 858 N 78.3393 -0.321999 -1.54275 0
M  V30 859 C 79.2893 0.560185 -2.21011 0
M  V30 860 C 80.2733 1.08283 -1.19011 0
M  V30 861 O 81.4653 1.02011 -1.44647 0
M  V30 862 C 78.5943 1.72137 -2.97025 0
M  V30 863 C 77.6803 1.21369 -4.06363 0
M  V30 864 N 78.0713 0.425566 -5.04007 0
M  V30 865 C 76.3693 1.49255 -4.20284 0
M  V30 866 C 77.0703 0.152601 -5.815 0
M  V30 867 N 76.0463 0.738294 -5.38563 0
M  V30 868 H 79.8483 -0.049265 -2.93859 0
M  V30 869 H 77.3623 -0.127779 -1.61897 0
M  V30 870 H 79.3593 2.36512 -3.43319 0
M  V30 871 H 78.0193 2.33431 -2.25699 0
M  V30 872 H 79.0303 0.068551 -5.17855 0
M  V30 873 H 75.7073 2.11145 -3.60172 0
M  V30 874 H 77.0973 -0.481764 -6.70171 0
M  V30 875 N 79.8174 1.5752 -0.0501392 0
M  V30 876 C 80.7804 2.1037 0.909786 0
M  V30 877 C 81.7804 1.02308 1.24056 0
M  V30 878 O 82.9704 1.28385 1.17741 0
M  V30 879 C 80.1024 2.58708 2.21998 0
M  V30 880 H 81.2954 2.96479 0.451665 0
M  V30 881 H 78.8484 1.55038 0.198248 0
M  V30 882 H 79.5834 1.75989 2.72394 0
M  V30 883 H 79.3684 3.37675 1.99295 0
M  V30 884 H 80.8584 2.99747 2.9076 0
M  V30 885 N 81.2955 -0.223234 1.56011 0
M  V30 886 C 82.2255 -1.27988 1.95298 0
M  V30 887 C 83.2065 -1.48976 0.820979 0
M  V30 888 O 84.3915 -1.61188 1.08315 0
M  V30 889 C 81.5215 -2.63 2.26822 0
M  V30 890 C 80.4755 -2.56671 3.42497 0
M  V30 891 C 79.8015 -3.95697 3.59622 0
M  V30 892 C 81.1015 -2.11601 4.77517 0
M  V30 893 H 82.7955 -0.953525 2.8381 0
M  V30 894 H 80.3415 -0.457244 1.36548 0
M  V30 895 H 82.2945 -3.37077 2.52898 0
M  V30 896 H 81.0185 -2.9732 1.35161 0
M  V30 897 H 79.6775 -1.85051 3.16467 0
M  V30 898 H 79.3255 -4.27322 2.6534 0
M  V30 899 H 79.0255 -3.92345 4.37424 0
M  V30 900 H 80.5495 -4.71438 3.88044 0
M  V30 901 H 81.9635 -2.7542 5.02809 0
M  V30 902 H 80.3605 -2.19311 5.5859 0
M  V30 903 H 81.4305 -1.06824 4.72987 0
M  V30 904 N 82.7736 -1.49793 -0.48987 0
M  V30 905 C 83.7366 -1.66752 -1.57246 0
M  V30 906 C 84.7366 -0.538867 -1.51502 0
M  V30 907 O 85.9266 -0.805545 -1.54456 0
M  V30 908 C 83.0586 -1.67528 -2.96896 0
M  V30 909 H 84.2516 -2.63321 -1.43534 0
M  V30 910 H 81.8046 -1.38992 -0.714914 0
M  V30 911 H 82.5396 -0.725837 -3.16073 0
M  V30 912 H 82.3246 -2.49504 -3.02473 0
M  V30 913 H 83.8146 -1.82667 -3.7553 0
M  V30 914 N 84.2517 0.741722 -1.39055 0
M  V30 915 C 85.4997 1.49818 -1.35643 0
M  V30 916 C 85.8207 1.94938 0.0491642 0
M  V30 917 O 85.0907 1.68505 0.999141 0
M  V30 918 H 83.6707 0.555755 -0.499144 0
M  V30 919 H 86.3327 0.880957 -1.73854 0
M  V30 920 H 85.4287 2.38348 -2.01486 0
M  V30 921 N 85.7298 1.2412 0.971189 0
M  V30 922 C 86.6768 1.0305 2.06517 0
M  V30 923 C 87.6468 -0.0550666 1.66009 0
M  V30 924 O 88.8318 0.0988688 1.90544 0
M  V30 925 C 85.9718 0.637653 3.39158 0
M  V30 926 C 85.0848 1.79633 3.92882 0
M  V30 927 C 84.2198 1.34939 5.13775 0
M  V30 928 C 83.2588 2.47823 5.59687 0
M  V30 929 N 82.3958 2.04022 6.71803 0
M  V30 930 H 87.2358 1.96685 2.23873 0
M  V30 931 H 84.7728 0.979694 1.09729 0
M  V30 932 H 86.7308 0.390931 4.15364 0
M  V30 933 H 85.3608 -0.261693 3.21737 0
M  V30 934 H 84.4128 2.15681 3.13346 0
M  V30 935 H 85.7248 2.64466 4.22918 0
M  V30 936 H 84.8788 1.06134 5.97345 0
M  V30 937 H 83.6178 0.471557 4.85415 0
M  V30 938 H 82.6228 2.77392 4.74693 0
M  V30 939 H 83.8478 3.36158 5.90063 0
M  V30 940 H 81.7938 1.18632 6.45184 0
M  V30 941 H 81.7108 2.82409 7.01271 0
M  V30 942 H 82.9788 1.78347 7.58823 0
M  V30 943 N 87.2079 -1.17134 1.05439 0
M  V30 944 C 88.1709 -2.19439 0.661764 0
M  V30 945 C 89.1709 -1.58199 -0.288042 0
M  V30 946 O 90.3609 -1.74053 -0.0715803 0
M  V30 947 C 87.4929 -3.40889 -0.0276209 0
M  V30 948 H 88.6859 -2.55688 1.56728 0
M  V30 949 H 86.2389 -1.31259 0.848567 0
M  V30 950 H 86.9739 -3.10187 -0.94629 0
M  V30 951 H 86.7589 -3.86586 0.655238 0
M  V30 952 H 88.2489 -4.16603 -0.288342 0
M  V30 953 N 88.686 -0.835752 -1.33615 0
M  V30 954 C 89.934 -0.429109 -1.97492 0
M  V30 955 C 90.255 1.01433 -1.66543 0
M  V30 956 O 89.525 1.70611 -0.962744 0
M  V30 957 H 88.105 -0.155686 -0.730596 0
M  V30 958 H 90.767 -1.06802 -1.63031 0
M  V30 959 H 89.863 -0.55861 -3.0706 0
M  V30 960 N 90.1641 1.46063 -0.591896 0
M  V30 961 C 91.3891 2.07226 -0.0850314 0
M  V30 962 C 91.8141 1.43625 1.21463 0
M  V30 963 O 91.1721 0.523305 1.73583 0
M  V30 964 C 91.2201 3.60554 0.0576567 0
M  V30 965 O 90.3241 3.97128 1.11188 0
M  V30 966 H 89.6651 0.660615 -0.0669568 0
M  V30 967 H 92.1951 1.8756 -0.81745 0
M  V30 968 H 92.2051 4.07165 0.2609 0
M  V30 969 H 90.8801 4.06235 -0.891416 0
M  V30 970 H 89.4571 3.62213 0.886356 0
M  V30 971 N 91.6422 0.330177 1.54103 0
M  V30 972 C 92.9192 -0.325007 1.92881 0
M  V30 973 C 93.2992 -1.6934 1.26045 0
M  V30 974 O 92.6472 -2.24855 0.406526 0
M  V30 975 C 92.8572 -0.410634 3.46576 0
M  V30 976 C 94.2052 -0.667801 4.19316 0
M  V30 977 O 95.2292 -0.49329 3.52768 0
M  V30 978 O 94.0882 -1.00491 5.37181 0
M  V30 979 H 91.1822 -0.186873 0.80561 0
M  V30 980 H 93.7282 0.380376 1.65382 0
M  V30 981 H 92.5002 0.550164 3.87413 0
M  V30 982 H 92.1232 -1.16333 3.802 0
M  V30 983 N 93.1203 -1.57491 0.0584922 0
M  V30 984 C 94.0303 -2.15448 -0.928414 0
M  V30 985 C 95.0463 -1.11416 -1.3365 0
M  V30 986 O 96.2223 -1.4362 -1.41193 0
M  V30 987 C 93.2873 -2.69393 -2.18239 0
M  V30 988 C 92.3483 -3.88249 -1.83196 0
M  V30 989 C 91.5813 -4.39613 -3.02616 0
M  V30 990 O 91.8043 -3.90023 -4.16219 0
M  V30 991 O 90.7383 -5.31111 -2.83204 0
M  V30 992 H 94.5643 -3.00112 -0.465483 0
M  V30 993 H 92.1493 -1.48499 -0.163826 0
M  V30 994 H 94.0313 -3.04026 -2.91798 0
M  V30 995 H 92.7063 -1.87796 -2.63656 0
M  V30 996 H 91.6133 -3.58492 -1.06931 0
M  V30 997 H 92.9463 -4.71098 -1.42573 0
M  V30 998 N 94.5984 0.214957 -1.56127 0
M  V30 999 C 96.0144 0.564948 -1.49267 0
M  V30 1000 C 96.2144 1.86827 -0.754838 0
M  V30 1001 O 95.2704 2.50745 -0.297198 0
M  V30 1002 C 96.5834 0.638071 -2.93852 0
M  V30 1003 C 98.1314 0.728253 -3.0441 0
M  V30 1004 C 98.6064 0.832663 -4.50367 0
M  V30 1005 N 100.097 0.896712 -4.54437 0
M  V30 1006 C 100.832 0.997324 -5.6466 0
M  V30 1007 N 100.328 1.06147 -6.8462 0
M  V30 1008 N 102.121 1.03297 -5.52527 0
M  V30 1009 H 94.2724 -0.640211 -2.02522 0
M  V30 1010 H 96.5354 -0.225507 -0.920788 0
M  V30 1011 H 96.2414 -0.250126 -3.50809 0
M  V30 1012 H 96.1154 1.49947 -3.46115 0
M  V30 1013 H 98.5024 1.60689 -2.47514 0
M  V30 1014 H 98.5834 -0.158952 -2.55306 0
M  V30 1015 H 98.2274 -0.0415417 -5.07883 0
M  V30 1016 H 98.1574 1.73538 -4.97184 0
M  V30 1017 H 100.648 0.857188 -3.6805 0
M  V30 1018 H 100.961 1.1382 -7.64372 0
M  V30 1019 H 99.3064 1.03049 -6.87318 0
M  V30 1020 H 102.497 0.979558 -4.57736 0
M  V30 1021 H 102.67 1.10793 -6.38458 0
M  V30 1022 N 96.0765 1.50051 0.48192 0
M  V30 1023 C 97.3235 1.60498 1.23477 0
M  V30 1024 C 97.6515 0.300331 1.92167 0
M  V30 1025 O 96.9065 -0.713094 1.82246 0
M  V30 1026 C 97.2055 2.72717 2.30998 0
M  V30 1027 C 96.8715 4.13572 1.79636 0
M  V30 1028 C 95.5335 4.519 1.65348 0
M  V30 1029 C 97.8855 5.01649 1.41412 0
M  V30 1030 C 95.2135 5.76057 1.11244 0
M  V30 1031 C 97.5655 6.26343 0.887538 0
M  V30 1032 C 96.2295 6.63483 0.731207 0
M  V30 1033 H 95.4995 0.587303 0.451836 0
M  V30 1034 H 98.1465 1.83948 0.532468 0
M  V30 1035 H 96.4515 2.43312 3.07094 0
M  V30 1036 H 98.1485 2.78006 2.88988 0
M  V30 1037 H 94.7385 3.83329 1.91721 0
M  V30 1038 H 98.9225 4.72679 1.51289 0
M  V30 1039 H 94.1785 6.03516 0.978686 0
M  V30 1040 H 98.3525 6.93958 0.582654 0
M  V30 1041 H 95.9795 7.59568 0.309806 0
M  V30 1042 N 97.5546 -0.734337 1.39446 0
M  V30 1043 C 98.8316 -1.48579 1.27215 0
M  V30 1044 C 99.2116 -2.1077 -0.117968 0
M  V30 1045 O 98.5596 -1.98646 -1.12924 0
M  V30 1046 C 98.7696 -2.53667 2.39696 0
M  V30 1047 C 100.118 -3.20031 2.79044 0
M  V30 1048 O 101.142 -2.6398 2.39151 0
M  V30 1049 O 100.001 -4.21455 3.47905 0
M  V30 1050 H 97.0946 -0.659816 0.49857 0
M  V30 1051 H 99.6406 -0.768106 1.51322 0
M  V30 1052 H 98.4126 -2.06096 3.32626 0
M  V30 1053 H 98.0356 -3.32994 2.17258 0
M  V30 1054 N 99.0327 -1.24633 -0.964593 0
M  V30 1055 C 100.263 -1.11339 -1.74032 0
M  V30 1056 C 100.671 0.336593 -1.86182 0
M  V30 1057 O 100.014 1.24389 -1.35178 0
M  V30 1058 C 100.076 -1.68284 -3.1768 0
M  V30 1059 C 99.7397 -3.17196 -3.28992 0
M  V30 1060 C 100.737 -4.14308 -3.14078 0
M  V30 1061 C 98.4217 -3.57215 -3.53133 0
M  V30 1062 C 100.416 -5.4942 -3.23135 0
M  V30 1063 C 98.1027 -4.92468 -3.61827 0
M  V30 1064 C 99.1007 -5.8838 -3.46841 0
M  V30 1065 O 98.7887 -7.21173 -3.55197 0
M  V30 1066 H 98.5207 -0.389551 -0.552472 0
M  V30 1067 H 101.075 -1.65282 -1.21946 0
M  V30 1068 H 99.3047 -1.08777 -3.71085 0
M  V30 1069 H 100.994 -1.50234 -3.77074 0
M  V30 1070 H 101.76 -3.84731 -2.95308 0
M  V30 1071 H 97.6387 -2.83063 -3.63863 0
M  V30 1072 H 101.183 -6.24263 -3.11355 0
M  V30 1073 H 97.0797 -5.21714 -3.80111 0
M  V30 1074 H 97.8477 -7.29135 -3.71892 0
M  V30 1075 N 100.511 1.16574 -1.06058 0
M  V30 1076 C 101.758 1.87047 -0.775873 0
M  V30 1077 C 102.086 1.81562 0.697534 0
M  V30 1078 O 101.341 1.22445 1.52662 0
M  V30 1079 C 101.64 3.36195 -1.21275 0
M  V30 1080 C 101.306 3.6188 -2.68986 0
M  V30 1081 C 99.9678 3.68599 -3.09335 0
M  V30 1082 C 102.32 3.72648 -3.64394 0
M  V30 1083 C 99.6478 3.83584 -4.43937 0
M  V30 1084 C 102 3.89154 -4.98741 0
M  V30 1085 C 100.664 3.94114 -5.3873 0
M  V30 1086 H 99.9338 0.684452 -0.283912 0
M  V30 1087 H 102.581 1.37853 -1.32925 0
M  V30 1088 H 100.886 3.87505 -0.578528 0
M  V30 1089 H 102.583 3.89103 -0.969542 0
M  V30 1090 H 99.1728 3.57281 -2.36744 0
M  V30 1091 H 103.357 3.66769 -3.34356 0
M  V30 1092 H 98.6128 3.85677 -4.74409 0
M  V30 1093 H 102.787 3.96427 -5.72554 0
M  V30 1094 H 100.414 4.05478 -6.43033 0
M  V30 1095 N 101.989 0.842826 1.3317 0
M  V30 1096 C 102.899 0.281444 2.32906 0
M  V30 1097 C 103.915 -0.594587 1.63526 0
M  V30 1098 O 105.091 -0.49777 1.95152 0
M  V30 1099 C 102.156 -0.530929 3.42611 0
M  V30 1100 C 101.217 0.369843 4.27704 0
M  V30 1101 C 100.45 -0.403853 5.3217 0
M  V30 1102 O 100.673 -1.63513 5.46461 0
M  V30 1103 O 99.6069 0.224199 6.01482 0
M  V30 1104 H 103.433 1.10744 2.82789 0
M  V30 1105 H 101.018 0.60545 1.36582 0
M  V30 1106 H 102.9 -0.992437 4.09547 0
M  V30 1107 H 101.575 -1.33392 2.94938 0
M  V30 1108 H 100.482 0.879275 3.6362 0
M  V30 1109 H 101.815 1.13771 4.78871 0
M  V30 1110 N 103.467 -1.45747 0.599634 0
M  V30 1111 C 104.43 -2.28917 -0.113835 0
M  V30 1112 C 105.43 -1.3933 -0.802729 0
M  V30 1113 O 106.62 -1.61534 -0.652103 0
M  V30 1114 C 103.752 -3.20152 -1.17114 0
M  V30 1115 H 104.945 -2.93478 0.617289 0
M  V30 1116 H 102.498 -1.52137 0.358327 0
M  V30 1117 H 103.233 -2.60374 -1.93329 0
M  V30 1118 H 103.018 -3.86133 -0.681468 0
M  V30 1119 H 104.508 -3.82708 -1.67105 0
M  V30 1120 N 104.945 -0.338344 -1.53925 0
M  V30 1121 C 105.875 0.51328 -2.27789 0
M  V30 1122 C 106.856 1.107 -1.29149 0
M  V30 1123 O 108.041 1.12937 -1.57984 0
M  V30 1124 C 105.171 1.66697 -3.04679 0
M  V30 1125 C 104.125 1.20183 -4.1078 0
M  V30 1126 C 103.451 2.44363 -4.75595 0
M  V30 1127 C 104.751 0.30605 -5.21403 0
M  V30 1128 H 106.445 -0.102883 -2.99223 0
M  V30 1129 H 103.991 -0.0509219 -1.4391 0
M  V30 1130 H 105.944 2.26915 -3.55088 0
M  V30 1131 H 104.668 2.30995 -2.30887 0
M  V30 1132 H 103.327 0.622499 -3.61276 0
M  V30 1133 H 102.975 3.07057 -3.98403 0
M  V30 1134 H 102.675 2.13925 -5.47275 0
M  V30 1135 H 104.199 3.05317 -5.28786 0
M  V30 1136 H 105.613 0.814929 -5.67478 0
M  V30 1137 H 104.01 0.0937929 -6.00027 0
M  V30 1138 H 105.08 -0.65921 -4.80398 0
M  V30 1139 N 106.423 1.57458 -0.0668435 0
M  V30 1140 C 107.353 2.15468 0.899764 0
M  V30 1141 C 108.334 1.08042 1.31381 0
M  V30 1142 O 109.519 1.36054 1.38574 0
M  V30 1143 C 106.649 2.71232 2.16911 0
M  V30 1144 C 105.603 3.83781 1.89463 0
M  V30 1145 C 104.929 4.26127 3.22986 0
M  V30 1146 C 106.229 5.08238 1.20381 0
M  V30 1147 H 107.923 2.96488 0.416529 0
M  V30 1148 H 105.469 1.4262 0.198908 0
M  V30 1149 H 107.422 3.10458 2.84945 0
M  V30 1150 H 106.146 1.87426 2.67468 0
M  V30 1151 H 104.805 3.45051 1.23836 0
M  V30 1152 H 104.453 3.39249 3.71374 0
M  V30 1153 H 104.153 5.01993 3.05413 0
M  V30 1154 H 105.677 4.67966 3.92225 0
M  V30 1155 H 107.091 5.44811 1.78475 0
M  V30 1156 H 105.488 5.89349 1.13083 0
M  V30 1157 H 106.558 4.84558 0.182153 0
M  V30 1158 N 107.901 -0.206675 1.56239 0
M  V30 1159 C 108.811 -1.27686 1.96808 0
M  V30 1160 C 109.827 -1.50455 0.874035 0
M  V30 1161 O 111.003 -1.63295 1.17884 0
M  V30 1162 C 108.068 -2.60358 2.28942 0
M  V30 1163 C 107.129 -2.45762 3.51994 0
M  V30 1164 C 106.362 -3.72108 3.82585 0
M  V30 1165 O 106.585 -4.75776 3.14631 0
M  V30 1166 O 105.519 -3.6833 4.76043 0
M  V30 1167 H 109.345 -0.962593 2.88041 0
M  V30 1168 H 106.93 -0.410746 1.43643 0
M  V30 1169 H 108.812 -3.38687 2.50737 0
M  V30 1170 H 107.487 -2.91435 1.4088 0
M  V30 1171 H 106.394 -1.65584 3.35459 0
M  V30 1172 H 107.727 -2.19621 4.40486 0
M  V30 1173 N 109.379 -1.50304 -0.473955 0
M  V30 1174 C 110.619 -1.62786 -1.23612 0
M  V30 1175 C 110.983 -0.319786 -1.89318 0
M  V30 1176 O 112.184 -0.320012 -2.66888 0
M  V30 1177 C 110.455 -2.77351 -2.25414 0
M  V30 1178 S 112.014 -3.09948 -3.10608 0
M  V30 1179 H 108.832 -0.573895 -0.419721 0
M  V30 1180 H 111.434 -1.88076 -0.533623 0
M  V30 1181 H 110.138 -3.70879 -1.75719 0
M  V30 1182 H 109.669 -2.54137 -3.00296 0
M  V30 1183 H 111.684 -2.53553 -4.26527 0
M  V30 1184 N 110.857 0.726932 -1.39834 0
M  V30 1185 C 112.082 1.52121 -1.40976 0
M  V30 1186 C 112.507 1.88098 -0.00826029 0
M  V30 1187 O 111.865 1.52479 0.980807 0
M  V30 1188 C 111.913 2.78021 -2.29644 0
M  V30 1189 O 111.017 3.74272 -1.73188 0
M  V30 1190 H 110.358 0.45908 -0.479731 0
M  V30 1191 H 112.888 0.896207 -1.83927 0
M  V30 1192 H 112.898 3.26671 -2.44438 0
M  V30 1193 H 111.573 2.51169 -3.31492 0
M  V30 1194 H 110.15 3.33073 -1.6768 0
M  V30 1195 N 112.336 1.25143 0.95797 0
M  V30 1196 C 113.564 1.12424 1.73691 0
M  V30 1197 C 113.979 -0.322304 1.86029 0
M  V30 1198 O 113.336 -1.22186 1.35561 0
M  V30 1199 C 113.387 1.76933 3.15241 0
M  V30 1200 O 113.108 3.15932 3.03511 0
M  V30 1201 C 114.609 1.6995 4.09429 0
M  V30 1202 H 111.829 0.3923 0.544373 0
M  V30 1203 H 114.373 1.6544 1.20207 0
M  V30 1204 H 112.528 1.27895 3.6568 0
M  V30 1205 H 112.942 3.47598 3.9278 0
M  V30 1206 H 114.416 2.19753 5.06372 0
M  V30 1207 H 114.893 0.662619 4.34173 0
M  V30 1208 H 115.499 2.18461 3.64904 0
M  V30 1209 N 113.814 -1.1601 1.06675 0
M  V30 1210 C 114.761 -2.20525 0.680967 0
M  V30 1211 C 115.731 -1.62904 -0.324283 0
M  V30 1212 O 116.916 -1.89615 -0.212294 0
M  V30 1213 C 114.056 -3.45013 0.0776551 0
M  V30 1214 C 113.169 -4.16863 1.13355 0
M  V30 1215 C 112.304 -5.2888 0.49597 0
M  V30 1216 C 111.343 -5.92537 1.53513 0
M  V30 1217 N 110.48 -6.96038 0.920631 0
M  V30 1218 H 115.32 -2.52876 1.57663 0
M  V30 1219 H 112.857 -1.24199 0.788223 0
M  V30 1220 H 114.815 -4.16193 -0.289704 0
M  V30 1221 H 113.445 -3.132 -0.781393 0
M  V30 1222 H 112.497 -3.44248 1.61857 0
M  V30 1223 H 113.809 -4.60294 1.92174 0
M  V30 1224 H 112.963 -6.06653 0.0758604 0
M  V30 1225 H 111.702 -4.86622 -0.324062 0
M  V30 1226 H 110.707 -5.13482 1.9651 0
M  V30 1227 H 111.932 -6.36873 2.35733 0
M  V30 1228 H 109.878 -6.55888 0.12138 0
M  V30 1229 H 109.795 -7.3786 1.64616 0
M  V30 1230 H 111.063 -7.77725 0.525795 0
M  V30 1231 N 115.292 -0.849877 -1.32721 0
M  V30 1232 C 116.708 -0.539102 -1.50219 0
M  V30 1233 C 116.908 0.931271 -1.78689 0
M  V30 1234 O 115.964 1.71455 -1.85363 0
M  V30 1235 C 117.277 -1.42196 -2.64954 0
M  V30 1236 C 118.825 -1.42189 -2.78839 0
M  V30 1237 C 119.3 -2.28985 -3.96648 0
M  V30 1238 N 120.791 -2.26754 -4.03902 0
M  V30 1239 C 121.526 -2.90644 -4.94281 0
M  V30 1240 N 121.022 -3.63629 -5.897 0
M  V30 1241 N 122.815 -2.80057 -4.87365 0
M  V30 1242 H 114.966 -1.80156 -1.12506 0
M  V30 1243 H 117.229 -0.769217 -0.554085 0
M  V30 1244 H 116.935 -2.46733 -2.50631 0
M  V30 1245 H 116.809 -1.10591 -3.60624 0
M  V30 1246 H 119.196 -0.38419 -2.92588 0
M  V30 1247 H 119.277 -1.77807 -1.83898 0
M  V30 1248 H 118.921 -3.32819 -3.83658 0
M  V30 1249 H 118.851 -1.90702 -4.90857 0
M  V30 1250 H 121.342 -1.73688 -3.3562 0
M  V30 1251 H 121.655 -4.09558 -6.55349 0
M  V30 1252 H 120 -3.67737 -5.89741 0
M  V30 1253 H 123.191 -2.22593 -4.11789 0
M  V30 1254 H 123.364 -3.30132 -5.57599 0
M  V30 1255 N 116.77 1.45427 -0.607355 0
M  V30 1256 C 118.016 2.0254 -0.102607 0
M  V30 1257 C 118.349 1.47478 1.26348 0
M  V30 1258 O 117.624 0.64939 1.83339 0
M  V30 1259 C 117.907 3.60044 -0.0634347 0
M  V30 1260 C 117.76 4.2544 -1.46017 0
M  V30 1261 C 119.079 4.35646 0.624514 0
M  V30 1262 H 116.198 0.73598 -0.0387607 0
M  V30 1263 H 118.84 1.73284 -0.779282 0
M  V30 1264 H 116.99 3.85101 0.512808 0
M  V30 1265 H 118.662 4.11569 -2.08347 0
M  V30 1266 H 116.905 3.83849 -2.02094 0
M  V30 1267 H 117.576 5.34342 -1.385 0
M  V30 1268 H 120.052 4.15882 0.134723 0
M  V30 1269 H 118.928 5.45376 0.621028 0
M  V30 1270 H 119.189 4.08501 1.69055 0
M  V30 1271 N 118.248 0.346503 1.53744 0
M  V30 1272 C 119.195 -0.508914 2.25119 0
M  V30 1273 C 120.165 -1.09315 1.25058 0
M  V30 1274 O 121.35 -1.12921 1.53797 0
M  V30 1275 C 118.49 -1.65246 3.02965 0
M  V30 1276 C 117.603 -1.09525 4.17886 0
M  V30 1277 C 116.738 -2.20634 4.83212 0
M  V30 1278 C 115.777 -1.62279 5.90196 0
M  V30 1279 N 114.914 -2.67143 6.49291 0
M  V30 1280 H 119.754 0.106283 2.9781 0
M  V30 1281 H 117.291 0.0642227 1.4696 0
M  V30 1282 H 119.249 -2.32574 3.4636 0
M  V30 1283 H 117.879 -2.2386 2.32565 0
M  V30 1284 H 116.931 -0.312818 3.79112 0
M  V30 1285 H 118.243 -0.628444 4.94825 0
M  V30 1286 H 117.397 -2.95821 5.29693 0
M  V30 1287 H 116.136 -2.70659 4.05703 0
M  V30 1288 H 115.141 -0.855989 5.43096 0
M  V30 1289 H 116.366 -1.13102 6.69615 0
M  V30 1290 H 114.312 -3.16417 5.74645 0
M  V30 1291 H 114.229 -2.25093 7.21713 0
M  V30 1292 H 115.497 -3.4209 7.00425 0
M  V30 1293 N 119.726 -1.57421 0.075193 0
M  V30 1294 C 120.956 -1.97659 -0.601203 0
M  V30 1295 C 121.364 -0.952427 -1.63479 0
M  V30 1296 O 120.707 0.0688241 -1.83571 0
M  V30 1297 C 120.769 -3.34218 -1.32434 0
M  V30 1298 C 120.433 -4.5484 -0.443826 0
M  V30 1299 C 121.43 -5.19034 0.299969 0
M  V30 1300 C 119.115 -5.00952 -0.367709 0
M  V30 1301 C 121.109 -6.27695 1.10807 0
M  V30 1302 C 118.796 -6.09484 0.444058 0
M  V30 1303 C 119.794 -6.72719 1.18061 0
M  V30 1304 O 119.482 -7.79161 1.97898 0
M  V30 1305 H 119.214 -0.65494 -0.167422 0
M  V30 1306 H 121.768 -2.04886 0.145157 0
M  V30 1307 H 119.998 -3.23615 -2.11685 0
M  V30 1308 H 121.687 -3.59038 -1.89331 0
M  V30 1309 H 122.453 -4.84351 0.250776 0
M  V30 1310 H 118.332 -4.51509 -0.930638 0
M  V30 1311 H 121.876 -6.76982 1.68347 0
M  V30 1312 H 117.773 -6.43601 0.494803 0
M  V30 1313 H 118.541 -7.96055 1.90367 0
M  V30 1314 N 121.204 0.198386 -1.56346 0
M  V30 1315 C 122.45 0.920648 -1.80698 0
M  V30 1316 C 122.783 1.83045 -0.648697 0
M  V30 1317 O 122.058 1.91308 0.350925 0
M  V30 1318 C 122.341 1.73971 -3.15287 0
M  V30 1319 C 122.194 0.85485 -4.41602 0
M  V30 1320 C 123.513 2.71296 -3.46535 0
M  V30 1321 H 120.632 0.333261 -0.657348 0
M  V30 1322 H 123.274 0.188198 -1.89066 0
M  V30 1323 H 121.424 2.36416 -3.08285 0
M  V30 1324 H 123.096 0.245362 -4.60647 0
M  V30 1325 H 121.339 0.161398 -4.335 0
M  V30 1326 H 122.01 1.46286 -5.32264 0
M  V30 1327 H 124.486 2.18983 -3.53816 0
M  V30 1328 H 123.362 3.2569 -4.41834 0
M  V30 1329 H 123.623 3.5018 -2.69864 0
M  V30 1330 N 122.682 1.50554 0.465978 0
M  V30 1331 C 123.929 1.61798 1.21768 0
M  V30 1332 C 124.257 0.320696 1.91838 0
M  V30 1333 O 123.512 -0.693724 1.82992 0
M  V30 1334 C 123.811 2.75152 2.28093 0
M  V30 1335 C 123.477 4.15454 1.75239 0
M  V30 1336 C 122.139 4.53628 1.60546 0
M  V30 1337 C 124.491 5.03121 1.36083 0
M  V30 1338 C 121.819 5.77204 1.05128 0
M  V30 1339 C 124.171 6.27249 0.821056 0
M  V30 1340 C 122.835 6.64221 0.660795 0
M  V30 1341 H 122.105 0.592063 0.445582 0
M  V30 1342 H 124.752 1.84503 0.512927 0
M  V30 1343 H 123.057 2.46556 3.04496 0
M  V30 1344 H 124.754 2.81055 2.86023 0
M  V30 1345 H 121.344 3.85341 1.87644 0
M  V30 1346 H 125.528 4.74257 1.46267 0
M  V30 1347 H 120.784 6.0452 0.91462 0
M  V30 1348 H 124.958 6.94537 0.509018 0
M  V30 1349 H 122.585 7.59854 0.229226 0
M  V30 1350 N 124.16 -0.719506 1.40217 0
M  V30 1351 C 125.09 -1.8465 1.42922 0
M  V30 1352 C 126.071 -1.67599 0.29062 0
M  V30 1353 O 127.256 -1.87688 0.498677 0
M  V30 1354 C 124.386 -3.22565 1.28722 0
M  V30 1355 C 123.34 -3.54281 2.40144 0
M  V30 1356 C 122.666 -4.91298 2.11023 0
M  V30 1357 C 123.966 -3.55676 3.82481 0
M  V30 1358 H 125.66 -1.82644 2.37237 0
M  V30 1359 H 123.206 -0.877305 1.1419 0
M  V30 1360 H 125.159 -4.01095 1.29232 0
M  V30 1361 H 123.883 -3.25137 0.308811 0
M  V30 1362 H 122.542 -2.78088 2.38877 0
M  V30 1363 H 122.19 -4.90468 1.11582 0
M  V30 1364 H 121.89 -5.13485 2.8567 0
M  V30 1365 H 123.414 -5.72166 2.13209 0
M  V30 1366 H 124.828 -4.24254 3.85592 0
M  V30 1367 H 123.225 -3.89388 4.56614 0
M  V30 1368 H 124.295 -2.55144 4.12346 0
M  V30 1369 N 125.638 -1.25649 -0.95132 0
M  V30 1370 C 126.568 -1.08808 -2.06599 0
M  V30 1371 C 127.549 0.00382547 -1.701 0
M  V30 1372 O 128.734 -0.166325 -1.93486 0
M  V30 1373 C 125.864 -0.709542 -3.39975 0
M  V30 1374 C 124.818 -1.75206 -3.90496 0
M  V30 1375 C 124.144 -1.22811 -5.20405 0
M  V30 1376 C 125.444 -3.15153 -4.16504 0
M  V30 1377 H 127.138 -2.02048 -2.20946 0
M  V30 1378 H 124.684 -0.972835 -1.06169 0
M  V30 1379 H 126.637 -0.578649 -4.17408 0
M  V30 1380 H 125.361 0.258556 -3.25575 0
M  V30 1381 H 124.02 -1.87145 -3.15234 0
M  V30 1382 H 123.668 -0.250145 -5.02378 0
M  V30 1383 H 123.368 -1.92492 -5.55176 0
M  V30 1384 H 124.892 -1.10968 -6.00432 0
M  V30 1385 H 126.306 -3.06349 -4.84586 0
M  V30 1386 H 124.703 -3.82333 -4.62538 0
M  V30 1387 H 125.773 -3.61966 -3.22658 0
M  V30 1388 N 127.117 1.15442 -1.07289 0
M  V30 1389 C 128.345 1.90096 -0.81676 0
M  V30 1390 C 128.76 1.7798 0.629966 0
M  V30 1391 O 128.117 1.1313 1.43206 0
M  V30 1392 C 128.168 3.40466 -1.21512 0
M  V30 1393 O 127.889 3.52232 -2.60508 0
M  V30 1394 C 129.39 4.32145 -0.988198 0
M  V30 1395 H 126.61 0.602495 -0.295366 0
M  V30 1396 H 129.154 1.4627 -1.42918 0
M  V30 1397 H 127.309 3.81958 -0.647039 0
M  V30 1398 H 127.723 4.45549 -2.76742 0
M  V30 1399 H 129.197 5.36072 -1.31645 0
M  V30 1400 H 129.674 4.39135 0.0755063 0
M  V30 1401 H 130.28 3.96395 -1.54115 0
M  V30 1402 N 128.595 0.856903 1.32268 0
M  V30 1403 C 129.843 0.460474 1.96784 0
M  V30 1404 C 130.164 -0.987701 1.68135 0
M  V30 1405 O 129.434 -1.69058 0.989765 0
M  V30 1406 H 128.014 0.167289 0.728027 0
M  V30 1407 H 130.676 1.09383 1.61312 0
M  V30 1408 H 129.772 0.60739 3.06133 0
M  V30 1409 N 130.073 -1.45103 0.615059 0
M  V30 1410 C 131.484 -1.85654 0.197383 0
M  V30 1411 C 131.835 -1.51433 -1.24749 0
M  V30 1412 O 130.96 -0.944608 -1.94695 0
M  V30 1413 C 131.555 -3.36972 0.351448 0
M  V30 1414 C 130.114 -3.76398 -0.011593 0
M  V30 1415 C 129.261 -2.69024 0.672394 0
M  V30 1416 H 132.212 -1.35797 0.821263 0
M  V30 1417 H 132.233 -3.78239 -0.414227 0
M  V30 1418 H 131.745 -3.61847 1.40314 0
M  V30 1419 H 129.846 -3.5714 -1.06217 0
M  V30 1420 H 129.959 -4.77532 0.387265 0
M  V30 1421 H 128.323 -2.54465 0.109284 0
M  V30 1422 H 129.106 -2.96735 1.72636 0
M  V30 1423 N 131.551 -0.354651 -1.53558 0
M  V30 1424 C 132.483 0.5315 -2.22952 0
M  V30 1425 C 133.496 1.05503 -1.23988 0
M  V30 1426 O 134.685 0.963279 -1.50277 0
M  V30 1427 C 131.785 1.74538 -2.90499 0
M  V30 1428 C 130.958 1.35524 -4.15875 0
M  V30 1429 C 130.017 2.42999 -4.66731 0
M  V30 1430 O 129.043 2.05844 -5.30676 0
M  V30 1431 N 130.245 3.74423 -4.43608 0
M  V30 1432 H 133.01 -0.0628615 -2.99634 0
M  V30 1433 H 130.571 -0.179302 -1.60904 0
M  V30 1434 H 132.563 2.45892 -3.21433 0
M  V30 1435 H 131.133 2.24686 -2.17336 0
M  V30 1436 H 130.353 0.471998 -3.91364 0
M  V30 1437 H 131.641 1.07071 -4.97406 0
M  V30 1438 H 131.039 4.07391 -3.92491 0
M  V30 1439 H 129.596 4.41913 -4.7912 0
M  V30 1440 N 133.029 1.57378 -0.0835403 0
M  V30 1441 C 134.277 1.93547 0.581718 0
M  V30 1442 C 134.598 0.96524 1.69435 0
M  V30 1443 O 133.868 0.0153369 1.95894 0
M  V30 1444 H 132.448 0.714521 0.217874 0
M  V30 1445 H 135.11 1.94366 -0.144158 0
M  V30 1446 H 134.206 2.95665 0.999423 0
M  V30 1447 N 134.507 -0.190092 1.56449 0
M  V30 1448 C 135.417 -1.25591 1.98152 0
M  V30 1449 C 136.433 -1.49519 0.889944 0
M  V30 1450 O 137.609 -1.62036 1.19609 0
M  V30 1451 C 134.674 -2.57916 2.3169 0
M  V30 1452 C 133.735 -2.42015 3.5458 0
M  V30 1453 C 132.968 -3.6803 3.8651 0
M  V30 1454 O 133.191 -4.72413 3.1966 0
M  V30 1455 O 132.125 -3.6326 4.79923 0
M  V30 1456 H 135.951 -0.931988 2.89046 0
M  V30 1457 H 133.536 -0.395488 1.4407 0
M  V30 1458 H 135.418 -3.36008 2.54316 0
M  V30 1459 H 134.093 -2.89925 1.43963 0
M  V30 1460 H 133 -1.62017 3.37196 0
M  V30 1461 H 134.333 -2.14937 4.4279 0
M  V30 1462 N 135.985 -1.50799 -0.457987 0
M  V30 1463 C 136.948 -1.7005 -1.53674 0
M  V30 1464 C 137.948 -0.570881 -1.50325 0
M  V30 1465 O 139.138 -0.838126 -1.52712 0
M  V30 1466 C 136.27 -1.73788 -2.93276 0
M  V30 1467 H 137.463 -2.66306 -1.37917 0
M  V30 1468 H 135.016 -1.40477 -0.685271 0
M  V30 1469 H 135.751 -0.792717 -3.14462 0
M  V30 1470 H 135.536 -2.55864 -2.97113 0
M  V30 1471 H 137.026 -1.90591 -3.71571 0
M  V30 1472 N 137.463 0.71206 -1.40597 0
M  V30 1473 C 138.709 1.47416 -1.39271 0
M  V30 1474 C 139.042 1.942 0.00388791 0
M  V30 1475 O 138.317 1.68403 0.973179 0
M  V30 1476 C 138.6 2.69774 -2.38525 0
M  V30 1477 C 138.453 2.28861 -3.87224 0
M  V30 1478 C 139.772 3.71939 -2.35264 0
M  V30 1479 H 136.891 0.534713 -0.5072 0
M  V30 1480 H 139.533 0.812375 -1.71757 0
M  V30 1481 H 137.683 3.26238 -2.10953 0
M  V30 1482 H 139.355 1.77852 -4.25636 0
M  V30 1483 H 137.598 1.60824 -4.02887 0
M  V30 1484 H 138.269 3.16584 -4.52193 0
M  V30 1485 H 140.745 3.25113 -2.59694 0
M  V30 1486 H 139.621 4.55186 -3.06753 0
M  V30 1487 H 139.882 4.20484 -1.36549 0
M  V30 1488 N 138.941 1.26152 0.944643 0
M  V30 1489 C 140.171 1.14094 1.72239 0
M  V30 1490 C 140.579 -0.306931 1.86694 0
M  V30 1491 O 139.922 -1.22222 1.3714 0
M  V30 1492 C 139.984 1.73316 3.14963 0
M  V30 1493 C 139.648 3.2239 3.23904 0
M  V30 1494 C 140.645 4.19252 3.07447 0
M  V30 1495 C 138.33 3.62788 3.47405 0
M  V30 1496 C 140.324 5.54491 3.14353 0
M  V30 1497 C 138.011 4.98162 3.53947 0
M  V30 1498 C 139.009 5.93823 3.37436 0
M  V30 1499 O 138.697 7.26732 3.43679 0
M  V30 1500 H 138.429 0.398292 0.546205 0
M  V30 1501 H 140.983 1.67201 1.19301 0
M  V30 1502 H 139.213 1.14667 3.69308 0
M  V30 1503 H 140.902 1.56214 3.74636 0
M  V30 1504 H 141.668 3.8938 2.8915 0
M  V30 1505 H 137.547 2.88816 3.59313 0
M  V30 1506 H 141.091 6.29137 3.01384 0
M  V30 1507 H 136.988 5.27695 3.71763 0
M  V30 1508 H 137.756 7.3496 3.60245 0
M  V30 1509 N 140.419 -1.14872 1.07899 0
M  V30 1510 C 141.666 -1.85789 0.805532 0
M  V30 1511 C 141.994 -1.82649 -0.668561 0
M  V30 1512 O 141.249 -1.24858 -1.50695 0
M  V30 1513 C 141.548 -3.34223 1.26609 0
M  V30 1514 C 141.214 -3.57555 2.74709 0
M  V30 1515 C 139.876 -3.63631 3.1516 0
M  V30 1516 C 142.228 -3.66803 3.70277 0
M  V30 1517 C 139.556 -3.76473 4.49983 0
M  V30 1518 C 141.908 -3.8117 5.04869 0
M  V30 1519 C 140.572 -3.85494 5.44932 0
M  V30 1520 H 139.842 -0.679849 0.294765 0
M  V30 1521 H 142.489 -1.3572 1.35101 0
M  V30 1522 H 140.794 -3.86536 0.640103 0
M  V30 1523 H 142.491 -3.87511 1.03132 0
M  V30 1524 H 139.081 -3.5347 2.42398 0
M  V30 1525 H 143.265 -3.61404 3.40149 0
M  V30 1526 H 138.521 -3.7808 4.80484 0
M  V30 1527 H 142.695 -3.87268 5.78789 0
M  V30 1528 H 140.322 -3.95197 6.49403 0
M  V30 1529 N 141.898 -0.863906 -1.31812 0
M  V30 1530 C 143.146 -0.470904 -1.96537 0
M  V30 1531 C 143.467 0.978771 -1.68657 0
M  V30 1532 O 142.737 1.6853 -0.998717 0
M  V30 1533 H 141.317 -0.171148 -0.72713 0
M  V30 1534 H 143.979 -1.10236 -1.60729 0
M  V30 1535 H 143.075 -0.623616 -3.05806 0
M  V30 1536 N 143.376 1.44774 -0.622745 0
M  V30 1537 C 144.286 2.34433 0.0886031 0
M  V30 1538 C 145.302 1.52131 0.844529 0
M  V30 1539 O 146.478 1.84886 0.798691 0
M  V30 1540 C 143.543 3.29986 1.0635 0
M  V30 1541 C 142.604 4.28195 0.307873 0
M  V30 1542 C 141.837 5.19183 1.23633 0
M  V30 1543 O 142.06 5.13918 2.47476 0
M  V30 1544 O 140.994 5.97515 0.725189 0
M  V30 1545 H 144.82 2.96693 -0.648599 0
M  V30 1546 H 142.405 1.44408 -0.382957 0
M  V30 1547 H 144.287 3.88825 1.6246 0
M  V30 1548 H 142.962 2.70269 1.78146 0
M  V30 1549 H 141.869 3.72927 -0.296064 0
M  V30 1550 H 143.202 4.90808 -0.3699 0
M  V30 1551 N 144.854 0.36279 1.53368 0
M  V30 1552 C 146.082 -0.228613 2.05633 0
M  V30 1553 C 146.497 -1.42676 1.23649 0
M  V30 1554 O 145.854 -1.80394 0.27647 0
M  V30 1555 C 145.905 -0.624845 3.56059 0
M  V30 1556 O 145.626 0.525675 4.34935 0
M  V30 1557 C 147.127 -1.27493 4.24571 0
M  V30 1558 H 144.347 -0.0407183 0.669763 0
M  V30 1559 H 146.891 0.520352 1.97769 0
M  V30 1560 H 145.046 -1.32373 3.64083 0
M  V30 1561 H 145.46 0.205969 5.24095 0
M  V30 1562 H 146.934 -1.50277 5.31151 0
M  V30 1563 H 147.411 -2.23439 3.78116 0
M  V30 1564 H 148.017 -0.617558 4.20792 0
M  V30 1565 N 146.332 -1.57332 0.0918853 0
M  V30 1566 C 147.58 -1.93853 -0.571446 0
M  V30 1567 C 147.901 -0.974212 -1.6892 0
M  V30 1568 O 147.171 -0.0257254 -1.95883 0
M  V30 1569 H 145.751 -0.715666 -0.214082 0
M  V30 1570 H 148.413 -1.94287 0.154464 0
M  V30 1571 H 147.509 -2.96191 -0.983729 0
M  V30 1572 N 147.81 0.181792 -1.56548 0
M  V30 1573 C 149.057 0.900097 -1.81396 0
M  V30 1574 C 149.385 1.82695 -0.667281 0
M  V30 1575 O 148.64 1.92614 0.346146 0
M  V30 1576 C 148.939 1.73728 -3.12335 0
M  V30 1577 C 148.605 0.960255 -4.40556 0
M  V30 1578 C 147.267 0.745766 -4.75386 0
M  V30 1579 C 149.619 0.414477 -5.19549 0
M  V30 1580 C 146.947 -0.0257694 -5.86694 0
M  V30 1581 C 149.299 -0.343916 -6.31664 0
M  V30 1582 C 147.963 -0.569301 -6.65068 0
M  V30 1583 H 147.233 0.329369 -0.663775 0
M  V30 1584 H 149.88 0.165647 -1.90782 0
M  V30 1585 H 148.185 2.54081 -2.98245 0
M  V30 1586 H 149.882 2.29591 -3.28769 0
M  V30 1587 H 146.472 1.13746 -4.13231 0
M  V30 1588 H 150.656 0.567554 -4.93044 0
M  V30 1589 H 145.912 -0.210233 -6.11038 0
M  V30 1590 H 150.086 -0.774133 -6.92084 0
M  V30 1591 H 147.713 -1.16903 -7.51158 0
M  V30 1592 N 149.288 1.51039 0.449983 0
M  V30 1593 C 150.513 1.6715 1.22783 0
M  V30 1594 C 150.938 0.363081 1.84563 0
M  V30 1595 O 150.296 -0.675433 1.68249 0
M  V30 1596 C 150.344 2.77985 2.29689 0
M  V30 1597 O 149.448 2.40707 3.34864 0
M  V30 1598 H 148.789 0.557746 0.360299 0
M  V30 1599 H 151.319 1.97535 0.533005 0
M  V30 1600 H 151.329 3.01693 2.74673 0
M  V30 1601 H 150.004 3.72935 1.84098 0
M  V30 1602 H 148.581 2.27523 2.95445 0
M  V30 1603 N 150.766 -0.704594 1.40972 0
M  V30 1604 C 151.729 -1.80035 1.41845 0
M  V30 1605 C 152.729 -1.57774 0.310474 0
M  V30 1606 O 153.919 -1.64613 0.56992 0
M  V30 1607 C 151.051 -3.18284 1.22098 0
M  V30 1608 H 152.244 -1.80658 2.3938 0
M  V30 1609 H 149.797 -0.911329 1.26982 0
M  V30 1610 H 150.532 -3.23306 0.253672 0
M  V30 1611 H 150.317 -3.35843 2.02366 0
M  V30 1612 H 151.807 -3.98289 1.25522 0
M  V30 1613 N 152.244 -1.26651 -0.937939 0
M  V30 1614 C 153.154 -1.10276 -2.07066 0
M  V30 1615 C 154.17 -0.0354197 -1.73964 0
M  V30 1616 O 155.346 -0.239816 -1.99967 0
M  V30 1617 C 152.411 -0.740887 -3.38691 0
M  V30 1618 C 151.472 -1.88799 -3.85556 0
M  V30 1619 C 150.705 -1.54329 -5.10899 0
M  V30 1620 O 150.928 -0.446494 -5.6865 0
M  V30 1621 O 149.862 -2.37911 -5.52885 0
M  V30 1622 H 153.688 -2.05309 -2.23789 0
M  V30 1623 H 151.273 -1.05743 -1.0554 0
M  V30 1624 H 153.155 -0.55195 -4.1777 0
M  V30 1625 H 151.83 0.180022 -3.23199 0
M  V30 1626 H 150.737 -2.13191 -3.07409 0
M  V30 1627 H 152.07 -2.78874 -4.05574 0
M  V30 1628 N 153.722 1.14298 -1.08507 0
M  V30 1629 C 155.138 1.37347 -0.812901 0
M  V30 1630 C 155.338 1.93052 0.577325 0
M  V30 1631 O 154.394 2.14389 1.33393 0
M  V30 1632 C 155.707 2.33359 -1.89642 0
M  V30 1633 C 157.255 2.46996 -1.92255 0
M  V30 1634 C 157.73 3.46309 -2.99724 0
M  V30 1635 N 159.221 3.53853 -2.98902 0
M  V30 1636 C 159.956 4.3055 -3.787 0
M  V30 1637 N 159.452 5.10482 -4.6838 0
M  V30 1638 N 161.245 4.25757 -3.66998 0
M  V30 1639 H 153.396 0.764867 -1.9815 0
M  V30 1640 H 155.659 0.398966 -0.859959 0
M  V30 1641 H 155.365 1.99565 -2.89597 0
M  V30 1642 H 155.239 3.33274 -1.76659 0
M  V30 1643 H 157.626 2.80081 -0.929445 0
M  V30 1644 H 157.707 1.47039 -2.09316 0
M  V30 1645 H 157.351 3.13957 -3.99241 0
M  V30 1646 H 157.281 4.46049 -2.79907 0
M  V30 1647 H 159.772 2.96812 -2.33904 0
M  V30 1648 H 160.085 5.66284 -5.25873 0
M  V30 1649 H 158.43 5.09747 -4.72422 0
M  V30 1650 H 161.621 3.62383 -2.96304 0
M  V30 1651 H 161.794 4.85279 -4.29427 0
M  V30 1652 N 155.201 0.870884 1.31352 0
M  V30 1653 C 156.426 0.495957 2.01383 0
M  V30 1654 C 156.851 -0.904324 1.64935 0
M  V30 1655 O 156.209 -1.59687 0.858466 0
M  V30 1656 C 156.257 0.661433 3.54482 0
M  V30 1657 O 155.361 -0.298851 4.11316 0
M  V30 1658 H 154.702 0.197158 0.634054 0
M  V30 1659 H 157.232 1.17455 1.67527 0
M  V30 1660 H 157.242 0.555072 4.04207 0
M  V30 1661 H 155.917 1.68246 3.8035 0
M  V30 1662 H 154.494 -0.147368 3.72609 0
M  V30 1663 N 156.679 -1.44442 0.630414 0
M  V30 1664 C 157.626 -2.30678 -0.0749355 0
M  V30 1665 C 158.596 -1.4344 -0.837502 0
M  V30 1666 O 159.781 -1.72343 -0.818684 0
M  V30 1667 C 156.921 -3.28706 -1.05103 0
M  V30 1668 C 156.034 -4.31046 -0.286954 0
M  V30 1669 C 155.169 -5.16167 -1.2548 0
M  V30 1670 C 154.208 -6.10216 -0.479843 0
M  V30 1671 N 153.345 -6.88039 -1.39811 0
M  V30 1672 H 158.185 -2.90454 0.666386 0
M  V30 1673 H 155.722 -1.43107 0.340404 0
M  V30 1674 H 157.68 -3.84027 -1.63031 0
M  V30 1675 H 156.31 -2.70632 -1.75949 0
M  V30 1676 H 155.362 -3.78203 0.408243 0
M  V30 1677 H 156.674 -4.97794 0.316657 0
M  V30 1678 H 155.828 -5.76002 -1.90544 0
M  V30 1679 H 154.567 -4.49491 -1.89233 0
M  V30 1680 H 153.572 -5.49491 0.184295 0
M  V30 1681 H 154.797 -6.78928 0.152965 0
M  V30 1682 H 152.743 -6.24032 -2.02287 0
M  V30 1683 H 152.66 -7.51223 -0.848508 0
M  V30 1684 H 153.928 -7.52397 -2.03762 0
M  V30 1685 N 158.157 -0.370918 -1.53173 0
M  V30 1686 C 159.12 0.460778 -2.24521 0
M  V30 1687 C 160.12 1.00536 -1.25496 0
M  V30 1688 O 161.31 0.890266 -1.49733 0
M  V30 1689 C 158.442 1.64457 -2.98608 0
M  V30 1690 H 159.635 -0.163613 -2.99453 0
M  V30 1691 H 157.188 -0.122699 -1.55818 0
M  V30 1692 H 157.923 2.30691 -2.2793 0
M  V30 1693 H 157.708 1.26099 -3.7127 0
M  V30 1694 H 159.198 2.23384 -3.5283 0
M  V30 1695 N 159.635 1.57281 -0.100228 0
M  V30 1696 C 160.883 1.94153 0.561157 0
M  V30 1697 C 161.204 0.983157 1.68401 0
M  V30 1698 O 160.474 0.0361132 1.95867 0
M  V30 1699 H 159.054 0.716791 0.210283 0
M  V30 1700 H 161.716 1.94202 -0.164765 0
M  V30 1701 H 160.812 2.96709 0.968008 0
M  V30 1702 N 161.113 -0.173488 1.56642 0
M  V30 1703 C 162.359 -0.891784 1.8214 0
M  V30 1704 C 162.692 -1.8199 0.677736 0
M  V30 1705 O 161.967 -1.91842 -0.320446 0
M  V30 1706 C 162.25 -1.68933 3.18015 0
M  V30 1707 C 162.103 -0.784487 4.42906 0
M  V30 1708 C 163.422 -2.65748 3.50808 0
M  V30 1709 H 160.541 -0.322761 0.662567 0
M  V30 1710 H 163.183 -0.158095 1.89341 0
M  V30 1711 H 161.333 -2.31482 3.12007 0
M  V30 1712 H 163.005 -0.172046 4.60979 0
M  V30 1713 H 161.248 -0.0924117 4.33702 0
M  V30 1714 H 161.919 -1.37799 5.34524 0
M  V30 1715 H 164.395 -2.13327 3.57255 0
M  V30 1716 H 163.271 -3.18619 4.4696 0
M  V30 1717 H 163.532 -3.45842 2.75401 0
M  V30 1718 N 162.591 -1.51276 -0.441967 0
M  V30 1719 C 163.838 -1.63715 -1.19179 0
M  V30 1720 C 164.166 -0.351175 -1.91303 0
M  V30 1721 O 163.421 0.664524 -1.84072 0
M  V30 1722 C 163.72 -2.78746 -2.23686 0
M  V30 1723 C 163.386 -4.18189 -1.68607 0
M  V30 1724 C 162.048 -4.56125 -1.53308 0
M  V30 1725 C 164.4 -5.05222 -1.28062 0
M  V30 1726 C 161.728 -5.78804 -0.959317 0
M  V30 1727 C 164.08 -6.28476 -0.721162 0
M  V30 1728 C 162.744 -6.65188 -0.55504 0
M  V30 1729 H 162.014 -0.599076 -0.436106 0
M  V30 1730 H 164.661 -1.85296 -0.48351 0
M  V30 1731 H 162.966 -2.51369 -3.00535 0
M  V30 1732 H 164.663 -2.8557 -2.81515 0
M  V30 1733 H 161.253 -3.88277 -1.8149 0
M  V30 1734 H 165.437 -4.76524 -1.38704 0
M  V30 1735 H 160.693 -6.05899 -0.81833 0
M  V30 1736 H 164.867 -6.95259 -0.398458 0
M  V30 1737 H 162.494 -7.60123 -0.108311 0
M  V30 1738 N 164.069 0.697108 -1.41344 0
M  V30 1739 C 165.001 1.8224 -1.39001 0
M  V30 1740 C 166.014 1.60152 -0.292428 0
M  V30 1741 O 167.203 1.69684 -0.554048 0
M  V30 1742 C 164.303 3.18976 -1.14489 0
M  V30 1743 C 163.476 3.68105 -2.36258 0
M  V30 1744 C 162.535 4.83506 -2.07625 0
M  V30 1745 O 161.561 4.95201 -2.8065 0
M  V30 1746 N 162.763 5.70637 -1.06555 0
M  V30 1747 H 165.528 1.84742 -2.35988 0
M  V30 1748 H 163.089 0.87937 -1.35936 0
M  V30 1749 H 165.081 3.93801 -0.932885 0
M  V30 1750 H 163.651 3.11508 -0.261043 0
M  V30 1751 H 162.871 2.84204 -2.7317 0
M  V30 1752 H 164.159 3.97667 -3.17393 0
M  V30 1753 H 163.557 5.63817 -0.461125 0
M  V30 1754 H 162.114 6.45368 -0.913444 0
M  V30 1755 N 165.547 1.27147 0.931209 0
M  V30 1756 C 166.777 1.15914 1.71019 0
M  V30 1757 C 167.185 -0.287112 1.87009 0
M  V30 1758 O 166.528 -1.20761 1.38429 0
M  V30 1759 C 166.59 1.76647 3.13107 0
M  V30 1760 C 166.254 3.25807 3.20467 0
M  V30 1761 C 167.251 4.22489 3.02983 0
M  V30 1762 C 164.936 3.66452 3.43538 0
M  V30 1763 C 166.93 5.57794 3.08454 0
M  V30 1764 C 164.617 5.01888 3.48643 0
M  V30 1765 C 165.615 5.97369 3.31119 0
M  V30 1766 O 165.303 7.30337 3.35952 0
M  V30 1767 H 165.035 0.404062 0.54195 0
M  V30 1768 H 167.589 1.68457 1.17521 0
M  V30 1769 H 165.819 1.18578 3.68071 0
M  V30 1770 H 167.508 1.60179 3.72958 0
M  V30 1771 H 168.274 3.92425 2.85004 0
M  V30 1772 H 164.153 2.92611 3.5623 0
M  V30 1773 H 167.697 6.32298 2.94694 0
M  V30 1774 H 163.594 5.31609 3.66145 0
M  V30 1775 H 164.362 7.38739 3.5243 0
M  V30 1776 N 167.025 -1.13721 1.09112 0
M  V30 1777 C 167.988 -2.17222 0.731241 0
M  V30 1778 C 168.988 -1.59035 -0.237566 0
M  V30 1779 O 170.178 -1.74192 -0.0161704 0
M  V30 1780 C 167.31 -3.40804 0.0808443 0
M  V30 1781 H 168.503 -2.50573 1.64783 0
M  V30 1782 H 166.056 -1.28493 0.889897 0
M  V30 1783 H 166.791 -3.1304 -0.847127 0
M  V30 1784 H 166.576 -3.84306 0.777896 0
M  V30 1785 H 168.066 -4.1731 -0.155657 0
M  V30 1786 N 168.503 -0.877838 -1.30888 0
M  V30 1787 C 169.733 -0.506678 -2.00291 0
M  V30 1788 C 170.141 0.907449 -1.66018 0
M  V30 1789 O 169.484 1.60719 -0.88967 0
M  V30 1790 C 169.546 -0.59323 -3.54572 0
M  V30 1791 C 169.21 -1.97038 -4.12341 0
M  V30 1792 C 170.207 -2.93889 -4.28865 0
M  V30 1793 C 167.892 -2.27383 -4.47886 0
M  V30 1794 C 169.886 -4.19224 -4.80136 0
M  V30 1795 C 167.573 -3.52965 -4.98857 0
M  V30 1796 C 168.571 -4.48701 -5.14934 0
M  V30 1797 O 168.259 -5.72056 -5.64808 0
M  V30 1798 H 167.991 -0.1951 -0.647234 0
M  V30 1799 H 170.545 -1.18301 -1.6791 0
M  V30 1800 H 168.775 0.140057 -3.86446 0
M  V30 1801 H 170.464 -0.234372 -4.05223 0
M  V30 1802 H 171.23 -2.71756 -4.01714 0
M  V30 1803 H 167.109 -1.53639 -4.34645 0
M  V30 1804 H 170.653 -4.93956 -4.92599 0
M  V30 1805 H 166.55 -3.74939 -5.25443 0
M  V30 1806 H 167.318 -5.74337 -5.83163 0
M  V30 1807 N 169.982 1.44106 -0.638065 0
M  V30 1808 C 171.231 2.01194 -0.142744 0
M  V30 1809 C 171.544 1.50835 1.24532 0
M  V30 1810 O 172.75 2.00096 1.83504 0
M  V30 1811 C 171.206 3.59319 -0.20442 0
M  V30 1812 C 170.814 4.18674 -1.59423 0
M  V30 1813 C 172.558 4.23854 0.234079 0
M  V30 1814 C 170.465 5.69045 -1.61065 0
M  V30 1815 H 169.395 0.752367 -0.0495998 0
M  V30 1816 H 172.046 1.65246 -0.797881 0
M  V30 1817 H 170.428 3.92598 0.517946 0
M  V30 1818 H 171.602 3.96921 -2.34074 0
M  V30 1819 H 169.917 3.66453 -1.97741 0
M  V30 1820 H 172.514 5.34155 0.241443 0
M  V30 1821 H 172.857 3.96688 1.2627 0
M  V30 1822 H 173.39 3.95403 -0.436025 0
M  V30 1823 H 170.129 6.00956 -2.61787 0
M  V30 1824 H 169.649 5.929 -0.90718 0
M  V30 1825 H 171.328 6.32809 -1.34766 0
M  V30 1826 N 171.46 0.379036 1.52974 0
M  V30 1827 C 172.41 -0.477772 2.22938 0
M  V30 1828 C 173.394 -1.03792 1.22948 0
M  V30 1829 O 174.586 -0.965725 1.48333 0
M  V30 1830 C 171.715 -1.60994 3.03209 0
M  V30 1831 C 170.801 -1.06203 4.10587 0
M  V30 1832 N 171.192 -0.238214 5.05239 0
M  V30 1833 C 169.49 -1.33554 4.25534 0
M  V30 1834 C 170.191 0.0633235 5.81666 0
M  V30 1835 N 169.167 -0.537901 5.40932 0
M  V30 1836 H 172.969 0.158295 2.93473 0
M  V30 1837 H 170.483 0.187778 1.61311 0
M  V30 1838 H 172.48 -2.23607 3.5186 0
M  V30 1839 H 171.14 -2.24893 2.34207 0
M  V30 1840 H 172.151 0.123695 5.17752 0
M  V30 1841 H 168.828 -1.97632 3.6776 0
M  V30 1842 H 170.218 0.730161 6.67921 0
M  V30 1843 N 172.938 -1.57226 0.108567 0
M  V30 1844 C 174.354 -1.5766 -0.248058 0
M  V30 1845 C 174.554 -1.12063 -1.67464 0
M  V30 1846 O 173.61 -0.803236 -2.39383 0
M  V30 1847 C 174.923 -3.0069 -0.0242287 0
M  V30 1848 C 176.471 -3.12868 -0.0909372 0
M  V30 1849 C 176.946 -4.57879 0.105067 0
M  V30 1850 N 178.437 -4.63172 0.0506846 0
M  V30 1851 C 179.172 -5.73126 0.177396 0
M  V30 1852 N 178.668 -6.91866 0.359696 0
M  V30 1853 N 180.461 -5.61977 0.117709 0
M  V30 1854 H 172.612 -1.85169 1.04049 0
M  V30 1855 H 174.875 -0.85529 0.40888 0
M  V30 1856 H 174.581 -3.38299 0.961604 0
M  V30 1857 H 174.455 -3.6945 -0.76068 0
M  V30 1858 H 176.842 -2.75124 -1.06729 0
M  V30 1859 H 176.923 -2.46672 0.677225 0
M  V30 1860 H 176.567 -4.96321 1.07834 0
M  V30 1861 H 176.497 -5.22153 -0.682954 0
M  V30 1862 H 178.988 -3.778 -0.0871266 0
M  V30 1863 H 179.301 -7.71503 0.447529 0
M  V30 1864 H 177.646 -6.93874 0.395536 0
M  V30 1865 H 180.837 -4.68094 -0.0236741 0
M  V30 1866 H 181.01 -6.47627 0.219905 0
M  V30 1867 N 174.416 0.165178 -1.56732 0
M  V30 1868 C 175.641 0.900253 -1.86843 0
M  V30 1869 C 176.066 1.74766 -0.695596 0
M  V30 1870 O 175.424 1.77786 0.35522 0
M  V30 1871 C 175.472 1.74777 -3.15413 0
M  V30 1872 O 174.576 2.85007 -2.98068 0
M  V30 1873 H 173.917 0.251832 -0.614391 0
M  V30 1874 H 176.447 0.161468 -2.03962 0
M  V30 1875 H 176.457 2.14646 -3.46974 0
M  V30 1876 H 175.132 1.12537 -4.00385 0
M  V30 1877 H 173.709 2.48676 -2.77875 0
M  V30 1878 N 175.894 1.51508 0.433938 0
M  V30 1879 C 176.804 1.75917 1.5521 0
M  V30 1880 C 177.82 0.643545 1.61662 0
M  V30 1881 O 178.996 0.926183 1.7884 0
M  V30 1882 C 176.061 1.88213 2.91164 0
M  V30 1883 C 175.122 3.12074 2.94802 0
M  V30 1884 C 174.355 3.23774 4.24271 0
M  V30 1885 O 174.578 2.4133 5.16833 0
M  V30 1886 O 173.512 4.16774 4.34262 0
M  V30 1887 H 177.338 2.70777 1.37527 0
M  V30 1888 H 174.923 1.36051 0.617293 0
M  V30 1889 H 176.805 1.98267 3.71845 0
M  V30 1890 H 175.48 0.965413 3.08968 0
M  V30 1891 H 174.387 3.07497 2.13065 0
M  V30 1892 H 175.72 4.03446 2.81943 0
M  V30 1893 N 177.372 -0.689602 1.41712 0
M  V30 1894 C 178.618 -1.45181 1.41599 0
M  V30 1895 C 178.951 -1.94181 0.0270081 0
M  V30 1896 O 178.226 -1.6993 -0.946265 0
M  V30 1897 C 178.509 -2.65945 2.42787 0
M  V30 1898 C 178.362 -2.22672 3.90816 0
M  V30 1899 C 179.681 -3.68149 2.41151 0
M  V30 1900 H 176.8 -0.526576 0.515642 0
M  V30 1901 H 179.442 -0.784947 1.73028 0
M  V30 1902 H 177.592 -3.2284 2.16116 0
M  V30 1903 H 179.264 -1.71058 4.28412 0
M  V30 1904 H 177.507 -1.54394 4.05395 0
M  V30 1905 H 178.178 -3.0935 4.57172 0
M  V30 1906 H 180.654 -3.2094 2.64834 0
M  V30 1907 H 179.53 -4.50248 3.13955 0
M  V30 1908 H 179.791 -4.18259 1.43221 0
M  V30 1909 N 178.85 -1.27639 -0.924453 0
M  V30 1910 C 180.097 -1.14167 -1.67249 0
M  V30 1911 C 180.425 0.311863 -1.91984 0
M  V30 1912 O 179.68 1.24425 -1.51053 0
M  V30 1913 C 179.979 -1.87407 -3.04325 0
M  V30 1914 C 179.645 -3.37249 -2.99289 0
M  V30 1915 C 178.307 -3.7812 -2.97622 0
M  V30 1916 C 180.659 -4.32845 -2.90336 0
M  V30 1917 C 177.987 -5.12944 -2.8479 0
M  V30 1918 C 180.339 -5.6773 -2.79045 0
M  V30 1919 C 179.003 -6.07889 -2.7573 0
M  V30 1920 H 178.273 -0.417766 -0.612007 0
M  V30 1921 H 180.92 -1.58286 -1.07786 0
M  V30 1922 H 179.225 -1.35805 -3.67511 0
M  V30 1923 H 180.922 -1.74408 -3.61086 0
M  V30 1924 H 177.512 -3.04748 -3.01374 0
M  V30 1925 H 181.696 -4.02239 -2.90719 0
M  V30 1926 H 176.952 -5.432 -2.80612 0
M  V30 1927 H 181.126 -6.41472 -2.71083 0
M  V30 1928 H 178.753 -7.12314 -2.65544 0
M  V30 1929 N 180.328 1.1314 -1.09713 0
M  V30 1930 C 181.556 1.88321 -0.856898 0
M  V30 1931 C 181.971 1.79276 0.592073 0
M  V30 1932 O 181.328 1.16142 1.40774 0
M  V30 1933 C 181.379 3.37812 -1.28706 0
M  V30 1934 O 181.1 3.46627 -2.67921 0
M  V30 1935 C 182.601 4.29952 -1.07964 0
M  V30 1936 H 179.821 0.596094 -0.308079 0
M  V30 1937 H 182.365 1.43205 -1.45988 0
M  V30 1938 H 180.52 3.805 -0.727912 0
M  V30 1939 H 180.934 4.39579 -2.8613 0
M  V30 1940 H 182.408 5.33159 -1.42986 0
M  V30 1941 H 182.885 4.39196 -0.0176577 0
M  V30 1942 H 183.491 3.93036 -1.62489 0
M  V30 1943 N 181.806 0.884767 1.30421 0
M  V30 1944 C 183.034 0.518044 2.0031 0
M  V30 1945 C 183.449 -0.893408 1.66324 0
M  V30 1946 O 182.806 -1.5875 0.900262 0
M  V30 1947 C 182.857 0.682997 3.54989 0
M  V30 1948 O 182.578 2.03888 3.87764 0
M  V30 1949 C 184.079 0.31924 4.42149 0
M  V30 1950 H 181.299 0.200265 0.640418 0
M  V30 1951 H 183.843 1.19001 1.6631 0
M  V30 1952 H 181.998 0.0584052 3.87356 0
M  V30 1953 H 182.412 2.05735 4.82466 0
M  V30 1954 H 183.886 0.485555 5.4986 0
M  V30 1955 H 184.363 -0.742717 4.32875 0
M  V30 1956 H 184.969 0.920147 4.15227 0
M  V30 1957 N 183.284 -1.43765 0.645699 0
M  V30 1958 C 184.695 -1.85193 0.236719 0
M  V30 1959 C 185.046 -1.54045 -1.21509 0
M  V30 1960 O 184.171 -0.985694 -1.92647 0
M  V30 1961 C 184.766 -3.36151 0.422845 0
M  V30 1962 C 183.325 -3.76338 0.0682492 0
M  V30 1963 C 182.472 -2.67538 0.729306 0
M  V30 1964 H 185.423 -1.34025 0.849883 0
M  V30 1965 H 185.444 -3.79032 -0.333904 0
M  V30 1966 H 184.956 -3.5879 1.47958 0
M  V30 1967 H 183.057 -3.59312 -0.986179 0
M  V30 1968 H 183.17 -4.76603 0.488469 0
M  V30 1969 H 181.534 -2.54176 0.163235 0
M  V30 1970 H 182.317 -2.93006 1.78892 0
M  V30 1971 N 184.763 -0.387143 -1.52771 0
M  V30 1972 C 185.673 0.456442 -2.30117 0
M  V30 1973 C 186.689 1.07342 -1.36944 0
M  V30 1974 O 187.865 1.07971 -1.70013 0
M  V30 1975 C 184.93 1.56957 -3.09136 0
M  V30 1976 C 183.991 0.977916 -4.18014 0
M  V30 1977 C 183.224 2.038 -4.93256 0
M  V30 1978 O 183.447 3.25271 -4.68567 0
M  V30 1979 O 182.381 1.6565 -5.78657 0
M  V30 1980 H 186.207 -0.17359 -3.03203 0
M  V30 1981 H 183.792 -0.150919 -1.48636 0
M  V30 1982 H 185.674 2.21628 -3.58412 0
M  V30 1983 H 184.349 2.18461 -2.38865 0
M  V30 1984 H 183.256 0.294525 -3.72939 0
M  V30 1985 H 184.589 0.407128 -4.90513 0
M  V30 1986 N 186.241 1.57166 -0.116904 0
M  V30 1987 C 187.487 1.96206 0.536166 0
M  V30 1988 C 187.842 0.99915 1.64422 0
M  V30 1989 O 187.135 0.0288195 1.91578 0
M  V30 1990 C 187.329 3.39508 1.11664 0
M  V30 1991 C 187.158 4.49651 0.0663474 0
M  V30 1992 C 185.928 5.03982 -0.36474 0
M  V30 1993 C 188.126 5.09322 -0.713829 0
M  V30 1994 N 186.108 5.97699 -1.40102 0
M  V30 1995 C 187.479 5.98963 -1.60136 0
M  V30 1996 C 189.534 4.91989 -0.764948 0
M  V30 1997 C 188.237 6.73128 -2.53556 0
M  V30 1998 C 190.263 5.66833 -1.68685 0
M  V30 1999 C 189.625 6.56158 -2.56196 0
M  V30 2000 H 185.724 0.764203 0.165886 0
M  V30 2001 H 188.308 1.93623 -0.204535 0
M  V30 2002 H 186.479 3.42743 1.82707 0
M  V30 2003 H 188.211 3.65677 1.73386 0
M  V30 2004 H 184.966 4.73592 0.027252 0
M  V30 2005 H 185.39 6.49262 -1.91802 0
M  V30 2006 H 190.032 4.22676 -0.102501 0
M  V30 2007 H 187.75 7.41689 -3.20816 0
M  V30 2008 H 191.336 5.55427 -1.73181 0
M  V30 2009 H 190.216 7.13057 -3.26372 0
M  V30 2010 N 187.719 -0.156864 1.56817 0
M  V30 2011 C 188.682 -1.17781 1.96622 0
M  V30 2012 C 189.682 -1.36401 0.851555 0
M  V30 2013 O 190.872 -1.33561 1.11836 0
M  V30 2014 C 188.004 -2.54008 2.27361 0
M  V30 2015 H 189.197 -0.836564 2.87996 0
M  V30 2016 H 186.75 -0.39985 1.51099 0
M  V30 2017 H 187.485 -2.9312 1.38748 0
M  V30 2018 H 187.27 -2.41856 3.08623 0
M  V30 2019 H 188.76 -3.27558 2.59029 0
M  V30 2020 N 189.197 -1.51736 -0.425897 0
M  V30 2021 C 190.144 -1.73875 -1.51776 0
M  V30 2022 C 191.114 -0.580702 -1.55618 0
M  V30 2023 O 192.299 -0.81641 -1.72451 0
M  V30 2024 C 189.439 -1.88012 -2.89388 0
M  V30 2025 C 188.552 -3.15606 -2.94986 0
M  V30 2026 C 187.687 -3.20271 -4.23793 0
M  V30 2027 C 186.726 -4.42134 -4.23302 0
M  V30 2028 N 185.863 -4.44284 -5.43651 0
M  V30 2029 H 190.703 -2.67071 -1.32201 0
M  V30 2030 H 188.24 -1.32351 -0.642008 0
M  V30 2031 H 190.198 -1.9419 -3.69251 0
M  V30 2032 H 188.828 -0.98213 -3.07496 0
M  V30 2033 H 187.88 -3.18681 -2.07717 0
M  V30 2034 H 189.192 -4.05486 -2.90486 0
M  V30 2035 H 188.346 -3.25428 -5.12036 0
M  V30 2036 H 187.085 -2.28299 -4.30965 0
M  V30 2037 H 186.09 -4.3714 -3.3345 0
M  V30 2038 H 187.315 -5.35382 -4.17783 0
M  V30 2039 H 185.261 -3.55188 -5.51523 0
M  V30 2040 H 185.178 -5.27988 -5.41078 0
M  V30 2041 H 186.446 -4.53649 -6.33895 0
M  V30 2042 N 190.675 0.682077 -1.42076 0
M  V30 2043 C 191.585 1.82535 -1.47371 0
M  V30 2044 C 192.601 1.7017 -0.363079 0
M  V30 2045 O 193.777 1.91848 -0.612875 0
M  V30 2046 C 190.842 3.18624 -1.36674 0
M  V30 2047 C 189.903 3.42999 -2.58167 0
M  V30 2048 C 189.136 4.72595 -2.4797 0
M  V30 2049 O 189.359 5.50006 -1.5116 0
M  V30 2050 O 188.293 4.98054 -3.37974 0
M  V30 2051 H 192.119 1.81023 -2.43853 0
M  V30 2052 H 189.704 0.836887 -1.2376 0
M  V30 2053 H 191.586 3.99847 -1.33043 0
M  V30 2054 H 190.261 3.20789 -0.433138 0
M  V30 2055 H 189.168 2.61653 -2.67373 0
M  V30 2056 H 190.501 3.45659 -3.50401 0
M  V30 2057 N 192.153 1.28127 0.917671 0
M  V30 2058 C 193.116 1.11744 2.00115 0
M  V30 2059 C 194.116 0.0583052 1.60694 0
M  V30 2060 O 195.306 0.303755 1.71531 0
M  V30 2061 C 192.438 0.704862 3.33533 0
M  V30 2062 H 193.631 2.07966 2.16079 0
M  V30 2063 H 191.184 1.11058 1.09981 0
M  V30 2064 H 191.919 -0.258299 3.2327 0
M  V30 2065 H 191.704 1.4699 3.63505 0
M  V30 2066 H 193.194 0.612768 4.1308 0
M  V30 2067 N 193.631 -1.12557 1.10312 0
M  V30 2068 C 194.877 -1.84311 0.846011 0
M  V30 2069 C 195.21 -1.83805 -0.626859 0
M  V30 2070 O 194.485 -1.28268 -1.46211 0
M  V30 2071 C 194.768 -3.32048 1.39341 0
M  V30 2072 C 194.621 -3.41016 2.93305 0
M  V30 2073 C 195.94 -4.27764 1.03468 0
M  V30 2074 H 193.059 -0.669192 0.30879 0
M  V30 2075 H 195.701 -1.32057 1.36605 0
M  V30 2076 H 193.851 -3.76678 0.951087 0
M  V30 2077 H 195.523 -3.05031 3.46055 0
M  V30 2078 H 193.766 -2.81603 3.29973 0
M  V30 2079 H 194.437 -4.44948 3.26689 0
M  V30 2080 H 196.913 -3.91253 1.41633 0
M  V30 2081 H 195.789 -5.29549 1.44463 0
M  V30 2082 H 196.05 -4.42064 -0.0560404 0
M  V30 2083 N 195.109 -0.891671 -1.2995 0
M  V30 2084 C 196.358 -0.509521 -1.95158 0
M  V30 2085 C 196.671 0.947388 -1.71125 0
M  V30 2086 O 197.877 1.43669 -2.30372 0
M  V30 2087 C 196.333 -0.860315 -3.49466 0
M  V30 2088 C 195.941 -2.33545 -3.8231 0
M  V30 2089 C 197.685 -0.547687 -4.20952 0
M  V30 2090 C 195.592 -2.62752 -5.29826 0
M  V30 2091 H 194.522 -0.18682 -0.730489 0
M  V30 2092 H 197.173 -1.08756 -1.47798 0
M  V30 2093 H 195.555 -0.211285 -3.95436 0
M  V30 2094 H 196.729 -3.02936 -3.47227 0
M  V30 2095 H 195.044 -2.61629 -3.23944 0
M  V30 2096 H 197.641 -0.742854 -5.29515 0
M  V30 2097 H 197.984 0.51332 -4.13123 0
M  V30 2098 H 198.517 -1.1542 -3.80688 0
M  V30 2099 H 195.256 -3.6762 -5.42712 0
M  V30 2100 H 194.776 -1.97977 -5.66185 0
M  V30 2101 H 196.455 -2.48601 -5.97333 0
M  V30 2102 N 196.587 1.43421 -0.653314 0
M  V30 2103 C 197.817 2.05864 -0.174238 0
M  V30 2104 C 198.225 1.49052 1.16534 0
M  V30 2105 O 197.568 0.616481 1.73047 0
M  V30 2106 C 197.63 3.59499 -0.00875873 0
M  V30 2107 C 197.294 4.38893 -1.27364 0
M  V30 2108 C 198.291 4.70947 -2.20239 0
M  V30 2109 C 195.976 4.789 -1.51525 0
M  V30 2110 C 197.97 5.41916 -3.35568 0
M  V30 2111 C 195.657 5.49614 -2.67147 0
M  V30 2112 C 196.655 5.81044 -3.58994 0
M  V30 2113 O 196.343 6.50313 -4.72597 0
M  V30 2114 H 196.075 0.670345 -0.0872549 0
M  V30 2115 H 198.629 1.84913 -0.894226 0
M  V30 2116 H 196.859 3.79025 0.7666 0
M  V30 2117 H 198.548 4.0364 0.427687 0
M  V30 2118 H 199.314 4.40558 -2.02815 0
M  V30 2119 H 195.193 4.53843 -0.809158 0
M  V30 2120 H 198.737 5.66365 -4.07279 0
M  V30 2121 H 194.634 5.79419 -2.84505 0
M  V30 2122 H 195.402 6.68795 -4.71864 0
M  V30 2123 N 198.065 0.39524 1.52563 0
M  V30 2124 C 198.997 -0.472201 2.24283 0
M  V30 2125 C 200.01 -1.02178 1.26742 0
M  V30 2126 O 201.199 -0.923097 1.52778 0
M  V30 2127 C 198.299 -1.66775 2.95024 0
M  V30 2128 C 197.472 -1.2445 4.19322 0
M  V30 2129 C 196.531 -2.30539 4.7301 0
M  V30 2130 O 195.557 -1.91702 5.35947 0
M  V30 2131 N 196.759 -3.6253 4.53379 0
M  V30 2132 H 199.524 0.142282 2.99362 0
M  V30 2133 H 197.085 0.2219 1.60372 0
M  V30 2134 H 199.077 -2.37283 3.27839 0
M  V30 2135 H 197.647 -2.18845 2.23217 0
M  V30 2136 H 196.867 -0.368069 3.92478 0
M  V30 2137 H 198.155 -0.938457 5.0007 0
M  V30 2138 H 197.553 -3.96841 4.03154 0
M  V30 2139 H 196.11 -4.29055 4.90668 0
M  V30 2140 N 199.544 -1.57102 0.125237 0
M  V30 2141 C 200.793 -1.94582 -0.531095 0
M  V30 2142 C 201.106 -1.01126 -1.6743 0
M  V30 2143 O 202.312 -1.28097 -2.39381 0
M  V30 2144 C 200.768 -3.45839 -0.996164 0
M  V30 2145 C 200.376 -4.47842 0.118926 0
M  V30 2146 C 202.12 -3.92227 -1.62352 0
M  V30 2147 C 200.027 -5.90284 -0.363192 0
M  V30 2148 H 198.957 -0.726391 -0.20217 0
M  V30 2149 H 201.608 -1.82339 0.206092 0
M  V30 2150 H 199.99 -3.53338 -1.78796 0
M  V30 2151 H 201.164 -4.52018 0.895358 0
M  V30 2152 H 199.479 -4.11243 0.653324 0
M  V30 2153 H 202.076 -4.96069 -1.99548 0
M  V30 2154 H 202.419 -3.32552 -2.50429 0
M  V30 2155 H 202.952 -3.87554 -0.897019 0
M  V30 2156 H 199.691 -6.53728 0.481679 0
M  V30 2157 H 199.211 -5.89515 -1.10597 0
M  V30 2158 H 200.89 -6.41752 -0.822377 0
M  V30 2159 N 201.022 0.148545 -1.56898 0
M  V30 2160 C 202.269 0.861418 -1.83264 0
M  V30 2161 C 202.597 1.81239 -0.705883 0
M  V30 2162 O 201.852 1.93305 0.305212 0
M  V30 2163 C 202.151 1.67064 -3.1595 0
M  V30 2164 C 201.817 0.866591 -4.42494 0
M  V30 2165 C 200.479 0.644762 -4.76861 0
M  V30 2166 C 202.831 0.30418 -5.20312 0
M  V30 2167 C 200.159 -0.15021 -5.86508 0
M  V30 2168 C 202.511 -0.477824 -6.30793 0
M  V30 2169 C 201.175 -0.710244 -6.63711 0
M  V30 2170 H 200.445 0.315215 -0.670612 0
M  V30 2171 H 203.092 0.125142 -1.91091 0
M  V30 2172 H 201.397 2.47698 -3.03567 0
M  V30 2173 H 203.094 2.22566 -3.33565 0
M  V30 2174 H 199.684 1.04955 -4.15551 0
M  V30 2175 H 203.868 0.462844 -4.94137 0
M  V30 2176 H 199.124 -0.339796 -6.10455 0
M  V30 2177 H 203.298 -0.92076 -6.90286 0
M  V30 2178 H 200.925 -1.3281 -7.48509 0
M  V30 2179 N 202.5 1.5196 0.417844 0
M  V30 2180 C 203.911 1.57851 0.997 0
M  V30 2181 C 204.262 0.413714 1.91789 0
M  V30 2182 O 203.387 -0.467057 2.113 0
M  V30 2183 C 203.982 2.86085 1.81496 0
M  V30 2184 C 202.541 2.94483 2.34428 0
M  V30 2185 C 201.688 2.52707 1.14169 0
M  V30 2186 H 204.639 1.57455 0.198392 0
M  V30 2187 H 204.66 2.70947 2.67148 0
M  V30 2188 H 204.172 3.70842 1.14446 0
M  V30 2189 H 202.273 2.142 3.04875 0
M  V30 2190 H 202.386 3.98546 2.65891 0
M  V30 2191 H 200.75 2.06353 1.49301 0
M  V30 2192 H 201.533 3.39828 0.486999 0
M  V30 2193 N 203.978 -0.674533 1.42435 0
M  V30 2194 C 204.888 -1.81751 1.48337 0
M  V30 2195 C 205.904 -1.69975 0.372099 0
M  V30 2196 O 207.08 -1.91521 0.62304 0
M  V30 2197 C 204.145 -3.17895 1.38361 0
M  V30 2198 C 203.206 -3.41625 2.59982 0
M  V30 2199 C 202.439 -4.71274 2.50473 0
M  V30 2200 O 202.662 -5.49197 1.54075 0
M  V30 2201 O 201.596 -4.96254 3.4061 0
M  V30 2202 H 205.422 -1.79728 2.44809 0
M  V30 2203 H 203.007 -0.830312 1.24202 0
M  V30 2204 H 204.889 -3.99136 1.35161 0
M  V30 2205 H 203.564 -3.20555 0.450144 0
M  V30 2206 H 202.471 -2.60231 2.68757 0
M  V30 2207 H 203.804 -3.43796 3.52229 0
M  V30 2208 N 205.456 -1.28612 -0.910864 0
M  V30 2209 C 206.872 -1.06381 -1.18976 0
M  V30 2210 C 207.072 0.191998 -2.00583 0
M  V30 2211 O 206.128 0.892869 -2.36187 0
M  V30 2212 C 207.441 -2.31295 -1.92154 0
M  V30 2213 C 208.989 -2.36503 -2.05025 0
M  V30 2214 C 209.464 -3.61191 -2.81612 0
M  V30 2215 N 210.955 -3.61847 -2.89172 0
M  V30 2216 C 211.69 -4.55004 -3.4894 0
M  V30 2217 N 211.186 -5.58482 -4.09963 0
M  V30 2218 N 212.979 -4.42594 -3.46506 0
M  V30 2219 H 205.13 -2.09221 -0.366094 0
M  V30 2220 H 207.393 -0.921003 -0.224629 0
M  V30 2221 H 207.099 -3.228 -1.39618 0
M  V30 2222 H 206.973 -2.37934 -2.9269 0
M  V30 2223 H 209.36 -1.45494 -2.5674 0
M  V30 2224 H 209.441 -2.33857 -1.03657 0
M  V30 2225 H 209.085 -4.52545 -2.30576 0
M  V30 2226 H 209.015 -3.61092 -3.83302 0
M  V30 2227 H 211.506 -2.87022 -2.45819 0
M  V30 2228 H 211.819 -6.25704 -4.53557 0
M  V30 2229 H 210.164 -5.62305 -4.08459 0
M  V30 2230 H 213.355 -3.60953 -2.98045 0
M  V30 2231 H 213.528 -5.15381 -3.92793 0
M  V30 2232 N 206.934 1.1197 -1.10907 0
M  V30 2233 C 208.181 1.83588 -0.854507 0
M  V30 2234 C 208.509 1.84357 0.6199 0
M  V30 2235 O 207.764 1.28809 1.47332 0
M  V30 2236 C 208.063 3.30749 -1.35425 0
M  V30 2237 C 207.729 3.50146 -2.84093 0
M  V30 2238 C 206.391 3.55148 -3.2469 0
M  V30 2239 C 208.743 3.56857 -3.79872 0
M  V30 2240 C 206.071 3.6441 -4.59806 0
M  V30 2241 C 208.423 3.6765 -5.14797 0
M  V30 2242 C 207.087 3.7091 -5.54961 0
M  V30 2243 H 206.357 0.671795 -0.312686 0
M  V30 2244 H 209.004 1.32091 -1.38652 0
M  V30 2245 H 207.309 3.84703 -0.742361 0
M  V30 2246 H 209.006 3.8464 -1.1337 0
M  V30 2247 H 205.596 3.46919 -2.51685 0
M  V30 2248 H 209.78 3.52258 -3.49611 0
M  V30 2249 H 205.036 3.65208 -4.9034 0
M  V30 2250 H 209.21 3.71786 -5.88853 0
M  V30 2251 H 206.837 3.7784 -6.59652 0
M  V30 2252 N 208.412 0.89855 1.29475 0
M  V30 2253 C 209.375 0.380272 2.26023 0
M  V30 2254 C 210.375 -0.484891 1.53315 0
M  V30 2255 O 211.565 -0.290108 1.71767 0
M  V30 2256 C 208.697 -0.45651 3.3783 0
M  V30 2257 H 209.89 1.23295 2.73383 0
M  V30 2258 H 207.443 0.676589 1.40897 0
M  V30 2259 H 208.178 -1.32922 2.95808 0
M  V30 2260 H 207.963 0.163393 3.91759 0
M  V30 2261 H 209.453 -0.810466 4.0966 0
M  V30 2262 N 209.89 -1.43072 0.660911 0
M  V30 2263 C 210.838 -2.32569 -0.0378199 0
M  V30 2264 C 211.832 -1.49046 -0.805092 0
M  V30 2265 O 213.038 -1.65206 -0.714624 0
M  V30 2266 H 209.413 -0.75136 -0.031019 0
M  V30 2267 H 211.384 -2.89216 0.734609 0
M  V30 2268 C 210.133 -3.33453 -0.985124 0
M  V30 2269 H 209.456 -3.97752 -0.404147 0
M  V30 2270 H 210.896 -3.98691 -1.44297 0
M  V30 2271 C 209.355 -2.64642 -2.08486 0
M  V30 2272 O 209.885 -2.46776 -3.16961 0
M  V30 2273 N 208.091 -2.23891 -1.8526 0
M  V30 2274 H 207.638 -2.38621 -0.970449 0
M  V30 2275 H 207.596 -1.78181 -2.59034 0
M  V30 2276 N 211.368 -0.403325 -1.52352 0
M  V30 2277 C 212.616 0.174003 -2.0135 0
M  V30 2278 C 212.937 1.46139 -1.29106 0
M  V30 2279 O 212.207 1.91448 -0.415253 0
M  V30 2280 H 210.787 0.0672911 -0.743963 0
M  V30 2281 H 213.449 -0.538235 -1.87321 0
M  V30 2282 H 212.545 0.374254 -3.09848 0
M  V30 2283 N 212.846 1.57033 -0.133567 0
M  V30 2284 C 214.123 1.87256 0.56522 0
M  V30 2285 C 214.503 1.03726 1.83859 0
M  V30 2286 O 213.851 0.120247 2.28183 0
M  V30 2287 C 214.061 3.3865 0.843636 0
M  V30 2288 C 215.409 4.07574 1.19032 0
M  V30 2289 O 216.433 3.43752 0.933429 0
M  V30 2290 O 215.292 5.20259 1.67312 0
M  V30 2291 H 212.386 0.775678 0.286796 0
M  V30 2292 H 214.932 1.68855 -0.169168 0
M  V30 2293 H 213.704 3.91257 -0.0581149 0
M  V30 2294 H 213.327 3.62532 1.63268 0
M  V30 2295 N 214.325 -0.140222 1.56975 0
M  V30 2296 C 215.736 -0.699596 1.73097 0
M  V30 2297 C 216.087 -1.8134 0.749022 0
M  V30 2298 O 215.212 -2.16241 -0.0828503 0
M  V30 2299 C 215.807 -1.27582 3.1386 0
M  V30 2300 C 214.366 -1.78169 3.31561 0
M  V30 2301 C 213.513 -0.672855 2.69013 0
M  V30 2302 H 216.464 0.0855115 1.58469 0
M  V30 2303 H 216.485 -2.14561 3.14235 0
M  V30 2304 H 215.997 -0.464955 3.85305 0
M  V30 2305 H 214.098 -2.61801 2.65124 0
M  V30 2306 H 214.211 -1.90574 4.39566 0
M  V30 2307 H 212.575 -1.10118 2.29665 0
M  V30 2308 H 213.358 0.126679 3.43066 0
M  V30 2309 N 215.803 -1.52179 -0.40978 0
M  V30 2310 C 217.028 -1.70347 -1.18308 0
M  V30 2311 C 217.453 -0.411887 -1.83535 0
M  V30 2312 O 216.811 0.630587 -1.6998 0
M  V30 2313 C 216.859 -2.83977 -2.22238 0
M  V30 2314 O 215.963 -2.495 -3.28365 0
M  V30 2315 H 215.304 -0.567103 -0.345384 0
M  V30 2316 H 217.834 -1.98879 -0.480445 0
M  V30 2317 H 217.844 -3.0887 -2.66577 0
M  V30 2318 H 216.519 -3.77685 -1.74146 0
M  V30 2319 H 215.096 -2.35277 -2.89308 0
M  V30 2320 N 217.281 0.66697 -1.42791 0
M  V30 2321 C 218.229 1.80157 -1.47127 0
M  V30 2322 C 219.223 1.65825 -0.346199 0
M  V30 2323 O 220.429 1.72338 -0.519572 0
M  V30 2324 H 216.804 0.594158 -0.460956 0
M  V30 2325 H 218.775 1.73619 -2.42692 0
M  V30 2326 C 217.524 3.18351 -1.39813 0
M  V30 2327 H 216.847 3.3001 -2.25684 0
M  V30 2328 H 218.287 3.97736 -1.46908 0
M  V30 2329 C 216.746 3.36707 -0.11391 0
M  V30 2330 O 217.276 3.93027 0.830241 0
M  V30 2331 N 215.482 2.90586 -0.0285295 0
M  V30 2332 H 215.029 2.4494 -0.79764 0
M  V30 2333 H 214.987 3.03245 0.830063 0
M  V30 2334 N 218.759 1.29093 0.90403 0
M  V30 2335 C 220.036 1.075 1.63411 0
M  V30 2336 C 220.416 -0.382346 2.07609 0
M  V30 2337 O 219.764 -1.37031 1.82851 0
M  V30 2338 C 219.974 2.05858 2.81822 0
M  V30 2339 C 221.322 2.36539 3.52611 0
M  V30 2340 O 222.346 2.04019 2.91984 0
M  V30 2341 O 221.205 2.92085 4.61897 0
M  V30 2342 H 218.299 0.411547 0.717327 0
M  V30 2343 H 220.845 1.40449 0.952479 0
M  V30 2344 H 219.617 3.04037 2.46327 0
M  V30 2345 H 219.24 1.73613 3.57693 0
M  V30 2346 N 220.237 -1.11381 1.11499 0
M  V30 2347 C 221.648 -1.6465 0.880191 0
M  V30 2348 C 221.999 -1.87199 -0.587434 0
M  V30 2349 O 221.124 -1.60667 -1.44966 0
M  V30 2350 C 221.719 -2.99105 1.59128 0
M  V30 2351 C 220.278 -3.49279 1.40289 0
M  V30 2352 C 219.425 -2.24077 1.63354 0
M  V30 2353 H 222.376 -0.950123 1.27116 0
M  V30 2354 H 222.397 -3.66107 1.03664 0
M  V30 2355 H 221.909 -2.82661 2.65941 0
M  V30 2356 H 220.01 -3.70887 0.356888 0
M  V30 2357 H 220.123 -4.2803 2.15238 0
M  V30 2358 H 218.487 -2.31733 1.05698 0
M  V30 2359 H 219.27 -2.10175 2.71443 0
M  V30 2360 N 221.715 -0.905404 -1.28997 0
M  V30 2361 C 223.126 -0.581953 -1.77398 0
M  V30 2362 C 223.477 0.902552 -1.74208 0
M  V30 2363 O 222.602 1.70584 -1.33154 0
M  V30 2364 C 223.197 -1.04961 -3.22131 0
M  V30 2365 C 221.756 -0.777229 -3.68288 0
M  V30 2366 C 220.903 -1.22109 -2.48967 0
M  V30 2367 H 223.854 -1.08754 -1.15578 0
M  V30 2368 H 223.875 -0.387387 -3.78523 0
M  V30 2369 H 223.387 -2.13008 -3.24421 0
M  V30 2370 H 221.488 0.290383 -3.71467 0
M  V30 2371 H 221.601 -1.37911 -4.58822 0
M  V30 2372 H 219.965 -0.639971 -2.46529 0
M  V30 2373 H 220.748 -2.30972 -2.53982 0
M  V30 2374 N 223.193 1.4272 -0.668489 0
M  V30 2375 C 224.441 2.01226 -0.187769 0
M  V30 2376 C 224.762 1.53092 1.2078 0
M  V30 2377 O 224.032 0.74993 1.80977 0
M  V30 2378 H 222.612 0.744041 -0.0664272 0
M  V30 2379 H 225.274 1.74723 -0.863583 0
M  V30 2380 H 224.37 3.11556 -0.184166 0
M  V30 2381 N 224.671 0.411399 1.52136 0
M  V30 2382 C 225.899 -0.163076 2.06256 0
M  V30 2383 C 226.314 -1.3867 1.28125 0
M  V30 2384 O 225.671 -1.79423 0.333721 0
M  V30 2385 C 225.722 -0.511252 3.57867 0
M  V30 2386 O 225.443 0.66378 4.33042 0
M  V30 2387 C 226.944 -1.13921 4.28412 0
M  V30 2388 H 224.164 -0.0193897 0.67072 0
M  V30 2389 H 226.708 0.583007 1.96013 0
M  V30 2390 H 224.863 -1.20723 3.6811 0
M  V30 2391 H 225.277 0.372601 5.23175 0
M  V30 2392 H 226.751 -1.33302 5.35663 0
M  V30 2393 H 227.228 -2.11296 3.85033 0
M  V30 2394 H 227.834 -0.483373 4.22544 0
M  V30 2395 N 226.149 -1.5696 0.141893 0
M  V30 2396 C 227.059 -2.20066 -0.812905 0
M  V30 2397 C 228.075 -1.18344 -1.27557 0
M  V30 2398 O 229.251 -1.50902 -1.33381 0
M  V30 2399 C 226.316 -2.80583 -2.03652 0
M  V30 2400 C 225.377 -3.97414 -1.62359 0
M  V30 2401 C 224.61 -4.55036 -2.78887 0
M  V30 2402 O 224.833 -4.11538 -3.94959 0
M  V30 2403 O 223.767 -5.45376 -2.54653 0
M  V30 2404 H 227.593 -3.02157 -0.305746 0
M  V30 2405 H 225.178 -1.49159 -0.0848799 0
M  V30 2406 H 227.06 -3.19067 -2.75272 0
M  V30 2407 H 225.735 -2.01508 -2.5333 0
M  V30 2408 H 224.642 -3.63656 -0.877775 0
M  V30 2409 H 225.975 -4.77994 -1.17401 0
M  V30 2410 N 227.627 0.131896 -1.57047 0
M  V30 2411 C 228.559 1.1878 -1.9602 0
M  V30 2412 C 229.572 1.38363 -0.857875 0
M  V30 2413 O 230.761 1.37666 -1.13623 0
M  V30 2414 C 227.861 2.55008 -2.23213 0
M  V30 2415 C 227.034 2.56201 -3.54513 0
M  V30 2416 C 226.093 3.7408 -3.70069 0
M  V30 2417 O 225.119 3.58258 -4.42312 0
M  V30 2418 N 226.321 4.92137 -3.07866 0
M  V30 2419 H 229.086 0.85639 -2.87204 0
M  V30 2420 H 226.647 0.321309 -1.5868 0
M  V30 2421 H 228.639 3.32404 -2.30846 0
M  V30 2422 H 227.209 2.80382 -1.3822 0
M  V30 2423 H 226.429 1.64613 -3.58185 0
M  V30 2424 H 227.717 2.54043 -4.4084 0
M  V30 2425 H 227.115 5.07895 -2.49116 0
M  V30 2426 H 225.672 5.67254 -3.21039 0
M  V30 2427 N 229.106 1.52395 0.401703 0
M  V30 2428 C 230.352 1.68019 1.14635 0
M  V30 2429 C 230.707 0.408722 1.88009 0
M  V30 2430 O 230 -0.597133 1.82057 0
M  V30 2431 C 230.194 2.84578 2.16217 0
M  V30 2432 C 230.023 4.22938 1.5282 0
M  V30 2433 C 228.793 4.88352 1.29772 0
M  V30 2434 C 230.991 5.04778 0.985094 0
M  V30 2435 N 228.973 6.10726 0.623455 0
M  V30 2436 C 230.344 6.1845 0.438172 0
M  V30 2437 C 232.399 4.90057 0.880275 0
M  V30 2438 C 231.102 7.19013 -0.203306 0
M  V30 2439 C 233.128 5.9086 0.252639 0
M  V30 2440 C 232.49 7.03829 -0.283573 0
M  V30 2441 H 228.589 0.668413 0.405892 0
M  V30 2442 H 231.173 1.89717 0.437674 0
M  V30 2443 H 229.344 2.64483 2.84435 0
M  V30 2444 H 231.076 2.89202 2.83098 0
M  V30 2445 H 227.831 4.46846 1.56926 0
M  V30 2446 H 228.255 6.76323 0.302733 0
M  V30 2447 H 232.897 4.02938 1.28065 0
M  V30 2448 H 230.615 8.05751 -0.615726 0
M  V30 2449 H 234.201 5.81543 0.172954 0
M  V30 2450 H 233.081 7.80493 -0.761575 0
M  V30 2451 N 230.584 -0.659388 1.43143 0
M  V30 2452 C 231.547 -1.75432 1.47501 0
M  V30 2453 C 232.547 -1.56707 0.360512 0
M  V30 2454 O 233.737 -1.62717 0.622002 0
M  V30 2455 C 230.869 -3.14239 1.32162 0
M  V30 2456 H 232.062 -1.7295 2.45006 0
M  V30 2457 H 229.615 -0.870469 1.29817 0
M  V30 2458 H 230.35 -3.22336 0.356401 0
M  V30 2459 H 230.135 -3.29235 2.12948 0
M  V30 2460 H 231.625 -3.94094 1.3813 0
M  V30 2461 N 232.062 -1.29571 -0.897171 0
M  V30 2462 C 233.009 -1.14916 -2.00158 0
M  V30 2463 C 233.979 -0.0418149 -1.66047 0
M  V30 2464 O 235.164 -0.209793 -1.89643 0
M  V30 2465 C 232.304 -0.834307 -3.34863 0
M  V30 2466 C 231.417 -2.02234 -3.8174 0
M  V30 2467 C 230.552 -1.64664 -5.05034 0
M  V30 2468 C 229.591 -2.80033 -5.44286 0
M  V30 2469 N 228.728 -2.42843 -6.58765 0
M  V30 2470 H 233.568 -2.09403 -2.12025 0
M  V30 2471 H 231.105 -1.042 -1.0383 0
M  V30 2472 H 233.063 -0.632436 -4.12379 0
M  V30 2473 H 231.693 0.0736656 -3.22716 0
M  V30 2474 H 230.745 -2.33583 -3.00238 0
M  V30 2475 H 232.057 -2.88673 -4.06779 0
M  V30 2476 H 231.211 -1.4078 -5.9014 0
M  V30 2477 H 229.95 -0.753766 -4.8184 0
M  V30 2478 H 228.955 -3.04596 -4.57713 0
M  V30 2479 H 230.18 -3.69989 -5.6946 0
M  V30 2480 H 228.126 -1.56046 -6.3717 0
M  V30 2481 H 228.043 -3.22815 -6.83613 0
M  V30 2482 H 229.311 -2.22285 -7.47134 0
M  V30 2483 N 233.54 1.10788 -1.12088 0
M  V30 2484 C 234.817 1.79136 -0.785476 0
M  V30 2485 C 235.197 1.98246 0.725377 0
M  V30 2486 O 234.545 1.57258 1.65778 0
M  V30 2487 C 234.755 3.12375 -1.55636 0
M  V30 2488 C 236.103 3.8731 -1.74001 0
M  V30 2489 O 237.127 3.22085 -1.52117 0
M  V30 2490 O 235.986 5.04369 -2.10415 0
M  V30 2491 H 233.08 0.776226 -0.285311 0
M  V30 2492 H 235.626 1.1747 -1.2247 0
M  V30 2493 H 234.398 2.93863 -2.5838 0
M  V30 2494 H 234.021 3.81758 -1.11114 0
M  V30 2495 N 235.018 0.912232 1.28515 0
M  V30 2496 C 235.981 0.404223 2.25607 0
M  V30 2497 C 236.981 -0.468602 1.53821 0
M  V30 2498 O 238.171 -0.271873 1.72065 0
M  V30 2499 C 235.303 -0.420653 3.38295 0
M  V30 2500 H 236.496 1.26188 2.7206 0
M  V30 2501 H 234.049 0.691495 1.40171 0
M  V30 2502 H 234.784 -1.29777 2.97201 0
M  V30 2503 H 234.569 0.204935 3.91564 0
M  V30 2504 H 236.059 -0.766971 4.10496 0
M  V30 2505 N 236.496 -1.42363 0.676048 0
M  V30 2506 C 237.912 -1.55811 0.345718 0
M  V30 2507 C 238.112 -1.65544 -1.14879 0
M  V30 2508 O 237.168 -1.62306 -1.93424 0
M  V30 2509 C 238.481 -2.80746 1.07713 0
M  V30 2510 C 240.029 -2.9452 1.05958 0
M  V30 2511 C 240.504 -4.22318 1.77233 0
M  V30 2512 N 241.995 -4.29233 1.74108 0
M  V30 2513 C 242.73 -5.26935 2.26113 0
M  V30 2514 N 242.226 -6.30783 2.86505 0
M  V30 2515 N 244.019 -5.18741 2.1648 0
M  V30 2516 H 236.17 -1.34289 1.6456 0
M  V30 2517 H 238.433 -0.646506 0.69335 0
M  V30 2518 H 238.139 -2.79696 2.13221 0
M  V30 2519 H 238.013 -3.71676 0.64316 0
M  V30 2520 H 240.4 -2.95097 0.0128255 0
M  V30 2521 H 240.481 -2.04817 1.53244 0
M  V30 2522 H 240.125 -4.22502 2.81877 0
M  V30 2523 H 240.055 -5.10958 1.27396 0
M  V30 2524 H 242.546 -3.54814 1.30059 0
M  V30 2525 H 242.859 -7.01691 3.23805 0
M  V30 2526 H 241.204 -6.31341 2.90575 0
M  V30 2527 H 244.395 -4.36533 1.68987 0
M  V30 2528 H 244.568 -5.94721 2.57316 0
M  V30 2529 N 237.974 -0.419461 -1.51915 0
M  V30 2530 C 239.385 0.0477853 -1.86639 0
M  V30 2531 C 239.736 1.43531 -1.33766 0
M  V30 2532 O 238.861 2.05401 -0.68113 0
M  V30 2533 C 239.456 0.0934885 -3.38671 0
M  V30 2534 C 238.015 0.505097 -3.72996 0
M  V30 2535 C 237.162 -0.313792 -2.75519 0
M  V30 2536 H 240.113 -0.636088 -1.45395 0
M  V30 2537 H 240.134 0.906667 -3.6954 0
M  V30 2538 H 239.646 -0.916501 -3.77123 0
M  V30 2539 H 237.747 1.52135 -3.40126 0
M  V30 2540 H 237.86 0.242309 -4.78487 0
M  V30 2541 H 236.224 0.225363 -2.53701 0
M  V30 2542 H 237.007 -1.32232 -3.16812 0
M  V30 2543 N 239.452 1.56882 -0.150215 0
M  V30 2544 C 240.868 1.58263 0.20617 0
M  V30 2545 C 241.068 1.16464 1.64434 0
M  V30 2546 O 240.124 0.866422 2.3717 0
M  V30 2547 C 241.437 3.00649 -0.0555025 0
M  V30 2548 C 242.985 3.12999 0.00795388 0
M  V30 2549 C 243.46 4.5744 -0.226429 0
M  V30 2550 N 244.951 4.62875 -0.173469 0
M  V30 2551 C 245.686 5.72454 -0.329288 0
M  V30 2552 N 245.182 6.90669 -0.543005 0
M  V30 2553 N 246.975 5.61467 -0.266666 0
M  V30 2554 H 239.126 1.82345 -1.08922 0
M  V30 2555 H 241.389 0.844149 -0.431413 0
M  V30 2556 H 241.095 3.3563 -1.05096 0
M  V30 2557 H 240.969 3.71337 0.66246 0
M  V30 2558 H 243.356 2.77857 0.993966 0
M  V30 2559 H 243.437 2.4479 -0.742388 0
M  V30 2560 H 243.081 4.93287 -1.20956 0
M  V30 2561 H 243.011 5.2378 0.544274 0
M  V30 2562 H 245.502 3.77898 -0.0130709 0
M  V30 2563 H 245.815 7.70045 -0.651922 0
M  V30 2564 H 244.16 6.92581 -0.579366 0
M  V30 2565 H 247.351 4.67992 -0.100441 0
M  V30 2566 H 247.524 6.46816 -0.391535 0
M  V30 2567 N 240.93 -0.123565 1.57115 0
M  V30 2568 C 241.88 -1.1575 1.96433 0
M  V30 2569 C 242.864 -1.37313 0.838686 0
M  V30 2570 O 244.056 -1.38482 1.10235 0
M  V30 2571 C 241.185 -2.48526 2.36833 0
M  V30 2572 C 240.271 -2.30457 3.5602 0
M  V30 2573 N 240.662 -1.8219 4.71848 0
M  V30 2574 C 238.96 -2.61129 3.61563 0
M  V30 2575 C 239.661 -1.77721 5.53886 0
M  V30 2576 N 238.637 -2.21899 4.96248 0
M  V30 2577 H 242.439 -0.776797 2.83449 0
M  V30 2578 H 239.953 -0.331364 1.58983 0
M  V30 2579 H 241.95 -3.233 2.63216 0
M  V30 2580 H 240.61 -2.87358 1.5118 0
M  V30 2581 H 241.621 -1.51805 4.95152 0
M  V30 2582 H 238.298 -3.03678 2.86507 0
M  V30 2583 H 239.688 -1.41697 6.56789 0
M  V30 2584 N 242.408 -1.52605 -0.393616 0
M  V30 2585 C 243.685 -1.58001 -1.15304 0
M  V30 2586 C 244.065 -0.370385 -2.07825 0
M  V30 2587 O 243.413 0.641638 -2.19306 0
M  V30 2588 C 243.623 -2.91652 -1.91677 0
M  V30 2589 C 244.971 -3.4522 -2.47201 0
M  V30 2590 O 245.995 -2.93495 -2.01839 0
M  V30 2591 O 244.854 -4.35579 -3.3005 0
M  V30 2592 H 241.948 -0.637068 -0.527327 0
M  V30 2593 H 244.494 -1.64939 -0.399141 0
M  V30 2594 H 243.266 -3.71136 -1.23992 0
M  V30 2595 H 242.889 -2.88077 -2.74039 0
M  V30 2596 N 243.887 0.651787 -1.4349 0
M  V30 2597 C 245.112 1.44434 -1.48841 0
M  V30 2598 C 245.537 1.8779 -0.107955 0
M  V30 2599 O 244.895 1.57464 0.898602 0
M  V30 2600 C 244.943 2.65458 -2.44059 0
M  V30 2601 O 244.047 3.64566 -1.92784 0
M  V30 2602 H 243.388 0.433005 -0.503391 0
M  V30 2603 H 245.918 0.797451 -1.88419 0
M  V30 2604 H 245.928 3.13255 -2.6141 0
M  V30 2605 H 244.603 2.33244 -3.4434 0
M  V30 2606 H 243.18 3.23716 -1.851 0
M  V30 2607 N 245.365 1.30045 0.890287 0
M  V30 2608 C 246.612 1.18561 1.64163 0
M  V30 2609 C 246.94 -0.260852 1.92743 0
M  V30 2610 O 246.195 -1.20376 1.54299 0
M  V30 2611 C 246.494 1.95409 2.99249 0
M  V30 2612 C 246.16 3.45066 2.90242 0
M  V30 2613 C 244.822 3.85878 2.87492 0
M  V30 2614 C 247.174 4.4039 2.78758 0
M  V30 2615 C 244.502 5.20314 2.7109 0
M  V30 2616 C 246.854 5.74928 2.63894 0
M  V30 2617 C 245.518 6.14986 2.59516 0
M  V30 2618 H 244.788 0.433846 0.600715 0
M  V30 2619 H 247.435 1.61088 1.03552 0
M  V30 2620 H 245.74 1.45501 3.63781 0
M  V30 2621 H 247.437 1.8392 3.56334 0
M  V30 2622 H 244.027 3.12631 2.93189 0
M  V30 2623 H 248.211 4.09806 2.79952 0
M  V30 2624 H 243.467 5.50449 2.66112 0
M  V30 2625 H 247.641 6.48434 2.53981 0
M  V30 2626 H 245.268 7.19104 2.46565 0
M  V30 2627 N 246.843 -1.10192 1.12674 0
M  V30 2628 C 248.073 -1.85713 0.905213 0
M  V30 2629 C 248.481 -1.81056 -0.549108 0
M  V30 2630 O 247.824 -1.19927 -1.39151 0
M  V30 2631 C 247.886 -3.34972 1.30516 0
M  V30 2632 C 247.55 -3.63385 2.77129 0
M  V30 2633 C 248.547 -3.59772 3.75313 0
M  V30 2634 C 246.232 -3.91981 3.14096 0
M  V30 2635 C 248.226 -3.84354 5.08479 0
M  V30 2636 C 245.913 -4.16218 4.47443 0
M  V30 2637 C 246.911 -4.12395 5.44444 0
M  V30 2638 O 246.599 -4.36014 6.75387 0
M  V30 2639 H 246.331 -0.593719 0.323223 0
M  V30 2640 H 248.885 -1.40198 1.50112 0
M  V30 2641 H 247.115 -3.81156 0.652463 0
M  V30 2642 H 248.804 -3.91886 1.05736 0
M  V30 2643 H 249.57 -3.37716 3.48099 0
M  V30 2644 H 245.449 -3.94085 2.39202 0
M  V30 2645 H 248.993 -3.81285 5.84181 0
M  V30 2646 H 244.89 -4.37754 4.74386 0
M  V30 2647 H 245.658 -4.53516 6.8137 0
M  V30 2648 N 248.321 -0.919034 -1.28029 0
M  V30 2649 C 249.569 -0.553838 -1.94363 0
M  V30 2650 C 249.89 0.906357 -1.72656 0
M  V30 2651 O 249.16 1.64143 -1.0693 0
M  V30 2652 H 247.74 -0.201834 -0.719216 0
M  V30 2653 H 250.402 -1.16954 -1.55909 0
M  V30 2654 H 249.498 -0.752758 -3.02886 0
M  V30 2655 N 249.799 1.42003 -0.683588 0
M  V30 2656 C 251.047 2.01015 -0.209101 0
M  V30 2657 C 251.368 1.54365 1.19149 0
M  V30 2658 O 250.638 0.769083 1.80172 0
M  V30 2659 H 249.218 0.743294 -0.074315 0
M  V30 2660 H 251.88 1.73798 -0.882066 0
M  V30 2661 H 250.976 3.11343 -0.2172 0
M  V30 2662 N 251.277 0.427512 1.51691 0
M  V30 2663 C 252.554 -0.201684 1.94557 0
M  V30 2664 C 252.934 -1.60981 1.36559 0
M  V30 2665 O 252.282 -2.21814 0.548702 0
M  V30 2666 C 252.492 -0.189394 3.48486 0
M  V30 2667 C 253.84 -0.39978 4.22714 0
M  V30 2668 O 254.864 -0.267945 3.55191 0
M  V30 2669 O 253.723 -0.661249 5.42485 0
M  V30 2670 H 250.817 -0.135261 0.815864 0
M  V30 2671 H 253.363 0.484782 1.62628 0
M  V30 2672 H 252.135 0.795431 3.8313 0
M  V30 2673 H 251.758 -0.919187 3.86829 0
M  V30 2674 N 252.755 -1.56801 0.158532 0
M  V30 2675 C 253.685 -2.20347 -0.772609 0
M  V30 2676 C 254.666 -1.15518 -1.24859 0
M  V30 2677 O 255.851 -1.43902 -1.30406 0
M  V30 2678 C 252.981 -2.83417 -2.00729 0
M  V30 2679 C 251.935 -3.94174 -1.66765 0
M  V30 2680 C 251.261 -4.44233 -2.97592 0
M  V30 2681 C 252.561 -5.14392 -0.905447 0
M  V30 2682 H 254.255 -2.98413 -0.242959 0
M  V30 2683 H 251.801 -1.43537 -0.115419 0
M  V30 2684 H 253.754 -3.26543 -2.6636 0
M  V30 2685 H 252.478 -2.02701 -2.56086 0
M  V30 2686 H 251.137 -3.51684 -1.03508 0
M  V30 2687 H 250.785 -3.60325 -3.50963 0
M  V30 2688 H 250.485 -5.18945 -2.75626 0
M  V30 2689 H 252.009 -4.90037 -3.64274 0
M  V30 2690 H 253.423 -5.5429 -1.46408 0
M  V30 2691 H 251.82 -5.9494 -0.7853 0
M  V30 2692 H 252.89 -4.84795 0.100668 0
M  V30 2693 N 254.233 0.115231 -1.57178 0
M  V30 2694 C 255.18 1.14115 -2.00615 0
M  V30 2695 C 256.15 1.40939 -0.878941 0
M  V30 2696 O 257.335 1.52741 -1.14345 0
M  V30 2697 C 254.475 2.46156 -2.4187 0
M  V30 2698 C 253.588 2.26236 -3.68024 0
M  V30 2699 C 252.723 3.51534 -3.98243 0
M  V30 2700 C 251.762 3.26787 -5.17568 0
M  V30 2701 N 250.899 4.44298 -5.43639 0
M  V30 2702 H 255.739 0.763743 -2.88047 0
M  V30 2703 H 253.276 0.365615 -1.42484 0
M  V30 2704 H 255.234 3.23189 -2.63827 0
M  V30 2705 H 253.864 2.81783 -1.57475 0
M  V30 2706 H 252.916 1.40102 -3.5366 0
M  V30 2707 H 254.228 2.03929 -4.55208 0
M  V30 2708 H 253.382 4.36984 -4.20868 0
M  V30 2709 H 252.121 3.76876 -3.09541 0
M  V30 2710 H 251.126 2.39729 -4.94783 0
M  V30 2711 H 252.351 3.02812 -6.0785 0
M  V30 2712 H 250.297 4.69754 -4.57895 0
M  V30 2713 H 250.214 4.25109 -6.25154 0
M  V30 2714 H 251.482 5.3087 -5.70786 0
M  V30 2715 N 255.711 1.52812 0.385517 0
M  V30 2716 C 256.959 1.67694 1.12797 0
M  V30 2717 C 257.28 0.421115 1.90399 0
M  V30 2718 O 256.55 -0.564551 1.87589 0
M  V30 2719 H 255.13 0.618155 0.419396 0
M  V30 2720 H 257.792 1.89938 0.436972 0
M  V30 2721 H 256.888 2.52896 1.82894 0
M  V30 2722 N 257.189 -0.644168 1.43834 0
M  V30 2723 C 258.435 -1.40603 1.46146 0
M  V30 2724 C 258.768 -1.93997 0.0887717 0
M  V30 2725 O 258.043 -1.72854 -0.891724 0
M  V30 2726 C 258.326 -2.58086 2.51124 0
M  V30 2727 C 258.179 -2.10126 3.97702 0
M  V30 2728 C 259.498 -3.60291 2.52742 0
M  V30 2729 H 256.617 -0.509905 0.532134 0
M  V30 2730 H 259.259 -0.729502 1.75437 0
M  V30 2731 H 257.409 -3.15801 2.26278 0
M  V30 2732 H 259.081 -1.57342 4.33637 0
M  V30 2733 H 257.324 -1.41419 4.10101 0
M  V30 2734 H 257.995 -2.94649 4.66783 0
M  V30 2735 H 260.471 -3.12352 2.7491 0
M  V30 2736 H 259.347 -4.40032 3.28121 0
M  V30 2737 H 259.608 -4.1349 1.56455 0
M  V30 2738 N 258.668 -1.30515 -0.883378 0
M  V30 2739 C 259.917 -1.18795 -1.63005 0
M  V30 2740 C 260.23 0.255923 -1.93919 0
M  V30 2741 O 261.436 0.494654 -2.66956 0
M  V30 2742 C 259.892 -2.07878 -2.93794 0
M  V30 2743 C 259.5 -3.57184 -2.70414 0
M  V30 2744 C 261.244 -2.04924 -3.71761 0
M  V30 2745 C 259.151 -4.38317 -3.97029 0
M  V30 2746 H 258.081 -0.441031 -0.611562 0
M  V30 2747 H 260.732 -1.55275 -0.977854 0
M  V30 2748 H 259.114 -1.64283 -3.60315 0
M  V30 2749 H 260.288 -4.08937 -2.12384 0
M  V30 2750 H 258.603 -3.61976 -2.0582 0
M  V30 2751 H 261.2 -2.62792 -4.65665 0
M  V30 2752 H 261.543 -1.0331 -4.03277 0
M  V30 2753 H 262.076 -2.46649 -3.12104 0
M  V30 2754 H 258.815 -5.40632 -3.70671 0
M  V30 2755 H 258.335 -3.91326 -4.54559 0
M  V30 2756 H 260.014 -4.49834 -4.65036 0
M  V30 2757 N 260.146 1.09593 -1.13257 0
M  V30 2758 C 261.423 1.78293 -0.804432 0
M  V30 2759 C 261.803 1.99004 0.70431 0
M  V30 2760 O 261.151 1.59007 1.641 0
M  V30 2761 C 261.361 3.10707 -1.5894 0
M  V30 2762 C 262.709 3.85443 -1.78099 0
M  V30 2763 O 263.733 3.20454 -1.55525 0
M  V30 2764 O 262.592 5.02108 -2.15753 0
M  V30 2765 H 259.686 0.773156 -0.293528 0
M  V30 2766 H 262.232 1.16164 -1.23709 0
M  V30 2767 H 261.004 2.91106 -2.61482 0
M  V30 2768 H 260.627 3.80558 -1.15157 0
M  V30 2769 N 261.624 0.925811 1.2754 0
M  V30 2770 C 263.04 0.625767 1.46821 0
M  V30 2771 C 263.24 -0.825506 1.83814 0
M  V30 2772 O 262.296 -1.60356 1.95044 0
M  V30 2773 C 263.609 1.57402 2.56213 0
M  V30 2774 C 265.157 1.58204 2.70075 0
M  V30 2775 C 265.632 2.51721 3.82623 0
M  V30 2776 N 267.123 2.49917 3.89994 0
M  V30 2777 C 267.858 3.18968 4.76494 0
M  V30 2778 N 267.354 3.97391 5.67496 0
M  V30 2779 N 269.147 3.07996 4.70208 0
M  V30 2780 H 261.298 1.86409 1.01811 0
M  V30 2781 H 263.561 0.800213 0.508295 0
M  V30 2782 H 263.267 2.60925 2.35819 0
M  V30 2783 H 263.141 1.31428 3.53563 0
M  V30 2784 H 265.528 0.554124 2.89851 0
M  V30 2785 H 265.609 1.88226 1.73218 0
M  V30 2786 H 265.253 3.54622 3.63601 0
M  V30 2787 H 265.183 2.18996 4.78903 0
M  V30 2788 H 267.674 1.9296 3.24923 0
M  V30 2789 H 267.987 4.4707 6.30356 0
M  V30 2790 H 266.332 4.01495 5.67298 0
M  V30 2791 H 269.523 2.46223 3.9811 0
M  V30 2792 H 269.696 3.6208 5.37403 0
M  V30 2793 N 263.102 -1.41638 0.69111 0
M  V30 2794 C 264.032 -2.3347 0.037248 0
M  V30 2795 C 265.013 -1.51575 -0.771947 0
M  V30 2796 O 266.198 -1.80126 -0.72582 0
M  V30 2797 C 263.328 -3.35354 -0.903064 0
M  V30 2798 C 262.282 -4.27526 -0.201288 0
M  V30 2799 C 261.608 -5.19747 -1.25565 0
M  V30 2800 C 262.908 -5.13959 0.929689 0
M  V30 2801 H 264.602 -2.88397 0.804227 0
M  V30 2802 H 262.148 -1.38669 0.388189 0
M  V30 2803 H 264.101 -3.98519 -1.36969 0
M  V30 2804 H 262.825 -2.78767 -1.70166 0
M  V30 2805 H 261.484 -3.65779 0.245265 0
M  V30 2806 H 261.132 -4.59479 -2.04666 0
M  V30 2807 H 260.832 -5.8225 -0.791128 0
M  V30 2808 H 262.356 -5.85789 -1.72288 0
M  V30 2809 H 263.77 -5.70718 0.543546 0
M  V30 2810 H 262.167 -5.85379 1.32103 0
M  V30 2811 H 263.237 -4.51389 1.77133 0
M  V30 2812 N 264.58 -0.43555 -1.51462 0
M  V30 2813 C 265.991 0.0279871 -1.86679 0
M  V30 2814 C 266.342 1.42104 -1.35281 0
M  V30 2815 O 265.467 2.04667 -0.702878 0
M  V30 2816 C 266.062 0.0575626 -3.38751 0
M  V30 2817 C 264.621 0.465507 -3.7351 0
M  V30 2818 C 263.768 -0.342996 -2.75171 0
M  V30 2819 H 266.719 -0.651473 -1.44712 0
M  V30 2820 H 266.74 0.867421 -3.70481 0
M  V30 2821 H 266.252 -0.956448 -3.7613 0
M  V30 2822 H 264.353 1.48519 -3.41721 0
M  V30 2823 H 264.466 0.191546 -4.78717 0
M  V30 2824 H 262.83 0.198442 -2.53926 0
M  V30 2825 H 263.613 -1.35585 -3.15391 0
M  V30 2826 N 266.058 1.56714 -0.166846 0
M  V30 2827 C 267.288 2.00828 0.48494 0
M  V30 2828 C 267.696 1.04612 1.57648 0
M  V30 2829 O 267.039 0.0383201 1.8366 0
M  V30 2830 C 267.101 3.4137 1.12723 0
M  V30 2831 C 266.765 4.56654 0.177886 0
M  V30 2832 C 267.762 5.16402 -0.60207 0
M  V30 2833 C 265.447 5.02244 0.0750139 0
M  V30 2834 C 267.441 6.20167 -1.47215 0
M  V30 2835 C 265.128 6.05859 -0.798649 0
M  V30 2836 C 266.126 6.64691 -1.57082 0
M  V30 2837 O 265.814 7.66297 -2.42989 0
M  V30 2838 H 265.546 0.663587 0.128953 0
M  V30 2839 H 268.1 2.03692 -0.264365 0
M  V30 2840 H 266.33 3.35406 1.92457 0
M  V30 2841 H 268.019 3.69466 1.68076 0
M  V30 2842 H 268.785 4.82065 -0.53274 0
M  V30 2843 H 264.664 4.56167 0.665812 0
M  V30 2844 H 268.208 6.66016 -2.07531 0
M  V30 2845 H 264.105 6.39621 -0.869199 0
M  V30 2846 H 264.873 7.83601 -2.36455 0
M  V30 2847 N 267.536 -0.106894 1.57237 0
M  V30 2848 C 268.466 -1.13148 2.04254 0
M  V30 2849 C 269.447 -1.42476 0.929224 0
M  V30 2850 O 270.632 -1.52709 1.19973 0
M  V30 2851 C 267.762 -2.4545 2.45706 0
M  V30 2852 C 266.716 -2.30558 3.60592 0
M  V30 2853 C 266.042 -3.67931 3.87983 0
M  V30 2854 C 267.342 -1.75597 4.91897 0
M  V30 2855 H 269.036 -0.740374 2.90101 0
M  V30 2856 H 266.582 -0.354696 1.39563 0
M  V30 2857 H 268.535 -3.17389 2.77205 0
M  V30 2858 H 267.259 -2.86475 1.56843 0
M  V30 2859 H 265.918 -1.61067 3.29322 0
M  V30 2860 H 265.566 -4.06462 2.96306 0
M  V30 2861 H 265.266 -3.58817 4.65322 0
M  V30 2862 H 266.79 -4.41356 4.21945 0
M  V30 2863 H 268.204 -2.37364 5.21854 0
M  V30 2864 H 266.601 -1.77272 5.73319 0
M  V30 2865 H 267.671 -0.714451 4.79608 0
M  V30 2866 N 269.014 -1.53014 -0.377408 0
M  V30 2867 C 269.924 -1.81557 -1.48574 0
M  V30 2868 C 270.94 -0.703102 -1.59162 0
M  V30 2869 O 272.116 -0.99192 -1.75279 0
M  V30 2870 C 269.181 -1.9889 -2.83978 0
M  V30 2871 C 268.242 -3.22801 -2.83016 0
M  V30 2872 C 267.475 -3.39298 -4.11962 0
M  V30 2873 O 267.698 -2.60345 -5.0752 0
M  V30 2874 O 266.632 -4.32604 -4.18494 0
M  V30 2875 H 270.458 -2.75695 -1.27382 0
M  V30 2876 H 268.043 -1.38248 -0.566373 0
M  V30 2877 H 269.925 -2.11931 -3.6423 0
M  V30 2878 H 268.6 -1.07942 -3.05172 0
M  V30 2879 H 267.507 -3.15193 -2.01505 0
M  V30 2880 H 268.84 -4.13632 -2.66775 0
M  V30 2881 N 270.492 0.636531 -1.44174 0
M  V30 2882 C 271.402 1.77754 -1.53103 0
M  V30 2883 C 272.418 1.68928 -0.417034 0
M  V30 2884 O 273.594 1.89801 -0.6736 0
M  V30 2885 C 270.659 3.14115 -1.46741 0
M  V30 2886 C 269.72 3.34612 -2.68948 0
M  V30 2887 C 268.953 4.64467 -2.6288 0
M  V30 2888 O 269.176 5.44919 -1.68581 0
M  V30 2889 O 268.11 4.87049 -3.53648 0
M  V30 2890 H 271.936 1.73174 -2.49489 0
M  V30 2891 H 269.521 0.79709 -1.2636 0
M  V30 2892 H 271.403 3.95412 -1.45696 0
M  V30 2893 H 270.078 3.19249 -0.534975 0
M  V30 2894 H 268.985 2.53014 -2.75562 0
M  V30 2895 H 270.318 3.34336 -3.61221 0
M  V30 2896 N 271.97 1.30982 0.876444 0
M  V30 2897 C 272.9 1.20668 1.99903 0
M  V30 2898 C 273.881 0.095354 1.69833 0
M  V30 2899 O 275.066 0.27885 1.92188 0
M  V30 2900 C 272.196 0.90655 3.3526 0
M  V30 2901 C 271.15 1.97675 3.79617 0
M  V30 2902 C 270.476 1.52943 5.1236 0
M  V30 2903 C 271.776 3.389 3.97422 0
M  V30 2904 H 273.47 2.14586 2.0879 0
M  V30 2905 H 271.016 1.03308 1.00317 0
M  V30 2906 H 272.969 0.821025 4.13324 0
M  V30 2907 H 271.693 -0.0682969 3.26529 0
M  V30 2908 H 270.352 2.05205 3.03787 0
M  V30 2909 H 270 0.54262 5.00065 0
M  V30 2910 H 269.7 2.24532 5.43009 0
M  V30 2911 H 271.224 1.45786 5.92941 0
M  V30 2912 H 272.638 3.34081 4.659 0
M  V30 2913 H 271.035 4.0865 4.3946 0
M  V30 2914 H 272.105 3.80163 3.01006 0
M  V30 2915 N 273.449 -1.08991 1.13837 0
M  V30 2916 C 274.697 -1.80899 0.901098 0
M  V30 2917 C 275.018 -1.86356 -0.574134 0
M  V30 2918 O 274.288 -1.35235 -1.41733 0
M  V30 2919 H 272.868 -0.669966 0.330386 0
M  V30 2920 H 275.53 -1.318 1.43578 0
M  V30 2921 H 274.626 -2.83929 1.29578 0
M  V30 2922 N 274.927 -0.932562 -1.27047 0
M  V30 2923 C 276.173 -0.576412 -1.94436 0
M  V30 2924 C 276.506 0.880891 -1.73072 0
M  V30 2925 O 275.781 1.62905 -1.06264 0
M  V30 2926 C 276.064 -0.909031 -3.48437 0
M  V30 2927 C 275.917 -2.42044 -3.79123 0
M  V30 2928 C 277.236 -0.418341 -4.38107 0
M  V30 2929 H 274.355 -0.210888 -0.706184 0
M  V30 2930 H 276.997 -1.16522 -1.50075 0
M  V30 2931 H 275.147 -0.407947 -3.86352 0
M  V30 2932 H 276.819 -2.99359 -3.50973 0
M  V30 2933 H 275.062 -2.86758 -3.25503 0
M  V30 2934 H 275.733 -2.6037 -4.86736 0
M  V30 2935 H 278.209 -0.847856 -4.0737 0
M  V30 2936 H 277.085 -0.679981 -5.44672 0
M  V30 2937 H 277.346 0.681642 -4.36814 0
M  V30 2938 N 276.405 1.4127 -0.698611 0
M  V30 2939 C 277.633 2.05503 -0.239992 0
M  V30 2940 C 278.048 1.52584 1.11191 0
M  V30 2941 O 277.405 0.675323 1.69545 0
M  V30 2942 C 277.456 3.60987 -0.192429 0
M  V30 2943 O 277.177 4.1195 -1.49094 0
M  V30 2944 C 278.678 4.42371 0.28681 0
M  V30 2945 H 275.898 0.661748 -0.111045 0
M  V30 2946 H 278.442 1.80987 -0.95205 0
M  V30 2947 H 276.597 3.84533 0.470472 0
M  V30 2948 H 277.011 5.06018 -1.38007 0
M  V30 2949 H 278.485 5.51344 0.26896 0
M  V30 2950 H 278.962 4.18699 1.32619 0
M  V30 2951 H 279.568 4.23897 -0.345201 0
M  V30 2952 N 277.883 0.443576 1.51229 0
M  V30 2953 C 278.846 -0.353132 2.26463 0
M  V30 2954 C 279.846 -0.944338 1.3015 0
M  V30 2955 O 281.036 -0.817813 1.5381 0
M  V30 2956 C 278.168 -1.50023 3.06114 0
M  V30 2957 H 279.361 0.3063 2.98332 0
M  V30 2958 H 276.914 0.196902 1.55055 0
M  V30 2959 H 277.649 -2.19553 2.38677 0
M  V30 2960 H 277.434 -1.08241 3.76864 0
M  V30 2961 H 278.924 -2.06296 3.63087 0
M  V30 2962 N 279.361 -1.56624 0.175154 0
M  V30 2963 C 280.291 -2.21155 -0.749195 0
M  V30 2964 C 281.272 -1.16836 -1.23626 0
M  V30 2965 O 282.457 -1.45277 -1.28873 0
M  V30 2966 C 279.587 -2.8553 -1.97711 0
M  V30 2967 C 278.541 -3.95921 -1.62575 0
M  V30 2968 C 277.867 -4.47365 -2.92864 0
M  V30 2969 C 279.167 -5.15323 -0.850838 0
M  V30 2970 H 280.861 -2.98653 -0.211295 0
M  V30 2971 H 278.407 -1.43651 -0.100188 0
M  V30 2972 H 280.36 -3.2935 -2.62881 0
M  V30 2973 H 279.084 -2.05406 -2.53921 0
M  V30 2974 H 277.743 -3.52762 -0.997719 0
M  V30 2975 H 277.391 -3.64027 -3.47122 0
M  V30 2976 H 277.091 -5.21839 -2.70106 0
M  V30 2977 H 278.615 -4.93873 -3.59056 0
M  V30 2978 H 280.029 -5.55812 -1.40521 0
M  V30 2979 H 278.426 -5.95739 -0.722154 0
M  V30 2980 H 279.496 -4.84661 0.152082 0
M  V30 2981 N 280.839 0.0985539 -1.57292 0
M  V30 2982 C 282.069 0.815135 -1.8984 0
M  V30 2983 C 282.477 1.7297 -0.766679 0
M  V30 2984 O 281.82 1.81698 0.270483 0
M  V30 2985 C 281.882 1.6842 -3.17608 0
M  V30 2986 C 281.546 0.94182 -4.4719 0
M  V30 2987 C 282.543 0.273212 -5.19182 0
M  V30 2988 C 280.228 0.916927 -4.9386 0
M  V30 2989 C 282.222 -0.410361 -6.36078 0
M  V30 2990 C 279.909 0.229567 -6.10669 0
M  V30 2991 C 280.907 -0.432902 -6.81627 0
M  V30 2992 O 280.595 -1.10925 -7.9621 0
M  V30 2993 H 280.327 0.238501 -0.632529 0
M  V30 2994 H 282.881 0.0812659 -2.05239 0
M  V30 2995 H 281.111 2.46022 -2.98345 0
M  V30 2996 H 282.8 2.27704 -3.36015 0
M  V30 2997 H 283.566 0.283927 -4.84168 0
M  V30 2998 H 279.445 1.42201 -4.3852 0
M  V30 2999 H 282.989 -0.928013 -6.914 0
M  V30 3000 H 278.886 0.216686 -6.45136 0
M  V30 3001 H 279.654 -1.01579 -8.12172 0
M  V30 3002 N 282.317 1.53212 0.369288 0
M  V30 3003 C 283.564 1.69215 1.11232 0
M  V30 3004 C 283.892 0.442048 1.8941 0
M  V30 3005 O 283.147 -0.575944 1.87033 0
M  V30 3006 C 283.446 2.89101 2.10132 0
M  V30 3007 C 283.112 4.25758 1.48463 0
M  V30 3008 C 281.774 4.6292 1.31372 0
M  V30 3009 C 284.126 5.10757 1.03811 0
M  V30 3010 C 281.454 5.82722 0.68207 0
M  V30 3011 C 283.806 6.31201 0.420487 0
M  V30 3012 C 282.47 6.67079 0.237038 0
M  V30 3013 H 281.74 0.619201 0.407027 0
M  V30 3014 H 284.387 1.87391 0.394552 0
M  V30 3015 H 282.692 2.65421 2.88199 0
M  V30 3016 H 284.389 2.98676 2.6757 0
M  V30 3017 H 280.979 3.96494 1.62758 0
M  V30 3018 H 285.163 4.82599 1.1581 0
M  V30 3019 H 280.419 6.09113 0.528316 0
M  V30 3020 H 284.593 6.96368 0.0662874 0
M  V30 3021 H 282.22 7.59774 -0.254477 0
M  V30 3022 N 283.795 -0.628877 1.44509 0
M  V30 3023 C 285.023 -1.41554 1.50897 0
M  V30 3024 C 285.438 -1.8832 0.134564 0
M  V30 3025 O 284.795 -1.60969 -0.859965 0
M  V30 3026 C 284.846 -2.63435 2.47556 0
M  V30 3027 O 284.567 -2.18619 3.79654 0
M  V30 3028 C 286.068 -3.56537 2.63431 0
M  V30 3029 H 283.288 -0.434044 0.511709 0
M  V30 3030 H 285.832 -0.768895 1.89495 0
M  V30 3031 H 283.987 -3.24187 2.12089 0
M  V30 3032 H 284.401 -2.97652 4.31861 0
M  V30 3033 H 285.875 -4.38657 3.35088 0
M  V30 3034 H 286.352 -4.05493 1.68738 0
M  V30 3035 H 286.958 -3.01653 2.9981 0
M  V30 3036 N 285.273 -1.31445 -0.869486 0
M  V30 3037 C 286.684 -1.19042 -1.43826 0
M  V30 3038 C 287.035 0.202919 -1.95148 0
M  V30 3039 O 286.16 1.10071 -1.86315 0
M  V30 3040 C 286.755 -2.15499 -2.6143 0
M  V30 3041 C 285.314 -2.07028 -3.14351 0
M  V30 3042 C 284.461 -2.04701 -1.87063 0
M  V30 3043 H 287.412 -1.43489 -0.677984 0
M  V30 3044 H 287.433 -1.74488 -3.38134 0
M  V30 3045 H 286.945 -3.16899 -2.24046 0
M  V30 3046 H 285.046 -1.08825 -3.56354 0
M  V30 3047 H 285.159 -2.96157 -3.766 0
M  V30 3048 H 283.523 -1.49724 -2.06046 0
M  V30 3049 H 284.306 -3.07857 -1.51917 0
M  V30 3050 N 286.751 1.08385 -1.14413 0
M  V30 3051 C 288 1.80153 -0.907076 0
M  V30 3052 C 288.313 1.87176 0.567851 0
M  V30 3053 O 289.519 2.55359 0.922172 0
M  V30 3054 C 287.975 3.23687 -1.57336 0
M  V30 3055 C 287.583 3.24897 -3.08457 0
M  V30 3056 C 289.327 4.00136 -1.41744 0
M  V30 3057 C 287.234 4.6302 -3.67921 0
M  V30 3058 H 286.164 0.675139 -0.335714 0
M  V30 3059 H 288.815 1.21733 -1.37307 0
M  V30 3060 H 287.197 3.82234 -1.03505 0
M  V30 3061 H 288.371 2.76055 -3.68958 0
M  V30 3062 H 286.686 2.61943 -3.2369 0
M  V30 3063 H 289.283 5.02201 -1.83572 0
M  V30 3064 H 289.626 4.14709 -0.363576 0
M  V30 3065 H 290.159 3.48058 -1.92614 0
M  V30 3066 H 286.898 4.5365 -4.73161 0
M  V30 3067 H 286.418 5.12143 -3.12201 0
M  V30 3068 H 288.097 5.31994 -3.68227 0
M  V30 3069 N 288.23 0.939286 1.26551 0
M  V30 3070 C 289.477 0.585847 1.9384 0
M  V30 3071 C 289.805 -0.874784 1.73718 0
M  V30 3072 O 289.06 -1.64092 1.06642 0
M  V30 3073 C 289.359 0.872106 3.46596 0
M  V30 3074 C 289.025 2.31632 3.86856 0
M  V30 3075 C 287.687 2.71111 3.97558 0
M  V30 3076 C 290.039 3.25494 4.07066 0
M  V30 3077 C 287.367 4.03553 4.25866 0
M  V30 3078 C 289.719 4.57531 4.36862 0
M  V30 3079 C 288.383 4.96828 4.45778 0
M  V30 3080 H 287.653 0.214377 0.709312 0
M  V30 3081 H 290.3 1.18544 1.50398 0
M  V30 3082 H 288.605 0.18996 3.91339 0
M  V30 3083 H 290.302 0.577442 3.96821 0
M  V30 3084 H 286.892 2.00008 3.79071 0
M  V30 3085 H 291.076 2.9619 3.98227 0
M  V30 3086 H 286.332 4.33665 4.30981 0
M  V30 3087 H 290.506 5.30254 4.51446 0
M  V30 3088 H 288.133 5.99482 4.67468 0
M  V30 3089 N 289.708 -1.40897 0.706093 0
M  V30 3090 C 290.671 -2.29131 0.0562841 0
M  V30 3091 C 291.671 -1.44901 -0.697166 0
M  V30 3092 O 292.861 -1.65926 -0.530484 0
M  V30 3093 C 289.993 -3.27957 -0.93043 0
M  V30 3094 H 291.186 -2.88091 0.833284 0
M  V30 3095 H 288.739 -1.4906 0.470192 0
M  V30 3096 H 289.474 -2.73997 -1.73482 0
M  V30 3097 H 289.259 -3.90124 -0.393166 0
M  V30 3098 H 290.749 -3.94049 -1.38256 0
M  V30 3099 N 291.186 -0.45159 -1.50991 0
M  V30 3100 C 292.411 0.110667 -2.07105 0
M  V30 3101 C 292.836 1.3446 -1.31538 0
M  V30 3102 O 292.194 1.77743 -0.357365 0
M  V30 3103 C 292.242 0.397238 -3.58405 0
M  V30 3104 O 291.346 1.48124 -3.84881 0
M  V30 3105 H 290.687 -0.00439271 -0.663985 0
M  V30 3106 H 293.217 -0.637026 -1.9443 0
M  V30 3107 H 293.227 0.64351 -4.02893 0
M  V30 3108 H 291.902 -0.504553 -4.12828 0
M  V30 3109 H 290.479 1.22381 -3.52246 0
M  V30 3110 N 292.664 1.56529 -0.183458 0
M  V30 3111 C 294.075 1.83739 0.331177 0
M  V30 3112 C 294.426 1.10373 1.62211 0
M  V30 3113 O 293.551 0.36071 2.13373 0
M  V30 3114 C 294.146 3.33306 0.607646 0
M  V30 3115 C 292.705 3.60969 1.06668 0
M  V30 3116 C 291.852 2.77086 0.109029 0
M  V30 3117 H 294.803 1.53379 -0.407484 0
M  V30 3118 H 294.824 3.51444 1.45832 0
M  V30 3119 H 294.336 3.86677 -0.332086 0
M  V30 3120 H 292.437 3.13021 2.0211 0
M  V30 3121 H 292.55 4.69231 0.967447 0
M  V30 3122 H 290.914 2.47319 0.608714 0
M  V30 3123 H 291.697 3.33241 -0.82494 0
M  V30 3124 N 294.142 -0.090211 1.57342 0
M  V30 3125 C 295.367 -0.810082 1.90925 0
M  V30 3126 C 295.792 -1.71248 0.778187 0
M  V30 3127 O 295.15 -1.79278 -0.269991 0
M  V30 3128 C 295.198 -1.59529 3.23393 0
M  V30 3129 O 294.302 -2.70461 3.11327 0
M  V30 3130 H 293.643 -0.222231 0.625707 0
M  V30 3131 H 296.173 -0.0639716 2.045 0
M  V30 3132 H 296.183 -1.97847 3.5682 0
M  V30 3133 H 294.858 -0.933055 4.05299 0
M  V30 3134 H 293.435 -2.35135 2.89423 0
M  V30 3135 N 295.62 -1.53406 -0.361157 0
M  V30 3136 C 296.57 -1.76536 -1.44287 0
M  V30 3137 C 297.554 -0.620019 -1.48474 0
M  V30 3138 O 298.746 -0.878834 -1.53641 0
M  V30 3139 C 295.875 -1.96266 -2.81664 0
M  V30 3140 C 294.961 -3.16815 -2.81938 0
M  V30 3141 N 295.352 -4.38637 -2.51855 0
M  V30 3142 C 293.65 -3.17627 -3.13096 0
M  V30 3143 C 294.351 -5.20401 -2.59919 0
M  V30 3144 N 293.327 -4.56712 -2.94814 0
M  V30 3145 H 297.129 -2.68331 -1.19899 0
M  V30 3146 H 294.643 -1.52091 -0.56938 0
M  V30 3147 H 296.64 -2.10966 -3.59582 0
M  V30 3148 H 295.3 -1.05702 -3.07013 0
M  V30 3149 H 296.311 -4.66293 -2.25369 0
M  V30 3150 H 292.988 -2.36971 -3.43731 0
M  V30 3151 H 294.378 -6.27586 -2.39969 0
M  V30 3152 N 297.098 0.621204 -1.44841 0
M  V30 3153 C 298.048 1.72663 -1.48901 0
M  V30 3154 C 299.032 1.56964 -0.353702 0
M  V30 3155 O 300.224 1.66532 -0.599669 0
M  V30 3156 C 297.353 3.11381 -1.44557 0
M  V30 3157 C 296.439 3.32514 -2.6324 0
M  V30 3158 N 296.83 3.23969 -3.8843 0
M  V30 3159 C 295.128 3.63343 -2.58647 0
M  V30 3160 C 295.829 3.46062 -4.67564 0
M  V30 3161 N 294.805 3.69407 -3.98797 0
M  V30 3162 H 298.607 1.64529 -2.43531 0
M  V30 3163 H 296.121 0.82401 -1.39942 0
M  V30 3164 H 298.118 3.90667 -1.4555 0
M  V30 3165 H 296.778 3.20674 -0.509731 0
M  V30 3166 H 297.789 3.02669 -4.20252 0
M  V30 3167 H 294.466 3.79556 -1.73906 0
M  V30 3168 H 295.856 3.44963 -5.76585 0
M  V30 3169 N 298.576 1.31904 0.862503 0
M  V30 3170 C 299.523 1.20182 1.9704 0
M  V30 3171 C 300.493 0.0858247 1.65878 0
M  V30 3172 O 301.678 0.26 1.8902 0
M  V30 3173 C 298.818 0.922797 3.32533 0
M  V30 3174 C 297.931 2.12284 3.76244 0
M  V30 3175 C 297.066 1.77996 5.00491 0
M  V30 3176 C 296.105 2.94366 5.36671 0
M  V30 3177 N 295.242 2.60223 6.52095 0
M  V30 3178 H 300.082 2.14951 2.06398 0
M  V30 3179 H 297.619 1.06917 1.01031 0
M  V30 3180 H 299.577 0.741548 4.10557 0
M  V30 3181 H 298.207 0.0119227 3.22798 0
M  V30 3182 H 297.259 2.41461 2.9394 0
M  V30 3183 H 298.571 2.99357 3.98982 0
M  V30 3184 H 297.725 1.56377 5.862 0
M  V30 3185 H 296.464 0.881252 4.79672 0
M  V30 3186 H 295.469 3.16625 4.49476 0
M  V30 3187 H 296.694 3.84957 5.59451 0
M  V30 3188 H 294.64 1.72884 6.32809 0
M  V30 3189 H 294.557 3.40827 6.74814 0
M  V30 3190 H 295.825 2.42016 7.40978 0
M  V30 3191 N 300.054 -1.07777 1.14986 0
M  V30 3192 C 301.284 -1.83752 0.944402 0
M  V30 3193 C 301.692 -1.8218 -0.51058 0
M  V30 3194 O 301.035 -1.22852 -1.36576 0
M  V30 3195 C 301.097 -3.32128 1.37592 0
M  V30 3196 C 300.761 -3.57425 2.84775 0
M  V30 3197 C 301.758 -3.5173 3.8286 0
M  V30 3198 C 299.443 -3.8523 3.2234 0
M  V30 3199 C 301.437 -3.73482 5.16517 0
M  V30 3200 C 299.124 -4.06634 4.56171 0
M  V30 3201 C 300.122 -4.00754 5.53069 0
M  V30 3202 O 299.81 -4.2159 6.84483 0
M  V30 3203 H 299.542 -0.58673 0.335744 0
M  V30 3204 H 302.096 -1.36982 1.53052 0
M  V30 3205 H 300.326 -3.79686 0.733165 0
M  V30 3206 H 302.015 -3.89555 1.14024 0
M  V30 3207 H 302.781 -3.30256 3.55184 0
M  V30 3208 H 298.66 -3.88923 2.47508 0
M  V30 3209 H 302.204 -3.68808 5.92137 0
M  V30 3210 H 298.101 -4.27593 4.83564 0
M  V30 3211 H 298.869 -4.38961 6.90837 0
M  V30 3212 N 301.532 -0.945985 -1.26051 0
M  V30 3213 C 302.809 -0.513816 -1.88731 0
M  V30 3214 C 303.189 1.00872 -1.8544 0
M  V30 3215 O 302.537 1.8708 -1.312 0
M  V30 3216 C 302.747 -1.08062 -3.31849 0
M  V30 3217 C 304.095 -1.1522 -4.08668 0
M  V30 3218 O 305.119 -1.03155 -3.40936 0
M  V30 3219 O 303.978 -1.34044 -5.29806 0
M  V30 3220 H 301.072 -0.168193 -0.809716 0
M  V30 3221 H 303.618 -1.03886 -1.34186 0
M  V30 3222 H 302.39 -2.1241 -3.2863 0
M  V30 3223 H 302.013 -0.538307 -3.93939 0
M  V30 3224 N 303.011 1.40521 -0.713556 0
M  V30 3225 C 304.239 2.05237 -0.261775 0
M  V30 3226 C 304.654 1.53755 1.09567 0
M  V30 3227 O 304.011 0.693268 1.6882 0
M  V30 3228 C 304.062 3.60763 -0.230706 0
M  V30 3229 O 303.783 4.10345 -1.53455 0
M  V30 3230 C 305.284 4.42651 0.239874 0
M  V30 3231 H 302.504 0.660533 -0.118057 0
M  V30 3232 H 305.048 1.79967 -0.971192 0
M  V30 3233 H 303.203 3.8501 0.429661 0
M  V30 3234 H 303.617 5.04526 -1.43366 0
M  V30 3235 H 305.091 5.51599 0.210468 0
M  V30 3236 H 305.568 4.20082 1.28171 0
M  V30 3237 H 306.174 4.23507 -0.390142 0
M  V30 3238 N 304.489 0.459591 1.5075 0
M  V30 3239 C 305.452 -0.329093 2.26825 0
M  V30 3240 C 306.452 -0.930481 1.31144 0
M  V30 3241 O 307.642 -0.801453 1.54669 0
M  V30 3242 C 304.774 -1.46768 3.07688 0
M  V30 3243 H 305.967 0.337924 2.9799 0
M  V30 3244 H 303.52 0.213336 1.54837 0
M  V30 3245 H 304.255 -2.17009 2.40993 0
M  V30 3246 H 304.04 -1.04238 3.77991 0
M  V30 3247 H 305.53 -2.02433 3.65254 0
M  V30 3248 N 305.967 -1.56429 0.191757 0
M  V30 3249 C 307.244 -1.89224 -0.495332 0
M  V30 3250 C 307.624 -1.10478 -1.79883 0
M  V30 3251 O 306.972 -0.204852 -2.2758 0
M  V30 3252 C 307.182 -3.41548 -0.717367 0
M  V30 3253 C 308.53 -4.11711 -1.03823 0
M  V30 3254 O 309.554 -3.4698 -0.805204 0
M  V30 3255 O 308.413 -5.2611 -1.47887 0
M  V30 3256 H 305.507 -0.785788 -0.25781 0
M  V30 3257 H 308.053 -1.68111 0.231721 0
M  V30 3258 H 306.825 -3.90772 0.203287 0
M  V30 3259 H 306.448 -3.68342 -1.497 0
M  V30 3260 N 307.445 0.0818655 -1.57387 0
M  V30 3261 C 308.675 0.794954 -1.90694 0
M  V30 3262 C 309.083 1.72147 -0.784982 0
M  V30 3263 O 308.426 1.81974 0.251196 0
M  V30 3264 C 308.488 1.65042 -3.19376 0
M  V30 3265 C 308.152 0.894337 -4.48164 0
M  V30 3266 C 309.149 0.21813 -5.19442 0
M  V30 3267 C 306.834 0.864495 -4.94805 0
M  V30 3268 C 308.828 -0.477802 -6.35607 0
M  V30 3269 C 306.515 0.164785 -6.10878 0
M  V30 3270 C 307.513 -0.505173 -6.81129 0
M  V30 3271 O 307.201 -1.19363 -7.94989 0
M  V30 3272 H 306.933 0.231779 -0.635023 0
M  V30 3273 H 309.487 0.059493 -2.05314 0
M  V30 3274 H 307.717 2.42844 -3.00938 0
M  V30 3275 H 309.406 2.24127 -3.38411 0
M  V30 3276 H 310.172 0.232558 -4.84442 0
M  V30 3277 H 306.051 1.37542 -4.40004 0
M  V30 3278 H 309.595 -1.00129 -6.90377 0
M  V30 3279 H 305.492 0.148249 -6.4533 0
M  V30 3280 H 306.26 -1.10188 -8.11049 0
M  V30 3281 N 308.923 1.53595 0.353017 0
M  V30 3282 C 309.853 1.83902 1.43883 0
M  V30 3283 C 310.834 0.693421 1.55324 0
M  V30 3284 O 312.019 0.944452 1.69687 0
M  V30 3285 C 309.149 2.04016 2.8106 0
M  V30 3286 C 308.103 3.19814 2.84434 0
M  V30 3287 C 307.429 3.25244 4.24406 0
M  V30 3288 C 308.729 4.58133 2.50822 0
M  V30 3289 H 310.423 2.74835 1.1877 0
M  V30 3290 H 307.969 1.32242 0.569917 0
M  V30 3291 H 309.922 2.238 3.57059 0
M  V30 3292 H 308.646 1.09804 3.07588 0
M  V30 3293 H 307.305 2.9987 2.10887 0
M  V30 3294 H 306.953 2.28646 4.48029 0
M  V30 3295 H 306.653 4.03054 4.27576 0
M  V30 3296 H 308.177 3.47228 5.0226 0
M  V30 3297 H 309.591 4.77995 3.16534 0
M  V30 3298 H 307.988 5.38276 2.6529 0
M  V30 3299 H 309.058 4.62387 1.46034 0
M  V30 3300 N 310.401 -0.613514 1.45168 0
M  V30 3301 C 311.364 -1.7065 1.53007 0
M  V30 3302 C 312.364 -1.5548 0.410184 0
M  V30 3303 O 313.554 -1.60656 0.673455 0
M  V30 3304 C 310.686 -3.09875 1.42093 0
M  V30 3305 H 311.879 -1.65068 2.50385 0
M  V30 3306 H 309.432 -0.828728 1.32521 0
M  V30 3307 H 310.167 -3.21039 0.458769 0
M  V30 3308 H 309.952 -3.22293 2.23315 0
M  V30 3309 H 311.442 -3.895 1.50598 0
M  V30 3310 N 311.879 -1.3236 -0.855495 0
M  V30 3311 C 313.128 -1.22226 -1.60448 0
M  V30 3312 C 313.441 0.214733 -1.94418 0
M  V30 3313 O 314.647 0.437917 -2.67945 0
M  V30 3314 C 313.103 -2.14063 -2.89318 0
M  V30 3315 C 312.711 -3.62839 -2.62777 0
M  V30 3316 C 314.455 -2.12764 -3.67331 0
M  V30 3317 C 312.362 -4.4664 -3.87643 0
M  V30 3318 H 311.292 -0.453904 -0.602069 0
M  V30 3319 H 313.943 -1.57314 -0.944698 0
M  V30 3320 H 312.325 -1.71889 -3.5675 0
M  V30 3321 H 313.499 -4.1335 -2.03662 0
M  V30 3322 H 311.814 -3.66261 -1.98096 0
M  V30 3323 H 314.411 -2.72611 -4.59987 0
M  V30 3324 H 314.754 -1.11841 -4.00995 0
M  V30 3325 H 315.287 -2.53214 -3.06802 0
M  V30 3326 H 312.026 -5.48373 -3.5912 0
M  V30 3327 H 311.546 -4.0088 -4.46156 0
M  V30 3328 H 313.225 -4.59597 -4.55389 0
M  V30 3329 N 313.357 1.07166 -1.15556 0
M  V30 3330 C 314.634 1.76546 -0.842069 0
M  V30 3331 C 315.014 2.00453 0.661939 0
M  V30 3332 O 314.362 1.62452 1.60691 0
M  V30 3333 C 314.572 3.07266 -1.65495 0
M  V30 3334 C 315.92 3.81578 -1.86234 0
M  V30 3335 O 316.944 3.17083 -1.62287 0
M  V30 3336 O 315.803 4.97419 -2.26355 0
M  V30 3337 H 312.897 0.766756 -0.309862 0
M  V30 3338 H 315.443 1.13514 -1.26145 0
M  V30 3339 H 314.215 2.85494 -2.67598 0
M  V30 3340 H 313.838 3.7803 -1.23203 0
M  V30 3341 N 314.835 0.952656 1.25548 0
M  V30 3342 C 316.246 0.647392 1.75116 0
M  V30 3343 C 316.597 -0.837274 1.77438 0
M  V30 3344 O 315.722 -1.65525 1.39393 0
M  V30 3345 C 316.317 1.16845 3.18014 0
M  V30 3346 C 314.876 0.913382 3.6515 0
M  V30 3347 C 314.023 1.31265 2.44264 0
M  V30 3348 H 316.974 1.12968 1.11462 0
M  V30 3349 H 316.995 0.527606 3.76824 0
M  V30 3350 H 316.507 2.24902 3.16292 0
M  V30 3351 H 314.608 -0.152316 3.72289 0
M  V30 3352 H 314.721 1.54845 4.53387 0
M  V30 3353 H 313.085 0.731028 2.43984 0
M  V30 3354 H 313.868 2.40239 2.45234 0
M  V30 3355 N 316.313 -1.40141 0.720998 0
M  V30 3356 C 317.245 -2.29177 0.0324669 0
M  V30 3357 C 318.258 -1.46105 -0.718126 0
M  V30 3358 O 319.447 -1.69335 -0.564608 0
M  V30 3359 C 316.547 -3.24473 -0.978292 0
M  V30 3360 C 315.72 -4.36423 -0.292115 0
M  V30 3361 C 314.779 -5.12122 -1.20901 0
M  V30 3362 O 313.805 -5.64981 -0.691766 0
M  V30 3363 N 315.007 -5.21992 -2.53978 0
M  V30 3364 H 317.772 -2.88909 0.796984 0
M  V30 3365 H 315.333 -1.51569 0.569068 0
M  V30 3366 H 317.325 -3.71987 -1.59398 0
M  V30 3367 H 315.895 -2.65871 -1.64413 0
M  V30 3368 H 315.115 -3.90967 0.503847 0
M  V30 3369 H 316.403 -5.08467 0.183971 0
M  V30 3370 H 315.801 -4.8054 -2.98493 0
M  V30 3371 H 314.358 -5.72995 -3.10677 0
M  V30 3372 N 317.792 -0.46758 -1.50504 0
M  V30 3373 C 319.039 0.0886219 -2.02306 0
M  V30 3374 C 319.367 1.40037 -1.34981 0
M  V30 3375 O 318.622 1.90136 -0.463318 0
M  V30 3376 C 318.921 0.323995 -3.55928 0
M  V30 3377 C 318.587 -0.905618 -4.41712 0
M  V30 3378 C 317.249 -1.24275 -4.64875 0
M  V30 3379 C 319.601 -1.72448 -4.91845 0
M  V30 3380 C 316.929 -2.39888 -5.35417 0
M  V30 3381 C 319.281 -2.87185 -5.63656 0
M  V30 3382 C 317.945 -3.21317 -5.85074 0
M  V30 3383 H 317.215 0.0324291 -0.74029 0
M  V30 3384 H 319.862 -0.620945 -1.81153 0
M  V30 3385 H 318.167 1.11577 -3.75577 0
M  V30 3386 H 319.864 0.76826 -3.93572 0
M  V30 3387 H 316.454 -0.632956 -4.239 0
M  V30 3388 H 320.638 -1.4772 -4.73806 0
M  V30 3389 H 315.894 -2.66611 -5.50208 0
M  V30 3390 H 320.068 -3.50985 -6.01484 0
M  V30 3391 H 317.695 -4.1101 -6.39511 0
M  V30 3392 N 319.27 1.56325 -0.20005 0
M  V30 3393 C 320.518 1.97329 0.436547 0
M  V30 3394 C 320.839 1.08826 1.61808 0
M  V30 3395 O 320.109 0.160604 1.95241 0
M  V30 3396 H 318.689 0.728714 0.164272 0
M  V30 3397 H 321.351 1.92761 -0.287937 0
M  V30 3398 H 320.447 3.02264 0.777353 0
M  V30 3399 N 320.748 -0.0735177 1.57428 0
M  V30 3400 C 322.025 -0.805903 1.78226 0
M  V30 3401 C 322.405 -1.95874 0.787189 0
M  V30 3402 O 321.753 -2.2779 -0.180029 0
M  V30 3403 C 321.963 -1.28045 3.24662 0
M  V30 3404 C 323.311 -1.71453 3.88444 0
M  V30 3405 O 324.335 -1.37616 3.28543 0
M  V30 3406 O 323.194 -2.34093 4.93825 0
M  V30 3407 H 320.288 -0.386041 0.73137 0
M  V30 3408 H 322.834 -0.0537269 1.69615 0
M  V30 3409 H 321.606 -0.455476 3.8864 0
M  V30 3410 H 321.229 -2.094 3.37991 0
M  V30 3411 N 322.226 -1.5378 -0.344866 0
M  V30 3412 C 323.156 -1.84662 -1.42906 0
M  V30 3413 C 324.137 -0.701648 -1.54955 0
M  V30 3414 O 325.322 -0.953438 -1.69184 0
M  V30 3415 C 322.452 -2.05503 -2.79974 0
M  V30 3416 C 321.406 -3.21318 -2.82734 0
M  V30 3417 C 320.732 -3.2749 -4.22675 0
M  V30 3418 C 322.032 -4.59456 -2.48389 0
M  V30 3419 H 323.726 -2.75461 -1.17311 0
M  V30 3420 H 321.272 -1.32542 -0.562896 0
M  V30 3421 H 323.225 -2.25691 -3.55867 0
M  V30 3422 H 321.949 -1.11434 -3.07002 0
M  V30 3423 H 320.608 -3.00984 -2.09294 0
M  V30 3424 H 320.256 -2.31019 -4.4681 0
M  V30 3425 H 319.956 -4.05316 -4.25433 0
M  V30 3426 H 321.48 -3.49887 -5.00412 0
M  V30 3427 H 322.894 -4.79667 -3.13995 0
M  V30 3428 H 321.291 -5.39675 -2.62432 0
M  V30 3429 H 322.361 -4.63155 -1.4358 0
M  V30 3430 N 323.704 0.605807 -1.45491 0
M  V30 3431 C 325.115 1.18777 -1.44045 0
M  V30 3432 C 325.466 1.95471 -0.169001 0
M  V30 3433 O 324.591 2.0374 0.729324 0
M  V30 3434 C 325.186 2.16064 -2.60963 0
M  V30 3435 C 323.745 2.69633 -2.62631 0
M  V30 3436 C 322.892 1.45072 -2.36325 0
M  V30 3437 H 325.843 0.395017 -1.53705 0
M  V30 3438 H 325.864 2.9913 -2.35163 0
M  V30 3439 H 325.376 1.60217 -3.53486 0
M  V30 3440 H 323.477 3.29414 -1.74119 0
M  V30 3441 H 323.59 3.13944 -3.61906 0
M  V30 3442 H 321.954 1.74089 -1.85917 0
M  V30 3443 H 322.737 0.910899 -3.30995 0
M  V30 3444 N 325.182 1.32811 0.848464 0
M  V30 3445 C 326.41 1.26739 1.63538 0
M  V30 3446 C 326.825 -0.163484 1.88091 0
M  V30 3447 O 326.182 -1.10258 1.45429 0
M  V30 3448 C 326.233 2.03013 2.99112 0
M  V30 3449 O 325.954 3.40518 2.75643 0
M  V30 3450 C 327.455 2.04038 3.93552 0
M  V30 3451 H 324.675 0.437024 0.509167 0
M  V30 3452 H 327.219 1.75033 1.05753 0
M  V30 3453 H 325.374 1.58426 3.53525 0
M  V30 3454 H 325.788 3.79635 3.61908 0
M  V30 3455 H 327.262 2.61877 4.85926 0
M  V30 3456 H 327.739 1.0282 4.26995 0
M  V30 3457 H 328.345 2.486 3.45077 0
M  V30 3458 N 326.66 -1.06551 1.16123 0
M  V30 3459 C 327.907 -1.79302 0.941126 0
M  V30 3460 C 328.235 -1.87105 -0.531235 0
M  V30 3461 O 327.49 -1.35692 -1.41018 0
M  V30 3462 C 327.789 -3.23911 1.51052 0
M  V30 3463 C 327.455 -3.36193 3.00475 0
M  V30 3464 C 326.117 -3.39252 3.41265 0
M  V30 3465 C 328.469 -3.38326 3.96465 0
M  V30 3466 C 325.797 -3.42057 4.76669 0
M  V30 3467 C 328.149 -3.4267 5.31752 0
M  V30 3468 C 326.813 -3.4401 5.72026 0
M  V30 3469 H 326.083 -0.656111 0.344382 0
M  V30 3470 H 328.73 -1.25325 1.44796 0
M  V30 3471 H 327.035 -3.80723 0.925063 0
M  V30 3472 H 328.732 -3.78793 1.31593 0
M  V30 3473 H 325.322 -3.34516 2.6795 0
M  V30 3474 H 329.506 -3.35176 3.6602 0
M  V30 3475 H 324.762 -3.41398 5.07206 0
M  V30 3476 H 328.936 -3.43268 6.05921 0
M  V30 3477 H 326.563 -3.45937 6.76928 0
M  V30 3478 N 328.138 -0.959301 -1.25041 0
M  V30 3479 C 329.554 -0.664474 -1.4511 0
M  V30 3480 C 329.754 0.776481 -1.85938 0
M  V30 3481 O 328.81 1.55128 -1.99227 0
M  V30 3482 C 330.123 -1.64139 -2.5195 0
M  V30 3483 C 331.671 -1.65309 -2.65786 0
M  V30 3484 C 332.146 -2.61777 -3.75815 0
M  V30 3485 N 333.637 -2.60169 -3.83231 0
M  V30 3486 C 334.372 -3.31489 -4.6787 0
M  V30 3487 N 333.868 -4.12298 -5.56761 0
M  V30 3488 N 335.661 -3.20354 -4.61876 0
M  V30 3489 H 327.812 -1.89043 -0.968332 0
M  V30 3490 H 330.075 -0.813408 -0.4869 0
M  V30 3491 H 329.781 -2.67086 -2.28819 0
M  V30 3492 H 329.655 -1.40756 -3.49954 0
M  V30 3493 H 332.042 -0.630778 -2.8828 0
M  V30 3494 H 332.123 -1.92753 -1.68167 0
M  V30 3495 H 331.767 -3.64137 -3.54071 0
M  V30 3496 H 331.697 -2.31616 -4.72929 0
M  V30 3497 H 334.188 -2.01507 -3.19692 0
M  V30 3498 H 334.501 -4.63625 -6.18281 0
M  V30 3499 H 332.846 -4.16395 -5.56454 0
M  V30 3500 H 336.037 -2.56692 -3.91442 0
M  V30 3501 H 336.21 -3.76201 -5.27614 0
M  V30 3502 N 329.616 1.39756 -0.72842 0
M  V30 3503 C 331.032 1.5442 -0.403308 0
M  V30 3504 C 331.232 1.69694 1.08656 0
M  V30 3505 O 330.288 1.69373 1.87267 0
M  V30 3506 C 331.601 2.76555 -1.18058 0
M  V30 3507 C 333.149 2.90384 -1.16815 0
M  V30 3508 C 333.624 4.15449 -1.92785 0
M  V30 3509 N 335.115 4.22475 -1.89918 0
M  V30 3510 C 335.85 5.1818 -2.45514 0
M  V30 3511 N 335.346 6.19714 -3.09719 0
M  V30 3512 N 337.139 5.1035 -2.35584 0
M  V30 3513 H 329.29 1.28089 -1.69431 0
M  V30 3514 H 331.553 0.620327 -0.716867 0
M  V30 3515 H 331.259 2.7159 -2.23455 0
M  V30 3516 H 331.133 3.69033 -0.780662 0
M  V30 3517 H 333.52 2.94846 -0.12234 0
M  V30 3518 H 333.601 1.98988 -1.6074 0
M  V30 3519 H 333.245 4.11749 -2.97364 0
M  V30 3520 H 333.175 5.05877 -1.46272 0
M  V30 3521 H 335.666 3.49743 -1.43138 0
M  V30 3522 H 335.979 6.8919 -3.49625 0
M  V30 3523 H 334.324 6.20121 -3.13807 0
M  V30 3524 H 337.515 4.2996 -1.85072 0
M  V30 3525 H 337.688 5.84761 -2.79211 0
M  V30 3526 N 331.094 0.475555 1.50254 0
M  V30 3527 C 332.024 -0.30611 2.31485 0
M  V30 3528 C 333.005 -0.986228 1.38591 0
M  V30 3529 O 334.19 -0.982541 1.67511 0
M  V30 3530 C 331.32 -1.38588 3.1845 0
M  V30 3531 C 330.274 -0.827115 4.19932 0
M  V30 3532 C 329.6 -2.00551 4.95665 0
M  V30 3533 C 330.9 0.16463 5.2204 0
M  V30 3534 H 332.594 0.371866 2.97082 0
M  V30 3535 H 330.14 0.180282 1.42867 0
M  V30 3536 H 332.093 -1.94023 3.74076 0
M  V30 3537 H 330.817 -2.09269 2.50747 0
M  V30 3538 H 329.476 -0.294702 3.65414 0
M  V30 3539 H 329.124 -2.6994 4.2443 0
M  V30 3540 H 328.824 -1.63784 5.64313 0
M  V30 3541 H 330.348 -2.56468 5.54127 0
M  V30 3542 H 331.762 -0.300699 5.72511 0
M  V30 3543 H 330.159 0.446813 5.98434 0
M  V30 3544 H 331.229 1.08905 4.72512 0
M  V30 3545 N 332.573 -1.56217 0.208337 0
M  V30 3546 C 333.819 -1.98242 -0.427552 0
M  V30 3547 C 334.152 -1.09554 -1.60348 0
M  V30 3548 O 333.427 -0.15035 -1.93918 0
M  V30 3549 C 333.71 -3.4931 -0.874907 0
M  V30 3550 C 333.563 -4.48773 0.303751 0
M  V30 3551 C 334.882 -4.04424 -1.73577 0
M  V30 3552 H 332.001 -0.720744 -0.153936 0
M  V30 3553 H 334.643 -1.87586 0.30192 0
M  V30 3554 H 332.793 -3.58522 -1.49648 0
M  V30 3555 H 334.465 -4.51586 0.941682 0
M  V30 3556 H 332.708 -4.23194 0.953375 0
M  V30 3557 H 333.379 -5.51976 -0.0519883 0
M  V30 3558 H 335.855 -3.98075 -1.21143 0
M  V30 3559 H 334.731 -5.1047 -2.01771 0
M  V30 3560 H 334.992 -3.50494 -2.69456 0
M  V30 3561 N 334.051 0.0651679 -1.57465 0
M  V30 3562 C 335.328 0.79644 -1.78651 0
M  V30 3563 C 335.708 1.95454 -0.797566 0
M  V30 3564 O 335.056 2.27882 0.167946 0
M  V30 3565 C 335.266 1.26322 -3.25337 0
M  V30 3566 C 336.614 1.6939 -3.89348 0
M  V30 3567 O 337.638 1.35872 -3.29268 0
M  V30 3568 O 336.497 2.31471 -4.95059 0
M  V30 3569 H 333.591 0.382157 -0.733407 0
M  V30 3570 H 336.137 0.0447311 -1.69641 0
M  V30 3571 H 334.909 0.434859 -3.88876 0
M  V30 3572 H 334.532 2.07604 -3.39096 0
M  V30 3573 N 335.529 1.53961 0.336706 0
M  V30 3574 C 336.439 1.85432 1.43708 0
M  V30 3575 C 337.455 0.745053 1.57242 0
M  V30 3576 O 338.631 1.03804 1.72588 0
M  V30 3577 C 335.696 2.06349 2.78605 0
M  V30 3578 C 334.757 3.30191 2.74358 0
M  V30 3579 C 333.99 3.50101 4.02822 0
M  V30 3580 O 334.213 2.7371 5.00439 0
M  V30 3581 O 333.147 4.43547 4.06878 0
M  V30 3582 H 336.973 2.78975 1.20028 0
M  V30 3583 H 334.558 1.39701 0.52952 0
M  V30 3584 H 336.44 2.21513 3.58483 0
M  V30 3585 H 335.115 1.15995 3.02203 0
M  V30 3586 H 334.022 3.20425 1.93078 0
M  V30 3587 H 335.355 4.2056 2.55715 0
M  V30 3588 N 337.007 -0.598083 1.45811 0
M  V30 3589 C 337.97 -1.69018 1.54808 0
M  V30 3590 C 338.97 -1.55037 0.426652 0
M  V30 3591 O 340.16 -1.59932 0.690456 0
M  V30 3592 C 337.292 -3.0835 1.45371 0
M  V30 3593 H 338.485 -1.62403 2.52121 0
M  V30 3594 H 336.038 -0.814626 1.33392 0
M  V30 3595 H 336.773 -3.20534 0.492793 0
M  V30 3596 H 336.558 -3.19907 2.26721 0
M  V30 3597 H 338.048 -3.8788 1.54721 0
M  V30 3598 N 338.485 -1.33259 -0.841409 0
M  V30 3599 C 339.435 -1.19872 -1.93945 0
M  V30 3600 C 340.419 -0.102269 -1.60575 0
M  V30 3601 O 341.611 -0.330114 -1.73894 0
M  V30 3602 C 338.74 -0.937517 -3.30251 0
M  V30 3603 C 337.826 -2.07629 -3.69799 0
M  V30 3604 N 338.217 -3.32604 -3.81062 0
M  V30 3605 C 336.515 -1.98242 -3.9952 0
M  V30 3606 C 337.216 -4.07275 -4.15333 0
M  V30 3607 N 336.192 -3.35691 -4.27566 0
M  V30 3608 H 339.994 -2.14604 -2.00805 0
M  V30 3609 H 337.508 -1.2523 -1.03398 0
M  V30 3610 H 339.505 -0.822545 -4.08705 0
M  V30 3611 H 338.165 0.00128798 -3.247 0
M  V30 3612 H 339.176 -3.67382 -3.65035 0
M  V30 3613 H 335.853 -1.12005 -4.02195 0
M  V30 3614 H 337.243 -5.1511 -4.31406 0
M  V30 3615 N 339.963 1.05934 -1.16686 0
M  V30 3616 C 341.379 1.30938 -0.912542 0
M  V30 3617 C 341.579 1.96803 0.432533 0
M  V30 3618 O 340.635 2.23693 1.17123 0
M  V30 3619 C 341.948 2.18649 -2.06429 0
M  V30 3620 C 343.496 2.32055 -2.10047 0
M  V30 3621 C 343.971 3.23122 -3.24586 0
M  V30 3622 N 345.462 3.30706 -3.24327 0
M  V30 3623 C 346.197 4.01273 -4.09594 0
M  V30 3624 N 345.693 4.74332 -5.04956 0
M  V30 3625 N 347.486 3.97361 -3.97569 0
M  V30 3626 H 339.637 0.615777 -2.03278 0
M  V30 3627 H 341.9 0.334077 -0.887185 0
M  V30 3628 H 341.606 1.77534 -3.03603 0
M  V30 3629 H 341.48 3.19252 -2.00894 0
M  V30 3630 H 343.867 2.72415 -1.13464 0
M  V30 3631 H 343.948 1.31107 -2.19647 0
M  V30 3632 H 343.592 2.83477 -4.2143 0
M  V30 3633 H 343.522 4.24057 -3.12223 0
M  V30 3634 H 346.013 2.78644 -2.55276 0
M  V30 3635 H 346.326 5.25716 -5.6643 0
M  V30 3636 H 344.671 4.733 -5.08933 0
M  V30 3637 H 347.862 3.39405 -3.22369 0
M  V30 3638 H 348.035 4.52089 -4.64241 0
M  V30 3639 N 341.441 0.965919 1.2453 0
M  V30 3640 C 342.857 0.67216 1.44756 0
M  V30 3641 C 343.057 -0.766609 1.86347 0
M  V30 3642 O 342.113 -1.5407 2.00047 0
M  V30 3643 C 343.426 1.65473 2.51076 0
M  V30 3644 C 344.974 1.66716 2.64905 0
M  V30 3645 C 345.449 2.63766 3.74421 0
M  V30 3646 N 346.94 2.62198 3.81846 0
M  V30 3647 C 347.675 3.33966 4.66106 0
M  V30 3648 N 347.171 4.15245 5.54566 0
M  V30 3649 N 348.964 3.22799 4.60171 0
M  V30 3650 H 341.115 1.89553 0.958293 0
M  V30 3651 H 343.378 0.815979 0.482579 0
M  V30 3652 H 343.084 2.68296 2.27399 0
M  V30 3653 H 342.958 1.4261 3.49202 0
M  V30 3654 H 345.345 0.646057 2.87941 0
M  V30 3655 H 345.426 1.93642 1.67142 0
M  V30 3656 H 345.07 3.6601 3.52135 0
M  V30 3657 H 345 2.34121 4.71694 0
M  V30 3658 H 347.491 2.032 3.18619 0
M  V30 3659 H 347.804 4.66898 6.15814 0
M  V30 3660 H 346.149 4.1934 5.54237 0
M  V30 3661 H 349.34 2.58764 3.90075 0
M  V30 3662 H 349.513 3.78994 5.25612 0
M  V30 3663 N 342.919 -1.39368 0.735821 0
M  V30 3664 C 344.167 -2.00101 0.283562 0
M  V30 3665 C 344.488 -1.5868 -1.13338 0
M  V30 3666 O 343.758 -0.835423 -1.77193 0
M  V30 3667 H 342.338 -0.740024 0.101851 0
M  V30 3668 H 345 -1.70404 0.945962 0
M  V30 3669 H 344.096 -3.10323 0.332604 0
M  V30 3670 N 344.397 -0.483516 -1.5 0
M  V30 3671 C 345.646 0.0689102 -2.01582 0
M  V30 3672 C 345.959 1.39655 -1.36952 0
M  V30 3673 O 347.165 2.03465 -1.79762 0
M  V30 3674 C 345.621 0.173302 -3.59483 0
M  V30 3675 C 345.229 -1.14665 -4.33077 0
M  V30 3676 C 346.973 0.677024 -4.19066 0
M  V30 3677 C 344.88 -1.00537 -5.82792 0
M  V30 3678 H 343.81 0.0295277 -0.753422 0
M  V30 3679 H 346.461 -0.620295 -1.72698 0
M  V30 3680 H 344.843 0.926569 -3.85007 0
M  V30 3681 H 346.017 -1.91184 -4.19268 0
M  V30 3682 H 344.332 -1.58244 -3.85159 0
M  V30 3683 H 346.929 0.799952 -5.28682 0
M  V30 3684 H 347.272 1.67151 -3.81269 0
M  V30 3685 H 347.805 -0.0192083 -3.97795 0
M  V30 3686 H 344.544 -1.9736 -6.25083 0
M  V30 3687 H 344.064 -0.280776 -5.99142 0
M  V30 3688 H 345.743 -0.677 -6.43448 0
M  V30 3689 N 345.875 1.56104 -0.216619 0
M  V30 3690 C 346.822 2.2007 0.695531 0
M  V30 3691 C 347.792 1.15471 1.19397 0
M  V30 3692 O 348.977 1.43807 1.25396 0
M  V30 3693 C 346.117 2.88073 1.90021 0
M  V30 3694 C 345.23 4.07253 1.44113 0
M  V30 3695 C 344.365 4.63052 2.603 0
M  V30 3696 C 343.404 5.74545 2.11103 0
M  V30 3697 N 342.541 6.24656 3.20545 0
M  V30 3698 H 347.381 2.97655 0.143327 0
M  V30 3699 H 344.918 1.46982 0.0589934 0
M  V30 3700 H 346.876 3.25681 2.60745 0
M  V30 3701 H 345.506 2.13015 2.42538 0
M  V30 3702 H 344.558 3.75164 0.628999 0
M  V30 3703 H 345.87 4.8783 1.04036 0
M  V30 3704 H 345.024 5.03078 3.39113 0
M  V30 3705 H 343.763 3.81628 3.03663 0
M  V30 3706 H 342.768 5.34027 1.3075 0
M  V30 3707 H 343.993 6.57801 1.68746 0
M  V30 3708 H 341.939 5.46148 3.63399 0
M  V30 3709 H 341.856 7.00343 2.84704 0
M  V30 3710 H 343.124 6.69338 3.99508 0
M  V30 3711 N 347.353 -0.0568162 1.57498 0
M  V30 3712 C 348.602 -0.752001 1.87157 0
M  V30 3713 C 348.915 -1.77978 0.811375 0
M  V30 3714 O 350.121 -2.52559 0.996293 0
M  V30 3715 C 348.577 -1.38844 3.3204 0
M  V30 3716 C 348.185 -0.398456 4.46225 0
M  V30 3717 C 349.929 -2.06512 3.70882 0
M  V30 3718 C 347.836 -1.04166 5.82154 0
M  V30 3719 H 346.766 -0.28461 0.698222 0
M  V30 3720 H 349.417 -0.00561272 1.83499 0
M  V30 3721 H 347.799 -2.1836 3.30356 0
M  V30 3722 H 348.973 0.367977 4.59328 0
M  V30 3723 H 347.288 0.174592 4.16034 0
M  V30 3724 H 349.885 -2.55437 4.6974 0
M  V30 3725 H 350.228 -2.87117 3.01445 0
M  V30 3726 H 350.761 -1.33808 3.7462 0
M  V30 3727 H 347.5 -0.275614 6.5492 0
M  V30 3728 H 347.02 -1.7786 5.72823 0
M  V30 3729 H 348.699 -1.55715 6.27982 0
M  V30 3730 N 348.832 -1.54138 -0.328536 0
M  V30 3731 C 350.081 -1.71318 -1.06456 0
M  V30 3732 C 350.394 -0.491109 -1.89334 0
M  V30 3733 O 351.6 -0.54416 -2.65991 0
M  V30 3734 C 350.056 -3.03 -1.94214 0
M  V30 3735 C 349.664 -4.32595 -1.16471 0
M  V30 3736 C 351.408 -3.29544 -2.67583 0
M  V30 3737 C 349.315 -5.55341 -2.03347 0
M  V30 3738 H 348.245 -0.638429 -0.401155 0
M  V30 3739 H 350.896 -1.80633 -0.323106 0
M  V30 3740 H 349.278 -2.87579 -2.72239 0
M  V30 3741 H 350.452 -4.58766 -0.432525 0
M  V30 3742 H 348.767 -4.12777 -0.548063 0
M  V30 3743 H 351.364 -4.18444 -3.3288 0
M  V30 3744 H 351.707 -2.47206 -3.34955 0
M  V30 3745 H 352.24 -3.45809 -1.96623 0
M  V30 3746 H 348.979 -6.40268 -1.40491 0
M  V30 3747 H 348.499 -5.33397 -2.74313 0
M  V30 3748 H 350.178 -5.91557 -2.62049 0
M  V30 3749 N 350.31 0.590341 -1.46126 0
M  V30 3750 C 351.24 1.71032 -1.58966 0
M  V30 3751 C 352.221 1.64302 -0.440335 0
M  V30 3752 O 353.406 1.82436 -0.665634 0
M  V30 3753 C 350.536 3.09665 -1.57241 0
M  V30 3754 C 349.49 3.31221 -2.71066 0
M  V30 3755 C 348.816 4.70303 -2.54399 0
M  V30 3756 C 350.116 3.19796 -4.1295 0
M  V30 3757 H 351.81 1.60543 -2.52718 0
M  V30 3758 H 349.356 0.770933 -1.21625 0
M  V30 3759 H 351.309 3.87831 -1.64819 0
M  V30 3760 H 350.033 3.21036 -0.600289 0
M  V30 3761 H 348.692 2.55452 -2.62944 0
M  V30 3762 H 348.34 4.78429 -1.55288 0
M  V30 3763 H 348.04 4.85679 -3.30741 0
M  V30 3764 H 349.564 5.50647 -2.63857 0
M  V30 3765 H 350.978 3.87815 -4.22223 0
M  V30 3766 H 349.375 3.46696 -4.89818 0
M  V30 3767 H 350.445 2.16983 -4.33643 0
M  V30 3768 N 351.788 1.33704 0.83433 0
M  V30 3769 C 353.065 1.16011 1.57483 0
M  V30 3770 C 353.445 -0.27176 2.09343 0
M  V30 3771 O 352.793 -1.27146 1.89858 0
M  V30 3772 C 353.003 2.20507 2.70514 0
M  V30 3773 C 354.351 2.54898 3.39577 0
M  V30 3774 O 355.375 2.19209 2.80759 0
M  V30 3775 O 354.234 3.16158 4.45765 0
M  V30 3776 H 351.328 0.448992 0.694503 0
M  V30 3777 H 353.874 1.453 0.876691 0
M  V30 3778 H 352.646 3.16667 2.29865 0
M  V30 3779 H 352.269 1.92329 3.47987 0
M  V30 3780 N 353.266 -1.05314 1.17247 0
M  V30 3781 C 354.229 -2.112 0.890357 0
M  V30 3782 C 355.229 -1.60359 -0.118943 0
M  V30 3783 O 356.419 -1.73833 0.113086 0
M  V30 3784 C 353.551 -3.39266 0.333422 0
M  V30 3785 H 354.744 -2.37659 1.82916 0
M  V30 3786 H 352.297 -1.21538 0.982758 0
M  V30 3787 H 353.032 -3.18462 -0.612587 0
M  V30 3788 H 352.817 -3.77477 1.06082 0
M  V30 3789 H 354.307 -4.17315 0.154322 0
M  V30 3790 N 354.744 -0.972509 -1.24016 0
M  V30 3791 C 355.99 -0.637978 -1.92504 0
M  V30 3792 C 356.323 0.825383 -1.75787 0
M  V30 3793 O 355.598 1.59442 -1.11393 0
M  V30 3794 C 355.881 -1.01942 -3.45369 0
M  V30 3795 C 355.734 -2.53983 -3.71231 0
M  V30 3796 C 357.053 -0.55751 -4.36555 0
M  V30 3797 H 354.172 -0.233248 -0.699117 0
M  V30 3798 H 356.814 -1.21238 -1.46292 0
M  V30 3799 H 354.964 -0.530656 -3.84859 0
M  V30 3800 H 356.636 -3.10374 -3.41271 0
M  V30 3801 H 354.879 -2.96968 -3.16216 0
M  V30 3802 H 355.55 -2.75723 -4.78206 0
M  V30 3803 H 358.026 -0.977029 -4.04467 0
M  V30 3804 H 356.902 -0.85292 -5.42233 0
M  V30 3805 H 357.163 0.542328 -4.38761 0
M  V30 3806 N 356.222 1.38976 -0.743202 0
M  V30 3807 C 357.469 2.00343 -0.294752 0
M  V30 3808 C 357.797 1.58983 1.12047 0
M  V30 3809 O 357.052 0.813809 1.77977 0
M  V30 3810 C 357.351 3.55647 -0.353517 0
M  V30 3811 C 357.017 4.16685 -1.72292 0
M  V30 3812 C 355.679 4.3307 -2.09771 0
M  V30 3813 C 358.031 4.50464 -2.62168 0
M  V30 3814 C 355.359 4.80526 -3.36618 0
M  V30 3815 C 357.711 4.99332 -3.88395 0
M  V30 3816 C 356.375 5.13924 -4.25956 0
M  V30 3817 H 355.645 0.733108 -0.107857 0
M  V30 3818 H 358.292 1.6618 -0.951651 0
M  V30 3819 H 356.597 3.89884 0.386954 0
M  V30 3820 H 358.294 4.00998 0.0117269 0
M  V30 3821 H 354.884 4.04339 -1.42155 0
M  V30 3822 H 359.068 4.37416 -2.3448 0
M  V30 3823 H 354.324 4.90008 -3.65653 0
M  V30 3824 H 358.498 5.2444 -4.58187 0
M  V30 3825 H 356.125 5.50457 -5.2431 0
M  V30 3826 N 357.7 0.491464 1.49741 0
M  V30 3827 C 358.648 -0.305837 2.30581 0
M  V30 3828 C 359.642 -0.971642 1.38764 0
M  V30 3829 O 360.848 -0.90042 1.5586 0
M  V30 3830 H 357.223 -0.117482 0.742767 0
M  V30 3831 H 359.194 0.396093 2.95759 0
M  V30 3832 C 357.943 -1.36319 3.19863 0
M  V30 3833 H 357.266 -0.860258 3.90435 0
M  V30 3834 H 358.706 -1.89323 3.79385 0
M  V30 3835 C 357.165 -2.37621 2.38826 0
M  V30 3836 O 357.695 -3.43311 2.08567 0
M  V30 3837 N 355.901 -2.09849 2.01026 0
M  V30 3838 H 355.448 -1.23922 2.25834 0
M  V30 3839 H 355.406 -2.77859 1.47112 0
M  V30 3840 N 359.178 -1.55987 0.224894 0
M  V30 3841 C 360.128 -2.17076 -0.697296 0
M  V30 3842 C 361.112 -1.12006 -1.15514 0
M  V30 3843 O 362.304 -1.37985 -1.10857 0
M  V30 3844 C 359.433 -2.85679 -1.90374 0
M  V30 3845 C 358.519 -3.97977 -1.46543 0
M  V30 3846 N 358.91 -5.00359 -0.739909 0
M  V30 3847 C 357.208 -4.10128 -1.75245 0
M  V30 3848 C 357.909 -5.79407 -0.515939 0
M  V30 3849 N 356.885 -5.32892 -1.07364 0
M  V30 3850 H 360.687 -2.93592 -0.134594 0
M  V30 3851 H 358.201 -1.62379 0.0262885 0
M  V30 3852 H 360.198 -3.27857 -2.57518 0
M  V30 3853 H 358.858 -2.1066 -2.47088 0
M  V30 3854 H 359.869 -5.16412 -0.392253 0
M  V30 3855 H 356.546 -3.46263 -2.33255 0
M  V30 3856 H 357.936 -6.71872 0.0617349 0
M  V30 3857 N 360.656 0.0484629 -1.57525 0
M  V30 3858 C 361.619 1.03956 -2.04269 0
M  V30 3859 C 362.619 1.30211 -0.943496 0
M  V30 3860 O 363.809 1.25539 -1.20771 0
M  V30 3861 C 360.941 2.37742 -2.44319 0
M  V30 3862 H 362.134 0.636182 -2.93075 0
M  V30 3863 H 359.687 0.294811 -1.53494 0
M  V30 3864 H 360.422 2.82866 -1.5861 0
M  V30 3865 H 360.207 2.20021 -3.24551 0
M  V30 3866 H 361.697 3.08936 -2.80978 0
M  V30 3867 N 362.134 1.5431 0.320358 0
M  V30 3868 C 363.382 1.72327 1.05583 0
M  V30 3869 C 363.703 0.50149 1.88441 0
M  V30 3870 O 362.973 -0.48448 1.89815 0
M  V30 3871 H 361.553 0.635387 0.3928 0
M  V30 3872 H 364.215 1.91621 0.356019 0
M  V30 3873 H 363.311 2.60426 1.72003 0
M  V30 3874 N 363.613 -0.582584 1.46437 0
M  V30 3875 C 364.89 -1.34276 1.4223 0
M  V30 3876 C 365.27 -2.10835 0.10583 0
M  V30 3877 O 364.618 -2.09485 -0.912596 0
M  V30 3878 C 364.828 -2.26865 2.65204 0
M  V30 3879 C 366.176 -2.88691 3.11356 0
M  V30 3880 O 367.2 -2.37178 2.65753 0
M  V30 3881 O 366.059 -3.82255 3.90568 0
M  V30 3882 H 363.153 -0.603326 0.565621 0
M  V30 3883 H 365.699 -0.603591 1.58603 0
M  V30 3884 H 364.471 -1.69724 3.52576 0
M  V30 3885 H 364.094 -3.08122 2.5129 0
M  V30 3886 N 365.091 -1.34144 -0.827227 0
M  V30 3887 C 366.023 -1.21206 -1.9453 0
M  V30 3888 C 367.036 -0.140176 -1.62195 0
M  V30 3889 O 368.225 -0.391647 -1.7415 0
M  V30 3890 C 365.325 -0.839141 -3.28347 0
M  V30 3891 C 364.498 -2.0051 -3.88734 0
M  V30 3892 C 363.557 -1.61128 -5.00923 0
M  V30 3893 O 362.583 -2.32726 -5.19449 0
M  V30 3894 N 363.785 -0.522958 -5.7814 0
M  V30 3895 H 366.55 -2.17525 -2.06162 0
M  V30 3896 H 364.111 -1.27043 -1.00358 0
M  V30 3897 H 366.103 -0.557556 -4.00841 0
M  V30 3898 H 364.673 0.0337293 -3.12582 0
M  V30 3899 H 363.893 -2.45166 -3.08686 0
M  V30 3900 H 365.181 -2.78498 -4.25812 0
M  V30 3901 H 364.579 0.0723518 -5.65654 0
M  V30 3902 H 363.136 -0.301089 -6.51104 0
M  V30 3903 N 366.569 1.04691 -1.17803 0
M  V30 3904 C 367.816 1.77782 -0.969532 0
M  V30 3905 C 368.144 1.87926 0.501401 0
M  V30 3906 O 367.399 1.37918 1.38842 0
M  V30 3907 C 367.698 3.21467 -1.56186 0
M  V30 3908 C 367.364 3.3137 -3.05786 0
M  V30 3909 C 366.026 3.3378 -3.46619 0
M  V30 3910 C 368.378 3.31976 -4.01797 0
M  V30 3911 C 365.706 3.34431 -4.82051 0
M  V30 3912 C 368.058 3.34167 -5.37136 0
M  V30 3913 C 366.722 3.34866 -5.77426 0
M  V30 3914 H 365.992 0.650549 -0.354777 0
M  V30 3915 H 368.639 1.23006 -1.46772 0
M  V30 3916 H 366.944 3.79203 -0.985515 0
M  V30 3917 H 368.641 3.76652 -1.37602 0
M  V30 3918 H 365.231 3.3021 -2.73238 0
M  V30 3919 H 369.415 3.29311 -3.71306 0
M  V30 3920 H 364.671 3.33285 -5.12573 0
M  V30 3921 H 368.845 3.33585 -6.11305 0
M  V30 3922 H 366.472 3.35124 -6.82346 0
M  V30 3923 N 368.047 0.979072 1.23499 0
M  V30 3924 C 369.294 0.647219 1.91878 0
M  V30 3925 C 369.622 -0.819074 1.76413 0
M  V30 3926 O 368.877 -1.60616 1.11808 0
M  V30 3927 C 369.176 0.981932 3.43646 0
M  V30 3928 C 368.842 2.43822 3.79291 0
M  V30 3929 C 367.504 2.83622 3.88731 0
M  V30 3930 C 369.856 3.3828 3.96505 0
M  V30 3931 C 367.184 4.16897 4.12812 0
M  V30 3932 C 369.536 4.71197 4.22085 0
M  V30 3933 C 368.2 5.10758 4.29747 0
M  V30 3934 H 367.47 0.236834 0.702133 0
M  V30 3935 H 370.117 1.23268 1.46551 0
M  V30 3936 H 368.422 0.314365 3.90537 0
M  V30 3937 H 370.119 0.703395 3.94783 0
M  V30 3938 H 366.709 2.11966 3.72516 0
M  V30 3939 H 370.893 3.0871 3.88603 0
M  V30 3940 H 366.149 4.47157 4.16966 0
M  V30 3941 H 370.323 5.44348 4.34348 0
M  V30 3942 H 367.95 6.1405 4.48159 0
M  V30 3943 N 369.525 -1.3858 0.750561 0
M  V30 3944 C 370.488 -2.28836 0.129152 0
M  V30 3945 C 371.488 -1.47045 -0.650714 0
M  V30 3946 O 372.678 -1.6753 -0.477428 0
M  V30 3947 C 369.81 -3.30751 -0.825622 0
M  V30 3948 H 371.003 -2.85294 0.924516 0
M  V30 3949 H 368.556 -1.47489 0.517376 0
M  V30 3950 H 369.291 -2.79378 -1.64677 0
M  V30 3951 H 369.076 -3.91177 -0.268852 0
M  V30 3952 H 370.566 -3.98249 -1.2565 0
M  V30 3953 N 371.003 -0.499398 -1.49478 0
M  V30 3954 C 372.25 0.0456899 -2.02448 0
M  V30 3955 C 372.578 1.37142 -1.37921 0
M  V30 3956 O 371.833 1.89111 -0.503544 0
M  V30 3957 C 372.132 0.248424 -3.56536 0
M  V30 3958 C 371.798 -0.999107 -4.39692 0
M  V30 3959 C 370.46 -1.34108 -4.62135 0
M  V30 3960 C 372.812 -1.82842 -4.88076 0
M  V30 3961 C 370.14 -2.51191 -5.30208 0
M  V30 3962 C 372.492 -2.99076 -5.57437 0
M  V30 3963 C 371.156 -3.33655 -5.78127 0
M  V30 3964 H 370.426 0.0167191 -0.740811 0
M  V30 3965 H 373.073 -0.65923 -1.79795 0
M  V30 3966 H 371.378 1.03586 -3.77859 0
M  V30 3967 H 373.075 0.684605 -3.95113 0
M  V30 3968 H 369.665 -0.722729 -4.22463 0
M  V30 3969 H 373.849 -1.57737 -4.70566 0
M  V30 3970 H 369.105 -2.78221 -5.44429 0
M  V30 3971 H 373.279 -3.63664 -5.93904 0
M  V30 3972 H 370.906 -4.24483 -6.30649 0
M  V30 3973 N 372.481 1.55866 -0.233164 0
M  V30 3974 C 373.897 1.59133 0.121988 0
M  V30 3975 C 374.097 1.25016 1.58029 0
M  V30 3976 O 373.153 0.990922 2.32243 0
M  V30 3977 C 374.466 2.99932 -0.214792 0
M  V30 3978 C 376.014 3.12601 -0.157971 0
M  V30 3979 C 376.489 4.55597 -0.46859 0
M  V30 3980 N 377.98 4.61305 -0.418585 0
M  V30 3981 C 378.715 5.69903 -0.63227 0
M  V30 3982 N 378.211 6.86819 -0.90835 0
M  V30 3983 N 380.004 5.59264 -0.563913 0
M  V30 3984 H 372.155 1.76315 -1.18434 0
M  V30 3985 H 374.418 0.820093 -0.475553 0
M  V30 3986 H 374.124 3.29588 -1.22739 0
M  V30 3987 H 373.998 3.74327 0.464691 0
M  V30 3988 H 376.385 2.82735 0.845283 0
M  V30 3989 H 376.466 2.40511 -0.871102 0
M  V30 3990 H 376.11 4.86182 -1.46934 0
M  V30 3991 H 376.04 5.25928 0.265865 0
M  V30 3992 H 378.531 3.77297 -0.213368 0
M  V30 3993 H 378.844 7.65507 -1.05919 0
M  V30 3994 H 377.189 6.88536 -0.945673 0
M  V30 3995 H 380.38 4.66802 -0.348372 0
M  V30 3996 H 380.553 6.43831 -0.733847 0
M  V30 3997 N 373.959 -0.0401083 1.57549 0
M  V30 3998 C 375.236 -0.767917 1.79896 0
M  V30 3999 C 375.616 -1.9416 0.82856 0
M  V30 4000 O 374.964 -2.2812 -0.131671 0
M  V30 4001 C 375.174 -1.2113 3.27305 0
M  V30 4002 C 376.522 -1.63175 3.91994 0
M  V30 4003 O 377.546 -1.30616 3.31388 0
M  V30 4004 O 376.405 -2.23565 4.98679 0
M  V30 4005 H 373.499 -0.370441 0.739393 0
M  V30 4006 H 376.045 -0.017737 1.69691 0
M  V30 4007 H 374.817 -0.372937 3.89519 0
M  V30 4008 H 374.44 -2.02183 3.42356 0
M  V30 4009 N 375.437 -1.54477 -0.31217 0
M  V30 4010 C 376.683 -1.73483 -1.0503 0
M  V30 4011 C 377.016 -0.513125 -1.87298 0
M  V30 4012 O 376.291 0.489864 -1.8823 0
M  V30 4013 C 376.574 -3.01723 -1.96558 0
M  V30 4014 C 376.427 -4.3417 -1.17545 0
M  V30 4015 C 377.746 -3.25772 -2.95907 0
M  V30 4016 H 374.865 -0.631222 -0.380432 0
M  V30 4017 H 377.507 -1.87184 -0.325932 0
M  V30 4018 H 375.657 -2.90174 -2.58324 0
M  V30 4019 H 377.329 -4.5762 -0.581513 0
M  V30 4020 H 375.572 -4.31159 -0.477925 0
M  V30 4021 H 376.243 -5.20143 -1.84811 0
M  V30 4022 H 378.719 -3.36857 -2.44267 0
M  V30 4023 H 377.595 -4.16838 -3.57123 0
M  V30 4024 H 377.856 -2.43537 -3.68974 0
M  V30 4025 N 376.915 0.57481 -1.46744 0
M  V30 4026 C 377.845 1.69337 -1.60771 0
M  V30 4027 C 378.826 1.63825 -0.457736 0
M  V30 4028 O 380.011 1.8172 -0.684947 0
M  V30 4029 C 377.141 3.0798 -1.60517 0
M  V30 4030 C 376.095 3.28327 -2.74564 0
M  V30 4031 C 375.421 4.67578 -2.59373 0
M  V30 4032 C 376.721 3.15398 -4.16319 0
M  V30 4033 H 378.415 1.57853 -2.54407 0
M  V30 4034 H 375.961 0.75799 -1.22436 0
M  V30 4035 H 377.914 3.86061 -1.68923 0
M  V30 4036 H 376.638 3.20381 -0.634305 0
M  V30 4037 H 375.297 2.52649 -2.65639 0
M  V30 4038 H 374.945 4.76755 -1.60353 0
M  V30 4039 H 374.645 4.82144 -3.35873 0
M  V30 4040 H 376.169 5.47817 -2.69682 0
M  V30 4041 H 377.583 3.83315 -4.26313 0
M  V30 4042 H 375.98 3.41482 -4.93468 0
M  V30 4043 H 377.05 2.12372 -4.3592 0
M  V30 4044 N 378.394 1.34581 0.820102 0
M  V30 4045 C 379.326 1.22236 1.93884 0
M  V30 4046 C 380.339 0.148776 1.62119 0
M  V30 4047 O 381.528 0.400877 1.7394 0
M  V30 4048 C 378.628 0.856542 3.27897 0
M  V30 4049 C 377.801 2.02569 3.87666 0
M  V30 4050 C 376.86 1.63782 5.00062 0
M  V30 4051 O 375.886 2.35477 5.18208 0
M  V30 4052 N 377.088 0.553611 5.77854 0
M  V30 4053 H 379.853 2.18615 2.05006 0
M  V30 4054 H 377.414 1.27573 0.99683 0
M  V30 4055 H 379.406 0.578806 4.0054 0
M  V30 4056 H 377.976 -0.0171518 3.12595 0
M  V30 4057 H 377.196 2.468 3.07382 0
M  V30 4058 H 378.484 2.80752 4.24329 0
M  V30 4059 H 377.882 -0.0423528 5.65684 0
M  V30 4060 H 376.439 0.335614 6.50935 0
M  V30 4061 N 379.872 -1.04064 1.18357 0
M  V30 4062 C 380.819 -2.12077 0.910603 0
M  V30 4063 C 381.789 -1.65421 -0.15 0
M  V30 4064 O 382.974 -1.90797 -0.0103614 0
M  V30 4065 C 380.114 -3.42252 0.442472 0
M  V30 4066 C 379.227 -4.0252 1.5685 0
M  V30 4067 C 378.362 -5.20657 1.05309 0
M  V30 4068 C 377.401 -5.72955 2.1538 0
M  V30 4069 N 376.538 -6.8238 1.65233 0
M  V30 4070 H 381.378 -2.34764 1.83548 0
M  V30 4071 H 378.915 -1.15157 0.915279 0
M  V30 4072 H 380.873 -4.16921 0.152534 0
M  V30 4073 H 379.503 -3.19712 -0.445428 0
M  V30 4074 H 378.555 -3.25178 1.97391 0
M  V30 4075 H 379.867 -4.37362 2.39824 0
M  V30 4076 H 379.021 -6.0244 0.717677 0
M  V30 4077 H 377.76 -4.87318 0.19293 0
M  V30 4078 H 376.765 -4.89793 2.49766 0
M  V30 4079 H 377.99 -6.08337 3.01832 0
M  V30 4080 H 375.936 -6.50917 0.815064 0
M  V30 4081 H 375.853 -7.16286 2.41805 0
M  V30 4082 H 377.121 -7.67788 1.34619 0
M  V30 4083 N 381.35 -0.985608 -1.22978 0
M  V30 4084 C 382.598 -0.656087 -1.91154 0
M  V30 4085 C 382.919 0.813561 -1.77218 0
M  V30 4086 O 382.189 1.58244 -1.1548 0
M  V30 4087 H 380.769 -0.239674 -0.707506 0
M  V30 4088 H 383.431 -1.25054 -1.49491 0
M  V30 4089 H 382.527 -0.912253 -2.9847 0
M  V30 4090 N 382.828 1.3818 -0.7579 0
M  V30 4091 C 383.738 2.3421 -0.135247 0
M  V30 4092 C 384.754 1.59487 0.695683 0
M  V30 4093 O 385.93 1.91657 0.618832 0
M  V30 4094 C 382.995 3.3862 0.744139 0
M  V30 4095 C 382.056 4.2918 -0.101658 0
M  V30 4096 C 381.289 5.28603 0.735851 0
M  V30 4097 O 381.512 5.35166 1.97366 0
M  V30 4098 O 380.446 6.01707 0.152372 0
M  V30 4099 H 384.272 2.8916 -0.928436 0
M  V30 4100 H 381.857 1.40101 -0.518855 0
M  V30 4101 H 383.739 4.02539 1.2466 0
M  V30 4102 H 382.414 2.86019 1.51575 0
M  V30 4103 H 381.321 3.68407 -0.650167 0
M  V30 4104 H 382.654 4.85048 -0.836024 0
M  V30 4105 N 384.306 0.507319 1.49211 0
M  V30 4106 C 385.238 -0.304532 2.27168 0
M  V30 4107 C 386.251 -0.924956 1.33972 0
M  V30 4108 O 387.44 -0.807227 1.59205 0
M  V30 4109 C 384.54 -1.44431 3.06583 0
M  V30 4110 C 383.713 -0.930026 4.27398 0
M  V30 4111 C 382.772 -1.94817 4.88807 0
M  V30 4112 O 381.798 -1.51418 5.4869 0
M  V30 4113 N 383 -3.279 4.79022 0
M  V30 4114 H 385.765 0.36395 2.97482 0
M  V30 4115 H 383.326 0.340249 1.58284 0
M  V30 4116 H 385.318 -2.12311 3.44537 0
M  V30 4117 H 383.888 -2.01684 2.38835 0
M  V30 4118 H 383.108 -0.0759244 3.94127 0
M  V30 4119 H 384.396 -0.564932 5.05654 0
M  V30 4120 H 383.794 -3.65843 4.3148 0
M  V30 4121 H 382.351 -3.91476 5.21142 0
M  V30 4122 N 385.784 -1.5574 0.241426 0
M  V30 4123 C 387.009 -2.0366 -0.392111 0
M  V30 4124 C 387.434 -1.11969 -1.51144 0
M  V30 4125 O 386.792 -0.111594 -1.80956 0
M  V30 4126 C 386.84 -3.49638 -0.882371 0
M  V30 4127 O 385.944 -3.6108 -1.99235 0
M  V30 4128 H 385.285 -0.658379 -0.0862122 0
M  V30 4129 H 387.815 -2.01302 0.365881 0
M  V30 4130 H 387.825 -3.90351 -1.18702 0
M  V30 4131 H 386.5 -4.15852 -0.0632361 0
M  V30 4132 H 385.077 -3.32262 -1.69282 0
M  V30 4133 N 387.262 0.0317525 -1.57568 0
M  V30 4134 C 388.678 0.38735 -1.54828 0
M  V30 4135 C 388.878 1.7677 -0.967187 0
M  V30 4136 O 387.934 2.45581 -0.587063 0
M  V30 4137 C 389.247 0.291667 -2.99282 0
M  V30 4138 C 390.795 0.368946 -3.10818 0
M  V30 4139 C 391.27 0.302741 -4.56998 0
M  V30 4140 N 392.761 0.361617 -4.61786 0
M  V30 4141 C 393.496 0.333238 -5.72431 0
M  V30 4142 N 392.992 0.257308 -6.92322 0
M  V30 4143 N 394.785 0.382769 -5.60795 0
M  V30 4144 H 386.936 -0.871609 -1.93692 0
M  V30 4145 H 389.199 -0.331161 -0.888277 0
M  V30 4146 H 388.905 -0.656794 -3.45513 0
M  V30 4147 H 388.779 1.08638 -3.61217 0
M  V30 4148 H 391.166 1.30784 -2.64536 0
M  V30 4149 H 391.247 -0.455066 -2.5172 0
M  V30 4150 H 390.891 -0.632473 -5.03947 0
M  V30 4151 H 390.821 1.14482 -5.14005 0
M  V30 4152 H 393.312 0.422923 -3.75526 0
M  V30 4153 H 393.625 0.24068 -7.72425 0
M  V30 4154 H 391.97 0.223396 -6.94641 0
M  V30 4155 H 395.161 0.44006 -4.66027 0
M  V30 4156 H 395.334 0.357184 -6.47015 0
M  V30 4157 N 388.74 1.54641 0.303973 0
M  V30 4158 C 389.97 1.77511 1.05705 0
M  V30 4159 C 390.378 0.533228 1.81531 0
M  V30 4160 O 389.721 -0.506423 1.76582 0
M  V30 4161 C 389.783 2.92779 2.08617 0
M  V30 4162 C 389.447 4.30977 1.52013 0
M  V30 4163 C 390.444 5.11115 0.9517 0
M  V30 4164 C 388.129 4.77571 1.55665 0
M  V30 4165 C 390.123 6.35966 0.427327 0
M  V30 4166 C 387.81 6.02384 1.02841 0
M  V30 4167 C 388.808 6.81417 0.464713 0
M  V30 4168 O 388.496 8.03881 -0.0555283 0
M  V30 4169 H 388.228 0.59579 0.319391 0
M  V30 4170 H 390.782 2.02401 0.349712 0
M  V30 4171 H 389.012 2.63506 2.83022 0
M  V30 4172 H 390.701 3.03252 2.69802 0
M  V30 4173 H 391.467 4.76264 0.916407 0
M  V30 4174 H 387.346 4.16085 1.9848 0
M  V30 4175 H 390.89 6.97599 -0.0133062 0
M  V30 4176 H 386.787 6.36723 1.06084 0
M  V30 4177 H 387.555 8.18479 0.0580522 0
M  V30 4178 N 390.218 -0.567019 1.47046 0
M  V30 4179 C 391.165 -1.67489 1.58796 0
M  V30 4180 C 392.135 -1.60399 0.43144 0
M  V30 4181 O 393.32 -1.79378 0.650233 0
M  V30 4182 C 390.46 -3.05821 1.59899 0
M  V30 4183 C 389.573 -3.2342 2.86397 0
M  V30 4184 C 388.708 -4.52093 2.789 0
M  V30 4185 C 387.747 -4.6309 4.00267 0
M  V30 4186 N 386.884 -5.83106 3.91064 0
M  V30 4187 H 391.724 -1.56785 2.53422 0
M  V30 4188 H 389.261 -0.763896 1.2571 0
M  V30 4189 H 391.219 -3.8591 1.58522 0
M  V30 4190 H 389.849 -3.15384 0.687929 0
M  V30 4191 H 388.901 -2.3683 2.97684 0
M  V30 4192 H 390.213 -3.27412 3.76301 0
M  V30 4193 H 389.367 -5.4043 2.75718 0
M  V30 4194 H 388.106 -4.50565 1.86662 0
M  V30 4195 H 387.111 -3.73168 4.03765 0
M  V30 4196 H 388.336 -4.66386 4.93621 0
M  V30 4197 H 386.282 -5.82546 3.01623 0
M  V30 4198 H 386.199 -5.88434 4.74638 0
M  V30 4199 H 387.467 -6.73831 3.91882 0
M  V30 4200 N 391.696 -1.35014 -0.812953 0
M  V30 4201 C 392.973 -1.18502 -1.55617 0
M  V30 4202 C 393.353 0.238421 -2.09749 0
M  V30 4203 O 392.701 1.2411 -1.91857 0
M  V30 4204 C 392.911 -2.24783 -2.66971 0
M  V30 4205 C 394.259 -2.60268 -3.35478 0
M  V30 4206 O 395.283 -2.23648 -2.77236 0
M  V30 4207 O 394.142 -3.2321 -4.40678 0
M  V30 4208 H 391.236 -0.459984 -0.687272 0
M  V30 4209 H 393.782 -1.46677 -0.853464 0
M  V30 4210 H 392.554 -3.20284 -2.24798 0
M  V30 4211 H 392.177 -1.97841 -3.44884 0
M  V30 4212 N 393.175 1.03435 -1.18907 0
M  V30 4213 C 394.421 1.7713 -0.99982 0
M  V30 4214 C 394.776 1.86695 0.465049 0
M  V30 4215 O 394.069 1.36866 1.34083 0
M  V30 4216 C 394.263 3.19792 -1.59586 0
M  V30 4217 C 394.092 3.24134 -3.11717 0
M  V30 4218 C 392.862 3.32398 -3.80578 0
M  V30 4219 C 395.06 3.11625 -4.09138 0
M  V30 4220 N 393.042 3.26055 -5.20155 0
M  V30 4221 C 394.413 3.12855 -5.35277 0
M  V30 4222 C 396.468 2.95713 -4.00572 0
M  V30 4223 C 395.171 2.99805 -6.53842 0
M  V30 4224 C 397.197 2.84011 -5.1874 0
M  V30 4225 C 396.559 2.8589 -6.43775 0
M  V30 4226 H 392.658 0.659683 -0.419931 0
M  V30 4227 H 395.242 1.2317 -1.50789 0
M  V30 4228 H 393.413 3.72085 -1.11389 0
M  V30 4229 H 395.145 3.81819 -1.3415 0
M  V30 4230 H 391.9 3.38392 -3.31342 0
M  V30 4231 H 392.324 3.26307 -5.93172 0
M  V30 4232 H 396.966 2.93086 -3.0473 0
M  V30 4233 H 394.684 3.01184 -7.49876 0
M  V30 4234 H 398.27 2.72744 -5.13909 0
M  V30 4235 H 397.15 2.76931 -7.33675 0
M  V30 4236 N 394.653 0.992116 1.22453 0
M  V30 4237 C 395.9 0.667534 1.91181 0
M  V30 4238 C 396.228 -0.800317 1.77271 0
M  V30 4239 O 395.483 -1.59421 1.13505 0
M  V30 4240 C 395.782 1.01832 3.42586 0
M  V30 4241 C 395.448 2.47831 3.76684 0
M  V30 4242 C 394.11 2.87729 3.85701 0
M  V30 4243 C 396.462 3.42466 3.92895 0
M  V30 4244 C 393.79 4.21252 4.08367 0
M  V30 4245 C 396.142 4.75648 4.17064 0
M  V30 4246 C 394.806 5.15288 4.24305 0
M  V30 4247 H 394.076 0.244268 0.699581 0
M  V30 4248 H 396.723 1.24816 1.45235 0
M  V30 4249 H 395.028 0.355769 3.90181 0
M  V30 4250 H 396.725 0.745228 3.94014 0
M  V30 4251 H 393.315 2.15905 3.70247 0
M  V30 4252 H 397.499 3.12814 3.85307 0
M  V30 4253 H 392.755 4.51554 4.122 0
M  V30 4254 H 396.929 5.48924 4.2855 0
M  V30 4255 H 394.556 6.18769 4.41621 0
M  V30 4256 N 396.131 -1.37776 0.765217 0
M  V30 4257 C 397.378 -1.99849 0.326588 0
M  V30 4258 C 397.706 -1.60746 -1.09504 0
M  V30 4259 O 396.961 -0.84202 -1.76659 0
M  V30 4260 C 397.26 -3.5504 0.410053 0
M  V30 4261 C 396.926 -4.13891 1.78899 0
M  V30 4262 C 395.588 -4.29678 2.16635 0
M  V30 4263 C 397.94 -4.46236 2.69301 0
M  V30 4264 C 395.268 -4.7511 3.44221 0
M  V30 4265 C 397.62 -4.93089 3.9629 0
M  V30 4266 C 396.284 -5.07082 4.34078 0
M  V30 4267 H 395.554 -0.7313 0.119507 0
M  V30 4268 H 398.201 -1.64645 0.977968 0
M  V30 4269 H 396.506 -3.90451 -0.324878 0
M  V30 4270 H 398.203 -4.00966 0.0520699 0
M  V30 4271 H 394.793 -4.02026 1.48569 0
M  V30 4272 H 398.977 -4.3363 2.41409 0
M  V30 4273 H 394.233 -4.84129 3.73402 0
M  V30 4274 H 398.407 -5.17084 4.66472 0
M  V30 4275 H 396.034 -5.42046 5.33001 0
M  V30 4276 N 397.609 -0.515225 -1.4894 0
M  V30 4277 C 398.858 0.0261361 -2.01683 0
M  V30 4278 C 399.171 1.36719 -1.39883 0
M  V30 4279 O 400.377 1.99606 -1.84037 0
M  V30 4280 C 398.833 0.0970111 -3.59769 0
M  V30 4281 C 398.441 -1.23825 -4.30548 0
M  V30 4282 C 400.185 0.587981 -4.20408 0
M  V30 4283 C 398.092 -1.12877 -5.80528 0
M  V30 4284 H 397.022 0.0135398 -0.753878 0
M  V30 4285 H 399.673 -0.656787 -1.71343 0
M  V30 4286 H 398.055 0.844694 -3.86886 0
M  V30 4287 H 399.229 -2.00034 -4.15118 0
M  V30 4288 H 397.544 -1.66379 -3.81716 0
M  V30 4289 H 400.141 0.68763 -5.3026 0
M  V30 4290 H 400.484 1.59026 -3.84729 0
M  V30 4291 H 401.017 -0.103582 -3.97665 0
M  V30 4292 H 397.756 -2.10575 -6.20756 0
M  V30 4293 H 397.276 -0.407799 -5.98412 0
M  V30 4294 H 398.955 -0.813332 -6.41868 0
M  V30 4295 N 399.087 1.5561 -0.249682 0
M  V30 4296 C 399.997 2.25143 0.659375 0
M  V30 4297 C 401.013 1.2685 1.19101 0
M  V30 4298 O 402.189 1.59732 1.22669 0
M  V30 4299 C 399.254 2.93945 1.8384 0
M  V30 4300 C 398.315 4.07655 1.34596 0
M  V30 4301 C 397.548 4.73167 2.46878 0
M  V30 4302 O 397.771 4.37768 3.65671 0
M  V30 4303 O 396.705 5.61623 2.16478 0
M  V30 4304 H 400.531 3.03545 0.0968698 0
M  V30 4305 H 398.116 1.49389 -0.018074 0
M  V30 4306 H 399.998 3.37271 2.52638 0
M  V30 4307 H 398.673 2.18481 2.38847 0
M  V30 4308 H 397.58 3.68839 0.625174 0
M  V30 4309 H 398.913 4.84946 0.841941 0
M  V30 4310 N 400.565 -0.0233959 1.57583 0
M  V30 4311 C 401.842 -0.748794 1.807 0
M  V30 4312 C 402.222 -1.9327 0.849106 0
M  V30 4313 O 401.57 -2.28247 -0.107468 0
M  V30 4314 C 401.78 -1.17651 3.28571 0
M  V30 4315 C 403.128 -1.59008 3.93702 0
M  V30 4316 O 404.152 -1.27094 3.32755 0
M  V30 4317 O 403.011 -2.18264 5.01022 0
M  V30 4318 H 400.105 -0.362578 0.743281 0
M  V30 4319 H 402.651 0.000261958 1.697 0
M  V30 4320 H 401.423 -0.331603 3.89892 0
M  V30 4321 H 401.046 -1.98541 3.44481 0
M  V30 4322 N 402.043 -1.548 -0.295768 0
M  V30 4323 C 403.29 -1.74329 -1.03032 0
M  V30 4324 C 403.618 -0.531915 -1.87085 0
M  V30 4325 O 402.873 0.486052 -1.89568 0
M  V30 4326 C 403.172 -2.98797 -1.961 0
M  V30 4327 C 402.838 -4.32356 -1.2798 0
M  V30 4328 C 401.5 -4.68661 -1.09135 0
M  V30 4329 C 403.852 -5.15128 -0.793243 0
M  V30 4330 C 401.18 -5.85312 -0.403269 0
M  V30 4331 C 403.532 -6.32488 -0.118854 0
M  V30 4332 C 402.196 -6.6745 0.0815043 0
M  V30 4333 H 401.466 -0.637916 -0.37702 0
M  V30 4334 H 404.113 -1.8906 -0.304696 0
M  V30 4335 H 402.418 -2.78869 -2.75207 0
M  V30 4336 H 404.115 -3.11102 -2.53015 0
M  V30 4337 H 400.705 -4.03808 -1.43655 0
M  V30 4338 H 404.889 -4.87575 -0.92653 0
M  V30 4339 H 400.145 -6.1094 -0.237098 0
M  V30 4340 H 404.319 -6.95892 0.266035 0
M  V30 4341 H 401.946 -7.57695 0.616685 0
M  V30 4342 N 403.521 0.559213 -1.47345 0
M  V30 4343 C 404.932 1.14134 -1.47751 0
M  V30 4344 C 405.283 1.94834 -0.231103 0
M  V30 4345 O 404.408 2.05957 0.664137 0
M  V30 4346 C 405.003 2.07653 -2.67705 0
M  V30 4347 C 403.562 2.61141 -2.71076 0
M  V30 4348 C 402.709 1.3748 -2.40821 0
M  V30 4349 H 405.66 0.345917 -1.54884 0
M  V30 4350 H 405.681 2.91497 -2.44561 0
M  V30 4351 H 405.193 1.4889 -3.58404 0
M  V30 4352 H 403.294 3.23707 -1.84511 0
M  V30 4353 H 403.407 3.02272 -3.7171 0
M  V30 4354 H 401.771 1.68086 -1.91362 0
M  V30 4355 H 402.554 0.805135 -3.33725 0
M  V30 4356 N 404.999 1.35443 0.805782 0
M  V30 4357 C 406.245 1.28952 1.56522 0
M  V30 4358 C 406.578 -0.135597 1.93726 0
M  V30 4359 O 405.853 -1.08516 1.61414 0
M  V30 4360 C 406.136 2.19678 2.85331 0
M  V30 4361 C 405.989 3.7081 2.54598 0
M  V30 4362 C 407.308 2.09495 3.8704 0
M  V30 4363 H 404.427 0.469764 0.567883 0
M  V30 4364 H 407.069 1.65851 0.927001 0
M  V30 4365 H 405.219 1.8834 3.39795 0
M  V30 4366 H 406.891 4.12593 2.06312 0
M  V30 4367 H 405.134 3.91051 1.8778 0
M  V30 4368 H 405.805 4.29679 3.46525 0
M  V30 4369 H 408.281 2.37045 3.41978 0
M  V30 4370 H 407.157 2.75173 4.74943 0
M  V30 4371 H 407.418 1.07714 4.28777 0
M  V30 4372 N 406.477 -1.02803 1.19454 0
M  V30 4373 C 407.702 -1.80378 1.02364 0
M  V30 4374 C 408.127 -1.83282 -0.423007 0
M  V30 4375 O 407.485 -1.25945 -1.30413 0
M  V30 4376 C 407.533 -3.23248 1.59821 0
M  V30 4377 O 406.637 -4.04 0.828105 0
M  V30 4378 H 405.978 -0.556799 0.361761 0
M  V30 4379 H 408.508 -1.29385 1.58495 0
M  V30 4380 H 408.518 -3.73994 1.63073 0
M  V30 4381 H 407.193 -3.2045 2.65113 0
M  V30 4382 H 405.77 -3.62635 0.86891 0
M  V30 4383 N 407.956 -0.998596 -1.21925 0
M  V30 4384 C 408.903 -0.553621 -2.24062 0
M  V30 4385 C 409.873 0.416999 -1.6078 0
M  V30 4386 O 411.058 0.320482 -1.88089 0
M  V30 4387 C 408.198 0.119959 -3.44891 0
M  V30 4388 C 407.311 -0.893077 -4.22668 0
M  V30 4389 C 406.446 -0.192424 -5.30851 0
M  V30 4390 C 405.485 -1.19344 -6.00353 0
M  V30 4391 N 404.622 -0.520707 -7.00166 0
M  V30 4392 H 409.462 -1.4293 -2.61486 0
M  V30 4393 H 406.999 -0.715838 -1.28507 0
M  V30 4394 H 408.957 0.527459 -4.13852 0
M  V30 4395 H 407.587 0.959389 -3.08214 0
M  V30 4396 H 406.639 -1.41886 -3.52948 0
M  V30 4397 H 407.951 -1.65512 -4.70539 0
M  V30 4398 H 407.105 0.271515 -6.06092 0
M  V30 4399 H 405.844 0.602075 -4.83969 0
M  V30 4400 H 404.849 -1.66795 -5.23889 0
M  V30 4401 H 406.074 -1.98891 -6.49322 0
M  V30 4402 H 404.02 0.254252 -6.55507 0
M  V30 4403 H 403.937 -1.2211 -7.46073 0
M  V30 4404 H 405.205 -0.0797596 -7.79459 0
M  V30 4405 N 409.434 1.37368 -0.772513 0
M  V30 4406 C 410.662 2.03942 -0.348588 0
M  V30 4407 C 411.077 1.58264 1.02947 0
M  V30 4408 O 410.434 0.764246 1.65727 0
M  V30 4409 C 410.485 3.5946 -0.38351 0
M  V30 4410 O 410.206 4.03468 -1.70721 0
M  V30 4411 C 411.707 4.4327 0.0519152 0
M  V30 4412 H 408.927 0.654931 -0.145966 0
M  V30 4413 H 411.471 1.75686 -1.04665 0
M  V30 4414 H 409.626 3.86486 0.265978 0
M  V30 4415 H 410.04 4.97991 -1.64636 0
M  V30 4416 H 411.514 5.51995 -0.0236733 0
M  V30 4417 H 411.991 4.2514 1.10238 0
M  V30 4418 H 412.597 4.21471 -0.569415 0
M  V30 4419 N 410.912 0.523116 1.48665 0
M  V30 4420 C 412.137 -0.0117284 2.07397 0
M  V30 4421 C 412.562 -1.28031 1.37803 0
M  V30 4422 O 411.92 -1.75836 0.441762 0
M  V30 4423 C 411.968 -0.225786 3.59892 0
M  V30 4424 O 411.072 -1.29592 3.91509 0
M  V30 4425 H 410.413 0.0360673 0.66302 0
M  V30 4426 H 412.943 0.729066 1.9117 0
M  V30 4427 H 412.953 -0.450552 4.05505 0
M  V30 4428 H 411.628 0.700944 4.09951 0
M  V30 4429 H 410.205 -1.05436 3.57684 0
M  V30 4430 N 412.39 -1.55475 0.257931 0
M  V30 4431 C 413.806 -1.59307 -0.0966563 0
M  V30 4432 C 414.006 -1.27514 -1.5602 0
M  V30 4433 O 413.062 -1.02774 -2.30637 0
M  V30 4434 C 414.375 -2.99552 0.262481 0
M  V30 4435 C 415.923 -3.1231 0.207683 0
M  V30 4436 C 416.398 -4.54793 0.541012 0
M  V30 4437 N 417.889 -4.6058 0.491921 0
M  V30 4438 C 418.624 -5.68825 0.722857 0
M  V30 4439 N 418.12 -6.85287 1.0175 0
M  V30 4440 N 419.913 -5.58296 0.652815 0
M  V30 4441 H 412.064 -1.74409 1.21224 0
M  V30 4442 H 414.327 -0.812424 0.48854 0
M  V30 4443 H 414.033 -3.27593 1.27967 0
M  V30 4444 H 413.907 -3.75019 -0.40508 0
M  V30 4445 H 416.294 -2.84044 -0.800195 0
M  V30 4446 H 416.375 -2.39095 0.909255 0
M  V30 4447 H 416.019 -4.83783 1.5465 0
M  V30 4448 H 415.949 -5.26285 -0.18216 0
M  V30 4449 H 418.44 -3.7691 0.273366 0
M  V30 4450 H 418.753 -7.63725 1.18084 0
M  V30 4451 H 417.098 -6.86945 1.05509 0
M  V30 4452 H 420.289 -4.66189 0.422592 0
M  V30 4453 H 420.462 -6.42582 0.836182 0
M  V30 4454 N 413.868 0.0150385 -1.57593 0
M  V30 4455 C 415.096 0.714395 -1.94175 0
M  V30 4456 C 415.511 1.68135 -0.858841 0
M  V30 4457 O 414.868 1.81766 0.163567 0
M  V30 4458 C 414.919 1.45933 -3.30735 0
M  V30 4459 O 414.64 0.531167 -4.34868 0
M  V30 4460 C 416.141 2.25456 -3.81686 0
M  V30 4461 H 413.361 0.199923 -0.640525 0
M  V30 4462 H 415.905 -0.0316096 -2.04476 0
M  V30 4463 H 414.06 2.15709 -3.21789 0
M  V30 4464 H 414.474 1.05509 -5.13778 0
M  V30 4465 H 415.948 2.731 -4.79709 0
M  V30 4466 H 416.425 3.07485 -3.13607 0
M  V30 4467 H 417.031 1.60727 -3.9376 0
M  V30 4468 N 415.346 1.54954 0.287554 0
M  V30 4469 C 416.294 1.87606 1.37502 0
M  V30 4470 C 417.288 0.751001 1.51843 0
M  V30 4471 O 418.494 0.935169 1.53801 0
M  V30 4472 H 414.869 0.595231 0.459569 0
M  V30 4473 H 416.84 2.78477 1.07206 0
M  V30 4474 C 415.589 2.15183 2.73115 0
M  V30 4475 H 414.912 3.01234 2.62866 0
M  V30 4476 H 416.352 2.4196 3.48183 0
M  V30 4477 C 414.811 0.954686 3.2309 0
M  V30 4478 O 415.341 0.181949 4.01288 0
M  V30 4479 N 413.547 0.756368 2.80584 0
M  V30 4480 H 413.094 1.38643 2.17108 0
M  V30 4481 H 413.052 -0.0430391 3.14371 0
M  V30 4482 N 416.824 -0.551391 1.4764 0
M  V30 4483 C 418.054 -1.33163 1.57959 0
M  V30 4484 C 418.462 -1.87785 0.23094 0
M  V30 4485 O 417.805 -1.65996 -0.786825 0
M  V30 4486 C 417.867 -2.53449 2.54958 0
M  V30 4487 C 417.531 -2.20071 4.00522 0
M  V30 4488 C 418.528 -1.77017 4.88836 0
M  V30 4489 C 416.213 -2.31252 4.45901 0
M  V30 4490 C 418.207 -1.4558 6.20552 0
M  V30 4491 C 415.894 -1.99427 5.77644 0
M  V30 4492 C 416.892 -1.56659 6.64791 0
M  V30 4493 O 416.58 -1.25242 7.94084 0
M  V30 4494 H 416.312 -0.412022 0.535923 0
M  V30 4495 H 418.866 -0.674186 1.9402 0
M  V30 4496 H 417.096 -3.22104 2.13976 0
M  V30 4497 H 418.785 -3.15523 2.55343 0
M  V30 4498 H 419.551 -1.67867 4.55023 0
M  V30 4499 H 415.43 -2.63498 3.78272 0
M  V30 4500 H 418.974 -1.12125 6.8853 0
M  V30 4501 H 414.871 -2.08211 6.10998 0
M  V30 4502 H 415.639 -1.38822 8.06642 0
M  V30 4503 N 418.302 -1.35869 -0.798587 0
M  V30 4504 C 419.212 -1.31578 -1.94228 0
M  V30 4505 C 420.228 -0.21939 -1.72611 0
M  V30 4506 O 421.404 -0.450167 -1.96305 0
M  V30 4507 C 418.469 -1.09528 -3.28944 0
M  V30 4508 C 417.53 -2.28556 -3.63402 0
M  V30 4509 C 416.763 -2.07549 -4.9169 0
M  V30 4510 O 416.986 -1.046 -5.60727 0
M  V30 4511 O 415.92 -2.95106 -5.24591 0
M  V30 4512 H 419.746 -2.27847 -2.00796 0
M  V30 4513 H 417.331 -1.16322 -0.937526 0
M  V30 4514 H 419.213 -0.991127 -4.09579 0
M  V30 4515 H 417.888 -0.16315 -3.23289 0
M  V30 4516 H 416.795 -2.44538 -2.83112 0
M  V30 4517 H 418.128 -3.20244 -3.73771 0
M  V30 4518 N 419.78 1.02168 -1.19998 0
M  V30 4519 C 421.008 1.79296 -1.03249 0
M  V30 4520 C 421.423 1.84103 0.418502 0
M  V30 4521 O 420.78 1.29031 1.29063 0
M  V30 4522 C 420.831 3.24007 -1.60319 0
M  V30 4523 O 420.552 3.19512 -2.99739 0
M  V30 4524 C 422.053 4.17704 -1.48453 0
M  V30 4525 H 419.273 0.564016 -0.363493 0
M  V30 4526 H 421.817 1.28639 -1.58973 0
M  V30 4527 H 419.972 3.7183 -1.08727 0
M  V30 4528 H 420.386 4.10306 -3.26725 0
M  V30 4529 H 421.86 5.17104 -1.93153 0
M  V30 4530 H 422.337 4.37029 -0.436193 0
M  V30 4531 H 422.943 3.7576 -1.99211 0
M  V30 4532 N 421.258 1.00505 1.21394 0
M  V30 4533 C 422.505 0.687774 1.90462 0
M  V30 4534 C 422.833 -0.78147 1.7811 0
M  V30 4535 O 422.088 -1.58208 1.1519 0
M  V30 4536 C 422.387 1.0546 3.41486 0
M  V30 4537 C 422.053 2.51812 3.74034 0
M  V30 4538 C 420.715 2.91804 3.82628 0
M  V30 4539 C 423.067 3.46614 3.8924 0
M  V30 4540 C 420.395 4.2556 4.03876 0
M  V30 4541 C 422.747 4.80044 4.11995 0
M  V30 4542 C 421.411 5.19759 4.18816 0
M  V30 4543 H 420.681 0.251674 0.696951 0
M  V30 4544 H 423.328 1.26349 1.43903 0
M  V30 4545 H 421.633 0.397133 3.89782 0
M  V30 4546 H 423.33 0.786976 3.93202 0
M  V30 4547 H 419.92 2.1982 3.67936 0
M  V30 4548 H 424.104 3.16883 3.81967 0
M  V30 4549 H 419.36 4.55901 4.07387 0
M  V30 4550 H 423.534 5.53439 4.22704 0
M  V30 4551 H 421.161 6.23418 4.35033 0
M  V30 4552 N 422.737 -1.36956 0.779787 0
M  V30 4553 C 423.7 -2.2851 0.177662 0
M  V30 4554 C 424.7 -1.48393 -0.619377 0
M  V30 4555 O 425.89 -1.68505 -0.441785 0
M  V30 4556 C 423.022 -3.32428 -0.755279 0
M  V30 4557 H 424.215 -2.83269 0.984823 0
M  V30 4558 H 421.768 -1.46358 0.548544 0
M  V30 4559 H 422.503 -2.82808 -1.58714 0
M  V30 4560 H 422.288 -3.91659 -0.185817 0
M  V30 4561 H 423.778 -4.00824 -1.17174 0
M  V30 4562 N 424.215 -0.530993 -1.48385 0
M  V30 4563 C 425.461 0.00274135 -2.028 0
M  V30 4564 C 425.794 1.33838 -1.40716 0
M  V30 4565 O 425.069 1.86465 -0.553277 0
M  V30 4566 C 425.352 0.123676 -3.59888 0
M  V30 4567 C 425.205 -1.2372 -4.3245 0
M  V30 4568 C 426.524 0.849967 -4.31814 0
M  V30 4569 H 423.643 -0.000477758 -0.737 0
M  V30 4570 H 426.285 -0.688217 -1.77098 0
M  V30 4571 H 424.435 0.712157 -3.81917 0
M  V30 4572 H 426.107 -1.86687 -4.21836 0
M  V30 4573 H 424.35 -1.81882 -3.93829 0
M  V30 4574 H 425.021 -1.10557 -5.40815 0
M  V30 4575 H 427.497 0.350572 -4.14621 0
M  V30 4576 H 426.373 0.903486 -5.41413 0
M  V30 4577 H 426.634 1.90047 -3.99167 0
M  V30 4578 N 425.693 1.55336 -0.266172 0
M  V30 4579 C 426.625 2.19544 0.658247 0
M  V30 4580 C 427.638 1.17746 1.12427 0
M  V30 4581 O 428.827 1.44517 1.04772 0
M  V30 4582 C 425.927 2.80032 1.9088 0
M  V30 4583 C 425.1 4.07436 1.59106 0
M  V30 4584 C 424.159 4.52056 2.69317 0
M  V30 4585 O 423.185 5.18023 2.35883 0
M  V30 4586 N 424.387 4.21448 3.99201 0
M  V30 4587 H 427.152 2.99503 0.108754 0
M  V30 4588 H 424.713 1.61667 -0.0869059 0
M  V30 4589 H 426.705 3.06831 2.63888 0
M  V30 4590 H 425.275 2.04119 2.36758 0
M  V30 4591 H 424.495 3.88021 0.695243 0
M  V30 4592 H 425.783 4.90462 1.35367 0
M  V30 4593 H 425.181 3.68528 4.29189 0
M  V30 4594 H 423.738 4.53039 4.68614 0
M  V30 4595 N 427.171 -0.0066808 1.57599 0
M  V30 4596 C 428.417 -0.693947 1.90558 0
M  V30 4597 C 428.75 -1.73792 0.866594 0
M  V30 4598 O 428.025 -1.94156 -0.115548 0
M  V30 4599 C 428.308 -1.34317 3.34112 0
M  V30 4600 C 428.161 -0.311189 4.48722 0
M  V30 4601 C 429.48 -2.27116 3.7697 0
M  V30 4602 H 426.599 -0.250803 0.693013 0
M  V30 4603 H 429.241 0.043242 1.89951 0
M  V30 4604 H 427.391 -1.9715 3.3476 0
M  V30 4605 H 429.063 0.316944 4.6021 0
M  V30 4606 H 427.306 0.367253 4.32243 0
M  V30 4607 H 427.977 -0.804366 5.46108 0
M  V30 4608 H 430.453 -1.74306 3.77831 0
M  V30 4609 H 429.329 -2.69511 4.78179 0
M  V30 4610 H 429.59 -3.14743 3.10466 0
M  V30 4611 N 428.649 -1.55105 -0.279332 0
M  V30 4612 C 430.06 -1.66186 -0.850832 0
M  V30 4613 C 430.411 -0.584707 -1.87285 0
M  V30 4614 O 429.536 0.274919 -2.14647 0
M  V30 4615 C 430.131 -3.01264 -1.55001 0
M  V30 4616 C 428.69 -3.14394 -2.06963 0
M  V30 4617 C 427.837 -2.61959 -0.909536 0
M  V30 4618 H 430.788 -1.58602 -0.0558235 0
M  V30 4619 H 430.809 -2.93899 -2.41669 0
M  V30 4620 H 430.321 -3.7964 -0.805931 0
M  V30 4621 H 428.422 -2.4078 -2.84352 0
M  V30 4622 H 428.535 -4.20867 -2.28928 0
M  V30 4623 H 426.899 -2.18957 -1.30116 0
M  V30 4624 H 427.682 -3.42833 -0.179062 0
M  V30 4625 N 430.127 0.543554 -1.4793 0
M  V30 4626 C 431.09 1.63156 -1.60975 0
M  V30 4627 C 432.09 1.53346 -0.483899 0
M  V30 4628 O 433.28 1.5726 -0.749339 0
M  V30 4629 C 430.412 3.02743 -1.56716 0
M  V30 4630 H 431.605 1.52934 -2.57975 0
M  V30 4631 H 429.158 0.764557 -1.36324 0
M  V30 4632 H 429.893 3.18484 -0.611418 0
M  V30 4633 H 429.678 3.11272 -2.38438 0
M  V30 4634 H 431.168 3.81871 -1.6901 0
M  V30 4635 N 431.605 1.3629 0.791371 0
M  V30 4636 C 432.538 1.24816 1.9104 0
M  V30 4637 C 433.516 0.132739 1.62057 0
M  V30 4638 O 434.7 0.303527 1.8604 0
M  V30 4639 C 431.827 0.925355 3.25814 0
M  V30 4640 C 430.873 2.05495 3.7373 0
M  V30 4641 S 431.706 3.67255 3.89723 0
M  V30 4642 C 432.862 3.37084 5.27376 0
M  V30 4643 H 433.095 2.19533 2.00481 0
M  V30 4644 H 430.628 1.21684 0.950393 0
M  V30 4645 H 432.586 0.745924 4.03666 0
M  V30 4646 H 431.247 -0.00400098 3.141 0
M  V30 4647 H 430.44 1.7836 4.71385 0
M  V30 4648 H 430.042 2.1935 3.02922 0
M  V30 4649 H 432.334 2.90856 6.1189 0
M  V30 4650 H 433.277 4.33995 5.59512 0
M  V30 4651 H 433.685 2.7248 4.94383 0
M  V30 4652 N 433.083 -1.0153 1.20538 0
M  V30 4653 C 434.494 -1.56598 1.01657 0
M  V30 4654 C 434.845 -1.91505 -0.426668 0
M  V30 4655 O 433.97 -1.72375 -1.30827 0
M  V30 4656 C 434.565 -2.84542 1.83905 0
M  V30 4657 C 433.124 -3.36133 1.69386 0
M  V30 4658 C 432.271 -2.09427 1.81757 0
M  V30 4659 H 435.222 -0.838974 1.34711 0
M  V30 4660 H 435.243 -3.56004 1.34319 0
M  V30 4661 H 434.755 -2.59105 2.8894 0
M  V30 4662 H 432.856 -3.66528 0.669933 0
M  V30 4663 H 432.969 -4.08248 2.50739 0
M  V30 4664 H 431.333 -2.21941 1.24957 0
M  V30 4665 H 432.116 -1.86414 2.88279 0
M  V30 4666 N 434.561 -1.01147 -1.20859 0
M  V30 4667 C 435.508 -0.577354 -2.23462 0
M  V30 4668 C 436.478 0.399922 -1.61214 0
M  V30 4669 O 437.663 0.300515 -1.88419 0
M  V30 4670 C 434.803 0.083372 -3.44999 0
M  V30 4671 C 433.916 -0.937856 -4.21697 0
M  V30 4672 C 433.051 -0.248717 -5.30617 0
M  V30 4673 C 432.09 -1.25705 -5.99053 0
M  V30 4674 N 431.227 -0.594939 -6.99575 0
M  V30 4675 H 436.067 -1.45695 -2.59956 0
M  V30 4676 H 433.604 -0.729428 -1.27741 0
M  V30 4677 H 435.562 0.483535 -4.14388 0
M  V30 4678 H 434.192 0.926645 -3.09214 0
M  V30 4679 H 433.244 -1.45622 -3.51423 0
M  V30 4680 H 434.556 -1.70493 -4.68757 0
M  V30 4681 H 433.71 0.207215 -6.06346 0
M  V30 4682 H 432.449 0.55071 -4.84581 0
M  V30 4683 H 431.454 -1.72343 -5.2209 0
M  V30 4684 H 432.679 -2.05767 -6.47176 0
M  V30 4685 H 430.625 0.184713 -6.5574 0
M  V30 4686 H 430.542 -1.30017 -7.44736 0
M  V30 4687 H 431.81 -0.162427 -7.79331 0
M  V30 4688 N 436.039 1.36541 -0.78704 0
M  V30 4689 C 436.969 2.32659 -0.197992 0
M  V30 4690 C 437.95 1.56533 0.665697 0
M  V30 4691 O 439.135 1.84698 0.60001 0
M  V30 4692 C 436.265 3.40778 0.669901 0
M  V30 4693 C 435.219 4.27897 -0.0937039 0
M  V30 4694 C 434.545 5.27163 0.894629 0
M  V30 4695 C 435.845 5.06334 -1.28154 0
M  V30 4696 H 437.539 2.82171 -1.00099 0
M  V30 4697 H 435.085 1.35665 -0.482793 0
M  V30 4698 H 437.038 4.07008 1.09191 0
M  V30 4699 H 435.762 2.89827 1.50558 0
M  V30 4700 H 434.421 3.6322 -0.49666 0
M  V30 4701 H 434.069 4.72486 1.72527 0
M  V30 4702 H 433.769 5.86317 0.388149 0
M  V30 4703 H 435.293 5.96266 1.31525 0
M  V30 4704 H 436.707 5.65617 -0.93541 0
M  V30 4705 H 435.104 5.74888 -1.72115 0
M  V30 4706 H 436.174 4.38114 -2.07807 0
M  V30 4707 N 437.518 0.538854 1.48102 0
M  V30 4708 C 438.934 0.19732 1.58376 0
M  V30 4709 C 439.134 -1.29971 1.5398 0
M  V30 4710 O 438.19 -2.07861 1.43352 0
M  V30 4711 C 439.503 0.807716 2.89649 0
M  V30 4712 C 441.051 0.77726 3.03196 0
M  V30 4713 C 441.526 1.36639 4.37143 0
M  V30 4714 N 443.017 1.32875 4.43732 0
M  V30 4715 C 443.752 1.7544 5.45901 0
M  V30 4716 N 443.248 2.25776 6.54979 0
M  V30 4717 N 445.041 1.66623 5.36836 0
M  V30 4718 H 437.192 1.5117 1.49202 0
M  V30 4719 H 439.455 0.629327 0.708979 0
M  V30 4720 H 439.161 1.85909 2.98548 0
M  V30 4721 H 439.035 0.289975 3.76084 0
M  V30 4722 H 441.422 -0.265374 2.93904 0
M  V30 4723 H 441.503 1.33256 2.18349 0
M  V30 4724 H 441.147 2.408 4.47189 0
M  V30 4725 H 441.077 0.786689 5.20691 0
M  V30 4726 H 443.568 0.96037 3.65493 0
M  V30 4727 H 443.881 2.56226 7.29087 0
M  V30 4728 H 442.226 2.29775 6.55918 0
M  V30 4729 H 445.417 1.27089 4.50517 0
M  V30 4730 H 445.59 2.00115 6.16326 0
M  V30 4731 N 438.996 -1.55193 0.274407 0
M  V30 4732 C 440.224 -2.03987 -0.345943 0
M  V30 4733 C 440.639 -1.15279 -1.4952 0
M  V30 4734 O 439.996 -0.172759 -1.8168 0
M  V30 4735 C 440.047 -3.51898 -0.827631 0
M  V30 4736 O 439.768 -4.37231 0.275855 0
M  V30 4737 C 441.269 -4.16577 -1.51587 0
M  V30 4738 H 438.489 -0.666335 -0.0789892 0
M  V30 4739 H 441.033 -2.00423 0.406294 0
M  V30 4740 H 439.188 -3.55909 -1.52996 0
M  V30 4741 H 439.602 -5.24415 -0.0943638 0
M  V30 4742 H 441.076 -5.21678 -1.80433 0
M  V30 4743 H 441.553 -3.64707 -2.44716 0
M  V30 4744 H 442.159 -4.16568 -0.857409 0
M  V30 4745 N 440.474 -0.00167713 -1.576 0
M  V30 4746 C 441.384 1.00548 -2.1196 0
M  V30 4747 C 442.4 1.3758 -1.06526 0
M  V30 4748 O 443.576 1.46278 -1.38436 0
M  V30 4749 C 440.641 2.27809 -2.6135 0
M  V30 4750 C 439.702 1.97074 -3.81393 0
M  V30 4751 C 438.935 3.18267 -4.28417 0
M  V30 4752 O 439.158 4.30009 -3.74765 0
M  V30 4753 O 438.092 3.02167 -5.20556 0
M  V30 4754 H 441.918 0.573373 -2.98238 0
M  V30 4755 H 439.503 0.217255 -1.47812 0
M  V30 4756 H 441.385 3.02568 -2.93309 0
M  V30 4757 H 440.06 2.70254 -1.78169 0
M  V30 4758 H 438.967 1.19785 -3.54404 0
M  V30 4759 H 440.3 1.59464 -4.65652 0
M  V30 4760 N 441.952 1.55251 0.271103 0
M  V30 4761 C 442.9 1.89054 1.35504 0
M  V30 4762 C 443.894 0.767064 1.51038 0
M  V30 4763 O 445.1 0.951429 1.528 0
M  V30 4764 H 441.475 0.600072 0.45323 0
M  V30 4765 H 443.446 2.79598 1.04247 0
M  V30 4766 C 442.195 2.18068 2.70817 0
M  V30 4767 H 441.518 3.04005 2.59656 0
M  V30 4768 H 442.958 2.4564 3.45597 0
M  V30 4769 C 441.417 0.988901 3.2206 0
M  V30 4770 O 441.947 0.224501 4.01072 0
M  V30 4771 N 440.153 0.786085 2.79766 0
M  V30 4772 H 439.7 1.40937 2.15626 0
M  V30 4773 H 439.658 -0.00969349 3.14399 0
M  V30 4774 N 443.43 -0.535701 1.48216 0
M  V30 4775 C 444.841 -1.11769 1.49548 0
M  V30 4776 C 445.192 -1.94442 0.26207 0
M  V30 4777 O 444.317 -2.06987 -0.631287 0
M  V30 4778 C 444.912 -2.03367 2.70975 0
M  V30 4779 C 443.471 -2.56795 2.75196 0
M  V30 4780 C 442.618 -1.33631 2.42977 0
M  V30 4781 H 445.569 -0.321232 1.55415 0
M  V30 4782 H 445.59 -2.87569 2.49167 0
M  V30 4783 H 445.102 -1.43169 3.60727 0
M  V30 4784 H 443.203 -3.20731 1.89638 0
M  V30 4785 H 443.316 -2.9632 3.76472 0
M  V30 4786 H 441.68 -1.6502 1.94012 0
M  V30 4787 H 442.463 -0.75194 3.34964 0
M  V30 4788 N 444.908 -1.36708 -0.784132 0
M  V30 4789 C 445.818 -1.3363 -1.92822 0
M  V30 4790 C 446.834 -0.237686 -1.72369 0
M  V30 4791 O 448.01 -0.470962 -1.95816 0
M  V30 4792 C 445.075 -1.13011 -3.27764 0
M  V30 4793 C 444.136 -2.32397 -3.60957 0
M  V30 4794 C 443.369 -2.12752 -4.89461 0
M  V30 4795 O 443.592 -1.10541 -5.59586 0
M  V30 4796 O 442.526 -3.00653 -5.21432 0
M  V30 4797 H 446.352 -2.29964 -1.98369 0
M  V30 4798 H 443.937 -1.1731 -0.925136 0
M  V30 4799 H 445.819 -1.03451 -4.08504 0
M  V30 4800 H 444.494 -0.19743 -3.23097 0
M  V30 4801 H 443.401 -2.47527 -2.80502 0
M  V30 4802 H 444.734 -3.2419 -3.70354 0
M  V30 4803 N 446.386 1.0089 -1.21074 0
M  V30 4804 C 447.632 1.74866 -1.02712 0
M  V30 4805 C 447.965 1.89178 0.438787 0
M  V30 4806 O 447.24 1.42325 1.32567 0
M  V30 4807 C 447.523 3.16347 -1.72036 0
M  V30 4808 C 447.376 3.09782 -3.26121 0
M  V30 4809 C 448.695 4.15187 -1.45973 0
M  V30 4810 H 445.814 0.634736 -0.374539 0
M  V30 4811 H 448.456 1.17646 -1.49196 0
M  V30 4812 H 446.606 3.65201 -1.32517 0
M  V30 4813 H 448.278 2.68673 -3.74983 0
M  V30 4814 H 446.521 2.46982 -3.56626 0
M  V30 4815 H 447.192 4.09829 -3.6979 0
M  V30 4816 H 449.668 3.75022 -1.80272 0
M  V30 4817 H 448.544 5.12331 -1.96999 0
M  V30 4818 H 448.805 4.40386 -0.388924 0
M  V30 4819 N 447.864 1.01787 1.20321 0
M  V30 4820 C 448.811 0.589197 2.23153 0
M  V30 4821 C 449.781 -0.391367 1.61423 0
M  V30 4822 O 450.966 -0.290518 1.88575 0
M  V30 4823 C 448.106 -0.0650747 3.45039 0
M  V30 4824 C 447.219 0.960207 4.21194 0
M  V30 4825 C 446.354 0.276854 5.30478 0
M  V30 4826 C 445.393 1.2888 5.98378 0
M  V30 4827 N 444.53 0.632031 6.99249 0
M  V30 4828 H 449.37 1.47071 2.59179 0
M  V30 4829 H 446.907 0.736192 1.27352 0
M  V30 4830 H 448.865 -0.461552 4.14639 0
M  V30 4831 H 447.495 -0.910233 3.09701 0
M  V30 4832 H 446.547 1.47484 3.50646 0
M  V30 4833 H 447.859 1.72977 4.67847 0
M  V30 4834 H 447.013 -0.175056 6.06447 0
M  V30 4835 H 445.752 -0.525004 4.84866 0
M  V30 4836 H 444.757 1.75109 5.21169 0
M  V30 4837 H 445.982 2.09196 6.46076 0
M  V30 4838 H 443.928 -0.149935 6.55829 0
M  V30 4839 H 443.845 1.33964 7.44036 0
M  V30 4840 H 445.113 0.203755 7.79234 0
M  V30 4841 N 449.342 -1.36122 0.79427 0
M  V30 4842 C 450.252 -2.33769 0.197296 0
M  V30 4843 C 451.268 -1.61276 -0.653153 0
M  V30 4844 O 452.444 -1.9323 -0.5678 0
M  V30 4845 C 449.509 -3.40474 -0.654098 0
M  V30 4846 C 448.57 -4.28759 0.215411 0
M  V30 4847 C 447.803 -5.30368 -0.595443 0
M  V30 4848 O 448.026 -5.40211 -1.83107 0
M  V30 4849 O 446.96 -6.019 0.00721351 0
M  V30 4850 H 450.786 -2.86597 1.00478 0
M  V30 4851 H 448.371 -1.38676 0.555818 0
M  V30 4852 H 450.253 -4.05703 -1.13944 0
M  V30 4853 H 448.928 -2.89937 -1.43938 0
M  V30 4854 H 447.835 -3.66554 0.747615 0
M  V30 4855 H 449.168 -4.82661 0.964332 0
M  V30 4856 N 450.82 -0.546701 -1.47814 0
M  V30 4857 C 452.05 -0.0232519 -2.06587 0
M  V30 4858 C 452.458 1.2712 -1.40133 0
M  V30 4859 O 451.801 1.77091 -0.488305 0
M  V30 4860 C 451.863 0.254117 -3.58601 0
M  V30 4861 C 451.527 -0.949331 -4.47031 0
M  V30 4862 C 452.524 -1.85216 -4.85789 0
M  V30 4863 C 450.209 -1.16104 -4.88697 0
M  V30 4864 C 452.203 -2.95047 -5.65001 0
M  V30 4865 C 449.89 -2.26247 -5.67676 0
M  V30 4866 C 450.888 -3.1555 -6.05737 0
M  V30 4867 O 450.576 -4.23784 -6.83127 0
M  V30 4868 H 450.308 -0.0380082 -0.674931 0
M  V30 4869 H 452.862 -0.756631 -1.90956 0
M  V30 4870 H 451.092 1.04168 -3.72406 0
M  V30 4871 H 452.781 0.72167 -3.99433 0
M  V30 4872 H 453.547 -1.70061 -4.54207 0
M  V30 4873 H 449.426 -0.475159 -4.58545 0
M  V30 4874 H 452.97 -3.64778 -5.94628 0
M  V30 4875 H 448.867 -2.41379 -5.98671 0
M  V30 4876 H 449.635 -4.21701 -7.01506 0
M  V30 4877 N 452.299 1.55045 -0.282633 0
M  V30 4878 C 453.229 2.2579 0.595066 0
M  V30 4879 C 454.21 1.25074 1.15284 0
M  V30 4880 O 455.395 1.5381 1.18559 0
M  V30 4881 C 452.525 2.98472 1.77572 0
M  V30 4882 C 451.479 4.0618 1.34914 0
M  V30 4883 C 450.805 4.66477 2.6135 0
M  V30 4884 C 452.105 5.1996 0.493821 0
M  V30 4885 H 453.799 2.994 0.00505653 0
M  V30 4886 H 451.345 1.44 0.000992001 0
M  V30 4887 H 453.298 3.46677 2.39568 0
M  V30 4888 H 452.022 2.2241 2.39168 0
M  V30 4889 H 450.681 3.58797 0.752338 0
M  V30 4890 H 450.329 3.87074 3.2122 0
M  V30 4891 H 450.029 5.39207 2.33516 0
M  V30 4892 H 451.553 5.17435 3.24181 0
M  V30 4893 H 452.967 5.64172 1.01898 0
M  V30 4894 H 451.364 5.99299 0.310047 0
M  V30 4895 H 452.434 4.82462 -0.485593 0
M  V30 4896 N 453.777 0.010035 1.57597 0
M  V30 4897 C 455.024 -0.6727 1.91 0
M  V30 4898 C 455.352 -1.73219 0.884614 0
M  V30 4899 O 454.607 -1.95395 -0.109215 0
M  V30 4900 C 454.906 -1.34434 3.31153 0
M  V30 4901 C 454.572 -0.417083 4.48967 0
M  V30 4902 C 453.234 -0.161809 4.80928 0
M  V30 4903 C 455.586 0.220753 5.20732 0
M  V30 4904 C 452.914 0.739426 5.82022 0
M  V30 4905 C 455.266 1.10993 6.22787 0
M  V30 4906 C 453.93 1.37428 6.532 0
M  V30 4907 H 453.2 -0.246158 0.698918 0
M  V30 4908 H 455.847 0.0677145 1.9138 0
M  V30 4909 H 454.152 -2.15905 3.26944 0
M  V30 4910 H 455.849 -1.87883 3.54261 0
M  V30 4911 H 452.439 -0.626217 4.24001 0
M  V30 4912 H 456.623 0.0365643 4.96287 0
M  V30 4913 H 451.879 0.952139 6.03941 0
M  V30 4914 H 456.053 1.61046 6.77523 0
M  V30 4915 H 453.68 2.0743 7.31353 0
M  V30 4916 N 455.255 -1.55392 -0.262866 0
M  V30 4917 C 456.532 -1.67204 -1.01499 0
M  V30 4918 C 456.912 -0.545186 -2.03939 0
M  V30 4919 O 456.26 0.453467 -2.23955 0
M  V30 4920 C 456.47 -3.06847 -1.6627 0
M  V30 4921 C 457.818 -3.64928 -2.17054 0
M  V30 4922 O 458.842 -3.09545 -1.76239 0
M  V30 4923 O 457.701 -4.61984 -2.91947 0
M  V30 4924 H 454.795 -0.679467 -0.471438 0
M  V30 4925 H 457.341 -1.67729 -0.257918 0
M  V30 4926 H 456.113 -3.80309 -0.920915 0
M  V30 4927 H 455.736 -3.10266 -2.48638 0
M  V30 4928 N 456.733 0.527833 -1.48498 0
M  V30 4929 C 457.979 1.28545 -1.56857 0
M  V30 4930 C 458.312 1.92678 -0.242651 0
M  V30 4931 O 457.587 1.79394 0.751545 0
M  V30 4932 C 457.87 2.37314 -2.70839 0
M  V30 4933 C 457.723 1.77858 -4.13142 0
M  V30 4934 C 459.042 3.39068 -2.80573 0
M  V30 4935 H 456.161 0.466006 -0.570971 0
M  V30 4936 H 458.803 0.587784 -1.8068 0
M  V30 4937 H 456.953 2.96821 -2.50658 0
M  V30 4938 H 458.625 1.22385 -4.44769 0
M  V30 4939 H 456.868 1.08383 -4.20042 0
M  V30 4940 H 457.539 2.56624 -4.88721 0
M  V30 4941 H 460.015 2.89518 -2.98862 0
M  V30 4942 H 458.891 4.12566 -3.6205 0
M  V30 4943 H 459.152 3.9975 -1.88818 0
M  V30 4944 N 458.211 1.37122 0.776871 0
M  V30 4945 C 459.174 1.32301 1.8716 0
M  V30 4946 C 460.174 0.228099 1.59174 0
M  V30 4947 O 461.364 0.483642 1.67352 0
M  V30 4948 C 458.496 1.054 3.24197 0
M  V30 4949 H 459.689 2.29673 1.92848 0
M  V30 4950 H 457.242 1.22077 0.97606 0
M  V30 4951 H 457.977 0.0853872 3.24188 0
M  V30 4952 H 457.762 1.84648 3.45901 0
M  V30 4953 H 459.252 1.04664 4.04271 0
M  V30 4954 N 459.689 -1.00246 1.21608 0
M  V30 4955 C 461.105 -1.26435 0.973975 0
M  V30 4956 C 461.305 -1.98642 -0.338143 0
M  V30 4957 O 460.361 -2.29026 -1.06317 0
M  V30 4958 C 461.674 -2.08551 2.16626 0
M  V30 4959 C 463.222 -2.21769 2.20879 0
M  V30 4960 C 463.697 -3.07267 3.39633 0
M  V30 4961 N 465.188 -3.14855 3.39736 0
M  V30 4962 C 465.923 -3.81274 4.28273 0
M  V30 4963 N 465.419 -4.497 5.27012 0
M  V30 4964 N 467.212 -3.7794 4.16074 0
M  V30 4965 H 459.363 -0.518089 2.05984 0
M  V30 4966 H 461.626 -0.291368 0.902113 0
M  V30 4967 H 461.332 -1.62847 3.11727 0
M  V30 4968 H 461.206 -3.09303 2.15897 0
M  V30 4969 H 463.593 -2.66691 1.26332 0
M  V30 4970 H 463.674 -1.20478 2.25652 0
M  V30 4971 H 463.318 -2.63047 4.34475 0
M  V30 4972 H 463.248 -4.08678 3.321 0
M  V30 4973 H 465.739 -2.66147 2.6828 0
M  V30 4974 H 466.052 -4.98092 5.90867 0
M  V30 4975 H 464.397 -4.48479 5.30935 0
M  V30 4976 H 467.588 -3.23638 3.38195 0
M  V30 4977 H 467.761 -4.29424 4.85282 0
M  V30 4978 N 461.167 -1.02423 -1.1978 0
M  V30 4979 C 462.414 -0.717988 -1.89344 0
M  V30 4980 C 462.742 0.753036 -1.79331 0
M  V30 4981 O 461.997 1.56355 -1.17692 0
M  V30 4982 C 462.296 -1.1088 -3.39765 0
M  V30 4983 C 461.962 -2.57731 -3.6998 0
M  V30 4984 C 460.624 -2.97854 -3.77937 0
M  V30 4985 C 462.976 -3.52763 -3.83677 0
M  V30 4986 C 460.304 -4.31931 -3.97054 0
M  V30 4987 C 462.656 -4.86538 -4.04306 0
M  V30 4988 C 461.32 -5.26356 -4.10494 0
M  V30 4989 H 460.59 -0.26273 -0.692859 0
M  V30 4990 H 463.237 -1.28623 -1.41875 0
M  V30 4991 H 461.542 -0.459094 -3.89101 0
M  V30 4992 H 463.239 -0.849432 -3.919 0
M  V30 4993 H 459.829 -2.25646 -3.64393 0
M  V30 4994 H 464.013 -3.2292 -3.76877 0
M  V30 4995 H 459.269 -4.62324 -4.00083 0
M  V30 4996 H 463.443 -5.60093 -4.13846 0
M  V30 4997 H 461.07 -6.3026 -4.2506 0
M  V30 4998 N 462.645 1.35699 -0.801477 0
M  V30 4999 C 463.891 1.99643 -0.389135 0
M  V30 5000 C 464.246 1.62447 1.03095 0
M  V30 5001 O 463.539 0.875064 1.7045 0
M  V30 5002 C 463.733 3.53828 -0.504041 0
M  V30 5003 C 463.562 4.06 -1.93375 0
M  V30 5004 C 462.332 4.35592 -2.561 0
M  V30 5005 C 464.53 4.24905 -2.89759 0
M  V30 5006 N 462.512 4.73663 -3.90534 0
M  V30 5007 C 463.883 4.65914 -4.09052 0
M  V30 5008 C 465.938 4.07101 -2.86658 0
M  V30 5009 C 464.641 4.90984 -5.25669 0
M  V30 5010 C 466.667 4.33324 -4.02472 0
M  V30 5011 C 466.029 4.74601 -5.20512 0
M  V30 5012 H 462.128 0.758552 -0.19006 0
M  V30 5013 H 464.712 1.64493 -1.04164 0
M  V30 5014 H 462.883 3.88219 0.118437 0
M  V30 5015 H 464.615 4.04645 -0.0667794 0
M  V30 5016 H 461.37 4.25728 -2.07492 0
M  V30 5017 H 461.794 4.96965 -4.59734 0
M  V30 5018 H 466.436 3.74335 -1.96552 0
M  V30 5019 H 464.154 5.22626 -6.1635 0
M  V30 5020 H 467.74 4.21107 -4.01447 0
M  V30 5021 H 466.62 4.94497 -6.08639 0
M  V30 5022 N 464.123 0.554532 1.47522 0
M  V30 5023 C 465.056 -0.242442 2.26908 0
M  V30 5024 C 466.034 -0.922722 1.33883 0
M  V30 5025 O 467.218 -0.942244 1.63261 0
M  V30 5026 C 464.345 -1.34525 3.10839 0
M  V30 5027 C 463.391 -0.773805 4.19422 0
M  V30 5028 S 464.224 0.377525 5.34168 0
M  V30 5029 C 465.38 -0.727164 6.21662 0
M  V30 5030 H 465.613 0.431218 2.94156 0
M  V30 5031 H 463.146 0.3408 1.50592 0
M  V30 5032 H 465.104 -1.97683 3.59766 0
M  V30 5033 H 463.765 -1.99073 2.42958 0
M  V30 5034 H 462.958 -1.60187 4.77866 0
M  V30 5035 H 462.56 -0.218448 3.73361 0
M  V30 5036 H 464.852 -1.61992 6.57849 0
M  V30 5037 H 465.795 -0.180135 7.07871 0
M  V30 5038 H 466.203 -1.01863 5.55233 0
M  V30 5039 N 465.601 -1.54893 0.290851 0
M  V30 5040 C 466.511 -2.26812 -0.59945 0
M  V30 5041 C 467.527 -1.29963 -1.15696 0
M  V30 5042 O 468.703 -1.62928 -1.18391 0
M  V30 5043 C 465.768 -2.98716 -1.75982 0
M  V30 5044 C 464.829 -4.1108 -1.2374 0
M  V30 5045 C 464.062 -4.79546 -2.34246 0
M  V30 5046 O 464.285 -4.47309 -3.53936 0
M  V30 5047 O 463.219 -5.67165 -2.01512 0
M  V30 5048 H 467.045 -3.03696 -0.0163561 0
M  V30 5049 H 464.63 -1.49289 0.0576755 0
M  V30 5050 H 466.512 -3.43851 -2.43607 0
M  V30 5051 H 465.187 -2.24737 -2.3297 0
M  V30 5052 H 464.094 -3.70367 -0.527163 0
M  V30 5053 H 465.427 -4.87007 -0.71307 0
M  V30 5054 N 467.08 -0.0183926 -1.57589 0
M  V30 5055 C 468.012 0.995557 -2.06449 0
M  V30 5056 C 469.025 1.29556 -0.985849 0
M  V30 5057 O 470.214 1.2621 -1.26227 0
M  V30 5058 C 467.314 2.32572 -2.46502 0
M  V30 5059 C 466.487 2.21245 -3.77319 0
M  V30 5060 C 465.546 3.37104 -4.04039 0
M  V30 5061 O 464.572 3.14468 -4.74445 0
M  V30 5062 N 465.774 4.60553 -3.53372 0
M  V30 5063 H 468.539 0.578746 -2.94059 0
M  V30 5064 H 466.1 0.168603 -1.6102 0
M  V30 5065 H 468.092 3.08887 -2.61478 0
M  V30 5066 H 466.662 2.65931 -1.64315 0
M  V30 5067 H 465.882 1.29723 -3.72244 0
M  V30 5068 H 467.17 2.10868 -4.63047 0
M  V30 5069 H 466.568 4.81839 -2.96391 0
M  V30 5070 H 465.125 5.34072 -3.73644 0
M  V30 5071 N 468.558 1.5553 0.254621 0
M  V30 5072 C 469.806 1.7665 0.981793 0
M  V30 5073 C 470.127 0.580963 1.86145 0
M  V30 5074 O 469.397 -0.403537 1.91699 0
M  V30 5075 H 467.977 0.651475 0.365498 0
M  V30 5076 H 470.639 1.92958 0.274426 0
M  V30 5077 H 469.735 2.67486 1.60802 0
M  V30 5078 N 470.036 -0.519951 1.48776 0
M  V30 5079 C 471.285 -1.27175 1.56555 0
M  V30 5080 C 471.598 -1.9401 0.248869 0
M  V30 5081 O 472.804 -2.70725 0.205004 0
M  V30 5082 C 471.26 -2.30811 2.76142 0
M  V30 5083 C 470.868 -1.7 4.14493 0
M  V30 5084 C 472.612 -3.06937 2.9324 0
M  V30 5085 C 470.519 -2.71635 5.25327 0
M  V30 5086 H 469.449 -0.478329 0.582853 0
M  V30 5087 H 472.1 -0.547916 1.75129 0
M  V30 5088 H 470.482 -3.06274 2.51023 0
M  V30 5089 H 471.656 -1.00658 4.49672 0
M  V30 5090 H 469.971 -1.06331 4.02595 0
M  V30 5091 H 472.568 -3.82905 3.73213 0
M  V30 5092 H 472.911 -3.63409 2.03075 0
M  V30 5093 H 473.444 -2.38589 3.18308 0
M  V30 5094 H 470.183 -2.1997 6.1749 0
M  V30 5095 H 469.703 -3.39275 4.94624 0
M  V30 5096 H 471.382 -3.34429 5.53865 0
M  V30 5097 N 471.514 -1.37532 -0.769588 0
M  V30 5098 C 472.791 -1.23392 -1.51768 0
M  V30 5099 C 473.171 0.17157 -2.10402 0
M  V30 5100 O 472.519 1.17943 -1.95708 0
M  V30 5101 C 472.729 -2.33163 -2.59685 0
M  V30 5102 C 474.077 -2.70809 -3.27028 0
M  V30 5103 O 475.101 -2.32355 -2.69981 0
M  V30 5104 O 473.96 -3.37066 -4.30173 0
M  V30 5105 H 471.054 -0.481617 -0.67229 0
M  V30 5106 H 473.6 -1.49318 -0.806368 0
M  V30 5107 H 472.372 -3.27273 -2.14494 0
M  V30 5108 H 471.995 -2.08713 -3.38415 0
M  V30 5109 N 472.992 0.995999 -1.22138 0
M  V30 5110 C 474.24 1.73167 -1.042 0
M  V30 5111 C 474.561 1.90329 0.42423 0
M  V30 5112 O 473.831 1.4607 1.30539 0
M  V30 5113 H 472.411 0.641593 -0.38258 0
M  V30 5114 H 475.073 1.19974 -1.53598 0
M  V30 5115 H 474.169 2.72734 -1.51731 0
M  V30 5116 N 474.47 1.03057 1.19235 0
M  V30 5117 C 475.716 0.738841 1.89506 0
M  V30 5118 C 476.071 -0.724807 1.78225 0
M  V30 5119 O 475.364 -1.52118 1.16494 0
M  V30 5120 C 475.558 1.1268 3.39172 0
M  V30 5121 C 475.387 2.62662 3.65019 0
M  V30 5122 C 474.157 3.29658 3.82954 0
M  V30 5123 C 476.355 3.60873 3.66436 0
M  V30 5124 N 474.337 4.68726 3.96446 0
M  V30 5125 C 475.708 4.85566 3.8552 0
M  V30 5126 C 477.763 3.54647 3.49471 0
M  V30 5127 C 476.466 6.04783 3.89397 0
M  V30 5128 C 478.492 4.73281 3.54625 0
M  V30 5129 C 477.854 5.96789 3.74196 0
M  V30 5130 H 473.953 0.322256 0.712513 0
M  V30 5131 H 476.537 1.31822 1.43287 0
M  V30 5132 H 474.708 0.575612 3.84111 0
M  V30 5133 H 476.44 0.787145 3.96971 0
M  V30 5134 H 473.195 2.8007 3.81913 0
M  V30 5135 H 473.619 5.40971 4.07037 0
M  V30 5136 H 478.261 2.60143 3.33295 0
M  V30 5137 H 475.979 6.99654 4.04364 0
M  V30 5138 H 479.565 4.70094 3.42787 0
M  V30 5139 H 478.445 6.87051 3.78061 0
M  V30 5140 N 475.948 -1.35272 0.808662 0
M  V30 5141 C 477.364 -1.51806 0.492653 0
M  V30 5142 C 477.564 -1.7574 -0.985778 0
M  V30 5143 O 476.62 -1.80003 -1.77074 0
M  V30 5144 C 477.933 -2.69202 1.33981 0
M  V30 5145 C 479.481 -2.8308 1.33547 0
M  V30 5146 C 479.956 -4.03502 2.16679 0
M  V30 5147 N 481.447 -4.10684 2.14227 0
M  V30 5148 C 482.182 -5.02984 2.75308 0
M  V30 5149 N 481.678 -6.00603 3.45323 0
M  V30 5150 N 483.471 -4.95746 2.64938 0
M  V30 5151 H 475.622 -1.17993 1.76611 0
M  V30 5152 H 477.885 -0.577476 0.751814 0
M  V30 5153 H 477.591 -2.581 2.38909 0
M  V30 5154 H 477.465 -3.63854 0.994491 0
M  V30 5155 H 479.852 -2.93631 0.294036 0
M  V30 5156 H 479.933 -1.89278 1.72068 0
M  V30 5157 H 479.577 -3.93711 3.20864 0
M  V30 5158 H 479.507 -4.96489 1.75517 0
M  V30 5159 H 481.998 -3.40802 1.63285 0
M  V30 5160 H 482.311 -6.67633 3.89212 0
M  V30 5161 H 480.656 -6.0077 3.49428 0
M  V30 5162 H 483.847 -4.18439 2.09825 0
M  V30 5163 H 484.02 -5.67487 3.12829 0
M  V30 5164 N 477.426 -0.562348 -1.47226 0
M  V30 5165 C 478.356 0.170627 -2.32876 0
M  V30 5166 C 479.337 0.903748 -1.44106 0
M  V30 5167 O 480.522 0.883206 -1.72954 0
M  V30 5168 C 477.652 1.19786 -3.25989 0
M  V30 5169 C 476.606 0.580875 -4.2404 0
M  V30 5170 C 475.932 1.71311 -5.06514 0
M  V30 5171 C 477.232 -0.468714 -5.20193 0
M  V30 5172 H 478.926 -0.544441 -2.94408 0
M  V30 5173 H 476.472 -0.263271 -1.41573 0
M  V30 5174 H 478.425 1.71884 -3.84752 0
M  V30 5175 H 477.149 1.94294 -2.62521 0
M  V30 5176 H 475.808 0.0811538 -3.6651 0
M  V30 5177 H 475.456 2.44736 -4.39447 0
M  V30 5178 H 475.156 1.30604 -5.72902 0
M  V30 5179 H 476.68 2.23725 -5.68137 0
M  V30 5180 H 478.094 -0.0336028 -5.7329 0
M  V30 5181 H 476.491 -0.794957 -5.94811 0
M  V30 5182 H 477.561 -1.36269 -4.65359 0
M  V30 5183 N 478.904 1.54736 -0.299062 0
M  V30 5184 C 480.181 1.92187 0.363802 0
M  V30 5185 C 480.561 1.22607 1.71845 0
M  V30 5186 O 479.909 0.361141 2.25628 0
M  V30 5187 C 480.119 3.45678 0.480377 0
M  V30 5188 C 481.467 4.17885 0.752147 0
M  V30 5189 O 482.491 3.51702 0.564264 0
M  V30 5190 O 481.35 5.35048 1.11294 0
M  V30 5191 H 478.444 0.801681 0.203066 0
M  V30 5192 H 480.99 1.66115 -0.346978 0
M  V30 5193 H 479.762 3.88443 -0.471999 0
M  V30 5194 H 479.385 3.77779 1.2397 0
M  V30 5195 N 480.382 0.0267497 1.57577 0
M  V30 5196 C 481.628 -0.653371 1.91987 0
M  V30 5197 C 481.961 -1.71915 0.903263 0
M  V30 5198 O 481.236 -1.94358 -0.0743387 0
M  V30 5199 C 481.519 -1.272 3.36886 0
M  V30 5200 C 481.372 -0.215938 4.49281 0
M  V30 5201 C 482.691 -2.19069 3.81703 0
M  V30 5202 H 479.81 -0.236047 0.698177 0
M  V30 5203 H 482.452 0.0835236 1.89816 0
M  V30 5204 H 480.602 -1.90005 3.38866 0
M  V30 5205 H 482.274 0.41449 4.59434 0
M  V30 5206 H 480.517 0.458855 4.31366 0
M  V30 5207 H 481.188 -0.688347 5.47691 0
M  V30 5208 H 483.664 -1.66253 3.81444 0
M  V30 5209 H 482.54 -2.59307 4.83788 0
M  V30 5210 H 482.801 -3.08087 3.17072 0
M  V30 5211 N 481.861 -1.55662 -0.24637 0
M  V30 5212 C 482.824 -1.89558 -1.28842 0
M  V30 5213 C 483.824 -0.772082 -1.41052 0
M  V30 5214 O 485.014 -1.04007 -1.39743 0
M  V30 5215 C 482.146 -2.12449 -2.66605 0
M  V30 5216 H 483.339 -2.82735 -1.00004 0
M  V30 5217 H 480.892 -1.48562 -0.485684 0
M  V30 5218 H 481.627 -1.21742 -3.00582 0
M  V30 5219 H 481.412 -2.94273 -2.59125 0
M  V30 5220 H 482.902 -2.39854 -3.41847 0
M  V30 5221 N 483.339 0.512053 -1.4905 0
M  V30 5222 C 484.287 1.63568 -1.65373 0
M  V30 5223 C 485.281 1.61228 -0.519806 0
M  V30 5224 O 486.487 1.65869 -0.699101 0
M  V30 5225 H 482.862 0.542019 -0.521267 0
M  V30 5226 H 484.833 1.4695 -2.59708 0
M  V30 5227 C 483.582 3.01761 -1.7273 0
M  V30 5228 H 482.905 3.04263 -2.59353 0
M  V30 5229 H 484.345 3.79948 -1.8819 0
M  V30 5230 C 482.804 3.33609 -0.46973 0
M  V30 5231 O 483.334 3.99607 0.409492 0
M  V30 5232 N 481.54 2.88651 -0.336003 0
M  V30 5233 H 481.087 2.35119 -1.05247 0
M  V30 5234 H 481.045 3.10328 0.504363 0
M  V30 5235 N 484.817 1.37938 0.762283 0
M  V30 5236 C 485.727 1.36681 1.90671 0
M  V30 5237 C 486.743 0.265078 1.71969 0
M  V30 5238 O 487.919 0.502055 1.95042 0
M  V30 5239 C 484.984 1.18211 3.25925 0
M  V30 5240 C 484.045 2.3811 3.57214 0
M  V30 5241 C 483.278 2.20512 4.86014 0
M  V30 5242 O 483.501 1.19429 5.57757 0
M  V30 5243 O 482.435 3.08911 5.16583 0
M  V30 5244 H 486.261 2.33091 1.94685 0
M  V30 5245 H 483.846 1.18767 0.906356 0
M  V30 5246 H 485.728 1.09937 4.06807 0
M  V30 5247 H 484.403 0.248807 3.22742 0
M  V30 5248 H 483.31 2.51958 2.76529 0
M  V30 5249 H 484.643 3.30041 3.65149 0
M  V30 5250 N 486.295 -0.989507 1.22664 0
M  V30 5251 C 487.541 -1.7321 1.05481 0
M  V30 5252 C 487.874 -1.89852 -0.408635 0
M  V30 5253 O 487.149 -1.44416 -1.30285 0
M  V30 5254 C 487.432 -3.1357 1.77047 0
M  V30 5255 C 487.285 -3.04555 3.31008 0
M  V30 5256 C 488.604 -4.12812 1.5256 0
M  V30 5257 H 485.723 -0.628697 0.384589 0
M  V30 5258 H 488.365 -1.15258 1.51049 0
M  V30 5259 H 486.515 -3.63046 1.3831 0
M  V30 5260 H 488.187 -2.62674 3.7921 0
M  V30 5261 H 486.43 -2.41278 3.6051 0
M  V30 5262 H 487.101 -4.03894 3.76263 0
M  V30 5263 H 489.577 -3.72106 1.86215 0
M  V30 5264 H 488.453 -5.09132 2.05124 0
M  V30 5265 H 488.714 -4.39711 0.458936 0
M  V30 5266 N 487.773 -1.03688 -1.18687 0
M  V30 5267 C 489.05 -0.652397 -1.84399 0
M  V30 5268 C 489.43 0.868386 -1.92412 0
M  V30 5269 O 488.778 1.76832 -1.44716 0
M  V30 5270 C 488.988 -1.3238 -3.22919 0
M  V30 5271 C 490.336 -1.45216 -3.98996 0
M  V30 5272 O 491.36 -1.2816 -3.32345 0
M  V30 5273 O 490.219 -1.72975 -5.18403 0
M  V30 5274 H 487.313 -0.227793 -0.795009 0
M  V30 5275 H 489.859 -1.13553 -1.2611 0
M  V30 5276 H 488.631 -2.36202 -3.11968 0
M  V30 5277 H 488.254 -0.829039 -3.88861 0
M  V30 5278 N 489.251 1.34841 -0.815825 0
M  V30 5279 C 490.201 2.27075 -0.205169 0
M  V30 5280 C 491.185 1.48205 0.626414 0
M  V30 5281 O 492.377 1.70306 0.482157 0
M  V30 5282 C 489.506 3.37322 0.637871 0
M  V30 5283 C 488.592 4.23609 -0.203948 0
M  V30 5284 N 488.983 4.89558 -1.27149 0
M  V30 5285 C 487.281 4.45998 0.0128971 0
M  V30 5286 C 487.982 5.53597 -1.7862 0
M  V30 5287 N 486.958 5.32535 -1.0912 0
M  V30 5288 H 490.76 2.75563 -1.02187 0
M  V30 5289 H 488.274 1.48477 -0.657912 0
M  V30 5290 H 490.271 4.02359 1.09146 0
M  V30 5291 H 488.931 2.90385 1.45281 0
M  V30 5292 H 489.942 4.9077 -1.65423 0
M  V30 5293 H 486.619 4.09837 0.79624 0
M  V30 5294 H 488.009 6.16184 -2.67892 0
M  V30 5295 N 490.729 0.570148 1.46925 0
M  V30 5296 C 491.692 -0.159933 2.28641 0
M  V30 5297 C 492.692 -0.830638 1.37685 0
M  V30 5298 O 493.882 -0.684516 1.60187 0
M  V30 5299 C 491.014 -1.2354 3.17727 0
M  V30 5300 H 492.207 0.558035 2.94662 0
M  V30 5301 H 489.76 0.327603 1.52828 0
M  V30 5302 H 490.495 -1.98535 2.56426 0
M  V30 5303 H 490.28 -0.759125 3.84681 0
M  V30 5304 H 491.77 -1.74782 3.79264 0
M  V30 5305 N 492.207 -1.54576 0.307264 0
M  V30 5306 C 493.454 -2.00263 -0.300167 0
M  V30 5307 C 493.782 -1.19561 -1.53413 0
M  V30 5308 O 493.037 -0.261487 -1.93945 0
M  V30 5309 C 493.336 -3.50572 -0.695253 0
M  V30 5310 C 493.002 -4.48771 0.437679 0
M  V30 5311 C 491.664 -4.7534 0.748681 0
M  V30 5312 C 494.016 -5.0721 1.19949 0
M  V30 5313 C 491.344 -5.5761 1.8245 0
M  V30 5314 C 493.696 -5.90651 2.26527 0
M  V30 5315 C 492.36 -6.15528 2.58227 0
M  V30 5316 H 491.63 -0.732814 -0.109839 0
M  V30 5317 H 494.277 -1.86664 0.427661 0
M  V30 5318 H 492.582 -3.61814 -1.50326 0
M  V30 5319 H 494.279 -3.83352 -1.17653 0
M  V30 5320 H 490.869 -4.282 0.185187 0
M  V30 5321 H 495.053 -4.86679 0.972474 0
M  V30 5322 H 490.309 -5.75121 2.07476 0
M  V30 5323 H 494.483 -6.34957 2.86011 0
M  V30 5324 H 492.11 -6.79066 3.4172 0
M  V30 5325 N 493.685 -0.035106 -1.57561 0
M  V30 5326 C 494.931 0.637362 -1.93156 0
M  V30 5327 C 495.286 1.69391 -0.912392 0
M  V30 5328 O 494.579 1.91469 0.070735 0
M  V30 5329 C 494.773 1.29149 -3.3325 0
M  V30 5330 C 494.602 0.29983 -4.48699 0
M  V30 5331 C 493.372 -0.102454 -5.05196 0
M  V30 5332 C 495.57 -0.448297 -5.12342 0
M  V30 5333 N 493.552 -1.08866 -6.0417 0
M  V30 5334 C 494.923 -1.28807 -6.06472 0
M  V30 5335 C 496.978 -0.508351 -4.95298 0
M  V30 5336 C 495.681 -2.18248 -6.85391 0
M  V30 5337 C 497.707 -1.39013 -5.7483 0
M  V30 5338 C 497.069 -2.21766 -6.6858 0
M  V30 5339 H 493.168 0.205358 -0.754554 0
M  V30 5340 H 495.752 -0.103682 -1.94424 0
M  V30 5341 H 493.923 2.00264 -3.3279 0
M  V30 5342 H 495.655 1.92147 -3.56177 0
M  V30 5343 H 492.41 0.273223 -4.72811 0
M  V30 5344 H 492.834 -1.57817 -6.58348 0
M  V30 5345 H 497.476 0.117197 -4.22638 0
M  V30 5346 H 495.194 -2.81855 -7.57353 0
M  V30 5347 H 498.78 -1.44096 -5.63673 0
M  V30 5348 H 497.66 -2.88892 -7.29048 0
M  V30 5349 N 495.163 1.55791 0.238111 0
M  V30 5350 C 496.579 1.48411 0.587045 0
M  V30 5351 C 496.779 0.72702 1.87927 0
M  V30 5352 O 495.835 0.259942 2.51158 0
M  V30 5353 C 497.148 2.92873 0.681623 0
M  V30 5354 C 498.696 3.03295 0.773363 0
M  V30 5355 C 499.171 4.49082 0.899428 0
M  V30 5356 N 500.662 4.53056 0.964075 0
M  V30 5357 C 501.397 5.63117 1.08104 0
M  V30 5358 N 500.893 6.82969 1.16299 0
M  V30 5359 N 502.686 5.50933 1.11488 0
M  V30 5360 H 494.837 2.0345 -0.610076 0
M  V30 5361 H 497.1 0.924034 -0.211813 0
M  V30 5362 H 496.806 3.51142 -0.19802 0
M  V30 5363 H 496.68 3.43851 1.55069 0
M  V30 5364 H 499.067 2.45101 1.64346 0
M  V30 5365 H 499.148 2.55513 -0.121034 0
M  V30 5366 H 498.792 5.07889 0.0338586 0
M  V30 5367 H 498.722 4.94553 1.809 0
M  V30 5368 H 501.213 3.66737 0.91173 0
M  V30 5369 H 501.526 7.62598 1.25155 0
M  V30 5370 H 499.871 6.85712 1.13241 0
M  V30 5371 H 503.062 4.56231 1.0474 0
M  V30 5372 H 503.235 6.36743 1.20259 0
M  V30 5373 N 496.642 -0.504142 1.49319 0
M  V30 5374 C 497.552 -1.63248 1.68486 0
M  V30 5375 C 498.568 -1.64488 0.567432 0
M  V30 5376 O 499.744 -1.82966 0.841749 0
M  V30 5377 C 496.809 -2.99627 1.74426 0
M  V30 5378 C 495.87 -3.09039 2.97982 0
M  V30 5379 C 495.103 -4.38913 3.0363 0
M  V30 5380 O 495.326 -5.27528 2.16958 0
M  V30 5381 O 494.26 -4.53231 3.96062 0
M  V30 5382 H 498.086 -1.50008 2.64067 0
M  V30 5383 H 495.671 -0.680086 1.33023 0
M  V30 5384 H 497.553 -3.80689 1.80705 0
M  V30 5385 H 496.228 -3.13136 0.820233 0
M  V30 5386 H 495.135 -2.27177 2.97223 0
M  V30 5387 H 496.468 -3.00456 3.89855 0
M  V30 5388 N 498.12 -1.38341 -0.754957 0
M  V30 5389 C 499.367 -1.34473 -1.51404 0
M  V30 5390 C 499.695 0.0656458 -1.94389 0
M  V30 5391 O 498.95 1.04244 -1.65625 0
M  V30 5392 C 499.249 -2.2452 -2.78075 0
M  V30 5393 C 498.915 -3.72512 -2.54059 0
M  V30 5394 C 497.577 -4.1284 -2.47218 0
M  V30 5395 C 499.929 -4.66197 -2.33044 0
M  V30 5396 C 497.257 -5.44945 -2.17376 0
M  V30 5397 C 499.609 -5.98558 -2.04723 0
M  V30 5398 C 498.273 -6.37972 -1.96337 0
M  V30 5399 H 497.543 -0.492072 -0.554027 0
M  V30 5400 H 500.19 -1.70687 -0.868223 0
M  V30 5401 H 498.495 -1.81357 -3.473 0
M  V30 5402 H 500.192 -2.18832 -3.36026 0
M  V30 5403 H 496.782 -3.40538 -2.60253 0
M  V30 5404 H 500.966 -4.35888 -2.37309 0
M  V30 5405 H 496.222 -5.74426 -2.09391 0
M  V30 5406 H 500.396 -6.70693 -1.87465 0
M  V30 5407 H 498.023 -7.40258 -1.72978 0
M  V30 5408 N 499.598 0.982988 -1.23187 0
M  V30 5409 C 501.014 1.2487 -0.993967 0
M  V30 5410 C 501.214 1.99155 0.306498 0
M  V30 5411 O 500.27 2.30688 1.0266 0
M  V30 5412 C 501.583 2.05078 -2.19917 0
M  V30 5413 C 503.131 2.18227 -2.2438 0
M  V30 5414 C 503.606 3.01825 -3.44479 0
M  V30 5415 N 505.097 3.09411 -3.44702 0
M  V30 5416 C 505.832 3.74412 -4.34285 0
M  V30 5417 N 505.328 4.41259 -5.341 0
M  V30 5418 N 507.121 3.71273 -4.22035 0
M  V30 5419 H 499.272 0.485253 -2.06783 0
M  V30 5420 H 501.535 0.276979 -0.906635 0
M  V30 5421 H 501.241 1.57867 -3.14279 0
M  V30 5422 H 501.115 3.05829 -2.2079 0
M  V30 5423 H 503.502 2.64648 -1.30559 0
M  V30 5424 H 503.583 1.16873 -2.2754 0
M  V30 5425 H 503.227 2.56102 -4.38605 0
M  V30 5426 H 503.157 4.03342 -3.38559 0
M  V30 5427 H 505.648 2.61845 -2.7248 0
M  V30 5428 H 505.961 4.88629 -5.98717 0
M  V30 5429 H 504.306 4.39975 -5.38002 0
M  V30 5430 H 507.497 3.18217 -3.43301 0
M  V30 5431 H 507.67 4.21649 -4.92053 0
M  V30 5432 N 501.076 1.04316 1.18135 0
M  V30 5433 C 502.492 0.762858 1.40188 0
M  V30 5434 C 502.692 -0.646547 1.90846 0
M  V30 5435 O 501.748 -1.41036 2.0944 0
M  V30 5436 C 503.061 1.81106 2.40044 0
M  V30 5437 C 504.609 1.83226 2.53766 0
M  V30 5438 C 505.084 2.87044 3.56889 0
M  V30 5439 N 506.575 2.85951 3.64398 0
M  V30 5440 C 507.31 3.62932 4.43923 0
M  V30 5441 N 506.806 4.49672 5.27036 0
M  V30 5442 N 508.599 3.51411 4.38711 0
M  V30 5443 H 500.75 1.95264 0.835805 0
M  V30 5444 H 503.013 0.845017 0.429709 0
M  V30 5445 H 502.719 2.82214 2.09876 0
M  V30 5446 H 502.593 1.64529 3.39426 0
M  V30 5447 H 504.98 0.827869 2.8325 0
M  V30 5448 H 505.061 2.03879 1.54489 0
M  V30 5449 H 504.705 3.87663 3.28145 0
M  V30 5450 H 504.635 2.63645 4.5585 0
M  V30 5451 H 507.126 2.23051 3.05052 0
M  V30 5452 H 507.439 5.05116 5.84874 0
M  V30 5453 H 505.784 4.53738 5.26447 0
M  V30 5454 H 508.975 2.83047 3.72829 0
M  V30 5455 H 509.148 4.11654 5.00445 0
M  V30 5456 N 502.554 -1.34406 0.822964 0
M  V30 5457 C 503.484 -2.32052 0.259608 0
M  V30 5458 C 504.465 -1.58243 -0.623961 0
M  V30 5459 O 505.65 -1.86224 -0.55083 0
M  V30 5460 C 502.78 -3.42434 -0.579314 0
M  V30 5461 C 501.734 -4.27499 0.20712 0
M  V30 5462 C 501.06 -5.29349 -0.754547 0
M  V30 5463 C 502.36 -5.02758 1.41533 0
M  V30 5464 H 504.054 -2.79418 1.07545 0
M  V30 5465 H 501.6 -1.34338 0.518593 0
M  V30 5466 H 503.553 -4.0976 -0.983612 0
M  V30 5467 H 502.277 -2.93717 -1.4282 0
M  V30 5468 H 500.936 -3.61776 0.592787 0
M  V30 5469 H 500.584 -4.76895 -1.59939 0
M  V30 5470 H 500.284 -5.8714 -0.232561 0
M  V30 5471 H 501.808 -5.99544 -1.1567 0
M  V30 5472 H 503.222 -5.62938 1.08504 0
M  V30 5473 H 501.619 -5.70123 1.87296 0
M  V30 5474 H 502.689 -4.32451 2.1935 0
M  V30 5475 N 504.032 -0.577932 -1.46621 0
M  V30 5476 C 505.278 -0.0617793 -2.02706 0
M  V30 5477 C 505.611 1.29294 -1.44903 0
M  V30 5478 O 504.886 1.8461 -0.61232 0
M  V30 5479 C 505.169 0.00911824 -3.60099 0
M  V30 5480 C 505.022 -1.37416 -4.28295 0
M  V30 5481 C 506.341 0.712159 -4.343 0
M  V30 5482 H 503.46 -0.0239246 -0.736612 0
M  V30 5483 H 506.102 -0.744211 -1.74818 0
M  V30 5484 H 504.252 0.590292 -3.83989 0
M  V30 5485 H 505.924 -2.00013 -4.15683 0
M  V30 5486 H 504.167 -1.94319 -3.87843 0
M  V30 5487 H 504.838 -1.27707 -5.37024 0
M  V30 5488 H 507.314 0.218486 -4.15526 0
M  V30 5489 H 506.19 0.730782 -5.44014 0
M  V30 5490 H 506.451 1.77251 -4.05012 0
M  V30 5491 N 505.51 1.54411 -0.315457 0
M  V30 5492 C 506.457 2.24048 0.554166 0
M  V30 5493 C 507.427 1.2283 1.11812 0
M  V30 5494 O 508.612 1.51491 1.15997 0
M  V30 5495 C 505.752 2.99574 1.71316 0
M  V30 5496 C 504.865 4.15594 1.17922 0
M  V30 5497 C 504 4.78669 2.30324 0
M  V30 5498 C 503.039 5.86807 1.74137 0
M  V30 5499 N 502.176 6.43777 2.8017 0
M  V30 5500 H 507.016 2.97964 -0.0462602 0
M  V30 5501 H 504.553 1.47059 -0.0346009 0
M  V30 5502 H 506.511 3.41604 2.39505 0
M  V30 5503 H 505.141 2.28008 2.285 0
M  V30 5504 H 504.193 3.78404 0.389136 0
M  V30 5505 H 505.505 4.93459 0.728012 0
M  V30 5506 H 504.659 5.23626 3.06433 0
M  V30 5507 H 503.398 4.00168 2.78778 0
M  V30 5508 H 502.403 5.41261 0.965236 0
M  V30 5509 H 503.628 6.67201 1.2657 0
M  V30 5510 H 501.574 5.68153 3.2793 0
M  V30 5511 H 501.491 7.17031 2.39588 0
M  V30 5512 H 502.759 6.9339 3.56132 0
M  V30 5513 N 506.988 0.0434614 1.5754 0
M  V30 5514 C 508.213 -0.645358 1.97104 0
M  V30 5515 C 508.638 -1.64037 0.920521 0
M  V30 5516 O 507.996 -1.80922 -0.11708 0
M  V30 5517 C 508.044 -1.31547 3.35749 0
M  V30 5518 O 507.148 -2.43103 3.33129 0
M  V30 5519 H 506.489 -0.168403 0.64229 0
M  V30 5520 H 509.019 0.109573 2.04306 0
M  V30 5521 H 509.029 -1.66895 3.72304 0
M  V30 5522 H 507.704 -0.586205 4.11748 0
M  V30 5523 H 506.281 -2.0976 3.0831 0
M  V30 5524 N 508.466 -1.55915 -0.229846 0
M  V30 5525 C 509.396 -1.94754 -1.28815 0
M  V30 5526 C 510.377 -0.814657 -1.49323 0
M  V30 5527 O 511.562 -1.07631 -1.61645 0
M  V30 5528 C 508.692 -2.25705 -2.63959 0
M  V30 5529 C 507.646 -3.41406 -2.5812 0
M  V30 5530 C 506.972 -3.57941 -3.97218 0
M  V30 5531 C 508.272 -4.76616 -2.13623 0
M  V30 5532 H 509.966 -2.83404 -0.965547 0
M  V30 5533 H 507.512 -1.36353 -0.463028 0
M  V30 5534 H 509.465 -2.51467 -3.38146 0
M  V30 5535 H 508.189 -1.339 -2.9789 0
M  V30 5536 H 506.848 -3.1568 -1.86391 0
M  V30 5537 H 506.496 -2.63526 -4.28443 0
M  V30 5538 H 506.196 -4.35757 -3.94195 0
M  V30 5539 H 507.72 -3.86042 -4.73079 0
M  V30 5540 H 509.134 -5.01637 -2.77549 0
M  V30 5541 H 507.531 -5.57655 -2.21677 0
M  V30 5542 H 508.601 -4.7253 -1.08829 0
M  V30 5543 N 509.944 0.496216 -1.49584 0
M  V30 5544 C 510.892 1.61805 -1.67098 0
M  V30 5545 C 511.886 1.60667 -0.536877 0
M  V30 5546 O 513.092 1.65118 -0.716654 0
M  V30 5547 H 509.467 0.53646 -0.526986 0
M  V30 5548 H 511.438 1.44187 -2.61252 0
M  V30 5549 C 510.187 2.99912 -1.75921 0
M  V30 5550 H 509.51 3.01496 -2.62565 0
M  V30 5551 H 510.95 3.77931 -1.92209 0
M  V30 5552 C 509.409 3.33092 -0.505088 0
M  V30 5553 O 509.939 4.00019 0.367085 0
M  V30 5554 N 508.145 2.88278 -0.366599 0
M  V30 5555 H 507.692 2.33989 -1.07735 0
M  V30 5556 H 507.65 3.10846 0.47142 0
M  V30 5557 N 511.423 1.38739 0.74761 0
M  V30 5558 C 512.834 1.31507 1.32524 0
M  V30 5559 C 513.185 -0.0263963 1.96182 0
M  V30 5560 O 512.31 -0.92849 1.95469 0
M  V30 5561 C 512.905 2.38162 2.40966 0
M  V30 5562 C 511.464 2.34489 2.94434 0
M  V30 5563 C 510.611 2.20712 1.67873 0
M  V30 5564 H 513.562 1.4901 0.546043 0
M  V30 5565 H 513.583 2.04222 3.21051 0
M  V30 5566 H 513.095 3.35783 1.94605 0
M  V30 5567 H 511.196 1.40467 3.45108 0
M  V30 5568 H 511.309 3.28861 3.48407 0
M  V30 5569 H 509.673 1.67667 1.91729 0
M  V30 5570 H 510.456 3.20285 1.23582 0
M  V30 5571 N 512.901 -0.976442 1.23707 0
M  V30 5572 C 514.178 -1.69296 0.979699 0
M  V30 5573 C 514.558 -2.0508 -0.500555 0
M  V30 5574 O 513.906 -1.74708 -1.47273 0
M  V30 5575 C 514.116 -2.93143 1.89389 0
M  V30 5576 C 515.464 -3.65572 2.15968 0
M  V30 5577 O 516.488 -3.03184 1.86971 0
M  V30 5578 O 515.347 -4.77859 2.65167 0
M  V30 5579 H 512.441 -0.739708 0.369812 0
M  V30 5580 H 514.987 -1.03131 1.34767 0
M  V30 5581 H 513.759 -2.63327 2.89439 0
M  V30 5582 H 513.382 -3.67044 1.52854 0
M  V30 5583 N 514.379 -1.04941 -1.1758 0
M  V30 5584 C 515.342 -0.652456 -2.19717 0
M  V30 5585 C 516.342 0.294745 -1.58076 0
M  V30 5586 O 517.532 0.0789579 -1.74021 0
M  V30 5587 C 514.664 0.0420712 -3.40874 0
M  V30 5588 H 515.857 -1.55642 -2.5635 0
M  V30 5589 H 513.41 -0.842995 -1.31618 0
M  V30 5590 H 514.145 0.95943 -3.09783 0
M  V30 5591 H 513.93 -0.638844 -3.86861 0
M  V30 5592 H 515.42 0.306 -4.16477 0
M  V30 5593 N 515.857 1.33968 -0.830081 0
M  V30 5594 C 516.787 2.31911 -0.271911 0
M  V30 5595 C 517.768 1.58571 0.61556 0
M  V30 5596 O 518.953 1.86514 0.540946 0
M  V30 5597 C 516.083 3.42737 0.561146 0
M  V30 5598 C 515.037 4.27383 -0.229789 0
M  V30 5599 C 514.363 5.29742 0.726463 0
M  V30 5600 C 515.663 5.02 -1.44197 0
M  V30 5601 H 517.357 2.78844 -1.09025 0
M  V30 5602 H 514.903 1.34061 -0.52571 0
M  V30 5603 H 516.856 4.10276 0.961867 0
M  V30 5604 H 515.58 2.94471 1.41261 0
M  V30 5605 H 514.239 3.61456 -0.611964 0
M  V30 5606 H 513.887 4.77736 1.57408 0
M  V30 5607 H 513.587 5.87255 0.20142 0
M  V30 5608 H 515.111 6.00149 1.12489 0
M  V30 5609 H 516.525 5.62355 -1.11488 0
M  V30 5610 H 514.922 5.69122 -1.90317 0
M  V30 5611 H 515.992 4.31281 -2.2164 0
M  V30 5612 N 517.335 0.585699 1.46312 0
M  V30 5613 C 518.584 0.0701192 2.01578 0
M  V30 5614 C 518.897 -1.29889 1.46247 0
M  V30 5615 O 520.103 -1.90598 1.93351 0
M  V30 5616 C 518.559 0.0747499 3.59822 0
M  V30 5617 C 518.167 1.44226 4.24149 0
M  V30 5618 C 519.911 -0.38673 4.22735 0
M  V30 5619 C 517.818 1.40446 5.74481 0
M  V30 5620 H 516.748 0.0224441 0.753666 0
M  V30 5621 H 519.399 0.737789 1.68015 0
M  V30 5622 H 517.781 -0.659144 3.90476 0
M  V30 5623 H 518.955 2.19612 4.05101 0
M  V30 5624 H 517.27 1.84401 3.73343 0
M  V30 5625 H 519.867 -0.433853 5.32937 0
M  V30 5626 H 520.21 -1.40489 3.91878 0
M  V30 5627 H 520.743 0.293195 3.96718 0
M  V30 5628 H 517.482 2.39952 6.10003 0
M  V30 5629 H 517.002 0.692845 5.95785 0
M  V30 5630 H 518.681 1.11865 6.37256 0
M  V30 5631 N 518.813 -1.54241 0.323641 0
M  V30 5632 C 520.059 -2.00867 -0.279323 0
M  V30 5633 C 520.392 -1.21146 -1.5178 0
M  V30 5634 O 519.667 -0.29378 -1.92269 0
M  V30 5635 C 519.95 -3.54837 -0.613387 0
M  V30 5636 C 519.803 -4.45284 0.635803 0
M  V30 5637 C 521.122 -4.16186 -1.43099 0
M  V30 5638 H 518.241 -0.730177 -0.100049 0
M  V30 5639 H 520.883 -1.84829 0.440235 0
M  V30 5640 H 519.033 -3.68634 -1.22641 0
M  V30 5641 H 520.705 -4.43357 1.27406 0
M  V30 5642 H 518.948 -4.14956 1.26466 0
M  V30 5643 H 519.619 -5.5084 0.357597 0
M  V30 5644 H 522.095 -4.05964 -0.912814 0
M  V30 5645 H 520.971 -5.24031 -1.6335 0
M  V30 5646 H 521.232 -3.69516 -2.42715 0
M  V30 5647 N 520.291 -0.0518155 -1.57515 0
M  V30 5648 C 521.539 0.620595 -1.92336 0
M  V30 5649 C 521.86 1.71345 -0.930907 0
M  V30 5650 O 521.13 1.95885 0.0241341 0
M  V30 5651 H 519.71 0.232226 -0.709986 0
M  V30 5652 H 522.372 -0.104969 -1.94617 0
M  V30 5653 H 521.468 1.05879 -2.93592 0
M  V30 5654 N 521.769 1.56035 0.221574 0
M  V30 5655 C 522.679 1.95581 1.29558 0
M  V30 5656 C 523.695 0.859639 1.51282 0
M  V30 5657 O 524.871 1.16321 1.64413 0
M  V30 5658 C 521.936 2.26447 2.62531 0
M  V30 5659 C 520.997 3.49632 2.4911 0
M  V30 5660 C 520.23 3.79017 3.75742 0
M  V30 5661 O 520.453 3.10077 4.78757 0
M  V30 5662 O 519.387 4.72507 3.72855 0
M  V30 5663 H 523.213 2.8711 0.990035 0
M  V30 5664 H 520.798 1.43244 0.424434 0
M  V30 5665 H 522.68 2.47494 3.41064 0
M  V30 5666 H 521.355 1.38092 2.92766 0
M  V30 5667 H 520.262 3.33864 1.68777 0
M  V30 5668 H 521.595 4.3837 2.23814 0
M  V30 5669 N 523.247 -0.488276 1.49845 0
M  V30 5670 C 524.496 -1.23826 1.59217 0
M  V30 5671 C 524.809 -1.93439 0.289966 0
M  V30 5672 O 526.015 -2.70229 0.262382 0
M  V30 5673 C 524.471 -2.24902 2.80976 0
M  V30 5674 C 524.079 -1.6117 4.18005 0
M  V30 5675 C 525.823 -3.00648 2.99685 0
M  V30 5676 C 523.73 -2.60431 5.3097 0
M  V30 5677 H 522.66 -0.465858 0.592868 0
M  V30 5678 H 525.311 -0.510645 1.76252 0
M  V30 5679 H 523.693 -3.0088 2.57463 0
M  V30 5680 H 524.867 -0.910968 4.51706 0
M  V30 5681 H 523.182 -0.97767 4.0476 0
M  V30 5682 H 525.779 -3.74903 3.81251 0
M  V30 5683 H 526.122 -3.5902 2.10738 0
M  V30 5684 H 526.655 -2.31784 3.23297 0
M  V30 5685 H 523.394 -2.06823 6.22017 0
M  V30 5686 H 522.914 -3.28707 5.01709 0
M  V30 5687 H 524.593 -3.22606 5.60834 0
M  V30 5688 N 524.725 -1.39134 -0.740242 0
M  V30 5689 C 525.971 -1.37278 -1.50088 0
M  V30 5690 C 526.326 0.0329967 -1.92372 0
M  V30 5691 O 525.619 0.998447 -1.63529 0
M  V30 5692 C 525.813 -2.27457 -2.75678 0
M  V30 5693 C 525.642 -3.76662 -2.45674 0
M  V30 5694 C 524.412 -4.45617 -2.38229 0
M  V30 5695 C 526.61 -4.6877 -2.11563 0
M  V30 5696 N 524.592 -5.80187 -2.00641 0
M  V30 5697 C 525.963 -5.91951 -1.84376 0
M  V30 5698 C 528.018 -4.56843 -1.97987 0
M  V30 5699 C 526.721 -7.04538 -1.4498 0
M  V30 5700 C 528.747 -5.69347 -1.59994 0
M  V30 5701 C 528.109 -6.91597 -1.33687 0
M  V30 5702 H 524.208 -0.557611 -0.548265 0
M  V30 5703 H 526.792 -1.74638 -0.860784 0
M  V30 5704 H 524.963 -1.92263 -3.37475 0
M  V30 5705 H 526.695 -2.16631 -3.41838 0
M  V30 5706 H 523.45 -3.98993 -2.5515 0
M  V30 5707 H 523.874 -6.51387 -1.84454 0
M  V30 5708 H 528.516 -3.62868 -2.16995 0
M  V30 5709 H 526.234 -7.98419 -1.24712 0
M  V30 5710 H 529.82 -5.62104 -1.50102 0
M  V30 5711 H 528.7 -7.77176 -1.04728 0
M  V30 5712 N 526.204 0.969867 -1.24223 0
M  V30 5713 C 527.154 2.04913 -0.999732 0
M  V30 5714 C 528.138 1.60795 0.0580636 0
M  V30 5715 O 529.33 1.76317 -0.155392 0
M  V30 5716 C 526.459 3.37942 -0.604154 0
M  V30 5717 C 525.545 3.88628 -1.69791 0
M  V30 5718 N 525.936 4.12274 -2.93025 0
M  V30 5719 C 524.234 4.17268 -1.57492 0
M  V30 5720 C 524.935 4.53808 -3.63914 0
M  V30 5721 N 523.911 4.58855 -2.91468 0
M  V30 5722 H 527.713 2.21168 -1.93551 0
M  V30 5723 H 525.227 1.15349 -1.14317 0
M  V30 5724 H 527.224 4.14863 -0.411665 0
M  V30 5725 H 525.884 3.23075 0.324465 0
M  V30 5726 H 526.895 3.99789 -3.29225 0
M  V30 5727 H 523.572 4.11346 -0.714175 0
M  V30 5728 H 524.962 4.80534 -4.69614 0
M  V30 5729 N 527.682 1.05563 1.17022 0
M  V30 5730 C 528.959 0.68165 1.83338 0
M  V30 5731 C 529.339 -0.837665 1.93769 0
M  V30 5732 O 528.687 -1.74507 1.47511 0
M  V30 5733 C 528.897 1.375 3.20772 0
M  V30 5734 C 530.245 1.51545 3.96635 0
M  V30 5735 O 531.269 1.33431 3.30264 0
M  V30 5736 O 530.128 1.812 5.15586 0
M  V30 5737 H 527.222 0.240412 0.791285 0
M  V30 5738 H 529.768 1.15545 1.24288 0
M  V30 5739 H 528.54 2.41135 3.08171 0
M  V30 5740 H 528.163 0.890798 3.87493 0
M  V30 5741 N 529.16 -1.33526 0.837174 0
M  V30 5742 C 530.123 -2.27551 0.274421 0
M  V30 5743 C 531.123 -1.50886 -0.555881 0
M  V30 5744 O 532.313 -1.70227 -0.369918 0
M  V30 5745 C 529.445 -3.35332 -0.613605 0
M  V30 5746 H 530.638 -2.78837 1.10408 0
M  V30 5747 H 528.191 -1.439 0.610126 0
M  V30 5748 H 528.926 -2.89285 -1.46577 0
M  V30 5749 H 528.711 -3.92095 -0.0195341 0
M  V30 5750 H 530.201 -4.05433 -1.00068 0
M  V30 5751 N 530.638 -0.59345 -1.46 0
M  V30 5752 C 531.863 -0.0872365 -2.07216 0
M  V30 5753 C 532.288 1.2131 -1.43755 0
M  V30 5754 O 531.646 1.73528 -0.525152 0
M  V30 5755 C 531.694 0.0538197 -3.6056 0
M  V30 5756 O 530.798 1.10765 -3.97247 0
M  V30 5757 H 530.139 -0.0676598 -0.660544 0
M  V30 5758 H 532.669 -0.819445 -1.87473 0
M  V30 5759 H 532.679 0.256567 -4.07193 0
M  V30 5760 H 531.354 -0.895739 -4.0614 0
M  V30 5761 H 529.931 0.882501 -3.62307 0
M  V30 5762 N 532.116 1.54067 -0.331816 0
M  V30 5763 C 533.364 2.00319 0.267739 0
M  V30 5764 C 533.685 1.22148 1.52003 0
M  V30 5765 O 532.955 0.325494 1.93177 0
M  V30 5766 H 531.535 0.740014 0.101922 0
M  V30 5767 H 534.197 1.89628 -0.450267 0
M  V30 5768 H 533.293 3.07765 0.518385 0
M  V30 5769 N 533.594 0.0601682 1.57485 0
M  V30 5770 C 534.84 -0.606552 1.94146 0
M  V30 5771 C 535.195 -1.67918 0.939225 0
M  V30 5772 O 534.488 -1.91558 -0.0402649 0
M  V30 5773 C 534.682 -1.23831 3.35262 0
M  V30 5774 C 534.511 -0.228408 4.4912 0
M  V30 5775 C 533.281 0.182813 5.04969 0
M  V30 5776 C 535.479 0.52975 5.11564 0
M  V30 5777 N 533.461 1.18464 6.02362 0
M  V30 5778 C 534.832 1.38439 6.04346 0
M  V30 5779 C 536.887 0.587084 4.94427 0
M  V30 5780 C 535.59 2.29125 6.81832 0
M  V30 5781 C 537.616 1.4814 5.72546 0
M  V30 5782 C 536.978 2.32375 6.64967 0
M  V30 5783 H 533.077 -0.193328 0.757726 0
M  V30 5784 H 535.661 0.1346 1.94234 0
M  V30 5785 H 533.832 -1.94944 3.35933 0
M  V30 5786 H 535.564 -1.86456 3.59188 0
M  V30 5787 H 532.319 -0.197968 4.73186 0
M  V30 5788 H 532.743 1.68271 6.55754 0
M  V30 5789 H 537.385 -0.049944 4.22771 0
M  V30 5790 H 535.103 2.93868 7.52773 0
M  V30 5791 H 538.689 1.53045 5.6131 0
M  V30 5792 H 537.569 3.00454 7.2436 0
M  V30 5793 N 535.072 -1.5615 -0.213296 0
M  V30 5794 C 536.002 -1.96109 -1.26742 0
M  V30 5795 C 536.983 -0.830448 -1.48451 0
M  V30 5796 O 538.168 -1.09339 -1.60495 0
M  V30 5797 C 535.298 -2.28492 -2.61551 0
M  V30 5798 C 534.252 -3.44124 -2.54485 0
M  V30 5799 C 533.578 -3.62134 -3.93399 0
M  V30 5800 C 534.878 -4.78855 -2.08556 0
M  V30 5801 H 536.572 -2.84412 -0.935434 0
M  V30 5802 H 534.118 -1.36836 -0.44854 0
M  V30 5803 H 536.071 -2.55039 -3.3546 0
M  V30 5804 H 534.795 -1.37052 -2.96453 0
M  V30 5805 H 533.454 -3.17639 -1.83033 0
M  V30 5806 H 533.102 -2.68055 -4.25623 0
M  V30 5807 H 532.802 -4.39913 -3.89551 0
M  V30 5808 H 534.326 -3.91038 -4.68958 0
M  V30 5809 H 535.74 -5.04552 -2.72213 0
M  V30 5810 H 534.137 -5.59975 -2.1575 0
M  V30 5811 H 535.207 -4.73657 -1.03811 0
M  V30 5812 N 536.55 0.480323 -1.50102 0
M  V30 5813 C 537.483 1.59789 -1.62919 0
M  V30 5814 C 538.461 1.55429 -0.477557 0
M  V30 5815 O 539.645 1.75186 -0.695851 0
M  V30 5816 C 536.772 2.98351 -1.60325 0
M  V30 5817 C 535.818 3.20899 -2.80938 0
M  V30 5818 S 536.651 3.01791 -4.4236 0
M  V30 5819 C 537.807 4.42712 -4.42444 0
M  V30 5820 H 538.04 1.48676 -2.57454 0
M  V30 5821 H 535.573 0.666996 -1.3925 0
M  V30 5822 H 537.531 3.7824 -1.59514 0
M  V30 5823 H 536.192 3.06862 -0.670419 0
M  V30 5824 H 535.385 4.22102 -2.75401 0
M  V30 5825 H 534.987 2.48768 -2.79268 0
M  V30 5826 H 537.279 5.3518 -4.15438 0
M  V30 5827 H 538.222 4.53294 -5.43995 0
M  V30 5828 H 538.63 4.24359 -3.72263 0
M  V30 5829 N 538.028 1.39524 0.732853 0
M  V30 5830 C 539.276 1.36594 1.48951 0
M  V30 5831 C 539.597 -0.0367507 1.94965 0
M  V30 5832 O 538.867 -0.988391 1.69138 0
M  V30 5833 H 537.447 0.502673 0.552566 0
M  V30 5834 H 540.109 1.74411 0.869869 0
M  V30 5835 H 539.205 2.03 2.3706 0
M  V30 5836 N 539.506 -0.963266 1.24736 0
M  V30 5837 C 540.783 -1.68248 0.9976 0
M  V30 5838 C 541.163 -2.05599 -0.478776 0
M  V30 5839 O 540.511 -1.7626 -1.45412 0
M  V30 5840 C 540.721 -2.91118 1.92487 0
M  V30 5841 C 542.069 -3.63261 2.19833 0
M  V30 5842 O 543.093 -3.01184 1.90176 0
M  V30 5843 O 541.952 -4.75019 2.7022 0
M  V30 5844 H 539.046 -0.735744 0.377637 0
M  V30 5845 H 541.592 -1.01696 1.35853 0
M  V30 5846 H 540.364 -2.60242 2.92215 0
M  V30 5847 H 539.987 -3.65402 1.56738 0
M  V30 5848 N 540.985 -1.06182 -1.16461 0
M  V30 5849 C 541.917 -0.629584 -2.20383 0
M  V30 5850 C 542.93 0.311834 -1.59786 0
M  V30 5851 O 544.119 0.103 -1.78203 0
M  V30 5852 C 541.219 0.0973695 -3.3876 0
M  V30 5853 C 540.392 -0.857252 -4.28917 0
M  V30 5854 C 539.451 -0.169749 -5.25926 0
M  V30 5855 O 538.477 -0.807044 -5.6345 0
M  V30 5856 N 539.679 1.08911 -5.70192 0
M  V30 5857 H 542.444 -1.52352 -2.58087 0
M  V30 5858 H 540.005 -0.944993 -1.31459 0
M  V30 5859 H 541.997 0.567676 -4.00699 0
M  V30 5860 H 540.567 0.893093 -2.99571 0
M  V30 5861 H 539.787 -1.50696 -3.64259 0
M  V30 5862 H 541.075 -1.50489 -4.86035 0
M  V30 5863 H 540.473 1.62703 -5.41797 0
M  V30 5864 H 539.03 1.50331 -6.34227 0
M  V30 5865 N 542.463 1.3308 -0.844243 0
M  V30 5866 C 543.71 1.97605 -0.44255 0
M  V30 5867 C 544.038 1.66856 0.999458 0
M  V30 5868 O 543.293 0.943586 1.7145 0
M  V30 5869 C 543.592 3.52045 -0.616354 0
M  V30 5870 C 543.258 4.02757 -2.02726 0
M  V30 5871 C 541.92 4.16316 -2.41317 0
M  V30 5872 C 544.272 4.29776 -2.9486 0
M  V30 5873 C 541.6 4.54232 -3.71335 0
M  V30 5874 C 543.952 4.69146 -4.24364 0
M  V30 5875 C 542.616 4.80911 -4.62904 0
M  V30 5876 H 541.886 0.723088 -0.161941 0
M  V30 5877 H 544.533 1.58663 -1.0723 0
M  V30 5878 H 542.838 3.91681 0.0966812 0
M  V30 5879 H 544.535 3.99981 -0.285756 0
M  V30 5880 H 541.125 3.9268 -1.71756 0
M  V30 5881 H 545.309 4.18818 -2.6628 0
M  V30 5882 H 540.565 4.61535 -4.00993 0
M  V30 5883 H 544.739 4.89008 -4.95827 0
M  V30 5884 H 542.366 5.10048 -5.63698 0
M  V30 5885 N 543.941 0.601185 1.45683 0
M  V30 5886 C 545.218 0.0261659 1.95582 0
M  V30 5887 C 545.598 -1.4399 1.5437 0
M  V30 5888 O 544.946 -2.13919 0.80318 0
M  V30 5889 C 545.156 0.217557 3.48321 0
M  V30 5890 C 546.504 0.0950076 4.24494 0
M  V30 5891 O 547.528 0.147345 3.55895 0
M  V30 5892 O 546.387 -0.025261 5.46494 0
M  V30 5893 H 543.481 -0.0393688 0.826062 0
M  V30 5894 H 546.027 0.670798 1.55879 0
M  V30 5895 H 544.799 1.23601 3.71266 0
M  V30 5896 H 544.422 -0.46264 3.94899 0
M  V30 5897 N 545.419 -1.53889 0.339982 0
M  V30 5898 C 546.644 -2.05741 -0.261798 0
M  V30 5899 C 547.069 -1.21354 -1.43718 0
M  V30 5900 O 546.427 -0.22645 -1.7988 0
M  V30 5901 C 546.475 -3.54542 -0.658228 0
M  V30 5902 O 545.579 -3.7302 -1.75869 0
M  V30 5903 H 544.92 -0.662529 -0.0441672 0
M  V30 5904 H 547.45 -1.98568 0.493161 0
M  V30 5905 H 547.46 -3.9711 -0.936368 0
M  V30 5906 H 546.135 -4.15412 0.201358 0
M  V30 5907 H 544.712 -3.42355 -1.47809 0
M  V30 5908 N 546.897 -0.0685191 -1.57451 0
M  V30 5909 C 548.143 0.602239 -1.93652 0
M  V30 5910 C 548.476 1.6946 -0.948526 0
M  V30 5911 O 547.751 1.94487 0.022782 0
M  V30 5912 C 548.034 1.18223 -3.4014 0
M  V30 5913 C 547.887 0.0967431 -4.49696 0
M  V30 5914 C 549.206 2.08872 -3.87377 0
M  V30 5915 H 546.325 0.217453 -0.70419 0
M  V30 5916 H 548.967 -0.133821 -1.89528 0
M  V30 5917 H 547.117 1.80953 -3.43785 0
M  V30 5918 H 548.789 -0.536155 -4.58174 0
M  V30 5919 H 547.032 -0.573063 -4.29998 0
M  V30 5920 H 547.703 0.542894 -5.49324 0
M  V30 5921 H 550.179 1.56081 -3.85717 0
M  V30 5922 H 549.055 2.46389 -4.90493 0
M  V30 5923 H 549.316 2.99572 -3.25129 0
M  V30 5924 N 548.375 1.56261 0.205012 0
M  V30 5925 C 549.308 1.88797 1.28183 0
M  V30 5926 C 550.286 0.747018 1.44424 0
M  V30 5927 O 551.47 0.997039 1.59973 0
M  V30 5928 C 548.597 2.10949 2.64987 0
M  V30 5929 C 547.643 3.33649 2.6567 0
M  V30 5930 S 548.476 4.89078 2.18088 0
M  V30 5931 C 549.632 5.14286 3.56736 0
M  V30 5932 H 549.865 2.79837 1.00393 0
M  V30 5933 H 547.398 1.48911 0.408042 0
M  V30 5934 H 549.356 2.24395 3.4374 0
M  V30 5935 H 548.017 1.20678 2.89993 0
M  V30 5936 H 547.21 3.46245 3.66239 0
M  V30 5937 H 546.812 3.19146 1.94992 0
M  V30 5938 H 549.104 5.04198 4.52537 0
M  V30 5939 H 550.047 6.16096 3.49043 0
M  V30 5940 H 550.455 4.41957 3.51189 0
M  V30 5941 N 549.853 -0.472356 1.50355 0
M  V30 5942 C 550.801 -1.59126 1.69651 0
M  V30 5943 C 551.795 -1.59793 0.56237 0
M  V30 5944 O 553.001 -1.63957 0.742832 0
M  V30 5945 H 549.376 -0.528008 0.535454 0
M  V30 5946 H 551.347 -1.40013 2.63513 0
M  V30 5947 C 550.096 -2.97075 1.8067 0
M  V30 5948 H 549.419 -2.9728 2.67329 0
M  V30 5949 H 550.859 -3.74825 1.98197 0
M  V30 5950 C 549.318 -3.32247 0.558016 0
M  V30 5951 O 549.848 -4.00553 -0.303399 0
M  V30 5952 N 548.054 -2.87659 0.412415 0
M  V30 5953 H 547.601 -2.32246 1.11443 0
M  V30 5954 H 547.559 -3.11556 -0.421908 0
M  V30 5955 N 551.331 -1.39911 -0.725443 0
M  V30 5956 C 552.561 -1.40744 -1.51244 0
M  V30 5957 C 552.969 -0.00275403 -1.892 0
M  V30 5958 O 552.312 0.981299 -1.55294 0
M  V30 5959 C 552.374 -2.22527 -2.82351 0
M  V30 5960 C 552.038 -3.71053 -2.66774 0
M  V30 5961 C 553.035 -4.63916 -2.34686 0
M  V30 5962 C 550.72 -4.14753 -2.83347 0
M  V30 5963 C 552.714 -5.98463 -2.19366 0
M  V30 5964 C 550.401 -5.49372 -2.67644 0
M  V30 5965 C 551.399 -6.41042 -2.357 0
M  V30 5966 O 551.087 -7.73181 -2.20107 0
M  V30 5967 H 550.819 -0.482314 -0.473655 0
M  V30 5968 H 553.373 -1.84472 -0.903284 0
M  V30 5969 H 551.603 -1.73563 -3.45562 0
M  V30 5970 H 553.292 -2.15421 -3.44018 0
M  V30 5971 H 554.058 -4.31453 -2.21525 0
M  V30 5972 H 549.937 -3.43728 -3.072 0
M  V30 5973 H 553.481 -6.69979 -1.94354 0
M  V30 5974 H 549.378 -5.81424 -2.80387 0
M  V30 5975 H 550.146 -7.84008 -2.35103 0
M  V30 5976 N 552.809 0.956637 -1.25245 0
M  V30 5977 C 553.739 2.07058 -1.07931 0
M  V30 5978 C 554.72 1.70096 0.0110361 0
M  V30 5979 O 555.905 1.93555 -0.158121 0
M  V30 5980 C 553.035 3.40272 -0.695124 0
M  V30 5981 C 551.989 3.91235 -1.73549 0
M  V30 5982 C 551.315 5.20921 -1.20604 0
M  V30 5983 C 552.615 4.17837 -3.13385 0
M  V30 5984 H 554.309 2.218 -2.01109 0
M  V30 5985 H 551.855 1.06581 -0.968326 0
M  V30 5986 H 553.808 4.1765 -0.560949 0
M  V30 5987 H 552.532 3.25462 0.272355 0
M  V30 5988 H 551.191 3.16025 -1.85807 0
M  V30 5989 H 550.839 5.02479 -0.228846 0
M  V30 5990 H 550.539 5.55987 -1.90136 0
M  V30 5991 H 552.063 6.00897 -1.08421 0
M  V30 5992 H 553.477 4.8588 -3.04292 0
M  V30 5993 H 551.874 4.64154 -3.80369 0
M  V30 5994 H 552.944 3.2419 -3.60595 0
M  V30 5995 N 554.287 1.06798 1.15896 0
M  V30 5996 C 555.534 0.787767 1.86549 0
M  V30 5997 C 555.862 -0.685959 1.82002 0
M  V30 5998 O 555.117 -1.5188 1.23414 0
M  V30 5999 C 555.416 1.23414 3.35416 0
M  V30 6000 C 555.082 2.71285 3.6016 0
M  V30 6001 C 553.744 3.11676 3.66622 0
M  V30 6002 C 556.096 3.6676 3.7032 0
M  V30 6003 C 553.424 4.4637 3.8075 0
M  V30 6004 C 555.776 5.01209 3.8597 0
M  V30 6005 C 554.44 5.41229 3.90676 0
M  V30 6006 H 553.71 0.288264 0.682631 0
M  V30 6007 H 556.357 1.338 1.37003 0
M  V30 6008 H 554.662 0.60319 3.87129 0
M  V30 6009 H 556.359 0.994298 3.88477 0
M  V30 6010 H 552.949 2.39015 3.55767 0
M  V30 6011 H 557.133 3.36685 3.64633 0
M  V30 6012 H 552.389 4.76855 3.82648 0
M  V30 6013 H 556.563 5.75067 3.92773 0
M  V30 6014 H 554.19 6.45602 4.01375 0
M  V30 6015 N 555.766 -1.3263 0.851289 0
M  V30 6016 C 557.182 -1.50162 0.5407 0
M  V30 6017 C 557.382 -1.78788 -0.929369 0
M  V30 6018 O 556.438 -1.85545 -1.71258 0
M  V30 6019 C 557.751 -2.64803 1.42478 0
M  V30 6020 C 559.299 -2.78688 1.42485 0
M  V30 6021 C 559.774 -3.96405 2.29407 0
M  V30 6022 N 561.265 -4.0366 2.27184 0
M  V30 6023 C 562 -4.93971 2.9117 0
M  V30 6024 N 561.496 -5.89313 3.64256 0
M  V30 6025 N 563.289 -4.87066 2.80576 0
M  V30 6026 H 555.44 -1.12315 1.80275 0
M  V30 6027 H 557.703 -0.553266 0.769806 0
M  V30 6028 H 557.409 -2.50368 2.46999 0
M  V30 6029 H 557.283 -3.60506 1.10974 0
M  V30 6030 H 559.67 -2.92547 0.387304 0
M  V30 6031 H 559.751 -1.83708 1.78002 0
M  V30 6032 H 559.395 -3.83304 3.33228 0
M  V30 6033 H 559.325 -4.90654 1.91224 0
M  V30 6034 H 561.816 -3.35435 1.74045 0
M  V30 6035 H 562.129 -6.54913 4.10255 0
M  V30 6036 H 560.474 -5.8935 3.68364 0
M  V30 6037 H 563.665 -4.11552 2.23031 0
M  V30 6038 H 563.838 -5.57248 3.30725 0
M  V30 6039 N 557.244 -0.608902 -1.45362 0
M  V30 6040 C 558.154 0.110969 -2.34337 0
M  V30 6041 C 559.17 0.859007 -1.51318 0
M  V30 6042 O 560.346 0.816296 -1.84116 0
M  V30 6043 C 557.411 1.09494 -3.28956 0
M  V30 6044 C 556.472 0.348718 -4.27881 0
M  V30 6045 C 555.705 1.28582 -5.17979 0
M  V30 6046 O 555.928 2.52369 -5.11533 0
M  V30 6047 O 554.862 0.782172 -5.96796 0
M  V30 6048 H 558.688 -0.620258 -2.97299 0
M  V30 6049 H 556.273 -0.36916 -1.44767 0
M  V30 6050 H 558.155 1.66163 -3.87257 0
M  V30 6051 H 556.83 1.80717 -2.68557 0
M  V30 6052 H 555.737 -0.260465 -3.73192 0
M  V30 6053 H 557.07 -0.323049 -4.91139 0
M  V30 6054 N 558.722 1.53707 -0.348139 0
M  V30 6055 C 559.947 2.05877 0.250883 0
M  V30 6056 C 560.372 1.22115 1.43072 0
M  V30 6057 O 559.73 0.235986 1.79758 0
M  V30 6058 C 559.778 3.54886 0.639416 0
M  V30 6059 O 558.882 3.73948 1.73888 0
M  V30 6060 H 558.223 0.662754 0.040653 0
M  V30 6061 H 560.753 1.98303 -0.503685 0
M  V30 6062 H 560.763 3.97601 0.915295 0
M  V30 6063 H 559.438 4.153 -0.223386 0
M  V30 6064 H 558.015 3.43134 1.45991 0
M  V30 6065 N 560.2 0.0768682 1.57412 0
M  V30 6066 C 561.446 -0.591961 1.93968 0
M  V30 6067 C 561.779 -1.68954 0.9575 0
M  V30 6068 O 561.054 -1.94496 -0.0124675 0
M  V30 6069 C 561.337 -1.16418 3.40762 0
M  V30 6070 C 561.19 -0.0728933 4.49741 0
M  V30 6071 C 562.509 -2.06814 3.88479 0
M  V30 6072 H 559.628 -0.213716 0.705333 0
M  V30 6073 H 562.27 0.14387 1.89455 0
M  V30 6074 H 560.42 -1.79128 3.4474 0
M  V30 6075 H 562.092 0.560446 4.57883 0
M  V30 6076 H 560.335 0.595859 4.29688 0
M  V30 6077 H 561.006 -0.513755 5.49604 0
M  V30 6078 H 563.482 -1.54033 3.8654 0
M  V30 6079 H 562.358 -2.43785 4.91793 0
M  V30 6080 H 562.619 -2.97844 3.26713 0
M  V30 6081 N 561.678 -1.56367 -0.196722 0
M  V30 6082 C 562.927 -1.79724 -0.915539 0
M  V30 6083 C 563.24 -0.649804 -1.84491 0
M  V30 6084 O 564.446 -0.767631 -2.60422 0
M  V30 6085 C 562.902 -3.18369 -1.67836 0
M  V30 6086 C 562.51 -4.4091 -0.793897 0
M  V30 6087 C 564.254 -3.51037 -2.38691 0
M  V30 6088 C 562.161 -5.70577 -1.55549 0
M  V30 6089 H 561.091 -0.67013 -0.345604 0
M  V30 6090 H 563.742 -1.82721 -0.168856 0
M  V30 6091 H 562.124 -3.09617 -2.46887 0
M  V30 6092 H 563.298 -4.60781 -0.042163 0
M  V30 6093 H 561.613 -4.15937 -0.19626 0
M  V30 6094 H 564.21 -4.4515 -2.96219 0
M  V30 6095 H 564.553 -2.74704 -3.12799 0
M  V30 6096 H 565.086 -3.61229 -1.66608 0
M  V30 6097 H 561.825 -6.49871 -0.857226 0
M  V30 6098 H 561.345 -5.54726 -2.2812 0
M  V30 6099 H 563.024 -6.11637 -2.10971 0
M  V30 6100 N 563.156 0.464375 -1.50603 0
M  V30 6101 C 564.572 0.798684 -1.38178 0
M  V30 6102 C 564.772 1.96568 -0.44308 0
M  V30 6103 O 563.828 2.52252 0.111814 0
M  V30 6104 C 565.141 1.10444 -2.79683 0
M  V30 6105 C 566.689 1.2105 -2.88645 0
M  V30 6106 C 567.164 1.54934 -4.30998 0
M  V30 6107 N 568.655 1.61913 -4.3398 0
M  V30 6108 C 569.39 1.8965 -5.41129 0
M  V30 6109 N 568.886 2.15361 -6.58477 0
M  V30 6110 N 570.679 1.91207 -5.28579 0
M  V30 6111 H 562.83 -0.304603 -2.10204 0
M  V30 6112 H 565.093 -0.0737804 -0.945125 0
M  V30 6113 H 564.799 0.319934 -3.50242 0
M  V30 6114 H 564.673 2.03896 -3.17342 0
M  V30 6115 H 567.06 1.98567 -2.18301 0
M  V30 6116 H 567.141 0.255613 -2.5452 0
M  V30 6117 H 566.785 0.779549 -5.01882 0
M  V30 6118 H 566.715 2.51584 -4.62615 0
M  V30 6119 H 569.206 1.44055 -3.49366 0
M  V30 6120 H 569.519 2.35818 -7.35941 0
M  V30 6121 H 567.864 2.1274 -6.6164 0
M  V30 6122 H 571.055 1.70622 -4.35897 0
M  V30 6123 H 571.228 2.12488 -6.12171 0
M  V30 6124 N 564.634 1.40294 0.718013 0
M  V30 6125 C 565.881 1.3844 1.47786 0
M  V30 6126 C 566.209 -0.0140838 1.94495 0
M  V30 6127 O 565.464 -0.998165 1.68331 0
M  V30 6128 C 565.763 2.31814 2.72024 0
M  V30 6129 C 565.429 3.79117 2.44093 0
M  V30 6130 C 564.091 4.19249 2.36185 0
M  V30 6131 C 566.443 4.72212 2.20602 0
M  V30 6132 C 563.771 5.50516 2.02851 0
M  V30 6133 C 566.123 6.03775 1.88781 0
M  V30 6134 C 564.787 6.42953 1.79354 0
M  V30 6135 H 564.057 0.506588 0.540786 0
M  V30 6136 H 566.704 1.72929 0.822663 0
M  V30 6137 H 565.009 1.90501 3.42369 0
M  V30 6138 H 566.706 2.27664 3.30106 0
M  V30 6139 H 563.296 3.47318 2.51133 0
M  V30 6140 H 567.48 4.42026 2.25669 0
M  V30 6141 H 562.736 5.79776 1.94088 0
M  V30 6142 H 566.91 6.75428 1.69617 0
M  V30 6143 H 564.537 7.44584 1.53291 0
M  V30 6144 N 566.112 -0.949982 1.2575 0
M  V30 6145 C 567.359 -1.69515 1.10774 0
M  V30 6146 C 567.687 -1.91316 -0.350479 0
M  V30 6147 O 566.942 -1.48515 -1.27443 0
M  V30 6148 C 567.241 -3.08039 1.81237 0
M  V30 6149 C 566.907 -3.06023 3.31151 0
M  V30 6150 C 565.569 -3.0518 3.72047 0
M  V30 6151 C 567.921 -2.98998 4.26907 0
M  V30 6152 C 565.249 -2.95067 5.07102 0
M  V30 6153 C 567.601 -2.90426 5.61992 0
M  V30 6154 C 566.265 -2.87922 6.0221 0
M  V30 6155 H 565.535 -0.6203 0.405351 0
M  V30 6156 H 568.182 -1.10953 1.56082 0
M  V30 6157 H 566.487 -3.70172 1.28373 0
M  V30 6158 H 568.184 -3.64526 1.67098 0
M  V30 6159 H 564.774 -3.07453 2.98614 0
M  V30 6160 H 568.958 -2.98764 3.963 0
M  V30 6161 H 564.214 -2.915 5.37436 0
M  V30 6162 H 568.388 -2.83952 6.35881 0
M  V30 6163 H 566.015 -2.79841 7.06819 0
M  V30 6164 N 567.59 -1.07411 -1.15328 0
M  V30 6165 C 568.553 -0.698914 -2.18284 0
M  V30 6166 C 569.553 0.261149 -1.58665 0
M  V30 6167 O 570.743 0.0420277 -1.74149 0
M  V30 6168 C 567.875 -0.0302427 -3.40887 0
M  V30 6169 H 569.068 -1.61045 -2.52991 0
M  V30 6170 H 566.621 -0.870724 -1.298 0
M  V30 6171 H 567.356 0.893505 -3.11748 0
M  V30 6172 H 567.141 -0.720759 -3.85419 0
M  V30 6173 H 568.631 0.21759 -4.17033 0
M  V30 6174 N 569.068 1.32177 -0.85831 0
M  V30 6175 C 570.296 2.01313 -0.477582 0
M  V30 6176 C 570.711 1.6449 0.926736 0
M  V30 6177 O 570.068 0.868096 1.60531 0
M  V30 6178 C 570.119 3.56293 -0.611337 0
M  V30 6179 O 569.84 3.91794 -1.96034 0
M  V30 6180 C 571.341 4.42702 -0.230093 0
M  V30 6181 H 568.561 0.644323 -0.187322 0
M  V30 6182 H 571.105 1.68674 -1.15626 0
M  V30 6183 H 569.26 3.87395 0.0196494 0
M  V30 6184 H 569.674 4.86513 -1.95973 0
M  V30 6185 H 571.148 5.50727 -0.374674 0
M  V30 6186 H 571.625 4.3129 0.829779 0
M  V30 6187 H 572.231 4.16997 -0.836302 0
M  V30 6188 N 570.547 0.616602 1.45037 0
M  V30 6189 C 571.795 0.115103 2.01772 0
M  V30 6190 C 572.116 -1.2622 1.48639 0
M  V30 6191 O 571.386 -1.83563 0.684199 0
M  V30 6192 H 569.966 0.0395607 0.745952 0
M  V30 6193 H 572.628 0.800032 1.77723 0
M  V30 6194 H 571.724 0.0717274 3.12018 0
M  V30 6195 N 572.025 -1.5352 0.356285 0
M  V30 6196 C 572.935 -2.29151 -0.502712 0
M  V30 6197 C 573.951 -1.34753 -1.1008 0
M  V30 6198 O 575.127 -1.67803 -1.11374 0
M  V30 6199 C 572.192 -3.05911 -1.63154 0
M  V30 6200 C 571.253 -4.15958 -1.06194 0
M  V30 6201 C 570.486 -4.8905 -2.13696 0
M  V30 6202 O 570.709 -4.61919 -3.34645 0
M  V30 6203 O 569.643 -5.75202 -1.77275 0
M  V30 6204 H 573.469 -3.03492 0.112466 0
M  V30 6205 H 571.054 -1.4891 0.120942 0
M  V30 6206 H 572.936 -3.53874 -2.28804 0
M  V30 6207 H 571.611 -2.34415 -2.23229 0
M  V30 6208 H 570.518 -3.7227 -0.369603 0
M  V30 6209 H 571.851 -4.89593 -0.505872 0
M  V30 6210 N 573.503 -0.0852151 -1.57369 0
M  V30 6211 C 574.752 0.580443 -1.93168 0
M  V30 6212 C 575.065 1.6995 -0.968319 0
M  V30 6213 O 576.271 2.42564 -1.21963 0
M  V30 6214 C 574.727 1.08386 -3.43192 0
M  V30 6215 C 574.335 -0.00491388 -4.48 0
M  V30 6216 C 576.079 1.72281 -3.87968 0
M  V30 6217 C 573.986 0.513299 -5.89168 0
M  V30 6218 H 572.916 0.22059 -0.72101 0
M  V30 6219 H 575.567 -0.159621 -1.82804 0
M  V30 6220 H 573.949 1.8773 -3.48674 0
M  V30 6221 H 575.123 -0.780032 -4.5415 0
M  V30 6222 H 573.438 -0.548453 -4.12772 0
M  V30 6223 H 576.035 2.12108 -4.9083 0
M  V30 6224 H 576.378 2.58811 -3.26071 0
M  V30 6225 H 576.911 0.995359 -3.85146 0
M  V30 6226 H 573.65 -0.315153 -6.54742 0
M  V30 6227 H 573.17 1.25564 -5.8651 0
M  V30 6228 H 574.849 0.985433 -6.39451 0
M  V30 6229 N 574.981 1.5647 0.188427 0
M  V30 6230 C 575.931 1.91479 1.23774 0
M  V30 6231 C 576.915 0.78119 1.40664 0
M  V30 6232 O 578.107 1.04414 1.42922 0
M  V30 6233 C 575.236 2.26354 2.58106 0
M  V30 6234 C 574.322 3.46186 2.44981 0
M  V30 6235 N 574.713 4.63911 2.01546 0
M  V30 6236 C 573.011 3.50456 2.75856 0
M  V30 6237 C 573.712 5.46064 2.00472 0
M  V30 6238 N 572.688 4.86648 2.42229 0
M  V30 6239 H 576.49 2.79994 0.893339 0
M  V30 6240 H 574.004 1.57477 0.39682 0
M  V30 6241 H 576.001 2.49622 3.33908 0
M  V30 6242 H 574.661 1.39168 2.93364 0
M  V30 6243 H 575.672 4.88451 1.7215 0
M  V30 6244 H 572.349 2.73704 3.15265 0
M  V30 6245 H 573.739 6.50368 1.68734 0
M  V30 6246 N 576.459 -0.456382 1.50847 0
M  V30 6247 C 577.422 -1.53493 1.70213 0
M  V30 6248 C 578.422 -1.50264 0.572481 0
M  V30 6249 O 579.612 -1.52623 0.839751 0
M  V30 6250 C 576.744 -2.93091 1.741 0
M  V30 6251 H 577.937 -1.37633 2.66453 0
M  V30 6252 H 575.49 -0.683776 1.4055 0
M  V30 6253 H 576.225 -3.14378 0.796063 0
M  V30 6254 H 576.01 -2.9684 2.5618 0
M  V30 6255 H 577.5 -3.71368 1.90987 0
M  V30 6256 N 577.937 -1.40673 -0.710563 0
M  V30 6257 C 578.847 -1.43663 -1.85467 0
M  V30 6258 C 579.863 -0.328721 -1.70867 0
M  V30 6259 O 581.039 -0.574098 -1.93044 0
M  V30 6260 C 578.104 -1.30226 -3.21313 0
M  V30 6261 C 577.165 -2.51204 -3.48131 0
M  V30 6262 C 576.398 -2.38398 -4.77495 0
M  V30 6263 O 576.621 -1.40048 -5.5294 0
M  V30 6264 O 575.555 -3.2787 -5.04762 0
M  V30 6265 H 579.381 -2.40156 -1.859 0
M  V30 6266 H 576.966 -1.22049 -0.861652 0
M  V30 6267 H 578.848 -1.2496 -4.02446 0
M  V30 6268 H 577.523 -0.368419 -3.21597 0
M  V30 6269 H 576.43 -2.62048 -2.66987 0
M  V30 6270 H 577.763 -3.43366 -3.52648 0
M  V30 6271 N 579.415 0.9433 -1.26252 0
M  V30 6272 C 580.831 1.21644 -1.03319 0
M  V30 6273 C 581.031 2.0003 0.242983 0
M  V30 6274 O 580.087 2.33838 0.952688 0
M  V30 6275 C 581.4 1.97978 -2.2633 0
M  V30 6276 C 582.948 2.10978 -2.31209 0
M  V30 6277 C 583.423 2.90713 -3.53907 0
M  V30 6278 N 584.914 2.98287 -3.54371 0
M  V30 6279 C 585.649 3.60406 -4.45976 0
M  V30 6280 N 585.145 4.24043 -5.47868 0
M  V30 6281 N 586.938 3.57658 -4.33633 0
M  V30 6282 H 579.089 0.419221 -2.08222 0
M  V30 6283 H 581.352 0.247995 -0.914988 0
M  V30 6284 H 581.058 1.47788 -3.19142 0
M  V30 6285 H 580.932 2.9865 -2.30408 0
M  V30 6286 H 583.319 2.6036 -1.38913 0
M  V30 6287 H 583.4 1.09575 -2.31143 0
M  V30 6288 H 583.044 2.42018 -4.46531 0
M  V30 6289 H 582.974 3.92367 -3.5122 0
M  V30 6290 H 585.465 2.53044 -2.80673 0
M  V30 6291 H 585.778 4.69334 -6.13959 0
M  V30 6292 H 584.123 4.22637 -5.51728 0
M  V30 6293 H 587.314 3.07134 -3.53251 0
M  V30 6294 H 587.487 4.05782 -5.05218 0
M  V30 6295 N 580.893 1.08022 1.14757 0
M  V30 6296 C 582.14 0.807509 1.85703 0
M  V30 6297 C 582.468 -0.666617 1.8272 0
M  V30 6298 O 581.723 -1.50562 1.25018 0
M  V30 6299 C 582.022 1.26964 3.34088 0
M  V30 6300 C 581.688 2.7509 3.57262 0
M  V30 6301 C 580.35 3.15547 3.63296 0
M  V30 6302 C 582.702 3.70667 3.66409 0
M  V30 6303 C 580.03 4.50384 3.75994 0
M  V30 6304 C 582.382 5.05274 3.80632 0
M  V30 6305 C 581.046 5.45342 3.84913 0
M  V30 6306 H 580.316 0.295488 0.679535 0
M  V30 6307 H 582.963 1.35245 1.35577 0
M  V30 6308 H 581.268 0.644216 3.86467 0
M  V30 6309 H 582.965 1.03544 3.87401 0
M  V30 6310 H 579.555 2.42775 3.53212 0
M  V30 6311 H 583.739 3.40533 3.61041 0
M  V30 6312 H 578.995 4.80886 3.77569 0
M  V30 6313 H 583.169 5.79201 3.86652 0
M  V30 6314 H 580.796 6.49823 3.94505 0
M  V30 6315 N 582.371 -1.3172 0.865308 0
M  V30 6316 C 583.648 -1.91574 0.394789 0
M  V30 6317 C 584.028 -1.78769 -1.12271 0
M  V30 6318 O 583.376 -1.19245 -1.94918 0
M  V30 6319 C 583.586 -3.37957 0.870982 0
M  V30 6320 C 584.934 -4.15073 0.894384 0
M  V30 6321 O 585.958 -3.4672 0.816325 0
M  V30 6322 O 584.817 -5.37151 1.00651 0
M  V30 6323 H 581.911 -0.818649 0.117229 0
M  V30 6324 H 584.457 -1.4042 0.952913 0
M  V30 6325 H 583.229 -3.41269 1.91444 0
M  V30 6326 H 582.852 -3.96534 0.290907 0
M  V30 6327 N 583.85 -0.624285 -1.44708 0
M  V30 6328 C 584.812 0.0749638 -2.29077 0
M  V30 6329 C 585.812 0.778965 -1.40673 0
M  V30 6330 O 587.003 0.624591 -1.62618 0
M  V30 6331 C 584.135 1.11663 -3.22094 0
M  V30 6332 H 585.327 -0.667013 -2.92388 0
M  V30 6333 H 582.88 -0.384098 -1.51507 0
M  V30 6334 H 583.615 1.88881 -2.63618 0
M  V30 6335 H 583.401 0.61583 -3.87234 0
M  V30 6336 H 584.891 1.60585 -3.8549 0
M  V30 6337 N 585.328 1.53329 -0.364422 0
M  V30 6338 C 586.238 2.29414 0.490552 0
M  V30 6339 C 587.254 1.35335 1.09363 0
M  V30 6340 O 588.43 1.68391 1.10483 0
M  V30 6341 C 585.495 3.06772 1.61529 0
M  V30 6342 C 584.556 4.16516 1.03986 0
M  V30 6343 C 583.789 4.90176 2.111 0
M  V30 6344 O 584.012 4.63687 3.32191 0
M  V30 6345 O 582.946 5.76134 1.74222 0
M  V30 6346 H 586.772 3.03428 -0.12856 0
M  V30 6347 H 584.357 1.48843 -0.128837 0
M  V30 6348 H 586.239 3.55082 2.26924 0
M  V30 6349 H 584.914 2.35596 2.21983 0
M  V30 6350 H 583.821 3.7246 0.349856 0
M  V30 6351 H 585.154 4.89855 0.4799 0
M  V30 6352 N 586.806 0.0935595 1.57322 0
M  V30 6353 C 587.736 -0.863062 2.16964 0
M  V30 6354 C 588.717 -1.29528 1.10256 0
M  V30 6355 O 589.902 -1.36245 1.38387 0
M  V30 6356 C 587.032 -2.12276 2.74875 0
M  V30 6357 C 585.986 -1.82921 3.86942 0
M  V30 6358 C 585.312 -3.15707 4.31548 0
M  V30 6359 C 586.612 -1.11737 5.10208 0
M  V30 6360 H 588.306 -0.366145 2.97153 0
M  V30 6361 H 585.852 -0.174673 1.42937 0
M  V30 6362 H 587.805 -2.79634 3.1525 0
M  V30 6363 H 586.529 -2.64248 1.91938 0
M  V30 6364 H 585.188 -1.17961 3.47103 0
M  V30 6365 H 584.836 -3.65563 3.45504 0
M  V30 6366 H 584.536 -2.96849 5.07104 0
M  V30 6367 H 586.06 -3.84226 4.74555 0
M  V30 6368 H 587.474 -1.69203 5.47762 0
M  V30 6369 H 585.871 -1.03064 5.91183 0
M  V30 6370 H 586.941 -0.0998818 4.84797 0
M  V30 6371 N 588.284 -1.56567 -0.180126 0
M  V30 6372 C 589.512 -1.85618 -0.913972 0
M  V30 6373 C 589.927 -0.677892 -1.7621 0
M  V30 6374 O 589.284 0.353171 -1.7905 0
M  V30 6375 C 589.335 -3.13619 -1.79793 0
M  V30 6376 O 589.056 -4.26906 -0.98402 0
M  V30 6377 C 590.557 -3.55954 -2.64219 0
M  V30 6378 H 587.777 -0.616043 -0.265954 0
M  V30 6379 H 590.321 -2.03681 -0.182872 0
M  V30 6380 H 588.476 -2.97409 -2.48247 0
M  V30 6381 H 588.89 -4.9989 -1.58776 0
M  V30 6382 H 590.364 -4.48444 -3.21873 0
M  V30 6383 H 590.841 -2.79653 -3.38661 0
M  V30 6384 H 591.447 -3.74746 -2.01111 0
M  V30 6385 N 589.762 0.448376 -1.51087 0
M  V30 6386 C 591.178 0.783984 -1.39017 0
M  V30 6387 C 591.378 1.96087 -0.463904 0
M  V30 6388 O 590.434 2.52357 0.0850534 0
M  V30 6389 C 591.747 1.07471 -2.80839 0
M  V30 6390 C 593.295 1.17981 -2.89913 0
M  V30 6391 C 593.77 1.50354 -4.32617 0
M  V30 6392 N 595.261 1.57301 -4.35673 0
M  V30 6393 C 595.996 1.839 -5.4311 0
M  V30 6394 N 595.492 2.08365 -6.60724 0
M  V30 6395 N 597.285 1.8559 -5.30578 0
M  V30 6396 H 589.436 -0.326881 -2.0987 0
M  V30 6397 H 591.699 -0.0838006 -0.944289 0
M  V30 6398 H 591.405 0.282768 -3.50561 0
M  V30 6399 H 591.279 2.00519 -3.19487 0
M  V30 6400 H 593.666 1.9624 -2.20395 0
M  V30 6401 H 593.747 0.228603 -2.54776 0
M  V30 6402 H 593.391 0.726273 -5.0268 0
M  V30 6403 H 593.321 2.46663 -4.65258 0
M  V30 6404 H 595.812 1.40342 -3.50874 0
M  V30 6405 H 596.125 2.27999 -7.38401 0
M  V30 6406 H 594.47 2.0571 -6.63859 0
M  V30 6407 H 597.661 1.65989 -4.37682 0
M  V30 6408 H 597.834 2.05983 -6.1439 0
M  V30 6409 N 591.24 1.41047 0.703093 0
M  V30 6410 C 592.203 1.42036 1.79884 0
M  V30 6411 C 593.203 0.312153 1.57741 0
M  V30 6412 O 594.393 0.571672 1.64553 0
M  V30 6413 C 591.525 1.22437 3.18154 0
M  V30 6414 H 592.718 2.39572 1.80403 0
M  V30 6415 H 590.271 1.27079 0.909977 0
M  V30 6416 H 591.006 0.257112 3.23279 0
M  V30 6417 H 590.791 2.02723 3.35627 0
M  V30 6418 H 592.281 1.25946 3.98155 0
M  V30 6419 N 592.718 -0.936591 1.26751 0
M  V30 6420 C 594.134 -1.21095 1.03963 0
M  V30 6421 C 594.334 -2.00156 -0.232372 0
M  V30 6422 O 593.39 -2.3434 -0.940274 0
M  V30 6423 C 594.703 -1.96775 2.27377 0
M  V30 6424 C 596.251 -2.09749 2.32324 0
M  V30 6425 C 596.726 -2.88832 3.55443 0
M  V30 6426 N 598.217 -2.96404 3.55948 0
M  V30 6427 C 598.952 -3.58036 4.47881 0
M  V30 6428 N 598.448 -4.21132 5.50109 0
M  V30 6429 N 600.241 -3.55353 4.35523 0
M  V30 6430 H 592.392 -0.408173 2.08441 0
M  V30 6431 H 594.655 -0.243139 0.91629 0
M  V30 6432 H 594.361 -1.46094 3.19921 0
M  V30 6433 H 594.235 -2.97424 2.31989 0
M  V30 6434 H 596.622 -2.5962 1.40291 0
M  V30 6435 H 596.703 -1.08347 2.31721 0
M  V30 6436 H 596.347 -2.39647 4.47808 0
M  V30 6437 H 596.277 -3.90499 3.53296 0
M  V30 6438 H 598.768 -2.51552 2.82011 0
M  V30 6439 H 599.081 -4.66071 6.16439 0
M  V30 6440 H 597.426 -4.19705 5.53961 0
M  V30 6441 H 600.617 -3.05256 3.54875 0
M  V30 6442 H 600.79 -4.03097 5.07363 0
M  V30 6443 N 594.196 -1.08629 -1.14182 0
M  V30 6444 C 595.129 -0.662329 -2.18377 0
M  V30 6445 C 596.107 0.327054 -1.59277 0
M  V30 6446 O 597.291 0.230376 -1.87087 0
M  V30 6447 C 594.418 0.0254765 -3.3869 0
M  V30 6448 C 593.464 -0.924414 -4.16361 0
M  V30 6449 S 594.297 -2.43226 -4.77076 0
M  V30 6450 C 595.453 -1.75663 -6.00744 0
M  V30 6451 H 595.686 -1.54501 -2.54001 0
M  V30 6452 H 593.219 -0.901484 -1.2535 0
M  V30 6453 H 595.177 0.416032 -4.08386 0
M  V30 6454 H 593.838 0.884689 -3.01384 0
M  V30 6455 H 593.031 -0.390099 -5.02488 0
M  V30 6456 H 592.633 -1.25598 -3.5228 0
M  V30 6457 H 594.925 -1.07589 -6.68903 0
M  V30 6458 H 595.868 -2.59673 -6.58768 0
M  V30 6459 H 596.276 -1.22903 -5.50958 0
M  V30 6460 N 595.674 1.31259 -0.872281 0
M  V30 6461 C 596.604 2.30929 -0.345554 0
M  V30 6462 C 597.585 1.60449 0.5648 0
M  V30 6463 O 598.77 1.8814 0.481335 0
M  V30 6464 C 595.9 3.44348 0.451823 0
M  V30 6465 C 594.854 4.26435 -0.365641 0
M  V30 6466 C 594.18 5.31785 0.557562 0
M  V30 6467 C 595.48 4.97159 -1.60095 0
M  V30 6468 H 597.174 2.75234 -1.17841 0
M  V30 6469 H 594.72 1.3232 -0.568094 0
M  V30 6470 H 596.673 4.13128 0.830854 0
M  V30 6471 H 595.397 2.98816 1.31821 0
M  V30 6472 H 594.056 3.59326 -0.726649 0
M  V30 6473 H 593.704 4.82502 1.4213 0
M  V30 6474 H 593.404 5.87598 0.0144878 0
M  V30 6475 H 594.928 6.03424 0.933387 0
M  V30 6476 H 596.342 5.58523 -1.29323 0
M  V30 6477 H 594.739 5.62779 -2.08327 0
M  V30 6478 H 595.809 4.24012 -2.35249 0
M  V30 6479 N 597.152 0.631951 1.44375 0
M  V30 6480 C 598.382 0.143658 2.061 0
M  V30 6481 C 598.79 -1.18733 1.47306 0
M  V30 6482 O 598.133 -1.73943 0.590724 0
M  V30 6483 C 598.195 -0.0446102 3.59472 0
M  V30 6484 C 597.859 1.20835 4.40736 0
M  V30 6485 C 598.856 2.13224 4.74164 0
M  V30 6486 C 596.541 1.44399 4.81097 0
M  V30 6487 C 598.535 3.27487 5.46838 0
M  V30 6488 C 596.222 2.58959 5.53519 0
M  V30 6489 C 597.22 3.50329 5.86309 0
M  V30 6490 O 596.908 4.62891 6.57257 0
M  V30 6491 H 596.64 0.0772939 0.671567 0
M  V30 6492 H 599.194 0.866677 1.8622 0
M  V30 6493 H 597.424 -0.822783 3.77845 0
M  V30 6494 H 599.113 -0.487561 4.02961 0
M  V30 6495 H 599.879 1.96253 4.4352 0
M  V30 6496 H 595.758 0.741696 4.54994 0
M  V30 6497 H 599.302 3.98826 5.72349 0
M  V30 6498 H 595.199 2.75873 5.83579 0
M  V30 6499 H 595.967 4.61883 6.75726 0
M  V30 6500 N 598.631 -1.53133 0.372548 0
M  V30 6501 C 600.042 -1.86404 -0.105155 0
M  V30 6502 C 600.393 -1.29289 -1.47576 0
M  V30 6503 O 599.518 -0.617646 -2.07398 0
M  V30 6504 C 600.113 -3.38223 -0.197588 0
M  V30 6505 C 598.672 -3.71266 -0.619556 0
M  V30 6506 C 597.819 -2.76353 0.228919 0
M  V30 6507 H 600.77 -1.47282 0.591077 0
M  V30 6508 H 600.791 -3.66577 -1.01987 0
M  V30 6509 H 600.303 -3.79763 0.800099 0
M  V30 6510 H 598.404 -3.35287 -1.62522 0
M  V30 6511 H 598.517 -4.77515 -0.389332 0
M  V30 6512 H 596.881 -2.52888 -0.303271 0
M  V30 6513 H 597.664 -3.20728 1.22428 0
M  V30 6514 N 600.109 -0.101901 -1.5727 0
M  V30 6515 C 601.019 0.868647 -2.17926 0
M  V30 6516 C 602.035 1.30527 -1.1506 0
M  V30 6517 O 603.211 1.37178 -1.47459 0
M  V30 6518 C 600.276 2.10727 -2.75309 0
M  V30 6519 C 599.337 1.7242 -3.93154 0
M  V30 6520 C 598.57 2.90377 -4.47791 0
M  V30 6521 O 598.793 4.05305 -4.01353 0
M  V30 6522 O 597.727 2.6845 -5.38719 0
M  V30 6523 H 601.553 0.382544 -3.01281 0
M  V30 6524 H 599.138 0.122812 -1.48894 0
M  V30 6525 H 601.02 2.83303 -3.11958 0
M  V30 6526 H 599.695 2.58376 -1.94996 0
M  V30 6527 H 598.602 0.970039 -3.61305 0
M  V30 6528 H 599.935 1.29528 -4.74851 0
M  V30 6529 N 601.587 1.56661 0.17182 0
M  V30 6530 C 602.519 1.92934 1.2373 0
M  V30 6531 C 603.532 0.822385 1.40502 0
M  V30 6532 O 604.721 1.10083 1.40514 0
M  V30 6533 C 601.821 2.16651 2.60607 0
M  V30 6534 C 600.994 3.47878 2.6514 0
M  V30 6535 C 600.053 3.60429 3.83377 0
M  V30 6536 O 599.079 4.33051 3.69398 0
M  V30 6537 N 600.281 2.95241 4.99813 0
M  V30 6538 H 603.046 2.84931 0.929205 0
M  V30 6539 H 600.607 1.5781 0.361588 0
M  V30 6540 H 602.599 2.22312 3.38171 0
M  V30 6541 H 601.169 1.3104 2.83809 0
M  V30 6542 H 600.389 3.53879 1.73675 0
M  V30 6543 H 601.677 4.34232 2.6518 0
M  V30 6544 H 601.075 2.3611 5.14071 0
M  V30 6545 H 599.632 3.06499 5.75241 0
M  V30 6546 N 603.065 -0.440357 1.51323 0
M  V30 6547 C 604.028 -1.51679 1.71832 0
M  V30 6548 C 605.028 -1.49648 0.588386 0
M  V30 6549 O 606.218 -1.51724 0.855891 0
M  V30 6550 C 603.35 -2.91228 1.77199 0
M  V30 6551 H 604.543 -1.34799 2.67898 0
M  V30 6552 H 602.096 -0.66883 1.41267 0
M  V30 6553 H 602.831 -3.13516 0.829363 0
M  V30 6554 H 602.616 -2.94107 2.59314 0
M  V30 6555 H 604.106 -3.69321 1.94915 0
M  V30 6556 N 604.543 -1.41418 -0.695603 0
M  V30 6557 C 605.506 -1.42988 -1.79129 0
M  V30 6558 C 606.506 -0.320514 -1.57573 0
M  V30 6559 O 607.696 -0.58039 -1.64247 0
M  V30 6560 C 604.828 -1.24122 -3.175 0
M  V30 6561 H 606.021 -2.40526 -1.7913 0
M  V30 6562 H 603.574 -1.2756 -0.903225 0
M  V30 6563 H 604.309 -0.274253 -3.23138 0
M  V30 6564 H 604.094 -2.045 -3.34547 0
M  V30 6565 H 605.584 -1.28056 -3.97481 0
M  V30 6566 N 606.021 0.929856 -1.27246 0
M  V30 6567 C 606.953 2.03434 -1.0558 0
M  V30 6568 C 607.966 1.62795 -0.0125762 0
M  V30 6569 O 609.155 1.76685 -0.2539 0
M  V30 6570 C 606.255 3.33915 -0.57912 0
M  V30 6571 C 605.428 4.03259 -1.69415 0
M  V30 6572 C 604.487 5.12014 -1.21357 0
M  V30 6573 O 603.513 5.36097 -1.91282 0
M  V30 6574 N 604.715 5.8046 -0.0680622 0
M  V30 6575 H 607.48 2.22583 -2.00691 0
M  V30 6576 H 605.041 1.1001 -1.18783 0
M  V30 6577 H 607.033 4.03978 -0.241563 0
M  V30 6578 H 605.603 3.11355 0.278703 0
M  V30 6579 H 604.823 3.26958 -2.20209 0
M  V30 6580 H 606.111 4.46337 -2.44255 0
M  V30 6581 H 605.509 5.63345 0.515626 0
M  V30 6582 H 604.066 6.51461 0.210332 0
M  V30 6583 N 607.499 1.09233 1.13605 0
M  V30 6584 C 608.747 0.825525 1.84471 0
M  V30 6585 C 609.068 -0.650702 1.83823 0
M  V30 6586 O 608.338 -1.47204 1.29259 0
M  V30 6587 H 606.918 0.3024 0.683054 0
M  V30 6588 H 609.58 1.38006 1.37624 0
M  V30 6589 H 608.676 1.17727 2.89045 0
M  V30 6590 N 608.977 -1.30795 0.87923 0
M  V30 6591 C 609.907 -2.30742 0.357796 0
M  V30 6592 C 610.888 -1.60747 -0.556283 0
M  V30 6593 O 612.073 -1.88393 -0.47135 0
M  V30 6594 C 609.203 -3.44583 -0.433555 0
M  V30 6595 C 608.157 -4.26235 0.388251 0
M  V30 6596 C 607.483 -5.32073 -0.529352 0
M  V30 6597 C 608.783 -4.96303 1.62729 0
M  V30 6598 H 610.477 -2.74605 1.19299 0
M  V30 6599 H 608.023 -1.32017 0.575104 0
M  V30 6600 H 609.976 -4.13563 -0.808934 0
M  V30 6601 H 608.7 -2.99511 -1.30234 0
M  V30 6602 H 607.359 -3.58936 0.745695 0
M  V30 6603 H 607.007 -4.83249 -1.39569 0
M  V30 6604 H 606.707 -5.87598 0.0166741 0
M  V30 6605 H 608.231 -6.0391 -0.901373 0
M  V30 6606 H 609.645 -5.5783 1.32283 0
M  V30 6607 H 608.042 -5.61666 2.11309 0
M  V30 6608 H 609.112 -4.22758 2.37494 0
M  V30 6609 N 610.455 -0.639598 -1.44038 0
M  V30 6610 C 611.701 -0.156248 -2.02799 0
M  V30 6611 C 612.056 1.21145 -1.49471 0
M  V30 6612 O 611.349 1.79406 -0.672608 0
M  V30 6613 C 611.543 -0.0925348 -3.5728 0
M  V30 6614 C 611.372 -1.45252 -4.25596 0
M  V30 6615 C 610.142 -2.04145 -4.62226 0
M  V30 6616 C 612.34 -2.38812 -4.55492 0
M  V30 6617 N 610.322 -3.3329 -5.15549 0
M  V30 6618 C 611.693 -3.52578 -5.09989 0
M  V30 6619 C 613.748 -2.37785 -4.3745 0
M  V30 6620 C 612.451 -4.65525 -5.48342 0
M  V30 6621 C 614.477 -3.49802 -4.76857 0
M  V30 6622 C 613.839 -4.62292 -5.31475 0
M  V30 6623 H 609.938 -0.101292 -0.775412 0
M  V30 6624 H 612.522 -0.844938 -1.75411 0
M  V30 6625 H 610.693 0.565459 -3.84262 0
M  V30 6626 H 612.425 0.400426 -4.02714 0
M  V30 6627 H 609.18 -1.56999 -4.4682 0
M  V30 6628 H 609.604 -3.9934 -5.46678 0
M  V30 6629 H 614.246 -1.52061 -3.94509 0
M  V30 6630 H 611.964 -5.51951 -5.90233 0
M  V30 6631 H 615.55 -3.50193 -4.64603 0
M  V30 6632 H 614.43 -5.47536 -5.61403 0
M  V30 6633 N 611.933 1.52934 -0.380664 0
M  V30 6634 C 612.881 2.27727 0.47361 0
M  V30 6635 C 613.875 1.31288 1.0705 0
M  V30 6636 O 615.081 1.4886 1.01197 0
M  V30 6637 H 611.456 0.732189 0.171475 0
M  V30 6638 H 613.427 2.97864 -0.178785 0
M  V30 6639 C 612.176 3.0904 1.59341 0
M  V30 6640 H 611.499 3.831 1.14343 0
M  V30 6641 H 612.939 3.64527 2.16555 0
M  V30 6642 C 611.398 2.20813 2.54447 0
M  V30 6643 O 611.928 1.82907 3.57642 0
M  V30 6644 N 610.134 1.85145 2.23986 0
M  V30 6645 H 609.681 2.16169 1.40103 0
M  V30 6646 H 609.639 1.26402 2.87871 0
M  V30 6647 N 613.412 0.11024 1.57214 0
M  V30 6648 C 614.342 -0.840002 2.17867 0
M  V30 6649 C 615.323 -1.28352 1.11624 0
M  V30 6650 O 616.508 -1.3477 1.39824 0
M  V30 6651 C 613.638 -2.09349 2.77111 0
M  V30 6652 C 612.592 -1.78807 3.8886 0
M  V30 6653 C 611.918 -3.11112 4.34872 0
M  V30 6654 C 613.218 -1.0632 5.11364 0
M  V30 6655 H 614.912 -0.334608 2.97524 0
M  V30 6656 H 612.458 -0.159502 1.43114 0
M  V30 6657 H 614.411 -2.76275 3.18198 0
M  V30 6658 H 613.135 -2.62198 1.9473 0
M  V30 6659 H 611.794 -1.14273 3.48335 0
M  V30 6660 H 611.442 -3.61877 3.49362 0
M  V30 6661 H 611.142 -2.91453 5.10224 0
M  V30 6662 H 612.666 -3.79171 4.78604 0
M  V30 6663 H 614.08 -1.63383 5.49526 0
M  V30 6664 H 612.477 -0.967876 5.92243 0
M  V30 6665 H 613.547 -0.0484569 4.84876 0
M  V30 6666 N 614.89 -1.56749 -0.16351 0
M  V30 6667 C 615.82 -2.00042 -1.20438 0
M  V30 6668 C 616.801 -0.877256 -1.45733 0
M  V30 6669 O 617.986 -1.1439 -1.56935 0
M  V30 6670 C 615.116 -2.36697 -2.54149 0
M  V30 6671 C 614.07 -3.52046 -2.43408 0
M  V30 6672 C 613.396 -3.74466 -3.81679 0
M  V30 6673 C 614.696 -4.85247 -1.93216 0
M  V30 6674 H 616.39 -2.87244 -0.844477 0
M  V30 6675 H 613.936 -1.38194 -0.40478 0
M  V30 6676 H 615.889 -2.65582 -3.27176 0
M  V30 6677 H 614.613 -1.46414 -2.91943 0
M  V30 6678 H 613.272 -3.23301 -1.72834 0
M  V30 6679 H 612.92 -2.81461 -4.1688 0
M  V30 6680 H 612.62 -4.52084 -3.75359 0
M  V30 6681 H 614.144 -4.0576 -4.5628 0
M  V30 6682 H 615.558 -5.12957 -2.56023 0
M  V30 6683 H 613.955 -5.66556 -1.97825 0
M  V30 6684 H 615.025 -4.7672 -0.88689 0
M  V30 6685 N 616.368 0.432326 -1.51554 0
M  V30 6686 C 617.645 1.19288 -1.55015 0
M  V30 6687 C 618.025 2.08701 -0.317375 0
M  V30 6688 O 617.373 2.17602 0.697243 0
M  V30 6689 C 617.583 1.99037 -2.86679 0
M  V30 6690 C 618.931 2.55907 -3.38817 0
M  V30 6691 O 619.955 2.09243 -2.88263 0
M  V30 6692 O 618.814 3.41029 -4.27038 0
M  V30 6693 H 615.908 0.543369 -0.623441 0
M  V30 6694 H 618.454 0.440988 -1.6387 0
M  V30 6695 H 617.226 1.33397 -3.6786 0
M  V30 6696 H 616.849 2.81281 -2.8101 0
M  V30 6697 N 617.846 1.41785 0.688094 0
M  V30 6698 C 619.071 1.45117 1.48175 0
M  V30 6699 C 619.496 0.060129 1.88004 0
M  V30 6700 O 618.854 -0.938385 1.55126 0
M  V30 6701 C 618.902 2.37224 2.71583 0
M  V30 6702 O 618.006 1.83443 3.69354 0
M  V30 6703 H 617.347 0.492208 0.445676 0
M  V30 6704 H 619.877 1.86329 0.845145 0
M  V30 6705 H 619.887 2.53353 3.19806 0
M  V30 6706 H 618.562 3.38293 2.41931 0
M  V30 6707 H 617.139 1.76802 3.28322 0
M  V30 6708 N 619.324 -0.923095 1.27737 0
M  V30 6709 C 620.274 -2.01061 1.0751 0
M  V30 6710 C 621.258 -1.609 0.00165451 0
M  V30 6711 O 622.45 -1.75618 0.220724 0
M  V30 6712 C 619.579 -3.35467 0.729162 0
M  V30 6713 C 618.665 -3.82059 1.84098 0
M  V30 6714 N 619.056 -4.01115 3.08124 0
M  V30 6715 C 617.354 -4.11135 1.7287 0
M  V30 6716 C 618.055 -4.39989 3.80506 0
M  V30 6717 N 617.031 -4.47721 3.08297 0
M  V30 6718 H 620.833 -2.13832 2.01626 0
M  V30 6719 H 618.347 -1.11027 1.18519 0
M  V30 6720 H 620.344 -4.13049 0.565355 0
M  V30 6721 H 619.004 -3.24056 -0.204334 0
M  V30 6722 H 620.015 -3.87294 3.43836 0
M  V30 6723 H 616.692 -4.08412 0.866352 0
M  V30 6724 H 618.082 -4.62773 4.87125 0
M  V30 6725 N 620.802 -1.09834 -1.13024 0
M  V30 6726 C 622.079 -0.749225 -1.80682 0
M  V30 6727 C 622.459 0.765171 -1.96744 0
M  V30 6728 O 621.807 1.68912 -1.53886 0
M  V30 6729 C 622.017 -1.49311 -3.15448 0
M  V30 6730 C 623.365 -1.66162 -3.90737 0
M  V30 6731 O 624.389 -1.45597 -3.25085 0
M  V30 6732 O 623.248 -2.00211 -5.08505 0
M  V30 6733 H 620.342 -0.269614 -0.781817 0
M  V30 6734 H 622.888 -1.20078 -1.19914 0
M  V30 6735 H 621.66 -2.52407 -2.99009 0
M  V30 6736 H 621.283 -1.034 -3.8392 0
M  V30 6737 N 622.28 1.30327 -0.886154 0
M  V30 6738 C 623.508 2.00254 -0.520176 0
M  V30 6739 C 623.923 1.66419 0.891637 0
M  V30 6740 O 623.28 0.901951 1.58654 0
M  V30 6741 C 623.331 3.54916 -0.686775 0
M  V30 6742 O 623.052 3.87547 -2.04301 0
M  V30 6743 C 624.553 4.42115 -0.323945 0
M  V30 6744 H 621.773 0.640204 -0.200947 0
M  V30 6745 H 624.317 1.66183 -1.19178 0
M  V30 6746 H 622.472 3.8735 -0.0625273 0
M  V30 6747 H 622.886 4.82247 -2.06249 0
M  V30 6748 H 624.36 5.49808 -0.491407 0
M  V30 6749 H 624.837 4.32953 0.73811 0
M  V30 6750 H 625.443 4.15129 -0.924565 0
M  V30 6751 N 623.758 0.647228 1.43697 0
M  V30 6752 C 624.668 -0.0487997 2.34549 0
M  V30 6753 C 625.684 -0.818586 1.53542 0
M  V30 6754 O 626.86 -0.767195 1.86215 0
M  V30 6755 C 623.925 -1.00734 3.31743 0
M  V30 6756 C 622.986 -0.23515 4.28655 0
M  V30 6757 C 622.219 -1.14803 5.21206 0
M  V30 6758 O 622.442 -2.38717 5.18045 0
M  V30 6759 O 621.376 -0.623667 5.9866 0
M  V30 6760 H 625.202 0.698863 2.9555 0
M  V30 6761 H 622.787 0.407412 1.43738 0
M  V30 6762 H 624.669 -1.55837 3.91526 0
M  V30 6763 H 623.344 -1.73534 2.73254 0
M  V30 6764 H 622.251 0.359319 3.7237 0
M  V30 6765 H 623.584 0.453152 4.9011 0
M  V30 6766 N 625.236 -1.5273 0.388769 0
M  V30 6767 C 626.652 -1.59553 0.0387049 0
M  V30 6768 C 626.852 -1.40278 -1.44652 0
M  V30 6769 O 625.908 -1.21951 -2.21098 0
M  V30 6770 C 627.221 -2.9625 0.515409 0
M  V30 6771 C 628.769 -3.09426 0.471621 0
M  V30 6772 C 629.244 -4.48572 0.924505 0
M  V30 6773 N 630.735 -4.54754 0.880496 0
M  V30 6774 C 631.47 -5.60653 1.20234 0
M  V30 6775 N 630.966 -6.74198 1.59463 0
M  V30 6776 N 632.759 -5.50755 1.12363 0
M  V30 6777 H 624.91 -1.63508 1.35569 0
M  V30 6778 H 627.173 -0.768097 0.555636 0
M  V30 6779 H 626.879 -3.15569 1.5527 0
M  V30 6780 H 626.753 -3.77102 -0.085792 0
M  V30 6781 H 629.14 -2.89804 -0.556588 0
M  V30 6782 H 629.221 -2.30528 1.10862 0
M  V30 6783 H 628.865 -4.68936 1.95094 0
M  V30 6784 H 628.795 -5.25935 0.264524 0
M  V30 6785 H 631.286 -3.73237 0.591815 0
M  V30 6786 H 631.599 -7.5097 1.82385 0
M  V30 6787 H 629.944 -6.75531 1.63349 0
M  V30 6788 H 633.135 -4.6093 0.816169 0
M  V30 6789 H 633.308 -6.33184 1.37777 0
M  V30 6790 N 626.714 -0.118576 -1.57153 0
M  V30 6791 C 627.961 0.539526 -1.9518 0
M  V30 6792 C 628.289 1.66714 -1.00184 0
M  V30 6793 O 627.544 1.95683 -0.0256482 0
M  V30 6794 C 627.843 1.11303 -3.39627 0
M  V30 6795 C 627.509 0.106809 -4.50773 0
M  V30 6796 C 626.171 -0.169876 -4.809 0
M  V30 6797 C 628.523 -0.57895 -5.17975 0
M  V30 6798 C 625.851 -1.13861 -5.75545 0
M  V30 6799 C 628.203 -1.53631 -6.13661 0
M  V30 6800 C 626.867 -1.82099 -6.42181 0
M  V30 6801 H 626.137 0.197427 -0.714215 0
M  V30 6802 H 628.784 -0.199391 -1.90459 0
M  V30 6803 H 627.089 1.92869 -3.4104 0
M  V30 6804 H 628.786 1.63032 -3.66363 0
M  V30 6805 H 625.376 0.332645 -4.27307 0
M  V30 6806 H 629.56 -0.378359 -4.94856 0
M  V30 6807 H 624.816 -1.36592 -5.95947 0
M  V30 6808 H 628.99 -2.07337 -6.64819 0
M  V30 6809 H 626.617 -2.57319 -7.15326 0
M  V30 6810 N 628.193 1.56834 0.155195 0
M  V30 6811 C 629.123 2.00678 1.19376 0
M  V30 6812 C 630.104 0.884973 1.45266 0
M  V30 6813 O 631.289 1.1522 1.56326 0
M  V30 6814 C 628.419 2.38042 2.5289 0
M  V30 6815 C 627.373 3.53332 2.41538 0
M  V30 6816 C 626.699 3.76485 3.79688 0
M  V30 6817 C 627.999 4.86265 1.9064 0
M  V30 6818 H 629.693 2.87688 0.829232 0
M  V30 6819 H 627.239 1.38407 0.397445 0
M  V30 6820 H 629.192 2.67314 3.25763 0
M  V30 6821 H 627.916 1.4796 2.91162 0
M  V30 6822 H 626.575 3.24213 1.71117 0
M  V30 6823 H 626.223 2.83667 4.15382 0
M  V30 6824 H 625.923 4.54068 3.72956 0
M  V30 6825 H 627.447 4.08174 4.54122 0
M  V30 6826 H 628.861 5.14308 2.53299 0
M  V30 6827 H 627.258 5.67597 1.94818 0
M  V30 6828 H 628.328 4.77184 0.861596 0
M  V30 6829 N 629.671 -0.424282 1.51781 0
M  V30 6830 C 630.899 -1.1947 1.68921 0
M  V30 6831 C 631.314 -1.84683 0.39213 0
M  V30 6832 O 630.671 -1.71261 -0.630554 0
M  V30 6833 C 630.722 -2.26909 2.81416 0
M  V30 6834 O 630.443 -1.64361 4.061 0
M  V30 6835 C 631.944 -3.16945 3.09937 0
M  V30 6836 H 629.164 -0.359591 0.566511 0
M  V30 6837 H 631.708 -0.501139 1.98265 0
M  V30 6838 H 629.863 -2.91959 2.54635 0
M  V30 6839 H 630.277 -2.35468 4.68674 0
M  V30 6840 H 631.751 -3.88437 3.922 0
M  V30 6841 H 632.228 -3.78451 2.22871 0
M  V30 6842 H 632.834 -2.57581 3.38426 0
M  V30 6843 N 631.149 -1.42148 -0.680565 0
M  V30 6844 C 632.374 -1.45901 -1.47403 0
M  V30 6845 C 632.799 -0.0700985 -1.87969 0
M  V30 6846 O 632.157 0.930145 -1.55621 0
M  V30 6847 C 632.205 -2.38661 -2.70321 0
M  V30 6848 O 631.309 -1.85399 -3.68376 0
M  V30 6849 H 630.65 -0.494565 -0.443059 0
M  V30 6850 H 633.18 -1.86774 -0.835251 0
M  V30 6851 H 633.19 -2.55046 -3.18458 0
M  V30 6852 H 631.865 -3.39571 -2.40134 0
M  V30 6853 H 630.442 -1.78541 -3.2738 0
M  V30 6854 N 632.627 0.916307 -1.28225 0
M  V30 6855 C 633.867 1.67964 -1.16479 0
M  V30 6856 C 634.231 1.8991 0.282494 0
M  V30 6857 O 635.432 2.63671 0.522607 0
M  V30 6858 C 633.703 3.00251 -1.93866 0
M  V30 6859 S 635.262 3.91353 -1.98465 0
M  V30 6860 H 632.08 0.576873 -0.415619 0
M  V30 6861 H 634.682 1.09006 -1.62289 0
M  V30 6862 H 633.386 2.81978 -2.98189 0
M  V30 6863 H 632.917 3.64257 -1.48595 0
M  V30 6864 H 634.932 4.84096 -1.0893 0
M  V30 6865 N 634.105 1.10431 1.1244 0
M  V30 6866 C 635.353 0.845045 1.83585 0
M  V30 6867 C 635.674 -0.631168 1.84503 0
M  V30 6868 O 634.944 -1.45825 1.30813 0
M  V30 6869 H 633.524 0.309628 0.679809 0
M  V30 6870 H 636.186 1.39458 1.36153 0
M  V30 6871 H 635.282 1.20786 2.8778 0
M  V30 6872 N 635.583 -1.29855 0.893053 0
M  V30 6873 C 636.831 -1.9544 0.514566 0
M  V30 6874 C 637.152 -1.70795 -0.940959 0
M  V30 6875 O 636.422 -1.03601 -1.66264 0
M  V30 6876 H 635.002 -0.723137 0.187302 0
M  V30 6877 H 637.664 -1.58234 1.13789 0
M  V30 6878 H 636.76 -3.04341 0.691581 0
M  V30 6879 N 637.061 -0.65484 -1.43351 0
M  V30 6880 C 638.009 0.0476784 -2.32551 0
M  V30 6881 C 639.003 0.811403 -1.48703 0
M  V30 6882 O 640.209 0.721621 -1.64902 0
M  V30 6883 H 636.584 0.0342038 -0.751222 0
M  V30 6884 H 638.555 -0.722342 -2.89525 0
M  V30 6885 C 637.304 0.999251 -3.33032 0
M  V30 6886 H 636.627 0.421005 -3.97577 0
M  V30 6887 H 638.067 1.45986 -3.98076 0
M  V30 6888 C 636.526 2.09606 -2.63756 0
M  V30 6889 O 637.056 3.18004 -2.4543 0
M  V30 6890 N 635.262 1.86207 -2.23103 0
M  V30 6891 H 634.809 0.980555 -2.38208 0
M  V30 6892 H 634.767 2.59787 -1.77081 0
M  V30 6893 N 638.539 1.52521 -0.396863 0
M  V30 6894 C 639.449 2.30403 0.44178 0
M  V30 6895 C 640.465 1.37625 1.06468 0
M  V30 6896 O 641.641 1.70697 1.06886 0
M  V30 6897 C 638.706 3.1013 1.54986 0
M  V30 6898 C 637.767 4.18628 0.951279 0
M  V30 6899 C 637 4.94543 2.00655 0
M  V30 6900 O 637.223 4.70629 3.22281 0
M  V30 6901 O 636.157 5.797 1.61962 0
M  V30 6902 H 639.983 3.03087 -0.192892 0
M  V30 6903 H 637.568 1.48537 -0.16038 0
M  V30 6904 H 639.45 3.59816 2.19341 0
M  V30 6905 H 638.125 2.40251 2.16935 0
M  V30 6906 H 637.032 3.73119 0.270773 0
M  V30 6907 H 638.365 4.90763 0.375887 0
M  V30 6908 N 640.017 0.126909 1.57088 0
M  V30 6909 C 640.98 -0.806097 2.14557 0
M  V30 6910 C 641.98 -1.18918 1.08236 0
M  V30 6911 O 643.17 -1.11339 1.33975 0
M  V30 6912 C 640.302 -2.09116 2.69227 0
M  V30 6913 H 641.495 -0.306522 2.98329 0
M  V30 6914 H 639.048 -0.122393 1.5582 0
M  V30 6915 H 639.783 -2.63486 1.89065 0
M  V30 6916 H 639.568 -1.82588 3.46993 0
M  V30 6917 H 641.058 -2.75794 3.13572 0
M  V30 6918 N 641.495 -1.56914 -0.146875 0
M  V30 6919 C 642.442 -1.98275 -1.18134 0
M  V30 6920 C 643.412 -0.850367 -1.42681 0
M  V30 6921 O 644.597 -1.11244 -1.55014 0
M  V30 6922 C 641.737 -2.36861 -2.5098 0
M  V30 6923 C 640.85 -3.63391 -2.33605 0
M  V30 6924 C 639.985 -3.91079 -3.59486 0
M  V30 6925 C 639.024 -5.10879 -3.37149 0
M  V30 6926 N 638.161 -5.34577 -4.55161 0
M  V30 6927 H 643.001 -2.8645 -0.821622 0
M  V30 6928 H 640.538 -1.41718 -0.394248 0
M  V30 6929 H 642.496 -2.57262 -3.28439 0
M  V30 6930 H 641.126 -1.51766 -2.84898 0
M  V30 6931 H 640.178 -3.50766 -1.47199 0
M  V30 6932 H 641.49 -4.51007 -2.13059 0
M  V30 6933 H 640.644 -4.11979 -4.45374 0
M  V30 6934 H 639.383 -3.01885 -3.83036 0
M  V30 6935 H 638.388 -4.89853 -2.49649 0
M  V30 6936 H 639.613 -6.01626 -3.14997 0
M  V30 6937 H 637.559 -4.48337 -4.78884 0
M  V30 6938 H 637.476 -6.16463 -4.37618 0
M  V30 6939 H 638.744 -5.59975 -5.42263 0
M  V30 6940 N 642.974 0.416227 -1.52004 0
M  V30 6941 C 644.221 1.16383 -1.65714 0
M  V30 6942 C 644.549 1.9068 -0.383594 0
M  V30 6943 O 643.804 1.85174 0.633185 0
M  V30 6944 C 644.103 2.18923 -2.82502 0
M  V30 6945 C 643.769 1.61485 -4.20991 0
M  V30 6946 C 642.431 1.45545 -4.58661 0
M  V30 6947 C 644.783 1.19468 -5.07323 0
M  V30 6948 C 642.111 0.860937 -5.80349 0
M  V30 6949 C 644.463 0.614386 -6.29609 0
M  V30 6950 C 643.127 0.442056 -6.66035 0
M  V30 6951 H 642.397 0.425875 -0.606392 0
M  V30 6952 H 645.044 0.45199 -1.8609 0
M  V30 6953 H 643.349 2.96225 -2.56433 0
M  V30 6954 H 645.046 2.76628 -2.90307 0
M  V30 6955 H 641.636 1.74873 -3.91302 0
M  V30 6956 H 645.82 1.30596 -4.78809 0
M  V30 6957 H 641.076 0.715372 -6.072 0
M  V30 6958 H 645.25 0.280393 -6.95835 0
M  V30 6959 H 642.877 -0.0207218 -7.60197 0
M  V30 6960 N 644.452 1.42507 0.673017 0
M  V30 6961 C 645.868 1.25472 0.986355 0
M  V30 6962 C 646.068 0.160181 2.00862 0
M  V30 6963 O 645.124 -0.467993 2.48125 0
M  V30 6964 C 646.437 2.61219 1.48947 0
M  V30 6965 C 647.985 2.68589 1.60715 0
M  V30 6966 C 648.46 4.04707 2.14422 0
M  V30 6967 N 649.951 4.0667 2.21752 0
M  V30 6968 C 650.686 5.0881 2.64386 0
M  V30 6969 N 650.182 6.21332 3.0646 0
M  V30 6970 N 651.975 4.96166 2.64151 0
M  V30 6971 H 644.126 2.124 -0.00378532 0
M  V30 6972 H 646.389 0.946046 0.0608367 0
M  V30 6973 H 646.095 3.42179 0.812812 0
M  V30 6974 H 645.969 2.85261 2.46791 0
M  V30 6975 H 648.356 1.87974 2.27486 0
M  V30 6976 H 648.437 2.48333 0.613552 0
M  V30 6977 H 648.081 4.8578 1.48258 0
M  V30 6978 H 648.011 4.22315 3.14575 0
M  V30 6979 H 650.502 3.25438 1.92089 0
M  V30 6980 H 650.815 6.95118 3.37684 0
M  V30 6981 H 649.16 6.24835 3.04313 0
M  V30 6982 H 652.351 4.07334 2.30644 0
M  V30 6983 H 652.524 5.759 2.97057 0
M  V30 6984 N 645.93 -0.909495 1.28709 0
M  V30 6985 C 646.86 -2.0291 1.15542 0
M  V30 6986 C 647.841 -1.7002 0.0521017 0
M  V30 6987 O 649.026 -1.92835 0.229849 0
M  V30 6988 C 646.156 -3.37458 0.820935 0
M  V30 6989 C 645.11 -3.84524 1.87949 0
M  V30 6990 C 644.436 -5.16086 1.39854 0
M  V30 6991 C 645.736 -4.05918 3.28676 0
M  V30 6992 H 647.43 -2.14183 2.09203 0
M  V30 6993 H 644.976 -1.02913 1.00722 0
M  V30 6994 H 646.929 -4.1528 0.715571 0
M  V30 6995 H 645.653 -3.26249 -0.151374 0
M  V30 6996 H 644.312 -3.08911 1.97408 0
M  V30 6997 H 643.96 -5.01284 0.41518 0
M  V30 6998 H 643.66 -5.48547 2.1064 0
M  V30 6999 H 645.184 -5.96459 1.30649 0
M  V30 7000 H 646.598 -4.74252 3.22115 0
M  V30 7001 H 644.995 -4.49717 3.97334 0
M  V30 7002 H 646.065 -3.10583 3.72379 0
M  V30 7003 N 647.408 -1.11026 -1.11852 0
M  V30 7004 C 648.371 -0.768006 -2.1595 0
M  V30 7005 C 649.371 0.210538 -1.59416 0
M  V30 7006 O 650.561 -0.0133978 -1.74195 0
M  V30 7007 C 647.693 -0.138678 -3.40618 0
M  V30 7008 H 648.886 -1.69012 -2.4774 0
M  V30 7009 H 646.439 -0.911578 -1.26964 0
M  V30 7010 H 647.174 0.793872 -3.14433 0
M  V30 7011 H 646.959 -0.843012 -3.8293 0
M  V30 7012 H 648.449 0.0848039 -4.17514 0
M  V30 7013 N 648.886 1.2938 -0.899927 0
M  V30 7014 C 650.132 1.9584 -0.526742 0
M  V30 7015 C 650.465 1.70774 0.924651 0
M  V30 7016 O 649.74 1.02084 1.65557 0
M  V30 7017 C 650.023 3.50638 -0.820062 0
M  V30 7018 C 649.876 3.85161 -2.32317 0
M  V30 7019 C 651.195 4.3903 -0.30671 0
M  V30 7020 H 648.314 0.711322 -0.192848 0
M  V30 7021 H 650.956 1.52992 -1.12665 0
M  V30 7022 H 649.106 3.87265 -0.309491 0
M  V30 7023 H 650.778 3.58477 -2.9033 0
M  V30 7024 H 649.021 3.32696 -2.78381 0
M  V30 7025 H 649.692 4.93204 -2.47898 0
M  V30 7026 H 652.168 4.09396 -0.743908 0
M  V30 7027 H 651.044 5.46226 -0.541144 0
M  V30 7028 H 651.305 4.34937 0.792588 0
M  V30 7029 N 650.364 0.662433 1.43002 0
M  V30 7030 C 651.294 -0.00979809 2.33498 0
M  V30 7031 C 652.275 -0.802329 1.49989 0
M  V30 7032 O 653.46 -0.761964 1.78627 0
M  V30 7033 C 650.59 -0.970446 3.33466 0
M  V30 7034 C 649.544 -0.287383 4.27034 0
M  V30 7035 C 648.87 -1.36012 5.17112 0
M  V30 7036 C 650.17 0.82595 5.15728 0
M  V30 7037 H 651.864 0.745959 2.89958 0
M  V30 7038 H 649.41 0.360172 1.39423 0
M  V30 7039 H 651.363 -1.44971 3.95679 0
M  V30 7040 H 650.087 -1.75748 2.75282 0
M  V30 7041 H 648.746 0.17152 3.66199 0
M  V30 7042 H 648.394 -2.13882 4.55262 0
M  V30 7043 H 648.094 -0.908276 5.80538 0
M  V30 7044 H 649.618 -1.84056 5.82199 0
M  V30 7045 H 651.032 0.42845 5.71697 0
M  V30 7046 H 649.429 1.20282 5.87922 0
M  V30 7047 H 650.499 1.68003 4.54866 0
M  V30 7048 N 651.842 -1.52309 0.404946 0
M  V30 7049 C 653.089 -2.01767 -0.1722 0
M  V30 7050 C 653.417 -1.29075 -1.45498 0
M  V30 7051 O 652.672 -0.3843 -1.9189 0
M  V30 7052 C 652.971 -3.54284 -0.470895 0
M  V30 7053 C 652.637 -4.45079 0.722194 0
M  V30 7054 C 651.299 -4.69617 1.04946 0
M  V30 7055 C 653.651 -4.98555 1.51962 0
M  V30 7056 C 650.979 -5.44878 2.17543 0
M  V30 7057 C 653.331 -5.75049 2.63632 0
M  V30 7058 C 651.995 -5.9786 2.9685 0
M  V30 7059 H 651.265 -0.738316 -0.0630125 0
M  V30 7060 H 653.912 -1.83566 0.545506 0
M  V30 7061 H 652.217 -3.70642 -1.27012 0
M  V30 7062 H 653.914 -3.90058 -0.930346 0
M  V30 7063 H 650.504 -4.26155 0.457131 0
M  V30 7064 H 654.688 -4.79509 1.28002 0
M  V30 7065 H 649.944 -5.60762 2.43631 0
M  V30 7066 H 654.118 -6.15483 3.25813 0
M  V30 7067 H 651.745 -6.5596 3.84215 0
M  V30 7068 N 653.32 -0.135238 -1.57019 0
M  V30 7069 C 654.252 0.839675 -2.13265 0
M  V30 7070 C 655.265 1.21887 -1.07923 0
M  V30 7071 O 656.454 1.16499 -1.35241 0
M  V30 7072 C 653.554 2.13647 -2.63075 0
M  V30 7073 C 652.727 1.92646 -3.92691 0
M  V30 7074 C 651.786 3.06205 -4.27931 0
M  V30 7075 O 650.812 2.78409 -4.96465 0
M  V30 7076 N 652.014 4.33072 -3.86561 0
M  V30 7077 H 654.779 0.359026 -2.97542 0
M  V30 7078 H 652.34 0.0486979 -1.61827 0
M  V30 7079 H 654.332 2.88641 -2.8367 0
M  V30 7080 H 652.902 2.5301 -1.83588 0
M  V30 7081 H 652.122 1.01754 -3.80841 0
M  V30 7082 H 653.41 1.75939 -4.77413 0
M  V30 7083 H 652.808 4.58526 -3.31316 0
M  V30 7084 H 651.365 5.04885 -4.12231 0
M  V30 7085 N 654.798 1.5699 0.138552 0
M  V30 7086 C 655.731 1.94064 1.2006 0
M  V30 7087 C 656.709 0.807601 1.41126 0
M  V30 7088 O 657.893 1.06399 1.556 0
M  V30 7089 C 655.02 2.21999 2.55801 0
M  V30 7090 C 654.066 3.44617 2.5128 0
M  V30 7091 S 654.899 4.97888 1.97149 0
M  V30 7092 C 656.055 5.28954 3.34602 0
M  V30 7093 H 656.288 2.83843 0.884337 0
M  V30 7094 H 653.821 1.50507 0.344517 0
M  V30 7095 H 655.779 2.38772 3.33914 0
M  V30 7096 H 654.44 1.32869 2.84613 0
M  V30 7097 H 653.633 3.61466 3.51224 0
M  V30 7098 H 653.235 3.27129 1.8128 0
M  V30 7099 H 655.527 5.22938 4.30745 0
M  V30 7100 H 656.47 6.30346 3.22598 0
M  V30 7101 H 656.878 4.56455 3.32128 0
M  V30 7102 N 656.276 -0.40816 1.52223 0
M  V30 7103 C 657.504 -1.17672 1.70179 0
M  V30 7104 C 657.919 -1.84257 0.411696 0
M  V30 7105 O 657.276 -1.7192 -0.612354 0
M  V30 7106 C 657.327 -2.23911 2.83806 0
M  V30 7107 O 657.048 -1.60044 4.0782 0
M  V30 7108 C 658.549 -3.1364 3.13281 0
M  V30 7109 H 655.769 -0.353562 0.570293 0
M  V30 7110 H 658.313 -0.480083 1.98785 0
M  V30 7111 H 656.468 -2.89242 2.57717 0
M  V30 7112 H 656.882 -2.30484 4.71145 0
M  V30 7113 H 658.356 -3.84255 3.96298 0
M  V30 7114 H 658.833 -3.76066 2.26872 0
M  V30 7115 H 659.439 -2.53977 3.41139 0
M  V30 7116 N 657.755 -1.42862 -0.66545 0
M  V30 7117 C 658.985 -1.47032 -1.45138 0
M  V30 7118 C 659.393 -0.0829977 -1.89018 0
M  V30 7119 O 658.736 0.914551 -1.59316 0
M  V30 7120 C 658.798 -2.34302 -2.72659 0
M  V30 7121 C 658.462 -3.82034 -2.50796 0
M  V30 7122 C 659.459 -4.73453 -2.14799 0
M  V30 7123 C 657.144 -4.26397 -2.655 0
M  V30 7124 C 659.138 -6.07228 -1.93785 0
M  V30 7125 C 656.825 -5.6023 -2.44103 0
M  V30 7126 C 657.823 -6.50462 -2.08299 0
M  V30 7127 O 657.511 -7.8182 -1.87116 0
M  V30 7128 H 657.243 -0.501969 -0.452772 0
M  V30 7129 H 659.797 -1.88137 -0.82423 0
M  V30 7130 H 658.027 -1.88063 -3.37889 0
M  V30 7131 H 659.716 -2.29818 -3.34572 0
M  V30 7132 H 660.482 -4.4046 -2.03026 0
M  V30 7133 H 656.361 -3.56448 -2.92345 0
M  V30 7134 H 659.905 -6.7762 -1.65763 0
M  V30 7135 H 655.802 -5.92793 -2.55475 0
M  V30 7136 H 656.57 -7.93274 -2.01639 0
M  V30 7137 N 659.233 0.902656 -1.29189 0
M  V30 7138 C 660.163 2.02294 -1.16616 0
M  V30 7139 C 661.144 1.6999 -0.0611175 0
M  V30 7140 O 662.329 1.9271 -0.240072 0
M  V30 7141 C 659.459 3.37018 -0.83882 0
M  V30 7142 C 658.413 3.83522 -1.89986 0
M  V30 7143 C 657.739 5.15337 -1.42589 0
M  V30 7144 C 659.039 4.04169 -3.30824 0
M  V30 7145 H 660.733 2.13071 -2.10336 0
M  V30 7146 H 658.279 1.02378 -1.01266 0
M  V30 7147 H 660.232 4.14895 -0.737584 0
M  V30 7148 H 658.956 3.26325 0.134071 0
M  V30 7149 H 657.615 3.07859 -1.99043 0
M  V30 7150 H 657.263 5.01056 -0.441759 0
M  V30 7151 H 656.963 5.47423 -2.13547 0
M  V30 7152 H 658.487 5.95758 -1.3381 0
M  V30 7153 H 659.901 4.72537 -3.24626 0
M  V30 7154 H 658.298 4.47604 -3.99713 0
M  V30 7155 H 659.368 3.08604 -3.74021 0
M  V30 7156 N 660.711 1.11618 1.11262 0
M  V30 7157 C 661.959 0.864469 1.82678 0
M  V30 7158 C 662.28 -0.611564 1.85162 0
M  V30 7159 O 661.55 -1.44429 1.32352 0
M  V30 7160 H 660.13 0.316821 0.676486 0
M  V30 7161 H 662.792 1.40894 1.34666 0
M  V30 7162 H 661.888 1.23832 2.86482 0
M  V30 7163 N 662.189 -1.289 0.906776 0
M  V30 7164 C 663.417 -1.99401 0.551969 0
M  V30 7165 C 663.832 -1.67816 -0.865048 0
M  V30 7166 O 663.189 -0.927078 -1.57199 0
M  V30 7167 C 663.24 -3.53779 0.743152 0
M  V30 7168 O 662.961 -3.84248 2.1044 0
M  V30 7169 C 664.462 -4.41543 0.39424 0
M  V30 7170 H 661.682 -0.636926 0.211106 0
M  V30 7171 H 664.226 -1.64266 1.21807 0
M  V30 7172 H 662.381 -3.87201 0.124143 0
M  V30 7173 H 662.795 -4.78904 2.13895 0
M  V30 7174 H 664.269 -5.48957 0.578814 0
M  V30 7175 H 664.746 -4.34073 -0.669137 0
M  V30 7176 H 665.352 -4.13605 0.990491 0
M  V30 7177 N 663.667 -0.670007 -1.42649 0
M  V30 7178 C 665.078 -0.268118 -1.84765 0
M  V30 7179 C 665.429 1.18877 -1.56086 0
M  V30 7180 O 664.554 1.90947 -1.01825 0
M  V30 7181 C 665.149 -0.47984 -3.35385 0
M  V30 7182 C 663.708 -0.132116 -3.76168 0
M  V30 7183 C 662.855 -0.774611 -2.66261 0
M  V30 7184 H 665.806 -0.872509 -1.32563 0
M  V30 7185 H 665.827 0.269522 -3.79544 0
M  V30 7186 H 665.339 -1.54026 -3.56227 0
M  V30 7187 H 663.44 0.92505 -3.60934 0
M  V30 7188 H 663.553 -0.569294 -4.75706 0
M  V30 7189 H 661.917 -0.206353 -2.53863 0
M  V30 7190 H 662.7 -1.83839 -2.89928 0
M  V30 7191 N 665.145 1.52092 -0.413018 0
M  V30 7192 C 666.075 2.30021 0.401567 0
M  V30 7193 C 667.056 1.34395 1.04269 0
M  V30 7194 O 668.241 1.63304 1.05097 0
M  V30 7195 C 665.371 3.12447 1.51638 0
M  V30 7196 C 664.325 4.16153 1.00005 0
M  V30 7197 C 663.651 4.86948 2.20875 0
M  V30 7198 C 664.951 5.22275 0.0513757 0
M  V30 7199 H 666.645 2.98365 -0.248704 0
M  V30 7200 H 664.191 1.4349 -0.121052 0
M  V30 7201 H 666.144 3.65733 2.09326 0
M  V30 7202 H 664.868 2.41879 2.19458 0
M  V30 7203 H 663.527 3.63882 0.445549 0
M  V30 7204 H 663.175 4.12905 2.8726 0
M  V30 7205 H 662.875 5.57057 1.86978 0
M  V30 7206 H 664.399 5.43048 2.79162 0
M  V30 7207 H 665.813 5.70778 0.537176 0
M  V30 7208 H 664.21 5.9977 -0.198977 0
M  V30 7209 H 665.28 4.76611 -0.892736 0
M  V30 7210 N 666.623 0.143563 1.56945 0
M  V30 7211 C 667.872 -0.50835 1.95189 0
M  V30 7212 C 668.185 -1.66239 1.03073 0
M  V30 7213 O 669.391 -2.3787 1.30882 0
M  V30 7214 C 667.847 -0.955735 3.46978 0
M  V30 7215 C 667.455 0.171183 4.47673 0
M  V30 7216 C 669.199 -1.57763 3.94095 0
M  V30 7217 C 667.106 -0.294279 5.90667 0
M  V30 7218 H 666.036 -0.193679 0.728701 0
M  V30 7219 H 668.687 0.227357 1.82086 0
M  V30 7220 H 667.069 -1.7466 3.55401 0
M  V30 7221 H 668.243 0.948049 4.50942 0
M  V30 7222 H 666.558 0.701273 4.10452 0
M  V30 7223 H 669.155 -1.93745 4.98364 0
M  V30 7224 H 669.498 -2.46531 3.35452 0
M  V30 7225 H 670.031 -0.851728 3.88575 0
M  V30 7226 H 666.77 0.557939 6.53121 0
M  V30 7227 H 666.29 -1.0371 5.90766 0
M  V30 7228 H 667.969 -0.747426 6.42668 0
M  V30 7229 N 668.101 -1.57061 -0.130224 0
M  V30 7230 C 669.331 -1.88159 -0.853217 0
M  V30 7231 C 669.739 -0.731675 -1.7448 0
M  V30 7232 O 669.082 0.307035 -1.81116 0
M  V30 7233 C 669.144 -3.1415 -1.74785 0
M  V30 7234 C 668.808 -4.45202 -1.03173 0
M  V30 7235 C 669.805 -5.18526 -0.377759 0
M  V30 7236 C 667.49 -4.91912 -1.01624 0
M  V30 7237 C 669.484 -6.36775 0.282123 0
M  V30 7238 C 667.171 -6.10082 -0.352555 0
M  V30 7239 C 668.169 -6.82361 0.295483 0
M  V30 7240 O 667.857 -7.98284 0.948606 0
M  V30 7241 H 667.589 -0.627596 -0.251197 0
M  V30 7242 H 670.143 -2.05034 -0.1226 0
M  V30 7243 H 668.373 -2.93328 -2.51983 0
M  V30 7244 H 670.062 -3.31359 -2.34427 0
M  V30 7245 H 670.828 -4.83498 -0.381417 0
M  V30 7246 H 666.707 -4.35566 -1.51007 0
M  V30 7247 H 670.251 -6.93129 0.788525 0
M  V30 7248 H 666.148 -6.44569 -0.346621 0
M  V30 7249 H 666.916 -8.14054 0.851954 0
M  V30 7250 N 669.579 0.400081 -1.52437 0
M  V30 7251 C 670.809 1.16598 -1.70553 0
M  V30 7252 C 671.217 1.8451 -0.418665 0
M  V30 7253 O 670.56 1.73069 0.615855 0
M  V30 7254 C 670.622 2.26517 -2.7916 0
M  V30 7255 C 670.286 1.78666 -4.20628 0
M  V30 7256 C 671.283 1.26946 -5.04163 0
M  V30 7257 C 668.968 1.85225 -4.66902 0
M  V30 7258 C 670.962 0.824187 -6.32049 0
M  V30 7259 C 668.649 1.40309 -5.94774 0
M  V30 7260 C 669.647 0.889922 -6.77178 0
M  V30 7261 O 669.335 0.447281 -8.02655 0
M  V30 7262 H 669.067 0.356023 -0.574651 0
M  V30 7263 H 671.621 0.475598 -1.99818 0
M  V30 7264 H 669.851 2.98946 -2.45292 0
M  V30 7265 H 671.54 2.88237 -2.85787 0
M  V30 7266 H 672.306 1.21244 -4.69601 0
M  V30 7267 H 668.185 2.24111 -4.02859 0
M  V30 7268 H 671.729 0.422958 -6.96317 0
M  V30 7269 H 667.626 1.45693 -6.28843 0
M  V30 7270 H 668.394 0.569768 -8.16514 0
M  V30 7271 N 671.057 1.43213 0.657864 0
M  V30 7272 C 672.305 1.44298 1.41501 0
M  V30 7273 C 672.626 0.0666478 1.94886 0
M  V30 7274 O 671.896 -0.897345 1.74139 0
M  V30 7275 H 670.476 0.531257 0.525143 0
M  V30 7276 H 673.138 1.78777 0.776195 0
M  V30 7277 H 672.234 2.1528 2.25966 0
M  V30 7278 N 672.536 -0.895792 1.29666 0
M  V30 7279 C 673.813 -1.62723 1.08538 0
M  V30 7280 C 674.193 -2.07848 -0.369119 0
M  V30 7281 O 673.541 -1.8372 -1.35864 0
M  V30 7282 C 673.751 -2.80505 2.07648 0
M  V30 7283 C 675.099 -3.51098 2.3878 0
M  V30 7284 O 676.123 -2.90679 2.05874 0
M  V30 7285 O 674.982 -4.60028 2.9502 0
M  V30 7286 H 672.076 -0.714692 0.416106 0
M  V30 7287 H 674.622 -0.943517 1.41053 0
M  V30 7288 H 673.394 -2.44386 3.05599 0
M  V30 7289 H 673.017 -3.5658 1.75887 0
M  V30 7290 N 674.014 -1.12206 -1.10668 0
M  V30 7291 C 674.924 -0.800686 -2.20513 0
M  V30 7292 C 675.94 0.209512 -1.72734 0
M  V30 7293 O 677.116 0.043705 -2.01353 0
M  V30 7294 C 674.181 -0.257353 -3.45744 0
M  V30 7295 C 673.242 -1.32718 -4.0827 0
M  V30 7296 C 672.475 -0.809674 -5.27522 0
M  V30 7297 O 672.698 0.35742 -5.69279 0
M  V30 7298 O 671.632 -1.57816 -5.80842 0
M  V30 7299 H 675.458 -1.71807 -2.50432 0
M  V30 7300 H 673.043 -0.898546 -1.19359 0
M  V30 7301 H 674.925 0.0408849 -4.2138 0
M  V30 7302 H 673.6 0.632627 -3.17458 0
M  V30 7303 H 672.507 -1.67855 -3.34329 0
M  V30 7304 H 673.84 -2.19083 -4.40753 0
M  V30 7305 N 675.492 1.28418 -0.913599 0
M  V30 7306 C 676.741 1.94265 -0.542572 0
M  V30 7307 C 677.054 1.72709 0.918207 0
M  V30 7308 O 678.26 2.32778 1.39738 0
M  V30 7309 C 676.716 3.47956 -0.919507 0
M  V30 7310 C 676.324 3.78291 -2.4 0
M  V30 7311 C 678.068 4.19962 -0.619057 0
M  V30 7312 C 675.975 5.2529 -2.71707 0
M  V30 7313 H 674.905 0.727213 -0.199192 0
M  V30 7314 H 677.556 1.45931 -1.11249 0
M  V30 7315 H 675.938 3.9502 -0.278372 0
M  V30 7316 H 677.112 3.42035 -3.08786 0
M  V30 7317 H 675.427 3.19456 -2.67089 0
M  V30 7318 H 678.024 5.28178 -0.832623 0
M  V30 7319 H 678.367 4.13935 0.443126 0
M  V30 7320 H 678.9 3.78674 -1.21865 0
M  V30 7321 H 675.639 5.36394 -3.76778 0
M  V30 7322 H 675.159 5.62743 -2.07559 0
M  V30 7323 H 676.838 5.93027 -2.58703 0
M  V30 7324 N 676.97 0.677563 1.42291 0
M  V30 7325 C 678.218 0.200578 2.01102 0
M  V30 7326 C 678.539 -1.19803 1.53858 0
M  V30 7327 O 677.809 -1.80496 0.761439 0
M  V30 7328 H 676.389 0.0711634 0.743603 0
M  V30 7329 H 679.051 0.874691 1.7417 0
M  V30 7330 H 678.147 0.204 3.11433 0
M  V30 7331 N 678.448 -1.51871 0.421078 0
M  V30 7332 C 679.381 -2.23851 -0.443369 0
M  V30 7333 C 680.359 -1.25142 -1.03818 0
M  V30 7334 O 681.543 -1.5423 -1.08377 0
M  V30 7335 C 678.67 -2.97637 -1.61648 0
M  V30 7336 C 677.716 -4.10873 -1.14391 0
M  V30 7337 S 678.549 -5.35408 -0.0992403 0
M  V30 7338 C 679.705 -6.12726 -1.27739 0
M  V30 7339 H 679.938 -2.96826 0.167786 0
M  V30 7340 H 677.471 -1.53027 0.205461 0
M  V30 7341 H 679.429 -3.40751 -2.28909 0
M  V30 7342 H 678.09 -2.24282 -2.199 0
M  V30 7343 H 677.283 -4.61718 -2.02069 0
M  V30 7344 H 676.885 -3.69937 -0.549775 0
M  V30 7345 H 679.177 -6.40827 -2.19881 0
M  V30 7346 H 680.12 -7.03461 -0.809239 0
M  V30 7347 H 680.528 -5.43968 -1.5086 0
M  V30 7348 N 679.926 -0.151884 -1.56866 0
M  V30 7349 C 680.889 0.771861 -2.15812 0
M  V30 7350 C 681.889 1.17181 -1.10115 0
M  V30 7351 O 683.079 1.09194 -1.35729 0
M  V30 7352 C 680.211 2.04806 -2.7252 0
M  V30 7353 H 681.404 0.259021 -2.98779 0
M  V30 7354 H 678.957 0.097588 -1.55995 0
M  V30 7355 H 679.692 2.60445 -1.93233 0
M  V30 7356 H 679.477 1.77044 -3.49854 0
M  V30 7357 H 680.967 2.70771 -3.1792 0
M  V30 7358 N 681.404 1.57128 0.121893 0
M  V30 7359 C 682.652 1.84335 0.828548 0
M  V30 7360 C 682.973 0.736632 1.80551 0
M  V30 7361 O 682.243 -0.23962 1.94429 0
M  V30 7362 H 680.823 0.680108 0.30897 0
M  V30 7363 H 683.485 1.9459 0.109906 0
M  V30 7364 H 682.581 2.80152 1.37554 0
M  V30 7365 N 682.882 -0.391992 1.52647 0
M  V30 7366 C 683.845 -1.46135 1.7657 0
M  V30 7367 C 684.845 -1.47701 0.635698 0
M  V30 7368 O 686.035 -1.48924 0.903728 0
M  V30 7369 C 683.167 -2.85443 1.86374 0
M  V30 7370 H 684.36 -1.26208 2.72051 0
M  V30 7371 H 681.913 -0.623549 1.43323 0
M  V30 7372 H 682.648 -3.10718 0.928685 0
M  V30 7373 H 682.433 -2.85708 2.68539 0
M  V30 7374 H 683.923 -3.62933 2.06566 0
M  V30 7375 N 684.36 -1.4356 -0.65026 0
M  V30 7376 C 685.588 -1.48779 -1.43779 0
M  V30 7377 C 686.003 -0.106593 -1.88499 0
M  V30 7378 O 685.36 0.883766 -1.59674 0
M  V30 7379 C 685.411 -2.43618 -2.67081 0
M  V30 7380 O 685.132 -3.76367 -2.24231 0
M  V30 7381 C 686.633 -2.5811 -3.60409 0
M  V30 7382 H 683.853 -0.50521 -0.441593 0
M  V30 7383 H 686.397 -1.88332 -0.796941 0
M  V30 7384 H 684.552 -2.07253 -3.273 0
M  V30 7385 H 684.966 -4.27394 -3.0403 0
M  V30 7386 H 686.44 -3.28539 -4.43583 0
M  V30 7387 H 686.917 -1.627 -4.07953 0
M  V30 7388 H 687.523 -2.95298 -3.0607 0
M  V30 7389 N 685.838 0.888903 -1.30139 0
M  V30 7390 C 687.115 1.62145 -1.094 0
M  V30 7391 C 687.495 2.08041 0.358091 0
M  V30 7392 O 686.843 1.84438 1.34888 0
M  V30 7393 C 687.053 2.794 -2.09133 0
M  V30 7394 C 688.401 3.49826 -2.40638 0
M  V30 7395 O 689.425 2.89583 -2.07412 0
M  V30 7396 O 688.284 4.58457 -2.97455 0
M  V30 7397 H 685.378 0.712475 -0.41989 0
M  V30 7398 H 687.924 0.936023 -1.41551 0
M  V30 7399 H 686.696 2.42762 -3.06891 0
M  V30 7400 H 686.319 3.55643 -1.77776 0
M  V30 7401 N 687.317 1.12792 1.10072 0
M  V30 7402 C 688.728 0.899346 1.63611 0
M  V30 7403 C 689.079 -0.565547 1.87872 0
M  V30 7404 O 688.204 -1.43081 1.62348 0
M  V30 7405 C 688.799 1.62608 2.97227 0
M  V30 7406 C 687.358 1.44356 3.47618 0
M  V30 7407 C 686.505 1.65958 2.22156 0
M  V30 7408 H 689.456 1.28216 0.935223 0
M  V30 7409 H 689.477 1.0793 3.64872 0
M  V30 7410 H 688.989 2.69221 2.79538 0
M  V30 7411 H 687.09 0.400148 3.70445 0
M  V30 7412 H 687.203 2.20218 4.25489 0
M  V30 7413 H 685.567 1.08395 2.30484 0
M  V30 7414 H 686.35 2.73877 2.06993 0
M  V30 7415 N 688.795 -1.27931 0.920396 0
M  V30 7416 C 690.072 -1.89728 0.475687 0
M  V30 7417 C 690.452 -1.8337 -1.04588 0
M  V30 7418 O 689.8 -1.27404 -1.89685 0
M  V30 7419 C 690.01 -3.33959 1.01354 0
M  V30 7420 C 691.358 -4.10907 1.06963 0
M  V30 7421 O 692.382 -3.42945 0.962646 0
M  V30 7422 O 691.241 -5.32399 1.23343 0
M  V30 7423 H 688.335 -0.81294 0.151845 0
M  V30 7424 H 690.881 -1.36252 1.01161 0
M  V30 7425 H 689.653 -3.32843 2.05746 0
M  V30 7426 H 689.276 -3.94944 0.458829 0
M  V30 7427 N 690.273 -0.685099 -1.4193 0
M  V30 7428 C 691.513 -0.215676 -2.03259 0
M  V30 7429 C 691.877 1.15934 -1.53047 0
M  V30 7430 O 693.078 1.72401 -2.06231 0
M  V30 7431 C 691.349 -0.259649 -3.56456 0
M  V30 7432 S 692.908 0.137262 -4.38585 0
M  V30 7433 H 689.726 -0.0877362 -0.705566 0
M  V30 7434 H 692.328 -0.900547 -1.73523 0
M  V30 7435 H 691.032 -1.26256 -3.90497 0
M  V30 7436 H 690.563 0.444716 -3.90878 0
M  V30 7437 H 692.578 1.36787 -4.76973 0
M  V30 7438 N 691.751 1.51645 -0.429126 0
M  V30 7439 C 693.167 1.59394 -0.080994 0
M  V30 7440 C 693.367 1.44064 1.40882 0
M  V30 7441 O 692.423 1.27771 2.17786 0
M  V30 7442 C 693.736 2.94779 -0.593773 0
M  V30 7443 C 695.284 3.08067 -0.553494 0
M  V30 7444 C 695.759 4.45963 -1.04311 0
M  V30 7445 N 697.25 4.5226 -1.00076 0
M  V30 7446 C 697.985 5.57268 -1.35056 0
M  V30 7447 N 697.481 6.69734 -1.77282 0
M  V30 7448 N 699.274 5.47582 -1.26925 0
M  V30 7449 H 691.425 1.59856 -1.39857 0
M  V30 7450 H 693.688 0.753095 -0.575805 0
M  V30 7451 H 693.394 3.11342 -1.63583 0
M  V30 7452 H 693.268 3.77197 -0.0142202 0
M  V30 7453 H 695.655 2.91177 0.479556 0
M  V30 7454 H 695.736 2.27508 -1.16935 0
M  V30 7455 H 695.38 4.63598 -2.07459 0
M  V30 7456 H 695.31 5.25049 -0.403873 0
M  V30 7457 H 697.801 3.71537 -0.690564 0
M  V30 7458 H 698.114 7.4587 -2.02232 0
M  V30 7459 H 696.459 6.70963 -1.81202 0
M  V30 7460 H 699.65 4.58604 -0.93809 0
M  V30 7461 H 699.823 6.29308 -1.54516 0
M  V30 7462 N 693.229 0.160201 1.56784 0
M  V30 7463 C 694.645 -0.196089 1.58391 0
M  V30 7464 C 694.845 -1.63689 1.17508 0
M  V30 7465 O 693.901 -2.36613 0.881506 0
M  V30 7466 C 695.214 0.0746449 3.00607 0
M  V30 7467 C 696.762 0.0119762 3.12998 0
M  V30 7468 C 697.237 0.255551 4.57286 0
M  V30 7469 N 698.728 0.202938 4.62755 0
M  V30 7470 C 699.463 0.365731 5.72232 0
M  V30 7471 N 698.959 0.586972 6.90309 0
M  V30 7472 N 700.752 0.302411 5.61286 0
M  V30 7473 H 692.903 1.1008 1.81648 0
M  V30 7474 H 695.166 0.436779 0.841384 0
M  V30 7475 H 694.872 1.07231 3.34954 0
M  V30 7476 H 694.746 -0.638802 3.71751 0
M  V30 7477 H 697.133 -0.976254 2.78484 0
M  V30 7478 H 697.214 0.75796 2.44313 0
M  V30 7479 H 696.858 1.24094 4.92507 0
M  V30 7480 H 696.788 -0.510912 5.24116 0
M  V30 7481 H 699.279 0.0371328 3.77882 0
M  V30 7482 H 699.592 0.700941 7.69615 0
M  V30 7483 H 697.937 0.623453 6.92198 0
M  V30 7484 H 701.128 0.130238 4.67919 0
M  V30 7485 H 701.301 0.432712 6.46554 0
M  V30 7486 N 694.707 -1.5719 -0.113559 0
M  V30 7487 C 696.118 -1.74259 -0.670116 0
M  V30 7488 C 696.469 -0.779694 -1.80042 0
M  V30 7489 O 695.594 0.0461353 -2.16351 0
M  V30 7490 C 696.189 -3.15981 -1.22236 0
M  V30 7491 C 694.748 -3.34537 -1.72516 0
M  V30 7492 C 693.895 -2.70116 -0.627098 0
M  V30 7493 H 696.846 -1.58301 0.112396 0
M  V30 7494 H 696.867 -3.17832 -2.09197 0
M  V30 7495 H 696.379 -3.86038 -0.39949 0
M  V30 7496 H 694.48 -2.6953 -2.57263 0
M  V30 7497 H 694.593 -4.42737 -1.83086 0
M  V30 7498 H 692.957 -2.31501 -1.06204 0
M  V30 7499 H 693.74 -3.42802 0.184889 0
M  V30 7500 N 696.185 0.383891 -1.52853 0
M  V30 7501 C 697.118 1.49105 -1.72751 0
M  V30 7502 C 698.096 1.52077 -0.575438 0
M  V30 7503 O 699.28 1.70406 -0.805854 0
M  V30 7504 C 696.407 2.87551 -1.78975 0
M  V30 7505 C 695.453 3.02383 -3.00777 0
M  V30 7506 S 696.286 2.73048 -4.60657 0
M  V30 7507 C 697.442 4.13678 -4.69704 0
M  V30 7508 H 697.675 1.32002 -2.66388 0
M  V30 7509 H 695.208 0.577088 -1.4321 0
M  V30 7510 H 697.166 3.6733 -1.83246 0
M  V30 7511 H 695.827 3.01977 -0.864215 0
M  V30 7512 H 695.02 4.03733 -3.01688 0
M  V30 7513 H 694.622 2.30504 -2.94523 0
M  V30 7514 H 696.914 5.07676 -4.48633 0
M  V30 7515 H 697.857 4.1778 -5.71721 0
M  V30 7516 H 698.265 3.99825 -3.98497 0
M  V30 7517 N 697.663 1.43903 0.642637 0
M  V30 7518 C 698.912 1.45362 1.39831 0
M  V30 7519 C 699.225 0.0856289 1.95412 0
M  V30 7520 O 700.431 -0.0222856 2.71491 0
M  V30 7521 C 698.887 2.55857 2.53111 0
M  V30 7522 C 698.495 3.98811 2.04092 0
M  V30 7523 C 700.239 2.66524 3.30402 0
M  V30 7524 C 698.146 5.00751 3.14647 0
M  V30 7525 H 697.076 0.540777 0.52543 0
M  V30 7526 H 699.727 1.69929 0.692559 0
M  V30 7527 H 698.109 2.2451 3.26207 0
M  V30 7528 H 699.283 4.3967 1.37938 0
M  V30 7529 H 697.598 3.92284 1.39651 0
M  V30 7530 H 700.195 3.39858 4.12796 0
M  V30 7531 H 700.538 1.71949 3.79129 0
M  V30 7532 H 701.071 2.97224 2.64392 0
M  V30 7533 H 697.81 5.96914 2.70876 0
M  V30 7534 H 697.33 4.64495 3.79479 0
M  V30 7535 H 699.009 5.23933 3.79609 0
M  V30 7536 N 699.141 -0.881989 1.30609 0
M  V30 7537 C 700.387 -1.63649 1.20791 0
M  V30 7538 C 700.742 -1.90966 -0.234437 0
M  V30 7539 O 700.035 -1.52163 -1.16434 0
M  V30 7540 C 700.229 -2.97999 1.97311 0
M  V30 7541 C 700.058 -2.83798 3.48839 0
M  V30 7542 C 698.828 -2.83622 4.18195 0
M  V30 7543 C 701.026 -2.59529 4.44015 0
M  V30 7544 N 699.008 -2.60344 5.55962 0
M  V30 7545 C 700.379 -2.45401 5.69366 0
M  V30 7546 C 702.434 -2.44777 4.33576 0
M  V30 7547 C 701.137 -2.18023 6.85462 0
M  V30 7548 C 703.163 -2.18785 5.49443 0
M  V30 7549 C 702.525 -2.05436 6.73777 0
M  V30 7550 H 698.624 -0.603687 0.497077 0
M  V30 7551 H 701.208 -1.03908 1.64655 0
M  V30 7552 H 699.379 -3.55767 1.55834 0
M  V30 7553 H 701.111 -3.6266 1.79611 0
M  V30 7554 H 697.866 -2.95562 3.70054 0
M  V30 7555 H 698.29 -2.51709 6.28468 0
M  V30 7556 H 702.932 -2.53831 3.38126 0
M  V30 7557 H 700.65 -2.07707 7.8095 0
M  V30 7558 H 704.236 -2.08188 5.43276 0
M  V30 7559 H 703.116 -1.85605 7.61919 0
M  V30 7560 N 700.619 -1.13374 -1.09472 0
M  V30 7561 C 701.529 -0.824029 -2.19652 0
M  V30 7562 C 702.545 0.19118 -1.72947 0
M  V30 7563 O 703.721 0.0223464 -2.01388 0
M  V30 7564 C 700.786 -0.294009 -3.45451 0
M  V30 7565 C 699.847 -1.3704 -4.0684 0
M  V30 7566 C 699.08 -0.86558 -5.26634 0
M  V30 7567 O 699.303 0.29702 -5.69626 0
M  V30 7568 O 698.237 -1.63968 -5.79136 0
M  V30 7569 H 702.063 -1.74454 -2.48595 0
M  V30 7570 H 699.648 -0.911155 -1.18399 0
M  V30 7571 H 701.53 -0.00381039 -4.214 0
M  V30 7572 H 700.205 0.598921 -3.18111 0
M  V30 7573 H 699.112 -1.71391 -3.3253 0
M  V30 7574 H 700.445 -2.23746 -4.38405 0
M  V30 7575 N 702.098 1.27442 -0.927168 0
M  V30 7576 C 703.008 2.30599 -0.431448 0
M  V30 7577 C 704.024 1.67028 0.48761 0
M  V30 7578 O 705.2 1.97962 0.370546 0
M  V30 7579 C 702.265 3.45327 0.308292 0
M  V30 7580 C 701.326 4.24418 -0.645615 0
M  V30 7581 C 700.559 5.33667 0.0589164 0
M  V30 7582 O 700.782 5.5589 1.27838 0
M  V30 7583 O 699.716 5.98774 -0.612638 0
M  V30 7584 H 703.542 2.75036 -1.28797 0
M  V30 7585 H 701.127 1.32382 -0.692495 0
M  V30 7586 H 703.009 4.15107 0.725555 0
M  V30 7587 H 701.684 3.02945 1.14043 0
M  V30 7588 H 700.591 3.57174 -1.11255 0
M  V30 7589 H 701.924 4.70512 -1.44496 0
M  V30 7590 N 703.576 0.692616 1.41565 0
M  V30 7591 C 704.523 0.0254264 2.30786 0
M  V30 7592 C 705.493 -0.774347 1.46946 0
M  V30 7593 O 706.678 -0.742981 1.7574 0
M  V30 7594 C 703.818 -0.907123 3.32964 0
M  V30 7595 C 702.931 -0.0992784 4.31886 0
M  V30 7596 C 702.066 -1.0292 5.21134 0
M  V30 7597 C 701.105 -0.214088 6.11725 0
M  V30 7598 N 700.242 -1.09766 6.93467 0
M  V30 7599 H 705.082 0.792036 2.87282 0
M  V30 7600 H 702.619 0.4023 1.41492 0
M  V30 7601 H 704.577 -1.46181 3.90752 0
M  V30 7602 H 703.207 -1.64016 2.78026 0
M  V30 7603 H 702.259 0.572287 3.76071 0
M  V30 7604 H 703.571 0.532782 4.95946 0
M  V30 7605 H 702.725 -1.65321 5.83741 0
M  V30 7606 H 701.464 -1.69512 4.57293 0
M  V30 7607 H 700.469 0.42302 5.4817 0
M  V30 7608 H 701.694 0.447995 6.77621 0
M  V30 7609 H 699.64 -1.74965 6.32237 0
M  V30 7610 H 699.557 -0.521099 7.54202 0
M  V30 7611 H 700.825 -1.70858 7.60544 0
M  V30 7612 N 705.054 -1.51416 0.437162 0
M  V30 7613 C 705.964 -2.31493 -0.380537 0
M  V30 7614 C 706.98 -1.40399 -1.02782 0
M  V30 7615 O 708.156 -1.73471 -1.02323 0
M  V30 7616 C 705.221 -3.1413 -1.46709 0
M  V30 7617 C 704.282 -4.21003 -0.839953 0
M  V30 7618 C 703.515 -4.9969 -1.87473 0
M  V30 7619 O 703.738 -4.79008 -3.09689 0
M  V30 7620 O 702.672 -5.8379 -1.46536 0
M  V30 7621 H 706.498 -3.02469 0.273183 0
M  V30 7622 H 704.083 -1.48059 0.199706 0
M  V30 7623 H 705.965 -3.65505 -2.09724 0
M  V30 7624 H 704.64 -2.45919 -2.10489 0
M  V30 7625 H 703.547 -3.73706 -0.171752 0
M  V30 7626 H 704.88 -4.91587 -0.245638 0
M  V30 7627 N 706.532 -0.168513 -1.56696 0
M  V30 7628 C 707.464 0.794249 -2.14998 0
M  V30 7629 C 708.477 1.1957 -1.10485 0
M  V30 7630 O 709.666 1.13604 -1.37682 0
M  V30 7631 C 706.766 2.08018 -2.67547 0
M  V30 7632 C 705.939 1.84274 -3.96689 0
M  V30 7633 C 704.998 2.97059 -4.3433 0
M  V30 7634 O 704.024 2.67815 -5.02259 0
M  V30 7635 N 705.226 4.24775 -3.9566 0
M  V30 7636 H 707.991 0.295832 -2.98236 0
M  V30 7637 H 705.552 0.0143611 -1.61894 0
M  V30 7638 H 707.544 2.82559 -2.89729 0
M  V30 7639 H 706.114 2.49059 -1.88914 0
M  V30 7640 H 705.334 0.936528 -3.82914 0
M  V30 7641 H 706.622 1.65773 -4.81037 0
M  V30 7642 H 706.02 4.51395 -3.40968 0
M  V30 7643 H 704.577 4.96027 -4.22848 0
M  V30 7644 N 708.01 1.57248 0.105221 0
M  V30 7645 C 708.958 2.02337 1.14728 0
M  V30 7646 C 709.952 0.922652 1.42069 0
M  V30 7647 O 711.158 1.10785 1.41869 0
M  V30 7648 H 707.533 0.644682 0.387155 0
M  V30 7649 H 709.504 2.89063 0.740607 0
M  V30 7650 C 708.253 2.45513 2.46209 0
M  V30 7651 H 707.576 3.29785 2.26013 0
M  V30 7652 H 709.016 2.80846 3.1765 0
M  V30 7653 C 707.475 1.3243 3.09781 0
M  V30 7654 O 708.005 0.647841 3.96442 0
M  V30 7655 N 706.211 1.07785 2.69872 0
M  V30 7656 H 705.758 1.62973 1.99493 0
M  V30 7657 H 705.716 0.323204 3.12734 0
M  V30 7658 N 709.488 -0.375779 1.53054 0
M  V30 7659 C 710.904 -0.716764 1.426 0
M  V30 7660 C 711.104 -1.93651 0.556931 0
M  V30 7661 O 710.16 -2.52475 0.0354461 0
M  V30 7662 C 711.473 -0.939499 2.85646 0
M  V30 7663 C 713.021 -1.04015 2.95212 0
M  V30 7664 C 713.496 -1.29543 4.39298 0
M  V30 7665 N 714.987 -1.36335 4.42682 0
M  V30 7666 C 715.722 -1.57778 5.51266 0
M  V30 7667 N 715.218 -1.76604 6.69913 0
M  V30 7668 N 717.011 -1.60065 5.38828 0
M  V30 7669 H 709.162 0.42664 2.08071 0
M  V30 7670 H 711.425 0.128758 0.939215 0
M  V30 7671 H 711.131 -0.115189 3.51511 0
M  V30 7672 H 711.005 -1.85048 3.2869 0
M  V30 7673 H 713.392 -1.85501 2.29507 0
M  V30 7674 H 713.473 -0.106785 2.55577 0
M  V30 7675 H 713.117 -0.485611 5.05573 0
M  V30 7676 H 713.047 -2.24184 4.76497 0
M  V30 7677 H 715.538 -1.23441 3.5717 0
M  V30 7678 H 715.851 -1.9251 7.48438 0
M  V30 7679 H 714.196 -1.73802 6.72917 0
M  V30 7680 H 717.387 -1.44917 4.45103 0
M  V30 7681 H 717.56 -1.76435 6.23518 0
M  V30 7682 N 710.966 -1.44241 -0.634997 0
M  V30 7683 C 712.214 -1.46531 -1.39187 0
M  V30 7684 C 712.535 -0.0976441 -1.94755 0
M  V30 7685 O 711.805 0.869528 -1.75545 0
M  V30 7686 H 710.385 -0.539544 -0.516625 0
M  V30 7687 H 713.047 -1.79989 -0.747655 0
M  V30 7688 H 712.143 -2.18848 -2.22513 0
M  V30 7689 N 712.444 0.87505 -1.31075 0
M  V30 7690 C 713.374 1.99775 -1.20881 0
M  V30 7691 C 714.355 1.69822 -0.0971612 0
M  V30 7692 O 715.54 1.92158 -0.280895 0
M  V30 7693 C 712.67 3.35163 -0.910118 0
M  V30 7694 C 711.624 3.79406 -1.98078 0
M  V30 7695 C 710.95 5.12197 -1.53488 0
M  V30 7696 C 712.25 3.97061 -3.39323 0
M  V30 7697 H 713.944 2.08562 -2.14808 0
M  V30 7698 H 711.49 1.00207 -1.03415 0
M  V30 7699 H 713.443 4.13237 -0.825423 0
M  V30 7700 H 712.167 3.26536 0.064822 0
M  V30 7701 H 710.826 3.03568 -2.05528 0
M  V30 7702 H 710.474 5.00007 -0.547941 0
M  V30 7703 H 710.174 5.4277 -2.2511 0
M  V30 7704 H 711.698 5.92785 -1.46417 0
M  V30 7705 H 713.112 4.65545 -3.34576 0
M  V30 7706 H 711.509 4.39025 -4.09118 0
M  V30 7707 H 712.579 3.00601 -3.80483 0
M  V30 7708 N 713.922 1.13953 1.08869 0
M  V30 7709 C 715.169 0.90481 1.81161 0
M  V30 7710 C 715.497 -0.568824 1.85996 0
M  V30 7711 O 714.752 -1.43723 1.32823 0
M  V30 7712 C 715.051 1.44495 3.26888 0
M  V30 7713 C 714.717 2.93641 3.42178 0
M  V30 7714 C 713.379 3.34361 3.46059 0
M  V30 7715 C 715.731 3.89568 3.46246 0
M  V30 7716 C 713.059 4.69681 3.51592 0
M  V30 7717 C 715.411 5.2474 3.53314 0
M  V30 7718 C 714.075 5.64979 3.55465 0
M  V30 7719 H 713.345 0.331094 0.662916 0
M  V30 7720 H 715.992 1.42242 1.28217 0
M  V30 7721 H 714.297 0.848169 3.82509 0
M  V30 7722 H 715.994 1.23934 3.81368 0
M  V30 7723 H 712.584 2.61156 3.39846 0
M  V30 7724 H 716.768 3.59192 3.42483 0
M  V30 7725 H 712.024 5.00224 3.51547 0
M  V30 7726 H 716.198 5.98882 3.55406 0
M  V30 7727 H 713.825 6.69821 3.59505 0
M  V30 7728 N 715.4 -1.26948 0.933913 0
M  V30 7729 C 716.31 -2.30366 0.443671 0
M  V30 7730 C 717.326 -1.67284 -0.478745 0
M  V30 7731 O 718.502 -1.98156 -0.360043 0
M  V30 7732 C 715.567 -3.45485 -0.289974 0
M  V30 7733 C 714.628 -4.24069 0.668114 0
M  V30 7734 C 713.861 -5.33691 -0.0306138 0
M  V30 7735 O 714.084 -5.5656 -1.24888 0
M  V30 7736 O 713.018 -5.98441 0.644384 0
M  V30 7737 H 716.844 -2.74349 1.30254 0
M  V30 7738 H 714.429 -1.32012 0.699506 0
M  V30 7739 H 716.311 -4.15486 -0.70353 0
M  V30 7740 H 714.986 -3.03546 -1.12435 0
M  V30 7741 H 713.893 -3.56579 1.13147 0
M  V30 7742 H 715.226 -4.69739 1.46989 0
M  V30 7743 N 716.879 -0.700114 -1.41195 0
M  V30 7744 C 718.126 -0.233006 -2.01155 0
M  V30 7745 C 718.454 1.16883 -1.55462 0
M  V30 7746 O 717.709 1.80395 -0.758695 0
M  V30 7747 C 718.008 -0.243986 -3.56566 0
M  V30 7748 C 717.674 -1.59397 -4.21786 0
M  V30 7749 C 716.336 -1.96355 -4.39316 0
M  V30 7750 C 718.688 -2.48192 -4.58312 0
M  V30 7751 C 716.016 -3.21683 -4.9065 0
M  V30 7752 C 718.368 -3.72857 -5.11039 0
M  V30 7753 C 717.032 -4.09951 -5.26779 0
M  V30 7754 H 716.302 -0.085263 -0.736078 0
M  V30 7755 H 718.949 -0.9001 -1.69028 0
M  V30 7756 H 717.254 0.506663 -3.8851 0
M  V30 7757 H 718.951 0.135031 -4.00773 0
M  V30 7758 H 715.541 -1.29654 -4.08519 0
M  V30 7759 H 719.725 -2.20918 -4.4442 0
M  V30 7760 H 714.981 -3.50412 -5.01021 0
M  V30 7761 H 719.155 -4.41844 -5.38282 0
M  V30 7762 H 716.782 -5.07136 -5.66319 0
M  V30 7763 N 718.357 1.51182 -0.445186 0
M  V30 7764 C 719.587 2.06269 0.116922 0
M  V30 7765 C 719.995 1.31188 1.36332 0
M  V30 7766 O 719.338 0.367067 1.79995 0
M  V30 7767 C 719.4 3.56051 0.496757 0
M  V30 7768 C 719.064 4.52441 -0.64394 0
M  V30 7769 C 720.061 4.97233 -1.5184 0
M  V30 7770 C 717.746 4.95447 -0.826905 0
M  V30 7771 C 719.74 5.83712 -2.56046 0
M  V30 7772 C 717.427 5.81714 -1.87222 0
M  V30 7773 C 718.425 6.25745 -2.73738 0
M  V30 7774 O 718.113 7.10298 -3.76474 0
M  V30 7775 H 717.845 0.675954 0.00785733 0
M  V30 7776 H 720.399 1.95648 -0.625371 0
M  V30 7777 H 718.629 3.64483 1.29187 0
M  V30 7778 H 720.318 3.93618 0.990928 0
M  V30 7779 H 721.084 4.64696 -1.38862 0
M  V30 7780 H 716.963 4.60712 -0.163052 0
M  V30 7781 H 720.507 6.18 -3.23607 0
M  V30 7782 H 716.404 6.13664 -2.00218 0
M  V30 7783 H 717.172 7.28493 -3.73149 0
M  V30 7784 N 719.835 0.176821 1.56605 0
M  V30 7785 C 720.782 -0.751312 2.18229 0
M  V30 7786 C 721.752 -1.22297 1.12395 0
M  V30 7787 O 722.937 -1.29015 1.40569 0
M  V30 7788 C 720.077 -1.97291 2.83143 0
M  V30 7789 C 719.19 -1.54431 4.03454 0
M  V30 7790 C 718.325 -2.72 4.56278 0
M  V30 7791 C 717.364 -2.25657 5.68986 0
M  V30 7792 N 716.501 -3.36338 6.16296 0
M  V30 7793 H 721.341 -0.219033 2.97194 0
M  V30 7794 H 718.878 -0.0963803 1.46784 0
M  V30 7795 H 720.836 -2.68949 3.1894 0
M  V30 7796 H 719.466 -2.4788 2.06773 0
M  V30 7797 H 718.518 -0.724273 3.73441 0
M  V30 7798 H 719.83 -1.16417 4.85024 0
M  V30 7799 H 718.984 -3.51806 4.94285 0
M  V30 7800 H 717.723 -3.13277 3.73777 0
M  V30 7801 H 716.728 -1.44299 5.30526 0
M  V30 7802 H 717.953 -1.85432 6.53293 0
M  V30 7803 H 715.899 -3.7718 5.36723 0
M  V30 7804 H 715.816 -3.02435 6.9287 0
M  V30 7805 H 717.084 -4.16413 6.58954 0
M  V30 7806 N 721.313 -1.57302 -0.09688 0
M  V30 7807 C 722.223 -2.05258 -1.13606 0
M  V30 7808 C 723.239 -0.977137 -1.43972 0
M  V30 7809 O 724.415 -1.29018 -1.54649 0
M  V30 7810 C 721.48 -2.46593 -2.43706 0
M  V30 7811 C 720.541 -3.68322 -2.20538 0
M  V30 7812 C 719.774 -4.07676 -3.44435 0
M  V30 7813 O 719.997 -3.47141 -4.52603 0
M  V30 7814 O 718.931 -5.00641 -3.34129 0
M  V30 7815 H 722.757 -2.94069 -0.758752 0
M  V30 7816 H 720.342 -1.46164 -0.309263 0
M  V30 7817 H 722.224 -2.73814 -3.20318 0
M  V30 7818 H 720.899 -1.6092 -2.80867 0
M  V30 7819 H 719.806 -3.4622 -1.41713 0
M  V30 7820 H 721.139 -4.54769 -1.88271 0
M  V30 7821 N 722.791 0.367657 -1.53252 0
M  V30 7822 C 723.721 1.45632 -1.8252 0
M  V30 7823 C 724.702 1.55979 -0.678568 0
M  V30 7824 O 725.887 1.70581 -0.928217 0
M  V30 7825 C 723.017 2.82994 -2.01325 0
M  V30 7826 C 721.971 2.87473 -3.17086 0
M  V30 7827 C 721.297 4.2749 -3.21179 0
M  V30 7828 C 722.597 2.55182 -4.55719 0
M  V30 7829 H 724.291 1.21387 -2.73689 0
M  V30 7830 H 721.837 0.58251 -1.31692 0
M  V30 7831 H 723.79 3.59179 -2.20383 0
M  V30 7832 H 722.514 3.08622 -1.06864 0
M  V30 7833 H 721.173 2.13739 -2.97844 0
M  V30 7834 H 720.821 4.5019 -2.24361 0
M  V30 7835 H 720.521 4.31403 -3.98955 0
M  V30 7836 H 722.045 5.0555 -3.42419 0
M  V30 7837 H 723.459 3.21081 -4.74953 0
M  V30 7838 H 721.856 2.70414 -5.3572 0
M  V30 7839 H 722.926 1.5044 -4.60973 0
M  V30 7840 N 724.269 1.44576 0.627338 0
M  V30 7841 C 725.518 1.46837 1.38281 0
M  V30 7842 C 725.831 0.10635 1.95311 0
M  V30 7843 O 727.037 0.00651084 2.71499 0
M  V30 7844 C 725.493 2.58527 2.50384 0
M  V30 7845 C 725.101 4.00953 1.99851 0
M  V30 7846 C 726.845 2.70013 3.27557 0
M  V30 7847 C 724.752 5.0406 3.09318 0
M  V30 7848 H 723.682 0.546319 0.519664 0
M  V30 7849 H 726.333 1.70654 0.674497 0
M  V30 7850 H 724.715 2.27957 3.23808 0
M  V30 7851 H 725.889 4.41108 1.33267 0
M  V30 7852 H 724.204 3.93743 1.35482 0
M  V30 7853 H 726.801 3.44217 4.09168 0
M  V30 7854 H 727.144 1.75961 3.77284 0
M  V30 7855 H 727.677 3.00011 2.61224 0
M  V30 7856 H 724.416 5.99753 2.6453 0
M  V30 7857 H 723.936 4.68493 3.74532 0
M  V30 7858 H 725.615 5.2793 3.74031 0
M  V30 7859 N 725.747 -0.868086 1.31537 0
M  V30 7860 C 727.163 -1.15414 1.10235 0
M  V30 7861 C 727.363 -2.01106 -0.125947 0
M  V30 7862 O 726.419 -2.38994 -0.814734 0
M  V30 7863 C 727.732 -1.84445 2.37488 0
M  V30 7864 C 729.28 -1.97139 2.43116 0
M  V30 7865 C 729.755 -2.69585 3.70254 0
M  V30 7866 N 731.246 -2.77119 3.71159 0
M  V30 7867 C 731.981 -3.33791 4.6623 0
M  V30 7868 N 731.477 -3.9138 5.71659 0
M  V30 7869 N 733.27 -3.31767 4.53747 0
M  V30 7870 H 725.421 -0.297109 2.10312 0
M  V30 7871 H 727.684 -0.194227 0.92789 0
M  V30 7872 H 727.39 -1.2893 3.27215 0
M  V30 7873 H 727.264 -2.84709 2.47428 0
M  V30 7874 H 729.651 -2.51818 1.53856 0
M  V30 7875 H 729.732 -0.95912 2.37138 0
M  V30 7876 H 729.376 -2.15572 4.59881 0
M  V30 7877 H 729.306 -3.71223 3.73499 0
M  V30 7878 H 731.797 -2.3625 2.94948 0
M  V30 7879 H 732.11 -4.3274 6.40278 0
M  V30 7880 H 730.455 -3.8975 5.7543 0
M  V30 7881 H 733.646 -2.86016 3.70557 0
M  V30 7882 H 733.819 -3.75636 5.28017 0
M  V30 7883 N 727.225 -1.14528 -1.08264 0
M  V30 7884 C 728.155 -0.856356 -2.1723 0
M  V30 7885 C 729.136 0.189251 -1.69044 0
M  V30 7886 O 730.321 0.0456119 -1.94146 0
M  V30 7887 C 727.451 -0.334662 -3.45684 0
M  V30 7888 C 726.405 -1.31588 -4.0727 0
M  V30 7889 C 725.731 -0.653428 -5.30692 0
M  V30 7890 C 727.031 -2.67866 -4.48381 0
M  V30 7891 H 728.725 -1.76755 -2.41657 0
M  V30 7892 H 726.271 -0.851287 -1.16143 0
M  V30 7893 H 728.224 -0.120128 -4.21229 0
M  V30 7894 H 726.948 0.611967 -3.20815 0
M  V30 7895 H 725.607 -1.51661 -3.33758 0
M  V30 7896 H 725.255 0.299054 -5.0211 0
M  V30 7897 H 724.955 -1.30817 -5.72853 0
M  V30 7898 H 726.479 -0.448453 -6.08951 0
M  V30 7899 H 727.893 -2.51692 -5.15096 0
M  V30 7900 H 726.29 -3.29627 -5.01464 0
M  V30 7901 H 727.36 -3.24632 -3.60198 0
M  V30 7902 N 728.703 1.26451 -0.940633 0
M  V30 7903 C 730.119 1.4608 -0.642859 0
M  V30 7904 C 730.319 1.84765 0.803998 0
M  V30 7905 O 729.375 1.96902 1.58069 0
M  V30 7906 C 730.688 2.54359 -1.60381 0
M  V30 7907 C 732.236 2.6821 -1.61345 0
M  V30 7908 C 732.711 3.79659 -2.56169 0
M  V30 7909 N 734.202 3.87051 -2.54452 0
M  V30 7910 C 734.937 4.72739 -3.24507 0
M  V30 7911 N 734.433 5.6282 -4.03987 0
M  V30 7912 N 736.226 4.66581 -3.13462 0
M  V30 7913 H 728.377 0.996289 -1.87584 0
M  V30 7914 H 730.64 0.498921 -0.80609 0
M  V30 7915 H 730.346 2.32758 -2.6366 0
M  V30 7916 H 730.22 3.52005 -1.35545 0
M  V30 7917 H 732.607 2.89184 -0.587913 0
M  V30 7918 H 732.688 1.7101 -1.90235 0
M  V30 7919 H 732.332 3.59438 -3.58841 0
M  V30 7920 H 732.262 4.76315 -2.2457 0
M  V30 7921 H 734.753 3.22649 -1.96739 0
M  V30 7922 H 735.066 6.25095 -4.54396 0
M  V30 7923 H 733.411 5.62574 -4.08088 0
M  V30 7924 H 736.602 3.9521 -2.50852 0
M  V30 7925 H 736.775 5.33141 -3.68327 0
M  V30 7926 N 730.181 0.707592 1.40822 0
M  V30 7927 C 731.131 0.0265008 2.27985 0
M  V30 7928 C 732.115 -0.740685 1.42838 0
M  V30 7929 O 733.307 -0.6142 1.66002 0
M  V30 7930 C 730.436 -0.900382 3.31282 0
M  V30 7931 C 729.522 -0.128807 4.23904 0
M  V30 7932 N 729.913 0.883744 4.9802 0
M  V30 7933 C 728.211 -0.362539 4.44524 0
M  V30 7934 C 728.912 1.34666 5.65898 0
M  V30 7935 N 727.888 0.670306 5.39451 0
M  V30 7936 H 731.69 0.802667 2.82727 0
M  V30 7937 H 729.204 0.539475 1.53178 0
M  V30 7938 H 731.201 -1.40357 3.92563 0
M  V30 7939 H 729.861 -1.67601 2.781 0
M  V30 7940 H 730.872 1.26435 5.0223 0
M  V30 7941 H 727.549 -1.11512 4.02332 0
M  V30 7942 H 728.939 2.18756 6.35292 0
M  V30 7943 N 731.66 -1.50943 0.453197 0
M  V30 7944 C 733.076 -1.59245 0.106342 0
M  V30 7945 C 733.276 -1.46287 -1.38572 0
M  V30 7946 O 732.332 -1.31219 -2.15726 0
M  V30 7947 C 733.645 -2.93797 0.640595 0
M  V30 7948 C 735.193 -3.07148 0.602435 0
M  V30 7949 C 735.668 -4.44247 1.11393 0
M  V30 7950 N 737.159 -4.50611 1.07258 0
M  V30 7951 C 737.894 -5.55049 1.43905 0
M  V30 7952 N 737.39 -6.66828 1.87914 0
M  V30 7953 N 739.183 -5.45494 1.35621 0
M  V30 7954 H 731.334 -1.5761 1.42382 0
M  V30 7955 H 733.597 -0.74384 0.587713 0
M  V30 7956 H 733.303 -3.087 1.68515 0
M  V30 7957 H 733.177 -3.77127 0.0742272 0
M  V30 7958 H 735.564 -2.91903 -0.433171 0
M  V30 7959 H 735.645 -2.25619 1.20539 0
M  V30 7960 H 735.289 -4.60239 2.14808 0
M  V30 7961 H 735.219 -5.2434 0.487353 0
M  V30 7962 H 737.71 -3.70391 0.749585 0
M  V30 7963 H 738.023 -7.42558 2.14072 0
M  V30 7964 H 736.368 -6.67995 1.91853 0
M  V30 7965 H 739.559 -4.57053 1.01093 0
M  V30 7966 H 739.732 -6.2677 1.64508 0
M  V30 7967 N 733.138 -0.185124 -1.56509 0
M  V30 7968 C 734.068 0.735098 -2.21627 0
M  V30 7969 C 735.049 1.2288 -1.1762 0
M  V30 7970 O 736.234 1.27945 -1.46095 0
M  V30 7971 C 733.364 1.95889 -2.86783 0
M  V30 7972 C 732.318 1.6005 -3.96948 0
M  V30 7973 C 731.644 2.90009 -4.4922 0
M  V30 7974 C 732.944 0.818008 -5.15855 0
M  V30 7975 H 734.638 0.192274 -2.98782 0
M  V30 7976 H 732.184 0.0910393 -1.43712 0
M  V30 7977 H 734.137 2.60779 -3.31017 0
M  V30 7978 H 732.861 2.52608 -2.07018 0
M  V30 7979 H 731.52 0.975237 -3.5339 0
M  V30 7980 H 731.168 3.44797 -3.6623 0
M  V30 7981 H 730.868 2.66778 -5.23549 0
M  V30 7982 H 732.392 3.55904 -4.9615 0
M  V30 7983 H 733.806 1.36979 -5.56695 0
M  V30 7984 H 732.203 0.684207 -5.96187 0
M  V30 7985 H 733.273 -0.182939 -4.84555 0
M  V30 7986 N 734.616 1.57351 0.0885366 0
M  V30 7987 C 735.579 2.01557 1.09121 0
M  V30 7988 C 736.579 0.910052 1.3257 0
M  V30 7989 O 737.769 1.17537 1.28572 0
M  V30 7990 C 734.901 2.38189 2.43883 0
M  V30 7991 H 736.094 2.91361 0.710562 0
M  V30 7992 H 733.647 1.52694 0.333779 0
M  V30 7993 H 734.382 1.5136 2.86811 0
M  V30 7994 H 734.167 3.18846 2.28209 0
M  V30 7995 H 735.657 2.73025 3.15986 0
M  V30 7996 N 736.094 -0.359525 1.53444 0
M  V30 7997 C 737.319 -1.12644 1.74144 0
M  V30 7998 C 737.744 -1.82082 0.472007 0
M  V30 7999 O 737.102 -1.71962 -0.57436 0
M  V30 8000 C 737.15 -2.12781 2.9113 0
M  V30 8001 O 736.254 -3.19984 2.60162 0
M  V30 8002 H 735.595 -0.326553 0.578152 0
M  V30 8003 H 738.125 -0.414798 2.00351 0
M  V30 8004 H 738.135 -2.56278 3.17467 0
M  V30 8005 H 736.81 -1.61634 3.83207 0
M  V30 8006 H 735.387 -2.81417 2.44661 0
M  V30 8007 N 737.572 -1.44907 -0.619662 0
M  V30 8008 C 738.502 -1.55488 -1.742 0
M  V30 8009 C 739.483 -0.407143 -1.65156 0
M  V30 8010 O 740.668 -0.628743 -1.8374 0
M  V30 8011 C 737.798 -1.5097 -3.1277 0
M  V30 8012 C 736.752 -2.64337 -3.36615 0
M  V30 8013 C 736.078 -2.44872 -4.75333 0
M  V30 8014 C 737.378 -4.06423 -3.28051 0
M  V30 8015 H 739.072 -2.49432 -1.65602 0
M  V30 8016 H 736.618 -1.20047 -0.795281 0
M  V30 8017 H 738.571 -1.56971 -3.91073 0
M  V30 8018 H 737.295 -0.535486 -3.2218 0
M  V30 8019 H 735.954 -2.57744 -2.60698 0
M  V30 8020 H 735.602 -1.45617 -4.81461 0
M  V30 8021 H 735.302 -3.20888 -4.92244 0
M  V30 8022 H 736.826 -2.52709 -5.55851 0
M  V30 8023 H 738.24 -4.14324 -3.96243 0
M  V30 8024 H 736.637 -4.82733 -3.56495 0
M  V30 8025 H 737.707 -4.29183 -2.25676 0
M  V30 8026 N 739.05 0.861098 -1.31996 0
M  V30 8027 C 740.278 1.6474 -1.25173 0
M  V30 8028 C 740.693 1.87926 0.181425 0
M  V30 8029 O 740.05 1.4437 1.1164 0
M  V30 8030 C 740.101 3.01036 -2.0015 0
M  V30 8031 O 739.822 2.7888 -3.37872 0
M  V30 8032 C 741.323 3.95481 -2.00273 0
M  V30 8033 H 738.543 0.513314 -0.432146 0
M  V30 8034 H 741.087 1.07419 -1.74016 0
M  V30 8035 H 739.242 3.55021 -1.55046 0
M  V30 8036 H 739.656 3.65514 -3.76165 0
M  V30 8037 H 741.13 4.88403 -2.57229 0
M  V30 8038 H 741.607 4.27957 -0.987407 0
M  V30 8039 H 742.213 3.47433 -2.45296 0
M  V30 8040 N 740.528 1.15101 1.07655 0
M  V30 8041 C 741.944 0.893004 1.32279 0
M  V30 8042 C 742.144 -0.461701 1.96139 0
M  V30 8043 O 741.2 -1.20431 2.21929 0
M  V30 8044 C 742.513 2.03161 2.21689 0
M  V30 8045 C 744.061 2.06579 2.35147 0
M  V30 8046 C 744.536 3.19754 3.27905 0
M  V30 8047 N 746.027 3.19382 3.35484 0
M  V30 8048 C 746.762 4.03592 4.07309 0
M  V30 8049 N 746.258 4.97859 4.81776 0
M  V30 8050 N 748.051 3.91626 4.03219 0
M  V30 8051 H 740.202 2.02341 0.645886 0
M  V30 8052 H 742.465 0.882127 0.347211 0
M  V30 8053 H 742.171 3.00934 1.82021 0
M  V30 8054 H 742.045 1.96132 3.22199 0
M  V30 8055 H 744.432 1.09408 2.74069 0
M  V30 8056 H 744.513 2.17676 1.34353 0
M  V30 8057 H 744.157 4.17175 2.89702 0
M  V30 8058 H 744.087 3.05893 4.28645 0
M  V30 8059 H 746.578 2.51112 2.82403 0
M  V30 8060 H 746.891 5.58563 5.34067 0
M  V30 8061 H 745.236 5.0185 4.80803 0
M  V30 8062 H 748.427 3.17295 3.44154 0
M  V30 8063 H 748.6 4.57479 4.5893 0
M  V30 8064 N 742.006 -1.2595 0.947325 0
M  V30 8065 C 743.254 -1.93081 0.596996 0
M  V30 8066 C 743.575 -1.74632 -0.867672 0
M  V30 8067 O 742.845 -1.1056 -1.6172 0
M  V30 8068 H 741.425 -0.714542 0.217805 0
M  V30 8069 H 744.087 -1.53265 1.20398 0
M  V30 8070 H 743.183 -3.01134 0.82004 0
M  V30 8071 N 743.484 -0.715051 -1.40445 0
M  V30 8072 C 744.432 -0.0509974 -2.32544 0
M  V30 8073 C 745.426 0.747602 -1.52011 0
M  V30 8074 O 746.632 0.651031 -1.67814 0
M  V30 8075 H 743.007 0.00231113 -0.751996 0
M  V30 8076 H 744.978 -0.84449 -2.86201 0
M  V30 8077 C 743.727 0.857101 -3.3697 0
M  V30 8078 H 743.05 0.252 -3.99005 0
M  V30 8079 H 744.49 1.28971 -4.03909 0
M  V30 8080 C 742.949 1.98231 -2.72408 0
M  V30 8081 O 743.479 3.07309 -2.58697 0
M  V30 8082 N 741.685 1.76577 -2.308 0
M  V30 8083 H 741.232 0.878641 -2.42152 0
M  V30 8084 H 741.19 2.52043 -1.87941 0
M  V30 8085 N 744.962 1.50701 -0.461195 0
M  V30 8086 C 746.208 2.02566 0.0973411 0
M  V30 8087 C 746.541 1.3432 1.40257 0
M  V30 8088 O 745.816 0.465692 1.88843 0
M  V30 8089 C 746.099 3.58919 0.291423 0
M  V30 8090 C 745.952 4.37751 -1.03413 0
M  V30 8091 C 747.271 4.27379 1.05048 0
M  V30 8092 H 744.39 0.73622 0.0339026 0
M  V30 8093 H 747.032 1.80115 -0.604855 0
M  V30 8094 H 745.182 3.78179 0.889539 0
M  V30 8095 H 746.854 4.30085 -1.66806 0
M  V30 8096 H 745.097 4.01885 -1.63313 0
M  V30 8097 H 745.768 5.45384 -0.852085 0
M  V30 8098 H 748.244 4.12534 0.543603 0
M  V30 8099 H 747.12 5.36609 1.15506 0
M  V30 8100 H 747.381 3.89868 2.0846 0
M  V30 8101 N 746.441 0.193421 1.56409 0
M  V30 8102 C 747.857 -0.162447 1.58771 0
M  V30 8103 C 748.057 -1.6116 1.20954 0
M  V30 8104 O 747.113 -2.3469 0.931497 0
M  V30 8105 C 748.426 0.138391 3.00381 0
M  V30 8106 C 749.974 0.0783649 3.12902 0
M  V30 8107 C 750.449 0.352491 4.56642 0
M  V30 8108 N 751.94 0.30105 4.62221 0
M  V30 8109 C 752.675 0.487028 5.71328 0
M  V30 8110 N 752.171 0.733265 6.88909 0
M  V30 8111 N 753.964 0.4214 5.60518 0
M  V30 8112 H 746.115 1.13909 1.79272 0
M  V30 8113 H 748.378 0.454528 0.83193 0
M  V30 8114 H 748.084 1.14312 3.32604 0
M  V30 8115 H 747.958 -0.559804 3.73023 0
M  V30 8116 H 750.345 -0.916963 2.80492 0
M  V30 8117 H 750.426 0.809611 2.4265 0
M  V30 8118 H 750.07 1.34513 4.89764 0
M  V30 8119 H 750 -0.399624 5.25081 0
M  V30 8120 H 752.491 0.117279 3.77718 0
M  V30 8121 H 752.804 0.86403 7.67955 0
M  V30 8122 H 751.149 0.770138 6.9072 0
M  V30 8123 H 754.34 0.229461 4.67537 0
M  V30 8124 H 754.513 0.569758 6.4549 0
M  V30 8125 N 747.919 -1.57396 -0.0801906 0
M  V30 8126 C 749.144 -1.91437 -0.797909 0
M  V30 8127 C 749.569 -0.789075 -1.70749 0
M  V30 8128 O 748.927 0.25857 -1.79447 0
M  V30 8129 C 748.975 -3.24402 -1.57467 0
M  V30 8130 O 748.079 -3.13043 -2.68473 0
M  V30 8131 H 747.42 -0.627109 -0.218243 0
M  V30 8132 H 749.95 -2.04537 -0.050949 0
M  V30 8133 H 749.96 -3.58072 -1.95571 0
M  V30 8134 H 748.635 -4.05884 -0.907229 0
M  V30 8135 H 747.212 -2.90915 -2.33287 0
M  V30 8136 N 749.397 0.351382 -1.53633 0
M  V30 8137 C 750.643 1.09049 -1.71697 0
M  V30 8138 C 750.998 1.86563 -0.470314 0
M  V30 8139 O 750.291 1.83922 0.536954 0
M  V30 8140 C 750.485 2.06744 -2.91533 0
M  V30 8141 C 750.314 1.38832 -4.27733 0
M  V30 8142 C 749.084 1.13646 -4.92354 0
M  V30 8143 C 751.282 0.818602 -5.07743 0
M  V30 8144 N 749.264 0.422324 -6.12446 0
M  V30 8145 C 750.635 0.234602 -6.19556 0
M  V30 8146 C 752.69 0.718679 -4.92686 0
M  V30 8147 C 751.393 -0.439592 -7.17955 0
M  V30 8148 C 753.419 0.0582402 -5.91371 0
M  V30 8149 C 752.781 -0.514823 -7.02516 0
M  V30 8150 H 748.88 0.383697 -0.681396 0
M  V30 8151 H 751.464 0.375063 -1.91053 0
M  V30 8152 H 749.635 2.75586 -2.73691 0
M  V30 8153 H 751.367 2.73436 -2.98353 0
M  V30 8154 H 748.122 1.4215 -4.51764 0
M  V30 8155 H 748.546 0.0802092 -6.76952 0
M  V30 8156 H 753.188 1.14748 -4.06931 0
M  V30 8157 H 750.906 -0.880307 -8.03291 0
M  V30 8158 H 754.492 -0.0183382 -5.81797 0
M  V30 8159 H 753.372 -1.01777 -7.77567 0
M  V30 8160 N 750.875 1.45233 0.611969 0
M  V30 8161 C 751.825 1.49997 1.71711 0
M  V30 8162 C 752.809 0.363689 1.56736 0
M  V30 8163 O 754.001 0.610261 1.66147 0
M  V30 8164 C 751.13 1.46537 3.10454 0
M  V30 8165 C 750.216 2.65351 3.30831 0
M  V30 8166 N 750.607 3.90485 3.21489 0
M  V30 8167 C 748.905 2.60955 3.61688 0
M  V30 8168 C 749.606 4.69758 3.43078 0
M  V30 8169 N 748.582 4.01141 3.66861 0
M  V30 8170 H 752.384 2.44574 1.62975 0
M  V30 8171 H 749.898 1.40464 0.815082 0
M  V30 8172 H 751.895 1.48035 3.89732 0
M  V30 8173 H 750.555 0.530139 3.20343 0
M  V30 8174 H 751.566 4.22171 2.99987 0
M  V30 8175 H 748.243 1.76319 3.78441 0
M  V30 8176 H 749.633 5.7877 3.41285 0
M  V30 8177 N 752.353 -0.854086 1.3245 0
M  V30 8178 C 753.316 -1.94427 1.21371 0
M  V30 8179 C 754.316 -1.60219 0.136613 0
M  V30 8180 O 755.506 -1.69846 0.387057 0
M  V30 8181 C 752.638 -3.29698 0.866701 0
M  V30 8182 H 753.831 -2.05679 2.18257 0
M  V30 8183 H 751.384 -1.04434 1.1629 0
M  V30 8184 H 752.119 -3.24145 -0.100319 0
M  V30 8185 H 751.904 -3.55903 1.64545 0
M  V30 8186 H 753.394 -4.09599 0.813515 0
M  V30 8187 N 753.831 -1.1567 -1.07043 0
M  V30 8188 C 755.108 -0.843948 -1.76456 0
M  V30 8189 C 755.488 0.659806 -2.00524 0
M  V30 8190 O 754.836 1.60518 -1.62623 0
M  V30 8191 C 755.046 -1.65822 -3.0709 0
M  V30 8192 C 756.394 -1.8664 -3.8138 0
M  V30 8193 O 757.418 -1.62624 -3.1691 0
M  V30 8194 O 756.277 -2.26884 -4.97178 0
M  V30 8195 H 753.371 -0.310677 -0.766426 0
M  V30 8196 H 755.917 -1.26266 -1.1338 0
M  V30 8197 H 754.689 -2.67902 -2.85209 0
M  V30 8198 H 754.312 -1.23605 -3.77899 0
M  V30 8199 N 755.309 1.25446 -0.953992 0
M  V30 8200 C 756.256 2.25912 -0.472485 0
M  V30 8201 C 757.226 1.59173 0.47469 0
M  V30 8202 O 758.411 1.86812 0.388082 0
M  V30 8203 C 755.551 3.44235 0.244218 0
M  V30 8204 C 754.664 4.25613 -0.740121 0
M  V30 8205 C 753.799 5.312 -0.000922267 0
M  V30 8206 C 752.838 6.04265 -0.976236 0
M  V30 8207 N 751.975 7.01589 -0.267952 0
M  V30 8208 H 756.815 2.66469 -1.3341 0
M  V30 8209 H 754.352 1.31005 -0.669045 0
M  V30 8210 H 756.31 4.11682 0.676314 0
M  V30 8211 H 754.94 3.04554 1.06988 0
M  V30 8212 H 753.992 3.57834 -1.2907 0
M  V30 8213 H 755.304 4.762 -1.48441 0
M  V30 8214 H 754.458 6.04719 0.48984 0
M  V30 8215 H 753.197 4.81484 0.776159 0
M  V30 8216 H 752.202 5.29561 -1.478 0
M  V30 8217 H 753.427 6.5607 -1.75354 0
M  V30 8218 H 751.373 6.54164 0.490403 0
M  V30 8219 H 751.29 7.4999 -0.951344 0
M  V30 8220 H 752.558 7.7924 0.201294 0
M  V30 8221 N 756.787 0.722489 1.40064 0
M  V30 8222 C 757.719 0.0349057 2.29173 0
M  V30 8223 C 758.732 -0.716571 1.46182 0
M  V30 8224 O 759.921 -0.562806 1.69395 0
M  V30 8225 C 757.021 -0.974839 3.24577 0
M  V30 8226 C 756.194 -0.287471 4.36454 0
M  V30 8227 C 755.253 -1.20356 5.12251 0
M  V30 8228 O 754.279 -0.685753 5.65054 0
M  V30 8229 N 755.481 -2.53422 5.22262 0
M  V30 8230 H 758.246 0.800058 2.88824 0
M  V30 8231 H 755.807 0.57068 1.51509 0
M  V30 8232 H 757.799 -1.59002 3.72157 0
M  V30 8233 H 756.369 -1.6413 2.66046 0
M  V30 8234 H 755.589 0.508008 3.90913 0
M  V30 8235 H 756.877 0.189382 5.08447 0
M  V30 8236 H 756.275 -2.97981 4.80857 0
M  V30 8237 H 754.832 -3.10067 5.73325 0
M  V30 8238 N 758.265 -1.50454 0.469181 0
M  V30 8239 C 759.228 -2.2703 -0.314643 0
M  V30 8240 C 760.228 -1.31734 -0.922111 0
M  V30 8241 O 761.418 -1.55176 -0.791588 0
M  V30 8242 C 758.55 -3.08616 -1.44806 0
M  V30 8243 H 759.743 -2.97769 0.356892 0
M  V30 8244 H 757.296 -1.54698 0.223191 0
M  V30 8245 H 758.031 -2.42369 -2.1547 0
M  V30 8246 H 757.816 -3.78647 -1.01829 0
M  V30 8247 H 759.306 -3.66536 -2.00103 0
M  V30 8248 N 759.743 -0.201713 -1.56304 0
M  V30 8249 C 760.691 0.733133 -2.20744 0
M  V30 8250 C 761.685 1.2148 -1.18064 0
M  V30 8251 O 762.891 1.17692 -1.36193 0
M  V30 8252 H 759.266 0.254789 -0.707521 0
M  V30 8253 H 761.237 0.165996 -2.97938 0
M  V30 8254 C 759.986 1.93925 -2.88597 0
M  V30 8255 H 759.309 1.5777 -3.67353 0
M  V30 8256 H 760.749 2.57158 -3.37114 0
M  V30 8257 C 759.208 2.78219 -1.89989 0
M  V30 8258 O 759.738 3.76353 -1.40432 0
M  V30 8259 N 757.944 2.43847 -1.58072 0
M  V30 8260 H 757.491 1.64103 -1.98565 0
M  V30 8261 H 757.449 3.0053 -0.923524 0
M  V30 8262 N 761.222 1.57436 0.0718424 0
M  V30 8263 C 762.152 2.06724 1.08571 0
M  V30 8264 C 763.133 0.960731 1.40371 0
M  V30 8265 O 764.318 1.23345 1.49999 0
M  V30 8266 C 761.448 2.51112 2.39916 0
M  V30 8267 C 760.402 3.65639 2.22469 0
M  V30 8268 C 759.728 3.96082 3.59198 0
M  V30 8269 C 761.028 4.95687 1.64596 0
M  V30 8270 H 762.722 2.91679 0.675569 0
M  V30 8271 H 760.268 1.40319 0.32352 0
M  V30 8272 H 762.221 2.84206 3.11135 0
M  V30 8273 H 760.945 1.63186 2.8291 0
M  V30 8274 H 759.604 3.32828 1.53691 0
M  V30 8275 H 759.252 3.05287 3.99761 0
M  V30 8276 H 758.952 4.73199 3.48362 0
M  V30 8277 H 760.476 4.31672 4.31847 0
M  V30 8278 H 761.89 5.27011 2.25681 0
M  V30 8279 H 760.287 5.77126 1.64457 0
M  V30 8280 H 761.357 4.8108 0.60744 0
M  V30 8281 N 762.7 -0.34323 1.53817 0
M  V30 8282 C 763.93 -1.10188 1.74763 0
M  V30 8283 C 764.338 -1.82829 0.486856 0
M  V30 8284 O 763.681 -1.75236 -0.551198 0
M  V30 8285 C 763.743 -2.16 2.87375 0
M  V30 8286 C 763.407 -1.62931 4.26969 0
M  V30 8287 C 764.404 -1.08147 5.08528 0
M  V30 8288 C 762.089 -1.67769 4.73454 0
M  V30 8289 C 764.083 -0.589039 6.34672 0
M  V30 8290 C 761.77 -1.18138 5.99572 0
M  V30 8291 C 762.768 -0.637979 6.80014 0
M  V30 8292 O 762.456 -0.149073 8.03762 0
M  V30 8293 H 762.188 -0.33445 0.587469 0
M  V30 8294 H 764.742 -0.401109 2.01445 0
M  V30 8295 H 762.972 -2.89637 2.56218 0
M  V30 8296 H 764.661 -2.77432 2.96287 0
M  V30 8297 H 765.427 -1.03732 4.73777 0
M  V30 8298 H 761.306 -2.09004 4.10899 0
M  V30 8299 H 764.85 -0.164233 6.97407 0
M  V30 8300 H 760.747 -1.22254 6.33817 0
M  V30 8301 H 761.515 -0.266332 8.18067 0
M  V30 8302 N 764.178 -1.45556 -0.604258 0
M  V30 8303 C 765.141 -1.54091 -1.69672 0
M  V30 8304 C 766.141 -0.420076 -1.55216 0
M  V30 8305 O 767.331 -0.683671 -1.60224 0
M  V30 8306 C 764.463 -1.44063 -3.08964 0
M  V30 8307 H 765.656 -2.51431 -1.6347 0
M  V30 8308 H 763.209 -1.33046 -0.820273 0
M  V30 8309 H 763.944 -0.479201 -3.2074 0
M  V30 8310 H 763.729 -2.25362 -3.20865 0
M  V30 8311 H 765.219 -1.53075 -3.88533 0
M  V30 8312 N 765.656 0.84705 -1.32902 0
M  V30 8313 C 766.903 1.60176 -1.23894 0
M  V30 8314 C 767.231 1.93496 0.197341 0
M  V30 8315 O 766.486 1.58173 1.15238 0
M  V30 8316 C 766.785 2.92663 -2.05142 0
M  V30 8317 C 766.451 2.7874 -3.54422 0
M  V30 8318 C 765.113 2.7465 -3.95121 0
M  V30 8319 C 767.465 2.64128 -4.49317 0
M  V30 8320 C 764.793 2.53837 -5.28946 0
M  V30 8321 C 767.145 2.44849 -5.83294 0
M  V30 8322 C 765.809 2.39156 -6.23186 0
M  V30 8323 H 765.079 0.586127 -0.453361 0
M  V30 8324 H 767.726 0.981994 -1.64405 0
M  V30 8325 H 766.031 3.588 -1.57383 0
M  V30 8326 H 767.728 3.50095 -1.95537 0
M  V30 8327 H 764.318 2.82751 -3.22102 0
M  V30 8328 H 768.502 2.66327 -4.18788 0
M  V30 8329 H 763.758 2.4787 -5.58901 0
M  V30 8330 H 767.932 2.32524 -6.56434 0
M  V30 8331 H 765.559 2.22789 -7.26821 0
M  V30 8332 N 767.134 1.16236 1.06428 0
M  V30 8333 C 768.38 0.944431 1.79467 0
M  V30 8334 C 768.713 -0.526558 1.86925 0
M  V30 8335 O 767.988 -1.39061 1.35986 0
M  V30 8336 C 768.271 1.57092 3.24028 0
M  V30 8337 C 768.124 3.11315 3.24658 0
M  V30 8338 C 769.443 1.26447 4.21544 0
M  V30 8339 H 766.562 0.344521 0.651517 0
M  V30 8340 H 769.204 1.43545 1.24478 0
M  V30 8341 H 767.354 1.15337 3.70985 0
M  V30 8342 H 769.026 3.62042 2.85873 0
M  V30 8343 H 767.269 3.44716 2.6335 0
M  V30 8344 H 767.94 3.50269 4.26633 0
M  V30 8345 H 770.416 1.62581 3.83023 0
M  V30 8346 H 769.292 1.72885 5.20963 0
M  V30 8347 H 769.553 0.183068 4.41721 0
M  V30 8348 N 768.612 -1.24939 0.960631 0
M  V30 8349 C 770.028 -1.45039 0.666018 0
M  V30 8350 C 770.228 -1.86021 -0.774501 0
M  V30 8351 O 769.284 -1.99392 -1.54916 0
M  V30 8352 C 770.597 -2.51775 1.64408 0
M  V30 8353 C 772.145 -2.6561 1.65592 0
M  V30 8354 C 772.62 -3.75536 2.62177 0
M  V30 8355 N 774.111 -3.82954 2.60577 0
M  V30 8356 C 774.846 -4.67517 3.31987 0
M  V30 8357 N 774.342 -5.56321 4.1289 0
M  V30 8358 N 776.135 -4.61535 3.20845 0
M  V30 8359 H 768.286 -0.96632 1.89145 0
M  V30 8360 H 770.549 -0.486034 0.813926 0
M  V30 8361 H 770.255 -2.28534 2.67329 0
M  V30 8362 H 770.129 -3.49804 1.41128 0
M  V30 8363 H 772.516 -2.88212 0.633846 0
M  V30 8364 H 772.597 -1.67962 1.92931 0
M  V30 8365 H 772.241 -3.53684 3.64514 0
M  V30 8366 H 772.171 -4.72682 2.32119 0
M  V30 8367 H 774.662 -3.19478 2.01847 0
M  V30 8368 H 774.975 -6.17787 4.64283 0
M  V30 8369 H 773.32 -5.5601 4.16987 0
M  V30 8370 H 776.511 -3.91169 2.57108 0
M  V30 8371 H 776.684 -5.27214 3.76762 0
M  V30 8372 N 770.09 -0.729906 -1.39679 0
M  V30 8373 C 771.318 -0.285709 -2.04918 0
M  V30 8374 C 771.733 1.07765 -1.55023 0
M  V30 8375 O 771.09 1.67999 -0.712923 0
M  V30 8376 C 771.141 -0.272793 -3.60469 0
M  V30 8377 O 770.862 -1.58233 -4.08527 0
M  V30 8378 C 772.363 0.188199 -4.429 0
M  V30 8379 H 769.583 -0.125758 -0.65911 0
M  V30 8380 H 772.127 -0.992129 -1.78821 0
M  V30 8381 H 770.282 0.384699 -3.85485 0
M  V30 8382 H 770.696 -1.49245 -5.02818 0
M  V30 8383 H 772.17 0.14608 -5.51807 0
M  V30 8384 H 772.647 1.2326 -4.21549 0
M  V30 8385 H 773.253 -0.439541 -4.23023 0
M  V30 8386 N 771.568 1.50203 -0.477153 0
M  V30 8387 C 772.814 2.02658 0.0758507 0
M  V30 8388 C 773.147 1.358 1.38824 0
M  V30 8389 O 772.422 0.485696 1.88338 0
M  V30 8390 C 772.705 3.59208 0.253339 0
M  V30 8391 C 772.558 4.36629 -1.0805 0
M  V30 8392 C 773.877 4.28469 1.00509 0
M  V30 8393 H 770.996 0.736538 0.0260921 0
M  V30 8394 H 773.638 1.79464 -0.623925 0
M  V30 8395 H 771.788 3.79101 0.849378 0
M  V30 8396 H 773.46 4.28292 -1.71358 0
M  V30 8397 H 771.703 4.0013 -1.67566 0
M  V30 8398 H 772.374 5.44449 -0.909883 0
M  V30 8399 H 774.85 4.13087 0.499818 0
M  V30 8400 H 773.726 5.37804 1.09808 0
M  V30 8401 H 773.987 3.92057 2.04314 0
M  V30 8402 N 773.046 0.209999 1.56195 0
M  V30 8403 C 773.978 -0.736967 2.17029 0
M  V30 8404 C 774.991 -1.16599 1.13616 0
M  V30 8405 O 776.18 -1.09914 1.40646 0
M  V30 8406 C 773.28 -2.00852 2.72969 0
M  V30 8407 C 772.453 -1.73691 4.01435 0
M  V30 8408 C 771.512 -2.85439 4.42053 0
M  V30 8409 O 770.538 -2.54405 5.09183 0
M  V30 8410 N 771.74 -4.14135 4.06783 0
M  V30 8411 H 774.505 -0.216656 2.98916 0
M  V30 8412 H 772.066 0.0285672 1.61875 0
M  V30 8413 H 774.058 -2.74778 2.97118 0
M  V30 8414 H 772.628 -2.43963 1.95451 0
M  V30 8415 H 771.848 -0.834676 3.85262 0
M  V30 8416 H 773.136 -1.52961 4.85263 0
M  V30 8417 H 772.534 -4.42196 3.52816 0
M  V30 8418 H 771.091 -4.84642 4.35851 0
M  V30 8419 N 774.524 -1.57472 -0.0634922 0
M  V30 8420 C 775.801 -1.78736 -0.794538 0
M  V30 8421 C 776.181 -0.799645 -1.95369 0
M  V30 8422 O 775.529 0.165521 -2.279 0
M  V30 8423 C 775.739 -3.25471 -1.25975 0
M  V30 8424 C 777.087 -3.89528 -1.68976 0
M  V30 8425 O 778.111 -3.29412 -1.35521 0
M  V30 8426 O 776.97 -4.95305 -2.30944 0
M  V30 8427 H 774.064 -0.733813 -0.381376 0
M  V30 8428 H 776.61 -1.69646 -0.0429258 0
M  V30 8429 H 775.382 -3.88922 -0.430721 0
M  V30 8430 H 775.005 -3.39317 -2.07243 0
M  V30 8431 N 776.003 0.335068 -1.53997 0
M  V30 8432 C 776.935 1.4327 -1.78903 0
M  V30 8433 C 777.948 1.48347 -0.670598 0
M  V30 8434 O 779.137 1.51277 -0.947494 0
M  V30 8435 C 776.237 2.81878 -1.88144 0
M  V30 8436 C 775.41 3.00141 -3.18174 0
M  V30 8437 C 774.469 4.19041 -3.18263 0
M  V30 8438 O 773.495 4.12751 -3.9195 0
M  V30 8439 N 774.697 5.28004 -2.41231 0
M  V30 8440 H 777.462 1.22272 -2.73623 0
M  V30 8441 H 775.023 0.524996 -1.53152 0
M  V30 8442 H 777.015 3.59609 -1.85644 0
M  V30 8443 H 775.585 2.9598 -1.00572 0
M  V30 8444 H 774.805 2.09808 -3.33728 0
M  V30 8445 H 776.093 3.0923 -4.04047 0
M  V30 8446 H 775.491 5.35986 -1.8093 0
M  V30 8447 H 774.048 6.04196 -2.44521 0
M  V30 8448 N 777.481 1.45874 0.596531 0
M  V30 8449 C 778.431 1.5181 1.70111 0
M  V30 8450 C 779.415 0.380293 1.56341 0
M  V30 8451 O 780.607 0.627849 1.6549 0
M  V30 8452 C 777.736 1.49822 3.08883 0
M  V30 8453 C 776.822 2.68845 3.27998 0
M  V30 8454 N 777.213 3.93873 3.17329 0
M  V30 8455 C 775.511 2.64777 3.589 0
M  V30 8456 C 776.212 4.73371 3.38076 0
M  V30 8457 N 775.188 4.0501 3.62585 0
M  V30 8458 H 778.99 2.46289 1.60372 0
M  V30 8459 H 776.504 1.41321 0.800138 0
M  V30 8460 H 778.501 1.5216 3.8814 0
M  V30 8461 H 777.161 0.564086 3.19763 0
M  V30 8462 H 778.172 4.25329 2.95492 0
M  V30 8463 H 774.849 1.80323 3.7655 0
M  V30 8464 H 776.239 5.82357 3.35127 0
M  V30 8465 N 778.959 -0.83999 1.33349 0
M  V30 8466 C 780.205 -1.59753 1.24927 0
M  V30 8467 C 780.538 -1.93318 -0.184855 0
M  V30 8468 O 779.813 -1.586 -1.12589 0
M  V30 8469 C 780.096 -2.90829 2.12345 0
M  V30 8470 C 779.949 -2.63953 3.6421 0
M  V30 8471 C 781.268 -3.92246 1.99577 0
M  V30 8472 H 778.387 -0.579654 0.45516 0
M  V30 8473 H 781.029 -0.968909 1.63439 0
M  V30 8474 H 779.179 -3.44478 1.79631 0
M  V30 8475 H 780.851 -2.16745 4.07209 0
M  V30 8476 H 779.094 -1.97671 3.86146 0
M  V30 8477 H 779.765 -3.57348 4.20721 0
M  V30 8478 H 782.241 -3.479 2.28265 0
M  V30 8479 H 781.117 -4.81793 2.62996 0
M  V30 8480 H 781.378 -4.3138 0.967673 0
M  V30 8481 N 780.437 -1.16799 -1.0581 0
M  V30 8482 C 781.685 -0.950642 -1.78346 0
M  V30 8483 C 782.006 0.522524 -1.87869 0
M  V30 8484 O 781.276 1.3795 -1.39092 0
M  V30 8485 H 779.856 -0.348736 -0.6606 0
M  V30 8486 H 782.518 -1.47158 -1.27791 0
M  V30 8487 H 781.614 -1.37359 -2.80248 0
M  V30 8488 N 781.915 1.24427 -0.967243 0
M  V30 8489 C 783.161 1.92772 -0.629812 0
M  V30 8490 C 783.494 1.75436 0.832827 0
M  V30 8491 O 782.769 1.10716 1.59913 0
M  V30 8492 C 783.052 3.45798 -1.00477 0
M  V30 8493 C 782.905 3.72304 -2.52407 0
M  V30 8494 C 784.224 4.36787 -0.538999 0
M  V30 8495 H 781.343 0.700099 -0.230282 0
M  V30 8496 H 783.985 1.46805 -1.20616 0
M  V30 8497 H 782.135 3.8508 -0.514336 0
M  V30 8498 H 783.807 3.42584 -3.08924 0
M  V30 8499 H 782.05 3.17472 -2.95625 0
M  V30 8500 H 782.721 4.7937 -2.73693 0
M  V30 8501 H 785.197 4.04877 -0.959874 0
M  V30 8502 H 784.073 5.4259 -0.829926 0
M  V30 8503 H 784.334 4.38527 0.560923 0
M  V30 8504 N 783.393 0.737304 1.3929 0
M  V30 8505 C 784.639 0.286681 2.00763 0
M  V30 8506 C 784.972 -1.12388 1.58375 0
M  V30 8507 O 784.247 -1.76661 0.813699 0
M  V30 8508 C 784.53 0.391147 3.57969 0
M  V30 8509 C 784.383 1.84165 4.1037 0
M  V30 8510 C 785.702 -0.225072 4.39524 0
M  V30 8511 H 782.821 0.105642 0.729389 0
M  V30 8512 H 785.463 0.933892 1.65464 0
M  V30 8513 H 783.613 -0.159875 3.88171 0
M  V30 8514 H 785.285 2.44972 3.90879 0
M  V30 8515 H 783.528 2.3622 3.63844 0
M  V30 8516 H 784.199 1.866 5.19504 0
M  V30 8517 H 786.675 0.244677 4.1538 0
M  V30 8518 H 785.551 -0.121646 5.48765 0
M  V30 8519 H 785.812 -1.31141 4.22202 0
M  V30 8520 N 784.871 -1.49948 0.485112 0
M  V30 8521 C 785.801 -2.31675 -0.291364 0
M  V30 8522 C 786.782 -1.39216 -0.977383 0
M  V30 8523 O 787.967 -1.68133 -0.971855 0
M  V30 8524 C 785.097 -3.19326 -1.36558 0
M  V30 8525 C 784.051 -4.2045 -0.800359 0
M  V30 8526 C 783.377 -4.96931 -1.97391 0
M  V30 8527 C 784.677 -5.21925 0.197867 0
M  V30 8528 H 786.371 -2.96839 0.390775 0
M  V30 8529 H 783.917 -1.42749 0.189375 0
M  V30 8530 H 785.87 -3.75304 -1.91638 0
M  V30 8531 H 784.594 -2.52074 -2.07668 0
M  V30 8532 H 783.253 -3.65594 -0.271428 0
M  V30 8533 H 782.901 -4.26141 -2.67232 0
M  V30 8534 H 782.601 -5.65344 -1.60187 0
M  V30 8535 H 784.125 -5.55749 -2.52935 0
M  V30 8536 H 785.539 -5.72691 -0.264239 0
M  V30 8537 H 783.936 -5.98138 0.484908 0
M  V30 8538 H 785.006 -4.71809 1.11912 0
M  V30 8539 N 786.349 -0.21828 -1.56081 0
M  V30 8540 C 787.297 0.709679 -2.21509 0
M  V30 8541 C 788.291 1.20221 -1.19346 0
M  V30 8542 O 789.497 1.16241 -1.37433 0
M  V30 8543 H 785.872 0.247271 -0.710184 0
M  V30 8544 H 787.843 0.134386 -2.98097 0
M  V30 8545 C 786.592 1.90853 -2.90638 0
M  V30 8546 H 785.915 1.53865 -3.69006 0
M  V30 8547 H 787.355 2.53568 -3.39822 0
M  V30 8548 C 785.814 2.76189 -1.92929 0
M  V30 8549 O 786.344 3.74842 -1.44416 0
M  V30 8550 N 784.55 2.42157 -1.6065 0
M  V30 8551 H 784.097 1.61987 -2.00294 0
M  V30 8552 H 784.055 2.99534 -0.955347 0
M  V30 8553 N 787.827 1.57504 0.0551401 0
M  V30 8554 C 788.775 2.05884 1.08233 0
M  V30 8555 C 789.769 0.967383 1.39061 0
M  V30 8556 O 790.975 1.15242 1.38273 0
M  V30 8557 H 787.35 0.656673 0.366449 0
M  V30 8558 H 789.321 2.91273 0.648269 0
M  V30 8559 C 788.07 2.53221 2.38273 0
M  V30 8560 H 787.393 3.36809 2.15406 0
M  V30 8561 H 788.833 2.9081 3.08554 0
M  V30 8562 C 787.292 1.42218 3.05411 0
M  V30 8563 O 787.822 0.773638 3.9418 0
M  V30 8564 N 786.028 1.16316 2.66306 0
M  V30 8565 H 785.575 1.69237 1.94207 0
M  V30 8566 H 785.533 0.422534 3.11548 0
M  V30 8567 N 789.305 -0.326896 1.54172 0
M  V30 8568 C 790.721 -0.671034 1.44808 0
M  V30 8569 C 790.921 -1.91781 0.618258 0
M  V30 8570 O 789.977 -2.52235 0.115751 0
M  V30 8571 C 791.29 -0.848147 2.88491 0
M  V30 8572 C 792.838 -0.945702 2.98371 0
M  V30 8573 C 793.313 -1.15501 4.43197 0
M  V30 8574 N 794.804 -1.22183 4.46795 0
M  V30 8575 C 795.539 -1.4016 5.56006 0
M  V30 8576 N 795.035 -1.55202 6.75192 0
M  V30 8577 N 796.828 -1.42841 5.43648 0
M  V30 8578 H 788.979 0.49262 2.06608 0
M  V30 8579 H 791.242 0.158574 0.934643 0
M  V30 8580 H 790.948 -0.00329969 3.517 0
M  V30 8581 H 790.822 -1.74497 3.34411 0
M  V30 8582 H 793.209 -1.78106 2.35292 0
M  V30 8583 H 793.29 -0.0254215 2.55787 0
M  V30 8584 H 792.934 -0.324521 5.06862 0
M  V30 8585 H 792.864 -2.08911 4.83388 0
M  V30 8586 H 795.355 -1.12016 3.60917 0
M  V30 8587 H 795.668 -1.68601 7.54184 0
M  V30 8588 H 794.013 -1.52306 6.78106 0
M  V30 8589 H 797.204 -1.30683 4.49488 0
M  V30 8590 H 797.377 -1.56509 6.28816 0
M  V30 8591 N 790.784 -1.46188 -0.588786 0
M  V30 8592 C 792.032 -1.50885 -1.34455 0
M  V30 8593 C 792.353 -0.159555 -1.94346 0
M  V30 8594 O 791.623 0.813239 -1.78222 0
M  V30 8595 H 790.203 -0.555707 -0.499198 0
M  V30 8596 H 792.865 -1.82277 -0.690014 0
M  V30 8597 H 791.961 -2.25816 -2.15438 0
M  V30 8598 N 792.262 0.832906 -1.33792 0
M  V30 8599 C 793.172 1.97514 -1.26592 0
M  V30 8600 C 794.188 1.73114 -0.175391 0
M  V30 8601 O 795.364 1.97387 -0.400062 0
M  V30 8602 C 792.429 3.31625 -1.01121 0
M  V30 8603 C 791.49 3.69101 -2.19233 0
M  V30 8604 C 790.723 4.96813 -1.94968 0
M  V30 8605 O 790.946 5.63208 -0.902955 0
M  V30 8606 O 789.88 5.31932 -2.8166 0
M  V30 8607 H 793.706 2.0653 -2.22664 0
M  V30 8608 H 791.291 0.966826 -1.13898 0
M  V30 8609 H 793.173 4.11968 -0.886571 0
M  V30 8610 H 791.848 3.23599 -0.080822 0
M  V30 8611 H 790.755 2.89243 -2.37253 0
M  V30 8612 H 792.088 3.818 -3.10628 0
M  V30 8613 N 793.74 1.17359 1.05189 0
M  V30 8614 C 794.687 0.890325 2.12936 0
M  V30 8615 C 795.657 -0.165779 1.65271 0
M  V30 8616 O 796.842 -0.0285672 1.90779 0
M  V30 8617 C 793.982 0.409793 3.42658 0
M  V30 8618 C 793.095 1.53002 4.03998 0
M  V30 8619 C 792.23 1.00336 5.21638 0
M  V30 8620 C 791.269 2.09903 5.74984 0
M  V30 8621 N 790.406 1.58714 6.83926 0
M  V30 8622 H 795.246 1.81299 2.36505 0
M  V30 8623 H 792.783 0.904249 1.16025 0
M  V30 8624 H 794.741 0.112743 4.17048 0
M  V30 8625 H 793.371 -0.475915 3.19272 0
M  V30 8626 H 792.423 1.9428 3.27047 0
M  V30 8627 H 793.735 2.3564 4.39631 0
M  V30 8628 H 792.889 0.660158 6.03098 0
M  V30 8629 H 791.628 0.14642 4.8748 0
M  V30 8630 H 790.633 2.45081 4.92154 0
M  V30 8631 H 791.858 2.96013 6.1119 0
M  V30 8632 H 789.804 0.752915 6.51665 0
M  V30 8633 H 789.721 2.34959 7.18561 0
M  V30 8634 H 790.989 1.27287 7.69037 0
M  V30 8635 N 795.218 -1.23913 0.973828 0
M  V30 8636 C 796.15 -2.24397 0.466763 0
M  V30 8637 C 797.163 -1.57078 -0.427828 0
M  V30 8638 O 798.352 -1.76973 -0.233019 0
M  V30 8639 C 795.452 -3.37141 -0.344798 0
M  V30 8640 C 794.625 -4.34037 0.541349 0
M  V30 8641 C 793.684 -5.2576 -0.215243 0
M  V30 8642 O 792.71 -5.67842 0.39291 0
M  V30 8643 N 793.912 -5.60702 -1.5031 0
M  V30 8644 H 796.677 -2.68536 1.33074 0
M  V30 8645 H 794.238 -1.38017 0.846346 0
M  V30 8646 H 796.23 -3.95476 -0.859133 0
M  V30 8647 H 794.8 -2.92239 -1.10974 0
M  V30 8648 H 794.02 -3.74302 1.23659 0
M  V30 8649 H 795.308 -4.95738 1.1455 0
M  V30 8650 H 794.706 -5.28451 -2.01882 0
M  V30 8651 H 793.263 -6.21538 -1.96301 0
M  V30 8652 N 796.696 -0.74468 -1.38897 0
M  V30 8653 C 797.924 -0.307428 -2.04603 0
M  V30 8654 C 798.339 1.06115 -1.56157 0
M  V30 8655 O 797.696 1.67233 -0.730701 0
M  V30 8656 C 797.747 -0.31101 -3.6016 0
M  V30 8657 O 797.468 -1.62557 -4.06825 0
M  V30 8658 C 798.969 0.141213 -4.43075 0
M  V30 8659 H 796.189 -0.132741 -0.657739 0
M  V30 8660 H 798.733 -1.01104 -1.77759 0
M  V30 8661 H 796.888 0.343792 -3.85872 0
M  V30 8662 H 797.302 -1.54569 -5.01207 0
M  V30 8663 H 798.776 0.0875449 -5.51931 0
M  V30 8664 H 799.253 1.18782 -4.22833 0
M  V30 8665 H 799.859 -0.484383 -4.22533 0
M  V30 8666 N 798.174 1.49689 -0.493057 0
M  V30 8667 C 799.42 2.02727 0.0543518 0
M  V30 8668 C 799.753 1.37264 1.37376 0
M  V30 8669 O 799.028 0.505644 1.87812 0
M  V30 8670 C 799.311 3.59456 0.215226 0
M  V30 8671 C 799.164 4.35459 -1.12675 0
M  V30 8672 C 800.483 4.29511 0.959586 0
M  V30 8673 H 797.602 0.736773 0.0182786 0
M  V30 8674 H 800.244 1.78792 -0.642924 0
M  V30 8675 H 798.394 3.79981 0.809122 0
M  V30 8676 H 800.066 4.2645 -1.75891 0
M  V30 8677 H 798.309 3.9833 -1.71801 0
M  V30 8678 H 798.98 5.43454 -0.967578 0
M  V30 8679 H 801.456 4.13594 0.455977 0
M  V30 8680 H 800.332 5.38939 1.04098 0
M  V30 8681 H 800.593 3.94202 2.00144 0
M  V30 8682 N 799.652 0.226554 1.55963 0
M  V30 8683 C 800.582 -0.676079 2.23498 0
M  V30 8684 C 801.563 -1.19718 1.20837 0
M  V30 8685 O 802.748 -1.24027 1.49436 0
M  V30 8686 C 799.878 -1.88217 2.91876 0
M  V30 8687 C 798.832 -1.4947 4.01052 0
M  V30 8688 C 798.158 -2.77997 4.56751 0
M  V30 8689 C 799.458 -0.680951 5.17842 0
M  V30 8690 H 801.152 -0.112989 2.99187 0
M  V30 8691 H 798.698 -0.0529046 1.43903 0
M  V30 8692 H 800.651 -2.51911 3.37815 0
M  V30 8693 H 799.375 -2.47031 2.13643 0
M  V30 8694 H 798.034 -0.881199 3.55852 0
M  V30 8695 H 797.682 -3.34966 3.75243 0
M  V30 8696 H 797.382 -2.52803 5.30438 0
M  V30 8697 H 798.906 -3.42625 5.05411 0
M  V30 8698 H 800.32 -1.22171 5.60131 0
M  V30 8699 H 798.717 -0.525898 5.97791 0
M  V30 8700 H 799.787 0.311346 4.83899 0
M  V30 8701 N 801.13 -1.57531 -0.0467866 0
M  V30 8702 C 802.06 -2.08425 -1.05268 0
M  V30 8703 C 803.041 -0.982941 -1.38825 0
M  V30 8704 O 804.226 -1.25716 -1.48018 0
M  V30 8705 C 801.356 -2.54897 -2.35891 0
M  V30 8706 C 800.31 -3.69132 -2.16623 0
M  V30 8707 C 799.636 -4.01747 -3.52851 0
M  V30 8708 C 800.936 -4.98243 -1.56689 0
M  V30 8709 H 802.63 -2.92716 -0.62908 0
M  V30 8710 H 800.176 -1.40816 -0.301156 0
M  V30 8711 H 802.129 -2.8912 -3.06574 0
M  V30 8712 H 800.853 -1.67666 -2.80278 0
M  V30 8713 H 799.512 -3.35231 -1.48377 0
M  V30 8714 H 799.16 -3.11608 -3.94853 0
M  V30 8715 H 798.86 -4.78681 -3.4079 0
M  V30 8716 H 800.384 -4.38487 -4.24925 0
M  V30 8717 H 801.798 -5.30535 -2.17268 0
M  V30 8718 H 800.195 -5.79669 -1.55255 0
M  V30 8719 H 801.265 -4.81986 -0.530827 0
M  V30 8720 N 802.608 0.318715 -1.54344 0
M  V30 8721 C 803.54 1.41364 -1.80413 0
M  V30 8722 C 804.553 1.47627 -0.686294 0
M  V30 8723 O 805.742 1.50264 -0.963486 0
M  V30 8724 C 802.842 2.79867 -1.91123 0
M  V30 8725 C 802.015 2.96749 -3.21339 0
M  V30 8726 C 801.074 4.15642 -3.22689 0
M  V30 8727 O 800.1 4.08571 -3.96306 0
M  V30 8728 N 801.302 5.25416 -2.46817 0
M  V30 8729 H 804.067 1.19363 -2.74905 0
M  V30 8730 H 801.628 0.508722 -1.537 0
M  V30 8731 H 803.62 3.57619 -1.89448 0
M  V30 8732 H 802.19 2.94896 -1.03706 0
M  V30 8733 H 801.41 2.06257 -3.35934 0
M  V30 8734 H 802.698 3.04927 -4.07304 0
M  V30 8735 H 802.096 5.34037 -1.86605 0
M  V30 8736 H 800.653 6.01569 -2.50915 0
M  V30 8737 N 804.086 1.46499 0.581025 0
M  V30 8738 C 805.332 1.52121 1.34116 0
M  V30 8739 C 805.665 0.173031 1.93428 0
M  V30 8740 O 804.94 -0.815729 1.76568 0
M  V30 8741 C 805.223 2.62108 2.46924 0
M  V30 8742 C 805.076 4.06462 1.92636 0
M  V30 8743 C 806.395 2.68167 3.48962 0
M  V30 8744 H 803.514 0.5538 0.486287 0
M  V30 8745 H 806.156 1.78443 0.652538 0
M  V30 8746 H 804.306 2.39794 3.05665 0
M  V30 8747 H 805.978 4.40068 1.3834 0
M  V30 8748 H 804.221 4.15862 1.23455 0
M  V30 8749 H 804.892 4.79152 2.74076 0
M  V30 8750 H 807.368 2.8823 3.00104 0
M  V30 8751 H 806.244 3.46942 4.2535 0
M  V30 8752 H 806.505 1.74284 4.06297 0
M  V30 8753 N 805.565 -0.825799 1.34232 0
M  V30 8754 C 806.976 -1.39835 1.23706 0
M  V30 8755 C 807.327 -1.95709 -0.138649 0
M  V30 8756 O 806.452 -1.89833 -1.03886 0
M  V30 8757 C 807.047 -2.54203 2.23978 0
M  V30 8758 C 805.606 -3.07374 2.17251 0
M  V30 8759 C 804.753 -1.80232 2.10741 0
M  V30 8760 H 807.704 -0.630442 1.4564 0
M  V30 8761 H 807.725 -3.32214 1.8551 0
M  V30 8762 H 807.237 -2.13506 3.24094 0
M  V30 8763 H 805.338 -3.52583 1.20483 0
M  V30 8764 H 805.451 -3.6666 3.08379 0
M  V30 8765 H 803.815 -2.01012 1.56417 0
M  V30 8766 H 804.598 -1.41713 3.12686 0
M  V30 8767 N 807.043 -1.17915 -1.04565 0
M  V30 8768 C 807.953 -0.916449 -2.15959 0
M  V30 8769 C 808.969 0.117655 -1.73602 0
M  V30 8770 O 810.145 -0.063089 -2.01301 0
M  V30 8771 C 807.21 -0.440262 -3.43893 0
M  V30 8772 C 806.271 -1.54172 -4.00661 0
M  V30 8773 C 805.504 -1.08816 -5.22489 0
M  V30 8774 O 805.727 0.0551547 -5.70373 0
M  V30 8775 O 804.661 -1.88383 -5.7166 0
M  V30 8776 H 808.487 -1.8484 -2.40972 0
M  V30 8777 H 806.072 -0.960552 -1.14428 0
M  V30 8778 H 807.954 -0.182537 -4.21004 0
M  V30 8779 H 806.629 0.46346 -3.20365 0
M  V30 8780 H 805.536 -1.85341 -3.24961 0
M  V30 8781 H 806.869 -2.42139 -4.2852 0
M  V30 8782 N 808.521 1.23394 -0.980386 0
M  V30 8783 C 809.746 1.96384 -0.666935 0
M  V30 8784 C 810.171 1.72087 0.759456 0
M  V30 8785 O 809.529 0.992328 1.51732 0
M  V30 8786 C 809.577 3.47499 -0.963177 0
M  V30 8787 O 808.681 4.12363 -0.0552051 0
M  V30 8788 H 808.022 0.614797 -0.250839 0
M  V30 8789 H 810.552 1.56831 -1.31398 0
M  V30 8790 H 810.562 3.97953 -0.899877 0
M  V30 8791 H 809.237 3.6451 -2.00264 0
M  V30 8792 H 807.814 3.72499 -0.172914 0
M  V30 8793 N 809.999 0.752036 1.385 0
M  V30 8794 C 811.247 0.306895 1.99756 0
M  V30 8795 C 811.568 -1.11478 1.59992 0
M  V30 8796 O 810.838 -1.76206 0.856045 0
M  V30 8797 H 809.418 0.11048 0.738785 0
M  V30 8798 H 812.08 0.965785 1.69289 0
M  V30 8799 H 811.176 0.368797 3.09913 0
M  V30 8800 N 811.477 -1.49425 0.500989 0
M  V30 8801 C 812.725 -2.02053 -0.0434495 0
M  V30 8802 C 813.046 -1.38285 -1.37486 0
M  V30 8803 O 812.316 -0.538171 -1.88363 0
M  V30 8804 H 810.896 -0.746757 -0.0190469 0
M  V30 8805 H 813.558 -1.83449 0.658227 0
M  V30 8806 H 812.654 -3.11619 -0.173129 0
M  V30 8807 N 812.955 -0.234822 -1.55841 0
M  V30 8808 C 813.902 0.6698 -2.20867 0
M  V30 8809 C 814.872 1.18042 -1.16856 0
M  V30 8810 O 816.057 1.23709 -1.45261 0
M  V30 8811 C 813.197 1.86646 -2.90271 0
M  V30 8812 C 812.31 1.39351 -4.08908 0
M  V30 8813 C 811.445 2.54878 -4.66059 0
M  V30 8814 C 810.484 2.04384 -5.76969 0
M  V30 8815 N 809.621 3.13233 -6.28355 0
M  V30 8816 H 814.461 0.10858 -2.97802 0
M  V30 8817 H 811.998 0.041836 -1.4704 0
M  V30 8818 H 813.956 2.56926 -3.28702 0
M  V30 8819 H 812.586 2.40035 -2.15831 0
M  V30 8820 H 811.638 0.585173 -3.75872 0
M  V30 8821 H 812.95 0.983356 -4.89011 0
M  V30 8822 H 812.104 3.33219 -5.07001 0
M  V30 8823 H 810.843 2.99188 -3.85146 0
M  V30 8824 H 809.848 1.24509 -5.35516 0
M  V30 8825 H 811.073 1.61057 -6.59725 0
M  V30 8826 H 809.019 3.57 -5.50352 0
M  V30 8827 H 808.936 2.76511 -7.03618 0
M  V30 8828 H 810.204 3.91669 -6.73955 0
M  V30 8829 N 814.433 1.57553 0.0384317 0
M  V30 8830 C 815.661 1.93093 0.743141 0
M  V30 8831 C 816.076 0.833787 1.69391 0
M  V30 8832 O 815.433 -0.190532 1.81503 0
M  V30 8833 C 815.484 3.28533 1.50826 0
M  V30 8834 O 815.205 4.34032 0.595665 0
M  V30 8835 C 816.706 3.78297 2.31098 0
M  V30 8836 H 813.926 0.637486 0.20941 0
M  V30 8837 H 816.47 2.045 -0.00125154 0
M  V30 8838 H 814.625 3.18552 2.20462 0
M  V30 8839 H 815.039 5.12155 1.13124 0
M  V30 8840 H 816.513 4.75602 2.80191 0
M  V30 8841 H 816.99 3.09008 3.12107 0
M  V30 8842 H 817.596 3.91331 1.66555 0
M  V30 8843 N 815.911 -0.310526 1.54511 0
M  V30 8844 C 817.157 -1.04459 1.74528 0
M  V30 8845 C 817.512 -1.85251 0.519613 0
M  V30 8846 O 816.805 -1.85281 -0.488001 0
M  V30 8847 C 816.999 -1.98942 2.96912 0
M  V30 8848 C 816.828 -1.27442 4.31264 0
M  V30 8849 C 815.598 -1.00552 4.95194 0
M  V30 8850 C 817.796 -0.683695 5.09735 0
M  V30 8851 N 815.778 -0.259797 6.1335 0
M  V30 8852 C 817.149 -0.0702549 6.1996 0
M  V30 8853 C 819.204 -0.587799 4.94418 0
M  V30 8854 C 817.907 0.629791 7.16538 0
M  V30 8855 C 819.933 0.0985719 5.91318 0
M  V30 8856 C 819.295 0.700902 7.00904 0
M  V30 8857 H 815.394 -0.365496 0.69133 0
M  V30 8858 H 817.978 -0.324277 1.91981 0
M  V30 8859 H 816.149 -2.68233 2.80902 0
M  V30 8860 H 817.881 -2.6543 3.05498 0
M  V30 8861 H 814.636 -1.30123 4.55374 0
M  V30 8862 H 815.06 0.099301 6.76927 0
M  V30 8863 H 819.702 -1.03919 4.0983 0
M  V30 8864 H 817.42 1.09298 8.00674 0
M  V30 8865 H 821.006 0.172585 5.81544 0
M  V30 8866 H 819.886 1.22357 7.74596 0
M  V30 8867 N 817.389 -1.46805 -0.573248 0
M  V30 8868 C 818.319 -1.60951 -1.69165 0
M  V30 8869 C 819.3 -0.45948 -1.63777 0
M  V30 8870 O 820.485 -0.68688 -1.81647 0
M  V30 8871 C 817.615 -1.60844 -3.07809 0
M  V30 8872 C 816.569 -2.74913 -3.28035 0
M  V30 8873 C 815.895 -2.59871 -4.67302 0
M  V30 8874 C 817.195 -4.16654 -3.14955 0
M  V30 8875 H 818.889 -2.54574 -1.57582 0
M  V30 8876 H 816.435 -1.22516 -0.756686 0
M  V30 8877 H 818.388 -1.69334 -3.85881 0
M  V30 8878 H 817.112 -0.637714 -3.20314 0
M  V30 8879 H 815.771 -2.65908 -2.52366 0
M  V30 8880 H 815.419 -1.60861 -4.76585 0
M  V30 8881 H 815.119 -3.36386 -4.81786 0
M  V30 8882 H 816.643 -2.70265 -5.4753 0
M  V30 8883 H 818.057 -4.26721 -3.82861 0
M  V30 8884 H 816.454 -4.93831 -3.40956 0
M  V30 8885 H 817.524 -4.36146 -2.11908 0
M  V30 8886 N 818.867 0.818669 -1.34668 0
M  V30 8887 C 820.144 1.56118 -1.17841 0
M  V30 8888 C 820.524 2.09646 0.24731 0
M  V30 8889 O 819.872 1.91329 1.24922 0
M  V30 8890 C 820.082 2.67922 -2.23649 0
M  V30 8891 C 821.43 3.36579 -2.58843 0
M  V30 8892 O 822.454 2.78182 -2.22471 0
M  V30 8893 O 821.313 4.42045 -3.21339 0
M  V30 8894 H 818.407 0.689216 -0.457067 0
M  V30 8895 H 820.953 0.859674 -1.46314 0
M  V30 8896 H 819.725 2.26153 -3.19328 0
M  V30 8897 H 819.348 3.45719 -1.96377 0
M  V30 8898 N 820.346 1.18468 1.03938 0
M  V30 8899 C 821.586 0.991823 1.78724 0
M  V30 8900 C 821.95 -0.470115 1.86156 0
M  V30 8901 O 823.151 -0.782451 2.5716 0
M  V30 8902 C 821.422 1.63018 3.18056 0
M  V30 8903 S 822.981 1.58527 4.09163 0
M  V30 8904 H 819.799 0.356137 0.615376 0
M  V30 8905 H 822.401 1.50634 1.24618 0
M  V30 8906 H 821.105 2.68642 3.10258 0
M  V30 8907 H 820.636 1.11601 3.77238 0
M  V30 8908 H 822.651 0.602059 4.92534 0
M  V30 8909 N 821.824 -1.22873 0.986916 0
M  V30 8910 C 822.754 -2.2688 0.552064 0
M  V30 8911 C 823.735 -1.64883 -0.418048 0
M  V30 8912 O 824.92 -1.9171 -0.30999 0
M  V30 8913 C 822.05 -3.47018 -0.139959 0
M  V30 8914 C 821.004 -4.21411 0.748091 0
M  V30 8915 C 820.33 -5.34645 -0.0765132 0
M  V30 8916 C 821.63 -4.80726 2.04206 0
M  V30 8917 H 823.324 -2.63507 1.42143 0
M  V30 8918 H 820.87 -1.26668 0.68492 0
M  V30 8919 H 822.823 -4.18931 -0.455527 0
M  V30 8920 H 821.547 -3.0947 -1.04382 0
M  V30 8921 H 820.206 -3.51325 1.04721 0
M  V30 8922 H 819.854 -4.93339 -0.981109 0
M  V30 8923 H 819.554 -5.85342 0.514606 0
M  V30 8924 H 821.078 -6.09377 -0.386313 0
M  V30 8925 H 822.492 -5.44612 1.79083 0
M  V30 8926 H 820.889 -5.41737 2.5815 0
M  V30 8927 H 821.959 -4.01109 2.72469 0
M  V30 8928 N 823.302 -0.75937 -1.38099 0
M  V30 8929 C 824.53 -0.329111 -2.04266 0
M  V30 8930 C 824.945 1.04453 -1.57274 0
M  V30 8931 O 824.302 1.66449 -0.748397 0
M  V30 8932 C 824.353 -0.349192 -3.5981 0
M  V30 8933 O 824.074 -1.66863 -4.05078 0
M  V30 8934 C 825.575 0.0942106 -4.432 0
M  V30 8935 H 822.795 -0.13971 -0.656294 0
M  V30 8936 H 825.339 -1.02984 -1.76677 0
M  V30 8937 H 823.494 0.302846 -3.86214 0
M  V30 8938 H 823.908 -1.59877 -4.9954 0
M  V30 8939 H 825.382 0.0290004 -5.51992 0
M  V30 8940 H 825.859 1.1429 -4.24069 0
M  V30 8941 H 826.465 -0.529171 -4.21995 0
M  V30 8942 N 824.78 1.49157 -0.508906 0
M  V30 8943 C 826.028 2.02073 0.0327335 0
M  V30 8944 C 826.349 1.39012 1.3675 0
M  V30 8945 O 825.619 0.548153 1.88075 0
M  V30 8946 H 824.199 0.746848 0.0150864 0
M  V30 8947 H 826.861 1.83097 -0.667946 0
M  V30 8948 H 825.957 3.11707 0.1566 0
M  V30 8949 N 826.258 0.243083 1.55714 0
M  V30 8950 C 827.168 -0.668913 2.24862 0
M  V30 8951 C 828.184 -1.19638 1.26344 0
M  V30 8952 O 829.36 -1.23345 1.5921 0
M  V30 8953 C 826.425 -1.85084 2.93163 0
M  V30 8954 C 825.486 -1.36323 4.07081 0
M  V30 8955 C 824.719 -2.48882 4.72116 0
M  V30 8956 O 824.942 -3.67523 4.36214 0
M  V30 8957 O 823.876 -2.18857 5.60701 0
M  V30 8958 H 827.702 -0.109737 3.03502 0
M  V30 8959 H 825.287 0.0117411 1.49395 0
M  V30 8960 H 827.169 -2.54065 3.36197 0
M  V30 8961 H 825.844 -2.39771 2.17466 0
M  V30 8962 H 824.751 -0.640804 3.68571 0
M  V30 8963 H 826.084 -0.86249 4.84584 0
M  V30 8964 N 827.736 -1.57571 -0.0300757 0
M  V30 8965 C 828.646 -2.09892 -1.04798 0
M  V30 8966 C 829.662 -1.03732 -1.39698 0
M  V30 8967 O 830.838 -1.35461 -1.49038 0
M  V30 8968 C 827.903 -2.56707 -2.33028 0
M  V30 8969 C 826.964 -3.77345 -2.04718 0
M  V30 8970 C 826.197 -4.21918 -3.26834 0
M  V30 8971 O 826.42 -3.66025 -4.37472 0
M  V30 8972 O 825.354 -5.14362 -3.12594 0
M  V30 8973 H 829.18 -2.97023 -0.633344 0
M  V30 8974 H 826.765 -1.47344 -0.246991 0
M  V30 8975 H 828.647 -2.87154 -3.08417 0
M  V30 8976 H 827.322 -1.72688 -2.73789 0
M  V30 8977 H 826.229 -3.51919 -1.26901 0
M  V30 8978 H 827.562 -4.62345 -1.68813 0
M  V30 8979 N 829.214 0.302327 -1.54673 0
M  V30 8980 C 830.46 1.03924 -1.74149 0
M  V30 8981 C 830.793 1.86968 -0.525041 0
M  V30 8982 O 830.068 1.88538 0.477868 0
M  V30 8983 C 830.351 1.94633 -3.02969 0
M  V30 8984 C 830.204 1.14778 -4.34909 0
M  V30 8985 C 831.523 2.93826 -3.27649 0
M  V30 8986 H 828.642 0.376405 -0.633631 0
M  V30 8987 H 831.284 0.314007 -1.87387 0
M  V30 8988 H 829.434 2.56471 -2.91813 0
M  V30 8989 H 831.106 0.552363 -4.57981 0
M  V30 8990 H 829.349 0.450462 -4.31455 0
M  V30 8991 H 830.02 1.81495 -5.21309 0
M  V30 8992 H 832.496 2.42117 -3.38406 0
M  V30 8993 H 831.372 3.54462 -4.19104 0
M  V30 8994 H 831.633 3.67416 -2.45882 0
M  V30 8995 N 830.692 1.47107 0.565454 0
M  V30 8996 C 831.642 1.55384 1.66852 0
M  V30 8997 C 832.626 0.413369 1.55499 0
M  V30 8998 O 833.818 0.66281 1.64121 0
M  V30 8999 C 830.947 1.5634 3.05635 0
M  V30 9000 C 830.033 2.75742 3.22222 0
M  V30 9001 N 830.424 4.00515 3.08903 0
M  V30 9002 C 828.722 2.7233 3.53203 0
M  V30 9003 C 829.423 4.80435 3.27959 0
M  V30 9004 N 828.399 4.1261 3.53913 0
M  V30 9005 H 832.201 2.49635 1.55111 0
M  V30 9006 H 829.715 1.42986 0.769982 0
M  V30 9007 H 831.712 1.60359 3.84825 0
M  V30 9008 H 830.372 0.631785 3.18494 0
M  V30 9009 H 831.383 4.31501 2.86404 0
M  V30 9010 H 828.06 1.8827 3.7264 0
M  V30 9011 H 829.45 5.89334 3.22699 0
M  V30 9012 N 832.17 -0.811516 1.35101 0
M  V30 9013 C 833.418 -1.56525 1.27845 0
M  V30 9014 C 833.739 -1.94435 -0.14829 0
M  V30 9015 O 833.009 -1.63203 -1.08359 0
M  V30 9016 H 831.589 -0.580433 0.47022 0
M  V30 9017 H 834.251 -0.968277 1.69146 0
M  V30 9018 H 833.347 -2.48291 1.89097 0
M  V30 9019 N 833.648 -1.19017 -1.03309 0
M  V30 9020 C 834.595 -0.924088 -2.11493 0
M  V30 9021 C 835.565 0.139464 -1.65513 0
M  V30 9022 O 836.75 -0.00178761 -1.908 0
M  V30 9023 C 833.89 -0.464255 -3.41963 0
M  V30 9024 C 833.003 -1.5941 -4.01513 0
M  V30 9025 C 832.138 -1.08622 -5.19976 0
M  V30 9026 C 831.177 -2.19024 -5.71572 0
M  V30 9027 N 830.314 -1.69575 -6.81314 0
M  V30 9028 H 835.154 -1.85039 -2.33591 0
M  V30 9029 H 832.691 -0.922593 -1.14572 0
M  V30 9030 H 834.649 -0.179078 -4.16815 0
M  V30 9031 H 833.279 0.425062 -3.19989 0
M  V30 9032 H 832.331 -1.99458 -3.23915 0
M  V30 9033 H 833.643 -2.42604 -4.35826 0
M  V30 9034 H 832.797 -0.756022 -6.01971 0
M  V30 9035 H 831.536 -0.223955 -4.87186 0
M  V30 9036 H 830.541 -2.5288 -4.88193 0
M  V30 9037 H 831.766 -3.05699 -6.06403 0
M  V30 9038 H 829.712 -0.856494 -6.50385 0
M  V30 9039 H 829.629 -2.46361 -7.14732 0
M  V30 9040 H 830.897 -1.39505 -7.66915 0
M  V30 9041 N 835.127 1.22348 -0.993418 0
M  V30 9042 C 836.059 2.23626 -0.502404 0
M  V30 9043 C 837.072 1.57739 0.402784 0
M  V30 9044 O 838.261 1.77321 0.204835 0
M  V30 9045 C 835.361 3.37647 0.291118 0
M  V30 9046 C 834.534 4.33121 -0.610332 0
M  V30 9047 C 833.593 5.26035 0.131572 0
M  V30 9048 O 832.619 5.67145 -0.483199 0
M  V30 9049 N 833.821 5.63023 1.41371 0
M  V30 9050 H 836.586 2.66385 -1.37329 0
M  V30 9051 H 834.147 1.36653 -0.868196 0
M  V30 9052 H 836.139 3.96792 0.796107 0
M  V30 9053 H 834.709 2.93967 1.0631 0
M  V30 9054 H 833.929 3.72287 -1.29598 0
M  V30 9055 H 835.217 4.93853 -1.22422 0
M  V30 9056 H 834.615 5.31596 1.93449 0
M  V30 9057 H 833.172 6.24582 1.86388 0
M  V30 9058 N 836.605 0.766683 1.37694 0
M  V30 9059 C 837.853 0.328065 1.9942 0
M  V30 9060 C 838.174 -1.09775 1.61166 0
M  V30 9061 O 837.444 -1.75288 0.874686 0
M  V30 9062 H 836.024 0.11831 0.737572 0
M  V30 9063 H 838.686 0.983686 1.68255 0
M  V30 9064 H 837.782 0.401647 3.09505 0
M  V30 9065 N 838.083 -1.48885 0.516809 0
M  V30 9066 C 839.015 -2.27357 -0.290061 0
M  V30 9067 C 840.028 -1.34558 -0.916406 0
M  V30 9068 O 841.217 -1.59715 -0.797073 0
M  V30 9069 C 838.317 -3.07496 -1.42476 0
M  V30 9070 C 837.49 -4.27982 -0.902793 0
M  V30 9071 C 836.549 -4.90038 -1.91701 0
M  V30 9072 O 835.575 -5.49643 -1.47922 0
M  V30 9073 N 836.777 -4.811 -3.24843 0
M  V30 9074 H 839.542 -2.97244 0.382884 0
M  V30 9075 H 837.103 -1.58064 0.35032 0
M  V30 9076 H 839.095 -3.45882 -2.10113 0
M  V30 9077 H 837.665 -2.40115 -2.00159 0
M  V30 9078 H 836.885 -3.94167 -0.0508272 0
M  V30 9079 H 838.173 -5.06003 -0.532723 0
M  V30 9080 H 837.571 -4.33801 -3.63088 0
M  V30 9081 H 836.128 -5.23625 -3.8815 0
M  V30 9082 N 839.561 -0.251338 -1.55583 0
M  V30 9083 C 840.491 0.640437 -2.24545 0
M  V30 9084 C 841.472 1.17781 -1.22726 0
M  V30 9085 O 842.657 1.21633 -1.5139 0
M  V30 9086 C 839.787 1.8355 -2.94834 0
M  V30 9087 C 838.741 1.4307 -4.03379 0
M  V30 9088 C 838.067 2.70695 -4.61116 0
M  V30 9089 C 839.367 0.59848 -5.1886 0
M  V30 9090 H 841.061 0.0653772 -2.99329 0
M  V30 9091 H 838.607 0.0300042 -1.43969 0
M  V30 9092 H 840.56 2.46505 -3.4178 0
M  V30 9093 H 839.284 2.43601 -2.17546 0
M  V30 9094 H 837.943 0.824474 -3.57209 0
M  V30 9095 H 837.591 3.28954 -3.80524 0
M  V30 9096 H 837.291 2.44332 -5.34393 0
M  V30 9097 H 838.815 3.34541 -5.10798 0
M  V30 9098 H 840.229 1.13244 -5.62004 0
M  V30 9099 H 838.626 0.430728 -5.98552 0
M  V30 9100 H 839.696 -0.38829 -4.83343 0
M  V30 9101 N 841.039 1.57585 0.0217189 0
M  V30 9102 C 841.986 2.07036 1.02004 0
M  V30 9103 C 842.956 0.96106 1.35473 0
M  V30 9104 O 844.141 1.23211 1.45684 0
M  V30 9105 C 841.281 2.56056 2.31364 0
M  V30 9106 C 840.394 3.80805 2.03989 0
M  V30 9107 C 839.529 4.18409 3.27272 0
M  V30 9108 C 838.568 5.36055 2.95486 0
M  V30 9109 N 837.705 5.69056 4.11242 0
M  V30 9110 H 842.545 2.92073 0.591396 0
M  V30 9111 H 840.082 1.44403 0.280384 0
M  V30 9112 H 842.04 2.82548 3.06957 0
M  V30 9113 H 840.67 1.73925 2.71937 0
M  V30 9114 H 839.722 3.61354 1.1886 0
M  V30 9115 H 841.034 4.66512 1.76546 0
M  V30 9116 H 840.188 4.46068 4.11228 0
M  V30 9117 H 838.927 3.31369 3.57835 0
M  V30 9118 H 837.932 5.08142 2.09933 0
M  V30 9119 H 839.157 6.24755 2.66193 0
M  V30 9120 H 837.103 4.84974 4.41742 0
M  V30 9121 H 837.02 6.49288 3.87247 0
M  V30 9122 H 838.288 6.01295 4.96049 0
M  V30 9123 N 842.517 -0.29412 1.54831 0
M  V30 9124 C 843.447 -1.36757 1.89261 0
M  V30 9125 C 844.428 -1.52564 0.752214 0
M  V30 9126 O 845.613 -1.65958 1.00855 0
M  V30 9127 C 842.743 -2.73066 2.14597 0
M  V30 9128 C 841.697 -2.72017 3.3044 0
M  V30 9129 C 841.023 -4.11679 3.4121 0
M  V30 9130 C 842.323 -2.33149 4.67375 0
M  V30 9131 H 844.017 -1.08191 2.79169 0
M  V30 9132 H 841.563 -0.519014 1.34321 0
M  V30 9133 H 843.516 -3.48255 2.37269 0
M  V30 9134 H 842.24 -3.03172 1.21467 0
M  V30 9135 H 840.899 -1.99285 3.07703 0
M  V30 9136 H 840.547 -4.38973 2.45584 0
M  V30 9137 H 840.247 -4.11877 4.19084 0
M  V30 9138 H 841.771 -4.88637 3.6615 0
M  V30 9139 H 843.185 -2.98054 4.89731 0
M  V30 9140 H 841.582 -2.44546 5.48012 0
M  V30 9141 H 842.652 -1.28275 4.67626 0
M  V30 9142 N 843.995 -1.47404 -0.557645 0
M  V30 9143 C 845.223 -1.57622 -1.34026 0
M  V30 9144 C 845.638 -0.226256 -1.87439 0
M  V30 9145 O 844.995 0.78043 -1.64971 0
M  V30 9146 C 845.046 -2.60111 -2.51047 0
M  V30 9147 O 844.767 -3.89866 -1.99841 0
M  V30 9148 C 846.268 -2.80508 -3.43264 0
M  V30 9149 H 843.488 -0.532271 -0.40857 0
M  V30 9150 H 846.032 -1.93019 -0.675555 0
M  V30 9151 H 844.187 -2.27648 -3.13457 0
M  V30 9152 H 844.601 -4.45864 -2.76234 0
M  V30 9153 H 846.075 -3.56084 -4.21792 0
M  V30 9154 H 846.552 -1.88314 -3.9678 0
M  V30 9155 H 847.158 -3.14166 -2.86671 0
M  V30 9156 N 845.473 0.80434 -1.35529 0
M  V30 9157 C 846.403 1.93086 -1.31301 0
M  V30 9158 C 847.384 1.69068 -0.187044 0
M  V30 9159 O 848.569 1.90399 -0.382359 0
M  V30 9160 C 845.699 3.29867 -1.0865 0
M  V30 9161 C 844.653 3.68373 -2.17911 0
M  V30 9162 C 843.979 5.0334 -1.80423 0
M  V30 9163 C 845.279 3.78516 -3.59893 0
M  V30 9164 H 846.973 1.96882 -2.25561 0
M  V30 9165 H 844.519 0.945841 -1.08581 0
M  V30 9166 H 846.472 4.08281 -1.04331 0
M  V30 9167 H 845.196 3.2642 -0.108359 0
M  V30 9168 H 843.855 2.92247 -2.21331 0
M  V30 9169 H 843.503 4.96399 -0.812213 0
M  V30 9170 H 843.203 5.30074 -2.53565 0
M  V30 9171 H 844.727 5.84191 -1.77633 0
M  V30 9172 H 846.141 4.47155 -3.58783 0
M  V30 9173 H 844.538 4.16721 -4.31814 0
M  V30 9174 H 845.608 2.8001 -3.95882 0
M  V30 9175 N 846.951 1.19563 1.02676 0
M  V30 9176 C 848.367 0.948304 1.28372 0
M  V30 9177 C 848.567 -0.378096 1.97921 0
M  V30 9178 O 847.623 -1.1091 2.26838 0
M  V30 9179 C 848.936 2.12381 2.12873 0
M  V30 9180 C 850.484 2.16366 2.26174 0
M  V30 9181 C 850.959 3.33374 3.14048 0
M  V30 9182 N 852.45 3.33323 3.21636 0
M  V30 9183 C 853.185 4.20504 3.89825 0
M  V30 9184 N 852.681 5.17845 4.60227 0
M  V30 9185 N 854.474 4.08375 3.86246 0
M  V30 9186 H 846.625 2.04899 0.559485 0
M  V30 9187 H 848.888 0.89606 0.309484 0
M  V30 9188 H 848.594 3.08383 1.69094 0
M  V30 9189 H 848.468 2.09621 3.1359 0
M  V30 9190 H 850.855 1.20933 2.69182 0
M  V30 9191 H 850.936 2.23179 1.25 0
M  V30 9192 H 850.58 4.29087 2.71747 0
M  V30 9193 H 850.51 3.23798 4.15286 0
M  V30 9194 H 853.001 2.62863 2.71498 0
M  V30 9195 H 853.314 5.80712 5.09896 0
M  V30 9196 H 851.659 5.21791 4.59085 0
M  V30 9197 H 854.85 3.31606 3.30386 0
M  V30 9198 H 855.023 4.76532 4.39114 0
M  V30 9199 N 848.429 -1.21819 0.999893 0
M  V30 9200 C 849.84 -1.72517 0.713775 0
M  V30 9201 C 850.191 -1.80505 -0.768922 0
M  V30 9202 O 849.316 -1.45611 -1.60083 0
M  V30 9203 C 849.911 -3.13321 1.28901 0
M  V30 9204 C 848.47 -3.61396 1.05212 0
M  V30 9205 C 847.617 -2.39074 1.40494 0
M  V30 9206 H 850.568 -1.07068 1.17141 0
M  V30 9207 H 850.589 -3.74535 0.671084 0
M  V30 9208 H 850.101 -3.07475 2.36814 0
M  V30 9209 H 848.202 -3.72599 -0.0100732 0
M  V30 9210 H 848.315 -4.47145 1.72042 0
M  V30 9211 H 846.679 -2.41015 0.823642 0
M  V30 9212 H 847.462 -2.35884 2.49427 0
M  V30 9213 N 849.908 -0.773975 -1.37286 0
M  V30 9214 C 851.138 -0.350249 -2.03609 0
M  V30 9215 C 851.546 1.03313 -1.58502 0
M  V30 9216 O 850.889 1.67118 -0.7627 0
M  V30 9217 C 850.951 -0.317215 -3.58098 0
M  V30 9218 C 850.615 -1.64556 -4.26345 0
M  V30 9219 C 851.612 -2.59839 -4.50311 0
M  V30 9220 C 849.297 -1.92061 -4.64131 0
M  V30 9221 C 851.291 -3.80833 -5.11122 0
M  V30 9222 C 848.978 -3.13325 -5.24663 0
M  V30 9223 C 849.976 -4.0753 -5.48095 0
M  V30 9224 O 849.664 -5.26658 -6.0736 0
M  V30 9225 H 849.396 -0.144456 -0.660385 0
M  V30 9226 H 851.95 -1.0496 -1.76557 0
M  V30 9227 H 850.18 0.438528 -3.84205 0
M  V30 9228 H 851.869 0.0797428 -4.05822 0
M  V30 9229 H 852.635 -2.39872 -4.21529 0
M  V30 9230 H 848.514 -1.19562 -4.45226 0
M  V30 9231 H 852.058 -4.54377 -5.29327 0
M  V30 9232 H 847.955 -3.33177 -5.52869 0
M  V30 9233 H 848.723 -5.27513 -6.25837 0
M  V30 9234 N 851.386 1.48609 -0.524698 0
M  V30 9235 C 852.318 2.27508 0.278 0
M  V30 9236 C 853.331 1.35042 0.909258 0
M  V30 9237 O 854.52 1.60136 0.788592 0
M  V30 9238 C 851.62 3.08247 1.40843 0
M  V30 9239 C 850.793 4.28455 0.880083 0
M  V30 9240 C 849.852 4.91048 1.891 0
M  V30 9241 O 848.878 5.5042 1.45005 0
M  V30 9242 N 850.08 4.82816 3.22288 0
M  V30 9243 H 852.845 2.97037 -0.398642 0
M  V30 9244 H 850.406 1.57876 -0.358698 0
M  V30 9245 H 852.398 3.46992 2.08276 0
M  V30 9246 H 850.968 2.41173 1.98883 0
M  V30 9247 H 850.188 3.94189 0.0299228 0
M  V30 9248 H 851.476 5.06279 0.505881 0
M  V30 9249 H 850.874 4.3572 3.60783 0
M  V30 9250 H 849.431 5.25676 3.85368 0
M  V30 9251 N 852.864 0.259585 1.55447 0
M  V30 9252 C 854.112 -0.360893 1.98852 0
M  V30 9253 C 854.433 -1.57535 1.14924 0
M  V30 9254 O 853.703 -1.94485 0.235025 0
M  V30 9255 H 852.283 -0.136332 0.734454 0
M  V30 9256 H 854.945 0.361319 1.91522 0
M  V30 9257 H 854.041 -0.661388 3.05012 0
M  V30 9258 N 854.342 -1.57594 -0.0133615 0
M  V30 9259 C 855.275 -2.02991 -1.04259 0
M  V30 9260 C 856.253 -0.917193 -1.34262 0
M  V30 9261 O 857.437 -1.18428 -1.46653 0
M  V30 9262 C 854.564 -2.41624 -2.37351 0
M  V30 9263 C 853.61 -3.63495 -2.231 0
M  V30 9264 S 854.443 -5.1198 -1.5696 0
M  V30 9265 C 855.599 -5.5387 -2.91511 0
M  V30 9266 H 855.832 -2.89973 -0.655985 0
M  V30 9267 H 853.365 -1.52769 -0.223827 0
M  V30 9268 H 855.323 -2.64551 -3.13884 0
M  V30 9269 H 853.984 -1.55065 -2.73155 0
M  V30 9270 H 853.177 -3.88233 -3.21389 0
M  V30 9271 H 852.779 -3.405 -1.54711 0
M  V30 9272 H 855.071 -5.55514 -3.87828 0
M  V30 9273 H 856.014 -6.53988 -2.71488 0
M  V30 9274 H 856.422 -4.81404 -2.94806 0
M  V30 9275 N 855.82 0.285905 -1.54985 0
M  V30 9276 C 857.069 1.01691 -1.74189 0
M  V30 9277 C 857.382 1.87908 -0.543135 0
M  V30 9278 O 858.588 2.64389 -0.617305 0
M  V30 9279 C 857.044 1.85785 -3.0824 0
M  V30 9280 C 856.652 1.04497 -4.35642 0
M  V30 9281 C 858.396 2.58393 -3.36798 0
M  V30 9282 C 856.303 1.87955 -5.60738 0
M  V30 9283 H 855.233 0.383396 -0.649248 0
M  V30 9284 H 857.884 0.27317 -1.81455 0
M  V30 9285 H 856.266 2.64205 -2.94978 0
M  V30 9286 H 857.44 0.305847 -4.59784 0
M  V30 9287 H 855.755 0.434023 -4.14132 0
M  V30 9288 H 858.352 3.21214 -4.27464 0
M  V30 9289 H 858.695 3.28011 -2.56349 0
M  V30 9290 H 859.228 1.87012 -3.511 0
M  V30 9291 H 855.967 1.22781 -6.43898 0
M  V30 9292 H 855.487 2.59499 -5.40759 0
M  V30 9293 H 857.166 2.45636 -5.98558 0
M  V30 9294 N 857.298 1.47698 0.54982 0
M  V30 9295 C 858.228 1.63622 1.66583 0
M  V30 9296 C 859.209 0.485477 1.63025 0
M  V30 9297 O 860.394 0.715692 1.80531 0
M  V30 9298 C 857.524 1.65721 3.05211 0
M  V30 9299 C 856.478 2.80097 3.2362 0
M  V30 9300 C 855.804 2.67272 4.63109 0
M  V30 9301 C 857.104 4.21612 3.08286 0
M  V30 9302 H 858.798 2.57049 1.53512 0
M  V30 9303 H 856.344 1.23705 0.737099 0
M  V30 9304 H 858.297 1.75451 3.83138 0
M  V30 9305 H 857.021 0.688593 3.19258 0
M  V30 9306 H 855.68 2.69889 2.48104 0
M  V30 9307 H 855.328 1.68422 4.73965 0
M  V30 9308 H 855.028 3.44008 4.76374 0
M  V30 9309 H 856.552 2.78942 5.43161 0
M  V30 9310 H 857.966 4.32758 3.76024 0
M  V30 9311 H 856.363 4.99193 3.33057 0
M  V30 9312 H 857.433 4.39462 2.04942 0
M  V30 9313 N 858.776 -0.797141 1.35954 0
M  V30 9314 C 860.022 -1.55636 1.30954 0
M  V30 9315 C 860.377 -1.92071 -0.112515 0
M  V30 9316 O 859.67 -1.5926 -1.06521 0
M  V30 9317 C 859.864 -2.84847 2.15863 0
M  V30 9318 C 859.693 -2.61039 3.66182 0
M  V30 9319 C 858.463 -2.56452 4.35385 0
M  V30 9320 C 860.661 -2.30766 4.59621 0
M  V30 9321 N 858.643 -2.2446 5.71394 0
M  V30 9322 C 860.014 -2.08695 5.8382 0
M  V30 9323 C 862.069 -2.16708 4.48266 0
M  V30 9324 C 860.772 -1.73989 6.9794 0
M  V30 9325 C 862.798 -1.83399 5.62244 0
M  V30 9326 C 862.16 -1.62171 6.85478 0
M  V30 9327 H 858.259 -0.570853 0.534463 0
M  V30 9328 H 860.843 -0.932261 1.7093 0
M  V30 9329 H 859.014 -3.45137 1.78144 0
M  V30 9330 H 860.746 -3.50503 2.02311 0
M  V30 9331 H 857.501 -2.7143 3.88101 0
M  V30 9332 H 857.925 -2.11232 6.43203 0
M  V30 9333 H 862.567 -2.31814 3.53585 0
M  V30 9334 H 860.285 -1.57621 7.92579 0
M  V30 9335 H 863.871 -1.73217 5.55416 0
M  V30 9336 H 862.751 -1.36774 7.7218 0
M  V30 9337 N 860.254 -1.20106 -1.0204 0
M  V30 9338 C 861.202 -0.943231 -2.12617 0
M  V30 9339 C 862.196 0.104042 -1.6908 0
M  V30 9340 O 863.402 -0.0459732 -1.79941 0
M  V30 9341 H 859.777 -0.28767 -0.694802 0
M  V30 9342 H 861.748 -1.88221 -2.3155 0
M  V30 9343 C 860.497 -0.50771 -3.43973 0
M  V30 9344 H 859.82 -1.30514 -3.77897 0
M  V30 9345 H 861.26 -0.366486 -4.22413 0
M  V30 9346 C 859.719 0.77939 -3.27761 0
M  V30 9347 O 860.249 1.83876 -3.57145 0
M  V30 9348 N 858.455 0.739931 -2.81022 0
M  V30 9349 H 858.002 -0.122426 -2.57309 0
M  V30 9350 H 857.96 1.60147 -2.70556 0
M  V30 9351 N 861.732 1.21287 -1.00634 0
M  V30 9352 C 862.98 1.90013 -0.688438 0
M  V30 9353 C 863.301 1.78573 0.783365 0
M  V30 9354 O 862.571 1.1815 1.56261 0
M  V30 9355 H 861.151 0.703336 -0.251648 0
M  V30 9356 H 863.813 1.47346 -1.27574 0
M  V30 9357 H 862.909 2.96879 -0.962781 0
M  V30 9358 N 863.21 0.781244 1.36873 0
M  V30 9359 C 864.626 0.461968 1.52768 0
M  V30 9360 C 864.826 -1.02099 1.73719 0
M  V30 9361 O 863.882 -1.80665 1.76399 0
M  V30 9362 C 865.195 1.2853 2.71846 0
M  V30 9363 C 866.743 1.27817 2.85713 0
M  V30 9364 C 867.218 2.08506 4.07786 0
M  V30 9365 N 868.709 2.05909 4.14917 0
M  V30 9366 C 869.444 2.65118 5.08429 0
M  V30 9367 N 868.94 3.33152 6.07438 0
M  V30 9368 N 870.733 2.54896 5.00983 0
M  V30 9369 H 862.884 1.74198 1.21527 0
M  V30 9370 H 865.147 0.740027 0.592506 0
M  V30 9371 H 864.853 2.3366 2.62861 0
M  V30 9372 H 864.727 0.920981 3.65784 0
M  V30 9373 H 867.114 0.234817 2.94164 0
M  V30 9374 H 867.195 1.68219 1.92707 0
M  V30 9375 H 866.839 3.12867 4.00096 0
M  V30 9376 H 866.769 1.65479 4.99924 0
M  V30 9377 H 869.26 1.56386 3.44023 0
M  V30 9378 H 869.573 3.75681 6.75339 0
M  V30 9379 H 867.918 3.37253 6.07689 0
M  V30 9380 H 871.109 2.01352 4.22581 0
M  V30 9381 H 871.282 3.01332 5.73675 0
M  V30 9382 O 864.727 -1.46767 0.67391 0
M  V30 9383 H 865.418 -1.92604 0.205809 0
M  V30 END ATOM
M  V30 BEGIN BOND
M  V30 END BOND
M  V30 END CTAB
M  END
$$$$
