drugbank_target|O43526 Potassium voltage-gated channel subfamily KQT member 2 (DB00321; DB00939; DB04953; DB06089)
 OpenBabel12092119423D

  0  0  0     0  0            999 V3000
M  V30 BEGIN CTAB
M  V30 COUNTS 13479 13652 0 0 0
M  V30 BEGIN ATOM
M  V30 1 H -0.908 1.98254 -0.117106 0
M  V30 2 N 0 1.576 0 0
M  V30 3 C 0.933 2.03868 1.02534 0
M  V30 4 C 1.911 0.928543 1.3348 0
M  V30 5 O 3.095 1.19667 1.45644 0
M  V30 6 C 0.222 2.43627 2.35294 0
M  V30 7 C -0.732 3.65373 2.2001 0
M  V30 8 S 0.101 5.13292 1.52614 0
M  V30 9 C 1.257 5.56322 2.86805 0
M  V30 10 H 1.49 2.90518 0.631377 0
M  V30 11 H -0.977 1.52953 0.210867 0
M  V30 12 H 0.981 2.67203 3.11629 0
M  V30 13 H -0.358 1.57376 2.7183 0
M  V30 14 H -1.165 3.90944 3.18086 0
M  V30 15 H -1.563 3.418 1.51819 0
M  V30 16 H 0.729 5.58782 3.83104 0
M  V30 17 H 1.672 6.56266 2.65933 0
M  V30 18 H 2.08 4.83886 2.90714 0
M  V30 19 N 1.4781 -0.272755 1.55222 0
M  V30 20 C 2.7241 -1.00581 1.761 0
M  V30 21 C 3.0571 -1.85932 0.560625 0
M  V30 22 O 2.3321 -1.89416 -0.441801 0
M  V30 23 C 2.6151 -1.88816 3.06628 0
M  V30 24 C 2.4681 -1.06457 4.37021 0
M  V30 25 C 3.7871 -2.8752 3.33197 0
M  V30 26 H 0.9061 -0.364244 0.640699 0
M  V30 27 H 3.5481 -0.278189 1.87952 0
M  V30 28 H 1.6981 -2.50856 2.96654 0
M  V30 29 H 3.3701 -0.464863 4.58952 0
M  V30 30 H 1.6131 -0.368043 4.32236 0
M  V30 31 H 2.2841 -1.71514 5.24678 0
M  V30 32 H 4.7601 -2.35615 3.42965 0
M  V30 33 H 3.6361 -3.46399 4.25792 0
M  V30 34 H 3.8971 -3.62657 2.52849 0
M  V30 35 N 2.9562 -1.48159 -0.537278 0
M  V30 36 C 3.8882 -1.58218 -1.65831 0
M  V30 37 C 4.9012 -0.466948 -1.5596 0
M  V30 38 O 6.0902 -0.73747 -1.62553 0
M  V30 39 C 3.1902 -1.48906 -3.04434 0
M  V30 40 C 2.3632 -2.75343 -3.3986 0
M  V30 41 C 1.4222 -2.59588 -4.57712 0
M  V30 42 O 0.4482 -3.33457 -4.61297 0
M  V30 43 N 1.6502 -1.68724 -5.55439 0
M  V30 44 H 4.4152 -2.54891 -1.57641 0
M  V30 45 H 1.9762 -1.4479 -0.724386 0
M  V30 46 H 3.9682 -1.36072 -3.81139 0
M  V30 47 H 2.5382 -0.602368 -3.06741 0
M  V30 48 H 1.7582 -3.02795 -2.52406 0
M  V30 49 H 3.0462 -3.5924 -3.60311 0
M  V30 50 H 2.4442 -1.07898 -5.55315 0
M  V30 51 H 1.0012 -1.61832 -6.3139 0
M  V30 52 N 4.4343 0.785586 -1.36625 0
M  V30 53 C 5.3813 1.89838 -1.31264 0
M  V30 54 C 6.3513 1.65115 -0.180633 0
M  V30 55 O 7.5363 1.87222 -0.36777 0
M  V30 56 C 4.6763 3.26706 -1.11163 0
M  V30 57 C 3.7893 3.63476 -2.33472 0
M  V30 58 C 2.9243 4.89481 -2.06353 0
M  V30 59 C 1.9633 5.18941 -3.24602 0
M  V30 60 N 1.1003 6.36131 -2.97123 0
M  V30 61 H 5.9403 1.93756 -2.26413 0
M  V30 62 H 3.4773 0.947454 -1.12524 0
M  V30 63 H 5.4353 4.05639 -0.975337 0
M  V30 64 H 4.0653 3.222 -0.196674 0
M  V30 65 H 3.1173 2.79636 -2.57891 0
M  V30 66 H 4.4293 3.81193 -3.21704 0
M  V30 67 H 3.5833 5.76288 -1.89675 0
M  V30 68 H 2.3223 4.73841 -1.15437 0
M  V30 69 H 1.3273 4.30615 -3.41834 0
M  V30 70 H 2.5523 5.36498 -4.16349 0
M  V30 71 H 0.4983 6.21875 -2.08823 0
M  V30 72 H 0.4153 6.54198 -3.78894 0
M  V30 73 H 1.6833 7.2591 -2.84033 0
M  V30 74 N 5.9124 1.20967 1.01018 0
M  V30 75 C 7.1374 1.0503 1.78839 0
M  V30 76 C 7.5624 -0.395752 1.8389 0
M  V30 77 O 6.9204 -1.28529 1.27867 0
M  V30 78 C 6.9684 1.64602 3.2084 0
M  V30 79 O 6.0724 0.887988 4.02726 0
M  V30 80 H 5.4134 0.369987 0.551367 0
M  V30 81 H 7.9434 1.60399 1.27018 0
M  V30 82 H 7.9534 1.68607 3.71532 0
M  V30 83 H 6.6284 2.69841 3.16479 0
M  V30 84 H 5.2054 0.922648 3.61305 0
M  V30 85 N 7.3905 -1.2043 1.01659 0
M  V30 86 C 8.8065 -1.41852 0.731442 0
M  V30 87 C 9.0065 -1.89358 -0.688898 0
M  V30 88 O 8.0625 -2.06247 -1.45666 0
M  V30 89 C 9.3755 -2.44019 1.75714 0
M  V30 90 C 10.9235 -2.57785 1.77527 0
M  V30 91 C 11.3985 -3.63194 2.79023 0
M  V30 92 N 12.8895 -3.70678 2.77763 0
M  V30 93 C 13.6245 -4.51897 3.52954 0
M  V30 94 N 13.1205 -5.36921 4.37821 0
M  V30 95 N 14.9135 -4.4643 3.41551 0
M  V30 96 H 7.0645 -0.879093 1.93354 0
M  V30 97 H 9.3275 -0.448425 0.835236 0
M  V30 98 H 9.0335 -2.1611 2.77469 0
M  V30 99 H 8.9075 -3.43007 1.56927 0
M  V30 100 H 11.2945 -2.85023 0.764569 0
M  V30 101 H 11.3755 -1.58992 2.00387 0
M  V30 102 H 11.0195 -3.36699 3.80258 0
M  V30 103 H 10.9495 -4.61609 2.53425 0
M  V30 104 H 13.4405 -3.09944 2.16201 0
M  V30 105 H 13.7535 -5.95981 4.91962 0
M  V30 106 H 12.0985 -5.36424 4.41899 0
M  V30 107 H 15.2895 -3.79042 2.74672 0
M  V30 108 H 15.4625 -5.09491 4.00404 0
M  V30 109 N 8.8686 -0.792821 -1.36206 0
M  V30 110 C 9.8166 -0.181555 -2.3189 0
M  V30 111 C 10.8106 0.661025 -1.55971 0
M  V30 112 O 12.0166 0.555728 -1.71206 0
M  V30 113 H 8.3916 -0.0399382 -0.750939 0
M  V30 114 H 10.3626 -1.00394 -2.81005 0
M  V30 115 C 9.1116 0.666444 -3.41253 0
M  V30 116 H 8.4346 0.0274489 -3.99791 0
M  V30 117 H 9.8746 1.06076 -4.10517 0
M  V30 118 C 8.3336 1.82614 -2.83114 0
M  V30 119 O 8.8636 2.9229 -2.75553 0
M  V30 120 N 7.0696 1.63333 -2.40356 0
M  V30 121 H 6.6166 0.741217 -2.46706 0
M  V30 122 H 6.5746 2.41087 -2.01803 0
M  V30 123 N 10.3467 1.47872 -0.545128 0
M  V30 124 C 11.5947 2.02093 -0.016553 0
M  V30 125 C 11.9157 1.42305 1.3332 0
M  V30 126 O 11.1857 0.593853 1.86682 0
M  V30 127 H 9.7657 0.746993 -0.00313038 0
M  V30 128 H 12.4277 1.81414 -0.712397 0
M  V30 129 H 11.5237 3.11996 0.0805422 0
M  V30 130 N 11.8248 0.280983 1.55075 0
M  V30 131 C 13.0728 -0.333455 1.9933 0
M  V30 132 C 13.3938 -1.55937 1.17085 0
M  V30 133 O 12.6638 -1.94143 0.261805 0
M  V30 134 H 11.2438 -0.126197 0.736263 0
M  V30 135 H 13.9058 0.387678 1.91005 0
M  V30 136 H 13.0018 -0.619292 3.05894 0
M  V30 137 N 13.3029 -1.57598 0.00835791 0
M  V30 138 C 14.5489 -1.91211 -0.675732 0
M  V30 139 C 14.8819 -0.883139 -1.72958 0
M  V30 140 O 14.1569 0.097016 -1.94258 0
M  V30 141 C 14.4399 -3.35379 -1.31123 0
M  V30 142 C 14.2929 -4.48999 -0.268356 0
M  V30 143 C 15.6119 -3.7912 -2.23508 0
M  V30 144 H 12.7309 -0.695374 -0.244179 0
M  V30 145 H 15.3729 -1.89901 0.0613655 0
M  V30 146 H 13.5229 -3.36626 -1.93946 0
M  V30 147 H 15.1949 -4.59887 0.360844 0
M  V30 148 H 13.4379 -4.31873 0.408482 0
M  V30 149 H 14.1089 -5.46851 -0.752218 0
M  V30 150 H 16.5849 -3.79477 -1.70693 0
M  V30 151 H 15.4609 -4.80729 -2.64936 0
M  V30 152 H 15.7219 -3.13455 -3.11766 0
M  V30 153 N 14.781 0.264519 -1.55364 0
M  V30 154 C 16.011 1.01153 -1.80143 0
M  V30 155 C 16.419 1.80115 -0.579253 0
M  V30 156 O 15.762 1.77813 0.46132 0
M  V30 157 C 15.824 2.01098 -2.97993 0
M  V30 158 C 15.488 1.40995 -4.34706 0
M  V30 159 C 16.485 0.821316 -5.13372 0
M  V30 160 C 14.17 1.43461 -4.81378 0
M  V30 161 C 16.164 0.265339 -6.36847 0
M  V30 162 C 13.851 0.874771 -6.04807 0
M  V30 163 C 14.849 0.291146 -6.82379 0
M  V30 164 O 14.537 -0.260093 -8.03479 0
M  V30 165 H 14.269 0.304125 -0.603725 0
M  V30 166 H 16.823 0.298089 -2.03225 0
M  V30 167 H 15.053 2.76224 -2.70623 0
M  V30 168 H 16.742 2.61997 -3.1002 0
M  V30 169 H 17.508 0.794903 -4.78442 0
M  V30 170 H 13.387 1.87826 -4.21002 0
M  V30 171 H 16.931 -0.190837 -6.97339 0
M  V30 172 H 12.828 0.898452 -6.39217 0
M  V30 173 H 13.596 -0.150265 -8.18362 0
M  V30 174 N 16.2591 1.48442 0.529413 0
M  V30 175 C 17.6701 1.5002 1.11134 0
M  V30 176 C 18.0211 0.27031 1.94329 0
M  V30 177 O 17.1461 -0.622507 2.07253 0
M  V30 178 C 17.7411 2.71834 2.02217 0
M  V30 179 C 16.3001 2.76283 2.55627 0
M  V30 180 C 15.4471 2.43542 1.326 0
M  V30 181 H 18.3981 1.5555 0.314641 0
M  V30 182 H 18.4191 2.50384 2.8651 0
M  V30 183 H 17.9311 3.61331 1.41639 0
M  V30 184 H 16.0321 1.90995 3.19924 0
M  V30 185 H 16.1451 3.77725 2.94721 0
M  V30 186 H 14.5091 1.94709 1.64196 0
M  V30 187 H 15.2921 3.3528 0.737734 0
M  V30 188 N 17.7372 -0.778329 1.37039 0
M  V30 189 C 18.9852 -1.53361 1.31623 0
M  V30 190 C 19.3062 -1.94739 -0.100831 0
M  V30 191 O 18.5762 -1.65797 -1.04347 0
M  V30 192 H 17.1562 -0.568794 0.484234 0
M  V30 193 H 19.8182 -0.926742 1.71457 0
M  V30 194 H 18.9142 -2.43606 1.95096 0
M  V30 195 N 19.2153 -1.21501 -1.00376 0
M  V30 196 C 20.6263 -1.03146 -1.55621 0
M  V30 197 C 20.9773 0.408375 -1.91903 0
M  V30 198 O 20.1023 1.29177 -1.73616 0
M  V30 199 C 20.6973 -1.86612 -2.82775 0
M  V30 200 C 19.2563 -1.72586 -3.34501 0
M  V30 201 C 18.4033 -1.83747 -2.07683 0
M  V30 202 H 21.3543 -1.35505 -0.826081 0
M  V30 203 H 21.3753 -1.3771 -3.54706 0
M  V30 204 H 20.8873 -2.91399 -2.56336 0
M  V30 205 H 18.9883 -0.704877 -3.65872 0
M  V30 206 H 19.1013 -2.54623 -4.05837 0
M  V30 207 H 17.4653 -1.27069 -2.20739 0
M  V30 208 H 18.2483 -2.90044 -1.83655 0
M  V30 209 N 20.6934 1.19889 -1.02296 0
M  V30 210 C 21.9184 1.9393 -0.735237 0
M  V30 211 C 22.3434 1.74639 0.698782 0
M  V30 212 O 21.7014 1.04481 1.48167 0
M  V30 213 C 21.7494 3.43916 -1.08417 0
M  V30 214 O 20.8534 4.11917 -0.199446 0
M  V30 215 H 20.1944 0.605645 -0.272196 0
M  V30 216 H 22.7244 1.52137 -1.36804 0
M  V30 217 H 22.7344 3.9456 -1.03856 0
M  V30 218 H 21.4094 3.5728 -2.12894 0
M  V30 219 H 19.9864 3.71666 -0.303136 0
M  V30 220 N 22.1715 0.800033 1.35784 0
M  V30 221 C 23.4195 0.376597 1.9856 0
M  V30 222 C 23.7405 -1.05812 1.63795 0
M  V30 223 O 23.0105 -1.73103 0.917171 0
M  V30 224 H 21.5905 0.136261 0.734467 0
M  V30 225 H 24.2525 1.02442 1.65806 0
M  V30 226 H 23.3485 0.477002 3.08433 0
M  V30 227 N 23.6496 -1.47581 0.552962 0
M  V30 228 C 24.5596 -2.33743 -0.200353 0
M  V30 229 C 25.5756 -1.47928 -0.916151 0
M  V30 230 O 26.7516 -1.80865 -0.885993 0
M  V30 231 C 23.8166 -3.24536 -1.21973 0
M  V30 232 C 22.8776 -4.26238 -0.511819 0
M  V30 233 C 22.1106 -5.12693 -1.48263 0
M  V30 234 O 22.3336 -5.01525 -2.71714 0
M  V30 235 O 21.2676 -5.93375 -1.00945 0
M  V30 236 H 25.0936 -2.9945 0.506304 0
M  V30 237 H 22.6786 -1.46071 0.313622 0
M  V30 238 H 24.5606 -3.80631 -1.80827 0
M  V30 239 H 23.2356 -2.61462 -1.90839 0
M  V30 240 H 22.1426 -3.73914 0.117799 0
M  V30 241 H 23.4756 -4.92014 0.135308 0
M  V30 242 N 25.1277 -0.289203 -1.54924 0
M  V30 243 C 26.0747 0.592115 -2.23075 0
M  V30 244 C 27.0447 1.13881 -1.20915 0
M  V30 245 O 28.2297 1.18551 -1.495 0
M  V30 246 C 25.3697 1.76376 -2.96623 0
M  V30 247 C 24.4827 1.24959 -4.13533 0
M  V30 248 C 23.6177 2.38416 -4.74691 0
M  V30 249 C 22.6567 1.84072 -5.83767 0
M  V30 250 N 21.7937 2.91057 -6.38929 0
M  V30 251 H 26.6337 0.00432038 -2.98 0
M  V30 252 H 24.1707 -0.00963529 -1.47097 0
M  V30 253 H 26.1287 2.45268 -3.3749 0
M  V30 254 H 24.7587 2.32337 -2.24097 0
M  V30 255 H 23.8107 0.453307 -3.77689 0
M  V30 256 H 25.1227 0.811662 -4.92152 0
M  V30 257 H 24.2767 3.15276 -5.18349 0
M  V30 258 H 23.0157 2.8553 -3.95378 0
M  V30 259 H 22.0207 1.05697 -5.39545 0
M  V30 260 H 23.2457 1.37877 -6.64956 0
M  V30 261 H 21.1917 3.37526 -5.62505 0
M  V30 262 H 21.1087 2.51724 -7.12861 0
M  V30 263 H 22.3767 3.6785 -6.87246 0
M  V30 264 N 26.6058 1.57591 -0.0167156 0
M  V30 265 C 27.5528 2.09462 0.969251 0
M  V30 266 C 28.5228 0.99381 1.33089 0
M  V30 267 O 29.7078 1.26726 1.42636 0
M  V30 268 C 26.8478 2.61622 2.25051 0
M  V30 269 C 25.9608 3.85666 1.94642 0
M  V30 270 C 25.0958 4.26266 3.16972 0
M  V30 271 C 24.1348 5.43101 2.82326 0
M  V30 272 N 23.2718 5.78915 3.97243 0
M  V30 273 H 28.1118 2.93428 0.519997 0
M  V30 274 H 25.6488 1.45044 0.245087 0
M  V30 275 H 27.6068 2.89949 2.99976 0
M  V30 276 H 26.2368 1.80505 2.67615 0
M  V30 277 H 25.2888 3.64145 1.10013 0
M  V30 278 H 26.6008 4.70678 1.65117 0
M  V30 279 H 25.7548 4.55963 4.00228 0
M  V30 280 H 24.4938 3.39996 3.49648 0
M  V30 281 H 23.4988 5.1311 1.97479 0
M  V30 282 H 24.7238 6.3106 2.50879 0
M  V30 283 H 22.6698 4.95602 4.29785 0
M  V30 284 H 22.5868 6.58539 3.71299 0
M  V30 285 H 23.8548 6.13212 4.81239 0
M  V30 286 N 28.0839 -0.256276 1.55502 0
M  V30 287 C 29.0139 -1.32102 1.92539 0
M  V30 288 C 29.9949 -1.50684 0.789194 0
M  V30 289 O 31.1799 -1.63449 1.04872 0
M  V30 290 C 28.3099 -2.67752 2.21192 0
M  V30 291 C 27.2639 -2.63878 3.36975 0
M  V30 292 C 26.5899 -4.03236 3.51147 0
M  V30 293 C 27.8899 -2.21682 4.72921 0
M  V30 294 H 29.5839 -1.01351 2.81724 0
M  V30 295 H 27.1299 -0.486105 1.35547 0
M  V30 296 H 29.0829 -3.42365 2.45691 0
M  V30 297 H 27.8069 -3.0012 1.28824 0
M  V30 298 H 26.4659 -1.91722 3.12471 0
M  V30 299 H 26.1139 -4.32854 2.56216 0
M  V30 300 H 25.8139 -4.01535 4.29003 0
M  V30 301 H 27.3379 -4.79563 3.77957 0
M  V30 302 H 28.7519 -2.86023 4.96854 0
M  V30 303 H 27.1489 -2.3111 5.53812 0
M  V30 304 H 28.2189 -1.16833 4.70615 0
M  V30 305 N 29.562 -1.4872 -0.521534 0
M  V30 306 C 30.509 -1.63871 -1.62527 0
M  V30 307 C 31.479 -0.480559 -1.58996 0
M  V30 308 O 32.664 -0.705085 -1.77294 0
M  V30 309 C 29.804 -1.69227 -3.00759 0
M  V30 310 C 28.917 -2.96207 -3.14461 0
M  V30 311 C 28.052 -2.92671 -4.43303 0
M  V30 312 C 27.091 -4.14318 -4.50563 0
M  V30 313 N 26.228 -4.0881 -5.70805 0
M  V30 314 H 31.068 -2.58123 -1.48918 0
M  V30 315 H 28.605 -1.28 -0.724878 0
M  V30 316 H 30.563 -1.70314 -3.80853 0
M  V30 317 H 29.193 -0.784586 -3.1312 0
M  V30 318 H 28.245 -3.04826 -2.27564 0
M  V30 319 H 29.557 -3.86192 -3.15686 0
M  V30 320 H 28.711 -2.92206 -5.31696 0
M  V30 321 H 27.45 -2.00429 -4.44612 0
M  V30 322 H 26.455 -4.15049 -3.60575 0
M  V30 323 H 27.68 -5.07729 -4.50986 0
M  V30 324 H 25.626 -3.19394 -5.72995 0
M  V30 325 H 25.543 -4.92509 -5.7356 0
M  V30 326 H 26.811 -4.12418 -6.61462 0
M  V30 327 N 31.0401 0.771051 -1.3745 0
M  V30 328 C 32.2861 1.5319 -1.32894 0
M  V30 329 C 32.6191 1.94008 0.0862511 0
M  V30 330 O 31.8941 1.64124 1.04373 0
M  V30 331 C 32.1771 2.79648 -2.26868 0
M  V30 332 C 32.0301 2.45079 -3.77169 0
M  V30 333 C 33.3491 3.81583 -2.19277 0
M  V30 334 H 30.4681 0.555744 -0.484064 0
M  V30 335 H 33.1101 0.884492 -1.68157 0
M  V30 336 H 31.2601 3.34891 -1.96926 0
M  V30 337 H 32.9321 1.95745 -4.1771 0
M  V30 338 H 31.1751 1.77767 -3.95704 0
M  V30 339 H 31.8461 3.35478 -4.38359 0
M  V30 340 H 34.3221 3.35835 -2.45671 0
M  V30 341 H 33.1981 4.67787 -2.87171 0
M  V30 342 H 33.4591 4.25897 -1.18592 0
M  V30 343 N 32.5182 1.22032 0.997298 0
M  V30 344 C 33.7662 1.04016 1.73278 0
M  V30 345 C 34.0872 -0.426255 1.90284 0
M  V30 346 O 33.3572 -1.30694 1.45931 0
M  V30 347 H 31.9372 0.381897 0.642 0
M  V30 348 H 34.5992 1.5347 1.20137 0
M  V30 349 H 33.6952 1.51441 2.72896 0
M  V30 350 N 33.9963 -1.19345 1.0293 0
M  V30 351 C 35.2433 -1.89038 0.726008 0
M  V30 352 C 35.5713 -1.79649 -0.745427 0
M  V30 353 O 34.8263 -1.18354 -1.55855 0
M  V30 354 C 35.1253 -3.39292 1.12319 0
M  V30 355 C 34.7913 -3.68885 2.59297 0
M  V30 356 C 33.4533 -3.76671 2.99453 0
M  V30 357 C 35.8053 -3.82178 3.54386 0
M  V30 358 C 33.1333 -3.9522 4.33611 0
M  V30 359 C 35.4853 -4.0224 4.88248 0
M  V30 360 C 34.1493 -4.08259 5.28092 0
M  V30 361 H 33.4193 -0.691739 0.265665 0
M  V30 362 H 36.0663 -1.41328 1.29223 0
M  V30 363 H 34.3713 -3.88903 0.475584 0
M  V30 364 H 36.0683 -3.91536 0.866037 0
M  V30 365 H 32.6583 -3.63433 2.27189 0
M  V30 366 H 36.8423 -3.75505 3.24514 0
M  V30 367 H 32.0983 -3.98119 4.64016 0
M  V30 368 H 36.2723 -4.11468 5.61843 0
M  V30 369 H 33.8993 -4.22384 6.32057 0
M  V30 370 N 35.4744 -0.807222 -1.35358 0
M  V30 371 C 36.7204 -0.388463 -1.99045 0
M  V30 372 C 37.0534 1.04184 -1.63888 0
M  V30 373 O 36.3284 1.72292 -0.902535 0
M  V30 374 C 36.6114 -0.572783 -3.55515 0
M  V30 375 C 36.4644 -2.04807 -4.00468 0
M  V30 376 C 37.7834 0.00114064 -4.401 0
M  V30 377 H 34.9024 -0.142619 -0.723069 0
M  V30 378 H 37.5444 -1.01687 -1.60498 0
M  V30 379 H 35.6944 -0.0378425 -3.88482 0
M  V30 380 H 37.3664 -2.64544 -3.77908 0
M  V30 381 H 35.6094 -2.54427 -3.51353 0
M  V30 382 H 36.2804 -2.12792 -5.09337 0
M  V30 383 H 38.7564 -0.455716 -4.13597 0
M  V30 384 H 37.6324 -0.157737 -5.48673 0
M  V30 385 H 37.8934 1.09488 -4.28328 0
M  V30 386 N 36.9525 1.47285 -0.560781 0
M  V30 387 C 38.2005 2.02064 -0.0379868 0
M  V30 388 C 38.5215 1.43711 1.31803 0
M  V30 389 O 37.7915 0.61362 1.86042 0
M  V30 390 H 36.3715 0.746918 -0.0110531 0
M  V30 391 H 39.0335 1.80648 -0.731598 0
M  V30 392 H 38.1295 3.12064 0.0474463 0
M  V30 393 N 38.4306 0.297415 1.54768 0
M  V30 394 C 39.3606 -0.573494 2.26348 0
M  V30 395 C 40.3416 -1.14085 1.26169 0
M  V30 396 O 41.5266 -1.17086 1.54934 0
M  V30 397 C 38.6566 -1.74716 3.00153 0
M  V30 398 C 37.6106 -1.31032 4.07449 0
M  V30 399 C 36.9366 -2.56887 4.68949 0
M  V30 400 C 38.2366 -0.444183 5.20408 0
M  V30 401 H 39.9306 0.0235131 2.99391 0
M  V30 402 H 37.4766 0.0127488 1.43994 0
M  V30 403 H 39.4296 -2.3625 3.48947 0
M  V30 404 H 38.1536 -2.37035 2.24682 0
M  V30 405 H 36.8126 -0.718066 3.59499 0
M  V30 406 H 36.4606 -3.17512 3.90122 0
M  V30 407 H 36.1606 -2.2836 5.41411 0
M  V30 408 H 37.6846 -3.19229 5.20505 0
M  V30 409 H 39.0986 -0.9651 5.65118 0
M  V30 410 H 37.4956 -0.252846 5.99567 0
M  V30 411 H 38.5656 0.531609 4.81977 0
M  V30 412 N 39.9087 -1.5758 0.0250728 0
M  V30 413 C 41.1857 -1.82917 -0.692873 0
M  V30 414 C 41.5657 -0.908137 -1.90568 0
M  V30 415 O 40.9137 0.0372298 -2.2847 0
M  V30 416 C 41.1237 -3.32034 -1.07492 0
M  V30 417 C 42.4717 -3.98406 -1.46826 0
M  V30 418 O 43.4957 -3.36505 -1.16801 0
M  V30 419 O 42.3547 -5.07497 -2.02754 0
M  V30 420 H 39.4487 -0.754079 -0.33955 0
M  V30 421 H 41.9947 -1.69619 0.0524456 0
M  V30 422 H 40.7667 -3.90728 -0.211552 0
M  V30 423 H 40.3897 -3.50424 -1.87854 0
M  V30 424 N 41.3868 0.248026 -1.55636 0
M  V30 425 C 42.7978 0.817177 -1.67866 0
M  V30 426 C 43.1488 1.86069 -0.622322 0
M  V30 427 O 42.2738 2.15157 0.231618 0
M  V30 428 C 42.8688 1.489 -3.04326 0
M  V30 429 C 41.4278 2.00587 -3.185 0
M  V30 430 C 40.5748 0.856573 -2.63739 0
M  V30 431 H 43.5258 0.0238579 -1.58682 0
M  V30 432 H 43.5468 2.35698 -2.98708 0
M  V30 433 H 43.0588 0.729279 -3.81186 0
M  V30 434 H 41.1598 2.79443 -2.4646 0
M  V30 435 H 41.2728 2.20402 -4.25393 0
M  V30 436 H 39.6368 1.25678 -2.21534 0
M  V30 437 H 40.4198 0.109953 -3.43124 0
M  V30 438 N 42.8649 1.48995 0.513639 0
M  V30 439 C 44.1129 1.57531 1.26604 0
M  V30 440 C 44.4339 0.258236 1.93283 0
M  V30 441 O 43.7039 -0.721502 1.8213 0
M  V30 442 H 42.2839 0.580387 0.470276 0
M  V30 443 H 44.9459 1.85552 0.596373 0
M  V30 444 H 44.0419 2.36486 2.03669 0
M  V30 445 N 44.343 -0.763751 1.37857 0
M  V30 446 C 45.306 -1.85889 1.34081 0
M  V30 447 C 46.306 -1.58949 0.243277 0
M  V30 448 O 47.496 -1.66882 0.499589 0
M  V30 449 C 44.628 -3.23176 1.08489 0
M  V30 450 H 45.821 -1.90648 2.31502 0
M  V30 451 H 43.374 -0.964367 1.23003 0
M  V30 452 H 44.109 -3.24091 0.116318 0
M  V30 453 H 43.894 -3.44124 1.8794 0
M  V30 454 H 45.384 -4.03254 1.08517 0
M  V30 455 N 45.8211 -1.22559 -0.990812 0
M  V30 456 C 47.2321 -1.04791 -1.54518 0
M  V30 457 C 47.5831 0.387998 -1.92325 0
M  V30 458 O 46.7081 1.27328 -1.74976 0
M  V30 459 C 47.3031 -1.896 -2.80779 0
M  V30 460 C 45.8621 -1.76124 -3.32652 0
M  V30 461 C 45.0091 -1.8594 -2.05722 0
M  V30 462 H 47.9601 -1.36374 -0.811662 0
M  V30 463 H 47.9811 -1.41464 -3.53225 0
M  V30 464 H 47.4931 -2.94101 -2.53231 0
M  V30 465 H 45.5941 -0.743643 -3.65104 0
M  V30 466 H 45.7071 -2.58913 -4.03114 0
M  V30 467 H 44.0711 -1.29403 -2.19379 0
M  V30 468 H 44.8541 -2.91976 -1.80568 0
M  V30 469 N 47.2992 1.18797 -1.03562 0
M  V30 470 C 48.5762 1.84469 -0.650434 0
M  V30 471 C 48.9562 1.92319 0.870433 0
M  V30 472 O 48.3042 1.44528 1.76986 0
M  V30 473 C 48.5142 3.2306 -1.32036 0
M  V30 474 C 49.8622 3.9915 -1.44792 0
M  V30 475 O 50.8862 3.32481 -1.27806 0
M  V30 476 O 49.7452 5.18587 -1.72423 0
M  V30 477 H 46.8392 0.795251 -0.226946 0
M  V30 478 H 49.3852 1.26231 -1.13419 0
M  V30 479 H 48.1572 3.1222 -2.3587 0
M  V30 480 H 47.7802 3.88949 -0.8249 0
M  V30 481 N 48.7773 0.814389 1.34928 0
M  V30 482 C 50.0023 0.410097 2.03305 0
M  V30 483 C 50.4273 -0.973464 1.60951 0
M  V30 484 O 49.7853 -1.63185 0.789964 0
M  V30 485 C 49.8333 0.51049 3.56968 0
M  V30 486 O 48.9373 -0.473035 4.09678 0
M  V30 487 H 48.2783 0.170088 0.641846 0
M  V30 488 H 50.8083 1.10244 1.72358 0
M  V30 489 H 50.8183 0.383135 4.06197 0
M  V30 490 H 49.4933 1.51963 3.87144 0
M  V30 491 H 48.0703 -0.305272 3.71648 0
M  V30 492 N 50.2554 -1.46986 0.568584 0
M  V30 493 C 51.4834 -2.0683 0.0539956 0
M  V30 494 C 51.8984 -1.41953 -1.24478 0
M  V30 495 O 51.2554 -0.519933 -1.74937 0
M  V30 496 C 51.3064 -3.61254 -0.133362 0
M  V30 497 O 51.0274 -4.237 1.11399 0
M  V30 498 C 52.5284 -4.37992 -0.683927 0
M  V30 499 H 49.7484 -0.669058 0.0510141 0
M  V30 500 H 52.2924 -1.88824 0.785234 0
M  V30 501 H 50.4474 -3.78735 -0.81477 0
M  V30 502 H 50.8614 -5.16388 0.91888 0
M  V30 503 H 52.3354 -5.46684 -0.764263 0
M  V30 504 H 52.8124 -4.05058 -1.69778 0
M  V30 505 H 53.4184 -4.25283 -0.0378494 0
M  V30 506 N 51.7335 -0.305618 -1.54608 0
M  V30 507 C 53.1495 0.0476228 -1.59529 0
M  V30 508 C 53.3495 1.52025 -1.32252 0
M  V30 509 O 52.4055 2.27368 -1.09818 0
M  V30 510 C 53.7185 -0.354471 -2.98603 0
M  V30 511 C 55.2665 -0.303622 -3.11524 0
M  V30 512 C 55.7415 -0.680608 -4.52915 0
M  V30 513 N 57.2325 -0.63332 -4.5885 0
M  V30 514 C 57.9675 -0.897432 -5.66334 0
M  V30 515 N 57.4635 -1.22775 -6.81834 0
M  V30 516 N 59.2565 -0.824186 -5.56025 0
M  V30 517 H 51.4075 -1.2653 -1.70599 0
M  V30 518 H 53.6705 -0.513291 -0.797017 0
M  V30 519 H 53.3765 -1.3798 -3.23503 0
M  V30 520 H 53.2505 0.289568 -3.76087 0
M  V30 521 H 55.6375 0.712472 -2.8637 0
M  V30 522 H 55.7185 -0.982348 -2.36185 0
M  V30 523 H 55.3625 -1.69453 -4.78799 0
M  V30 524 H 55.2925 0.0202385 -5.26596 0
M  V30 525 H 57.7835 -0.389138 -3.75891 0
M  V30 526 H 58.0965 -1.41513 -7.59733 0
M  V30 527 H 56.4415 -1.26583 -6.83375 0
M  V30 528 H 59.6325 -0.565748 -4.64669 0
M  V30 529 H 59.8055 -1.03338 -6.39707 0
M  V30 530 N 53.2116 1.57565 -0.0334293 0
M  V30 531 C 54.4886 1.83282 0.683163 0
M  V30 532 C 54.8686 0.91823 1.90084 0
M  V30 533 O 54.2166 -0.025113 2.28486 0
M  V30 534 C 54.4266 3.32599 1.0573 0
M  V30 535 C 55.7746 3.99179 1.44711 0
M  V30 536 O 56.7986 3.3712 1.15015 0
M  V30 537 O 55.6576 5.08565 2.0006 0
M  V30 538 H 52.7516 0.755869 0.335546 0
M  V30 539 H 55.2976 1.69589 -0.0614402 0
M  V30 540 H 54.0696 3.90834 0.190828 0
M  V30 541 H 53.6926 3.51415 1.85993 0
M  V30 542 N 54.6897 -0.239769 1.55765 0
M  V30 543 C 55.9377 -0.964892 1.77579 0
M  V30 544 C 56.2587 -1.85582 0.598699 0
M  V30 545 O 55.5287 -1.92075 -0.385226 0
M  V30 546 H 54.1087 -0.359265 0.654933 0
M  V30 547 H 56.7707 -0.256001 1.93211 0
M  V30 548 H 55.8667 -1.58243 2.69009 0
M  V30 549 N 56.1678 -1.49265 -0.50573 0
M  V30 550 C 57.1308 -1.65075 -1.59006 0
M  V30 551 C 58.1308 -0.522768 -1.52065 0
M  V30 552 O 59.3208 -0.789117 -1.55302 0
M  V30 553 C 56.4528 -1.64369 -2.98656 0
M  V30 554 H 57.6458 -2.61784 -1.46319 0
M  V30 555 H 55.1988 -1.38226 -0.729616 0
M  V30 556 H 55.9338 -0.692272 -3.16825 0
M  V30 557 H 55.7188 -2.46282 -3.05103 0
M  V30 558 H 57.2088 -1.78674 -3.77446 0
M  V30 559 N 57.6459 0.756429 -1.3826 0
M  V30 560 C 58.5759 1.88374 -1.37976 0
M  V30 561 C 59.5569 1.68311 -0.246082 0
M  V30 562 O 60.7419 1.88944 -0.44874 0
M  V30 563 C 57.8719 3.25864 -1.20125 0
M  V30 564 C 56.8259 3.60523 -2.30666 0
M  V30 565 C 56.1519 4.9672 -1.97923 0
M  V30 566 C 57.4519 3.65692 -3.72916 0
M  V30 567 H 59.1459 1.88869 -2.32312 0
M  V30 568 H 56.6919 0.907272 -1.11824 0
M  V30 569 H 58.6449 4.0438 -1.18552 0
M  V30 570 H 57.3689 3.25841 -0.222498 0
M  V30 571 H 56.0279 2.84324 -2.3142 0
M  V30 572 H 55.6759 4.93253 -0.985393 0
M  V30 573 H 55.3759 5.20878 -2.71955 0
M  V30 574 H 56.8999 5.77618 -1.97964 0
M  V30 575 H 58.3139 4.34328 -3.74208 0
M  V30 576 H 56.7109 4.01358 -4.4613 0
M  V30 577 H 57.7809 2.65987 -4.05436 0
M  V30 578 N 59.124 1.23083 0.984299 0
M  V30 579 C 60.054 1.03292 2.09411 0
M  V30 580 C 61.035 -0.048923 1.7003 0
M  V30 581 O 62.22 0.114967 1.93859 0
M  V30 582 C 59.35 0.619155 3.41736 0
M  V30 583 C 58.304 1.64791 3.95004 0
M  V30 584 C 57.63 1.0897 5.23478 0
M  V30 585 C 58.93 3.03999 4.24714 0
M  V30 586 H 60.624 1.96119 2.26225 0
M  V30 587 H 58.17 0.944344 1.08711 0
M  V30 588 H 60.123 0.467777 4.18796 0
M  V30 589 H 58.847 -0.344786 3.24775 0
M  V30 590 H 57.506 1.78721 3.20085 0
M  V30 591 H 57.154 0.11686 5.02864 0
M  V30 592 H 56.854 1.77704 5.60085 0
M  V30 593 H 58.378 0.950093 6.03163 0
M  V30 594 H 59.792 2.93393 4.92538 0
M  V30 595 H 58.189 3.69936 4.72512 0
M  V30 596 H 59.259 3.53285 3.32142 0
M  V30 597 N 60.6021 -1.18246 1.0419 0
M  V30 598 C 61.8511 -1.87588 0.741194 0
M  V30 599 C 62.1641 -1.81303 -0.734066 0
M  V30 600 O 63.3701 -2.46019 -1.14834 0
M  V30 601 C 61.8261 -3.36538 1.27555 0
M  V30 602 C 61.4341 -3.51349 2.77953 0
M  V30 603 C 63.1781 -4.11273 1.05143 0
M  V30 604 C 61.0851 -4.94265 3.2474 0
M  V30 605 H 60.0151 -0.702622 0.273565 0
M  V30 606 H 62.6661 -1.33601 1.25789 0
M  V30 607 H 61.0481 -3.9 0.686703 0
M  V30 608 H 62.2221 -3.08153 3.42605 0
M  V30 609 H 60.5371 -2.90022 2.98791 0
M  V30 610 H 63.1341 -5.16689 1.37611 0
M  V30 611 H 63.4771 -4.16298 -0.0112774 0
M  V30 612 H 64.0101 -3.63987 1.60495 0
M  V30 613 H 60.7491 -4.94408 4.30396 0
M  V30 614 H 60.2691 -5.38172 2.64823 0
M  V30 615 H 61.9481 -5.62987 3.18834 0
M  V30 616 N 62.0802 -0.821533 -1.34494 0
M  V30 617 C 63.0432 -0.247847 -2.27856 0
M  V30 618 C 64.0432 0.573453 -1.50227 0
M  V30 619 O 65.2332 0.389759 -1.69784 0
M  V30 620 C 62.3652 0.652698 -3.34593 0
M  V30 621 H 63.5582 -1.07146 -2.80107 0
M  V30 622 H 61.1112 -0.593291 -1.44602 0
M  V30 623 H 61.8462 1.49943 -2.87555 0
M  V30 624 H 61.6312 0.065292 -3.92046 0
M  V30 625 H 63.1212 1.04793 -4.04238 0
M  V30 626 N 63.5583 1.46682 -0.576371 0
M  V30 627 C 64.8063 2.02013 -0.0594163 0
M  V30 628 C 65.1273 1.45101 1.30271 0
M  V30 629 O 64.3973 0.633317 1.8538 0
M  V30 630 H 62.9773 0.746759 -0.0189745 0
M  V30 631 H 65.6393 1.79862 -0.750717 0
M  V30 632 H 64.7353 3.12097 0.014345 0
M  V30 633 N 65.0364 0.313813 1.54444 0
M  V30 634 C 66.2614 -0.296681 2.05267 0
M  V30 635 C 66.6864 -1.45757 1.18897 0
M  V30 636 O 66.0444 -1.80239 0.195886 0
M  V30 637 C 66.0924 -0.71831 3.53373 0
M  V30 638 O 65.1964 -1.82175 3.69981 0
M  V30 639 H 64.5374 -0.0554061 0.661684 0
M  V30 640 H 67.0674 0.459387 1.99376 0
M  V30 641 H 67.0774 -1.00364 3.95463 0
M  V30 642 H 65.7524 0.130821 4.15694 0
M  V30 643 H 64.3294 -1.53598 3.39797 0
M  V30 644 N 66.5145 -1.57545 0.0417849 0
M  V30 645 C 67.4245 -2.14451 -0.951213 0
M  V30 646 C 68.4405 -1.09992 -1.34825 0
M  V30 647 O 69.6165 -1.42114 -1.42708 0
M  V30 648 C 66.6815 -2.67063 -2.21084 0
M  V30 649 C 65.7425 -3.86284 -1.87304 0
M  V30 650 C 64.9755 -4.36378 -3.07261 0
M  V30 651 O 65.1985 -3.85587 -4.20332 0
M  V30 652 O 64.1325 -5.28077 -2.88822 0
M  V30 653 H 67.9585 -2.99601 -0.497287 0
M  V30 654 H 65.5435 -1.48317 -0.179567 0
M  V30 655 H 67.4255 -3.00914 -2.95006 0
M  V30 656 H 66.1005 -1.84989 -2.65633 0
M  V30 657 H 65.0075 -3.57338 -1.10727 0
M  V30 658 H 66.3405 -4.6956 -1.47562 0
M  V30 659 N 67.9926 0.231505 -1.5589 0
M  V30 660 C 68.9556 1.27028 -1.90779 0
M  V30 661 C 69.9556 1.40308 -0.785507 0
M  V30 662 O 71.1456 1.38744 -1.05336 0
M  V30 663 C 68.2776 2.64566 -2.14983 0
M  V30 664 H 69.4706 0.973017 -2.83677 0
M  V30 665 H 67.0236 0.471486 -1.49019 0
M  V30 666 H 67.7586 2.99406 -1.24604 0
M  V30 667 H 67.5436 2.56305 -2.96732 0
M  V30 668 H 69.0336 3.39543 -2.43105 0
M  V30 669 N 69.4707 1.49531 0.497807 0
M  V30 670 C 70.8817 1.52344 1.07927 0
M  V30 671 C 71.2327 0.311469 1.93712 0
M  V30 672 O 70.3577 -0.578405 2.08527 0
M  V30 673 C 70.9527 2.76062 1.96405 0
M  V30 674 C 69.5117 2.81643 2.49709 0
M  V30 675 C 68.6587 2.46299 1.27404 0
M  V30 676 H 71.6097 1.56182 0.281576 0
M  V30 677 H 71.6307 2.56405 2.81135 0
M  V30 678 H 71.1427 3.64254 1.33943 0
M  V30 679 H 69.2437 1.97739 3.15801 0
M  V30 680 H 69.3567 3.83891 2.86643 0
M  V30 681 H 67.7207 1.98148 1.60029 0
M  V30 682 H 68.5037 3.36769 0.66645 0
M  V30 683 N 70.9488 -0.749086 1.3866 0
M  V30 684 C 71.8958 -1.86291 1.36251 0
M  V30 685 C 72.8658 -1.64578 0.224347 0
M  V30 686 O 74.0508 -1.86181 0.417279 0
M  V30 687 C 71.1908 -3.23644 1.19786 0
M  V30 688 C 70.3038 -3.57158 2.43027 0
M  V30 689 C 69.4388 -4.83838 2.19258 0
M  V30 690 C 68.4778 -5.10152 3.38247 0
M  V30 691 N 67.6148 -6.28029 3.13884 0
M  V30 692 H 72.4548 -1.87685 2.3147 0
M  V30 693 H 69.9918 -0.917287 1.14997 0
M  V30 694 H 71.9498 -4.0291 1.08254 0
M  V30 695 H 70.5798 -3.21566 0.282031 0
M  V30 696 H 69.6318 -2.72701 2.65214 0
M  V30 697 H 70.9438 -3.7253 3.31697 0
M  V30 698 H 70.0978 -5.71057 2.04888 0
M  V30 699 H 68.8368 -4.70614 1.2796 0
M  V30 700 H 67.8418 -4.21401 3.53131 0
M  V30 701 H 69.0668 -5.25271 4.30427 0
M  V30 702 H 67.0128 -6.1612 2.25238 0
M  V30 703 H 66.9298 -6.43922 3.96106 0
M  V30 704 H 68.1978 -7.18124 3.03179 0
M  V30 705 N 72.4269 -1.23603 -0.977757 0
M  V30 706 C 73.8429 -0.999251 -1.24447 0
M  V30 707 C 74.0429 0.298053 -1.99283 0
M  V30 708 O 73.0989 1.01681 -2.31122 0
M  V30 709 C 74.4119 -2.20784 -2.04144 0
M  V30 710 C 75.9599 -2.25303 -2.17273 0
M  V30 711 C 76.4349 -3.45755 -3.00362 0
M  V30 712 N 77.9259 -3.4601 -3.07947 0
M  V30 713 C 78.6609 -4.35868 -3.72568 0
M  V30 714 N 78.1569 -5.35966 -4.38991 0
M  V30 715 N 79.9499 -4.23605 -3.6948 0
M  V30 716 H 72.1009 -2.06986 -0.476483 0
M  V30 717 H 74.3639 -0.907801 -0.273134 0
M  V30 718 H 74.0699 -3.14945 -1.56533 0
M  V30 719 H 73.9439 -2.22085 -3.04891 0
M  V30 720 H 76.3309 -1.3168 -2.64092 0
M  V30 721 H 76.4119 -2.28033 -1.15907 0
M  V30 722 H 76.0559 -4.39687 -2.5424 0
M  V30 723 H 75.9859 -3.40266 -4.01904 0
M  V30 724 H 78.4769 -2.73588 -2.60688 0
M  V30 725 H 78.7899 -6.00783 -4.86086 0
M  V30 726 H 77.1349 -5.39863 -4.37691 0
M  V30 727 H 80.3259 -3.44647 -3.16759 0
M  V30 728 H 80.4989 -4.93836 -4.1956 0
M  V30 729 N 73.905 1.17692 -1.04816 0
M  V30 730 C 75.153 1.87488 -0.754497 0
M  V30 731 C 75.474 1.81205 0.720407 0
M  V30 732 O 74.744 1.23544 1.52032 0
M  V30 733 H 73.324 0.694101 -0.276102 0
M  V30 734 H 75.986 1.42793 -1.32651 0
M  V30 735 H 75.082 2.93328 -1.06606 0
M  V30 736 N 75.3831 0.828654 1.34056 0
M  V30 737 C 76.6081 0.431637 2.02859 0
M  V30 738 C 77.0331 -0.956339 1.61975 0
M  V30 739 O 76.3911 -1.62338 0.807228 0
M  V30 740 C 76.4391 0.548323 3.56407 0
M  V30 741 O 75.5431 -0.429556 4.10157 0
M  V30 742 H 74.8841 0.176886 0.640006 0
M  V30 743 H 77.4141 1.12066 1.71179 0
M  V30 744 H 77.4241 0.426196 4.05768 0
M  V30 745 H 76.0991 1.5606 3.8551 0
M  V30 746 H 74.6761 -0.265836 3.71951 0
M  V30 747 N 76.8612 -1.46375 0.584142 0
M  V30 748 C 78.1102 -2.01585 0.0679741 0
M  V30 749 C 78.4232 -1.46109 -1.30045 0
M  V30 750 O 79.6292 -1.93148 -1.90804 0
M  V30 751 C 78.0852 -3.5983 0.0709207 0
M  V30 752 C 77.6932 -4.24303 1.43775 0
M  V30 753 C 79.4372 -4.22693 -0.391228 0
M  V30 754 C 77.3442 -5.74631 1.39834 0
M  V30 755 H 76.2742 -0.753689 0.0216421 0
M  V30 756 H 78.9252 -1.68093 0.736001 0
M  V30 757 H 77.3072 -3.90405 -0.663299 0
M  V30 758 H 78.4812 -4.05335 2.19181 0
M  V30 759 H 76.7962 -3.73539 1.84004 0
M  V30 760 H 79.3932 -5.3289 -0.439524 0
M  V30 761 H 79.7362 -3.91728 -1.40906 0
M  V30 762 H 80.2692 -3.96749 0.288974 0
M  V30 763 H 77.0082 -6.10258 2.39303 0
M  V30 764 H 76.5282 -5.95858 0.686505 0
M  V30 765 H 78.2072 -6.37375 1.11187 0
M  V30 766 N 78.3393 -0.321999 -1.54275 0
M  V30 767 C 79.2693 0.537411 -2.27231 0
M  V30 768 C 80.2503 1.12064 -1.27968 0
M  V30 769 O 81.4353 1.14606 -1.56777 0
M  V30 770 C 78.5653 1.69919 -3.02894 0
M  V30 771 C 77.5193 1.24534 -4.09482 0
M  V30 772 C 76.8453 2.49394 -4.72977 0
M  V30 773 C 78.1453 0.361335 -5.21049 0
M  V30 774 H 79.8393 -0.0711406 -2.99315 0
M  V30 775 H 77.3853 -0.0356555 -1.43956 0
M  V30 776 H 79.3383 2.30668 -3.52662 0
M  V30 777 H 78.0623 2.33431 -2.28424 0
M  V30 778 H 76.7213 0.660782 -3.60596 0
M  V30 779 H 76.3693 3.11265 -3.95124 0
M  V30 780 H 76.0693 2.19718 -5.44975 0
M  V30 781 H 77.5933 3.10908 -5.25517 0
M  V30 782 H 79.0073 0.875072 -5.66582 0
M  V30 783 H 77.4043 0.157428 -5.99893 0
M  V30 784 H 78.4743 -0.60822 -4.8107 0
M  V30 785 N 79.8174 1.5752 -0.0501392 0
M  V30 786 C 81.0424 1.97376 0.636997 0
M  V30 787 C 81.4674 0.927466 1.63645 0
M  V30 788 O 80.8254 -0.10941 1.8097 0
M  V30 789 C 80.8734 3.36304 1.30123 0
M  V30 790 O 79.9774 3.34156 2.41689 0
M  V30 791 H 79.3184 0.642998 0.165679 0
M  V30 792 H 81.8484 2.04258 -0.118233 0
M  V30 793 H 81.8584 3.73008 1.65315 0
M  V30 794 H 80.5334 4.11993 0.568746 0
M  V30 795 H 79.1104 3.09196 2.08451 0
M  V30 796 N 81.2955 -0.223234 1.56011 0
M  V30 797 C 82.2425 -1.27664 1.92277 0
M  V30 798 C 83.2125 -1.46659 0.779763 0
M  V30 799 O 84.3975 -1.60256 1.03551 0
M  V30 800 C 81.5375 -2.62234 2.24338 0
M  V30 801 C 80.6505 -2.51051 3.51564 0
M  V30 802 C 79.7855 -3.78133 3.7308 0
M  V30 803 C 78.8245 -3.61665 4.93827 0
M  V30 804 N 77.9615 -4.80693 5.11741 0
M  V30 805 H 82.8015 -0.960358 2.82101 0
M  V30 806 H 80.3385 -0.462901 1.39627 0
M  V30 807 H 82.2965 -3.40596 2.40936 0
M  V30 808 H 80.9265 -2.91961 1.3769 0
M  V30 809 H 79.9785 -1.64132 3.43169 0
M  V30 810 H 81.2905 -2.34803 4.40079 0
M  V30 811 H 80.4445 -4.64938 3.89766 0
M  V30 812 H 79.1835 -3.97304 2.82844 0
M  V30 813 H 78.1885 -2.73244 4.77093 0
M  V30 814 H 79.4135 -3.43966 5.85546 0
M  V30 815 H 77.3595 -5.00181 4.24446 0
M  V30 816 H 77.2765 -4.67165 5.94384 0
M  V30 817 H 78.5445 -5.6893 5.3286 0
M  V30 818 N 82.7736 -1.49793 -0.48987 0
M  V30 819 C 84.1846 -1.52914 -1.07118 0
M  V30 820 C 84.5356 -0.321738 -1.93544 0
M  V30 821 O 83.6606 0.567338 -2.08831 0
M  V30 822 C 84.2556 -2.771 -1.94938 0
M  V30 823 C 82.8146 -2.82963 -2.48212 0
M  V30 824 C 81.9616 -2.46972 -1.26096 0
M  V30 825 H 84.9126 -1.56329 -0.273289 0
M  V30 826 H 84.9336 -2.57892 -2.79771 0
M  V30 827 H 84.4456 -3.64959 -1.32009 0
M  V30 828 H 82.5466 -1.99411 -3.14748 0
M  V30 829 H 82.6596 -3.85406 -2.84603 0
M  V30 830 H 81.0236 -1.98994 -1.58976 0
M  V30 831 H 81.8066 -3.37118 -0.648581 0
M  V30 832 N 84.2517 0.741722 -1.39055 0
M  V30 833 C 85.6677 1.04638 -1.20512 0
M  V30 834 C 85.8677 2.01405 -0.0620218 0
M  V30 835 O 84.9237 2.45547 0.588457 0
M  V30 836 C 86.2367 1.6151 -2.53643 0
M  V30 837 C 87.7847 1.73623 -2.6043 0
M  V30 838 C 88.2597 2.33906 -3.93767 0
M  V30 839 N 89.7507 2.41323 -3.9537 0
M  V30 840 C 90.4857 2.88888 -4.95309 0
M  V30 841 N 89.9817 3.36401 -6.05645 0
M  V30 842 N 91.7747 2.88037 -4.82692 0
M  V30 843 H 83.9257 0.0998155 -2.12165 0
M  V30 844 H 86.1887 0.106907 -0.941953 0
M  V30 845 H 85.8947 0.978739 -3.37807 0
M  V30 846 H 85.7687 2.60411 -2.72885 0
M  V30 847 H 88.1557 2.36384 -1.76655 0
M  V30 848 H 88.2367 0.733945 -2.45045 0
M  V30 849 H 87.8807 1.71776 -4.7797 0
M  V30 850 H 87.8107 3.34799 -4.06469 0
M  V30 851 H 90.3017 2.07734 -3.15682 0
M  V30 852 H 90.6147 3.71186 -6.77821 0
M  V30 853 H 88.9597 3.34427 -6.09248 0
M  V30 854 H 92.1507 2.50237 -3.95599 0
M  V30 855 H 92.3237 3.24792 -5.60726 0
M  V30 856 N 85.7298 1.2412 0.971189 0
M  V30 857 C 86.6928 1.03156 2.04674 0
M  V30 858 C 87.6928 -0.00990322 1.60797 0
M  V30 859 O 88.8828 0.230729 1.72665 0
M  V30 860 C 86.0148 0.562765 3.36223 0
M  V30 861 H 87.2078 1.98614 2.24705 0
M  V30 862 H 84.7608 1.06293 1.14593 0
M  V30 863 H 85.4958 -0.395176 3.21883 0
M  V30 864 H 85.2808 1.31441 3.69413 0
M  V30 865 H 86.7708 0.437015 4.15307 0
M  V30 866 N 87.2079 -1.17134 1.05439 0
M  V30 867 C 88.4559 -1.87085 0.764429 0
M  V30 868 C 88.7769 -1.81584 -0.710787 0
M  V30 869 O 88.0469 -1.24349 -1.51374 0
M  V30 870 H 86.6269 -0.692627 0.279779 0
M  V30 871 H 89.2889 -1.42087 1.33406 0
M  V30 872 H 88.3849 -2.92759 1.0816 0
M  V30 873 N 88.686 -0.835752 -1.33615 0
M  V30 874 C 89.934 -0.429109 -1.97492 0
M  V30 875 C 90.255 1.01433 -1.66543 0
M  V30 876 O 89.525 1.70611 -0.962744 0
M  V30 877 H 88.105 -0.155686 -0.730596 0
M  V30 878 H 90.767 -1.06802 -1.63031 0
M  V30 879 H 89.863 -0.55861 -3.0706 0
M  V30 880 N 90.1641 1.46063 -0.591896 0
M  V30 881 C 91.1271 2.28854 0.125973 0
M  V30 882 C 92.1271 1.38903 0.810107 0
M  V30 883 O 93.3171 1.61186 0.66066 0
M  V30 884 C 90.4491 3.19526 1.1881 0
M  V30 885 H 91.6421 2.93802 -0.601717 0
M  V30 886 H 89.1951 1.52325 -0.350254 0
M  V30 887 H 89.9301 2.59345 1.94707 0
M  V30 888 H 89.7151 3.85766 0.701936 0
M  V30 889 H 91.2051 3.81817 1.69132 0
M  V30 890 N 91.6422 0.330177 1.54103 0
M  V30 891 C 92.8902 -0.269871 2.0029 0
M  V30 892 C 93.2112 -1.52133 1.21986 0
M  V30 893 O 92.4812 -1.93212 0.323438 0
M  V30 894 H 91.0612 -0.10271 0.739905 0
M  V30 895 H 93.7232 0.448249 1.89675 0
M  V30 896 H 92.8192 -0.52166 3.07709 0
M  V30 897 N 93.1203 -1.57491 0.0584922 0
M  V30 898 C 94.0833 -2.1085 -0.898617 0
M  V30 899 C 95.0833 -1.02964 -1.23511 0
M  V30 900 O 96.2733 -1.29007 -1.17059 0
M  V30 901 C 93.4053 -2.59881 -2.20623 0
M  V30 902 H 94.5983 -2.96715 -0.435936 0
M  V30 903 H 92.1513 -1.55141 -0.190023 0
M  V30 904 H 92.8863 -1.77431 -2.71457 0
M  V30 905 H 92.6713 -3.38727 -1.97501 0
M  V30 906 H 94.1613 -3.01285 -2.89166 0
M  V30 907 N 94.5984 0.214957 -1.56127 0
M  V30 908 C 95.8464 0.936518 -1.79091 0
M  V30 909 C 96.1674 1.84606 -0.628148 0
M  V30 910 O 95.4374 1.92664 0.35462 0
M  V30 911 H 94.0174 0.3488 -0.660566 0
M  V30 912 H 96.6794 0.22523 -1.93594 0
M  V30 913 H 95.7754 1.53943 -2.71492 0
M  V30 914 N 96.0765 1.50051 0.48192 0
M  V30 915 C 97.0235 1.68122 1.58125 0
M  V30 916 C 97.9935 0.522545 1.57666 0
M  V30 917 O 99.1785 0.751844 1.75362 0
M  V30 918 C 96.3185 1.77142 2.96167 0
M  V30 919 C 95.4315 3.0444 3.06497 0
M  V30 920 C 94.5665 3.04321 4.35387 0
M  V30 921 C 93.6055 4.26118 4.3942 0
M  V30 922 N 92.7425 4.238 5.59766 0
M  V30 923 H 97.5825 2.6198 1.42022 0
M  V30 924 H 95.1195 1.29877 0.690687 0
M  V30 925 H 97.0775 1.80352 3.76203 0
M  V30 926 H 95.7075 0.867329 3.1093 0
M  V30 927 H 94.7595 3.10752 2.19402 0
M  V30 928 H 96.0715 3.94426 3.05336 0
M  V30 929 H 95.2255 3.062 5.23762 0
M  V30 930 H 93.9645 2.12147 4.39141 0
M  V30 931 H 92.9695 4.24463 3.49444 0
M  V30 932 H 94.1945 5.19507 4.37366 0
M  V30 933 H 92.1405 3.34474 5.64326 0
M  V30 934 H 92.0575 5.07542 5.60301 0
M  V30 935 H 93.3255 4.2981 6.50295 0
M  V30 936 N 97.5546 -0.734337 1.39446 0
M  V30 937 C 98.9656 -1.31264 1.32766 0
M  V30 938 C 99.3166 -1.96198 -0.00767497 0
M  V30 939 O 98.4416 -1.96346 -0.909796 0
M  V30 940 C 99.0366 -2.38682 2.4045 0
M  V30 941 C 97.5956 -2.92184 2.37288 0
M  V30 942 C 96.7426 -1.6576 2.22304 0
M  V30 943 H 99.6936 -0.531799 1.49525 0
M  V30 944 H 99.7146 -3.19087 2.07276 0
M  V30 945 H 99.2266 -1.91392 3.37625 0
M  V30 946 H 97.3276 -3.43752 1.43754 0
M  V30 947 H 97.4406 -3.45253 3.3217 0
M  V30 948 H 95.8046 -1.9012 1.69489 0
M  V30 949 H 96.5876 -1.20521 3.21449 0
M  V30 950 N 99.0327 -1.24633 -0.964593 0
M  V30 951 C 100.444 -1.08045 -1.5226 0
M  V30 952 C 100.795 0.347116 -1.93105 0
M  V30 953 O 99.9197 1.23588 -1.77637 0
M  V30 954 C 100.515 -1.95514 -2.76695 0
M  V30 955 C 99.0737 -1.8314 -3.28841 0
M  V30 956 C 98.2207 -1.90262 -2.01732 0
M  V30 957 H 101.172 -1.38064 -0.782553 0
M  V30 958 H 101.193 -1.48925 -3.50145 0
M  V30 959 H 100.705 -2.99407 -2.46936 0
M  V30 960 H 98.8057 -0.82092 -3.63444 0
M  V30 961 H 98.9187 -2.67406 -3.97531 0
M  V30 962 H 97.2827 -1.34027 -2.16584 0
M  V30 963 H 98.0657 -2.9574 -1.74334 0
M  V30 964 N 100.511 1.16574 -1.06058 0
M  V30 965 C 101.458 2.20883 -0.669263 0
M  V30 966 C 102.428 1.62729 0.332918 0
M  V30 967 O 103.613 1.895 0.222346 0
M  V30 968 C 100.753 3.45049 -0.0593572 0
M  V30 969 C 99.8658 4.17458 -1.11143 0
M  V30 970 C 99.0008 5.29135 -0.467916 0
M  V30 971 C 98.0398 5.93343 -1.50369 0
M  V30 972 N 97.1768 6.96516 -0.883706 0
M  V30 973 H 102.017 2.53709 -1.5632 0
M  V30 974 H 99.5538 1.24616 -0.781625 0
M  V30 975 H 101.512 4.16033 0.311771 0
M  V30 976 H 100.142 3.12781 0.797992 0
M  V30 977 H 99.1938 3.45101 -1.60029 0
M  V30 978 H 100.506 4.61307 -1.89731 0
M  V30 979 H 99.6598 6.06684 -0.0436871 0
M  V30 980 H 98.3988 4.86443 0.349864 0
M  V30 981 H 97.4038 5.14517 -1.93784 0
M  V30 982 H 98.6288 6.38114 -2.32352 0
M  V30 983 H 96.5748 6.55943 -0.086595 0
M  V30 984 H 96.4918 7.38723 -1.607 0
M  V30 985 H 97.7598 7.77993 -0.484543 0
M  V30 986 N 101.989 0.842826 1.3317 0
M  V30 987 C 103.405 0.531128 1.50503 0
M  V30 988 C 103.605 -0.940734 1.78192 0
M  V30 989 O 102.661 -1.72436 1.84451 0
M  V30 990 C 103.974 1.40789 2.65705 0
M  V30 991 C 105.522 1.40708 2.79589 0
M  V30 992 C 105.997 2.26878 3.97857 0
M  V30 993 N 107.488 2.24609 4.05099 0
M  V30 994 C 108.223 2.88019 4.95815 0
M  V30 995 N 107.719 3.60496 5.9162 0
M  V30 996 N 109.512 2.77469 4.88843 0
M  V30 997 H 101.663 1.79557 1.1346 0
M  V30 998 H 103.926 0.766267 0.558156 0
M  V30 999 H 103.632 2.454 2.51936 0
M  V30 1000 H 103.506 1.08677 3.61205 0
M  V30 1001 H 105.893 0.368668 2.92788 0
M  V30 1002 H 105.974 1.76829 1.84838 0
M  V30 1003 H 105.618 3.3078 3.85418 0
M  V30 1004 H 105.548 1.88096 4.91861 0
M  V30 1005 H 108.039 1.71906 3.36536 0
M  V30 1006 H 108.352 4.06076 6.57512 0
M  V30 1007 H 106.697 3.64604 5.91683 0
M  V30 1008 H 109.888 2.20406 4.12963 0
M  V30 1009 H 110.061 3.2717 5.59342 0
M  V30 1010 N 103.467 -1.45747 0.599634 0
M  V30 1011 C 104.415 -2.322 -0.136426 0
M  V30 1012 C 105.409 -1.45497 -0.867583 0
M  V30 1013 O 106.615 -1.62027 -0.78405 0
M  V30 1014 H 102.99 -0.749368 -0.0628588 0
M  V30 1015 H 104.961 -2.92072 0.611281 0
M  V30 1016 C 103.71 -3.28974 -1.12567 0
M  V30 1017 H 103.033 -3.9568 -0.572484 0
M  V30 1018 H 104.473 -3.92212 -1.61077 0
M  V30 1019 C 102.932 -2.55561 -2.19523 0
M  V30 1020 O 103.462 -2.33111 -3.27143 0
M  V30 1021 N 101.668 -2.15832 -1.94589 0
M  V30 1022 H 101.215 -2.3429 -1.07078 0
M  V30 1023 H 101.173 -1.67034 -2.66359 0
M  V30 1024 N 104.945 -0.338344 -1.53925 0
M  V30 1025 C 105.908 0.508299 -2.23493 0
M  V30 1026 C 106.908 1.03175 -1.23335 0
M  V30 1027 O 108.098 0.921826 -1.47811 0
M  V30 1028 C 105.23 1.70754 -2.95052 0
M  V30 1029 H 106.423 -0.100058 -2.99733 0
M  V30 1030 H 103.976 -0.0896198 -1.56043 0
M  V30 1031 H 104.711 2.35474 -2.22986 0
M  V30 1032 H 104.496 1.33946 -3.68512 0
M  V30 1033 H 105.986 2.30818 -3.48013 0
M  V30 1034 N 106.423 1.57458 -0.0668435 0
M  V30 1035 C 107.67 1.93301 0.603406 0
M  V30 1036 C 107.998 0.946486 1.69917 0
M  V30 1037 O 107.253 -0.0387021 1.95662 0
M  V30 1038 C 107.552 3.35784 1.22409 0
M  V30 1039 C 107.218 4.50179 0.254955 0
M  V30 1040 C 105.88 4.81199 -0.0116746 0
M  V30 1041 C 108.232 5.19598 -0.408338 0
M  V30 1042 C 105.56 5.78978 -0.94877 0
M  V30 1043 C 107.912 6.18381 -1.33372 0
M  V30 1044 C 106.576 6.47821 -1.60887 0
M  V30 1045 H 105.846 0.707338 0.220802 0
M  V30 1046 H 108.493 1.91012 -0.136665 0
M  V30 1047 H 106.798 3.34515 2.03978 0
M  V30 1048 H 108.495 3.60804 1.74989 0
M  V30 1049 H 105.085 4.25983 0.472954 0
M  V30 1050 H 109.269 4.95832 -0.215456 0
M  V30 1051 H 104.525 6.00115 -1.16925 0
M  V30 1052 H 108.699 6.71277 -1.85367 0
M  V30 1053 H 106.326 7.23399 -2.33661 0
M  V30 1054 N 107.901 -0.206675 1.56239 0
M  V30 1055 C 109.131 -0.943975 1.83773 0
M  V30 1056 C 109.539 -1.77841 0.645703 0
M  V30 1057 O 108.882 -1.79403 -0.395008 0
M  V30 1058 C 108.944 -1.899 3.05251 0
M  V30 1059 C 108.608 -1.24764 4.39639 0
M  V30 1060 C 109.605 -0.630216 5.16066 0
M  V30 1061 C 107.29 -1.25496 4.8637 0
M  V30 1062 C 109.284 -0.0287946 6.37393 0
M  V30 1063 C 106.971 -0.649698 6.07637 0
M  V30 1064 C 107.969 -0.0376845 6.8299 0
M  V30 1065 O 107.657 0.55812 8.0196 0
M  V30 1066 H 107.389 -0.281508 0.614597 0
M  V30 1067 H 109.943 -0.222458 2.04192 0
M  V30 1068 H 108.173 -2.6599 2.80689 0
M  V30 1069 H 109.862 -2.5031 3.1953 0
M  V30 1070 H 110.628 -0.616785 4.81062 0
M  V30 1071 H 106.507 -1.72072 4.27683 0
M  V30 1072 H 110.051 0.449518 6.9615 0
M  V30 1073 H 105.948 -0.660592 6.42111 0
M  V30 1074 H 106.716 0.453891 8.17241 0
M  V30 1075 N 109.379 -1.50304 -0.473955 0
M  V30 1076 C 110.795 -1.37667 -0.807466 0
M  V30 1077 C 110.995 -0.430555 -1.96846 0
M  V30 1078 O 110.051 0.127874 -2.52176 0
M  V30 1079 C 111.364 -2.78974 -1.12223 0
M  V30 1080 C 112.912 -2.87868 -1.22885 0
M  V30 1081 C 113.387 -4.30003 -1.57676 0
M  V30 1082 N 114.878 -4.3294 -1.64673 0
M  V30 1083 C 115.613 -5.3991 -1.93091 0
M  V30 1084 N 115.109 -6.57092 -2.1955 0
M  V30 1085 N 116.902 -5.27351 -1.94569 0
M  V30 1086 H 109.053 -2.10394 0.291212 0
M  V30 1087 H 111.316 -0.945575 0.0677609 0
M  V30 1088 H 111.022 -3.50031 -0.342229 0
M  V30 1089 H 110.896 -3.16038 -2.05913 0
M  V30 1090 H 113.283 -2.17032 -1.99953 0
M  V30 1091 H 113.364 -2.54352 -0.271814 0
M  V30 1092 H 113.008 -5.01375 -0.81149 0
M  V30 1093 H 112.938 -4.61004 -2.54525 0
M  V30 1094 H 115.429 -3.48441 -1.46277 0
M  V30 1095 H 115.742 -7.34425 -2.405 0
M  V30 1096 H 114.087 -6.60272 -2.16948 0
M  V30 1097 H 117.278 -4.34801 -1.73394 0
M  V30 1098 H 117.451 -6.10805 -2.16381 0
M  V30 1099 N 110.857 0.726932 -1.39834 0
M  V30 1100 C 111.804 1.841 -1.39197 0
M  V30 1101 C 112.774 1.642 -0.250502 0
M  V30 1102 O 113.959 1.85494 -0.446846 0
M  V30 1103 C 111.099 3.21697 -1.24919 0
M  V30 1104 C 110.212 3.53247 -2.48678 0
M  V30 1105 C 109.347 4.80289 -2.26928 0
M  V30 1106 C 108.386 5.04707 -3.4632 0
M  V30 1107 N 107.523 6.22956 -3.23836 0
M  V30 1108 H 112.363 1.83979 -2.34427 0
M  V30 1109 H 109.9 0.898876 -1.16442 0
M  V30 1110 H 111.858 4.01137 -1.1465 0
M  V30 1111 H 110.488 3.21076 -0.333153 0
M  V30 1112 H 109.54 2.68447 -2.69519 0
M  V30 1113 H 110.852 3.67205 -3.37582 0
M  V30 1114 H 110.006 5.67725 -2.13947 0
M  V30 1115 H 108.745 4.68519 -1.35431 0
M  V30 1116 H 107.75 4.1573 -3.5979 0
M  V30 1117 H 108.975 5.18357 -4.38729 0
M  V30 1118 H 106.921 6.12459 -2.35011 0
M  V30 1119 H 106.838 6.37539 -4.063 0
M  V30 1120 H 108.106 7.1321 -3.14566 0
M  V30 1121 N 112.336 1.25143 0.95797 0
M  V30 1122 C 113.266 1.07711 2.07173 0
M  V30 1123 C 114.247 -0.0128462 1.70095 0
M  V30 1124 O 115.432 0.156061 1.93572 0
M  V30 1125 C 112.562 0.691503 3.40346 0
M  V30 1126 C 111.516 1.73132 3.9142 0
M  V30 1127 C 110.842 1.20049 5.21049 0
M  V30 1128 C 112.142 3.1294 4.1817 0
M  V30 1129 H 113.836 2.00873 2.22014 0
M  V30 1130 H 111.382 0.967191 1.06684 0
M  V30 1131 H 113.335 0.556505 4.17709 0
M  V30 1132 H 112.059 -0.275819 3.25433 0
M  V30 1133 H 110.718 1.8547 3.16222 0
M  V30 1134 H 110.366 0.223499 5.02503 0
M  V30 1135 H 110.066 1.89545 5.56189 0
M  V30 1136 H 111.59 1.07782 6.01012 0
M  V30 1137 H 113.004 3.03775 4.86203 0
M  V30 1138 H 111.401 3.79875 4.64559 0
M  V30 1139 H 112.471 3.6025 3.24573 0
M  V30 1140 N 113.814 -1.1601 1.06675 0
M  V30 1141 C 114.746 -2.20115 0.638921 0
M  V30 1142 C 115.759 -1.59916 -0.305057 0
M  V30 1143 O 116.948 -1.78245 -0.0954446 0
M  V30 1144 C 114.048 -3.38798 -0.0830083 0
M  V30 1145 C 113.221 -4.2855 0.875426 0
M  V30 1146 C 112.28 -5.25849 0.192042 0
M  V30 1147 O 111.306 -5.63102 0.830921 0
M  V30 1148 N 112.508 -5.70648 -1.06493 0
M  V30 1149 H 115.273 -2.57439 1.53444 0
M  V30 1150 H 112.834 -1.31057 0.950557 0
M  V30 1151 H 114.826 -4.00936 -0.550685 0
M  V30 1152 H 113.396 -2.99947 -0.880386 0
M  V30 1153 H 112.616 -3.63617 1.52238 0
M  V30 1154 H 113.904 -4.85393 1.52548 0
M  V30 1155 H 113.302 -5.42482 -1.60405 0
M  V30 1156 H 111.859 -6.34859 -1.47641 0
M  V30 1157 N 115.292 -0.849877 -1.32721 0
M  V30 1158 C 116.24 -0.279745 -2.30912 0
M  V30 1159 C 117.234 0.594278 -1.58634 0
M  V30 1160 O 118.44 0.482613 -1.73409 0
M  V30 1161 H 114.815 -0.0717521 -0.748569 0
M  V30 1162 H 116.786 -1.12222 -2.76494 0
M  V30 1163 C 115.535 0.521108 -3.43773 0
M  V30 1164 H 114.858 -0.142141 -3.99547 0
M  V30 1165 H 116.298 0.885693 -4.14646 0
M  V30 1166 C 114.757 1.70442 -2.90605 0
M  V30 1167 O 115.287 2.8034 -2.87702 0
M  V30 1168 N 113.493 1.52991 -2.47067 0
M  V30 1169 H 113.04 0.635914 -2.49628 0
M  V30 1170 H 112.998 2.32311 -2.11847 0
M  V30 1171 N 116.77 1.45427 -0.607355 0
M  V30 1172 C 118.017 2.02241 -0.102455 0
M  V30 1173 C 118.345 1.4758 1.26691 0
M  V30 1174 O 117.6 0.640468 1.84923 0
M  V30 1175 C 117.899 3.57398 -0.0129263 0
M  V30 1176 C 117.565 4.3121 -1.31792 0
M  V30 1177 C 116.227 4.51092 -1.67539 0
M  V30 1178 C 118.579 4.73401 -2.18039 0
M  V30 1179 C 115.907 5.10422 -2.89285 0
M  V30 1180 C 118.259 5.34078 -3.39034 0
M  V30 1181 C 116.923 5.52184 -3.75033 0
M  V30 1182 H 116.193 0.740051 -0.037491 0
M  V30 1183 H 118.84 1.74494 -0.788926 0
M  V30 1184 H 117.145 3.84421 0.756806 0
M  V30 1185 H 118.842 3.99061 0.393881 0
M  V30 1186 H 115.432 4.16047 -1.02968 0
M  V30 1187 H 119.616 4.57774 -1.91721 0
M  V30 1188 H 114.872 5.22629 -3.17283 0
M  V30 1189 H 119.046 5.65724 -4.06115 0
M  V30 1190 H 116.673 5.97925 -4.69457 0
M  V30 1191 N 118.248 0.346503 1.53744 0
M  V30 1192 C 119.178 -0.501193 2.28058 0
M  V30 1193 C 120.159 -1.10014 1.29734 0
M  V30 1194 O 121.344 -1.12097 1.58581 0
M  V30 1195 C 118.474 -1.65078 3.05559 0
M  V30 1196 C 117.428 -1.18003 4.11411 0
M  V30 1197 C 116.754 -2.41837 4.76884 0
M  V30 1198 C 118.054 -0.278394 5.21558 0
M  V30 1199 H 119.748 0.11875 2.99164 0
M  V30 1200 H 117.294 0.0585531 1.43881 0
M  V30 1201 H 119.247 -2.25028 3.56287 0
M  V30 1202 H 117.971 -2.29767 2.32109 0
M  V30 1203 H 116.63 -0.603331 3.61601 0
M  V30 1204 H 116.278 -3.0494 4.00026 0
M  V30 1205 H 115.978 -2.1102 5.48402 0
M  V30 1206 H 117.502 -3.02508 5.30397 0
M  V30 1207 H 118.916 -0.784823 5.67903 0
M  V30 1208 H 117.313 -0.0619707 6.00068 0
M  V30 1209 H 118.383 0.684677 4.80042 0
M  V30 1210 N 119.726 -1.57421 0.075193 0
M  V30 1211 C 120.956 -1.97659 -0.601203 0
M  V30 1212 C 121.364 -0.952427 -1.63479 0
M  V30 1213 O 120.707 0.0688241 -1.83571 0
M  V30 1214 C 120.769 -3.34218 -1.32434 0
M  V30 1215 C 120.433 -4.5484 -0.443826 0
M  V30 1216 C 121.43 -5.19034 0.299969 0
M  V30 1217 C 119.115 -5.00952 -0.367709 0
M  V30 1218 C 121.109 -6.27695 1.10807 0
M  V30 1219 C 118.796 -6.09484 0.444058 0
M  V30 1220 C 119.794 -6.72719 1.18061 0
M  V30 1221 O 119.482 -7.79161 1.97898 0
M  V30 1222 H 119.214 -0.65494 -0.167422 0
M  V30 1223 H 121.768 -2.04886 0.145157 0
M  V30 1224 H 119.998 -3.23615 -2.11685 0
M  V30 1225 H 121.687 -3.59038 -1.89331 0
M  V30 1226 H 122.453 -4.84351 0.250776 0
M  V30 1227 H 118.332 -4.51509 -0.930638 0
M  V30 1228 H 121.876 -6.76982 1.68347 0
M  V30 1229 H 117.773 -6.43601 0.494803 0
M  V30 1230 H 118.541 -7.96055 1.90367 0
M  V30 1231 N 121.204 0.198386 -1.56346 0
M  V30 1232 C 122.152 1.26538 -1.95169 0
M  V30 1233 C 123.146 1.47295 -0.836685 0
M  V30 1234 O 124.352 1.48195 -1.02167 0
M  V30 1235 H 120.727 0.424744 -0.620561 0
M  V30 1236 H 122.698 0.910904 -2.84157 0
M  V30 1237 C 121.447 2.6035 -2.30463 0
M  V30 1238 H 120.77 2.45192 -3.15786 0
M  V30 1239 H 122.21 3.33762 -2.61494 0
M  V30 1240 C 120.669 3.17096 -1.13806 0
M  V30 1241 O 121.199 3.99588 -0.41135 0
M  V30 1242 N 119.405 2.75795 -0.915736 0
M  V30 1243 H 118.952 2.08816 -1.50843 0
M  V30 1244 H 118.91 3.14101 -0.136979 0
M  V30 1245 N 122.682 1.50554 0.465978 0
M  V30 1246 C 123.928 1.62038 1.21949 0
M  V30 1247 C 124.261 0.322116 1.9151 0
M  V30 1248 O 123.536 -0.676723 1.82348 0
M  V30 1249 C 123.819 2.80421 2.25912 0
M  V30 1250 C 123.672 4.20144 1.60622 0
M  V30 1251 C 124.991 2.94354 3.27176 0
M  V30 1252 H 122.11 0.589752 0.441998 0
M  V30 1253 H 124.752 1.82956 0.51257 0
M  V30 1254 H 122.902 2.62717 2.86203 0
M  V30 1255 H 124.574 4.49449 1.03889 0
M  V30 1256 H 122.817 4.24165 0.909211 0
M  V30 1257 H 123.488 4.98914 2.36196 0
M  V30 1258 H 125.964 3.10578 2.76913 0
M  V30 1259 H 124.84 3.788 3.97242 0
M  V30 1260 H 125.101 2.05186 3.916 0
M  V30 1261 N 124.16 -0.719506 1.40217 0
M  V30 1262 C 125.09 -1.8465 1.42922 0
M  V30 1263 C 126.071 -1.67599 0.29062 0
M  V30 1264 O 127.256 -1.87688 0.498677 0
M  V30 1265 C 124.386 -3.22565 1.28722 0
M  V30 1266 C 123.34 -3.54281 2.40144 0
M  V30 1267 C 122.666 -4.91298 2.11023 0
M  V30 1268 C 123.966 -3.55676 3.82481 0
M  V30 1269 H 125.66 -1.82644 2.37237 0
M  V30 1270 H 123.206 -0.877305 1.1419 0
M  V30 1271 H 125.159 -4.01095 1.29232 0
M  V30 1272 H 123.883 -3.25137 0.308811 0
M  V30 1273 H 122.542 -2.78088 2.38877 0
M  V30 1274 H 122.19 -4.90468 1.11582 0
M  V30 1275 H 121.89 -5.13485 2.8567 0
M  V30 1276 H 123.414 -5.72166 2.13209 0
M  V30 1277 H 124.828 -4.24254 3.85592 0
M  V30 1278 H 123.225 -3.89388 4.56614 0
M  V30 1279 H 124.295 -2.55144 4.12346 0
M  V30 1280 N 125.638 -1.25649 -0.95132 0
M  V30 1281 C 126.548 -1.08073 -2.08224 0
M  V30 1282 C 127.564 -0.0169666 -1.73992 0
M  V30 1283 O 128.74 -0.218593 -2.0021 0
M  V30 1284 C 125.805 -0.704922 -3.39458 0
M  V30 1285 C 124.866 -1.84699 -3.87537 0
M  V30 1286 C 124.099 -1.48902 -5.12508 0
M  V30 1287 O 124.322 -0.386156 -5.69091 0
M  V30 1288 O 123.256 -2.32033 -5.55378 0
M  V30 1289 H 127.082 -2.02924 -2.25954 0
M  V30 1290 H 124.667 -1.04618 -1.06656 0
M  V30 1291 H 126.549 -0.507609 -4.18332 0
M  V30 1292 H 125.224 0.214291 -3.2299 0
M  V30 1293 H 124.131 -2.09919 -3.09653 0
M  V30 1294 H 125.464 -2.74557 -4.08509 0
M  V30 1295 N 127.117 1.15442 -1.07289 0
M  V30 1296 C 128.533 1.38201 -0.798288 0
M  V30 1297 C 128.733 1.92429 0.597769 0
M  V30 1298 O 127.789 2.12962 1.3566 0
M  V30 1299 C 129.102 2.35357 -1.87156 0
M  V30 1300 C 130.65 2.49021 -1.89624 0
M  V30 1301 C 131.125 3.49468 -2.96034 0
M  V30 1302 N 132.616 3.57003 -2.95132 0
M  V30 1303 C 133.351 4.34543 -3.74112 0
M  V30 1304 N 132.847 5.15421 -4.6294 0
M  V30 1305 N 134.64 4.29625 -3.62462 0
M  V30 1306 H 126.791 0.78584 -1.97328 0
M  V30 1307 H 129.054 0.408065 -0.855679 0
M  V30 1308 H 128.76 2.02626 -2.87464 0
M  V30 1309 H 128.634 3.35129 -1.73114 0
M  V30 1310 H 131.021 2.81051 -0.899687 0
M  V30 1311 H 131.102 1.4925 -2.07745 0
M  V30 1312 H 130.746 3.18173 -3.95889 0
M  V30 1313 H 130.676 4.48992 -2.75161 0
M  V30 1314 H 133.167 2.99276 -2.30743 0
M  V30 1315 H 133.48 5.7183 -5.19837 0
M  V30 1316 H 131.825 5.14729 -4.66989 0
M  V30 1317 H 135.016 3.65505 -2.92444 0
M  V30 1318 H 135.189 4.89807 -4.24256 0
M  V30 1319 N 128.595 0.856903 1.32268 0
M  V30 1320 C 130.006 0.515711 1.79436 0
M  V30 1321 C 130.357 -0.966586 1.70738 0
M  V30 1322 O 129.482 -1.75409 1.26731 0
M  V30 1323 C 130.077 0.929335 3.25805 0
M  V30 1324 C 128.636 0.640006 3.70919 0
M  V30 1325 C 127.783 1.12784 2.53328 0
M  V30 1326 H 130.734 1.04389 1.19535 0
M  V30 1327 H 130.755 0.246633 3.797 0
M  V30 1328 H 130.267 2.00821 3.32103 0
M  V30 1329 H 128.368 -0.428051 3.70133 0
M  V30 1330 H 128.481 1.20788 4.63624 0
M  V30 1331 H 126.845 0.548033 2.48734 0
M  V30 1332 H 127.628 2.21387 2.62379 0
M  V30 1333 N 130.073 -1.45103 0.615059 0
M  V30 1334 C 131.489 -1.57137 0.279322 0
M  V30 1335 C 131.689 -1.60523 -1.21797 0
M  V30 1336 O 130.745 -1.53956 -2.00134 0
M  V30 1337 C 132.058 -2.85062 0.957083 0
M  V30 1338 C 133.606 -2.98749 0.933706 0
M  V30 1339 C 134.081 -4.29455 1.59162 0
M  V30 1340 N 135.572 -4.36231 1.55746 0
M  V30 1341 C 136.307 -5.36051 2.0356 0
M  V30 1342 N 135.803 -6.42367 2.59494 0
M  V30 1343 N 137.596 -5.27456 1.94284 0
M  V30 1344 H 129.747 -1.41148 1.58717 0
M  V30 1345 H 132.01 -0.675331 0.665306 0
M  V30 1346 H 131.716 -2.88488 2.01166 0
M  V30 1347 H 131.59 -3.7407 0.48494 0
M  V30 1348 H 133.977 -2.94886 -0.112347 0
M  V30 1349 H 134.058 -2.11132 1.44419 0
M  V30 1350 H 133.702 -4.34077 2.63704 0
M  V30 1351 H 133.632 -5.15901 1.0561 0
M  V30 1352 H 136.123 -3.60011 1.14893 0
M  V30 1353 H 136.436 -7.14793 2.93752 0
M  V30 1354 H 134.781 -6.43097 2.63537 0
M  V30 1355 H 137.972 -4.43308 1.5032 0
M  V30 1356 H 138.145 -6.05099 2.3186 0
M  V30 1357 N 131.551 -0.354651 -1.53558 0
M  V30 1358 C 132.799 0.237972 -2.00694 0
M  V30 1359 C 133.12 1.50173 -1.24391 0
M  V30 1360 O 132.39 1.92673 -0.354135 0
M  V30 1361 H 130.97 0.0909256 -0.741446 0
M  V30 1362 H 133.632 -0.478368 -1.88938 0
M  V30 1363 H 132.728 0.47264 -3.085 0
M  V30 1364 N 133.029 1.57378 -0.0835403 0
M  V30 1365 C 134.275 1.95025 0.577664 0
M  V30 1366 C 134.63 0.964049 1.66505 0
M  V30 1367 O 133.923 -0.0118235 1.91596 0
M  V30 1368 C 134.117 3.37063 1.1884 0
M  V30 1369 C 133.946 4.49409 0.16171 0
M  V30 1370 C 132.716 5.04642 -0.257756 0
M  V30 1371 C 134.914 5.10722 -0.605634 0
M  V30 1372 N 132.896 6.00537 -1.27393 0
M  V30 1373 C 134.267 6.02225 -1.47395 0
M  V30 1374 C 136.322 4.93501 -0.660418 0
M  V30 1375 C 135.025 6.78355 -2.39221 0
M  V30 1376 C 137.051 5.70283 -1.56623 0
M  V30 1377 C 136.413 6.61444 -2.4222 0
M  V30 1378 H 132.512 0.760512 0.182058 0
M  V30 1379 H 135.096 1.94013 -0.163419 0
M  V30 1380 H 133.267 3.3879 1.89936 0
M  V30 1381 H 134.999 3.61917 1.81103 0
M  V30 1382 H 131.754 4.73428 0.127702 0
M  V30 1383 H 132.178 6.53184 -1.77987 0
M  V30 1384 H 136.82 4.22798 -0.0128221 0
M  V30 1385 H 134.538 7.48327 -3.05011 0
M  V30 1386 H 138.124 5.58976 -1.61361 0
M  V30 1387 H 137.004 7.1982 -3.11174 0
M  V30 1388 N 134.507 -0.190092 1.56449 0
M  V30 1389 C 135.47 -1.21925 1.9408 0
M  V30 1390 C 136.47 -1.38176 0.822431 0
M  V30 1391 O 137.66 -1.35903 1.08977 0
M  V30 1392 C 134.792 -2.58773 2.21922 0
M  V30 1393 H 135.985 -0.897464 2.86157 0
M  V30 1394 H 133.538 -0.43181 1.50217 0
M  V30 1395 H 134.273 -2.95998 1.32499 0
M  V30 1396 H 134.058 -2.48348 3.03424 0
M  V30 1397 H 135.548 -3.32978 2.52022 0
M  V30 1398 N 135.985 -1.50799 -0.457987 0
M  V30 1399 C 137.232 -1.62442 -1.20908 0
M  V30 1400 C 137.56 -0.330865 -1.91665 0
M  V30 1401 O 136.815 0.68401 -1.83357 0
M  V30 1402 C 137.114 -2.76358 -2.2663 0
M  V30 1403 C 136.78 -4.16378 -1.73033 0
M  V30 1404 C 135.442 -4.54473 -1.58138 0
M  V30 1405 C 137.794 -5.03836 -1.33413 0
M  V30 1406 C 135.122 -5.77754 -1.02065 0
M  V30 1407 C 137.474 -6.27676 -0.78778 0
M  V30 1408 C 136.138 -6.64562 -0.625561 0
M  V30 1409 H 135.408 -0.594417 -0.442435 0
M  V30 1410 H 138.055 -1.84772 -0.503136 0
M  V30 1411 H 136.36 -2.48167 -3.03184 0
M  V30 1412 H 138.057 -2.82568 -2.84528 0
M  V30 1413 H 134.647 -3.86331 -1.85598 0
M  V30 1414 H 138.831 -4.75026 -1.4375 0
M  V30 1415 H 134.087 -6.04997 -0.882547 0
M  V30 1416 H 138.261 -6.94797 -0.472177 0
M  V30 1417 H 135.888 -7.59965 -0.188926 0
M  V30 1418 N 137.463 0.71206 -1.40597 0
M  V30 1419 C 138.712 1.46754 -1.38369 0
M  V30 1420 C 139.025 1.95598 0.0097839 0
M  V30 1421 O 140.231 2.71059 0.154677 0
M  V30 1422 C 138.687 2.65289 -2.43207 0
M  V30 1423 C 138.295 2.23301 -3.88382 0
M  V30 1424 C 140.039 3.43008 -2.50091 0
M  V30 1425 C 137.946 3.38696 -4.84808 0
M  V30 1426 H 136.876 0.55118 -0.514506 0
M  V30 1427 H 139.527 0.774616 -1.66349 0
M  V30 1428 H 137.909 3.36769 -2.08332 0
M  V30 1429 H 139.083 1.59218 -4.32419 0
M  V30 1430 H 137.398 1.58618 -3.85006 0
M  V30 1431 H 139.995 4.28881 -3.1932 0
M  V30 1432 H 140.338 3.87065 -1.53253 0
M  V30 1433 H 140.871 2.78574 -2.83974 0
M  V30 1434 H 137.61 2.99668 -5.82992 0
M  V30 1435 H 137.13 4.01683 -4.45433 0
M  V30 1436 H 138.809 4.04712 -5.04794 0
M  V30 1437 N 138.941 1.26152 0.944643 0
M  V30 1438 C 140.171 1.14094 1.72239 0
M  V30 1439 C 140.579 -0.306931 1.86694 0
M  V30 1440 O 139.922 -1.22222 1.3714 0
M  V30 1441 C 139.984 1.73316 3.14963 0
M  V30 1442 C 139.648 3.2239 3.23904 0
M  V30 1443 C 140.645 4.19252 3.07447 0
M  V30 1444 C 138.33 3.62788 3.47405 0
M  V30 1445 C 140.324 5.54491 3.14353 0
M  V30 1446 C 138.011 4.98162 3.53947 0
M  V30 1447 C 139.009 5.93823 3.37436 0
M  V30 1448 O 138.697 7.26732 3.43679 0
M  V30 1449 H 138.429 0.398292 0.546205 0
M  V30 1450 H 140.983 1.67201 1.19301 0
M  V30 1451 H 139.213 1.14667 3.69308 0
M  V30 1452 H 140.902 1.56214 3.74636 0
M  V30 1453 H 141.668 3.8938 2.8915 0
M  V30 1454 H 137.547 2.88816 3.59313 0
M  V30 1455 H 141.091 6.29137 3.01384 0
M  V30 1456 H 136.988 5.27695 3.71763 0
M  V30 1457 H 137.756 7.3496 3.60245 0
M  V30 1458 N 140.419 -1.14872 1.07899 0
M  V30 1459 C 141.369 -2.17809 0.674027 0
M  V30 1460 C 142.353 -1.58008 -0.303699 0
M  V30 1461 O 143.545 -1.76616 -0.11654 0
M  V30 1462 C 140.674 -3.43208 0.0793318 0
M  V30 1463 C 139.76 -4.10051 1.08253 0
M  V30 1464 N 140.151 -4.52296 2.2641 0
M  V30 1465 C 138.449 -4.36469 0.917124 0
M  V30 1466 C 139.15 -5.04199 2.901 0
M  V30 1467 N 138.126 -4.98088 2.17736 0
M  V30 1468 H 141.928 -2.48207 1.57386 0
M  V30 1469 H 139.442 -1.315 0.952976 0
M  V30 1470 H 141.439 -4.16272 -0.228719 0
M  V30 1471 H 140.099 -3.14291 -0.815551 0
M  V30 1472 H 141.11 -4.45504 2.64096 0
M  V30 1473 H 137.787 -4.17432 0.0756078 0
M  V30 1474 H 139.177 -5.46802 3.90458 0
M  V30 1475 N 141.898 -0.863906 -1.31812 0
M  V30 1476 C 142.861 -0.320212 -2.26952 0
M  V30 1477 C 143.861 0.525369 -1.51975 0
M  V30 1478 O 145.051 0.335547 -1.70938 0
M  V30 1479 C 142.183 0.545919 -3.365 0
M  V30 1480 H 143.376 -1.16004 -2.76556 0
M  V30 1481 H 140.929 -0.638995 -1.42641 0
M  V30 1482 H 141.664 1.40718 -2.92179 0
M  V30 1483 H 141.449 -0.0594674 -3.92055 0
M  V30 1484 H 142.939 0.918796 -4.07367 0
M  V30 1485 N 143.376 1.44774 -0.622745 0
M  V30 1486 C 144.606 2.06187 -0.130532 0
M  V30 1487 C 145.014 1.46547 1.19669 0
M  V30 1488 O 144.357 0.579636 1.74316 0
M  V30 1489 C 144.419 3.59437 0.0674983 0
M  V30 1490 C 144.083 4.41496 -1.18026 0
M  V30 1491 C 145.08 4.75512 -2.102 0
M  V30 1492 C 142.765 4.82007 -1.41333 0
M  V30 1493 C 144.759 5.48912 -3.23998 0
M  V30 1494 C 142.446 5.55157 -2.55429 0
M  V30 1495 C 143.444 5.88528 -3.46589 0
M  V30 1496 O 143.132 6.60191 -4.58697 0
M  V30 1497 H 142.864 0.672045 -0.0730162 0
M  V30 1498 H 145.418 1.86768 -0.854802 0
M  V30 1499 H 143.648 3.77314 0.846825 0
M  V30 1500 H 145.337 4.02642 0.513209 0
M  V30 1501 H 146.103 4.4476 -1.93425 0
M  V30 1502 H 141.982 4.55457 -0.712709 0
M  V30 1503 H 145.526 5.74877 -3.95174 0
M  V30 1504 H 141.423 5.85324 -2.72151 0
M  V30 1505 H 142.191 6.78654 -4.57571 0
M  V30 1506 N 144.854 0.36279 1.53368 0
M  V30 1507 C 146.1 -0.228113 2.01513 0
M  V30 1508 C 146.433 -1.48648 1.2497 0
M  V30 1509 O 145.708 -1.91459 0.342616 0
M  V30 1510 C 145.991 -0.522884 3.56284 0
M  V30 1511 C 145.844 0.74892 4.43521 0
M  V30 1512 C 147.163 -1.32461 4.19693 0
M  V30 1513 H 144.282 -0.0814343 0.732487 0
M  V30 1514 H 146.924 0.48713 1.83649 0
M  V30 1515 H 145.074 -1.1322 3.71636 0
M  V30 1516 H 146.746 1.38648 4.39971 0
M  V30 1517 H 144.989 1.36986 4.11603 0
M  V30 1518 H 145.66 0.497667 5.49752 0
M  V30 1519 H 148.136 -0.809203 4.08156 0
M  V30 1520 H 147.012 -1.49961 5.28018 0
M  V30 1521 H 147.273 -2.33232 3.75573 0
M  V30 1522 N 146.332 -1.57332 0.0918853 0
M  V30 1523 C 147.579 -1.94236 -0.572577 0
M  V30 1524 C 147.907 -0.973398 -1.6839 0
M  V30 1525 O 147.162 0.00756912 -1.95699 0
M  V30 1526 C 147.461 -3.37689 -1.17051 0
M  V30 1527 C 147.127 -4.50527 -0.183304 0
M  V30 1528 C 145.789 -4.81119 0.0882276 0
M  V30 1529 C 148.141 -5.18883 0.49095 0
M  V30 1530 C 145.469 -5.77395 1.04076 0
M  V30 1531 C 147.821 -6.1618 1.43193 0
M  V30 1532 C 146.485 -6.45179 1.71173 0
M  V30 1533 H 145.755 -0.710762 -0.209521 0
M  V30 1534 H 148.402 -1.9077 0.167036 0
M  V30 1535 H 146.707 -3.37718 -1.9863 0
M  V30 1536 H 148.404 -3.63543 -1.69227 0
M  V30 1537 H 144.994 -4.26681 -0.405124 0
M  V30 1538 H 149.178 -4.95427 0.294312 0
M  V30 1539 H 144.434 -5.98179 1.26457 0
M  V30 1540 H 148.608 -6.68243 1.96023 0
M  V30 1541 H 146.235 -7.1959 2.4514 0
M  V30 1542 N 147.81 0.181792 -1.56548 0
M  V30 1543 C 148.74 1.22765 -1.98623 0
M  V30 1544 C 149.721 1.46747 -0.860189 0
M  V30 1545 O 150.906 1.58259 -1.12551 0
M  V30 1546 C 148.036 2.56894 -2.33715 0
M  V30 1547 C 146.99 2.475 -3.49182 0
M  V30 1548 C 146.316 3.86023 -3.69986 0
M  V30 1549 C 147.616 1.98866 -4.82959 0
M  V30 1550 H 149.31 0.877942 -2.86239 0
M  V30 1551 H 146.856 0.42088 -1.37712 0
M  V30 1552 H 148.809 3.30253 -2.61746 0
M  V30 1553 H 147.533 2.93632 -1.42997 0
M  V30 1554 H 146.192 1.76596 -3.21262 0
M  V30 1555 H 145.84 4.20136 -2.76576 0
M  V30 1556 H 145.54 3.80609 -4.47672 0
M  V30 1557 H 147.064 4.60984 -4.00407 0
M  V30 1558 H 148.478 2.61992 -5.09934 0
M  V30 1559 H 146.875 2.04424 -5.64208 0
M  V30 1560 H 147.945 0.942465 -4.75653 0
M  V30 1561 N 149.288 1.51039 0.449983 0
M  V30 1562 C 150.218 1.74379 1.55288 0
M  V30 1563 C 151.199 0.593236 1.5942 0
M  V30 1564 O 152.384 0.834625 1.7535 0
M  V30 1565 C 149.514 1.85728 2.93466 0
M  V30 1566 C 148.468 3.01078 3.04197 0
M  V30 1567 C 147.794 2.97595 4.44231 0
M  V30 1568 C 149.094 4.41254 2.7945 0
M  V30 1569 H 150.788 2.66725 1.36008 0
M  V30 1570 H 148.334 1.2835 0.652864 0
M  V30 1571 H 150.287 2.0064 3.70569 0
M  V30 1572 H 149.011 0.900207 3.13949 0
M  V30 1573 H 147.67 2.85851 2.29531 0
M  V30 1574 H 147.318 1.99691 4.61663 0
M  V30 1575 H 147.018 3.75046 4.52343 0
M  V30 1576 H 148.542 3.14583 5.23326 0
M  V30 1577 H 149.956 4.56897 3.46292 0
M  V30 1578 H 148.353 5.20315 2.98985 0
M  V30 1579 H 149.423 4.52164 1.75144 0
M  V30 1580 N 150.766 -0.704594 1.40972 0
M  V30 1581 C 152.012 -1.46675 1.40051 0
M  V30 1582 C 152.345 -1.94199 0.00641102 0
M  V30 1583 O 151.62 -1.68916 -0.964235 0
M  V30 1584 C 151.903 -2.68505 2.39952 0
M  V30 1585 C 151.756 -2.26805 3.88432 0
M  V30 1586 C 153.075 -3.70686 2.37233 0
M  V30 1587 H 150.194 -0.532015 0.510028 0
M  V30 1588 H 152.836 -0.803255 1.72185 0
M  V30 1589 H 150.986 -3.25114 2.1268 0
M  V30 1590 H 152.658 -1.75592 4.26574 0
M  V30 1591 H 150.901 -1.58685 4.03734 0
M  V30 1592 H 151.572 -3.14181 4.53866 0
M  V30 1593 H 154.048 -3.23731 2.61415 0
M  V30 1594 H 152.924 -4.53553 3.09162 0
M  V30 1595 H 153.185 -4.19754 1.38777 0
M  V30 1596 N 152.244 -1.26651 -0.937939 0
M  V30 1597 C 153.491 -1.12387 -1.6845 0
M  V30 1598 C 153.819 0.332208 -1.91642 0
M  V30 1599 O 153.074 1.2602 -1.49725 0
M  V30 1600 C 153.373 -1.84168 -3.06295 0
M  V30 1601 C 153.039 -3.34056 -3.02849 0
M  V30 1602 C 151.701 -3.74942 -3.01616 0
M  V30 1603 C 154.053 -4.29741 -2.9491 0
M  V30 1604 C 151.381 -5.09894 -2.90215 0
M  V30 1605 C 153.733 -5.64738 -2.8505 0
M  V30 1606 C 152.397 -6.0493 -2.82162 0
M  V30 1607 H 151.667 -0.411252 -0.616403 0
M  V30 1608 H 154.314 -1.57134 -1.09459 0
M  V30 1609 H 152.619 -1.319 -3.6893 0
M  V30 1610 H 154.316 -1.70569 -3.62915 0
M  V30 1611 H 150.906 -3.01534 -3.0459 0
M  V30 1612 H 155.09 -3.99133 -2.94969 0
M  V30 1613 H 150.346 -5.40194 -2.86358 0
M  V30 1614 H 154.52 -6.38561 -2.77872 0
M  V30 1615 H 152.147 -7.09457 -2.73084 0
M  V30 1616 N 153.722 1.14298 -1.08507 0
M  V30 1617 C 154.947 1.8976 -0.837001 0
M  V30 1618 C 155.372 1.78097 0.605228 0
M  V30 1619 O 154.73 1.12188 1.4242 0
M  V30 1620 C 154.778 3.37685 -1.26495 0
M  V30 1621 O 153.882 4.10281 -0.417514 0
M  V30 1622 H 153.223 0.590365 -0.303917 0
M  V30 1623 H 155.753 1.44672 -1.44676 0
M  V30 1624 H 155.763 3.88501 -1.24625 0
M  V30 1625 H 154.438 3.45492 -2.31534 0
M  V30 1626 H 153.015 3.69536 -0.499722 0
M  V30 1627 N 155.201 0.870884 1.31352 0
M  V30 1628 C 156.441 0.488783 1.9847 0
M  V30 1629 C 156.805 -0.941536 1.67329 0
M  V30 1630 O 158.006 -1.42903 2.27667 0
M  V30 1631 C 156.277 0.739688 3.49662 0
M  V30 1632 S 157.836 0.457582 4.36408 0
M  V30 1633 H 154.654 0.18242 0.6872 0
M  V30 1634 H 157.256 1.12711 1.59739 0
M  V30 1635 H 155.96 1.77944 3.69816 0
M  V30 1636 H 155.491 0.0883905 3.93301 0
M  V30 1637 H 157.506 -0.709752 4.91098 0
M  V30 1638 N 156.679 -1.44442 0.630414 0
M  V30 1639 C 157.609 -2.33418 -0.0618083 0
M  V30 1640 C 158.59 -1.48165 -0.835541 0
M  V30 1641 O 159.775 -1.76886 -0.801564 0
M  V30 1642 C 156.905 -3.31222 -1.04449 0
M  V30 1643 C 155.859 -4.26288 -0.382436 0
M  V30 1644 C 155.185 -5.13954 -1.47497 0
M  V30 1645 C 156.485 -5.1744 0.710865 0
M  V30 1646 H 158.179 -2.91548 0.681184 0
M  V30 1647 H 155.725 -1.40191 0.329026 0
M  V30 1648 H 157.678 -3.92351 -1.53748 0
M  V30 1649 H 156.402 -2.71299 -1.81836 0
M  V30 1650 H 155.061 -3.6649 0.0899054 0
M  V30 1651 H 154.709 -4.50385 -2.2397 0
M  V30 1652 H 154.409 -5.7837 -1.03737 0
M  V30 1653 H 155.933 -5.77955 -1.96979 0
M  V30 1654 H 157.347 -5.72509 0.300996 0
M  V30 1655 H 155.744 -5.90455 1.07156 0
M  V30 1656 H 156.814 -4.58496 1.57829 0
M  V30 1657 N 158.157 -0.370918 -1.53173 0
M  V30 1658 C 159.403 0.217423 -2.01631 0
M  V30 1659 C 159.736 1.47983 -1.25756 0
M  V30 1660 O 159.011 1.91274 -0.352764 0
M  V30 1661 C 159.294 0.503982 -3.56556 0
M  V30 1662 C 159.147 -0.77243 -4.43118 0
M  V30 1663 C 160.466 1.30234 -4.20389 0
M  V30 1664 H 157.585 0.0775486 -0.732909 0
M  V30 1665 H 160.227 -0.496863 -1.83388 0
M  V30 1666 H 158.377 1.11248 -3.72231 0
M  V30 1667 H 160.049 -1.4098 -4.39229 0
M  V30 1668 H 158.292 -1.39167 -4.10871 0
M  V30 1669 H 158.963 -0.526815 -5.4948 0
M  V30 1670 H 161.439 0.787546 -4.08579 0
M  V30 1671 H 160.315 1.47158 -5.28806 0
M  V30 1672 H 160.576 2.31237 -3.76805 0
M  V30 1673 N 159.635 1.57281 -0.100228 0
M  V30 1674 C 160.565 2.17328 0.853857 0
M  V30 1675 C 161.546 1.10804 1.2906 0
M  V30 1676 O 162.731 1.38963 1.35657 0
M  V30 1677 C 159.861 2.75772 2.11109 0
M  V30 1678 C 158.815 3.87713 1.81279 0
M  V30 1679 C 158.141 4.32882 3.13874 0
M  V30 1680 C 159.441 5.10677 1.09574 0
M  V30 1681 H 161.135 2.97305 0.353545 0
M  V30 1682 H 158.681 1.43009 0.168612 0
M  V30 1683 H 160.634 3.16433 2.78296 0
M  V30 1684 H 159.358 1.93057 2.63432 0
M  V30 1685 H 158.017 3.476 1.16489 0
M  V30 1686 H 157.665 3.47051 3.64095 0
M  V30 1687 H 157.365 5.08358 2.94696 0
M  V30 1688 H 158.889 4.7618 3.82211 0
M  V30 1689 H 160.303 5.48474 1.66879 0
M  V30 1690 H 158.7 5.91615 1.00557 0
M  V30 1691 H 159.77 4.84835 0.0793299 0
M  V30 1692 N 161.113 -0.173488 1.56642 0
M  V30 1693 C 162.338 -0.910149 1.86363 0
M  V30 1694 C 162.763 -1.75132 0.686318 0
M  V30 1695 O 162.121 -1.77595 -0.364643 0
M  V30 1696 C 162.169 -1.76447 3.14482 0
M  V30 1697 O 161.273 -2.86584 2.96553 0
M  V30 1698 H 160.614 -0.255086 0.613047 0
M  V30 1699 H 163.144 -0.172283 2.03873 0
M  V30 1700 H 163.154 -2.16483 3.45831 0
M  V30 1701 H 161.829 -1.14658 3.99783 0
M  V30 1702 H 160.406 -2.50146 2.76553 0
M  V30 1703 N 162.591 -1.51276 -0.441967 0
M  V30 1704 C 163.837 -1.63958 -1.19355 0
M  V30 1705 C 164.17 -0.352543 -1.90973 0
M  V30 1706 O 163.445 0.647627 -1.83401 0
M  V30 1707 C 163.728 -2.83979 -2.21422 0
M  V30 1708 C 163.581 -4.22646 -1.53918 0
M  V30 1709 C 164.9 -2.99521 -3.22451 0
M  V30 1710 H 162.019 -0.596709 -0.432559 0
M  V30 1711 H 164.661 -1.83748 -0.483398 0
M  V30 1712 H 162.811 -2.67237 -2.81987 0
M  V30 1713 H 164.483 -4.51045 -0.967256 0
M  V30 1714 H 162.726 -4.25558 -0.841615 0
M  V30 1715 H 163.397 -5.02609 -2.28229 0
M  V30 1716 H 165.873 -3.14944 -2.71937 0
M  V30 1717 H 164.749 -3.85072 -3.91166 0
M  V30 1718 H 165.01 -2.11391 -3.88287 0
M  V30 1719 N 164.069 0.697108 -1.41344 0
M  V30 1720 C 165.316 1.45714 -1.40619 0
M  V30 1721 C 165.644 1.94494 -0.0147907 0
M  V30 1722 O 164.899 1.69794 0.973066 0
M  V30 1723 C 165.198 2.68553 -2.35826 0
M  V30 1724 C 164.864 2.38438 -3.82698 0
M  V30 1725 C 163.526 2.29936 -4.22709 0
M  V30 1726 C 165.878 2.13567 -4.75435 0
M  V30 1727 C 163.206 1.94656 -5.53467 0
M  V30 1728 C 165.558 1.79797 -6.06511 0
M  V30 1729 C 164.222 1.69789 -6.45545 0
M  V30 1730 H 163.492 0.533206 -0.51456 0
M  V30 1731 H 166.139 0.796901 -1.74131 0
M  V30 1732 H 164.444 3.39503 -1.95563 0
M  V30 1733 H 166.141 3.2669 -2.32539 0
M  V30 1734 H 162.731 2.4595 -3.51008 0
M  V30 1735 H 166.915 2.19082 -4.45328 0
M  V30 1736 H 162.171 1.8546 -5.82593 0
M  V30 1737 H 166.345 1.59572 -6.77872 0
M  V30 1738 H 163.972 1.4222 -7.46778 0
M  V30 1739 N 165.547 1.27147 0.931209 0
M  V30 1740 C 166.772 1.16191 1.71797 0
M  V30 1741 C 167.197 -0.278004 1.86034 0
M  V30 1742 O 166.555 -1.20137 1.35782 0
M  V30 1743 C 166.603 1.84673 3.09723 0
M  V30 1744 O 165.707 1.14231 3.96264 0
M  V30 1745 H 165.048 0.404303 0.526721 0
M  V30 1746 H 167.578 1.68152 1.1656 0
M  V30 1747 H 167.588 1.91893 3.60057 0
M  V30 1748 H 166.263 2.89421 2.98677 0
M  V30 1749 H 164.84 1.15056 3.54706 0
M  V30 1750 N 167.025 -1.13721 1.09112 0
M  V30 1751 C 168.253 -1.88773 0.846899 0
M  V30 1752 C 168.668 -1.7896 -0.601572 0
M  V30 1753 O 168.025 -1.15394 -1.41388 0
M  V30 1754 C 168.076 -3.3849 1.26913 0
M  V30 1755 O 167.797 -3.48043 2.66079 0
M  V30 1756 C 169.298 -4.30518 1.05682 0
M  V30 1757 H 166.518 -0.59772 0.304914 0
M  V30 1758 H 169.062 -1.43977 1.45227 0
M  V30 1759 H 167.217 -3.80881 0.707723 0
M  V30 1760 H 167.631 -4.4109 2.83795 0
M  V30 1761 H 169.105 -5.3391 1.40156 0
M  V30 1762 H 169.582 -4.392 -0.00563416 0
M  V30 1763 H 170.188 -3.93893 1.60402 0
M  V30 1764 N 168.503 -0.877838 -1.30888 0
M  V30 1765 C 169.752 -0.488793 -1.95688 0
M  V30 1766 C 170.065 0.965485 -1.70111 0
M  V30 1767 O 171.271 1.46104 -2.28836 0
M  V30 1768 C 169.727 -0.823201 -3.50359 0
M  V30 1769 C 169.335 -2.29477 -3.84765 0
M  V30 1770 C 171.079 -0.503009 -4.21509 0
M  V30 1771 C 168.986 -2.57118 -5.32583 0
M  V30 1772 H 167.916 -0.179062 -0.732429 0
M  V30 1773 H 170.567 -1.07183 -1.48943 0
M  V30 1774 H 168.949 -0.169331 -3.95638 0
M  V30 1775 H 170.123 -2.99236 -3.5042 0
M  V30 1776 H 168.438 -2.58178 -3.267 0
M  V30 1777 H 171.035 -0.68665 -5.30273 0
M  V30 1778 H 171.378 0.557109 -4.12555 0
M  V30 1779 H 171.911 -1.11376 -3.8189 0
M  V30 1780 H 168.65 -3.61843 -5.4658 0
M  V30 1781 H 168.17 -1.91961 -5.68253 0
M  V30 1782 H 169.849 -2.42251 -5.99936 0
M  V30 1783 N 169.982 1.44106 -0.638065 0
M  V30 1784 C 170.929 2.30715 0.062701 0
M  V30 1785 C 171.899 1.43882 0.829883 0
M  V30 1786 O 173.084 1.72775 0.809532 0
M  V30 1787 C 170.224 3.29258 1.03358 0
M  V30 1788 C 169.337 4.31192 0.26409 0
M  V30 1789 C 168.472 5.16825 1.22741 0
M  V30 1790 C 167.511 6.10462 0.447475 0
M  V30 1791 N 166.648 6.8877 1.36161 0
M  V30 1792 H 171.488 2.90096 -0.681781 0
M  V30 1793 H 169.025 1.42925 -0.347988 0
M  V30 1794 H 170.983 3.84886 1.60992 0
M  V30 1795 H 169.613 2.71562 1.74511 0
M  V30 1796 H 168.665 3.77981 -0.428295 0
M  V30 1797 H 169.977 4.97619 -0.343052 0
M  V30 1798 H 169.131 5.77004 1.87487 0
M  V30 1799 H 167.87 4.50488 1.86847 0
M  V30 1800 H 166.875 5.49386 -0.213433 0
M  V30 1801 H 168.1 6.78837 -0.188968 0
M  V30 1802 H 166.046 6.25096 1.98975 0
M  V30 1803 H 165.963 7.51663 0.808656 0
M  V30 1804 H 167.231 7.53467 1.99769 0
M  V30 1805 N 171.46 0.379036 1.52974 0
M  V30 1806 C 172.37 -0.468639 2.29872 0
M  V30 1807 C 173.386 -1.08067 1.36373 0
M  V30 1808 O 174.562 -1.08871 1.69438 0
M  V30 1809 C 171.627 -1.58594 3.083 0
M  V30 1810 C 170.688 -1.00007 4.17489 0
M  V30 1811 C 169.921 -2.06413 4.92168 0
M  V30 1812 O 170.144 -3.27751 4.66835 0
M  V30 1813 O 169.078 -1.68717 5.7777 0
M  V30 1814 H 172.904 0.157508 3.03291 0
M  V30 1815 H 170.489 0.143035 1.48714 0
M  V30 1816 H 172.371 -2.23525 3.57232 0
M  V30 1817 H 171.046 -2.19724 2.37703 0
M  V30 1818 H 169.953 -0.314299 3.72777 0
M  V30 1819 H 171.286 -0.433135 4.90291 0
M  V30 1820 N 172.938 -1.57226 0.108567 0
M  V30 1821 C 174.168 -1.9889 -0.559142 0
M  V30 1822 C 174.576 -0.986889 -1.61422 0
M  V30 1823 O 173.919 0.0298705 -1.83676 0
M  V30 1824 C 173.981 -3.36952 -1.25315 0
M  V30 1825 C 173.645 -4.55679 -0.347248 0
M  V30 1826 C 174.642 -5.18281 0.409996 0
M  V30 1827 C 172.327 -5.0162 -0.261367 0
M  V30 1828 C 174.321 -6.25203 1.24096 0
M  V30 1829 C 172.008 -6.08405 0.573238 0
M  V30 1830 C 173.006 -6.70063 1.32304 0
M  V30 1831 O 172.694 -7.74788 2.14381 0
M  V30 1832 H 172.426 -0.658343 -0.153492 0
M  V30 1833 H 174.98 -2.04532 0.188584 0
M  V30 1834 H 173.21 -3.28032 -2.04773 0
M  V30 1835 H 174.899 -3.62974 -1.81673 0
M  V30 1836 H 175.665 -4.8371 0.353457 0
M  V30 1837 H 171.544 -4.53381 -0.834656 0
M  V30 1838 H 175.088 -6.73259 1.82669 0
M  V30 1839 H 170.985 -6.42406 0.631208 0
M  V30 1840 H 171.753 -7.91837 2.07209 0
M  V30 1841 N 174.416 0.165178 -1.56732 0
M  V30 1842 C 175.326 1.22423 -2.00125 0
M  V30 1843 C 176.342 1.48084 -0.913619 0
M  V30 1844 O 177.518 1.60112 -1.22172 0
M  V30 1845 C 174.583 2.54197 -2.35764 0
M  V30 1846 C 173.644 2.36343 -3.58386 0
M  V30 1847 C 172.877 3.61834 -3.92316 0
M  V30 1848 O 173.1 4.67267 -3.27135 0
M  V30 1849 O 172.034 3.55579 -4.85641 0
M  V30 1850 H 175.86 0.885886 -2.90492 0
M  V30 1851 H 173.445 0.372518 -1.44681 0
M  V30 1852 H 175.327 3.3192 -2.59629 0
M  V30 1853 H 174.002 2.87598 -1.48557 0
M  V30 1854 H 172.909 1.56632 -3.39731 0
M  V30 1855 H 174.242 2.07865 -4.46154 0
M  V30 1856 N 175.894 1.51508 0.433938 0
M  V30 1857 C 176.841 1.73068 1.52696 0
M  V30 1858 C 177.811 0.572441 1.55924 0
M  V30 1859 O 178.996 0.807253 1.72882 0
M  V30 1860 C 176.136 1.86474 2.90381 0
M  V30 1861 C 175.249 3.14037 2.96656 0
M  V30 1862 C 174.384 3.18019 4.25485 0
M  V30 1863 C 173.423 4.39882 4.2564 0
M  V30 1864 N 172.56 4.41394 5.45999 0
M  V30 1865 H 177.4 2.66366 1.33615 0
M  V30 1866 H 174.937 1.32008 0.649018 0
M  V30 1867 H 176.895 1.92229 3.70275 0
M  V30 1868 H 175.525 0.965809 3.08013 0
M  V30 1869 H 174.577 3.17575 2.09404 0
M  V30 1870 H 175.889 4.0394 2.92633 0
M  V30 1871 H 175.043 3.22708 5.13755 0
M  V30 1872 H 173.782 2.2601 4.3217 0
M  V30 1873 H 172.787 4.35366 3.35763 0
M  V30 1874 H 174.012 5.33159 4.20617 0
M  V30 1875 H 171.958 3.52258 5.53399 0
M  V30 1876 H 171.875 5.25111 5.4387 0
M  V30 1877 H 173.143 4.50281 6.36292 0
M  V30 1878 N 177.372 -0.689602 1.41712 0
M  V30 1879 C 178.597 -1.48329 1.44959 0
M  V30 1880 C 179.022 -1.8801 0.0581283 0
M  V30 1881 O 178.38 -1.55026 -0.940035 0
M  V30 1882 C 178.428 -2.71835 2.36935 0
M  V30 1883 O 177.532 -3.69549 1.8305 0
M  V30 1884 H 176.873 -0.446199 0.491734 0
M  V30 1885 H 179.403 -0.847127 1.86239 0
M  V30 1886 H 179.413 -3.20076 2.53013 0
M  V30 1887 H 178.088 -2.42291 3.38035 0
M  V30 1888 H 176.665 -3.2851 1.76452 0
M  V30 1889 N 178.85 -1.27639 -0.924453 0
M  V30 1890 C 180.075 -1.17101 -1.71179 0
M  V30 1891 C 180.5 0.268134 -1.86179 0
M  V30 1892 O 179.858 1.19415 -1.36418 0
M  V30 1893 C 179.906 -1.86313 -3.08739 0
M  V30 1894 O 179.01 -1.16331 -3.95652 0
M  V30 1895 H 178.351 -0.407091 -0.524569 0
M  V30 1896 H 180.881 -1.68767 -1.15666 0
M  V30 1897 H 180.891 -1.938 -3.59034 0
M  V30 1898 H 179.566 -2.91001 -2.97138 0
M  V30 1899 H 178.143 -1.16935 -3.54091 0
M  V30 1900 N 180.328 1.1314 -1.09713 0
M  V30 1901 C 181.238 2.22242 -0.751367 0
M  V30 1902 C 182.254 1.72224 0.247938 0
M  V30 1903 O 183.43 2.01205 0.0885463 0
M  V30 1904 C 180.495 3.46231 -0.180274 0
M  V30 1905 C 179.556 4.11125 -1.2359 0
M  V30 1906 C 178.789 5.29195 -0.691966 0
M  V30 1907 O 179.012 5.68342 0.48414 0
M  V30 1908 O 177.946 5.84214 -1.44838 0
M  V30 1909 H 181.772 2.54197 -1.66186 0
M  V30 1910 H 179.357 1.21331 -0.871735 0
M  V30 1911 H 181.239 4.21185 0.134739 0
M  V30 1912 H 179.914 3.1597 0.703185 0
M  V30 1913 H 178.821 3.37985 -1.60366 0
M  V30 1914 H 180.154 4.45524 -2.09211 0
M  V30 1915 N 181.806 0.884767 1.30421 0
M  V30 1916 C 183.054 0.502112 1.95763 0
M  V30 1917 C 183.375 -0.951815 1.70192 0
M  V30 1918 O 182.645 -1.6692 1.0254 0
M  V30 1919 H 181.225 0.182694 0.724315 0
M  V30 1920 H 183.887 1.1278 1.58955 0
M  V30 1921 H 182.983 0.672188 3.04775 0
M  V30 1922 N 183.284 -1.43765 0.645699 0
M  V30 1923 C 184.247 -2.29163 -0.0409488 0
M  V30 1924 C 185.247 -1.41813 -0.757996 0
M  V30 1925 O 186.437 -1.63527 -0.600382 0
M  V30 1926 C 183.569 -3.23716 -1.06869 0
M  V30 1927 H 184.762 -2.91366 0.710345 0
M  V30 1928 H 182.315 -1.5092 0.406547 0
M  V30 1929 H 183.05 -2.66393 -1.84947 0
M  V30 1930 H 182.835 -3.88105 -0.558277 0
M  V30 1931 H 184.325 -3.87831 -1.54845 0
M  V30 1932 N 184.763 -0.387143 -1.52771 0
M  V30 1933 C 185.693 0.440551 -2.29306 0
M  V30 1934 C 186.674 1.06535 -1.32606 0
M  V30 1935 O 187.859 1.07853 -1.61497 0
M  V30 1936 C 184.989 1.56919 -3.09829 0
M  V30 1937 C 183.943 1.07054 -4.14395 0
M  V30 1938 C 183.269 2.29109 -4.83129 0
M  V30 1939 C 184.569 0.140015 -5.22112 0
M  V30 1940 H 186.263 -0.198026 -2.98744 0
M  V30 1941 H 183.809 -0.09668 -1.43675 0
M  V30 1942 H 185.762 2.15503 -3.62128 0
M  V30 1943 H 184.486 2.23532 -2.3812 0
M  V30 1944 H 183.145 0.507247 -3.63074 0
M  V30 1945 H 182.793 2.94227 -4.0797 0
M  V30 1946 H 182.493 1.96406 -5.53804 0
M  V30 1947 H 184.017 2.88339 -5.38231 0
M  V30 1948 H 185.431 0.633978 -5.69784 0
M  V30 1949 H 183.828 -0.0971485 -6.00021 0
M  V30 1950 H 184.898 -0.811711 -4.78058 0
M  V30 1951 N 186.241 1.57166 -0.116904 0
M  V30 1952 C 187.471 1.99184 0.548586 0
M  V30 1953 C 187.879 0.995436 1.60897 0
M  V30 1954 O 187.222 -0.0201293 1.83689 0
M  V30 1955 C 187.284 3.37611 1.23526 0
M  V30 1956 C 186.948 4.55857 0.323077 0
M  V30 1957 C 187.945 5.18056 -0.437476 0
M  V30 1958 C 185.63 5.01751 0.234761 0
M  V30 1959 C 187.624 6.24536 -1.2741 0
M  V30 1960 C 185.311 6.08093 -0.605496 0
M  V30 1961 C 186.309 6.69352 -1.35856 0
M  V30 1962 O 185.997 7.7364 -2.18487 0
M  V30 1963 H 185.729 0.659148 0.149999 0
M  V30 1964 H 188.283 2.0443 -0.199428 0
M  V30 1965 H 186.513 3.29113 2.0303 0
M  V30 1966 H 188.202 3.63932 1.79745 0
M  V30 1967 H 188.968 4.83516 -0.379105 0
M  V30 1968 H 184.847 4.53817 0.810601 0
M  V30 1969 H 188.391 6.72281 -1.86237 0
M  V30 1970 H 184.288 6.42063 -0.665268 0
M  V30 1971 H 185.056 7.90727 -2.11406 0
M  V30 1972 N 187.719 -0.156864 1.56817 0
M  V30 1973 C 188.968 -0.869504 1.81996 0
M  V30 1974 C 189.281 -1.82777 0.696545 0
M  V30 1975 O 190.487 -2.58384 0.833658 0
M  V30 1976 C 188.943 -1.59679 3.22538 0
M  V30 1977 C 188.551 -0.681431 4.42787 0
M  V30 1978 C 190.295 -2.2968 3.56997 0
M  V30 1979 C 188.202 -1.40978 5.74351 0
M  V30 1980 H 187.132 -0.328438 0.678708 0
M  V30 1981 H 189.783 -0.1223 1.83092 0
M  V30 1982 H 188.165 -2.38927 3.158 0
M  V30 1983 H 189.339 0.0751166 4.60739 0
M  V30 1984 H 187.654 -0.0903431 4.16302 0
M  V30 1985 H 190.251 -2.84794 4.52544 0
M  V30 1986 H 190.594 -3.05707 2.82576 0
M  V30 1987 H 191.127 -1.57361 3.65352 0
M  V30 1988 H 187.866 -0.691561 6.51842 0
M  V30 1989 H 187.386 -2.13929 5.60352 0
M  V30 1990 H 189.065 -1.95337 6.16808 0
M  V30 1991 N 189.197 -1.51736 -0.425897 0
M  V30 1992 C 190.127 -1.76827 -1.52494 0
M  V30 1993 C 191.108 -0.618524 -1.58456 0
M  V30 1994 O 192.293 -0.862416 -1.74 0
M  V30 1995 C 189.423 -1.90374 -2.90474 0
M  V30 1996 C 188.377 -3.0588 -2.99369 0
M  V30 1997 C 187.703 -3.04625 -4.3944 0
M  V30 1998 C 189.003 -4.45644 -2.72394 0
M  V30 1999 H 190.697 -2.68855 -1.31748 0
M  V30 2000 H 188.243 -1.29372 -0.632362 0
M  V30 2001 H 190.196 -2.0651 -3.6733 0
M  V30 2002 H 188.92 -0.95004 -3.12477 0
M  V30 2003 H 187.579 -2.89467 -2.24954 0
M  V30 2004 H 187.227 -2.0701 -4.58428 0
M  V30 2005 H 186.927 -3.82195 -4.46319 0
M  V30 2006 H 188.451 -3.22869 -5.18255 0
M  V30 2007 H 189.865 -4.62348 -3.38979 0
M  V30 2008 H 188.262 -5.25006 -2.9067 0
M  V30 2009 H 189.332 -4.54893 -1.67929 0
M  V30 2010 N 190.675 0.682077 -1.42076 0
M  V30 2011 C 191.585 1.82535 -1.47371 0
M  V30 2012 C 192.601 1.7017 -0.363079 0
M  V30 2013 O 193.777 1.91848 -0.612875 0
M  V30 2014 C 190.842 3.18624 -1.36674 0
M  V30 2015 C 189.903 3.42999 -2.58167 0
M  V30 2016 C 189.136 4.72595 -2.4797 0
M  V30 2017 O 189.359 5.50006 -1.5116 0
M  V30 2018 O 188.293 4.98054 -3.37974 0
M  V30 2019 H 192.119 1.81023 -2.43853 0
M  V30 2020 H 189.704 0.836887 -1.2376 0
M  V30 2021 H 191.586 3.99847 -1.33043 0
M  V30 2022 H 190.261 3.20789 -0.433138 0
M  V30 2023 H 189.168 2.61653 -2.67373 0
M  V30 2024 H 190.501 3.45659 -3.50401 0
M  V30 2025 N 192.153 1.28127 0.917671 0
M  V30 2026 C 193.402 1.14432 1.66097 0
M  V30 2027 C 193.715 -0.307247 1.93172 0
M  V30 2028 O 194.921 -0.565259 2.65551 0
M  V30 2029 C 193.377 2.00015 2.99202 0
M  V30 2030 C 192.985 3.49889 2.79789 0
M  V30 2031 C 194.729 1.94996 3.77064 0
M  V30 2032 C 192.636 4.27636 4.08511 0
M  V30 2033 H 191.566 0.424662 0.62304 0
M  V30 2034 H 194.217 1.52628 1.01868 0
M  V30 2035 H 192.599 1.54672 3.64544 0
M  V30 2036 H 193.773 4.03162 2.23152 0
M  V30 2037 H 192.088 3.56392 2.15345 0
M  V30 2038 H 194.685 2.50354 4.72469 0
M  V30 2039 H 195.028 0.925819 4.05875 0
M  V30 2040 H 195.561 2.38287 3.18534 0
M  V30 2041 H 192.3 5.30615 3.84874 0
M  V30 2042 H 191.82 3.79137 4.64774 0
M  V30 2043 H 193.499 4.37346 4.76799 0
M  V30 2044 N 193.631 -1.12557 1.10312 0
M  V30 2045 C 194.877 -1.84311 0.846011 0
M  V30 2046 C 195.21 -1.83805 -0.626859 0
M  V30 2047 O 194.485 -1.28268 -1.46211 0
M  V30 2048 C 194.768 -3.32048 1.39341 0
M  V30 2049 C 194.621 -3.41016 2.93305 0
M  V30 2050 C 195.94 -4.27764 1.03468 0
M  V30 2051 H 193.059 -0.669192 0.30879 0
M  V30 2052 H 195.701 -1.32057 1.36605 0
M  V30 2053 H 193.851 -3.76678 0.951087 0
M  V30 2054 H 195.523 -3.05031 3.46055 0
M  V30 2055 H 193.766 -2.81603 3.29973 0
M  V30 2056 H 194.437 -4.44948 3.26689 0
M  V30 2057 H 196.913 -3.91253 1.41633 0
M  V30 2058 H 195.789 -5.29549 1.44463 0
M  V30 2059 H 196.05 -4.42064 -0.0560404 0
M  V30 2060 N 195.109 -0.891671 -1.2995 0
M  V30 2061 C 196.337 -0.52866 -2.00032 0
M  V30 2062 C 196.752 0.884574 -1.66795 0
M  V30 2063 O 196.109 1.5827 -0.908669 0
M  V30 2064 C 196.16 -0.701814 -3.54622 0
M  V30 2065 O 195.881 -2.05942 -3.86678 0
M  V30 2066 C 197.382 -0.342683 -4.41973 0
M  V30 2067 H 194.602 -0.203659 -0.639347 0
M  V30 2068 H 197.146 -1.19881 -1.65677 0
M  V30 2069 H 195.301 -0.0789468 -3.8732 0
M  V30 2070 H 195.715 -2.08291 -4.81368 0
M  V30 2071 H 197.189 -0.514709 -5.49595 0
M  V30 2072 H 197.666 0.71975 -4.33262 0
M  V30 2073 H 198.272 -0.942154 -4.14733 0
M  V30 2074 N 196.587 1.43421 -0.653314 0
M  V30 2075 C 197.836 2.01032 -0.164076 0
M  V30 2076 C 198.149 1.52147 1.22926 0
M  V30 2077 O 199.355 2.02031 1.81371 0
M  V30 2078 C 197.811 3.59082 -0.24252 0
M  V30 2079 C 197.419 4.1696 -1.63855 0
M  V30 2080 C 199.163 4.24079 0.18911 0
M  V30 2081 C 197.07 5.67304 -1.67092 0
M  V30 2082 H 196 0.751798 -0.0575769 0
M  V30 2083 H 198.651 1.6439 -0.815362 0
M  V30 2084 H 197.033 3.93125 0.476276 0
M  V30 2085 H 198.207 3.94416 -2.38271 0
M  V30 2086 H 196.522 3.64335 -2.01616 0
M  V30 2087 H 199.119 5.34381 0.184775 0
M  V30 2088 H 199.462 3.98005 1.22056 0
M  V30 2089 H 199.995 3.94918 -0.477938 0
M  V30 2090 H 196.734 5.98145 -2.68146 0
M  V30 2091 H 196.254 5.91904 -0.970014 0
M  V30 2092 H 197.933 6.31344 -1.4147 0
M  V30 2093 N 198.065 0.39524 1.52563 0
M  V30 2094 C 199.311 -0.185318 2.01952 0
M  V30 2095 C 199.644 -1.45964 1.28095 0
M  V30 2096 O 198.919 -1.90689 0.38315 0
M  V30 2097 C 199.202 -0.447193 3.57312 0
M  V30 2098 C 199.055 0.842828 4.41833 0
M  V30 2099 C 200.374 -1.23529 4.22408 0
M  V30 2100 H 197.493 -0.0658788 0.73405 0
M  V30 2101 H 200.135 0.525975 1.82575 0
M  V30 2102 H 198.285 -1.05312 3.73954 0
M  V30 2103 H 199.957 1.4795 4.36931 0
M  V30 2104 H 198.2 1.45686 4.08605 0
M  V30 2105 H 198.871 0.614165 5.48573 0
M  V30 2106 H 201.347 -0.722445 4.0978 0
M  V30 2107 H 200.223 -1.38727 5.3108 0
M  V30 2108 H 200.484 -2.25213 3.80436 0
M  V30 2109 N 199.544 -1.57102 0.125237 0
M  V30 2110 C 200.79 -1.95697 -0.532035 0
M  V30 2111 C 201.123 -1.009 -1.6593 0
M  V30 2112 O 200.398 -0.047347 -1.94442 0
M  V30 2113 C 200.681 -3.44181 -1.05884 0
M  V30 2114 C 200.534 -4.49752 0.0654392 0
M  V30 2115 C 201.853 -3.94655 -1.9477 0
M  V30 2116 H 198.972 -0.711571 -0.191925 0
M  V30 2117 H 201.614 -1.88923 0.20206 0
M  V30 2118 H 199.764 -3.50085 -1.68442 0
M  V30 2119 H 201.436 -4.55943 0.700982 0
M  V30 2120 H 199.679 -4.27653 0.727709 0
M  V30 2121 H 200.35 -5.50924 -0.344505 0
M  V30 2122 H 202.826 -3.91094 -1.42074 0
M  V30 2123 H 201.702 -4.99057 -2.28546 0
M  V30 2124 H 201.963 -3.35718 -2.87656 0
M  V30 2125 N 201.022 0.148545 -1.56898 0
M  V30 2126 C 202.269 0.861418 -1.83264 0
M  V30 2127 C 202.597 1.81239 -0.705883 0
M  V30 2128 O 201.852 1.93305 0.305212 0
M  V30 2129 C 202.151 1.67064 -3.1595 0
M  V30 2130 C 201.817 0.866591 -4.42494 0
M  V30 2131 C 200.479 0.644762 -4.76861 0
M  V30 2132 C 202.831 0.30418 -5.20312 0
M  V30 2133 C 200.159 -0.15021 -5.86508 0
M  V30 2134 C 202.511 -0.477824 -6.30793 0
M  V30 2135 C 201.175 -0.710244 -6.63711 0
M  V30 2136 H 200.445 0.315215 -0.670612 0
M  V30 2137 H 203.092 0.125142 -1.91091 0
M  V30 2138 H 201.397 2.47698 -3.03567 0
M  V30 2139 H 203.094 2.22566 -3.33565 0
M  V30 2140 H 199.684 1.04955 -4.15551 0
M  V30 2141 H 203.868 0.462844 -4.94137 0
M  V30 2142 H 199.124 -0.339796 -6.10455 0
M  V30 2143 H 203.298 -0.92076 -6.90286 0
M  V30 2144 H 200.925 -1.3281 -7.48509 0
M  V30 2145 N 202.5 1.5196 0.417844 0
M  V30 2146 C 203.748 1.65263 1.16329 0
M  V30 2147 C 204.069 0.380634 1.91249 0
M  V30 2148 O 203.339 -0.604214 1.86349 0
M  V30 2149 H 201.919 0.60912 0.432414 0
M  V30 2150 H 204.581 1.88969 0.477162 0
M  V30 2151 H 203.677 2.4896 1.88217 0
M  V30 2152 N 203.978 -0.674533 1.42435 0
M  V30 2153 C 205.224 -1.43671 1.43131 0
M  V30 2154 C 205.557 -1.94142 0.0476021 0
M  V30 2155 O 204.832 -1.70924 -0.928188 0
M  V30 2156 C 205.115 -2.63355 2.45594 0
M  V30 2157 C 204.968 -2.18514 3.93156 0
M  V30 2158 C 206.287 -3.65571 2.45043 0
M  V30 2159 H 203.406 -0.521077 0.521198 0
M  V30 2160 H 206.048 -0.766551 1.7385 0
M  V30 2161 H 204.198 -3.2053 2.19528 0
M  V30 2162 H 205.87 -1.66504 4.30202 0
M  V30 2163 H 204.113 -1.50086 4.07009 0
M  V30 2164 H 204.784 -3.04484 4.60428 0
M  V30 2165 H 207.26 -3.18113 2.68223 0
M  V30 2166 H 206.136 -4.46893 3.18713 0
M  V30 2167 H 206.397 -4.16716 1.47649 0
M  V30 2168 N 205.456 -1.28612 -0.910864 0
M  V30 2169 C 206.366 -1.14643 -2.0468 0
M  V30 2170 C 207.382 -0.0723121 -1.7385 0
M  V30 2171 O 208.558 -0.282178 -1.99413 0
M  V30 2172 C 205.623 -0.812561 -3.37044 0
M  V30 2173 C 204.684 -1.96935 -3.81465 0
M  V30 2174 C 203.917 -1.65131 -5.07511 0
M  V30 2175 O 204.14 -0.567013 -5.67575 0
M  V30 2176 O 203.074 -2.49585 -5.47714 0
M  V30 2177 H 206.9 -2.1001 -2.19384 0
M  V30 2178 H 204.485 -1.07958 -1.03274 0
M  V30 2179 H 206.367 -0.640441 -4.16505 0
M  V30 2180 H 205.042 0.111426 -3.23508 0
M  V30 2181 H 203.949 -2.19664 -3.02818 0
M  V30 2182 H 205.282 -2.87414 -3.99567 0
M  V30 2183 N 206.934 1.1197 -1.10907 0
M  V30 2184 C 208.164 1.8713 -0.875553 0
M  V30 2185 C 208.572 1.8016 0.577843 0
M  V30 2186 O 207.915 1.17699 1.41042 0
M  V30 2187 C 207.977 3.37005 -1.2517 0
M  V30 2188 C 207.641 3.67748 -2.71313 0
M  V30 2189 C 208.638 3.65698 -3.69542 0
M  V30 2190 C 206.323 3.96928 -3.07821 0
M  V30 2191 C 208.317 3.92395 -5.023 0
M  V30 2192 C 206.004 4.23284 -4.40765 0
M  V30 2193 C 207.002 4.21005 -5.37814 0
M  V30 2194 O 206.69 4.46704 -6.68364 0
M  V30 2195 H 206.422 0.598786 -0.313737 0
M  V30 2196 H 208.976 1.42568 -1.47863 0
M  V30 2197 H 207.206 3.82146 -0.591741 0
M  V30 2198 H 208.895 3.93519 -0.994877 0
M  V30 2199 H 209.661 3.43211 -3.42682 0
M  V30 2200 H 205.54 3.97841 -2.32902 0
M  V30 2201 H 209.084 3.90531 -5.78041 0
M  V30 2202 H 204.981 4.45246 -4.67361 0
M  V30 2203 H 205.749 4.64299 -6.74069 0
M  V30 2204 N 208.412 0.89855 1.29475 0
M  V30 2205 C 209.659 0.523882 1.95606 0
M  V30 2206 C 209.987 -0.929608 1.70847 0
M  V30 2207 O 209.242 -1.67401 1.01367 0
M  V30 2208 C 209.541 0.761398 3.49195 0
M  V30 2209 C 209.207 2.19207 3.94029 0
M  V30 2210 C 207.869 2.58326 4.05982 0
M  V30 2211 C 210.221 3.12379 4.17216 0
M  V30 2212 C 207.549 3.898 4.38489 0
M  V30 2213 C 209.901 4.43401 4.51197 0
M  V30 2214 C 208.565 4.82394 4.61359 0
M  V30 2215 H 207.835 0.191702 0.715773 0
M  V30 2216 H 210.482 1.13699 1.54094 0
M  V30 2217 H 208.787 0.0653622 3.91745 0
M  V30 2218 H 210.484 0.450904 3.98457 0
M  V30 2219 H 207.074 1.87846 3.85242 0
M  V30 2220 H 211.258 2.83371 4.07449 0
M  V30 2221 H 206.514 4.19734 4.44559 0
M  V30 2222 H 210.688 5.15623 4.68087 0
M  V30 2223 H 208.315 5.84306 4.86303 0
M  V30 2224 N 209.89 -1.43072 0.660911 0
M  V30 2225 C 211.136 -2.0202 0.177708 0
M  V30 2226 C 211.469 -1.52066 -1.20787 0
M  V30 2227 O 210.744 -0.716987 -1.80802 0
M  V30 2228 C 211.027 -3.59561 0.197019 0
M  V30 2229 C 210.88 -4.19727 1.61706 0
M  V30 2230 C 212.199 -4.37664 -0.462396 0
M  V30 2231 H 209.318 -0.734034 0.0660494 0
M  V30 2232 H 211.96 -1.70272 0.843058 0
M  V30 2233 H 210.11 -3.86739 -0.369527 0
M  V30 2234 H 211.782 -4.03553 2.23479 0
M  V30 2235 H 210.025 -3.76084 2.16201 0
M  V30 2236 H 210.696 -5.28834 1.58237 0
M  V30 2237 H 213.172 -4.16095 0.0197215 0
M  V30 2238 H 212.048 -5.47305 -0.418188 0
M  V30 2239 H 212.309 -4.14493 -1.53778 0
M  V30 2240 N 211.368 -0.403325 -1.52352 0
M  V30 2241 C 212.784 -0.0539281 -1.59509 0
M  V30 2242 C 212.984 1.43307 -1.41652 0
M  V30 2243 O 212.04 2.19924 -1.24056 0
M  V30 2244 C 213.353 -0.543654 -2.95745 0
M  V30 2245 C 214.901 -0.501125 -3.08962 0
M  V30 2246 C 215.376 -0.967267 -4.47669 0
M  V30 2247 N 216.867 -0.923849 -4.53893 0
M  V30 2248 C 217.602 -1.25578 -5.5948 0
M  V30 2249 N 217.098 -1.65889 -6.72646 0
M  V30 2250 N 218.891 -1.17613 -5.49658 0
M  V30 2251 H 211.042 -1.37123 -1.62206 0
M  V30 2252 H 213.305 -0.56294 -0.76276 0
M  V30 2253 H 213.011 -1.58275 -3.14073 0
M  V30 2254 H 212.885 0.0498042 -3.77167 0
M  V30 2255 H 215.272 0.528909 -2.90321 0
M  V30 2256 H 215.353 -1.13056 -2.2946 0
M  V30 2257 H 214.997 -1.9956 -4.67053 0
M  V30 2258 H 214.927 -0.314698 -5.25659 0
M  V30 2259 H 217.418 -0.627403 -3.72655 0
M  V30 2260 H 217.731 -1.89543 -7.49195 0
M  V30 2261 H 216.076 -1.69787 -6.73942 0
M  V30 2262 H 219.267 -0.860115 -4.6013 0
M  V30 2263 H 219.44 -1.43812 -6.3184 0
M  V30 2264 N 212.846 1.57033 -0.133567 0
M  V30 2265 C 214.095 1.94861 0.520768 0
M  V30 2266 C 214.408 1.02012 1.66892 0
M  V30 2267 O 215.614 1.29365 2.38699 0
M  V30 2268 C 214.07 3.46362 0.977809 0
M  V30 2269 C 213.678 4.47773 -0.142674 0
M  V30 2270 C 215.422 3.93083 1.60269 0
M  V30 2271 C 213.329 5.90468 0.331883 0
M  V30 2272 H 212.259 0.727453 0.198315 0
M  V30 2273 H 214.91 1.82227 -0.215759 0
M  V30 2274 H 213.292 3.54282 1.7692 0
M  V30 2275 H 214.466 4.51536 -0.919317 0
M  V30 2276 H 212.781 4.10891 -0.675124 0
M  V30 2277 H 215.378 4.97121 1.96914 0
M  V30 2278 H 215.721 3.33876 2.48662 0
M  V30 2279 H 216.254 3.88025 0.876453 0
M  V30 2280 H 212.993 6.53463 -0.516341 0
M  V30 2281 H 212.513 5.90094 1.07469 0
M  V30 2282 H 214.192 6.42179 0.788332 0
M  V30 2283 N 214.325 -0.140222 1.56975 0
M  V30 2284 C 215.571 -0.848084 1.84876 0
M  V30 2285 C 215.926 -1.78481 0.718481 0
M  V30 2286 O 215.219 -1.89497 -0.283093 0
M  V30 2287 C 215.413 -1.65386 3.16832 0
M  V30 2288 C 215.242 -0.79665 4.42587 0
M  V30 2289 C 214.012 -0.459648 5.03205 0
M  V30 2290 C 216.21 -0.12389 5.14151 0
M  V30 2291 N 214.192 0.410446 6.12526 0
M  V30 2292 C 215.563 0.606064 6.17031 0
M  V30 2293 C 217.618 -0.0452654 4.97879 0
M  V30 2294 C 216.321 1.40723 7.054 0
M  V30 2295 C 218.347 0.742658 5.86718 0
M  V30 2296 C 217.709 1.46087 6.89085 0
M  V30 2297 H 213.808 -0.287946 0.727056 0
M  V30 2298 H 216.392 -0.11304 1.94372 0
M  V30 2299 H 214.563 -2.36009 3.08471 0
M  V30 2300 H 216.295 -2.30541 3.32615 0
M  V30 2301 H 213.05 -0.797006 4.66846 0
M  V30 2302 H 213.474 0.836716 6.7181 0
M  V30 2303 H 218.116 -0.586184 4.18717 0
M  V30 2304 H 215.834 1.95938 7.83986 0
M  V30 2305 H 219.42 0.805574 5.76196 0
M  V30 2306 H 218.3 2.06077 7.56639 0
M  V30 2307 N 215.803 -1.52179 -0.40978 0
M  V30 2308 C 216.766 -1.74853 -1.48186 0
M  V30 2309 C 217.766 -0.618417 -1.48433 0
M  V30 2310 O 218.956 -0.886286 -1.49969 0
M  V30 2311 C 216.088 -1.8303 -2.87598 0
M  V30 2312 H 217.281 -2.70559 -1.29374 0
M  V30 2313 H 214.834 -1.42586 -0.640233 0
M  V30 2314 H 215.569 -0.89236 -3.11781 0
M  V30 2315 H 215.354 -2.65187 -2.88822 0
M  V30 2316 H 216.844 -2.02316 -3.65319 0
M  V30 2317 N 217.281 0.66697 -1.42791 0
M  V30 2318 C 218.244 1.76211 -1.46568 0
M  V30 2319 C 219.244 1.56896 -0.352196 0
M  V30 2320 O 220.434 1.63044 -0.613364 0
M  V30 2321 C 217.566 3.14935 -1.30494 0
M  V30 2322 H 218.759 1.74247 -2.44086 0
M  V30 2323 H 216.312 0.877342 -1.29354 0
M  V30 2324 H 217.047 3.2252 -0.339301 0
M  V30 2325 H 216.832 3.30359 -2.11199 0
M  V30 2326 H 218.322 3.94821 -1.36038 0
M  V30 2327 N 218.759 1.29093 0.90403 0
M  V30 2328 C 220.007 1.16583 1.65085 0
M  V30 2329 C 220.328 -0.283933 1.92922 0
M  V30 2330 O 219.598 -1.19509 1.55224 0
M  V30 2331 H 218.178 0.428467 0.611903 0
M  V30 2332 H 220.84 1.61959 1.08422 0
M  V30 2333 H 219.936 1.71266 2.6091 0
M  V30 2334 N 220.237 -1.11381 1.11499 0
M  V30 2335 C 221.477 -1.84763 0.874188 0
M  V30 2336 C 221.841 -1.82726 -0.589496 0
M  V30 2337 O 223.042 -2.51562 -0.947089 0
M  V30 2338 C 221.313 -3.27931 1.42112 0
M  V30 2339 S 222.872 -4.18557 1.31739 0
M  V30 2340 H 219.69 -0.637115 0.315603 0
M  V30 2341 H 222.292 -1.34097 1.42261 0
M  V30 2342 H 220.996 -3.26978 2.48019 0
M  V30 2343 H 220.527 -3.83665 0.869761 0
M  V30 2344 H 222.542 -4.95396 0.282335 0
M  V30 2345 N 221.715 -0.905404 -1.28997 0
M  V30 2346 C 222.955 -0.541232 -1.97104 0
M  V30 2347 C 223.319 0.896841 -1.69767 0
M  V30 2348 O 224.52 1.36817 -2.31375 0
M  V30 2349 C 222.791 -0.832134 -3.47578 0
M  V30 2350 S 224.35 -0.573127 -4.35041 0
M  V30 2351 H 221.168 -0.200576 -0.682122 0
M  V30 2352 H 223.77 -1.16906 -1.56694 0
M  V30 2353 H 222.474 -1.87687 -3.64968 0
M  V30 2354 H 222.005 -0.192636 -3.92928 0
M  V30 2355 H 224.02 0.579297 -4.92807 0
M  V30 2356 N 223.193 1.4272 -0.668489 0
M  V30 2357 C 224.433 2.03497 -0.19194 0
M  V30 2358 C 224.797 1.51684 1.17712 0
M  V30 2359 O 225.998 2.04205 1.74796 0
M  V30 2360 C 224.269 3.56734 -0.218032 0
M  V30 2361 S 225.828 4.38395 0.188438 0
M  V30 2362 H 222.646 0.706542 -0.0794959 0
M  V30 2363 H 225.248 1.74563 -0.880235 0
M  V30 2364 H 223.952 3.91943 -1.2169 0
M  V30 2365 H 223.483 3.90333 0.490303 0
M  V30 2366 H 225.498 4.75345 1.42345 0
M  V30 2367 N 224.671 0.411399 1.52136 0
M  V30 2368 C 226.087 0.0623865 1.59478 0
M  V30 2369 C 226.287 -1.42554 1.4241 0
M  V30 2370 O 225.343 -2.19263 1.2522 0
M  V30 2371 C 226.656 0.559331 2.95452 0
M  V30 2372 C 228.204 0.517503 3.08692 0
M  V30 2373 C 228.679 0.990994 4.4715 0
M  V30 2374 N 230.17 0.947908 4.53397 0
M  V30 2375 C 230.905 1.28544 5.58806 0
M  V30 2376 N 230.401 1.69454 6.71757 0
M  V30 2377 N 232.194 1.20526 5.49026 0
M  V30 2378 H 224.345 1.37982 1.61477 0
M  V30 2379 H 226.608 0.566977 0.759764 0
M  V30 2380 H 226.314 1.59938 3.1323 0
M  V30 2381 H 226.188 -0.0298014 3.77188 0
M  V30 2382 H 228.575 -0.513505 2.90598 0
M  V30 2383 H 228.656 1.14272 2.28857 0
M  V30 2384 H 228.3 2.02034 4.65988 0
M  V30 2385 H 228.23 0.34257 5.25485 0
M  V30 2386 H 230.721 0.647157 3.72317 0
M  V30 2387 H 231.034 1.93513 7.48179 0
M  V30 2388 H 229.379 1.73359 6.73032 0
M  V30 2389 H 232.57 0.884505 4.59667 0
M  V30 2390 H 232.743 1.47161 6.31069 0
M  V30 2391 N 226.149 -1.5696 0.141893 0
M  V30 2392 C 227.379 -2.00031 -0.516828 0
M  V30 2393 C 227.787 -1.02091 -1.59293 0
M  V30 2394 O 227.13 -0.00909657 -1.83698 0
M  V30 2395 C 227.192 -3.39534 -1.1814 0
M  V30 2396 C 226.856 -4.56313 -0.250513 0
M  V30 2397 C 227.853 -5.17295 0.519839 0
M  V30 2398 C 225.538 -5.02061 -0.154907 0
M  V30 2399 C 227.532 -6.2243 1.3733 0
M  V30 2400 C 225.219 -6.07053 0.702161 0
M  V30 2401 C 226.217 -6.67106 1.46487 0
M  V30 2402 O 225.905 -7.70066 2.30767 0
M  V30 2403 H 225.637 -0.661451 -0.139493 0
M  V30 2404 H 228.191 -2.04086 0.231926 0
M  V30 2405 H 226.421 -3.32302 -1.97769 0
M  V30 2406 H 228.11 -3.66745 -1.73933 0
M  V30 2407 H 228.876 -4.82852 0.45598 0
M  V30 2408 H 224.755 -4.5505 -0.7383 0
M  V30 2409 H 228.299 -6.69233 1.96909 0
M  V30 2410 H 224.196 -6.40923 0.76733 0
M  V30 2411 H 224.964 -7.87264 2.23959 0
M  V30 2412 N 227.627 0.131896 -1.57047 0
M  V30 2413 C 229.043 0.485031 -1.52051 0
M  V30 2414 C 229.243 1.82563 -0.85281 0
M  V30 2415 O 228.299 2.48817 -0.429694 0
M  V30 2416 C 229.612 0.481409 -2.96821 0
M  V30 2417 C 231.16 0.565868 -3.07842 0
M  V30 2418 C 231.635 0.592762 -4.54148 0
M  V30 2419 N 233.126 0.654564 -4.58552 0
M  V30 2420 C 233.861 0.696608 -5.69153 0
M  V30 2421 N 233.357 0.697078 -6.89284 0
M  V30 2422 N 235.15 0.738639 -5.57226 0
M  V30 2423 H 227.301 -0.746664 -1.98843 0
M  V30 2424 H 229.564 -0.273999 -0.90754 0
M  V30 2425 H 229.27 -0.435731 -3.4899 0
M  V30 2426 H 229.144 1.3139 -3.53577 0
M  V30 2427 H 231.531 1.47343 -2.55684 0
M  V30 2428 H 231.612 -0.29406 -2.54104 0
M  V30 2429 H 231.256 -0.310701 -5.06949 0
M  V30 2430 H 231.186 1.46939 -5.05684 0
M  V30 2431 H 233.677 0.660887 -3.72076 0
M  V30 2432 H 233.99 0.731426 -7.69331 0
M  V30 2433 H 232.335 0.66471 -6.91814 0
M  V30 2434 H 235.526 0.735545 -4.62285 0
M  V30 2435 H 235.699 0.767938 -6.43434 0
M  V30 2436 N 229.106 1.52395 0.401703 0
M  V30 2437 C 230.354 1.66488 1.14569 0
M  V30 2438 C 230.675 0.400897 1.90835 0
M  V30 2439 O 229.945 -0.584415 1.8698 0
M  V30 2440 H 228.525 0.613672 0.425929 0
M  V30 2441 H 231.187 1.89464 0.457093 0
M  V30 2442 H 230.283 2.50942 1.85566 0
M  V30 2443 N 230.584 -0.659388 1.43143 0
M  V30 2444 C 231.83 -1.41984 1.45644 0
M  V30 2445 C 232.185 -1.92245 0.0771718 0
M  V30 2446 O 231.478 -1.68976 -0.903205 0
M  V30 2447 C 231.672 -2.62206 2.42864 0
M  V30 2448 C 231.501 -2.23711 3.90107 0
M  V30 2449 C 230.271 -2.12332 4.58523 0
M  V30 2450 C 232.469 -1.84384 4.80112 0
M  V30 2451 N 230.451 -1.67102 5.9072 0
M  V30 2452 C 231.822 -1.5019 6.01534 0
M  V30 2453 C 233.877 -1.71512 4.67427 0
M  V30 2454 C 232.58 -1.04414 7.11681 0
M  V30 2455 C 234.606 -1.27142 5.77572 0
M  V30 2456 C 233.968 -0.938808 6.98116 0
M  V30 2457 H 230.067 -0.515448 0.588079 0
M  V30 2458 H 232.651 -0.759409 1.79279 0
M  V30 2459 H 230.822 -3.25917 2.11265 0
M  V30 2460 H 232.554 -3.28877 2.35843 0
M  V30 2461 H 229.309 -2.31893 4.12944 0
M  V30 2462 H 229.733 -1.46866 6.60878 0
M  V30 2463 H 234.375 -1.95868 3.74694 0
M  V30 2464 H 232.093 -0.788061 8.04248 0
M  V30 2465 H 235.679 -1.17681 5.69774 0
M  V30 2466 H 234.559 -0.6007 7.81896 0
M  V30 2467 N 232.062 -1.29571 -0.897171 0
M  V30 2468 C 233.478 -1.07637 -1.17841 0
M  V30 2469 C 233.678 0.170713 -2.00776 0
M  V30 2470 O 232.734 0.867768 -2.3712 0
M  V30 2471 C 234.047 -2.3332 -1.8969 0
M  V30 2472 C 235.595 -2.38664 -2.02505 0
M  V30 2473 C 236.07 -3.64157 -2.77765 0
M  V30 2474 N 237.561 -3.64894 -2.85318 0
M  V30 2475 C 238.296 -4.58679 -3.44094 0
M  V30 2476 N 237.792 -5.62799 -4.04017 0
M  V30 2477 N 239.585 -4.46245 -3.41793 0
M  V30 2478 H 231.736 -2.09598 -0.343883 0
M  V30 2479 H 233.999 -0.923333 -0.214848 0
M  V30 2480 H 233.705 -3.24262 -1.36187 0
M  V30 2481 H 233.579 -2.41025 -2.9015 0
M  V30 2482 H 235.966 -1.48208 -2.55183 0
M  V30 2483 H 236.047 -2.34943 -1.01171 0
M  V30 2484 H 235.691 -4.54965 -2.25763 0
M  V30 2485 H 235.621 -3.65137 -3.7945 0
M  V30 2486 H 238.112 -2.89613 -2.42761 0
M  V30 2487 H 238.425 -6.3048 -4.46895 0
M  V30 2488 H 236.77 -5.66605 -4.02472 0
M  V30 2489 H 239.961 -3.64094 -2.94199 0
M  V30 2490 H 240.134 -5.19518 -3.87304 0
M  V30 2491 N 233.54 1.10788 -1.12088 0
M  V30 2492 C 234.788 1.8231 -0.872205 0
M  V30 2493 C 235.109 1.85419 0.603709 0
M  V30 2494 O 234.379 1.32963 1.43867 0
M  V30 2495 H 232.959 0.675137 -0.319686 0
M  V30 2496 H 235.621 1.34068 -1.41463 0
M  V30 2497 H 234.717 2.85955 -1.25045 0
M  V30 2498 N 235.018 0.912232 1.28515 0
M  V30 2499 C 236.434 0.610159 1.47476 0
M  V30 2500 C 236.634 -0.844955 1.82928 0
M  V30 2501 O 235.69 -1.62416 1.93332 0
M  V30 2502 C 237.003 1.54675 2.57868 0
M  V30 2503 C 238.551 1.55331 2.71738 0
M  V30 2504 C 239.026 2.47649 3.85272 0
M  V30 2505 N 240.517 2.45767 3.92623 0
M  V30 2506 C 241.252 3.13896 4.79851 0
M  V30 2507 N 240.748 3.9135 5.71679 0
M  V30 2508 N 242.541 3.02991 4.73448 0
M  V30 2509 H 234.692 1.85318 1.03783 0
M  V30 2510 H 236.955 0.794777 0.516753 0
M  V30 2511 H 236.661 2.5841 2.38574 0
M  V30 2512 H 236.535 1.27671 3.54937 0
M  V30 2513 H 238.922 0.52335 2.90422 0
M  V30 2514 H 239.003 1.86378 1.75205 0
M  V30 2515 H 238.647 3.50745 3.67342 0
M  V30 2516 H 238.577 2.13904 4.81199 0
M  V30 2517 H 241.068 1.89503 3.26951 0
M  V30 2518 H 241.381 4.40359 6.35062 0
M  V30 2519 H 239.726 3.95455 5.71524 0
M  V30 2520 H 242.917 2.41987 4.007 0
M  V30 2521 H 243.09 3.5636 5.41213 0
M  V30 2522 N 236.496 -1.42363 0.676048 0
M  V30 2523 C 237.426 -2.33497 0.0124832 0
M  V30 2524 C 238.407 -1.50748 -0.787981 0
M  V30 2525 O 239.592 -1.79346 -0.744884 0
M  V30 2526 C 236.722 -3.34377 -0.938582 0
M  V30 2527 C 235.676 -4.27289 -0.246622 0
M  V30 2528 C 235.002 -5.18386 -1.31071 0
M  V30 2529 C 236.302 -5.14916 0.875125 0
M  V30 2530 H 237.996 -2.89233 0.773593 0
M  V30 2531 H 235.542 -1.39073 0.37346 0
M  V30 2532 H 237.495 -3.97044 -1.41188 0
M  V30 2533 H 236.219 -2.76947 -1.73113 0
M  V30 2534 H 234.878 -3.66018 0.206456 0
M  V30 2535 H 234.526 -4.57282 -2.09528 0
M  V30 2536 H 234.226 -5.81378 -0.852839 0
M  V30 2537 H 235.75 -5.83929 -1.78492 0
M  V30 2538 H 237.164 -5.71262 0.482983 0
M  V30 2539 H 235.561 -5.86747 1.25887 0
M  V30 2540 H 236.631 -4.53242 1.72335 0
M  V30 2541 N 237.974 -0.419461 -1.51915 0
M  V30 2542 C 238.921 0.400927 -2.27291 0
M  V30 2543 C 239.891 1.03224 -1.30131 0
M  V30 2544 O 241.076 1.05455 -1.59009 0
M  V30 2545 C 238.216 1.50603 -3.10504 0
M  V30 2546 C 237.329 0.89462 -4.22635 0
M  V30 2547 C 236.464 1.97328 -4.93189 0
M  V30 2548 C 235.503 1.33935 -5.97267 0
M  V30 2549 N 234.64 2.3586 -6.61298 0
M  V30 2550 H 239.48 -0.248251 -2.96964 0
M  V30 2551 H 237.017 -0.134266 -1.46486 0
M  V30 2552 H 238.975 2.15783 -3.57062 0
M  V30 2553 H 237.605 2.12509 -2.42981 0
M  V30 2554 H 236.657 0.131583 -3.80172 0
M  V30 2555 H 237.969 0.391641 -4.9726 0
M  V30 2556 H 237.123 2.70211 -5.43204 0
M  V30 2557 H 235.862 2.50994 -4.18155 0
M  V30 2558 H 234.867 0.595896 -5.46561 0
M  V30 2559 H 236.092 0.810252 -6.74249 0
M  V30 2560 H 234.038 2.88639 -5.89087 0
M  V30 2561 H 233.955 1.90403 -7.3163 0
M  V30 2562 H 235.223 3.08282 -7.15949 0
M  V30 2563 N 239.452 1.56882 -0.150215 0
M  V30 2564 C 240.699 1.96228 0.500093 0
M  V30 2565 C 241.027 1.03522 1.64661 0
M  V30 2566 O 240.282 0.0650683 1.95592 0
M  V30 2567 C 240.581 3.41801 1.04437 0
M  V30 2568 C 240.247 4.50897 0.0159671 0
M  V30 2569 C 238.909 4.8046 -0.266731 0
M  V30 2570 C 241.261 5.16703 -0.683192 0
M  V30 2571 C 238.589 5.73135 -1.25434 0
M  V30 2572 C 240.941 6.10441 -1.65964 0
M  V30 2573 C 239.605 6.38382 -1.95 0
M  V30 2574 H 238.875 0.718048 0.182997 0
M  V30 2575 H 241.522 1.90019 -0.237724 0
M  V30 2576 H 239.827 3.44857 1.85959 0
M  V30 2577 H 241.524 3.69573 1.55618 0
M  V30 2578 H 238.114 4.27891 0.246485 0
M  V30 2579 H 242.298 4.93993 -0.477983 0
M  V30 2580 H 237.554 5.93074 -1.48571 0
M  V30 2581 H 241.728 6.60507 -2.20689 0
M  V30 2582 H 239.355 7.09996 -2.71679 0
M  V30 2583 N 240.93 -0.123565 1.57115 0
M  V30 2584 C 241.893 -1.13583 1.99076 0
M  V30 2585 C 242.893 -1.34564 0.880296 0
M  V30 2586 O 244.083 -1.31158 1.14644 0
M  V30 2587 C 241.215 -2.49128 2.32698 0
M  V30 2588 H 242.408 -0.775287 2.89706 0
M  V30 2589 H 239.961 -0.36771 1.51913 0
M  V30 2590 H 240.696 -2.90111 1.44934 0
M  V30 2591 H 240.481 -2.35255 3.13684 0
M  V30 2592 H 241.971 -3.2199 2.65918 0
M  V30 2593 N 242.408 -1.52605 -0.393616 0
M  V30 2594 C 243.824 -1.41753 -0.733357 0
M  V30 2595 C 244.024 -0.534293 -1.94287 0
M  V30 2596 O 243.08 -0.0059787 -2.52499 0
M  V30 2597 C 244.393 -2.84531 -0.972772 0
M  V30 2598 C 245.941 -2.93978 -1.07453 0
M  V30 2599 C 246.416 -4.37756 -1.3466 0
M  V30 2600 N 247.907 -4.4106 -1.41492 0
M  V30 2601 C 248.642 -5.49387 -1.642 0
M  V30 2602 N 248.138 -6.67806 -1.8441 0
M  V30 2603 N 249.931 -5.36923 -1.66342 0
M  V30 2604 H 242.082 -2.08555 0.402328 0
M  V30 2605 H 244.345 -0.940654 0.117789 0
M  V30 2606 H 244.051 -3.51353 -0.156204 0
M  V30 2607 H 243.925 -3.26508 -1.88871 0
M  V30 2608 H 246.312 -2.27326 -1.88167 0
M  V30 2609 H 246.393 -2.55435 -0.136605 0
M  V30 2610 H 246.037 -5.04972 -0.544581 0
M  V30 2611 H 245.967 -4.73848 -2.2973 0
M  V30 2612 H 248.458 -3.55705 -1.27601 0
M  V30 2613 H 248.771 -7.46141 -2.01231 0
M  V30 2614 H 247.116 -6.70843 -1.81644 0
M  V30 2615 H 250.307 -4.43381 -1.50102 0
M  V30 2616 H 250.48 -6.21416 -1.837 0
M  V30 2617 N 243.887 0.651787 -1.4349 0
M  V30 2618 C 244.834 1.76462 -1.4876 0
M  V30 2619 C 245.804 1.62641 -0.337189 0
M  V30 2620 O 246.989 1.82864 -0.544544 0
M  V30 2621 C 244.129 3.14623 -1.41796 0
M  V30 2622 C 243.242 3.39568 -2.67053 0
M  V30 2623 C 242.377 4.67585 -2.52068 0
M  V30 2624 C 241.416 4.85639 -3.72587 0
M  V30 2625 N 240.553 6.04915 -3.56402 0
M  V30 2626 H 245.393 1.71293 -2.43849 0
M  V30 2627 H 242.93 0.835889 -1.21043 0
M  V30 2628 H 244.888 3.94496 -1.35753 0
M  V30 2629 H 243.518 3.18859 -0.50288 0
M  V30 2630 H 242.57 2.53783 -2.8337 0
M  V30 2631 H 243.882 3.48795 -3.56572 0
M  V30 2632 H 243.036 5.55586 -2.4374 0
M  V30 2633 H 241.775 4.60681 -1.60075 0
M  V30 2634 H 240.78 3.96073 -3.81321 0
M  V30 2635 H 242.005 4.94372 -4.65589 0
M  V30 2636 H 239.951 5.9914 -2.67146 0
M  V30 2637 H 239.868 6.15106 -4.39524 0
M  V30 2638 H 241.136 6.95533 -3.51929 0
M  V30 2639 N 245.365 1.30045 0.890287 0
M  V30 2640 C 246.776 1.16738 1.45702 0
M  V30 2641 C 247.127 -0.233939 1.948 0
M  V30 2642 O 246.252 -1.13021 1.84541 0
M  V30 2643 C 246.847 2.11313 2.64825 0
M  V30 2644 C 245.406 2.02001 3.17604 0
M  V30 2645 C 244.553 2.01699 1.90296 0
M  V30 2646 H 247.504 1.42392 0.700726 0
M  V30 2647 H 247.525 1.69086 3.40867 0
M  V30 2648 H 247.037 3.13294 2.2906 0
M  V30 2649 H 245.138 1.03142 3.5804 0
M  V30 2650 H 245.251 2.90128 3.81264 0
M  V30 2651 H 243.615 1.46427 2.08402 0
M  V30 2652 H 244.398 3.05402 1.56795 0
M  V30 2653 N 246.843 -1.10192 1.12674 0
M  V30 2654 C 248.09 -1.82205 0.883606 0
M  V30 2655 C 248.418 -1.8532 -0.590492 0
M  V30 2656 O 247.673 -1.31137 -1.45264 0
M  V30 2657 C 247.972 -3.28552 1.4067 0
M  V30 2658 C 247.638 -3.45582 2.89627 0
M  V30 2659 C 246.3 -3.49937 3.30299 0
M  V30 2660 C 248.652 -3.50768 3.85501 0
M  V30 2661 C 245.98 -3.57049 4.65546 0
M  V30 2662 C 248.332 -3.59414 5.20581 0
M  V30 2663 C 246.996 -3.62034 5.60792 0
M  V30 2664 H 246.266 -0.666735 0.323334 0
M  V30 2665 H 248.913 -1.29868 1.40736 0
M  V30 2666 H 247.218 -3.83473 0.80347 0
M  V30 2667 H 248.915 -3.82788 1.19475 0
M  V30 2668 H 245.505 -3.42871 2.57172 0
M  V30 2669 H 249.689 -3.46651 3.55171 0
M  V30 2670 H 244.945 -3.57361 4.96088 0
M  V30 2671 H 249.119 -3.62371 5.94693 0
M  V30 2672 H 246.746 -3.67298 6.6558 0
M  V30 2673 N 248.321 -0.919034 -1.28029 0
M  V30 2674 C 249.561 -0.562107 -1.96519 0
M  V30 2675 C 249.925 0.878784 -1.70708 0
M  V30 2676 O 251.126 1.34355 -2.32813 0
M  V30 2677 C 249.397 -0.868953 -3.46676 0
M  V30 2678 S 250.956 -0.619237 -4.34409 0
M  V30 2679 H 247.774 -0.2078 -0.679956 0
M  V30 2680 H 250.376 -1.18562 -1.55446 0
M  V30 2681 H 249.08 -1.91547 -3.62957 0
M  V30 2682 H 248.611 -0.234301 -3.92702 0
M  V30 2683 H 250.626 0.526995 -4.93394 0
M  V30 2684 N 249.799 1.42003 -0.683588 0
M  V30 2685 C 251.045 2.01712 -0.209825 0
M  V30 2686 C 251.378 1.53968 1.18353 0
M  V30 2687 O 250.653 0.745661 1.79639 0
M  V30 2688 C 250.936 3.59202 -0.254197 0
M  V30 2689 C 250.789 4.17102 -1.68363 0
M  V30 2690 C 252.108 4.38344 0.392709 0
M  V30 2691 H 249.227 0.732891 -0.0777189 0
M  V30 2692 H 251.869 1.68909 -0.87004 0
M  V30 2693 H 250.019 3.87278 0.307954 0
M  V30 2694 H 251.691 3.99946 -2.29871 0
M  V30 2695 H 249.934 3.72597 -2.22157 0
M  V30 2696 H 250.605 5.26249 -1.6663 0
M  V30 2697 H 253.081 4.16011 -0.0859162 0
M  V30 2698 H 251.957 5.47901 0.331063 0
M  V30 2699 H 252.218 4.16887 1.47164 0
M  V30 2700 N 251.277 0.427512 1.51691 0
M  V30 2701 C 252.526 -0.143679 2.01188 0
M  V30 2702 C 252.839 -1.44642 1.31674 0
M  V30 2703 O 254.045 -2.09997 1.72086 0
M  V30 2704 C 252.501 -0.306602 3.58592 0
M  V30 2705 C 252.109 0.985125 4.37035 0
M  V30 2706 C 253.853 -0.832091 4.16265 0
M  V30 2707 C 251.76 0.788382 5.86122 0
M  V30 2708 H 250.69 -0.0574701 0.751807 0
M  V30 2709 H 253.341 0.555772 1.74881 0
M  V30 2710 H 251.723 -1.06882 3.81303 0
M  V30 2711 H 252.897 1.75492 4.26074 0
M  V30 2712 H 251.212 1.4384 3.90767 0
M  V30 2713 H 253.809 -0.995617 5.25349 0
M  V30 2714 H 254.152 -1.81186 3.74803 0
M  V30 2715 H 254.685 -0.128444 3.97593 0
M  V30 2716 H 251.424 1.74025 6.31978 0
M  V30 2717 H 250.944 0.0582143 5.99772 0
M  V30 2718 H 252.623 0.437722 6.45518 0
M  V30 2719 N 252.755 -1.56801 0.158532 0
M  V30 2720 C 254.032 -1.88131 -0.535357 0
M  V30 2721 C 254.412 -1.06638 -1.82186 0
M  V30 2722 O 253.76 -0.156533 -2.27963 0
M  V30 2723 C 253.97 -3.39949 -0.789653 0
M  V30 2724 C 255.318 -4.09416 -1.12533 0
M  V30 2725 O 256.342 -3.45194 -0.878622 0
M  V30 2726 O 255.201 -5.22855 -1.59014 0
M  V30 2727 H 252.295 -0.780143 -0.27442 0
M  V30 2728 H 254.841 -1.68564 0.19601 0
M  V30 2729 H 253.613 -3.91115 0.120353 0
M  V30 2730 H 253.236 -3.65084 -1.57479 0
M  V30 2731 N 254.233 0.115231 -1.57178 0
M  V30 2732 C 255.482 0.820945 -1.84237 0
M  V30 2733 C 255.795 1.80866 -0.744761 0
M  V30 2734 O 257.001 2.56083 -0.901871 0
M  V30 2735 C 255.457 1.51072 -3.26658 0
M  V30 2736 C 255.065 0.563795 -4.44438 0
M  V30 2737 C 256.809 2.20134 -3.62962 0
M  V30 2738 C 254.716 1.25701 -5.77887 0
M  V30 2739 H 253.646 0.310328 -0.687177 0
M  V30 2740 H 256.297 0.0737134 -1.83352 0
M  V30 2741 H 254.679 2.30471 -3.22024 0
M  V30 2742 H 255.853 -0.197247 -4.60378 0
M  V30 2743 H 254.168 -0.0200638 -4.16395 0
M  V30 2744 H 256.765 2.72696 -4.59936 0
M  V30 2745 H 257.108 2.98107 -2.90582 0
M  V30 2746 H 257.641 1.47619 -3.69396 0
M  V30 2747 H 254.38 0.518493 -6.53446 0
M  V30 2748 H 253.9 1.98997 -5.65827 0
M  V30 2749 H 255.579 1.78915 -6.2177 0
M  V30 2750 N 255.711 1.52812 0.385517 0
M  V30 2751 C 256.644 1.72592 1.49289 0
M  V30 2752 C 257.622 0.573819 1.52138 0
M  V30 2753 O 258.806 0.80404 1.70492 0
M  V30 2754 C 255.933 1.78669 2.87741 0
M  V30 2755 C 254.979 3.00455 3.02703 0
M  V30 2756 S 255.812 4.60366 2.73538 0
M  V30 2757 C 256.968 4.69263 4.14177 0
M  V30 2758 H 257.201 2.66248 1.32285 0
M  V30 2759 H 254.734 1.43148 0.578611 0
M  V30 2760 H 256.692 1.82855 3.67524 0
M  V30 2761 H 255.353 0.861 3.02069 0
M  V30 2762 H 254.546 3.01258 4.04054 0
M  V30 2763 H 254.148 2.94278 2.30817 0
M  V30 2764 H 256.44 4.48092 5.08153 0
M  V30 2765 H 257.383 5.71276 4.18388 0
M  V30 2766 H 257.791 3.98072 4.00249 0
M  V30 2767 N 257.189 -0.644168 1.43834 0
M  V30 2768 C 258.435 -1.40603 1.46146 0
M  V30 2769 C 258.768 -1.93997 0.0887717 0
M  V30 2770 O 258.043 -1.72854 -0.891724 0
M  V30 2771 C 258.326 -2.58086 2.51124 0
M  V30 2772 C 258.179 -2.10126 3.97702 0
M  V30 2773 C 259.498 -3.60291 2.52742 0
M  V30 2774 H 256.617 -0.509905 0.532134 0
M  V30 2775 H 259.259 -0.729502 1.75437 0
M  V30 2776 H 257.409 -3.15801 2.26278 0
M  V30 2777 H 259.081 -1.57342 4.33637 0
M  V30 2778 H 257.324 -1.41419 4.10101 0
M  V30 2779 H 257.995 -2.94649 4.66783 0
M  V30 2780 H 260.471 -3.12352 2.7491 0
M  V30 2781 H 259.347 -4.40032 3.28121 0
M  V30 2782 H 259.608 -4.1349 1.56455 0
M  V30 2783 N 258.668 -1.30515 -0.883378 0
M  V30 2784 C 259.598 -1.19607 -2.00541 0
M  V30 2785 C 260.579 -0.086346 -1.69881 0
M  V30 2786 O 261.764 -0.268654 -1.92333 0
M  V30 2787 C 258.894 -0.888758 -3.35736 0
M  V30 2788 C 257.848 -1.95659 -3.8066 0
M  V30 2789 C 257.174 -1.50224 -5.13164 0
M  V30 2790 C 258.474 -3.36788 -3.99213 0
M  V30 2791 H 260.168 -2.13476 -2.09925 0
M  V30 2792 H 257.714 -1.02775 -1.00863 0
M  V30 2793 H 259.667 -0.799094 -4.13754 0
M  V30 2794 H 258.391 0.0856125 -3.26488 0
M  V30 2795 H 257.05 -2.03591 -3.04871 0
M  V30 2796 H 256.698 -0.516092 -5.00345 0
M  V30 2797 H 256.398 -2.2165 -5.44192 0
M  V30 2798 H 257.922 -1.42639 -5.93706 0
M  V30 2799 H 259.336 -3.31605 -4.67665 0
M  V30 2800 H 257.733 -4.06314 -4.41621 0
M  V30 2801 H 258.803 -3.78561 -3.03017 0
M  V30 2802 N 260.146 1.09593 -1.13257 0
M  V30 2803 C 261.395 1.81105 -0.887917 0
M  V30 2804 C 261.708 1.86563 0.587672 0
M  V30 2805 O 262.914 2.54367 0.949204 0
M  V30 2806 C 261.37 3.25338 -1.53895 0
M  V30 2807 C 260.978 3.28151 -3.04994 0
M  V30 2808 C 262.722 4.01617 -1.37492 0
M  V30 2809 C 260.629 4.66897 -3.6299 0
M  V30 2810 H 259.559 0.678661 -0.328534 0
M  V30 2811 H 262.21 1.23183 -1.36008 0
M  V30 2812 H 260.592 3.8331 -0.994446 0
M  V30 2813 H 261.766 2.79953 -3.66009 0
M  V30 2814 H 260.081 2.65361 -3.20893 0
M  V30 2815 H 262.678 5.04119 -1.78235 0
M  V30 2816 H 263.021 4.15072 -0.31957 0
M  V30 2817 H 263.554 3.50082 -1.88912 0
M  V30 2818 H 260.293 4.58643 -4.68323 0
M  V30 2819 H 259.813 5.15426 -3.06752 0
M  V30 2820 H 261.492 5.3587 -3.62563 0
M  V30 2821 N 261.624 0.925811 1.2754 0
M  V30 2822 C 262.587 0.428129 2.25166 0
M  V30 2823 C 263.587 -0.452261 1.54309 0
M  V30 2824 O 264.777 -0.253608 1.72344 0
M  V30 2825 C 261.909 -0.384749 3.38722 0
M  V30 2826 H 263.102 1.29066 2.70706 0
M  V30 2827 H 260.655 0.706323 1.3943 0
M  V30 2828 H 261.39 -1.26618 2.98561 0
M  V30 2829 H 261.175 0.246454 3.91325 0
M  V30 2830 H 262.665 -0.723389 4.11287 0
M  V30 2831 N 263.102 -1.41638 0.69111 0
M  V30 2832 C 264.327 -2.06148 0.227583 0
M  V30 2833 C 264.752 -1.51652 -1.11281 0
M  V30 2834 O 264.11 -0.64164 -1.69566 0
M  V30 2835 C 264.158 -3.60095 0.190858 0
M  V30 2836 O 263.262 -4.03845 -0.835664 0
M  V30 2837 H 262.603 -0.654434 0.112306 0
M  V30 2838 H 265.133 -1.81484 0.944714 0
M  V30 2839 H 265.143 -4.07995 0.020207 0
M  V30 2840 H 263.818 -3.99129 1.16915 0
M  V30 2841 H 262.395 -3.67458 -0.63473 0
M  V30 2842 N 264.58 -0.43555 -1.51462 0
M  V30 2843 C 265.829 0.133007 -2.01261 0
M  V30 2844 C 266.142 1.43942 -1.32439 0
M  V30 2845 O 267.348 2.09081 -1.73198 0
M  V30 2846 C 265.804 0.287581 -3.58749 0
M  V30 2847 C 265.412 -1.00829 -4.36506 0
M  V30 2848 C 267.156 0.810004 -4.167 0
M  V30 2849 C 265.063 -0.819454 -5.85695 0
M  V30 2850 H 263.993 0.0534822 -0.752101 0
M  V30 2851 H 266.644 -0.565038 -1.74584 0
M  V30 2852 H 265.026 1.04859 -3.81865 0
M  V30 2853 H 266.2 -1.77749 -4.25138 0
M  V30 2854 H 264.515 -1.45911 -3.89999 0
M  V30 2855 H 267.112 0.967743 -5.2587 0
M  V30 2856 H 267.455 1.79196 -3.75758 0
M  V30 2857 H 267.988 0.107357 -3.97655 0
M  V30 2858 H 264.727 -1.77374 -6.31046 0
M  V30 2859 H 264.247 -0.0900208 -5.99732 0
M  V30 2860 H 265.926 -0.471949 -6.45276 0
M  V30 2861 N 266.058 1.56714 -0.166846 0
M  V30 2862 C 267.021 2.16539 0.751232 0
M  V30 2863 C 268.021 1.11228 1.16125 0
M  V30 2864 O 269.211 1.36765 1.07894 0
M  V30 2865 C 266.343 2.74462 2.02196 0
M  V30 2866 H 267.536 2.99013 0.230499 0
M  V30 2867 H 265.089 1.56081 0.0826982 0
M  V30 2868 H 265.824 1.95709 2.58589 0
M  V30 2869 H 265.609 3.51527 1.73698 0
M  V30 2870 H 267.099 3.20489 2.67725 0
M  V30 2871 N 267.536 -0.106894 1.57237 0
M  V30 2872 C 268.782 -0.81373 1.85759 0
M  V30 2873 C 269.115 -1.78952 0.754315 0
M  V30 2874 O 268.39 -1.93029 -0.23879 0
M  V30 2875 C 268.673 -1.55293 3.24894 0
M  V30 2876 C 268.526 -0.595929 4.45835 0
M  V30 2877 C 269.845 -2.5063 3.61763 0
M  V30 2878 H 266.964 -0.294369 0.67566 0
M  V30 2879 H 269.606 -0.0776472 1.89841 0
M  V30 2880 H 267.756 -2.1804 3.21544 0
M  V30 2881 H 269.428 0.0236262 4.61294 0
M  V30 2882 H 267.671 0.0916191 4.33703 0
M  V30 2883 H 268.342 -1.15004 5.39887 0
M  V30 2884 H 270.818 -1.97982 3.65981 0
M  V30 2885 H 269.694 -2.99376 4.60071 0
M  V30 2886 H 269.955 -3.3385 2.89821 0
M  V30 2887 N 269.014 -1.53014 -0.377408 0
M  V30 2888 C 269.944 -1.81589 -1.46791 0
M  V30 2889 C 270.925 -0.668622 -1.56408 0
M  V30 2890 O 272.11 -0.917337 -1.71168 0
M  V30 2891 C 269.24 -1.99519 -2.8427 0
M  V30 2892 C 268.194 -3.15249 -2.89486 0
M  V30 2893 C 267.52 -3.18451 -4.29527 0
M  V30 2894 C 268.82 -4.54084 -2.58079 0
M  V30 2895 H 270.514 -2.7291 -1.23127 0
M  V30 2896 H 268.06 -1.31319 -0.590883 0
M  V30 2897 H 270.013 -2.18092 -3.60575 0
M  V30 2898 H 268.737 -1.04897 -3.09296 0
M  V30 2899 H 267.396 -2.96477 -2.15631 0
M  V30 2900 H 267.044 -2.2149 -4.5161 0
M  V30 2901 H 266.744 -3.962 -4.33934 0
M  V30 2902 H 268.268 -3.39193 -5.07721 0
M  V30 2903 H 269.682 -4.72899 -3.24098 0
M  V30 2904 H 268.079 -5.33987 -2.7382 0
M  V30 2905 H 269.149 -4.60006 -1.53372 0
M  V30 2906 N 270.492 0.636531 -1.44174 0
M  V30 2907 C 271.455 1.73063 -1.50273 0
M  V30 2908 C 272.455 1.56113 -0.385397 0
M  V30 2909 O 273.645 1.61707 -0.64781 0
M  V30 2910 C 270.777 3.12096 -1.37145 0
M  V30 2911 H 271.97 1.69031 -2.47727 0
M  V30 2912 H 269.523 0.849706 -1.31186 0
M  V30 2913 H 270.258 3.21728 -0.407636 0
M  V30 2914 H 270.043 3.25805 -2.18159 0
M  V30 2915 H 271.533 3.91846 -1.44382 0
M  V30 2916 N 271.97 1.30982 0.876444 0
M  V30 2917 C 272.933 1.18054 1.96459 0
M  V30 2918 C 273.933 0.109399 1.60427 0
M  V30 2919 O 275.123 0.358173 1.70478 0
M  V30 2920 C 272.255 0.810616 3.31122 0
M  V30 2921 H 273.448 2.14735 2.09354 0
M  V30 2922 H 271.001 1.145 1.06392 0
M  V30 2923 H 271.736 -0.155322 3.23928 0
M  V30 2924 H 271.521 1.58481 3.58645 0
M  V30 2925 H 273.011 0.743876 4.10921 0
M  V30 2926 N 273.449 -1.08991 1.13837 0
M  V30 2927 C 274.697 -1.80899 0.901098 0
M  V30 2928 C 275.018 -1.86356 -0.574134 0
M  V30 2929 O 274.288 -1.35235 -1.41733 0
M  V30 2930 H 272.868 -0.669966 0.330386 0
M  V30 2931 H 275.53 -1.318 1.43578 0
M  V30 2932 H 274.626 -2.83929 1.29578 0
M  V30 2933 N 274.927 -0.932562 -1.27047 0
M  V30 2934 C 276.152 -0.591474 -1.98787 0
M  V30 2935 C 276.577 0.824601 -1.69062 0
M  V30 2936 O 275.935 1.5541 -0.933677 0
M  V30 2937 C 275.983 -0.829808 -3.50922 0
M  V30 2938 O 275.087 0.102266 -4.12273 0
M  V30 2939 H 274.428 -0.227185 -0.623926 0
M  V30 2940 H 276.958 -1.25314 -1.61733 0
M  V30 2941 H 276.968 -0.747292 -4.01098 0
M  V30 2942 H 275.643 -1.86201 -3.7189 0
M  V30 2943 H 274.22 -0.0305761 -3.72887 0
M  V30 2944 N 276.405 1.4127 -0.698611 0
M  V30 2945 C 277.337 2.292 0.00399731 0
M  V30 2946 C 278.35 1.44944 0.741279 0
M  V30 2947 O 279.539 1.68416 0.591477 0
M  V30 2948 C 276.639 3.22875 1.02979 0
M  V30 2949 C 275.812 4.35904 0.36151 0
M  V30 2950 C 274.871 5.10134 1.29033 0
M  V30 2951 O 273.897 5.63809 0.781562 0
M  V30 2952 N 275.099 5.17885 2.6225 0
M  V30 2953 H 277.864 2.9014 -0.750921 0
M  V30 2954 H 275.425 1.52455 -0.544882 0
M  V30 2955 H 277.417 3.69404 1.65296 0
M  V30 2956 H 275.987 2.63221 1.68622 0
M  V30 2957 H 275.207 3.91719 -0.441584 0
M  V30 2958 H 276.495 5.08696 -0.103055 0
M  V30 2959 H 275.893 4.7573 3.061 0
M  V30 2960 H 274.45 5.6798 3.19754 0
M  V30 2961 N 277.883 0.443576 1.51229 0
M  V30 2962 C 279.131 -0.120557 2.0174 0
M  V30 2963 C 279.452 -1.42665 1.32935 0
M  V30 2964 O 278.722 -1.9028 0.465866 0
M  V30 2965 H 277.302 -0.0475426 0.745486 0
M  V30 2966 H 279.964 0.587711 1.85828 0
M  V30 2967 H 279.06 -0.291972 3.10731 0
M  V30 2968 N 279.361 -1.56624 0.175154 0
M  V30 2969 C 280.309 -2.19468 -0.770495 0
M  V30 2970 C 281.303 -1.15985 -1.23466 0
M  V30 2971 O 282.509 -1.34176 -1.19987 0
M  V30 2972 H 278.884 -0.703095 -0.266761 0
M  V30 2973 H 280.855 -2.97613 -0.216542 0
M  V30 2974 C 279.604 -2.85264 -1.98796 0
M  V30 2975 H 278.927 -3.64623 -1.63983 0
M  V30 2976 H 280.367 -3.327 -2.62843 0
M  V30 2977 C 278.826 -1.85239 -2.81404 0
M  V30 2978 O 279.356 -1.34024 -3.78682 0
M  V30 2979 N 277.562 -1.53911 -2.46495 0
M  V30 2980 H 277.109 -1.95751 -1.67449 0
M  V30 2981 H 277.067 -0.872382 -3.02054 0
M  V30 2982 N 280.839 0.0985539 -1.57292 0
M  V30 2983 C 282.085 0.803867 -1.86188 0
M  V30 2984 C 282.418 1.78549 -0.763794 0
M  V30 2985 O 281.693 1.93153 0.22855 0
M  V30 2986 C 281.976 1.53568 -3.25713 0
M  V30 2987 C 281.829 0.572277 -4.46145 0
M  V30 2988 C 283.148 2.48708 -3.63087 0
M  V30 2989 H 280.267 0.290781 -0.677211 0
M  V30 2990 H 282.909 0.0675783 -1.8988 0
M  V30 2991 H 281.059 2.16332 -3.22696 0
M  V30 2992 H 282.731 -0.0480894 -4.61275 0
M  V30 2993 H 280.974 -0.114618 -4.33649 0
M  V30 2994 H 281.645 1.12139 -5.40489 0
M  V30 2995 H 284.121 1.96039 -3.67026 0
M  V30 2996 H 282.997 2.96932 -4.61652 0
M  V30 2997 H 283.258 3.32309 -2.91588 0
M  V30 2998 N 282.317 1.53212 0.369288 0
M  V30 2999 C 283.564 1.69215 1.11232 0
M  V30 3000 C 283.892 0.442048 1.8941 0
M  V30 3001 O 283.147 -0.575944 1.87033 0
M  V30 3002 C 283.446 2.89101 2.10132 0
M  V30 3003 C 283.112 4.25758 1.48463 0
M  V30 3004 C 281.774 4.6292 1.31372 0
M  V30 3005 C 284.126 5.10757 1.03811 0
M  V30 3006 C 281.454 5.82722 0.68207 0
M  V30 3007 C 283.806 6.31201 0.420487 0
M  V30 3008 C 282.47 6.67079 0.237038 0
M  V30 3009 H 281.74 0.619201 0.407027 0
M  V30 3010 H 284.387 1.87391 0.394552 0
M  V30 3011 H 282.692 2.65421 2.88199 0
M  V30 3012 H 284.389 2.98676 2.6757 0
M  V30 3013 H 280.979 3.96494 1.62758 0
M  V30 3014 H 285.163 4.82599 1.1581 0
M  V30 3015 H 280.419 6.09113 0.528316 0
M  V30 3016 H 284.593 6.96368 0.0662874 0
M  V30 3017 H 282.22 7.59774 -0.254477 0
M  V30 3018 N 283.795 -0.628877 1.44509 0
M  V30 3019 C 284.758 -1.72263 1.51188 0
M  V30 3020 C 285.758 -1.55907 0.39367 0
M  V30 3021 O 286.948 -1.61361 0.656377 0
M  V30 3022 C 284.08 -3.11365 1.38798 0
M  V30 3023 H 285.273 -1.67714 2.4862 0
M  V30 3024 H 282.826 -0.842737 1.31634 0
M  V30 3025 H 283.561 -3.21507 0.424693 0
M  V30 3026 H 283.346 -3.24644 2.19884 0
M  V30 3027 H 284.836 -3.91075 1.46458 0
M  V30 3028 N 285.273 -1.31445 -0.869486 0
M  V30 3029 C 286.501 -1.24122 -1.65534 0
M  V30 3030 C 286.916 0.193387 -1.87807 0
M  V30 3031 O 286.273 1.12557 -1.43656 0
M  V30 3032 C 286.324 -1.98229 -3.02304 0
M  V30 3033 O 286.045 -3.3609 -2.81026 0
M  V30 3034 C 287.546 -1.97751 -3.96749 0
M  V30 3035 H 284.766 -0.428868 -0.516055 0
M  V30 3036 H 287.31 -1.73328 -1.08525 0
M  V30 3037 H 285.465 -1.52782 -3.56001 0
M  V30 3038 H 285.879 -3.7383 -3.67902 0
M  V30 3039 H 287.353 -2.54114 -4.90031 0
M  V30 3040 H 287.83 -0.960137 -4.28577 0
M  V30 3041 H 288.436 -2.43079 -3.48988 0
M  V30 3042 N 286.751 1.08385 -1.14413 0
M  V30 3043 C 287.976 1.85057 -0.936413 0
M  V30 3044 C 288.401 1.81055 0.509971 0
M  V30 3045 O 287.759 1.1958 1.36273 0
M  V30 3046 C 287.807 3.30505 -1.44217 0
M  V30 3047 O 286.911 4.07491 -0.634409 0
M  V30 3048 H 286.252 0.573425 -0.334784 0
M  V30 3049 H 288.782 1.36799 -1.52142 0
M  V30 3050 H 288.792 3.81348 -1.45043 0
M  V30 3051 H 287.467 3.32734 -2.49522 0
M  V30 3052 H 286.044 3.66368 -0.694902 0
M  V30 3053 N 288.23 0.939286 1.26551 0
M  V30 3054 C 289.193 0.451987 2.24699 0
M  V30 3055 C 290.193 -0.435869 1.5478 0
M  V30 3056 O 291.383 -0.235314 1.72603 0
M  V30 3057 C 288.515 -0.348801 3.39111 0
M  V30 3058 H 289.708 1.3193 2.69322 0
M  V30 3059 H 287.261 0.721072 1.38673 0
M  V30 3060 H 287.996 -1.23444 2.99887 0
M  V30 3061 H 287.781 0.287945 3.91041 0
M  V30 3062 H 289.271 -0.679726 4.12031 0
M  V30 3063 N 289.708 -1.40897 0.706093 0
M  V30 3064 C 290.638 -2.33418 0.0620085 0
M  V30 3065 C 291.619 -1.52385 -0.755827 0
M  V30 3066 O 292.804 -1.80886 -0.706674 0
M  V30 3067 C 289.934 -3.36293 -0.867445 0
M  V30 3068 C 288.888 -4.27716 -0.155932 0
M  V30 3069 C 288.214 -5.2105 -1.20046 0
M  V30 3070 C 289.514 -5.12944 0.984149 0
M  V30 3071 H 291.208 -2.87527 0.83477 0
M  V30 3072 H 288.754 -1.38249 0.402875 0
M  V30 3073 H 290.707 -3.99949 -1.32735 0
M  V30 3074 H 289.431 -2.80556 -1.67199 0
M  V30 3075 H 288.09 -3.65498 0.284047 0
M  V30 3076 H 287.738 -4.61624 -1.99781 0
M  V30 3077 H 287.438 -5.83056 -0.729328 0
M  V30 3078 H 288.962 -5.87584 -1.66066 0
M  V30 3079 H 290.376 -5.70109 0.604048 0
M  V30 3080 H 288.773 -5.83945 1.38304 0
M  V30 3081 H 289.843 -4.49485 1.81911 0
M  V30 3082 N 291.186 -0.45159 -1.50991 0
M  V30 3083 C 292.602 -0.104647 -1.59257 0
M  V30 3084 C 292.802 1.38728 -1.4614 0
M  V30 3085 O 291.858 2.15866 -1.30989 0
M  V30 3086 C 293.171 -0.637468 -2.93865 0
M  V30 3087 C 294.719 -0.599166 -3.07212 0
M  V30 3088 C 295.194 -1.1092 -4.44366 0
M  V30 3089 N 296.685 -1.06778 -4.50725 0
M  V30 3090 C 297.42 -1.43314 -5.55201 0
M  V30 3091 N 296.916 -1.87204 -6.67028 0
M  V30 3092 N 298.709 -1.3504 -5.45638 0
M  V30 3093 H 290.86 -1.42214 -1.57762 0
M  V30 3094 H 293.123 -0.586921 -0.744465 0
M  V30 3095 H 292.829 -1.68187 -3.08879 0
M  V30 3096 H 292.703 -0.0702139 -3.77135 0
M  V30 3097 H 295.09 0.436277 -2.91857 0
M  V30 3098 H 295.171 -1.20299 -2.25747 0
M  V30 3099 H 294.815 -2.14318 -4.60467 0
M  V30 3100 H 294.745 -0.481773 -5.24392 0
M  V30 3101 H 297.236 -0.745643 -3.70471 0
M  V30 3102 H 297.549 -2.13282 -7.42786 0
M  V30 3103 H 295.894 -1.91142 -6.68199 0
M  V30 3104 H 299.085 -1.00607 -4.57161 0
M  V30 3105 H 299.258 -1.63841 -6.26945 0
M  V30 3106 N 292.664 1.56529 -0.183458 0
M  V30 3107 C 293.889 2.02064 0.467428 0
M  V30 3108 C 294.314 1.06282 1.55196 0
M  V30 3109 O 293.672 0.0443565 1.81246 0
M  V30 3110 C 293.72 3.46122 1.01153 0
M  V30 3111 O 292.824 3.53437 2.12499 0
M  V30 3112 H 292.165 0.654726 0.110588 0
M  V30 3113 H 294.695 2.02521 -0.290917 0
M  V30 3114 H 294.705 3.85676 1.33108 0
M  V30 3115 H 293.38 4.15331 0.217533 0
M  V30 3116 H 291.957 3.2575 1.81497 0
M  V30 3117 N 294.142 -0.090211 1.57342 0
M  V30 3118 C 295.072 -1.10976 2.05443 0
M  V30 3119 C 296.053 -1.41482 0.944284 0
M  V30 3120 O 297.238 -1.51428 1.21586 0
M  V30 3121 C 294.368 -2.42831 2.48295 0
M  V30 3122 C 293.322 -2.26721 3.63018 0
M  V30 3123 C 292.648 -3.63796 3.91863 0
M  V30 3124 C 293.948 -1.7037 4.93732 0
M  V30 3125 H 295.642 -0.709564 2.9087 0
M  V30 3126 H 293.188 -0.339874 1.39932 0
M  V30 3127 H 295.141 -3.14431 2.80555 0
M  V30 3128 H 293.865 -2.84795 1.59873 0
M  V30 3129 H 292.524 -1.57565 3.31012 0
M  V30 3130 H 292.172 -4.03297 3.00601 0
M  V30 3131 H 291.872 -3.53861 4.69101 0
M  V30 3132 H 293.396 -4.36855 4.26603 0
M  V30 3133 H 294.81 -2.31816 5.24342 0
M  V30 3134 H 293.207 -1.71181 5.75167 0
M  V30 3135 H 294.277 -0.663542 4.80339 0
M  V30 3136 N 295.62 -1.53406 -0.361157 0
M  V30 3137 C 297.036 -1.43277 -0.703124 0
M  V30 3138 C 297.236 -0.575384 -1.9311 0
M  V30 3139 O 296.292 -0.0595362 -2.5243 0
M  V30 3140 C 297.605 -2.8653 -0.9122 0
M  V30 3141 C 299.153 -2.96191 -1.01193 0
M  V30 3142 C 299.628 -4.40514 -1.25345 0
M  V30 3143 N 301.119 -4.43962 -1.32105 0
M  V30 3144 C 301.854 -5.52746 -1.5251 0
M  V30 3145 N 301.35 -6.71567 -1.70203 0
M  V30 3146 N 303.143 -5.40331 -1.54916 0
M  V30 3147 H 295.294 -2.07654 0.446475 0
M  V30 3148 H 297.557 -0.937944 0.137715 0
M  V30 3149 H 297.263 -3.51605 -0.0816414 0
M  V30 3150 H 297.137 -3.30441 -1.81903 0
M  V30 3151 H 299.524 -2.31266 -1.83303 0
M  V30 3152 H 299.605 -2.55667 -0.0823929 0
M  V30 3153 H 299.249 -5.06014 -0.437346 0
M  V30 3154 H 299.179 -4.78614 -2.19627 0
M  V30 3155 H 301.67 -3.58332 -1.20028 0
M  V30 3156 H 301.983 -7.50241 -1.85359 0
M  V30 3157 H 300.328 -6.74545 -1.67373 0
M  V30 3158 H 303.519 -4.46465 -1.40663 0
M  V30 3159 H 303.692 -6.25173 -1.70477 0
M  V30 3160 N 297.098 0.621204 -1.44841 0
M  V30 3161 C 298.345 1.38055 -1.48145 0
M  V30 3162 C 298.673 1.94143 -0.117867 0
M  V30 3163 O 297.928 1.74713 0.881694 0
M  V30 3164 C 298.227 2.55675 -2.4973 0
M  V30 3165 C 297.893 2.17817 -3.94799 0
M  V30 3166 C 296.555 2.07205 -4.34303 0
M  V30 3167 C 298.907 1.88065 -4.86087 0
M  V30 3168 C 296.235 1.65045 -5.63007 0
M  V30 3169 C 298.587 1.47394 -6.15189 0
M  V30 3170 C 297.251 1.35331 -6.53637 0
M  V30 3171 H 296.521 0.505181 -0.542101 0
M  V30 3172 H 299.168 0.703477 -1.78111 0
M  V30 3173 H 297.473 3.2866 -2.13284 0
M  V30 3174 H 299.17 3.13904 -2.4953 0
M  V30 3175 H 295.76 2.26998 -3.63552 0
M  V30 3176 H 299.944 1.95168 -4.56315 0
M  V30 3177 H 295.2 1.54317 -5.91605 0
M  V30 3178 H 299.374 1.23415 -6.85377 0
M  V30 3179 H 297.001 1.02435 -7.53267 0
M  V30 3180 N 298.576 1.31904 0.862503 0
M  V30 3181 C 299.506 1.22782 1.98612 0
M  V30 3182 C 300.487 0.113362 1.69722 0
M  V30 3183 O 301.672 0.299218 1.91881 0
M  V30 3184 C 298.802 0.942058 3.34279 0
M  V30 3185 C 297.756 2.0169 3.77499 0
M  V30 3186 C 297.082 1.58369 5.10709 0
M  V30 3187 C 298.382 3.43096 3.93805 0
M  V30 3188 H 300.076 2.16788 2.06502 0
M  V30 3189 H 297.622 1.04366 0.992154 0
M  V30 3190 H 299.575 0.864818 4.1243 0
M  V30 3191 H 298.299 -0.0336603 3.26583 0
M  V30 3192 H 296.958 2.08416 3.01593 0
M  V30 3193 H 296.606 0.595628 4.99461 0
M  V30 3194 H 296.306 2.30279 5.40597 0
M  V30 3195 H 297.83 1.52067 5.91361 0
M  V30 3196 H 299.244 3.39003 4.62331 0
M  V30 3197 H 297.641 4.13288 4.35101 0
M  V30 3198 H 298.711 3.83334 2.96957 0
M  V30 3199 N 300.054 -1.07777 1.14986 0
M  V30 3200 C 300.986 -2.14769 0.800436 0
M  V30 3201 C 301.999 -1.61739 -0.185595 0
M  V30 3202 O 303.188 -1.78462 0.0370358 0
M  V30 3203 C 300.288 -3.38481 0.168533 0
M  V30 3204 C 299.461 -4.20876 1.1909 0
M  V30 3205 C 298.52 -5.22976 0.581575 0
M  V30 3206 O 297.546 -5.55388 1.24633 0
M  V30 3207 N 298.748 -5.76976 -0.638706 0
M  V30 3208 H 301.513 -2.45348 1.72118 0
M  V30 3209 H 299.074 -1.23645 1.04515 0
M  V30 3210 H 301.066 -4.03916 -0.251764 0
M  V30 3211 H 299.636 -3.05651 -0.655467 0
M  V30 3212 H 298.856 -3.51322 1.78791 0
M  V30 3213 H 300.144 -4.7274 1.88133 0
M  V30 3214 H 299.542 -5.52886 -1.19723 0
M  V30 3215 H 298.099 -6.44061 -1.00142 0
M  V30 3216 N 301.532 -0.945985 -1.26051 0
M  V30 3217 C 302.781 -0.591836 -1.92822 0
M  V30 3218 C 303.094 0.873956 -1.7499 0
M  V30 3219 O 304.3 1.33769 -2.36259 0
M  V30 3220 C 302.756 -1.00776 -3.45503 0
M  V30 3221 C 302.364 -2.4955 -3.7206 0
M  V30 3222 C 304.108 -0.725735 -4.1825 0
M  V30 3223 C 302.015 -2.84988 -5.18205 0
M  V30 3224 H 300.945 -0.217635 -0.721908 0
M  V30 3225 H 303.596 -1.14927 -1.43052 0
M  V30 3226 H 301.978 -0.378812 -3.94184 0
M  V30 3227 H 303.152 -3.1739 -3.34066 0
M  V30 3228 H 301.467 -2.75133 -3.12555 0
M  V30 3229 H 304.064 -0.966771 -5.25887 0
M  V30 3230 H 304.407 0.337639 -4.14929 0
M  V30 3231 H 304.94 -1.31463 -3.7545 0
M  V30 3232 H 301.679 -3.90307 -5.26631 0
M  V30 3233 H 301.199 -2.21813 -5.57278 0
M  V30 3234 H 302.878 -2.73712 -5.86252 0
M  V30 3235 N 303.011 1.40521 -0.713556 0
M  V30 3236 C 303.941 2.33381 -0.0743864 0
M  V30 3237 C 304.922 1.52784 0.747735 0
M  V30 3238 O 306.107 1.81258 0.697071 0
M  V30 3239 C 303.237 3.36748 0.849598 0
M  V30 3240 C 302.191 4.27793 0.133247 0
M  V30 3241 C 301.517 5.21679 1.17281 0
M  V30 3242 C 302.817 5.12415 -1.01134 0
M  V30 3243 H 304.511 2.87081 -0.850007 0
M  V30 3244 H 302.057 1.38034 -0.410201 0
M  V30 3245 H 304.01 4.00648 1.30612 0
M  V30 3246 H 302.734 2.81439 1.65709 0
M  V30 3247 H 301.393 3.65342 -0.303426 0
M  V30 3248 H 301.041 4.62677 1.9733 0
M  V30 3249 H 300.741 5.83435 0.698397 0
M  V30 3250 H 302.265 5.88456 1.62947 0
M  V30 3251 H 303.679 5.69781 -0.634274 0
M  V30 3252 H 302.076 5.83203 -1.41399 0
M  V30 3253 H 303.146 4.48514 -1.84292 0
M  V30 3254 N 304.489 0.459591 1.5075 0
M  V30 3255 C 305.905 0.113092 1.59199 0
M  V30 3256 C 306.105 -1.37951 1.46874 0
M  V30 3257 O 305.161 -2.15168 1.32132 0
M  V30 3258 C 306.474 0.653043 2.93523 0
M  V30 3259 C 308.022 0.615449 3.0689 0
M  V30 3260 C 308.497 1.13275 4.43771 0
M  V30 3261 N 309.988 1.09167 4.50152 0
M  V30 3262 C 310.723 1.46256 5.54434 0
M  V30 3263 N 310.219 1.90739 6.66026 0
M  V30 3264 N 312.012 1.37932 5.44914 0
M  V30 3265 H 304.163 1.43049 1.57005 0
M  V30 3266 H 306.426 0.590861 0.741341 0
M  V30 3267 H 306.132 1.69822 3.07983 0
M  V30 3268 H 306.006 0.0902132 3.77092 0
M  V30 3269 H 308.393 -0.420793 2.92084 0
M  V30 3270 H 308.474 1.21495 2.25106 0
M  V30 3271 H 308.118 2.16757 4.59324 0
M  V30 3272 H 308.048 0.509576 5.24129 0
M  V30 3273 H 310.539 0.76528 3.7007 0
M  V30 3274 H 310.852 2.17218 7.41644 0
M  V30 3275 H 309.197 1.94683 6.67176 0
M  V30 3276 H 312.388 1.0303 4.56621 0
M  V30 3277 H 312.561 1.67164 6.26067 0
M  V30 3278 N 305.967 -1.56429 0.191757 0
M  V30 3279 C 306.9 -2.14829 -0.76967 0
M  V30 3280 C 307.878 -1.08405 -1.2119 0
M  V30 3281 O 309.062 -1.36498 -1.30002 0
M  V30 3282 C 306.189 -2.70446 -2.03903 0
M  V30 3283 C 305.235 -3.89428 -1.7392 0
M  V30 3284 S 306.068 -5.28048 -0.890265 0
M  V30 3285 C 307.224 -5.87085 -2.16984 0
M  V30 3286 H 307.457 -2.96042 -0.273204 0
M  V30 3287 H 304.99 -1.54383 -0.0231975 0
M  V30 3288 H 306.948 -3.03134 -2.76803 0
M  V30 3289 H 305.609 -1.89281 -2.50662 0
M  V30 3290 H 304.802 -4.26742 -2.68155 0
M  V30 3291 H 304.404 -3.57732 -1.09103 0
M  V30 3292 H 306.696 -6.01244 -3.12269 0
M  V30 3293 H 307.639 -6.83747 -1.84108 0
M  V30 3294 H 308.047 -5.15663 -2.29678 0
M  V30 3295 N 307.445 0.0818655 -1.57387 0
M  V30 3296 C 308.694 0.781681 -1.85937 0
M  V30 3297 C 309.007 1.79246 -0.782957 0
M  V30 3298 O 310.213 2.54112 -0.955987 0
M  V30 3299 C 308.669 1.44109 -3.29789 0
M  V30 3300 C 308.277 0.469396 -4.45534 0
M  V30 3301 C 310.021 2.12386 -3.67549 0
M  V30 3302 C 307.928 1.13415 -5.80423 0
M  V30 3303 H 306.858 0.295682 -0.693605 0
M  V30 3304 H 309.509 0.0348051 -1.83467 0
M  V30 3305 H 307.891 2.23588 -3.2684 0
M  V30 3306 H 309.065 -0.294856 -4.59856 0
M  V30 3307 H 307.38 -0.108383 -4.16259 0
M  V30 3308 H 309.977 2.62878 -4.65617 0
M  V30 3309 H 310.32 2.91877 -2.96839 0
M  V30 3310 H 310.853 1.39751 -3.72444 0
M  V30 3311 H 307.592 0.379771 -6.54399 0
M  V30 3312 H 307.112 1.8695 -5.69921 0
M  V30 3313 H 308.791 1.65686 -6.25426 0
M  V30 3314 N 308.923 1.53595 0.353017 0
M  V30 3315 C 310.339 1.43648 0.695516 0
M  V30 3316 C 310.539 0.585617 1.92802 0
M  V30 3317 O 309.595 0.0729223 2.52395 0
M  V30 3318 C 310.908 2.8701 0.896991 0
M  V30 3319 C 312.456 2.96723 0.996209 0
M  V30 3320 C 312.931 4.41173 1.23007 0
M  V30 3321 N 314.422 4.44657 1.29749 0
M  V30 3322 C 315.157 5.53547 1.49577 0
M  V30 3323 N 314.653 6.72461 1.66639 0
M  V30 3324 N 316.446 5.41145 1.52048 0
M  V30 3325 H 308.597 2.07415 -0.457481 0
M  V30 3326 H 310.86 0.9372 -0.142687 0
M  V30 3327 H 310.566 3.51644 0.0629938 0
M  V30 3328 H 310.44 3.31401 1.80148 0
M  V30 3329 H 312.827 2.32235 1.82074 0
M  V30 3330 H 312.908 2.55707 0.0688331 0
M  V30 3331 H 312.552 5.06238 0.410505 0
M  V30 3332 H 312.482 4.79772 2.17086 0
M  V30 3333 H 314.973 3.58963 1.18126 0
M  V30 3334 H 315.286 7.51214 1.81378 0
M  V30 3335 H 313.631 6.75423 1.63794 0
M  V30 3336 H 316.822 4.47205 1.38294 0
M  V30 3337 H 316.995 6.26068 1.67159 0
M  V30 3338 N 310.401 -0.613514 1.45168 0
M  V30 3339 C 311.334 -1.73809 1.47871 0
M  V30 3340 C 312.312 -1.59097 0.33568 0
M  V30 3341 O 313.496 -1.8074 0.535299 0
M  V30 3342 C 310.623 -3.11574 1.32813 0
M  V30 3343 C 309.669 -3.4489 2.50905 0
M  V30 3344 S 310.502 -3.40393 4.13392 0
M  V30 3345 C 311.658 -4.80749 4.00789 0
M  V30 3346 H 311.891 -1.71252 2.43023 0
M  V30 3347 H 309.424 -0.789658 1.32679 0
M  V30 3348 H 311.382 -3.91065 1.24812 0
M  V30 3349 H 310.043 -3.11652 0.391418 0
M  V30 3350 H 309.236 -4.45183 2.36279 0
M  V30 3351 H 308.838 -2.72901 2.55736 0
M  V30 3352 H 311.13 -5.7041 3.65567 0
M  V30 3353 H 312.073 -5.00431 5.00974 0
M  V30 3354 H 312.481 -4.56151 3.32545 0
M  V30 3355 N 311.879 -1.3236 -0.855495 0
M  V30 3356 C 313.156 -1.13491 -1.59309 0
M  V30 3357 C 313.536 0.30503 -2.08885 0
M  V30 3358 O 312.884 1.30151 -1.87811 0
M  V30 3359 C 313.094 -2.16176 -2.73987 0
M  V30 3360 C 314.442 -2.49463 -3.43589 0
M  V30 3361 O 315.466 -2.14715 -2.84211 0
M  V30 3362 O 314.325 -3.09027 -4.50738 0
M  V30 3363 H 311.419 -0.437887 -0.701559 0
M  V30 3364 H 313.965 -1.43887 -0.899696 0
M  V30 3365 H 312.737 -3.1297 -2.34873 0
M  V30 3366 H 312.36 -1.86769 -3.51003 0
M  V30 3367 N 313.357 1.07166 -1.15556 0
M  V30 3368 C 314.773 1.31899 -0.898603 0
M  V30 3369 C 314.973 1.96333 0.453383 0
M  V30 3370 O 314.029 2.22438 1.19489 0
M  V30 3371 C 315.342 2.20826 -2.04099 0
M  V30 3372 C 316.89 2.34269 -2.07574 0
M  V30 3373 C 317.365 3.26546 -3.21141 0
M  V30 3374 N 318.856 3.34127 -3.20801 0
M  V30 3375 C 319.591 4.05595 -4.05315 0
M  V30 3376 N 319.087 4.79661 -4.99897 0
M  V30 3377 N 320.88 4.01555 -3.93332 0
M  V30 3378 H 313.031 0.637302 -2.02613 0
M  V30 3379 H 315.294 0.343468 -0.883591 0
M  V30 3380 H 315 1.80744 -3.01703 0
M  V30 3381 H 314.874 3.21364 -1.97496 0
M  V30 3382 H 317.261 2.73603 -1.10568 0
M  V30 3383 H 317.342 1.33429 -2.18244 0
M  V30 3384 H 316.986 2.87931 -4.184 0
M  V30 3385 H 316.916 4.27345 -3.07708 0
M  V30 3386 H 319.407 2.81336 -2.52306 0
M  V30 3387 H 319.72 5.31694 -5.60822 0
M  V30 3388 H 318.065 4.78671 -5.03884 0
M  V30 3389 H 321.256 3.42806 -3.18751 0
M  V30 3390 H 321.429 4.56987 -4.5942 0
M  V30 3391 N 314.835 0.952656 1.25548 0
M  V30 3392 C 316.251 0.656769 1.4546 0
M  V30 3393 C 316.451 -0.78633 1.85524 0
M  V30 3394 O 315.507 -1.56183 1.98402 0
M  V30 3395 C 316.82 1.62801 2.52817 0
M  V30 3396 C 318.368 1.63897 2.66659 0
M  V30 3397 C 318.843 2.5978 3.77198 0
M  V30 3398 N 320.334 2.58133 3.84606 0
M  V30 3399 C 321.069 3.29003 4.69621 0
M  V30 3400 N 320.565 4.09339 5.58939 0
M  V30 3401 N 322.358 3.179 4.63569 0
M  V30 3402 H 314.509 1.88526 0.978344 0
M  V30 3403 H 316.772 0.810815 0.491206 0
M  V30 3404 H 316.478 2.65869 2.30232 0
M  V30 3405 H 316.352 1.38898 3.50695 0
M  V30 3406 H 318.739 0.615481 2.8861 0
M  V30 3407 H 318.82 1.91858 1.69187 0
M  V30 3408 H 318.464 3.62254 3.55997 0
M  V30 3409 H 318.394 2.29105 4.7415 0
M  V30 3410 H 320.885 1.99809 3.20757 0
M  V30 3411 H 321.198 4.6034 6.20731 0
M  V30 3412 H 319.543 4.13438 5.58654 0
M  V30 3413 H 322.734 2.54612 3.92798 0
M  V30 3414 H 322.907 3.73398 5.29602 0
M  V30 3415 N 316.313 -1.40141 0.720998 0
M  V30 3416 C 317.561 -2.0039 0.262323 0
M  V30 3417 C 317.882 -1.57469 -1.15015 0
M  V30 3418 O 317.152 -0.816582 -1.78069 0
M  V30 3419 H 315.732 -0.741063 0.093996 0
M  V30 3420 H 318.394 -1.71398 0.927835 0
M  V30 3421 H 317.49 -3.10658 0.299671 0
M  V30 3422 N 317.792 -0.46758 -1.50504 0
M  V30 3423 C 319.04 0.0884469 -2.01906 0
M  V30 3424 C 319.361 1.40532 -1.35188 0
M  V30 3425 O 318.631 1.89515 -0.496079 0
M  V30 3426 H 317.211 0.0356765 -0.746148 0
M  V30 3427 H 319.873 -0.6172 -1.84869 0
M  V30 3428 H 318.969 0.2425 -3.11156 0
M  V30 3429 N 319.27 1.56325 -0.20005 0
M  V30 3430 C 320.498 2.02105 0.442874 0
M  V30 3431 C 320.913 1.08014 1.5485 0
M  V30 3432 O 320.27 0.0858797 1.82298 0
M  V30 3433 C 320.321 3.47549 0.994583 0
M  V30 3434 O 320.042 4.38049 -0.0669322 0
M  V30 3435 C 321.543 4.0887 1.7129 0
M  V30 3436 H 318.763 0.661807 0.110691 0
M  V30 3437 H 321.307 2.02134 -0.310207 0
M  V30 3438 H 319.462 3.48204 1.69803 0
M  V30 3439 H 319.876 5.23368 0.344462 0
M  V30 3440 H 321.35 5.12475 2.05118 0
M  V30 3441 H 321.827 3.52615 2.61838 0
M  V30 3442 H 322.433 4.12002 1.05518 0
M  V30 3443 N 320.748 -0.0735177 1.57428 0
M  V30 3444 C 321.994 -0.768909 1.88307 0
M  V30 3445 C 322.349 -1.75273 0.793535 0
M  V30 3446 O 321.642 -1.90527 -0.202466 0
M  V30 3447 C 321.836 -1.51799 3.23561 0
M  V30 3448 C 321.665 -0.608217 4.45568 0
M  V30 3449 C 320.435 -0.245808 5.04702 0
M  V30 3450 C 322.633 0.0942904 5.14214 0
M  V30 3451 N 320.615 0.66987 6.10234 0
M  V30 3452 C 321.986 0.867222 6.13905 0
M  V30 3453 C 324.041 0.165943 4.97623 0
M  V30 3454 C 322.744 1.70515 6.98797 0
M  V30 3455 C 324.77 0.990837 5.83041 0
M  V30 3456 C 324.132 1.75182 6.82269 0
M  V30 3457 H 320.231 -0.25685 0.738615 0
M  V30 3458 H 322.815 -0.030499 1.94676 0
M  V30 3459 H 320.986 -2.22713 3.18203 0
M  V30 3460 H 322.718 -2.16226 3.42094 0
M  V30 3461 H 319.473 -0.598284 4.69806 0
M  V30 3462 H 319.897 1.1209 6.67656 0
M  V30 3463 H 324.539 -0.408064 4.20826 0
M  V30 3464 H 322.257 2.29013 7.7497 0
M  V30 3465 H 325.843 1.04923 5.72261 0
M  V30 3466 H 324.723 2.37983 7.47217 0
M  V30 3467 N 322.226 -1.5378 -0.344866 0
M  V30 3468 C 323.173 -1.81676 -1.42346 0
M  V30 3469 C 324.143 -0.662376 -1.52321 0
M  V30 3470 O 325.328 -0.906675 -1.67881 0
M  V30 3471 C 322.468 -2.03087 -2.79015 0
M  V30 3472 C 321.581 -3.30799 -2.77842 0
M  V30 3473 C 320.716 -3.42285 -4.0622 0
M  V30 3474 C 319.755 -4.6395 -3.9927 0
M  V30 3475 N 318.892 -4.72477 -5.19336 0
M  V30 3476 H 323.732 -2.73703 -1.17858 0
M  V30 3477 H 321.269 -1.35568 -0.570949 0
M  V30 3478 H 323.227 -2.1349 -3.58438 0
M  V30 3479 H 321.857 -1.14375 -3.01858 0
M  V30 3480 H 320.909 -3.29244 -1.90533 0
M  V30 3481 H 322.221 -4.20314 -2.68584 0
M  V30 3482 H 321.375 -3.52113 -4.94066 0
M  V30 3483 H 320.114 -2.50823 -4.18258 0
M  V30 3484 H 319.119 -4.54201 -3.09809 0
M  V30 3485 H 320.344 -5.56775 -3.88817 0
M  V30 3486 H 318.29 -3.83924 -5.3192 0
M  V30 3487 H 318.207 -5.55927 -5.12329 0
M  V30 3488 H 319.475 -4.86613 -6.08957 0
M  V30 3489 N 323.704 0.605807 -1.45491 0
M  V30 3490 C 324.634 1.72709 -1.57143 0
M  V30 3491 C 325.615 1.6476 -0.422884 0
M  V30 3492 O 326.8 1.83132 -0.646247 0
M  V30 3493 C 323.93 3.11316 -1.53948 0
M  V30 3494 C 322.884 3.34077 -2.67537 0
M  V30 3495 C 322.21 4.72975 -2.49397 0
M  V30 3496 C 323.51 3.24158 -4.09535 0
M  V30 3497 H 325.204 1.63214 -2.51001 0
M  V30 3498 H 322.75 0.78379 -1.208 0
M  V30 3499 H 324.703 3.89557 -1.60696 0
M  V30 3500 H 323.427 3.21655 -0.566205 0
M  V30 3501 H 322.086 2.58227 -2.6022 0
M  V30 3502 H 321.734 4.8005 -1.50205 0
M  V30 3503 H 321.434 4.8916 -3.25571 0
M  V30 3504 H 322.958 5.53414 -2.58002 0
M  V30 3505 H 324.372 3.92271 -4.18086 0
M  V30 3506 H 322.769 3.51872 -4.86113 0
M  V30 3507 H 323.839 2.2157 -4.31317 0
M  V30 3508 N 325.182 1.32811 0.848464 0
M  V30 3509 C 326.112 1.24882 1.97299 0
M  V30 3510 C 327.093 0.131357 1.69592 0
M  V30 3511 O 328.278 0.319553 1.91553 0
M  V30 3512 C 325.408 0.97746 3.33261 0
M  V30 3513 C 324.362 2.05682 3.75338 0
M  V30 3514 C 323.688 1.63777 5.09 0
M  V30 3515 C 324.988 3.47254 3.90144 0
M  V30 3516 H 326.682 2.18966 2.04191 0
M  V30 3517 H 324.228 1.05413 0.981029 0
M  V30 3518 H 326.181 0.908513 4.1149 0
M  V30 3519 H 324.905 0.000980011 3.266 0
M  V30 3520 H 323.564 2.11603 2.99366 0
M  V30 3521 H 323.212 0.648569 4.98801 0
M  V30 3522 H 322.912 2.36 5.38124 0
M  V30 3523 H 324.436 1.5833 5.89715 0
M  V30 3524 H 325.85 3.43888 4.58709 0
M  V30 3525 H 324.247 4.1788 4.30693 0
M  V30 3526 H 325.317 3.86462 2.92874 0
M  V30 3527 N 326.66 -1.06551 1.16123 0
M  V30 3528 C 327.908 -1.78947 0.939267 0
M  V30 3529 C 328.229 -1.87532 -0.534476 0
M  V30 3530 O 327.499 -1.38211 -1.38833 0
M  V30 3531 H 326.079 -0.662807 0.344523 0
M  V30 3532 H 328.741 -1.28725 1.46342 0
M  V30 3533 H 327.837 -2.81117 1.35572 0
M  V30 3534 N 328.138 -0.959301 -1.25041 0
M  V30 3535 C 329.363 -0.633507 -1.97488 0
M  V30 3536 C 329.788 0.788555 -1.70773 0
M  V30 3537 O 329.146 1.53394 -0.966431 0
M  V30 3538 C 329.194 -0.904057 -3.49083 0
M  V30 3539 O 328.298 0.0147939 -4.12397 0
M  V30 3540 H 327.639 -0.240368 -0.618966 0
M  V30 3541 H 330.169 -1.28717 -1.59038 0
M  V30 3542 H 330.179 -0.832203 -3.99423 0
M  V30 3543 H 328.854 -1.94048 -3.67856 0
M  V30 3544 H 327.431 -0.109664 -3.72739 0
M  V30 3545 N 329.616 1.39756 -0.72842 0
M  V30 3546 C 330.862 2.00942 -0.273892 0
M  V30 3547 C 331.195 1.57656 1.13394 0
M  V30 3548 O 330.47 0.802434 1.77176 0
M  V30 3549 C 330.753 3.58211 -0.368346 0
M  V30 3550 C 330.606 4.11534 -1.81548 0
M  V30 3551 C 331.925 4.39372 0.253054 0
M  V30 3552 H 329.044 0.730047 -0.100996 0
M  V30 3553 H 331.686 1.66056 -0.923337 0
M  V30 3554 H 329.836 3.88061 0.184588 0
M  V30 3555 H 331.508 3.92431 -2.42478 0
M  V30 3556 H 329.751 3.65341 -2.33898 0
M  V30 3557 H 330.422 5.20682 -1.83288 0
M  V30 3558 H 332.898 4.15527 -0.218224 0
M  V30 3559 H 331.774 5.48677 0.156585 0
M  V30 3560 H 332.035 4.21358 1.33826 0
M  V30 3561 N 331.094 0.475555 1.50254 0
M  V30 3562 C 332.34 -0.0780073 2.0265 0
M  V30 3563 C 332.673 -1.38968 1.35652 0
M  V30 3564 O 331.948 -1.8839 0.483691 0
M  V30 3565 C 332.231 -0.257161 3.59181 0
M  V30 3566 C 332.084 1.07585 4.36744 0
M  V30 3567 C 333.403 -1.00965 4.28362 0
M  V30 3568 H 330.522 -0.0268758 0.73651 0
M  V30 3569 H 333.164 0.622015 1.7953 0
M  V30 3570 H 331.314 -0.853412 3.79011 0
M  V30 3571 H 332.986 1.70902 4.28474 0
M  V30 3572 H 331.229 1.6714 4.00308 0
M  V30 3573 H 331.9 0.904088 5.44546 0
M  V30 3574 H 334.376 -0.504214 4.13034 0
M  V30 3575 H 333.252 -1.10381 5.37687 0
M  V30 3576 H 333.513 -2.04731 3.91839 0
M  V30 3577 N 332.573 -1.56217 0.208337 0
M  V30 3578 C 333.803 -2.02043 -0.431523 0
M  V30 3579 C 334.211 -1.08755 -1.54819 0
M  V30 3580 O 333.554 -0.0870009 -1.83494 0
M  V30 3581 C 333.616 -3.44239 -1.03633 0
M  V30 3582 C 333.28 -4.56965 -0.0567502 0
M  V30 3583 C 334.277 -5.14624 0.738773 0
M  V30 3584 C 331.962 -5.02266 0.0581736 0
M  V30 3585 C 333.956 -6.16045 1.63605 0
M  V30 3586 C 331.643 -6.03528 0.959001 0
M  V30 3587 C 332.641 -6.60293 1.7465 0
M  V30 3588 O 332.329 -7.59586 2.6322 0
M  V30 3589 H 332.061 -0.666772 -0.111313 0
M  V30 3590 H 334.615 -2.02919 0.318277 0
M  V30 3591 H 332.845 -3.40391 -1.83497 0
M  V30 3592 H 334.534 -3.73793 -1.58221 0
M  V30 3593 H 335.3 -4.80483 0.660364 0
M  V30 3594 H 331.179 -4.57771 -0.544633 0
M  V30 3595 H 334.723 -6.60279 2.25116 0
M  V30 3596 H 330.62 -6.37092 1.03848 0
M  V30 3597 H 331.388 -7.77057 2.57148 0
M  V30 3598 N 334.051 0.0651679 -1.57465 0
M  V30 3599 C 335.014 1.06117 -2.03155 0
M  V30 3600 C 336.014 1.31204 -0.929632 0
M  V30 3601 O 337.204 1.26813 -1.19432 0
M  V30 3602 C 334.336 2.4032 -2.41783 0
M  V30 3603 H 335.529 0.667231 -2.92383 0
M  V30 3604 H 333.082 0.311075 -1.53173 0
M  V30 3605 H 333.817 2.84532 -1.55601 0
M  V30 3606 H 333.602 2.23451 -3.22199 0
M  V30 3607 H 335.092 3.11898 -2.77685 0
M  V30 3608 N 335.529 1.53961 0.336706 0
M  V30 3609 C 336.479 1.7881 1.41461 0
M  V30 3610 C 337.463 0.643561 1.47469 0
M  V30 3611 O 338.655 0.903166 1.52223 0
M  V30 3612 C 335.784 2.00722 2.78506 0
M  V30 3613 C 334.87 3.2126 2.76862 0
M  V30 3614 N 335.261 4.42588 2.44845 0
M  V30 3615 C 333.559 3.22568 3.08004 0
M  V30 3616 C 334.26 5.2447 2.51607 0
M  V30 3617 N 333.236 4.61344 2.87511 0
M  V30 3618 H 337.038 2.70205 1.15615 0
M  V30 3619 H 334.552 1.52978 0.545112 0
M  V30 3620 H 336.549 2.1666 3.5618 0
M  V30 3621 H 335.209 1.10573 3.05293 0
M  V30 3622 H 336.22 4.69819 2.17922 0
M  V30 3623 H 332.897 2.42409 3.39918 0
M  V30 3624 H 334.287 6.31324 2.29955 0
M  V30 3625 N 337.007 -0.598083 1.45811 0
M  V30 3626 C 338.232 -1.3881 1.54099 0
M  V30 3627 C 338.657 -1.8726 0.177578 0
M  V30 3628 O 338.015 -1.6069 -0.839541 0
M  V30 3629 C 338.063 -2.56217 2.53743 0
M  V30 3630 O 337.167 -3.5716 2.06182 0
M  V30 3631 H 336.508 -0.414024 0.519115 0
M  V30 3632 H 339.038 -0.726971 1.91249 0
M  V30 3633 H 339.048 -3.03337 2.72856 0
M  V30 3634 H 337.723 -2.20303 3.5276 0
M  V30 3635 H 336.3 -3.16624 1.96987 0
M  V30 3636 N 338.485 -1.33259 -0.841409 0
M  V30 3637 C 339.432 -1.23302 -1.95103 0
M  V30 3638 C 340.402 -0.112204 -1.65721 0
M  V30 3639 O 341.587 -0.290038 -1.88583 0
M  V30 3640 C 338.727 -0.975583 -3.31023 0
M  V30 3641 C 337.84 -2.18243 -3.72819 0
M  V30 3642 C 336.975 -1.85936 -4.97595 0
M  V30 3643 C 336.014 -3.02866 -5.3192 0
M  V30 3644 N 335.151 -2.70565 -6.47873 0
M  V30 3645 H 339.991 -2.18207 -2.02952 0
M  V30 3646 H 337.528 -1.0851 -0.993173 0
M  V30 3647 H 339.486 -0.80677 -4.09325 0
M  V30 3648 H 338.116 -0.0632755 -3.22738 0
M  V30 3649 H 337.168 -2.46107 -2.90061 0
M  V30 3650 H 338.48 -3.05666 -3.94169 0
M  V30 3651 H 337.634 -1.65684 -5.83638 0
M  V30 3652 H 336.373 -0.957452 -4.78209 0
M  V30 3653 H 335.378 -3.23736 -4.44382 0
M  V30 3654 H 336.603 -3.93809 -5.53255 0
M  V30 3655 H 334.549 -1.8293 -6.29978 0
M  V30 3656 H 334.466 -3.51519 -6.69306 0
M  V30 3657 H 335.734 -2.53774 -7.37034 0
M  V30 3658 N 339.963 1.05934 -1.16686 0
M  V30 3659 C 340.873 2.17014 -0.891183 0
M  V30 3660 C 341.889 1.73453 0.137907 0
M  V30 3661 O 343.065 2.01361 -0.039592 0
M  V30 3662 C 340.13 3.44384 -0.400099 0
M  V30 3663 C 339.191 4.02433 -1.49486 0
M  V30 3664 C 338.424 5.23723 -1.02711 0
M  V30 3665 O 338.647 5.7027 0.121716 0
M  V30 3666 O 337.581 5.7382 -1.81699 0
M  V30 3667 H 341.407 2.43113 -1.82015 0
M  V30 3668 H 338.992 1.15541 -0.947132 0
M  V30 3669 H 340.874 4.21189 -0.133392 0
M  V30 3670 H 339.549 3.19802 0.500817 0
M  V30 3671 H 338.456 3.27102 -1.81535 0
M  V30 3672 H 339.789 4.31317 -2.37121 0
M  V30 3673 N 341.441 0.965919 1.2453 0
M  V30 3674 C 342.371 0.513476 2.27784 0
M  V30 3675 C 343.352 -0.445974 1.6415 0
M  V30 3676 O 344.537 -0.342485 1.91156 0
M  V30 3677 C 341.667 -0.198839 3.4673 0
M  V30 3678 C 340.621 0.676456 4.2262 0
M  V30 3679 C 339.947 -0.167248 5.34438 0
M  V30 3680 C 341.247 1.96017 4.84123 0
M  V30 3681 H 342.941 1.3765 2.65881 0
M  V30 3682 H 340.487 0.663321 1.27813 0
M  V30 3683 H 342.44 -0.526567 4.18097 0
M  V30 3684 H 341.164 -1.0962 3.07654 0
M  V30 3685 H 339.823 0.98743 3.53052 0
M  V30 3686 H 339.471 -1.0647 4.91603 0
M  V30 3687 H 339.171 0.415181 5.86131 0
M  V30 3688 H 340.695 -0.489688 6.08633 0
M  V30 3689 H 342.109 1.69814 5.47573 0
M  V30 3690 H 340.506 2.48918 5.4604 0
M  V30 3691 H 341.576 2.65622 4.05676 0
M  V30 3692 N 342.919 -1.39368 0.735821 0
M  V30 3693 C 344.165 -2.00794 0.284544 0
M  V30 3694 C 344.498 -1.58255 -1.12557 0
M  V30 3695 O 343.773 -0.811819 -1.76748 0
M  V30 3696 C 344.056 -3.58011 0.387337 0
M  V30 3697 C 343.909 -4.10566 1.83728 0
M  V30 3698 C 345.228 -4.395 -0.22975 0
M  V30 3699 H 342.347 -0.729501 0.104866 0
M  V30 3700 H 344.989 -1.65564 0.93213 0
M  V30 3701 H 343.139 -3.88154 -0.164006 0
M  V30 3702 H 344.811 -3.91139 2.44556 0
M  V30 3703 H 343.054 -3.64095 2.35833 0
M  V30 3704 H 343.725 -5.19702 1.86047 0
M  V30 3705 H 346.201 -4.15406 0.240257 0
M  V30 3706 H 345.077 -5.48752 -0.127485 0
M  V30 3707 H 345.338 -4.22062 -1.3159 0
M  V30 3708 N 344.397 -0.483516 -1.5 0
M  V30 3709 C 345.625 0.0644831 -2.06799 0
M  V30 3710 C 346.04 1.32399 -1.34596 0
M  V30 3711 O 345.397 1.77626 -0.418946 0
M  V30 3712 C 345.448 0.339927 -3.59898 0
M  V30 3713 O 345.169 -0.869635 -4.29382 0
M  V30 3714 C 346.67 0.933515 -4.33359 0
M  V30 3715 H 343.89 -0.0126333 -0.670881 0
M  V30 3716 H 346.434 -0.675864 -1.93009 0
M  V30 3717 H 344.589 1.03022 -3.7345 0
M  V30 3718 H 345.003 -0.62179 -5.20801 0
M  V30 3719 H 346.477 1.07593 -5.41413 0
M  V30 3720 H 346.954 1.92685 -3.94676 0
M  V30 3721 H 347.56 0.281221 -4.24369 0
M  V30 3722 N 345.875 1.56104 -0.216619 0
M  V30 3723 C 346.838 2.18819 0.681962 0
M  V30 3724 C 347.838 1.14866 1.12528 0
M  V30 3725 O 349.028 1.40128 1.03488 0
M  V30 3726 C 346.16 2.80756 1.93362 0
M  V30 3727 H 347.353 2.99595 0.135254 0
M  V30 3728 H 344.906 1.56265 0.0330003 0
M  V30 3729 H 345.641 2.03837 2.52232 0
M  V30 3730 H 345.426 3.56876 1.62426 0
M  V30 3731 H 346.916 3.28844 2.57393 0
M  V30 3732 N 347.353 -0.0568162 1.57498 0
M  V30 3733 C 348.599 -0.748893 1.89111 0
M  V30 3734 C 348.954 -1.74422 0.81208 0
M  V30 3735 O 348.247 -1.90731 -0.182247 0
M  V30 3736 C 348.441 -1.48359 3.25153 0
M  V30 3737 C 348.27 -0.560924 4.46188 0
M  V30 3738 C 347.04 -0.192264 5.04934 0
M  V30 3739 C 349.238 0.148824 5.14085 0
M  V30 3740 N 347.22 0.734555 6.0949 0
M  V30 3741 C 348.591 0.932286 6.12951 0
M  V30 3742 C 350.646 0.218713 4.97419 0
M  V30 3743 C 349.349 1.77917 6.96949 0
M  V30 3744 C 351.375 1.05262 5.81957 0
M  V30 3745 C 350.737 1.82409 6.80372 0
M  V30 3746 H 346.836 -0.249002 0.741298 0
M  V30 3747 H 349.42 -0.00984926 1.94698 0
M  V30 3748 H 347.591 -2.19326 3.20547 0
M  V30 3749 H 349.323 -2.12586 3.44368 0
M  V30 3750 H 346.078 -0.548421 4.70414 0
M  V30 3751 H 346.502 1.19165 6.6643 0
M  V30 3752 H 351.144 -0.363407 4.21235 0
M  V30 3753 H 348.862 2.3722 7.72497 0
M  V30 3754 H 352.448 1.10987 5.71116 0
M  V30 3755 H 351.328 2.45895 7.44651 0
M  V30 3756 N 348.832 -1.54138 -0.328536 0
M  V30 3757 C 350.062 -1.75807 -1.08516 0
M  V30 3758 C 350.47 -0.50428 -1.82356 0
M  V30 3759 O 349.813 0.534451 -1.75754 0
M  V30 3760 C 349.875 -2.89423 -2.13248 0
M  V30 3761 C 349.539 -4.28504 -1.5885 0
M  V30 3762 C 350.536 -5.09536 -1.03289 0
M  V30 3763 C 348.221 -4.75034 -1.63243 0
M  V30 3764 C 350.215 -6.35206 -0.52845 0
M  V30 3765 C 347.902 -6.00672 -1.12411 0
M  V30 3766 C 348.9 -6.80592 -0.573062 0
M  V30 3767 O 348.588 -8.03867 -0.0723692 0
M  V30 3768 H 348.32 -0.590633 -0.328829 0
M  V30 3769 H 350.874 -2.01819 -0.381868 0
M  V30 3770 H 349.104 -2.5897 -2.87178 0
M  V30 3771 H 350.793 -2.98921 -2.74592 0
M  V30 3772 H 351.559 -4.74745 -0.99206 0
M  V30 3773 H 347.438 -4.12875 -2.05074 0
M  V30 3774 H 350.982 -6.97532 -0.0976774 0
M  V30 3775 H 346.879 -6.34955 -1.162 0
M  V30 3776 H 347.647 -8.18283 -0.188258 0
M  V30 3777 N 350.31 0.590341 -1.46126 0
M  V30 3778 C 351.559 1.34499 -1.50309 0
M  V30 3779 C 351.872 1.94977 -0.156021 0
M  V30 3780 O 353.078 2.71395 -0.0756037 0
M  V30 3781 C 351.534 2.43723 -2.64815 0
M  V30 3782 C 351.142 1.89582 -4.0591 0
M  V30 3783 C 352.886 3.20579 -2.78262 0
M  V30 3784 C 350.793 2.9639 -5.11769 0
M  V30 3785 H 349.723 0.505593 -0.559368 0
M  V30 3786 H 352.374 0.630848 -1.72315 0
M  V30 3787 H 350.756 3.17902 -2.36124 0
M  V30 3788 H 351.93 1.21997 -4.44357 0
M  V30 3789 H 350.245 1.25418 -3.97063 0
M  V30 3790 H 352.842 4.00276 -3.54519 0
M  V30 3791 H 353.185 3.72684 -1.85505 0
M  V30 3792 H 353.718 2.53505 -3.06562 0
M  V30 3793 H 350.457 2.49181 -6.06291 0
M  V30 3794 H 349.977 3.62487 -4.77873 0
M  V30 3795 H 351.656 3.60474 -5.37278 0
M  V30 3796 N 351.788 1.33704 0.83433 0
M  V30 3797 C 353.036 1.25169 1.58673 0
M  V30 3798 C 353.357 -0.18127 1.94156 0
M  V30 3799 O 352.627 -1.11113 1.6134 0
M  V30 3800 H 351.207 0.4603 0.58833 0
M  V30 3801 H 353.869 1.67478 0.996847 0
M  V30 3802 H 352.965 1.84856 2.51465 0
M  V30 3803 N 353.266 -1.05314 1.17247 0
M  V30 3804 C 354.513 -1.78293 0.960091 0
M  V30 3805 C 354.841 -1.87658 -0.51136 0
M  V30 3806 O 354.096 -1.3718 -1.39571 0
M  V30 3807 C 354.395 -3.2229 1.54479 0
M  V30 3808 C 354.061 -3.32987 3.04024 0
M  V30 3809 C 352.723 -3.35613 3.44844 0
M  V30 3810 C 355.075 -3.34102 4.00031 0
M  V30 3811 C 352.403 -3.36982 4.8027 0
M  V30 3812 C 354.755 -3.3701 5.35357 0
M  V30 3813 C 353.419 -3.37923 5.75642 0
M  V30 3814 H 352.689 -0.652422 0.351322 0
M  V30 3815 H 355.336 -1.23782 1.46117 0
M  V30 3816 H 353.641 -3.7972 0.965391 0
M  V30 3817 H 355.338 -3.77376 1.35603 0
M  V30 3818 H 351.928 -3.31655 2.71483 0
M  V30 3819 H 356.112 -3.31276 3.69554 0
M  V30 3820 H 351.368 -3.35999 5.10798 0
M  V30 3821 H 355.542 -3.36822 6.09528 0
M  V30 3822 H 353.169 -3.38738 6.80559 0
M  V30 3823 N 354.744 -0.972509 -1.24016 0
M  V30 3824 C 355.674 -0.525548 -2.27509 0
M  V30 3825 C 356.655 0.437262 -1.64384 0
M  V30 3826 O 357.84 0.332343 -1.91335 0
M  V30 3827 C 354.97 0.180448 -3.46831 0
M  V30 3828 C 353.924 -0.698859 -4.22256 0
M  V30 3829 C 353.25 0.138903 -5.3452 0
M  V30 3830 C 354.55 -1.98582 -4.83076 0
M  V30 3831 H 356.244 -1.39058 -2.65148 0
M  V30 3832 H 353.79 -0.67009 -1.27459 0
M  V30 3833 H 355.743 0.504387 -4.18371 0
M  V30 3834 H 354.467 1.07987 -3.08231 0
M  V30 3835 H 353.126 -1.00614 -3.52523 0
M  V30 3836 H 352.774 1.03862 -4.9216 0
M  V30 3837 H 352.474 -0.446259 -5.85903 0
M  V30 3838 H 353.998 0.457404 -6.08884 0
M  V30 3839 H 355.412 -1.72715 -5.46665 0
M  V30 3840 H 353.809 -2.5181 -5.44713 0
M  V30 3841 H 354.879 -2.67769 -4.04262 0
M  V30 3842 N 356.222 1.38976 -0.743202 0
M  V30 3843 C 357.462 2.02193 -0.29954 0
M  V30 3844 C 357.826 1.5771 1.09506 0
M  V30 3845 O 359.027 2.13184 1.63726 0
M  V30 3846 C 357.298 3.55077 -0.406822 0
M  V30 3847 S 358.857 4.38778 -0.0442109 0
M  V30 3848 H 355.675 0.701335 -0.116836 0
M  V30 3849 H 358.277 1.69651 -0.971529 0
M  V30 3850 H 356.981 3.84942 -1.42295 0
M  V30 3851 H 356.512 3.92383 0.282707 0
M  V30 3852 H 358.527 4.82222 1.16947 0
M  V30 3853 N 357.7 0.491464 1.49741 0
M  V30 3854 C 358.63 -0.28154 2.31796 0
M  V30 3855 C 359.611 -0.971473 1.3963 0
M  V30 3856 O 360.796 -0.964719 1.68543 0
M  V30 3857 C 357.926 -1.35203 3.19902 0
M  V30 3858 C 356.88 -0.782529 4.20786 0
M  V30 3859 C 356.206 -1.95283 4.97764 0
M  V30 3860 C 357.506 0.21999 5.21837 0
M  V30 3861 H 359.2 0.403355 2.96671 0
M  V30 3862 H 356.746 0.195425 1.42668 0
M  V30 3863 H 358.699 -1.90045 3.76113 0
M  V30 3864 H 357.423 -2.06598 2.52953 0
M  V30 3865 H 356.082 -0.255928 3.65706 0
M  V30 3866 H 355.73 -2.65423 4.2727 0
M  V30 3867 H 355.43 -1.57789 5.66018 0
M  V30 3868 H 356.954 -2.50577 5.56816 0
M  V30 3869 H 358.368 -0.23996 5.72798 0
M  V30 3870 H 356.765 0.51026 5.97927 0
M  V30 3871 H 357.835 1.13911 4.7133 0
M  V30 3872 N 359.178 -1.55987 0.224894 0
M  V30 3873 C 360.427 -1.97566 -0.406273 0
M  V30 3874 C 360.74 -1.11569 -1.6066 0
M  V30 3875 O 361.946 -1.43062 -2.3075 0
M  V30 3876 C 360.402 -3.51474 -0.774207 0
M  V30 3877 C 360.01 -4.46179 0.403496 0
M  V30 3878 C 361.754 -4.01758 -1.37079 0
M  V30 3879 C 359.661 -5.91399 0.0129412 0
M  V30 3880 H 358.591 -0.737777 -0.155565 0
M  V30 3881 H 361.242 -1.80659 0.321635 0
M  V30 3882 H 359.624 -3.63994 -1.55963 0
M  V30 3883 H 360.798 -4.45409 1.18101 0
M  V30 3884 H 359.113 -4.06255 0.913536 0
M  V30 3885 H 361.71 -5.07756 -1.67596 0
M  V30 3886 H 362.053 -3.47805 -2.28773 0
M  V30 3887 H 362.586 -3.92475 -0.648733 0
M  V30 3888 H 359.325 -6.49341 0.896451 0
M  V30 3889 H 358.845 -5.95356 -0.728821 0
M  V30 3890 H 360.524 -6.45683 -0.412582 0
M  V30 3891 N 360.656 0.0484629 -1.57525 0
M  V30 3892 C 361.586 1.0549 -2.08313 0
M  V30 3893 C 362.567 1.38929 -0.981463 0
M  V30 3894 O 363.752 1.48151 -1.25558 0
M  V30 3895 C 360.882 2.36162 -2.54646 0
M  V30 3896 C 359.836 2.17016 -3.68901 0
M  V30 3897 C 359.162 3.53278 -4.01371 0
M  V30 3898 C 360.462 1.57219 -4.98076 0
M  V30 3899 H 362.156 0.632195 -2.92649 0
M  V30 3900 H 359.702 0.302654 -1.40784 0
M  V30 3901 H 361.655 3.06882 -2.88793 0
M  V30 3902 H 360.379 2.80456 -1.67368 0
M  V30 3903 H 359.038 1.48733 -3.35073 0
M  V30 3904 H 358.686 3.95185 -3.11188 0
M  V30 3905 H 358.386 3.41299 -4.78318 0
M  V30 3906 H 359.91 4.25391 -4.38035 0
M  V30 3907 H 361.324 2.17832 -5.30304 0
M  V30 3908 H 359.721 1.55871 -5.79503 0
M  V30 3909 H 360.791 0.535956 -4.81929 0
M  V30 3910 N 362.134 1.5431 0.320358 0
M  V30 3911 C 363.097 1.83195 1.3774 0
M  V30 3912 C 364.097 0.703906 1.44575 0
M  V30 3913 O 365.287 0.972214 1.44546 0
M  V30 3914 C 362.419 1.99487 2.76438 0
M  V30 3915 H 363.612 2.77642 1.1338 0
M  V30 3916 H 361.165 1.46076 0.556012 0
M  V30 3917 H 361.9 1.07262 3.06048 0
M  V30 3918 H 361.685 2.81575 2.7287 0
M  V30 3919 H 363.175 2.23271 3.52902 0
M  V30 3920 N 363.613 -0.582584 1.46437 0
M  V30 3921 C 364.838 -1.37168 1.55563 0
M  V30 3922 C 365.263 -1.87061 0.19743 0
M  V30 3923 O 364.621 -1.61572 -0.822451 0
M  V30 3924 C 364.669 -2.53511 2.56446 0
M  V30 3925 O 363.773 -3.54953 2.09958 0
M  V30 3926 H 363.114 -0.408494 0.523477 0
M  V30 3927 H 365.644 -0.706646 1.9201 0
M  V30 3928 H 365.654 -3.00426 2.76058 0
M  V30 3929 H 364.329 -2.16549 3.55076 0
M  V30 3930 H 362.906 -3.14516 2.00334 0
M  V30 3931 N 365.091 -1.34144 -0.827227 0
M  V30 3932 C 366.338 -1.26258 -1.58319 0
M  V30 3933 C 366.666 0.168595 -1.93768 0
M  V30 3934 O 365.921 1.12877 -1.59866 0
M  V30 3935 C 366.22 -2.09464 -2.89585 0
M  V30 3936 C 365.886 -3.58521 -2.73448 0
M  V30 3937 C 364.548 -3.99155 -2.68754 0
M  V30 3938 C 366.9 -4.53189 -2.57428 0
M  V30 3939 C 364.228 -5.32656 -2.45957 0
M  V30 3940 C 366.58 -5.86864 -2.36163 0
M  V30 3941 C 365.244 -6.26667 -2.29879 0
M  V30 3942 H 364.514 -0.462013 -0.579332 0
M  V30 3943 H 367.161 -1.65845 -0.95748 0
M  V30 3944 H 365.466 -1.62692 -3.56425 0
M  V30 3945 H 367.163 -2.00712 -3.47154 0
M  V30 3946 H 363.753 -3.26264 -2.77939 0
M  V30 3947 H 367.937 -4.22696 -2.60081 0
M  V30 3948 H 363.193 -5.62519 -2.39546 0
M  V30 3949 H 367.367 -6.59813 -2.22754 0
M  V30 3950 H 364.994 -7.30049 -2.11975 0
M  V30 3951 N 366.569 1.04691 -1.17803 0
M  V30 3952 C 367.499 2.14494 -0.92275 0
M  V30 3953 C 368.48 1.69546 0.137179 0
M  V30 3954 O 369.665 1.94195 -0.0141108 0
M  V30 3955 C 366.795 3.44491 -0.440803 0
M  V30 3956 C 365.749 4.03031 -1.4405 0
M  V30 3957 C 365.075 5.28432 -0.81631 0
M  V30 3958 C 366.375 4.39932 -2.81527 0
M  V30 3959 H 368.069 2.36107 -1.84103 0
M  V30 3960 H 365.615 1.1347 -0.886599 0
M  V30 3961 H 367.568 4.2066 -0.249602 0
M  V30 3962 H 366.292 3.22546 0.513025 0
M  V30 3963 H 364.951 3.28937 -1.61853 0
M  V30 3964 H 364.599 5.02792 0.144511 0
M  V30 3965 H 364.299 5.68559 -1.48371 0
M  V30 3966 H 365.823 6.07284 -0.635496 0
M  V30 3967 H 367.237 5.07113 -2.67412 0
M  V30 3968 H 365.634 4.9109 -3.44892 0
M  V30 3969 H 366.704 3.50045 -3.35554 0
M  V30 3970 N 368.047 0.979072 1.23499 0
M  V30 3971 C 369.293 0.648178 1.92163 0
M  V30 3972 C 369.626 -0.816049 1.76222 0
M  V30 3973 O 368.901 -1.58849 1.12237 0
M  V30 3974 C 369.184 1.03773 3.44824 0
M  V30 3975 C 369.037 2.55948 3.69879 0
M  V30 3976 C 370.356 0.580653 4.36253 0
M  V30 3977 H 367.475 0.236952 0.69787 0
M  V30 3978 H 370.117 1.22012 1.45647 0
M  V30 3979 H 368.267 0.551058 3.84572 0
M  V30 3980 H 369.939 3.12179 3.3962 0
M  V30 3981 H 368.182 2.98641 3.14636 0
M  V30 3982 H 368.853 2.78255 4.76737 0
M  V30 3983 H 371.329 0.998465 4.03943 0
M  V30 3984 H 370.205 0.881663 5.41773 0
M  V30 3985 H 370.466 -0.519052 4.39042 0
M  V30 3986 N 369.525 -1.3858 0.750561 0
M  V30 3987 C 370.755 -2.04175 0.31564 0
M  V30 3988 C 371.163 -1.56726 -1.05989 0
M  V30 3989 O 370.506 -0.734225 -1.68389 0
M  V30 3990 C 370.568 -3.58585 0.256389 0
M  V30 3991 C 370.232 -4.29077 1.57296 0
M  V30 3992 C 371.229 -4.54656 2.52159 0
M  V30 3993 C 368.914 -4.67324 1.84156 0
M  V30 3994 C 370.908 -5.17512 3.72103 0
M  V30 3995 C 368.595 -5.29905 3.04374 0
M  V30 3996 C 369.593 -5.54933 3.98168 0
M  V30 3997 O 369.281 -6.16212 5.16273 0
M  V30 3998 H 369.013 -0.662742 0.133226 0
M  V30 3999 H 371.567 -1.78313 1.01948 0
M  V30 4000 H 369.797 -3.83406 -0.503677 0
M  V30 4001 H 371.486 -4.05628 -0.148612 0
M  V30 4002 H 372.252 -4.25539 2.32683 0
M  V30 4003 H 368.131 -4.47191 1.11988 0
M  V30 4004 H 371.675 -5.36963 4.45327 0
M  V30 4005 H 367.572 -5.58444 3.23745 0
M  V30 4006 H 368.34 -6.34701 5.16815 0
M  V30 4007 N 371.003 -0.499398 -1.49478 0
M  V30 4008 C 371.933 0.269244 -2.31943 0
M  V30 4009 C 372.914 0.964054 -1.40143 0
M  V30 4010 O 374.099 0.955767 -1.69052 0
M  V30 4011 C 371.229 1.33504 -3.20615 0
M  V30 4012 C 370.183 0.760202 -4.21195 0
M  V30 4013 C 369.509 1.9264 -4.98792 0
M  V30 4014 C 370.809 -0.247661 -5.21712 0
M  V30 4015 H 372.503 -0.419082 -2.96452 0
M  V30 4016 H 370.049 -0.202988 -1.42562 0
M  V30 4017 H 372.002 1.88048 -3.77115 0
M  V30 4018 H 370.726 2.05253 -2.54045 0
M  V30 4019 H 369.385 0.23653 -3.65836 0
M  V30 4020 H 369.033 2.63154 -4.28671 0
M  V30 4021 H 368.733 1.54785 -5.66847 0
M  V30 4022 H 370.257 2.4762 -5.58137 0
M  V30 4023 H 371.671 0.209579 -5.72917 0
M  V30 4024 H 370.068 -0.541962 -5.97648 0
M  V30 4025 H 371.138 -1.16409 -4.7072 0
M  V30 4026 N 372.481 1.55866 -0.233164 0
M  V30 4027 C 373.444 2.1953 0.658715 0
M  V30 4028 C 374.444 1.16053 1.11303 0
M  V30 4029 O 375.634 1.41218 1.01996 0
M  V30 4030 C 372.766 2.82791 1.90373 0
M  V30 4031 H 373.959 2.99721 0.10347 0
M  V30 4032 H 371.512 1.56291 0.0164245 0
M  V30 4033 H 372.247 2.06501 2.50056 0
M  V30 4034 H 372.032 3.58578 1.58632 0
M  V30 4035 H 373.522 3.31556 2.53891 0
M  V30 4036 N 373.959 -0.0401083 1.57549 0
M  V30 4037 C 374.869 -1.06133 2.0922 0
M  V30 4038 C 375.885 -1.40356 1.0284 0
M  V30 4039 O 377.061 -1.49897 1.34509 0
M  V30 4040 C 374.126 -2.34658 2.55218 0
M  V30 4041 C 373.187 -2.07117 3.76033 0
M  V30 4042 C 372.42 -3.29514 4.19829 0
M  V30 4043 O 372.643 -4.39794 3.63232 0
M  V30 4044 O 371.577 -3.15863 5.12362 0
M  V30 4045 H 375.403 -0.652244 2.96613 0
M  V30 4046 H 372.988 -0.256368 1.47184 0
M  V30 4047 H 374.87 -3.10239 2.85184 0
M  V30 4048 H 373.545 -2.74883 1.70941 0
M  V30 4049 H 372.452 -1.29139 3.51104 0
M  V30 4050 H 373.785 -1.71754 4.61261 0
M  V30 4051 N 375.437 -1.54477 -0.31217 0
M  V30 4052 C 376.384 -1.84655 -1.38461 0
M  V30 4053 C 377.354 -0.694536 -1.50882 0
M  V30 4054 O 378.539 -0.942081 -1.6592 0
M  V30 4055 C 375.679 -2.0896 -2.74645 0
M  V30 4056 C 374.792 -3.36618 -2.70763 0
M  V30 4057 C 373.927 -3.50824 -3.98868 0
M  V30 4058 C 372.966 -4.72315 -3.89339 0
M  V30 4059 N 372.103 -4.83387 -5.09197 0
M  V30 4060 H 376.943 -2.76142 -1.12026 0
M  V30 4061 H 374.48 -1.36748 -0.542065 0
M  V30 4062 H 376.438 -2.21045 -3.53829 0
M  V30 4063 H 375.068 -1.20752 -2.99364 0
M  V30 4064 H 374.12 -3.33211 -1.83506 0
M  V30 4065 H 375.432 -4.25917 -2.59608 0
M  V30 4066 H 374.586 -3.62513 -4.86486 0
M  V30 4067 H 373.325 -2.59638 -4.12843 0
M  V30 4068 H 372.33 -4.6067 -3.00105 0
M  V30 4069 H 373.555 -5.64897 -3.76919 0
M  V30 4070 H 371.501 -3.9512 -5.23657 0
M  V30 4071 H 371.418 -5.66669 -5.00422 0
M  V30 4072 H 372.686 -4.9942 -5.98498 0
M  V30 4073 N 376.915 0.57481 -1.46744 0
M  V30 4074 C 378.163 1.33009 -1.52161 0
M  V30 4075 C 378.484 1.94185 -0.178092 0
M  V30 4076 O 377.754 1.7899 0.796196 0
M  V30 4077 H 376.334 0.493873 -0.560445 0
M  V30 4078 H 378.996 0.672589 -1.82927 0
M  V30 4079 H 378.092 2.13273 -2.27862 0
M  V30 4080 N 378.394 1.34581 0.820102 0
M  V30 4081 C 379.304 1.28471 1.96297 0
M  V30 4082 C 380.32 0.191902 1.72939 0
M  V30 4083 O 381.496 0.418879 1.96996 0
M  V30 4084 C 378.561 1.04281 3.30645 0
M  V30 4085 C 377.622 2.22745 3.66992 0
M  V30 4086 C 376.855 1.997 4.9493 0
M  V30 4087 O 377.078 0.956656 5.6232 0
M  V30 4088 O 376.012 2.86723 5.2922 0
M  V30 4089 H 379.838 2.24624 2.04396 0
M  V30 4090 H 377.423 1.14816 0.955913 0
M  V30 4091 H 379.305 0.925841 4.11104 0
M  V30 4092 H 377.98 0.111697 3.23507 0
M  V30 4093 H 376.887 2.40003 2.86966 0
M  V30 4094 H 378.22 3.14257 3.78819 0
M  V30 4095 N 379.872 -1.04064 1.18357 0
M  V30 4096 C 380.82 -2.14187 0.907007 0
M  V30 4097 C 381.814 -1.68879 -0.132725 0
M  V30 4098 O 383.02 -1.79993 0.0154248 0
M  V30 4099 H 379.395 -0.699585 0.275835 0
M  V30 4100 H 381.366 -2.34711 1.84264 0
M  V30 4101 C 380.115 -3.44785 0.449254 0
M  V30 4102 H 379.438 -3.80058 1.24081 0
M  V30 4103 H 380.878 -4.22974 0.294737 0
M  V30 4104 C 379.337 -3.26391 -0.834909 0
M  V30 4105 O 379.867 -3.53973 -1.89911 0
M  V30 4106 N 378.073 -2.79726 -0.787523 0
M  V30 4107 H 377.62 -2.5748 0.0787347 0
M  V30 4108 H 377.578 -2.67798 -1.64716 0
M  V30 4109 N 381.35 -0.985608 -1.22978 0
M  V30 4110 C 382.627 -0.573599 -1.87001 0
M  V30 4111 C 383.007 0.949213 -1.88555 0
M  V30 4112 O 382.355 1.82811 -1.37086 0
M  V30 4113 C 382.565 -1.18564 -3.28243 0
M  V30 4114 C 383.913 -1.28163 -4.04796 0
M  V30 4115 O 384.937 -1.13949 -3.37482 0
M  V30 4116 O 383.796 -1.50832 -5.25273 0
M  V30 4117 H 380.89 -0.193868 -0.803955 0
M  V30 4118 H 383.436 -1.08102 -1.30813 0
M  V30 4119 H 382.208 -2.22758 -3.21706 0
M  V30 4120 H 381.831 -0.663363 -3.92027 0
M  V30 4121 N 382.828 1.3818 -0.7579 0
M  V30 4122 C 383.778 2.27741 -0.108674 0
M  V30 4123 C 384.762 1.45415 0.688709 0
M  V30 4124 O 385.954 1.68108 0.553956 0
M  V30 4125 C 383.083 3.34313 0.780367 0
M  V30 4126 C 382.169 4.24093 -0.0240977 0
M  V30 4127 N 382.56 4.9451 -1.06271 0
M  V30 4128 C 380.858 4.45542 0.202049 0
M  V30 4129 C 381.559 5.60675 -1.54979 0
M  V30 4130 N 380.535 5.36684 -0.864348 0
M  V30 4131 H 384.337 2.79649 -0.904071 0
M  V30 4132 H 381.851 1.51133 -0.594346 0
M  V30 4133 H 383.848 3.97368 1.26114 0
M  V30 4134 H 382.508 2.83962 1.57467 0
M  V30 4135 H 383.519 4.97345 -1.44459 0
M  V30 4136 H 380.196 4.06091 0.96935 0
M  V30 4137 H 381.586 6.26992 -2.41517 0
M  V30 4138 N 384.306 0.507319 1.49211 0
M  V30 4139 C 385.553 -0.0349529 2.0247 0
M  V30 4140 C 385.881 -1.36409 1.38647 0
M  V30 4141 O 385.136 -1.88841 0.513566 0
M  V30 4142 C 385.435 -0.229513 3.56662 0
M  V30 4143 C 385.101 1.02241 4.39156 0
M  V30 4144 C 383.763 1.36557 4.61417 0
M  V30 4145 C 386.115 1.85428 4.871 0
M  V30 4146 C 383.443 2.53999 5.28868 0
M  V30 4147 C 385.795 3.02028 5.55843 0
M  V30 4148 C 384.459 3.36717 5.76349 0
M  V30 4149 H 383.729 -0.0127902 0.74089 0
M  V30 4150 H 386.376 0.668756 1.79443 0
M  V30 4151 H 384.681 -1.0158 3.78403 0
M  V30 4152 H 386.378 -0.663641 3.9547 0
M  V30 4153 H 382.968 0.745124 4.22073 0
M  V30 4154 H 387.152 1.6023 4.69723 0
M  V30 4155 H 382.408 2.81105 5.42946 0
M  V30 4156 H 386.582 3.66808 5.91967 0
M  V30 4157 H 384.209 4.27821 6.28389 0
M  V30 4158 N 385.784 -1.5574 0.241426 0
M  V30 4159 C 387.061 -1.90704 -0.434881 0
M  V30 4160 C 387.441 -1.16145 -1.76277 0
M  V30 4161 O 386.789 -0.277152 -2.26813 0
M  V30 4162 C 386.999 -3.43657 -0.608343 0
M  V30 4163 C 388.347 -4.14806 -0.906725 0
M  V30 4164 O 389.371 -3.49366 -0.694408 0
M  V30 4165 O 388.23 -5.30548 -1.31075 0
M  V30 4166 H 385.324 -0.793592 -0.23268 0
M  V30 4167 H 387.87 -1.67288 0.285086 0
M  V30 4168 H 386.642 -3.89927 0.327505 0
M  V30 4169 H 386.265 -3.72918 -1.37906 0
M  V30 4170 N 387.262 0.0317525 -1.57568 0
M  V30 4171 C 388.49 0.734949 -1.93407 0
M  V30 4172 C 388.905 1.69036 -0.84096 0
M  V30 4173 O 388.262 1.81582 0.182836 0
M  V30 4174 C 388.313 1.49432 -3.29169 0
M  V30 4175 O 388.034 0.577261 -4.3428 0
M  V30 4176 C 389.535 2.29492 -3.79273 0
M  V30 4177 H 386.755 0.206706 -0.638368 0
M  V30 4178 H 389.299 -0.00992046 -2.04498 0
M  V30 4179 H 387.454 2.1911 -3.19483 0
M  V30 4180 H 387.868 1.10952 -5.1263 0
M  V30 4181 H 389.342 2.78172 -4.76785 0
M  V30 4182 H 389.819 3.10794 -3.10328 0
M  V30 4183 H 390.425 1.64894 -3.92033 0
M  V30 4184 N 388.74 1.54641 0.303973 0
M  V30 4185 C 389.97 1.77511 1.05705 0
M  V30 4186 C 390.378 0.533228 1.81531 0
M  V30 4187 O 389.721 -0.506423 1.76582 0
M  V30 4188 C 389.783 2.92779 2.08617 0
M  V30 4189 C 389.447 4.30977 1.52013 0
M  V30 4190 C 390.444 5.11115 0.9517 0
M  V30 4191 C 388.129 4.77571 1.55665 0
M  V30 4192 C 390.123 6.35966 0.427327 0
M  V30 4193 C 387.81 6.02384 1.02841 0
M  V30 4194 C 388.808 6.81417 0.464713 0
M  V30 4195 O 388.496 8.03881 -0.0555283 0
M  V30 4196 H 388.228 0.59579 0.319391 0
M  V30 4197 H 390.782 2.02401 0.349712 0
M  V30 4198 H 389.012 2.63506 2.83022 0
M  V30 4199 H 390.701 3.03252 2.69802 0
M  V30 4200 H 391.467 4.76264 0.916407 0
M  V30 4201 H 387.346 4.16085 1.9848 0
M  V30 4202 H 390.89 6.97599 -0.0133062 0
M  V30 4203 H 386.787 6.36723 1.06084 0
M  V30 4204 H 387.555 8.18479 0.0580522 0
M  V30 4205 N 390.218 -0.567019 1.47046 0
M  V30 4206 C 391.181 -1.65696 1.58359 0
M  V30 4207 C 392.181 -1.54097 0.459441 0
M  V30 4208 O 393.371 -1.58432 0.724225 0
M  V30 4209 C 390.503 -3.05197 1.51879 0
M  V30 4210 H 391.696 -1.57019 2.5551 0
M  V30 4211 H 389.249 -0.786148 1.3509 0
M  V30 4212 H 389.984 -3.19417 0.560673 0
M  V30 4213 H 389.769 -3.15025 2.33455 0
M  V30 4214 H 391.259 -3.84511 1.62913 0
M  V30 4215 N 391.696 -1.35014 -0.812953 0
M  V30 4216 C 392.973 -1.18502 -1.55617 0
M  V30 4217 C 393.353 0.238421 -2.09749 0
M  V30 4218 O 392.701 1.2411 -1.91857 0
M  V30 4219 C 392.911 -2.24783 -2.66971 0
M  V30 4220 C 394.259 -2.60268 -3.35478 0
M  V30 4221 O 395.283 -2.23648 -2.77236 0
M  V30 4222 O 394.142 -3.2321 -4.40678 0
M  V30 4223 H 391.236 -0.459984 -0.687272 0
M  V30 4224 H 393.782 -1.46677 -0.853464 0
M  V30 4225 H 392.554 -3.20284 -2.24798 0
M  V30 4226 H 392.177 -1.97841 -3.44884 0
M  V30 4227 N 393.175 1.03435 -1.18907 0
M  V30 4228 C 394.138 2.09756 -0.923844 0
M  V30 4229 C 395.138 1.60528 0.093416 0
M  V30 4230 O 396.328 1.73631 -0.140727 0
M  V30 4231 C 393.46 3.38692 -0.387354 0
M  V30 4232 H 394.653 2.34719 -1.86674 0
M  V30 4233 H 392.206 1.19959 -1.00197 0
M  V30 4234 H 392.941 3.19396 0.561845 0
M  V30 4235 H 392.726 3.75742 -1.12074 0
M  V30 4236 H 394.216 4.17016 -0.220694 0
M  V30 4237 N 394.653 0.992116 1.22453 0
M  V30 4238 C 395.583 0.561677 2.26644 0
M  V30 4239 C 396.564 -0.411055 1.65059 0
M  V30 4240 O 397.749 -0.301861 1.9184 0
M  V30 4241 C 394.879 -0.125247 3.47074 0
M  V30 4242 C 393.833 0.765948 4.21091 0
M  V30 4243 C 393.159 -0.0538484 5.34673 0
M  V30 4244 C 394.459 2.06242 4.79856 0
M  V30 4245 H 396.153 1.43259 2.62902 0
M  V30 4246 H 393.699 0.690283 1.26377 0
M  V30 4247 H 395.652 -0.437764 4.1912 0
M  V30 4248 H 394.376 -1.03069 3.0991 0
M  V30 4249 H 393.035 1.0621 3.50878 0
M  V30 4250 H 392.683 -0.960188 4.9375 0
M  V30 4251 H 392.383 0.539415 5.85119 0
M  V30 4252 H 393.907 -0.360477 6.09535 0
M  V30 4253 H 395.321 1.8139 5.43848 0
M  V30 4254 H 393.718 2.60444 5.40638 0
M  V30 4255 H 394.788 2.74167 3.99951 0
M  V30 4256 N 396.131 -1.37776 0.765217 0
M  V30 4257 C 397.377 -2.00604 0.336066 0
M  V30 4258 C 397.732 -1.59657 -1.07366 0
M  V30 4259 O 397.025 -0.829565 -1.7271 0
M  V30 4260 C 397.219 -3.5504 0.410053 0
M  V30 4261 C 397.048 -4.10985 1.82542 0
M  V30 4262 C 395.818 -4.42229 2.44461 0
M  V30 4263 C 398.016 -4.32438 2.78392 0
M  V30 4264 N 395.998 -4.8385 3.77839 0
M  V30 4265 C 397.369 -4.76596 3.96556 0
M  V30 4266 C 399.424 -4.14559 2.75764 0
M  V30 4267 C 398.127 -5.04748 5.12466 0
M  V30 4268 C 400.153 -4.43843 3.90842 0
M  V30 4269 C 399.515 -4.88235 5.07746 0
M  V30 4270 H 395.614 -0.763325 0.169881 0
M  V30 4271 H 398.198 -1.67197 0.997656 0
M  V30 4272 H 396.369 -3.87769 -0.221325 0
M  V30 4273 H 398.101 -4.0468 -0.0405285 0
M  V30 4274 H 394.856 -4.31079 1.96131 0
M  V30 4275 H 395.28 -5.08979 4.46396 0
M  V30 4276 H 399.922 -3.79415 1.86558 0
M  V30 4277 H 397.64 -5.38783 6.02277 0
M  V30 4278 H 401.226 -4.31603 3.90141 0
M  V30 4279 H 400.106 -5.10461 5.95315 0
M  V30 4280 N 397.609 -0.515225 -1.4894 0
M  V30 4281 C 398.855 0.016187 -2.03394 0
M  V30 4282 C 399.21 1.33377 -1.38666 0
M  V30 4283 O 398.503 1.84461 -0.518141 0
M  V30 4284 C 398.697 0.210595 -3.56779 0
M  V30 4285 C 398.526 -1.08659 -4.36375 0
M  V30 4286 C 397.296 -1.64237 -4.77864 0
M  V30 4287 C 399.494 -1.9935 -4.74093 0
M  V30 4288 N 397.476 -2.88398 -5.41941 0
M  V30 4289 C 398.847 -3.08088 -5.38035 0
M  V30 4290 C 400.902 -1.99856 -4.56029 0
M  V30 4291 C 399.605 -4.17377 -5.85823 0
M  V30 4292 C 401.631 -3.08129 -5.04787 0
M  V30 4293 C 400.993 -4.15586 -5.68742 0
M  V30 4294 H 397.092 -0.0352107 -0.781207 0
M  V30 4295 H 399.676 -0.693237 -1.8194 0
M  V30 4296 H 397.847 0.889088 -3.78087 0
M  V30 4297 H 399.579 0.740287 -3.97872 0
M  V30 4298 H 396.334 -1.18566 -4.58518 0
M  V30 4299 H 396.758 -3.51572 -5.78555 0
M  V30 4300 H 401.4 -1.18079 -4.05977 0
M  V30 4301 H 399.118 -4.99943 -6.34888 0
M  V30 4302 H 402.704 -3.09557 -4.92611 0
M  V30 4303 H 401.584 -4.97987 -6.05787 0
M  V30 4304 N 399.087 1.5561 -0.249682 0
M  V30 4305 C 400.335 1.98618 0.373548 0
M  V30 4306 C 400.656 1.13919 1.58264 0
M  V30 4307 O 399.926 0.222637 1.94631 0
M  V30 4308 H 398.506 0.733571 0.141006 0
M  V30 4309 H 401.168 1.91748 -0.349117 0
M  V30 4310 H 400.264 3.04584 0.680796 0
M  V30 4311 N 400.565 -0.0233959 1.57583 0
M  V30 4312 C 401.495 -1.02162 2.09965 0
M  V30 4313 C 402.476 -1.3735 1.00344 0
M  V30 4314 O 403.661 -1.46135 1.27899 0
M  V30 4315 C 400.791 -2.32081 2.58371 0
M  V30 4316 C 399.745 -2.1112 3.72307 0
M  V30 4317 C 399.071 -3.46848 4.06941 0
M  V30 4318 C 400.371 -1.49276 5.00514 0
M  V30 4319 H 402.065 -0.585557 2.93618 0
M  V30 4320 H 399.611 -0.280218 1.41247 0
M  V30 4321 H 401.564 -3.02249 2.93639 0
M  V30 4322 H 400.288 -2.77758 1.71808 0
M  V30 4323 H 398.947 -1.43384 3.37397 0
M  V30 4324 H 398.595 -3.90184 3.17436 0
M  V30 4325 H 398.295 -3.33646 4.83688 0
M  V30 4326 H 399.819 -4.18369 4.44747 0
M  V30 4327 H 401.233 -2.09368 5.33702 0
M  V30 4328 H 399.63 -1.46632 5.8191 0
M  V30 4329 H 400.7 -0.459217 4.82721 0
M  V30 4330 N 402.043 -1.548 -0.295768 0
M  V30 4331 C 403.292 -1.73538 -1.02798 0
M  V30 4332 C 403.605 -0.531159 -1.8825 0
M  V30 4333 O 404.811 -0.600458 -2.64777 0
M  V30 4334 C 403.267 -3.07051 -1.87744 0
M  V30 4335 C 402.875 -4.34968 -1.07269 0
M  V30 4336 C 404.619 -3.35146 -2.60533 0
M  V30 4337 C 402.526 -5.5953 -1.91521 0
M  V30 4338 H 401.456 -0.646794 -0.387522 0
M  V30 4339 H 404.107 -1.81278 -0.284718 0
M  V30 4340 H 402.489 -2.93289 -2.66078 0
M  V30 4341 H 403.663 -4.5958 -0.335117 0
M  V30 4342 H 401.978 -4.13847 -0.460384 0
M  V30 4343 H 404.575 -4.2541 -3.23929 0
M  V30 4344 H 404.918 -2.54255 -3.29636 0
M  V30 4345 H 405.451 -3.49902 -1.89244 0
M  V30 4346 H 402.19 -6.43103 -1.26878 0
M  V30 4347 H 401.71 -5.39096 -2.62937 0
M  V30 4348 H 403.389 -5.96982 -2.49442 0
M  V30 4349 N 403.521 0.559213 -1.47345 0
M  V30 4350 C 404.749 1.34194 -1.57479 0
M  V30 4351 C 405.164 1.87463 -0.224261 0
M  V30 4352 O 404.521 1.64888 0.782185 0
M  V30 4353 C 404.572 2.51324 -2.59843 0
M  V30 4354 O 404.293 2.00256 -3.89653 0
M  V30 4355 C 405.794 3.43563 -2.80142 0
M  V30 4356 H 403.014 0.409136 -0.531835 0
M  V30 4357 H 405.558 0.677609 -1.92947 0
M  V30 4358 H 403.713 3.13699 -2.27314 0
M  V30 4359 H 404.127 2.76708 -4.4557 0
M  V30 4360 H 405.601 4.2217 -3.55635 0
M  V30 4361 H 406.078 3.9698 -1.87892 0
M  V30 4362 H 406.684 2.87005 -3.1386 0
M  V30 4363 N 404.999 1.35443 0.805782 0
M  V30 4364 C 405.929 1.31095 1.93226 0
M  V30 4365 C 406.91 0.185244 1.69088 0
M  V30 4366 O 408.095 0.380332 1.90439 0
M  V30 4367 C 405.225 1.08299 3.29983 0
M  V30 4368 C 404.179 2.17519 3.68605 0
M  V30 4369 C 403.505 1.79887 5.03532 0
M  V30 4370 C 404.805 3.5949 3.78898 0
M  V30 4371 H 406.499 2.25352 1.97122 0
M  V30 4372 H 404.045 1.0848 0.946996 0
M  V30 4373 H 405.998 1.03897 4.08391 0
M  V30 4374 H 404.722 0.104885 3.26432 0
M  V30 4375 H 403.381 2.2102 2.92482 0
M  V30 4376 H 403.029 0.80693 4.96485 0
M  V30 4377 H 402.729 2.53001 5.30344 0
M  V30 4378 H 404.253 1.77011 5.84379 0
M  V30 4379 H 405.667 3.58307 4.47536 0
M  V30 4380 H 404.064 4.31371 4.1718 0
M  V30 4381 H 405.134 3.95584 2.80431 0
M  V30 4382 N 406.477 -1.02803 1.19454 0
M  V30 4383 C 407.705 -1.79841 1.02297 0
M  V30 4384 C 408.12 -1.83879 -0.428259 0
M  V30 4385 O 407.477 -1.28345 -1.29745 0
M  V30 4386 C 407.528 -3.24852 1.58598 0
M  V30 4387 O 407.249 -3.21097 2.98041 0
M  V30 4388 C 408.75 -4.18485 1.46236 0
M  V30 4389 H 405.97 -0.565936 0.360496 0
M  V30 4390 H 408.514 -1.2948 1.58288 0
M  V30 4391 H 406.669 -3.72401 1.06753 0
M  V30 4392 H 407.083 -4.12033 3.24545 0
M  V30 4393 H 408.557 -5.18121 1.90407 0
M  V30 4394 H 409.034 -4.37254 0.41301 0
M  V30 4395 H 409.64 -3.76811 1.97215 0
M  V30 4396 N 407.956 -0.998596 -1.21925 0
M  V30 4397 C 409.184 -0.696286 -1.94832 0
M  V30 4398 C 409.599 0.740032 -1.73692 0
M  V30 4399 O 408.956 1.5 -1.03953 0
M  V30 4400 C 409.007 -0.999833 -3.47398 0
M  V30 4401 O 408.728 -2.37972 -3.67833 0
M  V30 4402 C 410.229 -0.716025 -4.37479 0
M  V30 4403 H 407.449 -0.257111 -0.619786 0
M  V30 4404 H 409.993 -1.33491 -1.54921 0
M  V30 4405 H 408.148 -0.406918 -3.85257 0
M  V30 4406 H 408.562 -2.48338 -4.61983 0
M  V30 4407 H 410.036 -0.978642 -5.43256 0
M  V30 4408 H 410.513 0.349968 -4.37803 0
M  V30 4409 H 411.119 -1.29025 -4.05256 0
M  V30 4410 N 409.434 1.37368 -0.772513 0
M  V30 4411 C 410.683 1.98918 -0.333861 0
M  V30 4412 C 410.996 1.62017 1.09589 0
M  V30 4413 O 412.202 2.16676 1.63596 0
M  V30 4414 C 410.658 3.55735 -0.545971 0
M  V30 4415 C 410.266 4.01573 -1.98603 0
M  V30 4416 C 412.01 4.24156 -0.170979 0
M  V30 4417 C 409.917 5.51102 -2.1457 0
M  V30 4418 H 408.847 0.744214 -0.121085 0
M  V30 4419 H 411.498 1.56888 -0.95175 0
M  V30 4420 H 409.88 3.95748 0.141387 0
M  V30 4421 H 411.054 3.72803 -2.7084 0
M  V30 4422 H 409.369 3.45937 -2.31769 0
M  V30 4423 H 411.966 5.34024 -0.26878 0
M  V30 4424 H 412.309 4.06917 0.878855 0
M  V30 4425 H 412.842 3.89447 -0.810914 0
M  V30 4426 H 409.581 5.73268 -3.17875 0
M  V30 4427 H 409.101 5.81554 -1.46817 0
M  V30 4428 H 410.78 6.17083 -1.94468 0
M  V30 4429 N 410.912 0.523116 1.48665 0
M  V30 4430 C 412.16 -0.0134497 2.02096 0
M  V30 4431 C 412.481 -1.35418 1.40311 0
M  V30 4432 O 411.751 -1.87543 0.566074 0
M  V30 4433 H 410.331 -0.00795915 0.746958 0
M  V30 4434 H 412.993 0.685388 1.82451 0
M  V30 4435 H 412.089 -0.126849 3.11842 0
M  V30 4436 N 412.39 -1.55475 0.257931 0
M  V30 4437 C 413.62 -2.03314 -0.367026 0
M  V30 4438 C 414.028 -1.13625 -1.51281 0
M  V30 4439 O 413.371 -0.145334 -1.83124 0
M  V30 4440 C 413.433 -3.47362 -0.926284 0
M  V30 4441 C 413.097 -4.56914 0.0886584 0
M  V30 4442 C 414.094 -5.12013 0.902123 0
M  V30 4443 C 411.779 -5.01827 0.217936 0
M  V30 4444 C 413.773 -6.10529 1.83122 0
M  V30 4445 C 411.46 -6.00172 1.15052 0
M  V30 4446 C 412.458 -6.54402 1.95568 0
M  V30 4447 O 412.146 -7.50827 2.87253 0
M  V30 4448 H 411.878 -0.669976 -0.0900443 0
M  V30 4449 H 414.432 -2.01804 0.382673 0
M  V30 4450 H 412.662 -3.46056 -1.72575 0
M  V30 4451 H 414.351 -3.78637 -1.46249 0
M  V30 4452 H 415.117 -4.78139 0.812891 0
M  V30 4453 H 410.996 -4.59272 -0.398721 0
M  V30 4454 H 414.54 -6.52783 2.46008 0
M  V30 4455 H 410.437 -6.33465 1.24064 0
M  V30 4456 H 411.205 -7.68483 2.81739 0
M  V30 4457 N 413.868 0.0150385 -1.57593 0
M  V30 4458 C 415.116 0.701613 -1.8953 0
M  V30 4459 C 415.437 1.75139 -0.857396 0
M  V30 4460 O 414.707 1.95607 0.107194 0
M  V30 4461 H 413.287 0.26213 -0.699498 0
M  V30 4462 H 415.949 -0.0223304 -1.94887 0
M  V30 4463 H 415.045 1.18236 -2.88837 0
M  V30 4464 N 415.346 1.54954 0.287554 0
M  V30 4465 C 416.623 1.65569 1.04146 0
M  V30 4466 C 417.003 0.512672 2.0478 0
M  V30 4467 O 416.351 -0.489038 2.23205 0
M  V30 4468 C 416.561 3.04163 1.71131 0
M  V30 4469 C 417.909 3.61429 2.22832 0
M  V30 4470 O 418.933 3.06702 1.81141 0
M  V30 4471 O 417.792 4.57281 2.9926 0
M  V30 4472 H 414.886 0.671881 0.482188 0
M  V30 4473 H 417.432 1.67297 0.28457 0
M  V30 4474 H 416.204 3.78796 0.981303 0
M  V30 4475 H 415.827 3.06271 2.53543 0
M  V30 4476 N 416.824 -0.551391 1.4764 0
M  V30 4477 C 417.771 -1.65796 1.60563 0
M  V30 4478 C 418.741 -1.59932 0.448428 0
M  V30 4479 O 419.926 -1.78679 0.669222 0
M  V30 4480 C 417.066 -3.04108 1.63133 0
M  V30 4481 C 416.179 -3.20365 2.89811 0
M  V30 4482 C 415.314 -4.49109 2.8368 0
M  V30 4483 C 414.353 -4.58819 4.05156 0
M  V30 4484 N 413.49 -5.78926 3.97227 0
M  V30 4485 H 418.33 -1.54088 2.5507 0
M  V30 4486 H 415.867 -0.75052 1.26513 0
M  V30 4487 H 417.825 -3.84207 1.62606 0
M  V30 4488 H 416.455 -3.14637 0.721341 0
M  V30 4489 H 415.507 -2.33659 3.00179 0
M  V30 4490 H 416.819 -3.23402 3.79753 0
M  V30 4491 H 415.973 -5.37475 2.81434 0
M  V30 4492 H 414.712 -4.4856 1.91431 0
M  V30 4493 H 413.717 -3.68864 4.077 0
M  V30 4494 H 414.942 -4.61124 4.98539 0
M  V30 4495 H 412.888 -5.79314 3.07785 0
M  V30 4496 H 412.805 -5.83367 4.80853 0
M  V30 4497 H 414.073 -6.69637 3.99007 0
M  V30 4498 N 418.302 -1.35869 -0.798587 0
M  V30 4499 C 419.532 -1.32529 -1.58491 0
M  V30 4500 C 419.94 0.0975405 -1.88948 0
M  V30 4501 O 419.283 1.06224 -1.49874 0
M  V30 4502 C 419.345 -2.07247 -2.9375 0
M  V30 4503 C 419.009 -3.56391 -2.86068 0
M  V30 4504 C 420.006 -4.50824 -2.58947 0
M  V30 4505 C 417.691 -3.9915 -3.04933 0
M  V30 4506 C 419.685 -5.85993 -2.5078 0
M  V30 4507 C 417.372 -5.34413 -2.96389 0
M  V30 4508 C 418.37 -6.27646 -2.69349 0
M  V30 4509 O 418.058 -7.60426 -2.60782 0
M  V30 4510 H 417.79 -0.456529 -0.498556 0
M  V30 4511 H 420.344 -1.79425 -0.999799 0
M  V30 4512 H 418.574 -1.55001 -3.54276 0
M  V30 4513 H 420.263 -1.96883 -3.54954 0
M  V30 4514 H 421.029 -4.19104 -2.44084 0
M  V30 4515 H 416.908 -3.26961 -3.24989 0
M  V30 4516 H 420.452 -6.58735 -2.29595 0
M  V30 4517 H 416.349 -5.65743 -3.10813 0
M  V30 4518 H 417.117 -7.70444 -2.76331 0
M  V30 4519 N 419.78 1.02168 -1.19998 0
M  V30 4520 C 421.191 1.57135 -1.00825 0
M  V30 4521 C 421.542 1.91276 0.436818 0
M  V30 4522 O 420.667 1.71679 1.3174 0
M  V30 4523 C 421.262 2.85514 -1.82393 0
M  V30 4524 C 419.821 3.37027 -1.67601 0
M  V30 4525 C 418.968 2.10388 -1.80644 0
M  V30 4526 H 421.919 0.846106 -1.34264 0
M  V30 4527 H 421.94 3.56711 -1.32429 0
M  V30 4528 H 421.452 2.60634 -2.87561 0
M  V30 4529 H 419.553 3.66878 -0.650485 0
M  V30 4530 H 419.666 4.09572 -2.4857 0
M  V30 4531 H 418.03 2.22601 -1.23778 0
M  V30 4532 H 418.813 1.8794 -2.87286 0
M  V30 4533 N 421.258 1.00505 1.21394 0
M  V30 4534 C 422.19 0.52372 2.23136 0
M  V30 4535 C 423.203 -0.387714 1.58116 0
M  V30 4536 O 424.392 -0.187905 1.77508 0
M  V30 4537 C 421.492 -0.258885 3.3791 0
M  V30 4538 C 420.665 0.651634 4.32519 0
M  V30 4539 C 419.724 -0.0813705 5.26137 0
M  V30 4540 O 418.75 0.537295 5.66658 0
M  V30 4541 N 419.952 -1.35992 5.64346 0
M  V30 4542 H 422.717 1.39865 2.65062 0
M  V30 4543 H 420.278 0.881196 1.35818 0
M  V30 4544 H 422.27 -0.758208 3.97534 0
M  V30 4545 H 420.84 -1.035 2.94968 0
M  V30 4546 H 420.06 1.33145 3.71034 0
M  V30 4547 H 421.348 1.27129 4.92662 0
M  V30 4548 H 420.746 -1.88368 5.33417 0
M  V30 4549 H 419.303 -1.8042 6.26332 0
M  V30 4550 N 422.737 -1.36956 0.779787 0
M  V30 4551 C 423.965 -2.03755 0.359398 0
M  V30 4552 C 424.38 -1.58807 -1.02106 0
M  V30 4553 O 423.737 -0.773024 -1.6532 0
M  V30 4554 C 423.788 -3.59251 0.402568 0
M  V30 4555 O 423.509 -4.02557 1.72858 0
M  V30 4556 C 425.01 -4.43291 -0.0284068 0
M  V30 4557 H 422.23 -0.654148 0.149437 0
M  V30 4558 H 424.774 -1.75128 1.05595 0
M  V30 4559 H 422.929 -3.86621 -0.245478 0
M  V30 4560 H 423.343 -4.97111 1.67275 0
M  V30 4561 H 424.817 -5.51975 0.0529466 0
M  V30 4562 H 425.294 -4.25719 -1.07982 0
M  V30 4563 H 425.9 -4.21163 0.591758 0
M  V30 4564 N 424.215 -0.530993 -1.48385 0
M  V30 4565 C 425.461 -0.00538653 -2.03399 0
M  V30 4566 C 425.816 1.31899 -1.40073 0
M  V30 4567 O 425.109 1.83901 -0.537676 0
M  V30 4568 C 425.303 0.172742 -3.56982 0
M  V30 4569 C 425.132 -1.13282 -4.35198 0
M  V30 4570 C 423.902 -1.69296 -4.76096 0
M  V30 4571 C 426.1 -2.04367 -4.71952 0
M  V30 4572 N 424.082 -2.9413 -5.38851 0
M  V30 4573 C 425.453 -3.13777 -5.34737 0
M  V30 4574 C 427.508 -2.04681 -4.53883 0
M  V30 4575 C 426.211 -4.23567 -5.81363 0
M  V30 4576 C 428.237 -3.13466 -5.01491 0
M  V30 4577 C 427.599 -4.21595 -5.64302 0
M  V30 4578 H 423.698 -0.0434945 -0.780789 0
M  V30 4579 H 426.282 -0.712495 -1.81195 0
M  V30 4580 H 424.453 0.848937 -3.79009 0
M  V30 4581 H 426.185 0.698046 -3.98634 0
M  V30 4582 H 422.94 -1.23422 -4.57235 0
M  V30 4583 H 423.364 -3.57689 -5.74794 0
M  V30 4584 H 428.006 -1.22378 -4.04702 0
M  V30 4585 H 425.724 -5.06648 -6.2955 0
M  V30 4586 H 429.31 -3.14765 -4.893 0
M  V30 4587 H 428.19 -5.04384 -6.00472 0
M  V30 4588 N 425.693 1.55336 -0.266172 0
M  V30 4589 C 426.641 2.23587 0.641228 0
M  V30 4590 C 427.635 1.22986 1.16494 0
M  V30 4591 O 428.841 1.40943 1.1196 0
M  V30 4592 H 425.216 0.717452 0.225315 0
M  V30 4593 H 427.187 2.9837 0.0426561 0
M  V30 4594 C 425.936 2.96369 1.81826 0
M  V30 4595 H 425.259 3.73563 1.42445 0
M  V30 4596 H 426.699 3.47459 2.42998 0
M  V30 4597 C 425.158 2.0133 2.70125 0
M  V30 4598 O 425.688 1.55875 3.70224 0
M  V30 4599 N 423.894 1.6802 2.37102 0
M  V30 4600 H 423.441 2.05181 1.55751 0
M  V30 4601 H 423.399 1.047 2.96454 0
M  V30 4602 N 427.171 -0.0066808 1.57599 0
M  V30 4603 C 428.419 -0.691552 1.899 0
M  V30 4604 C 428.74 -1.74682 0.866672 0
M  V30 4605 O 428.01 -1.95661 -0.0968189 0
M  V30 4606 H 426.59 -0.258416 0.700878 0
M  V30 4607 H 429.252 0.0326655 1.94873 0
M  V30 4608 H 428.348 -1.16702 2.8946 0
M  V30 4609 N 428.649 -1.55105 -0.279332 0
M  V30 4610 C 430.065 -1.46803 -0.626187 0
M  V30 4611 C 430.265 -0.676939 -1.89789 0
M  V30 4612 O 429.321 -0.19326 -2.51759 0
M  V30 4613 C 430.634 -2.90962 -0.759034 0
M  V30 4614 C 432.182 -3.01138 -0.853504 0
M  V30 4615 C 432.657 -4.46539 -1.01818 0
M  V30 4616 N 434.148 -4.50341 -1.08386 0
M  V30 4617 C 434.883 -5.60053 -1.22996 0
M  V30 4618 N 434.379 -6.79645 -1.34366 0
M  V30 4619 N 436.172 -5.47783 -1.26056 0
M  V30 4620 H 428.323 -2.04996 0.555921 0
M  V30 4621 H 430.586 -0.929325 0.187239 0
M  V30 4622 H 430.292 -3.51544 0.104852 0
M  V30 4623 H 430.166 -3.39619 -1.64131 0
M  V30 4624 H 432.553 -2.40658 -1.70786 0
M  V30 4625 H 432.634 -2.55745 0.0532466 0
M  V30 4626 H 432.278 -5.0762 -0.168504 0
M  V30 4627 H 432.208 -4.89583 -1.93948 0
M  V30 4628 H 434.699 -3.64191 -1.00864 0
M  V30 4629 H 435.012 -7.59012 -1.4533 0
M  V30 4630 H 433.357 -6.82469 -1.31382 0
M  V30 4631 H 436.548 -4.53294 -1.168 0
M  V30 4632 H 436.721 -6.33331 -1.37098 0
M  V30 4633 N 430.127 0.543554 -1.4793 0
M  V30 4634 C 431.057 1.65888 -1.64327 0
M  V30 4635 C 432.038 1.62818 -0.492383 0
M  V30 4636 O 433.223 1.80226 -0.723338 0
M  V30 4637 C 430.353 3.04506 -1.67013 0
M  V30 4638 C 429.307 3.2243 -2.81466 0
M  V30 4639 C 428.633 4.61972 -2.69233 0
M  V30 4640 C 429.933 3.06496 -4.22915 0
M  V30 4641 H 431.627 1.52421 -2.57698 0
M  V30 4642 H 429.173 0.731849 -1.24016 0
M  V30 4643 H 431.126 3.82391 -1.77074 0
M  V30 4644 H 429.85 3.18964 -0.70212 0
M  V30 4645 H 428.509 2.46957 -2.70938 0
M  V30 4646 H 428.157 4.73247 -1.7043 0
M  V30 4647 H 427.857 4.74911 -3.46025 0
M  V30 4648 H 429.381 5.41974 -2.81242 0
M  V30 4649 H 430.795 3.74186 -4.34348 0
M  V30 4650 H 429.192 3.30938 -5.006 0
M  V30 4651 H 430.262 2.03077 -4.40327 0
M  V30 4652 N 431.605 1.3629 0.791371 0
M  V30 4653 C 432.535 1.33137 1.91825 0
M  V30 4654 C 433.516 0.203168 1.68882 0
M  V30 4655 O 434.701 0.400509 1.90025 0
M  V30 4656 C 431.831 1.11793 3.28816 0
M  V30 4657 C 430.785 2.21417 3.66277 0
M  V30 4658 C 430.111 1.85218 5.01596 0
M  V30 4659 C 431.411 3.63489 3.75064 0
M  V30 4660 H 433.105 2.2743 1.9472 0
M  V30 4661 H 430.651 1.09479 0.935437 0
M  V30 4662 H 432.604 1.08222 4.07266 0
M  V30 4663 H 431.328 0.139501 3.26302 0
M  V30 4664 H 429.987 2.2411 2.90121 0
M  V30 4665 H 429.635 0.859544 4.95602 0
M  V30 4666 H 429.335 2.58611 5.27631 0
M  V30 4667 H 430.859 1.832 5.82469 0
M  V30 4668 H 432.273 3.63034 4.43711 0
M  V30 4669 H 430.67 4.35771 4.12582 0
M  V30 4670 H 431.74 3.98536 2.76219 0
M  V30 4671 N 433.083 -1.0153 1.20538 0
M  V30 4672 C 434.046 -2.0826 0.957098 0
M  V30 4673 C 435.046 -1.60657 -0.0678655 0
M  V30 4674 O 436.236 -1.73385 0.168332 0
M  V30 4675 C 433.368 -3.38033 0.441188 0
M  V30 4676 H 434.561 -2.31719 1.90384 0
M  V30 4677 H 432.114 -1.1835 1.02093 0
M  V30 4678 H 432.849 -3.20249 -0.510961 0
M  V30 4679 H 432.634 -3.73911 1.18038 0
M  V30 4680 H 434.124 -4.16613 0.287009 0
M  V30 4681 N 434.561 -1.01147 -1.20859 0
M  V30 4682 C 435.524 -0.582224 -2.21682 0
M  V30 4683 C 436.524 0.344887 -1.57058 0
M  V30 4684 O 437.714 0.134281 -1.73682 0
M  V30 4685 C 434.846 0.150496 -3.40568 0
M  V30 4686 H 436.039 -1.47408 -2.61172 0
M  V30 4687 H 433.592 -0.800695 -1.34233 0
M  V30 4688 H 434.327 1.0575 -3.06574 0
M  V30 4689 H 434.112 -0.515444 -3.88697 0
M  V30 4690 H 435.602 0.438344 -4.15293 0
M  V30 4691 N 436.039 1.36541 -0.78704 0
M  V30 4692 C 437.267 2.03561 -0.370199 0
M  V30 4693 C 437.682 1.59347 1.01263 0
M  V30 4694 O 437.039 0.781781 1.64907 0
M  V30 4695 C 437.09 3.59033 -0.421614 0
M  V30 4696 O 436.811 4.01634 -1.7499 0
M  V30 4697 C 438.312 4.433 0.00489763 0
M  V30 4698 H 435.532 0.653346 -0.152904 0
M  V30 4699 H 438.076 1.74566 -1.06522 0
M  V30 4700 H 436.231 3.86746 0.224971 0
M  V30 4701 H 436.645 4.96217 -1.69909 0
M  V30 4702 H 438.119 5.51939 -0.0822184 0
M  V30 4703 H 438.596 4.26285 1.05723 0
M  V30 4704 H 439.202 4.20843 -0.614085 0
M  V30 4705 N 437.518 0.538854 1.48102 0
M  V30 4706 C 438.765 0.0080018 2.02498 0
M  V30 4707 C 439.093 -1.33437 1.41509 0
M  V30 4708 O 438.348 -1.87709 0.553507 0
M  V30 4709 C 438.647 -0.153808 3.57069 0
M  V30 4710 C 438.313 1.11533 4.36888 0
M  V30 4711 C 436.975 1.46314 4.58417 0
M  V30 4712 C 439.327 1.95718 4.83057 0
M  V30 4713 C 436.655 2.6516 5.23361 0
M  V30 4714 C 439.007 3.13751 5.49312 0
M  V30 4715 C 437.671 3.48866 5.69077 0
M  V30 4716 H 436.941 0.00292807 0.740994 0
M  V30 4717 H 439.588 0.706668 1.77984 0
M  V30 4718 H 437.893 -0.935309 3.80472 0
M  V30 4719 H 439.59 -0.579607 3.96789 0
M  V30 4720 H 436.18 0.834484 4.20398 0
M  V30 4721 H 440.364 1.70158 4.66219 0
M  V30 4722 H 435.62 2.92558 5.36861 0
M  V30 4723 H 439.794 3.79282 5.84053 0
M  V30 4724 H 437.421 4.41054 6.19173 0
M  V30 4725 N 438.996 -1.55193 0.274407 0
M  V30 4726 C 440.224 -2.03987 -0.345943 0
M  V30 4727 C 440.639 -1.15279 -1.4952 0
M  V30 4728 O 439.996 -0.172759 -1.8168 0
M  V30 4729 C 440.047 -3.51898 -0.827631 0
M  V30 4730 O 439.768 -4.37231 0.275855 0
M  V30 4731 C 441.269 -4.16577 -1.51587 0
M  V30 4732 H 438.489 -0.666335 -0.0789892 0
M  V30 4733 H 441.033 -2.00423 0.406294 0
M  V30 4734 H 439.188 -3.55909 -1.52996 0
M  V30 4735 H 439.602 -5.24415 -0.0943638 0
M  V30 4736 H 441.076 -5.21678 -1.80433 0
M  V30 4737 H 441.553 -3.64707 -2.44716 0
M  V30 4738 H 442.159 -4.16568 -0.857409 0
M  V30 4739 N 440.474 -0.00167713 -1.576 0
M  V30 4740 C 441.404 0.988091 -2.11563 0
M  V30 4741 C 442.385 1.35736 -1.02517 0
M  V30 4742 O 443.57 1.44082 -1.30208 0
M  V30 4743 C 440.7 2.27941 -2.62031 0
M  V30 4744 C 439.654 2.0517 -3.75619 0
M  V30 4745 C 438.98 3.4033 -4.12407 0
M  V30 4746 C 440.28 1.41294 -5.02825 0
M  V30 4747 H 441.974 0.538771 -2.94513 0
M  V30 4748 H 439.52 0.257712 -1.41675 0
M  V30 4749 H 441.473 2.97539 -2.9841 0
M  V30 4750 H 440.197 2.74989 -1.76205 0
M  V30 4751 H 438.856 1.37998 -3.39635 0
M  V30 4752 H 438.504 3.85085 -3.23603 0
M  V30 4753 H 438.204 3.25909 -4.88935 0
M  V30 4754 H 439.728 4.1124 -4.51347 0
M  V30 4755 H 441.142 2.00851 -5.36965 0
M  V30 4756 H 439.539 1.37356 -5.84169 0
M  V30 4757 H 440.609 0.382362 -4.8339 0
M  V30 4758 N 441.952 1.55251 0.271103 0
M  V30 4759 C 443.201 1.75151 1.00025 0
M  V30 4760 C 443.514 0.561041 1.87381 0
M  V30 4761 O 444.72 0.642506 2.63788 0
M  V30 4762 C 443.176 3.09999 1.82835 0
M  V30 4763 C 442.784 4.3662 1.00336 0
M  V30 4764 C 444.528 3.39249 2.55168 0
M  V30 4765 C 442.435 5.62506 1.82595 0
M  V30 4766 H 441.365 0.652877 0.377183 0
M  V30 4767 H 444.016 1.81708 0.255843 0
M  V30 4768 H 442.398 2.97485 2.61378 0
M  V30 4769 H 443.572 4.60055 0.261959 0
M  V30 4770 H 441.887 4.14527 0.394486 0
M  V30 4771 H 444.484 4.3051 3.1712 0
M  V30 4772 H 444.827 2.59467 3.2555 0
M  V30 4773 H 445.36 3.52869 1.83653 0
M  V30 4774 H 442.099 6.45041 1.16631 0
M  V30 4775 H 441.619 5.43211 2.54327 0
M  V30 4776 H 443.298 6.00875 2.39913 0
M  V30 4777 N 443.43 -0.535701 1.48216 0
M  V30 4778 C 444.678 -1.28928 1.55634 0
M  V30 4779 C 444.999 -1.93645 0.229514 0
M  V30 4780 O 444.269 -1.81038 -0.74846 0
M  V30 4781 H 442.849 -0.47884 0.573342 0
M  V30 4782 H 445.511 -0.623853 1.84646 0
M  V30 4783 H 444.607 -2.07157 2.33436 0
M  V30 4784 N 444.908 -1.36708 -0.784132 0
M  V30 4785 C 446.154 -1.31426 -1.54451 0
M  V30 4786 C 446.487 0.10476 -1.93917 0
M  V30 4787 O 445.762 1.05934 -1.6312 0
M  V30 4788 C 446.045 -2.24189 -2.818 0
M  V30 4789 C 445.898 -3.74813 -2.48667 0
M  V30 4790 C 447.217 -2.15626 -3.83658 0
M  V30 4791 H 444.336 -0.478739 -0.560337 0
M  V30 4792 H 446.978 -1.67305 -0.900498 0
M  V30 4793 H 445.128 -1.93722 -3.36755 0
M  V30 4794 H 446.8 -4.15823 -1.99722 0
M  V30 4795 H 445.043 -3.93989 -1.81535 0
M  V30 4796 H 445.714 -4.35138 -3.39646 0
M  V30 4797 H 448.19 -2.42456 -3.38163 0
M  V30 4798 H 447.066 -2.82694 -4.70506 0
M  V30 4799 H 447.327 -1.14522 -4.27009 0
M  V30 4800 N 446.386 1.0089 -1.21074 0
M  V30 4801 C 447.611 1.78727 -1.05221 0
M  V30 4802 C 448.036 1.83932 0.393795 0
M  V30 4803 O 447.394 1.28004 1.28393 0
M  V30 4804 C 447.442 3.20665 -1.64944 0
M  V30 4805 O 446.546 4.02632 -0.892273 0
M  V30 4806 H 445.887 0.550973 -0.370574 0
M  V30 4807 H 448.417 1.26847 -1.60534 0
M  V30 4808 H 448.427 3.71352 -1.69002 0
M  V30 4809 H 447.102 3.16191 -2.70177 0
M  V30 4810 H 445.679 3.61207 -0.926492 0
M  V30 4811 N 447.864 1.01787 1.20321 0
M  V30 4812 C 449.111 0.707936 1.89722 0
M  V30 4813 C 449.439 -0.762535 1.78929 0
M  V30 4814 O 448.694 -1.56977 1.16861 0
M  V30 4815 C 448.993 1.09076 3.40349 0
M  V30 4816 C 448.659 2.55765 3.71342 0
M  V30 4817 C 447.321 2.95845 3.79511 0
M  V30 4818 C 449.673 3.50723 3.85542 0
M  V30 4819 C 447.001 4.2982 3.99339 0
M  V30 4820 C 449.353 4.84387 4.06881 0
M  V30 4821 C 448.017 5.24172 4.1328 0
M  V30 4822 H 447.287 0.259052 0.694243 0
M  V30 4823 H 449.934 1.27868 1.42555 0
M  V30 4824 H 448.239 0.438453 3.89339 0
M  V30 4825 H 449.936 0.828636 3.92345 0
M  V30 4826 H 446.526 2.2371 3.65584 0
M  V30 4827 H 450.71 3.20916 3.78585 0
M  V30 4828 H 445.966 4.60196 4.02529 0
M  V30 4829 H 450.14 5.57891 4.1681 0
M  V30 4830 H 447.767 6.27997 4.28396 0
M  V30 4831 N 449.342 -1.36122 0.79427 0
M  V30 4832 C 450.589 -1.99111 0.368905 0
M  V30 4833 C 450.917 -1.63032 -1.0607 0
M  V30 4834 O 450.172 -0.879303 -1.74833 0
M  V30 4835 C 450.471 -3.5409 0.48527 0
M  V30 4836 C 450.137 -4.10003 1.87638 0
M  V30 4837 C 448.799 -4.24986 2.257 0
M  V30 4838 C 451.151 -4.40423 2.78706 0
M  V30 4839 C 448.479 -4.67701 3.54221 0
M  V30 4840 C 450.831 -4.84573 4.0666 0
M  V30 4841 C 449.495 -4.97761 4.44737 0
M  V30 4842 H 448.765 -0.7286 0.134992 0
M  V30 4843 H 451.412 -1.62534 1.01267 0
M  V30 4844 H 449.717 -3.91052 -0.241984 0
M  V30 4845 H 451.414 -4.00766 0.137109 0
M  V30 4846 H 448.004 -3.98784 1.57064 0
M  V30 4847 H 452.188 -4.28412 2.50553 0
M  V30 4848 H 447.444 -4.761 3.83587 0
M  V30 4849 H 451.618 -5.07074 4.77336 0
M  V30 4850 H 449.245 -5.30618 5.44379 0
M  V30 4851 N 450.82 -0.546701 -1.47814 0
M  V30 4852 C 451.783 0.196287 -2.28358 0
M  V30 4853 C 452.783 0.852437 -1.36346 0
M  V30 4854 O 453.973 0.709913 -1.59078 0
M  V30 4855 C 451.105 1.28579 -3.15722 0
M  V30 4856 H 452.298 -0.511086 -2.95513 0
M  V30 4857 H 449.851 -0.303248 -1.5333 0
M  V30 4858 H 450.586 2.0259 -2.53235 0
M  V30 4859 H 450.371 0.820229 -3.83425 0
M  V30 4860 H 451.861 1.80793 -3.76435 0
M  V30 4861 N 452.299 1.55045 -0.282633 0
M  V30 4862 C 453.229 2.2579 0.595066 0
M  V30 4863 C 454.21 1.25074 1.15284 0
M  V30 4864 O 455.395 1.5381 1.18559 0
M  V30 4865 C 452.525 2.98472 1.77572 0
M  V30 4866 C 451.479 4.0618 1.34914 0
M  V30 4867 C 450.805 4.66477 2.6135 0
M  V30 4868 C 452.105 5.1996 0.493821 0
M  V30 4869 H 453.799 2.994 0.00505653 0
M  V30 4870 H 451.345 1.44 0.000992001 0
M  V30 4871 H 453.298 3.46677 2.39568 0
M  V30 4872 H 452.022 2.2241 2.39168 0
M  V30 4873 H 450.681 3.58797 0.752338 0
M  V30 4874 H 450.329 3.87074 3.2122 0
M  V30 4875 H 450.029 5.39207 2.33516 0
M  V30 4876 H 451.553 5.17435 3.24181 0
M  V30 4877 H 452.967 5.64172 1.01898 0
M  V30 4878 H 451.364 5.99299 0.310047 0
M  V30 4879 H 452.434 4.82462 -0.485593 0
M  V30 4880 N 453.777 0.010035 1.57597 0
M  V30 4881 C 455.188 -0.531426 1.78977 0
M  V30 4882 C 455.539 -1.73375 0.918454 0
M  V30 4883 O 454.664 -2.16047 0.123635 0
M  V30 4884 C 455.259 -0.97086 3.24592 0
M  V30 4885 C 453.818 -1.45756 3.47033 0
M  V30 4886 C 452.965 -0.413384 2.74201 0
M  V30 4887 H 455.916 0.236166 1.56933 0
M  V30 4888 H 455.937 -1.83633 3.33255 0
M  V30 4889 H 455.449 -0.0955893 3.87982 0
M  V30 4890 H 453.55 -2.35339 2.88871 0
M  V30 4891 H 453.663 -1.4781 4.55729 0
M  V30 4892 H 452.027 -0.877266 2.39115 0
M  V30 4893 H 452.81 0.453092 3.40297 0
M  V30 4894 N 455.255 -1.55392 -0.262866 0
M  V30 4895 C 456.218 -1.88181 -1.30846 0
M  V30 4896 C 457.218 -0.757079 -1.41862 0
M  V30 4897 O 458.408 -1.02519 -1.40838 0
M  V30 4898 C 455.54 -2.09609 -2.68844 0
M  V30 4899 H 456.733 -2.81659 -1.02997 0
M  V30 4900 H 454.286 -1.48039 -0.501414 0
M  V30 4901 H 455.021 -1.18547 -3.01856 0
M  V30 4902 H 454.806 -2.91508 -2.62231 0
M  V30 4903 H 456.296 -2.36215 -3.44372 0
M  V30 4904 N 456.733 0.527833 -1.48498 0
M  V30 4905 C 457.981 1.28101 -1.56316 0
M  V30 4906 C 458.302 1.9352 -0.239781 0
M  V30 4907 O 457.572 1.81433 0.738849 0
M  V30 4908 H 456.152 0.475793 -0.575873 0
M  V30 4909 H 458.814 0.614052 -1.84974 0
M  V30 4910 H 457.91 2.05916 -2.34532 0
M  V30 4911 N 458.211 1.37122 0.776871 0
M  V30 4912 C 459.46 1.31373 1.53049 0
M  V30 4913 C 459.773 -0.101016 1.95339 0
M  V30 4914 O 460.979 -0.280953 2.70042 0
M  V30 4915 C 459.435 2.30567 2.76346 0
M  V30 4916 C 459.043 3.77543 2.41175 0
M  V30 4917 C 460.787 2.33818 3.54301 0
M  V30 4918 C 458.694 4.68481 3.60943 0
M  V30 4919 H 457.624 0.488234 0.574581 0
M  V30 4920 H 460.275 1.62554 0.851372 0
M  V30 4921 H 458.657 1.92396 3.46121 0
M  V30 4922 H 459.831 4.24521 1.79216 0
M  V30 4923 H 458.146 3.77187 1.76405 0
M  V30 4924 H 460.743 2.98965 4.4331 0
M  V30 4925 H 461.086 1.3503 3.93793 0
M  V30 4926 H 461.619 2.7067 2.91518 0
M  V30 4927 H 458.358 5.68378 3.26537 0
M  V30 4928 H 457.878 4.2621 4.22025 0
M  V30 4929 H 459.557 4.85366 4.27819 0
M  V30 4930 N 459.689 -1.00246 1.21608 0
M  V30 4931 C 460.619 -2.10921 1.00172 0
M  V30 4932 C 461.6 -1.69938 -0.0741587 0
M  V30 4933 O 462.785 -1.94009 0.0861753 0
M  V30 4934 C 459.915 -3.42618 0.568355 0
M  V30 4935 C 458.869 -3.97407 1.58909 0
M  V30 4936 C 458.195 -5.25038 1.01187 0
M  V30 4937 C 459.495 -4.2918 2.97661 0
M  V30 4938 H 461.189 -2.29112 1.92739 0
M  V30 4939 H 458.735 -1.10101 0.928102 0
M  V30 4940 H 460.688 -4.19444 0.405555 0
M  V30 4941 H 459.412 -3.24227 -0.392961 0
M  V30 4942 H 458.071 -3.22703 1.73949 0
M  V30 4943 H 457.719 -5.02982 0.0421965 0
M  V30 4944 H 457.419 -5.62661 1.6937 0
M  V30 4945 H 458.943 -6.04507 0.860448 0
M  V30 4946 H 460.357 -4.96839 2.86049 0
M  V30 4947 H 458.754 -4.77952 3.6288 0
M  V30 4948 H 459.824 -3.3735 3.48315 0
M  V30 4949 N 461.167 -1.02423 -1.1978 0
M  V30 4950 C 462.415 -0.716569 -1.8897 0
M  V30 4951 C 462.736 0.756769 -1.79716 0
M  V30 4952 O 462.006 1.5449 -1.20456 0
M  V30 4953 H 460.586 -0.262062 -0.699523 0
M  V30 4954 H 463.248 -1.29747 -1.45436 0
M  V30 4955 H 462.344 -1.00675 -2.95417 0
M  V30 4956 N 462.645 1.35699 -0.801477 0
M  V30 4957 C 463.87 2.03687 -0.390678 0
M  V30 4958 C 464.295 1.60015 0.988778 0
M  V30 4959 O 463.653 0.774357 1.63931 0
M  V30 4960 C 463.701 3.57439 -0.476404 0
M  V30 4961 O 462.805 4.09208 0.512106 0
M  V30 4962 H 462.146 0.64344 -0.163956 0
M  V30 4963 H 464.676 1.73403 -1.08594 0
M  V30 4964 H 464.686 4.06544 -0.344357 0
M  V30 4965 H 463.361 3.88576 -1.48262 0
M  V30 4966 H 461.938 3.7134 0.340721 0
M  V30 4967 N 464.123 0.554532 1.47522 0
M  V30 4968 C 465.371 0.0294208 2.02079 0
M  V30 4969 C 465.692 -1.32411 1.43151 0
M  V30 4970 O 464.962 -1.863 0.605728 0
M  V30 4971 H 463.542 0.00788672 0.746958 0
M  V30 4972 H 466.204 0.723934 1.80956 0
M  V30 4973 H 465.3 -0.0606745 3.12041 0
M  V30 4974 N 465.601 -1.54893 0.290851 0
M  V30 4975 C 466.848 -1.99933 -0.321391 0
M  V30 4976 C 467.176 -1.17927 -1.54672 0
M  V30 4977 O 466.431 -0.240902 -1.94212 0
M  V30 4978 C 466.73 -3.49815 -0.732397 0
M  V30 4979 C 466.396 -4.4921 0.390056 0
M  V30 4980 C 465.058 -4.76107 0.698223 0
M  V30 4981 C 467.41 -5.08453 1.14562 0
M  V30 4982 C 464.738 -5.59514 1.76526 0
M  V30 4983 C 467.09 -5.9302 2.2025 0
M  V30 4984 C 465.754 -6.18232 2.51684 0
M  V30 4985 H 465.024 -0.731608 -0.117605 0
M  V30 4986 H 467.671 -1.87107 0.407839 0
M  V30 4987 H 465.976 -3.60199 -1.54155 0
M  V30 4988 H 467.673 -3.82083 -1.21712 0
M  V30 4989 H 464.263 -4.28372 0.13976 0
M  V30 4990 H 468.447 -4.87683 0.920801 0
M  V30 4991 H 463.703 -5.77289 2.01364 0
M  V30 4992 H 467.877 -6.37955 2.7926 0
M  V30 4993 H 465.504 -6.82653 3.34499 0
M  V30 4994 N 467.08 -0.0183926 -1.57589 0
M  V30 4995 C 468.043 0.951986 -2.08494 0
M  V30 4996 C 469.043 1.26092 -0.997874 0
M  V30 4997 O 470.233 1.20304 -1.25987 0
M  V30 4998 C 467.365 2.27165 -2.54182 0
M  V30 4999 H 468.558 0.511307 -2.95509 0
M  V30 5000 H 466.111 0.229444 -1.54607 0
M  V30 5001 H 466.846 2.75884 -1.70465 0
M  V30 5002 H 466.631 2.06057 -3.33591 0
M  V30 5003 H 468.121 2.9674 -2.93828 0
M  V30 5004 N 468.558 1.5553 0.254621 0
M  V30 5005 C 469.488 1.9268 1.31897 0
M  V30 5006 C 470.469 0.790797 1.506 0
M  V30 5007 O 471.654 1.05045 1.63337 0
M  V30 5008 C 468.784 2.21477 2.67517 0
M  V30 5009 C 467.738 3.37256 2.63519 0
M  V30 5010 C 467.064 3.51576 4.02862 0
M  V30 5011 C 468.364 4.73157 2.21179 0
M  V30 5012 H 470.058 2.81832 1.01051 0
M  V30 5013 H 467.604 1.35599 0.484662 0
M  V30 5014 H 469.557 2.46055 3.42104 0
M  V30 5015 H 468.281 1.29144 2.99982 0
M  V30 5016 H 466.94 3.12675 1.9139 0
M  V30 5017 H 466.588 2.56676 4.32581 0
M  V30 5018 H 466.288 4.2943 4.01078 0
M  V30 5019 H 467.812 3.78467 4.79161 0
M  V30 5020 H 469.226 4.97158 2.85494 0
M  V30 5021 H 467.623 5.54058 2.30521 0
M  V30 5022 H 468.693 4.70739 1.16332 0
M  V30 5023 N 470.036 -0.519951 1.48776 0
M  V30 5024 C 470.983 -1.62352 1.64044 0
M  V30 5025 C 471.953 -1.58945 0.482251 0
M  V30 5026 O 473.138 -1.77219 0.706971 0
M  V30 5027 C 470.278 -3.00579 1.69547 0
M  V30 5028 C 469.391 -3.14145 2.96541 0
M  V30 5029 C 468.526 -4.42991 2.93142 0
M  V30 5030 C 467.565 -4.50122 4.14797 0
M  V30 5031 N 466.702 -5.7037 4.09418 0
M  V30 5032 H 471.542 -1.48643 2.58281 0
M  V30 5033 H 469.079 -0.723516 1.28077 0
M  V30 5034 H 471.037 -3.80671 1.70719 0
M  V30 5035 H 469.667 -3.13036 0.787918 0
M  V30 5036 H 468.719 -2.27239 3.05068 0
M  V30 5037 H 470.031 -3.15275 3.86527 0
M  V30 5038 H 469.185 -5.31385 2.92772 0
M  V30 5039 H 467.924 -4.44398 2.00902 0
M  V30 5040 H 466.929 -3.60133 4.15433 0
M  V30 5041 H 468.154 -4.50445 5.08208 0
M  V30 5042 H 466.1 -5.72655 3.20004 0
M  V30 5043 H 466.017 -5.73036 4.93119 0
M  V30 5044 H 467.285 -6.61023 4.13121 0
M  V30 5045 N 471.514 -1.37532 -0.769588 0
M  V30 5046 C 472.76 -1.33057 -1.53048 0
M  V30 5047 C 473.093 0.0841865 -1.94017 0
M  V30 5048 O 472.368 1.04198 -1.64235 0
M  V30 5049 C 472.651 -2.27166 -2.79406 0
M  V30 5050 C 472.504 -3.77429 -2.44677 0
M  V30 5051 C 473.823 -2.19683 -3.81349 0
M  V30 5052 H 470.942 -0.484655 -0.555228 0
M  V30 5053 H 473.584 -1.68251 -0.882702 0
M  V30 5054 H 471.734 -1.97283 -3.34682 0
M  V30 5055 H 473.406 -4.17918 -1.953 0
M  V30 5056 H 471.649 -3.95892 -1.77346 0
M  V30 5057 H 472.32 -4.38716 -3.35011 0
M  V30 5058 H 474.796 -2.46029 -3.35573 0
M  V30 5059 H 473.672 -2.87668 -4.67481 0
M  V30 5060 H 473.933 -1.19045 -4.25771 0
M  V30 5061 N 472.992 0.995999 -1.22138 0
M  V30 5062 C 473.924 2.08745 -0.946485 0
M  V30 5063 C 474.937 1.62633 0.0737356 0
M  V30 5064 O 476.126 1.77782 -0.159886 0
M  V30 5065 C 473.226 3.36516 -0.401305 0
M  V30 5066 C 472.399 4.11672 -1.47801 0
M  V30 5067 C 471.458 5.17728 -0.940461 0
M  V30 5068 O 470.484 5.45482 -1.62596 0
M  V30 5069 N 471.686 5.80005 0.239723 0
M  V30 5070 H 474.451 2.32908 -1.88611 0
M  V30 5071 H 472.012 1.16152 -1.12785 0
M  V30 5072 H 474.004 4.04691 -0.0270837 0
M  V30 5073 H 472.574 3.0944 0.443354 0
M  V30 5074 H 471.794 3.38171 -2.02568 0
M  V30 5075 H 473.082 4.58657 -2.20253 0
M  V30 5076 H 472.48 5.5982 0.813518 0
M  V30 5077 H 471.037 6.4943 0.555361 0
M  V30 5078 N 474.47 1.03057 1.19235 0
M  V30 5079 C 475.38 0.622922 2.26179 0
M  V30 5080 C 476.396 -0.346113 1.70523 0
M  V30 5081 O 477.572 -0.203572 2.00369 0
M  V30 5082 C 474.637 -0.0182063 3.46695 0
M  V30 5083 C 473.698 0.998546 4.17526 0
M  V30 5084 C 472.931 0.387917 5.32288 0
M  V30 5085 O 473.154 -0.808668 5.64639 0
M  V30 5086 O 472.088 1.1116 5.91546 0
M  V30 5087 H 475.914 1.51363 2.63292 0
M  V30 5088 H 473.499 0.800856 1.26122 0
M  V30 5089 H 475.381 -0.375606 4.19723 0
M  V30 5090 H 474.056 -0.882895 3.11427 0
M  V30 5091 H 472.963 1.40756 3.4661 0
M  V30 5092 H 474.296 1.83366 4.56769 0
M  V30 5093 N 475.948 -1.35272 0.808662 0
M  V30 5094 C 476.88 -2.28507 0.178149 0
M  V30 5095 C 477.893 -1.50377 -0.623754 0
M  V30 5096 O 479.082 -1.72583 -0.455774 0
M  V30 5097 C 476.182 -3.30038 -0.769959 0
M  V30 5098 C 475.355 -4.37398 -0.0139749 0
M  V30 5099 C 474.414 -5.18775 -0.880875 0
M  V30 5100 O 473.44 -5.68236 -0.331059 0
M  V30 5101 N 474.642 -5.37087 -2.20267 0
M  V30 5102 H 477.407 -2.83255 0.979106 0
M  V30 5103 H 474.968 -1.47643 0.664308 0
M  V30 5104 H 476.96 -3.81371 -1.35418 0
M  V30 5105 H 475.53 -2.75789 -1.47171 0
M  V30 5106 H 474.75 -3.86971 0.751468 0
M  V30 5107 H 476.038 -5.06268 0.506965 0
M  V30 5108 H 475.436 -4.9855 -2.67328 0
M  V30 5109 H 473.993 -5.91593 -2.73608 0
M  V30 5110 N 477.426 -0.562348 -1.47226 0
M  V30 5111 C 478.376 0.202967 -2.27095 0
M  V30 5112 C 479.36 0.880611 -1.34663 0
M  V30 5113 O 480.552 0.778069 -1.58981 0
M  V30 5114 C 477.681 1.22906 -3.20545 0
M  V30 5115 C 476.767 0.554566 -4.20459 0
M  V30 5116 N 477.158 -0.378295 -5.04383 0
M  V30 5117 C 475.456 0.807854 -4.38623 0
M  V30 5118 C 476.157 -0.770583 -5.76573 0
M  V30 5119 N 475.133 -0.124263 -5.43458 0
M  V30 5120 H 478.935 -0.514196 -2.89367 0
M  V30 5121 H 476.449 -0.382655 -1.57827 0
M  V30 5122 H 478.446 1.79134 -3.76453 0
M  V30 5123 H 477.106 1.94726 -2.59831 0
M  V30 5124 H 478.117 -0.75274 -5.124 0
M  V30 5125 H 474.794 1.51418 -3.89075 0
M  V30 5126 H 476.184 -1.53742 -6.54074 0
M  V30 5127 N 478.904 1.54736 -0.299062 0
M  V30 5128 C 480.32 1.59507 0.0543849 0
M  V30 5129 C 480.52 1.31606 1.52585 0
M  V30 5130 O 479.576 1.08853 2.27832 0
M  V30 5131 C 480.889 2.98751 -0.34181 0
M  V30 5132 C 482.437 3.1165 -0.290414 0
M  V30 5133 C 482.912 4.53199 -0.661402 0
M  V30 5134 N 484.403 4.59114 -0.613863 0
M  V30 5135 C 485.138 5.66709 -0.873417 0
M  V30 5136 N 484.634 6.82349 -1.19884 0
M  V30 5137 N 486.427 5.56369 -0.800608 0
M  V30 5138 H 478.578 1.71133 -1.25806 0
M  V30 5139 H 480.841 0.799186 -0.509908 0
M  V30 5140 H 480.547 3.24085 -1.36608 0
M  V30 5141 H 480.421 3.75961 0.305508 0
M  V30 5142 H 482.808 2.86066 0.724605 0
M  V30 5143 H 482.889 2.366 -0.972327 0
M  V30 5144 H 482.533 4.79513 -1.67422 0
M  V30 5145 H 482.463 5.26583 0.0425612 0
M  V30 5146 H 484.954 3.76053 -0.3732 0
M  V30 5147 H 485.267 7.60326 -1.38291 0
M  V30 5148 H 483.612 6.83906 -1.23685 0
M  V30 5149 H 486.803 4.64904 -0.546045 0
M  V30 5150 H 486.976 6.40139 -1.00626 0
M  V30 5151 N 480.382 0.0267497 1.57577 0
M  V30 5152 C 481.314 -0.984594 2.06974 0
M  V30 5153 C 482.327 -1.29032 0.992705 0
M  V30 5154 O 483.516 -1.25539 1.26895 0
M  V30 5155 C 480.616 -2.31262 2.47732 0
M  V30 5156 C 479.789 -2.1924 3.78487 0
M  V30 5157 C 478.848 -3.34956 4.05821 0
M  V30 5158 O 477.874 -3.11948 4.76106 0
M  V30 5159 N 479.076 -4.58672 3.55809 0
M  V30 5160 H 481.841 -0.563143 2.94362 0
M  V30 5161 H 479.402 -0.160061 1.61107 0
M  V30 5162 H 481.394 -3.07496 2.63112 0
M  V30 5163 H 479.964 -2.65056 1.65723 0
M  V30 5164 H 479.184 -1.27747 3.72927 0
M  V30 5165 H 480.472 -2.08409 4.64158 0
M  V30 5166 H 479.87 -4.8026 2.98942 0
M  V30 5167 H 478.427 -5.32083 3.76472 0
M  V30 5168 N 481.861 -1.55662 -0.24637 0
M  V30 5169 C 482.808 -1.90361 -1.30504 0
M  V30 5170 C 483.778 -0.757905 -1.47801 0
M  V30 5171 O 484.963 -1.01161 -1.61775 0
M  V30 5172 C 482.103 -2.2042 -2.65535 0
M  V30 5173 C 481.216 -3.47799 -2.56242 0
M  V30 5174 C 480.351 -3.67426 -3.8363 0
M  V30 5175 C 479.39 -4.88403 -3.68956 0
M  V30 5176 N 478.527 -5.04548 -4.88237 0
M  V30 5177 H 483.367 -2.80645 -1.00213 0
M  V30 5178 H 480.904 -1.38924 -0.483577 0
M  V30 5179 H 482.862 -2.35853 -3.44135 0
M  V30 5180 H 481.492 -1.3334 -2.93973 0
M  V30 5181 H 480.544 -3.40694 -1.69208 0
M  V30 5182 H 481.856 -4.36544 -2.4131 0
M  V30 5183 H 481.01 -3.82821 -4.70673 0
M  V30 5184 H 479.749 -2.76914 -4.01459 0
M  V30 5185 H 478.754 -4.72984 -2.80296 0
M  V30 5186 H 479.979 -5.80375 -3.52621 0
M  V30 5187 H 477.925 -4.16974 -5.06427 0
M  V30 5188 H 477.842 -5.87384 -4.75937 0
M  V30 5189 H 479.11 -5.24355 -5.76777 0
M  V30 5190 N 483.339 0.512053 -1.4905 0
M  V30 5191 C 484.289 1.61142 -1.61298 0
M  V30 5192 C 485.273 1.53908 -0.46916 0
M  V30 5193 O 486.465 1.61625 -0.721547 0
M  V30 5194 C 483.594 2.998 -1.67256 0
M  V30 5195 C 482.68 3.12072 -2.87179 0
M  V30 5196 N 483.071 2.94263 -4.11391 0
M  V30 5197 C 481.369 3.43156 -2.84886 0
M  V30 5198 C 482.07 3.10426 -4.91946 0
M  V30 5199 N 481.046 3.38808 -4.251 0
M  V30 5200 H 484.848 1.46011 -2.55065 0
M  V30 5201 H 482.362 0.717934 -1.45669 0
M  V30 5202 H 484.359 3.78794 -1.74128 0
M  V30 5203 H 483.019 3.1601 -0.746195 0
M  V30 5204 H 484.03 2.70661 -4.41546 0
M  V30 5205 H 480.707 3.65611 -2.01581 0
M  V30 5206 H 482.097 3.01243 -6.00585 0
M  V30 5207 N 484.817 1.37938 0.762283 0
M  V30 5208 C 486.064 1.33668 1.52115 0
M  V30 5209 C 486.392 -0.0759538 1.94352 0
M  V30 5210 O 485.647 -1.05121 1.6507 0
M  V30 5211 C 485.946 2.23042 2.79261 0
M  V30 5212 C 485.612 3.71159 2.56031 0
M  V30 5213 C 484.274 4.11523 2.49404 0
M  V30 5214 C 486.626 4.64955 2.35513 0
M  V30 5215 C 483.954 5.43784 2.20263 0
M  V30 5216 C 486.306 5.97464 2.07894 0
M  V30 5217 C 484.97 6.36922 1.99718 0
M  V30 5218 H 484.24 0.489127 0.556629 0
M  V30 5219 H 486.887 1.70224 0.877262 0
M  V30 5220 H 485.192 1.79512 3.48256 0
M  V30 5221 H 486.889 2.17047 3.37182 0
M  V30 5222 H 483.479 3.39153 2.62056 0
M  V30 5223 H 487.663 4.34623 2.39617 0
M  V30 5224 H 482.919 5.73307 2.12435 0
M  V30 5225 H 487.093 6.6969 1.91019 0
M  V30 5226 H 484.72 7.39331 1.76902 0
M  V30 5227 N 486.295 -0.989507 1.22664 0
M  V30 5228 C 487.205 -2.11449 1.01619 0
M  V30 5229 C 488.221 -1.73962 -0.036545 0
M  V30 5230 O 489.397 -2.00788 0.156924 0
M  V30 5231 C 486.462 -3.41465 0.600204 0
M  V30 5232 C 485.523 -3.93033 1.72695 0
M  V30 5233 C 484.756 -5.16844 1.33071 0
M  V30 5234 O 484.979 -5.7001 0.210975 0
M  V30 5235 O 483.913 -5.6225 2.14845 0
M  V30 5236 H 487.739 -2.32088 1.9588 0
M  V30 5237 H 485.324 -1.09823 1.01289 0
M  V30 5238 H 487.206 -4.19695 0.37873 0
M  V30 5239 H 485.881 -3.22178 -0.313511 0
M  V30 5240 H 484.788 -3.15961 2.00298 0
M  V30 5241 H 486.121 -4.16758 2.61865 0
M  V30 5242 N 487.773 -1.03688 -1.18687 0
M  V30 5243 C 488.72 -0.624624 -2.22187 0
M  V30 5244 C 489.69 0.365636 -1.62026 0
M  V30 5245 O 490.875 0.260481 -1.89014 0
M  V30 5246 C 488.015 0.0101738 -3.45099 0
M  V30 5247 C 487.128 -1.02709 -4.19613 0
M  V30 5248 C 486.263 -0.361213 -5.2997 0
M  V30 5249 C 485.302 -1.38384 -5.96252 0
M  V30 5250 N 484.439 -0.743196 -6.98155 0
M  V30 5251 H 489.279 -1.51176 -2.56807 0
M  V30 5252 H 486.816 -0.75636 -1.26165 0
M  V30 5253 H 488.774 0.395528 -4.15321 0
M  V30 5254 H 487.404 0.860848 -3.1111 0
M  V30 5255 H 486.456 -1.53043 -3.48256 0
M  V30 5256 H 487.768 -1.80398 -4.65036 0
M  V30 5257 H 486.922 0.0785537 -6.06649 0
M  V30 5258 H 485.661 0.447799 -4.8564 0
M  V30 5259 H 484.666 -1.83378 -5.18317 0
M  V30 5260 H 485.891 -2.19448 -6.42666 0
M  V30 5261 H 483.837 0.0455789 -6.55984 0
M  V30 5262 H 483.754 -1.45784 -7.41811 0
M  V30 5263 H 485.022 -0.327698 -7.78811 0
M  V30 5264 N 489.251 1.34841 -0.815825 0
M  V30 5265 C 490.667 1.51543 -0.500697 0
M  V30 5266 C 490.867 1.76261 0.976444 0
M  V30 5267 O 489.923 1.8094 1.76117 0
M  V30 5268 C 491.236 2.68487 -1.35407 0
M  V30 5269 C 492.784 2.82368 -1.35046 0
M  V30 5270 C 493.259 4.02347 -2.18816 0
M  V30 5271 N 494.75 4.09542 -2.16402 0
M  V30 5272 C 495.485 5.01517 -2.77971 0
M  V30 5273 N 494.981 5.98763 -3.48503 0
M  V30 5274 N 496.774 4.94334 -2.67563 0
M  V30 5275 H 488.925 1.17055 -1.77234 0
M  V30 5276 H 491.188 0.573481 -0.754866 0
M  V30 5277 H 490.894 2.56829 -2.40274 0
M  V30 5278 H 490.768 3.63321 -1.01377 0
M  V30 5279 H 493.155 2.93471 -0.309604 0
M  V30 5280 H 493.236 1.88363 -1.73069 0
M  V30 5281 H 492.88 3.92004 -3.22948 0
M  V30 5282 H 492.81 4.95551 -1.78148 0
M  V30 5283 H 495.301 3.39932 -1.65091 0
M  V30 5284 H 495.614 6.6556 -3.92747 0
M  V30 5285 H 493.959 5.98909 -3.52609 0
M  V30 5286 H 497.15 4.1732 -2.12041 0
M  V30 5287 H 497.323 5.6582 -3.15834 0
M  V30 5288 N 490.729 0.570148 1.46925 0
M  V30 5289 C 492.145 0.23087 1.57921 0
M  V30 5290 C 492.345 -1.26676 1.56702 0
M  V30 5291 O 491.401 -2.04774 1.47729 0
M  V30 5292 C 492.714 0.868973 2.8787 0
M  V30 5293 C 494.262 0.841397 3.01479 0
M  V30 5294 C 494.737 1.45881 4.34146 0
M  V30 5295 N 496.228 1.42258 4.40814 0
M  V30 5296 C 496.963 1.8698 5.42057 0
M  V30 5297 N 496.459 2.39618 6.50042 0
M  V30 5298 N 498.252 1.77972 5.33181 0
M  V30 5299 H 490.403 1.54301 1.45962 0
M  V30 5300 H 492.666 0.644224 0.69547 0
M  V30 5301 H 492.372 1.922 2.94537 0
M  V30 5302 H 492.246 0.369682 3.75384 0
M  V30 5303 H 494.633 -0.202973 2.94401 0
M  V30 5304 H 494.714 1.37858 2.15474 0
M  V30 5305 H 494.358 2.50231 4.4198 0
M  V30 5306 H 494.288 0.896958 5.18905 0
M  V30 5307 H 496.779 1.03768 3.63374 0
M  V30 5308 H 497.092 2.71633 7.23488 0
M  V30 5309 H 495.437 2.43636 6.50897 0
M  V30 5310 H 498.628 1.36617 4.4772 0
M  V30 5311 H 498.801 2.13143 6.11943 0
M  V30 5312 N 492.207 -1.54576 0.307264 0
M  V30 5313 C 493.155 -2.25208 -0.581723 0
M  V30 5314 C 494.149 -1.26031 -1.13192 0
M  V30 5315 O 495.355 -1.43862 -1.08184 0
M  V30 5316 H 491.73 -0.723173 -0.206214 0
M  V30 5317 H 493.701 -2.98378 0.0364663 0
M  V30 5318 C 492.45 -3.01086 -1.73904 0
M  V30 5319 H 491.773 -3.77208 -1.32491 0
M  V30 5320 H 493.213 -3.5378 -2.33701 0
M  V30 5321 C 491.672 -2.08422 -2.64692 0
M  V30 5322 O 492.202 -1.65636 -3.65961 0
M  V30 5323 N 490.408 -1.74247 -2.32564 0
M  V30 5324 H 489.955 -2.09238 -1.50257 0
M  V30 5325 H 489.913 -1.12524 -2.93574 0
M  V30 5326 N 493.685 -0.035106 -1.57561 0
M  V30 5327 C 495.096 0.502885 -1.798 0
M  V30 5328 C 495.447 1.71892 -0.945921 0
M  V30 5329 O 494.572 2.15822 -0.157991 0
M  V30 5330 C 495.167 0.919097 -3.26095 0
M  V30 5331 C 493.726 1.40216 -3.49308 0
M  V30 5332 C 492.873 0.369709 -2.74824 0
M  V30 5333 H 495.824 -0.261102 -1.56537 0
M  V30 5334 H 495.845 1.78308 -3.36135 0
M  V30 5335 H 495.357 0.0338526 -3.88085 0
M  V30 5336 H 493.458 2.30714 -2.92578 0
M  V30 5337 H 493.571 1.40541 -4.58023 0
M  V30 5338 H 491.935 0.839113 -2.40481 0
M  V30 5339 H 492.718 -0.507173 -3.39533 0
M  V30 5340 N 495.163 1.55791 0.238111 0
M  V30 5341 C 496.126 1.90239 1.27835 0
M  V30 5342 C 497.126 0.779552 1.4064 0
M  V30 5343 O 498.316 1.04747 1.3919 0
M  V30 5344 C 495.448 2.13859 2.65475 0
M  V30 5345 H 496.641 2.83262 0.985034 0
M  V30 5346 H 494.194 1.48818 0.477799 0
M  V30 5347 H 494.929 1.23334 2.99932 0
M  V30 5348 H 494.714 2.95643 2.57561 0
M  V30 5349 H 496.204 2.41664 3.40571 0
M  V30 5350 N 496.642 -0.504142 1.49319 0
M  V30 5351 C 497.605 -1.5883 1.65244 0
M  V30 5352 C 498.605 -1.52009 0.524386 0
M  V30 5353 O 499.795 -1.55218 0.79077 0
M  V30 5354 C 496.927 -2.98481 1.64687 0
M  V30 5355 H 498.12 -1.4604 2.61939 0
M  V30 5356 H 495.673 -0.728144 1.38303 0
M  V30 5357 H 496.408 -3.16751 0.695644 0
M  V30 5358 H 496.193 -3.0484 2.46607 0
M  V30 5359 H 497.683 -3.77256 1.79075 0
M  V30 5360 N 498.12 -1.38341 -0.754957 0
M  V30 5361 C 499.368 -1.34208 -1.51105 0
M  V30 5362 C 499.689 0.0677634 -1.94882 0
M  V30 5363 O 498.959 1.01517 -1.67544 0
M  V30 5364 H 497.539 -0.493819 -0.560493 0
M  V30 5365 H 500.201 -1.73005 -0.897507 0
M  V30 5366 H 499.297 -1.99203 -2.4026 0
M  V30 5367 N 499.598 0.982988 -1.23187 0
M  V30 5368 C 500.528 2.09301 -1.03515 0
M  V30 5369 C 501.509 1.70035 0.0471136 0
M  V30 5370 O 502.694 1.93847 -0.117029 0
M  V30 5371 C 499.824 3.4167 -0.622791 0
M  V30 5372 C 498.778 3.94828 -1.65211 0
M  V30 5373 C 498.104 5.23362 -1.09527 0
M  V30 5374 C 499.404 4.2439 -3.04451 0
M  V30 5375 H 501.098 2.26016 -1.96359 0
M  V30 5376 H 498.644 1.08611 -0.945501 0
M  V30 5377 H 500.597 4.18746 -0.472233 0
M  V30 5378 H 499.321 3.24811 0.341329 0
M  V30 5379 H 497.98 3.19895 -1.79061 0
M  V30 5380 H 497.628 5.02852 -0.122211 0
M  V30 5381 H 497.328 5.59895 -1.783 0
M  V30 5382 H 498.852 6.03062 -0.956511 0
M  V30 5383 H 500.266 4.92225 -2.93917 0
M  V30 5384 H 498.663 4.72118 -3.70438 0
M  V30 5385 H 499.733 3.31765 -3.53638 0
M  V30 5386 N 501.076 1.04316 1.18135 0
M  V30 5387 C 502.325 0.74319 1.87509 0
M  V30 5388 C 502.638 -0.732136 1.81381 0
M  V30 5389 O 503.844 -1.14572 2.46141 0
M  V30 5390 C 502.3 1.27913 3.36402 0
M  V30 5391 C 501.908 2.78326 3.51053 0
M  V30 5392 C 503.652 1.0558 4.11161 0
M  V30 5393 C 501.559 3.25266 4.93919 0
M  V30 5394 H 500.489 0.274313 0.702331 0
M  V30 5395 H 503.14 1.25931 1.33467 0
M  V30 5396 H 501.522 0.690853 3.89927 0
M  V30 5397 H 502.696 3.42933 3.07788 0
M  V30 5398 H 501.011 2.991 2.89704 0
M  V30 5399 H 503.608 1.38161 5.16542 0
M  V30 5400 H 503.951 -0.00684729 4.16299 0
M  V30 5401 H 504.484 1.60882 3.63816 0
M  V30 5402 H 501.223 4.30922 4.9395 0
M  V30 5403 H 500.743 2.65396 5.3789 0
M  V30 5404 H 502.422 3.19433 5.62647 0
M  V30 5405 N 502.554 -1.34406 0.822964 0
M  V30 5406 C 503.486 -2.28305 0.202375 0
M  V30 5407 C 504.499 -1.5103 -0.60777 0
M  V30 5408 O 505.688 -1.73057 -0.437444 0
M  V30 5409 C 502.788 -3.30836 -0.734911 0
M  V30 5410 C 501.961 -4.37388 0.0324177 0
M  V30 5411 C 501.02 -5.1968 -0.825803 0
M  V30 5412 O 500.046 -5.68556 -0.270771 0
M  V30 5413 N 501.248 -5.39393 -2.14558 0
M  V30 5414 H 504.013 -2.82201 1.00909 0
M  V30 5415 H 501.574 -1.4693 0.67993 0
M  V30 5416 H 503.566 -3.82786 -1.31365 0
M  V30 5417 H 502.136 -2.77334 -1.44238 0
M  V30 5418 H 501.356 -3.86152 0.792469 0
M  V30 5419 H 502.644 -5.05702 0.560633 0
M  V30 5420 H 502.042 -5.01357 -2.62025 0
M  V30 5421 H 500.599 -5.94461 -2.67318 0
M  V30 5422 N 504.032 -0.577932 -1.46621 0
M  V30 5423 C 505.257 -0.0652536 -2.07297 0
M  V30 5424 C 505.682 1.22828 -1.4246 0
M  V30 5425 O 505.04 1.74075 -0.506718 0
M  V30 5426 C 505.088 0.0920589 -3.60482 0
M  V30 5427 O 504.192 1.14972 -3.96049 0
M  V30 5428 H 503.533 -0.06065 -0.661224 0
M  V30 5429 H 506.063 -0.799515 -1.88332 0
M  V30 5430 H 506.073 0.299741 -4.06897 0
M  V30 5431 H 504.748 -0.852612 -4.07067 0
M  V30 5432 H 503.325 0.920879 -3.61351 0
M  V30 5433 N 505.51 1.54411 -0.315457 0
M  V30 5434 C 506.473 2.22713 0.54142 0
M  V30 5435 C 507.473 1.2179 1.04995 0
M  V30 5436 O 508.663 1.46426 0.943667 0
M  V30 5437 C 505.795 2.92485 1.75116 0
M  V30 5438 H 506.988 2.99849 -0.0555508 0
M  V30 5439 H 504.541 1.56159 -0.0664453 0
M  V30 5440 H 505.276 2.19466 2.38758 0
M  V30 5441 H 505.061 3.66483 1.39401 0
M  V30 5442 H 506.551 3.44548 2.35959 0
M  V30 5443 N 506.988 0.0434614 1.5754 0
M  V30 5444 C 508.234 -0.627109 1.93491 0
M  V30 5445 C 508.589 -1.68904 0.921362 0
M  V30 5446 O 507.882 -1.91504 -0.0605799 0
M  V30 5447 C 508.076 -1.2738 3.3393 0
M  V30 5448 C 507.905 -0.27603 4.48852 0
M  V30 5449 C 506.675 0.129244 5.05135 0
M  V30 5450 C 508.873 0.475462 5.12098 0
M  V30 5451 N 506.855 1.12068 6.03584 0
M  V30 5452 C 508.226 1.32021 6.05781 0
M  V30 5453 C 510.281 0.534611 4.95022 0
M  V30 5454 C 508.984 2.2188 6.84223 0
M  V30 5455 C 511.01 1.42059 5.74085 0
M  V30 5456 C 510.372 2.25309 6.67394 0
M  V30 5457 H 506.471 -0.201354 0.755633 0
M  V30 5458 H 509.055 0.113991 1.94366 0
M  V30 5459 H 507.226 -1.98496 3.33847 0
M  V30 5460 H 508.958 -1.90255 3.57191 0
M  V30 5461 H 505.713 -0.248145 4.72949 0
M  V30 5462 H 506.137 1.61306 6.57502 0
M  V30 5463 H 510.779 -0.0947817 4.22694 0
M  V30 5464 H 508.497 2.85868 7.55847 0
M  V30 5465 H 512.083 1.47083 5.62901 0
M  V30 5466 H 510.963 2.92754 7.27506 0
M  V30 5467 N 508.466 -1.55915 -0.229846 0
M  V30 5468 C 509.882 -1.48721 -0.579166 0
M  V30 5469 C 510.082 -0.736976 -1.87539 0
M  V30 5470 O 509.138 -0.273258 -2.51017 0
M  V30 5471 C 510.451 -2.9323 -0.666082 0
M  V30 5472 C 511.999 -3.03701 -0.757267 0
M  V30 5473 C 512.474 -4.49552 -0.8756 0
M  V30 5474 N 513.965 -4.53561 -0.940035 0
M  V30 5475 C 514.7 -5.63683 -1.05116 0
M  V30 5476 N 514.196 -6.83576 -1.12675 0
M  V30 5477 N 515.989 -5.51516 -1.08565 0
M  V30 5478 H 508.14 -2.03123 0.620857 0
M  V30 5479 H 510.403 -0.922898 0.21671 0
M  V30 5480 H 510.109 -3.51032 0.21664 0
M  V30 5481 H 509.983 -3.44668 -1.53243 0
M  V30 5482 H 512.37 -2.45969 -1.63043 0
M  V30 5483 H 512.451 -2.55446 0.134583 0
M  V30 5484 H 512.095 -5.079 -0.00692351 0
M  V30 5485 H 512.025 -4.95506 -1.78274 0
M  V30 5486 H 514.516 -3.67215 -0.892269 0
M  V30 5487 H 514.829 -7.63251 -1.21109 0
M  V30 5488 H 513.174 -6.86303 -1.09603 0
M  V30 5489 H 516.365 -4.5678 -1.02319 0
M  V30 5490 H 516.538 -6.37372 -1.1688 0
M  V30 5491 N 509.944 0.496216 -1.49584 0
M  V30 5492 C 511.191 1.25003 -1.59312 0
M  V30 5493 C 511.519 1.92445 -0.28198 0
M  V30 5494 O 510.774 1.81557 0.730452 0
M  V30 5495 C 511.073 2.3359 -2.705 0
M  V30 5496 C 510.739 1.83574 -4.11839 0
M  V30 5497 C 509.401 1.69653 -4.50302 0
M  V30 5498 C 511.753 1.46193 -5.00277 0
M  V30 5499 C 509.081 1.16736 -5.74969 0
M  V30 5500 C 511.433 0.947265 -6.25468 0
M  V30 5501 C 510.097 0.794485 -6.62755 0
M  V30 5502 H 509.367 0.45742 -0.582965 0
M  V30 5503 H 512.014 0.549996 -1.83432 0
M  V30 5504 H 510.319 3.09401 -2.40371 0
M  V30 5505 H 512.016 2.91627 -2.75235 0
M  V30 5506 H 508.606 1.9537 -3.81482 0
M  V30 5507 H 512.79 1.55793 -4.71214 0
M  V30 5508 H 508.046 1.03623 -6.02555 0
M  V30 5509 H 512.22 0.648846 -6.93371 0
M  V30 5510 H 509.847 0.382271 -7.59238 0
M  V30 5511 N 511.423 1.38739 0.74761 0
M  V30 5512 C 512.653 1.3832 1.53464 0
M  V30 5513 C 513.061 -0.0273464 1.8918 0
M  V30 5514 O 512.404 -1.00588 1.53713 0
M  V30 5515 C 512.466 2.18007 2.85855 0
M  V30 5516 C 512.13 3.66762 2.72644 0
M  V30 5517 C 513.127 4.60124 2.42037 0
M  V30 5518 C 510.812 4.10193 2.89909 0
M  V30 5519 C 512.806 5.94897 2.28859 0
M  V30 5520 C 510.493 5.45045 2.7635 0
M  V30 5521 C 511.491 6.37211 2.45869 0
M  V30 5522 O 511.179 7.69581 2.3238 0
M  V30 5523 H 510.911 0.474718 0.481268 0
M  V30 5524 H 513.465 1.83012 0.932518 0
M  V30 5525 H 511.695 1.68043 3.48279 0
M  V30 5526 H 513.384 2.09921 3.47402 0
M  V30 5527 H 514.15 4.27874 2.28361 0
M  V30 5528 H 510.029 3.38797 3.1263 0
M  V30 5529 H 513.573 6.66802 2.04989 0
M  V30 5530 H 509.47 5.76889 2.89601 0
M  V30 5531 H 510.238 7.80169 2.47546 0
M  V30 5532 N 512.901 -0.976442 1.23707 0
M  V30 5533 C 513.864 -2.0511 1.02287 0
M  V30 5534 C 514.864 -1.60791 -0.0167195 0
M  V30 5535 O 516.054 -1.72761 0.223408 0
M  V30 5536 C 513.186 -3.36458 0.548507 0
M  V30 5537 H 514.379 -2.25545 1.9766 0
M  V30 5538 H 511.932 -1.15042 1.05806 0
M  V30 5539 H 512.667 -3.21713 -0.408818 0
M  V30 5540 H 512.452 -3.69967 1.29874 0
M  V30 5541 H 513.942 -4.15489 0.419406 0
M  V30 5542 N 514.379 -1.04941 -1.1758 0
M  V30 5543 C 515.607 -0.778294 -1.91703 0
M  V30 5544 C 516.022 0.665697 -1.76675 0
M  V30 5545 O 515.379 1.45456 -1.10222 0
M  V30 5546 C 515.43 -1.14628 -3.42845 0
M  V30 5547 O 515.151 -2.53359 -3.57409 0
M  V30 5548 C 516.652 -0.900931 -4.34049 0
M  V30 5549 H 513.872 -0.283167 -0.608323 0
M  V30 5550 H 516.416 -1.39942 -1.49119 0
M  V30 5551 H 514.571 -0.569953 -3.83184 0
M  V30 5552 H 514.985 -2.67709 -4.51035 0
M  V30 5553 H 516.459 -1.20817 -5.38616 0
M  V30 5554 H 516.936 0.163966 -4.38894 0
M  V30 5555 H 517.542 -1.46097 -3.99419 0
M  V30 5556 N 515.857 1.33968 -0.830081 0
M  V30 5557 C 516.805 2.31301 -0.245435 0
M  V30 5558 C 517.799 1.57734 0.617762 0
M  V30 5559 O 519.005 1.72674 0.508303 0
M  V30 5560 H 515.38 0.749552 -0.0606316 0
M  V30 5561 H 517.351 2.78129 -1.08105 0
M  V30 5562 C 516.1 3.42961 0.572084 0
M  V30 5563 H 515.423 3.99714 -0.0828118 0
M  V30 5564 H 516.863 4.13286 0.94715 0
M  V30 5565 C 515.322 2.88043 1.74737 0
M  V30 5566 O 515.852 2.83508 2.8458 0
M  V30 5567 N 514.058 2.44768 1.56642 0
M  V30 5568 H 513.605 2.48656 0.672901 0
M  V30 5569 H 513.563 2.08375 2.3543 0
M  V30 5570 N 517.335 0.585699 1.46312 0
M  V30 5571 C 518.265 -0.133556 2.33118 0
M  V30 5572 C 519.246 -0.880707 1.45525 0
M  V30 5573 O 520.431 -0.855579 1.74337 0
M  V30 5574 C 517.561 -1.14585 3.27853 0
M  V30 5575 C 516.515 -0.513341 4.2491 0
M  V30 5576 C 515.841 -1.63231 5.09175 0
M  V30 5577 C 517.141 0.551413 5.19381 0
M  V30 5578 H 518.835 0.59121 2.93505 0
M  V30 5579 H 516.381 0.285761 1.41136 0
M  V30 5580 H 518.334 -1.65741 3.87438 0
M  V30 5581 H 517.058 -1.90093 2.65579 0
M  V30 5582 H 515.717 -0.0228349 3.66593 0
M  V30 5583 H 515.365 -2.37713 4.43285 0
M  V30 5584 H 515.065 -1.21473 5.74907 0
M  V30 5585 H 516.589 -2.14658 5.71624 0
M  V30 5586 H 518.003 0.124804 5.73164 0
M  V30 5587 H 516.4 0.889486 5.93471 0
M  V30 5588 H 517.47 1.43655 4.63132 0
M  V30 5589 N 518.813 -1.54241 0.323641 0
M  V30 5590 C 520.038 -2.05452 -0.283605 0
M  V30 5591 C 520.463 -1.19823 -1.44997 0
M  V30 5592 O 519.821 -0.207358 -1.8011 0
M  V30 5593 C 519.869 -3.53823 -0.695795 0
M  V30 5594 O 518.973 -3.71134 -1.79815 0
M  V30 5595 H 518.314 -0.662024 -0.0511917 0
M  V30 5596 H 520.844 -1.99079 0.472073 0
M  V30 5597 H 520.854 -3.96094 -0.978434 0
M  V30 5598 H 519.529 -4.15602 0.157287 0
M  V30 5599 H 518.106 -3.40768 -1.51431 0
M  V30 5600 N 520.291 -0.0518155 -1.57515 0
M  V30 5601 C 521.707 0.304735 -1.56664 0
M  V30 5602 C 521.907 1.71395 -1.05953 0
M  V30 5603 O 520.963 2.42123 -0.716414 0
M  V30 5604 C 522.276 0.132614 -3.00407 0
M  V30 5605 C 523.824 0.20367 -3.12337 0
M  V30 5606 C 524.299 0.0600706 -4.57961 0
M  V30 5607 N 525.79 0.116326 -4.63054 0
M  V30 5608 C 526.525 0.0293363 -5.73392 0
M  V30 5609 N 526.021 -0.110038 -6.92713 0
M  V30 5610 N 527.814 0.0849651 -5.62036 0
M  V30 5611 H 519.965 -0.973056 -1.888 0
M  V30 5612 H 522.228 -0.377781 -0.869474 0
M  V30 5613 H 521.934 -0.839019 -3.41546 0
M  V30 5614 H 521.808 0.893376 -3.66468 0
M  V30 5615 H 524.195 1.16578 -2.71097 0
M  V30 5616 H 524.276 -0.587857 -2.48954 0
M  V30 5617 H 523.92 -0.898715 -4.99886 0
M  V30 5618 H 523.85 0.87075 -5.19351 0
M  V30 5619 H 526.341 0.22327 -3.7724 0
M  V30 5620 H 526.654 -0.169104 -7.72615 0
M  V30 5621 H 524.999 -0.145132 -6.94848 0
M  V30 5622 H 528.19 0.192411 -4.67704 0
M  V30 5623 H 528.363 0.0137131 -6.47999 0
M  V30 5624 N 521.769 1.56035 0.221574 0
M  V30 5625 C 522.997 1.8313 0.962864 0
M  V30 5626 C 523.412 0.630934 1.77946 0
M  V30 5627 O 522.769 -0.400519 1.78051 0
M  V30 5628 C 522.82 3.08742 1.88045 0
M  V30 5629 O 522.541 4.24147 1.09686 0
M  V30 5630 C 524.042 3.48824 2.73563 0
M  V30 5631 H 521.262 0.608775 0.282194 0
M  V30 5632 H 523.806 2.03124 0.23681 0
M  V30 5633 H 521.961 2.90723 2.56045 0
M  V30 5634 H 522.375 4.95505 1.71974 0
M  V30 5635 H 523.849 4.39752 3.3365 0
M  V30 5636 H 524.326 2.70575 3.45956 0
M  V30 5637 H 524.932 3.69282 2.10976 0
M  V30 5638 N 523.247 -0.488276 1.49845 0
M  V30 5639 C 524.524 -1.24959 1.50481 0
M  V30 5640 C 524.904 -2.09735 0.239698 0
M  V30 5641 O 524.252 -2.14865 -0.777524 0
M  V30 5642 C 524.462 -2.0954 2.79095 0
M  V30 5643 C 525.81 -2.68305 3.29086 0
M  V30 5644 O 526.834 -2.19797 2.80299 0
M  V30 5645 O 525.693 -3.56643 4.14087 0
M  V30 5646 H 522.787 -0.566133 0.602845 0
M  V30 5647 H 525.333 -0.501504 1.6212 0
M  V30 5648 H 524.105 -1.46958 3.62656 0
M  V30 5649 H 523.728 -2.91517 2.70377 0
M  V30 5650 N 524.725 -1.39134 -0.740242 0
M  V30 5651 C 525.655 -1.40165 -1.86751 0
M  V30 5652 C 526.636 -0.265708 -1.68012 0
M  V30 5653 O 527.821 -0.47076 -1.88408 0
M  V30 5654 C 524.951 -1.2392 -3.2444 0
M  V30 5655 C 523.905 -2.34858 -3.57807 0
M  V30 5656 C 523.231 -2.03707 -4.94376 0
M  V30 5657 C 524.531 -3.77159 -3.61315 0
M  V30 5658 H 526.225 -2.345 -1.86145 0
M  V30 5659 H 523.771 -1.12875 -0.89416 0
M  V30 5660 H 525.724 -1.23263 -4.02969 0
M  V30 5661 H 524.448 -0.26051 -3.25559 0
M  V30 5662 H 523.107 -2.34723 -2.81604 0
M  V30 5663 H 522.755 -1.04289 -4.9207 0
M  V30 5664 H 522.455 -2.78016 -5.17669 0
M  V30 5665 H 523.979 -2.04691 -5.75268 0
M  V30 5666 H 525.393 -3.79252 -4.29931 0
M  V30 5667 H 523.79 -4.50784 -3.96124 0
M  V30 5668 H 524.86 -4.08513 -2.61238 0
M  V30 5669 N 526.204 0.969867 -1.24223 0
M  V30 5670 C 527.154 2.04913 -0.999732 0
M  V30 5671 C 528.138 1.60795 0.0580636 0
M  V30 5672 O 529.33 1.76317 -0.155392 0
M  V30 5673 C 526.459 3.37942 -0.604154 0
M  V30 5674 C 525.545 3.88628 -1.69791 0
M  V30 5675 N 525.936 4.12274 -2.93025 0
M  V30 5676 C 524.234 4.17268 -1.57492 0
M  V30 5677 C 524.935 4.53808 -3.63914 0
M  V30 5678 N 523.911 4.58855 -2.91468 0
M  V30 5679 H 527.713 2.21168 -1.93551 0
M  V30 5680 H 525.227 1.15349 -1.14317 0
M  V30 5681 H 527.224 4.14863 -0.411665 0
M  V30 5682 H 525.884 3.23075 0.324465 0
M  V30 5683 H 526.895 3.99789 -3.29225 0
M  V30 5684 H 523.572 4.11346 -0.714175 0
M  V30 5685 H 524.962 4.80534 -4.69614 0
M  V30 5686 N 527.682 1.05563 1.17022 0
M  V30 5687 C 528.907 0.788437 1.91829 0
M  V30 5688 C 529.332 -0.650356 1.76499 0
M  V30 5689 O 528.69 -1.45229 1.08527 0
M  V30 5690 C 528.738 1.1786 3.40795 0
M  V30 5691 O 527.842 0.312965 4.11211 0
M  V30 5692 H 527.183 0.288794 0.597908 0
M  V30 5693 H 529.713 1.40948 1.48307 0
M  V30 5694 H 529.723 1.14697 3.91546 0
M  V30 5695 H 528.398 2.22666 3.51273 0
M  V30 5696 H 526.975 0.405515 3.70689 0
M  V30 5697 N 529.16 -1.33526 0.837174 0
M  V30 5698 C 530.388 -2.02047 0.445494 0
M  V30 5699 C 530.803 -1.62995 -0.952788 0
M  V30 5700 O 530.16 -0.842447 -1.61892 0
M  V30 5701 C 530.211 -3.57221 0.554577 0
M  V30 5702 O 529.932 -3.94863 1.89776 0
M  V30 5703 C 531.433 -4.43012 0.159634 0
M  V30 5704 H 528.653 -0.647221 0.177048 0
M  V30 5705 H 531.197 -1.70492 1.12928 0
M  V30 5706 H 529.352 -3.87315 -0.0812781 0
M  V30 5707 H 529.766 -4.89569 1.88208 0
M  V30 5708 H 531.24 -5.51253 0.28701 0
M  V30 5709 H 531.717 -4.29916 -0.898289 0
M  V30 5710 H 532.323 -4.18274 0.769855 0
M  V30 5711 N 530.638 -0.59345 -1.46 0
M  V30 5712 C 531.884 -0.0916503 -2.03193 0
M  V30 5713 C 532.239 1.25839 -1.45541 0
M  V30 5714 O 531.532 1.81455 -0.615191 0
M  V30 5715 C 531.726 0.021178 -3.57394 0
M  V30 5716 C 531.555 -1.31638 -4.30002 0
M  V30 5717 C 530.325 -1.89336 -4.68487 0
M  V30 5718 C 532.523 -2.242 -4.62859 0
M  V30 5719 N 530.505 -3.1672 -5.25891 0
M  V30 5720 C 531.876 -3.36175 -5.20948 0
M  V30 5721 C 533.931 -2.23748 -4.44794 0
M  V30 5722 C 532.634 -4.47844 -5.62875 0
M  V30 5723 C 534.66 -3.34454 -4.87744 0
M  V30 5724 C 534.022 -4.4515 -5.45913 0
M  V30 5725 H 530.121 -0.0765713 -0.778242 0
M  V30 5726 H 532.705 -0.788705 -1.7801 0
M  V30 5727 H 530.876 0.687423 -3.82268 0
M  V30 5728 H 532.608 0.528343 -4.01236 0
M  V30 5729 H 529.363 -1.42704 -4.51589 0
M  V30 5730 H 529.787 -3.81746 -5.59106 0
M  V30 5731 H 534.429 -1.39433 -3.99147 0
M  V30 5732 H 532.147 -5.32894 -6.07495 0
M  V30 5733 H 535.733 -3.35234 -4.75509 0
M  V30 5734 H 534.613 -5.29398 -5.78539 0
M  V30 5735 N 532.116 1.54067 -0.331816 0
M  V30 5736 C 533.048 2.22139 0.564538 0
M  V30 5737 C 534.061 1.22408 1.07332 0
M  V30 5738 O 535.25 1.4883 0.985481 0
M  V30 5739 C 532.35 2.87876 1.78831 0
M  V30 5740 C 531.523 4.13817 1.41682 0
M  V30 5741 C 530.582 4.63072 2.49901 0
M  V30 5742 O 529.608 5.27562 2.13699 0
M  V30 5743 N 530.81 4.38001 3.80967 0
M  V30 5744 H 533.575 2.99694 -0.0183736 0
M  V30 5745 H 531.136 1.61153 -0.155396 0
M  V30 5746 H 533.128 3.17747 2.50637 0
M  V30 5747 H 531.698 2.13977 2.27887 0
M  V30 5748 H 530.918 3.9062 0.530044 0
M  V30 5749 H 532.206 4.95762 1.14443 0
M  V30 5750 H 531.604 3.864 4.13173 0
M  V30 5751 H 530.161 4.72507 4.48977 0
M  V30 5752 N 533.594 0.0601682 1.57485 0
M  V30 5753 C 534.824 -0.620037 1.97076 0
M  V30 5754 C 535.232 -1.64381 0.936784 0
M  V30 5755 O 534.575 -1.83497 -0.0863377 0
M  V30 5756 C 534.637 -1.35617 3.32939 0
M  V30 5757 C 534.301 -0.487208 4.54396 0
M  V30 5758 C 535.298 0.250428 5.19297 0
M  V30 5759 C 532.983 -0.415494 5.00579 0
M  V30 5760 C 534.977 1.04812 6.28723 0
M  V30 5761 C 532.664 0.385879 6.0988 0
M  V30 5762 C 533.662 1.11637 6.73815 0
M  V30 5763 O 533.35 1.90454 7.81014 0
M  V30 5764 H 533.082 -0.173664 0.653312 0
M  V30 5765 H 535.636 0.1256 2.05016 0
M  V30 5766 H 533.866 -2.14763 3.2158 0
M  V30 5767 H 535.555 -1.92749 3.57215 0
M  V30 5768 H 536.321 0.204546 4.84568 0
M  V30 5769 H 532.2 -0.973679 4.506 0
M  V30 5770 H 535.744 1.6188 6.78558 0
M  V30 5771 H 531.641 0.433366 6.44044 0
M  V30 5772 H 532.409 1.82762 7.97835 0
M  V30 5773 N 535.072 -1.5615 -0.213296 0
M  V30 5774 C 536.302 -1.83372 -0.951757 0
M  V30 5775 C 536.71 -0.638158 -1.78113 0
M  V30 5776 O 536.053 0.402609 -1.79234 0
M  V30 5777 C 536.115 -3.04444 -1.91192 0
M  V30 5778 C 535.779 -4.39107 -1.26627 0
M  V30 5779 C 536.776 -5.15794 -0.652087 0
M  V30 5780 C 534.461 -4.85834 -1.27556 0
M  V30 5781 C 536.455 -6.37376 -0.055814 0
M  V30 5782 C 534.142 -6.07356 -0.675451 0
M  V30 5783 C 535.14 -6.82967 -0.0666367 0
M  V30 5784 O 534.828 -8.0219 0.524119 0
M  V30 5785 H 534.56 -0.613398 -0.284111 0
M  V30 5786 H 537.114 -2.04096 -0.231112 0
M  V30 5787 H 535.344 -2.79559 -2.67178 0
M  V30 5788 H 537.033 -3.18466 -2.51662 0
M  V30 5789 H 537.799 -4.80796 -0.637172 0
M  V30 5790 H 533.678 -4.26949 -1.73883 0
M  V30 5791 H 537.222 -6.96334 0.420004 0
M  V30 5792 H 533.119 -6.41825 -0.687806 0
M  V30 5793 H 533.887 -8.17426 0.419243 0
M  V30 5794 N 536.55 0.480323 -1.50102 0
M  V30 5795 C 537.46 1.60547 -1.71061 0
M  V30 5796 C 538.476 1.63564 -0.593529 0
M  V30 5797 O 539.652 1.81604 -0.870751 0
M  V30 5798 C 536.717 2.96814 -1.79171 0
M  V30 5799 C 535.778 3.04259 -3.02861 0
M  V30 5800 C 535.011 4.34027 -3.10574 0
M  V30 5801 O 535.234 5.24009 -2.25323 0
M  V30 5802 O 534.168 4.46873 -4.03223 0
M  V30 5803 H 537.994 1.45788 -2.6642 0
M  V30 5804 H 535.579 0.658838 -1.34088 0
M  V30 5805 H 537.461 3.77765 -1.86738 0
M  V30 5806 H 536.136 3.11791 -0.869947 0
M  V30 5807 H 535.043 2.22419 -3.008 0
M  V30 5808 H 536.376 2.94216 -3.94586 0
M  V30 5809 N 538.028 1.39524 0.732853 0
M  V30 5810 C 539.444 1.21176 1.03868 0
M  V30 5811 C 539.644 0.0748448 2.01361 0
M  V30 5812 O 538.7 -0.57281 2.45917 0
M  V30 5813 C 540.013 2.54667 1.59892 0
M  V30 5814 C 541.561 2.6153 1.71962 0
M  V30 5815 C 542.036 3.95248 2.31394 0
M  V30 5816 N 543.527 3.96899 2.38801 0
M  V30 5817 C 544.262 4.97138 2.85729 0
M  V30 5818 N 543.758 6.07775 3.32537 0
M  V30 5819 N 545.551 4.84516 2.84957 0
M  V30 5820 H 537.702 2.12225 0.086304 0
M  V30 5821 H 539.965 0.942614 0.100907 0
M  V30 5822 H 539.671 3.38423 0.95721 0
M  V30 5823 H 539.545 2.74538 2.58668 0
M  V30 5824 H 541.932 1.78156 2.35254 0
M  V30 5825 H 542.013 2.45507 0.718327 0
M  V30 5826 H 541.657 4.79054 1.68729 0
M  V30 5827 H 541.587 4.08593 3.32204 0
M  V30 5828 H 544.078 3.16998 2.05719 0
M  V30 5829 H 544.391 6.8017 3.66862 0
M  V30 5830 H 542.736 6.11366 3.30541 0
M  V30 5831 H 545.927 3.97185 2.47713 0
M  V30 5832 H 546.1 5.62783 3.21215 0
M  V30 5833 N 539.506 -0.963266 1.24736 0
M  V30 5834 C 540.734 -1.74166 1.11686 0
M  V30 5835 C 541.149 -1.8589 -0.330187 0
M  V30 5836 O 540.506 -1.35042 -1.2276 0
M  V30 5837 C 540.557 -3.15989 1.75595 0
M  V30 5838 O 540.278 -3.04847 3.14642 0
M  V30 5839 C 541.779 -4.10145 1.68213 0
M  V30 5840 H 538.999 -0.546031 0.389989 0
M  V30 5841 H 541.543 -1.20907 1.64929 0
M  V30 5842 H 539.698 -3.66219 1.26343 0
M  V30 5843 H 540.112 -3.9425 3.4593 0
M  V30 5844 H 541.586 -5.07299 2.17604 0
M  V30 5845 H 542.063 -4.3445 0.644208 0
M  V30 5846 H 542.669 -3.65827 2.16912 0
M  V30 5847 N 540.985 -1.06182 -1.16461 0
M  V30 5848 C 542.231 -0.779015 -1.87241 0
M  V30 5849 C 542.564 0.692715 -1.81425 0
M  V30 5850 O 541.839 1.5074 -1.22913 0
M  V30 5851 C 542.122 -1.2728 -3.36856 0
M  V30 5852 C 541.975 -2.80821 -3.51368 0
M  V30 5853 C 543.294 -0.879799 -4.31216 0
M  V30 5854 H 540.413 -0.284464 -0.679889 0
M  V30 5855 H 543.055 -1.31755 -1.36896 0
M  V30 5856 H 541.205 -0.814673 -3.79862 0
M  V30 5857 H 542.877 -3.34833 -3.17308 0
M  V30 5858 H 541.12 -3.19606 -2.93316 0
M  V30 5859 H 541.791 -3.10435 -4.56436 0
M  V30 5860 H 544.267 -1.27436 -3.96105 0
M  V30 5861 H 543.143 -1.25278 -5.34412 0
M  V30 5862 H 543.404 0.215372 -4.41575 0
M  V30 5863 N 542.463 1.3308 -0.844243 0
M  V30 5864 C 543.691 2.01808 -0.456203 0
M  V30 5865 C 544.106 1.63498 0.944131 0
M  V30 5866 O 543.463 0.85102 1.61443 0
M  V30 5867 C 543.514 3.56922 -0.573513 0
M  V30 5868 O 543.235 3.93851 -1.91868 0
M  V30 5869 C 544.736 4.42922 -0.183125 0
M  V30 5870 H 541.956 0.646273 -0.180477 0
M  V30 5871 H 544.5 1.69891 -1.1383 0
M  V30 5872 H 542.655 3.87352 0.0607367 0
M  V30 5873 H 543.069 4.88564 -1.90802 0
M  V30 5874 H 544.543 5.51093 -0.316241 0
M  V30 5875 H 545.02 4.30386 0.875477 0
M  V30 5876 H 545.626 4.1786 -0.792027 0
M  V30 5877 N 543.941 0.601185 1.45683 0
M  V30 5878 C 545.187 0.0940202 2.02582 0
M  V30 5879 C 545.52 -1.26972 1.46941 0
M  V30 5880 O 544.795 -1.83613 0.641612 0
M  V30 5881 C 545.078 0.0481715 3.60068 0
M  V30 5882 C 544.931 1.44212 4.26055 0
M  V30 5883 C 546.25 -0.642975 4.35378 0
M  V30 5884 H 543.369 0.0356404 0.736138 0
M  V30 5885 H 546.011 0.771929 1.73612 0
M  V30 5886 H 544.161 -0.529128 3.8488 0
M  V30 5887 H 545.833 2.06601 4.12449 0
M  V30 5888 H 544.076 2.00465 3.84703 0
M  V30 5889 H 544.747 1.36234 5.34925 0
M  V30 5890 H 547.223 -0.152351 4.15821 0
M  V30 5891 H 546.099 -0.644141 5.45107 0
M  V30 5892 H 546.36 -1.70785 4.0778 0
M  V30 5893 N 545.419 -1.53889 0.339982 0
M  V30 5894 C 546.83 -1.86139 -0.144671 0
M  V30 5895 C 547.181 -1.2613 -1.50285 0
M  V30 5896 O 546.306 -0.573515 -2.08662 0
M  V30 5897 C 546.901 -3.37728 -0.269285 0
M  V30 5898 C 545.46 -3.69868 -0.698168 0
M  V30 5899 C 544.607 -2.76777 0.170249 0
M  V30 5900 H 547.558 -1.48503 0.559704 0
M  V30 5901 H 547.579 -3.64331 -1.0974 0
M  V30 5902 H 547.091 -3.81375 0.719366 0
M  V30 5903 H 545.192 -3.31764 -1.69597 0
M  V30 5904 H 545.305 -4.76582 -0.490533 0
M  V30 5905 H 543.669 -2.52188 -0.356844 0
M  V30 5906 H 544.452 -3.23253 1.15597 0
M  V30 5907 N 546.897 -0.0685191 -1.57451 0
M  V30 5908 C 547.83 0.935736 -2.08133 0
M  V30 5909 C 548.808 1.29317 -0.985698 0
M  V30 5910 O 549.992 1.40304 -1.25886 0
M  V30 5911 C 547.119 2.2448 -2.53627 0
M  V30 5912 C 546.165 2.03917 -3.74593 0
M  V30 5913 S 546.998 1.30154 -5.19442 0
M  V30 5914 C 548.154 2.62346 -5.68265 0
M  V30 5915 H 548.387 0.504473 -2.92989 0
M  V30 5916 H 545.92 0.144169 -1.53725 0
M  V30 5917 H 547.878 2.99718 -2.80499 0
M  V30 5918 H 546.539 2.64731 -1.69045 0
M  V30 5919 H 545.732 3.00788 -4.04404 0
M  V30 5920 H 545.334 1.36815 -3.48077 0
M  V30 5921 H 547.626 3.58448 -5.7491 0
M  V30 5922 H 548.569 2.3715 -6.67207 0
M  V30 5923 H 548.977 2.69401 -4.96068 0
M  V30 5924 N 548.375 1.56261 0.205012 0
M  V30 5925 C 549.605 1.83874 0.942018 0
M  V30 5926 C 550.013 0.647595 1.77772 0
M  V30 5927 O 549.356 -0.393098 1.79445 0
M  V30 5928 C 549.418 3.05453 1.89575 0
M  V30 5929 C 549.082 4.39772 1.24296 0
M  V30 5930 C 550.079 5.16133 0.624724 0
M  V30 5931 C 547.764 4.86504 1.24978 0
M  V30 5932 C 549.758 6.37396 0.0220117 0
M  V30 5933 C 547.445 6.07705 0.643232 0
M  V30 5934 C 548.443 6.82993 0.0304164 0
M  V30 5935 O 548.131 8.019 -0.566654 0
M  V30 5936 H 547.863 0.614896 0.280854 0
M  V30 5937 H 550.417 2.04215 0.220285 0
M  V30 5938 H 548.647 2.80972 2.65691 0
M  V30 5939 H 550.336 3.19797 2.4997 0
M  V30 5940 H 551.102 4.81127 0.611666 0
M  V30 5941 H 546.981 4.27865 1.71616 0
M  V30 5942 H 550.525 6.96102 -0.456926 0
M  V30 5943 H 546.422 6.42181 0.653759 0
M  V30 5944 H 547.19 8.17192 -0.462588 0
M  V30 5945 N 549.853 -0.472356 1.50355 0
M  V30 5946 C 551.078 -1.25251 1.65309 0
M  V30 5947 C 551.503 -1.85081 0.335643 0
M  V30 5948 O 550.861 -1.67227 -0.700335 0
M  V30 5949 C 550.909 -2.3379 2.74544 0
M  V30 5950 O 550.013 -3.38401 2.35709 0
M  V30 5951 H 549.354 -0.368539 0.552336 0
M  V30 5952 H 551.884 -0.562271 1.96722 0
M  V30 5953 H 551.894 -2.79121 2.97583 0
M  V30 5954 H 550.569 -1.89614 3.70161 0
M  V30 5955 H 549.146 -2.9879 2.23112 0
M  V30 5956 N 551.331 -1.39911 -0.725443 0
M  V30 5957 C 552.556 -1.41137 -1.5197 0
M  V30 5958 C 552.981 -0.010262 -1.88097 0
M  V30 5959 O 552.339 0.979184 -1.52583 0
M  V30 5960 C 552.387 -2.2994 -2.77777 0
M  V30 5961 O 551.491 -1.73586 -3.74088 0
M  V30 5962 H 550.832 -0.480219 -0.458569 0
M  V30 5963 H 553.362 -1.84023 -0.894249 0
M  V30 5964 H 553.372 -2.44785 -3.26411 0
M  V30 5965 H 552.047 -3.31759 -2.50816 0
M  V30 5966 H 550.624 -1.68035 -3.32894 0
M  V30 5967 N 552.809 0.956637 -1.25245 0
M  V30 5968 C 553.741 2.05628 -1.01242 0
M  V30 5969 C 554.754 1.62785 0.0219579 0
M  V30 5970 O 555.943 1.77184 -0.216365 0
M  V30 5971 C 553.043 3.35069 -0.508161 0
M  V30 5972 C 552.216 4.06761 -1.60823 0
M  V30 5973 C 551.275 5.14473 -1.1047 0
M  V30 5974 O 550.301 5.40033 -1.79868 0
M  V30 5975 N 551.503 5.80474 0.0550773 0
M  V30 5976 H 554.268 2.2679 -1.95925 0
M  V30 5977 H 551.829 1.12505 -1.16423 0
M  V30 5978 H 553.821 4.044 -0.155819 0
M  V30 5979 H 552.391 3.10694 0.344683 0
M  V30 5980 H 551.611 3.31555 -2.13224 0
M  V30 5981 H 552.899 4.51418 -2.34733 0
M  V30 5982 H 552.297 5.62125 0.635004 0
M  V30 5983 H 550.854 6.50868 0.348469 0
M  V30 5984 N 554.287 1.06798 1.15896 0
M  V30 5985 C 555.515 0.808694 1.90441 0
M  V30 5986 C 555.93 -0.637506 1.77711 0
M  V30 5987 O 555.287 -1.43684 1.12522 0
M  V30 5988 C 555.338 1.20068 3.40978 0
M  V30 5989 O 555.059 2.59013 3.53333 0
M  V30 5990 C 556.56 0.96987 4.3256 0
M  V30 5991 H 553.78 0.292809 0.603742 0
M  V30 5992 H 556.324 1.42296 1.46874 0
M  V30 5993 H 554.479 0.630842 3.82229 0
M  V30 5994 H 554.893 2.7485 4.46719 0
M  V30 5995 H 556.367 1.29371 5.36626 0
M  V30 5996 H 556.844 -0.0941209 4.39099 0
M  V30 5997 H 557.45 1.52433 3.97044 0
M  V30 5998 N 555.766 -1.3263 0.851289 0
M  V30 5999 C 556.698 -2.27824 0.250757 0
M  V30 6000 C 557.711 -1.52285 -0.575598 0
M  V30 6001 O 558.9 -1.73946 -0.400638 0
M  V30 6002 C 556 -3.3232 -0.664571 0
M  V30 6003 C 555.173 -4.37221 0.125187 0
M  V30 6004 C 554.232 -5.21314 -0.715385 0
M  V30 6005 O 553.258 -5.69002 -0.150111 0
M  V30 6006 N 554.46 -5.43823 -2.03069 0
M  V30 6007 H 557.225 -2.79997 1.06873 0
M  V30 6008 H 554.786 -1.45455 0.710943 0
M  V30 6009 H 556.778 -3.85486 -1.23216 0
M  V30 6010 H 555.348 -2.80331 -1.38323 0
M  V30 6011 H 554.568 -3.84384 0.874199 0
M  V30 6012 H 555.856 -5.04399 0.667774 0
M  V30 6013 H 555.254 -5.06803 -2.51332 0
M  V30 6014 H 553.811 -5.99998 -2.54648 0
M  V30 6015 N 557.244 -0.608902 -1.45362 0
M  V30 6016 C 558.472 -0.111013 -2.06602 0
M  V30 6017 C 558.887 1.20516 -1.45332 0
M  V30 6018 O 558.244 1.73437 -0.567978 0
M  V30 6019 C 558.295 0.033688 -3.61484 0
M  V30 6020 O 558.016 -1.23041 -4.20467 0
M  V30 6021 C 559.517 0.562882 -4.39712 0
M  V30 6022 H 556.737 -0.0694453 -0.667397 0
M  V30 6023 H 559.281 -0.837008 -1.86586 0
M  V30 6024 H 557.436 0.710016 -3.80838 0
M  V30 6025 H 557.85 -1.06094 -5.13658 0
M  V30 6026 H 559.324 0.613213 -5.48583 0
M  V30 6027 H 559.801 1.58543 -4.09586 0
M  V30 6028 H 560.407 -0.0794454 -4.25226 0
M  V30 6029 N 558.722 1.53707 -0.348139 0
M  V30 6030 C 559.952 2.05108 0.247864 0
M  V30 6031 C 560.36 1.22252 1.44399 0
M  V30 6032 O 559.703 0.251853 1.81965 0
M  V30 6033 C 559.765 3.52171 0.722187 0
M  V30 6034 C 559.429 4.5562 -0.354902 0
M  V30 6035 C 560.426 5.05883 -1.19911 0
M  V30 6036 C 558.111 4.99703 -0.510145 0
M  V30 6037 C 560.105 5.98814 -2.18406 0
M  V30 6038 C 557.792 5.92443 -1.49848 0
M  V30 6039 C 558.79 6.41887 -2.33389 0
M  V30 6040 O 558.478 7.32802 -3.3054 0
M  V30 6041 H 558.21 0.674086 0.0508296 0
M  V30 6042 H 560.764 1.99229 -0.49968 0
M  V30 6043 H 558.994 3.55529 1.52105 0
M  V30 6044 H 560.683 3.8652 1.23925 0
M  V30 6045 H 561.449 4.72586 -1.09028 0
M  V30 6046 H 557.328 4.60816 0.130274 0
M  V30 6047 H 560.872 6.3733 -2.83649 0
M  V30 6048 H 556.769 6.25155 -1.60786 0
M  V30 6049 H 557.537 7.50749 -3.26064 0
M  V30 6050 N 560.2 0.0768682 1.57412 0
M  V30 6051 C 561.448 -0.589918 1.93299 0
M  V30 6052 C 561.769 -1.69842 0.958049 0
M  V30 6053 O 561.039 -1.95899 0.00703261 0
M  V30 6054 H 559.619 -0.220901 0.713591 0
M  V30 6055 H 562.281 0.135917 1.94425 0
M  V30 6056 H 561.377 -1.01195 2.95239 0
M  V30 6057 N 561.678 -1.56367 -0.196722 0
M  V30 6058 C 562.641 -1.93561 -1.22746 0
M  V30 6059 C 563.641 -0.816566 -1.38524 0
M  V30 6060 O 564.831 -1.084 -1.36363 0
M  V30 6061 C 561.963 -2.20823 -2.59712 0
M  V30 6062 H 563.156 -2.85774 -0.909586 0
M  V30 6063 H 560.709 -1.50032 -0.438174 0
M  V30 6064 H 561.444 -1.31243 -2.96557 0
M  V30 6065 H 561.229 -3.02368 -2.49632 0
M  V30 6066 H 562.719 -2.50608 -3.34044 0
M  V30 6067 N 563.156 0.464375 -1.50603 0
M  V30 6068 C 564.381 1.24372 -1.65971 0
M  V30 6069 C 564.806 1.84901 -0.345453 0
M  V30 6070 O 564.164 1.67596 0.691457 0
M  V30 6071 C 564.212 2.32331 -2.7578 0
M  V30 6072 O 563.316 3.37146 -2.375 0
M  V30 6073 H 562.657 0.365604 -0.554283 0
M  V30 6074 H 565.187 0.55183 -1.97018 0
M  V30 6075 H 565.197 2.77539 -2.99059 0
M  V30 6076 H 563.872 1.87648 -3.71162 0
M  V30 6077 H 562.449 2.97602 -2.24694 0
M  V30 6078 N 564.634 1.40294 0.718013 0
M  V30 6079 C 566.05 1.2227 1.02577 0
M  V30 6080 C 566.25 0.0961976 2.0127 0
M  V30 6081 O 565.306 -0.546695 2.46511 0
M  V30 6082 C 566.619 2.56348 1.57182 0
M  V30 6083 C 568.167 2.6334 1.69178 0
M  V30 6084 C 568.642 3.9768 2.27188 0
M  V30 6085 N 570.133 3.99409 2.34578 0
M  V30 6086 C 570.868 5.00141 2.8044 0
M  V30 6087 N 570.364 6.11268 3.26073 0
M  V30 6088 N 572.157 4.87511 2.79802 0
M  V30 6089 H 564.308 2.12304 0.0637899 0
M  V30 6090 H 566.571 0.943632 0.0909036 0
M  V30 6091 H 566.277 3.3942 0.921262 0
M  V30 6092 H 566.151 2.77266 2.55741 0
M  V30 6093 H 568.538 1.80641 2.33351 0
M  V30 6094 H 568.619 2.46255 0.692247 0
M  V30 6095 H 568.263 4.80817 1.63638 0
M  V30 6096 H 568.193 4.12093 3.27852 0
M  V30 6097 H 570.684 3.19162 2.02346 0
M  V30 6098 H 570.997 6.84023 3.59628 0
M  V30 6099 H 569.342 6.14837 3.24038 0
M  V30 6100 H 572.533 3.9979 2.43487 0
M  V30 6101 H 572.706 5.66158 3.15228 0
M  V30 6102 N 566.112 -0.949982 1.2575 0
M  V30 6103 C 567.042 -2.06483 1.09028 0
M  V30 6104 C 568.023 -1.701 -0.00201532 0
M  V30 6105 O 569.208 -1.93469 0.168383 0
M  V30 6106 C 566.338 -3.39899 0.71316 0
M  V30 6107 C 565.292 -3.90309 1.75621 0
M  V30 6108 C 564.618 -5.20274 1.23365 0
M  V30 6109 C 565.918 -4.16169 3.15596 0
M  V30 6110 H 567.612 -2.20731 2.02283 0
M  V30 6111 H 565.158 -1.06066 0.973964 0
M  V30 6112 H 567.111 -4.17346 0.58309 0
M  V30 6113 H 565.835 -3.25602 -0.255091 0
M  V30 6114 H 564.494 -3.15035 1.8748 0
M  V30 6115 H 564.142 -5.02351 0.255491 0
M  V30 6116 H 563.842 -5.54971 1.93082 0
M  V30 6117 H 565.366 -6.00314 1.11607 0
M  V30 6118 H 566.78 -4.84259 3.06864 0
M  V30 6119 H 565.177 -4.62131 3.82825 0
M  V30 6120 H 566.247 -3.22273 3.6231 0
M  V30 6121 N 567.59 -1.07411 -1.15328 0
M  V30 6122 C 568.839 -0.792643 -1.85473 0
M  V30 6123 C 569.152 0.683789 -1.83259 0
M  V30 6124 O 570.358 1.08005 -2.49093 0
M  V30 6125 C 568.814 -1.36787 -3.32892 0
M  V30 6126 C 568.422 -2.87536 -3.43551 0
M  V30 6127 C 570.166 -1.16444 -4.08217 0
M  V30 6128 C 568.073 -3.38247 -4.85122 0
M  V30 6129 H 567.003 -0.292838 -0.694811 0
M  V30 6130 H 569.654 -1.29426 -1.30082 0
M  V30 6131 H 568.036 -0.793993 -3.87958 0
M  V30 6132 H 569.21 -3.50973 -2.98588 0
M  V30 6133 H 567.525 -3.06676 -2.81672 0
M  V30 6134 H 570.122 -1.51808 -5.12697 0
M  V30 6135 H 570.465 -0.10353 -4.16171 0
M  V30 6136 H 570.998 -1.70472 -3.59422 0
M  V30 6137 H 567.737 -4.43866 -4.82351 0
M  V30 6138 H 567.257 -2.79564 -5.30664 0
M  V30 6139 H 568.936 -3.34238 -5.5398 0
M  V30 6140 N 569.068 1.32177 -0.85831 0
M  V30 6141 C 570.479 1.79381 -0.517621 0
M  V30 6142 C 570.83 1.70841 0.964769 0
M  V30 6143 O 569.955 1.26917 1.75274 0
M  V30 6144 C 570.55 3.25706 -0.932801 0
M  V30 6145 C 569.109 3.70851 -0.643953 0
M  V30 6146 C 568.256 2.53208 -1.13054 0
M  V30 6147 H 571.207 1.19424 -1.04516 0
M  V30 6148 H 571.228 3.79673 -0.250674 0
M  V30 6149 H 570.74 3.31889 -2.01174 0
M  V30 6150 H 568.841 3.70178 0.424112 0
M  V30 6151 H 568.954 4.63495 -1.21281 0
M  V30 6152 H 567.318 2.48676 -0.550679 0
M  V30 6153 H 568.101 2.62143 -2.21666 0
M  V30 6154 N 570.547 0.616602 1.45037 0
M  V30 6155 C 571.958 0.199359 1.85633 0
M  V30 6156 C 572.309 -1.24588 1.51566 0
M  V30 6157 O 571.434 -1.94594 0.94668 0
M  V30 6158 C 572.029 0.355033 3.36935 0
M  V30 6159 C 570.588 -0.00758748 3.76399 0
M  V30 6160 C 569.735 0.675256 2.68953 0
M  V30 6161 H 572.686 0.822708 1.3571 0
M  V30 6162 H 572.707 -0.410201 3.78282 0
M  V30 6163 H 572.219 1.40699 3.61698 0
M  V30 6164 H 570.32 -1.05837 3.57252 0
M  V30 6165 H 570.433 0.392346 4.77491 0
M  V30 6166 H 568.797 0.111992 2.54454 0
M  V30 6167 H 569.58 1.72952 2.96551 0
M  V30 6168 N 572.025 -1.5352 0.356285 0
M  V30 6169 C 572.955 -2.28372 -0.486661 0
M  V30 6170 C 573.936 -1.30432 -1.09185 0
M  V30 6171 O 575.121 -1.59291 -1.11085 0
M  V30 6172 C 572.251 -3.06604 -1.63129 0
M  V30 6173 C 571.205 -4.12154 -1.15381 0
M  V30 6174 C 570.531 -4.78415 -2.38796 0
M  V30 6175 C 571.831 -5.21724 -0.245179 0
M  V30 6176 H 573.525 -2.99083 0.137797 0
M  V30 6177 H 571.071 -1.43841 0.0677134 0
M  V30 6178 H 573.024 -3.57712 -2.22755 0
M  V30 6179 H 571.748 -2.33568 -2.28284 0
M  V30 6180 H 570.407 -3.61978 -0.580294 0
M  V30 6181 H 570.055 -4.01959 -3.02387 0
M  V30 6182 H 569.755 -5.49734 -2.07524 0
M  V30 6183 H 571.279 -5.32313 -2.99125 0
M  V30 6184 H 572.693 -5.68391 -0.748646 0
M  V30 6185 H 571.09 -6.00095 -0.0237608 0
M  V30 6186 H 572.16 -4.79596 0.715229 0
M  V30 6187 N 573.503 -0.0852151 -1.57369 0
M  V30 6188 C 574.451 0.894856 -2.14698 0
M  V30 6189 C 575.445 1.29903 -1.08727 0
M  V30 6190 O 576.651 1.27471 -1.27088 0
M  V30 6191 H 573.026 0.306569 -0.686673 0
M  V30 6192 H 574.997 0.386542 -2.95886 0
M  V30 6193 C 573.746 2.14798 -2.73417 0
M  V30 6194 H 573.069 1.84585 -3.54638 0
M  V30 6195 H 574.509 2.81456 -3.1711 0
M  V30 6196 C 572.968 2.91546 -1.68828 0
M  V30 6197 O 573.498 3.85733 -1.12129 0
M  V30 6198 N 571.704 2.54901 -1.39549 0
M  V30 6199 H 571.251 1.7838 -1.85845 0
M  V30 6200 H 571.209 3.06553 -0.698054 0
M  V30 6201 N 574.981 1.5647 0.188427 0
M  V30 6202 C 575.913 1.91611 1.25769 0
M  V30 6203 C 576.926 0.807436 1.41366 0
M  V30 6204 O 578.115 1.08586 1.41673 0
M  V30 6205 C 575.215 2.13874 2.6289 0
M  V30 6206 C 574.388 3.45047 2.68815 0
M  V30 6207 C 573.447 3.56342 3.87178 0
M  V30 6208 O 572.473 4.29109 3.73971 0
M  V30 6209 N 573.675 2.89924 5.02916 0
M  V30 6210 H 576.44 2.8393 0.959373 0
M  V30 6211 H 574.001 1.57418 0.378306 0
M  V30 6212 H 575.993 2.18713 3.4051 0
M  V30 6213 H 574.563 1.28022 2.85183 0
M  V30 6214 H 573.783 3.52017 1.77419 0
M  V30 6215 H 575.071 4.31395 2.6977 0
M  V30 6216 H 574.469 2.30644 5.16546 0
M  V30 6217 H 573.026 3.0038 5.78459 0
M  V30 6218 N 576.459 -0.456382 1.50847 0
M  V30 6219 C 577.389 -1.56025 1.73719 0
M  V30 6220 C 578.37 -1.5967 0.586473 0
M  V30 6221 O 579.555 -1.75702 0.827185 0
M  V30 6222 C 576.685 -2.94251 1.84483 0
M  V30 6223 C 575.639 -3.05471 2.99786 0
M  V30 6224 C 574.965 -4.45489 2.95709 0
M  V30 6225 C 576.265 -2.81318 4.40065 0
M  V30 6226 H 577.959 -1.37138 2.66146 0
M  V30 6227 H 575.505 -0.658299 1.28072 0
M  V30 6228 H 577.458 -3.71417 1.99067 0
M  V30 6229 H 576.182 -3.14328 0.886891 0
M  V30 6230 H 574.841 -2.30741 2.84876 0
M  V30 6231 H 574.489 -4.62505 1.97732 0
M  V30 6232 H 574.189 -4.53929 3.73125 0
M  V30 6233 H 575.713 -5.24655 3.12362 0
M  V30 6234 H 577.127 -3.48226 4.55425 0
M  V30 6235 H 575.524 -3.01188 5.19043 0
M  V30 6236 H 576.594 -1.7706 4.51418 0
M  V30 6237 N 577.937 -1.40673 -0.710563 0
M  V30 6238 C 578.847 -1.43663 -1.85467 0
M  V30 6239 C 579.863 -0.328721 -1.70867 0
M  V30 6240 O 581.039 -0.574098 -1.93044 0
M  V30 6241 C 578.104 -1.30226 -3.21313 0
M  V30 6242 C 577.165 -2.51204 -3.48131 0
M  V30 6243 C 576.398 -2.38398 -4.77495 0
M  V30 6244 O 576.621 -1.40048 -5.5294 0
M  V30 6245 O 575.555 -3.2787 -5.04762 0
M  V30 6246 H 579.381 -2.40156 -1.859 0
M  V30 6247 H 576.966 -1.22049 -0.861652 0
M  V30 6248 H 578.848 -1.2496 -4.02446 0
M  V30 6249 H 577.523 -0.368419 -3.21597 0
M  V30 6250 H 576.43 -2.62048 -2.66987 0
M  V30 6251 H 577.763 -3.43366 -3.52648 0
M  V30 6252 N 579.415 0.9433 -1.26252 0
M  V30 6253 C 580.345 2.05902 -1.10122 0
M  V30 6254 C 581.326 1.70099 -0.00700552 0
M  V30 6255 O 582.511 1.93377 -0.178641 0
M  V30 6256 C 579.641 3.39516 -0.731175 0
M  V30 6257 C 578.595 3.89372 -1.77688 0
M  V30 6258 C 577.921 5.19613 -1.26122 0
M  V30 6259 C 579.221 4.14489 -3.17799 0
M  V30 6260 H 580.915 2.19655 -2.03451 0
M  V30 6261 H 578.461 1.05548 -0.979576 0
M  V30 6262 H 580.414 4.17031 -0.605215 0
M  V30 6263 H 579.138 3.25733 0.23782 0
M  V30 6264 H 577.797 3.14036 -1.89148 0
M  V30 6265 H 577.445 5.02208 -0.282128 0
M  V30 6266 H 577.145 5.53939 -1.96023 0
M  V30 6267 H 578.669 5.99713 -1.14789 0
M  V30 6268 H 580.083 4.82625 -3.09428 0
M  V30 6269 H 578.48 4.60094 -3.85271 0
M  V30 6270 H 579.55 3.20347 -3.64014 0
M  V30 6271 N 580.893 1.08022 1.14757 0
M  V30 6272 C 581.823 0.728248 2.21853 0
M  V30 6273 C 582.804 -0.287486 1.67653 0
M  V30 6274 O 583.989 -0.158727 1.9355 0
M  V30 6275 C 581.119 0.132549 3.47047 0
M  V30 6276 C 580.073 1.07619 4.14249 0
M  V30 6277 C 579.399 0.342907 5.33599 0
M  V30 6278 C 580.699 2.41268 4.63235 0
M  V30 6279 H 582.393 1.62365 2.51551 0
M  V30 6280 H 579.939 0.782125 1.20908 0
M  V30 6281 H 581.892 -0.125665 4.21213 0
M  V30 6282 H 580.616 -0.797971 3.16702 0
M  V30 6283 H 579.275 1.31944 3.42033 0
M  V30 6284 H 578.923 -0.59129 4.99513 0
M  V30 6285 H 578.623 0.971955 5.79506 0
M  V30 6286 H 580.147 0.0926538 6.1053 0
M  V30 6287 H 581.561 2.21232 5.28894 0
M  V30 6288 H 579.958 2.9983 5.19829 0
M  V30 6289 H 581.028 3.03079 3.78512 0
M  V30 6290 N 582.371 -1.3172 0.865308 0
M  V30 6291 C 583.787 -1.4958 0.556596 0
M  V30 6292 C 583.987 -1.79763 -0.910353 0
M  V30 6293 O 583.043 -1.87351 -1.6928 0
M  V30 6294 C 584.356 -2.63277 1.45279 0
M  V30 6295 C 585.904 -2.77161 1.45433 0
M  V30 6296 C 586.379 -3.93949 2.33598 0
M  V30 6297 N 587.87 -4.01228 2.31453 0
M  V30 6298 C 588.605 -4.90855 2.96393 0
M  V30 6299 N 588.101 -5.85416 3.70486 0
M  V30 6300 N 589.894 -4.84063 2.85726 0
M  V30 6301 H 582.045 -1.10396 1.81456 0
M  V30 6302 H 584.308 -0.54507 0.775631 0
M  V30 6303 H 584.014 -2.47734 2.49641 0
M  V30 6304 H 583.888 -3.59309 1.14792 0
M  V30 6305 H 586.275 -2.9212 0.41831 0
M  V30 6306 H 586.356 -1.8181 1.79941 0
M  V30 6307 H 586 -3.79748 3.37274 0
M  V30 6308 H 585.93 -4.88598 1.96417 0
M  V30 6309 H 588.421 -3.3357 1.77593 0
M  V30 6310 H 588.734 -6.50525 4.17178 0
M  V30 6311 H 587.079 -5.85409 3.74594 0
M  V30 6312 H 590.27 -4.09163 2.27384 0
M  V30 6313 H 590.443 -5.53708 3.36617 0
M  V30 6314 N 583.85 -0.624285 -1.44708 0
M  V30 6315 C 584.798 0.0969952 -2.32398 0
M  V30 6316 C 585.792 0.842762 -1.46949 0
M  V30 6317 O 586.998 0.756436 -1.63334 0
M  V30 6318 H 583.373 0.0501306 -0.750327 0
M  V30 6319 H 585.344 -0.660767 -2.90992 0
M  V30 6320 C 584.093 1.06967 -3.30837 0
M  V30 6321 H 583.416 0.505242 -3.96595 0
M  V30 6322 H 584.856 1.54397 -3.94889 0
M  V30 6323 C 583.315 2.15153 -2.5925 0
M  V30 6324 O 583.845 3.23139 -2.3863 0
M  V30 6325 N 582.051 1.90898 -2.19103 0
M  V30 6326 H 581.598 1.03086 -2.36074 0
M  V30 6327 H 581.556 2.63485 -1.71531 0
M  V30 6328 N 585.328 1.53329 -0.364422 0
M  V30 6329 C 586.258 2.28627 0.474543 0
M  V30 6330 C 587.239 1.31009 1.08492 0
M  V30 6331 O 588.424 1.59878 1.10239 0
M  V30 6332 C 585.554 3.07465 1.61501 0
M  V30 6333 C 584.508 4.1276 1.13194 0
M  V30 6334 C 583.834 4.79674 2.36255 0
M  V30 6335 C 585.134 5.21847 0.217507 0
M  V30 6336 H 586.828 2.99005 -0.153656 0
M  V30 6337 H 584.374 1.43803 -0.0753406 0
M  V30 6338 H 586.327 3.58889 2.20855 0
M  V30 6339 H 585.051 2.34775 2.27042 0
M  V30 6340 H 583.71 3.62281 0.56109 0
M  V30 6341 H 583.358 4.03557 3.00251 0
M  V30 6342 H 583.058 5.50827 2.04606 0
M  V30 6343 H 584.582 5.33892 2.96297 0
M  V30 6344 H 585.996 5.6878 0.718493 0
M  V30 6345 H 584.393 6.00099 -0.00806408 0
M  V30 6346 H 585.463 4.7921 -0.740653 0
M  V30 6347 N 586.806 0.0935595 1.57322 0
M  V30 6348 C 587.753 -0.865935 2.1394 0
M  V30 6349 C 588.723 -1.28083 1.05754 0
M  V30 6350 O 589.908 -1.36285 1.33533 0
M  V30 6351 C 587.048 -2.12023 2.72287 0
M  V30 6352 C 586.161 -1.756 3.94701 0
M  V30 6353 C 585.296 -2.95804 4.41218 0
M  V30 6354 C 584.335 -2.555 5.56225 0
M  V30 6355 N 583.472 -3.68534 5.97601 0
M  V30 6356 H 588.312 -0.376261 2.95615 0
M  V30 6357 H 585.849 -0.174052 1.46067 0
M  V30 6358 H 587.807 -2.85477 3.04235 0
M  V30 6359 H 586.437 -2.58492 1.93343 0
M  V30 6360 H 585.489 -0.921208 3.69077 0
M  V30 6361 H 586.801 -1.41964 4.78171 0
M  V30 6362 H 585.955 -3.77513 4.74941 0
M  V30 6363 H 584.694 -3.32649 3.56645 0
M  V30 6364 H 583.699 -1.72218 5.22131 0
M  V30 6365 H 584.924 -2.19801 6.42545 0
M  V30 6366 H 582.87 -4.051 5.15974 0
M  V30 6367 H 582.787 -3.38737 6.75865 0
M  V30 6368 H 584.055 -4.50757 6.35955 0
M  V30 6369 N 588.284 -1.56567 -0.180126 0
M  V30 6370 C 589.509 -1.85975 -0.918041 0
M  V30 6371 C 589.934 -0.678888 -1.75422 0
M  V30 6372 O 589.292 0.372168 -1.77439 0
M  V30 6373 C 589.34 -3.13731 -1.77779 0
M  V30 6374 O 588.444 -2.95335 -2.87838 0
M  V30 6375 H 587.785 -0.61196 -0.257683 0
M  V30 6376 H 590.315 -2.03798 -0.180923 0
M  V30 6377 H 590.325 -3.4491 -2.17948 0
M  V30 6378 H 589 -3.99293 -1.16352 0
M  V30 6379 H 587.577 -2.7549 -2.51316 0
M  V30 6380 N 589.762 0.448376 -1.51087 0
M  V30 6381 C 590.709 1.54341 -1.71603 0
M  V30 6382 C 591.679 1.56463 -0.557536 0
M  V30 6383 O 592.864 1.73644 -0.79072 0
M  V30 6384 C 590.004 2.92148 -1.83695 0
M  V30 6385 C 589.117 2.99639 -3.11192 0
M  V30 6386 C 588.252 4.285 -3.13944 0
M  V30 6387 C 587.291 4.29819 -4.35801 0
M  V30 6388 N 586.428 5.50186 -4.36164 0
M  V30 6389 H 591.268 1.36151 -2.65079 0
M  V30 6390 H 588.805 0.661585 -1.31383 0
M  V30 6391 H 590.763 3.72093 -1.88687 0
M  V30 6392 H 589.393 3.0892 -0.936374 0
M  V30 6393 H 588.445 2.12425 -3.15562 0
M  V30 6394 H 589.757 2.96474 -4.01129 0
M  V30 6395 H 588.911 5.16811 -3.17791 0
M  V30 6396 H 587.65 4.34307 -2.21876 0
M  V30 6397 H 586.655 3.39902 -4.32142 0
M  V30 6398 H 587.88 4.25685 -5.29121 0
M  V30 6399 H 585.826 5.56735 -3.46961 0
M  V30 6400 H 585.743 5.48856 -5.19897 0
M  V30 6401 H 587.011 6.40559 -4.44189 0
M  V30 6402 N 591.24 1.41047 0.703093 0
M  V30 6403 C 592.465 1.43537 1.49706 0
M  V30 6404 C 592.89 0.0401853 1.88057 0
M  V30 6405 O 592.248 -0.954785 1.54122 0
M  V30 6406 C 592.296 2.3433 2.74084 0
M  V30 6407 O 591.4 1.79515 3.71279 0
M  V30 6408 H 590.741 0.487454 0.450871 0
M  V30 6409 H 593.271 1.85422 0.86486 0
M  V30 6410 H 593.281 2.49947 3.22476 0
M  V30 6411 H 591.956 3.35708 2.45506 0
M  V30 6412 H 590.533 1.7331 3.30179 0
M  V30 6413 N 592.718 -0.936591 1.26751 0
M  V30 6414 C 593.966 -1.67998 1.12343 0
M  V30 6415 C 594.287 -1.92137 -0.332938 0
M  V30 6416 O 593.557 -1.52132 -1.23421 0
M  V30 6417 H 592.137 -0.622609 0.412756 0
M  V30 6418 H 594.799 -1.12509 1.59147 0
M  V30 6419 H 593.895 -2.65185 1.64571 0
M  V30 6420 N 594.196 -1.08629 -1.14182 0
M  V30 6421 C 595.126 -0.740003 -2.21464 0
M  V30 6422 C 596.107 0.278591 -1.67803 0
M  V30 6423 O 597.292 0.148461 -1.93632 0
M  V30 6424 C 594.422 -0.150952 -3.46972 0
M  V30 6425 C 593.376 -1.09815 -4.13672 0
M  V30 6426 C 592.702 -0.3712 -5.3341 0
M  V30 6427 C 594.002 -2.43722 -4.61949 0
M  V30 6428 H 595.696 -1.63697 -2.50686 0
M  V30 6429 H 593.242 -0.788526 -1.20492 0
M  V30 6430 H 595.195 0.103325 -4.21273 0
M  V30 6431 H 593.919 0.781164 -3.1712 0
M  V30 6432 H 592.578 -1.33756 -3.41328 0
M  V30 6433 H 592.226 0.564792 -4.99819 0
M  V30 6434 H 591.926 -1.00267 -5.78982 0
M  V30 6435 H 593.45 -0.12503 -6.10472 0
M  V30 6436 H 594.864 -2.24034 -5.27714 0
M  V30 6437 H 593.261 -3.02582 -5.18232 0
M  V30 6438 H 594.331 -3.05082 -3.76899 0
M  V30 6439 N 595.674 1.31259 -0.872281 0
M  V30 6440 C 596.637 2.26744 -0.334656 0
M  V30 6441 C 597.637 1.52307 0.515681 0
M  V30 6442 O 598.827 1.71148 0.324656 0
M  V30 6443 C 595.959 3.36841 0.524482 0
M  V30 6444 H 597.152 2.75812 -1.17762 0
M  V30 6445 H 594.705 1.42232 -0.648064 0
M  V30 6446 H 595.44 2.93069 1.38855 0
M  V30 6447 H 595.225 3.92009 -0.0844299 0
M  V30 6448 H 596.715 4.07944 0.892838 0
M  V30 6449 N 597.152 0.631951 1.44375 0
M  V30 6450 C 598.399 0.136767 2.02038 0
M  V30 6451 C 598.727 -1.24168 1.49709 0
M  V30 6452 O 597.982 -1.83809 0.671763 0
M  V30 6453 C 598.281 0.0735861 3.57324 0
M  V30 6454 C 597.947 1.39092 4.28911 0
M  V30 6455 C 596.609 1.75171 4.48184 0
M  V30 6456 C 598.961 2.26042 4.69632 0
M  V30 6457 C 596.289 2.97907 5.05439 0
M  V30 6458 C 598.641 3.4805 5.28246 0
M  V30 6459 C 597.305 3.84351 5.45738 0
M  V30 6460 H 596.575 0.0500466 0.739308 0
M  V30 6461 H 599.222 0.818429 1.7313 0
M  V30 6462 H 597.527 -0.691449 3.8565 0
M  V30 6463 H 599.224 -0.326091 3.99672 0
M  V30 6464 H 595.814 1.10015 4.1424 0
M  V30 6465 H 599.998 1.99463 4.54454 0
M  V30 6466 H 595.254 3.26108 5.17169 0
M  V30 6467 H 599.428 4.15658 5.5875 0
M  V30 6468 H 597.055 4.79538 5.8987 0
M  V30 6469 N 598.631 -1.53133 0.372548 0
M  V30 6470 C 600.047 -1.59585 0.02178 0
M  V30 6471 C 600.247 -1.38736 -1.46132 0
M  V30 6472 O 599.303 -1.19599 -2.22379 0
M  V30 6473 C 600.616 -2.9678 0.483959 0
M  V30 6474 C 602.164 -3.09909 0.438775 0
M  V30 6475 C 602.639 -4.49527 0.876876 0
M  V30 6476 N 604.13 -4.55663 0.832214 0
M  V30 6477 C 604.865 -5.61896 1.14281 0
M  V30 6478 N 604.361 -6.75852 1.52303 0
M  V30 6479 N 606.154 -5.51916 1.06515 0
M  V30 6480 H 598.305 -1.64936 1.33827 0
M  V30 6481 H 600.568 -0.773947 0.547458 0
M  V30 6482 H 600.274 -3.17198 1.51915 0
M  V30 6483 H 600.148 -3.7699 -0.125784 0
M  V30 6484 H 602.535 -2.89197 -0.587294 0
M  V30 6485 H 602.616 -2.31691 1.0841 0
M  V30 6486 H 602.26 -4.70979 1.90109 0
M  V30 6487 H 602.19 -5.26186 0.208727 0
M  V30 6488 H 604.681 -3.73844 0.552195 0
M  V30 6489 H 604.994 -7.52862 1.7441 0
M  V30 6490 H 603.339 -6.77226 1.56175 0
M  V30 6491 H 606.53 -4.6177 0.767235 0
M  V30 6492 H 606.703 -6.34609 1.31053 0
M  V30 6493 N 600.109 -0.101901 -1.5727 0
M  V30 6494 C 601.056 0.854577 -2.14396 0
M  V30 6495 C 602.026 1.27521 -1.06432 0
M  V30 6496 O 603.211 1.35575 -1.34253 0
M  V30 6497 C 600.351 2.10576 -2.73408 0
M  V30 6498 C 599.464 1.73504 -3.95626 0
M  V30 6499 C 598.599 2.9346 -4.42781 0
M  V30 6500 C 597.638 2.52547 -5.57572 0
M  V30 6501 N 596.775 3.65359 -5.99547 0
M  V30 6502 H 601.615 0.360578 -2.9581 0
M  V30 6503 H 599.152 0.166303 -1.46157 0
M  V30 6504 H 601.11 2.83859 -3.05745 0
M  V30 6505 H 599.74 2.57463 -1.94711 0
M  V30 6506 H 598.792 0.901622 -3.6956 0
M  V30 6507 H 600.104 1.39426 -4.78917 0
M  V30 6508 H 599.258 3.74988 -4.76937 0
M  V30 6509 H 597.997 3.30753 -3.58404 0
M  V30 6510 H 597.002 1.69446 -5.23037 0
M  V30 6511 H 598.227 2.1639 -6.43702 0
M  V30 6512 H 596.173 4.02358 -5.18116 0
M  V30 6513 H 596.09 3.35148 -6.77652 0
M  V30 6514 H 597.358 4.47378 -6.38336 0
M  V30 6515 N 601.587 1.56661 0.17182 0
M  V30 6516 C 602.864 1.72838 0.915778 0
M  V30 6517 C 603.244 0.66316 2.00413 0
M  V30 6518 O 602.592 -0.322123 2.26218 0
M  V30 6519 C 602.802 3.16019 1.48097 0
M  V30 6520 C 604.15 3.76962 1.95408 0
M  V30 6521 O 605.174 3.19294 1.57892 0
M  V30 6522 O 604.033 4.78219 2.64516 0
M  V30 6523 H 601.127 0.705797 0.431021 0
M  V30 6524 H 603.673 1.68947 0.159689 0
M  V30 6525 H 602.445 3.85031 0.697618 0
M  V30 6526 H 602.068 3.24234 2.30126 0
M  V30 6527 N 603.065 -0.440357 1.51323 0
M  V30 6528 C 604.476 -1.02032 1.56353 0
M  V30 6529 C 604.827 -1.92382 0.385197 0
M  V30 6530 O 603.952 -2.10583 -0.498373 0
M  V30 6531 C 604.547 -1.85723 2.83359 0
M  V30 6532 C 603.106 -2.38774 2.90971 0
M  V30 6533 C 602.253 -1.17908 2.50984 0
M  V30 6534 H 605.204 -0.221744 1.57143 0
M  V30 6535 H 605.225 -2.71141 2.66951 0
M  V30 6536 H 604.737 -1.19939 3.69102 0
M  V30 6537 H 602.838 -3.08021 2.09651 0
M  V30 6538 H 602.951 -2.71778 3.94555 0
M  V30 6539 H 601.315 -1.52347 2.04114 0
M  V30 6540 H 602.098 -0.537393 3.39068 0
M  V30 6541 N 604.543 -1.41418 -0.695603 0
M  V30 6542 C 605.954 -1.36335 -1.27552 0
M  V30 6543 C 606.305 -0.0464336 -1.96145 0
M  V30 6544 O 605.43 0.855304 -1.9878 0
M  V30 6545 C 606.025 -2.46941 -2.3196 0
M  V30 6546 C 604.584 -2.45256 -2.85529 0
M  V30 6547 C 603.731 -2.2679 -1.59566 0
M  V30 6548 H 606.682 -1.50934 -0.490362 0
M  V30 6549 H 606.703 -2.15997 -3.1325 0
M  V30 6550 H 606.215 -3.42775 -1.82008 0
M  V30 6551 H 604.316 -1.53179 -3.39657 0
M  V30 6552 H 604.429 -3.41565 -3.35961 0
M  V30 6553 H 602.793 -1.74667 -1.85374 0
M  V30 6554 H 603.576 -3.24651 -1.1161 0
M  V30 6555 N 606.021 0.929856 -1.27246 0
M  V30 6556 C 607.432 1.49223 -1.12203 0
M  V30 6557 C 607.783 1.93989 0.293731 0
M  V30 6558 O 606.908 1.80978 1.18642 0
M  V30 6559 C 607.503 2.71198 -2.0307 0
M  V30 6560 C 606.062 3.23666 -1.92139 0
M  V30 6561 C 605.209 1.96409 -1.95752 0
M  V30 6562 H 608.16 0.744181 -1.4017 0
M  V30 6563 H 608.181 3.45905 -1.58524 0
M  V30 6564 H 607.693 2.38585 -3.06102 0
M  V30 6565 H 605.794 3.61042 -0.920834 0
M  V30 6566 H 605.907 3.90006 -2.78267 0
M  V30 6567 H 604.271 2.12806 -1.39949 0
M  V30 6568 H 605.054 1.66113 -3.00436 0
M  V30 6569 N 607.499 1.09233 1.13605 0
M  V30 6570 C 608.409 0.741939 2.22559 0
M  V30 6571 C 609.425 -0.255236 1.72118 0
M  V30 6572 O 610.601 -0.0970747 2.01166 0
M  V30 6573 C 607.666 0.165595 3.46304 0
M  V30 6574 C 606.727 1.21846 4.11645 0
M  V30 6575 C 605.96 0.669526 5.29484 0
M  V30 6576 O 606.183 -0.508228 5.68131 0
M  V30 6577 O 605.117 1.42361 5.84822 0
M  V30 6578 H 608.943 1.65107 2.54899 0
M  V30 6579 H 606.528 0.866584 1.21699 0
M  V30 6580 H 608.41 -0.152592 4.21124 0
M  V30 6581 H 607.085 -0.716573 3.15669 0
M  V30 6582 H 605.992 1.58931 3.38662 0
M  V30 6583 H 607.325 2.07321 4.46407 0
M  V30 6584 N 608.977 -1.30795 0.87923 0
M  V30 6585 C 610.388 -1.78535 0.546093 0
M  V30 6586 C 610.739 -1.72354 -0.937467 0
M  V30 6587 O 609.864 -1.2969 -1.73233 0
M  V30 6588 C 610.459 -3.24181 0.9845 0
M  V30 6589 C 609.018 -3.69779 0.702871 0
M  V30 6590 C 608.165 -2.51377 1.17068 0
M  V30 6591 H 611.116 -1.17746 1.06403 0
M  V30 6592 H 611.137 -3.79227 0.311045 0
M  V30 6593 H 610.649 -3.28647 2.06429 0
M  V30 6594 H 608.75 -3.70806 -0.365166 0
M  V30 6595 H 608.863 -4.61507 1.28639 0
M  V30 6596 H 607.227 -2.47768 0.590172 0
M  V30 6597 H 608.01 -2.58584 2.25808 0
M  V30 6598 N 610.455 -0.639598 -1.44038 0
M  V30 6599 C 611.68 -0.153117 -2.06834 0
M  V30 6600 C 612.105 1.16676 -1.47541 0
M  V30 6601 O 611.463 1.71769 -0.580093 0
M  V30 6602 C 611.511 -0.0609169 -3.60549 0
M  V30 6603 O 610.615 0.98071 -4.00569 0
M  V30 6604 H 609.956 -0.0886402 -0.658057 0
M  V30 6605 H 612.486 -0.878674 -1.84771 0
M  V30 6606 H 612.496 0.126892 -4.07803 0
M  V30 6607 H 611.171 -1.0245 -4.03084 0
M  V30 6608 H 609.748 0.766789 -3.64931 0
M  V30 6609 N 611.933 1.52934 -0.380664 0
M  V30 6610 C 613.344 1.86457 0.0952684 0
M  V30 6611 C 613.695 1.3007 1.46889 0
M  V30 6612 O 612.82 0.628636 2.07068 0
M  V30 6613 C 613.415 3.38323 0.179648 0
M  V30 6614 C 611.974 3.71589 0.599858 0
M  V30 6615 C 611.121 2.76228 -0.243572 0
M  V30 6616 H 614.072 1.46966 -0.59888 0
M  V30 6617 H 614.093 3.67113 1.00042 0
M  V30 6618 H 613.605 3.79333 -0.820228 0
M  V30 6619 H 611.706 3.36144 1.60742 0
M  V30 6620 H 611.819 4.77715 0.364003 0
M  V30 6621 H 610.183 2.53045 0.289855 0
M  V30 6622 H 610.966 3.20074 -1.24127 0
M  V30 6623 N 613.412 0.11024 1.57214 0
M  V30 6624 C 614.637 -0.561179 1.99664 0
M  V30 6625 C 615.062 -1.59985 0.989266 0
M  V30 6626 O 614.42 -1.81255 -0.0402399 0
M  V30 6627 C 614.468 -1.17189 3.41027 0
M  V30 6628 O 613.572 -2.28755 3.4314 0
M  V30 6629 H 612.913 -0.14101 0.648855 0
M  V30 6630 H 615.443 0.196128 2.03658 0
M  V30 6631 H 615.453 -1.50954 3.79047 0
M  V30 6632 H 614.128 -0.411041 4.13864 0
M  V30 6633 H 612.705 -1.96495 3.16929 0
M  V30 6634 N 614.89 -1.56749 -0.16351 0
M  V30 6635 C 615.837 -1.97011 -1.2023 0
M  V30 6636 C 616.807 -0.835186 -1.43575 0
M  V30 6637 O 617.992 -1.09594 -1.56185 0
M  V30 6638 C 615.132 -2.34186 -2.53478 0
M  V30 6639 C 614.245 -3.60893 -2.37446 0
M  V30 6640 C 613.38 -3.87245 -3.63614 0
M  V30 6641 C 612.419 -5.07274 -3.42548 0
M  V30 6642 N 611.556 -5.29719 -4.60806 0
M  V30 6643 H 616.396 -2.85562 -0.851958 0
M  V30 6644 H 613.933 -1.41292 -0.409257 0
M  V30 6645 H 615.891 -2.53764 -3.31149 0
M  V30 6646 H 614.521 -1.48736 -2.86492 0
M  V30 6647 H 613.573 -3.49185 -1.50911 0
M  V30 6648 H 614.885 -4.48722 -2.1783 0
M  V30 6649 H 614.039 -4.07232 -4.49719 0
M  V30 6650 H 612.778 -2.97806 -3.86216 0
M  V30 6651 H 611.783 -4.87177 -2.5483 0
M  V30 6652 H 613.008 -5.98251 -3.2136 0
M  V30 6653 H 610.954 -4.43233 -4.83612 0
M  V30 6654 H 610.871 -6.11786 -4.44132 0
M  V30 6655 H 612.139 -5.54192 -5.48171 0
M  V30 6656 N 616.368 0.432326 -1.51554 0
M  V30 6657 C 617.616 1.17901 -1.64146 0
M  V30 6658 C 617.937 1.91604 -0.362367 0
M  V30 6659 O 617.207 1.85764 0.621968 0
M  V30 6660 H 615.787 0.438206 -0.604966 0
M  V30 6661 H 618.449 0.495172 -1.88505 0
M  V30 6662 H 617.545 1.90584 -2.47152 0
M  V30 6663 N 617.846 1.41785 0.688094 0
M  V30 6664 C 619.071 1.45117 1.48175 0
M  V30 6665 C 619.496 0.060129 1.88004 0
M  V30 6666 O 618.854 -0.938385 1.55126 0
M  V30 6667 C 618.902 2.37224 2.71583 0
M  V30 6668 O 618.006 1.83443 3.69354 0
M  V30 6669 H 617.347 0.492208 0.445676 0
M  V30 6670 H 619.877 1.86329 0.845145 0
M  V30 6671 H 619.887 2.53353 3.19806 0
M  V30 6672 H 618.562 3.38293 2.41931 0
M  V30 6673 H 617.139 1.76802 3.28322 0
M  V30 6674 N 619.324 -0.923095 1.27737 0
M  V30 6675 C 620.735 -1.48626 1.12993 0
M  V30 6676 C 621.086 -1.94142 -0.283439 0
M  V30 6677 O 620.211 -1.81605 -1.17681 0
M  V30 6678 C 620.806 -2.70117 2.04505 0
M  V30 6679 C 619.365 -3.22642 1.93853 0
M  V30 6680 C 618.512 -1.95368 1.96791 0
M  V30 6681 H 621.463 -0.736737 1.40563 0
M  V30 6682 H 621.484 -3.4506 1.60356 0
M  V30 6683 H 620.996 -2.36959 3.07363 0
M  V30 6684 H 619.097 -3.60549 0.939968 0
M  V30 6685 H 619.21 -3.88525 2.80331 0
M  V30 6686 H 617.574 -2.12061 1.41076 0
M  V30 6687 H 618.357 -1.64517 3.01312 0
M  V30 6688 N 620.802 -1.09834 -1.13024 0
M  V30 6689 C 622.042 -0.846664 -1.8604 0
M  V30 6690 C 622.406 0.616557 -1.81831 0
M  V30 6691 O 623.607 0.984329 -2.50129 0
M  V30 6692 C 621.878 -1.37228 -3.30005 0
M  V30 6693 S 623.437 -1.25511 -4.20467 0
M  V30 6694 H 620.255 -0.30611 -0.64173 0
M  V30 6695 H 622.857 -1.40255 -1.36194 0
M  V30 6696 H 621.561 -2.43138 -3.30624 0
M  V30 6697 H 621.092 -0.81271 -3.84914 0
M  V30 6698 H 623.107 -0.208762 -4.95761 0
M  V30 6699 N 622.28 1.30327 -0.886154 0
M  V30 6700 C 623.696 1.48676 -0.580323 0
M  V30 6701 C 623.896 1.81189 0.881639 0
M  V30 6702 O 622.952 1.90021 1.66278 0
M  V30 6703 C 624.265 2.60932 -1.49449 0
M  V30 6704 C 625.813 2.74812 -1.49824 0
M  V30 6705 C 626.288 3.90183 -2.39836 0
M  V30 6706 N 627.779 3.97495 -2.37806 0
M  V30 6707 C 628.514 4.86078 -3.04165 0
M  V30 6708 N 628.01 5.79448 -3.79753 0
M  V30 6709 N 629.803 4.79456 -2.93391 0
M  V30 6710 H 621.954 1.07495 -1.8319 0
M  V30 6711 H 624.217 0.532661 -0.784204 0
M  V30 6712 H 623.923 2.43731 -2.5355 0
M  V30 6713 H 623.797 3.57437 -1.20494 0
M  V30 6714 H 626.184 2.91418 -0.464731 0
M  V30 6715 H 626.265 1.78924 -1.82811 0
M  V30 6716 H 625.909 3.74334 -3.43273 0
M  V30 6717 H 625.839 4.85411 -2.04166 0
M  V30 6718 H 628.33 3.30703 -1.82877 0
M  V30 6719 H 628.643 6.43805 -4.27475 0
M  V30 6720 H 626.988 5.79376 -3.8386 0
M  V30 6721 H 630.179 4.05494 -2.33864 0
M  V30 6722 H 630.352 5.48283 -3.45383 0
M  V30 6723 N 623.758 0.647228 1.43697 0
M  V30 6724 C 625.006 0.157876 2.01482 0
M  V30 6725 C 625.327 -1.23039 1.51282 0
M  V30 6726 O 624.597 -1.82071 0.722982 0
M  V30 6727 H 623.177 0.0553745 0.744945 0
M  V30 6728 H 625.839 0.83755 1.75986 0
M  V30 6729 H 624.935 0.137895 3.11795 0
M  V30 6730 N 625.236 -1.5273 0.388769 0
M  V30 6731 C 626.647 -1.86505 -0.0853788 0
M  V30 6732 C 626.998 -1.30847 -1.46197 0
M  V30 6733 O 626.123 -0.639609 -2.06732 0
M  V30 6734 C 626.718 -3.38414 -0.161703 0
M  V30 6735 C 625.277 -3.71902 -0.580144 0
M  V30 6736 C 624.424 -2.76095 0.258218 0
M  V30 6737 H 627.375 -1.46647 0.606665 0
M  V30 6738 H 627.396 -3.67638 -0.980936 0
M  V30 6739 H 626.908 -3.78893 0.840333 0
M  V30 6740 H 625.009 -3.36992 -1.58957 0
M  V30 6741 H 625.122 -4.77902 -0.338663 0
M  V30 6742 H 623.486 -2.53195 -0.276432 0
M  V30 6743 H 624.269 -3.19411 1.25822 0
M  V30 6744 N 626.714 -0.118576 -1.57153 0
M  V30 6745 C 627.644 0.828436 -2.1831 0
M  V30 6746 C 628.625 1.27758 -1.12303 0
M  V30 6747 O 629.81 1.34026 -1.40537 0
M  V30 6748 C 626.94 2.07876 -2.78217 0
M  V30 6749 C 625.894 1.76742 -3.89803 0
M  V30 6750 C 625.22 3.08801 -4.36516 0
M  V30 6751 C 626.52 1.03606 -5.11921 0
M  V30 6752 H 628.214 0.318824 -2.97698 0
M  V30 6753 H 625.76 0.151911 -1.43196 0
M  V30 6754 H 627.713 2.74584 -3.19659 0
M  V30 6755 H 626.437 2.61161 -1.96118 0
M  V30 6756 H 625.096 1.12424 -3.48936 0
M  V30 6757 H 624.744 3.6002 -3.51276 0
M  V30 6758 H 624.444 2.88743 -5.11763 0
M  V30 6759 H 625.968 3.76627 -4.80608 0
M  V30 6760 H 627.382 1.60467 -5.50385 0
M  V30 6761 H 625.779 0.936454 -5.92748 0
M  V30 6762 H 626.849 0.0227421 -4.84895 0
M  V30 6763 N 628.193 1.56834 0.155195 0
M  V30 6764 C 629.433 1.84701 0.875488 0
M  V30 6765 C 629.797 0.701747 1.78716 0
M  V30 6766 O 630.998 0.861263 2.54629 0
M  V30 6767 C 629.269 3.1773 1.63654 0
M  V30 6768 S 630.828 3.67128 2.40338 0
M  V30 6769 H 627.646 0.647856 0.292923 0
M  V30 6770 H 630.248 1.95026 0.136024 0
M  V30 6771 H 628.952 3.99059 0.958117 0
M  V30 6772 H 628.483 3.10388 2.41708 0
M  V30 6773 H 630.498 3.35739 3.65368 0
M  V30 6774 N 629.671 -0.424282 1.51781 0
M  V30 6775 C 630.919 -1.17028 1.64769 0
M  V30 6776 C 631.24 -1.91409 0.372523 0
M  V30 6777 O 630.51 -1.86091 -0.612108 0
M  V30 6778 H 629.09 -0.434992 0.607282 0
M  V30 6779 H 631.752 -0.485169 1.88765 0
M  V30 6780 H 630.848 -1.8927 2.4816 0
M  V30 6781 N 631.149 -1.42148 -0.680565 0
M  V30 6782 C 632.389 -1.4379 -1.45271 0
M  V30 6783 C 632.753 -0.0504426 -1.91934 0
M  V30 6784 O 633.954 0.0583916 -2.68737 0
M  V30 6785 C 632.225 -2.42904 -2.62168 0
M  V30 6786 S 633.784 -2.63201 -3.51099 0
M  V30 6787 H 630.602 -0.509185 -0.496237 0
M  V30 6788 H 633.204 -1.78706 -0.792744 0
M  V30 6789 H 631.908 -3.4249 -2.26116 0
M  V30 6790 H 631.439 -2.09394 -3.33043 0
M  V30 6791 H 633.454 -1.91068 -4.57938 0
M  V30 6792 N 632.627 0.916307 -1.28225 0
M  V30 6793 C 633.867 1.67964 -1.16479 0
M  V30 6794 C 634.231 1.8991 0.282494 0
M  V30 6795 O 635.432 2.63671 0.522607 0
M  V30 6796 C 633.703 3.00251 -1.93866 0
M  V30 6797 S 635.262 3.91353 -1.98465 0
M  V30 6798 H 632.08 0.576873 -0.415619 0
M  V30 6799 H 634.682 1.09006 -1.62289 0
M  V30 6800 H 633.386 2.81978 -2.98189 0
M  V30 6801 H 632.917 3.64257 -1.48595 0
M  V30 6802 H 634.932 4.84096 -1.0893 0
M  V30 6803 N 634.105 1.10431 1.1244 0
M  V30 6804 C 635.516 0.864439 1.65482 0
M  V30 6805 C 635.867 -0.60527 1.8663 0
M  V30 6806 O 634.992 -1.46492 1.59276 0
M  V30 6807 C 635.587 1.56267 3.0061 0
M  V30 6808 C 634.146 1.3695 3.50602 0
M  V30 6809 C 633.293 1.61209 2.25626 0
M  V30 6810 H 636.244 1.26203 0.962209 0
M  V30 6811 H 636.265 1.00166 3.67079 0
M  V30 6812 H 635.777 2.63231 2.85186 0
M  V30 6813 H 633.878 0.321481 3.71211 0
M  V30 6814 H 633.991 2.11143 4.30064 0
M  V30 6815 H 632.355 1.03482 2.32731 0
M  V30 6816 H 633.138 2.69425 2.12756 0
M  V30 6817 N 635.583 -1.29855 0.893053 0
M  V30 6818 C 636.831 -1.9544 0.514566 0
M  V30 6819 C 637.152 -1.70795 -0.940959 0
M  V30 6820 O 636.422 -1.03601 -1.66264 0
M  V30 6821 H 635.002 -0.723137 0.187302 0
M  V30 6822 H 637.664 -1.58234 1.13789 0
M  V30 6823 H 636.76 -3.04341 0.691581 0
M  V30 6824 N 637.061 -0.65484 -1.43351 0
M  V30 6825 C 638.477 -0.32255 -1.56307 0
M  V30 6826 C 638.677 1.17324 -1.63821 0
M  V30 6827 O 637.733 1.95813 -1.59417 0
M  V30 6828 C 639.046 -1.03533 -2.82314 0
M  V30 6829 C 640.594 -1.01574 -2.9606 0
M  V30 6830 C 641.069 -1.70945 -4.24902 0
M  V30 6831 N 642.56 -1.67716 -4.3177 0
M  V30 6832 C 643.295 -2.18265 -5.30234 0
M  V30 6833 N 642.791 -2.7711 -6.34966 0
M  V30 6834 N 644.584 -2.08756 -5.21898 0
M  V30 6835 H 636.735 -1.62549 -1.36717 0
M  V30 6836 H 638.998 -0.683676 -0.656727 0
M  V30 6837 H 638.704 -2.09045 -2.8283 0
M  V30 6838 H 638.578 -0.587913 -3.7259 0
M  V30 6839 H 640.965 0.0309834 -2.95084 0
M  V30 6840 H 641.046 -1.50186 -2.07069 0
M  V30 6841 H 640.69 -2.75574 -4.26639 0
M  V30 6842 H 640.62 -1.19797 -5.12793 0
M  V30 6843 H 643.111 -1.24777 -3.56706 0
M  V30 6844 H 643.424 -3.13353 -7.06421 0
M  V30 6845 H 641.769 -2.81171 -6.35585 0
M  V30 6846 H 644.96 -1.62488 -4.38994 0
M  V30 6847 H 645.133 -2.48459 -5.98475 0
M  V30 6848 N 638.539 1.52521 -0.396863 0
M  V30 6849 C 639.764 2.06571 0.185258 0
M  V30 6850 C 640.189 1.26605 1.39115 0
M  V30 6851 O 639.547 0.293055 1.78916 0
M  V30 6852 C 639.595 3.5674 0.526189 0
M  V30 6853 O 638.699 3.7929 1.61903 0
M  V30 6854 H 638.04 0.663712 0.0195474 0
M  V30 6855 H 640.57 1.966 -0.566519 0
M  V30 6856 H 640.58 4.00311 0.788338 0
M  V30 6857 H 639.255 4.14379 -0.355397 0
M  V30 6858 H 637.832 3.47605 1.35 0
M  V30 6859 N 640.017 0.126909 1.57088 0
M  V30 6860 C 641.242 -0.53997 2.00248 0
M  V30 6861 C 641.667 -1.58927 1.00618 0
M  V30 6862 O 641.025 -1.81288 -0.0210131 0
M  V30 6863 C 641.073 -1.13565 3.4225 0
M  V30 6864 O 640.177 -2.25103 3.45547 0
M  V30 6865 H 639.518 -0.13412 0.650314 0
M  V30 6866 H 642.048 0.217718 2.03438 0
M  V30 6867 H 642.058 -1.46925 3.80627 0
M  V30 6868 H 640.733 -0.367122 4.14277 0
M  V30 6869 H 639.31 -1.93123 3.18995 0
M  V30 6870 N 641.495 -1.56914 -0.146875 0
M  V30 6871 C 642.427 -1.94878 -1.20645 0
M  V30 6872 C 643.44 -0.844633 -1.39175 0
M  V30 6873 O 644.629 -1.12304 -1.38744 0
M  V30 6874 C 641.729 -2.20769 -2.57127 0
M  V30 6875 C 640.902 -3.52053 -2.59572 0
M  V30 6876 C 639.961 -3.66482 -3.77594 0
M  V30 6877 O 638.987 -4.38873 -3.62462 0
M  V30 6878 N 640.189 -3.03156 -4.95052 0
M  V30 6879 H 642.954 -2.86374 -0.883757 0
M  V30 6880 H 640.515 -1.58366 -0.336436 0
M  V30 6881 H 642.507 -2.27664 -3.34591 0
M  V30 6882 H 641.077 -1.35538 -2.81688 0
M  V30 6883 H 640.297 -3.56598 -1.68023 0
M  V30 6884 H 641.585 -4.38396 -2.58238 0
M  V30 6885 H 640.983 -2.44258 -5.10249 0
M  V30 6886 H 639.54 -3.15611 -5.70292 0
M  V30 6887 N 642.974 0.416227 -1.52004 0
M  V30 6888 C 643.921 1.50666 -1.74838 0
M  V30 6889 C 644.891 1.55245 -0.590599 0
M  V30 6890 O 646.076 1.71928 -0.827374 0
M  V30 6891 C 643.216 2.88185 -1.89851 0
M  V30 6892 C 642.329 2.92971 -3.17478 0
M  V30 6893 C 641.464 4.21745 -3.22962 0
M  V30 6894 C 640.503 4.20478 -4.4482 0
M  V30 6895 N 639.64 5.40811 -4.47736 0
M  V30 6896 H 644.48 1.30498 -2.67907 0
M  V30 6897 H 642.017 0.633568 -1.32757 0
M  V30 6898 H 643.975 3.68007 -1.96537 0
M  V30 6899 H 642.605 3.06865 -1.00169 0
M  V30 6900 H 641.657 2.05684 -3.19997 0
M  V30 6901 H 642.969 2.87899 -4.07328 0
M  V30 6902 H 642.123 5.09954 -3.28682 0
M  V30 6903 H 640.862 4.29503 -2.31038 0
M  V30 6904 H 639.867 3.30659 -4.39254 0
M  V30 6905 H 641.092 4.14366 -5.38031 0
M  V30 6906 H 639.038 5.4925 -3.58692 0
M  V30 6907 H 638.955 5.37705 -5.31422 0
M  V30 6908 H 640.223 6.30993 -4.57676 0
M  V30 6909 N 644.452 1.42507 0.673017 0
M  V30 6910 C 645.698 1.43284 1.43519 0
M  V30 6911 C 646.031 0.049668 1.94136 0
M  V30 6912 O 645.306 -0.926369 1.71022 0
M  V30 6913 C 645.589 2.45874 2.63093 0
M  V30 6914 C 645.442 3.93388 2.18096 0
M  V30 6915 C 646.761 2.45431 3.6531 0
M  V30 6916 H 643.88 0.521752 0.520522 0
M  V30 6917 H 646.522 1.73932 0.764701 0
M  V30 6918 H 644.672 2.19869 3.20296 0
M  V30 6919 H 646.344 4.30379 1.66046 0
M  V30 6920 H 644.587 4.07169 1.49652 0
M  V30 6921 H 645.258 4.60752 3.03993 0
M  V30 6922 H 647.734 2.68561 3.17827 0
M  V30 6923 H 646.61 3.19189 4.46553 0
M  V30 6924 H 646.871 1.48092 4.16559 0
M  V30 6925 N 645.93 -0.909495 1.28709 0
M  V30 6926 C 647.155 -1.69801 1.1909 0
M  V30 6927 C 647.58 -1.86479 -0.246388 0
M  V30 6928 O 646.938 -1.37802 -1.17815 0
M  V30 6929 C 646.986 -3.06543 1.89904 0
M  V30 6930 O 646.09 -3.94268 1.2094 0
M  V30 6931 H 645.431 -0.519783 0.413185 0
M  V30 6932 H 647.961 -1.13689 1.70106 0
M  V30 6933 H 647.971 -3.56748 1.97977 0
M  V30 6934 H 646.646 -2.93722 2.94449 0
M  V30 6935 H 645.223 -3.52702 1.2106 0
M  V30 6936 N 647.408 -1.11026 -1.11852 0
M  V30 6937 C 648.338 -0.786812 -2.19844 0
M  V30 6938 C 649.319 0.242935 -1.68356 0
M  V30 6939 O 650.504 0.107355 -1.93903 0
M  V30 6940 C 647.634 -0.224516 -3.46574 0
M  V30 6941 C 646.588 -1.18564 -4.1125 0
M  V30 6942 C 645.914 -0.484261 -5.32503 0
M  V30 6943 C 647.214 -2.53465 -4.56676 0
M  V30 6944 H 648.908 -1.68978 -2.47158 0
M  V30 6945 H 646.454 -0.813906 -1.18792 0
M  V30 6946 H 648.407 0.0139435 -4.21398 0
M  V30 6947 H 647.131 0.713722 -3.18706 0
M  V30 6948 H 645.79 -1.40966 -3.38414 0
M  V30 6949 H 645.438 0.458646 -5.00905 0
M  V30 6950 H 645.138 -1.12526 -5.76725 0
M  V30 6951 H 646.662 -0.254492 -6.10069 0
M  V30 6952 H 648.076 -2.35177 -5.22843 0
M  V30 6953 H 646.473 -3.13507 -5.11697 0
M  V30 6954 H 647.543 -3.13008 -3.70343 0
M  V30 6955 N 648.886 1.2938 -0.899927 0
M  V30 6956 C 649.833 2.27713 -0.376243 0
M  V30 6957 C 650.803 1.57016 0.541774 0
M  V30 6958 O 651.988 1.84997 0.466966 0
M  V30 6959 C 649.128 3.42889 0.39 0
M  V30 6960 C 648.241 4.28369 -0.558938 0
M  V30 6961 C 647.376 5.30726 0.224379 0
M  V30 6962 C 646.415 6.07862 -0.719068 0
M  V30 6963 N 645.552 7.02094 0.0298569 0
M  V30 6964 H 650.392 2.71888 -1.21988 0
M  V30 6965 H 647.929 1.33724 -0.612879 0
M  V30 6966 H 649.887 4.08443 0.850314 0
M  V30 6967 H 648.517 2.99743 1.19809 0
M  V30 6968 H 647.569 3.62986 -1.13777 0
M  V30 6969 H 648.881 4.82068 -1.2811 0
M  V30 6970 H 648.035 6.02098 0.745881 0
M  V30 6971 H 646.774 4.77759 0.979674 0
M  V30 6972 H 645.779 5.35353 -1.25207 0
M  V30 6973 H 647.004 6.62917 -1.4737 0
M  V30 6974 H 644.95 6.51496 0.767415 0
M  V30 6975 H 644.867 7.5335 -0.632391 0
M  V30 6976 H 646.135 7.77685 0.531615 0
M  V30 6977 N 650.364 0.662433 1.43002 0
M  V30 6978 C 651.641 0.109096 1.95296 0
M  V30 6979 C 652.021 -1.37313 1.60338 0
M  V30 6980 O 651.369 -2.1032 0.893187 0
M  V30 6981 C 651.579 0.365096 3.47085 0
M  V30 6982 C 652.927 0.274964 4.23709 0
M  V30 6983 O 653.951 0.29816 3.5495 0
M  V30 6984 O 652.81 0.206549 5.4611 0
M  V30 6985 H 649.904 -0.00429724 0.826989 0
M  V30 6986 H 652.45 0.736308 1.52894 0
M  V30 6987 H 651.222 1.39237 3.65689 0
M  V30 6988 H 650.845 -0.294733 3.96506 0
M  V30 6989 N 651.842 -1.52309 0.404946 0
M  V30 6990 C 653.258 -1.59503 0.0556255 0
M  V30 6991 C 653.458 -1.41805 -1.43156 0
M  V30 6992 O 652.514 -1.2429 -2.19792 0
M  V30 6993 C 653.827 -2.95687 0.546801 0
M  V30 6994 C 655.375 -3.08909 0.504413 0
M  V30 6995 C 655.85 -4.47566 0.97203 0
M  V30 6996 N 657.341 -4.53795 0.928679 0
M  V30 6997 C 658.076 -5.59346 1.26174 0
M  V30 6998 N 657.572 -6.72469 1.66604 0
M  V30 6999 N 659.365 -5.49532 1.18198 0
M  V30 7000 H 651.516 -1.6206 1.37296 0
M  V30 7001 H 653.779 -0.762161 0.563751 0
M  V30 7002 H 653.485 -3.13905 1.58609 0
M  V30 7003 H 653.359 -3.77172 -0.0457905 0
M  V30 7004 H 655.746 -2.90378 -0.525819 0
M  V30 7005 H 655.827 -2.2934 1.13301 0
M  V30 7006 H 655.471 -4.6684 2.00057 0
M  V30 7007 H 655.401 -5.25625 0.320292 0
M  V30 7008 H 657.892 -3.72588 0.631369 0
M  V30 7009 H 658.205 -7.48993 1.9034 0
M  V30 7010 H 656.55 -6.73761 1.70504 0
M  V30 7011 H 659.741 -4.60038 0.865011 0
M  V30 7012 H 659.914 -6.31687 1.44485 0
M  V30 7013 N 653.32 -0.135238 -1.57019 0
M  V30 7014 C 654.566 0.519563 -1.96032 0
M  V30 7015 C 654.899 1.65284 -1.01955 0
M  V30 7016 O 654.174 1.94408 -0.059727 0
M  V30 7017 C 654.457 1.0369 -3.44848 0
M  V30 7018 C 654.31 -0.0940754 -4.49702 0
M  V30 7019 C 655.629 1.92254 -3.95887 0
M  V30 7020 H 652.748 0.18739 -0.712779 0
M  V30 7021 H 655.39 -0.214086 -1.8879 0
M  V30 7022 H 653.54 1.66209 -3.5115 0
M  V30 7023 H 655.212 -0.73 -4.55487 0
M  V30 7024 H 653.455 -0.754924 -4.27181 0
M  V30 7025 H 654.126 0.309419 -5.51132 0
M  V30 7026 H 656.602 1.39581 -3.9199 0
M  V30 7027 H 655.478 2.25364 -5.00502 0
M  V30 7028 H 655.739 2.85513 -3.37543 0
M  V30 7029 N 654.798 1.5699 0.138552 0
M  V30 7030 C 656.045 1.83809 0.849732 0
M  V30 7031 C 656.373 0.717409 1.80786 0
M  V30 7032 O 655.628 -0.292897 1.93496 0
M  V30 7033 C 655.927 3.17007 1.65049 0
M  V30 7034 C 655.593 4.43037 0.838398 0
M  V30 7035 C 654.255 4.77262 0.614385 0
M  V30 7036 C 656.607 5.20495 0.271044 0
M  V30 7037 C 653.935 5.864 -0.187552 0
M  V30 7038 C 656.287 6.30476 -0.517979 0
M  V30 7039 C 654.951 6.63245 -0.75249 0
M  V30 7040 H 654.221 0.672605 0.310939 0
M  V30 7041 H 656.868 1.91166 0.112971 0
M  V30 7042 H 655.173 3.05138 2.4576 0
M  V30 7043 H 656.87 3.34975 2.20437 0
M  V30 7044 H 653.46 4.16211 1.02307 0
M  V30 7045 H 657.644 4.94422 0.431371 0
M  V30 7046 H 652.9 6.10226 -0.378659 0
M  V30 7047 H 657.074 6.89686 -0.964694 0
M  V30 7048 H 654.701 7.47648 -1.37573 0
M  V30 7049 N 656.276 -0.40816 1.52223 0
M  V30 7050 C 657.501 -1.18127 1.70472 0
M  V30 7051 C 657.926 -1.83491 0.41384 0
M  V30 7052 O 657.284 -1.70047 -0.628778 0
M  V30 7053 C 657.332 -2.21935 2.84213 0
M  V30 7054 O 656.436 -3.28099 2.4985 0
M  V30 7055 H 655.777 -0.344781 0.56747 0
M  V30 7056 H 658.307 -0.478328 1.9893 0
M  V30 7057 H 658.317 -2.66248 3.09153 0
M  V30 7058 H 656.992 -1.73744 3.7787 0
M  V30 7059 H 655.569 -2.89058 2.35584 0
M  V30 7060 N 657.755 -1.42862 -0.66545 0
M  V30 7061 C 658.98 -1.47456 -1.45848 0
M  V30 7062 C 659.405 -0.0900312 -1.87884 0
M  V30 7063 O 658.763 0.913587 -1.56599 0
M  V30 7064 C 658.811 -2.41514 -2.67774 0
M  V30 7065 O 657.915 -1.89296 -3.66389 0
M  V30 7066 H 657.256 -0.499236 -0.437789 0
M  V30 7067 H 659.786 -1.8765 -0.815394 0
M  V30 7068 H 659.796 -2.58409 -3.15735 0
M  V30 7069 H 658.471 -3.42099 -2.36519 0
M  V30 7070 H 657.048 -1.82003 -3.25468 0
M  V30 7071 N 659.233 0.902656 -1.29189 0
M  V30 7072 C 660.644 1.46809 -1.15343 0
M  V30 7073 C 660.995 1.94568 0.252517 0
M  V30 7074 O 660.12 1.83454 1.14777 0
M  V30 7075 C 660.715 2.66829 -2.08776 0
M  V30 7076 C 659.274 3.19518 -1.98961 0
M  V30 7077 C 658.421 1.92212 -1.99874 0
M  V30 7078 H 661.372 0.714282 -1.41717 0
M  V30 7079 H 661.393 3.42465 -1.65826 0
M  V30 7080 H 660.905 2.32039 -3.11094 0
M  V30 7081 H 659.006 3.59008 -0.99721 0
M  V30 7082 H 659.119 3.84016 -2.86477 0
M  V30 7083 H 657.483 2.0979 -1.44431 0
M  V30 7084 H 658.266 1.59702 -3.03891 0
M  V30 7085 N 660.711 1.11618 1.11262 0
M  V30 7086 C 662.127 0.850468 1.35053 0
M  V30 7087 C 662.327 -0.523868 1.94571 0
M  V30 7088 O 661.383 -1.2743 2.17986 0
M  V30 7089 C 662.696 1.96005 2.28041 0
M  V30 7090 C 664.244 1.98993 2.416 0
M  V30 7091 C 664.719 3.0916 3.37911 0
M  V30 7092 N 666.21 3.08547 3.45475 0
M  V30 7093 C 666.945 3.9043 4.19943 0
M  V30 7094 N 666.441 4.8228 4.97371 0
M  V30 7095 N 668.234 3.786 4.15474 0
M  V30 7096 H 660.385 2.00184 0.709932 0
M  V30 7097 H 662.648 0.870635 0.375099 0
M  V30 7098 H 662.354 2.9499 1.91503 0
M  V30 7099 H 662.228 1.85782 3.28275 0
M  V30 7100 H 664.615 1.00633 2.77411 0
M  V30 7101 H 664.696 2.13292 1.4121 0
M  V30 7102 H 664.34 4.07748 3.02827 0
M  V30 7103 H 664.27 2.92102 4.3816 0
M  V30 7104 H 666.761 2.42 2.90249 0
M  V30 7105 H 667.074 5.41289 5.51567 0
M  V30 7106 H 665.419 4.863 4.96525 0
M  V30 7107 H 668.61 3.06185 3.54074 0
M  V30 7108 H 668.783 4.42647 4.73253 0
M  V30 7109 N 662.189 -1.289 0.906776 0
M  V30 7110 C 663.437 -1.94883 0.535266 0
M  V30 7111 C 663.758 -1.71784 -0.922791 0
M  V30 7112 O 663.028 -1.05359 -1.65156 0
M  V30 7113 H 661.608 -0.721109 0.194962 0
M  V30 7114 H 664.27 -1.57018 1.15461 0
M  V30 7115 H 663.366 -3.03591 0.723821 0
M  V30 7116 N 663.667 -0.670007 -1.42649 0
M  V30 7117 C 664.913 -0.190568 -2.01903 0
M  V30 7118 C 665.246 1.19817 -1.52832 0
M  V30 7119 O 664.521 1.80342 -0.728485 0
M  V30 7120 C 664.804 -0.21991 -3.59428 0
M  V30 7121 C 664.657 -1.64376 -4.18689 0
M  V30 7122 C 665.976 0.434519 -4.3795 0
M  V30 7123 H 663.095 -0.0707219 -0.733599 0
M  V30 7124 H 665.737 -0.853883 -1.69732 0
M  V30 7125 H 663.887 0.344894 -3.86966 0
M  V30 7126 H 665.559 -2.26044 -4.02122 0
M  V30 7127 H 663.802 -2.18591 -3.747 0
M  V30 7128 H 664.473 -1.61601 -5.27815 0
M  V30 7129 H 666.949 -0.0462156 -4.16074 0
M  V30 7130 H 665.825 0.38333 -5.4756 0
M  V30 7131 H 666.086 1.51135 -4.15464 0
M  V30 7132 N 665.145 1.52092 -0.413018 0
M  V30 7133 C 666.108 2.25706 0.398687 0
M  V30 7134 C 667.108 1.28221 0.970368 0
M  V30 7135 O 668.298 1.52131 0.848635 0
M  V30 7136 C 665.43 3.03029 1.5616 0
M  V30 7137 H 666.623 2.98888 -0.246131 0
M  V30 7138 H 664.176 1.5542 -0.165622 0
M  V30 7139 H 664.911 2.34205 2.24317 0
M  V30 7140 H 664.696 3.74606 1.15812 0
M  V30 7141 H 666.186 3.58857 2.13569 0
M  V30 7142 N 666.623 0.143563 1.56945 0
M  V30 7143 C 667.586 -0.783295 2.154 0
M  V30 7144 C 668.586 -1.17763 1.09492 0
M  V30 7145 O 669.776 -1.09912 1.35148 0
M  V30 7146 C 666.908 -2.06248 2.7143 0
M  V30 7147 H 668.101 -0.274863 2.98638 0
M  V30 7148 H 665.654 -0.105859 1.55941 0
M  V30 7149 H 666.389 -2.61466 1.91849 0
M  V30 7150 H 666.174 -1.78897 3.4891 0
M  V30 7151 H 667.664 -2.72453 3.16479 0
M  V30 7152 N 668.101 -1.57061 -0.130224 0
M  V30 7153 C 669.048 -1.99517 -1.16024 0
M  V30 7154 C 670.018 -0.865452 -1.41771 0
M  V30 7155 O 671.203 -1.12882 -1.53826 0
M  V30 7156 C 668.343 -2.3951 -2.48453 0
M  V30 7157 C 667.456 -3.65848 -2.29737 0
M  V30 7158 C 666.591 -3.9487 -3.55318 0
M  V30 7159 C 665.63 -5.14426 -3.31711 0
M  V30 7160 N 664.767 -5.39375 -4.49466 0
M  V30 7161 H 669.607 -2.87305 -0.791194 0
M  V30 7162 H 667.144 -1.42129 -0.379195 0
M  V30 7163 H 669.102 -2.60731 -3.25692 0
M  V30 7164 H 667.732 -1.54779 -2.83272 0
M  V30 7165 H 666.784 -3.52307 -1.4347 0
M  V30 7166 H 668.096 -4.53241 -2.08263 0
M  V30 7167 H 667.25 -4.16679 -4.4098 0
M  V30 7168 H 665.989 -3.05931 -3.79813 0
M  V30 7169 H 664.994 -4.92473 -2.44439 0
M  V30 7170 H 666.219 -6.04933 -3.08598 0
M  V30 7171 H 664.165 -4.53391 -4.74102 0
M  V30 7172 H 664.082 -6.21069 -4.31055 0
M  V30 7173 H 665.35 -5.65694 -5.36293 0
M  V30 7174 N 669.579 0.400081 -1.52437 0
M  V30 7175 C 670.827 1.14392 -1.6661 0
M  V30 7176 C 671.148 1.90792 -0.402927 0
M  V30 7177 O 670.418 1.87042 0.582425 0
M  V30 7178 H 668.998 0.425275 -0.614125 0
M  V30 7179 H 671.66 0.455076 -1.89513 0
M  V30 7180 H 670.756 1.85298 -2.51139 0
M  V30 7181 N 671.057 1.43213 0.657864 0
M  V30 7182 C 672.004 1.48011 1.77092 0
M  V30 7183 C 672.974 0.330291 1.62783 0
M  V30 7184 O 674.159 0.536787 1.83094 0
M  V30 7185 C 671.299 1.40461 3.15222 0
M  V30 7186 C 670.412 2.65612 3.40697 0
M  V30 7187 C 669.547 2.50083 4.68649 0
M  V30 7188 C 668.586 3.70525 4.87214 0
M  V30 7189 N 667.723 3.53835 6.0642 0
M  V30 7190 H 672.563 2.43121 1.72326 0
M  V30 7191 H 670.1 1.20687 0.841013 0
M  V30 7192 H 672.058 1.34079 3.95068 0
M  V30 7193 H 670.688 0.489359 3.19069 0
M  V30 7194 H 669.74 2.82292 2.54982 0
M  V30 7195 H 671.052 3.5509 3.50303 0
M  V30 7196 H 670.206 2.41383 5.56614 0
M  V30 7197 H 668.945 1.58121 4.61356 0
M  V30 7198 H 667.95 3.79639 3.97686 0
M  V30 7199 H 669.175 4.63489 4.96341 0
M  V30 7200 H 667.121 2.64604 6.00267 0
M  V30 7201 H 667.038 4.36912 6.16963 0
M  V30 7202 H 668.306 3.48978 6.97019 0
M  V30 7203 N 672.536 -0.895792 1.29666 0
M  V30 7204 C 673.784 -1.64339 1.17631 0
M  V30 7205 C 674.105 -1.93099 -0.271643 0
M  V30 7206 O 673.375 -1.55981 -1.18518 0
M  V30 7207 H 671.955 -0.609162 0.432354 0
M  V30 7208 H 674.617 -1.07389 1.62646 0
M  V30 7209 H 673.713 -2.59815 1.72924 0
M  V30 7210 N 674.014 -1.12206 -1.10668 0
M  V30 7211 C 675.239 -0.898938 -1.86906 0
M  V30 7212 C 675.664 0.546346 -1.79991 0
M  V30 7213 O 675.022 1.38655 -1.1681 0
M  V30 7214 C 675.07 -1.37529 -3.33344 0
M  V30 7215 O 674.174 -0.55218 -4.08687 0
M  V30 7216 H 673.515 -0.323163 -0.580053 0
M  V30 7217 H 676.045 -1.49355 -1.39837 0
M  V30 7218 H 676.055 -1.3733 -3.84193 0
M  V30 7219 H 674.73 -2.42767 -3.37693 0
M  V30 7220 H 673.307 -0.620947 -3.67694 0
M  V30 7221 N 675.492 1.28418 -0.913599 0
M  V30 7222 C 676.903 1.77024 -0.593237 0
M  V30 7223 C 677.254 1.74779 0.891441 0
M  V30 7224 O 676.379 1.34237 1.69733 0
M  V30 7225 C 676.974 3.21456 -1.07011 0
M  V30 7226 C 675.533 3.67786 -0.800664 0
M  V30 7227 C 674.68 2.48185 -1.23691 0
M  V30 7228 H 677.631 1.14883 -1.09487 0
M  V30 7229 H 677.652 3.78269 -0.411481 0
M  V30 7230 H 677.164 3.23058 -2.1507 0
M  V30 7231 H 675.265 3.71644 0.266725 0
M  V30 7232 H 675.378 4.57934 -1.4083 0
M  V30 7233 H 673.742 2.46116 -0.655655 0
M  V30 7234 H 674.525 2.52506 -2.32585 0
M  V30 7235 N 676.97 0.677563 1.42291 0
M  V30 7236 C 677.902 -0.0380218 2.29168 0
M  V30 7237 C 678.915 -0.762714 1.43828 0
M  V30 7238 O 680.104 -0.616413 1.67519 0
M  V30 7239 C 677.204 -1.07761 3.21311 0
M  V30 7240 C 676.377 -0.42618 4.35319 0
M  V30 7241 C 675.436 -1.36592 5.08162 0
M  V30 7242 O 674.462 -0.865174 5.62586 0
M  V30 7243 N 675.664 -2.69909 5.13935 0
M  V30 7244 H 678.429 0.707766 2.91223 0
M  V30 7245 H 675.99 0.52219 1.53247 0
M  V30 7246 H 677.982 -1.70761 3.6691 0
M  V30 7247 H 676.552 -1.72511 2.60689 0
M  V30 7248 H 675.772 0.383385 3.92331 0
M  V30 7249 H 677.06 0.0275277 5.08793 0
M  V30 7250 H 676.458 -3.13129 4.71134 0
M  V30 7251 H 675.015 -3.2815 5.6317 0
M  V30 7252 N 678.448 -1.51871 0.421078 0
M  V30 7253 C 679.411 -2.25914 -0.386712 0
M  V30 7254 C 680.411 -1.28733 -0.963555 0
M  V30 7255 O 681.601 -1.52579 -0.840556 0
M  V30 7256 C 678.733 -3.03853 -1.54551 0
M  V30 7257 H 679.926 -2.98754 0.261978 0
M  V30 7258 H 677.479 -1.5533 0.173862 0
M  V30 7259 H 678.214 -2.35392 -2.23072 0
M  V30 7260 H 677.999 -3.75215 -1.13824 0
M  V30 7261 H 679.489 -3.59984 -2.11663 0
M  V30 7262 N 679.926 -0.151884 -1.56866 0
M  V30 7263 C 680.858 0.817008 -2.14144 0
M  V30 7264 C 681.871 1.20735 -1.0921 0
M  V30 7265 O 683.06 1.15058 -1.36469 0
M  V30 7266 C 680.16 2.10844 -2.65326 0
M  V30 7267 C 679.333 1.88471 -3.94712 0
M  V30 7268 C 678.392 3.01649 -4.31155 0
M  V30 7269 O 677.418 2.73127 -4.9939 0
M  V30 7270 N 678.62 4.28947 -3.91132 0
M  V30 7271 H 681.385 0.327448 -2.97906 0
M  V30 7272 H 678.946 0.0315313 -1.61869 0
M  V30 7273 H 680.938 2.85616 -2.86715 0
M  V30 7274 H 679.508 2.51049 -1.86262 0
M  V30 7275 H 678.728 0.977088 -3.81899 0
M  V30 7276 H 680.016 1.70866 -4.79252 0
M  V30 7277 H 679.414 4.54986 -3.36161 0
M  V30 7278 H 677.971 5.00484 -4.17563 0
M  V30 7279 N 681.404 1.57128 0.121893 0
M  V30 7280 C 682.632 1.88883 0.844451 0
M  V30 7281 C 683.047 0.742824 1.73573 0
M  V30 7282 O 682.404 -0.286475 1.80238 0
M  V30 7283 C 682.455 3.20076 1.68029 0
M  V30 7284 O 682.176 4.30264 0.824898 0
M  V30 7285 C 683.677 3.65515 2.50826 0
M  V30 7286 H 680.897 0.62549 0.242907 0
M  V30 7287 H 683.441 2.04219 0.107151 0
M  V30 7288 H 681.596 3.06418 2.37038 0
M  V30 7289 H 682.01 5.05439 1.40113 0
M  V30 7290 H 683.484 4.60081 3.05008 0
M  V30 7291 H 683.961 2.92029 3.28048 0
M  V30 7292 H 684.567 3.81952 1.87064 0
M  V30 7293 N 682.882 -0.391992 1.52647 0
M  V30 7294 C 684.128 -1.139 1.67793 0
M  V30 7295 C 684.461 -1.89711 0.41514 0
M  V30 7296 O 683.736 -1.85431 -0.586979 0
M  V30 7297 C 684.019 -2.11966 2.91105 0
M  V30 7298 C 683.872 -1.39939 4.27478 0
M  V30 7299 C 685.191 -3.1243 3.09961 0
M  V30 7300 H 682.31 -0.412707 0.610608 0
M  V30 7301 H 684.952 -0.422725 1.85238 0
M  V30 7302 H 683.102 -2.73048 2.76364 0
M  V30 7303 H 684.774 -0.818439 4.53982 0
M  V30 7304 H 683.017 -0.701246 4.28095 0
M  V30 7305 H 683.688 -2.1158 5.09841 0
M  V30 7306 H 686.164 -2.61435 3.23714 0
M  V30 7307 H 685.04 -3.78294 3.97725 0
M  V30 7308 H 685.301 -3.81127 2.24042 0
M  V30 7309 N 684.36 -1.4356 -0.65026 0
M  V30 7310 C 685.776 -1.27025 -0.966269 0
M  V30 7311 C 685.976 -0.192117 -2.00582 0
M  V30 7312 O 685.032 0.428459 -2.48838 0
M  V30 7313 C 686.345 -2.63556 -1.44772 0
M  V30 7314 C 687.893 -2.71111 -1.56421 0
M  V30 7315 C 688.368 -4.08067 -2.07956 0
M  V30 7316 N 689.859 -4.10146 -2.15254 0
M  V30 7317 C 690.594 -5.12952 -2.56258 0
M  V30 7318 N 690.09 -6.26129 -2.96537 0
M  V30 7319 N 691.883 -5.00306 -2.56224 0
M  V30 7320 H 684.034 -2.12367 0.0375758 0
M  V30 7321 H 686.297 -0.946894 -0.0457782 0
M  V30 7322 H 686.003 -3.43429 -0.758271 0
M  V30 7323 H 685.877 -2.89152 -2.42221 0
M  V30 7324 H 688.264 -1.91569 -2.24467 0
M  V30 7325 H 688.345 -2.49277 -0.573967 0
M  V30 7326 H 687.989 -4.88077 -1.40511 0
M  V30 7327 H 687.919 -4.27266 -3.07817 0
M  V30 7328 H 690.41 -3.28453 -1.86887 0
M  V30 7329 H 690.723 -7.00403 -3.26582 0
M  V30 7330 H 689.068 -6.29597 -2.94334 0
M  V30 7331 H 692.259 -4.10952 -2.24135 0
M  V30 7332 H 692.432 -5.80553 -2.87857 0
M  V30 7333 N 685.838 0.888903 -1.30139 0
M  V30 7334 C 687.254 1.17153 -1.08385 0
M  V30 7335 C 687.454 2.0088 0.157925 0
M  V30 7336 O 686.51 2.37668 0.852652 0
M  V30 7337 C 687.823 1.882 -2.34523 0
M  V30 7338 C 689.371 2.00981 -2.39949 0
M  V30 7339 C 689.846 2.75441 -3.65918 0
M  V30 7340 N 691.337 2.82989 -3.66704 0
M  V30 7341 C 692.072 3.41167 -4.60861 0
M  V30 7342 N 691.568 4.00425 -5.6536 0
M  V30 7343 N 693.361 3.38944 -4.48412 0
M  V30 7344 H 685.512 0.33053 -2.09812 0
M  V30 7345 H 687.775 0.208964 -0.924683 0
M  V30 7346 H 687.481 1.34119 -3.25123 0
M  V30 7347 H 687.355 2.88609 -2.42868 0
M  V30 7348 H 689.742 2.54234 -1.4983 0
M  V30 7349 H 689.823 0.996725 -2.35582 0
M  V30 7350 H 689.467 2.22861 -4.56394 0
M  V30 7351 H 689.397 3.77118 -3.67546 0
M  V30 7352 H 691.888 2.40912 -2.91153 0
M  V30 7353 H 692.201 4.42871 -6.33313 0
M  V30 7354 H 690.546 3.98856 -5.69157 0
M  V30 7355 H 693.737 2.91875 -3.6596 0
M  V30 7356 H 693.91 3.83989 -5.21974 0
M  V30 7357 N 687.317 1.12792 1.10072 0
M  V30 7358 C 688.542 0.908838 1.86427 0
M  V30 7359 C 688.967 -0.536793 1.80278 0
M  V30 7360 O 688.325 -1.38033 1.17543 0
M  V30 7361 C 688.373 1.39295 3.3261 0
M  V30 7362 O 687.477 0.573846 4.08388 0
M  V30 7363 H 686.818 0.326234 0.578331 0
M  V30 7364 H 689.348 1.50094 1.39043 0
M  V30 7365 H 689.358 1.39366 3.83459 0
M  V30 7366 H 688.033 2.44555 3.36401 0
M  V30 7367 H 686.61 0.640438 3.67359 0
M  V30 7368 N 688.795 -1.27931 0.920396 0
M  V30 7369 C 690.206 -1.76707 0.602616 0
M  V30 7370 C 690.557 -1.75249 -0.882159 0
M  V30 7371 O 689.682 -1.35135 -1.69019 0
M  V30 7372 C 690.277 -3.20884 1.08714 0
M  V30 7373 C 688.836 -3.67356 0.820157 0
M  V30 7374 C 687.983 -2.47525 1.25006 0
M  V30 7375 H 690.934 -1.14301 1.10095 0
M  V30 7376 H 690.955 -3.78045 0.431535 0
M  V30 7377 H 690.467 -3.21913 2.1678 0
M  V30 7378 H 688.568 -3.7178 -0.247012 0
M  V30 7379 H 688.681 -4.57181 1.43257 0
M  V30 7380 H 687.045 -2.45765 0.668698 0
M  V30 7381 H 687.828 -2.51269 2.3392 0
M  V30 7382 N 690.273 -0.685099 -1.4193 0
M  V30 7383 C 691.498 -0.218842 -2.06242 0
M  V30 7384 C 691.923 1.11923 -1.51178 0
M  V30 7385 O 691.281 1.69837 -0.634446 0
M  V30 7386 C 691.329 -0.175592 -3.60172 0
M  V30 7387 O 690.433 0.852776 -4.03487 0
M  V30 7388 H 689.774 -0.109531 -0.654904 0
M  V30 7389 H 692.304 -0.937013 -1.81882 0
M  V30 7390 H 692.314 -0.00291151 -4.08 0
M  V30 7391 H 690.989 -1.15222 -3.99621 0
M  V30 7392 H 689.566 0.650301 -3.67186 0
M  V30 7393 N 691.751 1.51645 -0.429126 0
M  V30 7394 C 692.714 2.26116 0.374726 0
M  V30 7395 C 693.714 1.29242 0.956714 0
M  V30 7396 O 694.904 1.53022 0.832452 0
M  V30 7397 C 692.036 3.04669 1.52937 0
M  V30 7398 H 693.229 2.9861 -0.277818 0
M  V30 7399 H 690.782 1.55236 -0.182097 0
M  V30 7400 H 691.517 2.36571 2.21821 0
M  V30 7401 H 691.302 3.75814 1.11833 0
M  V30 7402 H 692.792 3.61102 2.09751 0
M  V30 7403 N 693.229 0.160201 1.56784 0
M  V30 7404 C 694.506 -0.533355 1.88188 0
M  V30 7405 C 694.886 -1.82072 1.06831 0
M  V30 7406 O 694.234 -2.27946 0.158959 0
M  V30 7407 C 694.444 -0.786034 3.40033 0
M  V30 7408 C 695.792 -1.12097 4.09536 0
M  V30 7409 O 696.816 -0.874949 3.45287 0
M  V30 7410 O 695.675 -1.58457 5.23023 0
M  V30 7411 H 692.769 -0.273589 0.780434 0
M  V30 7412 H 695.315 0.197803 1.68543 0
M  V30 7413 H 694.087 0.124515 3.91102 0
M  V30 7414 H 693.71 -1.57091 3.65251 0
M  V30 7415 N 694.707 -1.5719 -0.113559 0
M  V30 7416 C 695.639 -1.97393 -1.16484 0
M  V30 7417 C 696.652 -0.873964 -1.37352 0
M  V30 7418 O 697.841 -1.15222 -1.36331 0
M  V30 7419 C 694.941 -2.26174 -2.52386 0
M  V30 7420 C 694.114 -3.57479 -2.52046 0
M  V30 7421 C 693.173 -3.74409 -3.69735 0
M  V30 7422 O 692.199 -4.46463 -3.53071 0
M  V30 7423 N 693.401 -3.13588 -4.88511 0
M  V30 7424 H 696.166 -2.88184 -0.822814 0
M  V30 7425 H 693.727 -1.59044 -0.302769 0
M  V30 7426 H 695.719 -2.3471 -3.29687 0
M  V30 7427 H 694.289 -1.41483 -2.7875 0
M  V30 7428 H 693.509 -3.60081 -1.60421 0
M  V30 7429 H 694.797 -4.43775 -2.48881 0
M  V30 7430 H 694.195 -2.55026 -5.04953 0
M  V30 7431 H 692.752 -3.27637 -5.63469 0
M  V30 7432 N 696.185 0.383891 -1.52853 0
M  V30 7433 C 697.41 1.154 -1.7233 0
M  V30 7434 C 697.835 1.82809 -0.44298 0
M  V30 7435 O 697.193 1.71026 0.601645 0
M  V30 7436 C 697.241 2.17386 -2.87708 0
M  V30 7437 O 696.345 3.24082 -2.55038 0
M  V30 7438 H 695.686 0.335709 -0.572883 0
M  V30 7439 H 698.216 0.44662 -1.99666 0
M  V30 7440 H 698.226 2.61296 -3.1335 0
M  V30 7441 H 696.901 1.6771 -3.80587 0
M  V30 7442 H 695.478 2.85273 -2.40153 0
M  V30 7443 N 697.663 1.43903 0.642637 0
M  V30 7444 C 698.593 1.52697 1.76652 0
M  V30 7445 C 699.574 0.380816 1.65782 0
M  V30 7446 O 700.759 0.599432 1.84717 0
M  V30 7447 C 697.889 1.45975 3.15133 0
M  V30 7448 C 696.843 2.58949 3.40778 0
M  V30 7449 C 696.169 2.37279 4.79169 0
M  V30 7450 C 697.469 4.01153 3.34475 0
M  V30 7451 H 699.163 2.46766 1.69549 0
M  V30 7452 H 696.709 1.18767 0.814279 0
M  V30 7453 H 698.662 1.5073 3.93521 0
M  V30 7454 H 697.386 0.484162 3.22991 0
M  V30 7455 H 696.045 2.53564 2.64765 0
M  V30 7456 H 695.693 1.37939 4.83717 0
M  V30 7457 H 695.393 3.13016 4.97287 0
M  V30 7458 H 696.917 2.43834 5.59801 0
M  V30 7459 H 698.331 4.07968 4.02784 0
M  V30 7460 H 696.728 4.77001 3.64129 0
M  V30 7461 H 697.798 4.25539 2.32475 0
M  V30 7462 N 699.141 -0.881989 1.30609 0
M  V30 7463 C 700.051 -2.02076 1.19174 0
M  V30 7464 C 701.067 -1.73645 0.11102 0
M  V30 7465 O 702.243 -1.98735 0.326528 0
M  V30 7466 C 699.308 -3.3515 0.887438 0
M  V30 7467 C 698.369 -3.76983 2.05383 0
M  V30 7468 C 697.602 -5.03707 1.76395 0
M  V30 7469 O 697.825 -5.66171 0.693302 0
M  V30 7470 O 696.759 -5.42019 2.61723 0
M  V30 7471 H 700.585 -2.14652 2.14845 0
M  V30 7472 H 698.17 -1.00843 1.10232 0
M  V30 7473 H 700.052 -4.14975 0.73306 0
M  V30 7474 H 698.727 -3.23676 -0.0393354 0
M  V30 7475 H 697.634 -2.97849 2.26355 0
M  V30 7476 H 698.967 -3.93066 2.96243 0
M  V30 7477 N 700.619 -1.13374 -1.09472 0
M  V30 7478 C 701.896 -0.806329 -1.78207 0
M  V30 7479 C 702.276 0.702191 -1.99079 0
M  V30 7480 O 701.624 1.63931 -1.59182 0
M  V30 7481 C 701.834 -1.59271 -3.10538 0
M  V30 7482 C 703.182 -1.78509 -3.85253 0
M  V30 7483 O 704.206 -1.55866 -3.20288 0
M  V30 7484 O 703.065 -2.16287 -5.01879 0
M  V30 7485 H 700.159 -0.29435 -0.772843 0
M  V30 7486 H 702.705 -1.23833 -1.16033 0
M  V30 7487 H 701.477 -2.61792 -2.90828 0
M  V30 7488 H 701.1 -1.15562 -3.80436 0
M  V30 7489 N 702.098 1.27442 -0.927168 0
M  V30 7490 C 703.323 1.99036 -0.583042 0
M  V30 7491 C 703.748 1.68711 0.83176 0
M  V30 7492 O 703.106 0.927081 1.55804 0
M  V30 7493 C 703.154 3.51271 -0.814925 0
M  V30 7494 O 702.258 4.12226 0.119742 0
M  V30 7495 H 701.599 0.624883 -0.224538 0
M  V30 7496 H 704.129 1.62263 -1.24628 0
M  V30 7497 H 704.139 4.01411 -0.730282 0
M  V30 7498 H 702.814 3.72676 -1.84623 0
M  V30 7499 H 701.391 3.72897 -0.0147688 0
M  V30 7500 N 703.576 0.692616 1.41565 0
M  V30 7501 C 704.987 0.297478 1.84315 0
M  V30 7502 C 705.338 -1.16379 1.57957 0
M  V30 7503 O 704.463 -1.89303 1.0485 0
M  V30 7504 C 705.058 0.533136 3.34579 0
M  V30 7505 C 703.617 0.191944 3.7591 0
M  V30 7506 C 702.764 0.816873 2.64995 0
M  V30 7507 H 705.715 0.893488 1.31158 0
M  V30 7508 H 705.736 -0.209105 3.79925 0
M  V30 7509 H 705.248 1.59674 3.53731 0
M  V30 7510 H 703.349 -0.867512 3.6236 0
M  V30 7511 H 703.462 0.644902 4.7474 0
M  V30 7512 H 701.826 0.246715 2.53502 0
M  V30 7513 H 702.609 1.88429 2.86966 0
M  V30 7514 N 705.054 -1.51416 0.437162 0
M  V30 7515 C 706.279 -2.0699 -0.130424 0
M  V30 7516 C 706.704 -1.30249 -1.35709 0
M  V30 7517 O 706.062 -0.340388 -1.78076 0
M  V30 7518 C 706.11 -3.5801 -0.43142 0
M  V30 7519 O 705.214 -3.8345 -1.5179 0
M  V30 7520 H 704.555 -0.663997 -0.00194339 0
M  V30 7521 H 707.085 -1.95029 0.618445 0
M  V30 7522 H 707.095 -4.02261 -0.681926 0
M  V30 7523 H 705.77 -4.13291 0.465137 0
M  V30 7524 H 704.347 -3.51062 -1.25737 0
M  V30 7525 N 706.532 -0.168513 -1.56696 0
M  V30 7526 C 707.479 0.762875 -2.17828 0
M  V30 7527 C 708.449 1.22892 -1.11745 0
M  V30 7528 O 709.634 1.29759 -1.39883 0
M  V30 7529 C 706.774 1.9879 -2.82093 0
M  V30 7530 C 705.887 1.56568 -4.02629 0
M  V30 7531 C 705.022 2.74416 -4.54829 0
M  V30 7532 C 704.061 2.28671 -5.67782 0
M  V30 7533 N 703.198 3.39602 -6.14504 0
M  V30 7534 H 708.038 0.23479 -2.97074 0
M  V30 7535 H 705.575 0.104163 -1.46731 0
M  V30 7536 H 707.533 2.70636 -3.17509 0
M  V30 7537 H 706.163 2.48973 -2.05456 0
M  V30 7538 H 705.215 0.744067 -3.73052 0
M  V30 7539 H 706.527 1.18988 -4.844 0
M  V30 7540 H 705.681 3.54423 -4.92412 0
M  V30 7541 H 704.42 3.15254 -3.7211 0
M  V30 7542 H 703.425 1.4711 -5.29753 0
M  V30 7543 H 704.65 1.88894 -6.52301 0
M  V30 7544 H 702.596 3.80021 -5.34715 0
M  V30 7545 H 702.513 3.06105 -6.91257 0
M  V30 7546 H 703.781 4.19902 -6.56737 0
M  V30 7547 N 708.01 1.57248 0.105221 0
M  V30 7548 C 709.256 1.85845 0.811753 0
M  V30 7549 C 709.589 0.756219 1.78871 0
M  V30 7550 O 708.864 -0.236736 1.93054 0
M  V30 7551 C 709.147 3.25059 1.54947 0
M  V30 7552 C 709 4.45898 0.591185 0
M  V30 7553 C 710.319 3.6203 2.50245 0
M  V30 7554 H 707.438 0.675973 0.293649 0
M  V30 7555 H 710.08 1.89849 0.0756269 0
M  V30 7556 H 708.23 3.21776 2.17698 0
M  V30 7557 H 709.902 4.61291 -0.0285352 0
M  V30 7558 H 708.145 4.33693 -0.0962343 0
M  V30 7559 H 708.816 5.40009 1.1443 0
M  V30 7560 H 711.292 3.66192 1.97593 0
M  V30 7561 H 710.168 4.60389 2.98886 0
M  V30 7562 H 710.429 2.90176 3.33542 0
M  V30 7563 N 709.488 -0.375779 1.53054 0
M  V30 7564 C 710.899 -0.95309 1.6054 0
M  V30 7565 C 711.25 -1.90575 0.466446 0
M  V30 7566 O 710.375 -2.12507 -0.408609 0
M  V30 7567 C 710.97 -1.73537 2.90982 0
M  V30 7568 C 709.529 -2.26218 3.00836 0
M  V30 7569 C 708.676 -1.07157 2.55759 0
M  V30 7570 H 711.627 -0.154895 1.57942 0
M  V30 7571 H 711.648 -2.59574 2.78211 0
M  V30 7572 H 711.16 -1.04176 3.73857 0
M  V30 7573 H 709.261 -2.98852 2.22527 0
M  V30 7574 H 709.374 -2.54799 4.05727 0
M  V30 7575 H 707.738 -1.43553 2.10391 0
M  V30 7576 H 708.521 -0.393099 3.41042 0
M  V30 7577 N 710.966 -1.44241 -0.634997 0
M  V30 7578 C 711.913 -1.5081 -1.74714 0
M  V30 7579 C 712.883 -0.356147 -1.62237 0
M  V30 7580 O 714.068 -0.565848 -1.82216 0
M  V30 7581 C 711.208 -1.45458 -3.12947 0
M  V30 7582 C 710.321 -2.70998 -3.36428 0
M  V30 7583 C 709.456 -2.57507 -4.64611 0
M  V30 7584 C 708.495 -3.78229 -4.81258 0
M  V30 7585 N 707.632 -3.63438 -6.00714 0
M  V30 7586 H 712.472 -2.45832 -1.68436 0
M  V30 7587 H 710.009 -1.2201 -0.821706 0
M  V30 7588 H 711.967 -1.40347 -3.92885 0
M  V30 7589 H 710.597 -0.540058 -3.1825 0
M  V30 7590 H 709.649 -2.86312 -2.50458 0
M  V30 7591 H 710.961 -3.60619 -3.44609 0
M  V30 7592 H 710.115 -2.50207 -5.52703 0
M  V30 7593 H 708.854 -1.65441 -4.58782 0
M  V30 7594 H 707.859 -3.85918 -3.91596 0
M  V30 7595 H 709.084 -4.71327 -4.88904 0
M  V30 7596 H 707.03 -2.7412 -5.95982 0
M  V30 7597 H 706.947 -4.46672 -6.09934 0
M  V30 7598 H 708.215 -3.60022 -6.91378 0
M  V30 7599 N 712.444 0.87505 -1.31075 0
M  V30 7600 C 713.669 1.66583 -1.23551 0
M  V30 7601 C 714.094 1.87067 0.19686 0
M  V30 7602 O 713.452 1.40877 1.1412 0
M  V30 7603 C 713.5 3.01401 -1.97965 0
M  V30 7604 O 712.604 3.90923 -1.31351 0
M  V30 7605 H 711.945 0.508645 -0.426821 0
M  V30 7606 H 714.475 1.09139 -1.7306 0
M  V30 7607 H 714.485 3.51374 -2.07366 0
M  V30 7608 H 713.16 2.85812 -3.02133 0
M  V30 7609 H 711.737 3.49369 -1.30368 0
M  V30 7610 N 713.922 1.13953 1.08869 0
M  V30 7611 C 715.168 0.916103 1.81602 0
M  V30 7612 C 715.523 -0.551633 1.84322 0
M  V30 7613 O 714.816 -1.40322 1.30462 0
M  V30 7614 C 715.01 1.44495 3.26888 0
M  V30 7615 C 714.839 2.96257 3.38322 0
M  V30 7616 C 713.609 3.64658 3.49789 0
M  V30 7617 C 715.807 3.94156 3.30372 0
M  V30 7618 N 713.789 5.04379 3.49965 0
M  V30 7619 C 715.16 5.20101 3.37484 0
M  V30 7620 C 717.215 3.86342 3.14077 0
M  V30 7621 C 715.918 6.39145 3.29979 0
M  V30 7622 C 717.944 5.04927 3.07901 0
M  V30 7623 C 717.306 6.29738 3.1561 0
M  V30 7624 H 713.405 0.388701 0.678554 0
M  V30 7625 H 715.989 1.44879 1.3007 0
M  V30 7626 H 714.16 0.939102 3.76876 0
M  V30 7627 H 715.892 1.16193 3.87661 0
M  V30 7628 H 712.647 3.15196 3.5348 0
M  V30 7629 H 713.071 5.77305 3.53622 0
M  V30 7630 H 717.713 2.90726 3.06982 0
M  V30 7631 H 715.431 7.3501 3.35836 0
M  V30 7632 H 719.017 5.00626 2.9642 0
M  V30 7633 H 717.897 7.19958 3.10854 0
M  V30 7634 N 715.4 -1.26948 0.933913 0
M  V30 7635 C 716.625 -1.98724 0.593589 0
M  V30 7636 C 717.05 -1.6915 -0.822801 0
M  V30 7637 O 716.408 -0.93533 -1.5531 0
M  V30 7638 C 716.456 -3.50834 0.833542 0
M  V30 7639 O 715.56 -4.12284 -0.0978788 0
M  V30 7640 H 714.901 -0.623683 0.227849 0
M  V30 7641 H 717.431 -1.61599 1.25486 0
M  V30 7642 H 717.441 -4.01018 0.75156 0
M  V30 7643 H 716.116 -3.71691 1.86597 0
M  V30 7644 H 714.693 -3.72884 0.0345443 0
M  V30 7645 N 716.879 -0.700114 -1.41195 0
M  V30 7646 C 718.126 -0.233006 -2.01155 0
M  V30 7647 C 718.454 1.16883 -1.55462 0
M  V30 7648 O 717.709 1.80395 -0.758695 0
M  V30 7649 C 718.008 -0.243986 -3.56566 0
M  V30 7650 C 717.674 -1.59397 -4.21786 0
M  V30 7651 C 716.336 -1.96355 -4.39316 0
M  V30 7652 C 718.688 -2.48192 -4.58312 0
M  V30 7653 C 716.016 -3.21683 -4.9065 0
M  V30 7654 C 718.368 -3.72857 -5.11039 0
M  V30 7655 C 717.032 -4.09951 -5.26779 0
M  V30 7656 H 716.302 -0.085263 -0.736078 0
M  V30 7657 H 718.949 -0.9001 -1.69028 0
M  V30 7658 H 717.254 0.506663 -3.8851 0
M  V30 7659 H 718.951 0.135031 -4.00773 0
M  V30 7660 H 715.541 -1.29654 -4.08519 0
M  V30 7661 H 719.725 -2.20918 -4.4442 0
M  V30 7662 H 714.981 -3.50412 -5.01021 0
M  V30 7663 H 719.155 -4.41844 -5.38282 0
M  V30 7664 H 716.782 -5.07136 -5.66319 0
M  V30 7665 N 718.357 1.51182 -0.445186 0
M  V30 7666 C 719.605 2.01753 0.11841 0
M  V30 7667 C 719.926 1.33087 1.42523 0
M  V30 7668 O 719.196 0.467891 1.9023 0
M  V30 7669 H 717.776 0.745536 0.0467492 0
M  V30 7670 H 720.438 1.85765 -0.589688 0
M  V30 7671 H 719.534 3.10762 0.288665 0
M  V30 7672 N 719.835 0.176821 1.56605 0
M  V30 7673 C 721.112 -0.513365 1.88743 0
M  V30 7674 C 721.492 -1.80929 1.08757 0
M  V30 7675 O 720.84 -2.27765 0.183127 0
M  V30 7676 C 721.05 -0.749925 3.40848 0
M  V30 7677 C 722.398 -1.07747 4.10701 0
M  V30 7678 O 723.422 -0.838277 3.46196 0
M  V30 7679 O 722.281 -1.52901 5.24675 0
M  V30 7680 H 719.375 -0.265296 0.783292 0
M  V30 7681 H 721.921 0.215669 1.68324 0
M  V30 7682 H 720.693 0.16599 3.90948 0
M  V30 7683 H 720.316 -1.53208 3.66897 0
M  V30 7684 N 721.313 -1.57302 -0.09688 0
M  V30 7685 C 722.729 -1.53094 -0.451041 0
M  V30 7686 C 722.929 -0.893265 -1.80618 0
M  V30 7687 O 721.985 -0.485013 -2.47798 0
M  V30 7688 C 723.298 -2.9782 -0.415172 0
M  V30 7689 C 724.846 -3.09026 -0.497155 0
M  V30 7690 C 725.321 -4.55356 -0.491452 0
M  V30 7691 N 726.812 -4.59896 -0.552258 0
M  V30 7692 C 727.547 -5.70563 -0.569654 0
M  V30 7693 N 727.043 -6.90666 -0.543365 0
M  V30 7694 N 728.836 -5.58733 -0.614331 0
M  V30 7695 H 720.987 -1.97131 0.790771 0
M  V30 7696 H 723.25 -0.901211 0.294147 0
M  V30 7697 H 722.956 -3.47933 0.513362 0
M  V30 7698 H 722.83 -3.56416 -1.23481 0
M  V30 7699 H 725.217 -2.58902 -1.41611 0
M  V30 7700 H 725.298 -2.53386 0.35059 0
M  V30 7701 H 724.942 -5.06131 0.423549 0
M  V30 7702 H 724.872 -5.08832 -1.35639 0
M  V30 7703 H 727.363 -3.73456 -0.577842 0
M  V30 7704 H 727.676 -7.70769 -0.559873 0
M  V30 7705 H 726.021 -6.93123 -0.510441 0
M  V30 7706 H 729.212 -4.63809 -0.632387 0
M  V30 7707 H 729.385 -6.44984 -0.62442 0
M  V30 7708 N 722.791 0.367657 -1.53252 0
M  V30 7709 C 724.016 1.13566 -1.73544 0
M  V30 7710 C 724.441 1.82329 -0.462344 0
M  V30 7711 O 723.799 1.71655 0.583472 0
M  V30 7712 C 723.847 2.14322 -2.89997 0
M  V30 7713 O 722.951 3.21359 -2.58461 0
M  V30 7714 H 722.292 0.329614 -0.576412 0
M  V30 7715 H 724.822 0.425417 -2.00128 0
M  V30 7716 H 724.832 2.57958 -3.16104 0
M  V30 7717 H 723.507 1.63664 -3.82344 0
M  V30 7718 H 722.084 2.8271 -2.43165 0
M  V30 7719 N 724.269 1.44576 0.627338 0
M  V30 7720 C 725.685 1.28546 0.945938 0
M  V30 7721 C 725.885 0.224003 2.00251 0
M  V30 7722 O 724.941 -0.388817 2.49488 0
M  V30 7723 C 726.254 2.65825 1.40561 0
M  V30 7724 C 727.802 2.73566 1.52088 0
M  V30 7725 C 728.277 4.11323 2.01438 0
M  V30 7726 N 729.768 4.13519 2.08702 0
M  V30 7727 C 730.503 5.16964 2.48065 0
M  V30 7728 N 729.999 6.30768 2.86538 0
M  V30 7729 N 731.792 5.04319 2.48232 0
M  V30 7730 H 723.943 2.1228 -0.0713567 0
M  V30 7731 H 726.206 0.947503 0.0307081 0
M  V30 7732 H 725.912 3.44591 0.703539 0
M  V30 7733 H 725.786 2.92969 2.37591 0
M  V30 7734 H 728.173 1.95116 2.21391 0
M  V30 7735 H 728.254 2.50159 0.534237 0
M  V30 7736 H 727.898 4.9025 1.32729 0
M  V30 7737 H 727.828 4.32109 3.0098 0
M  V30 7738 H 730.319 3.31385 1.81638 0
M  V30 7739 H 730.632 7.0551 3.15398 0
M  V30 7740 H 728.977 6.342 2.84281 0
M  V30 7741 H 732.168 4.14465 2.17569 0
M  V30 7742 H 732.341 5.85059 2.78585 0
M  V30 7743 N 725.747 -0.868086 1.31537 0
M  V30 7744 C 726.71 -1.95703 1.19302 0
M  V30 7745 C 727.71 -1.60355 0.119612 0
M  V30 7746 O 728.9 -1.70247 0.36902 0
M  V30 7747 C 726.032 -3.30599 0.831684 0
M  V30 7748 H 727.225 -2.07982 2.16064 0
M  V30 7749 H 724.778 -1.05661 1.15176 0
M  V30 7750 H 725.513 -3.2402 -0.134694 0
M  V30 7751 H 725.298 -3.57629 1.60761 0
M  V30 7752 H 726.788 -4.10439 0.770026 0
M  V30 7753 N 727.225 -1.14528 -1.08264 0
M  V30 7754 C 728.641 -0.885976 -1.3275 0
M  V30 7755 C 728.841 0.472096 -1.95892 0
M  V30 7756 O 727.897 1.21606 -2.21288 0
M  V30 7757 C 729.21 -2.01982 -2.22764 0
M  V30 7758 C 730.758 -2.05329 -2.36239 0
M  V30 7759 C 731.233 -3.1801 -3.29596 0
M  V30 7760 N 732.724 -3.17598 -3.37173 0
M  V30 7761 C 733.459 -4.01426 -4.09444 0
M  V30 7762 N 732.955 -4.95297 -4.8441 0
M  V30 7763 N 734.748 -3.89482 -4.0529 0
M  V30 7764 H 726.899 -2.01996 -0.656607 0
M  V30 7765 H 729.162 -0.880274 -0.351884 0
M  V30 7766 H 728.868 -2.99964 -1.83615 0
M  V30 7767 H 728.742 -1.94421 -3.23234 0
M  V30 7768 H 731.129 -1.07953 -2.74646 0
M  V30 7769 H 731.21 -2.1696 -1.35506 0
M  V30 7770 H 730.854 -4.15633 -2.9191 0
M  V30 7771 H 730.784 -3.03616 -4.30261 0
M  V30 7772 H 733.275 -2.4961 -2.83731 0
M  V30 7773 H 733.588 -5.55723 -5.37021 0
M  V30 7774 H 731.933 -4.99293 -4.83457 0
M  V30 7775 H 735.124 -3.15465 -3.45832 0
M  V30 7776 H 735.297 -4.55039 -4.6135 0
M  V30 7777 N 728.703 1.26451 -0.940633 0
M  V30 7778 C 729.635 2.25556 -0.407104 0
M  V30 7779 C 730.648 1.55888 0.469324 0
M  V30 7780 O 731.837 1.76292 0.279858 0
M  V30 7781 C 728.937 3.36109 0.434064 0
M  V30 7782 C 728.11 4.3532 -0.426082 0
M  V30 7783 C 727.169 5.25004 0.354563 0
M  V30 7784 O 726.195 5.68684 -0.242219 0
M  V30 7785 N 727.397 5.5652 1.65123 0
M  V30 7786 H 730.162 2.7197 -1.25907 0
M  V30 7787 H 727.723 1.40212 -0.809456 0
M  V30 7788 H 729.715 3.93059 0.963684 0
M  V30 7789 H 728.285 2.89194 1.18683 0
M  V30 7790 H 727.505 3.77449 -1.13692 0
M  V30 7791 H 728.793 4.986 -1.01366 0
M  V30 7792 H 728.191 5.22912 2.15822 0
M  V30 7793 H 726.748 6.16115 2.12711 0
M  V30 7794 N 730.181 0.707592 1.40822 0
M  V30 7795 C 731.144 0.0587224 2.29125 0
M  V30 7796 C 732.144 -0.695624 1.44975 0
M  V30 7797 O 733.334 -0.528718 1.65983 0
M  V30 7798 C 730.466 -0.926939 3.28056 0
M  V30 7799 H 731.659 0.836349 2.88002 0
M  V30 7800 H 729.212 0.471778 1.4901 0
M  V30 7801 H 729.947 -1.7319 2.74182 0
M  V30 7802 H 729.732 -0.389015 3.90165 0
M  V30 7803 H 731.222 -1.37837 3.94196 0
M  V30 7804 N 731.66 -1.50943 0.453197 0
M  V30 7805 C 732.907 -2.02212 -0.107922 0
M  V30 7806 C 733.235 -1.33639 -1.41318 0
M  V30 7807 O 732.49 -0.445154 -1.9057 0
M  V30 7808 C 732.789 -3.55603 -0.357944 0
M  V30 7809 C 732.455 -4.42556 0.863427 0
M  V30 7810 C 731.117 -4.6604 1.19834 0
M  V30 7811 C 733.469 -4.93468 1.67747 0
M  V30 7812 C 730.797 -5.37681 2.34768 0
M  V30 7813 C 733.149 -5.6637 2.81793 0
M  V30 7814 C 731.813 -5.88113 3.1572 0
M  V30 7815 H 731.083 -0.739947 -0.0394916 0
M  V30 7816 H 733.73 -1.81738 0.60363 0
M  V30 7817 H 732.035 -3.74495 -1.15156 0
M  V30 7818 H 733.732 -3.92821 -0.805781 0
M  V30 7819 H 730.322 -4.24485 0.592478 0
M  V30 7820 H 734.506 -4.75194 1.43192 0
M  V30 7821 H 729.762 -5.52727 2.61348 0
M  V30 7822 H 733.936 -6.04806 3.45229 0
M  V30 7823 H 731.563 -6.43404 4.04889 0
M  V30 7824 N 733.138 -0.185124 -1.56509 0
M  V30 7825 C 734.554 0.170865 -1.58683 0
M  V30 7826 C 734.754 1.61799 -1.20098 0
M  V30 7827 O 733.81 2.35181 -0.919038 0
M  V30 7828 C 735.123 -0.122459 -3.00451 0
M  V30 7829 C 736.671 -0.0617699 -3.12939 0
M  V30 7830 C 737.146 -0.328269 -4.56822 0
M  V30 7831 N 738.637 -0.276533 -4.62374 0
M  V30 7832 C 739.372 -0.456722 -5.71578 0
M  V30 7833 N 738.868 -0.69672 -6.89288 0
M  V30 7834 N 740.661 -0.391669 -5.60734 0
M  V30 7835 H 732.812 -1.12956 -1.79874 0
M  V30 7836 H 735.075 -0.45011 -0.834329 0
M  V30 7837 H 734.781 -1.12546 -3.33206 0
M  V30 7838 H 734.655 0.579578 -3.72721 0
M  V30 7839 H 737.042 0.931826 -2.80002 0
M  V30 7840 H 737.123 -0.796732 -2.43076 0
M  V30 7841 H 736.767 -1.31914 -4.9047 0
M  V30 7842 H 736.697 0.427465 -5.24862 0
M  V30 7843 H 739.188 -0.0972458 -3.77775 0
M  V30 7844 H 739.501 -0.823291 -7.68402 0
M  V30 7845 H 737.846 -0.733497 -6.91119 0
M  V30 7846 H 741.037 -0.204663 -4.67652 0
M  V30 7847 H 741.21 -0.535518 -6.45783 0
M  V30 7848 N 734.616 1.57351 0.0885366 0
M  V30 7849 C 735.865 1.85604 0.789556 0
M  V30 7850 C 736.178 0.775352 1.79576 0
M  V30 7851 O 737.384 0.945206 2.54515 0
M  V30 7852 C 735.84 3.29175 1.45506 0
M  V30 7853 C 735.448 4.45331 0.488278 0
M  V30 7854 C 737.192 3.66646 2.13942 0
M  V30 7855 C 735.099 5.79937 1.15874 0
M  V30 7856 H 734.029 0.692346 0.298619 0
M  V30 7857 H 736.68 1.83451 0.0425821 0
M  V30 7858 H 735.062 3.25889 2.24972 0
M  V30 7859 H 736.236 4.59977 -0.275359 0
M  V30 7860 H 734.551 4.16301 -0.0907363 0
M  V30 7861 H 737.148 4.64498 2.6485 0
M  V30 7862 H 737.491 2.956 2.93132 0
M  V30 7863 H 738.024 3.71848 1.41328 0
M  V30 7864 H 734.763 6.54232 0.407508 0
M  V30 7865 H 734.283 5.69123 1.89364 0
M  V30 7866 H 735.962 6.24718 1.68336 0
M  V30 7867 N 736.094 -0.359525 1.53444 0
M  V30 7868 C 737.041 -1.44073 1.8031 0
M  V30 7869 C 738.011 -1.52946 0.647811 0
M  V30 7870 O 739.196 -1.68739 0.890614 0
M  V30 7871 C 736.336 -2.80941 2.00416 0
M  V30 7872 C 735.449 -2.80986 3.28132 0
M  V30 7873 C 734.584 -4.09468 3.38393 0
M  V30 7874 C 733.623 -4.03679 4.60119 0
M  V30 7875 N 732.76 -5.23821 4.675 0
M  V30 7876 H 737.6 -1.20464 2.72566 0
M  V30 7877 H 735.137 -0.583859 1.35017 0
M  V30 7878 H 737.095 -3.60459 2.1006 0
M  V30 7879 H 735.725 -3.02936 1.11489 0
M  V30 7880 H 734.777 -1.93666 3.27411 0
M  V30 7881 H 736.089 -2.72583 4.17732 0
M  V30 7882 H 735.243 -4.97404 3.47382 0
M  V30 7883 H 733.982 -4.20632 2.4682 0
M  V30 7884 H 732.987 -3.14129 4.51224 0
M  V30 7885 H 734.212 -3.94112 5.5304 0
M  V30 7886 H 732.158 -5.35559 3.7883 0
M  V30 7887 H 732.075 -5.17611 5.51013 0
M  V30 7888 H 733.343 -6.13572 4.8078 0
M  V30 7889 N 737.572 -1.44907 -0.619662 0
M  V30 7890 C 738.82 -1.47999 -1.37625 0
M  V30 7891 C 739.141 -0.118295 -1.94641 0
M  V30 7892 O 738.411 0.85086 -1.76457 0
M  V30 7893 H 736.991 -0.544993 -0.510873 0
M  V30 7894 H 739.653 -1.80772 -0.728522 0
M  V30 7895 H 738.749 -2.21196 -2.20179 0
M  V30 7896 N 739.05 0.861098 -1.31996 0
M  V30 7897 C 740.013 1.95068 -1.20338 0
M  V30 7898 C 741.013 1.60289 -0.128114 0
M  V30 7899 O 742.203 1.70048 -0.378044 0
M  V30 7900 C 739.335 3.30153 -0.849205 0
M  V30 7901 H 740.528 2.06833 -2.17164 0
M  V30 7902 H 738.081 1.05049 -1.15734 0
M  V30 7903 H 738.816 3.24087 0.117508 0
M  V30 7904 H 738.601 3.56771 -1.62655 0
M  V30 7905 H 740.091 4.10025 -0.791782 0
M  V30 7906 N 740.528 1.15101 1.07655 0
M  V30 7907 C 741.491 0.847625 2.12951 0
M  V30 7908 C 742.491 -0.151227 1.60087 0
M  V30 7909 O 743.681 0.0780399 1.74025 0
M  V30 7910 C 740.813 0.265 3.39868 0
M  V30 7911 H 742.006 1.7809 2.41296 0
M  V30 7912 H 739.559 0.958072 1.23494 0
M  V30 7913 H 740.294 -0.676625 3.17163 0
M  V30 7914 H 740.079 0.984554 3.79538 0
M  V30 7915 H 741.569 0.0702121 4.17541 0
M  V30 7916 N 742.006 -1.2595 0.947325 0
M  V30 7917 C 743.231 -1.98083 0.614633 0
M  V30 7918 C 743.656 -1.70013 -0.804815 0
M  V30 7919 O 743.014 -0.95175 -1.54309 0
M  V30 7920 C 743.062 -3.4993 0.870706 0
M  V30 7921 O 742.166 -4.12364 -0.0541451 0
M  V30 7922 H 741.507 -0.621232 0.234451 0
M  V30 7923 H 744.037 -1.60259 1.27193 0
M  V30 7924 H 744.047 -4.00198 0.794051 0
M  V30 7925 H 742.722 -3.69691 1.90529 0
M  V30 7926 H 741.299 -3.72826 0.0740917 0
M  V30 7927 N 743.484 -0.715051 -1.40445 0
M  V30 7928 C 744.9 -0.388555 -1.54798 0
M  V30 7929 C 745.1 1.10271 -1.68649 0
M  V30 7930 O 744.156 1.88875 -1.67578 0
M  V30 7931 C 745.469 -1.15414 -2.77669 0
M  V30 7932 C 747.017 -1.14039 -2.91486 0
M  V30 7933 C 747.492 -1.88812 -4.1727 0
M  V30 7934 N 748.983 -1.85878 -4.24268 0
M  V30 7935 C 749.718 -2.40558 -5.20499 0
M  V30 7936 N 749.214 -3.03791 -6.22642 0
M  V30 7937 N 751.007 -2.30703 -5.12574 0
M  V30 7938 H 743.158 -1.68201 -1.297 0
M  V30 7939 H 745.421 -0.710915 -0.627139 0
M  V30 7940 H 745.127 -2.20853 -2.7371 0
M  V30 7941 H 745.001 -0.745412 -3.69761 0
M  V30 7942 H 747.388 -0.0941996 -2.9495 0
M  V30 7943 H 747.469 -1.58834 -2.00513 0
M  V30 7944 H 747.113 -2.93422 -4.14568 0
M  V30 7945 H 747.043 -1.41438 -5.0725 0
M  V30 7946 H 749.534 -1.39794 -3.51093 0
M  V30 7947 H 749.847 -3.43032 -6.92495 0
M  V30 7948 H 748.192 -3.07875 -6.23087 0
M  V30 7949 H 751.383 -1.80961 -4.31707 0
M  V30 7950 H 751.556 -2.73618 -5.87398 0
M  V30 7951 N 744.962 1.50701 -0.461195 0
M  V30 7952 C 745.894 2.26124 0.374244 0
M  V30 7953 C 746.907 1.31064 0.965715 0
M  V30 7954 O 748.096 1.56647 0.855801 0
M  V30 7955 C 745.196 3.01996 1.5379 0
M  V30 7956 C 744.369 4.24336 1.06101 0
M  V30 7957 C 743.428 4.82585 2.09756 0
M  V30 7958 O 742.454 5.43775 1.68219 0
M  V30 7959 N 743.656 4.68712 3.42475 0
M  V30 7960 H 746.421 2.9846 -0.2723 0
M  V30 7961 H 743.982 1.59256 -0.291415 0
M  V30 7962 H 745.974 3.37846 2.22806 0
M  V30 7963 H 744.544 2.32521 2.08933 0
M  V30 7964 H 743.764 3.93707 0.197085 0
M  V30 7965 H 745.052 5.03678 0.720156 0
M  V30 7966 H 744.45 4.20026 3.78938 0
M  V30 7967 H 743.007 5.08858 4.07317 0
M  V30 7968 N 746.441 0.193421 1.56409 0
M  V30 7969 C 747.389 -0.744829 2.20352 0
M  V30 7970 C 748.383 -1.22104 1.17418 0
M  V30 7971 O 749.589 -1.18413 1.35567 0
M  V30 7972 H 745.964 -0.258538 0.70616 0
M  V30 7973 H 747.935 -0.181794 2.97846 0
M  V30 7974 C 746.684 -1.95453 2.87565 0
M  V30 7975 H 746.007 -1.59716 3.66512 0
M  V30 7976 H 747.447 -2.58942 3.35745 0
M  V30 7977 C 745.906 -2.79223 1.8851 0
M  V30 7978 O 746.436 -3.77093 1.38434 0
M  V30 7979 N 744.642 -2.44682 1.56777 0
M  V30 7980 H 744.189 -1.65153 1.97692 0
M  V30 7981 H 744.147 -3.01016 0.907573 0
M  V30 7982 N 747.919 -1.57396 -0.0801906 0
M  V30 7983 C 749.144 -1.91437 -0.797909 0
M  V30 7984 C 749.569 -0.789075 -1.70749 0
M  V30 7985 O 748.927 0.25857 -1.79447 0
M  V30 7986 C 748.975 -3.24402 -1.57467 0
M  V30 7987 O 748.079 -3.13043 -2.68473 0
M  V30 7988 H 747.42 -0.627109 -0.218243 0
M  V30 7989 H 749.95 -2.04537 -0.050949 0
M  V30 7990 H 749.96 -3.58072 -1.95571 0
M  V30 7991 H 748.635 -4.05884 -0.907229 0
M  V30 7992 H 747.212 -2.90915 -2.33287 0
M  V30 7993 N 749.397 0.351382 -1.53633 0
M  V30 7994 C 750.307 1.45471 -1.84052 0
M  V30 7995 C 751.323 1.57945 -0.730015 0
M  V30 7996 O 752.499 1.73571 -1.02153 0
M  V30 7997 C 749.564 2.80562 -2.03681 0
M  V30 7998 C 748.625 2.77497 -3.27558 0
M  V30 7999 C 747.858 4.06144 -3.46241 0
M  V30 8000 O 748.081 5.03028 -2.68922 0
M  V30 8001 O 747.015 4.11092 -4.39645 0
M  V30 8002 H 750.841 1.22684 -2.77817 0
M  V30 8003 H 748.426 0.542827 -1.3919 0
M  V30 8004 H 750.308 3.6058 -2.18082 0
M  V30 8005 H 748.983 3.03296 -1.13106 0
M  V30 8006 H 747.89 1.96126 -3.18568 0
M  V30 8007 H 749.223 2.59716 -4.18101 0
M  V30 8008 N 750.875 1.45233 0.611969 0
M  V30 8009 C 751.785 1.56098 1.7513 0
M  V30 8010 C 752.801 0.445646 1.68196 0
M  V30 8011 O 753.977 0.705718 1.88631 0
M  V30 8012 C 751.042 1.52052 3.11579 0
M  V30 8013 C 750.103 2.74589 3.29999 0
M  V30 8014 C 749.336 2.70726 4.59938 0
M  V30 8015 O 749.559 1.77806 5.41979 0
M  V30 8016 O 748.493 3.61864 4.80976 0
M  V30 8017 H 752.319 2.52392 1.68914 0
M  V30 8018 H 749.904 1.27695 0.775528 0
M  V30 8019 H 751.786 1.52387 3.92882 0
M  V30 8020 H 750.461 0.589085 3.18295 0
M  V30 8021 H 749.368 2.79817 2.48301 0
M  V30 8022 H 750.701 3.66843 3.28157 0
M  V30 8023 N 752.353 -0.854086 1.3245 0
M  V30 8024 C 753.316 -1.94427 1.21371 0
M  V30 8025 C 754.316 -1.60219 0.136613 0
M  V30 8026 O 755.506 -1.69846 0.387057 0
M  V30 8027 C 752.638 -3.29698 0.866701 0
M  V30 8028 H 753.831 -2.05679 2.18257 0
M  V30 8029 H 751.384 -1.04434 1.1629 0
M  V30 8030 H 752.119 -3.24145 -0.100319 0
M  V30 8031 H 751.904 -3.55903 1.64545 0
M  V30 8032 H 753.394 -4.09599 0.813515 0
M  V30 8033 N 753.831 -1.1567 -1.07043 0
M  V30 8034 C 755.056 -0.957946 -1.83952 0
M  V30 8035 C 755.481 0.488807 -1.81638 0
M  V30 8036 O 754.839 1.34869 -1.21162 0
M  V30 8037 C 754.887 -1.48064 -3.288 0
M  V30 8038 O 753.991 -0.681921 -4.06723 0
M  V30 8039 H 753.332 -0.341453 -0.569479 0
M  V30 8040 H 755.862 -1.53728 -1.35015 0
M  V30 8041 H 755.872 -1.49484 -3.7963 0
M  V30 8042 H 754.547 -2.53388 -3.29799 0
M  V30 8043 H 753.124 -0.737612 -3.65532 0
M  V30 8044 N 755.309 1.25446 -0.953992 0
M  V30 8045 C 756.239 2.28264 -0.491717 0
M  V30 8046 C 757.22 1.63717 0.461617 0
M  V30 8047 O 758.405 1.90821 0.36071 0
M  V30 8048 C 755.535 3.46525 0.231915 0
M  V30 8049 C 754.489 4.23247 -0.636098 0
M  V30 8050 C 753.815 5.34254 0.218238 0
M  V30 8051 C 755.115 4.85971 -1.91389 0
M  V30 8052 H 756.809 2.67183 -1.35106 0
M  V30 8053 H 754.355 1.2844 -0.651095 0
M  V30 8054 H 756.308 4.17576 0.566439 0
M  V30 8055 H 755.032 3.06594 1.12551 0
M  V30 8056 H 753.691 3.53978 -0.953696 0
M  V30 8057 H 753.339 4.90564 1.11156 0
M  V30 8058 H 753.039 5.86501 -0.359232 0
M  V30 8059 H 754.563 6.08138 0.547743 0
M  V30 8060 H 755.977 5.49168 -1.64581 0
M  V30 8061 H 754.374 5.48391 -2.43696 0
M  V30 8062 H 755.444 4.08192 -2.61738 0
M  V30 8063 N 756.787 0.722489 1.40064 0
M  V30 8064 C 758.198 0.336507 1.83642 0
M  V30 8065 C 758.549 -1.13002 1.6039 0
M  V30 8066 O 757.674 -1.87036 1.08842 0
M  V30 8067 C 758.269 0.603985 3.33373 0
M  V30 8068 C 756.828 0.271637 3.75419 0
M  V30 8069 C 755.975 0.872898 2.63203 0
M  V30 8070 H 758.926 0.921108 1.29233 0
M  V30 8071 H 758.947 -0.128471 3.80283 0
M  V30 8072 H 758.459 1.67141 3.50265 0
M  V30 8073 H 756.56 -0.790455 3.64119 0
M  V30 8074 H 756.673 0.745457 4.73265 0
M  V30 8075 H 755.037 0.300431 2.52922 0
M  V30 8076 H 755.82 1.94473 2.82905 0
M  V30 8077 N 758.265 -1.50454 0.469181 0
M  V30 8078 C 759.513 -2.01916 -0.0862982 0
M  V30 8079 C 759.834 -1.35337 -1.40388 0
M  V30 8080 O 759.104 -0.498096 -1.89462 0
M  V30 8081 H 757.684 -0.746185 -0.0348825 0
M  V30 8082 H 760.346 -1.84804 0.619167 0
M  V30 8083 H 759.442 -3.11182 -0.239189 0
M  V30 8084 N 759.743 -0.201713 -1.56304 0
M  V30 8085 C 760.653 0.728296 -2.23009 0
M  V30 8086 C 761.669 1.22945 -1.23128 0
M  V30 8087 O 762.845 1.27523 -1.55884 0
M  V30 8088 C 759.91 1.92792 -2.88153 0
M  V30 8089 C 758.971 1.47068 -4.03323 0
M  V30 8090 C 758.204 2.61312 -4.65351 0
M  V30 8091 O 758.427 3.7896 -4.26317 0
M  V30 8092 O 757.361 2.33646 -5.54701 0
M  V30 8093 H 761.187 0.190166 -3.03104 0
M  V30 8094 H 758.772 0.0278725 -1.49374 0
M  V30 8095 H 760.654 2.6289 -3.29343 0
M  V30 8096 H 759.329 2.45452 -2.11033 0
M  V30 8097 H 758.236 0.738299 -3.66742 0
M  V30 8098 H 759.569 0.990666 -4.82127 0
M  V30 8099 N 761.222 1.57436 0.0718424 0
M  V30 8100 C 762.499 1.78312 0.804006 0
M  V30 8101 C 762.879 0.789273 1.9579 0
M  V30 8102 O 762.227 -0.177605 2.27809 0
M  V30 8103 C 762.437 3.24798 1.277 0
M  V30 8104 C 763.785 3.88627 1.71039 0
M  V30 8105 O 764.809 3.28689 1.37266 0
M  V30 8106 O 763.668 4.94073 2.33567 0
M  V30 8107 H 760.762 0.73178 0.385262 0
M  V30 8108 H 763.308 1.69621 0.0519219 0
M  V30 8109 H 762.08 3.88688 0.45134 0
M  V30 8110 H 761.703 3.38213 2.0904 0
M  V30 8111 N 762.7 -0.34323 1.53817 0
M  V30 8112 C 763.949 -1.08086 1.70295 0
M  V30 8113 C 764.262 -1.89794 0.47302 0
M  V30 8114 O 765.468 -2.66498 0.518754 0
M  V30 8115 C 763.924 -1.97097 3.01133 0
M  V30 8116 C 763.532 -1.20594 4.31464 0
M  V30 8117 C 765.276 -2.70715 3.26976 0
M  V30 8118 C 763.183 -2.08636 5.53376 0
M  V30 8119 H 762.113 -0.407228 0.634572 0
M  V30 8120 H 764.764 -0.340328 1.80316 0
M  V30 8121 H 763.146 -2.74971 2.84969 0
M  V30 8122 H 764.32 -0.476282 4.58332 0
M  V30 8123 H 762.635 -0.587426 4.12236 0
M  V30 8124 H 765.232 -3.36857 4.15248 0
M  V30 8125 H 765.575 -3.37299 2.43998 0
M  V30 8126 H 766.108 -1.99914 3.43917 0
M  V30 8127 H 762.847 -1.46594 6.38898 0
M  V30 8128 H 762.367 -2.7939 5.30755 0
M  V30 8129 H 764.046 -2.67682 5.89029 0
M  V30 8130 N 764.178 -1.45556 -0.604258 0
M  V30 8131 C 765.424 -1.49968 -1.36519 0
M  V30 8132 C 765.757 -0.142236 -1.93678 0
M  V30 8133 O 765.032 0.843717 -1.75247 0
M  V30 8134 C 765.315 -2.58146 -2.51063 0
M  V30 8135 C 765.168 -4.03346 -1.99078 0
M  V30 8136 C 766.487 -2.62581 -3.53184 0
M  V30 8137 H 763.606 -0.545993 -0.495036 0
M  V30 8138 H 766.248 -1.77382 -0.680845 0
M  V30 8139 H 764.398 -2.34901 -3.09441 0
M  V30 8140 H 766.07 -4.37811 -1.45323 0
M  V30 8141 H 764.313 -4.13845 -1.30055 0
M  V30 8142 H 764.984 -4.74731 -2.81664 0
M  V30 8143 H 767.46 -2.83419 -3.04652 0
M  V30 8144 H 766.336 -3.40131 -4.30816 0
M  V30 8145 H 766.597 -1.67798 -4.09019 0
M  V30 8146 N 765.656 0.84705 -1.32902 0
M  V30 8147 C 766.933 1.58583 -1.14503 0
M  V30 8148 C 767.313 2.09075 0.291724 0
M  V30 8149 O 766.661 1.88636 1.28952 0
M  V30 8150 C 766.871 2.72605 -2.17916 0
M  V30 8151 C 768.219 3.41993 -2.51646 0
M  V30 8152 O 769.243 2.82838 -2.1652 0
M  V30 8153 O 768.102 4.48761 -3.1189 0
M  V30 8154 H 765.196 0.698756 -0.442345 0
M  V30 8155 H 767.742 0.890516 -1.44457 0
M  V30 8156 H 766.514 2.32876 -3.14459 0
M  V30 8157 H 766.137 3.49807 -1.89 0
M  V30 8158 N 767.134 1.16236 1.06428 0
M  V30 8159 C 768.411 0.853294 1.76006 0
M  V30 8160 C 768.791 -0.649162 2.00871 0
M  V30 8161 O 768.139 -1.59653 1.63472 0
M  V30 8162 C 768.349 1.67448 3.06206 0
M  V30 8163 C 769.697 1.8866 3.80385 0
M  V30 8164 O 770.721 1.64303 3.16043 0
M  V30 8165 O 769.58 2.29518 4.95968 0
M  V30 8166 H 766.674 0.314737 0.764767 0
M  V30 8167 H 769.22 1.26865 1.12709 0
M  V30 8168 H 767.992 2.69411 2.83784 0
M  V30 8169 H 767.615 1.25608 3.77238 0
M  V30 8170 N 768.612 -1.24939 0.960631 0
M  V30 8171 C 769.559 -2.25658 0.484459 0
M  V30 8172 C 770.529 -1.59422 -0.466242 0
M  V30 8173 O 771.714 -1.87015 -0.378169 0
M  V30 8174 C 768.854 -3.44359 -0.225958 0
M  V30 8175 C 767.967 -4.25214 0.762682 0
M  V30 8176 C 767.102 -5.31192 0.0290931 0
M  V30 8177 C 766.141 -6.03739 1.00827 0
M  V30 8178 N 765.278 -7.01437 0.305155 0
M  V30 8179 H 770.118 -2.65758 1.34821 0
M  V30 8180 H 767.655 -1.30648 0.675983 0
M  V30 8181 H 769.613 -4.12035 -0.654472 0
M  V30 8182 H 768.243 -3.05118 -1.05371 0
M  V30 8183 H 767.295 -3.57144 1.30966 0
M  V30 8184 H 768.607 -4.75406 1.50964 0
M  V30 8185 H 767.761 -6.04971 -0.457763 0
M  V30 8186 H 766.5 -4.81889 -0.750614 0
M  V30 8187 H 765.505 -5.2877 1.50607 0
M  V30 8188 H 766.73 -6.55131 1.7883 0
M  V30 8189 H 764.676 -6.54415 -0.455704 0
M  V30 8190 H 764.593 -7.49475 0.991104 0
M  V30 8191 H 765.861 -7.79336 -0.159966 0
M  V30 8192 N 770.09 -0.729906 -1.39679 0
M  V30 8193 C 771.315 -0.284345 -2.05442 0
M  V30 8194 C 771.74 1.07056 -1.54663 0
M  V30 8195 O 771.098 1.67732 -0.688157 0
M  V30 8196 C 771.146 -0.290089 -3.59431 0
M  V30 8197 O 770.25 0.723978 -4.05995 0
M  V30 8198 H 769.591 -0.130311 -0.651088 0
M  V30 8199 H 772.121 -0.994403 -1.78809 0
M  V30 8200 H 772.131 -0.132712 -4.07784 0
M  V30 8201 H 770.806 -1.27877 -3.95753 0
M  V30 8202 H 769.383 0.533154 -3.69069 0
M  V30 8203 N 771.568 1.50203 -0.477153 0
M  V30 8204 C 772.808 2.04265 0.0744065 0
M  V30 8205 C 773.172 1.35082 1.36443 0
M  V30 8206 O 774.373 1.79732 1.99875 0
M  V30 8207 C 772.644 3.56539 0.247874 0
M  V30 8208 S 774.203 4.32219 0.757117 0
M  V30 8209 H 771.021 0.71088 0.0130891 0
M  V30 8210 H 773.623 1.8453 -0.645678 0
M  V30 8211 H 772.327 4.04443 -0.696709 0
M  V30 8212 H 771.858 3.80638 0.993896 0
M  V30 8213 H 773.873 4.52789 2.0297 0
M  V30 8214 N 773.046 0.209999 1.56195 0
M  V30 8215 C 774.457 -0.299943 1.84275 0
M  V30 8216 C 774.808 -1.60314 1.1311 0
M  V30 8217 O 773.933 -2.1273 0.396874 0
M  V30 8218 C 774.528 -0.550986 3.3429 0
M  V30 8219 C 773.087 -1.00526 3.62728 0
M  V30 8220 C 772.234 -0.0619828 2.77231 0
M  V30 8221 H 775.185 0.433458 1.52666 0
M  V30 8222 H 775.206 -1.39846 3.53869 0
M  V30 8223 H 774.718 0.397669 3.86057 0
M  V30 8224 H 772.819 -1.96768 3.16407 0
M  V30 8225 H 772.932 -0.887664 4.70805 0
M  V30 8226 H 771.296 -0.566648 2.48317 0
M  V30 8227 H 772.079 0.881383 3.31793 0
M  V30 8228 N 774.524 -1.57472 -0.0634922 0
M  V30 8229 C 775.764 -1.89491 -0.766312 0
M  V30 8230 C 776.128 -0.80475 -1.74321 0
M  V30 8231 O 777.329 -1.00825 -2.49174 0
M  V30 8232 C 775.6 -3.26731 -1.44851 0
M  V30 8233 S 777.159 -3.80516 -2.18525 0
M  V30 8234 H 773.977 -0.663832 -0.254653 0
M  V30 8235 H 776.579 -1.95488 -0.0220867 0
M  V30 8236 H 775.283 -4.03967 -0.723824 0
M  V30 8237 H 774.814 -3.23953 -2.232 0
M  V30 8238 H 776.829 -3.5647 -3.45172 0
M  V30 8239 N 776.003 0.335068 -1.53997 0
M  V30 8240 C 776.913 1.43511 -1.85585 0
M  V30 8241 C 777.929 1.57162 -0.746726 0
M  V30 8242 O 779.105 1.72477 -1.03988 0
M  V30 8243 C 776.17 2.78386 -2.06646 0
M  V30 8244 C 775.231 2.74007 -3.30483 0
M  V30 8245 C 774.464 4.02449 -3.50529 0
M  V30 8246 O 774.687 5.00147 -2.74242 0
M  V30 8247 O 773.621 4.06405 -4.4398 0
M  V30 8248 H 777.447 1.19731 -2.79102 0
M  V30 8249 H 775.032 0.528033 -1.39758 0
M  V30 8250 H 776.914 3.58247 -2.21894 0
M  V30 8251 H 775.589 3.0208 -1.16317 0
M  V30 8252 H 774.496 1.92736 -3.2063 0
M  V30 8253 H 775.829 2.55267 -4.20832 0
M  V30 8254 N 777.481 1.45874 0.596531 0
M  V30 8255 C 778.728 1.50467 1.35521 0
M  V30 8256 C 779.056 0.150802 1.93915 0
M  V30 8257 O 778.311 -0.851913 1.76184 0
M  V30 8258 C 778.61 2.54034 2.51399 0
M  V30 8259 C 778.276 3.9844 2.11085 0
M  V30 8260 C 776.938 4.37758 1.99804 0
M  V30 8261 C 779.29 4.89209 1.79788 0
M  V30 8262 C 776.618 5.65727 1.55465 0
M  V30 8263 C 778.97 6.17602 1.36931 0
M  V30 8264 C 777.634 6.5584 1.24218 0
M  V30 8265 H 776.904 0.550597 0.495907 0
M  V30 8266 H 779.551 1.79279 0.673145 0
M  V30 8267 H 777.856 2.18832 3.24992 0
M  V30 8268 H 779.553 2.54822 3.09624 0
M  V30 8269 H 776.143 3.67353 2.20794 0
M  V30 8270 H 780.327 4.59562 1.87395 0
M  V30 8271 H 775.583 5.94139 1.44253 0
M  V30 8272 H 779.757 6.87373 1.11764 0
M  V30 8273 H 777.384 7.54897 0.896353 0
M  V30 8274 N 778.959 -0.83999 1.33349 0
M  V30 8275 C 780.205 -1.59753 1.24927 0
M  V30 8276 C 780.538 -1.93318 -0.184855 0
M  V30 8277 O 779.813 -1.586 -1.12589 0
M  V30 8278 C 780.096 -2.90829 2.12345 0
M  V30 8279 C 779.949 -2.63953 3.6421 0
M  V30 8280 C 781.268 -3.92246 1.99577 0
M  V30 8281 H 778.387 -0.579654 0.45516 0
M  V30 8282 H 781.029 -0.968909 1.63439 0
M  V30 8283 H 779.179 -3.44478 1.79631 0
M  V30 8284 H 780.851 -2.16745 4.07209 0
M  V30 8285 H 779.094 -1.97671 3.86146 0
M  V30 8286 H 779.765 -3.57348 4.20721 0
M  V30 8287 H 782.241 -3.479 2.28265 0
M  V30 8288 H 781.117 -4.81793 2.62996 0
M  V30 8289 H 781.378 -4.3138 0.967673 0
M  V30 8290 N 780.437 -1.16799 -1.0581 0
M  V30 8291 C 781.665 -0.97687 -1.82387 0
M  V30 8292 C 782.08 0.474917 -1.82729 0
M  V30 8293 O 781.437 1.3297 -1.25001 0
M  V30 8294 C 781.488 -1.50279 -3.28783 0
M  V30 8295 O 781.209 -2.89772 -3.28578 0
M  V30 8296 C 782.71 -1.35538 -4.22071 0
M  V30 8297 H 779.93 -0.345977 -0.574927 0
M  V30 8298 H 782.474 -1.54942 -1.33466 0
M  V30 8299 H 780.629 -0.972414 -3.74997 0
M  V30 8300 H 781.043 -3.13954 -4.20159 0
M  V30 8301 H 782.517 -1.7716 -5.22799 0
M  V30 8302 H 782.994 -0.301598 -4.38163 0
M  V30 8303 H 783.6 -1.87562 -3.81708 0
M  V30 8304 N 781.915 1.24427 -0.967243 0
M  V30 8305 C 782.825 2.29109 -0.504592 0
M  V30 8306 C 783.841 1.68495 0.434224 0
M  V30 8307 O 785.017 1.99041 0.307379 0
M  V30 8308 C 782.082 3.46133 0.198273 0
M  V30 8309 C 781.143 4.22149 -0.780313 0
M  V30 8310 C 780.376 5.33585 -0.110896 0
M  V30 8311 O 780.599 5.59676 1.10088 0
M  V30 8312 O 779.533 5.96522 -0.802823 0
M  V30 8313 H 783.359 2.708 -1.37482 0
M  V30 8314 H 780.944 1.30111 -0.73426 0
M  V30 8315 H 782.826 4.17205 0.593124 0
M  V30 8316 H 781.501 3.0642 1.04347 0
M  V30 8317 H 780.408 3.53454 -1.22561 0
M  V30 8318 H 781.741 4.65677 -1.59392 0
M  V30 8319 N 783.393 0.737304 1.3929 0
M  V30 8320 C 784.67 0.212464 1.94443 0
M  V30 8321 C 785.05 -1.28621 1.67391 0
M  V30 8322 O 784.398 -2.0529 1.00342 0
M  V30 8323 C 784.608 0.548565 3.44662 0
M  V30 8324 C 785.956 0.499177 4.21656 0
M  V30 8325 O 786.98 0.485892 3.5287 0
M  V30 8326 O 785.839 0.495739 5.44247 0
M  V30 8327 H 782.933 0.0395457 0.826054 0
M  V30 8328 H 785.479 0.816319 1.48776 0
M  V30 8329 H 784.251 1.58426 3.57795 0
M  V30 8330 H 783.874 -0.0841399 3.97511 0
M  V30 8331 N 784.871 -1.49948 0.485112 0
M  V30 8332 C 785.801 -2.31675 -0.291364 0
M  V30 8333 C 786.782 -1.39216 -0.977383 0
M  V30 8334 O 787.967 -1.68133 -0.971855 0
M  V30 8335 C 785.097 -3.19326 -1.36558 0
M  V30 8336 C 784.051 -4.2045 -0.800359 0
M  V30 8337 C 783.377 -4.96931 -1.97391 0
M  V30 8338 C 784.677 -5.21925 0.197867 0
M  V30 8339 H 786.371 -2.96839 0.390775 0
M  V30 8340 H 783.917 -1.42749 0.189375 0
M  V30 8341 H 785.87 -3.75304 -1.91638 0
M  V30 8342 H 784.594 -2.52074 -2.07668 0
M  V30 8343 H 783.253 -3.65594 -0.271428 0
M  V30 8344 H 782.901 -4.26141 -2.67232 0
M  V30 8345 H 782.601 -5.65344 -1.60187 0
M  V30 8346 H 784.125 -5.55749 -2.52935 0
M  V30 8347 H 785.539 -5.72691 -0.264239 0
M  V30 8348 H 783.936 -5.98138 0.484908 0
M  V30 8349 H 785.006 -4.71809 1.11912 0
M  V30 8350 N 786.349 -0.21828 -1.56081 0
M  V30 8351 C 787.577 0.419258 -2.02608 0
M  V30 8352 C 787.992 1.53578 -1.09814 0
M  V30 8353 O 787.349 1.82185 -0.107149 0
M  V30 8354 C 787.4 0.953955 -3.48686 0
M  V30 8355 O 787.121 -0.11805 -4.37941 0
M  V30 8356 C 788.622 1.66506 -4.10841 0
M  V30 8357 H 785.842 0.10296 -0.663054 0
M  V30 8358 H 788.386 -0.333776 -2.01758 0
M  V30 8359 H 786.541 1.65727 -3.50162 0
M  V30 8360 H 786.955 0.283359 -5.23734 0
M  V30 8361 H 788.429 1.99123 -5.14834 0
M  V30 8362 H 788.906 2.57705 -3.55647 0
M  V30 8363 H 789.512 1.00703 -4.13206 0
M  V30 8364 N 787.827 1.57504 0.0551401 0
M  V30 8365 C 789.238 1.76626 0.604979 0
M  V30 8366 C 789.589 0.845978 1.77024 0
M  V30 8367 O 788.714 0.0341936 2.16373 0
M  V30 8368 C 789.309 3.203 1.10425 0
M  V30 8369 C 787.868 3.4071 1.59981 0
M  V30 8370 C 787.015 2.72258 0.526414 0
M  V30 8371 H 789.966 1.57775 -0.171072 0
M  V30 8372 H 789.987 3.25377 1.97256 0
M  V30 8373 H 789.499 3.87255 0.255939 0
M  V30 8374 H 787.6 2.78892 2.47083 0
M  V30 8375 H 787.713 4.49227 1.66528 0
M  V30 8376 H 786.077 2.35283 0.97539 0
M  V30 8377 H 786.86 3.41879 -0.311991 0
M  V30 8378 N 789.305 -0.326896 1.54172 0
M  V30 8379 C 790.553 -1.06313 1.71878 0
M  V30 8380 C 790.874 -1.88652 0.493498 0
M  V30 8381 O 790.144 -1.89608 -0.492522 0
M  V30 8382 H 788.724 -0.39549 0.633716 0
M  V30 8383 H 791.386 -0.364139 1.91468 0
M  V30 8384 H 790.482 -1.73105 2.59694 0
M  V30 8385 N 790.784 -1.46188 -0.588786 0
M  V30 8386 C 791.714 -1.59148 -1.70863 0
M  V30 8387 C 792.695 -0.442083 -1.64255 0
M  V30 8388 O 793.88 -0.667575 -1.82365 0
M  V30 8389 C 791.01 -1.5757 -3.09498 0
M  V30 8390 C 789.964 -2.71418 -3.30932 0
M  V30 8391 C 789.29 -2.549 -4.70032 0
M  V30 8392 C 790.59 -4.1329 -3.19356 0
M  V30 8393 H 792.284 -2.52889 -1.60274 0
M  V30 8394 H 789.83 -1.21707 -0.769638 0
M  V30 8395 H 791.783 -1.65231 -3.87655 0
M  V30 8396 H 790.507 -0.603705 -3.20972 0
M  V30 8397 H 789.166 -2.63216 -2.55172 0
M  V30 8398 H 788.814 -1.55797 -4.78264 0
M  V30 8399 H 788.514 -3.31257 -4.85327 0
M  V30 8400 H 790.038 -2.64443 -5.50366 0
M  V30 8401 H 791.452 -4.22636 -3.87365 0
M  V30 8402 H 789.849 -4.90187 -3.46175 0
M  V30 8403 H 790.919 -4.33874 -2.16522 0
M  V30 8404 N 792.262 0.832906 -1.33792 0
M  V30 8405 C 793.209 1.94314 -1.24541 0
M  V30 8406 C 794.179 1.65646 -0.122753 0
M  V30 8407 O 795.364 1.88394 -0.30204 0
M  V30 8408 C 792.504 3.30395 -0.996641 0
M  V30 8409 C 791.617 3.71422 -2.20612 0
M  V30 8410 C 790.752 4.96401 -1.89101 0
M  V30 8411 C 789.791 5.2998 -3.06247 0
M  V30 8412 N 788.928 6.46137 -2.74685 0
M  V30 8413 H 793.768 2.01559 -2.19495 0
M  V30 8414 H 791.305 0.986243 -1.09141 0
M  V30 8415 H 793.263 4.08803 -0.832817 0
M  V30 8416 H 791.893 3.22691 -0.0838242 0
M  V30 8417 H 790.945 2.88488 -2.47949 0
M  V30 8418 H 792.257 3.92215 -3.0817 0
M  V30 8419 H 791.411 5.82572 -1.69396 0
M  V30 8420 H 790.15 4.7759 -0.987882 0
M  V30 8421 H 789.155 4.42312 -3.26559 0
M  V30 8422 H 790.38 5.50737 -3.97323 0
M  V30 8423 H 788.326 6.28801 -1.86938 0
M  V30 8424 H 788.243 6.67054 -3.55774 0
M  V30 8425 H 789.511 7.35403 -2.58461 0
M  V30 8426 N 793.74 1.17359 1.05189 0
M  V30 8427 C 794.986 0.963413 1.78455 0
M  V30 8428 C 795.319 -0.506703 1.87473 0
M  V30 8429 O 794.594 -1.37611 1.37453 0
M  V30 8430 C 794.877 1.60519 3.22344 0
M  V30 8431 C 794.73 3.14741 3.21338 0
M  V30 8432 C 796.049 1.3091 4.20179 0
M  V30 8433 H 793.168 0.351412 0.647826 0
M  V30 8434 H 795.81 1.44858 1.22948 0
M  V30 8435 H 793.96 1.19265 3.69741 0
M  V30 8436 H 795.632 3.65053 2.82017 0
M  V30 8437 H 793.875 3.4749 2.59679 0
M  V30 8438 H 794.546 3.54775 4.22894 0
M  V30 8439 H 797.022 1.66635 3.81277 0
M  V30 8440 H 795.898 1.784 5.191 0
M  V30 8441 H 796.159 0.229908 4.41502 0
M  V30 8442 N 795.218 -1.23913 0.973828 0
M  V30 8443 C 796.443 -1.96735 0.656511 0
M  V30 8444 C 796.868 -1.71682 -0.768571 0
M  V30 8445 O 796.226 -0.984267 -1.52256 0
M  V30 8446 C 796.274 -3.48004 0.944735 0
M  V30 8447 O 795.378 -4.12387 0.0333357 0
M  V30 8448 H 794.719 -0.616119 0.247575 0
M  V30 8449 H 797.249 -1.57525 1.30564 0
M  V30 8450 H 797.259 -3.98424 0.87876 0
M  V30 8451 H 795.934 -3.65567 1.98328 0
M  V30 8452 H 794.511 -3.72585 0.153157 0
M  V30 8453 N 796.696 -0.74468 -1.38897 0
M  V30 8454 C 797.945 -0.293716 -1.9955 0
M  V30 8455 C 798.258 1.12831 -1.59777 0
M  V30 8456 O 799.464 1.67929 -2.13336 0
M  V30 8457 C 797.92 -0.474188 -3.56762 0
M  V30 8458 C 797.528 -1.90472 -4.05493 0
M  V30 8459 C 799.272 -0.0854875 -4.24414 0
M  V30 8460 C 797.179 -2.03423 -5.55314 0
M  V30 8461 H 796.109 -0.106066 -0.746502 0
M  V30 8462 H 798.76 -0.919948 -1.58774 0
M  V30 8463 H 797.142 0.221092 -3.95382 0
M  V30 8464 H 798.316 -2.63274 -3.78184 0
M  V30 8465 H 796.631 -2.24752 -3.50536 0
M  V30 8466 H 799.228 -0.161133 -5.34457 0
M  V30 8467 H 799.571 0.96066 -4.05064 0
M  V30 8468 H 800.104 -0.732286 -3.91002 0
M  V30 8469 H 796.843 -3.0626 -5.79556 0
M  V30 8470 H 796.363 -1.3507 -5.84394 0
M  V30 8471 H 798.042 -1.81996 -6.20876 0
M  V30 8472 N 798.174 1.49689 -0.493057 0
M  V30 8473 C 799.59 1.58907 -0.148526 0
M  V30 8474 C 799.79 1.4991 1.34645 0
M  V30 8475 O 798.846 1.36893 2.12171 0
M  V30 8476 C 800.159 2.91996 -0.718265 0
M  V30 8477 C 801.707 3.05443 -0.683658 0
M  V30 8478 C 802.182 4.41138 -1.23132 0
M  V30 8479 N 803.673 4.47608 -1.19167 0
M  V30 8480 C 804.408 5.51038 -1.5857 0
M  V30 8481 N 803.904 6.61612 -2.05528 0
M  V30 8482 N 805.697 5.41706 -1.50036 0
M  V30 8483 H 797.848 1.5378 -1.46511 0
M  V30 8484 H 800.111 0.727996 -0.607228 0
M  V30 8485 H 799.817 3.04123 -1.7664 0
M  V30 8486 H 799.691 3.76798 -0.17419 0
M  V30 8487 H 802.078 2.92949 0.355626 0
M  V30 8488 H 802.159 2.22344 -1.26479 0
M  V30 8489 H 801.803 4.54382 -2.26935 0
M  V30 8490 H 801.733 5.22864 -0.626201 0
M  V30 8491 H 804.224 3.68274 -0.847524 0
M  V30 8492 H 804.537 7.36622 -2.33685 0
M  V30 8493 H 802.882 6.62674 -2.09497 0
M  V30 8494 H 806.073 4.54212 -1.13176 0
M  V30 8495 H 806.246 6.22188 -1.81068 0
M  V30 8496 N 799.652 0.226554 1.55963 0
M  V30 8497 C 800.615 -0.668015 2.19249 0
M  V30 8498 C 801.615 -1.11794 1.1558 0
M  V30 8499 O 802.805 -1.02593 1.40784 0
M  V30 8500 C 799.937 -1.91571 2.81981 0
M  V30 8501 H 801.13 -0.116175 2.99675 0
M  V30 8502 H 798.683 -0.0230497 1.56283 0
M  V30 8503 H 799.418 -2.50929 2.05439 0
M  V30 8504 H 799.203 -1.6015 3.57903 0
M  V30 8505 H 800.693 -2.55294 3.30477 0
M  V30 8506 N 801.13 -1.57531 -0.0467866 0
M  V30 8507 C 802.376 -1.8873 -0.742218 0
M  V30 8508 C 802.709 -0.822084 -1.75941 0
M  V30 8509 O 801.984 0.164922 -1.938 0
M  V30 8510 C 802.267 -3.30586 -1.42776 0
M  V30 8511 C 802.12 -4.47785 -0.425285 0
M  V30 8512 C 803.439 -3.71068 -2.36636 0
M  V30 8513 H 800.558 -0.686406 -0.268359 0
M  V30 8514 H 803.2 -1.89999 -0.00511341 0
M  V30 8515 H 801.35 -3.29634 -2.05605 0
M  V30 8516 H 803.022 -4.60867 0.199721 0
M  V30 8517 H 801.265 -4.33037 0.25713 0
M  V30 8518 H 801.936 -5.43884 -0.943086 0
M  V30 8519 H 804.412 -3.73273 -1.83866 0
M  V30 8520 H 803.288 -4.71165 -2.81593 0
M  V30 8521 H 803.549 -3.02355 -3.22542 0
M  V30 8522 N 802.608 0.318715 -1.54344 0
M  V30 8523 C 803.848 1.06425 -1.74508 0
M  V30 8524 C 804.212 1.85087 -0.510572 0
M  V30 8525 O 805.413 2.62253 -0.589647 0
M  V30 8526 C 803.684 1.96054 -2.98827 0
M  V30 8527 S 805.243 2.77493 -3.39916 0
M  V30 8528 H 802.061 0.35921 -0.613587 0
M  V30 8529 H 804.663 0.339679 -1.92526 0
M  V30 8530 H 803.367 1.37109 -3.8682 0
M  V30 8531 H 802.898 2.72908 -2.83346 0
M  V30 8532 H 804.913 3.98544 -2.95596 0
M  V30 8533 N 804.086 1.46499 0.581025 0
M  V30 8534 C 805.332 1.52121 1.34116 0
M  V30 8535 C 805.665 0.173031 1.93428 0
M  V30 8536 O 804.94 -0.815729 1.76568 0
M  V30 8537 C 805.223 2.62108 2.46924 0
M  V30 8538 C 805.076 4.06462 1.92636 0
M  V30 8539 C 806.395 2.68167 3.48962 0
M  V30 8540 H 803.514 0.5538 0.486287 0
M  V30 8541 H 806.156 1.78443 0.652538 0
M  V30 8542 H 804.306 2.39794 3.05665 0
M  V30 8543 H 805.978 4.40068 1.3834 0
M  V30 8544 H 804.221 4.15862 1.23455 0
M  V30 8545 H 804.892 4.79152 2.74076 0
M  V30 8546 H 807.368 2.8823 3.00104 0
M  V30 8547 H 806.244 3.46942 4.2535 0
M  V30 8548 H 806.505 1.74284 4.06297 0
M  V30 8549 N 805.565 -0.825799 1.34232 0
M  V30 8550 C 806.498 -1.94155 1.19914 0
M  V30 8551 C 807.476 -1.62343 0.0914533 0
M  V30 8552 O 808.66 -1.86752 0.256082 0
M  V30 8553 C 805.787 -3.28064 0.842138 0
M  V30 8554 C 804.833 -3.78839 1.95917 0
M  V30 8555 S 805.666 -3.98943 3.57218 0
M  V30 8556 C 806.822 -5.35783 3.23554 0
M  V30 8557 H 807.055 -2.06003 2.14359 0
M  V30 8558 H 804.588 -0.981053 1.19225 0
M  V30 8559 H 806.546 -4.05434 0.642952 0
M  V30 8560 H 805.207 -3.13988 -0.0839363 0
M  V30 8561 H 804.4 -4.75771 1.66306 0
M  V30 8562 H 804.002 -3.08406 2.11569 0
M  V30 8563 H 806.294 -6.19094 2.7519 0
M  V30 8564 H 807.237 -5.70376 4.19615 0
M  V30 8565 H 807.645 -5.01158 2.5981 0
M  V30 8566 N 807.043 -1.17915 -1.04565 0
M  V30 8567 C 808.459 -0.927761 -1.29864 0
M  V30 8568 C 808.659 0.409536 -1.97294 0
M  V30 8569 O 807.715 1.14505 -2.25044 0
M  V30 8570 C 809.028 -2.08967 -2.16225 0
M  V30 8571 C 810.576 -2.12741 -2.29587 0
M  V30 8572 C 811.051 -3.28335 -3.19312 0
M  V30 8573 N 812.542 -3.28164 -3.26898 0
M  V30 8574 C 813.277 -4.14249 -3.96466 0
M  V30 8575 N 812.773 -5.10457 -4.68407 0
M  V30 8576 N 814.566 -4.02179 -3.92694 0
M  V30 8577 H 806.717 -2.03983 -0.592011 0
M  V30 8578 H 808.98 -0.891023 -0.323701 0
M  V30 8579 H 808.686 -3.05654 -1.73979 0
M  V30 8580 H 808.56 -2.04606 -3.16885 0
M  V30 8581 H 810.947 -1.16636 -2.71072 0
M  V30 8582 H 811.028 -2.21162 -1.28535 0
M  V30 8583 H 810.672 -4.2471 -2.78539 0
M  V30 8584 H 810.602 -3.17151 -4.20384 0
M  V30 8585 H 813.093 -2.58511 -2.75646 0
M  V30 8586 H 813.406 -5.72526 -5.1907 0
M  V30 8587 H 811.751 -5.14422 -4.67328 0
M  V30 8588 H 814.942 -3.26308 -3.3562 0
M  V30 8589 H 815.115 -4.69486 -4.4664 0
M  V30 8590 N 808.521 1.23394 -0.980386 0
M  V30 8591 C 809.768 1.91809 -0.649261 0
M  V30 8592 C 810.096 1.765 0.817197 0
M  V30 8593 O 809.351 1.11979 1.60497 0
M  V30 8594 C 809.65 3.43542 -0.985588 0
M  V30 8595 C 809.316 3.79031 -2.44225 0
M  V30 8596 C 807.978 3.88429 -2.84035 0
M  V30 8597 C 810.33 3.96145 -3.38702 0
M  V30 8598 C 807.658 4.12368 -4.17336 0
M  V30 8599 C 810.01 4.21583 -4.71646 0
M  V30 8600 C 808.674 4.29203 -5.11215 0
M  V30 8601 H 807.944 0.70188 -0.237581 0
M  V30 8602 H 810.591 1.4642 -1.23424 0
M  V30 8603 H 808.896 3.90503 -0.318521 0
M  V30 8604 H 810.593 3.94708 -0.707596 0
M  V30 8605 H 807.183 3.7229 -2.12362 0
M  V30 8606 H 811.367 3.88274 -3.09123 0
M  V30 8607 H 806.623 4.1649 -4.47601 0
M  V30 8608 H 810.797 4.33769 -5.4481 0
M  V30 8609 H 808.424 4.47505 -6.14527 0
M  V30 8610 N 809.999 0.752036 1.385 0
M  V30 8611 C 810.929 0.138718 2.33088 0
M  V30 8612 C 811.91 -0.705318 1.54788 0
M  V30 8613 O 813.095 -0.646821 1.83112 0
M  V30 8614 C 810.225 -0.75641 3.38963 0
M  V30 8615 C 809.179 -0.0152239 4.27997 0
M  V30 8616 C 808.505 -1.0285 5.24715 0
M  V30 8617 C 809.805 1.15226 5.09431 0
M  V30 8618 H 811.499 0.928852 2.84627 0
M  V30 8619 H 809.045 0.448111 1.3685 0
M  V30 8620 H 810.998 -1.19513 4.04097 0
M  V30 8621 H 809.722 -1.57885 2.85902 0
M  V30 8622 H 808.381 0.404061 3.64366 0
M  V30 8623 H 808.029 -1.84496 4.67943 0
M  V30 8624 H 807.729 -0.537238 5.85139 0
M  V30 8625 H 809.253 -1.46657 5.92726 0
M  V30 8626 H 810.667 0.791161 5.67815 0
M  V30 8627 H 809.064 1.57428 5.79082 0
M  V30 8628 H 810.134 1.9659 4.43261 0
M  V30 8629 N 811.477 -1.49425 0.500989 0
M  V30 8630 C 812.723 -2.02753 -0.0436 0
M  V30 8631 C 813.056 -1.37991 -1.36646 0
M  V30 8632 O 812.331 -0.515597 -1.87542 0
M  V30 8633 C 812.614 -3.59565 -0.19616 0
M  V30 8634 C 812.467 -4.34855 1.14982 0
M  V30 8635 C 813.786 -4.30014 -0.936795 0
M  V30 8636 H 810.905 -0.73686 -0.0143711 0
M  V30 8637 H 813.547 -1.78448 0.652397 0
M  V30 8638 H 811.697 -3.80405 -0.788959 0
M  V30 8639 H 813.369 -4.25512 1.7815 0
M  V30 8640 H 811.612 -3.97414 1.73911 0
M  V30 8641 H 812.283 -5.42933 0.996385 0
M  V30 8642 H 814.759 -4.1383 -0.434036 0
M  V30 8643 H 813.635 -5.39483 -1.01238 0
M  V30 8644 H 813.896 -3.95257 -1.9805 0
M  V30 8645 N 812.955 -0.234822 -1.55841 0
M  V30 8646 C 814.18 0.400741 -2.03492 0
M  V30 8647 C 814.605 1.51618 -1.11327 0
M  V30 8648 O 813.963 1.81002 -0.103922 0
M  V30 8649 C 814.011 0.897184 -3.49261 0
M  V30 8650 O 813.115 2.00764 -3.60233 0
M  V30 8651 H 812.456 0.0890023 -0.658008 0
M  V30 8652 H 814.986 -0.357345 -2.01455 0
M  V30 8653 H 814.996 1.20356 -3.89844 0
M  V30 8654 H 813.671 0.0808639 -4.15821 0
M  V30 8655 H 812.248 1.70689 -3.31541 0
M  V30 8656 N 814.433 1.57553 0.0384317 0
M  V30 8657 C 815.38 2.05942 1.04194 0
M  V30 8658 C 816.35 0.946637 1.36484 0
M  V30 8659 O 817.535 1.21658 1.46983 0
M  V30 8660 C 814.675 2.53588 2.34066 0
M  V30 8661 C 813.788 3.7862 2.08017 0
M  V30 8662 C 812.923 4.14915 3.31692 0
M  V30 8663 C 811.962 5.32891 3.01155 0
M  V30 8664 N 811.099 5.64662 4.17254 0
M  V30 8665 H 815.939 2.91429 0.622341 0
M  V30 8666 H 813.476 1.44098 0.295684 0
M  V30 8667 H 815.434 2.79276 3.09937 0
M  V30 8668 H 814.064 1.71031 2.73767 0
M  V30 8669 H 813.116 3.60073 1.22686 0
M  V30 8670 H 814.428 4.64613 1.81484 0
M  V30 8671 H 813.582 4.41681 4.15936 0
M  V30 8672 H 812.321 3.27555 3.6133 0
M  V30 8673 H 811.326 5.05887 2.15311 0
M  V30 8674 H 812.551 6.21896 2.72804 0
M  V30 8675 H 810.497 4.80261 4.46861 0
M  V30 8676 H 810.414 6.45145 3.94112 0
M  V30 8677 H 811.682 5.96 5.02399 0
M  V30 8678 N 815.911 -0.310526 1.54511 0
M  V30 8679 C 817.327 -0.655637 1.45511 0
M  V30 8680 C 817.527 -1.91114 0.638564 0
M  V30 8681 O 816.583 -2.52098 0.142497 0
M  V30 8682 C 817.896 -0.817501 2.89374 0
M  V30 8683 C 819.444 -0.914003 2.99358 0
M  V30 8684 C 819.919 -1.10794 4.44397 0
M  V30 8685 N 821.41 -1.17437 4.48066 0
M  V30 8686 C 822.145 -1.34255 5.57461 0
M  V30 8687 N 821.641 -1.48032 6.768 0
M  V30 8688 N 823.434 -1.37067 5.45132 0
M  V30 8689 H 815.585 0.514506 2.06074 0
M  V30 8690 H 817.848 0.168478 0.932909 0
M  V30 8691 H 817.554 0.034003 3.51684 0
M  V30 8692 H 817.428 -1.7094 3.36243 0
M  V30 8693 H 819.815 -1.756 2.37168 0
M  V30 8694 H 819.896 0.00170958 2.558 0
M  V30 8695 H 819.54 -0.270743 5.07178 0
M  V30 8696 H 819.47 -2.03773 4.85576 0
M  V30 8697 H 821.961 -1.08181 3.62084 0
M  V30 8698 H 822.274 -1.60593 7.5593 0
M  V30 8699 H 820.619 -1.45105 6.79683 0
M  V30 8700 H 823.81 -1.25909 4.50849 0
M  V30 8701 H 823.983 -1.49831 6.3044 0
M  V30 8702 N 817.389 -1.46805 -0.573248 0
M  V30 8703 C 818.336 -1.58084 -1.68161 0
M  V30 8704 C 819.306 -0.424636 -1.6058 0
M  V30 8705 O 820.491 -0.642623 -1.79652 0
M  V30 8706 C 817.631 -1.58601 -3.06496 0
M  V30 8707 C 816.744 -2.85023 -3.24632 0
M  V30 8708 C 815.879 -2.76981 -4.53271 0
M  V30 8709 C 814.918 -3.983 -4.64783 0
M  V30 8710 N 814.055 -3.88589 -5.84759 0
M  V30 8711 H 818.895 -2.52755 -1.57858 0
M  V30 8712 H 816.432 -1.25385 -0.769218 0
M  V30 8713 H 818.39 -1.56885 -3.86579 0
M  V30 8714 H 817.02 -0.674553 -3.15673 0
M  V30 8715 H 816.072 -2.96678 -2.38089 0
M  V30 8716 H 817.384 -3.7491 -3.29004 0
M  V30 8717 H 816.538 -2.73424 -5.41594 0
M  V30 8718 H 815.277 -1.84751 -4.51352 0
M  V30 8719 H 814.282 -4.02179 -3.74876 0
M  V30 8720 H 815.507 -4.91639 -4.68474 0
M  V30 8721 H 813.453 -2.99151 -5.83819 0
M  V30 8722 H 813.37 -4.7214 -5.90441 0
M  V30 8723 H 814.638 -3.89022 -6.75486 0
M  V30 8724 N 818.867 0.818669 -1.34668 0
M  V30 8725 C 820.114 1.57512 -1.27264 0
M  V30 8726 C 820.442 1.93871 0.156254 0
M  V30 8727 O 819.697 1.60582 1.11857 0
M  V30 8728 C 819.996 2.88245 -2.11304 0
M  V30 8729 C 819.662 2.71159 -3.60255 0
M  V30 8730 C 818.324 2.66207 -4.00858 0
M  V30 8731 C 820.676 2.54538 -4.54819 0
M  V30 8732 C 818.004 2.4256 -5.34211 0
M  V30 8733 C 820.356 2.32421 -5.88356 0
M  V30 8734 C 819.02 2.25884 -6.28118 0
M  V30 8735 H 818.29 0.576378 -0.465692 0
M  V30 8736 H 820.937 0.9469 -1.66451 0
M  V30 8737 H 819.242 3.55381 -1.64958 0
M  V30 8738 H 820.939 3.45869 -2.02919 0
M  V30 8739 H 817.529 2.75856 -3.28027 0
M  V30 8740 H 821.713 2.57384 -4.24343 0
M  V30 8741 H 816.969 2.35959 -5.64033 0
M  V30 8742 H 821.143 2.18548 -6.61218 0
M  V30 8743 H 818.77 2.07322 -7.31383 0
M  V30 8744 N 820.346 1.18468 1.03938 0
M  V30 8745 C 821.293 0.912859 2.1198 0
M  V30 8746 C 822.263 -0.14824 1.65437 0
M  V30 8747 O 823.448 -0.008331 1.90798 0
M  V30 8748 C 820.588 0.446114 3.42204 0
M  V30 8749 C 819.701 1.57278 4.02353 0
M  V30 8750 C 818.836 1.05863 5.20544 0
M  V30 8751 C 817.875 2.1599 5.72726 0
M  V30 8752 N 817.012 1.65959 6.82204 0
M  V30 8753 H 821.852 1.83798 2.34569 0
M  V30 8754 H 819.389 0.916504 1.15059 0
M  V30 8755 H 821.347 0.15697 4.16905 0
M  V30 8756 H 819.977 -0.442025 3.19759 0
M  V30 8757 H 819.029 1.97737 3.24968 0
M  V30 8758 H 820.341 2.40289 4.37107 0
M  V30 8759 H 819.495 0.724087 6.02364 0
M  V30 8760 H 818.234 0.198116 4.87297 0
M  V30 8761 H 817.239 2.50287 4.89527 0
M  V30 8762 H 818.464 3.02479 6.08016 0
M  V30 8763 H 816.41 0.82199 6.5083 0
M  V30 8764 H 816.327 2.42567 7.16029 0
M  V30 8765 H 817.595 1.35436 7.67644 0
M  V30 8766 N 821.824 -1.22873 0.986916 0
M  V30 8767 C 822.734 -2.28277 0.540978 0
M  V30 8768 C 823.75 -1.69164 -0.407363 0
M  V30 8769 O 824.926 -1.99504 -0.275674 0
M  V30 8770 C 821.991 -3.46404 -0.143181 0
M  V30 8771 C 821.052 -4.20854 0.847375 0
M  V30 8772 C 820.285 -5.33341 0.19577 0
M  V30 8773 O 820.508 -5.61356 -1.0117 0
M  V30 8774 O 819.442 -5.95169 0.897623 0
M  V30 8775 H 823.268 -2.68578 1.41773 0
M  V30 8776 H 820.853 -1.28927 0.754867 0
M  V30 8777 H 822.735 -4.18096 -0.526676 0
M  V30 8778 H 821.41 -3.08041 -0.994593 0
M  V30 8779 H 820.317 -3.51459 1.28169 0
M  V30 8780 H 821.65 -4.63082 1.6678 0
M  V30 8781 N 823.302 -0.75937 -1.38099 0
M  V30 8782 C 824.527 -0.327859 -2.04792 0
M  V30 8783 C 824.952 1.03752 -1.56899 0
M  V30 8784 O 824.31 1.66235 -0.723581 0
M  V30 8785 C 824.358 -0.366264 -3.58735 0
M  V30 8786 O 823.462 0.637697 -4.0744 0
M  V30 8787 H 822.803 -0.144092 -0.648177 0
M  V30 8788 H 825.333 -1.03211 -1.7666 0
M  V30 8789 H 825.343 -0.219179 -4.07411 0
M  V30 8790 H 824.018 -1.36243 -3.92951 0
M  V30 8791 H 822.595 0.454749 -3.70117 0
M  V30 8792 N 824.78 1.49157 -0.508906 0
M  V30 8793 C 825.71 2.32109 0.254469 0
M  V30 8794 C 826.691 1.40754 0.955111 0
M  V30 8795 O 827.876 1.69658 0.944983 0
M  V30 8796 C 825.006 3.21458 1.3146 0
M  V30 8797 C 823.96 4.2167 0.733368 0
M  V30 8798 C 823.286 5.00009 1.8946 0
M  V30 8799 C 824.586 5.21544 -0.280875 0
M  V30 8800 H 826.28 2.9618 -0.43795 0
M  V30 8801 H 823.826 1.4243 -0.212062 0
M  V30 8802 H 825.779 3.78305 1.85643 0
M  V30 8803 H 824.503 2.55346 2.03632 0
M  V30 8804 H 823.162 3.65979 0.213231 0
M  V30 8805 H 822.81 4.30338 2.60419 0
M  V30 8806 H 822.51 5.67821 1.51173 0
M  V30 8807 H 824.034 5.59702 2.44061 0
M  V30 8808 H 825.448 5.73039 0.173095 0
M  V30 8809 H 823.845 5.97291 -0.580006 0
M  V30 8810 H 824.915 4.69969 -1.19404 0
M  V30 8811 N 826.258 0.243083 1.55714 0
M  V30 8812 C 827.674 -0.111853 1.59208 0
M  V30 8813 C 827.874 -1.5723 1.2602 0
M  V30 8814 O 826.93 -2.31608 1.00569 0
M  V30 8815 C 828.243 0.233885 2.99789 0
M  V30 8816 C 829.791 0.177873 3.12494 0
M  V30 8817 C 830.266 0.49759 4.55289 0
M  V30 8818 N 831.757 0.447949 4.61029 0
M  V30 8819 C 832.492 0.668545 5.69489 0
M  V30 8820 N 831.988 0.952064 6.86227 0
M  V30 8821 N 833.781 0.599512 5.58894 0
M  V30 8822 H 825.932 1.19554 1.75558 0
M  V30 8823 H 828.195 0.480765 0.817049 0
M  V30 8824 H 827.901 1.24835 3.28799 0
M  V30 8825 H 827.775 -0.440846 3.74615 0
M  V30 8826 H 830.162 -0.827263 2.83267 0
M  V30 8827 H 830.243 0.886399 2.39951 0
M  V30 8828 H 829.887 1.50026 4.85237 0
M  V30 8829 H 829.817 -0.232371 5.26087 0
M  V30 8830 H 832.308 0.237388 3.77154 0
M  V30 8831 H 832.621 1.10791 7.64817 0
M  V30 8832 H 830.966 0.989496 6.8792 0
M  V30 8833 H 834.157 0.378088 4.66571 0
M  V30 8834 H 834.33 0.774828 6.43351 0
M  V30 8835 N 827.736 -1.57571 -0.0300757 0
M  V30 8836 C 829.147 -1.77567 -0.576802 0
M  V30 8837 C 829.498 -0.874034 -1.75656 0
M  V30 8838 O 828.623 -0.0686124 -2.16291 0
M  V30 8839 C 829.218 -3.22016 -1.05315 0
M  V30 8840 C 827.777 -3.43212 -1.5454 0
M  V30 8841 C 826.924 -2.73061 -0.483033 0
M  V30 8842 H 829.875 -1.57483 0.196151 0
M  V30 8843 H 829.896 -3.28474 -1.92055 0
M  V30 8844 H 829.408 -3.87613 -0.194298 0
M  V30 8845 H 827.509 -2.82788 -2.42615 0
M  V30 8846 H 827.622 -4.5182 -1.5936 0
M  V30 8847 H 825.986 -2.36805 -0.937835 0
M  V30 8848 H 826.769 -3.4134 0.366341 0
M  V30 8849 N 829.214 0.302327 -1.54673 0
M  V30 8850 C 830.444 1.05516 -1.77623 0
M  V30 8851 C 830.852 1.81474 -0.535159 0
M  V30 8852 O 830.195 1.76635 0.504543 0
M  V30 8853 C 830.257 2.08305 -2.93001 0
M  V30 8854 C 829.921 1.51554 -4.31139 0
M  V30 8855 C 830.918 0.946261 -5.11216 0
M  V30 8856 C 828.603 1.55157 -4.77736 0
M  V30 8857 C 830.597 0.420559 -6.36011 0
M  V30 8858 C 828.284 1.022 -6.02494 0
M  V30 8859 C 829.282 0.457461 -6.81466 0
M  V30 8860 O 828.97 -0.064083 -8.03874 0
M  V30 8861 H 828.702 0.318756 -0.59613 0
M  V30 8862 H 831.256 0.347558 -2.02438 0
M  V30 8863 H 829.486 2.82742 -2.63807 0
M  V30 8864 H 831.175 2.69479 -3.03539 0
M  V30 8865 H 831.941 0.911338 -4.76361 0
M  V30 8866 H 827.82 1.98037 -4.16296 0
M  V30 8867 H 831.364 -0.0207298 -6.97597 0
M  V30 8868 H 827.261 1.05406 -6.36836 0
M  V30 8869 H 828.029 0.0493422 -8.18485 0
M  V30 8870 N 830.692 1.47107 0.565454 0
M  V30 8871 C 831.969 1.43787 1.32607 0
M  V30 8872 C 832.349 0.130428 2.10697 0
M  V30 8873 O 831.697 -0.888086 2.10536 0
M  V30 8874 C 831.907 2.67833 2.23755 0
M  V30 8875 C 833.255 3.14704 2.85037 0
M  V30 8876 O 834.279 2.68503 2.34061 0
M  V30 8877 O 833.138 3.95002 3.77671 0
M  V30 8878 H 830.232 0.572623 0.596684 0
M  V30 8879 H 832.778 1.59296 0.58504 0
M  V30 8880 H 831.55 3.54532 1.65597 0
M  V30 8881 H 831.173 2.54869 3.05168 0
M  V30 8882 N 832.17 -0.811516 1.35101 0
M  V30 8883 C 833.416 -1.57068 1.28287 0
M  V30 8884 C 833.749 -1.93667 -0.143808 0
M  V30 8885 O 833.024 -1.60953 -1.09199 0
M  V30 8886 C 833.307 -2.86259 2.18466 0
M  V30 8887 C 833.16 -2.56168 3.69727 0
M  V30 8888 C 834.479 -3.87924 2.07852 0
M  V30 8889 H 831.598 -0.569869 0.467353 0
M  V30 8890 H 834.24 -0.934023 1.65457 0
M  V30 8891 H 832.39 -3.4059 1.86898 0
M  V30 8892 H 834.062 -2.08059 4.11715 0
M  V30 8893 H 832.305 -1.89436 3.90252 0
M  V30 8894 H 832.976 -3.48344 4.28206 0
M  V30 8895 H 835.452 -3.4298 2.35593 0
M  V30 8896 H 834.328 -4.76106 2.73157 0
M  V30 8897 H 834.589 -4.2923 1.05896 0
M  V30 8898 N 833.648 -1.19017 -1.03309 0
M  V30 8899 C 834.581 -0.867457 -2.1107 0
M  V30 8900 C 835.559 0.173752 -1.61669 0
M  V30 8901 O 836.743 0.0510077 -1.88431 0
M  V30 8902 C 833.87 -0.297459 -3.37391 0
M  V30 8903 C 832.916 -1.31706 -4.05655 0
M  V30 8904 S 833.749 -2.87591 -4.51721 0
M  V30 8905 C 834.905 -2.32122 -5.81266 0
M  V30 8906 H 835.138 -1.78008 -2.38119 0
M  V30 8907 H 832.671 -1.01686 -1.16187 0
M  V30 8908 H 834.629 0.0248889 -4.10492 0
M  V30 8909 H 833.29 0.5934 -3.08444 0
M  V30 8910 H 832.483 -0.867264 -4.96482 0
M  V30 8911 H 832.085 -1.58603 -3.38705 0
M  V30 8912 H 834.377 -1.70855 -6.55603 0
M  V30 8913 H 835.32 -3.2128 -6.31019 0
M  V30 8914 H 835.728 -1.74858 -5.36736 0
M  V30 8915 N 835.127 1.22348 -0.993418 0
M  V30 8916 C 836.404 1.86632 -0.585495 0
M  V30 8917 C 836.784 1.89156 0.937187 0
M  V30 8918 O 836.132 1.38247 1.81934 0
M  V30 8919 C 836.342 3.27481 -1.20652 0
M  V30 8920 C 837.69 4.03971 -1.30738 0
M  V30 8921 O 838.714 3.3675 -1.16096 0
M  V30 8922 O 837.573 5.24302 -1.54173 0
M  V30 8923 H 834.667 0.802704 -0.198984 0
M  V30 8924 H 837.213 1.30122 -1.08933 0
M  V30 8925 H 835.985 3.20281 -2.24802 0
M  V30 8926 H 835.608 3.91597 -0.688312 0
M  V30 8927 N 836.605 0.766683 1.37694 0
M  V30 8928 C 837.851 0.329201 2.0011 0
M  V30 8929 C 838.184 -1.09004 1.60723 0
M  V30 8930 O 837.459 -1.74895 0.850989 0
M  V30 8931 C 837.742 0.466989 3.57059 0
M  V30 8932 C 837.595 1.92828 4.06371 0
M  V30 8933 C 838.914 -0.131792 4.39903 0
M  V30 8934 H 836.033 0.12109 0.726984 0
M  V30 8935 H 838.675 0.968779 1.63446 0
M  V30 8936 H 836.825 -0.0775023 3.88423 0
M  V30 8937 H 838.497 2.53208 3.85595 0
M  V30 8938 H 836.74 2.43884 3.58752 0
M  V30 8939 H 837.411 1.97577 5.15429 0
M  V30 8940 H 839.887 0.332731 4.14768 0
M  V30 8941 H 838.763 -0.005217 5.489 0
M  V30 8942 H 839.024 -1.22156 4.24889 0
M  V30 8943 N 838.083 -1.48885 0.516809 0
M  V30 8944 C 839.332 -2.01686 -0.0239899 0
M  V30 8945 C 839.645 -1.40029 -1.3657 0
M  V30 8946 O 840.851 -1.84249 -1.9941 0
M  V30 8947 C 839.307 -3.59779 -0.0931825 0
M  V30 8948 C 838.915 -4.30416 1.24283 0
M  V30 8949 C 840.659 -4.20471 -0.583507 0
M  V30 8950 C 838.566 -5.80408 1.13494 0
M  V30 8951 H 837.496 -0.753892 -0.0127376 0
M  V30 8952 H 840.147 -1.71273 0.65861 0
M  V30 8953 H 838.529 -3.86976 -0.840577 0
M  V30 8954 H 839.703 -4.14905 2.00476 0
M  V30 8955 H 838.018 -3.81539 1.66785 0
M  V30 8956 H 840.615 -5.30333 -0.681987 0
M  V30 8957 H 840.958 -3.84898 -1.58617 0
M  V30 8958 H 841.491 -3.97654 0.107814 0
M  V30 8959 H 838.23 -6.20532 2.11235 0
M  V30 8960 H 837.75 -5.98368 0.414167 0
M  V30 8961 H 839.429 -6.41781 0.820162 0
M  V30 8962 N 839.561 -0.251338 -1.55583 0
M  V30 8963 C 840.471 0.656978 -2.25213 0
M  V30 8964 C 841.487 1.18966 -1.26977 0
M  V30 8965 O 842.663 1.22499 -1.59862 0
M  V30 8966 C 839.728 1.83527 -2.94141 0
M  V30 8967 C 838.789 1.34162 -4.07798 0
M  V30 8968 C 838.022 2.46375 -4.73429 0
M  V30 8969 O 838.245 3.65205 -4.38157 0
M  V30 8970 O 837.179 2.15881 -5.61853 0
M  V30 8971 H 841.005 0.0936395 -3.03556 0
M  V30 8972 H 838.59 -0.0196638 -1.49387 0
M  V30 8973 H 840.472 2.52279 -3.3754 0
M  V30 8974 H 839.147 2.38614 -2.18735 0
M  V30 8975 H 838.054 0.621249 -3.68906 0
M  V30 8976 H 839.387 0.836779 -4.85035 0
M  V30 8977 N 841.039 1.57585 0.0217189 0
M  V30 8978 C 841.971 2.03849 1.04777 0
M  V30 8979 C 842.984 0.952558 1.32023 0
M  V30 8980 O 844.173 1.22974 1.29381 0
M  V30 8981 C 841.273 2.40504 2.3877 0
M  V30 8982 C 840.446 3.71566 2.30775 0
M  V30 8983 C 839.505 3.95329 3.47277 0
M  V30 8984 O 838.531 4.66289 3.26441 0
M  V30 8985 N 839.733 3.41536 4.69397 0
M  V30 8986 H 842.498 2.92491 0.653395 0
M  V30 8987 H 840.059 1.60538 0.209527 0
M  V30 8988 H 842.051 2.53532 3.15442 0
M  V30 8989 H 840.621 1.57494 2.70027 0
M  V30 8990 H 839.841 3.68822 1.39155 0
M  V30 8991 H 841.129 4.5753 2.22584 0
M  V30 8992 H 840.527 2.84033 4.89226 0
M  V30 8993 H 839.084 3.59932 5.43408 0
M  V30 8994 N 842.517 -0.29412 1.54831 0
M  V30 8995 C 843.747 -1.04572 1.7818 0
M  V30 8996 C 844.155 -1.81187 0.544776 0
M  V30 8997 O 843.498 -1.769 -0.495169 0
M  V30 8998 C 843.56 -2.06748 2.94101 0
M  V30 8999 C 843.224 -1.49265 4.31936 0
M  V30 9000 C 844.221 -0.919136 5.11711 0
M  V30 9001 C 841.906 -1.52621 4.78552 0
M  V30 9002 C 843.9 -0.386824 6.36225 0
M  V30 9003 C 841.587 -0.990031 6.03027 0
M  V30 9004 C 842.585 -0.421315 6.81699 0
M  V30 9005 O 842.273 0.106713 8.03829 0
M  V30 9006 H 842.005 -0.31559 0.597812 0
M  V30 9007 H 844.559 -0.336817 2.0262 0
M  V30 9008 H 842.789 -2.81339 2.65303 0
M  V30 9009 H 844.478 -2.67865 3.04964 0
M  V30 9010 H 845.244 -0.886062 4.76837 0
M  V30 9011 H 841.123 -1.95826 4.17341 0
M  V30 9012 H 844.667 0.0577248 6.97576 0
M  V30 9013 H 840.564 -1.02027 6.37386 0
M  V30 9014 H 841.332 -0.00593526 8.185 0
M  V30 9015 N 843.995 -1.47404 -0.557645 0
M  V30 9016 C 845.22 -1.57868 -1.34508 0
M  V30 9017 C 845.645 -0.229151 -1.86699 0
M  V30 9018 O 845.003 0.794908 -1.62944 0
M  V30 9019 C 845.051 -2.60712 -2.49122 0
M  V30 9020 O 844.155 -2.15952 -3.51338 0
M  V30 9021 H 843.496 -0.530335 -0.399551 0
M  V30 9022 H 846.026 -1.93181 -0.673954 0
M  V30 9023 H 846.036 -2.81118 -2.95697 0
M  V30 9024 H 844.711 -3.58701 -2.10491 0
M  V30 9025 H 843.288 -2.05644 -3.11071 0
M  V30 9026 N 845.473 0.80434 -1.35529 0
M  V30 9027 C 846.436 1.89788 -1.28503 0
M  V30 9028 C 847.436 1.59601 -0.195983 0
M  V30 9029 O 848.626 1.68292 -0.449827 0
M  V30 9030 C 845.758 3.26255 -0.98847 0
M  V30 9031 H 846.951 1.97436 -2.25741 0
M  V30 9032 H 844.504 1.00046 -1.20086 0
M  V30 9033 H 845.239 3.24294 -0.0200541 0
M  V30 9034 H 845.024 3.49551 -1.77641 0
M  V30 9035 H 846.514 4.06298 -0.964975 0
M  V30 9036 N 846.951 1.19563 1.02676 0
M  V30 9037 C 848.199 0.997593 1.75763 0
M  V30 9038 C 848.52 -0.47253 1.89188 0
M  V30 9039 O 847.79 -1.34214 1.42701 0
M  V30 9040 H 846.37 0.366128 0.651122 0
M  V30 9041 H 849.032 1.50495 1.23844 0
M  V30 9042 H 848.128 1.44741 2.76508 0
M  V30 9043 N 848.429 -1.21819 0.999893 0
M  V30 9044 C 849.379 -2.21823 0.527104 0
M  V30 9045 C 850.363 -1.55628 -0.408515 0
M  V30 9046 O 851.555 -1.75444 -0.234196 0
M  V30 9047 C 848.684 -3.42972 -0.149986 0
M  V30 9048 C 847.77 -4.16364 0.806349 0
M  V30 9049 N 848.161 -4.66403 1.95708 0
M  V30 9050 C 846.459 -4.41618 0.623672 0
M  V30 9051 C 847.16 -5.22443 2.5579 0
M  V30 9052 N 846.136 -5.11514 1.83995 0
M  V30 9053 H 849.938 -2.58161 1.40464 0
M  V30 9054 H 847.452 -1.37569 0.863054 0
M  V30 9055 H 849.449 -4.13816 -0.50613 0
M  V30 9056 H 848.109 -3.08145 -1.02357 0
M  V30 9057 H 849.12 -4.62142 2.33763 0
M  V30 9058 H 845.797 -4.17005 -0.203257 0
M  V30 9059 H 847.187 -5.7165 3.5308 0
M  V30 9060 N 849.908 -0.773975 -1.37286 0
M  V30 9061 C 850.838 -0.175782 -2.32837 0
M  V30 9062 C 851.819 0.680603 -1.5589 0
M  V30 9063 O 853.004 0.617607 -1.84117 0
M  V30 9064 C 850.134 0.702388 -3.40123 0
M  V30 9065 C 849.088 -0.0528687 -4.27967 0
M  V30 9066 C 848.414 0.944891 -5.26285 0
M  V30 9067 C 849.714 -1.23316 -5.07534 0
M  V30 9068 H 851.408 -0.974016 -2.83114 0
M  V30 9069 H 848.954 -0.469826 -1.3612 0
M  V30 9070 H 850.907 1.13069 -4.05947 0
M  V30 9071 H 849.631 1.53316 -2.88378 0
M  V30 9072 H 848.29 -0.461978 -3.63678 0
M  V30 9073 H 847.938 1.77028 -4.70819 0
M  V30 9074 H 847.638 0.444079 -5.8592 0
M  V30 9075 H 849.162 1.37209 -5.94984 0
M  V30 9076 H 850.576 -0.881395 -5.66484 0
M  V30 9077 H 848.973 -1.66621 -5.76504 0
M  V30 9078 H 850.043 -2.03617 -4.40077 0
M  V30 9079 N 851.386 1.48609 -0.524698 0
M  V30 9080 C 852.663 1.95454 0.075465 0
M  V30 9081 C 853.043 1.46682 1.51814 0
M  V30 9082 O 852.391 0.690975 2.17802 0
M  V30 9083 C 852.601 3.48981 -0.0363273 0
M  V30 9084 C 853.949 4.24414 0.125624 0
M  V30 9085 O 854.973 3.5618 0.0377239 0
M  V30 9086 O 853.832 5.45625 0.309104 0
M  V30 9087 H 850.926 0.822902 0.0822256 0
M  V30 9088 H 853.472 1.59153 -0.588921 0
M  V30 9089 H 852.244 3.77185 -1.04149 0
M  V30 9090 H 851.867 3.91963 0.667146 0
M  V30 9091 N 852.864 0.259585 1.55447 0
M  V30 9092 C 853.797 -0.675542 2.17972 0
M  V30 9093 C 854.775 -1.16362 1.13572 0
M  V30 9094 O 855.959 -1.23944 1.42021 0
M  V30 9095 C 853.086 -1.91952 2.79056 0
M  V30 9096 C 852.132 -1.56824 3.96621 0
M  V30 9097 S 852.965 -0.659846 5.31419 0
M  V30 9098 C 854.121 -1.91255 5.95963 0
M  V30 9099 H 854.354 -0.144236 2.9695 0
M  V30 9100 H 851.887 0.0439448 1.54337 0
M  V30 9101 H 853.845 -2.63362 3.14882 0
M  V30 9102 H 852.506 -2.42196 2 0
M  V30 9103 H 851.699 -2.49348 4.37997 0
M  V30 9104 H 851.301 -0.934472 3.62138 0
M  V30 9105 H 853.593 -2.85834 6.14252 0
M  V30 9106 H 854.536 -1.54207 6.91105 0
M  V30 9107 H 854.944 -2.07042 5.25161 0
M  V30 9108 N 854.342 -1.57594 -0.0133615 0
M  V30 9109 C 855.272 -2.10611 -1.00823 0
M  V30 9110 C 856.253 -1.01217 -1.36708 0
M  V30 9111 O 857.438 -1.28827 -1.45318 0
M  V30 9112 C 854.568 -2.59844 -2.30431 0
M  V30 9113 C 853.522 -3.73644 -2.08745 0
M  V30 9114 C 852.848 -4.09141 -3.4425 0
M  V30 9115 C 854.148 -5.01454 -1.46086 0
M  V30 9116 H 855.842 -2.93985 -0.566849 0
M  V30 9117 H 853.388 -1.41423 -0.271219 0
M  V30 9118 H 855.341 -2.95557 -3.00373 0
M  V30 9119 H 854.065 -1.73573 -2.76658 0
M  V30 9120 H 852.724 -3.38303 -1.41232 0
M  V30 9121 H 852.372 -3.19914 -3.88155 0
M  V30 9122 H 852.072 -4.85802 -3.3056 0
M  V30 9123 H 853.596 -4.47402 -4.15528 0
M  V30 9124 H 855.01 -5.35024 -2.05966 0
M  V30 9125 H 853.407 -5.82832 -1.42924 0
M  V30 9126 H 854.477 -4.83003 -0.428471 0
M  V30 9127 N 855.82 0.285905 -1.54985 0
M  V30 9128 C 857.045 1.04207 -1.7932 0
M  V30 9129 C 857.47 1.79622 -0.558343 0
M  V30 9130 O 856.828 1.74506 0.491661 0
M  V30 9131 C 856.876 1.98648 -3.0095 0
M  V30 9132 O 855.98 3.07207 -2.75132 0
M  V30 9133 H 855.321 0.298596 -0.593074 0
M  V30 9134 H 857.851 0.318736 -2.02102 0
M  V30 9135 H 857.861 2.4084 -3.29333 0
M  V30 9136 H 856.536 1.43167 -3.90482 0
M  V30 9137 H 855.113 2.69423 -2.57809 0
M  V30 9138 N 857.298 1.47698 0.54982 0
M  V30 9139 C 858.714 1.3338 0.876468 0
M  V30 9140 C 858.914 0.329837 1.98782 0
M  V30 9141 O 857.97 -0.256022 2.51199 0
M  V30 9142 C 859.283 2.72903 1.26272 0
M  V30 9143 C 860.831 2.81243 1.37373 0
M  V30 9144 C 861.306 4.21423 1.79351 0
M  V30 9145 N 862.797 4.24 1.86489 0
M  V30 9146 C 863.532 5.29386 2.20313 0
M  V30 9147 N 863.028 6.4507 2.527 0
M  V30 9148 N 864.821 5.16768 2.2115 0
M  V30 9149 H 856.972 2.11603 -0.183781 0
M  V30 9150 H 859.235 0.947798 -0.0195601 0
M  V30 9151 H 858.941 3.47836 0.519889 0
M  V30 9152 H 858.815 3.05151 2.21727 0
M  V30 9153 H 861.202 2.06577 2.10737 0
M  V30 9154 H 861.283 2.52639 0.400882 0
M  V30 9155 H 860.927 4.96597 1.06555 0
M  V30 9156 H 860.857 4.47456 2.77652 0
M  V30 9157 H 863.348 3.40547 1.63817 0
M  V30 9158 H 863.661 7.21236 2.77557 0
M  V30 9159 H 862.006 6.48377 2.50263 0
M  V30 9160 H 865.197 4.25416 1.95293 0
M  V30 9161 H 865.37 5.99004 2.4718 0
M  V30 9162 N 858.776 -0.797141 1.35954 0
M  V30 9163 C 860.025 -1.54983 1.29086 0
M  V30 9164 C 860.338 -1.95167 -0.130003 0
M  V30 9165 O 861.544 -2.69596 -0.32101 0
M  V30 9166 C 860 -2.79738 2.26439 0
M  V30 9167 C 859.608 -2.46753 3.73921 0
M  V30 9168 C 861.352 -3.57733 2.28533 0
M  V30 9169 C 859.259 -3.67858 4.63071 0
M  V30 9170 H 858.189 -0.581766 0.479651 0
M  V30 9171 H 860.84 -0.87541 1.61273 0
M  V30 9172 H 859.222 -3.48939 1.87236 0
M  V30 9173 H 860.396 -1.85499 4.21814 0
M  V30 9174 H 858.711 -1.81985 3.74527 0
M  V30 9175 H 861.308 -4.47699 2.92351 0
M  V30 9176 H 861.651 -3.95754 1.29169 0
M  V30 9177 H 862.184 -2.95504 2.66313 0
M  V30 9178 H 858.923 -3.34939 5.63468 0
M  V30 9179 H 858.443 -4.28305 4.19898 0
M  V30 9180 H 860.122 -4.34977 4.78961 0
M  V30 9181 N 860.254 -1.20106 -1.0204 0
M  V30 9182 C 861.201 -0.946468 -2.10501 0
M  V30 9183 C 862.171 0.121902 -1.65652 0
M  V30 9184 O 863.356 -0.0220244 -1.90787 0
M  V30 9185 C 860.496 -0.500499 -3.41451 0
M  V30 9186 C 859.609 -1.63659 -3.998 0
M  V30 9187 C 858.744 -1.14131 -5.18794 0
M  V30 9188 C 857.783 -2.25074 -5.69217 0
M  V30 9189 N 856.92 -1.76791 -6.79477 0
M  V30 9190 H 861.76 -1.87506 -2.31615 0
M  V30 9191 H 859.297 -0.934693 -1.13587 0
M  V30 9192 H 861.255 -0.223276 -4.16602 0
M  V30 9193 H 859.885 0.391099 -3.20422 0
M  V30 9194 H 858.937 -2.02882 -3.21781 0
M  V30 9195 H 860.249 -2.47213 -4.33229 0
M  V30 9196 H 859.403 -0.819826 -6.01135 0
M  V30 9197 H 858.142 -0.275615 -4.86921 0
M  V30 9198 H 857.147 -2.58043 -4.85483 0
M  V30 9199 H 858.372 -3.12114 -6.03127 0
M  V30 9200 H 856.318 -0.925428 -6.4944 0
M  V30 9201 H 856.235 -2.53928 -7.12079 0
M  V30 9202 H 857.503 -1.47631 -7.65392 0
M  V30 9203 N 861.732 1.21287 -1.00634 0
M  V30 9204 C 862.957 1.94925 -0.708441 0
M  V30 9205 C 863.382 1.73659 0.722783 0
M  V30 9206 O 862.74 1.02429 1.49593 0
M  V30 9207 C 862.788 3.45377 -1.03667 0
M  V30 9208 O 861.892 4.12153 -0.142661 0
M  V30 9209 H 861.233 0.609338 -0.263824 0
M  V30 9210 H 863.763 1.54008 -1.34695 0
M  V30 9211 H 863.773 3.95954 -0.984086 0
M  V30 9212 H 862.448 3.6018 -2.0795 0
M  V30 9213 H 861.025 3.72048 -0.251888 0
M  V30 9214 N 863.21 0.781244 1.36873 0
M  V30 9215 C 864.14 0.188128 2.32741 0
M  V30 9216 C 865.121 -0.672326 1.56249 0
M  V30 9217 O 866.306 -0.607835 1.84442 0
M  V30 9218 C 863.436 -0.684341 3.40491 0
M  V30 9219 C 862.39 0.0755641 4.27933 0
M  V30 9220 C 861.716 -0.916968 5.26779 0
M  V30 9221 C 863.016 1.26006 5.06873 0
M  V30 9222 H 864.71 0.989016 2.82593 0
M  V30 9223 H 862.256 0.477038 1.35869 0
M  V30 9224 H 864.209 -1.10915 4.06541 0
M  V30 9225 H 862.933 -1.51785 2.89187 0
M  V30 9226 H 861.592 0.481258 3.63427 0
M  V30 9227 H 861.24 -1.74528 4.71751 0
M  V30 9228 H 860.94 -0.413 5.86147 0
M  V30 9229 H 862.464 -1.34052 5.95703 0
M  V30 9230 H 863.878 0.911425 5.66009 0
M  V30 9231 H 862.275 1.69676 5.75613 0
M  V30 9232 H 863.345 2.05948 4.38991 0
M  V30 9233 N 864.689 -1.48329 0.532571 0
M  V30 9234 C 865.621 -2.27652 -0.265931 0
M  V30 9235 C 866.634 -1.35522 -0.902083 0
M  V30 9236 O 867.823 -1.60552 -0.780088 0
M  V30 9237 C 864.923 -3.0899 -1.39207 0
M  V30 9238 C 864.096 -4.28915 -0.857349 0
M  V30 9239 C 863.155 -4.92044 -1.86493 0
M  V30 9240 O 862.181 -5.51181 -1.42084 0
M  V30 9241 N 863.383 -4.84518 -3.19723 0
M  V30 9242 H 866.148 -2.96821 0.414389 0
M  V30 9243 H 863.709 -1.57684 0.367066 0
M  V30 9244 H 865.701 -3.48091 -2.06433 0
M  V30 9245 H 864.271 -2.42224 -1.97601 0
M  V30 9246 H 863.491 -3.94199 -0.00901765 0
M  V30 9247 H 864.779 -5.0654 -0.479025 0
M  V30 9248 H 864.177 -4.37628 -3.58467 0
M  V30 9249 H 862.734 -5.27712 -3.82575 0
M  V30 9250 N 866.167 -0.267825 -1.55308 0
M  V30 9251 C 867.392 0.357487 -2.04296 0
M  V30 9252 C 867.817 1.49222 -1.14518 0
M  V30 9253 O 867.175 1.80741 -0.142292 0
M  V30 9254 C 867.223 0.822899 -3.51085 0
M  V30 9255 O 866.327 1.93078 -3.6441 0
M  V30 9256 H 865.668 0.075025 -0.659748 0
M  V30 9257 H 868.198 -0.399996 -2.00652 0
M  V30 9258 H 868.208 1.12059 -3.92309 0
M  V30 9259 H 866.883 -0.0073562 -4.15899 0
M  V30 9260 H 865.46 1.63618 -3.35087 0
M  V30 9261 N 867.645 1.57599 0.00500368 0
M  V30 9262 C 869.061 1.55463 0.361015 0
M  V30 9263 C 869.261 0.997051 1.75103 0
M  V30 9264 O 868.317 0.628661 2.44549 0
M  V30 9265 C 869.63 2.99734 0.240828 0
M  V30 9266 C 871.178 3.11399 0.316138 0
M  V30 9267 C 871.653 4.57446 0.22513 0
M  V30 9268 N 873.144 4.62334 0.283186 0
M  V30 9269 C 873.879 5.72914 0.23603 0
M  V30 9270 N 873.375 6.92659 0.139762 0
M  V30 9271 N 875.168 5.61364 0.287529 0
M  V30 9272 H 867.319 1.92185 -0.904359 0
M  V30 9273 H 869.582 0.882529 -0.34619 0
M  V30 9274 H 869.288 3.44348 -0.715343 0
M  V30 9275 H 869.162 3.63009 1.02491 0
M  V30 9276 H 871.549 2.66718 1.26275 0
M  V30 9277 H 871.63 2.50911 -0.497725 0
M  V30 9278 H 871.274 5.02801 -0.717917 0
M  V30 9279 H 871.204 5.15874 1.05742 0
M  V30 9280 H 873.695 3.7619 0.359123 0
M  V30 9281 H 874.008 7.72722 0.10954 0
M  V30 9282 H 872.353 6.9492 0.105462 0
M  V30 9283 H 875.544 4.66707 0.360897 0
M  V30 9284 H 875.717 6.47528 0.247313 0
M  V30 9285 N 869.123 -0.277682 1.55134 0
M  V30 9286 C 870.369 -1.0114 1.7578 0
M  V30 9287 C 870.702 -1.86109 0.554719 0
M  V30 9288 O 869.977 -1.89275 -0.447813 0
M  V30 9289 C 870.26 -1.89789 3.06027 0
M  V30 9290 C 870.113 -1.07844 4.3668 0
M  V30 9291 C 871.432 -2.88577 3.32282 0
M  V30 9292 H 868.551 -0.366277 0.639539 0
M  V30 9293 H 871.193 -0.284155 1.87863 0
M  V30 9294 H 869.343 -2.51796 2.95856 0
M  V30 9295 H 871.015 -0.479432 4.58802 0
M  V30 9296 H 869.258 -0.381764 4.32117 0
M  V30 9297 H 869.929 -1.73179 5.24131 0
M  V30 9298 H 872.405 -2.36702 3.42215 0
M  V30 9299 H 871.281 -3.47749 4.2469 0
M  V30 9300 H 871.542 -3.63458 2.51696 0
M  V30 9301 N 870.601 -1.47988 -0.541979 0
M  V30 9302 C 871.878 -1.45878 -1.30303 0
M  V30 9303 C 872.258 -0.163931 -2.10463 0
M  V30 9304 O 871.606 0.854479 -2.11922 0
M  V30 9305 C 871.816 -2.71359 -2.19466 0
M  V30 9306 C 873.164 -3.19199 -2.79995 0
M  V30 9307 O 874.188 -2.72193 -2.2976 0
M  V30 9308 O 873.047 -4.00961 -3.71339 0
M  V30 9309 H 870.141 -0.582043 -0.587498 0
M  V30 9310 H 872.687 -1.60207 -0.559623 0
M  V30 9311 H 871.459 -3.57122 -1.59936 0
M  V30 9312 H 871.082 -2.59692 -3.01075 0
M  V30 9313 N 872.079 0.78992 -1.36375 0
M  V30 9314 C 873.011 1.91113 -1.26524 0
M  V30 9315 C 874.024 1.61747 -0.184851 0
M  V30 9316 O 875.213 1.73004 -0.439524 0
M  V30 9317 C 872.313 3.25908 -0.92937 0
M  V30 9318 C 871.486 3.83057 -2.11154 0
M  V30 9319 C 870.545 4.96289 -1.74881 0
M  V30 9320 O 869.571 5.12834 -2.46962 0
M  V30 9321 N 870.773 5.76478 -0.682193 0
M  V30 9322 H 873.538 2.00085 -2.23128 0
M  V30 9323 H 871.099 0.968165 -1.29762 0
M  V30 9324 H 873.091 3.99151 -0.667884 0
M  V30 9325 H 871.661 3.12556 -0.0524843 0
M  V30 9326 H 870.881 3.01808 -2.53586 0
M  V30 9327 H 872.169 4.1797 -2.90135 0
M  V30 9328 H 871.567 5.65638 -0.0836661 0
M  V30 9329 H 870.124 6.50026 -0.480529 0
M  V30 9330 N 873.557 1.20646 1.01402 0
M  V30 9331 C 874.806 1.01242 1.7445 0
M  V30 9332 C 875.119 -0.455732 1.90217 0
M  V30 9333 O 876.325 -0.768951 2.60383 0
M  V30 9334 C 874.781 1.76275 3.13776 0
M  V30 9335 C 874.389 3.27201 3.06013 0
M  V30 9336 C 876.133 1.65248 3.91016 0
M  V30 9337 C 874.04 3.9476 4.40362 0
M  V30 9338 H 872.97 0.375202 0.654018 0
M  V30 9339 H 875.621 1.44292 1.13367 0
M  V30 9340 H 874.003 1.26013 3.75415 0
M  V30 9341 H 875.177 3.84695 2.53665 0
M  V30 9342 H 873.492 3.38669 2.42265 0
M  V30 9343 H 876.089 2.13061 4.90417 0
M  V30 9344 H 876.432 0.609128 4.1182 0
M  V30 9345 H 876.965 2.12937 3.3601 0
M  V30 9346 H 873.704 4.99258 4.24761 0
M  V30 9347 H 873.224 3.42054 4.92706 0
M  V30 9348 H 874.903 3.99159 5.09196 0
M  V30 9349 N 875.035 -1.20752 1.01276 0
M  V30 9350 C 876.281 -1.90302 0.700924 0
M  V30 9351 C 876.614 -1.78406 -0.767142 0
M  V30 9352 O 875.889 -1.16575 -1.55694 0
M  V30 9353 C 876.172 -3.41831 1.13242 0
M  V30 9354 C 876.025 -3.6268 2.66051 0
M  V30 9355 C 877.344 -4.34486 0.700738 0
M  V30 9356 H 874.463 -0.69107 0.256107 0
M  V30 9357 H 877.105 -1.42227 1.25982 0
M  V30 9358 H 875.255 -3.82906 0.656902 0
M  V30 9359 H 876.927 -3.30882 3.21426 0
M  V30 9360 H 875.17 -3.06281 3.07204 0
M  V30 9361 H 875.841 -4.68882 2.91296 0
M  V30 9362 H 878.317 -4.01036 1.10948 0
M  V30 9363 H 877.193 -5.39136 1.03073 0
M  V30 9364 H 877.454 -4.40307 -0.39778 0
M  V30 9365 N 876.513 -0.788492 -1.36457 0
M  V30 9366 C 877.761 -0.359749 -1.98872 0
M  V30 9367 C 878.082 1.07197 -1.62892 0
M  V30 9368 O 877.352 1.73875 -0.902463 0
M  V30 9369 H 875.932 -0.130029 -0.735596 0
M  V30 9370 H 878.594 -1.01033 -1.66668 0
M  V30 9371 H 877.69 -0.450835 -3.08827 0
M  V30 9372 N 877.991 1.48044 -0.54043 0
M  V30 9373 C 879.407 1.58354 -0.199006 0
M  V30 9374 C 879.607 1.54118 1.29807 0
M  V30 9375 O 878.663 1.43573 2.07709 0
M  V30 9376 C 879.976 2.89563 -0.810797 0
M  V30 9377 C 881.524 3.03113 -0.780486 0
M  V30 9378 C 881.999 4.36997 -1.37104 0
M  V30 9379 N 883.49 4.43591 -1.33347 0
M  V30 9380 C 884.225 5.45714 -1.76021 0
M  V30 9381 N 883.721 6.54738 -2.26473 0
M  V30 9382 N 885.514 5.36659 -1.67194 0
M  V30 9383 H 877.665 1.49041 -1.51329 0
M  V30 9384 H 879.928 0.708309 -0.630081 0
M  V30 9385 H 879.634 2.9835 -1.86227 0
M  V30 9386 H 879.508 3.76053 -0.293977 0
M  V30 9387 H 881.895 2.93932 0.262246 0
M  V30 9388 H 881.976 2.18207 -1.33489 0
M  V30 9389 H 881.62 4.46932 -2.41276 0
M  V30 9390 H 881.55 5.20607 -0.792229 0
M  V30 9391 H 884.041 3.65391 -0.964259 0
M  V30 9392 H 884.354 7.28814 -2.57002 0
M  V30 9393 H 882.699 6.55673 -2.30473 0
M  V30 9394 H 885.89 4.50382 -1.27569 0
M  V30 9395 H 886.063 6.16113 -2.00771 0
M  V30 9396 N 879.47 0.276058 1.55163 0
M  V30 9397 C 880.718 -0.339782 1.99223 0
M  V30 9398 C 881.039 -1.56307 1.16589 0
M  V30 9399 O 880.309 -1.94225 0.25564 0
M  V30 9400 H 878.889 -0.128534 0.735859 0
M  V30 9401 H 881.551 0.381612 1.91128 0
M  V30 9402 H 880.647 -0.629 3.05696 0
M  V30 9403 N 880.948 -1.576 0.00335426 0
M  V30 9404 C 882.359 -1.7875 -0.539008 0
M  V30 9405 C 882.71 -0.911097 -1.73763 0
M  V30 9406 O 881.835 -0.114476 -2.16097 0
M  V30 9407 C 882.43 -3.24177 -0.984611 0
M  V30 9408 C 880.989 -3.46412 -1.47226 0
M  V30 9409 C 880.136 -2.74024 -0.425004 0
M  V30 9410 H 883.087 -1.57032 0.229511 0
M  V30 9411 H 883.108 -3.32474 -1.85044 0
M  V30 9412 H 882.62 -3.87938 -0.112035 0
M  V30 9413 H 880.721 -2.8787 -2.36562 0
M  V30 9414 H 880.834 -4.55098 -1.49741 0
M  V30 9415 H 879.198 -2.38741 -0.887394 0
M  V30 9416 H 879.981 -3.40486 0.438662 0
M  V30 9417 N 882.426 0.269451 -1.5528 0
M  V30 9418 C 883.389 1.31642 -1.87625 0
M  V30 9419 C 884.389 1.42182 -0.751058 0
M  V30 9420 O 885.579 1.41272 -1.01921 0
M  V30 9421 C 882.711 2.6973 -2.08467 0
M  V30 9422 H 883.904 1.0419 -2.81219 0
M  V30 9423 H 881.457 0.507685 -1.47825 0
M  V30 9424 H 882.192 3.02356 -1.17266 0
M  V30 9425 H 881.977 2.63465 -2.90394 0
M  V30 9426 H 883.467 3.4537 -2.34753 0
M  V30 9427 N 883.904 1.48273 0.534124 0
M  V30 9428 C 885.153 1.55334 1.28663 0
M  V30 9429 C 885.466 0.230345 1.94239 0
M  V30 9430 O 886.672 0.179161 2.70908 0
M  V30 9431 C 885.128 2.73927 2.33435 0
M  V30 9432 C 884.736 4.12852 1.73947 0
M  V30 9433 C 886.48 2.90298 3.09722 0
M  V30 9434 C 884.387 5.22711 2.76636 0
M  V30 9435 H 883.317 0.578262 0.483869 0
M  V30 9436 H 885.968 1.74598 0.564602 0
M  V30 9437 H 884.35 2.48089 3.08655 0
M  V30 9438 H 885.524 4.48691 1.04944 0
M  V30 9439 H 883.839 4.01562 1.10167 0
M  V30 9440 H 886.436 3.69542 3.86449 0
M  V30 9441 H 886.779 1.99598 3.6533 0
M  V30 9442 H 887.312 3.16017 2.41616 0
M  V30 9443 H 884.051 6.15362 2.25852 0
M  V30 9444 H 883.571 4.91364 3.43979 0
M  V30 9445 H 885.25 5.50648 3.39699 0
M  V30 9446 N 885.382 -0.782676 1.36792 0
M  V30 9447 C 886.61 -1.57162 1.34565 0
M  V30 9448 C 887.025 -1.88664 -0.0715501 0
M  V30 9449 O 886.382 -1.50633 -1.03033 0
M  V30 9450 C 886.433 -2.88854 2.1736 0
M  V30 9451 O 886.154 -2.58707 3.53557 0
M  V30 9452 C 887.655 -3.83132 2.2299 0
M  V30 9453 H 884.875 -0.487245 0.461338 0
M  V30 9454 H 887.419 -0.970905 1.79982 0
M  V30 9455 H 885.574 -3.45377 1.7548 0
M  V30 9456 H 885.988 -3.42961 3.96835 0
M  V30 9457 H 887.462 -4.72575 2.85266 0
M  V30 9458 H 887.939 -4.21472 1.23524 0
M  V30 9459 H 888.545 -3.32541 2.65135 0
M  V30 9460 N 886.86 -1.21182 -1.00761 0
M  V30 9461 C 888.137 -0.936297 -1.71735 0
M  V30 9462 C 888.517 0.552585 -2.03739 0
M  V30 9463 O 887.865 1.51672 -1.70903 0
M  V30 9464 C 888.075 -1.81867 -2.97868 0
M  V30 9465 C 889.423 -2.06594 -3.7095 0
M  V30 9466 O 890.447 -1.79194 -3.07844 0
M  V30 9467 O 889.306 -2.5292 -4.84452 0
M  V30 9468 H 886.4 -0.350867 -0.74888 0
M  V30 9469 H 888.946 -1.32098 -1.06527 0
M  V30 9470 H 887.718 -2.82643 -2.70607 0
M  V30 9471 H 887.341 -1.43463 -3.70815 0
M  V30 9472 N 888.338 1.20213 -1.01915 0
M  V30 9473 C 889.285 2.2309 -0.591571 0
M  V30 9474 C 890.255 1.61465 0.389649 0
M  V30 9475 O 891.44 1.88606 0.288511 0
M  V30 9476 C 888.58 3.45045 0.0614028 0
M  V30 9477 C 887.693 4.21091 -0.964688 0
M  V30 9478 C 886.828 5.30448 -0.282499 0
M  V30 9479 C 885.867 5.98241 -1.29517 0
M  V30 9480 N 885.004 6.99182 -0.639472 0
M  V30 9481 H 889.844 2.59023 -1.47347 0
M  V30 9482 H 887.381 1.27274 -0.737547 0
M  V30 9483 H 889.339 4.14688 0.45714 0
M  V30 9484 H 887.969 3.09797 0.906937 0
M  V30 9485 H 887.021 3.50489 -1.47857 0
M  V30 9486 H 888.333 4.67662 -1.73475 0
M  V30 9487 H 887.487 6.06466 0.168603 0
M  V30 9488 H 886.226 4.84922 0.519843 0
M  V30 9489 H 885.231 5.20982 -1.75663 0
M  V30 9490 H 886.456 6.45853 -2.09884 0
M  V30 9491 H 884.402 6.55844 0.142955 0
M  V30 9492 H 884.319 7.43893 -1.34756 0
M  V30 9493 H 885.587 7.79212 -0.212047 0
M  V30 9494 N 889.816 0.795718 1.36037 0
M  V30 9495 C 891.093 0.294743 1.93367 0
M  V30 9496 C 891.473 -1.21406 1.72696 0
M  V30 9497 O 890.821 -2.00849 1.08959 0
M  V30 9498 C 891.031 0.694254 3.42025 0
M  V30 9499 C 892.379 0.677566 4.19159 0
M  V30 9500 O 893.403 0.635119 3.50492 0
M  V30 9501 O 892.262 0.726127 5.41655 0
M  V30 9502 H 889.356 0.0745459 0.823633 0
M  V30 9503 H 891.902 0.878685 1.4518 0
M  V30 9504 H 890.674 1.73458 3.50753 0
M  V30 9505 H 890.297 0.0845338 3.9751 0
M  V30 9506 N 891.294 -1.47756 0.548274 0
M  V30 9507 C 892.71 -1.58247 0.207401 0
M  V30 9508 C 892.91 -1.54804 -1.28988 0
M  V30 9509 O 891.966 -1.44673 -2.06944 0
M  V30 9510 C 893.279 -2.89129 0.826142 0
M  V30 9511 C 894.827 -3.02695 0.79655 0
M  V30 9512 C 895.302 -4.36264 1.3942 0
M  V30 9513 N 896.793 -4.42877 1.35698 0
M  V30 9514 C 897.528 -5.44773 1.78913 0
M  V30 9515 N 897.024 -6.53528 2.29942 0
M  V30 9516 N 898.817 -5.35765 1.70038 0
M  V30 9517 H 890.968 -1.48236 1.52117 0
M  V30 9518 H 893.231 -0.704957 0.633829 0
M  V30 9519 H 892.937 -2.97358 1.87806 0
M  V30 9520 H 892.811 -3.75891 0.313916 0
M  V30 9521 H 895.198 -2.94067 -0.246655 0
M  V30 9522 H 895.279 -2.17496 1.34644 0
M  V30 9523 H 894.923 -4.45646 2.43642 0
M  V30 9524 H 894.853 -5.20179 0.819827 0
M  V30 9525 H 897.344 -3.64874 0.983623 0
M  V30 9526 H 897.657 -7.27441 2.60863 0
M  V30 9527 H 896.002 -6.54442 2.33947 0
M  V30 9528 H 899.193 -4.49699 1.29955 0
M  V30 9529 H 899.366 -6.1504 2.04035 0
M  V30 9530 N 892.772 -0.284283 -1.55015 0
M  V30 9531 C 894 0.332948 -2.04203 0
M  V30 9532 C 894.415 1.48783 -1.16229 0
M  V30 9533 O 893.772 1.81567 -0.184323 0
M  V30 9534 C 893.823 0.805207 -3.52418 0
M  V30 9535 O 893.544 -0.303689 -4.37046 0
M  V30 9536 C 895.045 1.48931 -4.17534 0
M  V30 9537 H 892.265 0.0747447 -0.666824 0
M  V30 9538 H 894.809 -0.419048 -2.00161 0
M  V30 9539 H 892.964 1.50727 -3.56876 0
M  V30 9540 H 893.378 0.0609703 -5.24465 0
M  V30 9541 H 894.852 1.77108 -5.22816 0
M  V30 9542 H 895.329 2.42389 -3.66257 0
M  V30 9543 H 895.935 0.830867 -4.17105 0
M  V30 9544 N 894.251 1.57596 -0.0117121 0
M  V30 9545 C 895.198 2.09153 0.975897 0
M  V30 9546 C 896.168 0.989579 1.33404 0
M  V30 9547 O 897.353 1.26273 1.43038 0
M  V30 9548 C 894.493 2.60906 2.2588 0
M  V30 9549 C 893.606 3.85046 1.95866 0
M  V30 9550 C 892.741 4.25257 3.18323 0
M  V30 9551 C 891.78 5.42202 2.84049 0
M  V30 9552 N 890.917 5.77651 3.99079 0
M  V30 9553 H 895.757 2.93261 0.52931 0
M  V30 9554 H 893.294 1.44965 0.249691 0
M  V30 9555 H 895.252 2.88995 3.00895 0
M  V30 9556 H 893.882 1.79654 2.68187 0
M  V30 9557 H 892.934 3.63794 1.11168 0
M  V30 9558 H 894.246 4.70151 1.66611 0
M  V30 9559 H 893.4 4.5469 4.01674 0
M  V30 9560 H 892.139 3.38884 3.50726 0
M  V30 9561 H 891.144 5.1248 1.99107 0
M  V30 9562 H 892.369 6.3026 2.52881 0
M  V30 9563 H 890.315 4.94235 4.31356 0
M  V30 9564 H 890.232 6.57356 3.73388 0
M  V30 9565 H 891.5 6.11681 4.83183 0
M  V30 9566 N 895.729 -0.261212 1.5542 0
M  V30 9567 C 896.977 -0.989272 1.76232 0
M  V30 9568 C 897.298 -1.86389 0.573067 0
M  V30 9569 O 896.568 -1.91526 -0.41166 0
M  V30 9570 H 895.148 -0.368256 0.64992 0
M  V30 9571 H 897.81 -0.282603 1.9284 0
M  V30 9572 H 896.906 -1.61935 2.66802 0
M  V30 9573 N 897.207 -1.48554 -0.526253 0
M  V30 9574 C 898.618 -1.50256 -1.10815 0
M  V30 9575 C 898.969 -0.274445 -1.94271 0
M  V30 9576 O 898.094 0.618094 -2.07385 0
M  V30 9577 C 898.689 -2.72264 -2.01638 0
M  V30 9578 C 897.248 -2.76826 -2.55038 0
M  V30 9579 C 896.395 -2.43823 -1.32081 0
M  V30 9580 H 899.346 -1.55616 -0.31133 0
M  V30 9581 H 899.367 -2.50993 -2.85977 0
M  V30 9582 H 898.879 -3.61632 -1.4087 0
M  V30 9583 H 896.98 -1.91676 -3.19517 0
M  V30 9584 H 897.093 -3.78351 -2.93917 0
M  V30 9585 H 895.457 -1.95058 -1.63781 0
M  V30 9586 H 896.24 -3.35436 -0.730596 0
M  V30 9587 N 898.685 0.775411 -1.37205 0
M  V30 9588 C 899.648 1.8702 -1.325 0
M  V30 9589 C 900.648 1.5915 -0.229793 0
M  V30 9590 O 901.838 1.673 -0.485423 0
M  V30 9591 C 898.97 3.24085 -1.05745 0
M  V30 9592 H 900.163 1.92604 -2.29878 0
M  V30 9593 H 897.716 0.97476 -1.22181 0
M  V30 9594 H 898.451 3.24178 -0.0888371 0
M  V30 9595 H 898.236 3.45705 -1.85016 0
M  V30 9596 H 899.726 4.0416 -1.05094 0
M  V30 9597 N 900.163 1.21714 1.00117 0
M  V30 9598 C 901.073 0.99597 2.12409 0
M  V30 9599 C 902.089 -0.0531431 1.73919 0
M  V30 9600 O 903.265 0.137757 2.00928 0
M  V30 9601 C 900.33 0.567593 3.42022 0
M  V30 9602 C 899.391 1.68936 3.94663 0
M  V30 9603 C 898.624 1.28133 5.1809 0
M  V30 9604 O 898.847 0.156574 5.70185 0
M  V30 9605 O 897.781 2.0947 5.64275 0
M  V30 9606 H 901.607 1.93657 2.33946 0
M  V30 9607 H 899.192 1.00236 1.10784 0
M  V30 9608 H 901.074 0.338664 4.20037 0
M  V30 9609 H 899.749 -0.34424 3.21864 0
M  V30 9610 H 898.656 1.97274 3.17858 0
M  V30 9611 H 899.989 2.57876 4.19238 0
M  V30 9612 N 901.641 -1.19671 1.02551 0
M  V30 9613 C 902.604 -2.20987 0.608055 0
M  V30 9614 C 903.604 -1.5745 -0.326534 0
M  V30 9615 O 904.794 -1.73827 -0.114003 0
M  V30 9616 C 901.926 -3.4072 -0.11074 0
M  V30 9617 H 903.119 -2.59434 1.50446 0
M  V30 9618 H 900.672 -1.3329 0.816307 0
M  V30 9619 H 901.407 -3.07787 -1.02165 0
M  V30 9620 H 901.192 -3.88069 0.560772 0
M  V30 9621 H 902.682 -4.15776 -0.389848 0
M  V30 9622 N 903.119 -0.802921 -1.35613 0
M  V30 9623 C 904.029 -0.212177 -2.33639 0
M  V30 9624 C 905.045 0.642871 -1.61689 0
M  V30 9625 O 906.221 0.555485 -1.93588 0
M  V30 9626 C 903.286 0.632406 -3.40883 0
M  V30 9627 C 902.347 -0.242708 -4.28613 0
M  V30 9628 C 901.58 0.56166 -5.30736 0
M  V30 9629 O 901.803 1.79664 -5.41366 0
M  V30 9630 O 900.737 -0.0455387 -6.01883 0
M  V30 9631 H 904.563 -1.023 -2.85952 0
M  V30 9632 H 902.148 -0.564636 -1.38319 0
M  V30 9633 H 904.03 1.11358 -4.0642 0
M  V30 9634 H 902.705 1.42089 -2.90848 0
M  V30 9635 H 901.612 -0.77094 -3.6607 0
M  V30 9636 H 902.945 -0.995046 -4.82037 0
M  V30 9637 N 904.597 1.47463 -0.556102 0
M  V30 9638 C 905.527 2.32801 0.180497 0
M  V30 9639 C 906.508 1.43721 0.909848 0
M  V30 9640 O 907.693 1.72578 0.89053 0
M  V30 9641 C 904.823 3.25478 1.21167 0
M  V30 9642 C 903.777 4.2379 0.598846 0
M  V30 9643 C 903.103 5.05783 1.73457 0
M  V30 9644 C 904.403 5.20387 -0.446659 0
M  V30 9645 H 906.097 2.94636 -0.531956 0
M  V30 9646 H 903.643 1.41683 -0.257267 0
M  V30 9647 H 905.596 3.8402 1.73513 0
M  V30 9648 H 904.32 2.61695 1.95405 0
M  V30 9649 H 902.979 3.66472 0.0966897 0
M  V30 9650 H 902.627 4.38405 2.46596 0
M  V30 9651 H 902.327 5.72343 1.33031 0
M  V30 9652 H 903.851 5.67183 2.26131 0
M  V30 9653 H 905.265 5.73299 -0.00930019 0
M  V30 9654 H 903.662 5.95143 -0.769735 0
M  V30 9655 H 904.732 4.65932 -1.34295 0
M  V30 9656 N 906.075 0.2925 1.54862 0
M  V30 9657 C 907.486 -0.201841 1.85606 0
M  V30 9658 C 907.837 -1.54093 1.21449 0
M  V30 9659 O 906.962 -2.10327 0.509079 0
M  V30 9660 C 907.557 -0.373011 3.3674 0
M  V30 9661 C 906.116 -0.811574 3.67547 0
M  V30 9662 C 905.263 0.0850583 2.7717 0
M  V30 9663 H 908.214 0.513774 1.50153 0
M  V30 9664 H 908.235 -1.20892 3.60785 0
M  V30 9665 H 907.747 0.601751 3.83407 0
M  V30 9666 H 905.848 -1.79719 3.26392 0
M  V30 9667 H 905.961 -0.636853 4.74848 0
M  V30 9668 H 904.325 -0.434224 2.50971 0
M  V30 9669 H 905.108 1.05602 3.26654 0
M  V30 9670 N 907.553 -1.57587 0.0200696 0
M  V30 9671 C 908.463 -2.13119 -0.980676 0
M  V30 9672 C 909.479 -1.08124 -1.36328 0
M  V30 9673 O 910.655 -1.40134 -1.44653 0
M  V30 9674 C 907.72 -2.63991 -2.24743 0
M  V30 9675 C 906.781 -3.83667 -1.9261 0
M  V30 9676 C 906.014 -4.32103 -3.13246 0
M  V30 9677 O 906.237 -3.79758 -4.25606 0
M  V30 9678 O 905.171 -5.24047 -2.96072 0
M  V30 9679 H 908.997 -2.98887 -0.538528 0
M  V30 9680 H 906.582 -1.48055 -0.19999 0
M  V30 9681 H 908.464 -2.9682 -2.99125 0
M  V30 9682 H 907.139 -1.81311 -2.68157 0
M  V30 9683 H 906.046 -3.55778 -1.15641 0
M  V30 9684 H 907.379 -4.67482 -1.54019 0
M  V30 9685 N 909.032 0.252966 -1.55557 0
M  V30 9686 C 910.309 1.00432 -1.67847 0
M  V30 9687 C 910.689 2.03587 -0.55816 0
M  V30 9688 O 910.037 2.24239 0.439197 0
M  V30 9689 C 910.247 1.64313 -3.079 0
M  V30 9690 C 911.595 2.14726 -3.66303 0
M  V30 9691 O 912.619 1.74264 -3.10661 0
M  V30 9692 O 911.478 2.89 -4.63833 0
M  V30 9693 H 908.572 0.467102 -0.682455 0
M  V30 9694 H 911.118 0.247233 -1.67889 0
M  V30 9695 H 909.89 0.896681 -3.80888 0
M  V30 9696 H 909.513 2.46657 -3.11843 0
M  V30 9697 N 910.51 1.48831 0.518367 0
M  V30 9698 C 911.921 1.50842 1.10016 0
M  V30 9699 C 912.272 0.284744 1.94123 0
M  V30 9700 O 911.397 -0.607088 2.0771 0
M  V30 9701 C 911.992 2.73329 2.00191 0
M  V30 9702 C 910.551 2.78175 2.53566 0
M  V30 9703 C 909.698 2.4452 1.30786 0
M  V30 9704 H 912.649 1.55779 0.303073 0
M  V30 9705 H 912.67 2.52506 2.84642 0
M  V30 9706 H 912.182 3.62374 1.3895 0
M  V30 9707 H 910.283 1.93368 3.18496 0
M  V30 9708 H 910.396 3.79905 2.91906 0
M  V30 9709 H 908.76 1.95924 1.62744 0
M  V30 9710 H 909.543 3.35819 0.712797 0
M  V30 9711 N 911.988 -0.768124 1.37614 0
M  V30 9712 C 913.213 -1.56239 1.36397 0
M  V30 9713 C 913.638 -1.8804 -0.0475839 0
M  V30 9714 O 912.996 -1.495 -1.02564 0
M  V30 9715 C 913.044 -2.84716 2.21289 0
M  V30 9716 O 912.148 -3.79249 1.62001 0
M  V30 9717 H 911.489 -0.473119 0.465891 0
M  V30 9718 H 914.019 -0.950415 1.81186 0
M  V30 9719 H 914.029 -3.33784 2.34632 0
M  V30 9720 H 912.704 -2.60899 3.2389 0
M  V30 9721 H 911.281 -3.37904 1.57719 0
M  V30 9722 N 913.466 -1.22244 -0.994698 0
M  V30 9723 C 914.399 -0.934168 -2.08203 0
M  V30 9724 C 915.377 0.122231 -1.6214 0
M  V30 9725 O 916.561 -0.00896598 -1.88498 0
M  V30 9726 C 913.688 -0.404646 -3.36274 0
M  V30 9727 C 912.734 -1.44544 -4.01259 0
M  V30 9728 S 913.567 -3.01816 -4.42343 0
M  V30 9729 C 914.723 -2.50497 -5.73587 0
M  V30 9730 H 914.956 -1.85493 -2.32335 0
M  V30 9731 H 912.489 -1.0533 -1.12893 0
M  V30 9732 H 914.447 -0.105719 -4.10364 0
M  V30 9733 H 913.108 0.494971 -3.10176 0
M  V30 9734 H 912.301 -1.02478 -4.93472 0
M  V30 9735 H 911.903 -1.69298 -3.33488 0
M  V30 9736 H 914.195 -1.91626 -6.49835 0
M  V30 9737 H 915.138 -3.41193 -6.20478 0
M  V30 9738 H 915.546 -1.91845 -5.30901 0
M  V30 9739 N 914.944 1.19125 -1.03184 0
M  V30 9740 C 915.877 2.21229 -0.559739 0
M  V30 9741 C 916.855 1.57578 0.400998 0
M  V30 9742 O 918.039 1.85809 0.317399 0
M  V30 9743 C 915.166 3.38203 0.183442 0
M  V30 9744 C 914.212 4.2022 -0.729182 0
M  V30 9745 S 915.045 4.87903 -2.20706 0
M  V30 9746 C 916.201 6.08284 -1.47448 0
M  V30 9747 H 916.434 2.60932 -1.42484 0
M  V30 9748 H 913.967 1.29419 -0.842028 0
M  V30 9749 H 915.925 4.06001 0.606084 0
M  V30 9750 H 914.586 2.96929 1.02432 0
M  V30 9751 H 913.779 5.03761 -0.155272 0
M  V30 9752 H 913.381 3.57755 -1.09028 0
M  V30 9753 H 915.673 6.73193 -0.762687 0
M  V30 9754 H 916.616 6.70165 -2.28659 0
M  V30 9755 H 917.024 5.56092 -0.97068 0
M  V30 9756 N 916.422 0.810101 1.35185 0
M  V30 9757 C 917.67 0.391343 1.98275 0
M  V30 9758 C 917.991 -1.04592 1.64577 0
M  V30 9759 O 917.261 -1.72417 0.93001 0
M  V30 9760 H 915.841 0.141715 0.733434 0
M  V30 9761 H 918.503 1.03672 1.6504 0
M  V30 9762 H 917.599 0.49991 3.0807 0
M  V30 9763 N 917.9 -1.47166 0.563914 0
M  V30 9764 C 919.316 -1.58018 0.224173 0
M  V30 9765 C 919.516 -1.56163 -1.27339 0
M  V30 9766 O 918.572 -1.4686 -2.05398 0
M  V30 9767 C 919.885 -2.88236 0.856762 0
M  V30 9768 C 921.433 -3.01833 0.82861 0
M  V30 9769 C 921.908 -4.34761 1.44039 0
M  V30 9770 N 923.399 -4.41413 1.40388 0
M  V30 9771 C 924.134 -5.42845 1.84681 0
M  V30 9772 N 923.63 -6.51052 2.3686 0
M  V30 9773 N 925.423 -5.33931 1.75711 0
M  V30 9774 H 917.574 -1.46615 1.53681 0
M  V30 9775 H 919.837 -0.698195 0.64127 0
M  V30 9776 H 919.543 -2.95349 1.90949 0
M  V30 9777 H 919.417 -3.75537 0.353766 0
M  V30 9778 H 921.804 -2.94312 -0.215451 0
M  V30 9779 H 921.885 -2.16056 1.36943 0
M  V30 9780 H 921.529 -4.43037 2.48355 0
M  V30 9781 H 921.459 -5.1928 0.874953 0
M  V30 9782 H 923.95 -3.63811 1.02227 0
M  V30 9783 H 924.263 -7.24633 2.68564 0
M  V30 9784 H 922.608 -6.51924 2.40875 0
M  V30 9785 H 925.799 -4.48295 1.34718 0
M  V30 9786 H 925.972 -6.12841 2.10547 0
M  V30 9787 N 919.378 -0.300708 -1.54705 0
M  V30 9788 C 920.308 0.568675 -2.26469 0
M  V30 9789 C 921.289 1.13817 -1.26411 0
M  V30 9790 O 922.474 1.16756 -1.55183 0
M  V30 9791 C 919.604 1.74077 -3.00524 0
M  V30 9792 C 918.558 1.30165 -4.07727 0
M  V30 9793 C 917.884 2.55888 -4.69495 0
M  V30 9794 C 919.184 0.433106 -5.20501 0
M  V30 9795 H 920.878 -0.0298851 -2.99385 0
M  V30 9796 H 918.424 -0.0158135 -1.43991 0
M  V30 9797 H 920.377 2.35506 -3.49449 0
M  V30 9798 H 919.101 2.36556 -2.25186 0
M  V30 9799 H 917.76 0.710414 -3.59651 0
M  V30 9800 H 917.408 3.16681 -3.90797 0
M  V30 9801 H 917.108 2.27207 -5.41895 0
M  V30 9802 H 918.632 3.18121 -5.21183 0
M  V30 9803 H 920.046 0.95307 -5.65322 0
M  V30 9804 H 918.443 0.240085 -5.9962 0
M  V30 9805 H 919.513 -0.541866 -4.81863 0
M  V30 9806 N 920.856 1.57574 -0.0284266 0
M  V30 9807 C 922.104 1.91393 0.649079 0
M  V30 9808 C 922.425 0.905368 1.72708 0
M  V30 9809 O 921.695 -0.0532107 1.95828 0
M  V30 9810 H 920.275 0.70646 0.24274 0
M  V30 9811 H 922.937 1.94752 -0.076066 0
M  V30 9812 H 922.033 2.91988 1.10226 0
M  V30 9813 N 922.334 -0.244713 1.55689 0
M  V30 9814 C 923.281 -1.30301 1.905 0
M  V30 9815 C 924.251 -1.4772 0.759478 0
M  V30 9816 O 925.436 -1.61667 1.01333 0
M  V30 9817 C 922.576 -2.653 2.20703 0
M  V30 9818 C 921.689 -2.55872 3.48071 0
M  V30 9819 C 920.824 -3.83238 3.67834 0
M  V30 9820 C 919.863 -3.68436 4.88796 0
M  V30 9821 N 919 -4.877 5.05068 0
M  V30 9822 H 923.84 -0.999143 2.80751 0
M  V30 9823 H 921.377 -0.482099 1.38976 0
M  V30 9824 H 923.335 -3.43884 2.36219 0
M  V30 9825 H 921.965 -2.93831 1.33653 0
M  V30 9826 H 921.017 -1.68846 3.40874 0
M  V30 9827 H 922.329 -2.40845 4.36801 0
M  V30 9828 H 921.483 -4.70266 3.83321 0
M  V30 9829 H 920.222 -4.01165 2.77341 0
M  V30 9830 H 919.227 -2.79793 4.73282 0
M  V30 9831 H 920.452 -3.52003 5.8075 0
M  V30 9832 H 918.398 -5.05983 4.17513 0
M  V30 9833 H 918.315 -4.75312 5.8789 0
M  V30 9834 H 919.583 -5.76219 5.24969 0
M  V30 9835 N 923.813 -1.49104 -0.510467 0
M  V30 9836 C 925.059 -1.58346 -1.26705 0
M  V30 9837 C 925.392 -0.265121 -1.92382 0
M  V30 9838 O 924.667 0.730558 -1.80258 0
M  V30 9839 C 924.95 -2.7359 -2.34137 0
M  V30 9840 C 924.803 -4.1519 -1.73024 0
M  V30 9841 C 926.122 -2.84511 -3.3577 0
M  V30 9842 H 923.241 -0.57637 -0.459311 0
M  V30 9843 H 925.883 -1.81353 -0.566658 0
M  V30 9844 H 924.033 -2.54105 -2.93876 0
M  V30 9845 H 925.705 -4.46167 -1.17186 0
M  V30 9846 H 923.948 -4.21279 -1.03473 0
M  V30 9847 H 924.619 -4.91683 -2.50903 0
M  V30 9848 H 927.095 -3.0222 -2.86011 0
M  V30 9849 H 925.971 -3.6684 -4.08313 0
M  V30 9850 H 926.232 -1.93471 -3.97519 0
M  V30 9851 N 925.291 0.760815 -1.38019 0
M  V30 9852 C 926.201 1.90526 -1.36884 0
M  V30 9853 C 927.217 1.71941 -0.266908 0
M  V30 9854 O 928.393 1.94988 -0.50413 0
M  V30 9855 C 925.458 3.25799 -1.18558 0
M  V30 9856 C 924.519 3.56961 -2.3849 0
M  V30 9857 C 923.752 4.8578 -2.21029 0
M  V30 9858 O 923.975 5.57629 -1.20023 0
M  V30 9859 O 922.909 5.16254 -3.0946 0
M  V30 9860 H 926.735 1.94437 -2.33298 0
M  V30 9861 H 924.32 0.905091 -1.18863 0
M  V30 9862 H 926.202 4.0669 -1.1037 0
M  V30 9863 H 924.877 3.22716 -0.252241 0
M  V30 9864 H 923.784 2.7626 -2.52252 0
M  V30 9865 H 925.117 3.64798 -3.30429 0
M  V30 9866 N 926.769 1.22769 0.988202 0
M  V30 9867 C 927.716 1.00195 2.07917 0
M  V30 9868 C 928.686 -0.0779391 1.65917 0
M  V30 9869 O 929.871 0.0726005 1.90662 0
M  V30 9870 C 927.011 0.590853 3.40004 0
M  V30 9871 C 926.124 1.74202 3.9532 0
M  V30 9872 C 925.259 1.27846 5.15586 0
M  V30 9873 C 924.298 2.40087 5.63049 0
M  V30 9874 N 923.435 1.94744 6.74551 0
M  V30 9875 H 928.275 1.93581 2.26562 0
M  V30 9876 H 925.812 0.96448 1.11068 0
M  V30 9877 H 927.77 0.333653 4.15864 0
M  V30 9878 H 926.4 -0.306007 3.21346 0
M  V30 9879 H 925.452 2.11342 3.16289 0
M  V30 9880 H 926.764 2.58612 4.26522 0
M  V30 9881 H 925.918 0.978919 5.9875 0
M  V30 9882 H 924.657 0.404617 4.86019 0
M  V30 9883 H 923.662 2.70824 4.78471 0
M  V30 9884 H 924.887 3.27995 5.9464 0
M  V30 9885 H 922.833 1.09729 6.46758 0
M  V30 9886 H 922.75 2.72718 7.05096 0
M  V30 9887 H 924.018 1.67873 7.61209 0
M  V30 9888 N 928.247 -1.18576 1.03814 0
M  V30 9889 C 929.179 -2.21607 0.585055 0
M  V30 9890 C 930.192 -1.59125 -0.343963 0
M  V30 9891 O 931.381 -1.77959 -0.138882 0
M  V30 9892 C 928.481 -3.38495 -0.165602 0
M  V30 9893 C 927.654 -4.30557 0.770662 0
M  V30 9894 C 926.713 -5.26161 0.0637534 0
M  V30 9895 O 925.739 -5.64961 0.693359 0
M  V30 9896 N 926.941 -5.67882 -1.20377 0
M  V30 9897 H 929.706 -2.61104 1.47121 0
M  V30 9898 H 927.267 -1.33336 0.918316 0
M  V30 9899 H 929.259 -3.99474 -0.648292 0
M  V30 9900 H 927.829 -2.97711 -0.953268 0
M  V30 9901 H 927.049 -3.67221 1.43326 0
M  V30 9902 H 928.337 -4.88969 1.40667 0
M  V30 9903 H 927.735 -5.38409 -1.73586 0
M  V30 9904 H 926.292 -6.31069 -1.63079 0
M  V30 9905 N 929.725 -0.817259 -1.34754 0
M  V30 9906 C 930.971 -0.403244 -1.98751 0
M  V30 9907 C 931.304 1.02963 -1.64658 0
M  V30 9908 O 930.579 1.71617 -0.915314 0
M  V30 9909 C 930.862 -0.599188 -3.5508 0
M  V30 9910 C 930.715 -2.07777 -3.98934 0
M  V30 9911 C 932.034 -0.0315656 -4.40089 0
M  V30 9912 H 929.153 -0.147988 -0.721989 0
M  V30 9913 H 931.795 -1.02877 -1.59738 0
M  V30 9914 H 929.945 -0.0667116 -3.88443 0
M  V30 9915 H 931.617 -2.67345 -3.75931 0
M  V30 9916 H 929.86 -2.57031 -3.49453 0
M  V30 9917 H 930.531 -2.16571 -5.07741 0
M  V30 9918 H 933.007 -0.48644 -4.13247 0
M  V30 9919 H 931.883 -0.198507 -5.48541 0
M  V30 9920 H 932.144 1.06302 -4.2913 0
M  V30 9921 N 931.203 1.46865 -0.571711 0
M  V30 9922 C 932.133 2.3298 0.155795 0
M  V30 9923 C 933.114 1.44678 0.894553 0
M  V30 9924 O 934.299 1.73513 0.872176 0
M  V30 9925 C 931.429 3.26745 1.17708 0
M  V30 9926 C 930.383 4.24401 0.553863 0
M  V30 9927 C 929.709 5.07595 1.68083 0
M  V30 9928 C 931.009 5.19884 -0.501827 0
M  V30 9929 H 932.703 2.94056 -0.563176 0
M  V30 9930 H 930.249 1.41402 -0.27228 0
M  V30 9931 H 932.202 3.85838 1.6943 0
M  V30 9932 H 930.926 2.63753 1.92618 0
M  V30 9933 H 929.585 3.66554 0.057815 0
M  V30 9934 H 929.233 4.40996 2.41933 0
M  V30 9935 H 928.933 5.73722 1.26953 0
M  V30 9936 H 930.457 5.6955 2.20103 0
M  V30 9937 H 931.871 5.73257 -0.0701057 0
M  V30 9938 H 930.268 5.94293 -0.832815 0
M  V30 9939 H 931.338 4.64482 -1.39229 0
M  V30 9940 N 932.681 0.308908 1.54543 0
M  V30 9941 C 933.906 -0.303196 2.05172 0
M  V30 9942 C 934.331 -1.46133 1.18434 0
M  V30 9943 O 933.689 -1.803 0.190162 0
M  V30 9944 C 933.737 -0.729526 3.53143 0
M  V30 9945 O 932.841 -1.83348 3.69401 0
M  V30 9946 H 932.182 -0.0575066 0.661505 0
M  V30 9947 H 934.712 0.453055 1.99521 0
M  V30 9948 H 934.722 -1.01619 3.95143 0
M  V30 9949 H 933.397 0.117622 4.15734 0
M  V30 9950 H 931.974 -1.54676 3.39308 0
M  V30 9951 N 934.159 -1.57557 0.0367827 0
M  V30 9952 C 935.092 -2.06205 -0.977479 0
M  V30 9953 C 936.07 -0.959444 -1.31276 0
M  V30 9954 O 937.254 -1.23033 -1.42811 0
M  V30 9955 C 934.381 -2.49053 -2.29544 0
M  V30 9956 C 933.427 -3.70409 -2.11423 0
M  V30 9957 S 934.26 -5.16715 -1.40593 0
M  V30 9958 C 935.416 -5.62864 -2.73742 0
M  V30 9959 H 935.649 -2.91913 -0.5634 0
M  V30 9960 H 933.182 -1.53404 -0.175111 0
M  V30 9961 H 935.14 -2.74403 -3.05308 0
M  V30 9962 H 933.801 -1.63677 -2.68083 0
M  V30 9963 H 932.994 -3.98262 -3.08875 0
M  V30 9964 H 932.596 -3.4525 -1.438 0
M  V30 9965 H 934.888 -5.67571 -3.69958 0
M  V30 9966 H 935.831 -6.62294 -2.50544 0
M  V30 9967 H 936.239 -4.90539 -2.79341 0
M  V30 9968 N 935.637 0.236453 -1.55816 0
M  V30 9969 C 936.547 1.31418 -1.94336 0
M  V30 9970 C 937.563 1.52095 -0.845164 0
M  V30 9971 O 938.739 1.65515 -1.14746 0
M  V30 9972 C 935.804 2.6468 -2.23932 0
M  V30 9973 C 934.865 2.52435 -3.47239 0
M  V30 9974 C 934.098 3.79342 -3.75414 0
M  V30 9975 O 934.321 4.81694 -3.05495 0
M  V30 9976 O 933.255 3.77347 -4.68927 0
M  V30 9977 H 937.081 1.01739 -2.86152 0
M  V30 9978 H 934.666 0.438084 -1.42833 0
M  V30 9979 H 936.548 3.4341 -2.44228 0
M  V30 9980 H 935.223 2.94071 -1.35292 0
M  V30 9981 H 934.13 1.71955 -3.32238 0
M  V30 9982 H 935.463 2.27987 -4.36214 0
M  V30 9983 N 937.115 1.49373 0.502552 0
M  V30 9984 C 938.062 1.65927 1.60427 0
M  V30 9985 C 939.032 0.500768 1.58371 0
M  V30 9986 O 940.217 0.727606 1.76382 0
M  V30 9987 C 937.357 1.73043 2.9858 0
M  V30 9988 C 936.47 3.00187 3.10663 0
M  V30 9989 C 935.605 2.98292 4.3954 0
M  V30 9990 C 934.644 4.20022 4.4525 0
M  V30 9991 N 933.781 4.16046 5.65553 0
M  V30 9992 H 938.621 2.59998 1.45619 0
M  V30 9993 H 936.158 1.28912 0.708519 0
M  V30 9994 H 938.116 1.7515 3.78653 0
M  V30 9995 H 936.746 0.824397 3.12095 0
M  V30 9996 H 935.798 3.07699 2.23663 0
M  V30 9997 H 937.11 3.9018 3.10742 0
M  V30 9998 H 936.264 2.98953 5.27932 0
M  V30 9999 H 935.003 2.06075 4.42023 0
M  V30 10000 H 934.008 4.19607 3.5526 0
M  V30 10001 H 935.233 5.13431 4.44484 0
M  V30 10002 H 933.179 3.26665 5.68881 0
M  V30 10003 H 933.096 4.99773 5.67242 0
M  V30 10004 H 934.364 4.20807 6.56156 0
M  V30 10005 N 938.594 -0.753485 1.38421 0
M  V30 10006 C 939.541 -1.86723 1.35659 0
M  V30 10007 C 940.511 -1.64648 0.219121 0
M  V30 10008 O 941.696 -1.86313 0.411366 0
M  V30 10009 C 938.836 -3.24023 1.18758 0
M  V30 10010 C 937.949 -3.57928 2.41892 0
M  V30 10011 C 937.084 -4.84532 2.17721 0
M  V30 10012 C 936.123 -5.11224 3.36626 0
M  V30 10013 N 935.26 -6.29023 3.11889 0
M  V30 10014 H 940.1 -1.88419 2.30873 0
M  V30 10015 H 937.637 -0.920934 1.14705 0
M  V30 10016 H 939.595 -4.03252 1.06974 0
M  V30 10017 H 938.225 -3.21654 0.27182 0
M  V30 10018 H 937.277 -2.73541 2.64347 0
M  V30 10019 H 938.589 -3.73581 3.30513 0
M  V30 10020 H 937.743 -5.71704 2.03074 0
M  V30 10021 H 936.482 -4.71018 1.26465 0
M  V30 10022 H 935.487 -4.2252 3.51791 0
M  V30 10023 H 936.712 -5.26635 4.28757 0
M  V30 10024 H 934.658 -6.16832 2.2328 0
M  V30 10025 H 934.575 -6.45177 3.9406 0
M  V30 10026 H 935.843 -7.19083 3.00898 0
M  V30 10027 N 940.072 -1.23292 -0.981677 0
M  V30 10028 C 941.002 -1.03738 -2.09191 0
M  V30 10029 C 941.983 0.0453041 -1.7004 0
M  V30 10030 O 943.168 -0.119092 -1.93834 0
M  V30 10031 C 940.298 -0.626426 -3.41604 0
M  V30 10032 C 939.252 -1.65631 -3.94652 0
M  V30 10033 C 938.578 -1.10084 -5.23245 0
M  V30 10034 C 939.878 -3.04903 -4.24066 0
M  V30 10035 H 941.572 -1.966 -2.25807 0
M  V30 10036 H 939.118 -0.946656 -1.0851 0
M  V30 10037 H 941.071 -0.476689 -4.18695 0
M  V30 10038 H 939.795 0.337873 -3.24848 0
M  V30 10039 H 938.454 -1.79402 -3.19704 0
M  V30 10040 H 938.102 -0.127562 -5.02838 0
M  V30 10041 H 937.802 -1.78896 -5.59705 0
M  V30 10042 H 939.326 -0.962928 -6.02959 0
M  V30 10043 H 940.74 -2.94441 -4.91912 0
M  V30 10044 H 939.137 -3.70941 -4.71724 0
M  V30 10045 H 940.207 -3.53991 -3.31389 0
M  V30 10046 N 941.55 1.18024 -1.04442 0
M  V30 10047 C 942.827 1.8398 -0.664125 0
M  V30 10048 C 943.207 1.92961 0.856116 0
M  V30 10049 O 942.555 1.45839 1.75907 0
M  V30 10050 C 942.765 3.22069 -1.34433 0
M  V30 10051 C 944.113 3.98063 -1.47754 0
M  V30 10052 O 945.137 3.31523 -1.30274 0
M  V30 10053 O 943.996 5.17291 -1.76272 0
M  V30 10054 H 941.09 0.793543 -0.23285 0
M  V30 10055 H 943.636 1.25385 -1.14354 0
M  V30 10056 H 942.408 3.10458 -2.38184 0
M  V30 10057 H 942.031 3.88325 -0.853782 0
M  V30 10058 N 943.028 0.824394 1.34319 0
M  V30 10059 C 944.275 0.413167 1.9824 0
M  V30 10060 C 944.603 -1.02412 1.65354 0
M  V30 10061 O 943.858 -1.72831 0.91803 0
M  V30 10062 C 944.157 0.564024 3.52921 0
M  V30 10063 C 943.823 1.96725 4.05722 0
M  V30 10064 C 942.485 2.35111 4.19853 0
M  V30 10065 C 944.837 2.88447 4.34106 0
M  V30 10066 C 942.165 3.64551 4.59695 0
M  V30 10067 C 944.517 4.17353 4.75394 0
M  V30 10068 C 943.181 4.55714 4.8773 0
M  V30 10069 H 942.451 0.151188 0.725412 0
M  V30 10070 H 945.098 1.04863 1.60238 0
M  V30 10071 H 943.403 -0.154816 3.91494 0
M  V30 10072 H 945.1 0.226347 4.00361 0
M  V30 10073 H 941.69 1.65908 3.95187 0
M  V30 10074 H 945.874 2.60034 4.22725 0
M  V30 10075 H 941.13 3.94097 4.67437 0
M  V30 10076 H 945.304 4.88512 4.96315 0
M  V30 10077 H 942.931 5.56064 5.1836 0
M  V30 10078 N 944.506 -1.46559 0.579492 0
M  V30 10079 C 945.436 -2.33059 -0.143437 0
M  V30 10080 C 946.417 -1.4515 -0.886868 0
M  V30 10081 O 947.602 -1.73973 -0.862961 0
M  V30 10082 C 944.732 -3.27364 -1.15973 0
M  V30 10083 C 943.686 -4.24689 -0.531348 0
M  V30 10084 C 943.012 -5.08479 -1.65388 0
M  V30 10085 C 944.312 -5.1961 0.529391 0
M  V30 10086 H 946.006 -2.93753 0.578762 0
M  V30 10087 H 943.552 -1.41256 0.279775 0
M  V30 10088 H 945.505 -3.86732 -1.67382 0
M  V30 10089 H 944.229 -2.64771 -1.91217 0
M  V30 10090 H 942.888 -3.6658 -0.0383749 0
M  V30 10091 H 942.536 -4.42273 -2.3959 0
M  V30 10092 H 942.236 -5.74387 -1.23909 0
M  V30 10093 H 943.76 -5.70709 -2.17079 0
M  V30 10094 H 945.174 -5.73212 0.100506 0
M  V30 10095 H 943.571 -5.93843 0.86432 0
M  V30 10096 H 944.641 -4.63737 1.4169 0
M  V30 10097 N 945.984 -0.3171 -1.54377 0
M  V30 10098 C 947.23 0.287836 -2.00747 0
M  V30 10099 C 947.563 1.52292 -1.20502 0
M  V30 10100 O 946.838 1.92391 -0.285626 0
M  V30 10101 C 947.121 0.628423 -3.54574 0
M  V30 10102 C 946.974 -0.616922 -4.45549 0
M  V30 10103 C 948.293 1.44862 -4.15575 0
M  V30 10104 H 945.412 0.103144 -0.729747 0
M  V30 10105 H 948.054 -0.432396 -1.85014 0
M  V30 10106 H 946.204 1.24203 -3.68111 0
M  V30 10107 H 947.876 -1.25526 -4.43893 0
M  V30 10108 H 946.119 -1.24706 -4.15489 0
M  V30 10109 H 946.79 -0.334243 -5.50987 0
M  V30 10110 H 949.266 0.930015 -4.05574 0
M  V30 10111 H 948.142 1.6557 -5.23333 0
M  V30 10112 H 948.403 2.44279 -3.68484 0
M  V30 10113 N 947.462 1.57535 -0.0451378 0
M  V30 10114 C 948.41 2.12351 0.949205 0
M  V30 10115 C 949.404 1.05386 1.32628 0
M  V30 10116 O 950.61 1.23802 1.30664 0
M  V30 10117 H 946.985 0.678648 0.323945 0
M  V30 10118 H 948.956 2.94806 0.461718 0
M  V30 10119 C 947.705 2.67862 2.21687 0
M  V30 10120 H 947.028 3.49826 1.93551 0
M  V30 10121 H 948.468 3.09844 2.89435 0
M  V30 10122 C 946.927 1.61353 2.95748 0
M  V30 10123 O 947.457 1.02276 3.88462 0
M  V30 10124 N 945.663 1.33017 2.5837 0
M  V30 10125 H 945.21 1.81246 1.83051 0
M  V30 10126 H 945.168 0.619812 3.0823 0
M  V30 10127 N 948.94 -0.228186 1.55939 0
M  V30 10128 C 950.189 -0.951563 1.77843 0
M  V30 10129 C 950.502 -1.85763 0.612501 0
M  V30 10130 O 951.708 -2.61916 0.715006 0
M  V30 10131 C 950.164 -1.74216 3.14923 0
M  V30 10132 C 949.772 -0.882569 4.39221 0
M  V30 10133 C 951.516 -2.45715 3.46156 0
M  V30 10134 C 949.423 -1.67014 5.67327 0
M  V30 10135 H 948.353 -0.359035 0.663031 0
M  V30 10136 H 951.004 -0.205636 1.82344 0
M  V30 10137 H 949.386 -2.53075 3.0458 0
M  V30 10138 H 950.56 -0.13499 4.60602 0
M  V30 10139 H 948.875 -0.280022 4.15457 0
M  V30 10140 H 951.472 -3.05127 4.39092 0
M  V30 10141 H 951.815 -3.1827 2.68346 0
M  V30 10142 H 952.348 -1.73852 3.57799 0
M  V30 10143 H 949.087 -0.987985 6.48012 0
M  V30 10144 H 948.607 -2.3925 5.50018 0
M  V30 10145 H 950.286 -2.23252 6.07262 0
M  V30 10146 N 950.418 -1.49637 -0.494624 0
M  V30 10147 C 951.648 -1.62928 -1.27036 0
M  V30 10148 C 952.056 -0.302464 -1.86767 0
M  V30 10149 O 951.399 0.722878 -1.68879 0
M  V30 10150 C 951.461 -2.64449 -2.43531 0
M  V30 10151 C 951.125 -4.08632 -2.0462 0
M  V30 10152 C 952.122 -4.95238 -1.58225 0
M  V30 10153 C 949.807 -4.54405 -2.1406 0
M  V30 10154 C 951.801 -6.25658 -1.21782 0
M  V30 10155 C 949.488 -5.84836 -1.77228 0
M  V30 10156 C 950.486 -6.70287 -1.31165 0
M  V30 10157 O 950.174 -7.98287 -0.948339 0
M  V30 10158 H 949.906 -0.551263 -0.391261 0
M  V30 10159 H 952.46 -1.96453 -0.599621 0
M  V30 10160 H 950.69 -2.26117 -3.137 0
M  V30 10161 H 952.379 -2.67203 -3.05545 0
M  V30 10162 H 953.145 -4.611 -1.50373 0
M  V30 10163 H 949.024 -3.88056 -2.48865 0
M  V30 10164 H 952.568 -6.92309 -0.857566 0
M  V30 10165 H 948.465 -6.18502 -1.84732 0
M  V30 10166 H 949.233 -8.11353 -1.07925 0
M  V30 10167 N 951.896 0.746133 -1.38819 0
M  V30 10168 C 952.829 1.86833 -1.31029 0
M  V30 10169 C 953.807 1.61533 -0.185948 0
M  V30 10170 O 954.991 1.84942 -0.364529 0
M  V30 10171 C 952.118 3.22596 -1.03198 0
M  V30 10172 C 951.164 3.66772 -2.17671 0
M  V30 10173 S 951.997 3.77438 -3.7987 0
M  V30 10174 C 953.153 5.16008 -3.54241 0
M  V30 10175 H 953.386 1.93155 -2.26005 0
M  V30 10176 H 950.919 0.909872 -1.24742 0
M  V30 10177 H 952.877 4.00995 -0.878237 0
M  V30 10178 H 951.538 3.13943 -0.0992704 0
M  V30 10179 H 950.731 4.65266 -1.93762 0
M  V30 10180 H 950.333 2.95547 -2.2919 0
M  V30 10181 H 952.625 6.01996 -3.10816 0
M  V30 10182 H 953.568 5.44941 -4.52156 0
M  V30 10183 H 953.976 4.85158 -2.88587 0
M  V30 10184 N 953.375 1.23811 0.975125 0
M  V30 10185 C 954.307 0.981779 2.07108 0
M  V30 10186 C 955.32 -0.0461211 1.62735 0
M  V30 10187 O 956.509 0.190039 1.77486 0
M  V30 10188 C 953.609 0.458364 3.35786 0
M  V30 10189 C 952.782 1.54767 4.09104 0
M  V30 10190 C 951.841 1.0282 5.16057 0
M  V30 10191 O 950.867 1.71831 5.42644 0
M  V30 10192 N 952.069 -0.141243 5.80328 0
M  V30 10193 H 954.834 1.92537 2.29673 0
M  V30 10194 H 952.395 1.1474 1.14221 0
M  V30 10195 H 954.387 0.0957686 4.04587 0
M  V30 10196 H 952.957 -0.390768 3.10148 0
M  V30 10197 H 952.177 2.08279 3.34684 0
M  V30 10198 H 953.465 2.28006 4.54853 0
M  V30 10199 H 952.863 -0.718382 5.6112 0
M  V30 10200 H 951.42 -0.445052 6.50279 0
M  V30 10201 N 954.853 -1.17469 1.05066 0
M  V30 10202 C 956.269 -1.39699 0.771769 0
M  V30 10203 C 956.469 -1.91253 -0.634382 0
M  V30 10204 O 955.525 -2.10334 -1.39699 0
M  V30 10205 C 956.838 -2.38886 1.82631 0
M  V30 10206 C 958.386 -2.52595 1.84838 0
M  V30 10207 C 958.861 -3.55054 2.89311 0
M  V30 10208 N 960.352 -3.6257 2.88266 0
M  V30 10209 C 961.087 -4.41603 3.65752 0
M  V30 10210 N 960.583 -5.24162 4.53019 0
M  V30 10211 N 962.376 -4.36464 3.54197 0
M  V30 10212 H 954.527 -0.823355 1.95792 0
M  V30 10213 H 956.79 -0.42432 0.847736 0
M  V30 10214 H 956.496 -2.08075 2.83545 0
M  V30 10215 H 956.37 -3.38371 1.66687 0
M  V30 10216 H 958.757 -2.82717 0.845888 0
M  V30 10217 H 958.838 -1.53188 2.04859 0
M  V30 10218 H 958.482 -3.2567 3.89745 0
M  V30 10219 H 958.412 -4.54162 2.66542 0
M  V30 10220 H 960.903 -3.03625 2.24989 0
M  V30 10221 H 961.216 -5.81646 5.0883 0
M  V30 10222 H 959.561 -5.23547 4.57081 0
M  V30 10223 H 962.752 -3.7102 2.85416 0
M  V30 10224 H 962.925 -4.97814 4.14832 0
M  V30 10225 N 956.331 -0.831506 -1.3388 0
M  V30 10226 C 957.264 -0.2046 -2.27281 0
M  V30 10227 C 958.242 0.643992 -1.49303 0
M  V30 10228 O 959.426 0.605863 -1.78498 0
M  V30 10229 C 956.553 0.713409 -3.31101 0
M  V30 10230 C 955.599 -0.0587654 -4.2646 0
M  V30 10231 S 956.432 -1.41172 -5.16557 0
M  V30 10232 C 957.588 -0.498807 -6.23909 0
M  V30 10233 H 957.821 -0.996442 -2.80104 0
M  V30 10234 H 955.354 -0.62786 -1.41058 0
M  V30 10235 H 957.312 1.23748 -3.91403 0
M  V30 10236 H 955.973 1.47885 -2.77108 0
M  V30 10237 H 955.166 0.639466 -4.99927 0
M  V30 10238 H 954.768 -0.513665 -3.70456 0
M  V30 10239 H 957.06 0.306268 -6.76807 0
M  V30 10240 H 958.003 -1.20342 -6.97799 0
M  V30 10241 H 958.411 -0.0834242 -5.64438 0
M  V30 10242 N 957.809 1.4625 -0.587256 0
M  V30 10243 C 959.057 2.01963 -0.0744273 0
M  V30 10244 C 959.378 1.46065 1.29189 0
M  V30 10245 O 958.648 0.647077 1.84905 0
M  V30 10246 H 957.228 0.746597 -0.0245236 0
M  V30 10247 H 959.89 1.79299 -0.764063 0
M  V30 10248 H 958.986 3.12099 -0.00884894 0
M  V30 10249 N 959.287 0.325282 1.54207 0
M  V30 10250 C 960.536 -0.27768 1.99779 0
M  V30 10251 C 960.849 -1.5311 1.21723 0
M  V30 10252 O 962.055 -2.21017 1.57682 0
M  V30 10253 C 960.511 -0.545329 3.55745 0
M  V30 10254 C 960.119 0.691143 4.42637 0
M  V30 10255 C 961.863 -1.10815 4.09781 0
M  V30 10256 C 959.77 0.395302 5.90077 0
M  V30 10257 H 958.7 -0.107536 0.746292 0
M  V30 10258 H 961.351 0.437773 1.78202 0
M  V30 10259 H 959.733 -1.32101 3.73317 0
M  V30 10260 H 960.907 1.46653 4.3684 0
M  V30 10261 H 959.222 1.1743 3.99499 0
M  V30 10262 H 961.819 -1.34414 5.1753 0
M  V30 10263 H 962.162 -2.05806 3.6187 0
M  V30 10264 H 962.695 -0.393608 3.95848 0
M  V30 10265 H 959.434 1.31443 6.42186 0
M  V30 10266 H 958.954 -0.34235 5.98822 0
M  V30 10267 H 960.633 0.00576877 6.47 0
M  V30 10268 N 960.765 -1.57509 0.0534917 0
M  V30 10269 C 962.176 -1.80374 -0.481867 0
M  V30 10270 C 962.527 -0.965917 -1.70776 0
M  V30 10271 O 961.652 -0.183167 -2.15623 0
M  V30 10272 C 962.247 -3.27146 -0.880978 0
M  V30 10273 C 960.806 -3.50921 -1.3613 0
M  V30 10274 C 959.953 -2.75237 -0.337611 0
M  V30 10275 H 962.904 -1.56222 0.279353 0
M  V30 10276 H 962.925 -3.38193 -1.74373 0
M  V30 10277 H 962.437 -3.88098 0.011441 0
M  V30 10278 H 960.538 -2.95251 -2.27283 0
M  V30 10279 H 960.651 -4.59632 -1.35186 0
M  V30 10280 H 959.015 -2.41444 -0.810991 0
M  V30 10281 H 959.798 -3.38918 0.546763 0
M  V30 10282 N 962.243 0.219913 -1.56058 0
M  V30 10283 C 963.654 0.786766 -1.69313 0
M  V30 10284 C 964.005 1.84916 -0.655782 0
M  V30 10285 O 963.13 2.1554 0.192772 0
M  V30 10286 C 963.725 1.43387 -3.06962 0
M  V30 10287 C 962.284 1.94809 -3.22066 0
M  V30 10288 C 961.431 0.808863 -2.65241 0
M  V30 10289 H 964.382 -0.00476777 -1.58699 0
M  V30 10290 H 964.403 2.30272 -3.02911 0
M  V30 10291 H 963.915 0.660405 -3.8244 0
M  V30 10292 H 962.016 2.74952 -2.5146 0
M  V30 10293 H 962.129 2.12694 -4.293 0
M  V30 10294 H 960.493 1.21661 -2.23765 0
M  V30 10295 H 961.276 0.0480458 -3.43266 0
M  V30 10296 N 963.721 1.49897 0.486681 0
M  V30 10297 C 964.949 1.63837 1.26353 0
M  V30 10298 C 965.364 0.315428 1.86146 0
M  V30 10299 O 964.721 -0.700831 1.68507 0
M  V30 10300 C 964.772 2.71792 2.38351 0
M  V30 10301 O 964.493 3.98956 1.81013 0
M  V30 10302 C 965.994 2.96566 3.2949 0
M  V30 10303 H 963.214 0.551158 0.382709 0
M  V30 10304 H 965.758 1.96023 0.582694 0
M  V30 10305 H 963.913 2.42344 3.02238 0
M  V30 10306 H 964.327 4.58536 2.54647 0
M  V30 10307 H 965.801 3.75803 4.04322 0
M  V30 10308 H 966.278 2.07031 3.87343 0
M  V30 10309 H 966.884 3.27485 2.71355 0
M  V30 10310 N 965.199 -0.738761 1.39212 0
M  V30 10311 C 966.109 -1.88324 1.39897 0
M  V30 10312 C 967.125 -1.71494 0.294229 0
M  V30 10313 O 968.301 -1.94162 0.535087 0
M  V30 10314 C 965.366 -3.23871 1.23726 0
M  V30 10315 C 964.427 -3.53121 2.44139 0
M  V30 10316 C 963.66 -4.82202 2.2873 0
M  V30 10317 O 963.883 -5.55649 1.28879 0
M  V30 10318 O 962.817 -5.11265 3.17634 0
M  V30 10319 H 966.643 -1.90701 2.36362 0
M  V30 10320 H 964.228 -0.886067 1.20288 0
M  V30 10321 H 966.11 -4.04882 1.16826 0
M  V30 10322 H 964.785 -3.22274 0.303551 0
M  V30 10323 H 963.692 -2.72212 2.56615 0
M  V30 10324 H 965.025 -3.59495 3.36191 0
M  V30 10325 N 966.677 -1.24326 -0.968545 0
M  V30 10326 C 967.905 -1.10947 -1.74638 0
M  V30 10327 C 968.32 0.338064 -1.85749 0
M  V30 10328 O 967.677 1.23331 -1.3452 0
M  V30 10329 C 967.728 -1.74254 -3.1673 0
M  V30 10330 O 967.449 -3.13347 -3.06178 0
M  V30 10331 C 968.95 -1.66473 -4.10855 0
M  V30 10332 H 966.17 -0.38767 -0.547679 0
M  V30 10333 H 968.714 -1.64415 -1.21605 0
M  V30 10334 H 966.869 -1.2479 -3.66751 0
M  V30 10335 H 967.283 -3.44255 -3.95713 0
M  V30 10336 H 968.757 -2.15452 -5.08217 0
M  V30 10337 H 969.234 -0.625785 -4.34719 0
M  V30 10338 H 969.84 -2.15359 -3.66743 0
M  V30 10339 N 968.156 1.1691 -1.05688 0
M  V30 10340 C 969.066 2.24735 -0.67315 0
M  V30 10341 C 970.082 1.71252 0.308043 0
M  V30 10342 O 971.258 2.00772 0.158889 0
M  V30 10343 C 968.323 3.4665 -0.059026 0
M  V30 10344 C 967.384 4.15198 -1.0913 0
M  V30 10345 C 966.617 5.31292 -0.50639 0
M  V30 10346 O 966.84 5.663 0.682692 0
M  V30 10347 O 965.774 5.88923 -1.2431 0
M  V30 10348 H 969.6 2.59855 -1.57191 0
M  V30 10349 H 967.185 1.24306 -0.828751 0
M  V30 10350 H 969.067 4.20455 0.282018 0
M  V30 10351 H 967.742 3.13316 0.813304 0
M  V30 10352 H 966.649 3.43389 -1.48442 0
M  V30 10353 H 967.982 4.52571 -1.93495 0
M  V30 10354 N 969.634 0.838594 1.33437 0
M  V30 10355 C 970.597 0.276843 2.27522 0
M  V30 10356 C 971.597 -0.554275 1.50945 0
M  V30 10357 O 972.787 -0.368107 1.70266 0
M  V30 10358 C 969.919 -0.610036 3.35397 0
M  V30 10359 H 971.112 1.10705 2.78719 0
M  V30 10360 H 968.665 0.611657 1.43835 0
M  V30 10361 H 969.4 -1.46269 2.89441 0
M  V30 10362 H 969.185 -0.0153615 3.92097 0
M  V30 10363 H 970.675 -0.996368 4.05539 0
M  V30 10364 N 971.112 -1.45937 0.595003 0
M  V30 10365 C 972.342 -2.06399 0.0911607 0
M  V30 10366 C 972.75 -1.44236 -1.22444 0
M  V30 10367 O 972.093 -0.546265 -1.7539 0
M  V30 10368 C 972.155 -3.59242 -0.136079 0
M  V30 10369 C 971.819 -4.43668 1.09579 0
M  V30 10370 C 972.816 -4.79437 2.01088 0
M  V30 10371 C 970.501 -4.84616 1.32109 0
M  V30 10372 C 972.495 -5.54995 3.13464 0
M  V30 10373 C 970.182 -5.5993 2.44788 0
M  V30 10374 C 971.18 -5.95035 3.35294 0
M  V30 10375 O 970.868 -6.68825 4.46014 0
M  V30 10376 H 970.6 -0.673316 0.0601779 0
M  V30 10377 H 973.154 -1.88365 0.819005 0
M  V30 10378 H 971.384 -3.75629 -0.918676 0
M  V30 10379 H 973.073 -4.0159 -0.589954 0
M  V30 10380 H 973.839 -4.48371 1.84902 0
M  V30 10381 H 969.718 -4.56735 0.625662 0
M  V30 10382 H 973.262 -5.82314 3.84131 0
M  V30 10383 H 969.159 -5.90411 2.60931 0
M  V30 10384 H 969.927 -6.87262 4.44537 0
M  V30 10385 N 972.59 -0.333456 -1.54032 0
M  V30 10386 C 973.837 0.266133 -2.00744 0
M  V30 10387 C 974.165 1.51361 -1.22148 0
M  V30 10388 O 973.42 1.93473 -0.294368 0
M  V30 10389 C 973.719 0.63565 -3.51702 0
M  V30 10390 C 973.385 -0.513786 -4.47963 0
M  V30 10391 C 972.047 -0.829253 -4.74001 0
M  V30 10392 C 974.399 -1.2854 -5.05101 0
M  V30 10393 C 971.727 -1.91888 -5.54433 0
M  V30 10394 C 974.079 -2.3652 -5.86721 0
M  V30 10395 C 972.743 -2.68637 -6.11057 0
M  V30 10396 H 972.013 0.097385 -0.734573 0
M  V30 10397 H 974.66 -0.459282 -1.85911 0
M  V30 10398 H 972.965 1.44163 -3.64313 0
M  V30 10399 H 974.662 1.11129 -3.85294 0
M  V30 10400 H 971.252 -0.25784 -4.27824 0
M  V30 10401 H 975.436 -1.05494 -4.84958 0
M  V30 10402 H 970.692 -2.17208 -5.71516 0
M  V30 10403 H 974.866 -2.96747 -6.30011 0
M  V30 10404 H 972.493 -3.53197 -6.73169 0
M  V30 10405 N 974.068 1.57479 -0.061844 0
M  V30 10406 C 975.316 1.92727 0.608336 0
M  V30 10407 C 975.637 0.941799 1.70749 0
M  V30 10408 O 974.907 -0.0116608 1.95897 0
M  V30 10409 H 973.487 0.71145 0.2277 0
M  V30 10410 H 976.149 1.94546 -0.117359 0
M  V30 10411 H 975.245 2.9426 1.04007 0
M  V30 10412 N 975.546 -0.211634 1.56173 0
M  V30 10413 C 976.509 -1.24588 1.92381 0
M  V30 10414 C 977.509 -1.39297 0.803311 0
M  V30 10415 O 978.699 -1.37392 1.07094 0
M  V30 10416 C 975.831 -2.61807 2.18335 0
M  V30 10417 H 977.024 -0.936814 2.84893 0
M  V30 10418 H 974.577 -0.452471 1.49607 0
M  V30 10419 H 975.312 -2.97795 1.28407 0
M  V30 10420 H 975.097 -2.52506 2.99972 0
M  V30 10421 H 976.587 -3.3642 2.4741 0
M  V30 10422 N 977.024 -1.50153 -0.478725 0
M  V30 10423 C 977.971 -1.68458 -1.57767 0
M  V30 10424 C 978.941 -0.5259 -1.57555 0
M  V30 10425 O 980.126 -0.755574 -1.75202 0
M  V30 10426 C 977.266 -1.77772 -2.95789 0
M  V30 10427 C 976.379 -3.05092 -3.05848 0
M  V30 10428 C 975.514 -3.05247 -4.34739 0
M  V30 10429 C 974.553 -4.27053 -4.38512 0
M  V30 10430 N 973.69 -4.24991 -5.58862 0
M  V30 10431 H 978.53 -2.62282 -1.41464 0
M  V30 10432 H 976.067 -1.30023 -0.687921 0
M  V30 10433 H 978.025 -1.81152 -3.75819 0
M  V30 10434 H 976.655 -0.873944 -3.10744 0
M  V30 10435 H 975.707 -3.11219 -2.1874 0
M  V30 10436 H 977.019 -3.95075 -3.04495 0
M  V30 10437 H 976.173 -3.07314 -5.23109 0
M  V30 10438 H 974.912 -2.13081 -4.38689 0
M  V30 10439 H 973.917 -4.25206 -3.4854 0
M  V30 10440 H 975.142 -5.20437 -4.36259 0
M  V30 10441 H 973.088 -3.35674 -5.63612 0
M  V30 10442 H 973.005 -5.08734 -5.59219 0
M  V30 10443 H 974.273 -4.31193 -6.49379 0
M  V30 10444 N 978.502 0.731368 -1.39602 0
M  V30 10445 C 979.412 1.87579 -1.40894 0
M  V30 10446 C 980.428 1.71336 -0.303319 0
M  V30 10447 O 981.604 1.93875 -0.545377 0
M  V30 10448 C 978.669 3.23211 -1.25442 0
M  V30 10449 C 977.73 3.51822 -2.46008 0
M  V30 10450 C 976.963 4.80982 -2.31284 0
M  V30 10451 O 977.186 5.54958 -1.31824 0
M  V30 10452 O 976.12 5.09574 -3.20341 0
M  V30 10453 H 979.946 1.89444 -2.3737 0
M  V30 10454 H 977.531 0.879675 -1.20756 0
M  V30 10455 H 979.413 4.04257 -1.18972 0
M  V30 10456 H 978.088 3.22108 -0.320637 0
M  V30 10457 H 976.995 2.70847 -2.58055 0
M  V30 10458 H 978.328 3.57707 -3.38093 0
M  V30 10459 N 979.98 1.24838 0.961938 0
M  V30 10460 C 981.391 1.08369 1.5203 0
M  V30 10461 C 981.742 -0.343005 1.93178 0
M  V30 10462 O 980.867 -1.2321 1.779 0
M  V30 10463 C 981.462 1.96102 2.76278 0
M  V30 10464 C 980.021 1.8384 3.28451 0
M  V30 10465 C 979.168 1.9069 2.01327 0
M  V30 10466 H 982.119 1.38231 0.779613 0
M  V30 10467 H 982.14 1.4967 3.49827 0
M  V30 10468 H 981.652 2.99931 2.46298 0
M  V30 10469 H 979.753 0.828653 3.63269 0
M  V30 10470 H 979.866 2.68251 3.96961 0
M  V30 10471 H 978.23 1.34488 2.16299 0
M  V30 10472 H 979.013 2.96111 1.73705 0
M  V30 10473 N 981.458 -1.16348 1.06306 0
M  V30 10474 C 982.368 -2.24375 0.685059 0
M  V30 10475 C 983.384 -1.71413 -0.298956 0
M  V30 10476 O 984.56 -2.00854 -0.148239 0
M  V30 10477 C 981.625 -3.46614 0.0774088 0
M  V30 10478 C 980.686 -4.14613 1.11331 0
M  V30 10479 C 979.919 -5.31016 0.534559 0
M  V30 10480 O 980.142 -5.66654 -0.65265 0
M  V30 10481 O 979.076 -5.88256 1.27431 0
M  V30 10482 H 982.902 -2.59018 1.58566 0
M  V30 10483 H 980.487 -1.23865 0.835332 0
M  V30 10484 H 982.369 -4.20599 -0.259716 0
M  V30 10485 H 981.044 -3.13743 -0.796677 0
M  V30 10486 H 979.951 -3.42597 1.50261 0
M  V30 10487 H 981.284 -4.51538 1.95893 0
M  V30 10488 N 982.937 -0.845659 -1.3299 0
M  V30 10489 C 984.348 -0.50048 -1.79867 0
M  V30 10490 C 984.699 0.981027 -1.69913 0
M  V30 10491 O 983.824 1.76477 -1.25239 0
M  V30 10492 C 984.419 -0.901679 -3.26581 0
M  V30 10493 C 982.978 -0.608536 -3.71448 0
M  V30 10494 C 982.125 -1.10632 -2.54275 0
M  V30 10495 H 985.076 -1.03372 -1.20416 0
M  V30 10496 H 985.097 -0.214433 -3.79895 0
M  V30 10497 H 984.609 -1.97998 -3.33794 0
M  V30 10498 H 982.71 0.459416 -3.69757 0
M  V30 10499 H 982.823 -1.16853 -4.64631 0
M  V30 10500 H 981.187 -0.526925 -2.4919 0
M  V30 10501 H 981.97 -2.19154 -2.64247 0
M  V30 10502 N 984.415 1.45619 -0.602734 0
M  V30 10503 C 985.378 2.28941 0.108962 0
M  V30 10504 C 986.378 1.39501 0.799762 0
M  V30 10505 O 987.568 1.61673 0.648663 0
M  V30 10506 C 984.7 3.204 1.16432 0
M  V30 10507 H 985.893 2.93346 -0.623534 0
M  V30 10508 H 983.446 1.52061 -0.361565 0
M  V30 10509 H 984.181 2.60785 1.92774 0
M  V30 10510 H 983.966 3.86277 0.673248 0
M  V30 10511 H 985.456 3.83063 1.6629 0
M  V30 10512 N 985.893 0.34162 1.53853 0
M  V30 10513 C 987.304 -0.14269 1.86154 0
M  V30 10514 C 987.655 -1.50151 1.2629 0
M  V30 10515 O 986.78 -2.08601 0.575735 0
M  V30 10516 C 987.375 -0.265691 3.37757 0
M  V30 10517 C 985.934 -0.694231 3.69942 0
M  V30 10518 C 985.081 0.173195 2.76759 0
M  V30 10519 H 988.032 0.561284 1.48443 0
M  V30 10520 H 988.053 -1.09352 3.64448 0
M  V30 10521 H 987.565 0.723424 3.81298 0
M  V30 10522 H 985.666 -1.69244 3.31945 0
M  V30 10523 H 985.779 -0.485461 4.76634 0
M  V30 10524 H 984.143 -0.35416 2.52226 0
M  V30 10525 H 984.926 1.15941 3.23129 0
M  V30 10526 N 987.371 -1.57444 0.0701946 0
M  V30 10527 C 988.782 -1.80875 -0.462709 0
M  V30 10528 C 989.133 -0.983975 -1.69742 0
M  V30 10529 O 988.258 -0.206027 -2.15417 0
M  V30 10530 C 988.853 -3.28062 -0.84623 0
M  V30 10531 C 987.412 -3.52345 -1.32401 0
M  V30 10532 C 986.559 -2.7558 -0.308399 0
M  V30 10533 H 989.51 -1.55917 0.295907 0
M  V30 10534 H 989.531 -3.40023 -1.70776 0
M  V30 10535 H 989.043 -3.88064 0.0526033 0
M  V30 10536 H 987.144 -2.97645 -2.24139 0
M  V30 10537 H 987.257 -4.6104 -1.30304 0
M  V30 10538 H 985.621 -2.4229 -0.785337 0
M  V30 10539 H 986.404 -3.38319 0.582679 0
M  V30 10540 N 988.849 0.203349 -1.56283 0
M  V30 10541 C 990.079 0.940061 -1.83974 0
M  V30 10542 C 990.487 1.77703 -0.649486 0
M  V30 10543 O 989.83 1.79487 0.391189 0
M  V30 10544 C 989.892 1.89249 -3.05655 0
M  V30 10545 C 989.556 1.23828 -4.39904 0
M  V30 10546 C 990.553 0.619231 -5.16199 0
M  V30 10547 C 988.238 1.2446 -4.86636 0
M  V30 10548 C 990.232 0.0152287 -6.37398 0
M  V30 10549 C 987.919 0.636764 -6.07773 0
M  V30 10550 C 988.917 0.0231481 -6.82996 0
M  V30 10551 O 988.605 -0.575187 -8.0184 0
M  V30 10552 H 988.337 0.280199 -0.615194 0
M  V30 10553 H 990.891 0.218111 -2.04239 0
M  V30 10554 H 989.121 2.65392 -2.81254 0
M  V30 10555 H 990.81 2.4963 -3.20062 0
M  V30 10556 H 991.576 0.606545 -4.81192 0
M  V30 10557 H 987.455 1.71161 -4.28048 0
M  V30 10558 H 990.999 -0.464333 -6.96053 0
M  V30 10559 H 986.896 0.646924 -6.4225 0
M  V30 10560 H 987.664 -0.471284 -8.17142 0
M  V30 10561 N 990.327 1.50405 0.470755 0
M  V30 10562 C 991.277 1.65681 1.56633 0
M  V30 10563 C 992.261 0.511424 1.52556 0
M  V30 10564 O 993.453 0.765844 1.59574 0
M  V30 10565 C 990.582 1.7546 2.95074 0
M  V30 10566 C 989.668 2.95676 3.04034 0
M  V30 10567 N 990.059 4.1935 2.82807 0
M  V30 10568 C 988.357 2.94241 3.35169 0
M  V30 10569 C 989.058 5.0032 2.96741 0
M  V30 10570 N 988.034 4.34282 3.26956 0
M  V30 10571 H 991.836 2.58994 1.38922 0
M  V30 10572 H 989.35 1.47593 0.67749 0
M  V30 10573 H 991.347 1.84508 3.73848 0
M  V30 10574 H 990.007 0.833057 3.13832 0
M  V30 10575 H 991.018 4.48842 2.58382 0
M  V30 10576 H 987.695 2.11587 3.59913 0
M  V30 10577 H 989.085 6.08664 2.84566 0
M  V30 10578 N 991.805 -0.723954 1.39988 0
M  V30 10579 C 993.03 -1.5182 1.41299 0
M  V30 10580 C 993.455 -1.88096 0.0122636 0
M  V30 10581 O 992.813 -1.52687 -0.977559 0
M  V30 10582 C 992.861 -2.77532 2.30235 0
M  V30 10583 O 991.965 -3.73903 1.73984 0
M  V30 10584 H 991.306 -0.458058 0.480707 0
M  V30 10585 H 993.836 -0.892291 1.84118 0
M  V30 10586 H 993.846 -3.2615 2.45132 0
M  V30 10587 H 992.521 -2.50462 3.32026 0
M  V30 10588 H 991.098 -3.32715 1.68389 0
M  V30 10589 N 993.283 -1.25346 -0.955304 0
M  V30 10590 C 994.694 -1.09173 -1.51453 0
M  V30 10591 C 995.045 0.332755 -1.93358 0
M  V30 10592 O 994.17 1.22264 -1.78551 0
M  V30 10593 C 994.765 -1.97564 -2.75234 0
M  V30 10594 C 993.324 -1.85579 -3.27471 0
M  V30 10595 C 992.471 -1.91755 -2.00313 0
M  V30 10596 H 995.422 -1.38642 -0.772271 0
M  V30 10597 H 995.443 -1.51523 -3.49029 0
M  V30 10598 H 994.955 -3.01233 -2.44704 0
M  V30 10599 H 993.056 -0.847906 -3.62824 0
M  V30 10600 H 993.169 -2.70353 -3.95533 0
M  V30 10601 H 991.533 -1.35633 -2.15582 0
M  V30 10602 H 992.316 -2.97028 -1.72132 0
M  V30 10603 N 994.761 1.15782 -1.06922 0
M  V30 10604 C 995.671 2.24008 -0.696948 0
M  V30 10605 C 996.687 1.71569 0.289862 0
M  V30 10606 O 997.863 2.00929 0.137585 0
M  V30 10607 C 994.928 3.46568 -0.0957895 0
M  V30 10608 C 993.989 4.14017 -1.13528 0
M  V30 10609 C 993.222 5.30725 -0.562713 0
M  V30 10610 O 993.445 5.66992 0.62259 0
M  V30 10611 O 992.379 5.87572 -1.30549 0
M  V30 10612 H 996.205 2.58174 -1.59938 0
M  V30 10613 H 993.79 1.2342 -0.841889 0
M  V30 10614 H 995.672 4.20731 0.237407 0
M  V30 10615 H 994.347 3.14161 0.780027 0
M  V30 10616 H 993.254 3.41795 -1.52076 0
M  V30 10617 H 994.587 4.50493 -1.98285 0
M  V30 10618 N 996.239 0.8527 1.3254 0
M  V30 10619 C 997.516 0.376491 1.91942 0
M  V30 10620 C 997.896 -1.13972 1.7769 0
M  V30 10621 O 997.244 -1.96047 1.17379 0
M  V30 10622 C 997.454 0.838694 3.38773 0
M  V30 10623 C 998.802 0.854736 4.15908 0
M  V30 10624 O 999.826 0.783203 3.47483 0
M  V30 10625 O 998.685 0.955207 5.38087 0
M  V30 10626 H 995.779 0.109412 0.81973 0
M  V30 10627 H 998.325 0.93947 1.41322 0
M  V30 10628 H 997.097 1.88179 3.43081 0
M  V30 10629 H 996.72 0.253055 3.96794 0
M  V30 10630 N 997.718 -1.45297 0.610449 0
M  V30 10631 C 998.943 -2.07101 0.111414 0
M  V30 10632 C 999.368 -1.45161 -1.19625 0
M  V30 10633 O 998.726 -0.545368 -1.72903 0
M  V30 10634 C 998.774 -3.60598 -0.0117372 0
M  V30 10635 O 997.878 -3.98512 -1.06122 0
M  V30 10636 H 997.219 -0.659709 0.075364 0
M  V30 10637 H 999.749 -1.86504 0.841269 0
M  V30 10638 H 999.759 -4.07464 -0.209028 0
M  V30 10639 H 998.434 -4.05067 0.943076 0
M  V30 10640 H 997.011 -3.63312 -0.840158 0
M  V30 10641 N 999.196 -0.349774 -1.5367 0
M  V30 10642 C 1000.61 0.00191293 -1.596 0
M  V30 10643 C 1000.81 1.48175 -1.36552 0
M  V30 10644 O 999.868 2.24129 -1.16285 0
M  V30 10645 C 1001.18 -0.439848 -2.97466 0
M  V30 10646 C 1002.73 -0.392721 -3.10526 0
M  V30 10647 C 1003.2 -0.810047 -4.5078 0
M  V30 10648 N 1004.69 -0.764478 -4.56848 0
M  V30 10649 C 1005.43 -1.05927 -5.63531 0
M  V30 10650 N 1004.93 -1.42253 -6.78038 0
M  V30 10651 N 1006.72 -0.983098 -5.53436 0
M  V30 10652 H 998.87 -1.31364 -1.66905 0
M  V30 10653 H 1001.13 -0.535908 -0.781989 0
M  V30 10654 H 1000.84 -1.47189 -3.19419 0
M  V30 10655 H 1000.71 0.181735 -3.76762 0
M  V30 10656 H 1003.1 0.630161 -2.88293 0
M  V30 10657 H 1003.18 -1.04959 -2.33275 0
M  V30 10658 H 1002.82 -1.83097 -4.73749 0
M  V30 10659 H 1002.75 -0.130591 -5.26438 0
M  V30 10660 H 1005.25 -0.496637 -3.74622 0
M  V30 10661 H 1005.56 -1.63215 -7.55368 0
M  V30 10662 H 1003.9 -1.46104 -6.79469 0
M  V30 10663 H 1007.09 -0.698601 -4.62858 0
M  V30 10664 H 1007.27 -1.21618 -6.36485 0
M  V30 10665 N 1000.67 1.57404 -0.0785433 0
M  V30 10666 C 1001.58 2.16612 0.900902 0
M  V30 10667 C 1002.6 1.13109 1.32221 0
M  V30 10668 O 1003.78 1.45406 1.39352 0
M  V30 10669 C 1000.84 2.7215 2.14791 0
M  V30 10670 C 999.902 3.90551 1.78237 0
M  V30 10671 C 999.135 4.43431 2.96993 0
M  V30 10672 O 999.358 3.95292 4.11218 0
M  V30 10673 O 998.292 5.34674 2.76418 0
M  V30 10674 H 1002.12 3.0068 0.427227 0
M  V30 10675 H 999.703 1.48696 0.144902 0
M  V30 10676 H 1001.58 3.07718 2.87902 0
M  V30 10677 H 1000.26 1.91139 2.61243 0
M  V30 10678 H 999.167 3.59825 1.02357 0
M  V30 10679 H 1000.5 4.72876 1.36562 0
M  V30 10680 N 1002.15 -0.195058 1.56388 0
M  V30 10681 C 1003.1 -1.24584 1.90952 0
M  V30 10682 C 1004.09 -1.40993 0.77522 0
M  V30 10683 O 1005.28 -1.43363 1.03808 0
M  V30 10684 C 1002.41 -2.59064 2.25258 0
M  V30 10685 C 1001.49 -2.46447 3.45145 0
M  V30 10686 N 1001.88 -2.0351 4.63052 0
M  V30 10687 C 1000.18 -2.77339 3.49283 0
M  V30 10688 C 1000.88 -2.02785 5.45209 0
M  V30 10689 N 999.859 -2.4429 4.85616 0
M  V30 10690 H 1003.66 -0.9052 2.79613 0
M  V30 10691 H 1001.17 -0.403493 1.57308 0
M  V30 10692 H 1003.17 -3.34963 2.48205 0
M  V30 10693 H 1001.83 -2.93951 1.37924 0
M  V30 10694 H 1002.84 -1.74219 4.87717 0
M  V30 10695 H 999.52 -3.16423 2.72365 0
M  V30 10696 H 1000.91 -1.71489 6.49647 0
M  V30 10697 N 1003.63 -1.50653 -0.462772 0
M  V30 10698 C 1004.88 -1.62297 -1.21603 0
M  V30 10699 C 1005.21 -0.326191 -1.91441 0
M  V30 10700 O 1004.48 0.67284 -1.82491 0
M  V30 10701 C 1004.77 -2.80901 -2.25315 0
M  V30 10702 C 1004.62 -4.20484 -1.59728 0
M  V30 10703 C 1005.94 -2.95049 -3.26549 0
M  V30 10704 H 1003.06 -0.590691 -0.440741 0
M  V30 10705 H 1005.7 -1.83064 -0.508675 0
M  V30 10706 H 1003.85 -2.63325 -2.85643 0
M  V30 10707 H 1005.52 -4.49669 -1.02932 0
M  V30 10708 H 1003.76 -4.24357 -0.900181 0
M  V30 10709 H 1004.44 -4.99416 -2.35133 0
M  V30 10710 H 1006.91 -3.11166 -2.76251 0
M  V30 10711 H 1005.79 -3.79645 -3.96435 0
M  V30 10712 H 1006.05 -2.06019 -3.91163 0
M  V30 10713 N 1005.11 0.71652 -1.4037 0
M  V30 10714 C 1006.39 1.46947 -1.29097 0
M  V30 10715 C 1006.77 2.10903 0.0911182 0
M  V30 10716 O 1006.11 2.00068 1.10385 0
M  V30 10717 C 1006.32 2.50594 -2.42907 0
M  V30 10718 C 1007.67 3.16451 -2.83097 0
M  V30 10719 O 1008.7 2.60913 -2.42493 0
M  V30 10720 O 1007.55 4.16991 -3.53244 0
M  V30 10721 H 1004.65 0.653413 -0.506932 0
M  V30 10722 H 1007.19 0.748774 -1.52287 0
M  V30 10723 H 1005.97 2.01843 -3.35224 0
M  V30 10724 H 1005.59 3.302 -2.21481 0
M  V30 10725 N 1006.59 1.25851 0.948643 0
M  V30 10726 C 1008 1.02802 1.22081 0
M  V30 10727 C 1008.2 -0.251461 1.99925 0
M  V30 10728 O 1007.26 -0.962592 2.33432 0
M  V30 10729 C 1008.57 2.25489 1.98936 0
M  V30 10730 C 1010.12 2.30312 2.11956 0
M  V30 10731 C 1010.59 3.52671 2.92211 0
M  V30 10732 N 1012.09 3.53103 2.99787 0
M  V30 10733 C 1012.82 4.44445 3.62294 0
M  V30 10734 N 1012.32 5.46065 4.26362 0
M  V30 10735 N 1014.11 4.32113 3.59493 0
M  V30 10736 H 1006.26 2.08042 0.428044 0
M  V30 10737 H 1008.52 0.913928 0.251872 0
M  V30 10738 H 1008.23 3.18513 1.4914 0
M  V30 10739 H 1008.1 2.2914 2.99624 0
M  V30 10740 H 1010.49 1.37808 2.60946 0
M  V30 10741 H 1010.57 2.30676 1.10554 0
M  V30 10742 H 1010.22 4.45501 2.43909 0
M  V30 10743 H 1010.15 3.49554 3.93853 0
M  V30 10744 H 1012.64 2.79597 2.54232 0
M  V30 10745 H 1012.95 6.11964 4.71932 0
M  V30 10746 H 1011.29 5.49931 4.24972 0
M  V30 10747 H 1014.49 3.51946 3.08629 0
M  V30 10748 H 1014.66 5.03493 4.0792 0
M  V30 10749 N 1008.06 -1.15214 1.07534 0
M  V30 10750 C 1009.01 -2.18022 0.667108 0
M  V30 10751 C 1010 -1.57911 -0.308714 0
M  V30 10752 O 1011.19 -1.76578 -0.122147 0
M  V30 10753 C 1008.32 -3.43232 0.0684348 0
M  V30 10754 C 1007.41 -4.10393 1.06951 0
M  V30 10755 N 1007.8 -4.53013 2.24973 0
M  V30 10756 C 1006.09 -4.36758 0.903262 0
M  V30 10757 C 1006.8 -5.05118 2.88498 0
M  V30 10758 N 1005.77 -4.98777 2.16153 0
M  V30 10759 H 1009.57 -2.48706 1.56597 0
M  V30 10760 H 1007.09 -1.31801 0.948796 0
M  V30 10761 H 1009.08 -4.16197 -0.241934 0
M  V30 10762 H 1007.74 -3.14031 -0.825525 0
M  V30 10763 H 1008.76 -4.4634 2.6268 0
M  V30 10764 H 1005.43 -4.17453 0.0623543 0
M  V30 10765 H 1006.82 -5.48039 3.8872 0
M  V30 10766 N 1009.54 -0.859717 -1.32086 0
M  V30 10767 C 1010.79 -0.464662 -1.96686 0
M  V30 10768 C 1011.11 0.98412 -1.68345 0
M  V30 10769 O 1010.38 1.68847 -0.993361 0
M  V30 10770 H 1008.96 -0.168838 -0.727669 0
M  V30 10771 H 1011.62 -1.09726 -1.61079 0
M  V30 10772 H 1010.72 -0.613904 -3.06003 0
M  V30 10773 N 1011.02 1.44971 -0.618145 0
M  V30 10774 C 1012.26 2.04044 -0.120625 0
M  V30 10775 C 1012.62 1.47472 1.22947 0
M  V30 10776 O 1013.83 1.97965 1.81834 0
M  V30 10777 C 1012.1 3.57279 -0.0930863 0
M  V30 10778 S 1013.66 4.37468 0.341705 0
M  V30 10779 H 1010.47 0.708891 -0.0547272 0
M  V30 10780 H 1013.08 1.77535 -0.818621 0
M  V30 10781 H 1011.78 3.95961 -1.07903 0
M  V30 10782 H 1011.31 3.88378 0.62657 0
M  V30 10783 H 1013.33 4.70073 1.58888 0
M  V30 10784 N 1012.5 0.357919 1.53482 0
M  V30 10785 C 1013.75 -0.235241 2.00324 0
M  V30 10786 C 1014.06 -1.50494 1.24944 0
M  V30 10787 O 1015.27 -2.17623 1.62335 0
M  V30 10788 C 1013.72 -0.469748 3.56821 0
M  V30 10789 C 1013.33 0.784877 4.41071 0
M  V30 10790 C 1015.07 -1.02098 4.12039 0
M  V30 10791 C 1012.98 0.520377 5.89106 0
M  V30 10792 H 1011.91 -0.0916816 0.748405 0
M  V30 10793 H 1014.56 0.475474 1.77233 0
M  V30 10794 H 1012.94 -1.24153 3.76035 0
M  V30 10795 H 1014.12 1.55886 4.33631 0
M  V30 10796 H 1012.43 1.25878 3.96918 0
M  V30 10797 H 1015.03 -1.23406 5.20264 0
M  V30 10798 H 1015.37 -1.98084 3.66154 0
M  V30 10799 H 1015.91 -0.309554 3.96594 0
M  V30 10800 H 1012.65 1.45035 6.39254 0
M  V30 10801 H 1012.17 -0.215254 5.99414 0
M  V30 10802 H 1013.84 0.143006 6.46842 0
M  V30 10803 N 1013.98 -1.5736 0.0868897 0
M  V30 10804 C 1015.22 -1.94341 -0.579598 0
M  V30 10805 C 1015.56 -0.968238 -1.68341 0
M  V30 10806 O 1014.83 8.29649e-05 -1.945 0
M  V30 10807 C 1015.11 -3.41497 -1.14245 0
M  V30 10808 C 1014.97 -4.49778 -0.044255 0
M  V30 10809 C 1016.29 -3.89788 -2.04336 0
M  V30 10810 H 1013.4 -0.70668 -0.20922 0
M  V30 10811 H 1016.05 -1.89359 0.15593 0
M  V30 10812 H 1014.2 -3.45873 -1.76929 0
M  V30 10813 H 1015.87 -4.57517 0.58959 0
M  V30 10814 H 1014.11 -4.293 0.623207 0
M  V30 10815 H 1014.78 -5.4992 -0.478749 0
M  V30 10816 H 1017.26 -3.87513 -1.51569 0
M  V30 10817 H 1016.13 -4.93335 -2.40648 0
M  V30 10818 H 1016.4 -3.28603 -2.95757 0
M  V30 10819 N 1015.45 0.186762 -1.56489 0
M  V30 10820 C 1016.4 1.23141 -1.95205 0
M  V30 10821 C 1017.37 1.44799 -0.81378 0
M  V30 10822 O 1018.56 1.57795 -1.07263 0
M  V30 10823 C 1015.7 2.56926 -2.30397 0
M  V30 10824 C 1014.81 2.42777 -3.57328 0
M  V30 10825 C 1013.94 3.69323 -3.81804 0
M  V30 10826 C 1012.98 3.50041 -5.02133 0
M  V30 10827 N 1012.12 4.68619 -5.2282 0
M  V30 10828 H 1016.96 0.894256 -2.84266 0
M  V30 10829 H 1014.5 0.430187 -1.40669 0
M  V30 10830 H 1016.46 3.3488 -2.4882 0
M  V30 10831 H 1015.09 2.88668 -1.44466 0
M  V30 10832 H 1014.14 1.56078 -3.46906 0
M  V30 10833 H 1015.45 2.24468 -4.45439 0
M  V30 10834 H 1014.6 4.55715 -4.00511 0
M  V30 10835 H 1013.34 3.90595 -2.92039 0
M  V30 10836 H 1012.35 2.62034 -4.8334 0
M  V30 10837 H 1013.57 3.30206 -5.93414 0
M  V30 10838 H 1011.52 4.90139 -4.36005 0
M  V30 10839 H 1011.44 4.53165 -6.05126 0
M  V30 10840 H 1012.7 5.56338 -5.45993 0
M  V30 10841 N 1016.93 1.50896 0.454776 0
M  V30 10842 C 1018.18 1.61936 1.20248 0
M  V30 10843 C 1018.49 0.332983 1.92745 0
M  V30 10844 O 1019.7 0.322512 2.69578 0
M  V30 10845 C 1018.16 2.85916 2.18587 0
M  V30 10846 C 1017.76 4.21492 1.51818 0
M  V30 10847 C 1019.51 3.06307 2.93898 0
M  V30 10848 C 1017.42 5.3664 2.48539 0
M  V30 10849 H 1016.35 0.603098 0.452536 0
M  V30 10850 H 1019 1.77345 0.471257 0
M  V30 10851 H 1017.38 2.64101 2.95071 0
M  V30 10852 H 1018.55 4.53623 0.810123 0
M  V30 10853 H 1016.87 4.06837 0.887265 0
M  V30 10854 H 1019.46 3.89507 3.66317 0
M  V30 10855 H 1019.81 2.18683 3.54236 0
M  V30 10856 H 1020.34 3.2838 2.24525 0
M  V30 10857 H 1017.08 6.26469 1.92916 0
M  V30 10858 H 1016.6 5.08907 3.17449 0
M  V30 10859 H 1018.28 5.67881 3.10033 0
M  V30 10860 N 1018.41 -0.709066 1.40748 0
M  V30 10861 C 1019.66 -1.47119 1.39585 0
M  V30 10862 C 1019.99 -1.942 0.000245323 0
M  V30 10863 O 1019.26 -1.68609 -0.969593 0
M  V30 10864 C 1019.55 -2.69266 2.39099 0
M  V30 10865 C 1019.4 -2.28037 3.8771 0
M  V30 10866 C 1020.72 -3.71438 2.36055 0
M  V30 10867 H 1017.84 -0.533632 0.508336 0
M  V30 10868 H 1020.48 -0.808718 1.7193 0
M  V30 10869 H 1018.63 -3.25788 2.11647 0
M  V30 10870 H 1020.3 -1.76946 4.26014 0
M  V30 10871 H 1018.55 -1.59966 4.03229 0
M  V30 10872 H 1019.22 -3.15621 4.52866 0
M  V30 10873 H 1021.69 -3.24559 2.60385 0
M  V30 10874 H 1020.57 -4.54532 3.07721 0
M  V30 10875 H 1020.83 -4.20193 1.37443 0
M  V30 10876 N 1019.89 -1.26353 -0.941956 0
M  V30 10877 C 1021.31 -1.03448 -1.21534 0
M  V30 10878 C 1021.51 0.240855 -2.00055 0
M  V30 10879 O 1020.56 0.950199 -2.33939 0
M  V30 10880 C 1021.87 -2.2654 -1.97737 0
M  V30 10881 C 1023.42 -2.31433 -2.10731 0
M  V30 10882 C 1023.9 -3.54216 -2.90336 0
M  V30 10883 N 1025.39 -3.54688 -2.9791 0
M  V30 10884 C 1026.12 -4.4636 -3.59931 0
M  V30 10885 N 1025.62 -5.48319 -4.2346 0
M  V30 10886 N 1027.41 -4.34013 -3.57196 0
M  V30 10887 H 1019.56 -2.08266 -0.417005 0
M  V30 10888 H 1021.83 -0.915251 -0.247021 0
M  V30 10889 H 1021.53 -3.19299 -1.47449 0
M  V30 10890 H 1021.41 -2.30726 -2.98405 0
M  V30 10891 H 1023.79 -1.3919 -2.60212 0
M  V30 10892 H 1023.87 -2.31259 -1.09329 0
M  V30 10893 H 1023.52 -4.46788 -2.41543 0
M  V30 10894 H 1023.45 -3.51637 -3.91993 0
M  V30 10895 H 1025.94 -2.80942 -2.52745 0
M  V30 10896 H 1026.25 -6.14458 -4.6868 0
M  V30 10897 H 1024.6 -5.52177 -4.22049 0
M  V30 10898 H 1027.79 -3.53578 -3.06758 0
M  V30 10899 H 1027.96 -5.0565 -4.05244 0
M  V30 10900 N 1021.37 1.14642 -1.08144 0
M  V30 10901 C 1022.59 1.90025 -0.830972 0
M  V30 10902 C 1023.02 1.77904 0.610879 0
M  V30 10903 O 1022.38 1.11735 1.42776 0
M  V30 10904 C 1022.42 3.38085 -1.25422 0
M  V30 10905 O 1021.53 4.10412 -0.404486 0
M  V30 10906 H 1020.87 0.591327 -0.302041 0
M  V30 10907 H 1023.4 1.4513 -1.44216 0
M  V30 10908 H 1023.41 3.88894 -1.23391 0
M  V30 10909 H 1022.08 3.46226 -2.30435 0
M  V30 10910 H 1020.66 3.69693 -0.487987 0
M  V30 10911 N 1022.85 0.866709 1.31628 0
M  V30 10912 C 1024.07 0.48956 2.01539 0
M  V30 10913 C 1024.5 -0.909556 1.64647 0
M  V30 10914 O 1023.85 -1.59959 0.853391 0
M  V30 10915 C 1023.9 0.650176 3.5469 0
M  V30 10916 O 1023.01 -0.311908 4.11219 0
M  V30 10917 H 1022.35 0.195144 0.634677 0
M  V30 10918 H 1024.88 1.16923 1.679 0
M  V30 10919 H 1024.89 0.542236 4.04381 0
M  V30 10920 H 1023.56 1.67038 3.80882 0
M  V30 10921 H 1022.14 -0.159197 3.7256 0
M  V30 10922 N 1024.32 -1.44642 0.625825 0
M  V30 10923 C 1025.55 -2.06971 0.133373 0
M  V30 10924 C 1025.97 -1.46421 -1.18078 0
M  V30 10925 O 1025.33 -0.563676 -1.72315 0
M  V30 10926 C 1025.38 -3.6059 0.0265097 0
M  V30 10927 O 1024.48 -3.99615 -1.01889 0
M  V30 10928 H 1023.82 -0.658873 0.0823568 0
M  V30 10929 H 1026.35 -1.85601 0.861002 0
M  V30 10930 H 1026.36 -4.07663 -0.1658 0
M  V30 10931 H 1025.04 -4.04043 0.985986 0
M  V30 10932 H 1023.62 -3.64183 -0.801577 0
M  V30 10933 N 1025.8 -0.366053 -1.5329 0
M  V30 10934 C 1027.03 0.226839 -2.06156 0
M  V30 10935 C 1027.45 1.41637 -1.23776 0
M  V30 10936 O 1026.81 1.7947 -0.256948 0
M  V30 10937 C 1026.86 0.597956 -3.55608 0
M  V30 10938 O 1025.96 1.69512 -3.75951 0
M  V30 10939 H 1025.3 0.0329156 -0.663184 0
M  V30 10940 H 1027.83 -0.526793 -1.97702 0
M  V30 10941 H 1027.84 0.868831 -3.98642 0
M  V30 10942 H 1026.52 -0.271838 -4.15011 0
M  V30 10943 H 1025.09 1.41976 -3.44815 0
M  V30 10944 N 1027.28 1.57312 -0.0952337 0
M  V30 10945 C 1028.51 1.98697 0.57682 0
M  V30 10946 C 1028.92 0.974347 1.61716 0
M  V30 10947 O 1028.28 -0.036022 1.82464 0
M  V30 10948 C 1028.33 3.40133 1.2244 0
M  V30 10949 O 1028.05 4.37518 0.225678 0
M  V30 10950 C 1029.55 3.96522 1.98205 0
M  V30 10951 H 1026.77 0.65294 0.154629 0
M  V30 10952 H 1029.32 2.03754 -0.174562 0
M  V30 10953 H 1027.47 3.3609 1.92671 0
M  V30 10954 H 1027.89 5.199 0.693116 0
M  V30 10955 H 1029.36 4.97637 2.38875 0
M  V30 10956 H 1029.84 3.34347 2.84796 0
M  V30 10957 H 1030.44 4.04038 1.3279 0
M  V30 10958 N 1028.76 -0.17846 1.56586 0
M  V30 10959 C 1030.01 -0.894464 1.81228 0
M  V30 10960 C 1030.33 -1.83089 0.671062 0
M  V30 10961 O 1029.6 -1.93439 -0.309557 0
M  V30 10962 H 1028.18 -0.333288 0.668527 0
M  V30 10963 H 1030.84 -0.179986 1.94067 0
M  V30 10964 H 1029.93 -1.47565 2.75011 0
M  V30 10965 N 1030.24 -1.51135 -0.446768 0
M  V30 10966 C 1031.17 -1.67949 -1.55967 0
M  V30 10967 C 1032.18 -0.560337 -1.52853 0
M  V30 10968 O 1033.37 -0.83435 -1.578 0
M  V30 10969 C 1030.47 -1.6703 -2.9488 0
M  V30 10970 C 1029.64 -2.95377 -3.22601 0
M  V30 10971 C 1028.7 -2.86772 -4.4119 0
M  V30 10972 O 1027.73 -3.60722 -4.40304 0
M  V30 10973 N 1028.93 -2.01979 -5.44228 0
M  V30 10974 H 1031.69 -2.63951 -1.41951 0
M  V30 10975 H 1029.26 -1.48903 -0.635569 0
M  V30 10976 H 1031.25 -1.58854 -3.7222 0
M  V30 10977 H 1029.82 -0.786623 -3.02541 0
M  V30 10978 H 1029.04 -3.17494 -2.33647 0
M  V30 10979 H 1030.33 -3.80356 -3.37945 0
M  V30 10980 H 1029.72 -1.41257 -5.4778 0
M  V30 10981 H 1028.28 -1.99689 -6.20457 0
M  V30 10982 N 1031.71 0.701592 -1.41122 0
M  V30 10983 C 1032.66 1.81559 -1.42495 0
M  V30 10984 C 1033.63 1.63722 -0.280078 0
M  V30 10985 O 1034.82 1.84658 -0.480231 0
M  V30 10986 C 1031.96 3.19392 -1.30702 0
M  V30 10987 C 1031.07 3.48704 -2.55009 0
M  V30 10988 C 1030.2 4.76118 -2.35554 0
M  V30 10989 C 1029.24 4.98378 -3.55367 0
M  V30 10990 N 1028.38 6.17014 -3.3502 0
M  V30 10991 H 1033.22 1.7972 -2.37707 0
M  V30 10992 H 1030.76 0.877727 -1.18044 0
M  V30 10993 H 1032.71 3.99004 -1.21867 0
M  V30 10994 H 1031.34 3.20423 -0.391012 0
M  V30 10995 H 1030.4 2.63542 -2.74317 0
M  V30 10996 H 1031.71 3.61057 -3.44151 0
M  V30 10997 H 1030.86 5.63774 -2.24152 0
M  V30 10998 H 1029.6 4.66 -1.43859 0
M  V30 10999 H 1028.61 4.09172 -3.6723 0
M  V30 11000 H 1029.83 5.10359 -4.48007 0
M  V30 11001 H 1027.78 6.0812 -2.4602 0
M  V30 11002 H 1027.69 6.30107 -4.17733 0
M  V30 11003 H 1028.96 7.0742 -3.27379 0
M  V30 11004 N 1033.19 1.2685 0.935242 0
M  V30 11005 C 1034.14 1.08746 2.05614 0
M  V30 11006 C 1035.13 0.012681 1.69395 0
M  V30 11007 O 1036.34 0.169822 1.79197 0
M  V30 11008 H 1032.71 0.33485 0.673335 0
M  V30 11009 H 1034.69 2.03725 2.18033 0
M  V30 11010 C 1033.43 0.74346 3.39659 0
M  V30 11011 H 1032.76 1.56236 3.68008 0
M  V30 11012 H 1034.2 0.656607 4.18885 0
M  V30 11013 C 1032.66 -0.551751 3.32351 0
M  V30 11014 O 1033.19 -1.58836 3.68963 0
M  V30 11015 N 1031.39 -0.544583 2.85452 0
M  V30 11016 H 1030.94 0.29939 2.55854 0
M  V30 11017 H 1030.9 -1.41129 2.80945 0
M  V30 11018 N 1034.67 -1.14067 1.0875 0
M  V30 11019 C 1035.92 -1.85185 0.819317 0
M  V30 11020 C 1036.25 -1.8314 -0.654969 0
M  V30 11021 O 1035.5 -1.25974 -1.49763 0
M  V30 11022 C 1035.8 -3.33273 1.29089 0
M  V30 11023 C 1035.47 -3.55504 2.77359 0
M  V30 11024 C 1034.13 -3.61279 3.17853 0
M  V30 11025 C 1036.48 -3.64041 3.72992 0
M  V30 11026 C 1033.81 -3.73119 4.52768 0
M  V30 11027 C 1036.16 -3.77407 5.07687 0
M  V30 11028 C 1034.82 -3.81433 5.47782 0
M  V30 11029 H 1034.09 -0.67764 0.299809 0
M  V30 11030 H 1036.74 -1.34713 1.36106 0
M  V30 11031 H 1035.05 -3.86049 0.668811 0
M  V30 11032 H 1036.74 -3.86734 1.06009 0
M  V30 11033 H 1033.33 -3.51659 2.45019 0
M  V30 11034 H 1037.52 -3.58866 3.42825 0
M  V30 11035 H 1032.77 -3.74499 4.83281 0
M  V30 11036 H 1036.95 -3.82956 5.81651 0
M  V30 11037 H 1034.57 -3.9036 6.52321 0
M  V30 11038 N 1036.15 -0.873678 -1.31166 0
M  V30 11039 C 1037.37 -0.500242 -2.01277 0
M  V30 11040 C 1037.8 0.900811 -1.65127 0
M  V30 11041 O 1037.16 1.59504 -0.861862 0
M  V30 11042 C 1037.2 -0.668976 -3.5434 0
M  V30 11043 O 1036.31 0.290096 -4.11378 0
M  V30 11044 H 1035.65 -0.198507 -0.633633 0
M  V30 11045 H 1038.18 -1.17811 -1.67277 0
M  V30 11046 H 1038.19 -0.563673 -4.04088 0
M  V30 11047 H 1036.86 -1.69055 -3.79991 0
M  V30 11048 H 1035.44 0.139437 -3.72639 0
M  V30 11049 N 1037.63 1.44308 -0.633487 0
M  V30 11050 C 1038.59 2.2912 0.060376 0
M  V30 11051 C 1039.59 1.41166 0.769992 0
M  V30 11052 O 1040.78 1.63012 0.614224 0
M  V30 11053 C 1037.91 3.22798 1.0961 0
M  V30 11054 H 1039.1 2.91958 -0.685617 0
M  V30 11055 H 1036.66 1.51259 -0.393738 0
M  V30 11056 H 1037.39 2.64815 1.87199 0
M  V30 11057 H 1037.18 3.87618 0.591161 0
M  V30 11058 H 1038.67 3.86504 1.58127 0
M  V30 11059 N 1039.1 0.374177 1.53094 0
M  V30 11060 C 1040.52 -0.103172 1.86415 0
M  V30 11061 C 1040.87 -1.47439 1.29446 0
M  V30 11062 O 1039.99 -2.07333 0.619853 0
M  V30 11063 C 1040.59 -0.193988 3.38244 0
M  V30 11064 C 1039.15 -0.615605 3.71332 0
M  V30 11065 C 1038.29 0.23186 2.76329 0
M  V30 11066 H 1041.24 0.592644 1.47219 0
M  V30 11067 H 1041.26 -1.01597 3.66686 0
M  V30 11068 H 1040.78 0.80414 3.79678 0
M  V30 11069 H 1038.88 -1.62165 3.3546 0
M  V30 11070 H 1038.99 -0.38425 4.77557 0
M  V30 11071 H 1037.35 -0.300579 2.5292 0
M  V30 11072 H 1038.14 1.22769 3.20597 0
M  V30 11073 N 1040.58 -1.57259 0.103575 0
M  V30 11074 C 1041.99 -1.81816 -0.424239 0
M  V30 11075 C 1042.34 -1.01976 -1.67617 0
M  V30 11076 O 1041.47 -0.251673 -2.14932 0
M  V30 11077 C 1042.06 -3.29783 -0.776453 0
M  V30 11078 C 1040.62 -3.55074 -1.24897 0
M  V30 11079 C 1039.77 -2.76172 -0.249875 0
M  V30 11080 H 1042.72 -1.55254 0.328913 0
M  V30 11081 H 1042.74 -3.43569 -1.63526 0
M  V30 11082 H 1042.25 -3.87865 0.134906 0
M  V30 11083 H 1040.36 -3.02332 -2.17775 0
M  V30 11084 H 1040.47 -4.637 -1.20495 0
M  V30 11085 H 1038.83 -2.43902 -0.733767 0
M  V30 11086 H 1039.62 -3.37007 0.65431 0
M  V30 11087 N 1042.06 0.170153 -1.56679 0
M  V30 11088 C 1043.02 1.19443 -1.95617 0
M  V30 11089 C 1044.02 1.37118 -0.83996 0
M  V30 11090 O 1045.21 1.34504 -1.10699 0
M  V30 11091 C 1042.35 2.55926 -2.25199 0
M  V30 11092 H 1043.54 0.86095 -2.87276 0
M  V30 11093 H 1041.09 0.412646 -1.50755 0
M  V30 11094 H 1041.83 2.94286 -1.36257 0
M  V30 11095 H 1041.61 2.44464 -3.06562 0
M  V30 11096 H 1043.1 3.29742 -2.56242 0
M  V30 11097 N 1043.54 1.5137 0.438746 0
M  V30 11098 C 1044.5 1.71993 1.51496 0
M  V30 11099 C 1045.5 0.589978 1.49586 0
M  V30 11100 O 1046.69 0.857505 1.51633 0
M  V30 11101 C 1043.82 1.77508 2.91039 0
M  V30 11102 H 1045.02 2.68041 1.34514 0
M  V30 11103 H 1042.57 1.41338 0.667326 0
M  V30 11104 H 1043.3 0.832698 3.13427 0
M  V30 11105 H 1043.09 2.59627 2.9383 0
M  V30 11106 H 1044.58 1.95308 3.69113 0
M  V30 11107 N 1045.02 -0.694098 1.41492 0
M  V30 11108 C 1046.43 -1.27407 1.36471 0
M  V30 11109 C 1046.78 -1.9614 0.0485209 0
M  V30 11110 O 1045.9 -1.98871 -0.853188 0
M  V30 11111 C 1046.5 -2.31698 2.47188 0
M  V30 11112 C 1045.06 -2.85268 2.45559 0
M  V30 11113 C 1044.2 -1.59325 2.2696 0
M  V30 11114 H 1047.16 -0.488756 1.50986 0
M  V30 11115 H 1047.18 -3.1302 2.1633 0
M  V30 11116 H 1046.69 -1.81644 3.42968 0
M  V30 11117 H 1044.79 -3.39494 1.5354 0
M  V30 11118 H 1044.9 -3.35598 3.41922 0
M  V30 11119 H 1043.27 -1.85188 1.74864 0
M  V30 11120 H 1044.05 -1.11265 3.24769 0
M  V30 11121 N 1046.49 -1.27344 -0.928501 0
M  V30 11122 C 1047.91 -1.12361 -1.49103 0
M  V30 11123 C 1048.26 0.291667 -1.9402 0
M  V30 11124 O 1047.38 1.18449 -1.81104 0
M  V30 11125 C 1047.98 -2.03358 -2.70981 0
M  V30 11126 C 1046.54 -1.92483 -3.23461 0
M  V30 11127 C 1045.68 -1.95961 -1.962 0
M  V30 11128 H 1048.63 -1.40249 -0.742689 0
M  V30 11129 H 1048.65 -1.58892 -3.45736 0
M  V30 11130 H 1048.17 -3.06356 -2.38259 0
M  V30 11131 H 1046.27 -0.924676 -3.60944 0
M  V30 11132 H 1046.38 -2.78682 -3.89709 0
M  V30 11133 H 1044.74 -1.40175 -2.12657 0
M  V30 11134 H 1045.53 -3.00612 -1.65793 0
M  V30 11135 N 1047.97 1.13488 -1.09353 0
M  V30 11136 C 1049.22 1.85022 -0.830354 0
M  V30 11137 C 1049.55 1.83266 0.64242 0
M  V30 11138 O 1048.83 1.27024 1.47293 0
M  V30 11139 C 1049.11 3.33218 -1.36521 0
M  V30 11140 C 1048.96 3.43491 -2.90404 0
M  V30 11141 C 1050.28 4.28626 -0.998381 0
M  V30 11142 H 1047.4 0.671786 -0.303105 0
M  V30 11143 H 1050.04 1.33211 -1.3548 0
M  V30 11144 H 1048.19 3.77471 -0.919117 0
M  V30 11145 H 1049.86 3.07954 -3.43456 0
M  V30 11146 H 1048.11 2.84391 -3.27573 0
M  V30 11147 H 1048.78 4.47702 -3.22905 0
M  V30 11148 H 1051.25 3.9244 -1.38311 0
M  V30 11149 H 1050.13 5.30754 -1.39968 0
M  V30 11150 H 1050.39 4.42001 0.093517 0
M  V30 11151 N 1049.45 0.880621 1.30701 0
M  V30 11152 C 1050.38 0.301443 2.27209 0
M  V30 11153 C 1051.4 -0.541533 1.53529 0
M  V30 11154 O 1052.59 -0.361791 1.74795 0
M  V30 11155 C 1049.69 -0.59038 3.33718 0
M  V30 11156 C 1048.86 0.222549 4.36833 0
M  V30 11157 C 1047.92 -0.599083 5.22779 0
M  V30 11158 O 1046.94 -0.0233267 5.69195 0
M  V30 11159 N 1048.15 -1.90904 5.48211 0
M  V30 11160 H 1050.91 1.13083 2.77547 0
M  V30 11161 H 1048.47 0.743168 1.43835 0
M  V30 11162 H 1050.46 -1.14599 3.88135 0
M  V30 11163 H 1049.03 -1.32044 2.83343 0
M  V30 11164 H 1048.25 0.959606 3.82342 0
M  V30 11165 H 1049.54 0.779965 5.02786 0
M  V30 11166 H 1048.94 -2.3998 5.12275 0
M  V30 11167 H 1047.5 -2.4122 6.05521 0
M  V30 11168 N 1050.93 -1.4397 0.641131 0
M  V30 11169 C 1052.17 -2.03826 0.153071 0
M  V30 11170 C 1052.53 -1.4941 -1.20585 0
M  V30 11171 O 1053.73 -2.00832 -1.78661 0
M  V30 11172 C 1052.01 -3.57085 0.149914 0
M  V30 11173 S 1053.56 -4.37956 -0.272065 0
M  V30 11174 H 1050.38 -0.70793 0.0659981 0
M  V30 11175 H 1052.98 -1.76211 0.846761 0
M  V30 11176 H 1051.69 -3.94194 1.14188 0
M  V30 11177 H 1051.22 -3.89326 -0.564703 0
M  V30 11178 H 1053.23 -4.72542 -1.5139 0
M  V30 11179 N 1052.41 -0.382291 -1.52893 0
M  V30 11180 C 1053.82 0.0932841 -1.86467 0
M  V30 11181 C 1054.17 1.4675 -1.30226 0
M  V30 11182 O 1053.29 2.07001 -0.63084 0
M  V30 11183 C 1053.89 0.176048 -3.38342 0
M  V30 11184 C 1052.45 0.595904 -3.71653 0
M  V30 11185 C 1051.6 -0.246511 -2.76202 0
M  V30 11186 H 1054.55 -0.600443 -1.46903 0
M  V30 11187 H 1054.57 0.996512 -3.67219 0
M  V30 11188 H 1054.08 -0.824264 -3.79246 0
M  V30 11189 H 1052.18 1.60384 -3.36315 0
M  V30 11190 H 1052.29 0.358919 -4.77754 0
M  V30 11191 H 1050.66 0.287162 -2.53076 0
M  V30 11192 H 1051.44 -1.24467 -3.19942 0
M  V30 11193 N 1053.89 1.57202 -0.111913 0
M  V30 11194 C 1055.3 1.82039 0.414591 0
M  V30 11195 C 1055.65 1.02863 1.67074 0
M  V30 11196 O 1054.77 0.263068 2.14795 0
M  V30 11197 C 1055.37 3.3019 0.758953 0
M  V30 11198 C 1053.93 3.55732 1.23012 0
M  V30 11199 C 1053.07 2.76301 0.235226 0
M  V30 11200 H 1056.02 1.55078 -0.337142 0
M  V30 11201 H 1056.05 3.44431 1.61701 0
M  V30 11202 H 1055.56 3.87788 -0.155473 0
M  V30 11203 H 1053.66 3.03483 2.16169 0
M  V30 11204 H 1053.77 4.64333 1.18034 0
M  V30 11205 H 1052.14 2.44287 0.720822 0
M  V30 11206 H 1052.92 3.36655 -0.672173 0
M  V30 11207 N 1055.36 -0.161842 1.56767 0
M  V30 11208 C 1056.59 -0.896274 1.87034 0
M  V30 11209 C 1057.01 -1.74617 0.699314 0
M  V30 11210 O 1056.37 -1.77861 -0.351435 0
M  V30 11211 C 1056.42 -1.74105 3.15784 0
M  V30 11212 O 1055.52 -2.84372 2.98674 0
M  V30 11213 H 1054.86 -0.250523 0.614926 0
M  V30 11214 H 1057.39 -0.157127 2.03996 0
M  V30 11215 H 1057.4 -2.13907 3.4743 0
M  V30 11216 H 1056.08 -1.11684 4.00624 0
M  V30 11217 H 1054.66 -2.48084 2.78404 0
M  V30 11218 N 1056.84 -1.516 -0.430713 0
M  V30 11219 C 1058.07 -1.68414 -1.20185 0
M  V30 11220 C 1058.48 -0.384297 -1.84847 0
M  V30 11221 O 1057.84 0.637808 -1.70992 0
M  V30 11222 C 1057.89 -2.80451 -2.28099 0
M  V30 11223 O 1057.61 -4.05399 -1.66081 0
M  V30 11224 C 1059.11 -3.0859 -3.18256 0
M  V30 11225 H 1056.33 -0.564982 -0.361989 0
M  V30 11226 H 1058.88 -1.9805 -0.50954 0
M  V30 11227 H 1057.03 -2.53395 -2.93036 0
M  V30 11228 H 1057.45 -4.67671 -2.37453 0
M  V30 11229 H 1058.92 -3.9055 -3.90096 0
M  V30 11230 H 1059.4 -2.21264 -3.79393 0
M  V30 11231 H 1060 -3.37331 -2.59014 0
M  V30 11232 N 1058.32 0.686584 -1.41858 0
M  V30 11233 C 1059.54 1.4802 -1.45275 0
M  V30 11234 C 1059.97 1.87997 -0.0621297 0
M  V30 11235 O 1059.33 1.55226 0.936733 0
M  V30 11236 C 1059.38 2.7133 -2.37513 0
M  V30 11237 O 1058.48 3.69159 -1.83836 0
M  V30 11238 H 1057.82 0.445152 -0.492682 0
M  V30 11239 H 1060.35 0.843161 -1.86419 0
M  V30 11240 H 1060.36 3.19537 -2.53693 0
M  V30 11241 H 1059.04 2.41571 -3.3855 0
M  V30 11242 H 1057.61 3.28134 -1.77151 0
M  V30 11243 N 1059.8 1.27835 0.921735 0
M  V30 11244 C 1061.04 1.15702 1.67286 0
M  V30 11245 C 1061.4 -0.293049 1.90155 0
M  V30 11246 O 1060.69 -1.21058 1.48511 0
M  V30 11247 C 1060.89 1.88054 3.03925 0
M  V30 11248 C 1060.71 3.39947 2.94391 0
M  V30 11249 C 1059.48 4.09275 2.96347 0
M  V30 11250 C 1061.68 4.35824 2.7306 0
M  V30 11251 N 1059.66 5.47694 2.77317 0
M  V30 11252 C 1061.04 5.61551 2.62794 0
M  V30 11253 C 1063.09 4.25844 2.57994 0
M  V30 11254 C 1061.79 6.78434 2.38998 0
M  V30 11255 C 1063.82 5.42455 2.35577 0
M  V30 11256 C 1063.18 6.67141 2.26058 0
M  V30 11257 H 1059.28 0.478278 0.618687 0
M  V30 11258 H 1061.86 1.61382 1.08922 0
M  V30 11259 H 1060.04 1.4482 3.60391 0
M  V30 11260 H 1061.77 1.68374 3.68011 0
M  V30 11261 H 1058.52 3.6079 3.06802 0
M  V30 11262 H 1058.95 6.2043 2.70916 0
M  V30 11263 H 1063.59 3.30161 2.64109 0
M  V30 11264 H 1061.31 7.74194 2.31623 0
M  V30 11265 H 1064.89 5.36617 2.24796 0
M  V30 11266 H 1063.77 7.55851 2.08947 0
M  V30 11267 N 1061.28 -1.12907 1.09954 0
M  V30 11268 C 1062.21 -2.18194 0.701701 0
M  V30 11269 C 1063.22 -1.60724 -0.259131 0
M  V30 11270 O 1064.41 -1.78445 -0.0443549 0
M  V30 11271 C 1061.51 -3.38897 0.0140602 0
M  V30 11272 C 1060.68 -4.25867 0.997807 0
M  V30 11273 C 1059.74 -5.25084 0.34257 0
M  V30 11274 O 1058.77 -5.60492 0.991857 0
M  V30 11275 N 1059.97 -5.73464 -0.901058 0
M  V30 11276 H 1062.73 -2.52939 1.60755 0
M  V30 11277 H 1060.3 -1.28281 0.987703 0
M  V30 11278 H 1062.29 -4.02349 -0.435628 0
M  V30 11279 H 1060.86 -3.02345 -0.794118 0
M  V30 11280 H 1060.08 -3.59107 1.6259 0
M  V30 11281 H 1061.37 -4.80825 1.66388 0
M  V30 11282 H 1060.76 -5.46854 -1.44802 0
M  V30 11283 H 1059.32 -6.38827 -1.29398 0
M  V30 11284 N 1062.75 -0.88754 -1.30232 0
M  V30 11285 C 1064.16 -0.55745 -1.78184 0
M  V30 11286 C 1064.52 0.926474 -1.72948 0
M  V30 11287 O 1063.64 1.72403 -1.3079 0
M  V30 11288 C 1064.24 -1.00512 -3.23547 0
M  V30 11289 C 1062.79 -0.726402 -3.69324 0
M  V30 11290 C 1061.94 -1.18666 -2.50627 0
M  V30 11291 H 1064.89 -1.07151 -1.17066 0
M  V30 11292 H 1064.91 -0.335185 -3.79021 0
M  V30 11293 H 1064.43 -2.08517 -3.27326 0
M  V30 11294 H 1062.53 0.341548 -3.71031 0
M  V30 11295 H 1062.64 -1.31575 -4.60679 0
M  V30 11296 H 1061 -0.605936 -2.47387 0
M  V30 11297 H 1061.79 -2.2745 -2.57141 0
M  V30 11298 N 1064.23 1.43628 -0.648757 0
M  V30 11299 C 1065.16 2.29045 0.0841858 0
M  V30 11300 C 1066.18 1.42262 0.791537 0
M  V30 11301 O 1067.37 1.66243 0.650039 0
M  V30 11302 C 1064.47 3.19075 1.14212 0
M  V30 11303 C 1063.64 4.34372 0.513799 0
M  V30 11304 C 1062.7 5.05307 1.46803 0
M  V30 11305 O 1061.72 5.60729 0.978346 0
M  V30 11306 N 1062.93 5.08393 2.80209 0
M  V30 11307 H 1065.69 2.9259 -0.648948 0
M  V30 11308 H 1063.25 1.54268 -0.491209 0
M  V30 11309 H 1065.24 3.63395 1.78119 0
M  V30 11310 H 1063.81 2.57161 1.77728 0
M  V30 11311 H 1063.03 3.93024 -0.304262 0
M  V30 11312 H 1064.32 5.08745 0.0749871 0
M  V30 11313 H 1063.72 4.64729 3.22557 0
M  V30 11314 H 1062.28 5.56445 3.3943 0
M  V30 11315 N 1065.71 0.390394 1.52688 0
M  V30 11316 C 1066.94 -0.194013 2.06491 0
M  V30 11317 C 1067.36 -1.3965 1.26014 0
M  V30 11318 O 1066.72 -1.79038 0.285468 0
M  V30 11319 C 1066.77 -0.541306 3.56514 0
M  V30 11320 O 1065.87 -1.63509 3.78601 0
M  V30 11321 H 1065.21 -0.0223608 0.663623 0
M  V30 11322 H 1067.74 0.558179 1.96839 0
M  V30 11323 H 1067.75 -0.805301 3.99974 0
M  V30 11324 H 1066.43 0.337828 4.14526 0
M  V30 11325 H 1065 -1.36473 3.4703 0
M  V30 11326 N 1067.19 -1.57141 0.120249 0
M  V30 11327 C 1068.14 -2.11936 -0.84067 0
M  V30 11328 C 1069.12 -1.04044 -1.22734 0
M  V30 11329 O 1070.31 -1.30275 -1.19822 0
M  V30 11330 C 1067.44 -2.72332 -2.09023 0
M  V30 11331 C 1066.53 -3.87306 -1.72786 0
M  V30 11332 N 1066.92 -4.94302 -1.07232 0
M  V30 11333 C 1065.22 -3.97513 -2.02236 0
M  V30 11334 C 1065.92 -5.7467 -0.901626 0
M  V30 11335 N 1064.9 -5.24535 -1.42702 0
M  V30 11336 H 1068.7 -2.92038 -0.330308 0
M  V30 11337 H 1066.21 -1.62192 -0.0821814 0
M  V30 11338 H 1068.21 -3.09932 -2.78833 0
M  V30 11339 H 1066.87 -1.93693 -2.60601 0
M  V30 11340 H 1067.88 -5.12641 -0.736158 0
M  V30 11341 H 1064.56 -3.29917 -2.55853 0
M  V30 11342 H 1065.95 -6.70785 -0.386974 0
M  V30 11343 N 1068.67 0.153526 -1.5685 0
M  V30 11344 C 1070.08 0.714247 -1.72498 0
M  V30 11345 C 1070.43 1.81968 -0.733621 0
M  V30 11346 O 1069.55 2.16163 0.10118 0
M  V30 11347 C 1070.15 1.30238 -3.12767 0
M  V30 11348 C 1068.71 1.80974 -3.30038 0
M  V30 11349 C 1067.85 0.695638 -2.68433 0
M  V30 11350 H 1070.81 -0.0720733 -1.58536 0
M  V30 11351 H 1070.83 2.17217 -3.12405 0
M  V30 11352 H 1070.34 0.497605 -3.84897 0
M  V30 11353 H 1068.44 2.64039 -2.62895 0
M  V30 11354 H 1068.55 1.94294 -4.37934 0
M  V30 11355 H 1066.92 1.12061 -2.28723 0
M  V30 11356 H 1067.7 -0.0975885 -3.43161 0
M  V30 11357 N 1070.14 1.51827 0.422667 0
M  V30 11358 C 1071.56 1.40328 0.760275 0
M  V30 11359 C 1071.76 0.497119 1.95272 0
M  V30 11360 O 1070.82 -0.0422083 2.52465 0
M  V30 11361 C 1072.13 2.82622 1.02689 0
M  V30 11362 C 1073.68 2.91874 1.13044 0
M  V30 11363 C 1074.15 4.35107 1.4299 0
M  V30 11364 N 1075.64 4.3828 1.49883 0
M  V30 11365 C 1076.38 5.46153 1.74655 0
M  V30 11366 N 1075.87 6.64165 1.9712 0
M  V30 11367 N 1077.67 5.33651 1.76558 0
M  V30 11368 H 1069.82 2.09285 -0.362455 0
M  V30 11369 H 1072.08 0.94273 -0.0998161 0
M  V30 11370 H 1071.79 3.50991 0.223226 0
M  V30 11371 H 1071.66 3.22844 1.95068 0
M  V30 11372 H 1074.05 2.23694 1.92471 0
M  V30 11373 H 1074.13 2.55128 0.185326 0
M  V30 11374 H 1073.77 5.03841 0.640848 0
M  V30 11375 H 1073.7 4.69377 2.38731 0
M  V30 11376 H 1076.19 3.53206 1.34366 0
M  V30 11377 H 1076.51 7.42165 2.15434 0
M  V30 11378 H 1074.85 6.67255 1.94413 0
M  V30 11379 H 1078.04 4.40436 1.58536 0
M  V30 11380 H 1078.22 6.17798 1.95525 0
M  V30 11381 N 1071.62 -0.679052 1.4222 0
M  V30 11382 C 1072.55 -1.80455 1.41311 0
M  V30 11383 C 1073.57 -1.59767 0.312799 0
M  V30 11384 O 1074.76 -1.68964 0.575612 0
M  V30 11385 C 1071.86 -3.17492 1.18541 0
M  V30 11386 C 1071.03 -3.65066 2.40926 0
M  V30 11387 C 1070.09 -4.80823 2.13765 0
M  V30 11388 O 1069.11 -4.91587 2.86934 0
M  V30 11389 N 1070.32 -5.69233 1.13813 0
M  V30 11390 H 1073.08 -1.81722 2.38322 0
M  V30 11391 H 1070.64 -0.861988 1.37045 0
M  V30 11392 H 1072.63 -3.92581 0.982958 0
M  V30 11393 H 1071.2 -3.1115 0.300691 0
M  V30 11394 H 1070.42 -2.80702 2.76767 0
M  V30 11395 H 1071.71 -3.93593 3.22431 0
M  V30 11396 H 1071.11 -5.63185 0.532887 0
M  V30 11397 H 1069.67 -6.44152 0.995554 0
M  V30 11398 N 1073.1 -1.28322 -0.914942 0
M  V30 11399 C 1074.35 -1.15179 -1.66067 0
M  V30 11400 C 1074.67 0.300279 -1.92674 0
M  V30 11401 O 1073.94 1.20821 -1.54205 0
M  V30 11402 H 1072.52 -0.423264 -0.615513 0
M  V30 11403 H 1075.18 -1.61034 -1.09791 0
M  V30 11404 H 1074.28 -1.69048 -2.62353 0
M  V30 11405 N 1074.58 1.12322 -1.10551 0
M  V30 11406 C 1075.53 2.16177 -0.724679 0
M  V30 11407 C 1076.51 1.58674 0.266739 0
M  V30 11408 O 1077.7 1.7684 0.0752872 0
M  V30 11409 C 1074.83 3.4293 -0.159413 0
M  V30 11410 C 1073.92 4.07413 -1.17794 0
M  V30 11411 N 1074.31 4.46889 -2.36905 0
M  V30 11412 C 1072.61 4.34209 -1.01874 0
M  V30 11413 C 1073.31 4.97291 -3.01789 0
M  V30 11414 N 1072.29 4.92871 -2.29302 0
M  V30 11415 H 1076.09 2.44466 -1.63136 0
M  V30 11416 H 1073.6 1.2924 -0.983407 0
M  V30 11417 H 1075.6 4.16693 0.131502 0
M  V30 11418 H 1074.26 3.16109 0.741975 0
M  V30 11419 H 1075.27 4.39219 -2.74422 0
M  V30 11420 H 1071.95 4.17141 -0.173013 0
M  V30 11421 H 1073.34 5.3754 -4.03114 0
M  V30 11422 N 1076.06 0.894434 1.2976 0
M  V30 11423 C 1077.3 0.516646 1.95385 0
M  V30 11424 C 1077.63 -0.939141 1.70895 0
M  V30 11425 O 1076.9 -1.66153 1.03778 0
M  V30 11426 H 1075.48 0.188072 0.722937 0
M  V30 11427 H 1078.14 1.13958 1.58113 0
M  V30 11428 H 1077.23 0.694819 3.04267 0
M  V30 11429 N 1077.53 -1.43282 0.656365 0
M  V30 11430 C 1078.76 -2.06125 0.178879 0
M  V30 11431 C 1079.18 -1.49216 -1.15672 0
M  V30 11432 O 1078.53 -0.624693 -1.71475 0
M  V30 11433 C 1078.59 -3.614 0.0851785 0
M  V30 11434 O 1078.31 -4.16194 1.36798 0
M  V30 11435 C 1079.81 -4.41325 -0.41801 0
M  V30 11436 H 1077.03 -0.664753 0.0913504 0
M  V30 11437 H 1079.57 -1.83733 0.897901 0
M  V30 11438 H 1077.73 -3.82966 -0.584421 0
M  V30 11439 H 1078.14 -5.09892 1.22924 0
M  V30 11440 H 1079.61 -5.50303 -0.432519 0
M  V30 11441 H 1080.09 -4.14577 -1.44991 0
M  V30 11442 H 1080.7 -4.24735 0.219208 0
M  V30 11443 N 1079.01 -0.398486 -1.52479 0
M  V30 11444 C 1080.24 0.183059 -2.06591 0
M  V30 11445 C 1080.66 1.3898 -1.26753 0
M  V30 11446 O 1080.02 1.78885 -0.294959 0
M  V30 11447 C 1080.07 0.522392 -3.56796 0
M  V30 11448 O 1079.17 1.61499 -3.79462 0
M  V30 11449 H 1078.51 0.0188411 -0.663733 0
M  V30 11450 H 1081.04 -0.56861 -1.9654 0
M  V30 11451 H 1081.05 0.784078 -4.00395 0
M  V30 11452 H 1079.73 -0.359807 -4.14341 0
M  V30 11453 H 1078.31 1.3463 -3.47749 0
M  V30 11454 N 1080.49 1.57075 -0.12858 0
M  V30 11455 C 1081.9 1.82468 0.39526 0
M  V30 11456 C 1082.25 1.0463 1.65973 0
M  V30 11457 O 1081.38 0.285835 2.14504 0
M  V30 11458 C 1081.97 3.30976 0.723889 0
M  V30 11459 C 1080.53 3.57016 1.19232 0
M  V30 11460 C 1079.68 2.76534 0.205907 0
M  V30 11461 H 1082.63 1.54711 -0.353571 0
M  V30 11462 H 1082.65 3.46127 1.58039 0
M  V30 11463 H 1082.16 3.87602 -0.196595 0
M  V30 11464 H 1080.26 3.05758 2.12938 0
M  V30 11465 H 1080.38 4.65558 1.13103 0
M  V30 11466 H 1078.74 2.45038 0.694872 0
M  V30 11467 H 1079.52 3.35923 -0.707842 0
M  V30 11468 N 1081.97 -0.145205 1.5693 0
M  V30 11469 C 1083.22 -0.858786 1.83719 0
M  V30 11470 C 1083.55 -1.80738 0.710452 0
M  V30 11471 O 1082.82 -1.92389 -0.285791 0
M  V30 11472 C 1083.11 -1.6317 3.2101 0
M  V30 11473 C 1082.96 -0.704472 4.44249 0
M  V30 11474 C 1084.28 -2.59377 3.55544 0
M  V30 11475 H 1081.4 -0.310757 0.66828 0
M  V30 11476 H 1084.04 -0.123918 1.89595 0
M  V30 11477 H 1082.19 -2.25816 3.16132 0
M  V30 11478 H 1083.86 -0.08887 4.61214 0
M  V30 11479 H 1082.1 -0.0141693 4.33798 0
M  V30 11480 H 1082.78 -1.28135 5.36922 0
M  V30 11481 H 1085.25 -2.06848 3.61044 0
M  V30 11482 H 1084.13 -3.10506 4.52634 0
M  V30 11483 H 1084.39 -3.40819 2.81594 0
M  V30 11484 N 1083.45 -1.52049 -0.414609 0
M  V30 11485 C 1084.7 -1.65511 -1.15977 0
M  V30 11486 C 1085.02 -0.384703 -1.91168 0
M  V30 11487 O 1084.29 0.600247 -1.86477 0
M  V30 11488 H 1082.87 -0.610039 -0.431116 0
M  V30 11489 H 1085.53 -1.8907 -0.473139 0
M  V30 11490 H 1084.62 -2.4936 -1.87686 0
M  V30 11491 N 1084.93 0.6715 -1.42579 0
M  V30 11492 C 1086.2 1.42766 -1.33706 0
M  V30 11493 C 1086.58 2.11086 0.0239748 0
M  V30 11494 O 1085.93 2.03479 1.03964 0
M  V30 11495 C 1086.14 2.42739 -2.50756 0
M  V30 11496 C 1087.49 3.07284 -2.93021 0
M  V30 11497 O 1088.51 2.53066 -2.50671 0
M  V30 11498 O 1087.37 4.05541 -3.66331 0
M  V30 11499 H 1084.47 0.636955 -0.527463 0
M  V30 11500 H 1087.01 0.699946 -1.54593 0
M  V30 11501 H 1085.78 1.91076 -3.41476 0
M  V30 11502 H 1085.41 3.22986 -2.31874 0
M  V30 11503 N 1086.4 1.28806 0.908124 0
M  V30 11504 C 1087.35 1.09849 1.99793 0
M  V30 11505 C 1088.34 0.0204321 1.60887 0
M  V30 11506 O 1089.53 0.241204 1.75349 0
M  V30 11507 C 1086.66 0.768263 3.34593 0
M  V30 11508 C 1085.74 1.88544 3.79884 0
M  V30 11509 N 1086.14 3.12784 3.97492 0
M  V30 11510 C 1084.43 1.77657 4.09089 0
M  V30 11511 C 1085.13 3.85615 4.35518 0
M  V30 11512 N 1084.11 3.13501 4.44092 0
M  V30 11513 H 1087.91 2.04108 2.11464 0
M  V30 11514 H 1085.43 1.19807 1.09636 0
M  V30 11515 H 1087.42 0.613521 4.12361 0
M  V30 11516 H 1086.08 -0.166501 3.24273 0
M  V30 11517 H 1087.09 3.48333 3.83255 0
M  V30 11518 H 1083.77 0.913956 4.07373 0
M  V30 11519 H 1085.16 4.92492 4.57057 0
M  V30 11520 N 1087.88 -1.11734 1.11145 0
M  V30 11521 C 1089.13 -1.83043 0.856717 0
M  V30 11522 C 1089.45 -1.84901 -0.619407 0
M  V30 11523 O 1088.72 -1.31738 -1.44989 0
M  V30 11524 H 1087.3 -0.677823 0.31395 0
M  V30 11525 H 1089.96 -1.35262 1.40322 0
M  V30 11526 H 1089.06 -2.87005 1.22616 0
M  V30 11527 N 1089.36 -0.901303 -1.29284 0
M  V30 11528 C 1090.58 -0.542823 -2.0017 0
M  V30 11529 C 1091.01 0.865583 -1.67001 0
M  V30 11530 O 1090.37 1.5764 -0.895502 0
M  V30 11531 C 1090.42 -0.743987 -3.52842 0
M  V30 11532 O 1089.52 0.202771 -4.11901 0
M  V30 11533 H 1088.86 -0.211903 -0.62928 0
M  V30 11534 H 1091.39 -1.21333 -1.64741 0
M  V30 11535 H 1091.4 -0.64926 -4.02801 0
M  V30 11536 H 1090.08 -1.77077 -3.7632 0
M  V30 11537 H 1088.65 0.0603637 -3.72851 0
M  V30 11538 N 1090.84 1.42931 -0.663954 0
M  V30 11539 C 1091.77 2.33499 0.00731327 0
M  V30 11540 C 1092.75 1.50074 0.800733 0
M  V30 11541 O 1093.93 1.78708 0.760062 0
M  V30 11542 C 1091.06 3.33569 0.966897 0
M  V30 11543 C 1090.02 4.27064 0.282839 0
M  V30 11544 C 1089.34 5.17257 1.35461 0
M  V30 11545 C 1090.64 5.1564 -0.831438 0
M  V30 11546 H 1092.34 2.89879 -0.749044 0
M  V30 11547 H 1089.88 1.39385 -0.361656 0
M  V30 11548 H 1091.84 3.95833 1.44549 0
M  V30 11549 H 1090.56 2.75469 1.75455 0
M  V30 11550 H 1089.22 3.6618 -0.175417 0
M  V30 11551 H 1088.87 4.5549 2.13397 0
M  V30 11552 H 1088.57 5.80634 0.902098 0
M  V30 11553 H 1090.09 5.82395 1.83436 0
M  V30 11554 H 1091.51 5.71651 -0.434534 0
M  V30 11555 H 1089.9 5.87794 -1.20908 0
M  V30 11556 H 1090.97 4.54687 -1.68487 0
M  V30 11557 N 1092.32 0.406567 1.52266 0
M  V30 11558 C 1093.56 -0.170305 2.02084 0
M  V30 11559 C 1093.89 -1.45008 1.29176 0
M  V30 11560 O 1093.17 -1.90399 0.39731 0
M  V30 11561 C 1093.45 -0.420627 3.57635 0
M  V30 11562 C 1093.31 0.87564 4.41194 0
M  V30 11563 C 1094.62 -1.20387 4.23314 0
M  V30 11564 H 1091.74 -0.0604219 0.734519 0
M  V30 11565 H 1094.39 0.539529 1.82179 0
M  V30 11566 H 1092.54 -1.0253 3.74726 0
M  V30 11567 H 1094.21 1.51192 4.35819 0
M  V30 11568 H 1092.45 1.48718 4.07511 0
M  V30 11569 H 1093.12 0.654916 5.48101 0
M  V30 11570 H 1095.6 -0.691972 4.10306 0
M  V30 11571 H 1094.47 -1.34776 5.32096 0
M  V30 11572 H 1094.73 -2.2238 3.82099 0
M  V30 11573 N 1093.79 -1.57004 0.136909 0
M  V30 11574 C 1095.21 -1.58082 -0.21958 0
M  V30 11575 C 1095.41 -1.15065 -1.65415 0
M  V30 11576 O 1094.47 -0.846284 -2.37896 0
M  V30 11577 C 1095.78 -3.00685 0.0300112 0
M  V30 11578 C 1097.33 -3.12981 -0.0344899 0
M  V30 11579 C 1097.8 -4.57615 0.187639 0
M  V30 11580 N 1099.29 -4.63005 0.134219 0
M  V30 11581 C 1100.03 -5.72712 0.280743 0
M  V30 11582 N 1099.52 -6.91104 0.48443 0
M  V30 11583 N 1101.32 -5.61673 0.219055 0
M  V30 11584 H 1093.47 -1.83262 1.07372 0
M  V30 11585 H 1095.73 -0.847776 0.424241 0
M  V30 11586 H 1095.44 -3.36509 1.02247 0
M  V30 11587 H 1095.31 -3.70762 -0.693918 0
M  V30 11588 H 1097.7 -2.77004 -1.01749 0
M  V30 11589 H 1097.78 -2.45411 0.721608 0
M  V30 11590 H 1097.42 -4.94295 1.16769 0
M  V30 11591 H 1097.35 -5.23299 -0.588661 0
M  V30 11592 H 1099.84 -3.77895 -0.0189681 0
M  V30 11593 H 1100.16 -7.7057 0.586613 0
M  V30 11594 H 1098.5 -6.93047 0.520627 0
M  V30 11595 H 1101.69 -4.68061 0.0607606 0
M  V30 11596 H 1101.87 -6.47125 0.336683 0
M  V30 11597 N 1095.27 0.136881 -1.57004 0
M  V30 11598 C 1096.52 0.846257 -1.83088 0
M  V30 11599 C 1096.83 1.81876 -0.719765 0
M  V30 11600 O 1098.04 2.57302 -0.866494 0
M  V30 11601 C 1096.5 1.55559 -3.24545 0
M  V30 11602 C 1096.1 0.624989 -4.43619 0
M  V30 11603 C 1097.85 2.25115 -3.59893 0
M  V30 11604 C 1095.76 1.33653 -5.761 0
M  V30 11605 H 1094.69 0.319768 -0.682836 0
M  V30 11606 H 1097.34 0.0989741 -1.83233 0
M  V30 11607 H 1095.72 2.34887 -3.18817 0
M  V30 11608 H 1096.89 -0.133783 -4.60606 0
M  V30 11609 H 1095.21 0.0373216 -4.16383 0
M  V30 11610 H 1097.8 2.79008 -4.56134 0
M  V30 11611 H 1098.15 3.02084 -2.86446 0
M  V30 11612 H 1098.68 1.52696 -3.67327 0
M  V30 11613 H 1095.42 0.608495 -6.5267 0
M  V30 11614 H 1094.94 2.06776 -5.63031 0
M  V30 11615 H 1096.62 1.87467 -6.19246 0
M  V30 11616 N 1096.75 1.52266 0.40654 0
M  V30 11617 C 1098.16 1.58587 0.985241 0
M  V30 11618 C 1098.51 0.427955 1.91476 0
M  V30 11619 O 1097.64 -0.451341 2.11641 0
M  V30 11620 C 1098.23 2.87426 1.79365 0
M  V30 11621 C 1096.79 2.96217 2.32233 0
M  V30 11622 C 1095.94 2.53548 1.12288 0
M  V30 11623 H 1098.89 1.57598 0.186685 0
M  V30 11624 H 1098.91 2.72925 2.65127 0
M  V30 11625 H 1098.42 3.71682 1.11687 0
M  V30 11626 H 1096.52 2.1646 3.03275 0
M  V30 11627 H 1096.64 4.00511 2.62922 0
M  V30 11628 H 1095 2.07457 1.47763 0
M  V30 11629 H 1095.78 3.40181 0.461731 0
M  V30 11630 N 1098.23 -0.663929 1.42933 0
M  V30 11631 C 1099.64 -1.24484 1.39143 0
M  V30 11632 C 1099.99 -1.95993 0.0901142 0
M  V30 11633 O 1099.12 -2.00636 -0.810812 0
M  V30 11634 C 1099.71 -2.26402 2.52047 0
M  V30 11635 C 1098.27 -2.79995 2.51555 0
M  V30 11636 C 1097.42 -1.54475 2.30289 0
M  V30 11637 H 1100.37 -0.456619 1.51989 0
M  V30 11638 H 1100.39 -3.08361 2.22921 0
M  V30 11639 H 1099.9 -1.74328 3.46744 0
M  V30 11640 H 1098 -3.36161 1.60707 0
M  V30 11641 H 1098.11 -3.2827 3.48964 0
M  V30 11642 H 1096.48 -1.81437 1.78753 0
M  V30 11643 H 1097.26 -1.04351 3.27056 0
M  V30 11644 N 1099.71 -1.29285 -0.901281 0
M  V30 11645 C 1101.12 -1.15499 -1.46686 0
M  V30 11646 C 1101.47 0.250446 -1.94595 0
M  V30 11647 O 1100.59 1.14581 -1.83576 0
M  V30 11648 C 1101.19 -2.0906 -2.66607 0
M  V30 11649 C 1099.75 -1.99301 -3.19306 0
M  V30 11650 C 1098.89 -2.00079 -1.91999 0
M  V30 11651 H 1101.85 -1.41793 -0.712773 0
M  V30 11652 H 1101.87 -1.6619 -3.42288 0
M  V30 11653 H 1101.38 -3.11341 -2.31707 0
M  V30 11654 H 1099.48 -1.00103 -3.58901 0
M  V30 11655 H 1099.59 -2.86885 -3.8371 0
M  V30 11656 H 1097.96 -1.44655 -2.09636 0
M  V30 11657 H 1098.74 -3.04061 -1.59379 0
M  V30 11658 N 1101.18 1.11143 -1.11736 0
M  V30 11659 C 1102.6 1.64462 -0.883693 0
M  V30 11660 C 1102.95 1.87324 0.583448 0
M  V30 11661 O 1102.07 1.60975 1.44623 0
M  V30 11662 C 1102.67 2.98765 -1.59764 0
M  V30 11663 C 1101.23 3.4898 -1.41032 0
M  V30 11664 C 1100.37 2.23729 -1.63831 0
M  V30 11665 H 1103.32 0.947415 -1.27317 0
M  V30 11666 H 1103.34 3.65885 -1.04443 0
M  V30 11667 H 1102.86 2.82094 -2.66542 0
M  V30 11668 H 1100.96 3.7081 -0.364781 0
M  V30 11669 H 1101.07 4.27571 -2.16148 0
M  V30 11670 H 1099.43 2.31507 -1.06191 0
M  V30 11671 H 1100.22 2.09597 -2.7189 0
M  V30 11672 N 1102.66 0.908147 1.28804 0
M  V30 11673 C 1103.63 0.397058 2.25735 0
M  V30 11674 C 1104.63 -0.473483 1.53671 0
M  V30 11675 O 1105.82 -0.277335 1.71978 0
M  V30 11676 C 1102.95 -0.431392 3.38159 0
M  V30 11677 H 1104.14 1.25323 2.72459 0
M  V30 11678 H 1101.69 0.687041 1.4039 0
M  V30 11679 H 1102.43 -1.3072 2.96787 0
M  V30 11680 H 1102.21 0.192502 3.91627 0
M  V30 11681 H 1103.7 -0.78 4.10251 0
M  V30 11682 N 1104.14 -1.42577 0.671525 0
M  V30 11683 C 1105.09 -2.27978 -0.0315286 0
M  V30 11684 C 1106.07 -1.40907 -0.776796 0
M  V30 11685 O 1107.27 -1.64385 -0.656248 0
M  V30 11686 C 1104.4 -3.28884 -0.9844 0
M  V30 11687 C 1103.48 -4.23439 -0.236647 0
M  V30 11688 N 1103.87 -5.00107 0.756714 0
M  V30 11689 C 1102.17 -4.43457 -0.475551 0
M  V30 11690 C 1102.87 -5.69141 1.20221 0
M  V30 11691 N 1101.85 -5.40983 0.532802 0
M  V30 11692 H 1105.65 -2.84678 0.730455 0
M  V30 11693 H 1103.16 -1.54501 0.500317 0
M  V30 11694 H 1105.16 -3.88864 -1.50302 0
M  V30 11695 H 1103.82 -2.73745 -1.74625 0
M  V30 11696 H 1104.83 -5.05285 1.13613 0
M  V30 11697 H 1101.51 -3.99364 -1.21715 0
M  V30 11698 H 1102.9 -6.40653 2.02517 0
M  V30 11699 N 1105.62 -0.414636 -1.52048 0
M  V30 11700 C 1106.53 0.414861 -2.30903 0
M  V30 11701 C 1107.54 1.04855 -1.38858 0
M  V30 11702 O 1108.72 1.04886 -1.71933 0
M  V30 11703 C 1105.79 1.51356 -3.11917 0
M  V30 11704 C 1104.85 0.902359 -4.19709 0
M  V30 11705 C 1104.08 1.9487 -4.96852 0
M  V30 11706 O 1104.3 3.16766 -4.74358 0
M  V30 11707 O 1103.24 1.55186 -5.8155 0
M  V30 11708 H 1107.06 -0.228251 -3.02841 0
M  V30 11709 H 1104.65 -0.177704 -1.48339 0
M  V30 11710 H 1106.53 2.15127 -3.62351 0
M  V30 11711 H 1105.2 2.14117 -2.42767 0
M  V30 11712 H 1104.11 0.22721 -3.73409 0
M  V30 11713 H 1105.44 0.318587 -4.91168 0
M  V30 11714 N 1107.1 1.56929 -0.145233 0
M  V30 11715 C 1108.51 1.58196 0.211194 0
M  V30 11716 C 1108.71 1.15941 1.64803 0
M  V30 11717 O 1107.77 0.858888 2.37443 0
M  V30 11718 C 1109.08 3.00665 -0.0459569 0
M  V30 11719 C 1110.63 3.12995 0.0178913 0
M  V30 11720 C 1111.1 4.5751 -0.211905 0
M  V30 11721 N 1112.6 4.62928 -0.158772 0
M  V30 11722 C 1113.33 5.72555 -0.311111 0
M  V30 11723 N 1112.83 6.90838 -0.521074 0
M  V30 11724 N 1114.62 5.61549 -0.248838 0
M  V30 11725 H 1106.77 1.8269 -1.08342 0
M  V30 11726 H 1109.03 0.845514 -0.428731 0
M  V30 11727 H 1108.74 3.35962 -1.0403 0
M  V30 11728 H 1108.61 3.71125 0.674246 0
M  V30 11729 H 1111 2.7754 1.00278 0
M  V30 11730 H 1111.08 2.45025 -0.734612 0
M  V30 11731 H 1110.73 4.93669 -1.19389 0
M  V30 11732 H 1110.66 5.23604 0.560901 0
M  V30 11733 H 1113.15 3.779 -0.00107283 0
M  V30 11734 H 1113.46 7.70248 -0.62747 0
M  V30 11735 H 1111.8 6.92761 -0.557374 0
M  V30 11736 H 1115 4.68022 -0.0855821 0
M  V30 11737 H 1115.17 6.46937 -0.370997 0
M  V30 11738 N 1108.58 -0.128553 1.57075 0
M  V30 11739 C 1109.8 -0.8564 1.88893 0
M  V30 11740 C 1110.23 -1.73095 0.736196 0
M  V30 11741 O 1109.58 -1.78567 -0.313629 0
M  V30 11742 C 1109.63 -1.67368 3.19406 0
M  V30 11743 O 1108.74 -2.77973 3.04639 0
M  V30 11744 H 1108.08 -0.237424 0.620102 0
M  V30 11745 H 1110.61 -0.113821 2.04283 0
M  V30 11746 H 1110.62 -2.0649 3.51889 0
M  V30 11747 H 1109.29 -1.03161 4.02903 0
M  V30 11748 H 1107.87 -2.42123 2.83603 0
M  V30 11749 N 1110.05 -1.5248 -0.398459 0
M  V30 11750 C 1110.98 -1.79549 -1.49279 0
M  V30 11751 C 1111.96 -0.647004 -1.57315 0
M  V30 11752 O 1113.15 -0.893661 -1.72416 0
M  V30 11753 C 1110.28 -1.95582 -2.86993 0
M  V30 11754 C 1109.23 -3.1123 -2.93803 0
M  V30 11755 C 1108.56 -3.12501 -4.33874 0
M  V30 11756 C 1109.86 -4.50485 -2.64312 0
M  V30 11757 H 1111.55 -2.71187 -1.26877 0
M  V30 11758 H 1109.1 -1.30492 -0.608924 0
M  V30 11759 H 1111.05 -2.13102 -3.63546 0
M  V30 11760 H 1109.78 -1.00625 -3.10712 0
M  V30 11761 H 1108.44 -2.93477 -2.19697 0
M  V30 11762 H 1108.08 -2.15245 -4.54619 0
M  V30 11763 H 1107.78 -3.90183 -4.39353 0
M  V30 11764 H 1109.31 -3.32164 -5.12347 0
M  V30 11765 H 1110.72 -4.68387 -3.30585 0
M  V30 11766 H 1109.12 -5.30163 -2.81153 0
M  V30 11767 H 1110.19 -4.57848 -1.59696 0
M  V30 11768 N 1111.53 0.65634 -1.43283 0
M  V30 11769 C 1112.76 1.44906 -1.48382 0
M  V30 11770 C 1113.18 1.87823 -0.101993 0
M  V30 11771 O 1112.54 1.57178 0.903597 0
M  V30 11772 C 1112.59 2.66231 -2.43215 0
M  V30 11773 O 1111.69 3.65176 -1.91625 0
M  V30 11774 H 1111.03 0.434601 -0.502014 0
M  V30 11775 H 1113.56 0.803429 -1.88165 0
M  V30 11776 H 1113.57 3.14083 -2.60414 0
M  V30 11777 H 1112.25 2.34336 -3.43598 0
M  V30 11778 H 1110.82 3.24302 -1.84072 0
M  V30 11779 N 1113.01 1.29761 0.894412 0
M  V30 11780 C 1113.97 1.15335 1.98067 0
M  V30 11781 C 1114.97 0.0872804 1.60563 0
M  V30 11782 O 1116.16 0.334645 1.70955 0
M  V30 11783 C 1113.29 0.764907 3.32208 0
M  V30 11784 H 1114.49 2.11829 2.12293 0
M  V30 11785 H 1112.04 1.13023 1.0796 0
M  V30 11786 H 1112.78 -0.199948 3.23683 0
M  V30 11787 H 1112.56 1.53523 3.60795 0
M  V30 11788 H 1114.05 0.687176 4.11907 0
M  V30 11789 N 1114.49 -1.10549 1.12324 0
M  V30 11790 C 1115.72 -1.86 0.899312 0
M  V30 11791 C 1116.13 -1.80881 -0.554854 0
M  V30 11792 O 1115.47 -1.19485 -1.39531 0
M  V30 11793 C 1115.53 -3.35384 1.29452 0
M  V30 11794 C 1115.19 -3.64263 2.75974 0
M  V30 11795 C 1116.19 -3.60962 3.74169 0
M  V30 11796 C 1113.88 -3.92976 3.1285 0
M  V30 11797 C 1115.87 -3.85966 5.07256 0
M  V30 11798 C 1113.56 -4.17637 4.4612 0
M  V30 11799 C 1114.56 -4.14122 5.43132 0
M  V30 11800 O 1114.24 -4.38156 6.73999 0
M  V30 11801 H 1113.98 -0.594743 0.321337 0
M  V30 11802 H 1116.53 -1.40674 1.49667 0
M  V30 11803 H 1114.76 -3.81361 0.640358 0
M  V30 11804 H 1116.45 -3.9222 1.04491 0
M  V30 11805 H 1117.21 -3.38819 3.47025 0
M  V30 11806 H 1113.09 -3.94843 2.3795 0
M  V30 11807 H 1116.64 -3.83138 5.82967 0
M  V30 11808 H 1112.53 -4.39258 4.72993 0
M  V30 11809 H 1113.3 -4.55677 6.79927 0
M  V30 11810 N 1115.97 -0.914965 -1.28321 0
M  V30 11811 C 1117.21 -0.547665 -1.94538 0
M  V30 11812 C 1117.53 0.911834 -1.72368 0
M  V30 11813 O 1116.8 1.64481 -1.06408 0
M  V30 11814 H 1115.38 -0.199549 -0.719853 0
M  V30 11815 H 1118.05 -1.16459 -1.5628 0
M  V30 11816 H 1117.14 -0.743138 -3.03124 0
M  V30 11817 N 1117.44 1.42219 -0.679077 0
M  V30 11818 C 1118.69 2.01081 -0.202718 0
M  V30 11819 C 1119.01 1.53986 1.19639 0
M  V30 11820 O 1118.28 0.763359 1.80415 0
M  V30 11821 H 1116.86 0.743526 -0.0719547 0
M  V30 11822 H 1119.52 1.74077 -0.876544 0
M  V30 11823 H 1118.62 3.11411 -0.207314 0
M  V30 11824 N 1118.92 0.422693 1.51826 0
M  V30 11825 C 1120.17 -0.148348 2.01555 0
M  V30 11826 C 1120.49 -1.44483 1.30956 0
M  V30 11827 O 1119.76 -1.90904 0.439599 0
M  V30 11828 H 1118.34 -0.0578116 0.74476 0
M  V30 11829 H 1121 0.562046 1.8662 0
M  V30 11830 H 1120.1 -0.334766 3.10299 0
M  V30 11831 N 1120.4 -1.5685 0.153553 0
M  V30 11832 C 1121.35 -2.18385 -0.800667 0
M  V30 11833 C 1122.34 -1.14272 -1.25053 0
M  V30 11834 O 1123.55 -1.32509 -1.21825 0
M  V30 11835 H 1119.92 -0.699352 -0.276425 0
M  V30 11836 H 1121.89 -2.97287 -0.257535 0
M  V30 11837 C 1120.64 -2.82497 -2.02708 0
M  V30 11838 H 1119.97 -3.62328 -1.68992 0
M  V30 11839 H 1121.41 -3.29047 -2.67403 0
M  V30 11840 C 1119.86 -1.81343 -2.8393 0
M  V30 11841 O 1120.39 -1.28793 -3.80493 0
M  V30 11842 N 1118.6 -1.50499 -2.48593 0
M  V30 11843 H 1118.15 -1.93425 -1.70131 0
M  V30 11844 H 1118.11 -0.830672 -3.03228 0
M  V30 11845 N 1121.88 0.120221 -1.57141 0
M  V30 11846 C 1123.29 0.473718 -1.52408 0
M  V30 11847 C 1123.49 1.81925 -0.866354 0
M  V30 11848 O 1122.55 2.48491 -0.448173 0
M  V30 11849 C 1123.86 0.459338 -2.97171 0
M  V30 11850 C 1125.41 0.542975 -3.08254 0
M  V30 11851 C 1125.89 0.558996 -4.54576 0
M  V30 11852 N 1127.38 0.620469 -4.59026 0
M  V30 11853 C 1128.11 0.654292 -5.69655 0
M  V30 11854 N 1127.61 0.645835 -6.89783 0
M  V30 11855 N 1129.4 0.697208 -5.57759 0
M  V30 11856 H 1121.55 -0.76142 -1.98283 0
M  V30 11857 H 1123.81 -0.280736 -0.905479 0
M  V30 11858 H 1123.52 -0.461654 -3.48657 0
M  V30 11859 H 1123.39 1.28759 -3.54543 0
M  V30 11860 H 1125.78 1.45439 -2.56772 0
M  V30 11861 H 1125.86 -0.312936 -2.53879 0
M  V30 11862 H 1125.51 -0.348367 -5.06704 0
M  V30 11863 H 1125.44 1.43177 -5.06762 0
M  V30 11864 H 1127.93 0.633218 -3.72557 0
M  V30 11865 H 1128.24 0.674233 -7.69853 0
M  V30 11866 H 1126.59 0.613279 -6.92289 0
M  V30 11867 H 1129.78 0.70117 -4.62819 0
M  V30 11868 H 1129.95 0.7201 -6.43986 0
M  V30 11869 N 1123.36 1.52689 0.390367 0
M  V30 11870 C 1124.32 1.76726 1.45947 0
M  V30 11871 C 1125.32 0.637269 1.47633 0
M  V30 11872 O 1126.51 0.905312 1.48828 0
M  V30 11873 C 1123.64 1.86678 2.85244 0
M  V30 11874 H 1124.83 2.72185 1.25918 0
M  V30 11875 H 1122.39 1.4339 0.622023 0
M  V30 11876 H 1123.12 0.931991 3.10619 0
M  V30 11877 H 1122.91 2.68843 2.85422 0
M  V30 11878 H 1124.4 2.06952 3.62713 0
M  V30 11879 N 1124.83 -0.648732 1.43629 0
M  V30 11880 C 1126.06 -1.44117 1.49148 0
M  V30 11881 C 1126.48 -1.87767 0.111952 0
M  V30 11882 O 1125.84 -1.57655 -0.895249 0
M  V30 11883 C 1125.89 -2.64938 2.44623 0
M  V30 11884 O 1124.99 -3.64155 1.93559 0
M  V30 11885 H 1124.34 -0.431933 0.504312 0
M  V30 11886 H 1126.87 -0.793439 1.88589 0
M  V30 11887 H 1126.88 -3.12698 2.62076 0
M  V30 11888 H 1125.55 -2.3251 3.44836 0
M  V30 11889 H 1124.13 -3.23322 1.85789 0
M  V30 11890 N 1126.31 -1.30234 -0.887518 0
M  V30 11891 C 1127.25 -1.10726 -1.99537 0
M  V30 11892 C 1128.22 -0.0156237 -1.62592 0
M  V30 11893 O 1129.41 -0.168687 -1.87744 0
M  V30 11894 C 1126.53 -0.688185 -3.31635 0
M  V30 11895 C 1125.58 -1.78031 -3.87566 0
M  V30 11896 S 1126.41 -3.38219 -4.15172 0
M  V30 11897 C 1127.57 -2.98208 -5.50293 0
M  V30 11898 H 1127.8 -2.04516 -2.15778 0
M  V30 11899 H 1125.34 -1.14519 -1.0356 0
M  V30 11900 H 1127.29 -0.453124 -4.07991 0
M  V30 11901 H 1125.95 0.230315 -3.13254 0
M  V30 11902 H 1125.15 -1.43931 -4.83011 0
M  V30 11903 H 1124.75 -1.96952 -3.1794 0
M  V30 11904 H 1127.04 -2.4601 -6.31257 0
M  V30 11905 H 1127.98 -3.92551 -5.89329 0
M  V30 11906 H 1128.39 -2.36149 -5.12732 0
M  V30 11907 N 1127.79 1.09952 -1.12909 0
M  V30 11908 C 1128.7 2.19999 -0.81471 0
M  V30 11909 C 1129.72 1.72864 0.19851 0
M  V30 11910 O 1130.89 2.01376 0.0308832 0
M  V30 11911 C 1127.96 3.45573 -0.279363 0
M  V30 11912 C 1127.02 4.07417 -1.35314 0
M  V30 11913 C 1126.25 5.26996 -0.843247 0
M  V30 11914 O 1126.47 5.69495 0.321164 0
M  V30 11915 O 1125.41 5.79826 -1.61511 0
M  V30 11916 H 1129.23 2.49333 -1.73398 0
M  V30 11917 H 1126.82 1.18784 -0.906128 0
M  V30 11918 H 1128.7 4.21398 0.0140531 0
M  V30 11919 H 1127.38 3.17854 0.612401 0
M  V30 11920 H 1126.28 3.33253 -1.6998 0
M  V30 11921 H 1127.62 4.39349 -2.21885 0
M  V30 11922 N 1129.27 0.921757 1.27833 0
M  V30 11923 C 1130.52 0.559078 1.94629 0
M  V30 11924 C 1130.84 -0.898641 1.72495 0
M  V30 11925 O 1130.1 -1.65546 1.0437 0
M  V30 11926 C 1130.4 0.824259 3.47765 0
M  V30 11927 C 1130.06 2.26278 3.90011 0
M  V30 11928 C 1128.73 2.65607 4.01256 0
M  V30 11929 C 1131.08 3.19853 4.11513 0
M  V30 11930 C 1128.41 3.97646 4.31387 0
M  V30 11931 C 1130.76 4.51467 4.43126 0
M  V30 11932 C 1129.42 4.90637 4.52583 0
M  V30 11933 H 1128.69 0.204581 0.712199 0
M  V30 11934 H 1131.34 1.1646 1.52018 0
M  V30 11935 H 1129.64 0.136011 3.91564 0
M  V30 11936 H 1131.34 0.522701 3.97579 0
M  V30 11937 H 1127.93 1.94765 3.81791 0
M  V30 11938 H 1132.11 2.90674 4.02271 0
M  V30 11939 H 1127.37 4.27685 4.36916 0
M  V30 11940 H 1131.54 5.23982 4.58711 0
M  V30 11941 H 1129.17 5.92982 4.75685 0
M  V30 11942 N 1130.75 -1.41857 0.686609 0
M  V30 11943 C 1131.68 -2.33481 0.0298353 0
M  V30 11944 C 1132.66 -1.51329 -0.776756 0
M  V30 11945 O 1133.84 -1.79895 -0.731535 0
M  V30 11946 C 1130.97 -3.35065 -0.913707 0
M  V30 11947 C 1129.93 -4.2746 -0.214861 0
M  V30 11948 C 1129.25 -5.19346 -1.27215 0
M  V30 11949 C 1130.55 -5.14252 0.913367 0
M  V30 11950 H 1132.25 -2.8865 0.795067 0
M  V30 11951 H 1129.79 -1.38792 0.383785 0
M  V30 11952 H 1131.75 -3.98082 -1.38234 0
M  V30 11953 H 1130.47 -2.78226 -1.7105 0
M  V30 11954 H 1129.13 -3.65855 0.233651 0
M  V30 11955 H 1128.78 -4.58827 -2.06124 0
M  V30 11956 H 1128.48 -5.81996 -0.80961 0
M  V30 11957 H 1130 -5.85239 -1.74147 0
M  V30 11958 H 1131.41 -5.70887 0.525424 0
M  V30 11959 H 1129.81 -5.85796 1.30244 0
M  V30 11960 H 1130.88 -4.51949 1.75699 0
M  V30 11961 N 1132.22 -0.430739 -1.51599 0
M  V30 11962 C 1133.64 -0.0826902 -1.59386 0
M  V30 11963 C 1133.84 1.40729 -1.44214 0
M  V30 11964 O 1132.9 2.1765 -1.28002 0
M  V30 11965 C 1134.21 -0.59691 -2.94716 0
M  V30 11966 C 1135.76 -0.556772 -3.08008 0
M  V30 11967 C 1136.23 -1.04786 -4.45852 0
M  V30 11968 N 1137.72 -1.00557 -4.52153 0
M  V30 11969 C 1138.46 -1.35649 -5.57124 0
M  V30 11970 N 1137.95 -1.77994 -6.69545 0
M  V30 11971 N 1139.75 -1.27508 -5.47447 0
M  V30 11972 H 1131.9 -1.40027 -1.59707 0
M  V30 11973 H 1134.16 -0.576606 -0.752482 0
M  V30 11974 H 1133.87 -1.63914 -3.11167 0
M  V30 11975 H 1133.74 -0.0182342 -3.77196 0
M  V30 11976 H 1136.13 0.476457 -2.91228 0
M  V30 11977 H 1136.21 -1.17177 -2.27383 0
M  V30 11978 H 1135.85 -2.07952 -4.63377 0
M  V30 11979 H 1135.78 -0.409461 -5.25006 0
M  V30 11980 H 1138.27 -0.694518 -3.71463 0
M  V30 11981 H 1138.59 -2.03026 -7.45654 0
M  V30 11982 H 1136.93 -1.81916 -6.70769 0
M  V30 11983 H 1140.12 -0.942969 -4.58504 0
M  V30 11984 H 1140.3 -1.55185 -6.29143 0
M  V30 11985 N 1133.7 1.56767 -0.161869 0
M  V30 11986 C 1134.63 2.1466 0.803356 0
M  V30 11987 C 1135.65 1.09977 1.20037 0
M  V30 11988 O 1136.84 1.37199 1.14187 0
M  V30 11989 C 1133.94 2.66663 2.09151 0
M  V30 11990 C 1133.11 3.95904 1.85953 0
M  V30 11991 C 1132.17 4.33067 2.98897 0
M  V30 11992 O 1131.19 5.01119 2.69942 0
M  V30 11993 N 1132.4 3.93856 4.26448 0
M  V30 11994 H 1135.16 2.98108 0.308472 0
M  V30 11995 H 1132.72 1.61886 0.0212238 0
M  V30 11996 H 1134.71 2.88528 2.83784 0
M  V30 11997 H 1133.28 1.87856 2.49857 0
M  V30 11998 H 1132.5 3.82513 0.952751 0
M  V30 11999 H 1133.79 4.8033 1.67811 0
M  V30 12000 H 1133.19 3.39051 4.52836 0
M  V30 12001 H 1131.75 4.20741 4.97815 0
M  V30 12002 N 1135.18 -0.111886 1.57202 0
M  V30 12003 C 1136.09 -1.1556 2.04165 0
M  V30 12004 C 1137.11 -1.44898 0.963354 0
M  V30 12005 O 1138.28 -1.55873 1.27536 0
M  V30 12006 C 1135.35 -2.46048 2.44256 0
M  V30 12007 C 1134.41 -2.24043 3.66201 0
M  V30 12008 C 1133.64 -3.4831 4.04371 0
M  V30 12009 O 1133.86 -4.55895 3.42806 0
M  V30 12010 O 1132.8 -3.38891 4.9743 0
M  V30 12011 H 1136.62 -0.786778 2.93332 0
M  V30 12012 H 1134.21 -0.323196 1.45862 0
M  V30 12013 H 1136.09 -3.22916 2.70745 0
M  V30 12014 H 1134.77 -2.8239 1.58233 0
M  V30 12015 H 1133.67 -1.4501 3.44852 0
M  V30 12016 H 1135.01 -1.92602 4.52952 0
M  V30 12017 N 1136.66 -1.52894 -0.382264 0
M  V30 12018 C 1137.94 -1.58853 -1.14127 0
M  V30 12019 C 1138.32 -0.38582 -2.07544 0
M  V30 12020 O 1137.66 0.625323 -2.19777 0
M  V30 12021 C 1137.87 -2.93068 -1.89504 0
M  V30 12022 C 1139.22 -3.47048 -2.44629 0
M  V30 12023 O 1140.25 -2.94987 -1.99652 0
M  V30 12024 O 1139.1 -4.3802 -3.26804 0
M  V30 12025 H 1136.2 -0.640969 -0.522578 0
M  V30 12026 H 1138.74 -1.65231 -0.386873 0
M  V30 12027 H 1137.52 -3.72047 -1.2123 0
M  V30 12028 H 1137.14 -2.90106 -2.7189 0
M  V30 12029 N 1138.14 0.641106 -1.43971 0
M  V30 12030 C 1139.37 1.42829 -1.49692 0
M  V30 12031 C 1139.78 1.88427 -0.118594 0
M  V30 12032 O 1139.14 1.60234 0.873581 0
M  V30 12033 C 1139.19 2.65524 -2.45314 0
M  V30 12034 O 1138.91 2.2183 -3.77787 0
M  V30 12035 C 1140.41 3.58758 -2.60399 0
M  V30 12036 H 1137.63 0.438367 -0.508011 0
M  V30 12037 H 1140.17 0.784933 -1.88836 0
M  V30 12038 H 1138.33 3.25973 -2.09332 0
M  V30 12039 H 1138.74 3.01303 -4.29321 0
M  V30 12040 H 1140.22 4.41483 -3.31357 0
M  V30 12041 H 1140.69 4.06909 -1.65294 0
M  V30 12042 H 1141.3 3.04184 -2.97241 0
M  V30 12043 N 1139.62 1.30703 0.880598 0
M  V30 12044 C 1141.03 1.17818 1.4483 0
M  V30 12045 C 1141.38 -0.219456 1.94969 0
M  V30 12046 O 1140.5 -1.11646 1.85375 0
M  V30 12047 C 1141.1 2.13275 2.63247 0
M  V30 12048 C 1139.66 2.04356 3.16094 0
M  V30 12049 C 1138.8 2.03108 1.88792 0
M  V30 12050 H 1141.75 1.42909 0.690125 0
M  V30 12051 H 1141.78 1.71615 3.39601 0
M  V30 12052 H 1141.29 3.14988 2.26725 0
M  V30 12053 H 1139.39 1.058 3.57263 0
M  V30 12054 H 1139.5 2.92953 3.79098 0
M  V30 12055 H 1137.87 1.47971 2.07308 0
M  V30 12056 H 1138.65 3.06558 1.54521 0
M  V30 12057 N 1141.09 -1.09351 1.1349 0
M  V30 12058 C 1142.34 -1.81185 0.89535 0
M  V30 12059 C 1142.66 -1.86173 -0.580048 0
M  V30 12060 O 1141.93 -1.34784 -1.42162 0
M  V30 12061 H 1140.51 -0.671011 0.328257 0
M  V30 12062 H 1143.17 -1.32255 1.43159 0
M  V30 12063 H 1142.27 -2.84339 1.28676 0
M  V30 12064 N 1142.57 -0.928524 -1.27343 0
M  V30 12065 C 1143.81 -0.576696 -1.96096 0
M  V30 12066 C 1144.18 0.866074 -1.71357 0
M  V30 12067 O 1145.38 1.32621 -2.33805 0
M  V30 12068 C 1143.65 -0.894692 -3.4602 0
M  V30 12069 S 1145.21 -0.651503 -4.33936 0
M  V30 12070 H 1142.02 -0.212847 -0.678393 0
M  V30 12071 H 1144.63 -1.19714 -1.5456 0
M  V30 12072 H 1143.33 -1.94239 -3.61524 0
M  V30 12073 H 1142.86 -0.263478 -3.92517 0
M  V30 12074 H 1144.88 0.490314 -4.93772 0
M  V30 12075 N 1144.05 1.41491 -0.694123 0
M  V30 12076 C 1145.47 1.55358 -0.365532 0
M  V30 12077 C 1145.67 1.66994 1.12762 0
M  V30 12078 O 1144.72 1.64756 1.91342 0
M  V30 12079 C 1146.03 2.79352 -1.11279 0
M  V30 12080 C 1147.58 2.93147 -1.097 0
M  V30 12081 C 1148.06 4.20027 -1.82597 0
M  V30 12082 N 1149.55 4.26981 -1.7956 0
M  V30 12083 C 1150.28 5.24013 -2.32805 0
M  V30 12084 N 1149.78 6.27083 -2.94515 0
M  V30 12085 N 1151.57 5.15943 -2.23069 0
M  V30 12086 H 1143.72 1.32183 -1.66257 0
M  V30 12087 H 1145.99 0.637624 -0.701527 0
M  V30 12088 H 1145.69 2.76958 -2.16765 0
M  V30 12089 H 1145.57 3.70827 -0.690439 0
M  V30 12090 H 1147.95 2.95057 -0.0504037 0
M  V30 12091 H 1148.03 2.02849 -1.55839 0
M  V30 12092 H 1147.68 4.18878 -2.87235 0
M  V30 12093 H 1147.61 5.09294 -1.33893 0
M  V30 12094 H 1150.1 3.53129 -1.34567 0
M  V30 12095 H 1150.41 6.97511 -3.32714 0
M  V30 12096 H 1148.76 6.27589 -2.98592 0
M  V30 12097 H 1151.95 4.34346 -1.74532 0
M  V30 12098 H 1152.12 5.91396 -2.64868 0
M  V30 12099 N 1145.53 0.438773 1.51369 0
M  V30 12100 C 1146.94 -0.0240139 1.86685 0
M  V30 12101 C 1147.29 -1.41816 1.35583 0
M  V30 12102 O 1146.41 -2.04517 0.707232 0
M  V30 12103 C 1147.01 -0.0503527 3.38763 0
M  V30 12104 C 1145.57 -0.457556 3.73609 0
M  V30 12105 C 1144.72 0.348852 2.75097 0
M  V30 12106 H 1147.67 0.654552 1.44573 0
M  V30 12107 H 1147.69 -0.859534 3.70665 0
M  V30 12108 H 1147.2 0.964451 3.75925 0
M  V30 12109 H 1145.3 -1.47791 3.42036 0
M  V30 12110 H 1145.41 -0.181357 4.78757 0
M  V30 12111 H 1143.78 -0.193037 2.53967 0
M  V30 12112 H 1144.56 1.36256 3.15102 0
M  V30 12113 N 1147.01 -1.56678 0.170181 0
M  V30 12114 C 1148.42 -1.83452 -0.346742 0
M  V30 12115 C 1148.77 -1.08993 -1.63141 0
M  V30 12116 O 1147.89 -0.342607 -2.13671 0
M  V30 12117 C 1148.49 -3.32779 -0.635882 0
M  V30 12118 C 1147.05 -3.60052 -1.09725 0
M  V30 12119 C 1146.19 -2.76983 -0.132516 0
M  V30 12120 H 1149.14 -1.53719 0.394465 0
M  V30 12121 H 1149.17 -3.50195 -1.48806 0
M  V30 12122 H 1148.68 -3.86944 0.299291 0
M  V30 12123 H 1146.78 -3.11297 -2.04756 0
M  V30 12124 H 1146.89 -4.68393 -1.00719 0
M  V30 12125 H 1145.26 -2.46794 -0.62966 0
M  V30 12126 H 1146.04 -3.33929 0.796658 0
M  V30 12127 N 1148.48 0.103547 -1.57259 0
M  V30 12128 C 1149.39 1.14475 -2.04774 0
M  V30 12129 C 1150.41 1.44385 -0.971025 0
M  V30 12130 O 1151.59 1.55195 -1.28361 0
M  V30 12131 C 1148.65 2.4475 -2.45558 0
M  V30 12132 C 1147.71 2.22098 -3.67384 0
M  V30 12133 C 1146.94 3.4616 -4.06213 0
M  V30 12134 O 1147.17 4.5407 -3.45219 0
M  V30 12135 O 1146.1 3.36248 -4.9922 0
M  V30 12136 H 1149.93 0.771211 -2.93745 0
M  V30 12137 H 1147.51 0.315456 -1.46032 0
M  V30 12138 H 1149.39 3.21476 -2.72454 0
M  V30 12139 H 1148.07 2.81547 -1.59728 0
M  V30 12140 H 1146.98 1.43179 -3.45616 0
M  V30 12141 H 1148.31 1.90197 -4.53967 0
M  V30 12142 N 1149.96 1.53094 0.37415 0
M  V30 12143 C 1151.21 1.68527 1.11548 0
M  V30 12144 C 1151.53 0.435253 1.9008 0
M  V30 12145 O 1150.8 -0.550594 1.88003 0
M  V30 12146 H 1149.38 0.621255 0.41479 0
M  V30 12147 H 1152.04 1.90258 0.422844 0
M  V30 12148 H 1151.14 2.54248 1.81009 0
M  V30 12149 N 1151.44 -0.633461 1.44309 0
M  V30 12150 C 1152.39 -1.76674 1.51292 0
M  V30 12151 C 1153.38 -1.64972 0.384807 0
M  V30 12152 O 1154.59 -1.71079 0.559653 0
M  V30 12153 H 1150.96 -0.583238 0.474697 0
M  V30 12154 H 1152.93 -1.67907 2.46678 0
M  V30 12155 C 1151.68 -3.15002 1.47205 0
M  V30 12156 H 1151.01 -3.24653 2.33325 0
M  V30 12157 H 1152.45 -3.94199 1.56151 0
M  V30 12158 C 1150.9 -3.3635 0.192464 0
M  V30 12159 O 1151.43 -3.94857 -0.738285 0
M  V30 12160 N 1149.64 -2.9044 0.0963424 0
M  V30 12161 H 1149.19 -2.43011 0.85459 0
M  V30 12162 H 1149.15 -3.05099 -0.759061 0
M  V30 12163 N 1152.92 -1.31168 -0.873655 0
M  V30 12164 C 1153.85 -1.21094 -1.99646 0
M  V30 12165 C 1154.83 -0.0989684 -1.69812 0
M  V30 12166 O 1156.01 -0.282939 -1.92128 0
M  V30 12167 C 1153.14 -0.913684 -3.35066 0
M  V30 12168 C 1152.1 -1.98482 -3.79195 0
M  V30 12169 C 1151.42 -1.54033 -5.12033 0
M  V30 12170 C 1152.72 -3.39745 -3.96699 0
M  V30 12171 H 1154.42 -2.1503 -2.08333 0
M  V30 12172 H 1151.96 -1.03521 -1.00097 0
M  V30 12173 H 1153.92 -0.829821 -4.13149 0
M  V30 12174 H 1152.64 0.0613471 -3.26542 0
M  V30 12175 H 1151.3 -2.05851 -3.03349 0
M  V30 12176 H 1150.95 -0.553261 -4.99948 0
M  V30 12177 H 1150.65 -2.25688 -5.4253 0
M  V30 12178 H 1152.17 -1.47047 -5.92629 0
M  V30 12179 H 1153.59 -3.35071 -4.65188 0
M  V30 12180 H 1151.98 -4.09585 -4.38589 0
M  V30 12181 H 1153.05 -3.80802 -3.00196 0
M  V30 12182 N 1154.4 1.08748 -1.14068 0
M  V30 12183 C 1155.81 1.33125 -0.880341 0
M  V30 12184 C 1156.01 1.9569 0.480396 0
M  V30 12185 O 1155.07 2.2077 1.22543 0
M  V30 12186 C 1156.38 2.23618 -2.01036 0
M  V30 12187 C 1157.93 2.37108 -2.04326 0
M  V30 12188 C 1158.4 3.30941 -3.1661 0
M  V30 12189 N 1159.9 3.38517 -3.16166 0
M  V30 12190 C 1160.63 4.11142 -3.99687 0
M  V30 12191 N 1160.13 4.86505 -4.93239 0
M  V30 12192 N 1161.92 4.06938 -3.87761 0
M  V30 12193 H 1154.07 0.665164 -2.01716 0
M  V30 12194 H 1156.33 0.355612 -0.878774 0
M  V30 12195 H 1156.04 1.84885 -2.99183 0
M  V30 12196 H 1155.91 3.24056 -1.93049 0
M  V30 12197 H 1158.3 2.75101 -1.06787 0
M  V30 12198 H 1158.38 1.36424 -2.16384 0
M  V30 12199 H 1158.03 2.93669 -4.14392 0
M  V30 12200 H 1157.96 4.31545 -3.01789 0
M  V30 12201 H 1160.45 2.84786 -2.48405 0
M  V30 12202 H 1160.76 5.39372 -5.53441 0
M  V30 12203 H 1159.1 4.8557 -4.9724 0
M  V30 12204 H 1162.3 3.47166 -3.13996 0
M  V30 12205 H 1162.47 4.63275 -4.53079 0
M  V30 12206 N 1155.87 0.935264 1.26849 0
M  V30 12207 C 1157.15 0.497797 1.8916 0
M  V30 12208 C 1157.53 -1.02441 1.84578 0
M  V30 12209 O 1156.88 -1.88185 1.29609 0
M  V30 12210 C 1157.09 1.05244 3.32753 0
M  V30 12211 C 1158.44 1.11751 4.0963 0
M  V30 12212 O 1159.46 1.0026 3.41799 0
M  V30 12213 O 1158.32 1.29548 5.30923 0
M  V30 12214 H 1155.41 0.161322 0.811113 0
M  V30 12215 H 1157.96 1.02744 1.35062 0
M  V30 12216 H 1156.73 2.09617 3.30419 0
M  V30 12217 H 1156.36 0.504889 3.94381 0
M  V30 12218 N 1157.35 -1.41121 0.701616 0
M  V30 12219 C 1158.58 -2.05973 0.242896 0
M  V30 12220 C 1159 -1.52474 -1.10151 0
M  V30 12221 O 1158.36 -0.654224 -1.69085 0
M  V30 12222 C 1158.41 -3.59943 0.217614 0
M  V30 12223 O 1157.51 -4.04454 -0.805629 0
M  V30 12224 H 1156.85 -0.653581 0.117166 0
M  V30 12225 H 1159.38 -1.80777 0.958175 0
M  V30 12226 H 1159.39 -4.07969 0.0505267 0
M  V30 12227 H 1158.07 -3.98249 1.19877 0
M  V30 12228 H 1156.65 -3.6792 -0.607404 0
M  V30 12229 N 1158.83 -0.446794 -1.51134 0
M  V30 12230 C 1160.11 0.176892 -1.94798 0
M  V30 12231 C 1160.49 1.59229 -1.38598 0
M  V30 12232 O 1159.84 2.21097 -0.576905 0
M  V30 12233 C 1160.05 0.145 -3.48699 0
M  V30 12234 C 1161.39 0.345917 -4.23189 0
M  V30 12235 O 1162.42 0.222691 -3.55503 0
M  V30 12236 O 1161.28 0.592112 -5.43283 0
M  V30 12237 H 1158.37 0.12486 -0.81752 0
M  V30 12238 H 1160.92 -0.505453 -1.61998 0
M  V30 12239 H 1159.69 -0.844156 -3.82086 0
M  V30 12240 H 1159.31 0.869851 -3.87968 0
M  V30 12241 N 1160.31 1.56586 -0.178487 0
M  V30 12242 C 1161.54 2.01475 0.470684 0
M  V30 12243 C 1161.95 1.0587 1.56323 0
M  V30 12244 O 1161.31 0.060749 1.82399 0
M  V30 12245 C 1161.36 3.46145 1.04238 0
M  V30 12246 O 1161.08 4.381 -0.0065582 0
M  V30 12247 C 1162.58 4.06471 1.76908 0
M  V30 12248 H 1159.8 0.660219 0.119801 0
M  V30 12249 H 1162.35 2.02542 -0.282322 0
M  V30 12250 H 1160.5 3.45831 1.74585 0
M  V30 12251 H 1160.91 5.22843 0.416554 0
M  V30 12252 H 1162.39 5.096 2.12161 0
M  V30 12253 H 1162.87 3.48974 2.66672 0
M  V30 12254 H 1163.47 4.10509 1.11186 0
M  V30 12255 N 1161.79 -0.095206 1.57312 0
M  V30 12256 C 1163.01 -0.81614 1.90667 0
M  V30 12257 C 1163.44 -1.71494 0.772746 0
M  V30 12258 O 1162.79 -1.79192 -0.275682 0
M  V30 12259 C 1162.84 -1.60555 3.22885 0
M  V30 12260 O 1161.95 -2.71448 3.10467 0
M  V30 12261 H 1161.29 -0.224217 0.624998 0
M  V30 12262 H 1163.82 -0.070464 2.04479 0
M  V30 12263 H 1163.83 -1.98979 3.5619 0
M  V30 12264 H 1162.5 -0.945918 4.05 0
M  V30 12265 H 1161.08 -2.36053 2.88675 0
M  V30 12266 N 1163.26 -1.53291 -0.366026 0
M  V30 12267 C 1164.51 -1.68671 -1.10602 0
M  V30 12268 C 1164.83 -0.444793 -1.90476 0
M  V30 12269 O 1166.03 -0.479135 -2.67239 0
M  V30 12270 C 1164.49 -2.98174 -2.01545 0
M  V30 12271 C 1164.1 -4.29626 -1.26986 0
M  V30 12272 C 1165.84 -3.22921 -2.7554 0
M  V30 12273 C 1163.75 -5.50218 -2.16828 0
M  V30 12274 H 1162.68 -0.628456 -0.416604 0
M  V30 12275 H 1165.33 -1.79791 -0.367058 0
M  V30 12276 H 1163.71 -2.80855 -2.79171 0
M  V30 12277 H 1164.88 -4.57574 -0.544269 0
M  V30 12278 H 1163.2 -4.11318 -0.648558 0
M  V30 12279 H 1165.8 -4.10202 -3.42985 0
M  V30 12280 H 1166.14 -2.38964 -3.40884 0
M  V30 12281 H 1166.67 -3.40912 -2.04997 0
M  V30 12282 H 1163.41 -6.36651 -1.56063 0
M  V30 12283 H 1162.93 -5.26549 -2.87238 0
M  V30 12284 H 1164.61 -5.84991 -2.76396 0
M  V30 12285 N 1164.74 0.6258 -1.44643 0
M  V30 12286 C 1165.97 1.41726 -1.51422 0
M  V30 12287 C 1166.39 1.87565 -0.14181 0
M  V30 12288 O 1165.75 1.59059 0.870054 0
M  V30 12289 C 1165.8 2.61012 -2.48807 0
M  V30 12290 O 1164.9 3.61029 -1.99328 0
M  V30 12291 H 1164.24 0.423855 -0.511119 0
M  V30 12292 H 1166.77 0.763336 -1.89827 0
M  V30 12293 H 1166.78 3.08489 -2.67018 0
M  V30 12294 H 1165.46 2.26995 -3.48491 0
M  V30 12295 H 1164.04 3.20325 -1.90909 0
M  V30 12296 N 1166.22 1.31629 0.866686 0
M  V30 12297 C 1167.47 1.20861 1.61479 0
M  V30 12298 C 1167.78 -0.231208 1.94229 0
M  V30 12299 O 1168.99 -0.460618 2.67564 0
M  V30 12300 C 1167.44 2.11602 2.91123 0
M  V30 12301 C 1167.05 3.60598 2.65844 0
M  V30 12302 C 1168.8 2.09642 3.69121 0
M  V30 12303 C 1166.7 4.43337 3.91415 0
M  V30 12304 H 1165.63 0.448783 0.605896 0
M  V30 12305 H 1168.28 1.56507 0.958001 0
M  V30 12306 H 1166.67 1.68858 3.58194 0
M  V30 12307 H 1167.84 4.11609 2.07159 0
M  V30 12308 H 1166.16 3.64568 2.01194 0
M  V30 12309 H 1168.75 2.68701 4.62281 0
M  V30 12310 H 1169.1 1.08438 4.01929 0
M  V30 12311 H 1169.63 2.50603 3.08938 0
M  V30 12312 H 1166.37 5.45309 3.63756 0
M  V30 12313 H 1165.89 3.97083 4.49539 0
M  V30 12314 H 1167.57 4.5572 4.5927 0
M  V30 12315 N 1167.7 -1.08142 1.14644 0
M  V30 12316 C 1169.11 -1.62061 0.926986 0
M  V30 12317 C 1169.46 -1.88805 -0.533578 0
M  V30 12318 O 1168.59 -1.64753 -1.40305 0
M  V30 12319 C 1169.18 -2.94425 1.67629 0
M  V30 12320 C 1167.74 -3.45118 1.50235 0
M  V30 12321 C 1166.89 -2.19307 1.69705 0
M  V30 12322 H 1169.84 -0.913326 1.29785 0
M  V30 12323 H 1169.86 -3.62987 1.14107 0
M  V30 12324 H 1169.37 -2.74928 2.73927 0
M  V30 12325 H 1167.47 -3.69713 0.462967 0
M  V30 12326 H 1167.59 -4.2169 2.27408 0
M  V30 12327 H 1165.95 -2.28611 1.12291 0
M  V30 12328 H 1166.73 -2.02315 2.77351 0
M  V30 12329 N 1169.18 -0.941978 -1.26351 0
M  V30 12330 C 1170.4 -0.606231 -1.98342 0
M  V30 12331 C 1170.83 0.812014 -1.6967 0
M  V30 12332 O 1170.19 1.54712 -0.9452 0
M  V30 12333 C 1170.23 -0.855864 -3.50296 0
M  V30 12334 O 1169.34 0.0716251 -4.12338 0
M  V30 12335 H 1168.68 -0.231815 -0.62222 0
M  V30 12336 H 1171.21 -1.26513 -1.60797 0
M  V30 12337 H 1171.22 -0.777079 -4.00531 0
M  V30 12338 H 1169.89 -1.8896 -3.70496 0
M  V30 12339 H 1168.47 -0.0582866 -3.72854 0
M  V30 12340 N 1170.66 1.40747 -0.709091 0
M  V30 12341 C 1171.9 2.013 -0.246174 0
M  V30 12342 C 1172.23 1.56078 1.15556 0
M  V30 12343 O 1171.51 0.777941 1.78265 0
M  V30 12344 C 1171.79 3.58685 -0.318945 0
M  V30 12345 C 1171.65 4.13997 -1.75859 0
M  V30 12346 C 1172.96 4.38981 0.31358 0
M  V30 12347 H 1170.08 0.73137 -0.0909255 0
M  V30 12348 H 1172.73 1.67312 -0.900365 0
M  V30 12349 H 1170.88 3.8777 0.23805 0
M  V30 12350 H 1172.55 3.95735 -2.37047 0
M  V30 12351 H 1170.79 3.6853 -2.28841 0
M  V30 12352 H 1171.46 5.23158 -1.76095 0
M  V30 12353 H 1173.94 4.15789 -0.160939 0
M  V30 12354 H 1172.81 5.48409 0.232184 0
M  V30 12355 H 1173.07 4.19474 1.39621 0
M  V30 12356 N 1172.13 0.454803 1.50895 0
M  V30 12357 C 1173.41 -0.166559 1.9489 0
M  V30 12358 C 1173.79 -1.58492 1.3944 0
M  V30 12359 O 1173.14 -2.20788 0.588622 0
M  V30 12360 C 1173.35 -0.126506 3.48771 0
M  V30 12361 C 1174.7 -0.32347 4.23366 0
M  V30 12362 O 1175.72 -0.203835 3.55616 0
M  V30 12363 O 1174.58 -0.563292 5.43589 0
M  V30 12364 H 1171.67 -0.120523 0.818171 0
M  V30 12365 H 1174.22 0.514037 1.61727 0
M  V30 12366 H 1172.99 0.864407 3.81633 0
M  V30 12367 H 1172.61 -0.849264 3.88424 0
M  V30 12368 N 1173.61 -1.56489 0.186789 0
M  V30 12369 C 1174.56 -2.15311 -0.750024 0
M  V30 12370 C 1175.55 -1.09156 -1.18211 0
M  V30 12371 O 1176.74 -1.3524 -1.14189 0
M  V30 12372 C 1173.87 -2.80952 -1.97284 0
M  V30 12373 C 1172.95 -3.94286 -1.56204 0
M  V30 12374 N 1173.34 -4.98406 -0.861705 0
M  V30 12375 C 1171.64 -4.05733 -1.85194 0
M  V30 12376 C 1172.34 -5.77977 -0.657078 0
M  V30 12377 N 1171.32 -5.30116 -1.20326 0
M  V30 12378 H 1175.12 -2.93176 -0.206148 0
M  V30 12379 H 1172.63 -1.62395 -0.0133163 0
M  V30 12380 H 1174.63 -3.21479 -2.65437 0
M  V30 12381 H 1173.29 -2.04572 -2.52152 0
M  V30 12382 H 1174.3 -5.15302 -0.518067 0
M  V30 12383 H 1170.98 -3.40472 -2.4163 0
M  V30 12384 H 1172.37 -6.71822 -0.102123 0
M  V30 12385 N 1175.09 0.086862 -1.5736 0
M  V30 12386 C 1176 1.12297 -2.05977 0
M  V30 12387 C 1177.02 1.43347 -0.986284 0
M  V30 12388 O 1178.19 1.53825 -1.3 0
M  V30 12389 C 1175.26 2.42131 -2.4814 0
M  V30 12390 C 1174.32 2.18189 -3.69719 0
M  V30 12391 C 1173.55 3.41833 -4.09861 0
M  V30 12392 O 1173.77 4.50383 -3.50016 0
M  V30 12393 O 1172.71 3.30934 -5.02759 0
M  V30 12394 H 1176.53 0.740012 -2.94546 0
M  V30 12395 H 1174.12 0.29995 -1.46358 0
M  V30 12396 H 1176 3.18568 -2.75848 0
M  V30 12397 H 1174.68 2.79837 -1.62705 0
M  V30 12398 H 1173.58 1.39506 -3.47115 0
M  V30 12399 H 1174.92 1.85372 -4.55959 0
M  V30 12400 N 1176.57 1.53483 0.357892 0
M  V30 12401 C 1177.48 1.83434 1.4625 0
M  V30 12402 C 1178.49 0.723313 1.58254 0
M  V30 12403 O 1179.67 1.01416 1.74002 0
M  V30 12404 C 1176.73 2.0249 2.81423 0
M  V30 12405 C 1175.8 3.26378 2.78883 0
M  V30 12406 C 1175.03 3.44516 4.07608 0
M  V30 12407 O 1175.25 2.66787 5.04163 0
M  V30 12408 O 1174.19 4.37898 4.12952 0
M  V30 12409 H 1178.01 2.77294 1.23861 0
M  V30 12410 H 1175.6 1.38958 0.548722 0
M  V30 12411 H 1177.48 2.16552 3.61501 0
M  V30 12412 H 1176.15 1.11819 3.03773 0
M  V30 12413 H 1175.06 3.17733 1.97475 0
M  V30 12414 H 1176.39 4.16996 2.61486 0
M  V30 12415 N 1178.05 -0.61812 1.44973 0
M  V30 12416 C 1178.98 -1.74035 1.55673 0
M  V30 12417 C 1179.96 -1.65112 0.4089 0
M  V30 12418 O 1181.14 -1.83673 0.630698 0
M  V30 12419 C 1178.27 -3.1261 1.51303 0
M  V30 12420 C 1177.23 -3.36334 2.64696 0
M  V30 12421 C 1176.55 -4.75072 2.45378 0
M  V30 12422 C 1177.85 -3.27618 4.06772 0
M  V30 12423 H 1179.55 -1.65336 2.49608 0
M  V30 12424 H 1177.09 -0.794003 1.20132 0
M  V30 12425 H 1179.04 -3.90906 1.57388 0
M  V30 12426 H 1177.77 -3.22123 0.538914 0
M  V30 12427 H 1176.43 -2.60423 2.58022 0
M  V30 12428 H 1176.08 -4.81306 1.46129 0
M  V30 12429 H 1175.78 -4.91903 3.21412 0
M  V30 12430 H 1177.3 -5.55582 2.53301 0
M  V30 12431 H 1178.71 -3.95802 4.14746 0
M  V30 12432 H 1177.11 -3.55981 4.83113 0
M  V30 12433 H 1178.18 -2.25219 4.29423 0
M  V30 12434 N 1179.52 -1.32087 -0.859693 0
M  V30 12435 C 1180.43 -1.22587 -2.00024 0
M  V30 12436 C 1181.45 -0.140477 -1.73432 0
M  V30 12437 O 1182.63 -0.360213 -1.98153 0
M  V30 12438 C 1179.69 -0.944195 -3.33595 0
M  V30 12439 C 1178.75 -2.11752 -3.73443 0
M  V30 12440 C 1177.98 -1.84919 -5.0064 0
M  V30 12441 O 1178.21 -0.789299 -5.64913 0
M  V30 12442 O 1177.14 -2.70885 -5.37499 0
M  V30 12443 H 1180.97 -2.18457 -2.10974 0
M  V30 12444 H 1178.55 -1.11927 -0.989577 0
M  V30 12445 H 1180.43 -0.803389 -4.13671 0
M  V30 12446 H 1179.11 -0.0156083 -3.23696 0
M  V30 12447 H 1178.02 -2.31378 -2.93965 0
M  V30 12448 H 1179.35 -3.02872 -3.87981 0
M  V30 12449 N 1181 1.07532 -1.15215 0
M  V30 12450 C 1182.42 1.32183 -0.894411 0
M  V30 12451 C 1182.62 1.96188 0.459614 0
M  V30 12452 O 1181.67 2.22057 1.20195 0
M  V30 12453 C 1182.99 2.21473 -2.03397 0
M  V30 12454 C 1184.53 2.34927 -2.06829 0
M  V30 12455 C 1185.01 3.27564 -3.20103 0
M  V30 12456 N 1186.5 3.35144 -3.19738 0
M  V30 12457 C 1187.24 4.0688 -4.04025 0
M  V30 12458 N 1186.73 4.81246 -4.98371 0
M  V30 12459 N 1188.52 4.02802 -3.92055 0
M  V30 12460 H 1180.68 0.643732 -2.0241 0
M  V30 12461 H 1182.94 0.346272 -0.882496 0
M  V30 12462 H 1182.64 1.81701 -3.01127 0
M  V30 12463 H 1182.52 3.2199 -1.96475 0
M  V30 12464 H 1184.91 2.73953 -1.09699 0
M  V30 12465 H 1184.99 1.34121 -2.17819 0
M  V30 12466 H 1184.63 2.89258 -4.17483 0
M  V30 12467 H 1184.56 4.2832 -3.06349 0
M  V30 12468 H 1187.05 2.82135 -2.51412 0
M  V30 12469 H 1187.36 5.33472 -5.59131 0
M  V30 12470 H 1185.71 4.80268 -5.02362 0
M  V30 12471 H 1188.9 3.43816 -3.17661 0
M  V30 12472 H 1189.07 4.58443 -4.57967 0
M  V30 12473 N 1182.48 0.948665 1.2585 0
M  V30 12474 C 1183.71 0.616741 1.98018 0
M  V30 12475 C 1184.13 -0.803005 1.70098 0
M  V30 12476 O 1183.49 -1.54208 0.953392 0
M  V30 12477 C 1183.54 0.874429 3.49837 0
M  V30 12478 O 1182.64 -0.0497568 4.1237 0
M  V30 12479 H 1181.98 0.235112 0.620982 0
M  V30 12480 H 1184.51 1.27364 1.60124 0
M  V30 12481 H 1184.52 0.798309 4.00114 0
M  V30 12482 H 1183.2 1.90922 3.69488 0
M  V30 12483 H 1181.77 0.0780591 3.72818 0
M  V30 12484 N 1183.96 -1.40369 0.716545 0
M  V30 12485 C 1185.21 -2.00869 0.256466 0
M  V30 12486 C 1185.53 -1.56816 -1.15061 0
M  V30 12487 O 1184.79 -0.779696 -1.79497 0
M  V30 12488 C 1185.09 -3.56257 0.285583 0
M  V30 12489 C 1184.75 -4.19897 1.64309 0
M  V30 12490 C 1183.42 -4.36994 2.01469 0
M  V30 12491 C 1185.77 -4.55385 2.53524 0
M  V30 12492 C 1183.1 -4.86862 3.27387 0
M  V30 12493 C 1185.45 -5.06653 3.78795 0
M  V30 12494 C 1184.11 -5.21959 4.16071 0
M  V30 12495 H 1183.38 -0.735033 0.0938475 0
M  V30 12496 H 1186.03 -1.67966 0.919765 0
M  V30 12497 H 1184.33 -3.89075 -0.461287 0
M  V30 12498 H 1186.03 -4.00903 -0.0882496 0
M  V30 12499 H 1182.62 -4.06978 1.34413 0
M  V30 12500 H 1186.8 -4.41811 2.2609 0
M  V30 12501 H 1182.06 -4.96897 3.56235 0
M  V30 12502 H 1186.23 -5.33089 4.48095 0
M  V30 12503 H 1183.86 -5.60362 5.1371 0
M  V30 12504 N 1185.44 -0.462799 -1.50652 0
M  V30 12505 C 1186.66 0.0952726 -2.07181 0
M  V30 12506 C 1187.09 1.33479 -1.32533 0
M  V30 12507 O 1186.44 1.77473 -0.370564 0
M  V30 12508 C 1186.49 0.370592 -3.58691 0
M  V30 12509 O 1185.6 1.4526 -3.85971 0
M  V30 12510 H 1184.94 -0.00932702 -0.663934 0
M  V30 12511 H 1187.47 -0.651458 -1.93951 0
M  V30 12512 H 1187.48 0.613551 -4.0336 0
M  V30 12513 H 1186.15 -0.535219 -4.12442 0
M  V30 12514 H 1184.73 1.1976 -3.53146 0
M  V30 12515 N 1186.91 1.56388 -0.195085 0
M  V30 12516 C 1188.16 1.97189 0.44281 0
M  V30 12517 C 1188.48 1.08312 1.62153 0
M  V30 12518 O 1187.75 0.154404 1.95291 0
M  V30 12519 H 1186.33 0.728188 0.166585 0
M  V30 12520 H 1189 1.92852 -0.281815 0
M  V30 12521 H 1188.09 3.02016 0.786945 0
M  V30 12522 N 1188.39 -0.0785156 1.57404 0
M  V30 12523 C 1189.64 -0.778938 1.86919 0
M  V30 12524 C 1189.97 -1.77915 0.785906 0
M  V30 12525 O 1189.22 -1.94473 -0.218811 0
M  V30 12526 C 1189.52 -1.52826 3.23078 0
M  V30 12527 C 1189.19 -0.668645 4.45915 0
M  V30 12528 C 1187.85 -0.43173 4.79259 0
M  V30 12529 C 1190.2 -0.0721327 5.2115 0
M  V30 12530 C 1187.53 0.41129 5.85257 0
M  V30 12531 C 1189.88 0.758303 6.28039 0
M  V30 12532 C 1188.55 1.00515 6.59889 0
M  V30 12533 H 1187.82 -0.285034 0.683986 0
M  V30 12534 H 1190.46 -0.039906 1.91458 0
M  V30 12535 H 1188.77 -2.33931 3.14299 0
M  V30 12536 H 1190.46 -2.07488 3.43147 0
M  V30 12537 H 1187.05 -0.863424 4.19813 0
M  V30 12538 H 1191.24 -0.242297 4.95708 0
M  V30 12539 H 1186.49 0.611354 6.08336 0
M  V30 12540 H 1190.67 1.2273 6.855 0
M  V30 12541 H 1188.3 1.66017 7.41851 0
M  V30 12542 N 1189.87 -1.5367 -0.349747 0
M  V30 12543 C 1191.1 -1.74858 -1.11532 0
M  V30 12544 C 1191.52 -0.483591 -1.81777 0
M  V30 12545 O 1190.88 0.563399 -1.72324 0
M  V30 12546 C 1190.93 -2.92479 -2.10923 0
M  V30 12547 O 1190.03 -2.62194 -3.18321 0
M  V30 12548 H 1189.37 -0.580219 -0.322865 0
M  V30 12549 H 1191.9 -2.00611 -0.402033 0
M  V30 12550 H 1191.91 -3.19093 -2.54252 0
M  V30 12551 H 1190.59 -3.84228 -1.59191 0
M  V30 12552 H 1189.16 -2.46448 -2.79853 0
M  V30 12553 N 1191.35 0.610423 -1.45298 0
M  V30 12554 C 1192.6 1.36558 -1.48441 0
M  V30 12555 C 1192.91 1.95173 -0.129137 0
M  V30 12556 O 1194.12 2.71473 -0.0381956 0
M  V30 12557 C 1192.57 2.47349 -2.61431 0
M  V30 12558 C 1192.18 1.95158 -4.03258 0
M  V30 12559 C 1193.92 3.24383 -2.73817 0
M  V30 12560 C 1191.83 3.03414 -5.07635 0
M  V30 12561 H 1190.76 0.513253 -0.552347 0
M  V30 12562 H 1193.41 0.654535 -1.7143 0
M  V30 12563 H 1191.79 3.21125 -2.31721 0
M  V30 12564 H 1192.97 1.2811 -4.42634 0
M  V30 12565 H 1191.28 1.30878 -3.95297 0
M  V30 12566 H 1193.88 4.05123 -3.48969 0
M  V30 12567 H 1194.22 3.75205 -1.80352 0
M  V30 12568 H 1194.76 2.57705 -3.03039 0
M  V30 12569 H 1191.5 2.57512 -6.028 0
M  V30 12570 H 1191.02 3.69039 -4.72833 0
M  V30 12571 H 1192.69 3.67844 -5.32259 0
M  V30 12572 N 1192.83 1.32541 0.852676 0
M  V30 12573 C 1194.05 1.2636 1.64462 0
M  V30 12574 C 1194.48 -0.16508 1.87374 0
M  V30 12575 O 1193.83 -1.11712 1.42794 0
M  V30 12576 C 1193.88 2.03052 2.97997 0
M  V30 12577 O 1192.99 1.37967 3.88637 0
M  V30 12578 H 1192.33 0.435393 0.501327 0
M  V30 12579 H 1194.86 1.74888 1.06186 0
M  V30 12580 H 1194.87 2.133 3.47803 0
M  V30 12581 H 1193.54 3.06941 2.80642 0
M  V30 12582 H 1192.12 1.36279 3.47106 0
M  V30 12583 N 1194.3 -1.0692 1.15784 0
M  V30 12584 C 1195.24 -2.14168 0.816375 0
M  V30 12585 C 1196.25 -1.61872 -0.17357 0
M  V30 12586 O 1197.44 -1.78429 0.0502973 0
M  V30 12587 C 1194.54 -3.38346 0.193682 0
M  V30 12588 C 1193.71 -4.19979 1.22215 0
M  V30 12589 C 1192.77 -5.2253 0.620424 0
M  V30 12590 O 1191.8 -5.54446 1.28757 0
M  V30 12591 N 1193 -5.77434 -0.595811 0
M  V30 12592 H 1195.76 -2.44062 1.73937 0
M  V30 12593 H 1193.32 -1.22865 1.05431 0
M  V30 12594 H 1195.32 -4.04092 -0.22174 0
M  V30 12595 H 1193.89 -3.06129 -0.632735 0
M  V30 12596 H 1193.11 -3.49984 1.81397 0
M  V30 12597 H 1194.39 -4.71329 1.91641 0
M  V30 12598 H 1193.79 -5.5376 -1.15611 0
M  V30 12599 H 1192.35 -6.44788 -0.953529 0
M  V30 12600 N 1195.78 -0.955326 -1.25345 0
M  V30 12601 C 1197.01 -0.627233 -1.97688 0
M  V30 12602 C 1197.43 0.793973 -1.70522 0
M  V30 12603 O 1196.79 1.537 -0.961556 0
M  V30 12604 C 1196.84 -0.892969 -3.49369 0
M  V30 12605 O 1195.94 0.0278871 -4.12391 0
M  V30 12606 H 1195.28 -0.238402 -0.619726 0
M  V30 12607 H 1197.81 -1.28211 -1.59446 0
M  V30 12608 H 1197.82 -0.819517 -3.99685 0
M  V30 12609 H 1196.5 -1.92879 -3.6847 0
M  V30 12610 H 1195.08 -0.0978295 -3.72772 0
M  V30 12611 N 1197.26 1.39987 -0.723979 0
M  V30 12612 C 1198.21 2.30672 -0.0768286 0
M  V30 12613 C 1199.18 1.48634 0.741422 0
M  V30 12614 O 1200.36 1.77351 0.703649 0
M  V30 12615 C 1197.5 3.34902 0.832729 0
M  V30 12616 C 1196.62 4.32 0.00304942 0
M  V30 12617 C 1195.75 5.23298 0.91286 0
M  V30 12618 C 1194.79 6.12051 0.0777706 0
M  V30 12619 N 1193.93 6.9574 0.942912 0
M  V30 12620 H 1198.77 2.85446 -0.855832 0
M  V30 12621 H 1196.3 1.40561 -0.433718 0
M  V30 12622 H 1198.26 3.93911 1.37441 0
M  V30 12623 H 1196.89 2.81611 1.57782 0
M  V30 12624 H 1195.94 3.74702 -0.655916 0
M  V30 12625 H 1197.26 4.94637 -0.643124 0
M  V30 12626 H 1196.41 5.87279 1.52277 0
M  V30 12627 H 1195.15 4.60956 1.59284 0
M  V30 12628 H 1194.15 5.47092 -0.545022 0
M  V30 12629 H 1195.38 6.76455 -0.598827 0
M  V30 12630 H 1193.33 6.35977 1.60838 0
M  V30 12631 H 1193.24 7.55176 0.352968 0
M  V30 12632 H 1194.51 7.64162 1.53874 0
M  V30 12633 N 1198.74 0.470782 1.50404 0
M  V30 12634 C 1199.65 -0.328877 2.32283 0
M  V30 12635 C 1200.67 -0.99629 1.42654 0
M  V30 12636 O 1201.84 -0.984331 1.75707 0
M  V30 12637 C 1198.91 -1.39675 3.1732 0
M  V30 12638 C 1197.97 -0.745965 4.22769 0
M  V30 12639 C 1197.2 -1.76295 5.03742 0
M  V30 12640 O 1197.42 -2.98943 4.85788 0
M  V30 12641 O 1196.36 -1.33495 5.86909 0
M  V30 12642 H 1200.18 0.340491 3.01785 0
M  V30 12643 H 1197.77 0.232637 1.47578 0
M  V30 12644 H 1199.65 -2.0153 3.70086 0
M  V30 12645 H 1198.33 -2.04959 2.50546 0
M  V30 12646 H 1197.23 -0.0884647 3.73995 0
M  V30 12647 H 1198.57 -0.136074 4.92012 0
M  V30 12648 N 1200.22 -1.56282 0.203376 0
M  V30 12649 C 1201.17 -2.20822 -0.730784 0
M  V30 12650 C 1202.16 -1.18193 -1.21354 0
M  V30 12651 O 1203.37 -1.36318 -1.17547 0
M  V30 12652 H 1199.74 -0.707792 -0.254036 0
M  V30 12653 H 1201.71 -2.97955 -0.162825 0
M  V30 12654 C 1200.46 -2.88803 -1.93618 0
M  V30 12655 H 1199.78 -3.67521 -1.57379 0
M  V30 12656 H 1201.22 -3.37387 -2.56799 0
M  V30 12657 C 1199.68 -1.90285 -2.78017 0
M  V30 12658 O 1200.21 -1.40833 -3.76203 0
M  V30 12659 N 1198.42 -1.58332 -2.43679 0
M  V30 12660 H 1197.97 -1.9874 -1.63891 0
M  V30 12661 H 1197.92 -0.926722 -3.00432 0
M  V30 12662 N 1201.7 0.070167 -1.57444 0
M  V30 12663 C 1202.63 1.08351 -2.06839 0
M  V30 12664 C 1203.61 1.40269 -0.962224 0
M  V30 12665 O 1204.79 1.49867 -1.23505 0
M  V30 12666 C 1201.92 2.39649 -2.51368 0
M  V30 12667 C 1200.88 2.22079 -3.65875 0
M  V30 12668 C 1200.2 3.58776 -3.96464 0
M  V30 12669 C 1201.5 1.64069 -4.95862 0
M  V30 12670 H 1203.2 0.672465 -2.9175 0
M  V30 12671 H 1200.74 0.322027 -1.40353 0
M  V30 12672 H 1202.69 3.10833 -2.84537 0
M  V30 12673 H 1201.42 2.82736 -1.63487 0
M  V30 12674 H 1200.08 1.53337 -3.32992 0
M  V30 12675 H 1199.73 3.99436 -3.05712 0
M  V30 12676 H 1199.43 3.47859 -4.7357 0
M  V30 12677 H 1200.95 4.31387 -4.32131 0
M  V30 12678 H 1202.36 2.2512 -5.27251 0
M  V30 12679 H 1200.76 1.63843 -5.773 0
M  V30 12680 H 1201.83 0.60232 -4.81145 0
M  V30 12681 N 1203.17 1.53854 0.341593 0
M  V30 12682 C 1204.45 1.61823 1.09875 0
M  V30 12683 C 1204.83 0.440711 2.06448 0
M  V30 12684 O 1204.18 -0.566833 2.21358 0
M  V30 12685 C 1204.39 2.9799 1.81668 0
M  V30 12686 C 1205.74 3.53411 2.35341 0
M  V30 12687 O 1206.76 3.00177 1.91761 0
M  V30 12688 O 1205.62 4.4653 3.15076 0
M  V30 12689 H 1202.71 0.654599 0.5054 0
M  V30 12690 H 1205.26 1.66199 0.342929 0
M  V30 12691 H 1204.03 3.7513 1.11323 0
M  V30 12692 H 1203.65 2.97213 2.64103 0
M  V30 12693 N 1204.65 -0.602709 1.4562 0
M  V30 12694 C 1205.61 -1.69508 1.54271 0
M  V30 12695 C 1206.61 -1.55171 0.421727 0
M  V30 12696 O 1207.8 -1.60151 0.685375 0
M  V30 12697 C 1204.94 -3.0881 1.44392 0
M  V30 12698 H 1206.13 -1.63203 2.51605 0
M  V30 12699 H 1203.68 -0.818857 1.33133 0
M  V30 12700 H 1204.42 -3.20689 0.482614 0
M  V30 12701 H 1204.2 -3.20625 2.25704 0
M  V30 12702 H 1205.69 -3.8837 1.53488 0
M  V30 12703 N 1206.13 -1.32992 -0.845635 0
M  V30 12704 C 1207.06 -1.25301 -1.97033 0
M  V30 12705 C 1208.04 -0.134966 -1.69564 0
M  V30 12706 O 1209.23 -0.323629 -1.91484 0
M  V30 12707 C 1206.36 -0.984551 -3.33052 0
M  V30 12708 C 1205.31 -2.06481 -3.749 0
M  V30 12709 C 1204.64 -1.6486 -5.08651 0
M  V30 12710 C 1205.94 -3.48083 -3.89404 0
M  V30 12711 H 1207.63 -2.194 -2.03725 0
M  V30 12712 H 1205.18 -1.05621 -0.978783 0
M  V30 12713 H 1207.13 -0.917269 -4.11296 0
M  V30 12714 H 1205.85 -0.00793116 -3.26599 0
M  V30 12715 H 1204.51 -2.1224 -2.98915 0
M  V30 12716 H 1204.16 -0.659183 -4.98662 0
M  V30 12717 H 1203.86 -2.37145 -5.37621 0
M  V30 12718 H 1205.38 -1.59585 -5.89377 0
M  V30 12719 H 1206.8 -3.44863 -4.57976 0
M  V30 12720 H 1205.19 -4.18796 -4.29802 0
M  V30 12721 H 1206.26 -3.87084 -2.92051 0
M  V30 12722 N 1207.61 1.06304 -1.1635 0
M  V30 12723 C 1208.56 2.15879 -0.865967 0
M  V30 12724 C 1209.55 1.68595 0.164929 0
M  V30 12725 O 1210.76 1.7999 0.0189271 0
M  V30 12726 H 1207.13 0.704721 -0.262435 0
M  V30 12727 H 1209.1 2.38185 -1.79751 0
M  V30 12728 C 1207.85 3.4558 -0.383374 0
M  V30 12729 H 1207.17 3.82356 -1.16806 0
M  V30 12730 H 1208.61 4.2346 -0.213964 0
M  V30 12731 C 1207.07 3.24738 0.897044 0
M  V30 12732 O 1207.6 3.50284 1.96632 0
M  V30 12733 N 1205.81 2.78172 0.840761 0
M  V30 12734 H 1205.36 2.57583 -0.029584 0
M  V30 12735 H 1205.31 2.64606 1.69797 0
M  V30 12736 N 1209.09 0.96196 1.24836 0
M  V30 12737 C 1210.31 0.637709 1.97353 0
M  V30 12738 C 1210.74 -0.784919 1.7094 0
M  V30 12739 O 1210.09 -1.53188 0.969694 0
M  V30 12740 C 1210.14 0.911485 3.4889 0
M  V30 12741 O 1209.25 -0.00601668 4.124 0
M  V30 12742 H 1208.59 0.241685 0.618453 0
M  V30 12743 H 1211.12 1.29055 1.58764 0
M  V30 12744 H 1211.13 0.840702 3.99245 0
M  V30 12745 H 1209.8 1.9483 3.67442 0
M  V30 12746 H 1208.38 0.117597 3.72715 0
M  V30 12747 N 1210.56 -1.39601 0.731392 0
M  V30 12748 C 1211.8 -2.0244 0.282387 0
M  V30 12749 C 1212.17 -1.56776 -1.10839 0
M  V30 12750 O 1213.37 -2.11788 -1.65527 0
M  V30 12751 C 1211.64 -3.55409 0.376704 0
M  V30 12752 S 1213.2 -4.38799 0.00700932 0
M  V30 12753 H 1210.02 -0.7023 0.110886 0
M  V30 12754 H 1212.62 -1.70469 0.957111 0
M  V30 12755 H 1211.32 -3.86134 1.39027 0
M  V30 12756 H 1210.85 -3.92129 -0.315963 0
M  V30 12757 H 1212.87 -4.81213 -1.21032 0
M  V30 12758 N 1212.04 -0.478751 -1.50152 0
M  V30 12759 C 1213.27 0.0709455 -2.06478 0
M  V30 12760 C 1213.68 1.33376 -1.34192 0
M  V30 12761 O 1213.02 1.79133 -0.40707 0
M  V30 12762 C 1213.09 0.417322 -3.5707 0
M  V30 12763 C 1212.75 -0.744563 -4.50894 0
M  V30 12764 C 1213.75 -1.62879 -4.93727 0
M  V30 12765 C 1211.43 -0.937062 -4.93482 0
M  V30 12766 C 1213.43 -2.68985 -5.77863 0
M  V30 12767 C 1211.11 -2.00134 -5.77399 0
M  V30 12768 C 1212.11 -2.87609 -6.19492 0
M  V30 12769 O 1211.8 -3.92203 -7.01735 0
M  V30 12770 H 1211.53 -0.00720177 -0.675962 0
M  V30 12771 H 1214.08 -0.668797 -1.94207 0
M  V30 12772 H 1212.31 1.21036 -3.6727 0
M  V30 12773 H 1214 0.903002 -3.95728 0
M  V30 12774 H 1214.77 -1.49179 -4.61488 0
M  V30 12775 H 1210.65 -0.265636 -4.60234 0
M  V30 12776 H 1214.19 -3.37293 -6.10639 0
M  V30 12777 H 1210.09 -2.13837 -6.09052 0
M  V30 12778 H 1210.86 -3.89284 -7.2 0
M  V30 12779 N 1213.52 1.56172 -0.211661 0
M  V30 12780 C 1214.48 2.18602 0.688906 0
M  V30 12781 C 1215.48 1.14508 1.12892 0
M  V30 12782 O 1216.67 1.39799 1.03932 0
M  V30 12783 C 1213.81 2.80141 1.94253 0
M  V30 12784 H 1215 2.9955 0.144765 0
M  V30 12785 H 1212.55 1.56254 0.0379615 0
M  V30 12786 H 1213.29 2.03035 2.52878 0
M  V30 12787 H 1213.07 3.56358 1.63558 0
M  V30 12788 H 1214.56 3.28026 2.58436 0
M  V30 12789 N 1215 -0.0618163 1.57479 0
M  V30 12790 C 1215.96 -1.05684 2.0338 0
M  V30 12791 C 1216.96 -1.31006 0.932423 0
M  V30 12792 O 1218.15 -1.26559 1.19702 0
M  V30 12793 C 1215.28 -2.39805 2.42294 0
M  V30 12794 H 1216.48 -0.661006 2.92525 0
M  V30 12795 H 1214.03 -0.307814 1.53239 0
M  V30 12796 H 1214.76 -2.84201 1.56207 0
M  V30 12797 H 1214.55 -2.22764 3.22674 0
M  V30 12798 H 1216.04 -3.11307 2.78349 0
M  V30 12799 N 1216.48 -1.54033 -0.333429 0
M  V30 12800 C 1217.72 -1.72019 -1.07411 0
M  V30 12801 C 1218.06 -0.487265 -1.87988 0
M  V30 12802 O 1217.33 0.515757 -1.87537 0
M  V30 12803 C 1217.61 -2.98986 -2.00698 0
M  V30 12804 C 1217.47 -4.32509 -1.23517 0
M  V30 12805 C 1218.79 -3.21663 -3.00368 0
M  V30 12806 H 1215.9 -0.625919 -0.389094 0
M  V30 12807 H 1218.55 -1.86717 -0.351697 0
M  V30 12808 H 1216.7 -2.86586 -2.62298 0
M  V30 12809 H 1218.37 -4.56775 -0.644522 0
M  V30 12810 H 1216.61 -4.3046 -0.537298 0
M  V30 12811 H 1217.28 -5.17547 -1.91962 0
M  V30 12812 H 1219.76 -3.33459 -2.48886 0
M  V30 12813 H 1218.63 -4.11877 -3.62834 0
M  V30 12814 H 1218.9 -2.3843 -3.72295 0
M  V30 12815 N 1217.95 0.594978 -1.45938 0
M  V30 12816 C 1218.92 1.68688 -1.55168 0
M  V30 12817 C 1219.92 1.54945 -0.429951 0
M  V30 12818 O 1221.11 1.59785 -0.693859 0
M  V30 12819 C 1218.24 3.0804 -1.46027 0
M  V30 12820 H 1219.43 1.61866 -2.52467 0
M  V30 12821 H 1216.99 0.811785 -1.33565 0
M  V30 12822 H 1217.72 3.20428 -0.499614 0
M  V30 12823 H 1217.51 3.19423 -2.27401 0
M  V30 12824 H 1219 3.8755 -1.55546 0
M  V30 12825 N 1219.43 1.33438 0.838571 0
M  V30 12826 C 1220.84 1.22366 1.41009 0
M  V30 12827 C 1221.19 -0.157317 1.95568 0
M  V30 12828 O 1220.32 -1.05692 1.88834 0
M  V30 12829 C 1220.91 2.21542 2.56329 0
M  V30 12830 C 1219.47 2.14309 3.09433 0
M  V30 12831 C 1218.62 2.09012 1.82235 0
M  V30 12832 H 1221.57 1.45032 0.64431 0
M  V30 12833 H 1221.59 1.82332 3.33969 0
M  V30 12834 H 1221.1 3.22042 2.16589 0
M  V30 12835 H 1219.21 1.17113 3.53717 0
M  V30 12836 H 1219.32 3.04866 3.69586 0
M  V30 12837 H 1217.68 1.54492 2.02495 0
M  V30 12838 H 1218.47 3.11319 1.4469 0
M  V30 12839 N 1220.91 -1.05686 1.16912 0
M  V30 12840 C 1222.15 -1.80177 0.965182 0
M  V30 12841 C 1222.51 -1.85437 -0.497698 0
M  V30 12842 O 1223.72 -2.5597 -0.82054 0
M  V30 12843 C 1221.99 -3.20441 1.58279 0
M  V30 12844 S 1223.55 -4.11472 1.52435 0
M  V30 12845 H 1220.36 -0.620595 0.346962 0
M  V30 12846 H 1222.97 -1.26841 1.48767 0
M  V30 12847 H 1221.67 -3.14211 2.64006 0
M  V30 12848 H 1221.2 -3.78853 1.05989 0
M  V30 12849 H 1223.22 -4.93373 0.528876 0
M  V30 12850 N 1222.39 -0.968567 -1.24324 0
M  V30 12851 C 1223.35 -0.504307 -2.23583 0
M  V30 12852 C 1224.35 0.399626 -1.55755 0
M  V30 12853 O 1225.54 0.194966 -1.73106 0
M  V30 12854 C 1222.67 0.26956 -3.39833 0
M  V30 12855 H 1223.87 -1.3818 -2.6617 0
M  V30 12856 H 1221.42 -0.753241 -1.36952 0
M  V30 12857 H 1222.15 1.16411 -3.02686 0
M  V30 12858 H 1221.94 -0.379133 -3.90263 0
M  V30 12859 H 1223.43 0.583376 -4.13505 0
M  V30 12860 N 1223.87 1.39211 -0.738786 0
M  V30 12861 C 1224.81 2.30578 -0.10129 0
M  V30 12862 C 1225.78 1.49412 0.725616 0
M  V30 12863 O 1226.97 1.78087 0.684799 0
M  V30 12864 C 1224.11 3.35767 0.797161 0
M  V30 12865 C 1223.22 4.31979 -0.0427701 0
M  V30 12866 C 1222.36 5.24236 0.857306 0
M  V30 12867 C 1221.4 6.12099 0.0128501 0
M  V30 12868 N 1220.53 6.96701 0.869067 0
M  V30 12869 H 1225.37 2.84522 -0.88606 0
M  V30 12870 H 1222.91 1.40093 -0.448602 0
M  V30 12871 H 1224.87 3.95347 1.33255 0
M  V30 12872 H 1223.5 2.83268 1.54787 0
M  V30 12873 H 1222.55 3.73986 -0.695622 0
M  V30 12874 H 1223.86 4.93927 -0.69555 0
M  V30 12875 H 1223.02 5.88861 1.4604 0
M  V30 12876 H 1221.75 4.62619 1.54386 0
M  V30 12877 H 1220.76 5.46483 -0.603018 0
M  V30 12878 H 1221.98 6.75781 -0.67054 0
M  V30 12879 H 1219.93 6.37647 1.54084 0
M  V30 12880 H 1219.85 7.55507 0.272852 0
M  V30 12881 H 1221.12 7.65751 1.4576 0
M  V30 12882 N 1225.34 0.486708 1.49896 0
M  V30 12883 C 1226.59 -0.0629451 2.02702 0
M  V30 12884 C 1226.92 -1.37956 1.36681 0
M  V30 12885 O 1226.2 -1.88025 0.497678 0
M  V30 12886 C 1226.48 -0.230461 3.59362 0
M  V30 12887 C 1226.33 1.10828 4.35933 0
M  V30 12888 C 1227.65 -0.977785 4.29101 0
M  V30 12889 H 1224.77 -0.0214017 0.736689 0
M  V30 12890 H 1227.41 0.635339 1.79063 0
M  V30 12891 H 1225.56 -0.825222 3.79634 0
M  V30 12892 H 1227.24 1.74082 4.27192 0
M  V30 12893 H 1225.48 1.7011 3.99055 0
M  V30 12894 H 1226.15 0.944532 5.43859 0
M  V30 12895 H 1228.63 -0.473505 4.13397 0
M  V30 12896 H 1227.5 -1.06382 5.38492 0
M  V30 12897 H 1227.76 -2.01813 3.9335 0
M  V30 12898 N 1226.82 -1.56058 0.219941 0
M  V30 12899 C 1228.24 -1.59024 -0.135476 0
M  V30 12900 C 1228.44 -1.23672 -1.59083 0
M  V30 12901 O 1227.5 -0.971197 -2.33075 0
M  V30 12902 C 1228.81 -3.00103 0.189356 0
M  V30 12903 C 1230.36 -3.12724 0.131463 0
M  V30 12904 C 1230.83 -4.55977 0.429947 0
M  V30 12905 N 1232.32 -4.61643 0.37946 0
M  V30 12906 C 1233.06 -5.70419 0.58393 0
M  V30 12907 N 1232.55 -6.87565 0.850088 0
M  V30 12908 N 1234.35 -5.59722 0.516477 0
M  V30 12909 H 1226.5 -1.77313 1.16935 0
M  V30 12910 H 1228.76 -0.824096 0.468583 0
M  V30 12911 H 1228.47 -3.30616 1.19941 0
M  V30 12912 H 1228.34 -3.73919 -0.49641 0
M  V30 12913 H 1230.73 -2.82008 -0.869223 0
M  V30 12914 H 1230.81 -2.41241 0.85068 0
M  V30 12915 H 1230.45 -4.8741 1.42806 0
M  V30 12916 H 1230.38 -5.25684 -0.310444 0
M  V30 12917 H 1232.87 -3.77465 0.181373 0
M  V30 12918 H 1233.19 -7.66378 0.994251 0
M  V30 12919 H 1231.53 -6.89313 0.887265 0
M  V30 12920 H 1234.72 -4.6708 0.308784 0
M  V30 12921 H 1234.9 -6.4443 0.679236 0
M  V30 12922 N 1228.3 0.053464 -1.57509 0
M  V30 12923 C 1229.71 0.603099 -1.76691 0
M  V30 12924 C 1230.06 1.76934 -0.847861 0
M  V30 12925 O 1229.19 2.16369 -0.0364962 0
M  V30 12926 C 1229.78 1.10084 -3.20417 0
M  V30 12927 C 1228.34 1.59618 -3.4088 0
M  V30 12928 C 1227.49 0.523516 -2.72313 0
M  V30 12929 H 1230.44 -0.172751 -1.57757 0
M  V30 12930 H 1230.46 1.9691 -3.25587 0
M  V30 12931 H 1229.97 0.251818 -3.87282 0
M  V30 12932 H 1228.07 2.46786 -2.79155 0
M  V30 12933 H 1228.19 1.6605 -4.49404 0
M  V30 12934 H 1226.55 0.972886 -2.35387 0
M  V30 12935 H 1227.33 -0.315629 -3.41846 0
M  V30 12936 N 1229.78 1.54207 0.325255 0
M  V30 12937 C 1231.01 1.76037 1.08141 0
M  V30 12938 C 1231.42 0.50816 1.82248 0
M  V30 12939 O 1230.76 -0.530709 1.75867 0
M  V30 12940 C 1230.82 2.89876 2.12632 0
M  V30 12941 C 1230.49 4.28841 1.57937 0
M  V30 12942 C 1231.48 5.09755 1.02205 0
M  V30 12943 C 1229.17 4.7538 1.62232 0
M  V30 12944 C 1231.16 6.35317 0.514929 0
M  V30 12945 C 1228.85 6.0091 1.11132 0
M  V30 12946 C 1229.85 6.80712 0.558575 0
M  V30 12947 O 1229.54 8.03881 0.05526 0
M  V30 12948 H 1229.27 0.591332 0.327571 0
M  V30 12949 H 1231.82 2.019 0.377572 0
M  V30 12950 H 1230.05 2.59581 2.86627 0
M  V30 12951 H 1231.74 2.99505 2.73955 0
M  V30 12952 H 1232.51 4.74955 0.981954 0
M  V30 12953 H 1228.39 4.1331 2.04195 0
M  V30 12954 H 1231.93 6.97551 0.0828314 0
M  V30 12955 H 1227.83 6.35201 1.14848 0
M  V30 12956 H 1228.59 8.18322 0.170842 0
M  V30 12957 N 1231.26 -0.58723 1.46251 0
M  V30 12958 C 1232.51 -1.34179 1.50595 0
M  V30 12959 C 1232.82 -1.94943 0.160171 0
M  V30 12960 O 1234.03 -2.71378 0.0813797 0
M  V30 12961 C 1232.48 -2.43159 2.65333 0
M  V30 12962 C 1232.09 -1.88718 4.06312 0
M  V30 12963 C 1233.83 -3.19986 2.78943 0
M  V30 12964 C 1231.74 -2.953 5.12398 0
M  V30 12965 H 1230.67 -0.504401 0.560442 0
M  V30 12966 H 1233.32 -0.627179 1.72449 0
M  V30 12967 H 1231.7 -3.17398 2.368 0
M  V30 12968 H 1232.88 -1.21051 4.44616 0
M  V30 12969 H 1231.19 -1.24572 3.97329 0
M  V30 12970 H 1233.79 -3.9952 3.5537 0
M  V30 12971 H 1234.13 -3.72288 1.86298 0
M  V30 12972 H 1234.67 -2.52852 3.07101 0
M  V30 12973 H 1231.4 -2.4789 6.0682 0
M  V30 12974 H 1230.92 -3.61469 4.78644 0
M  V30 12975 H 1232.6 -3.5933 5.38044 0
M  V30 12976 N 1232.74 -1.33881 -0.831482 0
M  V30 12977 C 1233.7 -1.24654 -1.92339 0
M  V30 12978 C 1234.7 -0.163788 -1.59964 0
M  V30 12979 O 1235.89 -0.415829 -1.69164 0
M  V30 12980 C 1233.02 -0.922537 -3.2818 0
M  V30 12981 H 1234.21 -2.21717 -2.01944 0
M  V30 12982 H 1231.77 -1.18046 -1.02445 0
M  V30 12983 H 1232.5 0.0452872 -3.24268 0
M  V30 12984 H 1232.29 -1.70562 -3.53059 0
M  V30 12985 H 1233.78 -0.88292 -4.0816 0
M  V30 12986 N 1234.21 1.05064 -1.1747 0
M  V30 12987 C 1235.12 2.16346 -0.907286 0
M  V30 12988 C 1236.14 1.7355 0.125013 0
M  V30 12989 O 1237.32 2.01326 -0.0545551 0
M  V30 12990 C 1234.38 3.44077 -0.425681 0
M  V30 12991 C 1233.44 4.01311 -1.52473 0
M  V30 12992 C 1232.67 5.22946 -1.06601 0
M  V30 12993 O 1232.9 5.70345 0.0793329 0
M  V30 12994 O 1231.83 5.72454 -1.85958 0
M  V30 12995 H 1235.66 2.41754 -1.83817 0
M  V30 12996 H 1233.24 1.14834 -0.955693 0
M  V30 12997 H 1235.12 4.21078 -0.164689 0
M  V30 12998 H 1233.8 3.20166 0.477037 0
M  V30 12999 H 1232.71 3.25744 -1.83961 0
M  V30 13000 H 1234.04 4.29543 -2.4032 0
M  V30 13001 N 1235.69 0.975146 1.23809 0
M  V30 13002 C 1236.94 0.639858 1.91704 0
M  V30 13003 C 1237.26 -0.828557 1.76522 0
M  V30 13004 O 1236.53 -1.59217 1.14135 0
M  V30 13005 H 1235.11 0.233667 0.709513 0
M  V30 13006 H 1237.77 1.23782 1.50545 0
M  V30 13007 H 1236.87 0.886915 2.99233 0
M  V30 13008 N 1237.17 -1.38817 0.746158 0
M  V30 13009 C 1238.08 -2.34316 0.115386 0
M  V30 13010 C 1239.1 -1.58892 -0.709179 0
M  V30 13011 O 1240.27 -1.91126 -0.635059 0
M  V30 13012 C 1237.34 -3.37977 -0.772821 0
M  V30 13013 C 1236.4 -4.2925 0.0652679 0
M  V30 13014 C 1235.63 -5.2796 -0.78064 0
M  V30 13015 O 1235.85 -5.33474 -2.01896 0
M  V30 13016 O 1234.79 -6.01556 -0.20338 0
M  V30 13017 H 1238.61 -2.89937 0.903887 0
M  V30 13018 H 1236.2 -1.40536 0.506958 0
M  V30 13019 H 1238.08 -4.01468 -1.28068 0
M  V30 13020 H 1236.76 -2.84723 -1.53994 0
M  V30 13021 H 1235.66 -3.68945 0.61891 0
M  V30 13022 H 1237 -4.85739 0.794871 0
M  V30 13023 N 1238.65 -0.49465 -1.49636 0
M  V30 13024 C 1239.87 0.051305 -2.07337 0
M  V30 13025 C 1240.3 1.30637 -1.35335 0
M  V30 13026 O 1239.66 1.76647 -0.408126 0
M  V30 13027 C 1239.7 0.294425 -3.59396 0
M  V30 13028 O 1238.81 1.3704 -3.88965 0
M  V30 13029 H 1238.15 -0.023408 -0.663587 0
M  V30 13030 H 1240.68 -0.692451 -1.92526 0
M  V30 13031 H 1240.69 0.527854 -4.04571 0
M  V30 13032 H 1239.36 -0.622583 -4.11214 0
M  V30 13033 H 1237.94 1.12242 -3.55607 0
M  V30 13034 N 1240.13 1.55939 -0.228214 0
M  V30 13035 C 1241.4 1.90329 0.451033 0
M  V30 13036 C 1241.78 1.14646 1.77255 0
M  V30 13037 O 1241.13 0.257912 2.2704 0
M  V30 13038 C 1241.34 3.43129 0.637456 0
M  V30 13039 C 1242.69 4.14022 0.94186 0
M  V30 13040 O 1243.71 3.48764 0.724002 0
M  V30 13041 O 1242.57 5.29418 1.35568 0
M  V30 13042 H 1239.67 0.791591 0.2394 0
M  V30 13043 H 1242.21 1.67524 -0.270893 0
M  V30 13044 H 1240.98 3.90191 -0.294435 0
M  V30 13045 H 1240.61 3.71735 1.41062 0
M  V30 13046 N 1241.6 -0.0451101 1.57535 0
M  V30 13047 C 1242.83 -0.75132 1.92777 0
M  V30 13048 C 1243.25 -1.69743 0.826599 0
M  V30 13049 O 1242.6 -1.8142 -0.198224 0
M  V30 13050 C 1242.66 -1.52218 3.2789 0
M  V30 13051 O 1242.38 -0.614059 4.33775 0
M  V30 13052 C 1243.88 -2.32699 3.77314 0
M  V30 13053 H 1241.1 -0.21211 0.636593 0
M  V30 13054 H 1243.64 -0.0074174 2.04499 0
M  V30 13055 H 1241.8 -2.2181 3.17614 0
M  V30 13056 H 1242.21 -1.15294 5.11671 0
M  V30 13057 H 1243.68 -2.82205 4.7441 0
M  V30 13058 H 1244.16 -3.13414 3.07682 0
M  V30 13059 H 1244.77 -1.68212 3.90621 0
M  V30 13060 N 1243.08 -1.54377 -0.317073 0
M  V30 13061 C 1244.36 -1.63551 -1.07287 0
M  V30 13062 C 1244.74 -0.473499 -2.05721 0
M  V30 13063 O 1244.09 0.531545 -2.22232 0
M  V30 13064 C 1244.3 -3.00842 -1.76904 0
M  V30 13065 C 1245.65 -3.57111 -2.29689 0
M  V30 13066 O 1246.67 -3.0319 -1.86961 0
M  V30 13067 O 1245.53 -4.51486 -3.07932 0
M  V30 13068 H 1242.62 -0.662557 -0.494922 0
M  V30 13069 H 1245.17 -1.66723 -0.316444 0
M  V30 13070 H 1243.94 -3.76854 -1.05341 0
M  V30 13071 H 1243.56 -3.01377 -2.59341 0
M  V30 13072 N 1244.56 0.579466 -1.4656 0
M  V30 13073 C 1245.79 1.36837 -1.55854 0
M  V30 13074 C 1246.21 1.87019 -0.20141 0
M  V30 13075 O 1245.57 1.61746 0.81901 0
M  V30 13076 C 1245.62 2.52965 -2.56985 0
M  V30 13077 O 1244.72 3.54505 -2.10713 0
M  V30 13078 H 1244.06 0.407379 -0.524345 0
M  V30 13079 H 1246.59 0.702558 -1.9216 0
M  V30 13080 H 1246.6 2.99838 -2.76697 0
M  V30 13081 H 1245.28 2.15793 -3.55536 0
M  V30 13082 H 1243.85 3.14089 -2.01003 0
M  V30 13083 N 1246.04 1.3432 0.824371 0
M  V30 13084 C 1247.32 1.17178 1.56616 0
M  V30 13085 C 1247.7 -0.256195 2.0954 0
M  V30 13086 O 1247.04 -1.25732 1.90798 0
M  V30 13087 C 1247.25 2.22511 2.68867 0
M  V30 13088 C 1248.6 2.57414 3.37673 0
M  V30 13089 O 1249.63 2.2129 2.79122 0
M  V30 13090 O 1248.48 3.19462 4.43403 0
M  V30 13091 H 1245.58 0.454141 0.691147 0
M  V30 13092 H 1248.12 1.45948 0.865869 0
M  V30 13093 H 1246.9 3.18366 2.27505 0
M  V30 13094 H 1246.52 1.9491 3.46548 0
M  V30 13095 N 1247.52 -1.0444 1.18026 0
M  V30 13096 C 1248.45 -2.14297 0.927314 0
M  V30 13097 C 1249.43 -1.69575 -0.13357 0
M  V30 13098 O 1250.61 -1.94191 0.0182439 0
M  V30 13099 C 1247.74 -3.44397 0.448134 0
M  V30 13100 C 1246.7 -4.02723 1.44907 0
M  V30 13101 C 1246.02 -5.28257 0.827555 0
M  V30 13102 C 1247.32 -4.39331 2.82463 0
M  V30 13103 H 1249.02 -2.35715 1.84605 0
M  V30 13104 H 1246.56 -1.13281 0.889012 0
M  V30 13105 H 1248.52 -4.20606 0.258554 0
M  V30 13106 H 1247.24 -3.22654 -0.506159 0
M  V30 13107 H 1245.9 -3.28591 1.62552 0
M  V30 13108 H 1245.55 -5.02822 -0.13381 0
M  V30 13109 H 1245.25 -5.68242 1.49581 0
M  V30 13110 H 1246.77 -6.07147 0.64842 0
M  V30 13111 H 1248.18 -5.06543 2.68491 0
M  V30 13112 H 1246.58 -4.90355 3.45936 0
M  V30 13113 H 1247.65 -3.4933 3.36299 0
M  V30 13114 N 1248.99 -0.981699 -1.2329 0
M  V30 13115 C 1250.23 -0.659348 -1.93473 0
M  V30 13116 C 1250.6 0.792616 -1.74876 0
M  V30 13117 O 1251.8 1.22586 -2.3922 0
M  V30 13118 C 1250.07 -1.04065 -3.41914 0
M  V30 13119 S 1251.63 -0.834964 -4.30783 0
M  V30 13120 H 1248.45 -0.241428 -0.668755 0
M  V30 13121 H 1251.05 -1.26161 -1.49344 0
M  V30 13122 H 1249.75 -2.09398 -3.5296 0
M  V30 13123 H 1249.28 -0.429721 -3.91046 0
M  V30 13124 H 1251.3 0.280447 -4.95407 0
M  V30 13125 N 1250.47 1.3842 -0.753509 0
M  V30 13126 C 1251.7 2.04403 -0.320449 0
M  V30 13127 C 1252.12 1.5683 1.05118 0
M  V30 13128 O 1251.47 0.741335 1.66765 0
M  V30 13129 C 1251.52 3.59954 -0.333937 0
M  V30 13130 O 1251.24 4.05782 -1.65144 0
M  V30 13131 C 1252.75 4.43156 0.112997 0
M  V30 13132 H 1249.97 0.656881 -0.136927 0
M  V30 13133 H 1252.51 1.77112 -1.02234 0
M  V30 13134 H 1250.66 3.86083 0.319215 0
M  V30 13135 H 1251.08 5.00213 -1.57757 0
M  V30 13136 H 1252.55 5.51975 0.0523995 0
M  V30 13137 H 1253.03 4.23581 1.16087 0
M  V30 13138 H 1253.64 4.22216 -0.511278 0
M  V30 13139 N 1251.95 0.502579 1.49372 0
M  V30 13140 C 1253.36 0.055187 1.86618 0
M  V30 13141 C 1253.71 -1.35938 1.41476 0
M  V30 13142 O 1252.84 -2.01333 0.793338 0
M  V30 13143 C 1253.43 0.0933734 3.38671 0
M  V30 13144 C 1251.99 -0.298685 3.75213 0
M  V30 13145 C 1251.14 0.465216 2.7337 0
M  V30 13146 H 1254.09 0.715281 1.41667 0
M  V30 13147 H 1254.11 -0.701549 3.73977 0
M  V30 13148 H 1253.62 1.12303 3.71497 0
M  V30 13149 H 1251.72 -1.33151 3.47996 0
M  V30 13150 H 1251.84 0.0218637 4.79095 0
M  V30 13151 H 1250.2 -0.0851469 2.54558 0
M  V30 13152 H 1250.98 1.49498 3.09039 0
M  V30 13153 N 1253.43 -1.55816 0.23648 0
M  V30 13154 C 1254.67 -2.0059 -0.39281 0
M  V30 13155 C 1255.03 -1.12092 -1.55883 0
M  V30 13156 O 1256.23 -1.46277 -2.25514 0
M  V30 13157 C 1254.5 -3.48281 -0.80219 0
M  V30 13158 S 1256.06 -4.15069 -1.42348 0
M  V30 13159 H 1252.88 -0.700093 -0.124057 0
M  V30 13160 H 1255.48 -1.92355 0.349272 0
M  V30 13161 H 1254.19 -4.10362 0.0558941 0
M  V30 13162 H 1253.72 -3.60421 -1.57671 0
M  V30 13163 H 1255.73 -4.15493 -2.71257 0
M  V30 13164 N 1254.91 0.036755 -1.57557 0
M  V30 13165 C 1256.15 0.727665 -1.88546 0
M  V30 13166 C 1256.48 1.76304 -0.833179 0
M  V30 13167 O 1255.75 1.9544 0.13414 0
M  V30 13168 H 1254.33 0.271744 -0.695819 0
M  V30 13169 H 1256.99 0.00452915 -1.94899 0
M  V30 13170 H 1256.08 1.22205 -2.8718 0
M  V30 13171 N 1256.39 1.54543 0.308881 0
M  V30 13172 C 1257.8 1.64532 0.882392 0
M  V30 13173 C 1258.15 0.54886 1.88367 0
M  V30 13174 O 1257.27 -0.315832 2.14083 0
M  V30 13175 C 1257.87 2.98251 1.60722 0
M  V30 13176 C 1256.43 3.10387 2.12925 0
M  V30 13177 C 1255.57 2.60176 0.959362 0
M  V30 13178 H 1258.52 1.58466 0.0860803 0
M  V30 13179 H 1258.55 2.89233 2.47233 0
M  V30 13180 H 1258.06 3.78033 0.878233 0
M  V30 13181 H 1256.16 2.35309 2.88895 0
M  V30 13182 H 1256.27 4.16421 2.36918 0
M  V30 13183 H 1254.64 2.16434 1.3427 0
M  V30 13184 H 1255.42 3.42429 0.244454 0
M  V30 13185 N 1257.86 -0.571685 1.46866 0
M  V30 13186 C 1259.27 -1.15383 1.46778 0
M  V30 13187 C 1259.63 -1.95023 0.214576 0
M  V30 13188 O 1258.75 -2.05386 -0.681574 0
M  V30 13189 C 1259.35 -2.09915 2.65935 0
M  V30 13190 C 1257.9 -2.6343 2.68852 0
M  V30 13191 C 1257.05 -1.39517 2.39646 0
M  V30 13192 H 1260 -0.359036 1.54585 0
M  V30 13193 H 1260.02 -2.9356 2.42081 0
M  V30 13194 H 1259.54 -1.51923 3.57129 0
M  V30 13195 H 1257.64 -3.2526 1.8176 0
M  V30 13196 H 1257.75 -3.05412 3.69134 0
M  V30 13197 H 1256.11 -1.69702 1.8993 0
M  V30 13198 H 1256.9 -0.833399 3.33031 0
M  V30 13199 N 1259.34 -1.34755 -0.817236 0
M  V30 13200 C 1260.75 -1.24594 -1.39044 0
M  V30 13201 C 1261.1 0.126184 -1.95794 0
M  V30 13202 O 1260.23 1.02675 -1.90491 0
M  V30 13203 C 1260.82 -2.25592 -2.52772 0
M  V30 13204 C 1259.38 -2.19204 -3.05984 0
M  V30 13205 C 1258.53 -2.11884 -1.78886 0
M  V30 13206 H 1261.48 -1.46039 -0.621155 0
M  V30 13207 H 1261.5 -1.87622 -3.31026 0
M  V30 13208 H 1261.01 -3.25447 -2.11438 0
M  V30 13209 H 1259.11 -1.22725 -3.51809 0
M  V30 13210 H 1259.23 -3.10707 -3.64689 0
M  V30 13211 H 1257.59 -1.57694 -2.00012 0
M  V30 13212 H 1258.37 -3.13582 -1.39719 0
M  V30 13213 N 1260.82 1.03812 -1.18578 0
M  V30 13214 C 1262.24 1.29271 -0.936011 0
M  V30 13215 C 1262.44 1.97551 0.396965 0
M  V30 13216 O 1261.49 2.25769 1.13069 0
M  V30 13217 C 1262.8 2.1489 -2.1034 0
M  V30 13218 C 1264.35 2.28228 -2.14198 0
M  V30 13219 C 1264.83 3.17214 -3.30362 0
M  V30 13220 N 1266.32 3.24802 -3.30239 0
M  V30 13221 C 1267.05 3.9382 -4.16765 0
M  V30 13222 N 1266.55 4.65147 -5.1343 0
M  V30 13223 N 1268.34 3.90125 -4.04671 0
M  V30 13224 H 1260.49 0.579011 -2.04356 0
M  V30 13225 H 1262.76 0.318021 -0.893066 0
M  V30 13226 H 1262.46 1.72029 -3.06755 0
M  V30 13227 H 1262.34 3.15576 -2.06619 0
M  V30 13228 H 1264.72 2.70324 -1.18359 0
M  V30 13229 H 1264.8 1.27124 -2.21976 0
M  V30 13230 H 1264.45 2.75829 -4.26475 0
M  V30 13231 H 1264.38 4.18356 -3.19821 0
M  V30 13232 H 1266.87 2.73994 -2.60261 0
M  V30 13233 H 1267.18 5.15414 -5.7582 0
M  V30 13234 H 1265.53 4.64043 -5.17387 0
M  V30 13235 H 1268.72 3.33536 -3.28438 0
M  V30 13236 H 1268.89 4.43641 -4.7232 0
M  V30 13237 N 1262.3 0.988223 1.22768 0
M  V30 13238 C 1263.52 0.679426 1.95955 0
M  V30 13239 C 1263.95 -0.748483 1.72567 0
M  V30 13240 O 1263.31 -1.51097 1.00197 0
M  V30 13241 C 1263.35 0.985284 3.46878 0
M  V30 13242 O 1262.46 0.0814607 4.1232 0
M  V30 13243 H 1261.8 0.254749 0.613188 0
M  V30 13244 H 1264.33 1.32393 1.55991 0
M  V30 13245 H 1264.34 0.925198 3.97371 0
M  V30 13246 H 1263.01 2.02581 3.63227 0
M  V30 13247 H 1261.59 0.196629 3.72381 0
M  V30 13248 N 1263.78 -1.38018 0.760839 0
M  V30 13249 C 1264.74 -2.28734 0.146154 0
M  V30 13250 C 1265.74 -1.47525 -0.639768 0
M  V30 13251 O 1266.93 -1.6788 -0.464964 0
M  V30 13252 C 1264.06 -3.31356 -0.801019 0
M  V30 13253 H 1265.25 -2.84599 0.945692 0
M  V30 13254 H 1262.81 -1.471 0.528323 0
M  V30 13255 H 1263.54 -2.80594 -1.62597 0
M  V30 13256 H 1263.33 -3.91366 -0.239775 0
M  V30 13257 H 1264.82 -3.99171 -1.22687 0
M  V30 13258 N 1265.25 -0.510493 -1.49103 0
M  V30 13259 C 1266.48 0.0271718 -2.06882 0
M  V30 13260 C 1266.9 1.2995 -1.36962 0
M  V30 13261 O 1266.25 1.76842 -0.450916 0
M  V30 13262 C 1266.3 0.274956 -3.60453 0
M  V30 13263 O 1266.03 -0.946941 -4.27744 0
M  V30 13264 C 1267.53 0.855197 -4.34973 0
M  V30 13265 H 1264.75 -0.024732 -0.670544 0
M  V30 13266 H 1267.29 -0.710567 -1.91758 0
M  V30 13267 H 1265.45 0.962696 -3.75248 0
M  V30 13268 H 1265.86 -0.715627 -5.19595 0
M  V30 13269 H 1267.33 0.978103 -5.43265 0
M  V30 13270 H 1267.81 1.85535 -3.98087 0
M  V30 13271 H 1268.42 0.204632 -4.24807 0
M  V30 13272 N 1266.73 1.55688 -0.24474 0
M  V30 13273 C 1267.98 1.98498 0.379852 0
M  V30 13274 C 1268.3 1.13416 1.58625 0
M  V30 13275 O 1267.57 0.216456 1.947 0
M  V30 13276 H 1266.15 0.73312 0.143334 0
M  V30 13277 H 1268.81 1.91858 -0.343027 0
M  V30 13278 H 1267.91 3.04367 0.690463 0
M  V30 13279 N 1268.21 -0.0283989 1.57574 0
M  V30 13280 C 1269.12 -1.04575 2.10003 0
M  V30 13281 C 1270.14 -1.39588 1.03881 0
M  V30 13282 O 1271.31 -1.48894 1.35619 0
M  V30 13283 C 1268.38 -2.32755 2.56955 0
M  V30 13284 C 1267.44 -2.04317 3.77562 0
M  V30 13285 C 1266.67 -3.26385 4.22266 0
M  V30 13286 O 1266.89 -4.37082 3.66491 0
M  V30 13287 O 1265.83 -3.12046 5.14695 0
M  V30 13288 H 1269.65 -0.630183 2.9709 0
M  V30 13289 H 1267.24 -0.245423 1.4737 0
M  V30 13290 H 1269.12 -3.08111 2.87482 0
M  V30 13291 H 1267.8 -2.73605 1.72979 0
M  V30 13292 H 1266.7 -1.26527 3.52054 0
M  V30 13293 H 1268.04 -1.68321 4.62524 0
M  V30 13294 N 1269.69 -1.54705 -0.300681 0
M  V30 13295 C 1270.94 -1.73658 -1.0338 0
M  V30 13296 C 1271.26 -0.525447 -1.87787 0
M  V30 13297 O 1270.53 0.460269 -1.90416 0
M  V30 13298 H 1269.11 -0.640338 -0.384677 0
M  V30 13299 H 1271.77 -1.92059 -0.331588 0
M  V30 13300 H 1270.86 -2.62595 -1.68672 0
M  V30 13301 N 1271.17 0.563888 -1.47167 0
M  V30 13302 C 1272.58 1.14603 -1.47388 0
M  V30 13303 C 1272.93 1.94907 -0.224916 0
M  V30 13304 O 1272.05 2.05745 0.670672 0
M  V30 13305 C 1272.65 2.08501 -2.67044 0
M  V30 13306 C 1271.21 2.62 -2.70246 0
M  V30 13307 C 1270.35 1.38244 -2.40383 0
M  V30 13308 H 1273.31 0.350833 -1.54774 0
M  V30 13309 H 1273.33 2.92272 -2.43634 0
M  V30 13310 H 1272.84 1.50027 -3.57929 0
M  V30 13311 H 1270.94 3.24292 -1.83482 0
M  V30 13312 H 1271.05 3.0345 -3.70749 0
M  V30 13313 H 1269.42 1.68692 -1.90827 0
M  V30 13314 H 1270.2 0.815726 -3.33468 0
M  V30 13315 N 1272.64 1.35187 0.810078 0
M  V30 13316 C 1273.89 1.28264 1.56699 0
M  V30 13317 C 1274.22 -0.143906 1.93967 0
M  V30 13318 O 1273.47 -1.10832 1.61291 0
M  V30 13319 C 1273.77 2.13135 2.86894 0
M  V30 13320 C 1273.44 3.61974 2.6886 0
M  V30 13321 C 1272.1 4.02545 2.63649 0
M  V30 13322 C 1274.45 4.5643 2.51636 0
M  V30 13323 C 1271.78 5.35745 2.39154 0
M  V30 13324 C 1274.13 5.89824 2.2867 0
M  V30 13325 C 1272.8 6.29544 2.2188 0
M  V30 13326 H 1272.07 0.469353 0.573401 0
M  V30 13327 H 1274.71 1.67051 0.936282 0
M  V30 13328 H 1273.02 1.67218 3.54324 0
M  V30 13329 H 1274.72 2.05117 3.44569 0
M  V30 13330 H 1271.31 3.29777 2.73761 0
M  V30 13331 H 1275.49 4.25974 2.54677 0
M  V30 13332 H 1270.75 5.65524 2.32363 0
M  V30 13333 H 1274.92 6.62597 2.14333 0
M  V30 13334 H 1272.55 7.32689 2.0266 0
M  V30 13335 N 1274.12 -1.03182 1.19127 0
M  V30 13336 C 1275.37 -1.76184 0.990134 0
M  V30 13337 C 1275.69 -1.88986 -0.480546 0
M  V30 13338 O 1274.96 -1.4213 -1.34817 0
M  V30 13339 H 1273.54 -0.652668 0.363364 0
M  V30 13340 H 1276.2 -1.24481 1.49968 0
M  V30 13341 H 1275.3 -2.77119 1.43568 0
M  V30 13342 N 1275.6 -0.99472 -1.22242 0
M  V30 13343 C 1276.88 -0.587481 -1.86569 0
M  V30 13344 C 1277.26 0.935174 -1.89256 0
M  V30 13345 O 1276.61 1.81787 -1.3844 0
M  V30 13346 C 1276.82 -1.21001 -3.27353 0
M  V30 13347 C 1278.16 -1.31167 -4.03832 0
M  V30 13348 O 1279.19 -1.16454 -3.36626 0
M  V30 13349 O 1278.05 -1.54731 -5.24138 0
M  V30 13350 H 1275.14 -0.199838 -0.802492 0
M  V30 13351 H 1277.69 -1.09071 -1.30006 0
M  V30 13352 H 1276.46 -2.25143 -3.20041 0
M  V30 13353 H 1276.08 -0.692479 -3.91523 0
M  V30 13354 N 1277.08 1.37613 -0.768148 0
M  V30 13355 C 1278.32 2.00075 -0.331331 0
M  V30 13356 C 1278.66 1.60839 1.08833 0
M  V30 13357 O 1277.93 0.852849 1.74805 0
M  V30 13358 C 1278.22 3.57009 -0.470789 0
M  V30 13359 C 1278.07 4.06166 -1.9326 0
M  V30 13360 C 1279.39 4.39916 0.127111 0
M  V30 13361 H 1276.51 0.726855 -0.121864 0
M  V30 13362 H 1279.15 1.63343 -0.970518 0
M  V30 13363 H 1277.3 3.88431 0.0733688 0
M  V30 13364 H 1278.97 3.85325 -2.53618 0
M  V30 13365 H 1277.21 3.58492 -2.44266 0
M  V30 13366 H 1277.88 5.15219 -1.98125 0
M  V30 13367 H 1280.36 4.14732 -0.337144 0
M  V30 13368 H 1279.24 5.489 -0.000624226 0
M  V30 13369 H 1279.5 4.25018 1.21704 0
M  V30 13370 N 1278.56 0.518393 1.4883 0
M  V30 13371 C 1279.8 -0.019866 2.0209 0
M  V30 13372 C 1280.13 -1.35863 1.3988 0
M  V30 13373 O 1279.4 -1.87722 0.560117 0
M  V30 13374 H 1277.98 -0.0103306 0.746929 0
M  V30 13375 H 1280.64 0.679591 1.82668 0
M  V30 13376 H 1279.73 -0.136749 3.118 0
M  V30 13377 N 1280.03 -1.55556 0.252993 0
M  V30 13378 C 1281.28 -2.00122 -0.363693 0
M  V30 13379 C 1281.64 -1.13821 -1.55121 0
M  V30 13380 O 1280.93 -0.195137 -1.90604 0
M  V30 13381 C 1281.12 -3.47925 -0.817484 0
M  V30 13382 C 1280.95 -4.48528 0.32452 0
M  V30 13383 C 1279.72 -4.98908 0.801175 0
M  V30 13384 C 1281.92 -5.01196 1.15358 0
M  V30 13385 N 1279.9 -5.83269 1.91495 0
M  V30 13386 C 1281.27 -5.82787 2.11563 0
M  V30 13387 C 1283.33 -4.83484 1.18945 0
M  V30 13388 C 1282.03 -6.48557 3.11073 0
M  V30 13389 C 1284.06 -5.50036 2.17288 0
M  V30 13390 C 1283.42 -6.31421 3.12229 0
M  V30 13391 H 1279.52 -0.775724 -0.0988716 0
M  V30 13392 H 1282.1 -1.91114 0.371964 0
M  V30 13393 H 1280.27 -3.57319 -1.52242 0
M  V30 13394 H 1282 -3.79357 -1.40963 0
M  V30 13395 H 1278.76 -4.72039 0.384265 0
M  V30 13396 H 1279.18 -6.30145 2.47479 0
M  V30 13397 H 1283.83 -4.20187 0.469296 0
M  V30 13398 H 1281.54 -7.11016 3.84034 0
M  V30 13399 H 1285.13 -5.38283 2.20777 0
M  V30 13400 H 1284.01 -6.82009 3.87083 0
M  V30 13401 N 1281.51 0.0200419 -1.57587 0
M  V30 13402 C 1282.48 1.00255 -2.06111 0
M  V30 13403 C 1283.48 1.28488 -0.966829 0
M  V30 13404 O 1284.67 1.2334 -1.23015 0
M  V30 13405 C 1281.8 2.33296 -2.48567 0
M  V30 13406 H 1282.99 0.583216 -2.94174 0
M  V30 13407 H 1280.54 0.267077 -1.54001 0
M  V30 13408 H 1281.28 2.79959 -1.63687 0
M  V30 13409 H 1281.06 2.14131 -3.28467 0
M  V30 13410 H 1282.55 3.03817 -2.86505 0
M  V30 13411 N 1282.99 1.54862 0.292472 0
M  V30 13412 C 1284.24 1.74203 1.02458 0
M  V30 13413 C 1284.56 0.535398 1.87506 0
M  V30 13414 O 1283.83 -0.450164 1.90658 0
M  V30 13415 H 1282.41 0.642369 0.381276 0
M  V30 13416 H 1285.07 1.92232 0.321398 0
M  V30 13417 H 1284.17 2.63486 1.67277 0
M  V30 13418 N 1284.47 -0.556076 1.47464 0
M  V30 13419 C 1285.88 -1.1382 1.47993 0
M  V30 13420 C 1286.23 -1.94785 0.235249 0
M  V30 13421 O 1285.36 -2.06098 -0.659752 0
M  V30 13422 C 1285.95 -2.07082 2.68146 0
M  V30 13423 C 1284.51 -2.60564 2.71631 0
M  V30 13424 C 1283.66 -1.36967 2.41113 0
M  V30 13425 H 1286.61 -0.34262 1.54957 0
M  V30 13426 H 1286.63 -2.90975 2.45181 0
M  V30 13427 H 1286.14 -1.48127 3.5872 0
M  V30 13428 H 1284.24 -3.23314 1.852 0
M  V30 13429 H 1284.35 -3.0148 3.72353 0
M  V30 13430 H 1282.72 -1.67678 1.91719 0
M  V30 13431 H 1283.5 -0.79803 3.33896 0
M  V30 13432 N 1285.95 -1.35615 -0.802897 0
M  V30 13433 C 1287.36 -1.15733 -1.099 0
M  V30 13434 C 1287.56 0.0277094 -2.01481 0
M  V30 13435 O 1286.62 0.697196 -2.42684 0
M  V30 13436 C 1287.93 -2.46201 -1.72643 0
M  V30 13437 C 1289.48 -2.52442 -1.85046 0
M  V30 13438 C 1289.96 -3.82962 -2.51205 0
M  V30 13439 N 1291.45 -3.84234 -2.58686 0
M  V30 13440 C 1292.18 -4.81956 -3.10654 0
M  V30 13441 N 1291.68 -5.90068 -3.63032 0
M  V30 13442 N 1293.47 -4.69389 -3.09241 0
M  V30 13443 H 1285.62 -2.11511 -0.194177 0
M  V30 13444 H 1287.88 -0.936259 -0.148739 0
M  V30 13445 H 1287.59 -3.33114 -1.12817 0
M  V30 13446 H 1287.46 -2.6102 -2.72302 0
M  V30 13447 H 1289.85 -1.65955 -2.44014 0
M  V30 13448 H 1289.93 -2.41534 -0.842316 0
M  V30 13449 H 1289.58 -4.69848 -1.92885 0
M  V30 13450 H 1289.51 -3.9116 -3.52564 0
M  V30 13451 H 1292 -3.0612 -2.21582 0
M  V30 13452 H 1292.31 -6.60623 -4.00996 0
M  V30 13453 H 1290.66 -5.93755 -3.6122 0
M  V30 13454 H 1293.85 -3.84066 -2.67602 0
M  V30 13455 H 1294.02 -5.4571 -3.49435 0
M  V30 13456 N 1287.43 1.02549 -1.19673 0
M  V30 13457 C 1288.37 2.109 -0.937536 0
M  V30 13458 C 1289.34 1.65599 0.128923 0
M  V30 13459 O 1290.53 1.90795 -0.0139366 0
M  V30 13460 C 1287.67 3.4166 -0.48602 0
M  V30 13461 C 1286.78 4.0049 -1.61963 0
M  V30 13462 C 1285.92 5.19273 -1.11931 0
M  V30 13463 C 1284.95 5.70166 -2.22659 0
M  V30 13464 N 1284.09 6.80221 -1.73909 0
M  V30 13465 H 1288.93 2.32408 -1.86523 0
M  V30 13466 H 1286.47 1.13982 -0.929869 0
M  V30 13467 H 1288.43 4.16693 -0.205614 0
M  V30 13468 H 1287.06 3.20253 0.404678 0
M  V30 13469 H 1286.11 3.22638 -2.01516 0
M  V30 13470 H 1287.42 4.34273 -2.45374 0
M  V30 13471 H 1286.57 6.01478 -0.794336 0
M  V30 13472 H 1285.31 4.87033 -0.254972 0
M  V30 13473 H 1284.32 4.86572 -2.55983 0
M  V30 13474 H 1285.54 6.04444 -3.09554 0
M  V30 13475 H 1283.49 6.49826 -0.897889 0
M  V30 13476 H 1283.41 7.13149 -2.50907 0
M  V30 13477 H 1284.67 7.66011 -1.44386 0
M  V30 13478 O 1288.94 1.129 1.15481 0
M  V30 13479 H 1289.63 0.842704 1.74408 0
M  V30 END ATOM
M  V30 BEGIN BOND
M  V30 END BOND
M  V30 END CTAB
M  END
$$$$
