drugbank_target|O60359 Voltage-dependent calcium channel gamma-3 subunit (DB00153; DB00228; DB00421; DB11148; DB13746)
 OpenBabel12092120593D

  0  0  0     0  0            999 V3000
M  V30 BEGIN CTAB
M  V30 COUNTS 4981 5042 0 0 0
M  V30 BEGIN ATOM
M  V30 1 H -0.908 1.98254 -0.117106 0
M  V30 2 N 0 1.576 0 0
M  V30 3 C 0.933 2.03868 1.02534 0
M  V30 4 C 1.911 0.928543 1.3348 0
M  V30 5 O 3.095 1.19667 1.45644 0
M  V30 6 C 0.222 2.43627 2.35294 0
M  V30 7 C -0.732 3.65373 2.2001 0
M  V30 8 S 0.101 5.13292 1.52614 0
M  V30 9 C 1.257 5.56322 2.86805 0
M  V30 10 H 1.49 2.90518 0.631377 0
M  V30 11 H -0.977 1.52953 0.210867 0
M  V30 12 H 0.981 2.67203 3.11629 0
M  V30 13 H -0.358 1.57376 2.7183 0
M  V30 14 H -1.165 3.90944 3.18086 0
M  V30 15 H -1.563 3.418 1.51819 0
M  V30 16 H 0.729 5.58782 3.83104 0
M  V30 17 H 1.672 6.56266 2.65933 0
M  V30 18 H 2.08 4.83886 2.90714 0
M  V30 19 N 1.4781 -0.272755 1.55222 0
M  V30 20 C 2.8941 -0.619959 1.47067 0
M  V30 21 C 3.0941 -1.895 0.684978 0
M  V30 22 O 2.1501 -2.51675 0.203931 0
M  V30 23 C 3.4631 -0.746693 2.91282 0
M  V30 24 C 5.0111 -0.840731 3.01497 0
M  V30 25 C 5.4861 -0.99924 4.46967 0
M  V30 26 N 6.9771 -1.06476 4.50796 0
M  V30 27 C 7.7121 -1.20621 5.6057 0
M  V30 28 N 7.2081 -1.31483 6.80209 0
M  V30 29 N 9.0011 -1.23733 5.48312 0
M  V30 30 H 1.1521 0.564606 2.04758 0
M  V30 31 H 3.4151 0.191177 0.928523 0
M  V30 32 H 3.1211 0.119753 3.51496 0
M  V30 33 H 2.9951 -1.6269 3.40311 0
M  V30 34 H 5.3821 -1.69764 2.41379 0
M  V30 35 H 5.4631 0.0640874 2.5572 0
M  V30 36 H 5.1071 -0.146984 5.07687 0
M  V30 37 H 5.0371 -1.91871 4.90401 0
M  V30 38 H 7.5281 -0.993196 3.64615 0
M  V30 39 H 7.8411 -1.42111 7.59621 0
M  V30 40 H 6.1861 -1.28487 6.8302 0
M  V30 41 H 9.3771 -1.14877 4.53785 0
M  V30 42 H 9.5501 -1.34412 6.33906 0
M  V30 43 N 2.9562 -1.48159 -0.537278 0
M  V30 44 C 3.8892 -1.567 -1.65893 0
M  V30 45 C 4.8672 -0.41787 -1.57139 0
M  V30 46 O 6.0512 -0.628461 -1.77715 0
M  V30 47 C 3.1782 -1.48818 -3.04255 0
M  V30 48 C 2.2242 -2.68482 -3.31391 0
M  V30 49 S 3.0572 -4.30516 -3.1846 0
M  V30 50 C 4.2132 -4.2522 -4.59281 0
M  V30 51 H 4.4462 -2.5159 -1.58397 0
M  V30 52 H 1.9792 -1.36602 -0.719672 0
M  V30 53 H 3.9372 -1.44958 -3.84054 0
M  V30 54 H 2.5982 -0.552777 -3.09198 0
M  V30 55 H 1.7912 -2.59085 -4.32309 0
M  V30 56 H 1.3932 -2.69567 -2.59248 0
M  V30 57 H 3.6852 -3.94703 -5.5065 0
M  V30 58 H 4.6282 -5.26292 -4.73732 0
M  V30 59 H 5.0362 -3.55791 -4.38261 0
M  V30 60 N 4.4343 0.785586 -1.36625 0
M  V30 61 C 5.6743 1.55678 -1.32453 0
M  V30 62 C 6.0383 1.91769 0.0941089 0
M  V30 63 O 7.2393 2.67536 0.26042 0
M  V30 64 C 5.5103 2.79701 -2.22491 0
M  V30 65 S 7.0693 3.69907 -2.36038 0
M  V30 66 H 3.8873 0.533141 -0.470405 0
M  V30 67 H 6.4893 0.924953 -1.72235 0
M  V30 68 H 5.1933 2.51244 -3.24507 0
M  V30 69 H 4.7243 3.47854 -1.83742 0
M  V30 70 H 6.7393 4.71016 -1.56072 0
M  V30 71 N 5.9124 1.20967 1.01018 0
M  V30 72 C 7.1894 0.93264 1.71934 0
M  V30 73 C 7.5694 -0.55692 2.03621 0
M  V30 74 O 6.9174 -1.52035 1.7058 0
M  V30 75 C 7.1274 1.81233 2.98254 0
M  V30 76 C 8.4754 2.05804 3.71389 0
M  V30 77 O 9.4994 1.78539 3.08225 0
M  V30 78 O 8.3584 2.51888 4.84989 0
M  V30 79 H 5.4524 0.349272 0.749625 0
M  V30 80 H 7.9984 1.31871 1.06808 0
M  V30 81 H 6.7704 2.82067 2.71208 0
M  V30 82 H 6.3934 1.42674 3.7112 0
M  V30 83 N 7.3905 -1.2043 1.01659 0
M  V30 84 C 8.8065 -1.41852 0.731442 0
M  V30 85 C 9.0065 -1.89358 -0.688898 0
M  V30 86 O 8.0625 -2.06247 -1.45666 0
M  V30 87 C 9.3755 -2.44019 1.75714 0
M  V30 88 C 10.9235 -2.57785 1.77527 0
M  V30 89 C 11.3985 -3.63194 2.79023 0
M  V30 90 N 12.8895 -3.70678 2.77763 0
M  V30 91 C 13.6245 -4.51897 3.52954 0
M  V30 92 N 13.1205 -5.36921 4.37821 0
M  V30 93 N 14.9135 -4.4643 3.41551 0
M  V30 94 H 7.0645 -0.879093 1.93354 0
M  V30 95 H 9.3275 -0.448425 0.835236 0
M  V30 96 H 9.0335 -2.1611 2.77469 0
M  V30 97 H 8.9075 -3.43007 1.56927 0
M  V30 98 H 11.2945 -2.85023 0.764569 0
M  V30 99 H 11.3755 -1.58992 2.00387 0
M  V30 100 H 11.0195 -3.36699 3.80258 0
M  V30 101 H 10.9495 -4.61609 2.53425 0
M  V30 102 H 13.4405 -3.09944 2.16201 0
M  V30 103 H 13.7535 -5.95981 4.91962 0
M  V30 104 H 12.0985 -5.36424 4.41899 0
M  V30 105 H 15.2895 -3.79042 2.74672 0
M  V30 106 H 15.4625 -5.09491 4.00404 0
M  V30 107 N 8.8686 -0.792821 -1.36206 0
M  V30 108 C 10.1166 -0.366062 -1.98757 0
M  V30 109 C 10.4376 1.0668 -1.63231 0
M  V30 110 O 9.7076 1.73587 -0.907978 0
M  V30 111 H 8.2876 -0.132364 -0.735179 0
M  V30 112 H 10.9496 -1.01562 -1.66347 0
M  V30 113 H 10.0456 -0.460638 -3.08682 0
M  V30 114 N 10.3467 1.47872 -0.545128 0
M  V30 115 C 11.5957 2.01695 -0.0145033 0
M  V30 116 C 11.9087 1.42609 1.33873 0
M  V30 117 O 13.1147 1.88021 1.95858 0
M  V30 118 C 11.5707 3.59892 0.0245068 0
M  V30 119 C 11.1787 4.27966 -1.32475 0
M  V30 120 C 12.9227 4.21507 0.50316 0
M  V30 121 C 10.8297 5.78136 -1.2455 0
M  V30 122 H 9.7597 0.753998 -0.00165172 0
M  V30 123 H 12.4107 1.69985 -0.691175 0
M  V30 124 H 10.7927 3.88509 0.766575 0
M  V30 125 H 11.9667 4.11003 -2.08357 0
M  V30 126 H 10.2817 3.78286 -1.74036 0
M  V30 127 H 12.8787 5.31538 0.580656 0
M  V30 128 H 13.2217 3.87855 1.51243 0
M  V30 129 H 13.7547 3.97376 -0.183681 0
M  V30 130 H 10.4937 6.16388 -2.23039 0
M  V30 131 H 10.0137 5.97469 -0.528282 0
M  V30 132 H 11.6927 6.40099 -0.942488 0
M  V30 133 N 11.8248 0.280983 1.55075 0
M  V30 134 C 12.7568 -0.637268 2.20163 0
M  V30 135 C 13.7698 -1.11298 1.18813 0
M  V30 136 O 14.9588 -1.03388 1.4551 0
M  V30 137 C 12.0588 -1.88199 2.81841 0
M  V30 138 C 11.2318 -1.55211 4.08936 0
M  V30 139 C 10.2908 -2.64991 4.54606 0
M  V30 140 O 9.3168 -2.30929 5.2025 0
M  V30 141 N 10.5188 -3.95161 4.25238 0
M  V30 142 H 13.2838 -0.0801694 2.99593 0
M  V30 143 H 10.8448 0.102329 1.61576 0
M  V30 144 H 12.8368 -2.60948 3.09335 0
M  V30 145 H 11.4068 -2.34799 2.06369 0
M  V30 146 H 10.6268 -0.658185 3.88666 0
M  V30 147 H 11.9148 -1.30681 4.91732 0
M  V30 148 H 11.3128 -4.25653 3.72607 0
M  V30 149 H 9.8698 -4.6427 4.5749 0
M  V30 150 N 13.3029 -1.57598 0.00835791 0
M  V30 151 C 14.2359 -2.04409 -1.01451 0
M  V30 152 C 15.2139 -0.935609 -1.32985 0
M  V30 153 O 16.3979 -1.20437 -1.45007 0
M  V30 154 C 13.5249 -2.44872 -2.33999 0
M  V30 155 C 12.5709 -3.66535 -2.18069 0
M  V30 156 S 13.4039 -5.14095 -1.4989 0
M  V30 157 C 14.5599 -5.57835 -2.8385 0
M  V30 158 H 14.7929 -2.90849 -0.615961 0
M  V30 159 H 12.3259 -1.53063 -0.202752 0
M  V30 160 H 14.2839 -2.68852 -3.10208 0
M  V30 161 H 12.9449 -1.58815 -2.70992 0
M  V30 162 H 12.1379 -3.92626 -3.16008 0
M  V30 163 H 11.7399 -3.426 -1.50004 0
M  V30 164 H 14.0319 -5.60806 -3.80136 0
M  V30 165 H 14.9749 -6.57667 -2.62449 0
M  V30 166 H 15.3829 -4.85421 -2.88144 0
M  V30 167 N 14.781 0.264519 -1.55364 0
M  V30 168 C 15.711 1.33121 -1.91836 0
M  V30 169 C 16.692 1.51101 -0.781192 0
M  V30 170 O 17.877 1.64003 -1.04003 0
M  V30 171 C 15.007 2.68921 -2.19769 0
M  V30 172 C 13.961 2.65661 -3.35571 0
M  V30 173 C 13.287 4.05093 -3.49004 0
M  V30 174 C 14.587 2.24187 -4.71739 0
M  V30 175 H 16.281 1.02844 -2.81182 0
M  V30 176 H 13.827 0.493286 -1.35287 0
M  V30 177 H 15.78 3.43663 -2.43872 0
M  V30 178 H 14.504 3.00799 -1.27231 0
M  V30 179 H 13.163 1.93377 -3.1145 0
M  V30 180 H 12.811 4.34206 -2.53917 0
M  V30 181 H 12.511 4.03804 -4.26868 0
M  V30 182 H 14.035 4.81561 -3.75408 0
M  V30 183 H 15.449 2.88654 -4.9533 0
M  V30 184 H 13.846 2.34044 -5.52579 0
M  V30 185 H 14.916 1.19327 -4.69988 0
M  V30 186 N 16.2591 1.48442 0.529413 0
M  V30 187 C 17.5081 1.55742 1.28169 0
M  V30 188 C 17.8211 0.236511 1.94165 0
M  V30 189 O 19.0271 0.187761 2.7085 0
M  V30 190 C 17.4831 2.74667 2.32564 0
M  V30 191 C 17.0911 4.13402 1.72636 0
M  V30 192 C 18.8351 2.9128 3.08798 0
M  V30 193 C 16.7421 5.23587 2.74975 0
M  V30 194 H 15.6721 0.579796 0.48203 0
M  V30 195 H 18.3231 1.74776 0.559056 0
M  V30 196 H 16.7051 2.49067 3.07866 0
M  V30 197 H 17.8791 4.49022 1.03519 0
M  V30 198 H 16.1941 4.0191 1.08892 0
M  V30 199 H 18.7911 3.70767 3.85274 0
M  V30 200 H 19.1341 2.00757 3.64695 0
M  V30 201 H 19.6671 3.16782 2.40611 0
M  V30 202 H 16.4061 6.16076 2.23897 0
M  V30 203 H 15.9261 4.92454 3.42417 0
M  V30 204 H 17.6051 5.51724 3.37949 0
M  V30 205 N 17.7372 -0.778329 1.37039 0
M  V30 206 C 18.9652 -1.56734 1.35063 0
M  V30 207 C 19.3802 -1.88686 -0.0655597 0
M  V30 208 O 18.7372 -1.5096 -1.02554 0
M  V30 209 C 18.7882 -2.88163 2.18276 0
M  V30 210 O 18.5092 -2.57583 3.54376 0
M  V30 211 C 20.0102 -3.82422 2.24206 0
M  V30 212 H 17.2302 -0.485778 0.462883 0
M  V30 213 H 19.7742 -0.965185 1.8029 0
M  V30 214 H 17.9292 -3.44818 1.76576 0
M  V30 215 H 18.3432 -3.41699 3.97922 0
M  V30 216 H 19.8172 -4.71667 2.86765 0
M  V30 217 H 20.2942 -4.21078 1.24861 0
M  V30 218 H 20.9002 -3.31697 2.6619 0
M  V30 219 N 19.2153 -1.21501 -1.00376 0
M  V30 220 C 20.4433 -1.059 -1.77744 0
M  V30 221 C 20.8583 0.391125 -1.84704 0
M  V30 222 O 20.2153 1.27133 -1.30933 0
M  V30 223 C 20.2663 -1.65111 -3.21591 0
M  V30 224 O 19.9873 -3.0445 -3.15027 0
M  V30 225 C 21.4883 -1.54637 -4.15454 0
M  V30 226 H 18.7083 -0.371825 -0.558558 0
M  V30 227 H 21.2523 -1.60865 -1.26264 0
M  V30 228 H 19.4073 -1.14235 -3.70175 0
M  V30 229 H 19.8213 -3.3278 -4.0541 0
M  V30 230 H 21.2953 -2.00808 -5.14179 0
M  V30 231 H 21.7723 -0.501022 -4.36333 0
M  V30 232 H 22.3783 -2.04767 -3.72761 0
M  V30 233 N 20.6934 1.19889 -1.02296 0
M  V30 234 C 21.9394 1.89701 -0.717033 0
M  V30 235 C 22.2724 1.7905 0.751989 0
M  V30 236 O 21.5474 1.17891 1.547 0
M  V30 237 C 21.8304 3.40858 -1.16136 0
M  V30 238 C 21.6834 3.60411 -2.69117 0
M  V30 239 C 23.0024 4.33876 -0.737549 0
M  V30 240 H 20.1214 0.688874 -0.261957 0
M  V30 241 H 22.7634 1.41154 -1.27183 0
M  V30 242 H 20.9134 3.82335 -0.689342 0
M  V30 243 H 22.5854 3.28145 -3.2422 0
M  V30 244 H 20.8284 3.03665 -3.0979 0
M  V30 245 H 21.4994 4.66396 -2.95261 0
M  V30 246 H 23.9754 4.00081 -1.14344 0
M  V30 247 H 22.8514 5.38242 -1.0764 0
M  V30 248 H 23.1124 4.40628 0.360436 0
M  V30 249 N 22.1715 0.800033 1.35784 0
M  V30 250 C 23.4195 0.376597 1.9856 0
M  V30 251 C 23.7405 -1.05812 1.63795 0
M  V30 252 O 23.0105 -1.73103 0.917171 0
M  V30 253 H 21.5905 0.136261 0.734467 0
M  V30 254 H 24.2525 1.02442 1.65806 0
M  V30 255 H 23.3485 0.477002 3.08433 0
M  V30 256 N 23.6496 -1.47581 0.552962 0
M  V30 257 C 24.6126 -2.28439 -0.186605 0
M  V30 258 C 25.6126 -1.36706 -0.84665 0
M  V30 259 O 26.8026 -1.59378 -0.703164 0
M  V30 260 C 23.9346 -3.16264 -1.2724 0
M  V30 261 H 25.1276 -2.95294 0.523609 0
M  V30 262 H 22.6806 -1.532 0.309745 0
M  V30 263 H 23.4156 -2.54091 -2.01514 0
M  V30 264 H 23.2006 -3.83769 -0.803968 0
M  V30 265 H 24.6906 -3.77198 -1.79196 0
M  V30 266 N 25.1277 -0.289203 -1.54924 0
M  V30 267 C 26.3747 0.323519 -1.99899 0
M  V30 268 C 26.7027 1.54797 -1.17762 0
M  V30 269 O 25.9577 1.94237 -0.238835 0
M  V30 270 C 26.2567 0.736119 -3.49737 0
M  V30 271 C 25.9227 -0.385276 -4.49251 0
M  V30 272 C 24.5847 -0.693156 -4.76181 0
M  V30 273 C 26.9367 -1.14021 -5.08575 0
M  V30 274 C 24.2647 -1.7593 -5.59701 0
M  V30 275 C 26.6167 -2.19619 -5.93254 0
M  V30 276 C 25.2807 -2.51026 -6.185 0
M  V30 277 H 24.5507 0.118384 -0.731482 0
M  V30 278 H 27.1977 -0.405847 -1.8715 0
M  V30 279 H 25.5027 1.54539 -3.60035 0
M  V30 280 H 27.1997 1.22118 -3.81953 0
M  V30 281 H 23.7897 -0.135202 -4.28387 0
M  V30 282 H 27.9737 -0.915611 -4.87781 0
M  V30 283 H 23.2297 -2.0075 -5.77503 0
M  V30 284 H 27.4037 -2.78581 -6.38252 0
M  V30 285 H 25.0307 -3.33772 -6.83008 0
M  V30 286 N 26.6058 1.57591 -0.0167156 0
M  V30 287 C 27.5688 2.08393 0.954204 0
M  V30 288 C 28.5688 0.996531 1.26198 0
M  V30 289 O 29.7588 1.25858 1.20438 0
M  V30 290 C 26.8908 2.5394 2.27436 0
M  V30 291 H 28.0838 2.95455 0.514451 0
M  V30 292 H 25.6368 1.54582 0.231089 0
M  V30 293 H 26.3718 1.70171 2.76066 0
M  V30 294 H 26.1568 3.33371 2.06412 0
M  V30 295 H 27.6468 2.93512 2.97053 0
M  V30 296 N 28.0839 -0.256276 1.55502 0
M  V30 297 C 29.0469 -1.30047 1.88734 0
M  V30 298 C 30.0469 -1.4154 0.763086 0
M  V30 299 O 31.2369 -1.40403 1.03115 0
M  V30 300 C 28.3689 -2.67953 2.10747 0
M  V30 301 H 29.5619 -1.01802 2.82093 0
M  V30 302 H 27.1149 -0.495134 1.4825 0
M  V30 303 H 27.8499 -3.01351 1.19825 0
M  V30 304 H 27.6349 -2.60993 2.92617 0
M  V30 305 H 29.1249 -3.43368 2.37673 0
M  V30 306 N 29.562 -1.4872 -0.521534 0
M  V30 307 C 30.809 -1.57168 -1.27689 0
M  V30 308 C 31.137 -0.249275 -1.92896 0
M  V30 309 O 30.392 0.761162 -1.80291 0
M  V30 310 C 30.691 -2.66497 -2.38148 0
M  V30 311 C 30.357 -4.08664 -1.90538 0
M  V30 312 C 29.019 -4.47357 -1.77271 0
M  V30 313 C 31.371 -4.97724 -1.54663 0
M  V30 314 C 28.699 -5.72905 -1.26478 0
M  V30 315 C 31.051 -6.2377 -1.05329 0
M  V30 316 C 29.715 -6.61311 -0.906861 0
M  V30 317 H 28.985 -0.575117 -0.467249 0
M  V30 318 H 31.632 -1.82472 -0.581051 0
M  V30 319 H 29.937 -2.35085 -3.13437 0
M  V30 320 H 31.634 -2.70246 -2.96257 0
M  V30 321 H 28.224 -3.78111 -2.01816 0
M  V30 322 H 32.408 -4.68501 -1.63768 0
M  V30 323 H 27.664 -6.00709 -1.13835 0
M  V30 324 H 31.838 -6.9217 -0.76644 0
M  V30 325 H 29.465 -7.5848 -0.511083 0
M  V30 326 N 31.0401 0.771051 -1.3745 0
M  V30 327 C 32.2651 1.56529 -1.36065 0
M  V30 328 C 32.6901 1.88029 0.0515859 0
M  V30 329 O 32.0481 1.49282 1.02882 0
M  V30 330 C 32.0961 2.85187 -2.20683 0
M  V30 331 O 31.2001 3.79593 -1.61193 0
M  V30 332 H 30.5411 0.47411 -0.464883 0
M  V30 333 H 33.0711 0.954269 -1.80983 0
M  V30 334 H 33.0811 3.34283 -2.33921 0
M  V30 335 H 31.7561 2.61588 -3.23334 0
M  V30 336 H 30.3331 3.38239 -1.56999 0
M  V30 337 N 32.5182 1.22032 0.997298 0
M  V30 338 C 33.4482 1.01065 2.10495 0
M  V30 339 C 34.4292 -0.0669542 1.69968 0
M  V30 340 O 35.6142 0.0943987 1.9397 0
M  V30 341 C 32.7442 0.582874 3.42374 0
M  V30 342 C 31.6982 1.60592 3.96729 0
M  V30 343 C 31.0242 1.03412 5.24605 0
M  V30 344 C 32.3242 2.99478 4.27914 0
M  V30 345 H 34.0182 1.93708 2.28292 0
M  V30 346 H 31.5642 0.932761 1.09707 0
M  V30 347 H 33.5172 0.423332 4.19268 0
M  V30 348 H 32.2412 -0.379213 3.24391 0
M  V30 349 H 30.9002 1.75316 3.21963 0
M  V30 350 H 30.5482 0.063518 5.0296 0
M  V30 351 H 30.2482 1.71754 5.61938 0
M  V30 352 H 31.7722 0.886066 6.04137 0
M  V30 353 H 33.1862 2.88153 4.95622 0
M  V30 354 H 31.5832 3.64903 4.76409 0
M  V30 355 H 32.6532 3.49742 3.3587 0
M  V30 356 N 33.9963 -1.19345 1.0293 0
M  V30 357 C 34.9293 -2.21347 0.555029 0
M  V30 358 C 35.9073 -1.57492 -0.404351 0
M  V30 359 O 37.0913 -1.85741 -0.321352 0
M  V30 360 C 34.2183 -3.38163 -0.19064 0
M  V30 361 C 33.2643 -4.20375 0.720236 0
M  V30 362 S 34.0973 -4.88371 2.19668 0
M  V30 363 C 35.2533 -6.08597 1.46153 0
M  V30 364 H 35.4863 -2.61235 1.41929 0
M  V30 365 H 33.0193 -1.29598 0.839272 0
M  V30 366 H 34.9773 -4.05871 -0.614724 0
M  V30 367 H 33.6383 -2.9671 -1.03063 0
M  V30 368 H 32.8313 -5.03793 0.14455 0
M  V30 369 H 32.4333 -3.57987 1.08266 0
M  V30 370 H 34.7253 -6.73354 0.748357 0
M  V30 371 H 35.6683 -6.7065 2.27233 0
M  V30 372 H 36.0763 -5.56297 0.958842 0
M  V30 373 N 35.4744 -0.807222 -1.35358 0
M  V30 374 C 36.7024 -0.400377 -2.02989 0
M  V30 375 C 37.1174 0.988859 -1.60832 0
M  V30 376 O 36.4744 1.63729 -0.806175 0
M  V30 377 C 36.5254 -0.474867 -3.58368 0
M  V30 378 O 36.2464 -1.80933 -3.98992 0
M  V30 379 C 37.7474 -0.0609112 -4.43258 0
M  V30 380 H 34.9674 -0.162587 -0.651004 0
M  V30 381 H 37.5114 -1.09102 -1.72965 0
M  V30 382 H 35.6664 0.167534 -3.87038 0
M  V30 383 H 36.0804 -1.77256 -4.9364 0
M  V30 384 H 37.5544 -0.164145 -5.51756 0
M  V30 385 H 38.0314 0.993831 -4.27808 0
M  V30 386 H 38.6374 -0.676492 -4.19885 0
M  V30 387 N 36.9525 1.47285 -0.560781 0
M  V30 388 C 38.2015 2.01668 -0.035895 0
M  V30 389 C 38.5145 1.44021 1.32353 0
M  V30 390 O 39.7205 1.90088 1.93853 0
M  V30 391 C 38.1765 3.59897 -0.0136659 0
M  V30 392 C 37.7845 4.26536 -1.37006 0
M  V30 393 C 39.5285 4.22017 0.458425 0
M  V30 394 C 37.4355 5.76782 -1.30675 0
M  V30 395 H 36.3655 0.753938 -0.00964879 0
M  V30 396 H 39.0165 1.69243 -0.709166 0
M  V30 397 H 37.3985 3.89301 0.725325 0
M  V30 398 H 38.5725 4.0877 -2.12705 0
M  V30 399 H 36.8875 3.76419 -1.78038 0
M  V30 400 H 39.4845 5.32124 0.524247 0
M  V30 401 H 39.8275 3.89437 1.4712 0
M  V30 402 H 40.3605 3.97159 -0.225818 0
M  V30 403 H 37.0995 6.13988 -2.29564 0
M  V30 404 H 36.6195 5.96875 -0.591622 0
M  V30 405 H 38.2985 6.39063 -1.01033 0
M  V30 406 N 38.4306 0.297415 1.54768 0
M  V30 407 C 39.3936 -0.567375 2.22066 0
M  V30 408 C 40.3936 -1.06409 1.20556 0
M  V30 409 O 41.5836 -0.960691 1.45315 0
M  V30 410 C 38.7156 -1.78517 2.90421 0
M  V30 411 H 39.9086 0.0205534 2.99893 0
M  V30 412 H 37.4616 0.0482163 1.56226 0
M  V30 413 H 38.1966 -2.41303 2.16664 0
M  V30 414 H 37.9816 -1.43669 3.64831 0
M  V30 415 H 39.4716 -2.39964 3.41771 0
M  V30 416 N 39.9087 -1.5758 0.0250728 0
M  V30 417 C 41.1547 -1.91917 -0.655413 0
M  V30 418 C 41.4877 -0.901433 -1.72011 0
M  V30 419 O 40.7627 0.0764069 -1.9435 0
M  V30 420 C 41.0457 -3.36751 -1.27558 0
M  V30 421 C 40.8987 -4.49258 -0.220719 0
M  V30 422 C 42.2177 -3.81469 -2.19475 0
M  V30 423 H 39.3367 -0.697925 -0.23679 0
M  V30 424 H 41.9787 -1.89825 0.0815036 0
M  V30 425 H 40.1287 -3.38664 -1.90365 0
M  V30 426 H 41.8007 -4.59478 0.409601 0
M  V30 427 H 40.0437 -4.31415 0.454264 0
M  V30 428 H 40.7147 -5.47618 -0.694175 0
M  V30 429 H 43.1907 -3.81266 -1.66659 0
M  V30 430 H 42.0667 -4.83512 -2.59822 0
M  V30 431 H 42.3277 -3.16744 -3.08424 0
M  V30 432 N 41.3868 0.248026 -1.55636 0
M  V30 433 C 42.6348 0.974295 -1.77065 0
M  V30 434 C 42.9558 1.85897 -0.588849 0
M  V30 435 O 42.2258 1.91868 0.395407 0
M  V30 436 H 40.8058 0.362733 -0.653019 0
M  V30 437 H 43.4678 0.266244 -1.93073 0
M  V30 438 H 42.5638 1.59667 -2.68166 0
M  V30 439 N 42.8649 1.48995 0.513639 0
M  V30 440 C 44.0929 1.61531 1.29288 0
M  V30 441 C 44.5079 0.281801 1.86685 0
M  V30 442 O 43.8649 -0.731111 1.67215 0
M  V30 443 C 43.9159 2.67449 2.43215 0
M  V30 444 O 43.6369 3.95626 1.88179 0
M  V30 445 C 45.1379 2.90575 3.34785 0
M  V30 446 H 42.3579 0.544165 0.392588 0
M  V30 447 H 44.9019 1.9494 0.617956 0
M  V30 448 H 43.0569 2.36853 3.0656 0
M  V30 449 H 43.4709 4.53868 2.62876 0
M  V30 450 H 44.9449 3.68449 4.11035 0
M  V30 451 H 45.4219 2.00011 3.91015 0
M  V30 452 H 46.0279 3.22538 2.77218 0
M  V30 453 N 44.343 -0.763751 1.37857 0
M  V30 454 C 45.62 -1.51244 1.24035 0
M  V30 455 C 46 -2.10472 -0.162649 0
M  V30 456 O 45.348 -1.96206 -1.17112 0
M  V30 457 C 45.558 -2.58694 2.34261 0
M  V30 458 C 46.906 -3.25878 2.72193 0
M  V30 459 O 47.93 -2.68993 2.33497 0
M  V30 460 O 46.789 -4.2874 3.38887 0
M  V30 461 H 43.883 -0.670243 0.484462 0
M  V30 462 H 46.429 -0.800031 1.49658 0
M  V30 463 H 45.201 -2.13105 3.2818 0
M  V30 464 H 44.824 -3.37527 2.10146 0
M  V30 465 N 45.8211 -1.22559 -0.990812 0
M  V30 466 C 47.0511 -1.07623 -1.76355 0
M  V30 467 C 47.4591 0.37601 -1.85426 0
M  V30 468 O 46.8021 1.27228 -1.32509 0
M  V30 469 C 46.8641 -1.61507 -3.21179 0
M  V30 470 C 46.5281 -3.10146 -3.35646 0
M  V30 471 C 47.5251 -4.07553 -3.22796 0
M  V30 472 C 45.2101 -3.49644 -3.60631 0
M  V30 473 C 47.2041 -5.42442 -3.34716 0
M  V30 474 C 44.8911 -4.84682 -3.72192 0
M  V30 475 C 45.8891 -5.8089 -3.59243 0
M  V30 476 O 45.5771 -7.13476 -3.70415 0
M  V30 477 H 45.3091 -0.377745 -0.560611 0
M  V30 478 H 47.8631 -1.62658 -1.25425 0
M  V30 479 H 46.0931 -1.00881 -3.73309 0
M  V30 480 H 47.7821 -1.42202 -3.80175 0
M  V30 481 H 48.5481 -3.78381 -3.03403 0
M  V30 482 H 44.4271 -2.75282 -3.69785 0
M  V30 483 H 47.9711 -6.17518 -3.24526 0
M  V30 484 H 43.8681 -5.13534 -3.91092 0
M  V30 485 H 44.6361 -7.21083 -3.87275 0
M  V30 486 N 47.2992 1.18797 -1.03562 0
M  V30 487 C 48.5452 1.89192 -0.746867 0
M  V30 488 C 48.9002 1.78531 0.717245 0
M  V30 489 O 48.1932 1.17137 1.51622 0
M  V30 490 C 48.3872 3.38692 -1.14117 0
M  V30 491 C 48.2162 3.63902 -2.64207 0
M  V30 492 C 46.9862 3.81553 -3.31279 0
M  V30 493 C 49.1842 3.64903 -3.62423 0
M  V30 494 N 47.1662 3.94455 -4.70402 0
M  V30 495 C 48.5372 3.83458 -4.87196 0
M  V30 496 C 50.5922 3.47965 -3.56125 0
M  V30 497 C 49.2952 3.86829 -6.06429 0
M  V30 498 C 51.3212 3.52616 -4.7478 0
M  V30 499 C 50.6832 3.71663 -5.9837 0
M  V30 500 H 46.7822 0.711141 -0.325273 0
M  V30 501 H 49.3662 1.42727 -1.32428 0
M  V30 502 H 47.5372 3.83864 -0.591889 0
M  V30 503 H 49.2692 3.96634 -0.803966 0
M  V30 504 H 46.0242 3.80723 -2.81686 0
M  V30 505 H 46.4482 4.0474 -5.42692 0
M  V30 506 H 51.0902 3.32189 -2.61553 0
M  V30 507 H 48.8082 4.01395 -7.01362 0
M  V30 508 H 52.3942 3.40791 -4.71543 0
M  V30 509 H 51.2742 3.75145 -6.88648 0
M  V30 510 N 48.7773 0.814389 1.34928 0
M  V30 511 C 49.7073 0.244827 2.32213 0
M  V30 512 C 50.6883 -0.634024 1.57842 0
M  V30 513 O 51.8733 -0.562676 1.8587 0
M  V30 514 C 49.0033 -0.601106 3.42058 0
M  V30 515 C 47.9573 0.179896 4.27622 0
M  V30 516 C 47.2833 -0.788237 5.28858 0
M  V30 517 C 48.5833 1.38329 5.03649 0
M  V30 518 H 50.2773 1.05763 2.80097 0
M  V30 519 H 47.8233 0.510029 1.34665 0
M  V30 520 H 49.7763 -1.00968 4.09125 0
M  V30 521 H 48.5003 -1.44688 2.92802 0
M  V30 522 H 47.1593 0.569739 3.62146 0
M  V30 523 H 46.8073 -1.62973 4.75866 0
M  V30 524 H 46.5073 -0.269942 5.8698 0
M  V30 525 H 48.0313 -1.19485 5.98795 0
M  V30 526 H 49.4453 1.04918 5.63618 0
M  V30 527 H 47.8423 1.83662 5.71304 0
M  V30 528 H 48.9123 2.16592 4.33839 0
M  V30 529 N 50.2554 -1.46986 0.568584 0
M  V30 530 C 51.4854 -2.0653 0.0539173 0
M  V30 531 C 51.8934 -1.42004 -1.25026 0
M  V30 532 O 51.2364 -0.514541 -1.76347 0
M  V30 533 C 51.2984 -3.58938 -0.200854 0
M  V30 534 C 50.9624 -4.45572 1.01559 0
M  V30 535 C 51.9594 -4.82986 1.92407 0
M  V30 536 C 49.6444 -4.8692 1.23346 0
M  V30 537 C 51.6384 -5.60559 3.03402 0
M  V30 538 C 49.3254 -5.64255 2.34649 0
M  V30 539 C 50.3234 -6.00986 3.24507 0
M  V30 540 O 50.0114 -6.76761 4.33878 0
M  V30 541 H 49.7434 -0.674292 0.0480234 0
M  V30 542 H 52.2974 -1.89812 0.784896 0
M  V30 543 H 50.5274 -3.73911 -0.986279 0
M  V30 544 H 52.2164 -4.0046 -0.662294 0
M  V30 545 H 52.9824 -4.51633 1.76785 0
M  V30 546 H 48.8614 -4.57789 0.543178 0
M  V30 547 H 52.4054 -5.89147 3.73565 0
M  V30 548 H 48.3024 -5.95021 2.5024 0
M  V30 549 H 49.0704 -6.95168 4.32068 0
M  V30 550 N 51.7335 -0.305618 -1.54608 0
M  V30 551 C 52.9585 0.307562 -2.05107 0
M  V30 552 C 53.3835 1.46385 -1.18123 0
M  V30 553 O 52.7415 1.8034 -0.186324 0
M  V30 554 C 52.7895 0.73704 -3.52987 0
M  V30 555 O 51.8935 1.84134 -3.6901 0
M  V30 556 H 51.2345 0.0589143 -0.661381 0
M  V30 557 H 53.7645 -0.448807 -1.99617 0
M  V30 558 H 53.7745 1.02459 -3.94925 0
M  V30 559 H 52.4495 -0.108773 -4.15758 0
M  V30 560 H 51.0265 1.55398 -3.38978 0
M  V30 561 N 53.2116 1.57565 -0.0334293 0
M  V30 562 C 54.6276 1.56297 0.322997 0
M  V30 563 C 54.8276 1.03945 1.7262 0
M  V30 564 O 53.8836 0.688109 2.42943 0
M  V30 565 C 55.1966 3.00232 0.167664 0
M  V30 566 C 56.7446 3.12078 0.240107 0
M  V30 567 C 57.2196 4.57859 0.113513 0
M  V30 568 N 58.7106 4.62887 0.170359 0
M  V30 569 C 59.4456 5.73319 0.0962517 0
M  V30 570 N 58.9416 6.92794 -0.0291881 0
M  V30 571 N 60.7346 5.61898 0.150551 0
M  V30 572 H 52.8856 1.89923 -0.950956 0
M  V30 573 H 55.1486 0.873824 -0.367608 0
M  V30 574 H 54.8546 3.42501 -0.799102 0
M  V30 575 H 54.7286 3.654 0.936083 0
M  V30 576 H 57.1156 2.69718 1.19733 0
M  V30 577 H 57.1966 2.49623 -0.558763 0
M  V30 578 H 56.8406 5.009 -0.840314 0
M  V30 579 H 56.7706 5.18299 0.931302 0
M  V30 580 H 59.2616 3.76954 0.26728 0
M  V30 581 H 59.5746 7.7276 -0.0789252 0
M  V30 582 H 57.9196 6.94971 -0.0640299 0
M  V30 583 H 61.1106 4.67448 0.246981 0
M  V30 584 H 61.2836 6.47938 0.0893365 0
M  V30 585 N 54.6897 -0.239769 1.55765 0
M  V30 586 C 55.9377 -0.964892 1.77579 0
M  V30 587 C 56.2587 -1.85582 0.598699 0
M  V30 588 O 55.5287 -1.92075 -0.385226 0
M  V30 589 H 54.1087 -0.359265 0.654933 0
M  V30 590 H 56.7707 -0.256001 1.93211 0
M  V30 591 H 55.8667 -1.58243 2.69009 0
M  V30 592 N 56.1678 -1.49265 -0.50573 0
M  V30 593 C 57.4138 -1.58748 -1.26202 0
M  V30 594 C 57.7468 -0.271227 -1.92297 0
M  V30 595 O 57.0218 0.724831 -1.80489 0
M  V30 596 C 57.3048 -2.74332 -2.33268 0
M  V30 597 C 57.1578 -4.15737 -1.71705 0
M  V30 598 C 58.4768 -2.85576 -3.34865 0
M  V30 599 H 55.5958 -0.577826 -0.457478 0
M  V30 600 H 58.2378 -1.81532 -0.560897 0
M  V30 601 H 56.3878 -2.55036 -2.93068 0
M  V30 602 H 58.0598 -4.46537 -1.15769 0
M  V30 603 H 56.3028 -4.21605 -1.02135 0
M  V30 604 H 56.9738 -4.92477 -2.49341 0
M  V30 605 H 59.4498 -3.03127 -2.8505 0
M  V30 606 H 58.3258 -3.68135 -4.07146 0
M  V30 607 H 58.5868 -1.94732 -3.96903 0
M  V30 608 N 57.6459 0.756429 -1.3826 0
M  V30 609 C 58.8859 1.52833 -1.35725 0
M  V30 610 C 59.2499 1.91926 0.0534106 0
M  V30 611 O 60.4509 2.68028 0.203613 0
M  V30 612 C 58.7219 2.74919 -2.28373 0
M  V30 613 S 60.2809 3.64817 -2.43832 0
M  V30 614 H 57.0989 0.523043 -0.481608 0
M  V30 615 H 59.7009 0.888212 -1.74158 0
M  V30 616 H 58.4049 2.44304 -3.29763 0
M  V30 617 H 57.9359 3.43878 -1.91079 0
M  V30 618 H 59.9509 4.676 -1.66027 0
M  V30 619 N 59.124 1.23083 0.984299 0
M  V30 620 C 60.54 0.992637 1.24975 0
M  V30 621 C 60.74 -0.308618 1.99123 0
M  V30 622 O 59.796 -1.02905 2.30579 0
M  V30 623 C 61.109 2.19698 2.05312 0
M  V30 624 C 62.657 2.24147 2.18465 0
M  V30 625 C 63.132 3.44157 3.02192 0
M  V30 626 N 64.623 3.44372 3.09777 0
M  V30 627 C 65.358 4.33886 3.74874 0
M  V30 628 N 64.854 5.3363 4.41827 0
M  V30 629 N 66.647 4.21639 3.71721 0
M  V30 630 H 58.798 2.06731 0.487453 0
M  V30 631 H 61.061 0.906339 0.277944 0
M  V30 632 H 60.767 3.1411 1.58201 0
M  V30 633 H 60.641 2.20465 3.06064 0
M  V30 634 H 63.028 1.30277 2.64786 0
M  V30 635 H 63.109 2.27415 1.17115 0
M  V30 636 H 62.753 4.38332 2.56568 0
M  V30 637 H 62.683 3.3813 4.03702 0
M  V30 638 H 65.174 2.72201 2.62135 0
M  V30 639 H 65.487 5.98196 4.89266 0
M  V30 640 H 63.832 5.37534 4.40548 0
M  V30 641 H 67.023 3.42962 3.18582 0
M  V30 642 H 67.196 4.91604 4.22173 0
M  V30 643 N 60.6021 -1.18246 1.0419 0
M  V30 644 C 61.8301 -1.92195 0.766072 0
M  V30 645 C 62.2451 -1.76247 -0.676933 0
M  V30 646 O 61.6021 -1.09293 -1.46155 0
M  V30 647 C 61.6531 -3.43568 1.12442 0
M  V30 648 O 61.3741 -3.59015 2.51078 0
M  V30 649 C 62.8751 -4.34613 0.873275 0
M  V30 650 H 60.0951 -0.610114 0.279288 0
M  V30 651 H 62.6391 -1.50007 1.38989 0
M  V30 652 H 60.7941 -3.8354 0.545542 0
M  V30 653 H 61.2081 -4.5273 2.64831 0
M  V30 654 H 62.6821 -5.39374 1.17385 0
M  V30 655 H 63.1591 -4.38781 -0.191909 0
M  V30 656 H 63.7651 -4.00341 1.43551 0
M  V30 657 N 62.0802 -0.821533 -1.34494 0
M  V30 658 C 63.0272 -0.240397 -2.29545 0
M  V30 659 C 63.9972 0.634031 -1.53523 0
M  V30 660 O 65.1822 0.575966 -1.81899 0
M  V30 661 C 62.3222 0.592869 -3.39969 0
M  V30 662 C 61.4352 -0.30365 -4.30932 0
M  V30 663 C 60.5702 0.539049 -5.28458 0
M  V30 664 C 59.6092 -0.356942 -6.11058 0
M  V30 665 N 58.7462 0.446603 -7.00678 0
M  V30 666 H 63.5862 -1.05632 -2.7865 0
M  V30 667 H 61.1232 -0.532413 -1.37127 0
M  V30 668 H 63.0812 1.09129 -4.02675 0
M  V30 669 H 61.7112 1.37392 -2.92102 0
M  V30 670 H 60.7632 -0.920276 -3.691 0
M  V30 671 H 62.0752 -0.992661 -4.88823 0
M  V30 672 H 61.2292 1.102 -5.96608 0
M  V30 673 H 59.9682 1.26157 -4.71101 0
M  V30 674 H 58.9732 -0.932047 -5.41842 0
M  V30 675 H 60.1982 -1.07755 -6.70497 0
M  V30 676 H 58.1442 1.15282 -6.45791 0
M  V30 677 H 58.0612 -0.184048 -7.55776 0
M  V30 678 H 59.3292 0.992352 -7.73158 0
M  V30 679 N 63.5583 1.46682 -0.576371 0
M  V30 680 C 64.7833 2.07304 -0.0630475 0
M  V30 681 C 65.2083 1.42329 1.2298 0
M  V30 682 O 64.5663 0.504865 1.74129 0
M  V30 683 C 64.6143 3.60472 0.095895 0
M  V30 684 O 63.7183 3.95927 1.15394 0
M  V30 685 H 63.0593 0.661288 -0.0599463 0
M  V30 686 H 65.5893 1.88417 -0.797511 0
M  V30 687 H 65.5993 4.06865 0.304071 0
M  V30 688 H 64.2743 4.07157 -0.84828 0
M  V30 689 H 62.8513 3.61252 0.924724 0
M  V30 690 N 65.0364 0.313813 1.54444 0
M  V30 691 C 66.2644 -0.293918 2.04802 0
M  V30 692 C 66.6794 -1.46537 1.19047 0
M  V30 693 O 66.0364 -1.81182 0.218939 0
M  V30 694 C 66.0874 -0.737806 3.53891 0
M  V30 695 O 65.8084 0.387038 4.36387 0
M  V30 696 C 67.3094 -1.40936 4.203 0
M  V30 697 H 64.5294 -0.0620057 0.668129 0
M  V30 698 H 67.0734 0.457169 1.99324 0
M  V30 699 H 65.2284 -1.43889 3.59687 0
M  V30 700 H 65.6424 0.0391274 5.24485 0
M  V30 701 H 67.1164 -1.67099 5.26101 0
M  V30 702 H 67.5934 -2.35355 3.70816 0
M  V30 703 H 68.1994 -0.751117 4.18615 0
M  V30 704 N 66.5145 -1.57545 0.0417849 0
M  V30 705 C 67.7395 -1.97035 -0.647455 0
M  V30 706 C 68.1645 -0.918775 -1.64135 0
M  V30 707 O 67.5225 0.119006 -1.80909 0
M  V30 708 C 67.5705 -3.35609 -1.31905 0
M  V30 709 O 66.6745 -3.3287 -2.43457 0
M  V30 710 H 66.0155 -0.64211 -0.169086 0
M  V30 711 H 68.5455 -2.04318 0.107399 0
M  V30 712 H 68.5555 -3.72126 -1.67291 0
M  V30 713 H 67.2305 -4.11685 -0.590586 0
M  V30 714 H 65.8075 -3.08087 -2.10088 0
M  V30 715 N 67.9926 0.231505 -1.5589 0
M  V30 716 C 69.2696 0.981096 -1.69215 0
M  V30 717 C 69.6496 2.02799 -0.586164 0
M  V30 718 O 68.9976 2.24823 0.408253 0
M  V30 719 C 69.2076 1.60054 -3.10135 0
M  V30 720 C 70.5556 2.09658 -3.69227 0
M  V30 721 O 71.5796 1.69967 -3.13033 0
M  V30 722 O 70.4386 2.8258 -4.67772 0
M  V30 723 H 67.5326 0.457653 -0.688827 0
M  V30 724 H 70.0786 0.224073 -1.68214 0
M  V30 725 H 68.8506 0.844105 -3.82087 0
M  V30 726 H 68.4736 2.42336 -3.15212 0
M  V30 727 N 69.4707 1.49531 0.497807 0
M  V30 728 C 70.4187 1.66926 1.61983 0
M  V30 729 C 71.4127 0.535167 1.60724 0
M  V30 730 O 72.6187 0.714896 1.65195 0
M  V30 731 H 68.9937 0.526415 0.537021 0
M  V30 732 H 70.9647 2.61098 1.44465 0
M  V30 733 C 69.7137 1.75602 3.00099 0
M  V30 734 H 69.0367 2.62244 3.01775 0
M  V30 735 H 70.4767 1.91807 3.78135 0
M  V30 736 C 68.9357 0.501543 3.33146 0
M  V30 737 O 69.4657 -0.371342 3.9998 0
M  V30 738 N 67.6717 0.363531 2.88317 0
M  V30 739 H 67.2187 1.07485 2.34104 0
M  V30 740 H 67.1767 -0.474728 3.10795 0
M  V30 741 N 70.9488 -0.749086 1.3866 0
M  V30 742 C 71.8588 -1.89358 1.38494 0
M  V30 743 C 72.8748 -1.71708 0.281476 0
M  V30 744 O 74.0508 -1.94554 0.520643 0
M  V30 745 C 71.1158 -3.24782 1.21316 0
M  V30 746 C 70.1768 -3.54926 2.41508 0
M  V30 747 C 69.4098 -4.83888 2.2514 0
M  V30 748 O 69.6328 -5.56592 1.24746 0
M  V30 749 O 68.5668 -5.13612 3.13826 0
M  V30 750 H 72.3928 -1.92452 2.34938 0
M  V30 751 H 69.9778 -0.894981 1.19626 0
M  V30 752 H 71.8598 -4.05739 1.13814 0
M  V30 753 H 70.5348 -3.2249 0.279592 0
M  V30 754 H 69.4418 -2.74112 2.54585 0
M  V30 755 H 70.7748 -3.61983 3.3351 0
M  V30 756 N 72.4269 -1.23603 -0.977757 0
M  V30 757 C 73.6549 -1.09646 -1.75458 0
M  V30 758 C 74.0699 0.351859 -1.85492 0
M  V30 759 O 73.4269 1.24327 -1.336 0
M  V30 760 C 73.4779 -1.71895 -3.18016 0
M  V30 761 O 73.1989 -3.11063 -3.08498 0
M  V30 762 C 74.6999 -1.63415 -4.12081 0
M  V30 763 H 71.9199 -0.38359 -0.550545 0
M  V30 764 H 74.4639 -1.63507 -1.22824 0
M  V30 765 H 72.6189 -1.22061 -3.67668 0
M  V30 766 H 73.0329 -3.41305 -3.9826 0
M  V30 767 H 74.5069 -2.11669 -5.09804 0
M  V30 768 H 74.9839 -0.593462 -4.35172 0
M  V30 769 H 75.5899 -2.12628 -3.68334 0
M  V30 770 N 73.905 1.17692 -1.04816 0
M  V30 771 C 75.13 1.92327 -0.776207 0
M  V30 772 C 75.555 1.76082 0.661581 0
M  V30 773 O 74.913 1.076 1.45917 0
M  V30 774 C 74.961 3.41539 -1.15687 0
M  V30 775 O 74.065 4.11402 -0.286775 0
M  V30 776 H 73.406 0.599735 -0.284981 0
M  V30 777 H 75.936 1.49201 -1.4 0
M  V30 778 H 75.946 3.92269 -1.12202 0
M  V30 779 H 74.621 3.52684 -2.20425 0
M  V30 780 H 73.198 3.70939 -0.381903 0
M  V30 781 N 75.3831 0.828654 1.34056 0
M  V30 782 C 76.7991 0.515135 1.51058 0
M  V30 783 C 76.9991 -0.959581 1.77184 0
M  V30 784 O 76.0551 -1.74382 1.82612 0
M  V30 785 C 77.3681 1.37963 2.67183 0
M  V30 786 C 78.9161 1.37735 2.81066 0
M  V30 787 C 79.3911 2.22645 4.00241 0
M  V30 788 N 80.8821 2.203 4.07458 0
M  V30 789 C 81.6171 2.82744 4.98842 0
M  V30 790 N 81.1131 3.54201 5.9541 0
M  V30 791 N 82.9061 2.72268 4.91759 0
M  V30 792 H 75.0571 1.78343 1.15358 0
M  V30 793 H 77.3201 0.760304 0.566252 0
M  V30 794 H 77.0261 2.42714 2.54525 0
M  V30 795 H 76.9001 1.0484 3.62338 0
M  V30 796 H 79.2871 0.337593 2.93163 0
M  V30 797 H 79.3681 1.74859 1.86703 0
M  V30 798 H 79.0121 3.26674 3.88905 0
M  V30 799 H 78.9421 1.82869 4.93829 0
M  V30 800 H 81.4331 1.68327 3.38341 0
M  V30 801 H 81.7461 3.9908 6.61782 0
M  V30 802 H 80.0911 3.58308 5.95517 0
M  V30 803 H 83.2821 2.16014 4.15278 0
M  V30 804 H 83.4551 3.21219 5.62781 0
M  V30 805 N 76.8612 -1.46375 0.584142 0
M  V30 806 C 77.8082 -2.30323 -0.148286 0
M  V30 807 C 78.7782 -1.40703 -0.882713 0
M  V30 808 O 79.9632 -1.69651 -0.873099 0
M  V30 809 C 77.1032 -3.25196 -1.15507 0
M  V30 810 C 76.2162 -4.29915 -0.423943 0
M  V30 811 C 75.3512 -5.11914 -1.41838 0
M  V30 812 C 74.3902 -6.08381 -0.673736 0
M  V30 813 N 73.5272 -6.83242 -1.6163 0
M  V30 814 H 78.3672 -2.92427 0.573644 0
M  V30 815 H 75.9042 -1.44118 0.294703 0
M  V30 816 H 77.8622 -3.78646 -1.75166 0
M  V30 817 H 76.4922 -2.64898 -1.8447 0
M  V30 818 H 75.5442 -3.7931 0.287714 0
M  V30 819 H 76.8562 -4.98549 0.158128 0
M  V30 820 H 76.0102 -5.69648 -2.08773 0
M  V30 821 H 74.7492 -4.43243 -2.03438 0
M  V30 822 H 73.7542 -5.49799 0.00938483 0
M  V30 823 H 74.9792 -6.79071 -0.0631082 0
M  V30 824 H 72.9252 -6.1728 -2.22038 0
M  V30 825 H 72.8422 -7.48144 -1.08707 0
M  V30 826 H 74.1102 -7.45534 -2.27596 0
M  V30 827 N 78.3393 -0.321999 -1.54275 0
M  V30 828 C 79.2873 0.560206 -2.25753 0
M  V30 829 C 80.2813 1.11984 -1.27106 0
M  V30 830 O 81.4873 1.06806 -1.44888 0
M  V30 831 H 77.8623 0.199304 -0.725108 0
M  V30 832 H 79.8333 -0.0649365 -2.98329 0
M  V30 833 C 78.5823 1.71023 -3.02731 0
M  V30 834 H 77.9053 1.28885 -3.78456 0
M  V30 835 H 79.3453 2.30314 -3.55993 0
M  V30 836 C 77.8043 2.62692 -2.10938 0
M  V30 837 O 78.3343 3.64364 -1.6912 0
M  V30 838 N 76.5403 2.30891 -1.76459 0
M  V30 839 H 76.0873 1.48253 -2.10663 0
M  V30 840 H 76.0453 2.92487 -1.1532 0
M  V30 841 N 79.8174 1.5752 -0.0501392 0
M  V30 842 C 80.7274 2.14952 0.939827 0
M  V30 843 C 81.7434 1.10706 1.34239 0
M  V30 844 O 82.9194 1.42869 1.41952 0
M  V30 845 C 79.9844 2.68232 2.19665 0
M  V30 846 C 79.0454 3.87272 1.85253 0
M  V30 847 C 78.2784 4.38002 3.04943 0
M  V30 848 O 78.5014 3.87811 4.18281 0
M  V30 849 O 77.4354 5.29602 2.86017 0
M  V30 850 H 81.2614 2.9986 0.481392 0
M  V30 851 H 78.8464 1.4841 0.171699 0
M  V30 852 H 80.7284 3.02475 2.93406 0
M  V30 853 H 79.4034 1.86395 2.64648 0
M  V30 854 H 78.3104 3.5792 1.0883 0
M  V30 855 H 79.6434 4.70336 1.4507 0
M  V30 856 N 81.2955 -0.223234 1.56011 0
M  V30 857 C 82.2055 -1.29766 1.95443 0
M  V30 858 C 83.2215 -1.51373 0.858028 0
M  V30 859 O 84.3975 -1.64536 1.16146 0
M  V30 860 C 81.4625 -2.62772 2.26167 0
M  V30 861 C 80.5235 -2.49482 3.49367 0
M  V30 862 C 79.7565 -3.76145 3.78616 0
M  V30 863 O 79.9795 -4.79087 3.09568 0
M  V30 864 O 78.9135 -3.73358 4.72109 0
M  V30 865 H 82.7395 -0.99309 2.87004 0
M  V30 866 H 80.3245 -0.425958 1.43199 0
M  V30 867 H 82.2065 -3.41327 2.47131 0
M  V30 868 H 80.8815 -2.92913 1.37781 0
M  V30 869 H 79.7885 -1.69133 3.33684 0
M  V30 870 H 81.1215 -2.2428 4.38131 0
M  V30 871 N 82.7736 -1.49793 -0.48987 0
M  V30 872 C 84.0196 -1.60078 -1.24511 0
M  V30 873 C 84.3526 -0.291608 -1.91998 0
M  V30 874 O 83.6276 0.705647 -1.81248 0
M  V30 875 C 83.9106 -2.76791 -2.30345 0
M  V30 876 C 83.7636 -4.17535 -1.67286 0
M  V30 877 C 85.0826 -2.89111 -3.31817 0
M  V30 878 H 82.2016 -0.582645 -0.451324 0
M  V30 879 H 84.8436 -1.82117 -0.541612 0
M  V30 880 H 82.9936 -2.5813 -2.90346 0
M  V30 881 H 84.6656 -4.4774 -1.11026 0
M  V30 882 H 82.9086 -4.22665 -0.976577 0
M  V30 883 H 83.5796 -4.95094 -2.44103 0
M  V30 884 H 86.0556 -3.06133 -2.81819 0
M  V30 885 H 84.9316 -3.72433 -4.03219 0
M  V30 886 H 85.1926 -1.9893 -3.94815 0
M  V30 887 N 84.2517 0.741722 -1.39055 0
M  V30 888 C 85.1847 1.86416 -1.31622 0
M  V30 889 C 86.1627 1.61473 -0.191076 0
M  V30 890 O 87.3467 1.84825 -0.370399 0
M  V30 891 C 84.4737 3.22266 -1.04221 0
M  V30 892 C 83.5197 3.66079 -2.18834 0
M  V30 893 S 84.3527 3.7623 -3.81066 0
M  V30 894 C 85.5087 5.14881 -3.55877 0
M  V30 895 H 85.7417 1.92437 -2.26617 0
M  V30 896 H 83.2747 0.905907 -1.25031 0
M  V30 897 H 85.2327 4.00714 -0.890964 0
M  V30 898 H 83.8937 3.1391 -0.109237 0
M  V30 899 H 83.0867 4.64648 -1.95238 0
M  V30 900 H 82.6887 2.94817 -2.30128 0
M  V30 901 H 84.9807 6.01006 -3.12726 0
M  V30 902 H 85.9237 5.43503 -4.53884 0
M  V30 903 H 86.3317 4.84239 -2.90126 0
M  V30 904 N 85.7298 1.2412 0.971189 0
M  V30 905 C 86.9578 1.10575 1.74874 0
M  V30 906 C 87.3728 -0.342017 1.85676 0
M  V30 907 O 86.7298 -1.23617 1.34258 0
M  V30 908 C 86.7808 1.73579 3.171 0
M  V30 909 O 86.5018 3.12695 3.06844 0
M  V30 910 C 88.0028 1.65598 4.11208 0
M  V30 911 H 85.2228 0.386504 0.548503 0
M  V30 912 H 87.7668 1.64156 1.21955 0
M  V30 913 H 85.9218 1.24009 3.67016 0
M  V30 914 H 86.3358 3.43412 3.96445 0
M  V30 915 H 87.8098 2.1437 5.08674 0
M  V30 916 H 88.2868 0.616532 4.34851 0
M  V30 917 H 88.8928 2.14578 3.67201 0
M  V30 918 N 87.2079 -1.17134 1.05439 0
M  V30 919 C 88.1579 -2.1919 0.627675 0
M  V30 920 C 89.1419 -1.57328 -0.337147 0
M  V30 921 O 90.3339 -1.76329 -0.153976 0
M  V30 922 C 87.4629 -3.43299 0.00651435 0
M  V30 923 C 86.5489 -4.12255 0.995312 0
M  V30 924 N 86.9399 -4.56997 2.16765 0
M  V30 925 C 85.2379 -4.38316 0.824336 0
M  V30 926 C 85.9389 -5.10239 2.7934 0
M  V30 927 N 84.9149 -5.02595 2.07122 0
M  V30 928 H 88.7169 -2.5149 1.52086 0
M  V30 929 H 86.2309 -1.33491 0.924868 0
M  V30 930 H 88.2279 -4.15693 -0.316965 0
M  V30 931 H 86.8879 -3.1249 -0.882033 0
M  V30 932 H 87.8989 -4.51006 2.54587 0
M  V30 933 H 84.5759 -4.17498 -0.0129526 0
M  V30 934 H 85.9659 -5.54961 3.78772 0
M  V30 935 N 88.686 -0.835752 -1.33615 0
M  V30 936 C 89.911 -0.442389 -2.02627 0
M  V30 937 C 90.336 0.947735 -1.62479 0
M  V30 938 O 89.694 1.61907 -0.815826 0
M  V30 939 C 89.742 -0.567216 -3.56111 0
M  V30 940 O 88.846 0.407799 -4.10379 0
M  V30 941 H 88.187 -0.180278 -0.639059 0
M  V30 942 H 90.717 -1.12972 -1.70583 0
M  V30 943 H 90.727 -0.447708 -4.05536 0
M  V30 944 H 89.402 -1.58103 -3.84677 0
M  V30 945 H 87.979 0.246107 -3.72087 0
M  V30 946 N 90.1641 1.46063 -0.591896 0
M  V30 947 C 91.4121 2.01938 -0.0808391 0
M  V30 948 C 91.7331 1.46475 1.28725 0
M  V30 949 O 91.0031 0.652944 1.84698 0
M  V30 950 H 89.5831 0.746516 -0.0268938 0
M  V30 951 H 92.2451 1.79055 -0.769752 0
M  V30 952 H 91.3411 3.12094 -0.0187578 0
M  V30 953 N 91.6422 0.330177 1.54103 0
M  V30 954 C 92.5722 -0.525353 2.27513 0
M  V30 955 C 93.5532 -1.11383 1.2856 0
M  V30 956 O 94.7382 -1.13773 1.57383 0
M  V30 957 C 91.8682 -1.6831 3.03791 0
M  V30 958 C 90.8222 -1.2236 4.10137 0
M  V30 959 C 90.1482 -2.46882 4.74293 0
M  V30 960 C 91.4482 -0.333697 5.21233 0
M  V30 961 H 93.1422 0.087013 2.99274 0
M  V30 962 H 90.6882 0.0432893 1.43935 0
M  V30 963 H 92.6412 -2.28795 3.5388 0
M  V30 964 H 91.3652 -2.32216 2.29659 0
M  V30 965 H 90.0242 -0.64165 3.60941 0
M  V30 966 H 89.6722 -3.09165 3.96769 0
M  V30 967 H 89.3722 -2.16825 5.46133 0
M  V30 968 H 90.8962 -3.08117 5.27159 0
M  V30 969 H 92.3102 -0.845013 5.67038 0
M  V30 970 H 90.7072 -0.125612 5.99969 0
M  V30 971 H 91.7772 0.633724 4.80741 0
M  V30 972 N 93.1203 -1.57491 0.0584922 0
M  V30 973 C 94.3663 -1.94081 -0.608617 0
M  V30 974 C 94.7213 -0.937438 -1.68017 0
M  V30 975 O 94.0143 0.0423034 -1.91553 0
M  V30 976 C 94.2083 -3.3513 -1.24188 0
M  V30 977 C 94.0373 -4.49095 -0.233187 0
M  V30 978 C 92.8073 -5.04988 0.177439 0
M  V30 979 C 95.0053 -5.1162 0.524306 0
M  V30 980 N 92.9873 -6.02487 1.17823 0
M  V30 981 C 94.3583 -6.04493 1.37796 0
M  V30 982 C 96.4133 -4.94489 0.581822 0
M  V30 983 C 95.1163 -6.82075 2.28399 0
M  V30 984 C 97.1423 -5.72703 1.47531 0
M  V30 985 C 96.5043 -6.65214 2.31667 0
M  V30 986 H 92.6033 -0.75752 -0.194134 0
M  V30 987 H 95.1873 -1.94248 0.132533 0
M  V30 988 H 93.3583 -3.35726 -1.95302 0
M  V30 989 H 95.0903 -3.5899 -1.86838 0
M  V30 990 H 91.8453 -4.73165 -0.203004 0
M  V30 991 H 92.2693 -6.55933 1.67573 0
M  V30 992 H 96.9113 -4.22765 -0.054443 0
M  V30 993 H 94.6293 -7.53085 2.93067 0
M  V30 994 H 98.2153 -5.61472 1.52448 0
M  V30 995 H 97.0953 -7.24679 2.99683 0
M  V30 996 N 94.5984 0.214957 -1.56127 0
M  V30 997 C 96.0144 0.564948 -1.49267 0
M  V30 998 C 96.2144 1.86827 -0.754838 0
M  V30 999 O 95.2704 2.50745 -0.297198 0
M  V30 1000 C 96.5834 0.638071 -2.93852 0
M  V30 1001 C 98.1314 0.728253 -3.0441 0
M  V30 1002 C 98.6064 0.832663 -4.50367 0
M  V30 1003 N 100.097 0.896712 -4.54437 0
M  V30 1004 C 100.832 0.997324 -5.6466 0
M  V30 1005 N 100.328 1.06147 -6.8462 0
M  V30 1006 N 102.121 1.03297 -5.52527 0
M  V30 1007 H 94.2724 -0.640211 -2.02522 0
M  V30 1008 H 96.5354 -0.225507 -0.920788 0
M  V30 1009 H 96.2414 -0.250126 -3.50809 0
M  V30 1010 H 96.1154 1.49947 -3.46115 0
M  V30 1011 H 98.5024 1.60689 -2.47514 0
M  V30 1012 H 98.5834 -0.158952 -2.55306 0
M  V30 1013 H 98.2274 -0.0415417 -5.07883 0
M  V30 1014 H 98.1574 1.73538 -4.97184 0
M  V30 1015 H 100.648 0.857188 -3.6805 0
M  V30 1016 H 100.961 1.1382 -7.64372 0
M  V30 1017 H 99.3064 1.03049 -6.87318 0
M  V30 1018 H 102.497 0.979558 -4.57736 0
M  V30 1019 H 102.67 1.10793 -6.38458 0
M  V30 1020 N 96.0765 1.50051 0.48192 0
M  V30 1021 C 97.3045 1.64237 1.25832 0
M  V30 1022 C 97.7195 0.321336 1.86045 0
M  V30 1023 O 97.0765 -0.695478 1.68729 0
M  V30 1024 C 97.1275 2.72548 2.37487 0
M  V30 1025 O 96.8485 3.99529 1.79745 0
M  V30 1026 C 98.3495 2.9761 3.28547 0
M  V30 1027 H 95.5695 0.55237 0.380957 0
M  V30 1028 H 98.1135 1.96207 0.576467 0
M  V30 1029 H 96.2685 2.43303 3.01467 0
M  V30 1030 H 96.6825 4.59342 2.5319 0
M  V30 1031 H 98.1565 3.77084 4.03127 0
M  V30 1032 H 98.6335 2.0826 3.86684 0
M  V30 1033 H 99.2395 3.28345 2.70314 0
M  V30 1034 N 97.5546 -0.734337 1.39446 0
M  V30 1035 C 98.7946 -1.50655 1.38139 0
M  V30 1036 C 99.1586 -1.91986 -0.0228701 0
M  V30 1037 O 100.36 -2.68318 -0.160947 0
M  V30 1038 C 98.6306 -2.71251 2.32718 0
M  V30 1039 S 100.19 -3.60892 2.49605 0
M  V30 1040 H 97.0076 -0.515315 0.489869 0
M  V30 1041 H 99.6096 -0.860392 1.75549 0
M  V30 1042 H 98.3136 -2.39027 3.33608 0
M  V30 1043 H 97.8446 -3.40795 1.96526 0
M  V30 1044 H 99.8596 -4.64899 1.73446 0
M  V30 1045 N 99.0327 -1.24633 -0.964593 0
M  V30 1046 C 100.273 -1.09981 -1.72289 0
M  V30 1047 C 100.637 0.354792 -1.88693 0
M  V30 1048 O 101.838 0.62289 -2.61483 0
M  V30 1049 C 100.109 -1.82262 -3.07434 0
M  V30 1050 S 101.668 -1.83379 -3.98645 0
M  V30 1051 H 98.4857 -0.393292 -0.59232 0
M  V30 1052 H 101.088 -1.58009 -1.15123 0
M  V30 1053 H 99.7917 -2.87206 -2.93157 0
M  V30 1054 H 99.3227 -1.3458 -3.69664 0
M  V30 1055 H 101.338 -0.903691 -4.87901 0
M  V30 1056 N 100.511 1.16574 -1.06058 0
M  V30 1057 C 101.441 2.23057 -0.690488 0
M  V30 1058 C 102.422 1.67141 0.315901 0
M  V30 1059 O 103.607 1.93253 0.191556 0
M  V30 1060 C 100.737 3.47222 -0.073625 0
M  V30 1061 C 99.6908 4.16016 -1.00573 0
M  V30 1062 C 99.0168 5.34104 -0.252289 0
M  V30 1063 C 100.317 4.67264 -2.33371 0
M  V30 1064 H 102.011 2.54271 -1.58072 0
M  V30 1065 H 99.5568 1.22218 -0.76149 0
M  V30 1066 H 101.51 4.20939 0.19714 0
M  V30 1067 H 100.234 3.15302 0.85161 0
M  V30 1068 H 98.8928 3.44223 -1.2612 0
M  V30 1069 H 98.5408 4.98437 0.675988 0
M  V30 1070 H 98.2408 5.81072 -0.873455 0
M  V30 1071 H 99.7648 6.10599 0.0109857 0
M  V30 1072 H 101.179 5.32573 -2.12223 0
M  V30 1073 H 99.5758 5.24843 -2.90963 0
M  V30 1074 H 100.646 3.83602 -2.96611 0
M  V30 1075 N 101.989 0.842826 1.3317 0
M  V30 1076 C 102.899 0.281444 2.32906 0
M  V30 1077 C 103.915 -0.594587 1.63526 0
M  V30 1078 O 105.091 -0.49777 1.95152 0
M  V30 1079 C 102.156 -0.530929 3.42611 0
M  V30 1080 C 101.217 0.369843 4.27704 0
M  V30 1081 C 100.45 -0.403853 5.3217 0
M  V30 1082 O 100.673 -1.63513 5.46461 0
M  V30 1083 O 99.6069 0.224199 6.01482 0
M  V30 1084 H 103.433 1.10744 2.82789 0
M  V30 1085 H 101.018 0.60545 1.36582 0
M  V30 1086 H 102.9 -0.992437 4.09547 0
M  V30 1087 H 101.575 -1.33392 2.94938 0
M  V30 1088 H 100.482 0.879275 3.6362 0
M  V30 1089 H 101.815 1.13771 4.78871 0
M  V30 1090 N 103.467 -1.45747 0.599634 0
M  V30 1091 C 104.715 -2.01893 0.0915472 0
M  V30 1092 C 105.036 -1.47155 -1.27946 0
M  V30 1093 O 104.306 -0.66273 -1.84349 0
M  V30 1094 H 102.886 -0.746363 0.0308524 0
M  V30 1095 H 105.548 -1.78645 0.779237 0
M  V30 1096 H 104.644 -3.1208 0.0353086 0
M  V30 1097 N 104.945 -0.338344 -1.53925 0
M  V30 1098 C 105.908 0.508299 -2.23493 0
M  V30 1099 C 106.908 1.03175 -1.23335 0
M  V30 1100 O 108.098 0.921826 -1.47811 0
M  V30 1101 C 105.23 1.70754 -2.95052 0
M  V30 1102 H 106.423 -0.100058 -2.99733 0
M  V30 1103 H 103.976 -0.0896198 -1.56043 0
M  V30 1104 H 104.711 2.35474 -2.22986 0
M  V30 1105 H 104.496 1.33946 -3.68512 0
M  V30 1106 H 105.986 2.30818 -3.48013 0
M  V30 1107 N 106.423 1.57458 -0.0668435 0
M  V30 1108 C 107.67 1.93301 0.603406 0
M  V30 1109 C 107.998 0.946486 1.69917 0
M  V30 1110 O 107.253 -0.0387021 1.95662 0
M  V30 1111 C 107.552 3.35784 1.22409 0
M  V30 1112 C 107.218 4.50179 0.254955 0
M  V30 1113 C 105.88 4.81199 -0.0116746 0
M  V30 1114 C 108.232 5.19598 -0.408338 0
M  V30 1115 C 105.56 5.78978 -0.94877 0
M  V30 1116 C 107.912 6.18381 -1.33372 0
M  V30 1117 C 106.576 6.47821 -1.60887 0
M  V30 1118 H 105.846 0.707338 0.220802 0
M  V30 1119 H 108.493 1.91012 -0.136665 0
M  V30 1120 H 106.798 3.34515 2.03978 0
M  V30 1121 H 108.495 3.60804 1.74989 0
M  V30 1122 H 105.085 4.25983 0.472954 0
M  V30 1123 H 109.269 4.95832 -0.215456 0
M  V30 1124 H 104.525 6.00115 -1.16925 0
M  V30 1125 H 108.699 6.71277 -1.85367 0
M  V30 1126 H 106.326 7.23399 -2.33661 0
M  V30 1127 N 107.901 -0.206675 1.56239 0
M  V30 1128 C 109.317 -0.557025 1.49564 0
M  V30 1129 C 109.517 -1.86424 0.764735 0
M  V30 1130 O 108.573 -2.50584 0.310491 0
M  V30 1131 C 109.886 -0.622478 2.94186 0
M  V30 1132 C 111.434 -0.712099 3.04792 0
M  V30 1133 C 111.909 -0.808767 4.50803 0
M  V30 1134 N 113.4 -0.8726 4.54907 0
M  V30 1135 C 114.135 -0.967365 5.65181 0
M  V30 1136 N 113.631 -1.02515 6.85173 0
M  V30 1137 N 115.424 -1.00366 5.53067 0
M  V30 1138 H 107.575 0.650943 2.02179 0
M  V30 1139 H 109.838 0.230387 0.919579 0
M  V30 1140 H 109.544 0.268727 3.50672 0
M  V30 1141 H 109.418 -1.4811 3.46905 0
M  V30 1142 H 111.805 -1.59374 2.48363 0
M  V30 1143 H 111.886 0.172489 2.55218 0
M  V30 1144 H 111.53 0.0684754 5.07854 0
M  V30 1145 H 111.46 -1.70899 4.98098 0
M  V30 1146 H 113.951 -0.837657 3.68499 0
M  V30 1147 H 114.264 -1.09765 7.64965 0
M  V30 1148 H 112.609 -0.994026 6.87855 0
M  V30 1149 H 115.8 -0.95527 4.58249 0
M  V30 1150 H 115.973 -1.07405 6.39037 0
M  V30 1151 N 109.379 -1.50304 -0.473955 0
M  V30 1152 C 110.627 -1.60832 -1.22382 0
M  V30 1153 C 110.948 -0.30939 -1.9253 0
M  V30 1154 O 110.218 0.67296 -1.83978 0
M  V30 1155 H 108.798 -0.592652 -0.454723 0
M  V30 1156 H 111.46 -1.87068 -0.546968 0
M  V30 1157 H 110.556 -2.41803 -1.97327 0
M  V30 1158 N 110.857 0.726932 -1.39834 0
M  V30 1159 C 112.103 1.48884 -1.377 0
M  V30 1160 C 112.436 1.94185 0.0244852 0
M  V30 1161 O 111.711 1.67361 0.990986 0
M  V30 1162 C 111.994 2.72288 -2.3565 0
M  V30 1163 C 111.847 2.32956 -3.84775 0
M  V30 1164 C 113.166 3.74414 -2.31306 0
M  V30 1165 H 110.285 0.540062 -0.5015 0
M  V30 1166 H 112.927 0.830547 -1.70886 0
M  V30 1167 H 111.077 3.28457 -2.07481 0
M  V30 1168 H 112.749 1.82356 -4.23726 0
M  V30 1169 H 110.992 1.65088 -4.01159 0
M  V30 1170 H 111.663 3.21362 -4.4881 0
M  V30 1171 H 114.139 3.27849 -2.56231 0
M  V30 1172 H 113.015 4.58414 -3.01907 0
M  V30 1173 H 113.276 4.21909 -1.32081 0
M  V30 1174 N 112.336 1.25143 0.95797 0
M  V30 1175 C 113.576 1.10893 1.71703 0
M  V30 1176 C 113.94 -0.34478 1.88879 0
M  V30 1177 O 115.141 -0.609014 2.6181 0
M  V30 1178 C 113.412 1.83889 3.06463 0
M  V30 1179 S 114.971 1.85491 3.97666 0
M  V30 1180 H 111.789 0.396428 0.590226 0
M  V30 1181 H 114.391 1.58618 1.14283 0
M  V30 1182 H 113.095 2.88756 2.9163 0
M  V30 1183 H 112.626 1.36538 3.68946 0
M  V30 1184 H 114.641 0.929553 4.87415 0
M  V30 1185 N 113.814 -1.1601 1.06675 0
M  V30 1186 C 114.761 -2.20525 0.680967 0
M  V30 1187 C 115.731 -1.62904 -0.324283 0
M  V30 1188 O 116.916 -1.89615 -0.212294 0
M  V30 1189 C 114.056 -3.45013 0.0776551 0
M  V30 1190 C 113.169 -4.16863 1.13355 0
M  V30 1191 C 112.304 -5.2888 0.49597 0
M  V30 1192 C 111.343 -5.92537 1.53513 0
M  V30 1193 N 110.48 -6.96038 0.920631 0
M  V30 1194 H 115.32 -2.52876 1.57663 0
M  V30 1195 H 112.857 -1.24199 0.788223 0
M  V30 1196 H 114.815 -4.16193 -0.289704 0
M  V30 1197 H 113.445 -3.132 -0.781393 0
M  V30 1198 H 112.497 -3.44248 1.61857 0
M  V30 1199 H 113.809 -4.60294 1.92174 0
M  V30 1200 H 112.963 -6.06653 0.0758604 0
M  V30 1201 H 111.702 -4.86622 -0.324062 0
M  V30 1202 H 110.707 -5.13482 1.9651 0
M  V30 1203 H 111.932 -6.36873 2.35733 0
M  V30 1204 H 109.878 -6.55888 0.12138 0
M  V30 1205 H 109.795 -7.3786 1.64616 0
M  V30 1206 H 111.063 -7.77725 0.525795 0
M  V30 1207 N 115.292 -0.849877 -1.32721 0
M  V30 1208 C 116.239 -0.289033 -2.28983 0
M  V30 1209 C 117.209 0.601324 -1.54833 0
M  V30 1210 O 118.394 0.537253 -1.8308 0
M  V30 1211 C 115.534 0.520623 -3.4115 0
M  V30 1212 C 114.647 -0.394989 -4.3019 0
M  V30 1213 C 113.782 0.426834 -5.29482 0
M  V30 1214 C 112.821 -0.486476 -6.10164 0
M  V30 1215 N 111.958 0.297879 -7.01468 0
M  V30 1216 H 116.798 -1.11519 -2.76347 0
M  V30 1217 H 114.335 -0.56138 -1.35967 0
M  V30 1218 H 116.293 1.00563 -4.04899 0
M  V30 1219 H 114.923 1.31165 -2.9495 0
M  V30 1220 H 113.975 -0.99836 -3.67065 0
M  V30 1221 H 115.287 -1.09612 -4.86607 0
M  V30 1222 H 114.441 0.975205 -5.98811 0
M  V30 1223 H 113.18 1.16136 -4.73671 0
M  V30 1224 H 112.185 -1.04677 -5.39743 0
M  V30 1225 H 113.41 -1.21953 -6.6806 0
M  V30 1226 H 111.356 1.01558 -6.48091 0
M  V30 1227 H 111.273 -0.344318 -7.55216 0
M  V30 1228 H 112.541 0.828131 -7.75089 0
M  V30 1229 N 116.77 1.45427 -0.607355 0
M  V30 1230 C 118.019 2.01452 -0.100036 0
M  V30 1231 C 118.332 1.48159 1.27704 0
M  V30 1232 O 119.538 1.96159 1.87707 0
M  V30 1233 C 117.994 3.59672 -0.128158 0
M  V30 1234 C 117.602 4.21962 -1.50507 0
M  V30 1235 C 119.346 4.23262 0.323932 0
M  V30 1236 C 117.253 5.72333 -1.48959 0
M  V30 1237 H 116.183 0.75325 -0.0336299 0
M  V30 1238 H 118.834 1.66901 -0.76265 0
M  V30 1239 H 117.216 3.91411 0.601105 0
M  V30 1240 H 118.39 4.01796 -2.25602 0
M  V30 1241 H 116.705 3.70565 -1.89923 0
M  V30 1242 H 119.302 5.33522 0.354691 0
M  V30 1243 H 119.645 3.93921 1.34656 0
M  V30 1244 H 120.178 3.96239 -0.352056 0
M  V30 1245 H 116.917 6.06373 -2.48981 0
M  V30 1246 H 116.437 5.94691 -0.781214 0
M  V30 1247 H 118.116 6.35525 -1.21313 0
M  V30 1248 N 118.248 0.346503 1.53744 0
M  V30 1249 C 119.525 -0.304532 1.93215 0
M  V30 1250 C 119.905 -1.67993 1.27834 0
M  V30 1251 O 119.253 -2.24411 0.430352 0
M  V30 1252 C 119.463 -0.373852 3.46992 0
M  V30 1253 C 120.811 -0.62329 4.2 0
M  V30 1254 O 121.835 -0.455847 3.53271 0
M  V30 1255 O 120.694 -0.947879 5.38217 0
M  V30 1256 H 117.788 -0.178318 0.807547 0
M  V30 1257 H 120.334 0.397895 1.64969 0
M  V30 1258 H 119.106 0.591224 3.86808 0
M  V30 1259 H 118.729 -1.12294 3.81413 0
M  V30 1260 N 119.726 -1.57421 0.075193 0
M  V30 1261 C 120.676 -2.09441 -0.901025 0
M  V30 1262 C 121.66 -1.00486 -1.25663 0
M  V30 1263 O 122.852 -1.2679 -1.23504 0
M  V30 1264 C 119.981 -2.66233 -2.16737 0
M  V30 1265 C 119.067 -3.82198 -1.83808 0
M  V30 1266 N 119.458 -4.91028 -1.21345 0
M  V30 1267 C 117.756 -3.91558 -2.13538 0
M  V30 1268 C 118.457 -5.71852 -1.06585 0
M  V30 1269 N 117.433 -5.20233 -1.57667 0
M  V30 1270 H 121.235 -2.90972 -0.413815 0
M  V30 1271 H 118.749 -1.6189 -0.128601 0
M  V30 1272 H 120.746 -3.01819 -2.87595 0
M  V30 1273 H 119.406 -1.8615 -2.66042 0
M  V30 1274 H 120.417 -5.10323 -0.88268 0
M  V30 1275 H 117.094 -3.22454 -2.65197 0
M  V30 1276 H 118.484 -6.69401 -0.578933 0
M  V30 1277 N 121.204 0.198386 -1.56346 0
M  V30 1278 C 122.451 0.919286 -1.80431 0
M  V30 1279 C 122.779 1.83393 -0.647866 0
M  V30 1280 O 122.034 1.92236 0.366556 0
M  V30 1281 C 122.333 1.77031 -3.10475 0
M  V30 1282 C 121.999 1.00693 -4.39513 0
M  V30 1283 C 120.661 0.796145 -4.74568 0
M  V30 1284 C 123.013 0.469559 -5.19081 0
M  V30 1285 C 120.341 0.0364588 -5.86689 0
M  V30 1286 C 122.693 -0.2769 -6.31994 0
M  V30 1287 C 121.357 -0.49873 -6.65634 0
M  V30 1288 H 120.627 0.336391 -0.660244 0
M  V30 1289 H 123.274 0.185872 -1.90596 0
M  V30 1290 H 121.579 2.5723 -2.95533 0
M  V30 1291 H 123.276 2.33065 -3.26315 0
M  V30 1292 H 119.866 1.18122 -4.12001 0
M  V30 1293 H 124.05 0.619816 -4.92414 0
M  V30 1294 H 119.306 -0.145412 -6.11227 0
M  V30 1295 H 123.48 -0.700684 -6.92866 0
M  V30 1296 H 121.107 -1.0893 -7.52355 0
M  V30 1297 N 122.682 1.50554 0.465978 0
M  V30 1298 C 124.093 1.54599 1.04671 0
M  V30 1299 C 124.444 0.352488 1.93008 0
M  V30 1300 O 123.569 -0.534044 2.09707 0
M  V30 1301 C 124.164 2.80166 1.90505 0
M  V30 1302 C 122.723 2.86876 2.43678 0
M  V30 1303 C 121.87 2.48947 1.22151 0
M  V30 1304 H 124.821 1.56744 0.248384 0
M  V30 1305 H 124.842 2.62311 2.75633 0
M  V30 1306 H 124.354 3.67013 1.26186 0
M  V30 1307 H 122.455 2.04393 3.11536 0
M  V30 1308 H 122.568 3.89885 2.78436 0
M  V30 1309 H 120.932 2.01498 1.5579 0
M  V30 1310 H 121.715 3.38107 0.594866 0
M  V30 1311 N 124.16 -0.719506 1.40217 0
M  V30 1312 C 125.07 -1.86378 1.42479 0
M  V30 1313 C 126.086 -1.71073 0.317834 0
M  V30 1314 O 127.262 -1.93406 0.561794 0
M  V30 1315 C 124.327 -3.22136 1.28178 0
M  V30 1316 C 123.388 -3.49723 2.48982 0
M  V30 1317 C 122.621 -4.79004 2.35353 0
M  V30 1318 O 122.844 -5.53821 1.36524 0
M  V30 1319 O 121.778 -5.06839 3.2465 0
M  V30 1320 H 125.604 -1.87425 2.38968 0
M  V30 1321 H 123.189 -0.869405 1.21498 0
M  V30 1322 H 125.071 -4.03234 1.22395 0
M  V30 1323 H 123.746 -3.21825 0.347934 0
M  V30 1324 H 122.653 -2.6865 2.60342 0
M  V30 1325 H 123.986 -3.54828 3.41113 0
M  V30 1326 N 125.638 -1.25649 -0.95132 0
M  V30 1327 C 126.915 -1.01361 -1.67288 0
M  V30 1328 C 127.295 0.459135 -2.06046 0
M  V30 1329 O 126.643 1.43723 -1.7764 0
M  V30 1330 C 126.853 -1.95256 -2.89268 0
M  V30 1331 C 128.201 -2.23289 -3.61147 0
M  V30 1332 O 129.225 -1.93041 -2.99355 0
M  V30 1333 O 128.084 -2.74741 -4.72419 0
M  V30 1334 H 125.178 -0.38464 -0.732107 0
M  V30 1335 H 127.724 -1.36817 -1.00395 0
M  V30 1336 H 126.496 -2.94685 -2.57442 0
M  V30 1337 H 126.119 -1.60218 -3.6389 0
M  V30 1338 N 127.117 1.15442 -1.07289 0
M  V30 1339 C 128.08 2.18358 -0.696591 0
M  V30 1340 C 129.08 1.58637 0.262837 0
M  V30 1341 O 130.27 1.74145 0.0438809 0
M  V30 1342 C 127.402 3.4089 -0.0266151 0
M  V30 1343 H 128.595 2.53162 -1.60776 0
M  V30 1344 H 126.148 1.29893 -0.869342 0
M  V30 1345 H 126.883 3.11653 0.896822 0
M  V30 1346 H 126.668 3.85495 -0.716657 0
M  V30 1347 H 128.158 4.17009 0.222028 0
M  V30 1348 N 128.595 0.856903 1.32268 0
M  V30 1349 C 129.872 0.382583 1.91822 0
M  V30 1350 C 130.252 -1.13407 1.78051 0
M  V30 1351 O 129.6 -1.95673 1.18001 0
M  V30 1352 C 129.81 0.849446 3.38505 0
M  V30 1353 C 131.158 0.867936 4.15634 0
M  V30 1354 O 132.182 0.794232 3.47232 0
M  V30 1355 O 131.041 0.972286 5.37781 0
M  V30 1356 H 128.135 0.112014 0.819379 0
M  V30 1357 H 130.681 0.943952 1.41024 0
M  V30 1358 H 129.453 1.89267 3.42482 0
M  V30 1359 H 129.076 0.265652 3.96712 0
M  V30 1360 N 130.073 -1.45103 0.615059 0
M  V30 1361 C 131.303 -2.06254 0.119596 0
M  V30 1362 C 131.711 -1.4591 -1.20445 0
M  V30 1363 O 131.054 -0.570384 -1.7462 0
M  V30 1364 C 131.116 -3.59396 -0.0865591 0
M  V30 1365 C 130.78 -4.42116 1.15683 0
M  V30 1366 C 131.777 -4.7662 2.07676 0
M  V30 1367 C 129.462 -4.82749 1.38775 0
M  V30 1368 C 131.456 -5.50622 3.21082 0
M  V30 1369 C 129.143 -5.56504 2.52481 0
M  V30 1370 C 130.141 -5.90358 3.43463 0
M  V30 1371 O 129.829 -6.62615 4.55189 0
M  V30 1372 H 129.561 -0.672423 0.0694512 0
M  V30 1373 H 132.115 -1.87219 0.844885 0
M  V30 1374 H 130.345 -3.76859 -0.866823 0
M  V30 1375 H 132.034 -4.02365 -0.534555 0
M  V30 1376 H 132.8 -4.4578 1.91063 0
M  V30 1377 H 128.679 -4.55829 0.688545 0
M  V30 1378 H 132.223 -5.76965 3.92119 0
M  V30 1379 H 128.12 -5.86759 2.69043 0
M  V30 1380 H 128.888 -6.81071 4.53966 0
M  V30 1381 N 131.551 -0.354651 -1.53558 0
M  V30 1382 C 132.461 0.50515 -2.29097 0
M  V30 1383 C 133.477 1.10223 -1.34636 0
M  V30 1384 O 134.653 1.11553 -1.67684 0
M  V30 1385 C 131.718 1.63479 -3.05738 0
M  V30 1386 C 130.779 1.06636 -4.15845 0
M  V30 1387 C 130.012 2.14217 -4.88822 0
M  V30 1388 O 130.235 3.35137 -4.61562 0
M  V30 1389 O 129.169 1.77887 -5.75013 0
M  V30 1390 H 132.995 -0.109237 -3.03503 0
M  V30 1391 H 130.58 -0.119357 -1.48922 0
M  V30 1392 H 132.462 2.2918 -3.5363 0
M  V30 1393 H 131.137 2.23478 -2.34178 0
M  V30 1394 H 130.044 0.373565 -3.7223 0
M  V30 1395 H 131.377 0.511081 -4.89539 0
M  V30 1396 N 133.029 1.57378 -0.0835403 0
M  V30 1397 C 133.961 2.10389 0.909338 0
M  V30 1398 C 134.974 1.03858 1.25369 0
M  V30 1399 O 136.163 1.31338 1.20882 0
M  V30 1400 C 133.263 2.55908 2.2218 0
M  V30 1401 C 132.436 3.86145 2.05453 0
M  V30 1402 C 131.495 4.17633 3.20108 0
M  V30 1403 O 130.521 4.87043 2.94581 0
M  V30 1404 N 131.723 3.72113 4.45547 0
M  V30 1405 H 134.488 2.962 0.456657 0
M  V30 1406 H 132.049 1.61579 0.101877 0
M  V30 1407 H 134.041 2.74027 2.97811 0
M  V30 1408 H 132.611 1.75171 2.58909 0
M  V30 1409 H 131.831 3.7729 1.1422 0
M  V30 1410 H 133.119 4.7137 1.91541 0
M  V30 1411 H 132.517 3.16062 4.69171 0
M  V30 1412 H 131.074 3.95409 5.18165 0
M  V30 1413 N 134.507 -0.190092 1.56449 0
M  V30 1414 C 135.784 -0.935886 1.71757 0
M  V30 1415 C 136.164 -2.01173 0.639726 0
M  V30 1416 O 135.512 -2.25827 -0.348502 0
M  V30 1417 C 135.722 -1.51775 3.1427 0
M  V30 1418 C 137.07 -1.99794 3.74656 0
M  V30 1419 O 138.094 -1.61607 3.1743 0
M  V30 1420 O 136.953 -2.70079 4.751 0
M  V30 1421 H 134.047 -0.439229 0.700719 0
M  V30 1422 H 136.593 -0.179395 1.68749 0
M  V30 1423 H 135.365 -0.742505 3.84191 0
M  V30 1424 H 134.988 -2.33894 3.21527 0
M  V30 1425 N 135.985 -1.50799 -0.457987 0
M  V30 1426 C 137.213 -1.66218 -1.23203 0
M  V30 1427 C 137.628 -0.350894 -1.85511 0
M  V30 1428 O 136.985 0.668546 -1.69814 0
M  V30 1429 C 137.036 -2.76291 -2.33121 0
M  V30 1430 O 136.757 -4.02338 -1.73366 0
M  V30 1431 C 138.258 -3.028 -3.2377 0
M  V30 1432 H 135.478 -0.558361 -0.372121 0
M  V30 1433 H 138.022 -1.97099 -0.545179 0
M  V30 1434 H 136.177 -2.48068 -2.97558 0
M  V30 1435 H 136.591 -4.63312 -2.4585 0
M  V30 1436 H 138.065 -3.8345 -3.97077 0
M  V30 1437 H 138.542 -2.14385 -3.83322 0
M  V30 1438 H 139.148 -3.32604 -2.65056 0
M  V30 1439 N 137.463 0.71206 -1.40597 0
M  V30 1440 C 138.426 1.80785 -1.40888 0
M  V30 1441 C 139.426 1.57937 -0.302103 0
M  V30 1442 O 140.616 1.64913 -0.561182 0
M  V30 1443 C 137.748 3.18927 -1.20409 0
M  V30 1444 H 138.941 1.81924 -2.38419 0
M  V30 1445 H 136.494 0.91805 -1.26497 0
M  V30 1446 H 137.229 3.23436 -0.236522 0
M  V30 1447 H 137.014 3.36911 -2.00582 0
M  V30 1448 H 138.504 3.98949 -1.23408 0
M  V30 1449 N 138.941 1.26152 0.944643 0
M  V30 1450 C 139.851 1.09176 2.07648 0
M  V30 1451 C 140.867 0.0261935 1.7398 0
M  V30 1452 O 142.043 0.229208 2.00091 0
M  V30 1453 C 139.108 0.722915 3.39079 0
M  V30 1454 C 138.169 1.86752 3.86552 0
M  V30 1455 C 137.402 1.51617 5.11711 0
M  V30 1456 O 137.625 0.416331 5.68879 0
M  V30 1457 O 136.559 2.34975 5.54139 0
M  V30 1458 H 140.385 2.0412 2.24875 0
M  V30 1459 H 137.97 1.05182 1.061 0
M  V30 1460 H 139.852 0.529787 4.18056 0
M  V30 1461 H 138.527 -0.197159 3.23099 0
M  V30 1462 H 137.434 2.11558 3.08535 0
M  V30 1463 H 138.767 2.76719 4.07047 0
M  V30 1464 N 140.419 -1.14872 1.07899 0
M  V30 1465 C 141.649 -1.89386 0.825631 0
M  V30 1466 C 142.057 -1.78565 -0.625406 0
M  V30 1467 O 141.4 -1.13918 -1.44113 0
M  V30 1468 C 141.462 -3.40206 1.16191 0
M  V30 1469 C 141.126 -3.74812 2.61467 0
M  V30 1470 C 142.123 -3.75367 3.59716 0
M  V30 1471 C 139.808 -4.0495 2.97189 0
M  V30 1472 C 141.802 -4.05574 4.9172 0
M  V30 1473 C 139.489 -4.34821 4.29388 0
M  V30 1474 C 140.487 -4.35116 5.26463 0
M  V30 1475 O 140.175 -4.64267 6.56286 0
M  V30 1476 H 139.907 -0.606894 0.297751 0
M  V30 1477 H 142.461 -1.46438 1.44031 0
M  V30 1478 H 140.691 -3.8358 0.490214 0
M  V30 1479 H 142.38 -3.96018 0.890193 0
M  V30 1480 H 143.146 -3.52176 3.33462 0
M  V30 1481 H 139.025 -4.03876 2.22273 0
M  V30 1482 H 142.569 -4.05719 5.67484 0
M  V30 1483 H 138.466 -4.5748 4.55392 0
M  V30 1484 H 139.234 -4.82007 6.61522 0
M  V30 1485 N 141.898 -0.863906 -1.31812 0
M  V30 1486 C 142.828 -0.330843 -2.31144 0
M  V30 1487 C 143.809 0.575005 -1.60087 0
M  V30 1488 O 144.994 0.493304 -1.8783 0
M  V30 1489 C 142.124 0.47374 -3.44054 0
M  V30 1490 C 141.078 -0.338481 -4.26659 0
M  V30 1491 C 140.404 0.591412 -5.31419 0
M  V30 1492 C 141.704 -1.56926 -4.98168 0
M  V30 1493 H 143.398 -1.16086 -2.75979 0
M  V30 1494 H 140.944 -0.559657 -1.32679 0
M  V30 1495 H 142.897 0.857143 -4.12591 0
M  V30 1496 H 141.621 1.33721 -2.9797 0
M  V30 1497 H 140.28 -0.703754 -3.59782 0
M  V30 1498 H 139.928 1.45199 -4.81587 0
M  V30 1499 H 139.628 0.0519022 -5.87577 0
M  V30 1500 H 141.152 0.97179 -6.02817 0
M  V30 1501 H 142.566 -1.25764 -5.59336 0
M  V30 1502 H 140.963 -2.04739 -5.64094 0
M  V30 1503 H 142.033 -2.32544 -4.25501 0
M  V30 1504 N 143.376 1.44774 -0.622745 0
M  V30 1505 C 144.306 2.33382 0.0741861 0
M  V30 1506 C 145.287 1.47719 0.843387 0
M  V30 1507 O 146.472 1.76458 0.810934 0
M  V30 1508 C 143.602 3.30663 1.06204 0
M  V30 1509 C 142.556 4.26079 0.405037 0
M  V30 1510 C 141.882 5.13165 1.5022 0
M  V30 1511 C 143.182 5.1781 -0.683414 0
M  V30 1512 H 144.876 2.91905 -0.665713 0
M  V30 1513 H 142.422 1.40363 -0.321587 0
M  V30 1514 H 144.375 3.9153 1.55827 0
M  V30 1515 H 143.099 2.70331 1.83272 0
M  V30 1516 H 141.758 3.66532 -0.0704683 0
M  V30 1517 H 141.406 4.49191 2.26355 0
M  V30 1518 H 141.106 5.77812 1.06803 0
M  V30 1519 H 142.63 5.76902 2.00041 0
M  V30 1520 H 144.044 5.72661 -0.270631 0
M  V30 1521 H 142.441 5.91015 -1.04023 0
M  V30 1522 H 143.511 4.59326 -1.55395 0
M  V30 1523 N 144.854 0.36279 1.53368 0
M  V30 1524 C 146.27 0.0116182 1.59596 0
M  V30 1525 C 146.47 -1.47012 1.37803 0
M  V30 1526 O 145.526 -2.23136 1.18181 0
M  V30 1527 C 146.839 0.465052 2.97082 0
M  V30 1528 C 148.387 0.419033 3.10182 0
M  V30 1529 C 148.862 0.848235 4.50077 0
M  V30 1530 N 150.353 0.803183 4.56183 0
M  V30 1531 C 151.088 1.107 5.62613 0
M  V30 1532 N 150.584 1.47996 6.76808 0
M  V30 1533 N 152.377 1.02998 5.52583 0
M  V30 1534 H 144.528 1.32775 1.65785 0
M  V30 1535 H 146.791 0.542518 0.777417 0
M  V30 1536 H 146.497 1.49892 3.18159 0
M  V30 1537 H 146.371 -0.149786 3.76902 0
M  V30 1538 H 148.758 -0.605696 2.88817 0
M  V30 1539 H 148.839 1.06933 2.32377 0
M  V30 1540 H 148.483 1.87107 4.7218 0
M  V30 1541 H 148.413 0.175218 5.26308 0
M  V30 1542 H 150.904 0.52838 3.74188 0
M  V30 1543 H 151.217 1.69613 7.53957 0
M  V30 1544 H 149.562 1.51859 6.78206 0
M  V30 1545 H 152.753 0.737817 4.62249 0
M  V30 1546 H 152.926 1.2701 6.35431 0
M  V30 1547 N 146.332 -1.57332 0.0918853 0
M  V30 1548 C 147.295 -2.12708 -0.85369 0
M  V30 1549 C 148.295 -1.05561 -1.213 0
M  V30 1550 O 149.485 -1.31461 -1.14296 0
M  V30 1551 C 146.617 -2.64503 -2.15061 0
M  V30 1552 H 147.81 -2.97573 -0.3729 0
M  V30 1553 H 145.363 -1.55509 -0.157072 0
M  V30 1554 H 146.098 -1.83149 -2.67632 0
M  V30 1555 H 145.883 -3.4284 -1.90272 0
M  V30 1556 H 147.373 -3.07351 -2.82711 0
M  V30 1557 N 147.81 0.181792 -1.56548 0
M  V30 1558 C 149.056 0.901431 -1.81665 0
M  V30 1559 C 149.389 1.82347 -0.668075 0
M  V30 1560 O 148.664 1.91669 0.330615 0
M  V30 1561 C 148.947 1.70618 -3.17115 0
M  V30 1562 C 148.8 0.807964 -4.42484 0
M  V30 1563 C 150.119 2.67605 -3.49393 0
M  V30 1564 H 147.238 0.32627 -0.660846 0
M  V30 1565 H 149.88 0.168134 -1.89255 0
M  V30 1566 H 148.03 2.33133 -3.10775 0
M  V30 1567 H 149.702 0.19649 -4.60881 0
M  V30 1568 H 147.945 0.115411 -4.33646 0
M  V30 1569 H 148.616 1.40632 -5.33785 0
M  V30 1570 H 151.092 2.15218 -3.56118 0
M  V30 1571 H 149.968 3.20985 -4.45264 0
M  V30 1572 H 150.229 3.47298 -2.73563 0
M  V30 1573 N 149.288 1.51039 0.449983 0
M  V30 1574 C 150.704 1.38934 0.785462 0
M  V30 1575 C 150.904 0.461817 1.96136 0
M  V30 1576 O 149.96 -0.0877389 2.52348 0
M  V30 1577 C 151.273 2.80724 1.0777 0
M  V30 1578 C 152.821 2.89787 1.1829 0
M  V30 1579 C 153.296 4.32457 1.50815 0
M  V30 1580 N 154.787 4.35505 1.57764 0
M  V30 1581 C 155.522 5.42914 1.84477 0
M  V30 1582 N 155.018 6.60502 2.09068 0
M  V30 1583 N 156.811 5.3038 1.86155 0
M  V30 1584 H 148.962 2.09904 -0.324647 0
M  V30 1585 H 151.225 0.944378 -0.0827957 0
M  V30 1586 H 150.931 3.50531 0.286498 0
M  V30 1587 H 150.805 3.19273 2.00859 0
M  V30 1588 H 153.192 2.20186 1.96474 0
M  V30 1589 H 153.273 2.54752 0.231314 0
M  V30 1590 H 152.917 5.02603 0.731622 0
M  V30 1591 H 152.847 4.64995 2.47158 0
M  V30 1592 H 155.338 3.50724 1.40715 0
M  V30 1593 H 155.651 7.38158 2.28785 0
M  V30 1594 H 153.996 6.63639 2.06416 0
M  V30 1595 H 157.187 4.37505 1.66454 0
M  V30 1596 H 157.36 6.1417 2.06637 0
M  V30 1597 N 150.766 -0.704594 1.40972 0
M  V30 1598 C 151.729 -1.80035 1.41845 0
M  V30 1599 C 152.729 -1.57774 0.310474 0
M  V30 1600 O 153.919 -1.64613 0.56992 0
M  V30 1601 C 151.051 -3.18284 1.22098 0
M  V30 1602 H 152.244 -1.80658 2.3938 0
M  V30 1603 H 149.797 -0.911329 1.26982 0
M  V30 1604 H 150.532 -3.23306 0.253672 0
M  V30 1605 H 150.317 -3.35843 2.02366 0
M  V30 1606 H 151.807 -3.98289 1.25522 0
M  V30 1607 N 152.244 -1.26651 -0.937939 0
M  V30 1608 C 153.469 -1.15279 -1.72411 0
M  V30 1609 C 153.894 0.287866 -1.85884 0
M  V30 1610 O 153.252 1.20855 -1.35143 0
M  V30 1611 C 153.3 -1.83028 -3.10698 0
M  V30 1612 O 152.404 -1.12128 -3.96864 0
M  V30 1613 H 151.745 -0.401504 -0.528858 0
M  V30 1614 H 154.275 -1.67531 -1.1745 0
M  V30 1615 H 154.285 -1.89981 -3.6107 0
M  V30 1616 H 152.96 -2.87833 -3.00208 0
M  V30 1617 H 151.537 -1.13173 -3.55312 0
M  V30 1618 N 153.722 1.14298 -1.08507 0
M  V30 1619 C 154.947 1.8976 -0.837001 0
M  V30 1620 C 155.372 1.78097 0.605228 0
M  V30 1621 O 154.73 1.12188 1.4242 0
M  V30 1622 C 154.778 3.37685 -1.26495 0
M  V30 1623 O 153.882 4.10281 -0.417514 0
M  V30 1624 H 153.223 0.590365 -0.303917 0
M  V30 1625 H 155.753 1.44672 -1.44676 0
M  V30 1626 H 155.763 3.88501 -1.24625 0
M  V30 1627 H 154.438 3.45492 -2.31534 0
M  V30 1628 H 153.015 3.69536 -0.499722 0
M  V30 1629 N 155.201 0.870884 1.31352 0
M  V30 1630 C 156.447 0.482987 1.96965 0
M  V30 1631 C 156.78 -0.962462 1.68672 0
M  V30 1632 O 156.055 -1.6779 0.98371 0
M  V30 1633 C 156.338 0.741752 3.52378 0
M  V30 1634 C 156.191 2.2368 3.9024 0
M  V30 1635 C 157.51 0.208838 4.39604 0
M  V30 1636 H 154.629 0.176955 0.715441 0
M  V30 1637 H 157.271 1.09229 1.55464 0
M  V30 1638 H 155.421 0.223149 3.87859 0
M  V30 1639 H 157.093 2.82273 3.64856 0
M  V30 1640 H 155.336 2.70901 3.38814 0
M  V30 1641 H 156.007 2.3685 4.98604 0
M  V30 1642 H 158.483 0.652529 4.10952 0
M  V30 1643 H 157.359 0.419336 5.47296 0
M  V30 1644 H 157.62 -0.889275 4.33064 0
M  V30 1645 N 156.679 -1.44442 0.630414 0
M  V30 1646 C 157.926 -2.02052 0.134617 0
M  V30 1647 C 158.254 -1.49576 -1.24327 0
M  V30 1648 O 157.509 -0.669806 -1.83881 0
M  V30 1649 C 157.808 -3.57332 0.0697835 0
M  V30 1650 C 157.474 -4.29058 1.38635 0
M  V30 1651 C 156.136 -4.4837 1.74694 0
M  V30 1652 C 158.488 -4.69872 2.25543 0
M  V30 1653 C 155.816 -5.05756 2.97369 0
M  V30 1654 C 158.168 -5.28616 3.47487 0
M  V30 1655 C 156.832 -5.46147 3.8377 0
M  V30 1656 H 156.102 -0.739361 0.0492598 0
M  V30 1657 H 158.749 -1.73217 0.816586 0
M  V30 1658 H 157.054 -3.85577 -0.695553 0
M  V30 1659 H 158.751 -3.99637 -0.330344 0
M  V30 1660 H 155.341 -4.14357 1.09574 0
M  V30 1661 H 159.525 -4.54666 1.98979 0
M  V30 1662 H 154.781 -5.17515 3.25558 0
M  V30 1663 H 158.955 -5.59192 4.15063 0
M  V30 1664 H 156.582 -5.9038 4.7891 0
M  V30 1665 N 158.157 -0.370918 -1.53173 0
M  V30 1666 C 159.568 0.107139 -1.86392 0
M  V30 1667 C 159.919 1.47714 -1.29132 0
M  V30 1668 O 159.044 2.07464 -0.615439 0
M  V30 1669 C 159.639 0.201187 -3.38202 0
M  V30 1670 C 158.198 0.623507 -3.712 0
M  V30 1671 C 157.345 -0.225978 -2.76378 0
M  V30 1672 H 160.296 -0.58951 -1.47345 0
M  V30 1673 H 160.317 1.02377 -3.66468 0
M  V30 1674 H 159.829 -0.796058 -3.79848 0
M  V30 1675 H 157.93 1.62879 -3.35114 0
M  V30 1676 H 158.043 0.394414 -4.77474 0
M  V30 1677 H 156.407 0.305962 -2.52856 0
M  V30 1678 H 157.19 -1.22086 -3.20858 0
M  V30 1679 N 159.635 1.57281 -0.100228 0
M  V30 1680 C 160.884 1.93713 0.561984 0
M  V30 1681 C 161.197 0.984492 1.69018 0
M  V30 1682 O 162.403 1.24273 2.41389 0
M  V30 1683 C 160.859 3.4421 1.05106 0
M  V30 1684 C 160.467 4.47975 -0.0476628 0
M  V30 1685 C 162.211 3.89595 1.68571 0
M  V30 1686 C 160.118 5.89631 0.457055 0
M  V30 1687 H 159.048 0.723082 0.2137 0
M  V30 1688 H 161.699 1.82644 -0.177057 0
M  V30 1689 H 160.081 3.50449 1.84395 0
M  V30 1690 H 161.255 4.53385 -0.823333 0
M  V30 1691 H 159.57 4.1223 -0.587816 0
M  V30 1692 H 162.167 4.92832 2.07414 0
M  V30 1693 H 162.51 3.28526 2.55688 0
M  V30 1694 H 163.043 3.86078 0.958562 0
M  V30 1695 H 159.782 6.54411 -0.377616 0
M  V30 1696 H 159.302 5.87681 1.19962 0
M  V30 1697 H 160.981 6.40363 0.92437 0
M  V30 1698 N 161.113 -0.173488 1.56642 0
M  V30 1699 C 162.043 -1.2171 1.99271 0
M  V30 1700 C 163.024 -1.46289 0.867959 0
M  V30 1701 O 164.209 -1.5766 1.13388 0
M  V30 1702 C 161.339 -2.55651 2.35074 0
M  V30 1703 C 160.293 -2.45645 3.50489 0
M  V30 1704 C 159.619 -3.84056 3.72028 0
M  V30 1705 C 160.919 -1.96302 4.84007 0
M  V30 1706 H 162.613 -0.86275 2.867 0
M  V30 1707 H 160.159 -0.413571 1.37933 0
M  V30 1708 H 162.112 -3.2886 2.63494 0
M  V30 1709 H 160.836 -2.92869 1.44552 0
M  V30 1710 H 159.495 -1.7489 3.22194 0
M  V30 1711 H 159.143 -4.18664 2.788 0
M  V30 1712 H 158.843 -3.7823 4.49684 0
M  V30 1713 H 160.367 -4.58854 4.02846 0
M  V30 1714 H 161.781 -2.59284 5.11317 0
M  V30 1715 H 160.178 -2.01429 5.65284 0
M  V30 1716 H 161.248 -0.917226 4.76146 0
M  V30 1717 N 162.591 -1.51276 -0.441967 0
M  V30 1718 C 163.816 -1.67799 -1.21895 0
M  V30 1719 C 164.241 -0.372864 -1.84367 0
M  V30 1720 O 163.599 0.666501 -1.68604 0
M  V30 1721 C 163.647 -2.79199 -2.28211 0
M  V30 1722 O 162.751 -2.42479 -3.33583 0
M  V30 1723 H 162.092 -0.559649 -0.357336 0
M  V30 1724 H 164.622 -1.97815 -0.522522 0
M  V30 1725 H 164.632 -3.03146 -2.73069 0
M  V30 1726 H 163.307 -3.73906 -1.82118 0
M  V30 1727 H 161.884 -2.29087 -2.94234 0
M  V30 1728 N 164.069 0.697108 -1.41344 0
M  V30 1729 C 165.315 1.4593 -1.40827 0
M  V30 1730 C 165.648 1.94193 -0.0167098 0
M  V30 1731 O 164.923 1.69425 0.955263 0
M  V30 1732 C 165.206 2.67229 -2.41373 0
M  V30 1733 C 165.059 2.24741 -3.8963 0
M  V30 1734 C 166.378 3.69423 -2.39196 0
M  V30 1735 H 163.497 0.529303 -0.512842 0
M  V30 1736 H 166.139 0.794112 -1.72609 0
M  V30 1737 H 164.289 3.23982 -2.14401 0
M  V30 1738 H 165.961 1.73327 -4.27499 0
M  V30 1739 H 164.204 1.56542 -4.0457 0
M  V30 1740 H 164.875 3.1177 -4.55525 0
M  V30 1741 H 167.351 3.2234 -2.63128 0
M  V30 1742 H 166.227 4.51907 -3.11563 0
M  V30 1743 H 166.488 4.19012 -1.41001 0
M  V30 1744 N 165.547 1.27147 0.931209 0
M  V30 1745 C 166.775 1.16082 1.71267 0
M  V30 1746 C 167.19 -0.282772 1.8667 0
M  V30 1747 O 166.547 -1.19283 1.38122 0
M  V30 1748 C 166.598 1.8358 3.11417 0
M  V30 1749 O 166.319 3.22299 2.96741 0
M  V30 1750 C 167.82 1.78597 4.05732 0
M  V30 1751 H 165.04 0.403758 0.535929 0
M  V30 1752 H 167.584 1.67953 1.16671 0
M  V30 1753 H 165.739 1.35623 3.62885 0
M  V30 1754 H 166.153 3.55851 3.85319 0
M  V30 1755 H 167.627 2.30444 5.01597 0
M  V30 1756 H 168.104 0.754564 4.3267 0
M  V30 1757 H 168.71 2.26152 3.60188 0
M  V30 1758 N 167.025 -1.13721 1.09112 0
M  V30 1759 C 167.955 -2.21148 0.749385 0
M  V30 1760 C 168.936 -1.6792 -0.271475 0
M  V30 1761 O 170.121 -1.93693 -0.140251 0
M  V30 1762 C 167.251 -3.46905 0.165659 0
M  V30 1763 C 166.205 -4.13203 1.11567 0
M  V30 1764 C 165.531 -5.33248 0.393809 0
M  V30 1765 C 166.831 -4.60912 2.45678 0
M  V30 1766 H 168.525 -2.4999 1.64758 0
M  V30 1767 H 166.071 -1.20156 0.793626 0
M  V30 1768 H 168.024 -4.21313 -0.085466 0
M  V30 1769 H 166.748 -3.17449 -0.767714 0
M  V30 1770 H 165.407 -3.40758 1.35202 0
M  V30 1771 H 165.055 -5.00054 -0.543599 0
M  V30 1772 H 164.755 -5.78552 1.02721 0
M  V30 1773 H 166.279 -6.10413 0.150908 0
M  V30 1774 H 167.693 -5.26759 2.26269 0
M  V30 1775 H 166.09 -5.16944 3.04776 0
M  V30 1776 H 167.16 -3.75603 3.06677 0
M  V30 1777 N 168.503 -0.877838 -1.30888 0
M  V30 1778 C 169.433 -0.35534 -2.3078 0
M  V30 1779 C 170.414 0.557994 -1.60687 0
M  V30 1780 O 171.599 0.473355 -1.88343 0
M  V30 1781 C 168.729 0.437221 -3.44537 0
M  V30 1782 C 167.683 -0.383715 -4.26276 0
M  V30 1783 C 167.009 0.535014 -5.32017 0
M  V30 1784 C 168.309 -1.62201 -4.96476 0
M  V30 1785 H 170.003 -1.19007 -2.74732 0
M  V30 1786 H 167.549 -0.573698 -1.32078 0
M  V30 1787 H 169.502 0.813334 -4.13477 0
M  V30 1788 H 168.226 1.30553 -2.99372 0
M  V30 1789 H 166.885 -0.741874 -3.59015 0
M  V30 1790 H 166.533 1.40083 -4.831 0
M  V30 1791 H 166.233 -0.0104211 -5.87599 0
M  V30 1792 H 167.757 0.907799 -6.03814 0
M  V30 1793 H 169.171 -1.31689 -5.5797 0
M  V30 1794 H 167.568 -2.10711 -5.61891 0
M  V30 1795 H 168.638 -2.37044 -4.23011 0
M  V30 1796 N 169.982 1.44106 -0.638065 0
M  V30 1797 C 171.229 2.01978 -0.14533 0
M  V30 1798 C 171.557 1.50234 1.23532 0
M  V30 1799 O 170.812 0.679548 1.83523 0
M  V30 1800 C 171.111 3.5729 -0.0887327 0
M  V30 1801 C 170.777 4.28317 -1.40909 0
M  V30 1802 C 169.439 4.47437 -1.77069 0
M  V30 1803 C 171.791 4.6867 -2.28031 0
M  V30 1804 C 169.119 5.04171 -3.00047 0
M  V30 1805 C 171.471 5.26766 -3.50286 0
M  V30 1806 C 170.135 5.44104 -3.86661 0
M  V30 1807 H 169.405 0.739089 -0.0531801 0
M  V30 1808 H 172.052 1.72781 -0.825761 0
M  V30 1809 H 170.357 3.8594 0.675095 0
M  V30 1810 H 172.054 3.99807 0.309145 0
M  V30 1811 H 168.644 4.1377 -1.1177 0
M  V30 1812 H 172.828 4.53604 -2.01388 0
M  V30 1813 H 168.084 5.15782 -3.28298 0
M  V30 1814 H 172.258 5.56983 -4.18023 0
M  V30 1815 H 169.885 5.87832 -4.82034 0
M  V30 1816 N 171.46 0.379036 1.52974 0
M  V30 1817 C 172.707 -0.206421 2.01445 0
M  V30 1818 C 173.035 -1.47668 1.26587 0
M  V30 1819 O 172.29 -1.92514 0.351675 0
M  V30 1820 C 172.589 -0.53096 3.53434 0
M  V30 1821 C 172.255 0.646546 4.46241 0
M  V30 1822 C 170.917 0.969604 4.7133 0
M  V30 1823 C 173.269 1.43479 5.01062 0
M  V30 1824 C 170.597 2.08263 5.48492 0
M  V30 1825 C 172.949 2.53834 5.7944 0
M  V30 1826 C 171.613 2.86659 6.02812 0
M  V30 1827 H 170.883 -0.0755349 0.73714 0
M  V30 1828 H 173.53 0.514271 1.84465 0
M  V30 1829 H 171.835 -1.33285 3.68432 0
M  V30 1830 H 173.532 -0.996417 3.88423 0
M  V30 1831 H 170.122 0.384734 4.2687 0
M  V30 1832 H 174.306 1.19844 4.81613 0
M  V30 1833 H 169.562 2.34078 5.64816 0
M  V30 1834 H 173.736 3.15319 6.20924 0
M  V30 1835 H 171.363 3.73026 6.62387 0
M  V30 1836 N 172.938 -1.57226 0.108567 0
M  V30 1837 C 174.186 -1.94448 -0.550853 0
M  V30 1838 C 174.507 -0.992074 -1.67878 0
M  V30 1839 O 173.777 -0.0465 -1.95845 0
M  V30 1840 H 172.357 -0.717897 -0.206479 0
M  V30 1841 H 175.019 -1.94112 0.175062 0
M  V30 1842 H 174.115 -2.97218 -0.952259 0
M  V30 1843 N 174.416 0.165178 -1.56732 0
M  V30 1844 C 175.664 0.879068 -1.8198 0
M  V30 1845 C 175.985 1.82514 -0.686561 0
M  V30 1846 O 175.255 1.93694 0.293146 0
M  V30 1847 H 173.835 0.327608 -0.671329 0
M  V30 1848 H 176.497 0.163526 -1.94213 0
M  V30 1849 H 175.593 1.45228 -2.76252 0
M  V30 1850 N 175.894 1.51508 0.433938 0
M  V30 1851 C 176.824 1.76016 1.53429 0
M  V30 1852 C 177.805 0.610112 1.58782 0
M  V30 1853 O 178.99 0.853177 1.74455 0
M  V30 1854 C 176.12 1.88831 2.9148 0
M  V30 1855 C 175.074 3.04288 3.00987 0
M  V30 1856 C 174.4 3.0229 4.4105 0
M  V30 1857 C 175.7 4.44193 2.74754 0
M  V30 1858 H 177.394 2.68152 1.33171 0
M  V30 1859 H 174.94 1.29035 0.639214 0
M  V30 1860 H 176.893 2.04559 3.6842 0
M  V30 1861 H 175.617 0.933455 3.12976 0
M  V30 1862 H 174.276 2.8827 2.26486 0
M  V30 1863 H 173.924 2.04576 4.59519 0
M  V30 1864 H 173.624 3.79822 4.4834 0
M  V30 1865 H 175.148 3.20116 5.1996 0
M  V30 1866 H 176.562 4.60544 3.41426 0
M  V30 1867 H 174.959 5.23457 2.9345 0
M  V30 1868 H 176.029 4.53996 1.70339 0
M  V30 1869 N 177.372 -0.689602 1.41712 0
M  V30 1870 C 178.612 -1.46184 1.42862 0
M  V30 1871 C 178.976 -1.91962 0.0382204 0
M  V30 1872 O 180.177 -2.68694 -0.0755019 0
M  V30 1873 C 178.448 -2.6371 2.4123 0
M  V30 1874 S 180.007 -3.52768 2.6096 0
M  V30 1875 H 176.825 -0.49947 0.506015 0
M  V30 1876 H 179.427 -0.804107 1.78198 0
M  V30 1877 H 178.131 -2.28293 3.41044 0
M  V30 1878 H 177.662 -3.3437 2.07269 0
M  V30 1879 H 179.677 -4.59146 1.88148 0
M  V30 1880 N 178.85 -1.27639 -0.924453 0
M  V30 1881 C 180.096 -1.14336 -1.67497 0
M  V30 1882 C 180.429 0.309465 -1.91718 0
M  V30 1883 O 179.704 1.22608 -1.50989 0
M  V30 1884 C 179.987 -1.93096 -3.0395 0
M  V30 1885 C 179.84 -3.46381 -2.8695 0
M  V30 1886 C 181.159 -1.73798 -4.0433 0
M  V30 1887 H 178.278 -0.416728 -0.607871 0
M  V30 1888 H 180.92 -1.56832 -1.07256 0
M  V30 1889 H 179.07 -1.56982 -3.55372 0
M  V30 1890 H 180.742 -3.92343 -2.42621 0
M  V30 1891 H 178.985 -3.72557 -2.22225 0
M  V30 1892 H 179.656 -3.96735 -3.83804 0
M  V30 1893 H 182.132 -2.05293 -3.61931 0
M  V30 1894 H 181.008 -2.31294 -4.97789 0
M  V30 1895 H 181.269 -0.686725 -4.36734 0
M  V30 1896 N 180.328 1.1314 -1.09713 0
M  V30 1897 C 181.291 2.16831 -0.742751 0
M  V30 1898 C 182.291 1.59159 0.229129 0
M  V30 1899 O 183.481 1.74199 0.00693237 0
M  V30 1900 C 180.613 3.40756 -0.0989168 0
M  V30 1901 H 181.806 2.49695 -1.66109 0
M  V30 1902 H 179.359 1.2802 -0.896699 0
M  V30 1903 H 180.094 3.13485 0.830514 0
M  V30 1904 H 179.879 3.83888 -0.798265 0
M  V30 1905 H 181.369 4.17386 0.133524 0
M  V30 1906 N 181.806 0.884767 1.30421 0
M  V30 1907 C 182.769 0.356277 2.26414 0
M  V30 1908 C 183.769 -0.501124 1.52792 0
M  V30 1909 O 184.959 -0.30831 1.7145 0
M  V30 1910 C 182.091 -0.492316 3.37326 0
M  V30 1911 H 183.284 1.20389 2.74675 0
M  V30 1912 H 180.837 0.661607 1.41607 0
M  V30 1913 H 181.572 -1.36052 2.94381 0
M  V30 1914 H 181.357 0.121832 3.91911 0
M  V30 1915 H 182.847 -0.853871 4.08777 0
M  V30 1916 N 183.284 -1.43765 0.645699 0
M  V30 1917 C 184.509 -2.06767 0.161883 0
M  V30 1918 C 184.934 -1.48034 -1.16049 0
M  V30 1919 O 184.292 -0.587369 -1.71522 0
M  V30 1920 C 184.34 -3.60519 0.0762003 0
M  V30 1921 O 183.444 -4.00982 -0.963721 0
M  V30 1922 H 182.785 -0.657675 0.091429 0
M  V30 1923 H 185.315 -1.84397 0.886499 0
M  V30 1924 H 185.325 -4.07853 -0.109604 0
M  V30 1925 H 184 -4.02646 1.04157 0
M  V30 1926 H 182.577 -3.65253 -0.751312 0
M  V30 1927 N 184.763 -0.387143 -1.52771 0
M  V30 1928 C 185.673 0.456442 -2.30117 0
M  V30 1929 C 186.689 1.07342 -1.36944 0
M  V30 1930 O 187.865 1.07971 -1.70013 0
M  V30 1931 C 184.93 1.56957 -3.09136 0
M  V30 1932 C 183.991 0.977916 -4.18014 0
M  V30 1933 C 183.224 2.038 -4.93256 0
M  V30 1934 O 183.447 3.25271 -4.68567 0
M  V30 1935 O 182.381 1.6565 -5.78657 0
M  V30 1936 H 186.207 -0.17359 -3.03203 0
M  V30 1937 H 183.792 -0.150919 -1.48636 0
M  V30 1938 H 185.674 2.21628 -3.58412 0
M  V30 1939 H 184.349 2.18461 -2.38865 0
M  V30 1940 H 183.256 0.294525 -3.72939 0
M  V30 1941 H 184.589 0.407128 -4.90513 0
M  V30 1942 N 186.241 1.57166 -0.116904 0
M  V30 1943 C 187.488 1.95123 0.541603 0
M  V30 1944 C 187.816 1.00006 1.6682 0
M  V30 1945 O 187.071 0.0235658 1.95686 0
M  V30 1946 C 187.37 3.39508 1.11664 0
M  V30 1947 C 187.036 4.50762 0.111606 0
M  V30 1948 C 185.698 4.80918 -0.164758 0
M  V30 1949 C 188.05 5.18036 -0.573438 0
M  V30 1950 C 185.378 5.75666 -1.13249 0
M  V30 1951 C 187.73 6.13824 -1.52978 0
M  V30 1952 C 186.394 6.42374 -1.81415 0
M  V30 1953 H 185.664 0.714005 0.198187 0
M  V30 1954 H 188.311 1.9048 -0.197365 0
M  V30 1955 H 186.616 3.40835 1.93232 0
M  V30 1956 H 188.313 3.66189 1.63422 0
M  V30 1957 H 184.903 4.27272 0.337192 0
M  V30 1958 H 189.087 4.94896 -0.373092 0
M  V30 1959 H 184.343 5.96092 -1.35958 0
M  V30 1960 H 188.517 6.65039 -2.06629 0
M  V30 1961 H 186.144 7.15599 -2.56557 0
M  V30 1962 N 187.719 -0.156864 1.56817 0
M  V30 1963 C 188.669 -1.19891 1.93934 0
M  V30 1964 C 189.653 -1.39061 0.809372 0
M  V30 1965 O 190.845 -1.40789 1.07273 0
M  V30 1966 C 187.974 -2.53493 2.31508 0
M  V30 1967 C 187.06 -2.37957 3.51052 0
M  V30 1968 N 187.451 -1.92158 4.67877 0
M  V30 1969 C 185.749 -2.68739 3.55943 0
M  V30 1970 C 186.45 -1.8943 5.49992 0
M  V30 1971 N 185.426 -2.32375 4.91429 0
M  V30 1972 H 189.228 -0.836746 2.81737 0
M  V30 1973 H 186.742 -0.365012 1.58245 0
M  V30 1974 H 188.739 -3.28811 2.56299 0
M  V30 1975 H 187.399 -2.905 1.45051 0
M  V30 1976 H 188.41 -1.62274 4.91821 0
M  V30 1977 H 185.087 -3.09687 2.80001 0
M  V30 1978 H 186.477 -1.55596 6.53636 0
M  V30 1979 N 189.197 -1.51736 -0.425897 0
M  V30 1980 C 190.613 -1.40166 -0.76326 0
M  V30 1981 C 190.813 -0.492962 -1.95377 0
M  V30 1982 O 189.869 0.0475815 -2.52455 0
M  V30 1983 C 191.182 -2.82403 -1.03291 0
M  V30 1984 C 192.73 -2.91632 -1.13665 0
M  V30 1985 C 193.205 -4.34801 -1.43916 0
M  V30 1986 N 194.696 -4.3796 -1.50816 0
M  V30 1987 C 195.431 -5.4578 -1.75817 0
M  V30 1988 N 194.927 -6.63744 -1.98534 0
M  V30 1989 N 196.72 -5.33274 -1.77694 0
M  V30 1990 H 188.871 -2.09361 0.358 0
M  V30 1991 H 191.134 -0.942941 0.0978094 0
M  V30 1992 H 190.84 -3.50943 -0.230696 0
M  V30 1993 H 190.714 -3.22428 -1.95754 0
M  V30 1994 H 193.101 -2.23284 -1.92947 0
M  V30 1995 H 193.182 -2.55088 -0.190756 0
M  V30 1996 H 192.826 -5.03703 -0.65157 0
M  V30 1997 H 192.756 -4.68868 -2.39729 0
M  V30 1998 H 195.247 -3.52919 -1.35118 0
M  V30 1999 H 195.56 -7.41704 -2.17013 0
M  V30 2000 H 193.905 -6.66839 -1.95832 0
M  V30 2001 H 197.096 -4.40098 -1.59473 0
M  V30 2002 H 197.269 -6.1738 -1.9684 0
M  V30 2003 N 190.675 0.682077 -1.42076 0
M  V30 2004 C 191.9 1.47558 -1.45744 0
M  V30 2005 C 192.325 1.87977 -0.0680981 0
M  V30 2006 O 191.683 1.55522 0.9318 0
M  V30 2007 C 191.731 2.70575 -2.38373 0
M  V30 2008 O 190.835 3.68573 -1.85007 0
M  V30 2009 H 190.176 0.443585 -0.494093 0
M  V30 2010 H 192.706 0.837238 -1.86686 0
M  V30 2011 H 192.716 3.18729 -2.54707 0
M  V30 2012 H 191.391 2.40495 -3.39315 0
M  V30 2013 H 189.968 3.2757 -1.78192 0
M  V30 2014 N 192.153 1.28127 0.917671 0
M  V30 2015 C 193.569 1.05749 1.19538 0
M  V30 2016 C 193.769 -0.202633 2.00479 0
M  V30 2017 O 192.825 -0.905382 2.3571 0
M  V30 2018 C 194.138 2.30273 1.93378 0
M  V30 2019 C 195.686 2.35412 2.06277 0
M  V30 2020 C 196.161 3.59692 2.83524 0
M  V30 2021 N 197.652 3.60309 2.91087 0
M  V30 2022 C 198.387 4.53147 3.51348 0
M  V30 2023 N 197.883 5.563 4.12919 0
M  V30 2024 N 199.676 4.40751 3.48849 0
M  V30 2025 H 191.827 2.09024 0.377184 0
M  V30 2026 H 194.09 0.919798 0.22951 0
M  V30 2027 H 193.796 3.22055 1.41328 0
M  V30 2028 H 193.67 2.36378 2.93947 0
M  V30 2029 H 196.057 1.4413 2.57508 0
M  V30 2030 H 196.138 2.33304 1.04895 0
M  V30 2031 H 195.782 4.51316 2.32973 0
M  V30 2032 H 195.712 3.59054 3.85211 0
M  V30 2033 H 198.203 2.85714 2.47338 0
M  V30 2034 H 198.516 6.2329 4.56869 0
M  V30 2035 H 196.861 5.60131 4.11435 0
M  V30 2036 H 200.052 3.59367 2.99955 0
M  V30 2037 H 200.225 5.13291 3.9552 0
M  V30 2038 N 193.631 -1.12557 1.10312 0
M  V30 2039 C 194.581 -2.16331 0.720076 0
M  V30 2040 C 195.565 -1.58616 -0.270115 0
M  V30 2041 O 196.757 -1.76823 -0.0790507 0
M  V30 2042 C 193.886 -3.42963 0.152113 0
M  V30 2043 C 192.972 -4.07663 1.16927 0
M  V30 2044 N 193.363 -4.47392 2.35953 0
M  V30 2045 C 191.661 -4.34425 1.0095 0
M  V30 2046 C 192.362 -4.97932 3.0073 0
M  V30 2047 N 191.338 -4.93358 2.28252 0
M  V30 2048 H 195.14 -2.44813 1.62616 0
M  V30 2049 H 192.654 -1.29449 0.980654 0
M  V30 2050 H 194.651 -4.16664 -0.14037 0
M  V30 2051 H 193.311 -3.1595 -0.748701 0
M  V30 2052 H 194.322 -4.39802 2.73486 0
M  V30 2053 H 190.999 -4.17177 0.164134 0
M  V30 2054 H 192.389 -5.38397 4.01969 0
M  V30 2055 N 195.109 -0.891671 -1.2995 0
M  V30 2056 C 196.057 -0.353066 -2.29905 0
M  V30 2057 C 197.051 0.543509 -1.60444 0
M  V30 2058 O 198.257 0.4272 -1.74857 0
M  V30 2059 H 194.632 -0.095531 -0.745907 0
M  V30 2060 H 196.603 -1.20961 -2.72784 0
M  V30 2061 C 195.352 0.411475 -3.45257 0
M  V30 2062 H 194.675 -0.269182 -3.98893 0
M  V30 2063 H 196.115 0.753328 -4.17254 0
M  V30 2064 C 194.574 1.6111 -2.9588 0
M  V30 2065 O 195.104 2.71045 -2.96475 0
M  V30 2066 N 193.31 1.45054 -2.51809 0
M  V30 2067 H 192.857 0.556175 -2.51524 0
M  V30 2068 H 192.815 2.25453 -2.1913 0
M  V30 2069 N 196.587 1.43421 -0.653314 0
M  V30 2070 C 197.833 2.02111 -0.166992 0
M  V30 2071 C 198.166 1.51423 1.21592 0
M  V30 2072 O 197.441 0.707389 1.8118 0
M  V30 2073 C 197.724 3.5966 -0.177948 0
M  V30 2074 C 197.577 4.20579 -1.59478 0
M  V30 2075 C 198.896 4.37413 0.4856 0
M  V30 2076 H 196.015 0.734374 -0.0621557 0
M  V30 2077 H 198.657 1.70717 -0.834016 0
M  V30 2078 H 196.807 3.86537 0.390032 0
M  V30 2079 H 198.479 4.04732 -2.21336 0
M  V30 2080 H 196.722 3.77226 -2.14204 0
M  V30 2081 H 197.393 5.29665 -1.5543 0
M  V30 2082 H 199.869 4.161 0.00234528 0
M  V30 2083 H 198.745 5.47075 0.447207 0
M  V30 2084 H 199.006 4.13672 1.55974 0
M  V30 2085 N 198.065 0.39524 1.52563 0
M  V30 2086 C 199.314 -0.186321 2.00838 0
M  V30 2087 C 199.627 -1.47402 1.28577 0
M  V30 2088 O 200.833 -2.13599 1.67593 0
M  V30 2089 C 199.289 -0.382595 3.57861 0
M  V30 2090 C 198.897 0.892202 4.39026 0
M  V30 2091 C 200.641 -0.9202 4.14406 0
M  V30 2092 C 198.548 0.66388 5.87662 0
M  V30 2093 H 197.478 -0.0734041 0.750418 0
M  V30 2094 H 200.129 0.518552 1.76021 0
M  V30 2095 H 198.511 -1.14946 3.7895 0
M  V30 2096 H 199.685 1.66414 4.29701 0
M  V30 2097 H 198 1.35519 3.9373 0
M  V30 2098 H 200.597 -1.10683 5.23119 0
M  V30 2099 H 200.94 -1.89096 3.70875 0
M  V30 2100 H 201.473 -0.212751 3.97231 0
M  V30 2101 H 198.212 1.6058 6.35527 0
M  V30 2102 H 197.732 -0.0690193 5.9976 0
M  V30 2103 H 199.411 0.300699 6.46301 0
M  V30 2104 N 199.544 -1.57102 0.125237 0
M  V30 2105 C 200.474 -2.18659 -0.819174 0
M  V30 2106 C 201.455 -1.12843 -1.27281 0
M  V30 2107 O 202.64 -1.41104 -1.33429 0
M  V30 2108 C 199.77 -2.79096 -2.06695 0
M  V30 2109 C 198.724 -3.90548 -1.75088 0
M  V30 2110 C 198.05 -4.37821 -3.06948 0
M  V30 2111 C 199.35 -5.12356 -1.01435 0
M  V30 2112 H 201.044 -2.9783 -0.306202 0
M  V30 2113 H 198.59 -1.4326 -0.145839 0
M  V30 2114 H 200.543 -3.2082 -2.73226 0
M  V30 2115 H 199.267 -1.97223 -2.60328 0
M  V30 2116 H 197.926 -3.49409 -1.10944 0
M  V30 2117 H 197.574 -3.52799 -3.58527 0
M  V30 2118 H 197.274 -5.12982 -2.86571 0
M  V30 2119 H 198.798 -4.822 -3.74587 0
M  V30 2120 H 200.212 -5.5106 -1.58132 0
M  V30 2121 H 198.609 -5.9314 -0.911319 0
M  V30 2122 H 199.679 -4.849 -0.00218681 0
M  V30 2123 N 201.022 0.148545 -1.56898 0
M  V30 2124 C 202.247 0.880385 -1.87787 0
M  V30 2125 C 202.672 1.74018 -0.714093 0
M  V30 2126 O 202.03 1.78153 0.336343 0
M  V30 2127 C 202.078 1.71422 -3.17249 0
M  V30 2128 O 201.182 2.8183 -3.01074 0
M  V30 2129 H 200.523 0.245301 -0.617028 0
M  V30 2130 H 203.053 0.139826 -2.04122 0
M  V30 2131 H 203.063 2.10954 -3.49231 0
M  V30 2132 H 201.738 1.08284 -4.01556 0
M  V30 2133 H 200.315 2.45715 -2.80497 0
M  V30 2134 N 202.5 1.5196 0.417844 0
M  V30 2135 C 203.463 1.74065 1.49111 0
M  V30 2136 C 204.463 0.610537 1.48758 0
M  V30 2137 O 205.653 0.87832 1.50437 0
M  V30 2138 C 202.785 1.81502 2.88565 0
M  V30 2139 H 203.978 2.69869 1.30807 0
M  V30 2140 H 201.531 1.42244 0.647785 0
M  V30 2141 H 202.266 0.875813 3.1225 0
M  V30 2142 H 202.051 2.63651 2.90225 0
M  V30 2143 H 203.541 2.00376 3.66387 0
M  V30 2144 N 203.978 -0.674533 1.42435 0
M  V30 2145 C 205.226 -1.43175 1.42637 0
M  V30 2146 C 205.547 -1.94951 0.0438992 0
M  V30 2147 O 204.817 -1.7308 -0.917607 0
M  V30 2148 H 203.397 -0.531307 0.525092 0
M  V30 2149 H 206.059 -0.797006 1.77859 0
M  V30 2150 H 205.155 -2.28463 2.12629 0
M  V30 2151 N 205.456 -1.28612 -0.910864 0
M  V30 2152 C 206.705 -1.15311 -1.65488 0
M  V30 2153 C 207.018 0.296999 -1.93332 0
M  V30 2154 O 208.224 0.551168 -2.65847 0
M  V30 2155 C 206.68 -2.01599 -2.98137 0
M  V30 2156 C 206.288 -3.51367 -2.7793 0
M  V30 2157 C 208.032 -1.96993 -3.76024 0
M  V30 2158 C 205.939 -4.29797 -4.06237 0
M  V30 2159 H 204.869 -0.42796 -0.620779 0
M  V30 2160 H 207.52 -1.53166 -1.01057 0
M  V30 2161 H 205.902 -1.56603 -3.63719 0
M  V30 2162 H 207.076 -4.0434 -2.21011 0
M  V30 2163 H 205.391 -3.57529 -2.13452 0
M  V30 2164 H 207.988 -2.52856 -4.71135 0
M  V30 2165 H 208.331 -0.94733 -4.05378 0
M  V30 2166 H 208.864 -2.39973 -3.17266 0
M  V30 2167 H 205.603 -5.32648 -3.82055 0
M  V30 2168 H 205.123 -3.81596 -4.62757 0
M  V30 2169 H 206.802 -4.39869 -4.74473 0
M  V30 2170 N 206.934 1.1197 -1.10907 0
M  V30 2171 C 208.181 1.83588 -0.854507 0
M  V30 2172 C 208.509 1.84357 0.6199 0
M  V30 2173 O 207.764 1.28809 1.47332 0
M  V30 2174 C 208.063 3.30749 -1.35425 0
M  V30 2175 C 207.729 3.50146 -2.84093 0
M  V30 2176 C 206.391 3.55148 -3.2469 0
M  V30 2177 C 208.743 3.56857 -3.79872 0
M  V30 2178 C 206.071 3.6441 -4.59806 0
M  V30 2179 C 208.423 3.6765 -5.14797 0
M  V30 2180 C 207.087 3.7091 -5.54961 0
M  V30 2181 H 206.357 0.671795 -0.312686 0
M  V30 2182 H 209.004 1.32091 -1.38652 0
M  V30 2183 H 207.309 3.84703 -0.742361 0
M  V30 2184 H 209.006 3.8464 -1.1337 0
M  V30 2185 H 205.596 3.46919 -2.51685 0
M  V30 2186 H 209.78 3.52258 -3.49611 0
M  V30 2187 H 205.036 3.65208 -4.9034 0
M  V30 2188 H 209.21 3.71786 -5.88853 0
M  V30 2189 H 206.837 3.7784 -6.59652 0
M  V30 2190 N 208.412 0.89855 1.29475 0
M  V30 2191 C 209.659 0.523882 1.95606 0
M  V30 2192 C 209.987 -0.929608 1.70847 0
M  V30 2193 O 209.242 -1.67401 1.01367 0
M  V30 2194 C 209.541 0.761398 3.49195 0
M  V30 2195 C 209.207 2.19207 3.94029 0
M  V30 2196 C 207.869 2.58326 4.05982 0
M  V30 2197 C 210.221 3.12379 4.17216 0
M  V30 2198 C 207.549 3.898 4.38489 0
M  V30 2199 C 209.901 4.43401 4.51197 0
M  V30 2200 C 208.565 4.82394 4.61359 0
M  V30 2201 H 207.835 0.191702 0.715773 0
M  V30 2202 H 210.482 1.13699 1.54094 0
M  V30 2203 H 208.787 0.0653622 3.91745 0
M  V30 2204 H 210.484 0.450904 3.98457 0
M  V30 2205 H 207.074 1.87846 3.85242 0
M  V30 2206 H 211.258 2.83371 4.07449 0
M  V30 2207 H 206.514 4.19734 4.44559 0
M  V30 2208 H 210.688 5.15623 4.68087 0
M  V30 2209 H 208.315 5.84306 4.86303 0
M  V30 2210 N 209.89 -1.43072 0.660911 0
M  V30 2211 C 211.136 -2.0202 0.177708 0
M  V30 2212 C 211.469 -1.52066 -1.20787 0
M  V30 2213 O 210.744 -0.716987 -1.80802 0
M  V30 2214 C 211.027 -3.59561 0.197019 0
M  V30 2215 C 210.88 -4.19727 1.61706 0
M  V30 2216 C 212.199 -4.37664 -0.462396 0
M  V30 2217 H 209.318 -0.734034 0.0660494 0
M  V30 2218 H 211.96 -1.70272 0.843058 0
M  V30 2219 H 210.11 -3.86739 -0.369527 0
M  V30 2220 H 211.782 -4.03553 2.23479 0
M  V30 2221 H 210.025 -3.76084 2.16201 0
M  V30 2222 H 210.696 -5.28834 1.58237 0
M  V30 2223 H 213.172 -4.16095 0.0197215 0
M  V30 2224 H 212.048 -5.47305 -0.418188 0
M  V30 2225 H 212.309 -4.14493 -1.53778 0
M  V30 2226 N 211.368 -0.403325 -1.52352 0
M  V30 2227 C 212.593 0.176499 -2.06648 0
M  V30 2228 C 213.018 1.38577 -1.27193 0
M  V30 2229 O 212.376 1.7879 -0.300637 0
M  V30 2230 C 212.424 0.511061 -3.5696 0
M  V30 2231 O 211.528 1.60294 -3.79973 0
M  V30 2232 H 210.869 0.0167337 -0.663789 0
M  V30 2233 H 213.399 -0.574848 -1.96359 0
M  V30 2234 H 213.409 0.771362 -4.00642 0
M  V30 2235 H 212.084 -0.37296 -4.14224 0
M  V30 2236 H 210.661 1.33526 -3.48174 0
M  V30 2237 N 212.846 1.57033 -0.133567 0
M  V30 2238 C 213.809 2.14897 0.796995 0
M  V30 2239 C 214.809 1.0874 1.18458 0
M  V30 2240 O 215.999 1.34446 1.1077 0
M  V30 2241 C 213.131 2.70112 2.07973 0
M  V30 2242 H 214.324 2.98457 0.293873 0
M  V30 2243 H 211.877 1.55871 0.115787 0
M  V30 2244 H 212.612 1.9018 2.62682 0
M  V30 2245 H 212.397 3.47764 1.81115 0
M  V30 2246 H 213.887 3.14738 2.74462 0
M  V30 2247 N 214.325 -0.140222 1.56975 0
M  V30 2248 C 215.573 -0.850005 1.83356 0
M  V30 2249 C 215.894 -1.81399 0.71551 0
M  V30 2250 O 215.164 -1.94136 -0.262294 0
M  V30 2251 H 213.744 -0.316886 0.676456 0
M  V30 2252 H 216.406 -0.132608 1.94448 0
M  V30 2253 H 215.502 -1.40814 2.78528 0
M  V30 2254 N 215.803 -1.52179 -0.40978 0
M  V30 2255 C 216.733 -1.78435 -1.5061 0
M  V30 2256 C 217.714 -0.635295 -1.57791 0
M  V30 2257 O 218.899 -0.880823 -1.73076 0
M  V30 2258 C 216.029 -1.93444 -2.88439 0
M  V30 2259 C 214.983 -3.09038 -2.96108 0
M  V30 2260 C 214.309 -3.09268 -4.36185 0
M  V30 2261 C 215.609 -4.48508 -2.67652 0
M  V30 2262 H 217.303 -2.70237 -1.28889 0
M  V30 2263 H 214.849 -1.30036 -0.618605 0
M  V30 2264 H 216.802 -2.10394 -3.65119 0
M  V30 2265 H 215.526 -0.983129 -3.11452 0
M  V30 2266 H 214.185 -2.91837 -2.21872 0
M  V30 2267 H 213.833 -2.11861 -4.56206 0
M  V30 2268 H 213.533 -3.86907 -4.42241 0
M  V30 2269 H 215.057 -3.28348 -5.14801 0
M  V30 2270 H 216.471 -4.65918 -3.34056 0
M  V30 2271 H 214.868 -5.28059 -2.85085 0
M  V30 2272 H 215.938 -4.56649 -1.63095 0
M  V30 2273 N 217.281 0.66697 -1.42791 0
M  V30 2274 C 218.506 1.46004 -1.47301 0
M  V30 2275 C 218.931 1.87894 -0.0880317 0
M  V30 2276 O 218.289 1.56502 0.915253 0
M  V30 2277 C 218.337 2.68031 -2.41229 0
M  V30 2278 O 217.441 3.6659 -1.88906 0
M  V30 2279 H 216.782 0.43832 -0.49877 0
M  V30 2280 H 219.312 0.817391 -1.87563 0
M  V30 2281 H 219.322 3.1601 -2.58073 0
M  V30 2282 H 217.997 2.36883 -3.41847 0
M  V30 2283 H 216.574 3.25661 -1.81656 0
M  V30 2284 N 218.759 1.29093 0.90403 0
M  V30 2285 C 219.707 1.13727 2.02901 0
M  V30 2286 C 220.701 0.0539853 1.69314 0
M  V30 2287 O 221.907 0.213469 1.7873 0
M  V30 2288 H 218.282 0.35117 0.664969 0
M  V30 2289 H 220.253 2.08982 2.13001 0
M  V30 2290 C 219.002 0.826066 3.37745 0
M  V30 2291 H 218.325 1.65164 3.64089 0
M  V30 2292 H 219.765 0.758559 4.17159 0
M  V30 2293 C 218.224 -0.470541 3.33598 0
M  V30 2294 O 218.754 -1.49792 3.72727 0
M  V30 2295 N 216.96 -0.474812 2.86695 0
M  V30 2296 H 216.507 0.361692 2.55048 0
M  V30 2297 H 216.465 -1.34236 2.84303 0
M  V30 2298 N 220.237 -1.11381 1.11499 0
M  V30 2299 C 221.486 -1.82494 0.858993 0
M  V30 2300 C 221.799 -1.85605 -0.617278 0
M  V30 2301 O 223.005 -2.52824 -0.989552 0
M  V30 2302 C 221.461 -3.27745 1.48699 0
M  V30 2303 C 221.069 -3.32961 2.99735 0
M  V30 2304 C 222.813 -4.03754 1.31085 0
M  V30 2305 C 220.72 -4.72612 3.55516 0
M  V30 2306 H 219.65 -0.683802 0.317696 0
M  V30 2307 H 222.301 -1.25331 1.34031 0
M  V30 2308 H 220.683 -3.84844 0.933339 0
M  V30 2309 H 221.857 -2.85741 3.61509 0
M  V30 2310 H 220.172 -2.70433 3.16631 0
M  V30 2311 H 222.769 -5.06891 1.70192 0
M  V30 2312 H 223.112 -4.15527 0.253496 0
M  V30 2313 H 223.645 -3.53043 1.83318 0
M  V30 2314 H 220.384 -4.66036 4.60967 0
M  V30 2315 H 219.904 -5.2024 2.98513 0
M  V30 2316 H 221.583 -5.4157 3.53992 0
M  V30 2317 N 221.715 -0.905404 -1.28997 0
M  V30 2318 C 222.964 -0.530191 -1.94607 0
M  V30 2319 C 223.277 0.929185 -1.72121 0
M  V30 2320 O 224.483 1.41218 -2.31883 0
M  V30 2321 C 222.939 -0.897333 -3.48534 0
M  V30 2322 C 222.547 -2.37587 -3.79811 0
M  V30 2323 C 224.291 -0.592304 -4.20347 0
M  V30 2324 C 222.198 -2.68357 -5.27009 0
M  V30 2325 H 221.128 -0.194558 -0.728466 0
M  V30 2326 H 223.779 -1.10318 -1.46636 0
M  V30 2327 H 222.161 -0.253214 -3.9519 0
M  V30 2328 H 223.335 -3.06602 -3.43994 0
M  V30 2329 H 221.65 -2.6505 -3.2115 0
M  V30 2330 H 224.247 -0.798975 -5.28697 0
M  V30 2331 H 224.59 0.469474 -4.13644 0
M  V30 2332 H 225.123 -1.19452 -3.79442 0
M  V30 2333 H 221.862 -3.73355 -5.38782 0
M  V30 2334 H 221.382 -2.03971 -5.64053 0
M  V30 2335 H 223.061 -2.54922 -5.94663 0
M  V30 2336 N 223.193 1.4272 -0.668489 0
M  V30 2337 C 224.441 2.01226 -0.187769 0
M  V30 2338 C 224.762 1.53092 1.2078 0
M  V30 2339 O 224.032 0.74993 1.80977 0
M  V30 2340 H 222.612 0.744041 -0.0664272 0
M  V30 2341 H 225.274 1.74723 -0.863583 0
M  V30 2342 H 224.37 3.11556 -0.184166 0
M  V30 2343 N 224.671 0.411399 1.52136 0
M  V30 2344 C 225.92 -0.165009 2.01024 0
M  V30 2345 C 226.233 -1.4603 1.30133 0
M  V30 2346 O 227.439 -2.1181 1.69849 0
M  V30 2347 C 225.895 -0.344618 3.58246 0
M  V30 2348 C 225.503 0.938716 4.38055 0
M  V30 2349 C 227.247 -0.876195 4.15359 0
M  V30 2350 C 225.154 0.726172 5.86925 0
M  V30 2351 H 224.084 -0.0654407 0.751155 0
M  V30 2352 H 226.735 0.537192 1.75461 0
M  V30 2353 H 225.117 -1.10921 3.80148 0
M  V30 2354 H 226.291 1.70963 4.27912 0
M  V30 2355 H 224.606 1.39688 3.92271 0
M  V30 2356 H 227.203 -1.05128 5.24263 0
M  V30 2357 H 227.546 -1.85152 3.7286 0
M  V30 2358 H 228.079 -0.170607 3.97434 0
M  V30 2359 H 224.818 1.67312 6.33788 0
M  V30 2360 H 224.338 -0.00540283 5.998 0
M  V30 2361 H 226.017 0.369231 6.45946 0
M  V30 2362 N 226.149 -1.5696 0.141893 0
M  V30 2363 C 227.398 -1.95135 -0.510427 0
M  V30 2364 C 227.711 -1.02896 -1.66348 0
M  V30 2365 O 228.917 -1.30629 -2.38009 0
M  V30 2366 C 227.373 -3.46876 -0.959427 0
M  V30 2367 C 226.981 -4.47691 0.166419 0
M  V30 2368 C 228.725 -3.93927 -1.58183 0
M  V30 2369 C 226.632 -5.90636 -0.300565 0
M  V30 2370 H 225.562 -0.728494 -0.194454 0
M  V30 2371 H 228.213 -1.8211 0.22542 0
M  V30 2372 H 226.595 -3.55215 -1.75038 0
M  V30 2373 H 227.769 -4.51043 0.94325 0
M  V30 2374 H 226.084 -4.10527 0.696905 0
M  V30 2375 H 228.681 -4.98158 -1.94275 0
M  V30 2376 H 229.024 -3.3519 -2.46888 0
M  V30 2377 H 229.557 -3.88484 -0.855863 0
M  V30 2378 H 226.296 -6.5318 0.550989 0
M  V30 2379 H 225.816 -5.90655 -1.04338 0
M  V30 2380 H 227.495 -6.42588 -0.754265 0
M  V30 2381 N 227.627 0.131896 -1.57047 0
M  V30 2382 C 228.873 0.843179 -1.84441 0
M  V30 2383 C 229.206 1.80129 -0.725749 0
M  V30 2384 O 228.481 1.92624 0.269469 0
M  V30 2385 C 228.764 1.60442 -3.22382 0
M  V30 2386 C 228.617 0.666782 -4.4483 0
M  V30 2387 C 229.936 2.56354 -3.5773 0
M  V30 2388 H 227.055 0.305081 -0.670891 0
M  V30 2389 H 229.697 0.107839 -1.89694 0
M  V30 2390 H 227.847 2.23128 -3.18035 0
M  V30 2391 H 229.519 0.0497646 -4.61273 0
M  V30 2392 H 227.762 -0.022609 -4.33794 0
M  V30 2393 H 228.433 1.23579 -5.37989 0
M  V30 2394 H 230.909 2.0378 -3.62785 0
M  V30 2395 H 229.785 3.06657 -4.5525 0
M  V30 2396 H 230.046 3.38419 -2.84473 0
M  V30 2397 N 229.106 1.52395 0.401703 0
M  V30 2398 C 230.336 1.70429 1.1678 0
M  V30 2399 C 230.744 0.416702 1.84554 0
M  V30 2400 O 230.087 -0.617697 1.73003 0
M  V30 2401 C 230.149 2.78919 2.26814 0
M  V30 2402 C 229.813 4.20437 1.79113 0
M  V30 2403 C 230.81 5.04028 1.27482 0
M  V30 2404 C 228.495 4.66704 1.85722 0
M  V30 2405 C 230.489 6.31961 0.830913 0
M  V30 2406 C 228.176 5.94625 1.40942 0
M  V30 2407 C 229.174 6.77082 0.897128 0
M  V30 2408 O 228.862 8.02607 0.455822 0
M  V30 2409 H 228.594 0.574272 0.356634 0
M  V30 2410 H 231.148 1.99767 0.477724 0
M  V30 2411 H 229.378 2.44973 2.99207 0
M  V30 2412 H 231.067 2.8548 2.88541 0
M  V30 2413 H 231.833 4.69471 1.21744 0
M  V30 2414 H 227.712 4.0262 2.24539 0
M  V30 2415 H 231.256 6.96271 0.430368 0
M  V30 2416 H 227.153 6.28688 1.46362 0
M  V30 2417 H 227.921 8.16453 0.578457 0
M  V30 2418 N 230.584 -0.659388 1.43143 0
M  V30 2419 C 231.833 -1.41518 1.43721 0
M  V30 2420 C 232.146 -1.95499 0.0628176 0
M  V30 2421 O 233.352 -2.71446 -0.0539683 0
M  V30 2422 C 231.808 -2.5608 2.52885 0
M  V30 2423 C 231.416 -2.08733 3.96402 0
M  V30 2424 C 233.16 -3.3349 2.62649 0
M  V30 2425 C 231.067 -3.20469 4.97045 0
M  V30 2426 H 229.997 -0.531705 0.534608 0
M  V30 2427 H 232.648 -0.712343 1.69109 0
M  V30 2428 H 231.03 -3.28805 2.20688 0
M  V30 2429 H 232.204 -1.43059 4.3803 0
M  V30 2430 H 230.519 -1.44219 3.90627 0
M  V30 2431 H 233.116 -4.16734 3.35017 0
M  V30 2432 H 233.459 -3.8111 1.67513 0
M  V30 2433 H 233.992 -2.67842 2.94118 0
M  V30 2434 H 230.731 -2.77824 5.93712 0
M  V30 2435 H 230.251 -3.84874 4.60034 0
M  V30 2436 H 231.93 -3.85698 5.19467 0
M  V30 2437 N 232.062 -1.29571 -0.897171 0
M  V30 2438 C 233.287 -1.20705 -1.68656 0
M  V30 2439 C 233.712 0.228582 -1.86706 0
M  V30 2440 O 233.07 1.16494 -1.3892 0
M  V30 2441 C 233.118 -1.9282 -3.04717 0
M  V30 2442 O 232.222 -1.24697 -3.93096 0
M  V30 2443 H 231.563 -0.418126 -0.515816 0
M  V30 2444 H 234.093 -1.71183 -1.12061 0
M  V30 2445 H 234.103 -2.01372 -3.54843 0
M  V30 2446 H 232.778 -2.97239 -2.90899 0
M  V30 2447 H 231.355 -1.2442 -3.51531 0
M  V30 2448 N 233.54 1.10788 -1.12088 0
M  V30 2449 C 234.503 2.15207 -0.788577 0
M  V30 2450 C 235.503 1.59609 0.195317 0
M  V30 2451 O 236.693 1.74174 -0.0300193 0
M  V30 2452 C 233.825 3.4047 -0.171174 0
M  V30 2453 H 235.018 2.46116 -1.71368 0
M  V30 2454 H 232.571 1.26089 -0.923652 0
M  V30 2455 H 233.306 3.15176 0.763832 0
M  V30 2456 H 233.091 3.82109 -0.879514 0
M  V30 2457 H 234.581 4.17576 0.04496 0
M  V30 2458 N 235.018 0.912232 1.28515 0
M  V30 2459 C 235.966 0.389597 2.29314 0
M  V30 2460 C 236.96 -0.517915 1.61289 0
M  V30 2461 O 238.166 -0.399328 1.75515 0
M  V30 2462 H 234.541 0.107386 0.744293 0
M  V30 2463 H 236.512 1.25286 2.70825 0
M  V30 2464 C 235.261 -0.356496 3.45868 0
M  V30 2465 H 234.584 0.332608 3.98414 0
M  V30 2466 H 236.024 -0.686851 4.184 0
M  V30 2467 C 234.483 -1.56383 2.98406 0
M  V30 2468 O 235.013 -2.66294 3.00749 0
M  V30 2469 N 233.219 -1.41029 2.54085 0
M  V30 2470 H 232.766 -0.516089 2.52377 0
M  V30 2471 H 232.724 -2.21939 2.22689 0
M  V30 2472 N 236.496 -1.42363 0.676048 0
M  V30 2473 C 237.459 -2.29199 0.00766941 0
M  V30 2474 C 238.459 -1.43389 -0.727745 0
M  V30 2475 O 239.649 -1.64764 -0.56556 0
M  V30 2476 C 236.781 -3.2591 -0.999785 0
M  V30 2477 H 237.974 -2.89794 0.771988 0
M  V30 2478 H 235.527 -1.50024 0.438468 0
M  V30 2479 H 236.262 -2.70256 -1.79255 0
M  V30 2480 H 236.047 -3.89202 -0.475829 0
M  V30 2481 H 237.537 -3.91028 -1.46583 0
M  V30 2482 N 237.974 -0.419461 -1.51915 0
M  V30 2483 C 239.222 0.152637 -2.01523 0
M  V30 2484 C 239.543 1.44762 -1.30649 0
M  V30 2485 O 238.813 1.90997 -0.435535 0
M  V30 2486 H 237.393 0.0593966 -0.744635 0
M  V30 2487 H 240.055 -0.558073 -1.86739 0
M  V30 2488 H 239.151 0.341369 -3.10227 0
M  V30 2489 N 239.452 1.56882 -0.150215 0
M  V30 2490 C 240.729 1.87844 0.545327 0
M  V30 2491 C 241.109 1.0567 1.82749 0
M  V30 2492 O 240.457 0.144442 2.28043 0
M  V30 2493 C 240.667 3.39526 0.80767 0
M  V30 2494 C 242.015 4.08814 1.14703 0
M  V30 2495 O 243.039 3.44723 0.896917 0
M  V30 2496 O 241.898 5.22004 1.61784 0
M  V30 2497 H 238.992 0.778677 0.278553 0
M  V30 2498 H 241.538 1.68666 -0.187068 0
M  V30 2499 H 240.31 3.91173 -0.0996096 0
M  V30 2500 H 239.933 3.64243 1.59413 0
M  V30 2501 N 240.93 -0.123565 1.57115 0
M  V30 2502 C 242.341 -0.681198 1.73829 0
M  V30 2503 C 242.692 -1.80535 0.768214 0
M  V30 2504 O 241.817 -2.16317 -0.0599103 0
M  V30 2505 C 242.412 -1.24246 3.15196 0
M  V30 2506 C 240.971 -1.74643 3.33432 0
M  V30 2507 C 240.118 -0.644284 2.69711 0
M  V30 2508 H 243.069 0.102315 1.5837 0
M  V30 2509 H 243.09 -2.11216 3.16493 0
M  V30 2510 H 242.602 -0.424062 3.85776 0
M  V30 2511 H 240.703 -2.58974 2.67886 0
M  V30 2512 H 240.816 -1.85902 4.41562 0
M  V30 2513 H 239.18 -1.07676 2.3082 0
M  V30 2514 H 239.963 0.163058 3.42913 0
M  V30 2515 N 242.408 -1.52605 -0.393616 0
M  V30 2516 C 243.656 -1.67093 -1.13685 0
M  V30 2517 C 243.977 -0.411011 -1.90619 0
M  V30 2518 O 243.247 0.574491 -1.87287 0
M  V30 2519 H 241.827 -0.615923 -0.422668 0
M  V30 2520 H 244.489 -1.89704 -0.447039 0
M  V30 2521 H 243.585 -2.51922 -1.84232 0
M  V30 2522 N 243.887 0.651787 -1.4349 0
M  V30 2523 C 244.819 1.77725 -1.44729 0
M  V30 2524 C 245.832 1.59141 -0.343231 0
M  V30 2525 O 247.021 1.67835 -0.607751 0
M  V30 2526 C 244.121 3.15172 -1.24579 0
M  V30 2527 C 243.294 3.60402 -2.47849 0
M  V30 2528 C 242.353 4.76656 -2.22902 0
M  V30 2529 O 241.379 4.86022 -2.96263 0
M  V30 2530 N 242.581 5.66958 -1.24656 0
M  V30 2531 H 245.346 1.77141 -2.41746 0
M  V30 2532 H 242.907 0.835678 -1.38665 0
M  V30 2533 H 244.899 3.90634 -1.0577 0
M  V30 2534 H 243.469 3.1052 -0.360015 0
M  V30 2535 H 242.689 2.75369 -2.82073 0
M  V30 2536 H 243.977 3.87368 -3.29884 0
M  V30 2537 H 243.375 5.62065 -0.640265 0
M  V30 2538 H 241.932 6.42135 -1.1183 0
M  V30 2539 N 245.365 1.30045 0.890287 0
M  V30 2540 C 246.781 1.08261 1.17268 0
M  V30 2541 C 246.981 -0.160063 2.00863 0
M  V30 2542 O 246.037 -0.855181 2.37577 0
M  V30 2543 C 247.35 2.34323 1.8845 0
M  V30 2544 C 248.898 2.39735 2.01237 0
M  V30 2545 C 249.373 3.65625 2.7583 0
M  V30 2546 N 250.864 3.66402 2.83379 0
M  V30 2547 C 251.599 4.60498 3.41657 0
M  V30 2548 N 251.095 5.64933 4.01026 0
M  V30 2549 N 252.888 4.48051 3.39421 0
M  V30 2550 H 245.039 2.09777 0.332762 0
M  V30 2551 H 247.302 0.92446 0.209948 0
M  V30 2552 H 247.008 3.2498 1.34465 0
M  V30 2553 H 246.882 2.4256 2.88867 0
M  V30 2554 H 249.269 1.4956 2.54393 0
M  V30 2555 H 249.35 2.35476 0.999232 0
M  V30 2556 H 248.994 4.56156 2.23347 0
M  V30 2557 H 248.924 3.67144 3.77509 0
M  V30 2558 H 251.415 2.90896 2.41222 0
M  V30 2559 H 251.728 6.32841 4.43545 0
M  V30 2560 H 250.073 5.68732 3.99461 0
M  V30 2561 H 253.264 3.65649 2.92264 0
M  V30 2562 H 253.437 5.21565 3.84544 0
M  V30 2563 N 246.843 -1.10192 1.12674 0
M  V30 2564 C 248.12 -1.78717 0.794965 0
M  V30 2565 C 248.5 -1.98628 -0.714853 0
M  V30 2566 O 247.848 -1.58135 -1.64941 0
M  V30 2567 C 248.058 -3.11546 1.5729 0
M  V30 2568 C 249.406 -3.86382 1.76052 0
M  V30 2569 O 250.43 -3.21274 1.53823 0
M  V30 2570 O 249.289 -5.03246 2.13087 0
M  V30 2571 H 246.383 -0.774702 0.289423 0
M  V30 2572 H 248.929 -1.16819 1.23091 0
M  V30 2573 H 247.701 -2.92489 2.59935 0
M  V30 2574 H 247.324 -3.81164 1.13137 0
M  V30 2575 N 248.321 -0.919034 -1.28029 0
M  V30 2576 C 249.546 -0.570357 -1.99403 0
M  V30 2577 C 249.971 0.842486 -1.68178 0
M  V30 2578 O 249.329 1.56391 -0.917141 0
M  V30 2579 C 249.377 -0.792541 -3.51783 0
M  V30 2580 O 248.481 0.145988 -4.12142 0
M  V30 2581 H 247.822 -0.220555 -0.6263 0
M  V30 2582 H 250.352 -1.23592 -1.63053 0
M  V30 2583 H 250.362 -0.704708 -4.01868 0
M  V30 2584 H 249.037 -1.82247 -3.73844 0
M  V30 2585 H 247.614 0.00897528 -3.72899 0
M  V30 2586 N 249.799 1.42003 -0.683588 0
M  V30 2587 C 250.746 2.30798 -0.0107309 0
M  V30 2588 C 251.716 1.4645 0.783688 0
M  V30 2589 O 252.901 1.75263 0.754156 0
M  V30 2590 C 250.041 3.3238 0.928306 0
M  V30 2591 C 249.154 4.31814 0.126776 0
M  V30 2592 C 248.289 5.20468 1.06236 0
M  V30 2593 C 247.328 6.11577 0.253035 0
M  V30 2594 N 246.465 6.92754 1.14179 0
M  V30 2595 H 251.305 2.8778 -0.773727 0
M  V30 2596 H 248.842 1.41745 -0.393283 0
M  V30 2597 H 250.8 3.89813 1.48666 0
M  V30 2598 H 249.43 2.76976 1.65783 0
M  V30 2599 H 248.482 3.76427 -0.54833 0
M  V30 2600 H 249.794 4.96276 -0.501192 0
M  V30 2601 H 248.948 5.82677 1.69035 0
M  V30 2602 H 247.687 4.56204 1.7242 0
M  V30 2603 H 246.692 5.48428 -0.388108 0
M  V30 2604 H 247.917 6.77892 -0.404839 0
M  V30 2605 H 245.863 6.3111 1.78987 0
M  V30 2606 H 245.78 7.53855 0.569111 0
M  V30 2607 H 247.048 7.59441 1.75697 0
M  V30 2608 N 251.277 0.427512 1.51691 0
M  V30 2609 C 252.224 -0.388867 2.275 0
M  V30 2610 C 253.194 -1.02532 1.30677 0
M  V30 2611 O 254.379 -1.0461 1.59566 0
M  V30 2612 C 251.519 -1.48954 3.11298 0
M  V30 2613 C 250.632 -0.872194 4.23104 0
M  V30 2614 C 249.767 -1.94709 4.94228 0
M  V30 2615 C 248.806 -1.30766 5.97969 0
M  V30 2616 N 247.943 -2.32349 6.62539 0
M  V30 2617 H 252.783 0.263997 2.96828 0
M  V30 2618 H 250.32 0.142033 1.46413 0
M  V30 2619 H 252.278 -2.13887 3.58201 0
M  V30 2620 H 250.908 -2.11217 2.44105 0
M  V30 2621 H 249.96 -0.111419 3.80237 0
M  V30 2622 H 251.272 -0.365264 4.97461 0
M  V30 2623 H 250.426 -2.67327 5.44629 0
M  V30 2624 H 249.165 -2.48773 4.1948 0
M  V30 2625 H 248.17 -0.566902 5.4687 0
M  V30 2626 H 249.395 -0.774483 6.74669 0
M  V30 2627 H 247.341 -2.85511 5.90609 0
M  V30 2628 H 247.258 -1.8652 7.3263 0
M  V30 2629 H 248.526 -3.04481 7.17574 0
M  V30 2630 N 252.755 -1.56801 0.158532 0
M  V30 2631 C 253.98 -2.01295 -0.499516 0
M  V30 2632 C 254.405 -1.03799 -1.56867 0
M  V30 2633 O 253.763 -0.0155162 -1.81293 0
M  V30 2634 C 253.811 -3.44469 -1.06647 0
M  V30 2635 O 252.915 -3.50012 -2.18095 0
M  V30 2636 H 252.256 -0.652884 -0.12099 0
M  V30 2637 H 254.786 -2.02958 0.258661 0
M  V30 2638 H 254.796 -3.8351 -1.39227 0
M  V30 2639 H 253.471 -4.14932 -0.283581 0
M  V30 2640 H 252.048 -3.22822 -1.86656 0
M  V30 2641 N 254.233 0.115231 -1.57178 0
M  V30 2642 C 255.463 0.835224 -1.88964 0
M  V30 2643 C 255.871 1.73774 -0.74829 0
M  V30 2644 O 255.214 1.81401 0.289739 0
M  V30 2645 C 255.276 1.7178 -3.15804 0
M  V30 2646 C 254.94 0.989198 -4.46166 0
M  V30 2647 C 255.937 0.328263 -5.18863 0
M  V30 2648 C 253.622 0.969256 -4.9286 0
M  V30 2649 C 255.616 -0.342873 -6.36477 0
M  V30 2650 C 253.303 0.294324 -6.10391 0
M  V30 2651 C 254.301 -0.360582 -6.82048 0
M  V30 2652 O 253.989 -1.02474 -7.97342 0
M  V30 2653 H 253.721 0.245197 -0.629964 0
M  V30 2654 H 256.275 0.10303 -2.05141 0
M  V30 2655 H 254.505 2.49173 -2.95719 0
M  V30 2656 H 256.194 2.31255 -3.33581 0
M  V30 2657 H 256.96 0.335263 -4.8384 0
M  V30 2658 H 252.839 1.46844 -4.36987 0
M  V30 2659 H 256.383 -0.854629 -6.92345 0
M  V30 2660 H 252.28 0.285099 -6.4487 0
M  V30 2661 H 253.048 -0.929594 -8.13204 0
M  V30 2662 N 255.711 1.52812 0.385517 0
M  V30 2663 C 256.936 1.72207 1.15583 0
M  V30 2664 C 257.361 0.441034 1.82857 0
M  V30 2665 O 256.719 -0.603465 1.70962 0
M  V30 2666 C 256.767 2.87476 2.17692 0
M  V30 2667 O 255.871 2.54693 3.24354 0
M  V30 2668 H 255.212 0.572526 0.336319 0
M  V30 2669 H 257.742 1.99618 0.448744 0
M  V30 2670 H 257.752 3.13072 2.6163 0
M  V30 2671 H 256.427 3.80408 1.68115 0
M  V30 2672 H 255.004 2.3985 2.85529 0
M  V30 2673 N 257.189 -0.644168 1.43834 0
M  V30 2674 C 258.419 -1.42939 1.49171 0
M  V30 2675 C 258.827 -1.88874 0.111048 0
M  V30 2676 O 258.17 -1.60656 -0.8908 0
M  V30 2677 C 258.232 -2.69151 2.38324 0
M  V30 2678 C 257.896 -2.45097 3.85715 0
M  V30 2679 C 258.893 -2.07747 4.76589 0
M  V30 2680 C 256.578 -2.59141 4.30292 0
M  V30 2681 C 258.572 -1.8475 6.10038 0
M  V30 2682 C 256.259 -2.35759 5.63792 0
M  V30 2683 C 257.257 -1.9862 6.53482 0
M  V30 2684 O 256.945 -1.75489 7.84512 0
M  V30 2685 H 256.677 -0.445271 0.508635 0
M  V30 2686 H 259.231 -0.79621 1.8934 0
M  V30 2687 H 257.461 -3.3506 1.93058 0
M  V30 2688 H 259.15 -3.31123 2.3476 0
M  V30 2689 H 259.916 -1.96465 4.43426 0
M  V30 2690 H 255.795 -2.87022 3.60749 0
M  V30 2691 H 259.339 -1.55686 6.80006 0
M  V30 2692 H 255.236 -2.46646 5.9652 0
M  V30 2693 H 256.004 -1.89841 7.9618 0
M  V30 2694 N 258.668 -1.30515 -0.883378 0
M  V30 2695 C 259.916 -1.19194 -1.63209 0
M  V30 2696 C 260.237 0.253205 -1.93349 0
M  V30 2697 O 259.507 1.17025 -1.57105 0
M  V30 2698 H 258.087 -0.438148 -0.605009 0
M  V30 2699 H 260.749 -1.63663 -1.05832 0
M  V30 2700 H 259.845 -1.75396 -2.58153 0
M  V30 2701 N 260.146 1.09593 -1.13257 0
M  V30 2702 C 261.392 1.82181 -0.904521 0
M  V30 2703 C 261.747 1.83967 0.563358 0
M  V30 2704 O 261.04 1.29566 1.41149 0
M  V30 2705 C 261.234 3.27802 -1.42411 0
M  V30 2706 C 261.063 3.40201 -2.94097 0
M  V30 2707 C 259.833 3.52104 -3.62424 0
M  V30 2708 C 262.031 3.32875 -3.92044 0
M  V30 2709 N 260.013 3.53169 -5.0214 0
M  V30 2710 C 261.384 3.40789 -5.17941 0
M  V30 2711 C 263.439 3.16531 -3.84334 0
M  V30 2712 C 262.142 3.34042 -6.37031 0
M  V30 2713 C 264.168 3.11109 -5.02956 0
M  V30 2714 C 263.53 3.19614 -6.27715 0
M  V30 2715 H 259.629 0.681015 -0.384373 0
M  V30 2716 H 262.213 1.3099 -1.44048 0
M  V30 2717 H 260.384 3.77466 -0.915086 0
M  V30 2718 H 262.116 3.88393 -1.13722 0
M  V30 2719 H 258.871 3.5548 -3.12939 0
M  V30 2720 H 259.295 3.57291 -5.75041 0
M  V30 2721 H 263.937 3.08827 -2.88766 0
M  V30 2722 H 261.655 3.4051 -7.32857 0
M  V30 2723 H 265.241 2.99601 -4.98729 0
M  V30 2724 H 264.121 3.15432 -7.17964 0
M  V30 2725 N 261.624 0.925811 1.2754 0
M  V30 2726 C 262.849 0.580924 1.99098 0
M  V30 2727 C 263.274 -0.833555 1.68622 0
M  V30 2728 O 262.632 -1.55903 0.925422 0
M  V30 2729 C 262.68 0.811186 3.51358 0
M  V30 2730 O 261.784 -0.124129 4.12213 0
M  V30 2731 H 261.125 0.223873 0.625122 0
M  V30 2732 H 263.655 1.24455 1.62395 0
M  V30 2733 H 263.665 0.72601 4.01489 0
M  V30 2734 H 262.34 1.84227 3.72872 0
M  V30 2735 H 260.917 0.0108006 3.72898 0
M  V30 2736 N 263.102 -1.41638 0.69111 0
M  V30 2737 C 264.349 -2.01299 0.220193 0
M  V30 2738 C 264.677 -1.54715 -1.17871 0
M  V30 2739 O 263.932 -0.747193 -1.80874 0
M  V30 2740 C 264.231 -3.56714 0.221277 0
M  V30 2741 C 263.897 -4.22792 1.56709 0
M  V30 2742 C 262.559 -4.40557 1.93554 0
M  V30 2743 C 264.911 -4.59883 2.45268 0
M  V30 2744 C 262.239 -4.92688 3.18552 0
M  V30 2745 C 264.591 -5.13403 3.69595 0
M  V30 2746 C 263.255 -5.29379 4.06589 0
M  V30 2747 H 262.525 -0.736606 0.0805743 0
M  V30 2748 H 265.172 -1.69598 0.889319 0
M  V30 2749 H 263.477 -3.8818 -0.531391 0
M  V30 2750 H 265.174 -4.00678 -0.160547 0
M  V30 2751 H 261.764 -4.09336 1.2705 0
M  V30 2752 H 265.948 -4.45817 2.18084 0
M  V30 2753 H 261.204 -5.03242 3.47214 0
M  V30 2754 H 265.378 -5.41084 4.38407 0
M  V30 2755 H 263.005 -5.69537 5.03519 0
M  V30 2756 N 264.58 -0.43555 -1.51462 0
M  V30 2757 C 265.81 0.130053 -2.0619 0
M  V30 2758 C 266.218 1.37164 -1.30317 0
M  V30 2759 O 265.561 1.80225 -0.355598 0
M  V30 2760 C 265.623 0.519418 -3.55728 0
M  V30 2761 C 265.287 -0.615119 -4.52841 0
M  V30 2762 C 266.284 -1.48671 -4.9819 0
M  V30 2763 C 263.969 -0.795341 -4.95963 0
M  V30 2764 C 265.963 -2.52324 -5.8533 0
M  V30 2765 C 263.65 -1.83514 -5.82894 0
M  V30 2766 C 264.648 -2.69748 -6.27475 0
M  V30 2767 O 264.336 -3.71944 -7.1268 0
M  V30 2768 H 264.068 0.0121612 -0.675891 0
M  V30 2769 H 266.622 -0.6129 -1.96043 0
M  V30 2770 H 264.852 1.31505 -3.63653 0
M  V30 2771 H 266.541 1.01597 -3.92979 0
M  V30 2772 H 267.307 -1.359 -4.65571 0
M  V30 2773 H 263.186 -0.133713 -4.60806 0
M  V30 2774 H 266.73 -3.19665 -6.20048 0
M  V30 2775 H 262.627 -1.96306 -6.14926 0
M  V30 2776 H 263.395 -3.68503 -7.30854 0
M  V30 2777 N 266.058 1.56714 -0.166846 0
M  V30 2778 C 267.305 1.96747 0.479252 0
M  V30 2779 C 267.633 1.05263 1.63554 0
M  V30 2780 O 266.888 0.0858098 1.95512 0
M  V30 2781 C 267.187 3.42889 1.00806 0
M  V30 2782 C 266.853 4.50889 -0.0318574 0
M  V30 2783 C 265.515 4.8015 -0.317675 0
M  V30 2784 C 267.867 5.15949 -0.737956 0
M  V30 2785 C 265.195 5.71772 -1.31506 0
M  V30 2786 C 267.547 6.08647 -1.72429 0
M  V30 2787 C 266.211 6.36277 -2.0176 0
M  V30 2788 H 265.481 0.719949 0.175371 0
M  V30 2789 H 268.128 1.89756 -0.257864 0
M  V30 2790 H 266.433 3.4681 1.82291 0
M  V30 2791 H 268.13 3.71203 1.51689 0
M  V30 2792 H 264.72 4.28128 0.201088 0
M  V30 2793 H 268.904 4.93458 -0.530351 0
M  V30 2794 H 264.16 5.91465 -1.54853 0
M  V30 2795 H 268.334 6.58129 -2.27682 0
M  V30 2796 H 265.961 7.07075 -2.79194 0
M  V30 2797 N 267.536 -0.106894 1.57237 0
M  V30 2798 C 268.784 -0.810921 1.85117 0
M  V30 2799 C 269.105 -1.7984 0.753827 0
M  V30 2800 O 268.375 -1.94649 -0.221056 0
M  V30 2801 H 266.955 -0.302466 0.683025 0
M  V30 2802 H 269.617 -0.0913324 1.94686 0
M  V30 2803 H 268.713 -1.34875 2.81452 0
M  V30 2804 N 269.014 -1.53014 -0.377408 0
M  V30 2805 C 269.977 -1.77957 -1.44444 0
M  V30 2806 C 270.977 -0.649763 -1.47087 0
M  V30 2807 O 272.167 -0.917897 -1.48055 0
M  V30 2808 C 269.299 -1.89089 -2.83651 0
M  V30 2809 H 270.492 -2.73243 -1.23606 0
M  V30 2810 H 268.045 -1.43912 -0.609844 0
M  V30 2811 H 268.78 -0.958293 -3.09818 0
M  V30 2812 H 268.565 -2.71254 -2.83132 0
M  V30 2813 H 270.055 -2.1002 -3.60945 0
M  V30 2814 N 270.492 0.636531 -1.44174 0
M  V30 2815 C 271.739 1.39619 -1.46672 0
M  V30 2816 C 272.067 1.94257 -0.0972691 0
M  V30 2817 O 271.322 1.73768 0.900175 0
M  V30 2818 C 271.621 2.58309 -2.47005 0
M  V30 2819 C 271.287 2.21992 -3.92467 0
M  V30 2820 C 269.949 2.118 -4.32081 0
M  V30 2821 C 272.301 1.9321 -4.84065 0
M  V30 2822 C 269.629 1.71007 -5.61225 0
M  V30 2823 C 271.981 1.53911 -6.13591 0
M  V30 2824 C 270.645 1.42257 -6.52165 0
M  V30 2825 H 269.915 0.510902 -0.536712 0
M  V30 2826 H 272.562 0.722328 -1.77355 0
M  V30 2827 H 270.867 3.30903 -2.09786 0
M  V30 2828 H 272.564 3.16533 -2.46186 0
M  V30 2829 H 269.154 2.30841 -3.61124 0
M  V30 2830 H 273.338 1.99997 -4.54219 0
M  V30 2831 H 268.594 1.60583 -5.89935 0
M  V30 2832 H 272.768 1.30677 -6.8403 0
M  V30 2833 H 270.395 1.10419 -7.52138 0
M  V30 2834 N 271.97 1.30982 0.876444 0
M  V30 2835 C 273.195 1.23373 1.66715 0
M  V30 2836 C 273.62 -0.19885 1.87046 0
M  V30 2837 O 272.978 -1.1427 1.40756 0
M  V30 2838 C 273.026 1.97644 3.01611 0
M  V30 2839 O 272.13 1.30935 3.91062 0
M  V30 2840 H 271.471 0.426279 0.509099 0
M  V30 2841 H 274.001 1.72944 1.09323 0
M  V30 2842 H 274.011 2.06992 3.51594 0
M  V30 2843 H 272.686 3.01829 2.86133 0
M  V30 2844 H 271.263 1.29996 3.49507 0
M  V30 2845 N 273.449 -1.08991 1.13837 0
M  V30 2846 C 274.696 -1.81258 0.902882 0
M  V30 2847 C 275.024 -1.85936 -0.570803 0
M  V30 2848 O 274.279 -1.3267 -1.43865 0
M  V30 2849 C 274.578 -3.27042 1.44147 0
M  V30 2850 C 274.244 -3.4249 2.93276 0
M  V30 2851 C 272.906 -3.46414 3.33992 0
M  V30 2852 C 275.258 -3.4666 3.892 0
M  V30 2853 C 272.586 -3.52091 4.69307 0
M  V30 2854 C 274.938 -3.53872 5.24364 0
M  V30 2855 C 273.602 -3.56066 5.646 0
M  V30 2856 H 272.872 -0.663268 0.330388 0
M  V30 2857 H 275.519 -1.28368 1.42105 0
M  V30 2858 H 273.824 -3.82599 0.844097 0
M  V30 2859 H 275.521 -3.81499 1.23528 0
M  V30 2860 H 272.111 -3.40124 2.60794 0
M  V30 2861 H 276.295 -3.42865 3.58828 0
M  V30 2862 H 271.551 -3.52079 4.9985 0
M  V30 2863 H 275.725 -3.56043 5.98503 0
M  V30 2864 H 273.352 -3.60218 6.69438 0
M  V30 2865 N 274.927 -0.932562 -1.27047 0
M  V30 2866 C 276.176 -0.571351 -1.93439 0
M  V30 2867 C 276.489 0.892467 -1.74053 0
M  V30 2868 O 277.695 1.36267 -2.34826 0
M  V30 2869 C 276.151 -0.97106 -3.46552 0
M  V30 2870 C 275.759 -2.4559 -3.74686 0
M  V30 2871 C 277.503 -0.681333 -4.18997 0
M  V30 2872 C 275.41 -2.79475 -5.21198 0
M  V30 2873 H 274.34 -0.209966 -0.724176 0
M  V30 2874 H 276.991 -1.13403 -1.44263 0
M  V30 2875 H 275.373 -0.336983 -3.94564 0
M  V30 2876 H 276.547 -3.13829 -3.37414 0
M  V30 2877 H 274.862 -2.71802 -3.15456 0
M  V30 2878 H 277.459 -0.910939 -5.26883 0
M  V30 2879 H 277.802 0.381628 -4.14547 0
M  V30 2880 H 278.335 -1.27473 -3.76823 0
M  V30 2881 H 275.074 -3.847 -5.30741 0
M  V30 2882 H 274.594 -2.1589 -5.596 0
M  V30 2883 H 276.273 -2.67478 -5.89122 0
M  V30 2884 N 276.405 1.4127 -0.698611 0
M  V30 2885 C 277.654 2.00408 -0.227949 0
M  V30 2886 C 277.967 1.55981 1.18023 0
M  V30 2887 O 279.173 2.07699 1.74852 0
M  V30 2888 C 277.629 3.58129 -0.356636 0
M  V30 2889 C 277.237 4.11536 -1.77037 0
M  V30 2890 C 278.981 4.24466 0.0540969 0
M  V30 2891 C 276.888 5.61701 -1.85055 0
M  V30 2892 H 275.818 0.749586 -0.0814657 0
M  V30 2893 H 278.469 1.61713 -0.867249 0
M  V30 2894 H 276.851 3.94442 0.350965 0
M  V30 2895 H 278.025 3.86636 -2.50698 0
M  V30 2896 H 276.34 3.57736 -2.13105 0
M  V30 2897 H 278.937 5.34698 0.0146723 0
M  V30 2898 H 279.28 4.01687 1.09332 0
M  V30 2899 H 279.813 3.93198 -0.603337 0
M  V30 2900 H 276.552 5.89312 -2.8704 0
M  V30 2901 H 276.072 5.88519 -1.15783 0
M  V30 2902 H 277.751 6.26524 -1.61484 0
M  V30 2903 N 277.883 0.443576 1.51229 0
M  V30 2904 C 278.846 -0.353132 2.26463 0
M  V30 2905 C 279.846 -0.944338 1.3015 0
M  V30 2906 O 281.036 -0.817813 1.5381 0
M  V30 2907 C 278.168 -1.50023 3.06114 0
M  V30 2908 H 279.361 0.3063 2.98332 0
M  V30 2909 H 276.914 0.196902 1.55055 0
M  V30 2910 H 277.649 -2.19553 2.38677 0
M  V30 2911 H 277.434 -1.08241 3.76864 0
M  V30 2912 H 278.924 -2.06296 3.63087 0
M  V30 2913 N 279.361 -1.56624 0.175154 0
M  V30 2914 C 280.271 -2.21741 -0.766042 0
M  V30 2915 C 281.287 -1.21023 -1.25018 0
M  V30 2916 O 282.463 -1.53697 -1.3015 0
M  V30 2917 C 279.528 -2.84839 -1.97655 0
M  V30 2918 C 278.589 -4.00769 -1.53892 0
M  V30 2919 C 277.822 -4.60849 -2.69173 0
M  V30 2920 O 278.045 -4.19823 -3.86141 0
M  V30 2921 O 276.979 -5.50655 -2.43028 0
M  V30 2922 H 280.805 -3.02738 -0.241585 0
M  V30 2923 H 278.39 -1.49305 -0.053222 0
M  V30 2924 H 280.272 -3.24834 -2.68442 0
M  V30 2925 H 278.947 -2.06836 -2.48999 0
M  V30 2926 H 277.854 -3.65436 -0.80044 0
M  V30 2927 H 279.187 -4.80376 -1.07236 0
M  V30 2928 N 280.839 0.0985539 -1.57292 0
M  V30 2929 C 282.088 0.801358 -1.85098 0
M  V30 2930 C 282.401 1.80066 -0.763902 0
M  V30 2931 O 283.607 2.55112 -0.928981 0
M  V30 2932 C 282.063 1.47599 -3.28242 0
M  V30 2933 C 281.671 0.516624 -4.45011 0
M  V30 2934 C 283.415 2.16272 -3.65276 0
M  V30 2935 C 281.322 1.19564 -5.79188 0
M  V30 2936 H 280.252 0.303022 -0.69043 0
M  V30 2937 H 282.903 0.0542623 -1.8342 0
M  V30 2938 H 281.285 2.27042 -3.2445 0
M  V30 2939 H 282.459 -0.246065 -4.60143 0
M  V30 2940 H 280.774 -0.064227 -4.1635 0
M  V30 2941 H 283.371 2.67802 -4.62803 0
M  V30 2942 H 283.714 2.95009 -2.93727 0
M  V30 2943 H 284.247 1.43693 -3.70941 0
M  V30 2944 H 280.986 0.449157 -6.53959 0
M  V30 2945 H 280.506 1.92984 -5.67906 0
M  V30 2946 H 282.185 1.7231 -6.23633 0
M  V30 2947 N 282.317 1.53212 0.369288 0
M  V30 2948 C 283.563 1.69466 1.11397 0
M  V30 2949 C 283.896 0.443257 1.89074 0
M  V30 2950 O 283.171 -0.559386 1.86282 0
M  V30 2951 C 283.454 2.9422 2.07621 0
M  V30 2952 C 283.307 4.29508 1.33577 0
M  V30 2953 C 284.626 3.14565 3.07794 0
M  V30 2954 H 281.745 0.616667 0.403597 0
M  V30 2955 H 284.387 1.85845 0.395179 0
M  V30 2956 H 282.537 2.80387 2.68916 0
M  V30 2957 H 284.209 4.55147 0.750955 0
M  V30 2958 H 282.452 4.29088 0.637618 0
M  V30 2959 H 283.123 5.12926 2.03989 0
M  V30 2960 H 285.599 3.2756 2.56601 0
M  V30 2961 H 284.475 4.03297 3.72348 0
M  V30 2962 H 284.736 2.29675 3.77759 0
M  V30 2963 N 283.795 -0.628877 1.44509 0
M  V30 2964 C 285.043 -1.38565 1.4712 0
M  V30 2965 C 285.364 -1.94712 0.105899 0
M  V30 2966 O 284.634 -1.75912 -0.862079 0
M  V30 2967 H 283.214 -0.514333 0.541729 0
M  V30 2968 H 285.876 -0.740018 1.80305 0
M  V30 2969 H 284.972 -2.21583 2.19789 0
M  V30 2970 N 285.273 -1.31445 -0.869486 0
M  V30 2971 C 286.519 -1.21337 -1.62496 0
M  V30 2972 C 286.852 0.227872 -1.92858 0
M  V30 2973 O 286.127 1.16094 -1.56053 0
M  V30 2974 C 286.41 -2.05814 -2.95487 0
M  V30 2975 C 286.263 -3.5824 -2.72 0
M  V30 2976 C 287.582 -1.9079 -3.96594 0
M  V30 2977 H 284.701 -0.442135 -0.589649 0
M  V30 2978 H 287.343 -1.6124 -1.00507 0
M  V30 2979 H 285.493 -1.71913 -3.48394 0
M  V30 2980 H 287.165 -4.0228 -2.25762 0
M  V30 2981 H 285.408 -3.81647 -2.06224 0
M  V30 2982 H 286.079 -4.12657 -3.66631 0
M  V30 2983 H 288.555 -2.20459 -3.52898 0
M  V30 2984 H 287.431 -2.52199 -4.87531 0
M  V30 2985 H 287.692 -0.871341 -4.33428 0
M  V30 2986 N 286.751 1.08385 -1.14413 0
M  V30 2987 C 287.997 1.81044 -0.913834 0
M  V30 2988 C 288.33 1.86004 0.558209 0
M  V30 2989 O 287.605 1.33606 1.4135 0
M  V30 2990 C 287.888 3.26648 -1.51569 0
M  V30 2991 C 287.741 3.29895 -3.0576 0
M  V30 2992 C 289.06 4.23629 -1.19273 0
M  V30 2993 H 286.179 0.65727 -0.333414 0
M  V30 2994 H 288.821 1.26896 -1.41412 0
M  V30 2995 H 286.971 3.72889 -1.09023 0
M  V30 2996 H 288.643 2.91977 -3.57137 0
M  V30 2997 H 286.886 2.69163 -3.40197 0
M  V30 2998 H 287.557 4.32516 -3.42977 0
M  V30 2999 H 290.033 3.85727 -1.56057 0
M  V30 3000 H 288.909 5.23822 -1.64017 0
M  V30 3001 H 289.17 4.41968 -0.108068 0
M  V30 3002 N 288.23 0.939286 1.26551 0
M  V30 3003 C 289.193 0.451987 2.24699 0
M  V30 3004 C 290.193 -0.435869 1.5478 0
M  V30 3005 O 291.383 -0.235314 1.72603 0
M  V30 3006 C 288.515 -0.348801 3.39111 0
M  V30 3007 H 289.708 1.3193 2.69322 0
M  V30 3008 H 287.261 0.721072 1.38673 0
M  V30 3009 H 287.996 -1.23444 2.99887 0
M  V30 3010 H 287.781 0.287945 3.91041 0
M  V30 3011 H 289.271 -0.679726 4.12031 0
M  V30 3012 N 289.708 -1.40897 0.706093 0
M  V30 3013 C 290.954 -2.01352 0.241889 0
M  V30 3014 C 291.287 -1.55832 -1.15888 0
M  V30 3015 O 290.562 -0.774145 -1.7843 0
M  V30 3016 C 290.845 -3.58752 0.311311 0
M  V30 3017 C 290.698 -4.1437 1.74978 0
M  V30 3018 C 292.017 -4.38914 -0.322922 0
M  V30 3019 H 289.136 -0.731562 0.0893687 0
M  V30 3020 H 291.778 -1.67504 0.896802 0
M  V30 3021 H 289.928 -3.87718 -0.246302 0
M  V30 3022 H 291.6 -3.96239 2.36205 0
M  V30 3023 H 289.843 -3.69016 2.28057 0
M  V30 3024 H 290.514 -5.23532 1.74981 0
M  V30 3025 H 292.99 -4.15822 0.152089 0
M  V30 3026 H 291.866 -5.48358 -0.243855 0
M  V30 3027 H 292.127 -4.19176 -1.40513 0
M  V30 3028 N 291.186 -0.45159 -1.50991 0
M  V30 3029 C 292.136 0.370861 -2.24964 0
M  V30 3030 C 293.12 0.978074 -1.2776 0
M  V30 3031 O 294.312 0.893854 -1.52772 0
M  V30 3032 C 291.441 1.46344 -3.10545 0
M  V30 3033 C 290.527 0.864924 -4.15187 0
M  V30 3034 N 290.918 -0.00311354 -5.058 0
M  V30 3035 C 289.216 1.13099 -4.31422 0
M  V30 3036 C 289.917 -0.340772 -5.80701 0
M  V30 3037 N 288.893 0.279203 -5.42883 0
M  V30 3038 H 292.695 -0.298134 -2.92384 0
M  V30 3039 H 290.209 -0.264528 -1.60231 0
M  V30 3040 H 292.206 2.06565 -3.62128 0
M  V30 3041 H 290.866 2.13463 -2.4467 0
M  V30 3042 H 291.877 -0.37058 -5.16572 0
M  V30 3043 H 288.554 1.79861 -3.76771 0
M  V30 3044 H 289.944 -1.048 -6.63677 0
M  V30 3045 N 292.664 1.56529 -0.183458 0
M  V30 3046 C 293.913 1.96419 0.458511 0
M  V30 3047 C 294.226 1.0727 1.63562 0
M  V30 3048 O 295.432 1.36893 2.34462 0
M  V30 3049 C 293.888 3.49298 0.867122 0
M  V30 3050 C 293.496 4.47092 -0.285057 0
M  V30 3051 C 295.24 3.97983 1.47683 0
M  V30 3052 C 293.147 5.91225 0.143862 0
M  V30 3053 H 292.077 0.733394 0.175071 0
M  V30 3054 H 294.728 1.81448 -0.273624 0
M  V30 3055 H 293.11 3.59731 1.65559 0
M  V30 3056 H 294.284 4.48383 -1.0625 0
M  V30 3057 H 292.599 4.08535 -0.805503 0
M  V30 3058 H 295.196 5.03134 1.80999 0
M  V30 3059 H 295.539 3.41618 2.37914 0
M  V30 3060 H 296.072 3.90617 0.752562 0
M  V30 3061 H 292.811 6.5149 -0.723974 0
M  V30 3062 H 292.331 5.93214 0.886413 0
M  V30 3063 H 294.01 6.44362 0.583628 0
M  V30 3064 N 294.142 -0.090211 1.57342 0
M  V30 3065 C 295.372 -0.805055 1.90269 0
M  V30 3066 C 295.78 -1.72561 0.775842 0
M  V30 3067 O 295.123 -1.81839 -0.260843 0
M  V30 3068 C 295.185 -1.66734 3.18497 0
M  V30 3069 C 294.849 -0.918092 4.47683 0
M  V30 3070 C 295.846 -0.245674 5.19319 0
M  V30 3071 C 293.531 -0.890724 4.94339 0
M  V30 3072 C 295.525 0.444088 6.35851 0
M  V30 3073 C 293.212 -0.197179 6.10782 0
M  V30 3074 C 294.21 0.469044 6.81388 0
M  V30 3075 O 293.898 1.15146 7.95611 0
M  V30 3076 H 293.63 -0.235143 0.633785 0
M  V30 3077 H 296.184 -0.0703805 2.05279 0
M  V30 3078 H 294.414 -2.44437 2.99646 0
M  V30 3079 H 296.103 -2.25919 3.37217 0
M  V30 3080 H 296.869 -0.258246 4.84312 0
M  V30 3081 H 292.748 -1.39873 4.39268 0
M  V30 3082 H 296.292 0.964667 6.90898 0
M  V30 3083 H 292.189 -0.18247 6.45242 0
M  V30 3084 H 292.957 1.05885 8.11622 0
M  V30 3085 N 295.62 -1.53406 -0.361157 0
M  V30 3086 C 296.869 -1.69022 -1.10066 0
M  V30 3087 C 297.182 -0.450838 -1.90333 0
M  V30 3088 O 298.388 -0.487617 -2.67085 0
M  V30 3089 C 296.844 -2.98812 -2.00598 0
M  V30 3090 C 296.452 -4.30027 -1.25621 0
M  V30 3091 C 298.196 -3.23795 -2.74513 0
M  V30 3092 C 296.103 -5.50903 -2.1508 0
M  V30 3093 H 295.033 -0.629776 -0.414606 0
M  V30 3094 H 297.684 -1.79907 -0.361348 0
M  V30 3095 H 296.066 -2.8174 -2.78278 0
M  V30 3096 H 297.24 -4.57745 -0.529739 0
M  V30 3097 H 295.555 -4.11522 -0.635496 0
M  V30 3098 H 298.152 -4.11289 -3.41681 0
M  V30 3099 H 298.495 -2.40045 -3.40123 0
M  V30 3100 H 299.028 -3.41561 -2.03914 0
M  V30 3101 H 295.767 -6.37143 -1.54041 0
M  V30 3102 H 295.287 -5.27459 -2.85565 0
M  V30 3103 H 296.966 -5.85865 -2.74538 0
M  V30 3104 N 297.098 0.621204 -1.44841 0
M  V30 3105 C 298.008 1.7612 -1.5498 0
M  V30 3106 C 299.024 1.68477 -0.434927 0
M  V30 3107 O 300.2 1.89076 -0.693693 0
M  V30 3108 C 297.265 3.1254 -1.50065 0
M  V30 3109 C 296.326 3.31741 -2.72482 0
M  V30 3110 C 295.559 4.61653 -2.67792 0
M  V30 3111 O 295.782 5.431 -1.74352 0
M  V30 3112 O 294.716 4.83271 -3.58794 0
M  V30 3113 H 298.542 1.70518 -2.51311 0
M  V30 3114 H 296.127 0.783643 -1.27198 0
M  V30 3115 H 298.009 3.93844 -1.49882 0
M  V30 3116 H 296.684 3.18663 -0.568806 0
M  V30 3117 H 295.591 2.50077 -2.7823 0
M  V30 3118 H 296.924 3.30486 -3.64746 0
M  V30 3119 N 298.576 1.31904 0.862503 0
M  V30 3120 C 299.523 1.20182 1.9704 0
M  V30 3121 C 300.493 0.0858247 1.65878 0
M  V30 3122 O 301.678 0.26 1.8902 0
M  V30 3123 C 298.818 0.922797 3.32533 0
M  V30 3124 C 297.931 2.12284 3.76244 0
M  V30 3125 C 297.066 1.77996 5.00491 0
M  V30 3126 C 296.105 2.94366 5.36671 0
M  V30 3127 N 295.242 2.60223 6.52095 0
M  V30 3128 H 300.082 2.14951 2.06398 0
M  V30 3129 H 297.619 1.06917 1.01031 0
M  V30 3130 H 299.577 0.741548 4.10557 0
M  V30 3131 H 298.207 0.0119227 3.22798 0
M  V30 3132 H 297.259 2.41461 2.9394 0
M  V30 3133 H 298.571 2.99357 3.98982 0
M  V30 3134 H 297.725 1.56377 5.862 0
M  V30 3135 H 296.464 0.881252 4.79672 0
M  V30 3136 H 295.469 3.16625 4.49476 0
M  V30 3137 H 296.694 3.84957 5.59451 0
M  V30 3138 H 294.64 1.72884 6.32809 0
M  V30 3139 H 294.557 3.40827 6.74814 0
M  V30 3140 H 295.825 2.42016 7.40978 0
M  V30 3141 N 300.054 -1.07777 1.14986 0
M  V30 3142 C 301.004 -2.13082 0.811181 0
M  V30 3143 C 301.988 -1.59619 -0.202597 0
M  V30 3144 O 303.18 -1.77 -0.00398275 0
M  V30 3145 C 300.309 -3.42009 0.297439 0
M  V30 3146 C 299.395 -4.02337 1.34112 0
M  V30 3147 N 299.786 -4.36982 2.54716 0
M  V30 3148 C 298.084 -4.29752 1.19285 0
M  V30 3149 C 298.785 -4.84729 3.21578 0
M  V30 3150 N 297.761 -4.83233 2.48972 0
M  V30 3151 H 301.563 -2.37696 1.72853 0
M  V30 3152 H 299.077 -1.25173 1.03468 0
M  V30 3153 H 301.074 -4.16884 0.0364777 0
M  V30 3154 H 299.734 -3.18841 -0.614022 0
M  V30 3155 H 300.745 -4.27807 2.91894 0
M  V30 3156 H 297.422 -4.16106 0.340926 0
M  V30 3157 H 298.812 -5.20863 4.24442 0
M  V30 3158 N 301.532 -0.945985 -1.26051 0
M  V30 3159 C 302.464 -0.416662 -2.25381 0
M  V30 3160 C 303.477 0.462712 -1.56086 0
M  V30 3161 O 304.666 0.272383 -1.7641 0
M  V30 3162 C 301.766 0.419812 -3.3629 0
M  V30 3163 C 300.939 -0.444531 -4.35135 0
M  V30 3164 C 299.998 0.332305 -5.2515 0
M  V30 3165 O 299.024 -0.266324 -5.68577 0
M  V30 3166 N 300.226 1.62763 -5.57215 0
M  V30 3167 H 302.991 -1.27059 -2.71433 0
M  V30 3168 H 300.552 -0.815392 -1.39868 0
M  V30 3169 H 302.544 0.947013 -3.93464 0
M  V30 3170 H 301.114 1.17456 -2.89694 0
M  V30 3171 H 300.334 -1.15291 -3.76964 0
M  V30 3172 H 301.622 -1.03478 -4.98166 0
M  V30 3173 H 301.02 2.13603 -5.23823 0
M  V30 3174 H 299.577 2.10097 -6.17011 0
M  V30 3175 N 303.011 1.40521 -0.713556 0
M  V30 3176 C 303.943 2.29191 -0.0203126 0
M  V30 3177 C 304.956 1.45723 0.725864 0
M  V30 3178 O 306.145 1.69033 0.573581 0
M  V30 3179 C 303.245 3.2395 0.995486 0
M  V30 3180 C 302.418 4.36262 0.315256 0
M  V30 3181 C 301.477 5.11474 1.23616 0
M  V30 3182 O 300.503 5.64606 0.721719 0
M  V30 3183 N 301.705 5.20638 2.56743 0
M  V30 3184 H 304.47 2.89327 -0.781652 0
M  V30 3185 H 302.031 1.51869 -0.561022 0
M  V30 3186 H 304.023 3.71137 1.61368 0
M  V30 3187 H 302.593 2.64995 1.6582 0
M  V30 3188 H 301.813 3.91228 -0.483106 0
M  V30 3189 H 303.101 5.08558 -0.157004 0
M  V30 3190 H 302.499 4.7895 3.01037 0
M  V30 3191 H 301.056 5.71339 3.13712 0
M  V30 3192 N 304.489 0.459591 1.5075 0
M  V30 3193 C 305.419 -0.330644 2.31147 0
M  V30 3194 C 306.4 -1.00087 1.37538 0
M  V30 3195 O 307.585 -1.00025 1.66459 0
M  V30 3196 C 304.715 -1.41958 3.16962 0
M  V30 3197 C 303.669 -0.871608 4.19031 0
M  V30 3198 C 302.995 -2.05797 4.9351 0
M  V30 3199 C 304.295 0.109251 5.22186 0
M  V30 3200 H 305.989 0.340336 2.97459 0
M  V30 3201 H 303.535 0.165119 1.4305 0
M  V30 3202 H 305.488 -1.9798 3.71997 0
M  V30 3203 H 304.212 -2.11917 2.48513 0
M  V30 3204 H 302.871 -0.333442 3.6508 0
M  V30 3205 H 302.519 -2.74427 4.21544 0
M  V30 3206 H 302.219 -1.6976 5.62544 0
M  V30 3207 H 303.743 -2.62331 5.51375 0
M  V30 3208 H 305.157 -0.361405 5.7216 0
M  V30 3209 H 303.554 0.383316 5.98875 0
M  V30 3210 H 304.624 1.03887 4.73641 0
M  V30 3211 N 305.967 -1.56429 0.191757 0
M  V30 3212 C 307.383 -1.58754 -0.164137 0
M  V30 3213 C 307.583 -1.20782 -1.61288 0
M  V30 3214 O 306.639 -0.928999 -2.34789 0
M  V30 3215 C 307.952 -3.00396 0.135195 0
M  V30 3216 C 309.5 -3.1291 0.0750351 0
M  V30 3217 C 309.975 -4.56679 0.347632 0
M  V30 3218 N 311.466 -4.62252 0.296131 0
M  V30 3219 C 312.201 -5.71379 0.480948 0
M  V30 3220 N 311.697 -6.88986 0.725933 0
M  V30 3221 N 313.49 -5.60563 0.415435 0
M  V30 3222 H 305.641 -1.79393 1.13718 0
M  V30 3223 H 307.904 -0.832414 0.453643 0
M  V30 3224 H 307.61 -3.32726 1.13958 0
M  V30 3225 H 307.484 -3.72963 -0.563773 0
M  V30 3226 H 309.871 -2.80394 -0.919948 0
M  V30 3227 H 309.952 -2.42736 0.807029 0
M  V30 3228 H 309.596 -4.89907 1.33992 0
M  V30 3229 H 309.526 -5.25039 -0.405212 0
M  V30 3230 H 312.017 -3.7773 0.113259 0
M  V30 3231 H 312.33 -7.68046 0.855857 0
M  V30 3232 H 310.675 -6.90801 0.762788 0
M  V30 3233 H 313.866 -4.67561 0.224486 0
M  V30 3234 H 314.039 -6.45551 0.562889 0
M  V30 3235 N 307.445 0.0818655 -1.57387 0
M  V30 3236 C 308.408 1.08265 -2.02018 0
M  V30 3237 C 309.408 1.32183 -0.915664 0
M  V30 3238 O 310.598 1.28073 -1.18081 0
M  V30 3239 C 307.73 2.42871 -2.39221 0
M  V30 3240 H 308.923 0.698204 -2.91659 0
M  V30 3241 H 306.476 0.327303 -1.52835 0
M  V30 3242 H 307.211 2.86167 -1.52575 0
M  V30 3243 H 306.996 2.26855 -3.19811 0
M  V30 3244 H 308.486 3.14826 -2.74362 0
M  V30 3245 N 308.923 1.53595 0.353017 0
M  V30 3246 C 309.87 1.80919 1.43308 0
M  V30 3247 C 310.84 0.654288 1.5267 0
M  V30 3248 O 312.025 0.897759 1.6836 0
M  V30 3249 C 309.165 2.01605 2.80089 0
M  V30 3250 C 308.278 3.29321 2.79593 0
M  V30 3251 C 307.413 3.40125 4.0803 0
M  V30 3252 C 306.452 4.61826 4.01725 0
M  V30 3253 N 305.589 4.69716 5.21834 0
M  V30 3254 H 310.429 2.73074 1.19308 0
M  V30 3255 H 307.966 1.35263 0.578131 0
M  V30 3256 H 309.924 2.11586 3.59565 0
M  V30 3257 H 308.554 1.12772 3.0246 0
M  V30 3258 H 307.606 3.28229 1.92276 0
M  V30 3259 H 308.918 4.18884 2.70809 0
M  V30 3260 H 308.072 3.49488 4.95927 0
M  V30 3261 H 306.811 2.48601 4.19582 0
M  V30 3262 H 305.816 4.52552 3.12213 0
M  V30 3263 H 307.041 5.54705 3.91764 0
M  V30 3264 H 304.987 3.81097 5.33948 0
M  V30 3265 H 304.904 5.53202 5.1527 0
M  V30 3266 H 306.172 4.83376 6.11529 0
M  V30 3267 N 310.401 -0.613514 1.45168 0
M  V30 3268 C 311.626 -1.40437 1.52618 0
M  V30 3269 C 312.051 -1.87438 0.157707 0
M  V30 3270 O 311.409 -1.59791 -0.856537 0
M  V30 3271 C 311.457 -2.58894 2.51011 0
M  V30 3272 O 310.561 -3.59326 2.02382 0
M  V30 3273 H 309.902 -0.419506 0.514695 0
M  V30 3274 H 312.432 -0.747215 1.90467 0
M  V30 3275 H 312.442 -3.06214 2.69624 0
M  V30 3276 H 311.117 -2.24032 3.50403 0
M  V30 3277 H 309.694 -3.18695 1.93618 0
M  V30 3278 N 311.879 -1.3236 -0.855495 0
M  V30 3279 C 312.829 -1.17809 -1.95205 0
M  V30 3280 C 313.813 -0.0852319 -1.60674 0
M  V30 3281 O 315.005 -0.311651 -1.74235 0
M  V30 3282 C 312.134 -0.902437 -3.31226 0
M  V30 3283 C 311.22 -2.03695 -3.7198 0
M  V30 3284 N 311.611 -3.28544 -3.84568 0
M  V30 3285 C 309.909 -1.93993 -4.016 0
M  V30 3286 C 310.61 -4.02847 -4.19629 0
M  V30 3287 N 309.586 -3.31138 -4.31102 0
M  V30 3288 H 313.388 -2.12462 -2.0307 0
M  V30 3289 H 310.902 -1.24127 -1.0472 0
M  V30 3290 H 312.899 -0.77915 -4.09554 0
M  V30 3291 H 311.559 0.0357267 -3.2468 0
M  V30 3292 H 312.57 -3.6349 -3.68911 0
M  V30 3293 H 309.247 -1.07733 -4.03361 0
M  V30 3294 H 310.637 -5.10506 -4.36845 0
M  V30 3295 N 313.357 1.07166 -1.15556 0
M  V30 3296 C 314.582 1.84053 -0.955988 0
M  V30 3297 C 315.007 1.81586 0.490739 0
M  V30 3298 O 314.365 1.21018 1.34997 0
M  V30 3299 C 314.413 3.28957 -1.47714 0
M  V30 3300 O 313.517 4.06795 -0.677593 0
M  V30 3301 H 312.858 0.569842 -0.340847 0
M  V30 3302 H 315.388 1.35178 -1.53584 0
M  V30 3303 H 315.398 3.79788 -1.4908 0
M  V30 3304 H 314.073 3.30068 -2.53037 0
M  V30 3305 H 312.65 3.6561 -0.733721 0
M  V30 3306 N 314.835 0.952656 1.25548 0
M  V30 3307 C 315.745 0.47782 2.29682 0
M  V30 3308 C 316.761 -0.453859 1.67977 0
M  V30 3309 O 317.937 -0.330587 1.98668 0
M  V30 3310 C 315.002 -0.238655 3.45878 0
M  V30 3311 C 314.063 0.730994 4.23031 0
M  V30 3312 C 313.296 0.0486165 5.33678 0
M  V30 3313 O 313.519 -1.16612 5.58353 0
M  V30 3314 O 312.453 0.733152 5.97418 0
M  V30 3315 H 316.279 1.34312 2.72386 0
M  V30 3316 H 313.864 0.719026 1.30959 0
M  V30 3317 H 315.746 -0.641774 4.16484 0
M  V30 3318 H 314.421 -1.07916 3.05181 0
M  V30 3319 H 313.328 1.18428 3.5486 0
M  V30 3320 H 314.661 1.53946 4.67506 0
M  V30 3321 N 316.313 -1.40141 0.720998 0
M  V30 3322 C 317.56 -2.00787 0.262842 0
M  V30 3323 C 317.888 -1.5718 -1.14563 0
M  V30 3324 O 317.143 -0.785391 -1.79249 0
M  V30 3325 C 317.442 -3.56165 0.296892 0
M  V30 3326 C 317.108 -4.19373 1.65641 0
M  V30 3327 C 315.77 -4.36352 2.02855 0
M  V30 3328 C 318.122 -4.54578 2.54968 0
M  V30 3329 C 315.45 -4.8582 3.28931 0
M  V30 3330 C 317.802 -5.05447 3.80402 0
M  V30 3331 C 316.466 -5.20635 4.17726 0
M  V30 3332 H 315.736 -0.734731 0.0961807 0
M  V30 3333 H 318.383 -1.67673 0.925093 0
M  V30 3334 H 316.688 -3.8922 -0.448932 0
M  V30 3335 H 318.385 -4.00929 -0.0755208 0
M  V30 3336 H 314.975 -4.06549 1.35704 0
M  V30 3337 H 319.159 -4.41091 2.27491 0
M  V30 3338 H 314.415 -4.95764 3.57811 0
M  V30 3339 H 318.589 -5.31663 4.49786 0
M  V30 3340 H 316.216 -5.58728 5.15487 0
M  V30 3341 N 317.792 -0.46758 -1.50504 0
M  V30 3342 C 318.722 0.318381 -2.31319 0
M  V30 3343 C 319.703 0.993564 -1.38066 0
M  V30 3344 O 320.888 0.991411 -1.66987 0
M  V30 3345 C 318.018 1.40275 -3.17711 0
M  V30 3346 C 316.972 0.849373 -4.19487 0
M  V30 3347 C 316.298 2.03177 -4.94594 0
M  V30 3348 C 317.598 -0.136942 -5.2212 0
M  V30 3349 H 319.292 -0.356106 -2.97275 0
M  V30 3350 H 316.838 -0.172703 -1.42961 0
M  V30 3351 H 318.791 1.96004 -3.73042 0
M  V30 3352 H 317.515 2.10596 -2.49634 0
M  V30 3353 H 316.174 0.314076 -3.65252 0
M  V30 3354 H 315.822 2.72187 -4.22993 0
M  V30 3355 H 315.522 1.66774 -5.63436 0
M  V30 3356 H 317.046 2.59403 -5.52759 0
M  V30 3357 H 318.46 0.331056 -5.72343 0
M  V30 3358 H 316.857 -0.41507 -5.98663 0
M  V30 3359 H 317.927 -1.06398 -4.73083 0
M  V30 3360 N 319.27 1.56325 -0.20005 0
M  V30 3361 C 320.217 2.1932 0.718833 0
M  V30 3362 C 321.187 1.14198 1.20615 0
M  V30 3363 O 322.372 1.42469 1.26914 0
M  V30 3364 C 319.512 2.86041 1.93066 0
M  V30 3365 C 318.625 4.05702 1.48425 0
M  V30 3366 C 317.76 4.60266 2.65196 0
M  V30 3367 C 316.799 5.72273 2.17185 0
M  V30 3368 N 315.936 6.21221 3.27152 0
M  V30 3369 H 320.776 2.97486 0.17489 0
M  V30 3370 H 318.313 1.46911 0.0745794 0
M  V30 3371 H 320.271 3.22897 2.64184 0
M  V30 3372 H 318.901 2.1043 2.44783 0
M  V30 3373 H 317.953 3.74475 0.668755 0
M  V30 3374 H 319.265 4.86699 1.09204 0
M  V30 3375 H 318.419 4.99453 3.4443 0
M  V30 3376 H 317.158 3.78386 3.07693 0
M  V30 3377 H 316.163 5.3261 1.36407 0
M  V30 3378 H 317.388 6.55974 1.75713 0
M  V30 3379 H 315.334 5.42263 3.69171 0
M  V30 3380 H 315.251 6.97284 2.92116 0
M  V30 3381 H 316.519 6.65063 4.06585 0
M  V30 3382 N 320.748 -0.0735177 1.57428 0
M  V30 3383 C 321.695 -1.08756 2.0357 0
M  V30 3384 C 322.665 -1.38559 0.916 0
M  V30 3385 O 323.85 -1.49656 1.18354 0
M  V30 3386 C 320.99 -2.39657 2.48311 0
M  V30 3387 C 320.103 -2.16399 3.73892 0
M  V30 3388 C 319.238 -3.40852 4.07423 0
M  V30 3389 C 318.277 -3.1295 5.2605 0
M  V30 3390 N 317.414 -4.29729 5.55228 0
M  V30 3391 H 322.254 -0.687104 2.8997 0
M  V30 3392 H 319.791 -0.327709 1.43403 0
M  V30 3393 H 321.749 -3.16081 2.72303 0
M  V30 3394 H 320.379 -2.77508 1.64891 0
M  V30 3395 H 319.431 -1.30676 3.57251 0
M  V30 3396 H 320.743 -1.91788 4.60455 0
M  V30 3397 H 319.897 -4.25671 4.32306 0
M  V30 3398 H 318.636 -3.68537 3.19425 0
M  V30 3399 H 317.641 -2.26526 5.00965 0
M  V30 3400 H 318.866 -2.86589 6.15665 0
M  V30 3401 H 316.812 -4.57448 4.70188 0
M  V30 3402 H 316.729 -4.08385 6.36206 0
M  V30 3403 H 317.997 -5.1555 5.84661 0
M  V30 3404 N 322.226 -1.5378 -0.344866 0
M  V30 3405 C 323.451 -1.75211 -1.10977 0
M  V30 3406 C 323.876 -0.48936 -1.81623 0
M  V30 3407 O 323.234 0.557925 -1.72502 0
M  V30 3408 C 323.282 -2.93147 -2.09993 0
M  V30 3409 O 322.386 -2.63203 -3.17487 0
M  V30 3410 H 321.727 -0.581241 -0.321021 0
M  V30 3411 H 324.257 -2.00738 -0.395661 0
M  V30 3412 H 324.267 -3.19898 -2.53237 0
M  V30 3413 H 322.942 -3.84731 -1.5797 0
M  V30 3414 H 321.519 -2.47336 -2.79069 0
M  V30 3415 N 323.704 0.605807 -1.45491 0
M  V30 3416 C 324.932 1.39136 -1.5313 0
M  V30 3417 C 325.347 1.88082 -0.164507 0
M  V30 3418 O 324.704 1.62316 0.834247 0
M  V30 3419 C 324.755 2.59463 -2.51716 0
M  V30 3420 O 324.476 2.12551 -3.83084 0
M  V30 3421 C 325.977 3.52301 -2.6907 0
M  V30 3422 H 323.197 0.425849 -0.51855 0
M  V30 3423 H 325.741 0.73865 -1.90694 0
M  V30 3424 H 323.896 3.20772 -2.17219 0
M  V30 3425 H 324.31 2.90744 -4.36541 0
M  V30 3426 H 325.784 4.33271 -3.42024 0
M  V30 3427 H 326.261 4.02757 -1.75167 0
M  V30 3428 H 326.867 2.96845 -3.04571 0
M  V30 3429 N 325.182 1.32811 0.848464 0
M  V30 3430 C 326.429 1.23724 1.60308 0
M  V30 3431 C 326.757 -0.1994 1.93475 0
M  V30 3432 O 326.012 -1.15406 1.5805 0
M  V30 3433 C 326.311 2.04831 2.92881 0
M  V30 3434 C 325.977 3.54125 2.79117 0
M  V30 3435 C 324.639 3.94829 2.7507 0
M  V30 3436 C 326.991 4.49036 2.64606 0
M  V30 3437 C 324.319 5.28675 2.544 0
M  V30 3438 C 326.671 5.83033 2.4547 0
M  V30 3439 C 325.335 6.22931 2.39819 0
M  V30 3440 H 324.605 0.452737 0.586609 0
M  V30 3441 H 327.252 1.64301 0.983743 0
M  V30 3442 H 325.557 1.57001 3.58968 0
M  V30 3443 H 327.254 1.95164 3.50303 0
M  V30 3444 H 323.844 3.21801 2.83094 0
M  V30 3445 H 328.028 4.18505 2.66772 0
M  V30 3446 H 323.284 5.58637 2.48465 0
M  V30 3447 H 327.458 6.56186 2.33222 0
M  V30 3448 H 325.085 7.26584 2.23562 0
M  V30 3449 N 326.66 -1.06551 1.16123 0
M  V30 3450 C 327.623 -2.12132 0.867906 0
M  V30 3451 C 328.623 -1.60224 -0.135944 0
M  V30 3452 O 329.813 -1.73943 0.0946422 0
M  V30 3453 C 326.945 -3.396 0.297419 0
M  V30 3454 H 328.138 -2.39586 1.80385 0
M  V30 3455 H 325.691 -1.22574 0.969812 0
M  V30 3456 H 326.426 -3.17794 -0.64633 0
M  V30 3457 H 326.211 -3.78581 1.02073 0
M  V30 3458 H 327.701 -4.17455 0.110052 0
M  V30 3459 N 328.138 -0.959301 -1.25041 0
M  V30 3460 C 329.554 -0.664474 -1.4511 0
M  V30 3461 C 329.754 0.776481 -1.85938 0
M  V30 3462 O 328.81 1.55128 -1.99227 0
M  V30 3463 C 330.123 -1.64139 -2.5195 0
M  V30 3464 C 331.671 -1.65309 -2.65786 0
M  V30 3465 C 332.146 -2.61777 -3.75815 0
M  V30 3466 N 333.637 -2.60169 -3.83231 0
M  V30 3467 C 334.372 -3.31489 -4.6787 0
M  V30 3468 N 333.868 -4.12298 -5.56761 0
M  V30 3469 N 335.661 -3.20354 -4.61876 0
M  V30 3470 H 327.812 -1.89043 -0.968332 0
M  V30 3471 H 330.075 -0.813408 -0.4869 0
M  V30 3472 H 329.781 -2.67086 -2.28819 0
M  V30 3473 H 329.655 -1.40756 -3.49954 0
M  V30 3474 H 332.042 -0.630778 -2.8828 0
M  V30 3475 H 332.123 -1.92753 -1.68167 0
M  V30 3476 H 331.767 -3.64137 -3.54071 0
M  V30 3477 H 331.697 -2.31616 -4.72929 0
M  V30 3478 H 334.188 -2.01507 -3.19692 0
M  V30 3479 H 334.501 -4.63625 -6.18281 0
M  V30 3480 H 332.846 -4.16395 -5.56454 0
M  V30 3481 H 336.037 -2.56692 -3.91442 0
M  V30 3482 H 336.21 -3.76201 -5.27614 0
M  V30 3483 N 329.616 1.39756 -0.72842 0
M  V30 3484 C 330.546 2.33289 -0.0991354 0
M  V30 3485 C 331.527 1.53568 0.731489 0
M  V30 3486 O 332.712 1.81987 0.677807 0
M  V30 3487 C 329.842 3.3763 0.813834 0
M  V30 3488 C 328.796 4.2791 0.0878663 0
M  V30 3489 C 328.122 5.22894 1.11741 0
M  V30 3490 C 329.422 5.11314 -1.06563 0
M  V30 3491 H 331.116 2.86163 -0.880408 0
M  V30 3492 H 328.662 1.37591 -0.424819 0
M  V30 3493 H 330.615 4.0201 1.26355 0
M  V30 3494 H 329.339 2.83181 1.62715 0
M  V30 3495 H 327.998 3.65 -0.342159 0
M  V30 3496 H 327.646 4.64744 1.92412 0
M  V30 3497 H 327.346 5.84143 0.636477 0
M  V30 3498 H 328.87 5.90151 1.56697 0
M  V30 3499 H 330.284 5.69076 -0.694671 0
M  V30 3500 H 328.681 5.81671 -1.47577 0
M  V30 3501 H 329.751 4.46534 -1.89038 0
M  V30 3502 N 331.094 0.475555 1.50254 0
M  V30 3503 C 332.505 0.0215174 1.86688 0
M  V30 3504 C 332.856 -1.38467 1.39001 0
M  V30 3505 O 331.981 -2.02732 0.756894 0
M  V30 3506 C 332.576 0.0322715 3.38785 0
M  V30 3507 C 331.135 -0.366314 3.74613 0
M  V30 3508 C 330.282 0.415832 2.74164 0
M  V30 3509 H 333.233 0.689612 1.42934 0
M  V30 3510 H 333.254 -0.76889 3.7265 0
M  V30 3511 H 332.766 1.05584 3.73462 0
M  V30 3512 H 330.867 -1.39406 3.45538 0
M  V30 3513 H 330.98 -0.064555 4.79057 0
M  V30 3514 H 329.344 -0.131048 2.54363 0
M  V30 3515 H 330.127 1.43899 3.11686 0
M  V30 3516 N 332.573 -1.56217 0.208337 0
M  V30 3517 C 333.984 -1.84243 -0.301904 0
M  V30 3518 C 334.335 -1.12939 -1.60434 0
M  V30 3519 O 333.46 -0.39461 -2.12772 0
M  V30 3520 C 334.055 -3.34231 -0.554543 0
M  V30 3521 C 332.614 -3.62621 -1.00912 0
M  V30 3522 C 331.761 -2.77224 -0.064933 0
M  V30 3523 H 334.712 -1.52712 0.431833 0
M  V30 3524 H 334.733 -3.5372 -1.40223 0
M  V30 3525 H 334.245 -3.86099 0.393561 0
M  V30 3526 H 332.346 -3.16197 -1.97104 0
M  V30 3527 H 332.459 -4.7071 -0.892674 0
M  V30 3528 H 330.823 -2.48256 -0.56929 0
M  V30 3529 H 331.606 -3.31887 0.877851 0
M  V30 3530 N 334.051 0.0651679 -1.57465 0
M  V30 3531 C 335.281 0.774683 -1.91526 0
M  V30 3532 C 335.689 1.71305 -0.803196 0
M  V30 3533 O 335.032 1.82231 0.231881 0
M  V30 3534 C 335.094 1.61645 -3.21109 0
M  V30 3535 C 334.758 0.846753 -4.49087 0
M  V30 3536 C 335.755 0.163024 -5.19644 0
M  V30 3537 C 333.44 0.811966 -4.95694 0
M  V30 3538 C 335.434 -0.54519 -6.35064 0
M  V30 3539 C 333.121 0.0999836 -6.11018 0
M  V30 3540 C 334.119 -0.577388 -6.80555 0
M  V30 3541 O 333.807 -1.27789 -7.93678 0
M  V30 3542 H 333.539 0.225031 -0.637446 0
M  V30 3543 H 336.093 0.0377134 -2.05365 0
M  V30 3544 H 334.323 2.39638 -3.03497 0
M  V30 3545 H 336.012 2.20525 -3.40769 0
M  V30 3546 H 336.778 0.181163 -4.84662 0
M  V30 3547 H 332.657 1.32867 -4.41438 0
M  V30 3548 H 336.201 -1.07446 -6.89276 0
M  V30 3549 H 332.098 0.0797945 -6.45451 0
M  V30 3550 H 332.866 -1.18784 -8.09835 0
M  V30 3551 N 335.529 1.53961 0.336706 0
M  V30 3552 C 336.945 1.44378 0.680241 0
M  V30 3553 C 337.145 0.606034 1.9217 0
M  V30 3554 O 336.201 0.099688 2.52303 0
M  V30 3555 C 337.514 2.87945 0.8665 0
M  V30 3556 C 339.062 2.97763 0.964682 0
M  V30 3557 C 339.537 4.42453 1.18321 0
M  V30 3558 N 341.028 4.46008 1.25025 0
M  V30 3559 C 341.763 5.55102 1.43697 0
M  V30 3560 N 341.259 6.7419 1.59498 0
M  V30 3561 N 343.052 5.42727 1.463 0
M  V30 3562 H 335.203 2.06918 -0.479455 0
M  V30 3563 H 337.466 0.935634 -0.152619 0
M  V30 3564 H 337.172 3.51691 0.0256937 0
M  V30 3565 H 337.046 3.33293 1.76623 0
M  V30 3566 H 339.433 2.34153 1.796 0
M  V30 3567 H 339.514 2.55766 0.041708 0
M  V30 3568 H 339.158 5.06645 0.356788 0
M  V30 3569 H 339.088 4.82048 2.11985 0
M  V30 3570 H 341.579 3.60196 1.14312 0
M  V30 3571 H 341.892 7.53095 1.734 0
M  V30 3572 H 340.237 6.77123 1.56621 0
M  V30 3573 H 343.428 4.48647 1.33543 0
M  V30 3574 H 343.601 6.27806 1.6051 0
M  V30 3575 N 337.007 -0.598083 1.45811 0
M  V30 3576 C 338.237 -1.38121 1.53643 0
M  V30 3577 C 338.645 -1.88425 0.171081 0
M  V30 3578 O 337.988 -1.63409 -0.839237 0
M  V30 3579 C 338.05 -2.61432 2.46766 0
M  V30 3580 C 337.714 -2.32702 3.93318 0
M  V30 3581 C 338.711 -1.92479 4.82957 0
M  V30 3582 C 336.396 -2.45321 4.38318 0
M  V30 3583 C 338.39 -1.65248 6.15607 0
M  V30 3584 C 336.077 -2.17703 5.71007 0
M  V30 3585 C 337.075 -1.7773 6.5947 0
M  V30 3586 O 336.763 -1.50441 7.89698 0
M  V30 3587 H 336.495 -0.428863 0.522544 0
M  V30 3588 H 339.049 -0.73557 1.91777 0
M  V30 3589 H 337.279 -3.28749 2.0362 0
M  V30 3590 H 338.968 -3.23487 2.45175 0
M  V30 3591 H 339.734 -1.82258 4.49452 0
M  V30 3592 H 335.613 -2.75399 3.69697 0
M  V30 3593 H 339.157 -1.33973 6.84614 0
M  V30 3594 H 335.054 -2.27544 6.04065 0
M  V30 3595 H 335.822 -1.64415 8.01817 0
M  V30 3596 N 338.485 -1.33259 -0.841409 0
M  V30 3597 C 339.901 -1.12538 -1.13169 0
M  V30 3598 C 340.101 0.0854037 -2.01319 0
M  V30 3599 O 339.157 0.766417 -2.40587 0
M  V30 3600 C 340.47 -2.41156 -1.79623 0
M  V30 3601 C 342.018 -2.47038 -1.922 0
M  V30 3602 C 342.493 -3.7561 -2.6207 0
M  V30 3603 N 343.984 -3.76667 -2.69585 0
M  V30 3604 C 344.719 -4.72861 -3.2433 0
M  V30 3605 N 344.215 -5.79428 -3.79783 0
M  V30 3606 N 346.008 -4.6034 -3.22558 0
M  V30 3607 H 338.159 -2.10868 -0.254676 0
M  V30 3608 H 340.422 -0.931615 -0.175493 0
M  V30 3609 H 340.128 -3.29747 -1.22311 0
M  V30 3610 H 340.002 -2.53114 -2.79666 0
M  V30 3611 H 342.389 -1.58898 -2.48667 0
M  V30 3612 H 342.47 -2.39022 -0.911148 0
M  V30 3613 H 342.114 -4.64131 -2.06263 0
M  V30 3614 H 342.044 -3.80902 -3.63622 0
M  V30 3615 H 344.535 -2.99648 -2.30259 0
M  V30 3616 H 344.848 -6.48867 -4.19752 0
M  V30 3617 H 343.193 -5.83166 -3.78078 0
M  V30 3618 H 346.384 -3.76244 -2.78492 0
M  V30 3619 H 346.557 -5.35478 -3.64921 0
M  V30 3620 N 339.963 1.05934 -1.16686 0
M  V30 3621 C 341.21 1.788 -0.950622 0
M  V30 3622 C 341.538 1.87384 0.521305 0
M  V30 3623 O 340.793 1.36438 1.40297 0
M  V30 3624 C 341.092 3.23105 -1.52767 0
M  V30 3625 C 340.758 3.34594 -3.02254 0
M  V30 3626 C 339.42 3.37437 -3.43059 0
M  V30 3627 C 341.772 3.36219 -3.98254 0
M  V30 3628 C 339.1 3.39525 -4.78477 0
M  V30 3629 C 341.452 3.39845 -5.33562 0
M  V30 3630 C 340.116 3.40971 -5.73842 0
M  V30 3631 H 339.386 0.654275 -0.347857 0
M  V30 3632 H 342.033 1.24555 -1.45459 0
M  V30 3633 H 340.338 3.80227 -0.94524 0
M  V30 3634 H 342.035 3.7809 -1.336 0
M  V30 3635 H 338.625 3.3309 -2.6972 0
M  V30 3636 H 342.809 3.33231 -3.67792 0
M  V30 3637 H 338.065 3.38703 -5.09009 0
M  V30 3638 H 342.239 3.4005 -6.07733 0
M  V30 3639 H 339.866 3.42342 -6.78753 0
M  V30 3640 N 341.441 0.965919 1.2453 0
M  V30 3641 C 342.857 0.67216 1.44756 0
M  V30 3642 C 343.057 -0.766609 1.86347 0
M  V30 3643 O 342.113 -1.5407 2.00047 0
M  V30 3644 C 343.426 1.65473 2.51076 0
M  V30 3645 C 344.974 1.66716 2.64905 0
M  V30 3646 C 345.449 2.63766 3.74421 0
M  V30 3647 N 346.94 2.62198 3.81846 0
M  V30 3648 C 347.675 3.33966 4.66106 0
M  V30 3649 N 347.171 4.15245 5.54566 0
M  V30 3650 N 348.964 3.22799 4.60171 0
M  V30 3651 H 341.115 1.89553 0.958293 0
M  V30 3652 H 343.378 0.815979 0.482579 0
M  V30 3653 H 343.084 2.68296 2.27399 0
M  V30 3654 H 342.958 1.4261 3.49202 0
M  V30 3655 H 345.345 0.646057 2.87941 0
M  V30 3656 H 345.426 1.93642 1.67142 0
M  V30 3657 H 345.07 3.6601 3.52135 0
M  V30 3658 H 345 2.34121 4.71694 0
M  V30 3659 H 347.491 2.032 3.18619 0
M  V30 3660 H 347.804 4.66898 6.15814 0
M  V30 3661 H 346.149 4.1934 5.54237 0
M  V30 3662 H 349.34 2.58764 3.90075 0
M  V30 3663 H 349.513 3.78994 5.25612 0
M  V30 3664 N 342.919 -1.39368 0.735821 0
M  V30 3665 C 344.335 -1.54204 0.411492 0
M  V30 3666 C 344.535 -1.70268 -1.07755 0
M  V30 3667 O 343.591 -1.70364 -1.86366 0
M  V30 3668 C 344.904 -2.75925 1.19523 0
M  V30 3669 C 346.452 -2.89761 1.18354 0
M  V30 3670 C 346.927 -4.14421 1.94986 0
M  V30 3671 N 348.418 -4.21462 1.92156 0
M  V30 3672 C 349.153 -5.16871 2.48258 0
M  V30 3673 N 348.649 -6.18063 3.13001 0
M  V30 3674 N 350.442 -5.09093 2.38287 0
M  V30 3675 H 342.593 -1.27189 1.70108 0
M  V30 3676 H 344.856 -0.616517 0.720147 0
M  V30 3677 H 344.562 -2.70401 2.24892 0
M  V30 3678 H 344.436 -3.68614 0.800222 0
M  V30 3679 H 346.823 -2.94777 0.137975 0
M  V30 3680 H 346.904 -1.98133 1.61793 0
M  V30 3681 H 346.548 -4.10166 2.99543 0
M  V30 3682 H 346.478 -5.05095 1.48953 0
M  V30 3683 H 348.969 -3.48979 1.44991 0
M  V30 3684 H 349.282 -6.87326 3.53275 0
M  V30 3685 H 347.627 -6.18448 3.17091 0
M  V30 3686 H 350.818 -4.28973 1.8735 0
M  V30 3687 H 350.991 -5.83272 2.82308 0
M  V30 3688 N 344.397 -0.483516 -1.5 0
M  V30 3689 C 345.813 -0.138404 -1.58999 0
M  V30 3690 C 346.013 1.35597 -1.4905 0
M  V30 3691 O 345.069 2.13039 -1.35539 0
M  V30 3692 C 346.382 -0.699658 -2.92447 0
M  V30 3693 C 347.93 -0.664195 -3.05872 0
M  V30 3694 C 348.405 -1.20321 -4.41913 0
M  V30 3695 N 349.896 -1.16315 -4.48358 0
M  V30 3696 C 350.631 -1.55058 -5.52037 0
M  V30 3697 N 350.127 -2.01311 -6.62907 0
M  V30 3698 N 351.92 -1.46584 -5.42651 0
M  V30 3699 H 344.071 -1.45529 -1.5471 0
M  V30 3700 H 346.334 -0.60258 -0.731848 0
M  V30 3701 H 346.04 -1.747 -3.05242 0
M  V30 3702 H 345.914 -0.150194 -3.76901 0
M  V30 3703 H 348.301 0.374272 -2.92717 0
M  V30 3704 H 348.382 -1.25061 -2.23144 0
M  V30 3705 H 348.026 -2.24037 -4.55818 0
M  V30 3706 H 347.956 -0.592896 -5.23252 0
M  V30 3707 H 350.447 -0.824058 -3.68806 0
M  V30 3708 H 350.76 -2.2899 -7.38095 0
M  V30 3709 H 349.105 -2.05273 -6.63994 0
M  V30 3710 H 352.296 -1.10281 -4.54924 0
M  V30 3711 H 352.469 -1.77103 -6.23329 0
M  V30 3712 N 345.875 1.56104 -0.216619 0
M  V30 3713 C 347.1 2.0301 0.424462 0
M  V30 3714 C 347.525 1.0955 1.52907 0
M  V30 3715 O 346.883 0.0827914 1.81111 0
M  V30 3716 C 346.931 3.4819 0.937883 0
M  V30 3717 O 346.035 3.57865 2.04955 0
M  V30 3718 H 345.376 0.656925 0.0966755 0
M  V30 3719 H 347.906 2.01859 -0.33381 0
M  V30 3720 H 347.916 3.88413 1.24897 0
M  V30 3721 H 346.591 4.15699 0.129387 0
M  V30 3722 H 345.168 3.29527 1.74546 0
M  V30 3723 N 347.353 -0.0568162 1.57498 0
M  V30 3724 C 348.578 -0.769402 1.92601 0
M  V30 3725 C 349.003 -1.69559 0.814336 0
M  V30 3726 O 348.361 -1.79811 -0.231903 0
M  V30 3727 C 348.409 -1.52634 3.26704 0
M  V30 3728 O 347.513 -2.63797 3.16994 0
M  V30 3729 H 346.854 -0.208909 0.63028 0
M  V30 3730 H 349.384 -0.0205798 2.0459 0
M  V30 3731 H 349.394 -1.90234 3.60936 0
M  V30 3732 H 348.069 -0.846875 4.07186 0
M  V30 3733 H 346.646 -2.28943 2.94346 0
M  V30 3734 N 348.832 -1.54138 -0.328536 0
M  V30 3735 C 350.057 -1.76378 -1.09112 0
M  V30 3736 C 350.482 -0.508596 -1.81094 0
M  V30 3737 O 349.84 0.539598 -1.73084 0
M  V30 3738 C 349.888 -2.95358 -2.06872 0
M  V30 3739 O 348.992 -2.66556 -3.14677 0
M  V30 3740 H 348.333 -0.584614 -0.314838 0
M  V30 3741 H 350.863 -2.01146 -0.374348 0
M  V30 3742 H 350.873 -3.22566 -2.4983 0
M  V30 3743 H 349.548 -3.86385 -1.5388 0
M  V30 3744 H 348.125 -2.50282 -2.7643 0
M  V30 3745 N 350.31 0.590341 -1.46126 0
M  V30 3746 C 351.726 0.912917 -1.30912 0
M  V30 3747 C 351.926 1.99616 -0.274893 0
M  V30 3748 O 350.982 2.50397 0.325197 0
M  V30 3749 C 352.295 1.3375 -2.69317 0
M  V30 3750 C 353.843 1.45077 -2.77348 0
M  V30 3751 C 354.318 1.90904 -4.16317 0
M  V30 3752 N 355.809 1.9811 -4.18696 0
M  V30 3753 C 356.544 2.34828 -5.23109 0
M  V30 3754 N 356.04 2.70393 -6.37856 0
M  V30 3755 N 357.833 2.35317 -5.10473 0
M  V30 3756 H 349.984 -0.125358 -2.1203 0
M  V30 3757 H 352.247 0.00658481 -0.947977 0
M  V30 3758 H 351.953 0.615614 -3.4627 0
M  V30 3759 H 351.827 2.30058 -2.9892 0
M  V30 3760 H 354.214 2.16353 -2.00687 0
M  V30 3761 H 354.295 0.4704 -2.51438 0
M  V30 3762 H 353.939 1.20209 -4.9347 0
M  V30 3763 H 353.869 2.89886 -4.39629 0
M  V30 3764 H 356.36 1.73146 -3.359 0
M  V30 3765 H 356.673 2.97341 -7.13308 0
M  V30 3766 H 355.018 2.68048 -6.41229 0
M  V30 3767 H 358.209 2.0695 -4.19868 0
M  V30 3768 H 358.382 2.63605 -5.9196 0
M  V30 3769 N 351.788 1.33704 0.83433 0
M  V30 3770 C 353.013 1.28615 1.62705 0
M  V30 3771 C 353.438 -0.139242 1.87584 0
M  V30 3772 O 352.796 -1.09734 1.4432 0
M  V30 3773 C 352.844 2.07139 2.95171 0
M  V30 3774 O 351.948 1.4331 3.86699 0
M  V30 3775 H 351.289 0.44226 0.49528 0
M  V30 3776 H 353.819 1.76335 1.03766 0
M  V30 3777 H 353.829 2.18073 3.44831 0
M  V30 3778 H 352.504 3.10779 2.76386 0
M  V30 3779 H 351.081 1.4105 3.45195 0
M  V30 3780 N 353.266 -1.05314 1.17247 0
M  V30 3781 C 354.494 -1.81971 0.984593 0
M  V30 3782 C 354.909 -1.82929 -0.467166 0
M  V30 3783 O 354.266 -1.25564 -1.32438 0
M  V30 3784 C 354.317 -3.28143 1.51672 0
M  V30 3785 O 354.038 -3.27347 2.91163 0
M  V30 3786 C 355.539 -4.21493 1.37326 0
M  V30 3787 H 352.759 -0.573455 0.348411 0
M  V30 3788 H 355.303 -1.32808 1.55506 0
M  V30 3789 H 353.458 -3.74582 0.988302 0
M  V30 3790 H 353.872 -4.18824 3.15732 0
M  V30 3791 H 355.346 -5.22043 1.79375 0
M  V30 3792 H 355.823 -4.38031 0.320169 0
M  V30 3793 H 356.429 -3.80909 1.89178 0
M  V30 3794 N 354.744 -0.972509 -1.24016 0
M  V30 3795 C 355.654 -0.5143 -2.28893 0
M  V30 3796 C 356.67 0.427078 -1.68677 0
M  V30 3797 O 357.846 0.298939 -1.99169 0
M  V30 3798 C 354.911 0.183598 -3.46214 0
M  V30 3799 C 353.972 -0.798202 -4.21814 0
M  V30 3800 C 353.205 -0.133514 -5.33533 0
M  V30 3801 O 353.428 1.07714 -5.60137 0
M  V30 3802 O 352.362 -0.828103 -5.96176 0
M  V30 3803 H 356.188 -1.38629 -2.70214 0
M  V30 3804 H 353.773 -0.739769 -1.29799 0
M  V30 3805 H 355.655 0.575433 -4.17453 0
M  V30 3806 H 354.33 1.03048 -3.0686 0
M  V30 3807 H 353.237 -1.24059 -3.52931 0
M  V30 3808 H 354.57 -1.61364 -4.64997 0
M  V30 3809 N 356.222 1.38976 -0.743202 0
M  V30 3810 C 357.633 1.83123 -0.363732 0
M  V30 3811 C 357.984 1.6205 1.10609 0
M  V30 3812 O 357.109 1.11606 1.854 0
M  V30 3813 C 357.704 3.32439 -0.653408 0
M  V30 3814 C 356.263 3.74974 -0.327338 0
M  V30 3815 C 355.41 2.61878 -0.911875 0
M  V30 3816 H 358.361 1.27852 -0.940191 0
M  V30 3817 H 358.382 3.80432 0.0720031 0
M  V30 3818 H 357.894 3.47745 -1.72323 0
M  V30 3819 H 355.995 3.65252 0.736314 0
M  V30 3820 H 356.108 4.72106 -0.815631 0
M  V30 3821 H 354.472 2.52448 -0.337944 0
M  V30 3822 H 355.255 2.79987 -1.98651 0
M  V30 3823 N 357.7 0.491464 1.49741 0
M  V30 3824 C 359.116 0.146835 1.58923 0
M  V30 3825 C 359.316 -1.34804 1.49767 0
M  V30 3826 O 358.372 -2.12317 1.36667 0
M  V30 3827 C 359.685 0.715157 2.92072 0
M  V30 3828 C 361.233 0.680407 3.05515 0
M  V30 3829 C 361.708 1.22663 4.41269 0
M  V30 3830 N 363.199 1.18691 4.47735 0
M  V30 3831 C 363.934 1.57984 5.51207 0
M  V30 3832 N 363.43 2.04824 6.6183 0
M  V30 3833 N 365.223 1.49459 5.41866 0
M  V30 3834 H 357.374 1.46347 1.53936 0
M  V30 3835 H 359.637 0.606453 0.728642 0
M  V30 3836 H 359.343 1.76317 3.04311 0
M  V30 3837 H 359.217 0.17018 3.76816 0
M  V30 3838 H 361.604 -0.358743 2.92911 0
M  V30 3839 H 361.685 1.26242 2.22478 0
M  V30 3840 H 361.329 2.26451 4.54623 0
M  V30 3841 H 361.259 0.620637 5.2293 0
M  V30 3842 H 363.75 0.843605 3.68364 0
M  V30 3843 H 364.063 2.32901 7.3687 0
M  V30 3844 H 362.408 2.08791 6.62896 0
M  V30 3845 H 365.599 1.12692 4.54333 0
M  V30 3846 H 365.772 1.80406 6.22381 0
M  V30 3847 N 359.178 -1.55987 0.224894 0
M  V30 3848 C 360.403 -2.03232 -0.41369 0
M  V30 3849 C 360.828 -1.10359 -1.52323 0
M  V30 3850 O 360.186 -0.092395 -1.81064 0
M  V30 3851 C 360.234 -3.48682 -0.919405 0
M  V30 3852 O 359.338 -3.58947 -2.03054 0
M  V30 3853 H 358.679 -0.657428 -0.0931903 0
M  V30 3854 H 361.209 -2.01679 0.34451 0
M  V30 3855 H 361.219 -3.8907 -1.22835 0
M  V30 3856 H 359.894 -4.15761 -0.107339 0
M  V30 3857 H 358.471 -3.30448 -1.72796 0
M  V30 3858 N 360.656 0.0484629 -1.57525 0
M  V30 3859 C 362.072 0.40375 -1.54409 0
M  V30 3860 C 362.272 1.77786 -0.948384 0
M  V30 3861 O 361.328 2.46189 -0.560983 0
M  V30 3862 C 362.641 0.323394 -2.98956 0
M  V30 3863 C 364.189 0.401892 -3.10409 0
M  V30 3864 C 364.664 0.351195 -4.56652 0
M  V30 3865 N 366.155 0.410576 -4.61377 0
M  V30 3866 C 366.89 0.393933 -5.72045 0
M  V30 3867 N 366.386 0.330724 -6.9201 0
M  V30 3868 N 368.179 0.442227 -5.60358 0
M  V30 3869 H 360.33 -0.851016 -1.94606 0
M  V30 3870 H 362.593 -0.321721 -0.89174 0
M  V30 3871 H 362.299 -0.62011 -3.4619 0
M  V30 3872 H 362.173 1.12463 -3.60044 0
M  V30 3873 H 364.56 1.33582 -2.63134 0
M  V30 3874 H 364.641 -0.428342 -2.52188 0
M  V30 3875 H 364.285 -0.578987 -5.04589 0
M  V30 3876 H 364.215 1.19928 -5.12762 0
M  V30 3877 H 366.706 0.462729 -3.75056 0
M  V30 3878 H 367.019 0.322592 -7.72126 0
M  V30 3879 H 365.364 0.29706 -6.94365 0
M  V30 3880 H 368.555 0.489464 -4.65534 0
M  V30 3881 H 368.728 0.425788 -6.466 0
M  V30 3882 N 362.134 1.5431 0.320358 0
M  V30 3883 C 363.411 1.63322 1.07635 0
M  V30 3884 C 363.791 0.46912 2.05821 0
M  V30 3885 O 363.139 -0.536274 2.22118 0
M  V30 3886 C 363.349 3.00465 1.77544 0
M  V30 3887 C 364.697 3.56621 2.30449 0
M  V30 3888 O 365.721 3.02791 1.87606 0
M  V30 3889 O 364.58 4.5083 3.08892 0
M  V30 3890 H 361.674 0.661502 0.496331 0
M  V30 3891 H 364.22 1.66656 0.319992 0
M  V30 3892 H 362.992 3.76629 1.06143 0
M  V30 3893 H 362.615 3.00824 2.59982 0
M  V30 3894 N 363.613 -0.582584 1.46437 0
M  V30 3895 C 364.543 -1.70187 1.59871 0
M  V30 3896 C 365.524 -1.64066 0.449042 0
M  V30 3897 O 366.709 -1.82081 0.6753 0
M  V30 3898 C 363.839 -3.08827 1.58881 0
M  V30 3899 C 362.793 -3.29779 2.72819 0
M  V30 3900 C 362.119 -4.68947 2.5689 0
M  V30 3901 C 363.419 -3.17601 4.1464 0
M  V30 3902 H 365.113 -1.592 2.53566 0
M  V30 3903 H 362.659 -0.764472 1.22032 0
M  V30 3904 H 364.612 -3.86951 1.66873 0
M  V30 3905 H 363.336 -3.20713 0.617306 0
M  V30 3906 H 361.995 -2.54054 2.64296 0
M  V30 3907 H 361.643 -4.77599 1.57823 0
M  V30 3908 H 361.343 -4.83919 3.33312 0
M  V30 3909 H 362.867 -5.4924 2.66773 0
M  V30 3910 H 364.281 -3.8557 4.24274 0
M  V30 3911 H 362.678 -3.44094 4.9165 0
M  V30 3912 H 363.748 -2.14681 4.34788 0
M  V30 3913 N 365.091 -1.34144 -0.827227 0
M  V30 3914 C 366.316 -1.29476 -1.62021 0
M  V30 3915 C 366.741 0.129292 -1.87655 0
M  V30 3916 O 366.099 1.08967 -1.449 0
M  V30 3917 C 366.147 -2.08702 -2.94068 0
M  V30 3918 O 365.251 -1.45359 -3.85933 0
M  V30 3919 H 364.592 -0.444881 -0.492927 0
M  V30 3920 H 367.122 -1.76882 -1.02829 0
M  V30 3921 H 367.132 -2.19898 -3.43669 0
M  V30 3922 H 365.807 -3.12241 -2.74734 0
M  V30 3923 H 364.384 -1.42879 -3.44442 0
M  V30 3924 N 366.569 1.04691 -1.17803 0
M  V30 3925 C 367.98 1.59238 -0.974689 0
M  V30 3926 C 368.331 1.90306 0.477292 0
M  V30 3927 O 367.456 1.68846 1.35352 0
M  V30 3928 C 368.051 2.89318 -1.76296 0
M  V30 3929 C 366.61 3.40506 -1.60414 0
M  V30 3930 C 365.757 2.14172 -1.76141 0
M  V30 3931 H 368.708 0.874395 -1.32439 0
M  V30 3932 H 368.729 3.5944 -1.24833 0
M  V30 3933 H 368.241 2.66675 -2.81968 0
M  V30 3934 H 366.342 3.68175 -0.572519 0
M  V30 3935 H 366.455 4.14753 -2.39827 0
M  V30 3936 H 364.819 2.25176 -1.19028 0
M  V30 3937 H 365.602 1.93992 -2.83235 0
M  V30 3938 N 368.047 0.979072 1.23499 0
M  V30 3939 C 369.296 0.642751 1.91185 0
M  V30 3940 C 369.609 -0.827253 1.77245 0
M  V30 3941 O 370.815 -1.27458 2.39722 0
M  V30 3942 C 369.271 1.09901 3.42709 0
M  V30 3943 C 368.879 2.59327 3.65313 0
M  V30 3944 C 370.623 0.836371 4.16179 0
M  V30 3945 C 368.53 2.98627 5.10467 0
M  V30 3946 H 367.46 0.236698 0.715884 0
M  V30 3947 H 370.111 1.1868 1.39955 0
M  V30 3948 H 368.493 0.48319 3.93041 0
M  V30 3949 H 369.667 3.26136 3.25533 0
M  V30 3950 H 367.982 2.83323 3.05151 0
M  V30 3951 H 370.579 1.10586 5.23139 0
M  V30 3952 H 370.922 -0.227509 4.15678 0
M  V30 3953 H 371.455 1.41371 3.71832 0
M  V30 3954 H 368.194 4.04133 5.16098 0
M  V30 3955 H 367.714 2.3651 5.51201 0
M  V30 3956 H 369.393 2.89159 5.78788 0
M  V30 3957 N 369.525 -1.3858 0.750561 0
M  V30 3958 C 370.75 -2.04997 0.314812 0
M  V30 3959 C 371.175 -1.56235 -1.04749 0
M  V30 3960 O 370.533 -0.712981 -1.66692 0
M  V30 3961 C 370.581 -3.58961 0.343415 0
M  V30 3962 O 369.685 -4.07025 -0.663628 0
M  V30 3963 H 369.026 -0.649081 0.139962 0
M  V30 3964 H 371.556 -1.77313 1.02084 0
M  V30 3965 H 371.566 -4.07542 0.193233 0
M  V30 3966 H 370.241 -3.93811 1.33738 0
M  V30 3967 H 368.818 -3.6982 -0.478307 0
M  V30 3968 N 371.003 -0.499398 -1.49478 0
M  V30 3969 C 371.95 0.279881 -2.29097 0
M  V30 3970 C 372.92 0.961805 -1.3542 0
M  V30 3971 O 374.105 0.968777 -1.64376 0
M  V30 3972 C 371.245 1.33932 -3.18051 0
M  V30 3973 C 370.358 0.669333 -4.26783 0
M  V30 3974 C 369.493 1.70907 -5.02955 0
M  V30 3975 C 368.532 1.02087 -6.03527 0
M  V30 3976 N 367.669 2.00474 -6.7287 0
M  V30 3977 H 372.509 -0.405317 -2.95231 0
M  V30 3978 H 370.046 -0.211726 -1.45568 0
M  V30 3979 H 372.004 1.96553 -3.67998 0
M  V30 3980 H 370.634 1.9933 -2.53904 0
M  V30 3981 H 369.686 -0.0701234 -3.80335 0
M  V30 3982 H 370.998 0.127503 -4.98637 0
M  V30 3983 H 370.152 2.41037 -5.56764 0
M  V30 3984 H 368.891 2.28476 -4.30871 0
M  V30 3985 H 367.896 0.305338 -5.48951 0
M  V30 3986 H 369.121 0.451708 -6.77596 0
M  V30 3987 H 367.067 2.57007 -6.03559 0
M  V30 3988 H 366.984 1.51353 -7.40694 0
M  V30 3989 H 368.252 2.69897 -7.31284 0
M  V30 3990 N 372.481 1.55866 -0.233164 0
M  V30 3991 C 373.729 1.9821 0.394593 0
M  V30 3992 C 374.05 1.12234 1.59463 0
M  V30 3993 O 373.32 0.201981 1.94856 0
M  V30 3994 H 371.9 0.732034 0.148778 0
M  V30 3995 H 374.562 1.92107 -0.32876 0
M  V30 3996 H 373.658 3.03845 0.713063 0
M  V30 3997 N 373.959 -0.0401083 1.57549 0
M  V30 3998 C 375.206 -0.733125 1.88763 0
M  V30 3999 C 375.534 -1.75946 0.829058 0
M  V30 4000 O 374.789 -1.94949 -0.171323 0
M  V30 4001 C 375.088 -1.44902 3.26708 0
M  V30 4002 C 374.754 -0.559707 4.47413 0
M  V30 4003 C 373.416 -0.314731 4.8017 0
M  V30 4004 C 375.768 0.0549743 5.21171 0
M  V30 4005 C 373.096 0.553886 5.8408 0
M  V30 4006 C 375.448 0.911229 6.26003 0
M  V30 4007 C 374.112 1.16577 6.57241 0
M  V30 4008 H 373.382 -0.268269 0.690733 0
M  V30 4009 H 376.029 0.00679408 1.91499 0
M  V30 4010 H 374.334 -2.26197 3.1991 0
M  V30 4011 H 376.031 -1.99058 3.48105 0
M  V30 4012 H 372.621 -0.760793 4.21794 0
M  V30 4013 H 376.805 -0.121344 4.96152 0
M  V30 4014 H 372.061 0.759518 6.06664 0
M  V30 4015 H 376.235 1.3941 6.82303 0
M  V30 4016 H 373.862 1.84058 7.37582 0
M  V30 4017 N 375.437 -1.54477 -0.31217 0
M  V30 4018 C 376.387 -1.81037 -1.38598 0
M  V30 4019 C 377.371 -0.666941 -1.46426 0
M  V30 4020 O 378.563 -0.927269 -1.50767 0
M  V30 4021 C 375.692 -2.05127 -2.75277 0
M  V30 4022 C 374.778 -3.25624 -2.71716 0
M  V30 4023 N 375.169 -4.46428 -2.37773 0
M  V30 4024 C 373.467 -3.27427 -3.02833 0
M  V30 4025 C 374.168 -5.28406 -2.43232 0
M  V30 4026 N 373.144 -4.6586 -2.80135 0
M  V30 4027 H 376.946 -2.7201 -1.11301 0
M  V30 4028 H 374.46 -1.53826 -0.520705 0
M  V30 4029 H 376.457 -2.22299 -3.52688 0
M  V30 4030 H 375.117 -1.15416 -3.03495 0
M  V30 4031 H 376.128 -4.73227 -2.1042 0
M  V30 4032 H 372.805 -2.47786 -3.36018 0
M  V30 4033 H 374.195 -6.34903 -2.19882 0
M  V30 4034 N 376.915 0.57481 -1.46744 0
M  V30 4035 C 378.143 1.35856 -1.56047 0
M  V30 4036 C 378.558 1.87691 -0.204365 0
M  V30 4037 O 377.915 1.64049 0.79963 0
M  V30 4038 C 377.966 2.54066 -2.57163 0
M  V30 4039 O 377.687 2.04377 -3.87507 0
M  V30 4040 C 379.188 3.46514 -2.76483 0
M  V30 4041 H 376.408 0.414754 -0.527466 0
M  V30 4042 H 378.952 0.698035 -1.92218 0
M  V30 4043 H 377.107 3.16092 -2.23974 0
M  V30 4044 H 377.521 2.81419 -4.4261 0
M  V30 4045 H 378.995 4.25919 -3.51137 0
M  V30 4046 H 379.472 3.98951 -1.83671 0
M  V30 4047 H 380.078 2.90318 -3.10799 0
M  V30 4048 N 378.394 1.34581 0.820102 0
M  V30 4049 C 379.643 1.26437 1.57151 0
M  V30 4050 C 379.956 -0.163111 1.94919 0
M  V30 4051 O 381.162 -0.366722 2.69012 0
M  V30 4052 C 379.618 2.21658 2.83541 0
M  V30 4053 C 379.226 3.69679 2.53065 0
M  V30 4054 C 380.97 2.22428 3.61561 0
M  V30 4055 C 378.877 4.56761 3.75664 0
M  V30 4056 H 377.807 0.469707 0.589823 0
M  V30 4057 H 380.458 1.59763 0.902656 0
M  V30 4058 H 378.84 1.81287 3.52067 0
M  V30 4059 H 380.014 4.18605 1.92631 0
M  V30 4060 H 378.329 3.71384 1.88316 0
M  V30 4061 H 380.926 2.8471 4.52597 0
M  V30 4062 H 381.269 1.22434 3.97889 0
M  V30 4063 H 381.802 2.61259 2.99981 0
M  V30 4064 H 378.541 5.57702 3.44454 0
M  V30 4065 H 378.061 4.12568 4.35371 0
M  V30 4066 H 379.74 4.71509 4.43044 0
M  V30 4067 N 379.872 -1.04064 1.18357 0
M  V30 4068 C 381.283 -1.58719 0.98312 0
M  V30 4069 C 381.634 -1.90556 -0.467193 0
M  V30 4070 O 380.759 -1.69561 -1.34454 0
M  V30 4071 C 381.354 -2.88379 1.77828 0
M  V30 4072 C 379.913 -3.3965 1.62218 0
M  V30 4073 C 379.06 -2.13235 1.77274 0
M  V30 4074 H 382.011 -0.867359 1.32901 0
M  V30 4075 H 382.032 -3.58773 1.26737 0
M  V30 4076 H 381.544 -2.65176 2.83379 0
M  V30 4077 H 379.645 -3.67866 0.592036 0
M  V30 4078 H 379.758 -4.13475 2.42023 0
M  V30 4079 H 378.122 -2.24542 1.20221 0
M  V30 4080 H 378.905 -1.92487 2.8426 0
M  V30 4081 N 381.35 -0.985608 -1.22978 0
M  V30 4082 C 382.575 -0.675254 -1.961 0
M  V30 4083 C 383 0.752154 -1.72407 0
M  V30 4084 O 382.358 1.5131 -0.998751 0
M  V30 4085 C 382.406 -0.977899 -3.47087 0
M  V30 4086 O 381.51 -0.072685 -4.12336 0
M  V30 4087 H 380.851 -0.253443 -0.613728 0
M  V30 4088 H 383.381 -1.32061 -1.56272 0
M  V30 4089 H 383.391 -0.916739 -3.97567 0
M  V30 4090 H 382.066 -2.01807 -3.63657 0
M  V30 4091 H 380.643 -0.188703 -3.72422 0
M  V30 4092 N 382.828 1.3818 -0.7579 0
M  V30 4093 C 384.056 2.04301 -0.326937 0
M  V30 4094 C 384.471 1.57163 1.0462 0
M  V30 4095 O 383.828 0.746626 1.66529 0
M  V30 4096 C 383.879 3.59846 -0.345363 0
M  V30 4097 O 383.6 4.05256 -1.66432 0
M  V30 4098 C 385.101 4.4319 0.098927 0
M  V30 4099 H 382.321 0.656443 -0.139012 0
M  V30 4100 H 384.865 1.76786 -1.02796 0
M  V30 4101 H 383.02 3.86182 0.306955 0
M  V30 4102 H 383.434 4.99709 -1.59345 0
M  V30 4103 H 384.908 5.51989 0.0348745 0
M  V30 4104 H 385.385 4.23947 1.14741 0
M  V30 4105 H 385.991 4.22051 -0.52468 0
M  V30 4106 N 384.306 0.507319 1.49211 0
M  V30 4107 C 385.583 -0.0982702 1.95353 0
M  V30 4108 C 385.963 -1.53516 1.449 0
M  V30 4109 O 385.311 -2.18594 0.66551 0
M  V30 4110 C 385.521 -0.00440283 3.49 0
M  V30 4111 C 386.869 -0.175147 4.24239 0
M  V30 4112 O 387.893 -0.0792891 3.56112 0
M  V30 4113 O 386.752 -0.37276 5.45227 0
M  V30 4114 H 383.846 -0.0918236 0.821887 0
M  V30 4115 H 386.392 0.570307 1.5983 0
M  V30 4116 H 385.164 0.997402 3.78375 0
M  V30 4117 H 384.787 -0.712845 3.91158 0
M  V30 4118 N 385.784 -1.5574 0.241426 0
M  V30 4119 C 387.033 -1.97986 -0.385295 0
M  V30 4120 C 387.346 -1.13267 -1.59468 0
M  V30 4121 O 388.552 -1.45501 -2.2922 0
M  V30 4122 C 387.008 -3.52275 -0.736884 0
M  V30 4123 C 386.616 -4.45726 0.450796 0
M  V30 4124 C 388.36 -4.03189 -1.3281 0
M  V30 4125 C 386.267 -5.91352 0.0756662 0
M  V30 4126 H 385.197 -0.739386 -0.147731 0
M  V30 4127 H 387.848 -1.80308 0.340779 0
M  V30 4128 H 386.23 -3.65628 -1.52094 0
M  V30 4129 H 387.404 -4.44131 1.22819 0
M  V30 4130 H 385.719 -4.05264 0.956573 0
M  V30 4131 H 388.316 -5.09505 -1.62201 0
M  V30 4132 H 388.659 -3.50212 -2.25071 0
M  V30 4133 H 389.192 -3.93141 -0.607069 0
M  V30 4134 H 385.931 -6.48354 0.965272 0
M  V30 4135 H 385.451 -5.96095 -0.665635 0
M  V30 4136 H 387.13 -6.46084 -0.344075 0
M  V30 4137 N 387.262 0.0317525 -1.57568 0
M  V30 4138 C 388.487 0.738664 -1.938 0
M  V30 4139 C 388.912 1.68242 -0.841208 0
M  V30 4140 O 388.27 1.80157 0.203267 0
M  V30 4141 C 388.318 1.47417 -3.29091 0
M  V30 4142 O 387.422 2.5872 -3.2115 0
M  V30 4143 H 386.763 0.198856 -0.633524 0
M  V30 4144 H 389.293 -0.0119713 -2.04596 0
M  V30 4145 H 389.303 1.84468 -3.63917 0
M  V30 4146 H 387.978 0.781988 -4.08482 0
M  V30 4147 H 386.555 2.24231 -2.97951 0
M  V30 4148 N 388.74 1.54641 0.303973 0
M  V30 4149 C 389.673 1.80263 1.3993 0
M  V30 4150 C 390.651 0.653657 1.48883 0
M  V30 4151 O 391.835 0.893284 1.6599 0
M  V30 4152 C 388.962 1.9367 2.77866 0
M  V30 4153 C 388.008 3.16078 2.86351 0
M  V30 4154 S 388.841 4.74219 2.4875 0
M  V30 4155 C 389.997 4.90558 3.88721 0
M  V30 4156 H 390.23 2.72886 1.17986 0
M  V30 4157 H 387.763 1.46014 0.501918 0
M  V30 4158 H 389.721 2.0208 3.57315 0
M  V30 4159 H 388.382 1.01991 2.9708 0
M  V30 4160 H 387.575 3.22252 3.87517 0
M  V30 4161 H 387.177 3.06099 2.14893 0
M  V30 4162 H 389.469 4.74398 4.83687 0
M  V30 4163 H 390.412 5.92651 3.87518 0
M  V30 4164 H 390.82 4.18728 3.78585 0
M  V30 4165 N 390.218 -0.567019 1.47046 0
M  V30 4166 C 391.465 -1.32462 1.53167 0
M  V30 4167 C 391.793 -1.93571 0.189841 0
M  V30 4168 O 391.048 -1.77865 -0.816243 0
M  V30 4169 C 391.347 -2.4623 2.59047 0
M  V30 4170 C 391.013 -2.03014 4.02612 0
M  V30 4171 C 389.675 -1.90944 4.41694 0
M  V30 4172 C 392.027 -1.69895 4.92732 0
M  V30 4173 C 389.355 -1.44035 5.68745 0
M  V30 4174 C 391.707 -1.2446 6.20236 0
M  V30 4175 C 390.371 -1.10979 6.5821 0
M  V30 4176 H 389.641 -0.484713 0.560477 0
M  V30 4177 H 392.288 -0.636888 1.80599 0
M  V30 4178 H 390.593 -3.20517 2.25335 0
M  V30 4179 H 392.29 -3.04427 2.61008 0
M  V30 4180 H 388.88 -2.13348 3.71726 0
M  V30 4181 H 393.064 -1.78098 4.63244 0
M  V30 4182 H 388.32 -1.32254 5.96925 0
M  V30 4183 H 392.494 -0.978924 6.89485 0
M  V30 4184 H 390.121 -0.744078 7.5655 0
M  V30 4185 N 391.696 -1.35014 -0.812953 0
M  V30 4186 C 392.924 -1.31031 -1.6012 0
M  V30 4187 C 393.339 0.113558 -1.88458 0
M  V30 4188 O 392.696 1.06363 -1.48301 0
M  V30 4189 C 392.747 -2.10872 -2.93624 0
M  V30 4190 O 392.468 -3.47706 -2.66518 0
M  V30 4191 C 393.969 -2.14401 -3.88004 0
M  V30 4192 H 391.189 -0.45037 -0.497401 0
M  V30 4193 H 393.733 -1.77775 -1.01076 0
M  V30 4194 H 391.888 -1.67744 -3.492 0
M  V30 4195 H 392.302 -3.89097 -3.51715 0
M  V30 4196 H 393.776 -2.74669 -4.78812 0
M  V30 4197 H 394.253 -1.14105 -4.24119 0
M  V30 4198 H 394.859 -2.57662 -3.38364 0
M  V30 4199 N 393.175 1.03435 -1.18907 0
M  V30 4200 C 394.105 2.13503 -0.945448 0
M  V30 4201 C 395.086 1.69682 0.119189 0
M  V30 4202 O 396.271 1.94169 -0.034707 0
M  V30 4203 C 393.401 3.44004 -0.477316 0
M  V30 4204 C 392.355 4.0148 -1.48316 0
M  V30 4205 C 391.681 5.27537 -0.872311 0
M  V30 4206 C 392.981 4.36921 -2.86177 0
M  V30 4207 H 394.675 2.34141 -1.86597 0
M  V30 4208 H 392.221 1.12523 -0.898584 0
M  V30 4209 H 394.174 4.20372 -0.294204 0
M  V30 4210 H 392.898 3.23072 0.478786 0
M  V30 4211 H 391.557 3.27201 -1.65332 0
M  V30 4212 H 391.205 5.02917 0.0911752 0
M  V30 4213 H 390.905 5.66954 -1.54393 0
M  V30 4214 H 392.429 6.06576 -0.699871 0
M  V30 4215 H 393.843 5.04248 -2.72776 0
M  V30 4216 H 392.24 4.87405 -3.50081 0
M  V30 4217 H 393.31 3.46466 -3.39248 0
M  V30 4218 N 394.653 0.992116 1.22453 0
M  V30 4219 C 395.878 0.685644 1.95739 0
M  V30 4220 C 396.303 -0.743 1.72804 0
M  V30 4221 O 395.661 -1.50778 1.00676 0
M  V30 4222 C 395.709 0.996293 3.46564 0
M  V30 4223 O 394.813 0.0945512 4.12292 0
M  V30 4224 H 394.154 0.256694 0.612376 0
M  V30 4225 H 396.684 1.32888 1.5557 0
M  V30 4226 H 396.694 0.93781 3.97076 0
M  V30 4227 H 395.369 2.03733 3.62582 0
M  V30 4228 H 393.946 0.208451 3.72317 0
M  V30 4229 N 396.131 -1.37776 0.765217 0
M  V30 4230 C 397.547 -1.53297 0.444108 0
M  V30 4231 C 397.747 -1.72515 -1.04119 0
M  V30 4232 O 396.803 -1.74278 -1.82711 0
M  V30 4233 C 398.116 -2.73328 1.25349 0
M  V30 4234 C 399.664 -2.87185 1.24473 0
M  V30 4235 C 400.139 -4.10191 2.03733 0
M  V30 4236 N 401.63 -4.17291 2.01053 0
M  V30 4237 C 402.365 -5.11488 2.59166 0
M  V30 4238 N 401.861 -6.11285 3.26041 0
M  V30 4239 N 403.654 -5.03924 2.49032 0
M  V30 4240 H 395.805 -1.23552 1.72768 0
M  V30 4241 H 398.068 -0.601103 0.733062 0
M  V30 4242 H 397.774 -2.6557 2.30577 0
M  V30 4243 H 397.648 -3.66834 0.87823 0
M  V30 4244 H 400.035 -2.94418 0.20047 0
M  V30 4245 H 400.116 -1.94657 1.65959 0
M  V30 4246 H 399.76 -4.0372 3.08176 0
M  V30 4247 H 399.69 -5.01821 1.59633 0
M  V30 4248 H 402.181 -3.45825 1.5236 0
M  V30 4249 H 402.494 -6.79678 3.67774 0
M  V30 4250 H 400.839 -6.11583 3.30138 0
M  V30 4251 H 404.03 -4.24902 1.96407 0
M  V30 4252 H 404.203 -5.77152 2.94617 0
M  V30 4253 N 397.609 -0.515225 -1.4894 0
M  V30 4254 C 398.886 0.0879088 -1.95402 0
M  V30 4255 C 399.266 1.52745 -1.45712 0
M  V30 4256 O 398.614 2.18238 -0.677093 0
M  V30 4257 C 398.824 -0.0141055 -3.48997 0
M  V30 4258 C 400.172 0.152646 -4.24326 0
M  V30 4259 O 401.196 0.0604025 -3.56149 0
M  V30 4260 O 400.055 0.34384 -5.45417 0
M  V30 4261 H 397.149 0.0874636 -0.822362 0
M  V30 4262 H 399.695 -0.578775 -1.59525 0
M  V30 4263 H 398.467 -1.01745 -3.77841 0
M  V30 4264 H 398.09 0.692091 -3.9153 0
M  V30 4265 N 399.087 1.5561 -0.249682 0
M  V30 4266 C 400.498 1.84979 0.252949 0
M  V30 4267 C 400.849 1.17153 1.57384 0
M  V30 4268 O 399.974 0.450884 2.11651 0
M  V30 4269 C 400.569 3.35584 0.465732 0
M  V30 4270 C 399.128 3.65169 0.912624 0
M  V30 4271 C 398.275 2.77299 -0.00859085 0
M  V30 4272 H 401.226 1.51513 -0.47217 0
M  V30 4273 H 401.247 3.57313 1.30795 0
M  V30 4274 H 400.759 3.8492 -0.49579 0
M  V30 4275 H 398.86 3.21312 1.88652 0
M  V30 4276 H 398.973 4.72912 0.767559 0
M  V30 4277 H 397.337 2.49678 0.50327 0
M  V30 4278 H 398.12 3.29442 -0.965537 0
M  V30 4279 N 400.565 -0.0233959 1.57583 0
M  V30 4280 C 401.79 -0.728376 1.94189 0
M  V30 4281 C 402.215 -1.67793 0.850119 0
M  V30 4282 O 401.573 -1.80262 -0.19371 0
M  V30 4283 C 401.621 -1.45669 3.29868 0
M  V30 4284 O 400.725 -2.57013 3.22518 0
M  V30 4285 H 400.066 -0.195493 0.63457 0
M  V30 4286 H 402.596 0.0228214 2.04587 0
M  V30 4287 H 402.606 -1.82535 3.6489 0
M  V30 4288 H 401.281 -0.760314 4.08891 0
M  V30 4289 H 399.858 -2.22648 2.99136 0
M  V30 4290 N 402.043 -1.548 -0.295768 0
M  V30 4291 C 402.99 -1.86113 -1.36494 0
M  V30 4292 C 403.96 -0.7105 -1.50137 0
M  V30 4293 O 405.145 -0.959626 -1.64912 0
M  V30 4294 C 402.285 -2.11861 -2.72413 0
M  V30 4295 C 401.398 -3.39471 -2.67177 0
M  V30 4296 C 400.533 -3.55035 -3.95125 0
M  V30 4297 C 399.572 -4.76418 -3.84308 0
M  V30 4298 N 398.709 -4.8876 -5.04042 0
M  V30 4299 H 403.549 -2.77314 -1.09091 0
M  V30 4300 H 401.086 -1.37315 -0.52753 0
M  V30 4301 H 403.044 -2.24786 -3.51464 0
M  V30 4302 H 401.674 -1.2392 -2.98066 0
M  V30 4303 H 400.726 -3.35139 -1.79962 0
M  V30 4304 H 402.038 -4.28646 -2.55076 0
M  V30 4305 H 401.192 -3.67653 -4.82614 0
M  V30 4306 H 399.931 -2.64002 -4.10066 0
M  V30 4307 H 398.936 -4.63827 -2.95202 0
M  V30 4308 H 400.161 -5.68863 -3.70906 0
M  V30 4309 H 398.107 -4.00652 -5.19436 0
M  V30 4310 H 398.024 -5.71945 -4.94384 0
M  V30 4311 H 399.292 -5.0574 -5.93167 0
M  V30 4312 N 403.521 0.559213 -1.47345 0
M  V30 4313 C 404.77 1.31281 -1.53128 0
M  V30 4314 C 405.083 1.94602 -0.197344 0
M  V30 4315 O 406.289 2.71173 -0.133154 0
M  V30 4316 C 404.745 2.38051 -2.69925 0
M  V30 4317 C 404.353 1.8093 -4.0984 0
M  V30 4318 C 406.097 3.14604 -2.84999 0
M  V30 4319 C 404.004 2.85468 -5.1794 0
M  V30 4320 H 402.934 0.493614 -0.569966 0
M  V30 4321 H 405.585 0.594155 -1.73615 0
M  V30 4322 H 403.967 3.12822 -2.42814 0
M  V30 4323 H 405.141 1.12544 -4.46845 0
M  V30 4324 H 403.456 1.16967 -3.99634 0
M  V30 4325 H 406.053 3.92666 -3.62929 0
M  V30 4326 H 406.396 3.68665 -1.93369 0
M  V30 4327 H 406.929 2.46945 -3.1187 0
M  V30 4328 H 403.668 2.36264 -6.1144 0
M  V30 4329 H 403.188 3.52269 -4.85455 0
M  V30 4330 H 404.867 3.48996 -5.44803 0
M  V30 4331 N 404.999 1.35443 0.805782 0
M  V30 4332 C 406.227 1.31878 1.59423 0
M  V30 4333 C 406.642 -0.103562 1.88516 0
M  V30 4334 O 405.999 -1.05575 1.48863 0
M  V30 4335 C 406.05 2.12426 2.92502 0
M  V30 4336 O 405.771 3.49115 2.6467 0
M  V30 4337 C 407.272 2.16455 3.86862 0
M  V30 4338 H 404.492 0.453002 0.495005 0
M  V30 4339 H 407.036 1.78309 1.00131 0
M  V30 4340 H 405.191 1.69593 3.48306 0
M  V30 4341 H 405.605 3.90957 3.49647 0
M  V30 4342 H 407.079 2.77204 4.77349 0
M  V30 4343 H 407.556 1.16352 4.23508 0
M  V30 4344 H 408.162 2.59453 3.36993 0
M  V30 4345 N 406.477 -1.02803 1.19454 0
M  V30 4346 C 407.41 -2.107 0.876396 0
M  V30 4347 C 408.388 -1.61741 -0.166897 0
M  V30 4348 O 409.572 -1.88451 -0.0430195 0
M  V30 4349 C 406.699 -3.37262 0.311758 0
M  V30 4350 C 405.745 -4.05093 1.33424 0
M  V30 4351 S 406.578 -4.50498 2.89503 0
M  V30 4352 C 407.734 -5.80277 2.34584 0
M  V30 4353 H 407.967 -2.37362 1.79016 0
M  V30 4354 H 405.5 -1.15755 1.02177 0
M  V30 4355 H 407.458 -4.10499 -0.00748752 0
M  V30 4356 H 406.119 -3.08693 -0.58032 0
M  V30 4357 H 405.312 -4.9611 0.888302 0
M  V30 4358 H 404.914 -3.3803 1.60037 0
M  V30 4359 H 407.206 -6.54873 1.73633 0
M  V30 4360 H 408.149 -6.29651 3.23952 0
M  V30 4361 H 408.557 -5.3599 1.77131 0
M  V30 4362 N 407.956 -0.998596 -1.21925 0
M  V30 4363 C 409.204 -0.676325 -1.90448 0
M  V30 4364 C 409.525 0.794719 -1.78071 0
M  V30 4365 O 408.795 1.5701 -1.17152 0
M  V30 4366 H 407.375 -0.247165 -0.704925 0
M  V30 4367 H 410.037 -1.26633 -1.48156 0
M  V30 4368 H 409.133 -0.943858 -2.97486 0
M  V30 4369 N 409.434 1.37368 -0.772513 0
M  V30 4370 C 410.662 2.03942 -0.348588 0
M  V30 4371 C 411.077 1.58264 1.02947 0
M  V30 4372 O 410.434 0.764246 1.65727 0
M  V30 4373 C 410.485 3.5946 -0.38351 0
M  V30 4374 O 410.206 4.03468 -1.70721 0
M  V30 4375 C 411.707 4.4327 0.0519152 0
M  V30 4376 H 408.927 0.654931 -0.145966 0
M  V30 4377 H 411.471 1.75686 -1.04665 0
M  V30 4378 H 409.626 3.86486 0.265978 0
M  V30 4379 H 410.04 4.97991 -1.64636 0
M  V30 4380 H 411.514 5.51995 -0.0236733 0
M  V30 4381 H 411.991 4.2514 1.10238 0
M  V30 4382 H 412.597 4.21471 -0.569415 0
M  V30 4383 N 410.912 0.523116 1.48665 0
M  V30 4384 C 411.842 -0.23231 2.32342 0
M  V30 4385 C 412.823 -0.941637 1.41659 0
M  V30 4386 O 414.008 -0.928751 1.70552 0
M  V30 4387 C 411.138 -1.28387 3.22698 0
M  V30 4388 C 410.092 -0.693098 4.22351 0
M  V30 4389 C 409.418 -1.8468 5.01794 0
M  V30 4390 C 410.718 0.33063 5.21252 0
M  V30 4391 H 412.412 0.466192 2.95748 0
M  V30 4392 H 409.958 0.225643 1.42221 0
M  V30 4393 H 411.911 -1.82024 3.80059 0
M  V30 4394 H 410.635 -2.01186 2.57278 0
M  V30 4395 H 409.294 -0.178299 3.66166 0
M  V30 4396 H 408.942 -2.56301 4.32804 0
M  V30 4397 H 408.642 -1.45747 5.69238 0
M  V30 4398 H 410.166 -2.38709 5.62006 0
M  V30 4399 H 411.58 -0.118407 5.73178 0
M  V30 4400 H 409.977 0.636974 5.9671 0
M  V30 4401 H 411.047 1.23883 4.68808 0
M  V30 4402 N 412.39 -1.55475 0.257931 0
M  V30 4403 C 413.32 -2.24815 -0.630912 0
M  V30 4404 C 414.301 -1.23224 -1.17259 0
M  V30 4405 O 415.486 -1.51904 -1.20991 0
M  V30 4406 C 412.616 -2.95609 -1.82298 0
M  V30 4407 C 411.57 -4.03982 -1.41359 0
M  V30 4408 C 410.896 -4.6226 -2.68738 0
M  V30 4409 C 412.196 -5.19109 -0.57648 0
M  V30 4410 H 413.89 -2.99354 -0.0526878 0
M  V30 4411 H 411.436 -1.4398 -0.023901 0
M  V30 4412 H 413.389 -3.42822 -2.45054 0
M  V30 4413 H 412.113 -2.18577 -2.42676 0
M  V30 4414 H 410.772 -3.57555 -0.809324 0
M  V30 4415 H 410.42 -3.81915 -3.27338 0
M  V30 4416 H 410.12 -5.35424 -2.42065 0
M  V30 4417 H 411.644 -5.12212 -3.32372 0
M  V30 4418 H 413.058 -5.62479 -1.10861 0
M  V30 4419 H 411.455 -5.98729 -0.405351 0
M  V30 4420 H 412.525 -4.83174 0.408776 0
M  V30 4421 N 413.868 0.0150385 -1.57593 0
M  V30 4422 C 414.816 1.02958 -2.08572 0
M  V30 4423 C 415.81 1.36554 -1.00246 0
M  V30 4424 O 417.016 1.35295 -1.18724 0
M  V30 4425 H 413.391 0.349619 -0.665786 0
M  V30 4426 H 415.362 0.573932 -2.92829 0
M  V30 4427 C 414.111 2.31752 -2.59203 0
M  V30 4428 H 413.434 2.06765 -3.42182 0
M  V30 4429 H 414.874 3.01053 -2.98568 0
M  V30 4430 C 413.333 3.01692 -1.49945 0
M  V30 4431 O 413.863 3.92083 -0.873704 0
M  V30 4432 N 412.069 2.6326 -1.23056 0
M  V30 4433 H 411.616 1.89838 -1.74125 0
M  V30 4434 H 411.574 3.10372 -0.501685 0
M  V30 4435 N 415.346 1.54954 0.287554 0
M  V30 4436 C 416.571 1.79209 1.04397 0
M  V30 4437 C 416.996 0.556431 1.79682 0
M  V30 4438 O 416.354 -0.493518 1.74454 0
M  V30 4439 C 416.402 3.00739 1.98969 0
M  V30 4440 O 415.506 2.74805 3.075 0
M  V30 4441 H 414.847 0.592755 0.299227 0
M  V30 4442 H 417.377 2.02068 0.320886 0
M  V30 4443 H 417.387 3.29077 2.4119 0
M  V30 4444 H 416.062 3.90329 1.43582 0
M  V30 4445 H 414.639 2.57523 2.69697 0
M  V30 4446 N 416.824 -0.551391 1.4764 0
M  V30 4447 C 418.101 -1.31229 1.45046 0
M  V30 4448 C 418.481 -2.10563 0.150527 0
M  V30 4449 O 417.829 -2.11374 -0.867956 0
M  V30 4450 C 418.039 -2.21189 2.69956 0
M  V30 4451 C 419.387 -2.82021 3.1741 0
M  V30 4452 O 420.411 -2.31488 2.70724 0
M  V30 4453 O 419.27 -3.73885 3.98588 0
M  V30 4454 H 416.364 -0.591193 0.578291 0
M  V30 4455 H 418.91 -0.569813 1.59847 0
M  V30 4456 H 417.682 -1.62207 3.56096 0
M  V30 4457 H 417.305 -3.02722 2.57769 0
M  V30 4458 N 418.302 -1.35869 -0.798587 0
M  V30 4459 C 419.718 -1.16082 -1.09532 0
M  V30 4460 C 419.918 0.0213124 -2.01489 0
M  V30 4461 O 418.974 0.689488 -2.42904 0
M  V30 4462 C 420.287 -2.46748 -1.7186 0
M  V30 4463 C 421.835 -2.53028 -1.84244 0
M  V30 4464 C 422.31 -3.83758 -2.49988 0
M  V30 4465 N 423.801 -3.85053 -2.57465 0
M  V30 4466 C 424.536 -4.8294 -3.09122 0
M  V30 4467 N 424.032 -5.91217 -3.61157 0
M  V30 4468 N 425.825 -4.70369 -3.0775 0
M  V30 4469 H 417.976 -2.11571 -0.187461 0
M  V30 4470 H 420.239 -0.936726 -0.145765 0
M  V30 4471 H 419.945 -3.33471 -1.11759 0
M  V30 4472 H 419.819 -2.61883 -2.71472 0
M  V30 4473 H 422.206 -1.66729 -2.43486 0
M  V30 4474 H 422.287 -2.418 -0.834643 0
M  V30 4475 H 421.931 -4.70459 -1.91393 0
M  V30 4476 H 421.861 -3.92278 -3.5132 0
M  V30 4477 H 424.352 -3.06822 -2.20609 0
M  V30 4478 H 424.665 -6.61892 -3.98896 0
M  V30 4479 H 423.01 -5.94899 -3.59333 0
M  V30 4480 H 426.201 -3.84914 -2.66381 0
M  V30 4481 H 426.374 -5.46816 -3.47701 0
M  V30 4482 N 419.78 1.02168 -1.19998 0
M  V30 4483 C 421.057 1.72816 -0.916191 0
M  V30 4484 C 421.437 2.03081 0.576325 0
M  V30 4485 O 420.785 1.69122 1.53656 0
M  V30 4486 C 420.995 2.9997 -1.78378 0
M  V30 4487 C 422.343 3.73336 -2.02251 0
M  V30 4488 O 423.367 3.09914 -1.75589 0
M  V30 4489 O 422.226 4.87371 -2.47249 0
M  V30 4490 H 419.32 0.752924 -0.342103 0
M  V30 4491 H 421.866 1.08062 -1.30846 0
M  V30 4492 H 420.638 2.73888 -2.79466 0
M  V30 4493 H 420.261 3.72464 -1.39126 0
M  V30 4494 N 421.258 1.00505 1.21394 0
M  V30 4495 C 422.208 0.536503 2.21598 0
M  V30 4496 C 423.192 -0.401914 1.55799 0
M  V30 4497 O 424.384 -0.226757 1.75541 0
M  V30 4498 C 421.513 -0.135446 3.43033 0
M  V30 4499 C 420.599 0.823992 4.16018 0
M  V30 4500 N 420.99 1.97683 4.6557 0
M  V30 4501 C 419.288 0.642387 4.4135 0
M  V30 4502 C 419.989 2.58003 5.21354 0
M  V30 4503 N 418.965 1.86162 5.1073 0
M  V30 4504 H 422.767 1.41557 2.57563 0
M  V30 4505 H 420.281 0.868878 1.37202 0
M  V30 4506 H 422.278 -0.488584 4.14027 0
M  V30 4507 H 420.938 -1.01049 3.08576 0
M  V30 4508 H 421.949 2.3572 4.61147 0
M  V30 4509 H 418.626 -0.185578 4.17087 0
M  V30 4510 H 420.016 3.555 5.70149 0
M  V30 4511 N 422.737 -1.36956 0.779787 0
M  V30 4512 C 423.7 -2.2851 0.177662 0
M  V30 4513 C 424.7 -1.48393 -0.619377 0
M  V30 4514 O 425.89 -1.68505 -0.441785 0
M  V30 4515 C 423.022 -3.32428 -0.755279 0
M  V30 4516 H 424.215 -2.83269 0.984823 0
M  V30 4517 H 421.768 -1.46358 0.548544 0
M  V30 4518 H 422.503 -2.82808 -1.58714 0
M  V30 4519 H 422.288 -3.91659 -0.185817 0
M  V30 4520 H 423.778 -4.00824 -1.17174 0
M  V30 4521 N 424.215 -0.530993 -1.48385 0
M  V30 4522 C 425.462 0.0027373 -2.025 0
M  V30 4523 C 425.79 1.34186 -1.40799 0
M  V30 4524 O 425.045 1.88 -0.543544 0
M  V30 4525 C 425.344 0.172742 -3.56982 0
M  V30 4526 C 425.01 -1.09215 -4.37473 0
M  V30 4527 C 423.672 -1.43881 -4.59186 0
M  V30 4528 C 426.024 -1.93153 -4.84088 0
M  V30 4529 C 423.352 -2.62381 -5.2476 0
M  V30 4530 C 425.704 -3.10833 -5.50968 0
M  V30 4531 C 424.368 -3.45843 -5.70919 0
M  V30 4532 H 423.638 0.00100165 -0.740999 0
M  V30 4533 H 426.285 -0.697219 -1.78357 0
M  V30 4534 H 424.59 0.955473 -3.79971 0
M  V30 4535 H 426.287 0.600642 -3.96476 0
M  V30 4536 H 422.877 -0.812177 -4.20834 0
M  V30 4537 H 427.061 -1.67683 -4.67115 0
M  V30 4538 H 422.317 -2.89707 -5.38405 0
M  V30 4539 H 426.491 -3.7618 -5.86056 0
M  V30 4540 H 424.118 -4.37764 -6.21503 0
M  V30 4541 N 425.693 1.55336 -0.266172 0
M  V30 4542 C 426.623 2.25146 0.618981 0
M  V30 4543 C 427.604 1.23845 1.16604 0
M  V30 4544 O 428.789 1.52544 1.20183 0
M  V30 4545 C 425.919 2.96572 1.80728 0
M  V30 4546 C 424.873 4.04726 1.39215 0
M  V30 4547 C 424.199 4.63678 2.66283 0
M  V30 4548 C 425.499 5.19407 0.548942 0
M  V30 4549 H 427.193 2.99377 0.0368116 0
M  V30 4550 H 424.739 1.43991 0.0162651 0
M  V30 4551 H 426.692 3.44116 2.43232 0
M  V30 4552 H 425.416 2.19861 2.41514 0
M  V30 4553 H 424.075 3.57979 0.790351 0
M  V30 4554 H 423.723 3.83646 3.25308 0
M  V30 4555 H 423.423 5.367 2.39222 0
M  V30 4556 H 424.947 5.13967 3.29651 0
M  V30 4557 H 426.361 5.63059 1.07876 0
M  V30 4558 H 424.758 5.98936 0.373593 0
M  V30 4559 H 425.828 4.8295 -0.434394 0
M  V30 4560 N 427.171 -0.0066808 1.57599 0
M  V30 4561 C 428.103 -1.02827 2.04839 0
M  V30 4562 C 429.116 -1.31108 0.965113 0
M  V30 4563 O 430.305 -1.28202 1.24203 0
M  V30 4564 C 427.405 -2.36464 2.42771 0
M  V30 4565 C 426.578 -2.27219 3.73751 0
M  V30 4566 C 425.637 -3.43489 3.98625 0
M  V30 4567 O 424.663 -3.21976 4.69382 0
M  V30 4568 N 425.865 -4.66116 3.46 0
M  V30 4569 H 428.63 -0.625455 2.93101 0
M  V30 4570 H 426.191 -0.194198 1.60731 0
M  V30 4571 H 428.183 -3.13008 2.56531 0
M  V30 4572 H 426.753 -2.68512 1.60063 0
M  V30 4573 H 425.973 -1.35629 3.70133 0
M  V30 4574 H 427.261 -2.18208 4.59633 0
M  V30 4575 H 426.659 -4.86493 2.88688 0
M  V30 4576 H 425.216 -5.39949 3.65101 0
M  V30 4577 N 428.649 -1.55105 -0.279332 0
M  V30 4578 C 429.896 -1.75412 -1.01177 0
M  V30 4579 C 430.224 -0.551728 -1.86511 0
M  V30 4580 O 429.479 0.465919 -1.90073 0
M  V30 4581 C 429.778 -3.0086 -1.92919 0
M  V30 4582 C 429.444 -4.33689 -1.23387 0
M  V30 4583 C 428.106 -4.69792 -1.04159 0
M  V30 4584 C 430.458 -5.15941 -0.738562 0
M  V30 4585 C 427.786 -5.85707 -0.341166 0
M  V30 4586 C 430.138 -6.32579 -0.0517636 0
M  V30 4587 C 428.802 -6.67326 0.152292 0
M  V30 4588 H 428.072 -0.641879 -0.370233 0
M  V30 4589 H 430.719 -1.89373 -0.284627 0
M  V30 4590 H 429.024 -2.81773 -2.72234 0
M  V30 4591 H 430.721 -3.13768 -2.49701 0
M  V30 4592 H 427.311 -4.05309 -1.39364 0
M  V30 4593 H 431.495 -4.8853 -0.874764 0
M  V30 4594 H 426.751 -6.11157 -0.172287 0
M  V30 4595 H 430.925 -6.9557 0.339828 0
M  V30 4596 H 428.552 -7.56998 0.697014 0
M  V30 4597 N 430.127 0.543554 -1.4793 0
M  V30 4598 C 431.077 1.64527 -1.57844 0
M  V30 4599 C 432.061 1.54869 -0.436408 0
M  V30 4600 O 433.253 1.63119 -0.687101 0
M  V30 4601 C 430.382 3.03281 -1.6086 0
M  V30 4602 C 429.468 3.18093 -2.80495 0
M  V30 4603 N 429.859 3.02923 -4.05057 0
M  V30 4604 C 428.157 3.49121 -2.77543 0
M  V30 4605 C 428.858 3.20791 -4.85251 0
M  V30 4606 N 427.834 3.47749 -4.17818 0
M  V30 4607 H 431.636 1.51388 -2.5191 0
M  V30 4608 H 429.15 0.748671 -1.44113 0
M  V30 4609 H 431.147 3.82403 -1.66054 0
M  V30 4610 H 429.807 3.17521 -0.678996 0
M  V30 4611 H 430.818 2.79966 -4.35705 0
M  V30 4612 H 427.495 3.69804 -1.93781 0
M  V30 4613 H 428.885 3.13915 -5.9406 0
M  V30 4614 N 431.605 1.3629 0.791371 0
M  V30 4615 C 432.553 1.30514 1.92533 0
M  V30 4616 C 433.547 0.197285 1.68247 0
M  V30 4617 O 434.753 0.364176 1.76278 0
M  V30 4618 H 431.128 0.406263 0.632815 0
M  V30 4619 H 433.099 2.26282 1.94523 0
M  V30 4620 C 431.848 1.10933 3.29529 0
M  V30 4621 H 431.171 1.95427 3.48781 0
M  V30 4622 H 432.611 1.10937 4.0923 0
M  V30 4623 C 431.07 -0.186123 3.36385 0
M  V30 4624 O 431.6 -1.17664 3.84081 0
M  V30 4625 N 429.806 -0.230128 2.89687 0
M  V30 4626 H 429.353 0.576545 2.51065 0
M  V30 4627 H 429.311 -1.09658 2.94657 0
M  V30 4628 N 433.083 -1.0153 1.20538 0
M  V30 4629 C 434.308 -1.79283 1.04271 0
M  V30 4630 C 434.733 -1.8372 -0.403544 0
M  V30 4631 O 434.091 -1.27321 -1.2907 0
M  V30 4632 C 434.139 -3.21535 1.63241 0
M  V30 4633 O 433.243 -4.03099 0.870908 0
M  V30 4634 H 432.584 -0.55293 0.367647 0
M  V30 4635 H 435.114 -1.27696 1.59859 0
M  V30 4636 H 435.124 -3.72243 1.6703 0
M  V30 4637 H 433.799 -3.1762 2.68497 0
M  V30 4638 H 432.376 -3.61693 0.907323 0
M  V30 4639 N 434.561 -1.01147 -1.20859 0
M  V30 4640 C 435.789 -0.716911 -1.94082 0
M  V30 4641 C 436.204 0.721568 -1.74467 0
M  V30 4642 O 435.561 1.48889 -1.05539 0
M  V30 4643 C 435.612 -1.03662 -3.46318 0
M  V30 4644 O 435.333 -2.4186 -3.65288 0
M  V30 4645 C 436.834 -0.762386 -4.36695 0
M  V30 4646 H 434.054 -0.26367 -0.617024 0
M  V30 4647 H 436.598 -1.35127 -1.53496 0
M  V30 4648 H 434.753 -0.447757 -3.84804 0
M  V30 4649 H 435.167 -2.53224 -4.59323 0
M  V30 4650 H 436.641 -1.03621 -5.42187 0
M  V30 4651 H 437.118 0.303514 -4.3815 0
M  V30 4652 H 437.724 -1.33316 -4.03865 0
M  V30 4653 N 436.039 1.36541 -0.78704 0
M  V30 4654 C 437.45 1.81873 -0.421807 0
M  V30 4655 C 437.801 1.65487 1.05397 0
M  V30 4656 O 436.926 1.17448 1.81755 0
M  V30 4657 C 437.521 3.30192 -0.758841 0
M  V30 4658 C 436.08 3.73743 -0.446468 0
M  V30 4659 C 435.227 2.58844 -0.994728 0
M  V30 4660 H 438.178 1.24796 -0.98039 0
M  V30 4661 H 438.199 3.80468 -0.0490648 0
M  V30 4662 H 437.711 3.42087 -1.83299 0
M  V30 4663 H 435.812 3.6741 0.619739 0
M  V30 4664 H 435.925 4.69272 -0.965415 0
M  V30 4665 H 434.289 2.51245 -0.418087 0
M  V30 4666 H 435.072 2.73525 -2.07458 0
M  V30 4667 N 437.518 0.538854 1.48102 0
M  V30 4668 C 438.465 -0.219042 2.29758 0
M  V30 4669 C 439.435 -0.925562 1.37922 0
M  V30 4670 O 440.62 -0.924855 1.66886 0
M  V30 4671 C 437.76 -1.25452 3.2149 0
M  V30 4672 C 436.873 -0.555943 4.28408 0
M  V30 4673 C 436.008 -1.57512 5.0731 0
M  V30 4674 C 435.047 -0.860498 6.06021 0
M  V30 4675 N 434.184 -1.82564 6.77949 0
M  V30 4676 H 439.024 0.483449 2.94052 0
M  V30 4677 H 436.561 0.250247 1.44956 0
M  V30 4678 H 438.519 -1.86727 3.7308 0
M  V30 4679 H 437.149 -1.92528 2.591 0
M  V30 4680 H 436.201 0.170938 3.80016 0
M  V30 4681 H 437.513 0.00474616 4.988 0
M  V30 4682 H 436.667 -2.26191 5.62959 0
M  V30 4683 H 435.406 -2.16972 4.36778 0
M  V30 4684 H 434.411 -0.159686 5.49568 0
M  V30 4685 H 435.636 -0.271897 6.78555 0
M  V30 4686 H 433.582 -2.40915 6.10161 0
M  V30 4687 H 433.499 -1.31662 7.44447 0
M  V30 4688 H 434.767 -2.50414 7.38182 0
M  V30 4689 N 438.996 -1.55193 0.274407 0
M  V30 4690 C 439.906 -2.26164 -0.623473 0
M  V30 4691 C 440.922 -1.28729 -1.17068 0
M  V30 4692 O 442.098 -1.61663 -1.20112 0
M  V30 4693 C 439.163 -2.96833 -1.7914 0
M  V30 4694 C 438.224 -4.09745 -1.28093 0
M  V30 4695 C 437.457 -4.77034 -2.3932 0
M  V30 4696 O 437.68 -4.4353 -3.5866 0
M  V30 4697 O 436.614 -5.64996 -2.07516 0
M  V30 4698 H 440.44 -3.03661 -0.0485661 0
M  V30 4699 H 438.025 -1.49341 0.0418382 0
M  V30 4700 H 439.907 -3.41248 -2.4724 0
M  V30 4701 H 438.582 -2.22253 -2.35341 0
M  V30 4702 H 437.489 -3.69787 -0.566416 0
M  V30 4703 H 438.822 -4.86224 -0.764683 0
M  V30 4704 N 440.474 -0.00167713 -1.576 0
M  V30 4705 C 441.721 0.68282 -1.90641 0
M  V30 4706 C 442.049 1.73686 -0.875415 0
M  V30 4707 O 441.304 1.95334 0.119575 0
M  V30 4708 C 441.603 1.36189 -3.30435 0
M  V30 4709 C 441.269 0.440887 -4.48739 0
M  V30 4710 C 439.931 0.187312 -4.80835 0
M  V30 4711 C 442.283 -0.193134 -5.20842 0
M  V30 4712 C 439.611 -0.70855 -5.82406 0
M  V30 4713 C 441.963 -1.07688 -6.23367 0
M  V30 4714 C 440.627 -1.33962 -6.53919 0
M  V30 4715 H 439.897 0.249862 -0.697603 0
M  V30 4716 H 442.544 -0.0575642 -1.91413 0
M  V30 4717 H 440.849 2.17636 -3.25794 0
M  V30 4718 H 442.546 1.89759 -3.5326 0
M  V30 4719 H 439.136 0.648694 -4.23663 0
M  V30 4720 H 443.32 -0.0102445 -4.96299 0
M  V30 4721 H 438.576 -0.920097 -6.04437 0
M  V30 4722 H 442.75 -1.57451 -6.78367 0
M  V30 4723 H 440.377 -2.03549 -7.32442 0
M  V30 4724 N 441.952 1.55251 0.271103 0
M  V30 4725 C 442.899 1.88261 1.33516 0
M  V30 4726 C 443.869 0.734296 1.48988 0
M  V30 4727 O 445.054 0.985741 1.63364 0
M  V30 4728 C 442.194 2.16168 2.69008 0
M  V30 4729 C 441.307 3.43678 2.61743 0
M  V30 4730 C 440.442 3.61276 3.89427 0
M  V30 4731 C 439.481 4.82472 3.7668 0
M  V30 4732 N 438.618 4.96717 4.96202 0
M  V30 4733 H 443.458 2.79015 1.04665 0
M  V30 4734 H 440.995 1.38137 0.505618 0
M  V30 4735 H 442.953 2.30349 3.47844 0
M  V30 4736 H 441.583 1.28646 2.96057 0
M  V30 4737 H 440.635 3.37959 1.74607 0
M  V30 4738 H 441.947 4.3265 2.48224 0
M  V30 4739 H 441.101 3.75284 4.76704 0
M  V30 4740 H 439.84 2.70492 4.05814 0
M  V30 4741 H 438.845 4.68465 2.87786 0
M  V30 4742 H 440.07 5.74692 3.61809 0
M  V30 4743 H 438.016 4.08865 5.12997 0
M  V30 4744 H 437.933 5.79738 4.85222 0
M  V30 4745 H 439.201 5.15113 5.85046 0
M  V30 4746 N 443.43 -0.535701 1.48216 0
M  V30 4747 C 444.34 -1.66785 1.64985 0
M  V30 4748 C 445.356 -1.65654 0.532414 0
M  V30 4749 O 446.532 -1.8471 0.80275 0
M  V30 4750 C 443.597 -3.0326 1.68031 0
M  V30 4751 C 442.658 -3.1529 2.9136 0
M  V30 4752 C 441.891 -4.45255 2.94252 0
M  V30 4753 O 442.114 -5.32011 2.05719 0
M  V30 4754 O 441.048 -4.6153 3.86359 0
M  V30 4755 H 444.874 -1.55576 2.60825 0
M  V30 4756 H 442.459 -0.70815 1.31551 0
M  V30 4757 H 444.341 -3.84436 1.72589 0
M  V30 4758 H 443.016 -3.14805 0.753628 0
M  V30 4759 H 441.923 -2.3343 2.92337 0
M  V30 4760 H 443.256 -3.08658 3.83394 0
M  V30 4761 N 444.908 -1.36708 -0.784132 0
M  V30 4762 C 446.133 -1.34565 -1.5782 0
M  V30 4763 C 446.558 0.0695257 -1.87971 0
M  V30 4764 O 445.916 1.04302 -1.48293 0
M  V30 4765 C 445.964 -2.17952 -2.87279 0
M  V30 4766 O 445.068 -1.57563 -3.81114 0
M  V30 4767 H 444.409 -0.460337 -0.478524 0
M  V30 4768 H 446.939 -1.80064 -0.971495 0
M  V30 4769 H 446.949 -2.30721 -3.365 0
M  V30 4770 H 445.624 -3.20823 -2.64661 0
M  V30 4771 H 444.201 -1.53764 -3.39722 0
M  V30 4772 N 446.386 1.0089 -1.21074 0
M  V30 4773 C 447.316 2.1145 -0.990523 0
M  V30 4774 C 448.297 1.69897 0.0831699 0
M  V30 4775 O 449.482 1.94052 -0.0758853 0
M  V30 4776 C 446.612 3.42914 -0.550177 0
M  V30 4777 C 445.566 3.98244 -1.56799 0
M  V30 4778 C 444.892 5.25568 -0.984013 0
M  V30 4779 C 446.192 4.30752 -2.95381 0
M  V30 4780 H 447.886 2.3013 -1.91521 0
M  V30 4781 H 445.432 1.10592 -0.92225 0
M  V30 4782 H 447.385 4.19653 -0.383305 0
M  V30 4783 H 446.109 3.24014 0.41015 0
M  V30 4784 H 444.768 3.23621 -1.72236 0
M  V30 4785 H 444.416 5.02998 -0.0155216 0
M  V30 4786 H 444.116 5.63551 -1.66384 0
M  V30 4787 H 445.64 6.04955 -0.828378 0
M  V30 4788 H 447.054 4.98349 -2.8341 0
M  V30 4789 H 445.451 4.79869 -3.60341 0
M  V30 4790 H 446.521 3.39192 -3.46521 0
M  V30 4791 N 447.864 1.01787 1.20321 0
M  V30 4792 C 448.814 0.559976 2.21016 0
M  V30 4793 C 449.798 -0.385366 1.56217 0
M  V30 4794 O 450.99 -0.208126 1.75772 0
M  V30 4795 C 448.119 -0.0990553 3.43157 0
M  V30 4796 C 447.205 0.86807 4.15121 0
M  V30 4797 N 447.596 2.0261 4.63447 0
M  V30 4798 C 445.894 0.689162 4.40643 0
M  V30 4799 C 446.595 2.63518 5.18588 0
M  V30 4800 N 445.571 1.91569 5.08726 0
M  V30 4801 H 449.373 1.44281 2.56048 0
M  V30 4802 H 446.887 0.883381 1.36272 0
M  V30 4803 H 448.884 -0.444643 4.14522 0
M  V30 4804 H 447.544 -0.977709 3.0963 0
M  V30 4805 H 448.555 2.40598 4.58621 0
M  V30 4806 H 445.232 -0.14133 4.17261 0
M  V30 4807 H 446.622 3.61527 5.66346 0
M  V30 4808 N 449.342 -1.36122 0.79427 0
M  V30 4809 C 450.29 -2.31871 0.184023 0
M  V30 4810 C 451.284 -1.56041 -0.659365 0
M  V30 4811 O 452.49 -1.71266 -0.553906 0
M  V30 4812 H 448.865 -0.750896 0.0407373 0
M  V30 4813 H 450.836 -2.80898 1.00693 0
M  V30 4814 C 449.585 -3.41324 -0.662813 0
M  V30 4815 H 448.908 -3.99793 -0.0231944 0
M  V30 4816 H 450.348 -4.10629 -1.05639 0
M  V30 4817 C 448.807 -2.83308 -1.82313 0
M  V30 4818 O 449.337 -2.75863 -2.91997 0
M  V30 4819 N 447.543 -2.40529 -1.63077 0
M  V30 4820 H 447.09 -2.46785 -0.738591 0
M  V30 4821 H 447.048 -2.02059 -2.40872 0
M  V30 4822 N 450.82 -0.546701 -1.47814 0
M  V30 4823 C 451.768 0.220048 -2.31557 0
M  V30 4824 C 452.762 0.919472 -1.42275 0
M  V30 4825 O 453.968 0.841953 -1.59095 0
M  V30 4826 H 450.343 0.0898334 -0.746615 0
M  V30 4827 H 452.314 -0.505589 -2.94086 0
M  V30 4828 C 451.063 1.24353 -3.24702 0
M  V30 4829 H 450.386 0.714758 -3.93359 0
M  V30 4830 H 451.826 1.75112 -3.8615 0
M  V30 4831 C 450.285 2.28593 -2.47481 0
M  V30 4832 O 450.815 3.35334 -2.21165 0
M  V30 4833 N 449.021 2.02244 -2.08676 0
M  V30 4834 H 448.568 1.15455 -2.30278 0
M  V30 4835 H 448.526 2.72207 -1.57323 0
M  V30 4836 N 452.299 1.55045 -0.282633 0
M  V30 4837 C 453.71 1.85473 0.213655 0
M  V30 4838 C 454.061 1.20465 1.54863 0
M  V30 4839 O 453.186 0.495676 2.10647 0
M  V30 4840 C 453.781 3.36496 0.394445 0
M  V30 4841 C 452.34 3.67022 0.834961 0
M  V30 4842 C 451.487 2.77218 -0.0674081 0
M  V30 4843 H 454.438 1.50478 -0.504202 0
M  V30 4844 H 454.459 3.60007 1.23186 0
M  V30 4845 H 453.971 3.83782 -0.577326 0
M  V30 4846 H 452.072 3.25241 1.81794 0
M  V30 4847 H 452.185 4.74433 0.667075 0
M  V30 4848 H 450.549 2.5069 0.450196 0
M  V30 4849 H 451.332 3.2732 -1.0352 0
M  V30 4850 N 453.777 0.010035 1.57597 0
M  V30 4851 C 454.74 -0.963029 2.07986 0
M  V30 4852 C 455.74 -1.26619 0.991173 0
M  V30 4853 O 456.93 -1.2097 1.25347 0
M  V30 4854 C 454.062 -2.2851 2.52974 0
M  V30 4855 H 455.255 -0.526971 2.95234 0
M  V30 4856 H 452.808 -0.237639 1.54483 0
M  V30 4857 H 453.543 -2.76784 1.69 0
M  V30 4858 H 453.328 -2.07824 3.32493 0
M  V30 4859 H 454.818 -2.98294 2.9225 0
M  V30 4860 N 455.255 -1.55392 -0.262866 0
M  V30 4861 C 456.203 -1.8977 -1.345 0
M  V30 4862 C 457.197 -0.775063 -1.50629 0
M  V30 4863 O 458.403 -0.959519 -1.52293 0
M  V30 4864 H 454.778 -0.602467 -0.450041 0
M  V30 4865 H 456.749 -2.80147 -1.02762 0
M  V30 4866 C 455.498 -2.19501 -2.69657 0
M  V30 4867 H 454.821 -3.05378 -2.5804 0
M  V30 4868 H 456.261 -2.47469 -3.44289 0
M  V30 4869 C 454.72 -1.00597 -3.21531 0
M  V30 4870 O 455.25 -0.245768 -4.00947 0
M  V30 4871 N 453.456 -0.800911 -2.79345 0
M  V30 4872 H 453.003 -1.42079 -2.14875 0
M  V30 4873 H 452.961 -0.00697996 -3.14399 0
M  V30 4874 N 456.733 0.527833 -1.48498 0
M  V30 4875 C 458.149 0.856571 -1.34666 0
M  V30 4876 C 458.349 1.98271 -0.35931 0
M  V30 4877 O 457.405 2.51551 0.218703 0
M  V30 4878 C 458.718 1.22207 -2.74747 0
M  V30 4879 C 460.266 1.33183 -2.83251 0
M  V30 4880 C 460.741 1.73075 -4.24039 0
M  V30 4881 N 462.232 1.80174 -4.26722 0
M  V30 4882 C 462.967 2.1243 -5.32598 0
M  V30 4883 N 462.463 2.43096 -6.4875 0
M  V30 4884 N 464.256 2.13454 -5.19994 0
M  V30 4885 H 456.407 -0.215174 -2.11307 0
M  V30 4886 H 458.67 -0.0336281 -0.947403 0
M  V30 4887 H 458.376 0.468195 -3.4857 0
M  V30 4888 H 458.25 2.17173 -3.08409 0
M  V30 4889 H 460.637 2.07647 -2.09683 0
M  V30 4890 H 460.718 0.363333 -2.53206 0
M  V30 4891 H 460.362 0.991712 -4.98124 0
M  V30 4892 H 460.292 2.70979 -4.51529 0
M  V30 4893 H 462.783 1.58744 -3.42942 0
M  V30 4894 H 463.096 2.6682 -7.25277 0
M  V30 4895 H 461.441 2.40611 -6.52021 0
M  V30 4896 H 464.632 1.88956 -4.28268 0
M  V30 4897 H 464.805 2.38261 -6.02608 0
M  V30 4898 N 458.211 1.37122 0.776871 0
M  V30 4899 C 459.627 1.1781 1.07671 0
M  V30 4900 C 459.827 0.0107454 2.01497 0
M  V30 4901 O 458.883 -0.650756 2.4397 0
M  V30 4902 C 460.196 2.49451 1.67913 0
M  V30 4903 C 461.744 2.55927 1.80195 0
M  V30 4904 C 462.219 3.87686 2.43851 0
M  V30 4905 N 463.71 3.891 2.51307 0
M  V30 4906 C 464.445 4.87797 3.014 0
M  V30 4907 N 463.941 5.96888 3.51705 0
M  V30 4908 N 465.734 4.75205 3.00227 0
M  V30 4909 H 457.885 2.11843 0.153778 0
M  V30 4910 H 460.148 0.938927 0.130844 0
M  V30 4911 H 459.854 3.35207 1.06439 0
M  V30 4912 H 459.728 2.66169 2.67271 0
M  V30 4913 H 462.115 1.70582 2.40803 0
M  V30 4914 H 462.196 2.43097 0.796069 0
M  V30 4915 H 461.84 4.73444 1.83884 0
M  V30 4916 H 461.77 3.97817 3.45035 0
M  V30 4917 H 464.261 3.10293 2.157 0
M  V30 4918 H 464.574 6.68155 3.88316 0
M  V30 4919 H 462.919 6.0054 3.49824 0
M  V30 4920 H 466.11 3.89103 2.60224 0
M  V30 4921 H 466.283 5.52279 3.38957 0
M  V30 4922 N 459.689 -1.00246 1.21608 0
M  V30 4923 C 460.917 -1.77631 1.06089 0
M  V30 4924 C 461.332 -1.84746 -0.38916 0
M  V30 4925 O 460.689 -1.31068 -1.26994 0
M  V30 4926 C 460.74 -3.21415 1.65453 0
M  V30 4927 O 460.461 -3.14703 3.04785 0
M  V30 4928 C 461.962 -4.15289 1.55079 0
M  V30 4929 H 459.182 -0.558162 0.37242 0
M  V30 4930 H 461.726 -1.26093 1.60999 0
M  V30 4931 H 459.881 -3.70053 1.14629 0
M  V30 4932 H 460.295 -4.05056 3.33212 0
M  V30 4933 H 461.769 -5.13965 2.01355 0
M  V30 4934 H 462.246 -4.36279 0.505665 0
M  V30 4935 H 462.852 -3.72543 2.05163 0
M  V30 4936 N 461.167 -1.02423 -1.1978 0
M  V30 4937 C 462.395 -0.737456 -1.93311 0
M  V30 4938 C 462.81 0.703023 -1.75223 0
M  V30 4939 O 462.167 1.47761 -1.07112 0
M  V30 4940 C 462.218 -1.0733 -3.45199 0
M  V30 4941 O 461.939 -2.4572 -3.62702 0
M  V30 4942 C 463.44 -0.80866 -4.35862 0
M  V30 4943 H 460.66 -0.2702 -0.614193 0
M  V30 4944 H 463.204 -1.36747 -1.52054 0
M  V30 4945 H 461.359 -0.488545 -3.84307 0
M  V30 4946 H 461.773 -2.58081 -4.56612 0
M  V30 4947 H 463.247 -1.09365 -5.41057 0
M  V30 4948 H 463.724 0.257025 -4.38447 0
M  V30 4949 H 464.33 -1.37592 -4.02428 0
M  V30 4950 N 462.645 1.35699 -0.801477 0
M  V30 4951 C 464.056 1.81415 -0.441073 0
M  V30 4952 C 464.407 1.66595 1.03636 0
M  V30 4953 O 463.532 1.19369 1.80499 0
M  V30 4954 C 464.127 3.29369 -0.793819 0
M  V30 4955 C 462.686 3.73248 -0.486083 0
M  V30 4956 C 461.833 2.57775 -1.02213 0
M  V30 4957 H 464.784 1.23749 -0.993572 0
M  V30 4958 H 464.805 3.80395 -0.0894158 0
M  V30 4959 H 464.317 3.40123 -1.86917 0
M  V30 4960 H 462.418 3.68046 0.580735 0
M  V30 4961 H 462.531 4.68222 -1.01513 0
M  V30 4962 H 460.895 2.50788 -0.444712 0
M  V30 4963 H 461.678 2.71309 -2.10348 0
M  V30 4964 N 464.123 0.554532 1.47522 0
M  V30 4965 C 465.369 0.0295227 2.02779 0
M  V30 4966 C 465.702 -1.31582 1.42828 0
M  V30 4967 O 464.977 -1.85561 0.582872 0
M  V30 4968 C 465.26 -0.0664057 3.60039 0
M  V30 4969 C 465.113 1.30585 4.30427 0
M  V30 4970 C 466.432 -0.781162 4.33112 0
M  V30 4971 H 463.551 0.0122027 0.736899 0
M  V30 4972 H 466.193 0.716305 1.7598 0
M  V30 4973 H 464.343 -0.651307 3.83002 0
M  V30 4974 H 466.015 1.93374 4.18813 0
M  V30 4975 H 464.258 1.88125 3.90886 0
M  V30 4976 H 464.929 1.19147 5.38988 0
M  V30 4977 H 467.405 -0.284565 4.15126 0
M  V30 4978 H 466.281 -0.817237 5.42782 0
M  V30 4979 H 466.542 -1.83672 4.0214 0
M  V30 4980 O 465.64 -1.55591 0.432879 0
M  V30 4981 H 466.331 -1.93432 -0.101927 0
M  V30 END ATOM
M  V30 BEGIN BOND
M  V30 END BOND
M  V30 END CTAB
M  END
$$$$
