drugbank_target|P22869 Methane monooxygenase component A alpha chain (DB04592; DB04637)
 OpenBabel12092120303D

  0  0  0     0  0            999 V3000
M  V30 BEGIN CTAB
M  V30 COUNTS 8385 8510 0 0 0
M  V30 BEGIN ATOM
M  V30 1 H -0.908 1.98254 -0.117106 0
M  V30 2 N 0 1.576 0 0
M  V30 3 C 0.933 2.03868 1.02534 0
M  V30 4 C 1.911 0.928543 1.3348 0
M  V30 5 O 3.095 1.19667 1.45644 0
M  V30 6 C 0.222 2.43627 2.35294 0
M  V30 7 C -0.732 3.65373 2.2001 0
M  V30 8 S 0.101 5.13292 1.52614 0
M  V30 9 C 1.257 5.56322 2.86805 0
M  V30 10 H 1.49 2.90518 0.631377 0
M  V30 11 H -0.977 1.52953 0.210867 0
M  V30 12 H 0.981 2.67203 3.11629 0
M  V30 13 H -0.358 1.57376 2.7183 0
M  V30 14 H -1.165 3.90944 3.18086 0
M  V30 15 H -1.563 3.418 1.51819 0
M  V30 16 H 0.729 5.58782 3.83104 0
M  V30 17 H 1.672 6.56266 2.65933 0
M  V30 18 H 2.08 4.83886 2.90714 0
M  V30 19 N 1.4781 -0.272755 1.55222 0
M  V30 20 C 2.4411 -1.32041 1.87344 0
M  V30 21 C 3.4411 -1.42342 0.74803 0
M  V30 22 O 4.6311 -1.41488 1.0162 0
M  V30 23 C 1.7631 -2.70173 2.07893 0
M  V30 24 H 2.9561 -1.04789 2.80997 0
M  V30 25 H 0.5091 -0.51083 1.47717 0
M  V30 26 H 1.2441 -3.02605 1.16622 0
M  V30 27 H 1.0291 -2.64082 2.89833 0
M  V30 28 H 2.5191 -3.45869 2.34017 0
M  V30 29 N 2.9562 -1.48159 -0.537278 0
M  V30 30 C 3.8862 -1.65029 -1.6519 0
M  V30 31 C 4.8672 -0.499281 -1.62607 0
M  V30 32 O 6.0522 -0.730972 -1.79918 0
M  V30 33 C 3.1822 -1.68303 -3.03795 0
M  V30 34 C 2.1362 -2.8283 -3.21234 0
M  V30 35 C 1.4622 -2.71189 -4.60826 0
M  V30 36 C 2.7622 -4.24211 -3.04701 0
M  V30 37 H 4.4562 -2.58341 -1.51328 0
M  V30 38 H 2.0022 -1.24325 -0.726585 0
M  V30 39 H 3.9552 -1.78693 -3.81637 0
M  V30 40 H 2.6792 -0.715635 -3.18663 0
M  V30 41 H 1.3382 -2.71983 -2.45807 0
M  V30 42 H 0.9862 -1.72435 -4.7252 0
M  V30 43 H 0.6862 -3.48035 -4.7344 0
M  V30 44 H 2.2102 -2.83537 -5.40777 0
M  V30 45 H 3.6242 -4.3593 -3.72341 0
M  V30 46 H 2.0212 -5.01998 -3.28813 0
M  V30 47 H 3.0912 -4.41184 -2.01209 0
M  V30 48 N 4.4343 0.785586 -1.36625 0
M  V30 49 C 5.6593 1.57963 -1.34397 0
M  V30 50 C 6.0843 1.87964 0.071526 0
M  V30 51 O 5.4423 1.48182 1.0446 0
M  V30 52 C 5.4903 2.87511 -2.17646 0
M  V30 53 O 4.5943 3.81281 -1.57158 0
M  V30 54 H 3.9353 0.479014 -0.459828 0
M  V30 55 H 6.4653 0.973411 -1.79961 0
M  V30 56 H 6.4753 3.36745 -2.30362 0
M  V30 57 H 5.1503 2.65002 -3.20541 0
M  V30 58 H 3.7273 3.39885 -1.53403 0
M  V30 59 N 5.9124 1.20967 1.01018 0
M  V30 60 C 7.1404 1.04956 1.78303 0
M  V30 61 C 7.5554 -0.400915 1.84494 0
M  V30 62 O 6.9124 -1.27826 1.30257 0
M  V30 63 C 6.9634 1.63403 3.22462 0
M  V30 64 O 6.6844 3.02775 3.16637 0
M  V30 65 C 8.1854 1.52432 4.16268 0
M  V30 66 H 5.4054 0.368858 0.560522 0
M  V30 67 H 7.9494 1.60193 1.27116 0
M  V30 68 H 6.1044 1.1227 3.70775 0
M  V30 69 H 6.5184 3.30626 4.07169 0
M  V30 70 H 7.9924 1.98078 5.15237 0
M  V30 71 H 8.4694 0.477875 4.36592 0
M  V30 72 H 9.0754 2.02787 3.73841 0
M  V30 73 N 7.3905 -1.2043 1.01659 0
M  V30 74 C 8.3535 -2.21433 0.591616 0
M  V30 75 C 9.3535 -1.57203 -0.338226 0
M  V30 76 O 10.5435 -1.73737 -0.126918 0
M  V30 77 C 7.6755 -3.40628 -0.136058 0
M  V30 78 H 8.8685 -2.60545 1.48514 0
M  V30 79 H 6.4215 -1.33893 0.806379 0
M  V30 80 H 7.1565 -3.07019 -1.04449 0
M  V30 81 H 6.9415 -3.88475 0.531917 0
M  V30 82 H 8.4315 -4.15475 -0.420735 0
M  V30 83 N 8.8686 -0.792821 -1.36206 0
M  V30 84 C 10.0966 -0.378825 -2.03402 0
M  V30 85 C 10.5116 1.00586 -1.59774 0
M  V30 86 O 9.8686 1.64574 -0.788764 0
M  V30 87 C 9.9196 -0.43683 -3.58851 0
M  V30 88 O 9.6406 -1.76691 -4.00889 0
M  V30 89 C 11.1416 -0.0138943 -4.43298 0
M  V30 90 H 8.3616 -0.155673 -0.652692 0
M  V30 91 H 10.9056 -1.07261 -1.74113 0
M  V30 92 H 9.0606 0.208575 -3.86838 0
M  V30 93 H 9.4746 -1.72011 -4.95492 0
M  V30 94 H 10.9486 -0.105615 -5.51899 0
M  V30 95 H 11.4256 1.03915 -4.2673 0
M  V30 96 H 12.0316 -0.63192 -4.20579 0
M  V30 97 N 10.3467 1.47872 -0.545128 0
M  V30 98 C 11.2937 2.29849 0.2093 0
M  V30 99 C 12.2637 1.38313 0.919707 0
M  V30 100 O 13.4487 1.67277 0.917772 0
M  V30 101 C 10.5887 3.22019 1.24088 0
M  V30 102 C 9.7017 4.2864 0.537778 0
M  V30 103 C 8.8367 5.07973 1.5536 0
M  V30 104 C 7.8757 6.06381 0.8348 0
M  V30 105 N 7.0127 6.78717 1.79688 0
M  V30 106 H 11.8527 2.93845 -0.49591 0
M  V30 107 H 9.3897 1.44848 -0.256389 0
M  V30 108 H 11.3477 3.73868 1.85144 0
M  V30 109 H 9.9777 2.59914 1.91428 0
M  V30 110 H 9.0297 3.7994 -0.187046 0
M  V30 111 H 10.3417 4.98793 -0.0258907 0
M  V30 112 H 9.4957 5.63912 2.23803 0
M  V30 113 H 8.2347 4.37693 2.15118 0
M  V30 114 H 7.2397 5.49631 0.136388 0
M  V30 115 H 8.4647 6.78665 0.24313 0
M  V30 116 H 6.4107 6.11177 2.38326 0
M  V30 117 H 6.3277 7.44998 1.28505 0
M  V30 118 H 7.5957 7.39237 2.47282 0
M  V30 119 N 11.8248 0.280983 1.55075 0
M  V30 120 C 12.7878 -0.590896 2.21452 0
M  V30 121 C 13.7878 -1.07682 1.19421 0
M  V30 122 O 14.9778 -0.97605 1.44288 0
M  V30 123 C 12.1098 -1.81587 2.88511 0
M  V30 124 H 13.3028 -0.0112554 2.99898 0
M  V30 125 H 10.8558 0.0316438 1.56268 0
M  V30 126 H 11.5908 -2.43587 2.14093 0
M  V30 127 H 11.3758 -1.4753 3.63287 0
M  V30 128 H 12.8658 -2.43575 3.39206 0
M  V30 129 N 13.3029 -1.57598 0.00835791 0
M  V30 130 C 14.2659 -2.07884 -0.965242 0
M  V30 131 C 15.2659 -0.989825 -1.26725 0
M  V30 132 O 16.4559 -1.25218 -1.21104 0
M  V30 133 C 13.5879 -2.52731 -2.28779 0
M  V30 134 H 14.7809 -2.95178 -0.530112 0
M  V30 135 H 12.3339 -1.54458 -0.239283 0
M  V30 136 H 13.0689 -1.68705 -2.76964 0
M  V30 137 H 12.8539 -3.32272 -2.08177 0
M  V30 138 H 14.3439 -2.91933 -2.98605 0
M  V30 139 N 14.781 0.264519 -1.55364 0
M  V30 140 C 16.009 1.013 -1.80405 0
M  V30 141 C 16.424 1.79618 -0.581622 0
M  V30 142 O 15.781 1.76879 0.449468 0
M  V30 143 C 15.832 1.96487 -3.03439 0
M  V30 144 O 15.553 1.21341 -4.20961 0
M  V30 145 C 17.054 2.83079 -3.41147 0
M  V30 146 H 14.274 0.298875 -0.600762 0
M  V30 147 H 16.818 0.292736 -2.02394 0
M  V30 148 H 14.973 2.63965 -2.83551 0
M  V30 149 H 15.387 1.85573 -4.90574 0
M  V30 150 H 16.861 3.4565 -4.30384 0
M  V30 151 H 17.338 3.53286 -2.60932 0
M  V30 152 H 17.944 2.2108 -3.63323 0
M  V30 153 N 16.2591 1.48442 0.529413 0
M  V30 154 C 17.5361 1.46978 1.29062 0
M  V30 155 C 17.9161 0.181769 2.10316 0
M  V30 156 O 17.2641 -0.836481 2.12639 0
M  V30 157 C 17.4741 2.7321 2.17157 0
M  V30 158 C 18.8221 3.21562 2.77278 0
M  V30 159 O 19.8461 2.74131 2.27444 0
M  V30 160 O 18.7051 4.04094 3.67927 0
M  V30 161 H 15.7991 0.587003 0.582543 0
M  V30 162 H 18.3451 1.60676 0.546021 0
M  V30 163 H 17.1171 3.58465 1.56903 0
M  V30 164 H 16.7401 2.62235 2.98862 0
M  V30 165 N 17.7372 -0.778329 1.37039 0
M  V30 166 C 18.7002 -1.87301 1.32102 0
M  V30 167 C 19.7002 -1.59198 0.226405 0
M  V30 168 O 20.8902 -1.67403 0.481861 0
M  V30 169 C 18.0222 -3.24309 1.05055 0
M  V30 170 H 19.2152 -1.93093 2.29467 0
M  V30 171 H 16.7682 -0.977358 1.21973 0
M  V30 172 H 17.5032 -3.24196 0.0819373 0
M  V30 173 H 17.2882 -3.46098 1.84279 0
M  V30 174 H 18.7782 -4.04382 1.04234 0
M  V30 175 N 19.2153 -1.21501 -1.00376 0
M  V30 176 C 20.1453 -0.999478 -2.11028 0
M  V30 177 C 21.1263 0.0759671 -1.6993 0
M  V30 178 O 22.3113 -0.0841106 -1.94018 0
M  V30 179 C 19.4413 -0.564709 -3.42678 0
M  V30 180 C 18.3953 -1.58486 -3.97576 0
M  V30 181 C 17.7213 -1.00628 -5.25146 0
M  V30 182 C 19.0213 -2.97204 -4.29496 0
M  V30 183 H 20.7153 -1.92495 -2.29317 0
M  V30 184 H 18.2613 -0.92693 -1.102 0
M  V30 185 H 20.2143 -0.401091 -4.19487 0
M  V30 186 H 18.9383 0.396411 -3.24185 0
M  V30 187 H 17.5973 -1.73606 -3.22888 0
M  V30 188 H 17.2453 -0.0368439 -5.02987 0
M  V30 189 H 16.9453 -1.68771 -5.62841 0
M  V30 190 H 18.4693 -0.854015 -6.04598 0
M  V30 191 H 19.8833 -2.8552 -4.97143 0
M  V30 192 H 18.2803 -3.62372 -4.78338 0
M  V30 193 H 19.3503 -3.47956 -3.3772 0
M  V30 194 N 20.6934 1.19889 -1.02296 0
M  V30 195 C 21.6564 2.21116 -0.603351 0
M  V30 196 C 22.6564 1.5738 0.329884 0
M  V30 197 O 23.8464 1.73802 0.117702 0
M  V30 198 C 20.9784 3.40696 0.117992 0
M  V30 199 H 22.1714 2.59754 -1.49893 0
M  V30 200 H 19.7244 1.33463 -0.813468 0
M  V30 201 H 20.4594 3.07569 1.0282 0
M  V30 202 H 20.2444 3.88188 -0.552511 0
M  V30 203 H 21.7344 4.15692 0.398696 0
M  V30 204 N 22.1715 0.800033 1.35784 0
M  V30 205 C 23.1345 0.211565 2.28221 0
M  V30 206 C 24.1345 -0.59728 1.49296 0
M  V30 207 O 25.3245 -0.416721 1.69142 0
M  V30 208 C 22.4565 -0.705846 3.33513 0
M  V30 209 H 23.6495 1.02677 2.81776 0
M  V30 210 H 21.2025 0.570211 1.45528 0
M  V30 211 H 21.9375 -1.54498 2.85133 0
M  V30 212 H 21.7225 -0.127655 3.91892 0
M  V30 213 H 23.2125 -1.11211 4.02519 0
M  V30 214 N 23.6496 -1.47581 0.552962 0
M  V30 215 C 24.5976 -2.31648 -0.21023 0
M  V30 216 C 25.5916 -1.42663 -0.913432 0
M  V30 217 O 26.7976 -1.5945 -0.835201 0
M  V30 218 H 23.1726 -0.746989 -0.0866676 0
M  V30 219 H 25.1436 -2.93869 0.518051 0
M  V30 220 C 23.8926 -3.25226 -1.22976 0
M  V30 221 H 23.2156 -3.93658 -0.698077 0
M  V30 222 H 24.6556 -3.86889 -1.73473 0
M  V30 223 C 23.1146 -2.48448 -2.27542 0
M  V30 224 O 23.6446 -2.22585 -3.34393 0
M  V30 225 N 21.8506 -2.09532 -2.01357 0
M  V30 226 H 21.3976 -2.30765 -1.14478 0
M  V30 227 H 21.3556 -1.58476 -2.71538 0
M  V30 228 N 25.1277 -0.289203 -1.54924 0
M  V30 229 C 26.5437 0.0645403 -1.59469 0
M  V30 230 C 26.7437 1.53419 -1.30632 0
M  V30 231 O 25.7997 2.2852 -1.074 0
M  V30 232 C 27.1127 -0.32278 -2.98963 0
M  V30 233 C 28.6607 -0.270564 -3.11828 0
M  V30 234 C 29.1357 -0.632532 -4.53611 0
M  V30 235 N 30.6267 -0.584617 -4.59496 0
M  V30 236 C 31.3617 -0.837314 -5.67254 0
M  V30 237 N 30.8577 -1.15536 -6.83098 0
M  V30 238 N 32.6507 -0.765166 -5.56868 0
M  V30 239 H 24.8017 -1.24714 -1.71931 0
M  V30 240 H 27.0647 -0.504809 -0.802416 0
M  V30 241 H 26.7707 -1.34541 -3.24948 0
M  V30 242 H 26.6447 0.32944 -3.75759 0
M  V30 243 H 29.0317 0.742805 -2.85598 0
M  V30 244 H 29.1127 -0.957242 -2.37214 0
M  V30 245 H 28.7567 -1.64365 -4.80569 0
M  V30 246 H 28.6867 0.07609 -5.26545 0
M  V30 247 H 31.1777 -0.349248 -3.76283 0
M  V30 248 H 31.4907 -1.33447 -7.61191 0
M  V30 249 H 29.8357 -1.19328 -6.84679 0
M  V30 250 H 33.0267 -0.516432 -4.65243 0
M  V30 251 H 33.1997 -0.965477 -6.40767 0
M  V30 252 N 26.6058 1.57591 -0.0167156 0
M  V30 253 C 27.5688 2.08393 0.954204 0
M  V30 254 C 28.5688 0.996531 1.26198 0
M  V30 255 O 29.7588 1.25858 1.20438 0
M  V30 256 C 26.8908 2.5394 2.27436 0
M  V30 257 H 28.0838 2.95455 0.514451 0
M  V30 258 H 25.6368 1.54582 0.231089 0
M  V30 259 H 26.3718 1.70171 2.76066 0
M  V30 260 H 26.1568 3.33371 2.06412 0
M  V30 261 H 27.6468 2.93512 2.97053 0
M  V30 262 N 28.0839 -0.256276 1.55502 0
M  V30 263 C 29.4949 -0.826068 1.67431 0
M  V30 264 C 29.8459 -1.86396 0.612446 0
M  V30 265 O 28.9709 -2.15031 -0.243025 0
M  V30 266 C 29.5659 -1.50512 3.03532 0
M  V30 267 C 28.1249 -2.02273 3.17431 0
M  V30 268 C 27.2719 -0.870548 2.63281 0
M  V30 269 H 30.2229 -0.0322728 1.58667 0
M  V30 270 H 30.2439 -2.37279 2.97454 0
M  V30 271 H 29.7559 -0.749484 3.80794 0
M  V30 272 H 27.8569 -2.80746 2.44974 0
M  V30 273 H 27.9699 -2.22655 4.24219 0
M  V30 274 H 26.3339 -1.26851 2.20864 0
M  V30 275 H 27.1169 -0.128149 3.43061 0
M  V30 276 N 29.562 -1.4872 -0.521534 0
M  V30 277 C 30.79 -1.60843 -1.30142 0
M  V30 278 C 31.205 -0.271897 -1.86832 0
M  V30 279 O 30.562 0.739969 -1.66825 0
M  V30 280 C 30.613 -2.66155 -2.4463 0
M  V30 281 O 30.334 -3.94623 -1.90275 0
M  V30 282 C 31.835 -2.88795 -3.36322 0
M  V30 283 H 29.055 -0.542075 -0.395468 0
M  V30 284 H 31.599 -1.94609 -0.628285 0
M  V30 285 H 29.754 -2.35224 -3.07812 0
M  V30 286 H 30.168 -4.52468 -2.65279 0
M  V30 287 H 31.642 -3.66264 -4.12983 0
M  V30 288 H 32.119 -1.97934 -3.9207 0
M  V30 289 H 32.725 -3.21063 -2.78924 0
M  V30 290 N 31.0401 0.771051 -1.3745 0
M  V30 291 C 32.2651 1.56529 -1.36065 0
M  V30 292 C 32.6901 1.88029 0.0515859 0
M  V30 293 O 32.0481 1.49282 1.02882 0
M  V30 294 C 32.0961 2.85187 -2.20683 0
M  V30 295 O 31.2001 3.79593 -1.61193 0
M  V30 296 H 30.5411 0.47411 -0.464883 0
M  V30 297 H 33.0711 0.954269 -1.80983 0
M  V30 298 H 33.0811 3.34283 -2.33921 0
M  V30 299 H 31.7561 2.61588 -3.23334 0
M  V30 300 H 30.3331 3.38239 -1.56999 0
M  V30 301 N 32.5182 1.22032 0.997298 0
M  V30 302 C 33.7642 1.04376 1.73878 0
M  V30 303 C 34.0972 -0.420716 1.89588 0
M  V30 304 O 33.3722 -1.31202 1.43583 0
M  V30 305 C 33.6552 1.75047 3.14691 0
M  V30 306 C 33.5082 3.29062 3.06656 0
M  V30 307 C 34.8272 1.49928 4.13775 0
M  V30 308 H 31.9462 0.380578 0.631133 0
M  V30 309 H 34.5882 1.50312 1.16217 0
M  V30 310 H 32.7382 1.35996 3.63919 0
M  V30 311 H 34.4102 3.7753 2.65083 0
M  V30 312 H 32.6532 3.58967 2.43568 0
M  V30 313 H 33.3242 3.73683 4.06282 0
M  V30 314 H 35.8002 1.83842 3.73285 0
M  V30 315 H 34.6762 2.01878 5.10428 0
M  V30 316 H 34.9372 0.430929 4.39995 0
M  V30 317 N 33.9963 -1.19345 1.0293 0
M  V30 318 C 34.9443 -2.24621 0.604001 0
M  V30 319 C 35.9383 -1.65452 -0.363587 0
M  V30 320 O 37.1443 -1.78497 -0.23212 0
M  V30 321 H 33.5193 -0.730858 0.177061 0
M  V30 322 H 35.4903 -2.5781 1.50255 0
M  V30 323 C 34.2393 -3.47688 -0.0289127 0
M  V30 324 H 33.5623 -3.93505 0.706651 0
M  V30 325 H 35.0023 -4.23011 -0.289432 0
M  V30 326 C 33.4613 -3.11817 -1.2756 0
M  V30 327 O 33.9913 -3.2451 -2.36762 0
M  V30 328 N 32.1973 -2.66246 -1.16453 0
M  V30 329 H 31.7443 -2.56118 -0.275914 0
M  V30 330 H 31.7023 -2.42617 -1.99961 0
M  V30 331 N 35.4744 -0.807222 -1.35358 0
M  V30 332 C 36.4374 -0.223665 -2.28106 0
M  V30 333 C 37.4374 0.589354 -1.4961 0
M  V30 334 O 38.6274 0.407745 -1.69361 0
M  V30 335 C 35.7594 0.688149 -3.33882 0
M  V30 336 H 36.9524 -1.04169 -2.81227 0
M  V30 337 H 34.5054 -0.577921 -1.45223 0
M  V30 338 H 35.2404 1.52984 -2.85948 0
M  V30 339 H 35.0254 0.10687 -3.91954 0
M  V30 340 H 36.5154 1.09075 -4.03104 0
M  V30 341 N 36.9525 1.47285 -0.560781 0
M  V30 342 C 37.8845 2.28118 0.222438 0
M  V30 343 C 38.8975 1.37219 0.876056 0
M  V30 344 O 40.0865 1.62011 0.749307 0
M  V30 345 C 37.1865 3.1159 1.33285 0
M  V30 346 C 36.3595 4.30473 0.77534 0
M  V30 347 C 35.4185 4.95513 1.77069 0
M  V30 348 O 34.4445 5.53792 1.31539 0
M  V30 349 N 35.6465 4.90531 3.10418 0
M  V30 350 H 38.4115 2.95976 -0.470958 0
M  V30 351 H 35.9725 1.56955 -0.39709 0
M  V30 352 H 37.9645 3.51967 1.99752 0
M  V30 353 H 36.5345 2.45951 1.92943 0
M  V30 354 H 35.7545 3.94144 -0.0662113 0
M  V30 355 H 37.0425 5.07362 0.382272 0
M  V30 356 H 36.4405 4.44389 3.5005 0
M  V30 357 H 34.9975 5.34917 3.72434 0
M  V30 358 N 38.4306 0.297415 1.54768 0
M  V30 359 C 39.3406 -0.58983 2.27064 0
M  V30 360 C 40.3566 -1.15144 1.30453 0
M  V30 361 O 41.5326 -1.17699 1.63428 0
M  V30 362 C 38.5976 -1.74714 2.9946 0
M  V30 363 C 37.6586 -1.21997 4.11601 0
M  V30 364 C 36.8916 -2.32212 4.80535 0
M  V30 365 O 37.1146 -3.52036 4.48806 0
M  V30 366 O 36.0486 -1.99106 5.68014 0
M  V30 367 H 39.8746 -0.00348199 3.037 0
M  V30 368 H 37.4596 0.0640035 1.49263 0
M  V30 369 H 39.3416 -2.42147 3.44881 0
M  V30 370 H 38.0166 -2.32016 2.25722 0
M  V30 371 H 36.9236 -0.511458 3.70587 0
M  V30 372 H 38.2566 -0.692419 4.87305 0
M  V30 373 N 39.9087 -1.5758 0.0250728 0
M  V30 374 C 41.1547 -1.91917 -0.655413 0
M  V30 375 C 41.4877 -0.901433 -1.72011 0
M  V30 376 O 40.7627 0.0764069 -1.9435 0
M  V30 377 C 41.0457 -3.36751 -1.27558 0
M  V30 378 C 40.8987 -4.49258 -0.220719 0
M  V30 379 C 42.2177 -3.81469 -2.19475 0
M  V30 380 H 39.3367 -0.697925 -0.23679 0
M  V30 381 H 41.9787 -1.89825 0.0815036 0
M  V30 382 H 40.1287 -3.38664 -1.90365 0
M  V30 383 H 41.8007 -4.59478 0.409601 0
M  V30 384 H 40.0437 -4.31415 0.454264 0
M  V30 385 H 40.7147 -5.47618 -0.694175 0
M  V30 386 H 43.1907 -3.81266 -1.66659 0
M  V30 387 H 42.0667 -4.83512 -2.59822 0
M  V30 388 H 42.3277 -3.16744 -3.08424 0
M  V30 389 N 41.3868 0.248026 -1.55636 0
M  V30 390 C 42.3368 1.30994 -1.86614 0
M  V30 391 C 43.3208 1.43543 -0.726918 0
M  V30 392 O 44.5128 1.46804 -0.988818 0
M  V30 393 C 41.6418 2.6656 -2.16335 0
M  V30 394 C 40.7278 2.58019 -3.36581 0
M  V30 395 N 41.1188 2.1911 -4.55878 0
M  V30 396 C 39.4168 2.89035 -3.39669 0
M  V30 397 C 40.1178 2.21174 -5.38012 0
M  V30 398 N 39.0938 2.60632 -4.77045 0
M  V30 399 H 42.8958 0.999583 -2.76379 0
M  V30 400 H 40.4098 0.456652 -1.55848 0
M  V30 401 H 42.4068 3.43194 -2.36692 0
M  V30 402 H 41.0668 2.98463 -1.27867 0
M  V30 403 H 42.0778 1.90672 -4.81523 0
M  V30 404 H 38.7548 3.25485 -2.61469 0
M  V30 405 H 40.1448 1.9344 -6.43452 0
M  V30 406 N 42.8649 1.48995 0.513639 0
M  V30 407 C 44.2809 1.35478 0.843682 0
M  V30 408 C 44.4809 0.378213 1.97919 0
M  V30 409 O 43.5369 -0.194689 2.51748 0
M  V30 410 C 44.8499 2.75901 1.1958 0
M  V30 411 C 46.3979 2.84509 1.30474 0
M  V30 412 C 46.8729 4.25671 1.69021 0
M  V30 413 N 48.3639 4.28422 1.76094 0
M  V30 414 C 49.0989 5.34601 2.07338 0
M  V30 415 N 48.5949 6.5104 2.36894 0
M  V30 416 N 50.3879 5.22007 2.08483 0
M  V30 417 H 42.5389 2.11092 -0.235328 0
M  V30 418 H 44.8019 0.947039 -0.0426669 0
M  V30 419 H 44.5079 3.49001 0.434913 0
M  V30 420 H 44.3819 3.10467 2.1422 0
M  V30 421 H 46.7689 2.11655 2.05637 0
M  V30 422 H 46.8499 2.53542 0.339155 0
M  V30 423 H 46.4939 4.99048 0.944135 0
M  V30 424 H 46.4239 4.54094 2.66658 0
M  V30 425 H 48.9149 3.44441 1.55464 0
M  V30 426 H 49.2279 7.2779 2.59887 0
M  V30 427 H 47.5729 6.54287 2.34378 0
M  V30 428 H 50.7639 4.30051 1.84861 0
M  V30 429 H 50.9369 6.04854 2.325 0
M  V30 430 N 44.343 -0.763751 1.37857 0
M  V30 431 C 45.589 -1.52396 1.3471 0
M  V30 432 C 45.944 -1.92288 -0.0656435 0
M  V30 433 O 45.237 -1.6181 -1.02606 0
M  V30 434 C 45.431 -2.79499 2.22745 0
M  V30 435 C 45.26 -2.52031 3.72438 0
M  V30 436 C 44.03 -2.45759 4.4151 0
M  V30 437 C 46.228 -2.19489 4.65112 0
M  V30 438 N 44.21 -2.1046 5.76697 0
M  V30 439 C 45.581 -1.94396 5.88736 0
M  V30 440 C 47.636 -2.05712 4.53417 0
M  V30 441 C 46.339 -1.56917 7.01975 0
M  V30 442 C 48.365 -1.69634 5.66549 0
M  V30 443 C 47.727 -1.45407 6.89229 0
M  V30 444 H 43.826 -0.55765 0.548225 0
M  V30 445 H 46.41 -0.890302 1.73152 0
M  V30 446 H 44.581 -3.4069 1.86507 0
M  V30 447 H 46.313 -3.45465 2.10798 0
M  V30 448 H 43.068 -2.61885 3.94605 0
M  V30 449 H 43.492 -1.95484 6.48163 0
M  V30 450 H 48.134 -2.23123 3.59133 0
M  V30 451 H 45.852 -1.38246 7.96187 0
M  V30 452 H 49.438 -1.59621 5.59475 0
M  V30 453 H 48.318 -1.17904 7.75286 0
M  V30 454 N 45.8211 -1.22559 -0.990812 0
M  V30 455 C 46.7511 -1.0218 -2.09956 0
M  V30 456 C 47.7321 0.0579394 -1.70001 0
M  V30 457 O 48.9171 -0.104684 -1.93918 0
M  V30 458 C 46.0471 -0.601023 -3.4206 0
M  V30 459 C 45.0011 -1.62694 -3.95872 0
M  V30 460 C 44.3271 -1.06193 -5.24049 0
M  V30 461 C 45.6271 -3.01743 -4.2632 0
M  V30 462 H 47.3211 -1.94916 -2.27262 0
M  V30 463 H 44.8671 -0.938566 -1.09211 0
M  V30 464 H 46.8201 -0.445561 -4.19038 0
M  V30 465 H 45.5441 0.362005 -3.24588 0
M  V30 466 H 44.2031 -1.77021 -3.21028 0
M  V30 467 H 43.8511 -0.0901903 -5.02919 0
M  V30 468 H 43.5511 -1.74732 -5.61019 0
M  V30 469 H 45.0751 -0.918092 -6.03658 0
M  V30 470 H 46.4891 -2.90777 -4.94087 0
M  V30 471 H 44.8861 -3.67425 -4.74467 0
M  V30 472 H 45.9561 -3.51518 -3.34011 0
M  V30 473 N 47.2992 1.18797 -1.03562 0
M  V30 474 C 48.2312 2.21731 -0.580337 0
M  V30 475 C 49.2442 1.59051 0.347349 0
M  V30 476 O 50.4332 1.77929 0.142669 0
M  V30 477 C 47.5332 3.38459 0.172805 0
M  V30 478 C 46.7062 4.3072 -0.761496 0
M  V30 479 C 45.7652 5.26174 -0.0525547 0
M  V30 480 O 44.7912 5.65108 -0.681333 0
M  V30 481 N 45.9932 5.67624 1.21586 0
M  V30 482 H 48.7582 2.61417 -1.46565 0
M  V30 483 H 46.3192 1.33531 -0.915476 0
M  V30 484 H 48.3112 3.99335 0.656793 0
M  V30 485 H 46.8812 2.97507 0.959602 0
M  V30 486 H 46.1012 3.67525 -1.42544 0
M  V30 487 H 47.3892 4.89267 -1.39626 0
M  V30 488 H 46.7872 5.38038 1.74732 0
M  V30 489 H 45.3442 6.30721 1.64421 0
M  V30 490 N 48.7773 0.814389 1.34928 0
M  V30 491 C 50.0023 0.410097 2.03305 0
M  V30 492 C 50.4273 -0.973464 1.60951 0
M  V30 493 O 49.7853 -1.63185 0.789964 0
M  V30 494 C 49.8333 0.51049 3.56968 0
M  V30 495 O 48.9373 -0.473035 4.09678 0
M  V30 496 H 48.2783 0.170088 0.641846 0
M  V30 497 H 50.8083 1.10244 1.72358 0
M  V30 498 H 50.8183 0.383135 4.06197 0
M  V30 499 H 49.4933 1.51963 3.87144 0
M  V30 500 H 48.0703 -0.305272 3.71648 0
M  V30 501 N 50.2554 -1.46986 0.568584 0
M  V30 502 C 51.5024 -2.02441 0.0487986 0
M  V30 503 C 51.8304 -1.44169 -1.30559 0
M  V30 504 O 51.0854 -0.591213 -1.86556 0
M  V30 505 C 51.3844 -3.57306 -0.081836 0
M  V30 506 C 51.0504 -4.34552 1.20313 0
M  V30 507 C 49.7124 -4.55376 1.5552 0
M  V30 508 C 52.0644 -4.79016 2.05411 0
M  V30 509 C 49.3924 -5.17913 2.7565 0
M  V30 510 C 51.7444 -5.42879 3.24754 0
M  V30 511 C 50.4084 -5.61933 3.60261 0
M  V30 512 H 49.6784 -0.740785 0.0178567 0
M  V30 513 H 52.3254 -1.76525 0.742384 0
M  V30 514 H 50.6304 -3.8228 -0.858463 0
M  V30 515 H 52.3274 -3.97876 -0.499546 0
M  V30 516 H 48.9174 -4.18631 0.919014 0
M  V30 517 H 53.1014 -4.62696 1.79516 0
M  V30 518 H 48.3574 -5.30858 3.03315 0
M  V30 519 H 52.5314 -5.76293 3.90973 0
M  V30 520 H 50.1584 -6.10161 4.53439 0
M  V30 521 N 51.7335 -0.305618 -1.54608 0
M  V30 522 C 52.6815 0.584119 -2.25146 0
M  V30 523 C 53.6755 1.13326 -1.25911 0
M  V30 524 O 54.8815 1.08337 -1.43747 0
M  V30 525 H 51.2565 0.206983 -0.722954 0
M  V30 526 H 53.2275 -0.033291 -2.98381 0
M  V30 527 C 51.9765 1.74225 -3.009 0
M  V30 528 H 51.2995 1.32892 -3.77067 0
M  V30 529 H 52.7395 2.34077 -3.53531 0
M  V30 530 C 51.1985 2.64914 -2.0814 0
M  V30 531 O 51.7285 3.66137 -1.65246 0
M  V30 532 N 49.9345 2.3275 -1.74 0
M  V30 533 H 49.4815 1.50479 -2.09078 0
M  V30 534 H 49.4395 2.93694 -1.12211 0
M  V30 535 N 53.2116 1.57565 -0.0334293 0
M  V30 536 C 54.4576 1.93088 0.639417 0
M  V30 537 C 54.8126 0.910589 1.69488 0
M  V30 538 O 54.1056 -0.0727725 1.91462 0
M  V30 539 C 54.2996 3.33112 1.29504 0
M  V30 540 C 54.1286 4.48667 0.304604 0
M  V30 541 C 52.8986 5.05207 -0.0970777 0
M  V30 542 C 55.0966 5.1239 -0.442845 0
M  V30 543 N 53.0786 6.04286 -1.08223 0
M  V30 544 C 54.4496 6.06609 -1.28161 0
M  V30 545 C 56.5046 4.95352 -0.50308 0
M  V30 546 C 55.2076 6.85622 -2.17519 0
M  V30 547 C 57.2336 5.74978 -1.38401 0
M  V30 548 C 56.5956 6.68816 -2.21054 0
M  V30 549 H 52.6946 0.754335 0.206161 0
M  V30 550 H 55.2786 1.94435 -0.101613 0
M  V30 551 H 53.4496 3.32576 2.00618 0
M  V30 552 H 55.1816 3.55972 1.92525 0
M  V30 553 H 51.9366 4.72782 0.278255 0
M  V30 554 H 52.3606 6.58516 -1.57117 0
M  V30 555 H 57.0026 4.22625 0.121694 0
M  V30 556 H 54.7206 7.57652 -2.81049 0
M  V30 557 H 58.3066 5.63826 -1.43496 0
M  V30 558 H 57.1866 7.29355 -2.88116 0
M  V30 559 N 54.6897 -0.239769 1.55765 0
M  V30 560 C 55.9667 -0.990056 1.68693 0
M  V30 561 C 56.3467 -2.03107 0.5754 0
M  V30 562 O 55.6947 -2.24604 -0.42017 0
M  V30 563 C 55.9047 -1.61696 3.09282 0
M  V30 564 C 57.2527 -2.11613 3.6811 0
M  V30 565 O 58.2767 -1.71624 3.12127 0
M  V30 566 O 57.1357 -2.85057 4.66267 0
M  V30 567 H 54.2297 -0.461299 0.686391 0
M  V30 568 H 56.7757 -0.232991 1.68093 0
M  V30 569 H 55.5477 -0.864357 3.81634 0
M  V30 570 H 55.1707 -2.44005 3.13923 0
M  V30 571 N 56.1678 -1.49265 -0.50573 0
M  V30 572 C 57.4148 -1.58513 -1.26015 0
M  V30 573 C 57.7428 -0.26972 -1.92621 0
M  V30 574 O 56.9978 0.741997 -1.81088 0
M  V30 575 C 57.2968 -2.69008 -2.35308 0
M  V30 576 C 56.9628 -4.10662 -1.86192 0
M  V30 577 C 55.6248 -4.49212 -1.72516 0
M  V30 578 C 57.9768 -4.99336 -1.49375 0
M  V30 579 C 55.3048 -5.74214 -1.20394 0
M  V30 580 C 57.6568 -6.24852 -0.987072 0
M  V30 581 C 56.3208 -6.62236 -0.836669 0
M  V30 582 H 55.5908 -0.580041 -0.461122 0
M  V30 583 H 58.2378 -1.83078 -0.561665 0
M  V30 584 H 56.5428 -2.38396 -3.10926 0
M  V30 585 H 58.2398 -2.73373 -2.93374 0
M  V30 586 H 54.8298 -3.8023 -1.97795 0
M  V30 587 H 59.0138 -4.70212 -1.5879 0
M  V30 588 H 54.2698 -6.01883 -1.07458 0
M  V30 589 H 58.4438 -6.92944 -0.692983 0
M  V30 590 H 56.0708 -7.58979 -0.430607 0
M  V30 591 N 57.6459 0.756429 -1.3826 0
M  V30 592 C 58.5929 1.87011 -1.35261 0
M  V30 593 C 59.5629 1.64695 -0.215616 0
M  V30 594 O 60.7479 1.864 -0.407399 0
M  V30 595 C 57.8879 3.24275 -1.18068 0
M  V30 596 C 57.0009 3.58442 -2.41129 0
M  V30 597 C 56.1359 4.84994 -2.16689 0
M  V30 598 C 55.1749 5.11939 -3.35537 0
M  V30 599 N 54.3119 6.29685 -3.10549 0
M  V30 600 H 59.1519 1.8891 -2.30472 0
M  V30 601 H 56.6889 0.923373 -1.14509 0
M  V30 602 H 58.6469 4.03479 -1.06116 0
M  V30 603 H 57.2769 3.21711 -0.264973 0
M  V30 604 H 56.3289 2.74103 -2.63764 0
M  V30 605 H 57.6409 3.74283 -3.29717 0
M  V30 606 H 56.7949 5.72135 -2.01857 0
M  V30 607 H 55.5339 4.71286 -1.25462 0
M  V30 608 H 54.5389 4.23268 -3.50891 0
M  V30 609 H 55.7639 5.27546 -4.27635 0
M  V30 610 H 53.7099 6.17306 -2.21967 0
M  V30 611 H 53.6269 6.46014 -3.92686 0
M  V30 612 H 54.8949 7.19722 -2.99367 0
M  V30 613 N 59.124 1.23083 0.984299 0
M  V30 614 C 60.072 1.00593 2.09723 0
M  V30 615 C 61.066 -0.0538014 1.69315 0
M  V30 616 O 62.272 0.0993719 1.79725 0
M  V30 617 H 58.647 0.30817 0.685956 0
M  V30 618 H 60.618 1.95012 2.2586 0
M  V30 619 C 59.367 0.609601 3.42314 0
M  V30 620 H 58.69 1.41675 3.73856 0
M  V30 621 H 60.13 0.491726 4.21139 0
M  V30 622 C 58.589 -0.681745 3.2993 0
M  V30 623 O 59.119 -1.73192 3.62446 0
M  V30 624 N 57.325 -0.656178 2.83095 0
M  V30 625 H 56.872 0.198759 2.56832 0
M  V30 626 H 56.83 -1.52044 2.75191 0
M  V30 627 N 60.6021 -1.18246 1.0419 0
M  V30 628 C 61.5501 -2.23968 0.627792 0
M  V30 629 C 62.5441 -1.65828 -0.346019 0
M  V30 630 O 63.7501 -1.78733 -0.213175 0
M  V30 631 H 60.1251 -0.728939 0.184802 0
M  V30 632 H 62.0961 -2.56202 1.52981 0
M  V30 633 C 60.8451 -3.47699 0.00796591 0
M  V30 634 H 60.1681 -3.92734 0.748347 0
M  V30 635 H 61.6081 -4.23294 -0.24455 0
M  V30 636 C 60.0671 -3.13153 -1.24246 0
M  V30 637 O 60.5971 -3.27003 -2.33307 0
M  V30 638 N 58.8031 -2.67467 -1.13622 0
M  V30 639 H 58.3501 -2.56396 -0.248734 0
M  V30 640 H 58.3081 -2.44724 -1.97377 0
M  V30 641 N 62.0802 -0.821533 -1.34494 0
M  V30 642 C 63.4962 -0.507117 -1.51329 0
M  V30 643 C 63.6962 0.968964 -1.76673 0
M  V30 644 O 62.7522 1.75348 -1.81685 0
M  V30 645 C 64.0652 -1.36544 -2.67911 0
M  V30 646 C 65.6132 -1.36242 -2.81793 0
M  V30 647 C 66.0882 -2.2052 -4.01416 0
M  V30 648 N 67.5792 -2.18136 -4.08621 0
M  V30 649 C 68.3142 -2.80095 -5.00334 0
M  V30 650 N 67.8102 -3.51039 -5.9728 0
M  V30 651 N 69.6032 -2.69656 -4.93196 0
M  V30 652 H 61.7542 -1.77729 -1.16302 0
M  V30 653 H 64.0172 -0.757291 -0.570276 0
M  V30 654 H 63.7232 -2.41361 -2.55808 0
M  V30 655 H 63.5972 -1.02917 -3.62888 0
M  V30 656 H 65.9842 -0.322041 -2.93338 0
M  V30 657 H 66.0652 -1.73866 -1.87628 0
M  V30 658 H 65.7092 -3.24607 -3.90631 0
M  V30 659 H 65.6392 -1.80247 -4.94791 0
M  V30 660 H 68.1302 -1.6653 -3.39229 0
M  V30 661 H 68.4432 -3.95565 -6.63889 0
M  V30 662 H 66.7882 -3.55145 -5.97409 0
M  V30 663 H 69.9792 -2.13808 -4.16418 0
M  V30 664 H 70.1522 -3.1823 -5.64476 0
M  V30 665 N 63.5583 1.46682 -0.576371 0
M  V30 666 C 64.7863 2.06798 -0.0649635 0
M  V30 667 C 65.2013 1.42612 1.23723 0
M  V30 668 O 64.5583 0.529203 1.74659 0
M  V30 669 C 64.6093 3.6132 0.114202 0
M  V30 670 O 64.3303 4.23104 -1.13644 0
M  V30 671 C 65.8313 4.38349 0.66069 0
M  V30 672 H 63.0513 0.668778 -0.0545616 0
M  V30 673 H 65.5953 1.88404 -0.795237 0
M  V30 674 H 63.7503 3.79162 0.794673 0
M  V30 675 H 64.1643 5.15894 -0.946253 0
M  V30 676 H 65.6383 5.47081 0.73526 0
M  V30 677 H 66.1153 4.05953 1.67627 0
M  V30 678 H 66.7213 4.25297 0.0152951 0
M  V30 679 N 65.0364 0.313813 1.54444 0
M  V30 680 C 65.9834 -0.55655 2.23989 0
M  V30 681 C 66.9534 -1.11943 1.22711 0
M  V30 682 O 68.1384 -1.16158 1.51367 0
M  V30 683 C 65.2784 -1.71635 2.99392 0
M  V30 684 C 64.3914 -1.18364 4.15468 0
M  V30 685 C 63.5264 -2.30834 4.78424 0
M  V30 686 C 62.5654 -1.74762 5.86622 0
M  V30 687 N 61.7024 -2.80855 6.43479 0
M  V30 688 H 66.5424 0.0430893 2.97969 0
M  V30 689 H 64.0794 0.0330359 1.47063 0
M  V30 690 H 66.0374 -2.39868 3.41349 0
M  V30 691 H 64.6674 -2.28742 2.27765 0
M  V30 692 H 63.7194 -0.393163 3.78363 0
M  V30 693 H 65.0314 -0.733262 4.93381 0
M  V30 694 H 64.1854 -3.0699 5.23299 0
M  V30 695 H 62.9244 -2.79204 3.99871 0
M  V30 696 H 61.9294 -0.970995 5.41158 0
M  V30 697 H 63.1544 -1.2728 6.67066 0
M  V30 698 H 61.1004 -3.28535 5.67804 0
M  V30 699 H 61.0174 -2.40351 7.16776 0
M  V30 700 H 62.2854 -3.5687 6.93011 0
M  V30 701 N 66.5145 -1.57545 0.0417849 0
M  V30 702 C 67.7445 -1.96339 -0.642995 0
M  V30 703 C 68.1525 -0.917536 -1.65463 0
M  V30 704 O 67.4955 0.107747 -1.83384 0
M  V30 705 C 67.5575 -3.31333 -1.39494 0
M  V30 706 C 67.2215 -4.53796 -0.540204 0
M  V30 707 C 68.2185 -5.19553 0.189806 0
M  V30 708 C 65.9035 -5.0006 -0.473886 0
M  V30 709 C 67.8975 -6.29904 0.974674 0
M  V30 710 C 65.5845 -6.10289 0.314677 0
M  V30 711 C 66.5825 -6.75072 1.03765 0
M  V30 712 O 66.2705 -7.83183 1.81327 0
M  V30 713 H 66.0025 -0.651241 -0.181277 0
M  V30 714 H 68.5565 -2.05148 0.101665 0
M  V30 715 H 66.7865 -3.19052 -2.18502 0
M  V30 716 H 68.4755 -3.54942 -1.96904 0
M  V30 717 H 69.2415 -4.84774 0.147981 0
M  V30 718 H 65.1205 -4.49433 -1.0262 0
M  V30 719 H 68.6645 -6.80401 1.5395 0
M  V30 720 H 64.5615 -6.44506 0.358174 0
M  V30 721 H 65.3295 -7.99913 1.73438 0
M  V30 722 N 67.9926 0.231505 -1.5589 0
M  V30 723 C 68.9556 1.27028 -1.90779 0
M  V30 724 C 69.9556 1.40308 -0.785507 0
M  V30 725 O 71.1456 1.38744 -1.05336 0
M  V30 726 C 68.2776 2.64566 -2.14983 0
M  V30 727 H 69.4706 0.973017 -2.83677 0
M  V30 728 H 67.0236 0.471486 -1.49019 0
M  V30 729 H 67.7586 2.99406 -1.24604 0
M  V30 730 H 67.5436 2.56305 -2.96732 0
M  V30 731 H 69.0336 3.39543 -2.43105 0
M  V30 732 N 69.4707 1.49531 0.497807 0
M  V30 733 C 70.6987 1.62893 1.27567 0
M  V30 734 C 71.1137 0.301585 1.86376 0
M  V30 735 O 70.4707 -0.713335 1.67982 0
M  V30 736 C 70.5217 2.70013 2.40364 0
M  V30 737 O 70.2427 3.976 1.83972 0
M  V30 738 C 71.7437 2.94109 3.31685 0
M  V30 739 H 68.9637 0.548298 0.386794 0
M  V30 740 H 71.5077 1.95584 0.597245 0
M  V30 741 H 69.6627 2.40092 3.04031 0
M  V30 742 H 70.0767 4.56631 2.58047 0
M  V30 743 H 71.5507 3.72788 4.07104 0
M  V30 744 H 72.0277 2.04147 3.88871 0
M  V30 745 H 72.6337 3.2546 2.73781 0
M  V30 746 N 70.9488 -0.749086 1.3866 0
M  V30 747 C 71.8958 -1.86291 1.36251 0
M  V30 748 C 72.8658 -1.64578 0.224347 0
M  V30 749 O 74.0508 -1.86181 0.417279 0
M  V30 750 C 71.1908 -3.23644 1.19786 0
M  V30 751 C 70.3038 -3.57158 2.43027 0
M  V30 752 C 69.4388 -4.83838 2.19258 0
M  V30 753 C 68.4778 -5.10152 3.38247 0
M  V30 754 N 67.6148 -6.28029 3.13884 0
M  V30 755 H 72.4548 -1.87685 2.3147 0
M  V30 756 H 69.9918 -0.917287 1.14997 0
M  V30 757 H 71.9498 -4.0291 1.08254 0
M  V30 758 H 70.5798 -3.21566 0.282031 0
M  V30 759 H 69.6318 -2.72701 2.65214 0
M  V30 760 H 70.9438 -3.7253 3.31697 0
M  V30 761 H 70.0978 -5.71057 2.04888 0
M  V30 762 H 68.8368 -4.70614 1.2796 0
M  V30 763 H 67.8418 -4.21401 3.53131 0
M  V30 764 H 69.0668 -5.25271 4.30427 0
M  V30 765 H 67.0128 -6.1612 2.25238 0
M  V30 766 H 66.9298 -6.43922 3.96106 0
M  V30 767 H 68.1978 -7.18124 3.03179 0
M  V30 768 N 72.4269 -1.23603 -0.977757 0
M  V30 769 C 73.6569 -1.09487 -1.75203 0
M  V30 770 C 74.0649 0.356321 -1.85814 0
M  V30 771 O 73.4079 1.25816 -1.33851 0
M  V30 772 C 73.4699 -1.64905 -3.19447 0
M  V30 773 C 73.1339 -3.13688 -3.32338 0
M  V30 774 C 74.1309 -4.10953 -3.18455 0
M  V30 775 C 71.8159 -3.53449 -3.56902 0
M  V30 776 C 73.8099 -5.45962 -3.28944 0
M  V30 777 C 71.4969 -4.88602 -3.6703 0
M  V30 778 C 72.4949 -5.84668 -3.53062 0
M  V30 779 O 72.1829 -7.17365 -3.62826 0
M  V30 780 H 71.9149 -0.38367 -0.556573 0
M  V30 781 H 74.4689 -1.6398 -1.23693 0
M  V30 782 H 72.6989 -1.04835 -3.72218 0
M  V30 783 H 74.3879 -1.46226 -3.78646 0
M  V30 784 H 75.1539 -3.81577 -2.99372 0
M  V30 785 H 71.0329 -2.79188 -3.66844 0
M  V30 786 H 74.5769 -6.20925 -3.17958 0
M  V30 787 H 70.4739 -5.17653 -3.85623 0
M  V30 788 H 71.2419 -7.2515 -3.79605 0
M  V30 789 N 73.905 1.17692 -1.04816 0
M  V30 790 C 74.852 2.21581 -0.645797 0
M  V30 791 C 75.822 1.62367 0.350159 0
M  V30 792 O 77.007 1.89254 0.242433 0
M  V30 793 C 74.147 3.45092 -0.0227568 0
M  V30 794 C 73.26 4.18613 -1.06709 0
M  V30 795 C 72.395 5.29602 -0.411767 0
M  V30 796 C 71.434 5.94904 -1.44067 0
M  V30 797 N 70.571 6.97414 -0.809781 0
M  V30 798 H 75.411 2.55353 -1.5362 0
M  V30 799 H 72.948 1.25438 -0.768364 0
M  V30 800 H 74.906 4.15679 0.35588 0
M  V30 801 H 73.536 3.11917 0.831122 0
M  V30 802 H 72.588 3.46779 -1.5636 0
M  V30 803 H 73.9 4.63293 -1.84827 0
M  V30 804 H 73.054 6.06696 0.0206623 0
M  V30 805 H 71.793 4.86045 0.401438 0
M  V30 806 H 70.798 5.16544 -1.88316 0
M  V30 807 H 72.023 6.40542 -2.25571 0
M  V30 808 H 69.969 6.55998 -0.0170186 0
M  V30 809 H 69.886 7.40386 -1.52856 0
M  V30 810 H 71.154 7.78463 -0.401999 0
M  V30 811 N 75.3831 0.828654 1.34056 0
M  V30 812 C 76.3161 0.199763 2.27324 0
M  V30 813 C 77.2941 -0.647168 1.49166 0
M  V30 814 O 78.4781 -0.609661 1.78369 0
M  V30 815 C 75.6051 -0.720455 3.30949 0
M  V30 816 C 74.6511 0.0496888 4.26471 0
M  V30 817 S 75.4841 1.40072 5.16856 0
M  V30 818 C 76.6401 0.485527 6.24014 0
M  V30 819 H 76.8731 0.990478 2.80316 0
M  V30 820 H 74.4061 0.624857 1.41191 0
M  V30 821 H 76.3641 -1.24581 3.91139 0
M  V30 822 H 75.0251 -1.48474 2.76793 0
M  V30 823 H 74.2181 -0.650104 4.9979 0
M  V30 824 H 73.8201 0.505779 3.70564 0
M  V30 825 H 76.1121 -0.320672 6.76741 0
M  V30 826 H 77.0551 1.18856 6.98054 0
M  V30 827 H 77.4631 0.0714109 5.64455 0
M  V30 828 N 76.8612 -1.46375 0.584142 0
M  V30 829 C 77.8242 -2.28784 -0.138108 0
M  V30 830 C 78.8242 -1.38471 -0.817462 0
M  V30 831 O 80.0142 -1.60833 -0.669199 0
M  V30 832 C 77.1462 -3.18892 -1.20503 0
M  V30 833 H 78.3392 -2.94117 0.586127 0
M  V30 834 H 75.8922 -1.52509 0.342171 0
M  V30 835 H 76.6272 -2.58309 -1.96079 0
M  V30 836 H 76.4122 -3.85388 -0.722384 0
M  V30 837 H 77.9022 -3.80914 -1.71155 0
M  V30 838 N 78.3393 -0.321999 -1.54275 0
M  V30 839 C 79.2873 0.560206 -2.25753 0
M  V30 840 C 80.2813 1.11984 -1.27106 0
M  V30 841 O 81.4873 1.06806 -1.44888 0
M  V30 842 H 77.8623 0.199304 -0.725108 0
M  V30 843 H 79.8333 -0.0649365 -2.98329 0
M  V30 844 C 78.5823 1.71023 -3.02731 0
M  V30 845 H 77.9053 1.28885 -3.78456 0
M  V30 846 H 79.3453 2.30314 -3.55993 0
M  V30 847 C 77.8043 2.62692 -2.10938 0
M  V30 848 O 78.3343 3.64364 -1.6912 0
M  V30 849 N 76.5403 2.30891 -1.76459 0
M  V30 850 H 76.0873 1.48253 -2.10663 0
M  V30 851 H 76.0453 2.92487 -1.1532 0
M  V30 852 N 79.8174 1.5752 -0.0501392 0
M  V30 853 C 80.7274 2.14952 0.939827 0
M  V30 854 C 81.7434 1.10706 1.34239 0
M  V30 855 O 82.9194 1.42869 1.41952 0
M  V30 856 C 79.9844 2.68232 2.19665 0
M  V30 857 C 79.0454 3.87272 1.85253 0
M  V30 858 C 78.2784 4.38002 3.04943 0
M  V30 859 O 78.5014 3.87811 4.18281 0
M  V30 860 O 77.4354 5.29602 2.86017 0
M  V30 861 H 81.2614 2.9986 0.481392 0
M  V30 862 H 78.8464 1.4841 0.171699 0
M  V30 863 H 80.7284 3.02475 2.93406 0
M  V30 864 H 79.4034 1.86395 2.64648 0
M  V30 865 H 78.3104 3.5792 1.0883 0
M  V30 866 H 79.6434 4.70336 1.4507 0
M  V30 867 N 81.2955 -0.223234 1.56011 0
M  V30 868 C 82.5235 -0.964812 1.83027 0
M  V30 869 C 82.9385 -1.78013 0.62904 0
M  V30 870 O 82.2955 -1.78008 -0.402414 0
M  V30 871 C 82.3465 -1.88373 3.08542 0
M  V30 872 O 82.0675 -1.10137 4.2403 0
M  V30 873 C 83.5685 -2.73934 3.48533 0
M  V30 874 H 80.7885 -0.282842 0.608475 0
M  V30 875 H 83.3325 -0.238971 2.03099 0
M  V30 876 H 81.4875 -2.56354 2.9045 0
M  V30 877 H 81.9015 -1.72501 4.95322 0
M  V30 878 H 83.3755 -3.34117 4.39397 0
M  V30 879 H 83.8525 -3.46244 2.70207 0
M  V30 880 H 84.4585 -2.11369 3.69057 0
M  V30 881 N 82.7736 -1.49793 -0.48987 0
M  V30 882 C 83.7206 -1.67281 -1.59014 0
M  V30 883 C 84.6906 -0.514177 -1.57941 0
M  V30 884 O 85.8756 -0.742533 -1.75759 0
M  V30 885 C 83.0156 -1.75569 -2.97102 0
M  V30 886 C 82.1286 -3.0281 -3.08107 0
M  V30 887 C 81.2636 -3.02008 -4.36995 0
M  V30 888 C 80.3026 -4.23782 -4.41673 0
M  V30 889 N 79.4396 -4.20826 -5.62005 0
M  V30 890 H 84.2796 -2.61224 -1.43409 0
M  V30 891 H 81.8166 -1.29508 -0.697565 0
M  V30 892 H 83.7746 -1.78354 -3.77155 0
M  V30 893 H 82.4046 -0.850827 -3.11385 0
M  V30 894 H 81.4566 -3.09584 -2.21047 0
M  V30 895 H 82.7686 -3.92801 -3.07423 0
M  V30 896 H 81.9226 -3.03418 -5.25378 0
M  V30 897 H 80.6616 -2.09815 -4.4026 0
M  V30 898 H 79.6666 -4.22604 -3.5169 0
M  V30 899 H 80.8916 -5.17181 -4.40115 0
M  V30 900 H 78.8376 -3.31476 -5.66091 0
M  V30 901 H 78.7546 -5.04564 -5.62984 0
M  V30 902 H 80.0226 -4.26355 -6.52565 0
M  V30 903 N 84.2517 0.741722 -1.39055 0
M  V30 904 C 85.1617 1.88621 -1.39496 0
M  V30 905 C 86.1777 1.71557 -0.290578 0
M  V30 906 O 87.3537 1.94275 -0.530954 0
M  V30 907 C 84.4187 3.24134 -1.23037 0
M  V30 908 C 83.4797 3.5364 -2.43387 0
M  V30 909 C 82.7127 4.82687 -2.27703 0
M  V30 910 O 82.9357 5.55922 -1.27696 0
M  V30 911 O 81.8697 5.1194 -3.16545 0
M  V30 912 H 85.6957 1.91203 -2.35956 0
M  V30 913 H 83.2807 0.888625 -1.20099 0
M  V30 914 H 85.1627 4.0513 -1.15964 0
M  V30 915 H 83.8377 3.22337 -0.296691 0
M  V30 916 H 82.7447 2.72758 -2.56035 0
M  V30 917 H 84.0777 3.60209 -3.35425 0
M  V30 918 N 85.7298 1.2412 0.971189 0
M  V30 919 C 86.6618 0.988349 2.06795 0
M  V30 920 C 87.6748 -0.0409541 1.62748 0
M  V30 921 O 88.8638 0.195673 1.77424 0
M  V30 922 C 85.9638 0.469023 3.35639 0
M  V30 923 C 85.1368 1.56065 4.08611 0
M  V30 924 C 84.1958 1.04458 5.15728 0
M  V30 925 O 83.2218 1.73553 5.42096 0
M  V30 926 N 84.4238 -0.122817 5.8037 0
M  V30 927 H 87.1888 1.93265 2.29061 0
M  V30 928 H 84.7498 1.15102 1.13856 0
M  V30 929 H 86.7418 0.108613 4.04554 0
M  V30 930 H 85.3118 -0.380919 3.1027 0
M  V30 931 H 84.5318 2.09341 3.34021 0
M  V30 932 H 85.8198 2.29449 4.54126 0
M  V30 933 H 85.2178 -0.700563 5.61345 0
M  V30 934 H 83.7748 -0.424404 6.50417 0
M  V30 935 N 87.2079 -1.17134 1.05439 0
M  V30 936 C 88.4549 -1.87456 0.765942 0
M  V30 937 C 88.7829 -1.81189 -0.707153 0
M  V30 938 O 88.0379 -1.21633 -1.5331 0
M  V30 939 C 88.3369 -3.36833 1.19491 0
M  V30 940 C 88.0029 -3.63301 2.67063 0
M  V30 941 C 86.6649 -3.70234 3.07376 0
M  V30 942 C 89.0169 -3.74575 3.62413 0
M  V30 943 C 86.3449 -3.85933 4.41896 0
M  V30 944 C 88.6969 -3.91793 4.9667 0
M  V30 945 C 87.3609 -3.96966 5.36633 0
M  V30 946 H 86.6309 -0.685948 0.280278 0
M  V30 947 H 89.2779 -1.38556 1.32192 0
M  V30 948 H 87.5829 -3.87807 0.557969 0
M  V30 949 H 89.2799 -3.89611 0.948893 0
M  V30 950 H 85.8699 -3.58532 2.34846 0
M  V30 951 H 90.0539 -3.68537 3.32406 0
M  V30 952 H 85.3099 -3.88187 4.72357 0
M  V30 953 H 89.4839 -3.99458 5.70444 0
M  V30 954 H 87.1109 -4.08883 6.40874 0
M  V30 955 N 88.686 -0.835752 -1.33615 0
M  V30 956 C 89.633 -0.26473 -2.29277 0
M  V30 957 C 90.603 0.617712 -1.54187 0
M  V30 958 O 91.788 0.556641 -1.825 0
M  V30 959 C 88.928 0.556777 -3.40579 0
M  V30 960 C 88.041 -0.349339 -4.30585 0
M  V30 961 C 87.176 0.482969 -5.29 0
M  V30 962 C 86.215 -0.421732 -6.10645 0
M  V30 963 N 85.352 0.372262 -7.01112 0
M  V30 964 H 90.192 -1.08582 -2.77514 0
M  V30 965 H 87.729 -0.546927 -1.36554 0
M  V30 966 H 89.687 1.04852 -4.03809 0
M  V30 967 H 88.317 1.34286 -2.93542 0
M  V30 968 H 87.369 -0.959372 -3.68104 0
M  V30 969 H 88.681 -1.04445 -4.87742 0
M  V30 970 H 87.835 1.03866 -5.97743 0
M  V30 971 H 86.574 1.21153 -4.72412 0
M  V30 972 H 85.579 -0.989464 -5.40823 0
M  V30 973 H 86.804 -1.14861 -6.69316 0
M  V30 974 H 84.75 1.08426 -6.46977 0
M  V30 975 H 84.667 -0.264198 -7.55538 0
M  V30 976 H 85.935 0.910293 -7.74167 0
M  V30 977 N 90.1641 1.46063 -0.591896 0
M  V30 978 C 91.0941 2.33172 0.123673 0
M  V30 979 C 92.0751 1.45897 0.87453 0
M  V30 980 O 93.2601 1.74698 0.848181 0
M  V30 981 C 90.3901 3.28336 1.13194 0
M  V30 982 C 89.3441 4.25124 0.495324 0
M  V30 983 C 88.6701 5.09863 1.61071 0
M  V30 984 C 89.9701 5.19143 -0.573425 0
M  V30 985 H 91.6641 2.93252 -0.603646 0
M  V30 986 H 89.2101 1.41014 -0.291741 0
M  V30 987 H 91.1631 3.88137 1.64097 0
M  V30 988 H 89.8871 2.66383 1.88965 0
M  V30 989 H 88.5461 3.66599 0.00729452 0
M  V30 990 H 88.1941 4.44288 2.35832 0
M  V30 991 H 87.8941 5.75417 1.19035 0
M  V30 992 H 89.4181 5.72529 2.12233 0
M  V30 993 H 90.8321 5.73106 -0.1491 0
M  V30 994 H 89.2291 5.93089 -0.914636 0
M  V30 995 H 90.2991 4.62519 -1.45617 0
M  V30 996 N 91.6422 0.330177 1.54103 0
M  V30 997 C 92.8912 -0.271336 1.99867 0
M  V30 998 C 93.2042 -1.52723 1.22209 0
M  V30 999 O 94.4102 -2.20515 1.58383 0
M  V30 1000 C 92.8662 -0.534032 3.55916 0
M  V30 1001 C 92.4742 0.705193 4.42415 0
M  V30 1002 C 94.2182 -1.09514 4.1013 0
M  V30 1003 C 92.1252 0.414035 5.89949 0
M  V30 1004 H 91.0552 -0.105166 0.74663 0
M  V30 1005 H 93.7062 0.443429 1.78062 0
M  V30 1006 H 92.0882 -1.30915 3.73734 0
M  V30 1007 H 93.2622 1.4804 4.36372 0
M  V30 1008 H 91.5772 1.18698 3.99124 0
M  V30 1009 H 94.1742 -1.3277 5.17954 0
M  V30 1010 H 94.5172 -2.04656 3.62521 0
M  V30 1011 H 95.0502 -0.381038 3.95971 0
M  V30 1012 H 91.7892 1.33481 6.41766 0
M  V30 1013 H 91.3092 -0.323336 5.98928 0
M  V30 1014 H 92.9882 0.0263105 6.46995 0
M  V30 1015 N 93.1203 -1.57491 0.0584922 0
M  V30 1016 C 94.0833 -2.1085 -0.898617 0
M  V30 1017 C 95.0833 -1.02964 -1.23511 0
M  V30 1018 O 96.2733 -1.29007 -1.17059 0
M  V30 1019 C 93.4053 -2.59881 -2.20623 0
M  V30 1020 H 94.5983 -2.96715 -0.435936 0
M  V30 1021 H 92.1513 -1.55141 -0.190023 0
M  V30 1022 H 92.8863 -1.77431 -2.71457 0
M  V30 1023 H 92.6713 -3.38727 -1.97501 0
M  V30 1024 H 94.1613 -3.01285 -2.89166 0
M  V30 1025 N 94.5984 0.214957 -1.56127 0
M  V30 1026 C 95.5454 1.26642 -1.92952 0
M  V30 1027 C 96.5154 1.46244 -0.78753 0
M  V30 1028 O 97.7004 1.59704 -1.04399 0
M  V30 1029 C 94.8404 2.6104 -2.25726 0
M  V30 1030 C 93.9534 2.49183 -3.52891 0
M  V30 1031 C 93.0884 3.76149 -3.7508 0
M  V30 1032 C 92.1274 3.59041 -4.95738 0
M  V30 1033 N 91.2644 4.77972 -5.14283 0
M  V30 1034 H 96.1044 0.945384 -2.82607 0
M  V30 1035 H 93.6414 0.455489 -1.3987 0
M  V30 1036 H 95.5994 3.39313 -2.42739 0
M  V30 1037 H 94.2294 2.91227 -1.39236 0
M  V30 1038 H 93.2814 1.6231 -3.44034 0
M  V30 1039 H 94.5934 2.32466 -4.41318 0
M  V30 1040 H 93.7474 4.62865 -3.92226 0
M  V30 1041 H 92.4864 3.95799 -2.84947 0
M  V30 1042 H 91.4914 2.7071 -4.78535 0
M  V30 1043 H 92.7164 3.40856 -5.87362 0
M  V30 1044 H 90.6624 4.97923 -4.27093 0
M  V30 1045 H 90.5794 4.64006 -5.96853 0
M  V30 1046 H 91.8474 5.66096 -5.35869 0
M  V30 1047 N 96.0765 1.50051 0.48192 0
M  V30 1048 C 96.9865 1.7089 1.60728 0
M  V30 1049 C 98.0025 0.591788 1.63627 0
M  V30 1050 O 99.1785 0.868817 1.81696 0
M  V30 1051 C 96.2435 1.78855 2.97005 0
M  V30 1052 C 95.3045 3.02537 3.04581 0
M  V30 1053 C 94.5375 3.10112 4.34357 0
M  V30 1054 O 94.7605 2.24765 5.24249 0
M  V30 1055 O 93.6945 4.02747 4.47301 0
M  V30 1056 H 97.5205 2.66264 1.46072 0
M  V30 1057 H 95.1055 1.34018 0.660264 0
M  V30 1058 H 96.9875 1.86336 3.77964 0
M  V30 1059 H 95.6625 0.866628 3.11883 0
M  V30 1060 H 94.5695 3.00563 2.22739 0
M  V30 1061 H 95.9025 3.94272 2.94636 0
M  V30 1062 N 97.5546 -0.734337 1.39446 0
M  V30 1063 C 98.7846 -1.52137 1.39778 0
M  V30 1064 C 99.1926 -1.89198 -0.00929312 0
M  V30 1065 O 98.5356 -1.54666 -0.991168 0
M  V30 1066 C 98.5976 -2.83762 2.20724 0
M  V30 1067 C 98.2616 -2.69131 3.69347 0
M  V30 1068 C 99.2586 -2.37635 4.62413 0
M  V30 1069 C 96.9436 -2.85982 4.1294 0
M  V30 1070 C 98.9376 -2.23172 5.97054 0
M  V30 1071 C 96.6246 -2.71137 5.47657 0
M  V30 1072 C 97.6226 -2.39777 6.39528 0
M  V30 1073 O 97.3106 -2.25026 7.71763 0
M  V30 1074 H 97.0426 -0.476717 0.479288 0
M  V30 1075 H 99.5966 -0.915012 1.83893 0
M  V30 1076 H 97.8266 -3.4666 1.71359 0
M  V30 1077 H 99.5156 -3.45383 2.13226 0
M  V30 1078 H 100.282 -2.24267 4.30034 0
M  V30 1079 H 96.1606 -3.09383 3.41765 0
M  V30 1080 H 99.7046 -1.98617 6.68728 0
M  V30 1081 H 95.6016 -2.84083 5.79626 0
M  V30 1082 H 96.3696 -2.40091 7.82495 0
M  V30 1083 N 99.0327 -1.24633 -0.964593 0
M  V30 1084 C 99.9957 -1.0424 -2.04124 0
M  V30 1085 C 100.996 0.00137563 -1.608 0
M  V30 1086 O 102.186 -0.239883 -1.7254 0
M  V30 1087 C 99.3177 -0.580588 -3.3592 0
M  V30 1088 H 100.511 -1.99803 -2.23649 0
M  V30 1089 H 98.0637 -1.06899 -1.14027 0
M  V30 1090 H 98.7987 0.3781 -3.22088 0
M  V30 1091 H 98.5837 -1.33398 -3.6871 0
M  V30 1092 H 100.074 -0.459034 -4.15069 0
M  V30 1093 N 100.511 1.16574 -1.06058 0
M  V30 1094 C 101.927 1.3904 -0.783585 0
M  V30 1095 C 102.127 1.91784 0.618145 0
M  V30 1096 O 101.183 2.11511 1.37911 0
M  V30 1097 C 102.496 2.37329 -1.84649 0
M  V30 1098 C 104.044 2.51018 -1.86973 0
M  V30 1099 C 104.519 3.52588 -2.92311 0
M  V30 1100 N 106.01 3.60113 -2.91329 0
M  V30 1101 C 106.745 4.38486 -3.69482 0
M  V30 1102 N 106.241 5.20302 -4.57447 0
M  V30 1103 N 108.034 4.33446 -3.57885 0
M  V30 1104 H 100.185 0.806725 -1.96483 0
M  V30 1105 H 102.448 0.417117 -0.851303 0
M  V30 1106 H 102.154 2.05663 -2.85299 0
M  V30 1107 H 102.028 3.36946 -1.6955 0
M  V30 1108 H 104.415 2.81989 -0.869827 0
M  V30 1109 H 104.496 1.51445 -2.0615 0
M  V30 1110 H 104.14 3.22354 -3.92492 0
M  V30 1111 H 104.07 4.51886 -2.70383 0
M  V30 1112 H 106.561 3.01707 -2.27555 0
M  V30 1113 H 106.874 5.77311 -5.13743 0
M  V30 1114 H 105.219 5.19653 -4.61503 0
M  V30 1115 H 108.41 3.68586 -2.88551 0
M  V30 1116 H 108.583 4.94279 -4.19037 0
M  V30 1117 N 101.989 0.842826 1.3317 0
M  V30 1118 C 102.922 0.223862 2.27099 0
M  V30 1119 C 103.9 -0.631311 1.49844 0
M  V30 1120 O 105.084 -0.590708 1.79005 0
M  V30 1121 C 102.211 -0.685313 3.31694 0
M  V30 1122 C 101.257 0.094919 4.26394 0
M  V30 1123 S 102.09 1.45546 5.15341 0
M  V30 1124 C 103.246 0.551685 6.23464 0
M  V30 1125 H 103.479 1.02015 2.79249 0
M  V30 1126 H 101.012 0.639797 1.4052 0
M  V30 1127 H 102.97 -1.20426 3.92438 0
M  V30 1128 H 101.631 -1.4553 2.78352 0
M  V30 1129 H 100.824 -0.597059 5.00451 0
M  V30 1130 H 100.426 0.545054 3.70007 0
M  V30 1131 H 102.718 -0.248877 6.77043 0
M  V30 1132 H 103.661 1.26253 6.96754 0
M  V30 1133 H 104.069 0.131275 5.64347 0
M  V30 1134 N 103.467 -1.45747 0.599634 0
M  V30 1135 C 104.377 -2.34262 -0.125888 0
M  V30 1136 C 105.393 -1.50768 -0.868625 0
M  V30 1137 O 106.569 -1.83592 -0.828003 0
M  V30 1138 C 103.634 -3.28252 -1.11587 0
M  V30 1139 C 102.695 -4.27651 -0.375956 0
M  V30 1140 C 101.928 -5.1715 -1.31877 0
M  V30 1141 O 102.151 -5.09916 -2.55621 0
M  V30 1142 O 101.085 -5.96286 -0.820157 0
M  V30 1143 H 104.911 -2.97688 0.601315 0
M  V30 1144 H 102.496 -1.44999 0.359934 0
M  V30 1145 H 104.378 -3.86191 -1.68626 0
M  V30 1146 H 103.053 -2.67401 -1.82424 0
M  V30 1147 H 101.96 -3.7335 0.236698 0
M  V30 1148 H 103.293 -4.91334 0.29177 0
M  V30 1149 N 104.945 -0.338344 -1.53925 0
M  V30 1150 C 105.908 0.508299 -2.23493 0
M  V30 1151 C 106.908 1.03175 -1.23335 0
M  V30 1152 O 108.098 0.921826 -1.47811 0
M  V30 1153 C 105.23 1.70754 -2.95052 0
M  V30 1154 H 106.423 -0.100058 -2.99733 0
M  V30 1155 H 103.976 -0.0896198 -1.56043 0
M  V30 1156 H 104.711 2.35474 -2.22986 0
M  V30 1157 H 104.496 1.33946 -3.68512 0
M  V30 1158 H 105.986 2.30818 -3.48013 0
M  V30 1159 N 106.423 1.57458 -0.0668435 0
M  V30 1160 C 107.669 1.93587 0.6043 0
M  V30 1161 C 108.002 0.946722 1.69561 0
M  V30 1162 O 107.277 -0.0248516 1.94484 0
M  V30 1163 C 107.56 3.40014 1.18585 0
M  V30 1164 C 107.413 4.49685 0.101529 0
M  V30 1165 C 108.732 3.87154 2.09284 0
M  V30 1166 H 105.851 0.703958 0.218202 0
M  V30 1167 H 108.493 1.89542 -0.131804 0
M  V30 1168 H 106.643 3.43592 1.81319 0
M  V30 1169 H 108.315 4.5823 -0.531279 0
M  V30 1170 H 106.558 4.30059 -0.568487 0
M  V30 1171 H 107.229 5.49266 0.54874 0
M  V30 1172 H 109.705 3.85551 1.56491 0
M  V30 1173 H 108.581 4.90231 2.46911 0
M  V30 1174 H 108.842 3.2481 2.99918 0
M  V30 1175 N 107.901 -0.206675 1.56239 0
M  V30 1176 C 108.848 -1.25617 1.93621 0
M  V30 1177 C 109.818 -1.45824 0.795274 0
M  V30 1178 O 111.003 -1.59148 1.05245 0
M  V30 1179 C 108.143 -2.59839 2.27107 0
M  V30 1180 C 107.256 -2.47308 3.54207 0
M  V30 1181 C 106.391 -3.74155 3.7707 0
M  V30 1182 C 105.43 -3.56407 4.97635 0
M  V30 1183 N 104.567 -4.75238 5.1681 0
M  V30 1184 H 109.407 -0.930383 2.83104 0
M  V30 1185 H 106.944 -0.448065 1.4011 0
M  V30 1186 H 108.902 -3.38021 2.44535 0
M  V30 1187 H 107.532 -2.90485 1.40778 0
M  V30 1188 H 106.584 -1.60483 3.4489 0
M  V30 1189 H 107.896 -2.30122 4.42544 0
M  V30 1190 H 107.05 -4.60778 3.94675 0
M  V30 1191 H 105.789 -3.94282 2.87042 0
M  V30 1192 H 104.794 -2.68168 4.79964 0
M  V30 1193 H 106.019 -3.37736 5.89161 0
M  V30 1194 H 103.965 -4.95651 4.29728 0
M  V30 1195 H 103.882 -4.60835 5.99306 0
M  V30 1196 H 105.15 -5.63246 5.38864 0
M  V30 1197 N 109.379 -1.50304 -0.473955 0
M  V30 1198 C 110.656 -1.51667 -1.23518 0
M  V30 1199 C 111.036 -0.259701 -2.09496 0
M  V30 1200 O 110.384 0.756986 -2.15597 0
M  V30 1201 C 110.594 -2.81082 -2.06868 0
M  V30 1202 C 111.942 -3.31631 -2.65153 0
M  V30 1203 O 112.966 -2.82384 -2.17113 0
M  V30 1204 O 111.825 -4.17471 -3.52675 0
M  V30 1205 H 108.919 -0.60822 -0.560355 0
M  V30 1206 H 111.465 -1.62592 -0.486011 0
M  V30 1207 H 110.237 -3.64041 -1.4349 0
M  V30 1208 H 109.86 -2.73146 -2.88924 0
M  V30 1209 N 110.857 0.726932 -1.39834 0
M  V30 1210 C 111.767 1.87131 -1.41489 0
M  V30 1211 C 112.783 1.71239 -0.308757 0
M  V30 1212 O 113.959 1.93701 -0.551529 0
M  V30 1213 C 111.024 3.22811 -1.26468 0
M  V30 1214 C 110.085 3.51039 -2.47124 0
M  V30 1215 C 109.318 4.80245 -2.3281 0
M  V30 1216 O 109.541 5.54537 -1.33585 0
M  V30 1217 O 108.475 5.08554 -3.21957 0
M  V30 1218 H 112.301 1.8869 -2.3797 0
M  V30 1219 H 109.886 0.875837 -1.21035 0
M  V30 1220 H 111.768 4.03877 -1.20255 0
M  V30 1221 H 110.443 3.22005 -0.330862 0
M  V30 1222 H 109.35 2.70027 -2.58914 0
M  V30 1223 H 110.683 3.56632 -3.39227 0
M  V30 1224 N 112.336 1.25143 0.95797 0
M  V30 1225 C 113.752 1.01892 1.22842 0
M  V30 1226 C 113.952 -0.266311 1.99732 0
M  V30 1227 O 113.008 -0.979913 2.3271 0
M  V30 1228 C 114.321 2.24004 2.00606 0
M  V30 1229 C 115.869 2.28731 2.13662 0
M  V30 1230 C 116.344 3.5049 2.94823 0
M  V30 1231 N 117.835 3.50866 3.02403 0
M  V30 1232 C 118.57 4.4174 3.65586 0
M  V30 1233 N 118.066 5.42882 4.30408 0
M  V30 1234 N 119.859 4.29429 3.62694 0
M  V30 1235 H 112.01 2.07718 0.443493 0
M  V30 1236 H 114.273 0.912031 0.258657 0
M  V30 1237 H 113.979 3.17395 1.51503 0
M  V30 1238 H 113.853 2.26907 3.01319 0
M  V30 1239 H 116.24 1.35865 2.61963 0
M  V30 1240 H 116.321 2.29848 1.12265 0
M  V30 1241 H 115.965 4.43676 2.47213 0
M  V30 1242 H 115.895 3.46617 3.96439 0
M  V30 1243 H 118.386 2.777 2.56302 0
M  V30 1244 H 118.699 6.0844 4.76467 0
M  V30 1245 H 117.044 5.46758 4.29047 0
M  V30 1246 H 120.235 3.49643 3.11236 0
M  V30 1247 H 120.408 5.00448 4.1165 0
M  V30 1248 N 113.814 -1.1601 1.06675 0
M  V30 1249 C 114.746 -2.20115 0.638921 0
M  V30 1250 C 115.759 -1.59916 -0.305057 0
M  V30 1251 O 116.948 -1.78245 -0.0954446 0
M  V30 1252 C 114.048 -3.38798 -0.0830083 0
M  V30 1253 C 113.221 -4.2855 0.875426 0
M  V30 1254 C 112.28 -5.25849 0.192042 0
M  V30 1255 O 111.306 -5.63102 0.830921 0
M  V30 1256 N 112.508 -5.70648 -1.06493 0
M  V30 1257 H 115.273 -2.57439 1.53444 0
M  V30 1258 H 112.834 -1.31057 0.950557 0
M  V30 1259 H 114.826 -4.00936 -0.550685 0
M  V30 1260 H 113.396 -2.99947 -0.880386 0
M  V30 1261 H 112.616 -3.63617 1.52238 0
M  V30 1262 H 113.904 -4.85393 1.52548 0
M  V30 1263 H 113.302 -5.42482 -1.60405 0
M  V30 1264 H 111.859 -6.34859 -1.47641 0
M  V30 1265 N 115.292 -0.849877 -1.32721 0
M  V30 1266 C 116.539 -0.450923 -1.97416 0
M  V30 1267 C 116.867 0.992376 -1.67279 0
M  V30 1268 O 116.122 1.71048 -0.950845 0
M  V30 1269 C 116.421 -0.631272 -3.51781 0
M  V30 1270 C 116.087 -2.04432 -4.01894 0
M  V30 1271 C 114.749 -2.4308 -4.1529 0
M  V30 1272 C 117.101 -2.96679 -4.28522 0
M  V30 1273 C 114.429 -3.73257 -4.52654 0
M  V30 1274 C 116.781 -4.26349 -4.67343 0
M  V30 1275 C 115.445 -4.64939 -4.78945 0
M  V30 1276 H 114.715 -0.165004 -0.722395 0
M  V30 1277 H 117.362 -1.07901 -1.58207 0
M  V30 1278 H 115.667 0.0800767 -3.91718 0
M  V30 1279 H 117.364 -0.302709 -3.99856 0
M  V30 1280 H 113.954 -1.73419 -3.91949 0
M  V30 1281 H 118.138 -2.68054 -4.17685 0
M  V30 1282 H 113.394 -4.02946 -4.59831 0
M  V30 1283 H 117.568 -4.97895 -4.86902 0
M  V30 1284 H 115.195 -5.65855 -5.07654 0
M  V30 1285 N 116.77 1.45427 -0.607355 0
M  V30 1286 C 118.018 2.01841 -0.102253 0
M  V30 1287 C 118.339 1.47832 1.27164 0
M  V30 1288 O 117.609 0.672497 1.83995 0
M  V30 1289 H 116.189 0.746188 -0.0348101 0
M  V30 1290 H 118.851 1.78229 -0.7887 0
M  V30 1291 H 117.947 3.12057 -0.0518585 0
M  V30 1292 N 118.248 0.346503 1.53744 0
M  V30 1293 C 119.473 -0.253074 2.0585 0
M  V30 1294 C 119.898 -1.43202 1.21962 0
M  V30 1295 O 119.256 -1.79783 0.234073 0
M  V30 1296 C 119.304 -0.643193 3.54817 0
M  V30 1297 O 118.408 -1.74286 3.73762 0
M  V30 1298 H 117.749 -0.0413583 0.662711 0
M  V30 1299 H 120.279 0.501574 1.98357 0
M  V30 1300 H 120.289 -0.919526 3.97503 0
M  V30 1301 H 118.964 0.218966 4.15323 0
M  V30 1302 H 117.541 -1.46356 3.42979 0
M  V30 1303 N 119.726 -1.57421 0.075193 0
M  V30 1304 C 120.656 -2.15942 -0.888324 0
M  V30 1305 C 121.637 -1.08737 -1.30806 0
M  V30 1306 O 122.822 -1.36787 -1.37851 0
M  V30 1307 C 119.952 -2.72379 -2.1547 0
M  V30 1308 C 118.906 -3.8478 -1.87425 0
M  V30 1309 C 118.232 -4.27834 -3.20721 0
M  V30 1310 C 119.532 -5.08869 -1.17684 0
M  V30 1311 H 121.226 -2.96705 -0.400799 0
M  V30 1312 H 118.772 -1.42723 -0.191342 0
M  V30 1313 H 120.725 -3.11965 -2.83295 0
M  V30 1314 H 119.449 -1.88841 -2.6647 0
M  V30 1315 H 118.108 -3.45703 -1.22004 0
M  V30 1316 H 117.756 -3.41214 -3.6957 0
M  V30 1317 H 117.456 -5.03605 -3.02746 0
M  V30 1318 H 118.98 -4.70039 -3.89738 0
M  V30 1319 H 120.394 -5.4575 -1.75584 0
M  V30 1320 H 118.791 -5.8994 -1.09956 0
M  V30 1321 H 119.861 -4.84648 -0.156453 0
M  V30 1322 N 121.204 0.198386 -1.56346 0
M  V30 1323 C 122.136 1.26987 -1.90806 0
M  V30 1324 C 123.149 1.41877 -0.798419 0
M  V30 1325 O 124.338 1.42362 -1.07682 0
M  V30 1326 C 121.438 2.64246 -2.12196 0
M  V30 1327 C 120.611 2.71007 -3.43328 0
M  V30 1328 C 119.67 3.89439 -3.5387 0
M  V30 1329 O 118.696 3.76695 -4.26719 0
M  V30 1330 N 119.898 5.04752 -2.86715 0
M  V30 1331 H 122.663 0.977433 -2.83313 0
M  V30 1332 H 120.224 0.388322 -1.57174 0
M  V30 1333 H 122.216 3.41896 -2.1654 0
M  V30 1334 H 120.786 2.85992 -1.26204 0
M  V30 1335 H 120.006 1.79657 -3.50881 0
M  V30 1336 H 121.294 2.72512 -4.29668 0
M  V30 1337 H 120.692 5.18004 -2.2735 0
M  V30 1338 H 119.249 5.8036 -2.96691 0
M  V30 1339 N 122.682 1.50554 0.465978 0
M  V30 1340 C 123.959 1.5232 1.22712 0
M  V30 1341 C 124.339 0.270807 2.09356 0
M  V30 1342 O 123.687 -0.745541 2.15995 0
M  V30 1343 C 123.897 2.82175 2.05374 0
M  V30 1344 C 125.245 3.33033 2.6339 0
M  V30 1345 O 126.269 2.83531 2.15612 0
M  V30 1346 O 125.128 4.19336 3.50456 0
M  V30 1347 H 122.222 0.611183 0.557122 0
M  V30 1348 H 124.768 1.62847 0.477381 0
M  V30 1349 H 123.54 3.64797 1.41558 0
M  V30 1350 H 123.163 2.74675 2.87471 0
M  V30 1351 N 124.16 -0.719506 1.40217 0
M  V30 1352 C 125.123 -1.8153 1.39927 0
M  V30 1353 C 126.123 -1.58095 0.293723 0
M  V30 1354 O 127.313 -1.65209 0.552429 0
M  V30 1355 C 124.445 -3.19561 1.18716 0
M  V30 1356 H 125.638 -1.83186 2.37451 0
M  V30 1357 H 123.191 -0.924746 1.26008 0
M  V30 1358 H 123.926 -3.23557 0.219366 0
M  V30 1359 H 123.711 -3.3797 1.98793 0
M  V30 1360 H 125.201 -3.99598 1.21291 0
M  V30 1361 N 125.638 -1.25649 -0.95132 0
M  V30 1362 C 126.568 -1.08808 -2.06599 0
M  V30 1363 C 127.549 0.00382547 -1.701 0
M  V30 1364 O 128.734 -0.166325 -1.93486 0
M  V30 1365 C 125.864 -0.709542 -3.39975 0
M  V30 1366 C 124.818 -1.75206 -3.90496 0
M  V30 1367 C 124.144 -1.22811 -5.20405 0
M  V30 1368 C 125.444 -3.15153 -4.16504 0
M  V30 1369 H 127.138 -2.02048 -2.20946 0
M  V30 1370 H 124.684 -0.972835 -1.06169 0
M  V30 1371 H 126.637 -0.578649 -4.17408 0
M  V30 1372 H 125.361 0.258556 -3.25575 0
M  V30 1373 H 124.02 -1.87145 -3.15234 0
M  V30 1374 H 123.668 -0.250145 -5.02378 0
M  V30 1375 H 123.368 -1.92492 -5.55176 0
M  V30 1376 H 124.892 -1.10968 -6.00432 0
M  V30 1377 H 126.306 -3.06349 -4.84586 0
M  V30 1378 H 124.703 -3.82333 -4.62538 0
M  V30 1379 H 125.773 -3.61966 -3.22658 0
M  V30 1380 N 127.117 1.15442 -1.07289 0
M  V30 1381 C 128.345 1.90096 -0.81676 0
M  V30 1382 C 128.76 1.7798 0.629966 0
M  V30 1383 O 128.117 1.1313 1.43206 0
M  V30 1384 C 128.168 3.40466 -1.21512 0
M  V30 1385 O 127.889 3.52232 -2.60508 0
M  V30 1386 C 129.39 4.32145 -0.988198 0
M  V30 1387 H 126.61 0.602495 -0.295366 0
M  V30 1388 H 129.154 1.4627 -1.42918 0
M  V30 1389 H 127.309 3.81958 -0.647039 0
M  V30 1390 H 127.723 4.45549 -2.76742 0
M  V30 1391 H 129.197 5.36072 -1.31645 0
M  V30 1392 H 129.674 4.39135 0.0755063 0
M  V30 1393 H 130.28 3.96395 -1.54115 0
M  V30 1394 N 128.595 0.856903 1.32268 0
M  V30 1395 C 130.011 0.547061 1.49931 0
M  V30 1396 C 130.211 -0.921781 1.7918 0
M  V30 1397 O 129.267 -1.70469 1.8627 0
M  V30 1398 C 130.58 1.43599 2.64196 0
M  V30 1399 C 132.128 1.43665 2.78081 0
M  V30 1400 C 132.603 2.31085 3.95428 0
M  V30 1401 N 134.094 2.28893 4.02694 0
M  V30 1402 C 134.829 2.93262 4.92732 0
M  V30 1403 N 134.325 3.66751 5.87763 0
M  V30 1404 N 136.118 2.82638 4.85873 0
M  V30 1405 H 128.269 1.8075 1.11549 0
M  V30 1406 H 130.532 0.772144 0.549997 0
M  V30 1407 H 130.238 2.48058 2.49319 0
M  V30 1408 H 130.112 1.12502 3.60032 0
M  V30 1409 H 132.499 0.399701 2.92381 0
M  V30 1410 H 132.58 1.7878 1.82952 0
M  V30 1411 H 132.224 3.34849 3.81888 0
M  V30 1412 H 132.154 1.93302 4.89839 0
M  V30 1413 H 134.645 1.75466 3.34694 0
M  V30 1414 H 134.958 4.13027 6.53168 0
M  V30 1415 H 133.303 3.70859 5.87783 0
M  V30 1416 H 136.494 2.24774 4.10602 0
M  V30 1417 H 136.667 3.33084 5.55841 0
M  V30 1418 N 130.073 -1.45103 0.615059 0
M  V30 1419 C 131.003 -2.33339 -0.0865619 0
M  V30 1420 C 131.984 -1.4727 -0.851209 0
M  V30 1421 O 133.169 -1.76026 -0.820281 0
M  V30 1422 C 130.299 -3.30095 -1.07956 0
M  V30 1423 C 129.253 -4.25858 -0.427628 0
M  V30 1424 C 128.579 -5.12361 -1.5294 0
M  V30 1425 C 129.879 -5.18165 0.655944 0
M  V30 1426 H 131.573 -2.92254 0.650224 0
M  V30 1427 H 129.119 -1.40532 0.314138 0
M  V30 1428 H 131.072 -3.90698 -1.57901 0
M  V30 1429 H 129.796 -2.69355 -1.84703 0
M  V30 1430 H 128.455 -3.66564 0.0510292 0
M  V30 1431 H 128.103 -4.47984 -2.28734 0
M  V30 1432 H 127.803 -5.77238 -1.09865 0
M  V30 1433 H 129.327 -5.75833 -2.03098 0
M  V30 1434 H 130.741 -5.72796 0.240257 0
M  V30 1435 H 129.138 -5.91559 1.00888 0
M  V30 1436 H 130.208 -4.60144 1.52957 0
M  V30 1437 N 131.551 -0.354651 -1.53558 0
M  V30 1438 C 132.499 0.512195 -2.26891 0
M  V30 1439 C 133.493 1.09263 -1.29452 0
M  V30 1440 O 134.699 1.03709 -1.47121 0
M  V30 1441 H 131.074 0.183878 -0.729173 0
M  V30 1442 H 133.045 -0.128202 -2.98124 0
M  V30 1443 C 131.794 1.64563 -3.06291 0
M  V30 1444 H 131.117 1.20829 -3.81104 0
M  V30 1445 H 132.557 2.22711 -3.60799 0
M  V30 1446 C 131.016 2.58158 -2.16462 0
M  V30 1447 O 131.546 3.60695 -1.76811 0
M  V30 1448 N 129.752 2.27096 -1.81317 0
M  V30 1449 H 129.299 1.43751 -2.1376 0
M  V30 1450 H 129.257 2.89975 -1.21498 0
M  V30 1451 N 133.029 1.57378 -0.0835403 0
M  V30 1452 C 133.992 2.12252 0.864959 0
M  V30 1453 C 134.992 1.04916 1.21858 0
M  V30 1454 O 136.182 1.30853 1.14991 0
M  V30 1455 C 133.314 2.63358 2.16461 0
M  V30 1456 H 134.507 2.97371 0.388676 0
M  V30 1457 H 132.06 1.55423 0.165317 0
M  V30 1458 H 132.795 1.81727 2.686 0
M  V30 1459 H 132.58 3.41826 1.92087 0
M  V30 1460 H 134.07 3.05847 2.84337 0
M  V30 1461 N 134.507 -0.190092 1.56449 0
M  V30 1462 C 135.755 -0.907908 1.80559 0
M  V30 1463 C 136.076 -1.83583 0.657438 0
M  V30 1464 O 135.346 -1.93203 -0.323924 0
M  V30 1465 H 133.926 -0.338247 0.666032 0
M  V30 1466 H 136.588 -0.194403 1.93928 0
M  V30 1467 H 135.684 -1.49604 2.73907 0
M  V30 1468 N 135.985 -1.50799 -0.457987 0
M  V30 1469 C 137.231 -1.62683 -1.21088 0
M  V30 1470 C 137.564 -0.332268 -1.91336 0
M  V30 1471 O 136.839 0.667043 -1.82704 0
M  V30 1472 C 137.122 -2.81615 -2.24422 0
M  V30 1473 C 136.975 -4.20989 -1.58392 0
M  V30 1474 C 138.294 -2.96085 -3.2561 0
M  V30 1475 H 135.413 -0.592087 -0.438864 0
M  V30 1476 H 138.055 -1.83225 -0.50286 0
M  V30 1477 H 136.205 -2.64231 -2.84806 0
M  V30 1478 H 137.877 -4.49994 -1.01504 0
M  V30 1479 H 136.12 -4.24641 -0.886704 0
M  V30 1480 H 136.791 -5.0016 -2.33547 0
M  V30 1481 H 139.267 -3.12042 -2.75262 0
M  V30 1482 H 138.143 -3.80902 -3.95228 0
M  V30 1483 H 138.404 -2.0726 -3.90507 0
M  V30 1484 N 137.463 0.71206 -1.40597 0
M  V30 1485 C 138.879 1.02058 -1.22704 0
M  V30 1486 C 139.079 2.01228 -0.104729 0
M  V30 1487 O 138.135 2.4674 0.53624 0
M  V30 1488 C 139.448 1.56094 -2.57012 0
M  V30 1489 C 140.996 1.6806 -2.64054 0
M  V30 1490 C 141.471 2.25501 -3.9864 0
M  V30 1491 N 142.962 2.32882 -4.004 0
M  V30 1492 C 143.697 2.78317 -5.01325 0
M  V30 1493 N 143.193 3.23478 -6.12645 0
M  V30 1494 N 144.986 2.77733 -4.88693 0
M  V30 1495 H 137.137 0.0547896 -2.12329 0
M  V30 1496 H 139.4 0.0869027 -0.944008 0
M  V30 1497 H 139.106 0.906865 -3.39807 0
M  V30 1498 H 138.98 2.54564 -2.78347 0
M  V30 1499 H 141.367 2.32583 -1.81629 0
M  V30 1500 H 141.448 0.681802 -2.46546 0
M  V30 1501 H 141.092 1.61598 -4.81506 0
M  V30 1502 H 141.022 3.26102 -4.13479 0
M  V30 1503 H 143.513 2.00991 -3.20017 0
M  V30 1504 H 143.826 3.56725 -6.85542 0
M  V30 1505 H 142.171 3.21429 -6.16205 0
M  V30 1506 H 145.362 2.4179 -4.00818 0
M  V30 1507 H 145.535 3.12826 -5.67489 0
M  V30 1508 N 138.941 1.26152 0.944643 0
M  V30 1509 C 140.187 1.11657 1.69294 0
M  V30 1510 C 140.52 -0.339926 1.91202 0
M  V30 1511 O 139.795 -1.24994 1.49019 0
M  V30 1512 C 140.078 1.88236 3.06984 0
M  V30 1513 C 139.931 3.41772 2.92424 0
M  V30 1514 C 141.25 1.67343 4.07043 0
M  V30 1515 H 138.369 0.407004 0.614424 0
M  V30 1516 H 141.011 1.55106 1.09737 0
M  V30 1517 H 139.161 1.51308 3.57824 0
M  V30 1518 H 140.833 3.88433 2.48832 0
M  V30 1519 H 139.076 3.68974 2.28124 0
M  V30 1520 H 139.747 3.90579 3.90067 0
M  V30 1521 H 142.223 1.99509 3.65151 0
M  V30 1522 H 141.099 2.23346 5.01406 0
M  V30 1523 H 141.36 0.617158 4.37771 0
M  V30 1524 N 140.419 -1.14872 1.07899 0
M  V30 1525 C 141.369 -2.17809 0.674027 0
M  V30 1526 C 142.353 -1.58008 -0.303699 0
M  V30 1527 O 143.545 -1.76616 -0.11654 0
M  V30 1528 C 140.674 -3.43208 0.0793318 0
M  V30 1529 C 139.76 -4.10051 1.08253 0
M  V30 1530 N 140.151 -4.52296 2.2641 0
M  V30 1531 C 138.449 -4.36469 0.917124 0
M  V30 1532 C 139.15 -5.04199 2.901 0
M  V30 1533 N 138.126 -4.98088 2.17736 0
M  V30 1534 H 141.928 -2.48207 1.57386 0
M  V30 1535 H 139.442 -1.315 0.952976 0
M  V30 1536 H 141.439 -4.16272 -0.228719 0
M  V30 1537 H 140.099 -3.14291 -0.815551 0
M  V30 1538 H 141.11 -4.45504 2.64096 0
M  V30 1539 H 137.787 -4.17432 0.0756078 0
M  V30 1540 H 139.177 -5.46802 3.90458 0
M  V30 1541 N 141.898 -0.863906 -1.31812 0
M  V30 1542 C 143.309 -0.52522 -1.7916 0
M  V30 1543 C 143.66 0.957518 -1.71248 0
M  V30 1544 O 142.785 1.74734 -1.27659 0
M  V30 1545 C 143.38 -0.9466 -3.25307 0
M  V30 1546 C 141.939 -0.659668 -3.70574 0
M  V30 1547 C 141.086 -1.14126 -2.52726 0
M  V30 1548 H 144.037 -1.05022 -1.1898 0
M  V30 1549 H 144.058 -0.266766 -3.79564 0
M  V30 1550 H 143.57 -2.02579 -3.31034 0
M  V30 1551 H 141.671 0.408416 -3.70355 0
M  V30 1552 H 141.784 -1.23245 -4.62977 0
M  V30 1553 H 140.148 -0.561216 -2.4844 0
M  V30 1554 H 140.931 -2.22775 -2.61201 0
M  V30 1555 N 143.376 1.44774 -0.622745 0
M  V30 1556 C 144.323 2.30635 0.0871679 0
M  V30 1557 C 145.293 1.42994 0.845097 0
M  V30 1558 O 146.478 1.71907 0.827812 0
M  V30 1559 C 143.618 3.28144 1.06844 0
M  V30 1560 C 142.731 4.30888 0.309809 0
M  V30 1561 C 141.866 5.15494 1.28215 0
M  V30 1562 C 140.905 6.09953 0.512198 0
M  V30 1563 N 140.042 6.87287 1.43458 0
M  V30 1564 H 144.882 2.90803 -0.650974 0
M  V30 1565 H 142.419 1.43286 -0.33281 0
M  V30 1566 H 144.377 3.83157 1.65066 0
M  V30 1567 H 143.007 2.69695 1.77382 0
M  V30 1568 H 142.059 3.78414 -0.388181 0
M  V30 1569 H 143.371 4.97955 -0.290254 0
M  V30 1570 H 142.525 5.74983 1.93596 0
M  V30 1571 H 141.264 4.48481 1.91614 0
M  V30 1572 H 140.269 5.49581 -0.155151 0
M  V30 1573 H 141.494 6.78999 -0.116958 0
M  V30 1574 H 139.44 6.2295 2.05594 0
M  V30 1575 H 139.357 7.50763 0.888335 0
M  V30 1576 H 140.625 7.51306 2.07749 0
M  V30 1577 N 144.854 0.36279 1.53368 0
M  V30 1578 C 146.1 -0.220702 2.02199 0
M  V30 1579 C 146.455 -1.46649 1.24546 0
M  V30 1580 O 145.748 -1.88737 0.32996 0
M  V30 1581 C 145.942 -0.568417 3.52851 0
M  V30 1582 C 145.771 0.642126 4.45092 0
M  V30 1583 C 144.541 1.15335 4.91961 0
M  V30 1584 C 146.739 1.50649 4.91741 0
M  V30 1585 N 144.721 2.3242 5.68202 0
M  V30 1586 C 146.092 2.52404 5.66297 0
M  V30 1587 C 148.147 1.52969 4.73819 0
M  V30 1588 C 146.85 3.56331 6.24836 0
M  V30 1589 C 148.876 2.55789 5.33222 0
M  V30 1590 C 148.238 3.56268 6.07662 0
M  V30 1591 H 144.337 -0.0435508 0.780786 0
M  V30 1592 H 146.921 0.506704 1.87991 0
M  V30 1593 H 145.092 -1.2649 3.67226 0
M  V30 1594 H 146.824 -1.13676 3.88407 0
M  V30 1595 H 143.579 0.718412 4.68119 0
M  V30 1596 H 144.003 2.91591 6.10986 0
M  V30 1597 H 148.645 0.766418 4.15795 0
M  V30 1598 H 146.363 4.33543 6.81958 0
M  V30 1599 H 149.949 2.58435 5.21251 0
M  V30 1600 H 148.829 4.34524 6.52808 0
M  V30 1601 N 146.332 -1.57332 0.0918853 0
M  V30 1602 C 147.28 -2.15075 -0.885747 0
M  V30 1603 C 148.274 -1.09277 -1.29441 0
M  V30 1604 O 149.48 -1.27627 -1.26931 0
M  V30 1605 H 145.855 -0.687966 -0.303656 0
M  V30 1606 H 147.826 -2.96047 -0.373995 0
M  V30 1607 C 146.575 -2.74325 -2.13638 0
M  V30 1608 H 145.898 -3.55418 -1.8308 0
M  V30 1609 H 147.338 -3.183 -2.80109 0
M  V30 1610 C 145.797 -1.70062 -2.90827 0
M  V30 1611 O 146.327 -1.13763 -3.85254 0
M  V30 1612 N 144.533 -1.40628 -2.54307 0
M  V30 1613 H 144.08 -1.866 -1.7759 0
M  V30 1614 H 144.038 -0.711043 -3.06254 0
M  V30 1615 N 147.81 0.181792 -1.56548 0
M  V30 1616 C 148.72 1.24538 -1.98815 0
M  V30 1617 C 149.736 1.49045 -0.897861 0
M  V30 1618 O 150.912 1.61399 -1.20467 0
M  V30 1619 C 147.977 2.56683 -2.33055 0
M  V30 1620 C 147.038 2.40131 -3.55859 0
M  V30 1621 C 146.271 3.65975 -3.88456 0
M  V30 1622 O 146.494 4.70711 -3.22161 0
M  V30 1623 O 145.428 3.6071 -4.81842 0
M  V30 1624 H 149.254 0.916647 -2.89536 0
M  V30 1625 H 146.839 0.387842 -1.44278 0
M  V30 1626 H 148.721 3.34655 -2.56094 0
M  V30 1627 H 147.396 2.89157 -1.45498 0
M  V30 1628 H 146.303 1.60226 -3.38051 0
M  V30 1629 H 147.636 2.12585 -4.43924 0
M  V30 1630 N 149.288 1.51039 0.449983 0
M  V30 1631 C 150.516 1.66869 1.2232 0
M  V30 1632 C 150.931 0.360727 1.85322 0
M  V30 1633 O 150.288 -0.659531 1.70166 0
M  V30 1634 C 150.339 2.77524 2.31652 0
M  V30 1635 O 150.06 4.03252 1.7123 0
M  V30 1636 C 151.561 3.04512 3.2216 0
M  V30 1637 H 148.781 0.560326 0.369155 0
M  V30 1638 H 151.325 1.97385 0.534719 0
M  V30 1639 H 149.48 2.49642 2.96239 0
M  V30 1640 H 149.894 4.64609 2.43389 0
M  V30 1641 H 151.368 3.85551 3.95038 0
M  V30 1642 H 151.845 2.16415 3.8218 0
M  V30 1643 H 152.451 3.34005 2.63288 0
M  V30 1644 N 150.766 -0.704594 1.40972 0
M  V30 1645 C 151.699 -1.82861 1.36518 0
M  V30 1646 C 152.677 -1.6091 0.23382 0
M  V30 1647 O 153.861 -1.83778 0.419271 0
M  V30 1648 C 150.988 -3.1939 1.12729 0
M  V30 1649 C 150.034 -3.60148 2.28463 0
M  V30 1650 S 150.867 -3.65994 3.90907 0
M  V30 1651 C 152.023 -5.05264 3.69403 0
M  V30 1652 H 152.256 -1.86361 2.3164 0
M  V30 1653 H 149.789 -0.872439 1.27389 0
M  V30 1654 H 151.747 -3.98211 0.996893 0
M  V30 1655 H 150.408 -3.1351 0.192427 0
M  V30 1656 H 149.601 -4.59309 2.07489 0
M  V30 1657 H 149.203 -2.88612 2.37863 0
M  V30 1658 H 151.495 -5.92504 3.28551 0
M  V30 1659 H 152.438 -5.31278 4.68134 0
M  V30 1660 H 152.846 -4.76377 3.02862 0
M  V30 1661 N 152.244 -1.26651 -0.937939 0
M  V30 1662 C 153.191 -1.0849 -2.03712 0
M  V30 1663 C 154.161 0.011033 -1.66096 0
M  V30 1664 O 155.346 -0.149353 -1.90215 0
M  V30 1665 C 152.486 -0.72735 -3.37348 0
M  V30 1666 C 151.599 -1.89986 -3.87981 0
M  V30 1667 C 150.734 -1.48513 -5.10017 0
M  V30 1668 C 149.773 -2.62575 -5.5292 0
M  V30 1669 N 148.91 -2.21762 -6.66158 0
M  V30 1670 H 153.75 -2.02551 -2.18579 0
M  V30 1671 H 151.287 -1.00844 -1.07093 0
M  V30 1672 H 153.245 -0.50092 -4.14182 0
M  V30 1673 H 151.875 0.176298 -3.22318 0
M  V30 1674 H 150.927 -2.23913 -3.07518 0
M  V30 1675 H 152.239 -2.75586 -4.15757 0
M  V30 1676 H 151.393 -1.21934 -5.94321 0
M  V30 1677 H 150.132 -0.60009 -4.83994 0
M  V30 1678 H 149.137 -2.8988 -4.67172 0
M  V30 1679 H 150.362 -3.51685 -5.80943 0
M  V30 1680 H 148.308 -1.35696 -6.41812 0
M  V30 1681 H 148.225 -3.00903 -6.93537 0
M  V30 1682 H 149.493 -1.98403 -7.53828 0
M  V30 1683 N 153.722 1.14298 -1.08507 0
M  V30 1684 C 154.968 1.85633 -0.816581 0
M  V30 1685 C 155.301 1.82784 0.656021 0
M  V30 1686 O 154.576 1.25926 1.48233 0
M  V30 1687 C 154.859 3.34223 -1.34041 0
M  V30 1688 C 154.712 3.45639 -2.87843 0
M  V30 1689 C 156.031 4.29356 -0.9665 0
M  V30 1690 H 153.15 0.67402 -0.298104 0
M  V30 1691 H 155.792 1.34214 -1.34487 0
M  V30 1692 H 153.942 3.78144 -0.89104 0
M  V30 1693 H 155.614 3.10498 -3.41158 0
M  V30 1694 H 153.857 2.86817 -3.25451 0
M  V30 1695 H 154.528 4.50089 -3.19569 0
M  V30 1696 H 157.004 3.93457 -1.35391 0
M  V30 1697 H 155.88 5.3178 -1.3602 0
M  V30 1698 H 156.141 4.41919 0.126362 0
M  V30 1699 N 155.201 0.870884 1.31352 0
M  V30 1700 C 156.447 0.482987 1.96965 0
M  V30 1701 C 156.78 -0.962462 1.68672 0
M  V30 1702 O 156.055 -1.6779 0.98371 0
M  V30 1703 C 156.338 0.741752 3.52378 0
M  V30 1704 C 156.191 2.2368 3.9024 0
M  V30 1705 C 157.51 0.208838 4.39604 0
M  V30 1706 H 154.629 0.176955 0.715441 0
M  V30 1707 H 157.271 1.09229 1.55464 0
M  V30 1708 H 155.421 0.223149 3.87859 0
M  V30 1709 H 157.093 2.82273 3.64856 0
M  V30 1710 H 155.336 2.70901 3.38814 0
M  V30 1711 H 156.007 2.3685 4.98604 0
M  V30 1712 H 158.483 0.652529 4.10952 0
M  V30 1713 H 157.359 0.419336 5.47296 0
M  V30 1714 H 157.62 -0.889275 4.33064 0
M  V30 1715 N 156.679 -1.44442 0.630414 0
M  V30 1716 C 157.904 -2.06927 0.139944 0
M  V30 1717 C 158.329 -1.46795 -1.17613 0
M  V30 1718 O 157.687 -0.569144 -1.72135 0
M  V30 1719 C 157.735 -3.6058 0.0379581 0
M  V30 1720 O 156.839 -3.99937 -1.0062 0
M  V30 1721 H 156.18 -0.658608 0.0844483 0
M  V30 1722 H 158.71 -1.85327 0.866891 0
M  V30 1723 H 158.72 -4.07714 -0.152856 0
M  V30 1724 H 157.395 -4.03728 0.998809 0
M  V30 1725 H 155.972 -3.64436 -0.79001 0
M  V30 1726 N 158.157 -0.370918 -1.53173 0
M  V30 1727 C 159.105 0.488101 -2.27421 0
M  V30 1728 C 160.099 1.07884 -1.30604 0
M  V30 1729 O 161.305 1.02143 -1.48212 0
M  V30 1730 H 157.68 0.176134 -0.731082 0
M  V30 1731 H 159.651 -0.159815 -2.97972 0
M  V30 1732 C 158.4 1.61306 -3.08019 0
M  V30 1733 H 157.723 1.1678 -3.82364 0
M  V30 1734 H 159.163 2.18872 -3.63141 0
M  V30 1735 C 157.622 2.55848 -2.19188 0
M  V30 1736 O 158.152 3.58799 -1.80626 0
M  V30 1737 N 156.358 2.2516 -1.83715 0
M  V30 1738 H 155.905 1.41476 -2.15273 0
M  V30 1739 H 155.863 2.8867 -1.24567 0
M  V30 1740 N 159.635 1.57281 -0.100228 0
M  V30 1741 C 160.882 1.94537 0.562268 0
M  V30 1742 C 161.21 0.982315 1.67871 0
M  V30 1743 O 160.465 0.00280936 1.957 0
M  V30 1744 C 160.764 3.38305 1.15259 0
M  V30 1745 C 160.43 4.50618 0.159409 0
M  V30 1746 C 159.092 4.81066 -0.113741 0
M  V30 1747 C 161.444 5.18615 -0.518461 0
M  V30 1748 C 158.772 5.76835 -1.07137 0
M  V30 1749 C 161.124 6.15412 -1.46459 0
M  V30 1750 C 159.788 6.44262 -1.74592 0
M  V30 1751 H 159.058 0.711863 0.205748 0
M  V30 1752 H 161.705 1.90679 -0.17715 0
M  V30 1753 H 160.01 3.38766 1.96836 0
M  V30 1754 H 161.707 3.64435 1.67297 0
M  V30 1755 H 158.297 4.2689 0.382491 0
M  V30 1756 H 162.481 4.95264 -0.320581 0
M  V30 1757 H 157.737 5.975 -1.29628 0
M  V30 1758 H 161.911 6.67194 -1.99564 0
M  V30 1759 H 159.538 7.1828 -2.48953 0
M  V30 1760 N 161.113 -0.173488 1.56642 0
M  V30 1761 C 162.043 -1.2171 1.99271 0
M  V30 1762 C 163.024 -1.46289 0.867959 0
M  V30 1763 O 164.209 -1.5766 1.13388 0
M  V30 1764 C 161.339 -2.55651 2.35074 0
M  V30 1765 C 160.293 -2.45645 3.50489 0
M  V30 1766 C 159.619 -3.84056 3.72028 0
M  V30 1767 C 160.919 -1.96302 4.84007 0
M  V30 1768 H 162.613 -0.86275 2.867 0
M  V30 1769 H 160.159 -0.413571 1.37933 0
M  V30 1770 H 162.112 -3.2886 2.63494 0
M  V30 1771 H 160.836 -2.92869 1.44552 0
M  V30 1772 H 159.495 -1.7489 3.22194 0
M  V30 1773 H 159.143 -4.18664 2.788 0
M  V30 1774 H 158.843 -3.7823 4.49684 0
M  V30 1775 H 160.367 -4.58854 4.02846 0
M  V30 1776 H 161.781 -2.59284 5.11317 0
M  V30 1777 H 160.178 -2.01429 5.65284 0
M  V30 1778 H 161.248 -0.917226 4.76146 0
M  V30 1779 N 162.591 -1.51276 -0.441967 0
M  V30 1780 C 163.501 -1.75092 -1.56141 0
M  V30 1781 C 164.517 -0.634963 -1.62001 0
M  V30 1782 O 165.693 -0.916686 -1.79329 0
M  V30 1783 C 162.758 -1.86666 -2.92158 0
M  V30 1784 C 161.819 -3.10506 -2.96453 0
M  V30 1785 C 161.052 -3.21519 -4.25982 0
M  V30 1786 O 161.275 -2.38586 -5.18105 0
M  V30 1787 O 160.209 -4.14465 -4.36466 0
M  V30 1788 H 164.035 -2.70044 -1.38961 0
M  V30 1789 H 161.62 -1.35722 -0.624499 0
M  V30 1790 H 163.502 -1.96292 -3.72891 0
M  V30 1791 H 162.177 -0.949014 -3.09476 0
M  V30 1792 H 161.084 -3.06363 -2.14692 0
M  V30 1793 H 162.417 -4.01945 -2.84079 0
M  V30 1794 N 164.069 0.697108 -1.41344 0
M  V30 1795 C 165.315 1.4593 -1.40827 0
M  V30 1796 C 165.648 1.94193 -0.0167098 0
M  V30 1797 O 164.923 1.69425 0.955263 0
M  V30 1798 C 165.206 2.67229 -2.41373 0
M  V30 1799 C 165.059 2.24741 -3.8963 0
M  V30 1800 C 166.378 3.69423 -2.39196 0
M  V30 1801 H 163.497 0.529303 -0.512842 0
M  V30 1802 H 166.139 0.794112 -1.72609 0
M  V30 1803 H 164.289 3.23982 -2.14401 0
M  V30 1804 H 165.961 1.73327 -4.27499 0
M  V30 1805 H 164.204 1.56542 -4.0457 0
M  V30 1806 H 164.875 3.1177 -4.55525 0
M  V30 1807 H 167.351 3.2234 -2.63128 0
M  V30 1808 H 166.227 4.51907 -3.11563 0
M  V30 1809 H 166.488 4.19012 -1.41001 0
M  V30 1810 N 165.547 1.27147 0.931209 0
M  V30 1811 C 166.795 1.13055 1.6752 0
M  V30 1812 C 167.116 -0.324791 1.92276 0
M  V30 1813 O 166.386 -1.22775 1.52654 0
M  V30 1814 H 164.966 0.415391 0.620854 0
M  V30 1815 H 167.628 1.59623 1.11833 0
M  V30 1816 H 166.724 1.65694 2.64485 0
M  V30 1817 N 167.025 -1.13721 1.09112 0
M  V30 1818 C 167.935 -2.22638 0.73957 0
M  V30 1819 C 168.951 -1.72091 -0.257068 0
M  V30 1820 O 170.127 -2.01155 -0.0992154 0
M  V30 1821 C 167.192 -3.46322 0.16191 0
M  V30 1822 C 166.253 -4.11775 1.21408 0
M  V30 1823 C 165.486 -5.29555 0.663891 0
M  V30 1824 O 165.709 -5.68077 -0.514274 0
M  V30 1825 O 164.643 -5.84973 1.41738 0
M  V30 1826 H 168.469 -2.55074 1.64836 0
M  V30 1827 H 166.054 -1.21791 0.865289 0
M  V30 1828 H 167.936 -4.21107 -0.157073 0
M  V30 1829 H 166.611 -3.15593 -0.719932 0
M  V30 1830 H 165.518 -3.3883 1.58571 0
M  V30 1831 H 166.851 -4.46627 2.06845 0
M  V30 1832 N 168.503 -0.877838 -1.30888 0
M  V30 1833 C 169.733 -0.506678 -2.00291 0
M  V30 1834 C 170.141 0.907449 -1.66018 0
M  V30 1835 O 169.484 1.60719 -0.88967 0
M  V30 1836 C 169.546 -0.59323 -3.54572 0
M  V30 1837 C 169.21 -1.97038 -4.12341 0
M  V30 1838 C 170.207 -2.93889 -4.28865 0
M  V30 1839 C 167.892 -2.27383 -4.47886 0
M  V30 1840 C 169.886 -4.19224 -4.80136 0
M  V30 1841 C 167.573 -3.52965 -4.98857 0
M  V30 1842 C 168.571 -4.48701 -5.14934 0
M  V30 1843 O 168.259 -5.72056 -5.64808 0
M  V30 1844 H 167.991 -0.1951 -0.647234 0
M  V30 1845 H 170.545 -1.18301 -1.6791 0
M  V30 1846 H 168.775 0.140057 -3.86446 0
M  V30 1847 H 170.464 -0.234372 -4.05223 0
M  V30 1848 H 171.23 -2.71756 -4.01714 0
M  V30 1849 H 167.109 -1.53639 -4.34645 0
M  V30 1850 H 170.653 -4.93956 -4.92599 0
M  V30 1851 H 166.55 -3.74939 -5.25443 0
M  V30 1852 H 167.318 -5.74337 -5.83163 0
M  V30 1853 N 169.982 1.44106 -0.638065 0
M  V30 1854 C 170.93 2.3248 0.0748149 0
M  V30 1855 C 171.924 1.47746 0.828702 0
M  V30 1856 O 173.13 1.64049 0.740816 0
M  V30 1857 H 169.505 0.750771 0.0429686 0
M  V30 1858 H 171.476 2.90348 -0.688504 0
M  V30 1859 C 170.225 3.31843 1.03805 0
M  V30 1860 H 169.548 3.97059 0.467375 0
M  V30 1861 H 170.988 3.96345 1.50622 0
M  V30 1862 C 169.447 2.61291 2.1267 0
M  V30 1863 O 169.977 2.41702 3.20847 0
M  V30 1864 N 168.183 2.20915 1.88798 0
M  V30 1865 H 167.73 2.37047 1.00829 0
M  V30 1866 H 167.688 1.74038 2.61836 0
M  V30 1867 N 171.46 0.379036 1.52974 0
M  V30 1868 C 172.423 -0.448865 2.24762 0
M  V30 1869 C 173.423 -0.998689 1.26027 0
M  V30 1870 O 174.613 -0.882313 1.50203 0
M  V30 1871 C 171.745 -1.62872 2.99476 0
M  V30 1872 H 172.938 0.179491 2.99362 0
M  V30 1873 H 170.491 0.13096 1.5575 0
M  V30 1874 H 171.226 -2.29479 2.29151 0
M  V30 1875 H 171.011 -1.24128 3.71934 0
M  V30 1876 H 172.501 -2.2151 3.5401 0
M  V30 1877 N 172.938 -1.57226 0.108567 0
M  V30 1878 C 174.187 -1.94008 -0.551703 0
M  V30 1879 C 174.5 -0.993442 -1.68494 0
M  V30 1880 O 175.706 -1.25551 -2.40726 0
M  V30 1881 C 174.162 -3.44763 -1.03279 0
M  V30 1882 C 173.77 -4.47943 0.0714193 0
M  V30 1883 C 175.514 -3.90483 -1.66503 0
M  V30 1884 C 173.421 -5.89865 -0.425779 0
M  V30 1885 H 172.351 -0.724206 -0.209863 0
M  V30 1886 H 175.002 -1.82547 0.186741 0
M  V30 1887 H 173.384 -3.51422 -1.82533 0
M  V30 1888 H 174.558 -4.52942 0.847365 0
M  V30 1889 H 172.873 -4.11913 0.609669 0
M  V30 1890 H 175.47 -4.93925 -2.04798 0
M  V30 1891 H 175.813 -3.29877 -2.53942 0
M  V30 1892 H 176.346 -3.86581 -0.938074 0
M  V30 1893 H 173.085 -6.54202 0.412316 0
M  V30 1894 H 172.605 -5.88309 -1.16843 0
M  V30 1895 H 174.284 -6.40844 -0.890397 0
M  V30 1896 N 174.416 0.165178 -1.56732 0
M  V30 1897 C 175.379 1.18822 -1.95995 0
M  V30 1898 C 176.379 1.3685 -0.84431 0
M  V30 1899 O 177.569 1.34152 -1.11126 0
M  V30 1900 C 174.701 2.5521 -2.26011 0
M  V30 1901 H 175.894 0.851825 -2.87548 0
M  V30 1902 H 173.447 0.407857 -1.50885 0
M  V30 1903 H 174.182 2.93852 -1.37191 0
M  V30 1904 H 173.967 2.43489 -3.07336 0
M  V30 1905 H 175.457 3.28927 -2.57288 0
M  V30 1906 N 175.894 1.51508 0.433938 0
M  V30 1907 C 176.857 1.72473 1.50949 0
M  V30 1908 C 177.857 0.594725 1.49398 0
M  V30 1909 O 179.047 0.862315 1.5136 0
M  V30 1910 C 176.179 1.78431 2.90474 0
M  V30 1911 H 177.372 2.68467 1.33662 0
M  V30 1912 H 174.925 1.41549 0.662836 0
M  V30 1913 H 175.66 0.842645 3.13161 0
M  V30 1914 H 175.445 2.60558 2.93005 0
M  V30 1915 H 176.935 1.96479 3.68491 0
M  V30 1916 N 177.372 -0.689602 1.41712 0
M  V30 1917 C 178.6 -1.47827 1.44758 0
M  V30 1918 C 179.015 -1.88721 0.0545703 0
M  V30 1919 O 178.372 -1.57176 -0.927463 0
M  V30 1920 C 178.423 -2.73698 2.3616 0
M  V30 1921 O 178.144 -2.34524 3.7004 0
M  V30 1922 C 179.645 -3.67389 2.48072 0
M  V30 1923 H 176.865 -0.455357 0.49284 0
M  V30 1924 H 179.409 -0.848574 1.86063 0
M  V30 1925 H 177.564 -3.32891 1.98148 0
M  V30 1926 H 177.978 -3.15701 4.18847 0
M  V30 1927 H 179.452 -4.52475 3.16181 0
M  V30 1928 H 179.929 -4.12284 1.51388 0
M  V30 1929 H 180.535 -3.14097 2.86746 0
M  V30 1930 N 178.85 -1.27639 -0.924453 0
M  V30 1931 C 180.098 -1.13941 -1.66918 0
M  V30 1932 C 180.419 0.314589 -1.92446 0
M  V30 1933 O 179.689 1.21964 -1.53303 0
M  V30 1934 H 178.269 -0.418678 -0.618642 0
M  V30 1935 H 180.931 -1.60213 -1.10985 0
M  V30 1936 H 180.027 -1.67094 -2.63602 0
M  V30 1937 N 180.328 1.1314 -1.09713 0
M  V30 1938 C 181.261 2.17735 -0.683137 0
M  V30 1939 C 182.239 1.59582 0.311841 0
M  V30 1940 O 183.423 1.87298 0.212514 0
M  V30 1941 C 180.55 3.38699 -0.00684324 0
M  V30 1942 C 179.596 4.1546 -0.964102 0
M  V30 1943 S 180.429 4.74733 -2.47767 0
M  V30 1944 C 181.585 5.9904 -1.81387 0
M  V30 1945 H 181.818 2.52515 -1.56918 0
M  V30 1946 H 179.351 1.24484 -0.913404 0
M  V30 1947 H 181.309 4.08765 0.377044 0
M  V30 1948 H 179.97 3.02214 0.85589 0
M  V30 1949 H 179.163 5.02093 -0.43803 0
M  V30 1950 H 178.765 3.51066 -1.28953 0
M  V30 1951 H 181.057 6.67846 -1.13967 0
M  V30 1952 H 182 6.56261 -2.65947 0
M  V30 1953 H 182.408 5.4976 -1.28155 0
M  V30 1954 N 181.806 0.884767 1.30421 0
M  V30 1955 C 182.736 0.367574 2.30589 0
M  V30 1956 C 183.717 -0.549464 1.60981 0
M  V30 1957 O 184.902 -0.46336 1.88591 0
M  V30 1958 C 182.032 -0.418944 3.44764 0
M  V30 1959 C 180.986 0.406316 4.26067 0
M  V30 1960 C 180.312 -0.506793 5.32293 0
M  V30 1961 C 181.612 1.64832 4.95608 0
M  V30 1962 H 183.306 1.20462 2.74097 0
M  V30 1963 H 180.852 0.580695 1.31772 0
M  V30 1964 H 182.805 -0.791395 4.13902 0
M  V30 1965 H 181.529 -1.28964 3.0006 0
M  V30 1966 H 180.188 0.760903 3.58617 0
M  V30 1967 H 179.836 -1.37519 4.83836 0
M  V30 1968 H 179.536 0.0415828 5.87585 0
M  V30 1969 H 181.06 -0.875764 6.04287 0
M  V30 1970 H 182.474 1.34646 5.57264 0
M  V30 1971 H 180.871 2.13688 5.60765 0
M  V30 1972 H 181.941 2.39284 4.21748 0
M  V30 1973 N 183.284 -1.43765 0.645699 0
M  V30 1974 C 184.53 -2.02731 0.164844 0
M  V30 1975 C 184.885 -1.49983 -1.2051 0
M  V30 1976 O 184.178 -0.680208 -1.79119 0
M  V30 1977 C 184.372 -3.57238 0.107679 0
M  V30 1978 C 184.201 -4.24977 1.47054 0
M  V30 1979 C 182.971 -4.61356 2.06103 0
M  V30 1980 C 185.169 -4.54476 2.40741 0
M  V30 1981 N 183.151 -5.14132 3.35473 0
M  V30 1982 C 184.522 -5.08489 3.54737 0
M  V30 1983 C 186.577 -4.36438 2.39637 0
M  V30 1984 C 185.28 -5.46364 4.67845 0
M  V30 1985 C 187.306 -4.7537 3.5182 0
M  V30 1986 C 186.668 -5.2951 4.64541 0
M  V30 1987 H 182.767 -0.774976 0.104578 0
M  V30 1988 H 185.351 -1.75051 0.852367 0
M  V30 1989 H 183.522 -3.84498 -0.549165 0
M  V30 1990 H 185.254 -4.0288 -0.383351 0
M  V30 1991 H 182.009 -4.46151 1.58892 0
M  V30 1992 H 182.433 -5.4498 4.01654 0
M  V30 1993 H 187.075 -3.93861 1.53731 0
M  V30 1994 H 184.793 -5.87888 5.54448 0
M  V30 1995 H 188.379 -4.63115 3.52159 0
M  V30 1996 H 187.259 -5.59077 5.49911 0
M  V30 1997 N 184.763 -0.387143 -1.52771 0
M  V30 1998 C 186.04 0.253197 -1.93954 0
M  V30 1999 C 186.42 1.64545 -1.32243 0
M  V30 2000 O 185.768 2.23191 -0.489699 0
M  V30 2001 C 185.978 0.281722 -3.47861 0
M  V30 2002 C 187.326 0.511715 -4.21505 0
M  V30 2003 O 188.35 0.362023 -3.54356 0
M  V30 2004 O 187.209 0.804847 -5.40541 0
M  V30 2005 H 184.303 0.156845 -0.811991 0
M  V30 2006 H 186.849 -0.441494 -1.63856 0
M  V30 2007 H 185.621 -0.693571 -3.85104 0
M  V30 2008 H 185.244 1.02142 -3.84256 0
M  V30 2009 N 186.241 1.57166 -0.116904 0
M  V30 2010 C 187.466 1.999 0.55271 0
M  V30 2011 C 187.891 0.996039 1.59564 0
M  V30 2012 O 187.249 -0.032556 1.81271 0
M  V30 2013 C 187.297 3.4152 1.15742 0
M  V30 2014 O 186.401 3.44106 2.27299 0
M  V30 2015 H 185.742 0.649447 0.138258 0
M  V30 2016 H 188.272 2.03573 -0.204759 0
M  V30 2017 H 188.282 3.79684 1.49346 0
M  V30 2018 H 186.957 4.14034 0.393493 0
M  V30 2019 H 185.534 3.17759 1.9515 0
M  V30 2020 N 187.719 -0.156864 1.56817 0
M  V30 2021 C 188.682 -1.17781 1.96622 0
M  V30 2022 C 189.682 -1.36401 0.851555 0
M  V30 2023 O 190.872 -1.33561 1.11836 0
M  V30 2024 C 188.004 -2.54008 2.27361 0
M  V30 2025 H 189.197 -0.836564 2.87996 0
M  V30 2026 H 186.75 -0.39985 1.51099 0
M  V30 2027 H 187.485 -2.9312 1.38748 0
M  V30 2028 H 187.27 -2.41856 3.08623 0
M  V30 2029 H 188.76 -3.27558 2.59029 0
M  V30 2030 N 189.197 -1.51736 -0.425897 0
M  V30 2031 C 190.129 -1.70083 -1.53638 0
M  V30 2032 C 191.142 -0.581349 -1.52066 0
M  V30 2033 O 192.331 -0.856017 -1.56635 0
M  V30 2034 C 189.431 -1.71078 -2.9255 0
M  V30 2035 C 188.604 -2.99795 -3.185 0
M  V30 2036 C 187.663 -2.92825 -4.37196 0
M  V30 2037 O 186.689 -3.66756 -4.35291 0
M  V30 2038 N 187.891 -2.0946 -5.41393 0
M  V30 2039 H 190.656 -2.65882 -1.383 0
M  V30 2040 H 188.217 -1.49765 -0.614988 0
M  V30 2041 H 190.209 -1.63969 -3.69995 0
M  V30 2042 H 188.779 -0.828242 -3.01428 0
M  V30 2043 H 187.999 -3.20684 -2.2925 0
M  V30 2044 H 189.287 -3.84977 -3.32671 0
M  V30 2045 H 188.685 -1.48792 -5.45781 0
M  V30 2046 H 187.242 -2.08221 -6.17647 0
M  V30 2047 N 190.675 0.682077 -1.42076 0
M  V30 2048 C 191.638 1.77756 -1.44691 0
M  V30 2049 C 192.638 1.5726 -0.335535 0
M  V30 2050 O 193.828 1.63686 -0.596037 0
M  V30 2051 C 190.96 3.16301 -1.27146 0
M  V30 2052 H 192.153 1.76826 -2.42224 0
M  V30 2053 H 189.706 0.891012 -1.28416 0
M  V30 2054 H 190.441 3.22862 -0.305075 0
M  V30 2055 H 190.226 3.32581 -2.07683 0
M  V30 2056 H 191.716 3.96241 -1.31843 0
M  V30 2057 N 192.153 1.28127 0.917671 0
M  V30 2058 C 193.116 1.11744 2.00115 0
M  V30 2059 C 194.116 0.0583052 1.60694 0
M  V30 2060 O 195.306 0.303755 1.71531 0
M  V30 2061 C 192.438 0.704862 3.33533 0
M  V30 2062 H 193.631 2.07966 2.16079 0
M  V30 2063 H 191.184 1.11058 1.09981 0
M  V30 2064 H 191.919 -0.258299 3.2327 0
M  V30 2065 H 191.704 1.4699 3.63505 0
M  V30 2066 H 193.194 0.612768 4.1308 0
M  V30 2067 N 193.631 -1.12557 1.10312 0
M  V30 2068 C 194.541 -2.21841 0.763142 0
M  V30 2069 C 195.557 -1.72354 -0.238801 0
M  V30 2070 O 196.733 -2.01249 -0.0778746 0
M  V30 2071 C 193.798 -3.46131 0.198632 0
M  V30 2072 C 192.859 -4.10464 1.25769 0
M  V30 2073 C 192.092 -5.28821 0.72002 0
M  V30 2074 O 192.315 -5.6859 -0.453993 0
M  V30 2075 O 191.249 -5.83437 1.47935 0
M  V30 2076 H 195.075 -2.53312 1.67532 0
M  V30 2077 H 192.66 -1.20867 0.878157 0
M  V30 2078 H 194.542 -4.2125 -0.112401 0
M  V30 2079 H 193.217 -3.16338 -0.686419 0
M  V30 2080 H 192.124 -3.3713 1.62156 0
M  V30 2081 H 193.457 -4.44408 2.11571 0
M  V30 2082 N 195.109 -0.891671 -1.2995 0
M  V30 2083 C 196.041 -0.320695 -2.26945 0
M  V30 2084 C 197.054 0.528497 -1.53983 0
M  V30 2085 O 198.243 0.346959 -1.75096 0
M  V30 2086 C 195.343 0.562066 -3.34207 0
M  V30 2087 C 194.516 -0.259576 -4.36629 0
M  V30 2088 C 193.575 0.554739 -5.23268 0
M  V30 2089 O 192.601 -0.0249311 -5.69195 0
M  V30 2090 N 193.803 1.8625 -5.4981 0
M  V30 2091 H 196.568 -1.15432 -2.76578 0
M  V30 2092 H 194.129 -0.755336 -1.432 0
M  V30 2093 H 196.121 1.11304 -3.89093 0
M  V30 2094 H 194.691 1.29637 -2.84452 0
M  V30 2095 H 193.911 -0.991986 -3.81514 0
M  V30 2096 H 195.199 -0.822564 -5.02107 0
M  V30 2097 H 194.597 2.35628 -5.14292 0
M  V30 2098 H 193.154 2.36078 -6.07545 0
M  V30 2099 N 196.587 1.43421 -0.653314 0
M  V30 2100 C 197.534 2.30768 0.0382271 0
M  V30 2101 C 198.504 1.44755 0.814576 0
M  V30 2102 O 199.689 1.73624 0.791162 0
M  V30 2103 C 196.829 3.30336 0.998599 0
M  V30 2104 C 195.942 4.31448 0.218342 0
M  V30 2105 C 195.077 5.18098 1.17252 0
M  V30 2106 C 194.116 6.10902 0.382702 0
M  V30 2107 N 193.253 6.90176 1.28848 0
M  V30 2108 H 198.093 2.89357 -0.712511 0
M  V30 2109 H 195.63 1.42548 -0.363128 0
M  V30 2110 H 197.588 3.86572 1.56901 0
M  V30 2111 H 196.218 2.73397 1.71621 0
M  V30 2112 H 195.27 3.77506 -0.46836 0
M  V30 2113 H 196.582 4.97227 -0.395812 0
M  V30 2114 H 195.736 5.7896 1.81356 0
M  V30 2115 H 194.475 4.52444 1.82058 0
M  V30 2116 H 193.48 5.49128 -0.27169 0
M  V30 2117 H 194.705 6.78598 -0.260957 0
M  V30 2118 H 192.651 6.27171 1.92334 0
M  V30 2119 H 192.568 7.52478 0.728887 0
M  V30 2120 H 193.836 7.55543 1.91766 0
M  V30 2121 N 198.065 0.39524 1.52563 0
M  V30 2122 C 199.013 -0.451859 2.28169 0
M  V30 2123 C 200.007 -1.05792 1.32304 0
M  V30 2124 O 201.213 -0.997718 1.49818 0
M  V30 2125 H 197.588 -0.164481 0.733792 0
M  V30 2126 H 199.559 0.207199 2.9768 0
M  V30 2127 C 198.308 -1.56385 3.10546 0
M  V30 2128 H 197.631 -1.10682 3.84174 0
M  V30 2129 H 199.071 -2.13067 3.66577 0
M  V30 2130 C 197.53 -2.52328 2.23231 0
M  V30 2131 O 198.06 -3.5588 1.86312 0
M  V30 2132 N 196.266 -2.22209 1.87274 0
M  V30 2133 H 195.813 -1.38033 2.17496 0
M  V30 2134 H 195.771 -2.86652 1.29143 0
M  V30 2135 N 199.544 -1.57102 0.125237 0
M  V30 2136 C 200.792 -1.95021 -0.530198 0
M  V30 2137 C 201.113 -1.00982 -1.66816 0
M  V30 2138 O 200.383 -0.0672693 -1.95784 0
M  V30 2139 H 198.963 -0.720046 -0.198853 0
M  V30 2140 H 201.625 -1.93916 0.19564 0
M  V30 2141 H 200.721 -2.98211 -0.920681 0
M  V30 2142 N 201.022 0.148545 -1.56898 0
M  V30 2143 C 202.252 0.875118 -1.8715 0
M  V30 2144 C 202.66 1.75322 -0.711262 0
M  V30 2145 O 202.003 1.80745 0.328151 0
M  V30 2146 C 202.065 1.7844 -3.12089 0
M  V30 2147 C 201.729 1.08361 -4.43967 0
M  V30 2148 C 202.726 0.438247 -5.1805 0
M  V30 2149 C 200.411 1.07358 -4.90693 0
M  V30 2150 C 202.405 -0.20779 -6.37061 0
M  V30 2151 C 200.092 0.42373 -6.09629 0
M  V30 2152 C 201.09 -0.215829 -6.82659 0
M  V30 2153 O 200.778 -0.855378 -7.99336 0
M  V30 2154 H 200.51 0.258504 -0.624621 0
M  V30 2155 H 203.064 0.14652 -2.04877 0
M  V30 2156 H 201.294 2.55389 -2.90367 0
M  V30 2157 H 202.983 2.38279 -3.286 0
M  V30 2158 H 203.749 0.437817 -4.8302 0
M  V30 2159 H 199.628 1.5608 -4.33774 0
M  V30 2160 H 203.172 -0.70758 -6.94002 0
M  V30 2161 H 199.069 0.421822 -6.4412 0
M  V30 2162 H 199.837 -0.756892 -8.14993 0
M  V30 2163 N 202.5 1.5196 0.417844 0
M  V30 2164 C 203.43 1.77634 1.51554 0
M  V30 2165 C 204.411 0.626918 1.58126 0
M  V30 2166 O 205.596 0.871632 1.7354 0
M  V30 2167 C 202.726 1.91911 2.8946 0
M  V30 2168 C 201.68 3.07463 2.97743 0
M  V30 2169 C 201.006 3.06951 4.37819 0
M  V30 2170 C 202.306 4.47082 2.70027 0
M  V30 2171 H 204 2.6955 1.3032 0
M  V30 2172 H 201.546 1.29706 0.625492 0
M  V30 2173 H 203.499 2.08455 3.6623 0
M  V30 2174 H 202.223 0.966598 3.11969 0
M  V30 2175 H 200.882 2.90656 2.23416 0
M  V30 2176 H 200.53 2.09438 4.57323 0
M  V30 2177 H 200.23 3.84556 4.44286 0
M  V30 2178 H 201.754 3.25613 5.16535 0
M  V30 2179 H 203.168 4.6414 3.36522 0
M  V30 2180 H 201.565 5.2654 2.87881 0
M  V30 2181 H 202.635 4.55777 1.65514 0
M  V30 2182 N 203.978 -0.674533 1.42435 0
M  V30 2183 C 204.941 -1.76986 1.45632 0
M  V30 2184 C 205.941 -1.5708 0.343871 0
M  V30 2185 O 207.131 -1.63367 0.604709 0
M  V30 2186 C 204.263 -3.15623 1.28822 0
M  V30 2187 H 205.456 -1.75539 2.43158 0
M  V30 2188 H 203.009 -0.884189 1.28887 0
M  V30 2189 H 203.744 -3.22696 0.322193 0
M  V30 2190 H 203.529 -3.31475 2.09444 0
M  V30 2191 H 205.019 -3.95537 1.33942 0
M  V30 2192 N 205.456 -1.28612 -0.910864 0
M  V30 2193 C 206.388 -1.08589 -2.01844 0
M  V30 2194 C 207.401 -0.0367419 -1.62759 0
M  V30 2195 O 208.59 -0.280101 -1.76289 0
M  V30 2196 C 205.69 -0.628626 -3.33019 0
M  V30 2197 C 204.863 -1.75382 -4.00699 0
M  V30 2198 C 203.922 -1.28945 -5.10156 0
M  V30 2199 O 202.948 -1.9922 -5.33198 0
M  V30 2200 N 204.15 -0.154224 -5.80295 0
M  V30 2201 H 206.915 -2.03973 -2.19579 0
M  V30 2202 H 204.476 -1.20403 -1.08234 0
M  V30 2203 H 206.468 -0.301508 -4.03575 0
M  V30 2204 H 205.038 0.232451 -3.11735 0
M  V30 2205 H 204.258 -2.25039 -3.23653 0
M  V30 2206 H 205.546 -2.50854 -4.42662 0
M  V30 2207 H 204.944 0.43194 -5.64049 0
M  V30 2208 H 203.501 0.113599 -6.51701 0
M  V30 2209 N 206.934 1.1197 -1.10907 0
M  V30 2210 C 208.18 1.8386 -0.855773 0
M  V30 2211 C 208.513 1.84134 0.617103 0
M  V30 2212 O 207.788 1.29041 1.45529 0
M  V30 2213 C 208.071 3.31305 -1.411 0
M  V30 2214 C 207.924 3.39456 -2.9511 0
M  V30 2215 C 209.243 4.2721 -1.05736 0
M  V30 2216 H 206.362 0.667545 -0.312334 0
M  V30 2217 H 209.004 1.31331 -1.37303 0
M  V30 2218 H 207.154 3.76169 -0.97105 0
M  V30 2219 H 208.826 3.03191 -3.47668 0
M  V30 2220 H 207.069 2.79849 -3.31462 0
M  V30 2221 H 207.74 4.43209 -3.29044 0
M  V30 2222 H 210.216 3.90497 -1.43706 0
M  V30 2223 H 209.092 5.28775 -1.47269 0
M  V30 2224 H 209.353 4.42088 0.0325958 0
M  V30 2225 N 208.412 0.89855 1.29475 0
M  V30 2226 C 209.342 0.39201 2.30186 0
M  V30 2227 C 210.323 -0.532359 1.61555 0
M  V30 2228 O 211.508 -0.443331 1.89072 0
M  V30 2229 C 208.638 -0.382353 3.45189 0
M  V30 2230 C 207.592 0.451483 4.25612 0
M  V30 2231 C 206.918 -0.450307 5.328 0
M  V30 2232 C 208.218 1.70079 4.93832 0
M  V30 2233 H 209.912 1.23362 2.72804 0
M  V30 2234 H 207.458 0.594638 1.31149 0
M  V30 2235 H 209.411 -0.747451 4.14718 0
M  V30 2236 H 208.135 -1.25774 3.01411 0
M  V30 2237 H 206.794 0.798897 3.57789 0
M  V30 2238 H 206.442 -1.32379 4.85268 0
M  V30 2239 H 206.142 0.103902 5.87508 0
M  V30 2240 H 207.666 -0.811623 6.05182 0
M  V30 2241 H 209.08 1.40549 5.55805 0
M  V30 2242 H 207.477 2.19623 5.58467 0
M  V30 2243 H 208.547 2.43744 4.19186 0
M  V30 2244 N 209.89 -1.43072 0.660911 0
M  V30 2245 C 211.167 -1.95307 0.107017 0
M  V30 2246 C 211.547 -1.60192 -1.37484 0
M  V30 2247 O 210.895 -0.890949 -2.10415 0
M  V30 2248 C 211.105 -3.47124 0.361402 0
M  V30 2249 C 212.453 -4.23738 0.270455 0
M  V30 2250 O 213.477 -3.54981 0.294382 0
M  V30 2251 O 212.336 -5.46131 0.200737 0
M  V30 2252 H 209.43 -0.826984 -0.00517729 0
M  V30 2253 H 211.976 -1.52972 0.734681 0
M  V30 2254 H 210.748 -3.65837 1.38848 0
M  V30 2255 H 210.371 -3.96475 -0.298953 0
M  V30 2256 N 211.368 -0.403325 -1.52352 0
M  V30 2257 C 212.278 0.432009 -2.30588 0
M  V30 2258 C 213.294 1.05884 -1.38075 0
M  V30 2259 O 214.47 1.06161 -1.71148 0
M  V30 2260 C 211.535 1.53669 -3.10784 0
M  V30 2261 C 210.596 0.933525 -4.19027 0
M  V30 2262 C 209.829 1.98557 -4.9539 0
M  V30 2263 O 210.052 3.20283 -4.71991 0
M  V30 2264 O 208.986 1.59504 -5.80381 0
M  V30 2265 H 212.812 -0.205739 -3.03002 0
M  V30 2266 H 210.397 -0.166675 -1.48467 0
M  V30 2267 H 212.279 2.17814 -3.60742 0
M  V30 2268 H 210.954 2.15915 -2.41169 0
M  V30 2269 H 209.861 0.254954 -3.7323 0
M  V30 2270 H 211.194 0.35508 -4.90918 0
M  V30 2271 N 212.846 1.57033 -0.133567 0
M  V30 2272 C 214.095 1.94861 0.520768 0
M  V30 2273 C 214.408 1.02012 1.66892 0
M  V30 2274 O 215.614 1.29365 2.38699 0
M  V30 2275 C 214.07 3.46362 0.977809 0
M  V30 2276 C 213.678 4.47773 -0.142674 0
M  V30 2277 C 215.422 3.93083 1.60269 0
M  V30 2278 C 213.329 5.90468 0.331883 0
M  V30 2279 H 212.259 0.727453 0.198315 0
M  V30 2280 H 214.91 1.82227 -0.215759 0
M  V30 2281 H 213.292 3.54282 1.7692 0
M  V30 2282 H 214.466 4.51536 -0.919317 0
M  V30 2283 H 212.781 4.10891 -0.675124 0
M  V30 2284 H 215.378 4.97121 1.96914 0
M  V30 2285 H 215.721 3.33876 2.48662 0
M  V30 2286 H 216.254 3.88025 0.876453 0
M  V30 2287 H 212.993 6.53463 -0.516341 0
M  V30 2288 H 212.513 5.90094 1.07469 0
M  V30 2289 H 214.192 6.42179 0.788332 0
M  V30 2290 N 214.325 -0.140222 1.56975 0
M  V30 2291 C 215.741 -0.493088 1.51792 0
M  V30 2292 C 215.941 -1.83013 0.843116 0
M  V30 2293 O 214.997 -2.49041 0.416493 0
M  V30 2294 C 216.31 -0.497144 2.96562 0
M  V30 2295 C 217.858 -0.582186 3.07538 0
M  V30 2296 C 218.333 -0.616838 4.53827 0
M  V30 2297 N 219.824 -0.678873 4.58198 0
M  V30 2298 C 220.559 -0.726782 5.68775 0
M  V30 2299 N 220.055 -0.733623 6.88905 0
M  V30 2300 N 221.848 -0.768179 5.56826 0
M  V30 2301 H 213.999 0.736108 1.99237 0
M  V30 2302 H 216.262 0.269182 0.90898 0
M  V30 2303 H 215.968 0.417217 3.49217 0
M  V30 2304 H 215.842 -1.33263 3.52875 0
M  V30 2305 H 218.229 -1.48697 2.54899 0
M  V30 2306 H 218.31 0.280581 2.54257 0
M  V30 2307 H 217.954 0.283812 5.07106 0
M  V30 2308 H 217.884 -1.49619 5.04898 0
M  V30 2309 H 220.375 -0.68061 3.7172 0
M  V30 2310 H 220.688 -0.772215 7.68932 0
M  V30 2311 H 219.033 -0.701389 6.91452 0
M  V30 2312 H 222.224 -0.760051 4.61888 0
M  V30 2313 H 222.397 -0.80205 6.43017 0
M  V30 2314 N 215.803 -1.52179 -0.40978 0
M  V30 2315 C 216.753 -1.71857 -1.49831 0
M  V30 2316 C 217.737 -0.572469 -1.50372 0
M  V30 2317 O 218.929 -0.829509 -1.56359 0
M  V30 2318 C 216.058 -1.87206 -2.87765 0
M  V30 2319 C 215.144 -3.07685 -2.91875 0
M  V30 2320 N 215.535 -4.30403 -2.65683 0
M  V30 2321 C 213.833 -3.07505 -3.23043 0
M  V30 2322 C 214.534 -5.11868 -2.76344 0
M  V30 2323 N 213.51 -4.47101 -3.09195 0
M  V30 2324 H 217.312 -2.64381 -1.28375 0
M  V30 2325 H 214.826 -1.50203 -0.617479 0
M  V30 2326 H 216.823 -1.99419 -3.66111 0
M  V30 2327 H 215.483 -0.958814 -3.10221 0
M  V30 2328 H 216.494 -4.58887 -2.4009 0
M  V30 2329 H 213.171 -2.25915 -3.51096 0
M  V30 2330 H 214.561 -6.19634 -2.59814 0
M  V30 2331 N 217.281 0.66697 -1.42791 0
M  V30 2332 C 218.509 1.45505 -1.47091 0
M  V30 2333 C 218.924 1.8861 -0.0845873 0
M  V30 2334 O 218.281 1.58632 0.90234 0
M  V30 2335 C 218.332 2.69906 -2.40485 0
M  V30 2336 O 218.053 2.28608 -3.73725 0
M  V30 2337 C 219.554 3.63396 -2.53886 0
M  V30 2338 H 216.774 0.447459 -0.500022 0
M  V30 2339 H 219.318 0.818866 -1.8739 0
M  V30 2340 H 217.473 3.29696 -2.03419 0
M  V30 2341 H 217.887 3.08997 -4.23817 0
M  V30 2342 H 219.361 4.47387 -3.2334 0
M  V30 2343 H 219.838 4.09824 -1.57927 0
M  V30 2344 H 220.444 3.09495 -2.91706 0
M  V30 2345 N 218.759 1.29093 0.90403 0
M  V30 2346 C 219.709 1.10482 1.99443 0
M  V30 2347 C 220.693 0.0255401 1.6088 0
M  V30 2348 O 221.885 0.24677 1.75271 0
M  V30 2349 C 219.014 0.778882 3.34348 0
M  V30 2350 C 218.1 1.89749 3.79284 0
M  V30 2351 N 218.491 3.14045 3.96497 0
M  V30 2352 C 216.789 1.78955 4.08523 0
M  V30 2353 C 217.49 3.86996 4.34292 0
M  V30 2354 N 216.466 3.14909 4.43095 0
M  V30 2355 H 220.268 2.04778 2.10815 0
M  V30 2356 H 217.782 1.20155 1.09255 0
M  V30 2357 H 219.779 0.62661 4.12164 0
M  V30 2358 H 218.439 -0.156205 3.24324 0
M  V30 2359 H 219.45 3.49548 3.82148 0
M  V30 2360 H 216.127 0.926886 4.07081 0
M  V30 2361 H 217.517 4.93941 4.55491 0
M  V30 2362 N 220.237 -1.11381 1.11499 0
M  V30 2363 C 221.169 -2.17207 0.731704 0
M  V30 2364 C 222.182 -1.61066 -0.236957 0
M  V30 2365 O 223.371 -1.78489 -0.0197591 0
M  V30 2366 C 220.471 -3.38846 0.0607624 0
M  V30 2367 C 219.644 -4.24451 1.0564 0
M  V30 2368 C 218.703 -5.24562 0.4149 0
M  V30 2369 O 217.729 -5.59071 1.069 0
M  V30 2370 N 218.931 -5.74651 -0.821943 0
M  V30 2371 H 221.696 -2.50699 1.64225 0
M  V30 2372 H 219.257 -1.26908 1.00529 0
M  V30 2373 H 221.249 -4.02911 -0.380139 0
M  V30 2374 H 219.819 -3.03411 -0.752376 0
M  V30 2375 H 219.039 -3.56833 1.67524 0
M  V30 2376 H 220.327 -4.78486 1.72998 0
M  V30 2377 H 219.725 -5.48797 -1.37252 0
M  V30 2378 H 218.282 -6.40549 -1.20582 0
M  V30 2379 N 221.715 -0.905404 -1.28997 0
M  V30 2380 C 222.955 -0.541232 -1.97104 0
M  V30 2381 C 223.319 0.896841 -1.69767 0
M  V30 2382 O 224.52 1.36817 -2.31375 0
M  V30 2383 C 222.791 -0.832134 -3.47578 0
M  V30 2384 S 224.35 -0.573127 -4.35041 0
M  V30 2385 H 221.168 -0.200576 -0.682122 0
M  V30 2386 H 223.77 -1.16906 -1.56694 0
M  V30 2387 H 222.474 -1.87687 -3.64968 0
M  V30 2388 H 222.005 -0.192636 -3.92928 0
M  V30 2389 H 224.02 0.579297 -4.92807 0
M  V30 2390 N 223.193 1.4272 -0.668489 0
M  V30 2391 C 224.156 2.292 0.00448567 0
M  V30 2392 C 225.156 1.43001 0.735339 0
M  V30 2393 O 226.346 1.64461 0.57429 0
M  V30 2394 C 223.478 3.25375 1.01705 0
M  V30 2395 H 224.671 2.90199 -0.756608 0
M  V30 2396 H 222.224 1.50254 -0.430506 0
M  V30 2397 H 222.959 2.69301 1.80686 0
M  V30 2398 H 222.744 3.88944 0.496463 0
M  V30 2399 H 224.234 3.90245 1.48655 0
M  V30 2400 N 224.671 0.411399 1.52136 0
M  V30 2401 C 225.901 -0.16284 2.05957 0
M  V30 2402 C 226.309 -1.3922 1.28119 0
M  V30 2403 O 225.652 -1.80768 0.326881 0
M  V30 2404 C 225.714 -0.575946 3.54856 0
M  V30 2405 C 225.378 0.542998 4.53763 0
M  V30 2406 C 226.375 1.40726 5.00492 0
M  V30 2407 C 224.06 0.716337 4.97166 0
M  V30 2408 C 226.054 2.4298 5.8927 0
M  V30 2409 C 223.741 1.74218 5.8574 0
M  V30 2410 C 224.739 2.59731 6.31687 0
M  V30 2411 O 224.427 3.60558 7.18507 0
M  V30 2412 H 224.159 -0.0229125 0.675612 0
M  V30 2413 H 226.713 0.581634 1.96993 0
M  V30 2414 H 224.943 -1.37274 3.61515 0
M  V30 2415 H 226.632 -1.07836 3.91313 0
M  V30 2416 H 227.398 1.28476 4.67674 0
M  V30 2417 H 223.277 0.0603857 4.6096 0
M  V30 2418 H 226.821 3.0976 6.25055 0
M  V30 2419 H 222.718 1.86498 6.17971 0
M  V30 2420 H 223.486 3.56829 7.36624 0
M  V30 2421 N 226.149 -1.5696 0.141893 0
M  V30 2422 C 227.395 -1.9625 -0.511248 0
M  V30 2423 C 227.728 -1.02654 -1.64851 0
M  V30 2424 O 227.003 -0.0679676 -1.94381 0
M  V30 2425 C 227.286 -3.45285 -1.02227 0
M  V30 2426 C 227.139 -4.49658 0.113138 0
M  V30 2427 C 228.458 -3.96698 -1.90574 0
M  V30 2428 H 225.577 -0.713567 -0.184367 0
M  V30 2429 H 228.219 -1.88698 0.222087 0
M  V30 2430 H 226.369 -3.51852 -1.64719 0
M  V30 2431 H 228.041 -4.55174 0.749302 0
M  V30 2432 H 226.284 -4.26857 0.773026 0
M  V30 2433 H 226.955 -5.51258 -0.286053 0
M  V30 2434 H 229.431 -3.92578 -1.37918 0
M  V30 2435 H 228.307 -5.01453 -2.2324 0
M  V30 2436 H 228.568 -3.3875 -2.84079 0
M  V30 2437 N 227.627 0.131896 -1.57047 0
M  V30 2438 C 228.575 1.18146 -2.0036 0
M  V30 2439 C 229.569 1.43614 -0.898406 0
M  V30 2440 O 230.775 1.43729 -1.08361 0
M  V30 2441 H 227.15 0.398042 -0.638018 0
M  V30 2442 H 229.121 0.789564 -2.87765 0
M  V30 2443 C 227.87 2.50341 -2.41298 0
M  V30 2444 H 227.193 2.31578 -3.25902 0
M  V30 2445 H 228.633 3.22371 -2.75414 0
M  V30 2446 C 227.092 3.11984 -1.27153 0
M  V30 2447 O 227.622 3.97484 -0.580459 0
M  V30 2448 N 225.828 2.71662 -1.03189 0
M  V30 2449 H 225.375 2.02231 -1.59564 0
M  V30 2450 H 225.333 3.13238 -0.270077 0
M  V30 2451 N 229.106 1.52395 0.401703 0
M  V30 2452 C 230.336 1.70429 1.1678 0
M  V30 2453 C 230.744 0.416702 1.84554 0
M  V30 2454 O 230.087 -0.617697 1.73003 0
M  V30 2455 C 230.149 2.78919 2.26814 0
M  V30 2456 C 229.813 4.20437 1.79113 0
M  V30 2457 C 230.81 5.04028 1.27482 0
M  V30 2458 C 228.495 4.66704 1.85722 0
M  V30 2459 C 230.489 6.31961 0.830913 0
M  V30 2460 C 228.176 5.94625 1.40942 0
M  V30 2461 C 229.174 6.77082 0.897128 0
M  V30 2462 O 228.862 8.02607 0.455822 0
M  V30 2463 H 228.594 0.574272 0.356634 0
M  V30 2464 H 231.148 1.99767 0.477724 0
M  V30 2465 H 229.378 2.44973 2.99207 0
M  V30 2466 H 231.067 2.8548 2.88541 0
M  V30 2467 H 231.833 4.69471 1.21744 0
M  V30 2468 H 227.712 4.0262 2.24539 0
M  V30 2469 H 231.256 6.96271 0.430368 0
M  V30 2470 H 227.153 6.28688 1.46362 0
M  V30 2471 H 227.921 8.16453 0.578457 0
M  V30 2472 N 230.584 -0.659388 1.43143 0
M  V30 2473 C 231.814 -1.44513 1.47646 0
M  V30 2474 C 232.222 -1.88981 0.0910095 0
M  V30 2475 O 231.565 -1.59702 -0.907789 0
M  V30 2476 C 231.627 -2.71663 2.35456 0
M  V30 2477 C 231.291 -2.49175 3.83094 0
M  V30 2478 C 232.288 -2.1279 4.74359 0
M  V30 2479 C 229.973 -2.63691 4.27519 0
M  V30 2480 C 231.967 -1.9121 6.08044 0
M  V30 2481 C 229.654 -2.41726 5.61259 0
M  V30 2482 C 230.652 -2.0554 6.51339 0
M  V30 2483 O 230.34 -1.838 7.82606 0
M  V30 2484 H 230.072 -0.45064 0.503884 0
M  V30 2485 H 232.626 -0.816248 1.88485 0
M  V30 2486 H 230.856 -3.37089 1.89493 0
M  V30 2487 H 232.545 -3.33595 2.31235 0
M  V30 2488 H 233.311 -2.01157 4.41317 0
M  V30 2489 H 229.19 -2.90832 3.57684 0
M  V30 2490 H 232.734 -1.62889 6.78316 0
M  V30 2491 H 228.631 -2.52959 5.9387 0
M  V30 2492 H 229.399 -1.98275 7.94122 0
M  V30 2493 N 232.062 -1.29571 -0.897171 0
M  V30 2494 C 233.309 -1.17689 -1.6479 0
M  V30 2495 C 233.637 0.27107 -1.92602 0
M  V30 2496 O 232.892 1.21193 -1.53658 0
M  V30 2497 C 233.191 -1.9382 -3.00281 0
M  V30 2498 C 232.857 -3.43522 -2.92068 0
M  V30 2499 C 231.519 -3.84348 -2.89535 0
M  V30 2500 C 233.871 -4.38906 -2.81089 0
M  V30 2501 C 231.199 -5.18869 -2.73846 0
M  V30 2502 C 233.551 -5.73521 -2.66939 0
M  V30 2503 C 232.215 -6.13601 -2.62774 0
M  V30 2504 H 231.485 -0.430654 -0.603008 0
M  V30 2505 H 234.132 -1.60536 -1.04404 0
M  V30 2506 H 232.437 -1.4357 -3.64547 0
M  V30 2507 H 234.134 -1.82028 -3.57305 0
M  V30 2508 H 230.724 -3.11072 -2.94842 0
M  V30 2509 H 234.908 -4.08315 -2.82121 0
M  V30 2510 H 230.164 -5.4903 -2.69027 0
M  V30 2511 H 234.338 -6.47078 -2.57416 0
M  V30 2512 H 231.965 -7.17786 -2.50375 0
M  V30 2513 N 233.54 1.10788 -1.12088 0
M  V30 2514 C 234.503 2.15207 -0.788577 0
M  V30 2515 C 235.503 1.59609 0.195317 0
M  V30 2516 O 236.693 1.74174 -0.0300193 0
M  V30 2517 C 233.825 3.4047 -0.171174 0
M  V30 2518 H 235.018 2.46116 -1.71368 0
M  V30 2519 H 232.571 1.26089 -0.923652 0
M  V30 2520 H 233.306 3.15176 0.763832 0
M  V30 2521 H 233.091 3.82109 -0.879514 0
M  V30 2522 H 234.581 4.17576 0.04496 0
M  V30 2523 N 235.018 0.912232 1.28515 0
M  V30 2524 C 235.965 0.397954 2.27343 0
M  V30 2525 C 236.935 -0.526766 1.57526 0
M  V30 2526 O 238.12 -0.449292 1.85435 0
M  V30 2527 C 235.26 -0.357263 3.43246 0
M  V30 2528 C 234.373 0.599788 4.27816 0
M  V30 2529 C 233.508 -0.173725 5.30916 0
M  V30 2530 C 232.547 0.777039 6.07148 0
M  V30 2531 N 231.684 0.0371398 7.0209 0
M  V30 2532 H 236.524 1.24577 2.70711 0
M  V30 2533 H 234.061 0.625612 1.33133 0
M  V30 2534 H 236.019 -0.8113 4.09236 0
M  V30 2535 H 234.649 -1.16943 3.00872 0
M  V30 2536 H 233.701 1.17235 3.61884 0
M  V30 2537 H 235.013 1.32704 4.80823 0
M  V30 2538 H 234.167 -0.688394 6.02782 0
M  V30 2539 H 232.906 -0.934041 4.78672 0
M  V30 2540 H 231.911 1.3031 5.34134 0
M  V30 2541 H 233.136 1.53689 6.61481 0
M  V30 2542 H 231.082 -0.705213 6.52198 0
M  V30 2543 H 230.999 0.704249 7.52713 0
M  V30 2544 H 232.267 -0.457383 7.78157 0
M  V30 2545 N 236.496 -1.42363 0.676048 0
M  V30 2546 C 237.444 -2.32596 -0.0131507 0
M  V30 2547 C 238.438 -1.49891 -0.789238 0
M  V30 2548 O 239.644 -1.65955 -0.697061 0
M  V30 2549 H 236.019 -0.751647 -0.0230481 0
M  V30 2550 H 237.99 -2.88421 0.765243 0
M  V30 2551 C 236.739 -3.34479 -0.949702 0
M  V30 2552 H 236.062 -3.98158 -0.361938 0
M  V30 2553 H 237.502 -4.00199 -1.4006 0
M  V30 2554 C 235.961 -2.66838 -2.05667 0
M  V30 2555 O 236.491 -2.50124 -3.14326 0
M  V30 2556 N 234.697 -2.25843 -1.82875 0
M  V30 2557 H 234.244 -2.39637 -0.945085 0
M  V30 2558 H 234.202 -1.80918 -2.5713 0
M  V30 2559 N 237.974 -0.419461 -1.51915 0
M  V30 2560 C 239.222 0.152637 -2.01523 0
M  V30 2561 C 239.543 1.44762 -1.30649 0
M  V30 2562 O 238.813 1.90997 -0.435535 0
M  V30 2563 H 237.393 0.0593966 -0.744635 0
M  V30 2564 H 240.055 -0.558073 -1.86739 0
M  V30 2565 H 239.151 0.341369 -3.10227 0
M  V30 2566 N 239.452 1.56882 -0.150215 0
M  V30 2567 C 240.384 2.14057 0.819286 0
M  V30 2568 C 241.397 1.09082 1.20851 0
M  V30 2569 O 242.586 1.36347 1.15203 0
M  V30 2570 C 239.686 2.65102 2.11127 0
M  V30 2571 C 238.859 3.94511 1.88891 0
M  V30 2572 C 237.918 4.30834 3.02107 0
M  V30 2573 O 236.944 4.99099 2.73659 0
M  V30 2574 N 238.146 3.90676 4.29363 0
M  V30 2575 H 240.911 2.97871 0.330618 0
M  V30 2576 H 238.472 1.61866 0.0332538 0
M  V30 2577 H 240.464 2.86411 2.85921 0
M  V30 2578 H 239.034 1.85994 2.51247 0
M  V30 2579 H 238.254 3.81795 0.981152 0
M  V30 2580 H 239.542 4.7907 1.71376 0
M  V30 2581 H 238.94 3.35677 4.55343 0
M  V30 2582 H 237.497 4.1703 5.00928 0
M  V30 2583 N 240.93 -0.123565 1.57115 0
M  V30 2584 C 242.207 -0.862196 1.75572 0
M  V30 2585 C 242.587 -1.98279 0.724475 0
M  V30 2586 O 241.935 -2.27102 -0.252407 0
M  V30 2587 C 242.145 -1.38309 3.20424 0
M  V30 2588 C 243.493 -1.83724 3.82793 0
M  V30 2589 O 244.517 -1.47999 3.23998 0
M  V30 2590 O 243.376 -2.49685 4.86127 0
M  V30 2591 H 240.47 -0.409113 0.718718 0
M  V30 2592 H 243.016 -0.107661 1.69358 0
M  V30 2593 H 241.788 -0.578889 3.86994 0
M  V30 2594 H 241.411 -2.20046 3.31158 0
M  V30 2595 N 242.408 -1.52605 -0.393616 0
M  V30 2596 C 243.819 -1.59417 -0.971761 0
M  V30 2597 C 244.17 -0.444173 -1.91106 0
M  V30 2598 O 243.295 0.433382 -2.12016 0
M  V30 2599 C 243.89 -2.88936 -1.76921 0
M  V30 2600 C 242.449 -2.98175 -2.29714 0
M  V30 2601 C 241.596 -2.54491 -1.10135 0
M  V30 2602 H 244.547 -1.57751 -0.173317 0
M  V30 2603 H 244.568 -2.75163 -2.62804 0
M  V30 2604 H 244.08 -3.72616 -1.08532 0
M  V30 2605 H 242.181 -2.19024 -3.01429 0
M  V30 2606 H 242.294 -4.02726 -2.59517 0
M  V30 2607 H 240.658 -2.08702 -1.45999 0
M  V30 2608 H 241.441 -3.4056 -0.432874 0
M  V30 2609 N 243.887 0.651787 -1.4349 0
M  V30 2610 C 244.85 1.74647 -1.48429 0
M  V30 2611 C 245.85 1.56513 -0.368817 0
M  V30 2612 O 247.04 1.62385 -0.630623 0
M  V30 2613 C 244.172 3.13533 -1.33827 0
M  V30 2614 H 245.365 1.71649 -2.4592 0
M  V30 2615 H 242.918 0.863573 -1.30277 0
M  V30 2616 H 243.653 3.22142 -0.37349 0
M  V30 2617 H 243.438 3.28101 -2.14691 0
M  V30 2618 H 244.928 3.93356 -1.40218 0
M  V30 2619 N 245.365 1.30045 0.890287 0
M  V30 2620 C 246.613 1.18327 1.63839 0
M  V30 2621 C 246.934 -0.263455 1.93212 0
M  V30 2622 O 246.204 -1.17856 1.56482 0
M  V30 2623 H 244.784 0.434933 0.607324 0
M  V30 2624 H 247.446 1.631 1.06698 0
M  V30 2625 H 246.542 1.74024 2.59079 0
M  V30 2626 N 246.843 -1.10192 1.12674 0
M  V30 2627 C 247.793 -2.14754 0.765801 0
M  V30 2628 C 248.777 -1.59154 -0.236409 0
M  V30 2629 O 249.969 -1.76951 -0.0415261 0
M  V30 2630 C 247.098 -3.42563 0.224827 0
M  V30 2631 C 246.184 -4.05091 1.25548 0
M  V30 2632 N 246.575 -4.42287 2.4539 0
M  V30 2633 C 244.873 -4.32186 1.10142 0
M  V30 2634 C 245.574 -4.91441 3.11224 0
M  V30 2635 N 244.55 -4.88405 2.38666 0
M  V30 2636 H 248.352 -2.41309 1.67772 0
M  V30 2637 H 245.866 -1.27339 1.00789 0
M  V30 2638 H 247.863 -4.16868 -0.0519578 0
M  V30 2639 H 246.523 -3.17467 -0.681515 0
M  V30 2640 H 247.534 -4.33902 2.82754 0
M  V30 2641 H 244.211 -4.16735 0.252587 0
M  V30 2642 H 245.601 -5.29749 4.13298 0
M  V30 2643 N 248.321 -0.919034 -1.28029 0
M  V30 2644 C 249.269 -0.401753 -2.29104 0
M  V30 2645 C 250.263 0.509354 -1.61561 0
M  V30 2646 O 251.469 0.390014 -1.75724 0
M  V30 2647 H 247.844 -0.111331 -0.743713 0
M  V30 2648 H 249.815 -1.2672 -2.70156 0
M  V30 2649 C 248.564 0.338148 -3.46052 0
M  V30 2650 H 247.887 -0.353732 -3.98232 0
M  V30 2651 H 249.327 0.664653 -4.18758 0
M  V30 2652 C 247.786 1.54798 -2.99231 0
M  V30 2653 O 248.316 2.64696 -3.02157 0
M  V30 2654 N 246.522 1.3968 -2.54829 0
M  V30 2655 H 246.069 0.502698 -2.52647 0
M  V30 2656 H 246.027 2.20755 -2.23863 0
M  V30 2657 N 249.799 1.42003 -0.683588 0
M  V30 2658 C 251.076 1.95112 -0.138075 0
M  V30 2659 C 251.456 1.62359 1.34918 0
M  V30 2660 O 250.804 0.924311 2.08971 0
M  V30 2661 C 251.014 3.46505 -0.416581 0
M  V30 2662 C 252.362 4.23254 -0.337834 0
M  V30 2663 O 253.386 3.54468 -0.35082 0
M  V30 2664 O 252.245 5.45743 -0.287596 0
M  V30 2665 H 249.339 0.826961 -0.00797996 0
M  V30 2666 H 251.885 1.51784 -0.758924 0
M  V30 2667 H 250.657 3.63582 -1.4465 0
M  V30 2668 H 250.28 3.969 0.235839 0
M  V30 2669 N 251.277 0.427512 1.51691 0
M  V30 2670 C 252.24 -0.377132 2.26076 0
M  V30 2671 C 253.24 -0.958089 1.29141 0
M  V30 2672 O 254.43 -0.83408 1.52934 0
M  V30 2673 C 251.562 -1.53262 3.04506 0
M  V30 2674 H 252.755 0.27464 2.9864 0
M  V30 2675 H 250.308 0.180445 1.55255 0
M  V30 2676 H 251.043 -2.22072 2.36335 0
M  V30 2677 H 250.828 -1.12232 3.75694 0
M  V30 2678 H 252.318 -2.10135 3.60878 0
M  V30 2679 N 252.755 -1.56801 0.158532 0
M  V30 2680 C 254.171 -1.5837 -0.197774 0
M  V30 2681 C 254.371 -1.17334 -1.63814 0
M  V30 2682 O 253.427 -0.878988 -2.36707 0
M  V30 2683 C 254.74 -3.00615 0.0714459 0
M  V30 2684 C 256.288 -3.12999 0.00864533 0
M  V30 2685 C 256.763 -4.57313 0.250685 0
M  V30 2686 N 258.254 -4.62777 0.198014 0
M  V30 2687 C 258.989 -5.72271 0.359642 0
M  V30 2688 N 258.485 -6.90371 0.579625 0
M  V30 2689 N 260.278 -5.61318 0.296438 0
M  V30 2690 H 252.429 -1.81765 1.09887 0
M  V30 2691 H 254.692 -0.841849 0.435884 0
M  V30 2692 H 254.398 -3.35068 1.06874 0
M  V30 2693 H 254.272 -3.71683 -0.642757 0
M  V30 2694 H 256.659 -2.7838 -0.979217 0
M  V30 2695 H 256.74 -2.44393 0.755359 0
M  V30 2696 H 256.384 -4.92639 1.2357 0
M  V30 2697 H 256.314 -5.24061 -0.516489 0
M  V30 2698 H 258.805 -3.77885 0.0331115 0
M  V30 2699 H 259.118 -7.69689 0.69275 0
M  V30 2700 H 257.463 -6.92264 0.616087 0
M  V30 2701 H 260.654 -4.67932 0.125258 0
M  V30 2702 H 260.827 -6.46599 0.425831 0
M  V30 2703 N 254.233 0.115231 -1.57178 0
M  V30 2704 C 255.649 0.468877 -1.52557 0
M  V30 2705 C 255.849 1.81649 -0.872125 0
M  V30 2706 O 254.905 2.48347 -0.45606 0
M  V30 2707 C 256.218 0.4499 -2.97315 0
M  V30 2708 C 257.766 0.533185 -3.08425 0
M  V30 2709 C 258.241 0.54456 -4.54751 0
M  V30 2710 N 259.732 0.605892 -4.5922 0
M  V30 2711 C 260.467 0.636203 -5.6986 0
M  V30 2712 N 259.963 0.623931 -6.89985 0
M  V30 2713 N 261.756 0.679496 -5.57978 0
M  V30 2714 H 253.907 -0.767712 -1.9804 0
M  V30 2715 H 256.17 -0.283609 -0.904583 0
M  V30 2716 H 255.876 -0.472721 -3.48509 0
M  V30 2717 H 255.75 1.27632 -3.5495 0
M  V30 2718 H 258.137 1.44623 -2.57232 0
M  V30 2719 H 258.218 -0.320995 -2.53778 0
M  V30 2720 H 257.862 -0.364452 -5.06591 0
M  V30 2721 H 257.792 1.41568 -5.07214 0
M  V30 2722 H 260.283 0.621386 -3.72756 0
M  V30 2723 H 260.596 0.649787 -7.70063 0
M  V30 2724 H 258.941 0.591296 -6.9248 0
M  V30 2725 H 262.132 0.686472 -4.63039 0
M  V30 2726 H 262.305 0.69965 -6.44212 0
M  V30 2727 N 255.711 1.52812 0.385517 0
M  V30 2728 C 256.939 1.71907 1.15133 0
M  V30 2729 C 257.354 0.439004 1.83625 0
M  V30 2730 O 256.711 -0.586765 1.7281 0
M  V30 2731 C 256.762 2.87099 2.19673 0
M  V30 2732 O 256.483 4.10151 1.53973 0
M  V30 2733 C 257.984 3.17902 3.08955 0
M  V30 2734 H 255.204 0.575479 0.345057 0
M  V30 2735 H 257.748 1.99476 0.45052 0
M  V30 2736 H 255.903 2.61982 2.85384 0
M  V30 2737 H 256.317 4.74514 2.23465 0
M  V30 2738 H 257.791 4.01959 3.7833 0
M  V30 2739 H 258.268 2.3243 3.72657 0
M  V30 2740 H 258.874 3.44871 2.48885 0
M  V30 2741 N 257.189 -0.644168 1.43834 0
M  V30 2742 C 258.605 -0.960875 1.27434 0
M  V30 2743 C 258.805 -2.00499 0.200618 0
M  V30 2744 O 257.861 -2.49018 -0.417906 0
M  V30 2745 C 259.174 -1.43653 2.64167 0
M  V30 2746 C 260.722 -1.55271 2.71772 0
M  V30 2747 C 261.197 -2.06224 4.08944 0
M  V30 2748 N 262.688 -2.13513 4.11055 0
M  V30 2749 C 263.423 -2.54081 5.14033 0
M  V30 2750 N 262.919 -2.9388 6.27381 0
M  V30 2751 N 264.712 -2.54101 5.01387 0
M  V30 2752 H 256.863 0.0465779 2.12349 0
M  V30 2753 H 259.126 -0.0417638 0.94708 0
M  V30 2754 H 258.832 -0.743706 3.43747 0
M  V30 2755 H 258.706 -2.40993 2.90176 0
M  V30 2756 H 261.093 -2.23653 1.92519 0
M  V30 2757 H 261.174 -0.563395 2.49519 0
M  V30 2758 H 260.818 -1.38441 4.88668 0
M  V30 2759 H 260.748 -3.06003 4.28567 0
M  V30 2760 H 263.239 -1.85493 3.29242 0
M  V30 2761 H 263.552 -3.2361 7.01781 0
M  V30 2762 H 261.897 -2.91663 6.30839 0
M  V30 2763 H 265.088 -2.22391 4.11898 0
M  V30 2764 H 265.261 -2.85394 5.81768 0
M  V30 2765 N 258.668 -1.30515 -0.883378 0
M  V30 2766 C 259.896 -1.22359 -1.66841 0
M  V30 2767 C 260.311 0.213296 -1.87591 0
M  V30 2768 O 259.668 1.14075 -1.42454 0
M  V30 2769 C 259.719 -1.95011 -3.04389 0
M  V30 2770 O 259.44 -3.3309 -2.84575 0
M  V30 2771 C 260.941 -1.93532 -3.98824 0
M  V30 2772 H 258.161 -0.423371 -0.520575 0
M  V30 2773 H 260.705 -1.72167 -1.10357 0
M  V30 2774 H 258.86 -1.48997 -3.57601 0
M  V30 2775 H 259.274 -3.69907 -3.71846 0
M  V30 2776 H 260.748 -2.48902 -4.92699 0
M  V30 2777 H 261.225 -0.914627 -4.29571 0
M  V30 2778 H 261.831 -2.39364 -3.51547 0
M  V30 2779 N 260.146 1.09593 -1.13257 0
M  V30 2780 C 261.395 1.81105 -0.887917 0
M  V30 2781 C 261.708 1.86563 0.587672 0
M  V30 2782 O 262.914 2.54367 0.949204 0
M  V30 2783 C 261.37 3.25338 -1.53895 0
M  V30 2784 C 260.978 3.28151 -3.04994 0
M  V30 2785 C 262.722 4.01617 -1.37492 0
M  V30 2786 C 260.629 4.66897 -3.6299 0
M  V30 2787 H 259.559 0.678661 -0.328534 0
M  V30 2788 H 262.21 1.23183 -1.36008 0
M  V30 2789 H 260.592 3.8331 -0.994446 0
M  V30 2790 H 261.766 2.79953 -3.66009 0
M  V30 2791 H 260.081 2.65361 -3.20893 0
M  V30 2792 H 262.678 5.04119 -1.78235 0
M  V30 2793 H 263.021 4.15072 -0.31957 0
M  V30 2794 H 263.554 3.50082 -1.88912 0
M  V30 2795 H 260.293 4.58643 -4.68323 0
M  V30 2796 H 259.813 5.15426 -3.06752 0
M  V30 2797 H 261.492 5.3587 -3.62563 0
M  V30 2798 N 261.624 0.925811 1.2754 0
M  V30 2799 C 262.872 0.564138 1.94067 0
M  V30 2800 C 263.193 -0.897188 1.73134 0
M  V30 2801 O 262.463 -1.63573 1.07799 0
M  V30 2802 H 261.043 0.205645 0.718136 0
M  V30 2803 H 263.705 1.1778 1.55287 0
M  V30 2804 H 262.801 0.76881 3.02483 0
M  V30 2805 N 263.102 -1.41638 0.69111 0
M  V30 2806 C 264.513 -1.84346 0.295517 0
M  V30 2807 C 264.864 -1.57833 -1.16547 0
M  V30 2808 O 263.989 -1.04648 -1.89414 0
M  V30 2809 C 264.584 -3.34636 0.529575 0
M  V30 2810 C 263.143 -3.7593 0.187944 0
M  V30 2811 C 262.29 -2.65082 0.814052 0
M  V30 2812 H 265.241 -1.31253 0.892092 0
M  V30 2813 H 265.262 -3.79903 -0.213148 0
M  V30 2814 H 264.774 -3.53901 1.59297 0
M  V30 2815 H 262.875 -3.62268 -0.871367 0
M  V30 2816 H 262.988 -4.74808 0.63985 0
M  V30 2817 H 261.352 -2.53528 0.244017 0
M  V30 2818 H 262.135 -2.87167 1.88123 0
M  V30 2819 N 264.58 -0.43555 -1.51462 0
M  V30 2820 C 265.51 0.367376 -2.30592 0
M  V30 2821 C 266.491 1.02263 -1.35928 0
M  V30 2822 O 267.676 1.02661 -1.64847 0
M  V30 2823 C 264.806 1.46983 -3.14664 0
M  V30 2824 C 263.76 0.938161 -4.17591 0
M  V30 2825 C 263.086 2.13622 -4.90173 0
M  V30 2826 C 264.386 -0.0261621 -5.22293 0
M  V30 2827 H 266.08 -0.292969 -2.97963 0
M  V30 2828 H 263.626 -0.14234 -1.43295 0
M  V30 2829 H 265.579 2.03873 -3.688 0
M  V30 2830 H 264.303 2.15843 -2.4511 0
M  V30 2831 H 262.962 0.391481 -3.64504 0
M  V30 2832 H 262.61 2.81098 -4.17124 0
M  V30 2833 H 262.31 1.78688 -5.59772 0
M  V30 2834 H 263.834 2.7107 -5.47132 0
M  V30 2835 H 265.248 0.452384 -5.71512 0
M  V30 2836 H 263.645 -0.287992 -5.99409 0
M  V30 2837 H 264.715 -0.963391 -4.75233 0
M  V30 2838 N 266.058 1.56714 -0.166846 0
M  V30 2839 C 267.304 1.97813 0.473473 0
M  V30 2840 C 267.659 1.05095 1.61161 0
M  V30 2841 O 266.952 0.0897541 1.9139 0
M  V30 2842 C 267.146 3.42889 1.00806 0
M  V30 2843 C 266.975 4.49635 -0.0767392 0
M  V30 2844 C 265.745 5.02566 -0.524894 0
M  V30 2845 C 267.943 5.06793 -0.875504 0
M  V30 2846 N 265.925 5.9294 -1.59047 0
M  V30 2847 C 267.296 5.93565 -1.79111 0
M  V30 2848 C 269.351 4.89306 -0.921083 0
M  V30 2849 C 268.054 6.64721 -2.74843 0
M  V30 2850 C 270.08 5.61179 -1.86633 0
M  V30 2851 C 269.442 6.47675 -2.76942 0
M  V30 2852 H 265.541 0.769093 0.141489 0
M  V30 2853 H 268.125 1.92874 -0.266031 0
M  V30 2854 H 266.296 3.48382 1.7171 0
M  V30 2855 H 268.028 3.71008 1.61664 0
M  V30 2856 H 264.783 4.73439 -0.123432 0
M  V30 2857 H 265.207 6.42831 -2.12361 0
M  V30 2858 H 269.849 4.22136 -0.23692 0
M  V30 2859 H 267.567 7.31107 -3.44249 0
M  V30 2860 H 271.153 5.49636 -1.90764 0
M  V30 2861 H 270.033 7.02313 -3.48893 0
M  V30 2862 N 267.536 -0.106894 1.57237 0
M  V30 2863 C 268.483 -1.13049 2.01217 0
M  V30 2864 C 269.453 -1.40471 0.886403 0
M  V30 2865 O 270.638 -1.52133 1.15153 0
M  V30 2866 C 267.778 -2.4487 2.43172 0
M  V30 2867 C 266.891 -2.24281 3.69218 0
M  V30 2868 C 266.026 -3.49417 4.00101 0
M  V30 2869 C 265.065 -3.24038 5.19294 0
M  V30 2870 N 264.202 -4.41409 5.45988 0
M  V30 2871 H 269.042 -0.748456 2.88448 0
M  V30 2872 H 266.579 -0.358054 1.42676 0
M  V30 2873 H 268.537 -3.21786 2.65537 0
M  V30 2874 H 267.167 -2.80944 1.58967 0
M  V30 2875 H 266.219 -1.38224 3.54398 0
M  V30 2876 H 267.531 -2.01512 4.56283 0
M  V30 2877 H 266.685 -4.34746 4.2318 0
M  V30 2878 H 265.424 -3.75229 3.11535 0
M  V30 2879 H 264.429 -2.37102 4.96047 0
M  V30 2880 H 265.654 -2.99584 6.09447 0
M  V30 2881 H 263.6 -4.67319 4.60379 0
M  V30 2882 H 263.517 -4.21788 6.274 0
M  V30 2883 H 264.785 -5.27836 5.73593 0
M  V30 2884 N 269.014 -1.53014 -0.377408 0
M  V30 2885 C 270.262 -1.6829 -1.11906 0
M  V30 2886 C 270.583 -0.431206 -1.90173 0
M  V30 2887 O 269.853 0.554595 -1.87886 0
M  V30 2888 H 268.433 -0.620371 -0.416112 0
M  V30 2889 H 271.095 -1.90167 -0.426893 0
M  V30 2890 H 270.191 -2.53862 -1.8155 0
M  V30 2891 N 270.492 0.636531 -1.44174 0
M  V30 2892 C 271.425 1.76139 -1.45087 0
M  V30 2893 C 272.403 1.59611 -0.310326 0
M  V30 2894 O 273.587 1.81568 -0.506477 0
M  V30 2895 C 270.714 3.13648 -1.27839 0
M  V30 2896 C 269.76 3.48838 -2.45386 0
M  V30 2897 S 270.593 3.46927 -4.07924 0
M  V30 2898 C 271.749 4.87064 -3.9309 0
M  V30 2899 H 271.982 1.75096 -2.40268 0
M  V30 2900 H 269.515 0.810666 -1.31406 0
M  V30 2901 H 271.473 3.93002 -1.18575 0
M  V30 2902 H 270.134 3.12235 -0.341787 0
M  V30 2903 H 269.327 4.48886 -2.29167 0
M  V30 2904 H 268.929 2.76935 -2.51362 0
M  V30 2905 H 271.221 5.76153 -3.56446 0
M  V30 2906 H 272.164 5.08337 -4.92949 0
M  V30 2907 H 272.572 4.61384 -3.25246 0
M  V30 2908 N 271.97 1.30982 0.876444 0
M  V30 2909 C 272.917 1.18085 1.98304 0
M  V30 2910 C 273.887 0.0682263 1.6596 0
M  V30 2911 O 275.072 0.239937 1.89285 0
M  V30 2912 C 272.212 0.887475 3.33493 0
M  V30 2913 C 271.325 2.08281 3.78475 0
M  V30 2914 C 270.46 1.72678 5.0235 0
M  V30 2915 C 269.499 2.88657 5.39762 0
M  V30 2916 N 268.636 2.53292 6.54819 0
M  V30 2917 H 273.476 2.1275 2.08666 0
M  V30 2918 H 271.013 1.05839 1.02159 0
M  V30 2919 H 272.971 0.697961 4.1132 0
M  V30 2920 H 271.601 -0.022315 3.22792 0
M  V30 2921 H 270.653 2.3833 2.96484 0
M  V30 2922 H 271.965 2.95108 4.02135 0
M  V30 2923 H 271.119 1.50151 5.87826 0
M  V30 2924 H 269.858 0.830327 4.8058 0
M  V30 2925 H 268.863 3.1184 4.52809 0
M  V30 2926 H 270.088 3.79002 5.63502 0
M  V30 2927 H 268.034 1.66163 6.34607 0
M  V30 2928 H 267.951 3.3365 6.7839 0
M  V30 2929 H 269.219 2.34143 7.43503 0
M  V30 2930 N 273.449 -1.08991 1.13837 0
M  V30 2931 C 274.865 -1.33312 0.877506 0
M  V30 2932 C 275.065 -1.95587 -0.48456 0
M  V30 2933 O 274.121 -2.20509 -1.23013 0
M  V30 2934 C 275.434 -2.24045 2.0056 0
M  V30 2935 C 276.982 -2.37542 2.03821 0
M  V30 2936 C 277.457 -3.31614 3.15905 0
M  V30 2937 N 278.948 -3.39189 3.15445 0
M  V30 2938 C 279.683 -4.11992 3.98811 0
M  V30 2939 N 279.179 -4.87553 4.92203 0
M  V30 2940 N 280.972 -4.07762 3.86894 0
M  V30 2941 H 273.123 -0.669456 2.01574 0
M  V30 2942 H 275.386 -0.357482 0.878015 0
M  V30 2943 H 275.092 -1.85521 2.98789 0
M  V30 2944 H 274.966 -3.24466 1.92359 0
M  V30 2945 H 277.353 -2.75327 1.06202 0
M  V30 2946 H 277.434 -1.36884 2.16093 0
M  V30 2947 H 277.078 -2.94551 4.13766 0
M  V30 2948 H 277.008 -4.32186 3.0087 0
M  V30 2949 H 279.499 -2.85314 2.47799 0
M  V30 2950 H 279.812 -5.40549 5.52292 0
M  V30 2951 H 278.157 -4.86627 4.96205 0
M  V30 2952 H 281.348 -3.47833 3.13257 0
M  V30 2953 H 281.521 -4.64238 4.52092 0
M  V30 2954 N 274.927 -0.932562 -1.27047 0
M  V30 2955 C 276.173 -0.576412 -1.94436 0
M  V30 2956 C 276.506 0.880891 -1.73072 0
M  V30 2957 O 275.781 1.62905 -1.06264 0
M  V30 2958 C 276.064 -0.909031 -3.48437 0
M  V30 2959 C 275.917 -2.42044 -3.79123 0
M  V30 2960 C 277.236 -0.418341 -4.38107 0
M  V30 2961 H 274.355 -0.210888 -0.706184 0
M  V30 2962 H 276.997 -1.16522 -1.50075 0
M  V30 2963 H 275.147 -0.407947 -3.86352 0
M  V30 2964 H 276.819 -2.99359 -3.50973 0
M  V30 2965 H 275.062 -2.86758 -3.25503 0
M  V30 2966 H 275.733 -2.6037 -4.86736 0
M  V30 2967 H 278.209 -0.847856 -4.0737 0
M  V30 2968 H 277.085 -0.679981 -5.44672 0
M  V30 2969 H 277.346 0.681642 -4.36814 0
M  V30 2970 N 276.405 1.4127 -0.698611 0
M  V30 2971 C 277.652 2.0118 -0.230865 0
M  V30 2972 C 277.98 1.55338 1.17049 0
M  V30 2973 O 277.235 0.756775 1.80475 0
M  V30 2974 C 277.534 3.56592 -0.240192 0
M  V30 2975 C 277.2 4.21955 -1.58948 0
M  V30 2976 C 275.862 4.39524 -1.95887 0
M  V30 2977 C 278.214 4.58576 -2.47704 0
M  V30 2978 C 275.542 4.90992 -3.2116 0
M  V30 2979 C 277.894 5.11435 -3.72313 0
M  V30 2980 C 276.558 5.27215 -4.0939 0
M  V30 2981 H 275.828 0.736169 -0.0844796 0
M  V30 2982 H 278.475 1.69124 -0.8983 0
M  V30 2983 H 276.78 3.88456 0.510797 0
M  V30 2984 H 278.477 4.00758 0.139296 0
M  V30 2985 H 275.067 4.08657 -1.29219 0
M  V30 2986 H 279.251 4.44654 -2.20445 0
M  V30 2987 H 274.507 5.01393 -3.49878 0
M  V30 2988 H 278.681 5.38752 -4.4127 0
M  V30 2989 H 276.308 5.66859 -5.06533 0
M  V30 2990 N 277.883 0.443576 1.51229 0
M  V30 2991 C 279.108 -0.121648 2.07043 0
M  V30 2992 C 279.533 -1.35156 1.30823 0
M  V30 2993 O 278.891 -1.7793 0.347934 0
M  V30 2994 C 278.939 -0.41624 3.5819 0
M  V30 2995 O 278.043 -1.50163 3.8409 0
M  V30 2996 H 277.384 0.000871367 0.663999 0
M  V30 2997 H 279.914 0.626706 1.94765 0
M  V30 2998 H 279.924 -0.664867 4.02546 0
M  V30 2999 H 278.599 0.482653 4.1309 0
M  V30 3000 H 277.176 -1.24248 3.51592 0
M  V30 3001 N 279.361 -1.56624 0.175154 0
M  V30 3002 C 280.638 -1.88688 -0.515373 0
M  V30 3003 C 281.018 -1.08564 -1.81044 0
M  V30 3004 O 280.366 -0.180703 -2.27784 0
M  V30 3005 C 280.576 -3.40768 -0.753552 0
M  V30 3006 C 281.924 -4.10587 -1.08184 0
M  V30 3007 O 282.948 -3.46106 -0.841961 0
M  V30 3008 O 281.807 -5.24512 -1.53459 0
M  V30 3009 H 278.901 -0.78301 -0.26613 0
M  V30 3010 H 281.447 -1.68347 0.213877 0
M  V30 3011 H 280.219 -3.90965 0.161829 0
M  V30 3012 H 279.842 -3.66733 -1.53598 0
M  V30 3013 N 280.839 0.0985539 -1.57292 0
M  V30 3014 C 282.087 0.801092 -1.85545 0
M  V30 3015 C 282.408 1.79438 -0.763353 0
M  V30 3016 O 281.678 1.94763 0.21073 0
M  V30 3017 H 280.258 0.29884 -0.684619 0
M  V30 3018 H 282.92 0.0810064 -1.94732 0
M  V30 3019 H 282.016 1.3338 -2.82163 0
M  V30 3020 N 282.317 1.53212 0.369288 0
M  V30 3021 C 283.564 1.69215 1.11232 0
M  V30 3022 C 283.892 0.442048 1.8941 0
M  V30 3023 O 283.147 -0.575944 1.87033 0
M  V30 3024 C 283.446 2.89101 2.10132 0
M  V30 3025 C 283.112 4.25758 1.48463 0
M  V30 3026 C 281.774 4.6292 1.31372 0
M  V30 3027 C 284.126 5.10757 1.03811 0
M  V30 3028 C 281.454 5.82722 0.68207 0
M  V30 3029 C 283.806 6.31201 0.420487 0
M  V30 3030 C 282.47 6.67079 0.237038 0
M  V30 3031 H 281.74 0.619201 0.407027 0
M  V30 3032 H 284.387 1.87391 0.394552 0
M  V30 3033 H 282.692 2.65421 2.88199 0
M  V30 3034 H 284.389 2.98676 2.6757 0
M  V30 3035 H 280.979 3.96494 1.62758 0
M  V30 3036 H 285.163 4.82599 1.1581 0
M  V30 3037 H 280.419 6.09113 0.528316 0
M  V30 3038 H 284.593 6.96368 0.0662874 0
M  V30 3039 H 282.22 7.59774 -0.254477 0
M  V30 3040 N 283.795 -0.628877 1.44509 0
M  V30 3041 C 285.044 -1.38437 1.4669 0
M  V30 3042 C 285.357 -1.95322 0.104272 0
M  V30 3043 O 286.563 -2.715 0.00362163 0
M  V30 3044 C 285.019 -2.50659 2.5826 0
M  V30 3045 C 284.627 -2.00277 4.0074 0
M  V30 3046 C 286.371 -3.27844 2.69664 0
M  V30 3047 C 284.278 -3.09854 5.0373 0
M  V30 3048 H 283.208 -0.520245 0.545766 0
M  V30 3049 H 285.859 -0.676313 1.70582 0
M  V30 3050 H 284.241 -3.2405 2.27612 0
M  V30 3051 H 285.415 -1.33736 4.40966 0
M  V30 3052 H 283.73 -1.35901 3.93599 0
M  V30 3053 H 286.327 -4.09534 3.43781 0
M  V30 3054 H 286.67 -3.77471 1.75559 0
M  V30 3055 H 287.203 -2.61543 2.99733 0
M  V30 3056 H 283.942 -2.65168 5.99472 0
M  V30 3057 H 283.462 -3.7503 4.68095 0
M  V30 3058 H 285.141 -3.74592 5.27532 0
M  V30 3059 N 285.273 -1.31445 -0.869486 0
M  V30 3060 C 286.498 -1.24256 -1.66058 0
M  V30 3061 C 286.923 0.188928 -1.87149 0
M  V30 3062 O 286.281 1.13522 -1.4136 0
M  V30 3063 C 286.329 -1.9924 -3.00559 0
M  V30 3064 O 285.433 -1.33007 -3.90362 0
M  V30 3065 H 284.774 -0.428973 -0.506831 0
M  V30 3066 H 287.304 -1.73521 -1.08404 0
M  V30 3067 H 287.314 -2.08854 -3.50491 0
M  V30 3068 H 285.989 -3.03342 -2.84528 0
M  V30 3069 H 284.566 -1.31848 -3.48813 0
M  V30 3070 N 286.751 1.08385 -1.14413 0
M  V30 3071 C 287.999 1.80419 -0.910679 0
M  V30 3072 C 288.32 1.86658 0.564243 0
M  V30 3073 O 287.59 1.35985 1.41014 0
M  V30 3074 H 286.17 0.668204 -0.333934 0
M  V30 3075 H 288.832 1.31037 -1.44275 0
M  V30 3076 H 287.928 2.83238 -1.31082 0
M  V30 3077 N 288.23 0.939286 1.26551 0
M  V30 3078 C 289.507 0.5038 1.89001 0
M  V30 3079 C 289.887 -1.01854 1.84903 0
M  V30 3080 O 289.235 -1.87773 1.30206 0
M  V30 3081 C 289.445 1.063 3.32417 0
M  V30 3082 C 290.793 1.13051 4.09273 0
M  V30 3083 O 291.817 1.01345 3.41479 0
M  V30 3084 O 290.676 1.31233 5.30509 0
M  V30 3085 H 287.77 0.163897 0.810597 0
M  V30 3086 H 290.316 1.03173 1.34735 0
M  V30 3087 H 289.088 2.10665 3.29752 0
M  V30 3088 H 288.711 0.517408 3.94219 0
M  V30 3089 N 289.708 -1.40897 0.706093 0
M  V30 3090 C 290.671 -2.29131 0.0562841 0
M  V30 3091 C 291.671 -1.44901 -0.697166 0
M  V30 3092 O 292.861 -1.65926 -0.530484 0
M  V30 3093 C 289.993 -3.27957 -0.93043 0
M  V30 3094 H 291.186 -2.88091 0.833284 0
M  V30 3095 H 288.739 -1.4906 0.470192 0
M  V30 3096 H 289.474 -2.73997 -1.73482 0
M  V30 3097 H 289.259 -3.90124 -0.393166 0
M  V30 3098 H 290.749 -3.94049 -1.38256 0
M  V30 3099 N 291.186 -0.45159 -1.50991 0
M  V30 3100 C 292.432 0.110237 -2.025 0
M  V30 3101 C 292.765 1.41109 -1.33424 0
M  V30 3102 O 292.04 1.89135 -0.453659 0
M  V30 3103 C 292.323 0.314271 -3.58726 0
M  V30 3104 C 292.176 -1.00623 -4.38401 0
M  V30 3105 C 293.495 1.07767 -4.26702 0
M  V30 3106 H 290.614 0.0385897 -0.735989 0
M  V30 3107 H 293.256 -0.593374 -1.80497 0
M  V30 3108 H 291.406 0.913601 -3.77605 0
M  V30 3109 H 293.078 -1.64064 -4.31139 0
M  V30 3110 H 291.321 -1.6075 -4.02917 0
M  V30 3111 H 291.992 -0.817341 -5.45915 0
M  V30 3112 H 294.468 0.56986 -4.12179 0
M  V30 3113 H 293.344 1.18921 -5.35863 0
M  V30 3114 H 293.605 2.10939 -3.88532 0
M  V30 3115 N 292.664 1.56529 -0.183458 0
M  V30 3116 C 293.574 2.22144 0.754272 0
M  V30 3117 C 294.59 1.21684 1.24374 0
M  V30 3118 O 295.766 1.54385 1.29333 0
M  V30 3119 C 292.831 2.85884 1.96141 0
M  V30 3120 C 291.892 4.01579 1.51765 0
M  V30 3121 C 291.125 4.6227 2.66725 0
M  V30 3122 O 291.348 4.21865 3.83909 0
M  V30 3123 O 290.282 5.51936 2.40104 0
M  V30 3124 H 294.108 3.02861 0.225527 0
M  V30 3125 H 291.693 1.49331 0.0453032 0
M  V30 3126 H 293.575 3.26253 2.66715 0
M  V30 3127 H 292.25 2.08154 2.47899 0
M  V30 3128 H 291.157 3.65856 0.781049 0
M  V30 3129 H 292.49 4.80938 1.04686 0
M  V30 3130 N 294.142 -0.090211 1.57342 0
M  V30 3131 C 295.382 -0.798365 1.88163 0
M  V30 3132 C 295.746 -1.75662 0.775046 0
M  V30 3133 O 296.947 -2.50849 0.965816 0
M  V30 3134 C 295.218 -1.50376 3.24225 0
M  V30 3135 S 296.777 -2.24952 3.76752 0
M  V30 3136 H 293.595 -0.265883 0.659414 0
M  V30 3137 H 296.197 -0.055264 1.95422 0
M  V30 3138 H 294.901 -0.792286 4.0268 0
M  V30 3139 H 294.432 -2.28666 3.20118 0
M  V30 3140 H 296.447 -3.51173 3.5056 0
M  V30 3141 N 295.62 -1.53406 -0.361157 0
M  V30 3142 C 296.845 -1.74024 -1.12829 0
M  V30 3143 C 297.27 -0.470069 -1.82132 0
M  V30 3144 O 296.628 0.57619 -1.719 0
M  V30 3145 C 296.676 -2.90903 -2.13091 0
M  V30 3146 O 295.78 -2.59821 -3.20261 0
M  V30 3147 H 295.121 -0.577804 -0.327168 0
M  V30 3148 H 297.651 -2.00307 -0.41693 0
M  V30 3149 H 297.661 -3.17194 -2.56616 0
M  V30 3150 H 296.336 -3.83034 -1.62042 0
M  V30 3151 H 294.913 -2.44362 -2.81677 0
M  V30 3152 N 297.098 0.621204 -1.44841 0
M  V30 3153 C 298.028 1.74366 -1.55303 0
M  V30 3154 C 299.009 1.65199 -0.405385 0
M  V30 3155 O 300.194 1.83807 -0.626787 0
M  V30 3156 C 297.324 3.12931 -1.50637 0
M  V30 3157 C 296.278 3.36896 -2.63979 0
M  V30 3158 C 295.604 4.75594 -2.44366 0
M  V30 3159 C 296.904 3.28483 -4.06074 0
M  V30 3160 H 298.598 1.65867 -2.49256 0
M  V30 3161 H 296.144 0.796558 -1.19962 0
M  V30 3162 H 298.097 3.9124 -1.56555 0
M  V30 3163 H 296.821 3.22237 -0.532057 0
M  V30 3164 H 295.48 2.60972 -2.57467 0
M  V30 3165 H 295.128 4.81616 -1.45105 0
M  V30 3166 H 294.828 4.92586 -3.20364 0
M  V30 3167 H 296.352 5.5612 -2.52117 0
M  V30 3168 H 297.766 3.96684 -4.13902 0
M  V30 3169 H 296.163 3.57008 -4.82354 0
M  V30 3170 H 297.233 2.26133 -4.28943 0
M  V30 3171 N 298.576 1.31904 0.862503 0
M  V30 3172 C 299.524 1.20125 1.9918 0
M  V30 3173 C 300.518 0.107824 1.69056 0
M  V30 3174 O 301.724 0.270223 1.7796 0
M  V30 3175 H 298.099 0.372148 0.65346 0
M  V30 3176 H 300.07 2.15652 2.06244 0
M  V30 3177 C 298.819 0.933099 3.34946 0
M  V30 3178 H 298.142 1.76664 3.5865 0
M  V30 3179 H 299.582 0.890892 4.14535 0
M  V30 3180 C 298.041 -0.364172 3.34926 0
M  V30 3181 O 298.571 -1.37858 3.77304 0
M  V30 3182 N 296.777 -0.383362 2.8806 0
M  V30 3183 H 296.324 0.442651 2.53768 0
M  V30 3184 H 296.282 -1.25123 2.8843 0
M  V30 3185 N 300.054 -1.07777 1.14986 0
M  V30 3186 C 300.984 -2.16865 0.865557 0
M  V30 3187 C 301.965 -1.69123 -0.182083 0
M  V30 3188 O 303.15 -1.94164 -0.0373815 0
M  V30 3189 C 300.28 -3.45539 0.349313 0
M  V30 3190 C 299.234 -4.06708 1.33313 0
M  V30 3191 C 298.56 -5.30411 0.675918 0
M  V30 3192 C 299.86 -4.47241 2.69764 0
M  V30 3193 H 301.554 -2.40905 1.77778 0
M  V30 3194 H 299.1 -1.15781 0.856203 0
M  V30 3195 H 301.053 -4.21174 0.137983 0
M  V30 3196 H 299.777 -3.21072 -0.598362 0
M  V30 3197 H 298.436 -3.33112 1.53075 0
M  V30 3198 H 298.084 -5.02232 -0.277767 0
M  V30 3199 H 297.784 -5.72293 1.33244 0
M  V30 3200 H 299.308 -6.08755 0.474262 0
M  V30 3201 H 300.722 -5.14025 2.53873 0
M  V30 3202 H 299.119 -5.00062 3.3175 0
M  V30 3203 H 300.189 -3.58818 3.26156 0
M  V30 3204 N 301.532 -0.945985 -1.26051 0
M  V30 3205 C 302.464 -0.416662 -2.25381 0
M  V30 3206 C 303.477 0.462712 -1.56086 0
M  V30 3207 O 304.666 0.272383 -1.7641 0
M  V30 3208 C 301.766 0.419812 -3.3629 0
M  V30 3209 C 300.939 -0.444531 -4.35135 0
M  V30 3210 C 299.998 0.332305 -5.2515 0
M  V30 3211 O 299.024 -0.266324 -5.68577 0
M  V30 3212 N 300.226 1.62763 -5.57215 0
M  V30 3213 H 302.991 -1.27059 -2.71433 0
M  V30 3214 H 300.552 -0.815392 -1.39868 0
M  V30 3215 H 302.544 0.947013 -3.93464 0
M  V30 3216 H 301.114 1.17456 -2.89694 0
M  V30 3217 H 300.334 -1.15291 -3.76964 0
M  V30 3218 H 301.622 -1.03478 -4.98166 0
M  V30 3219 H 301.02 2.13603 -5.23823 0
M  V30 3220 H 299.577 2.10097 -6.17011 0
M  V30 3221 N 303.011 1.40521 -0.713556 0
M  V30 3222 C 303.941 2.33381 -0.0743864 0
M  V30 3223 C 304.922 1.52784 0.747735 0
M  V30 3224 O 306.107 1.81258 0.697071 0
M  V30 3225 C 303.237 3.36748 0.849598 0
M  V30 3226 C 302.191 4.27793 0.133247 0
M  V30 3227 C 301.517 5.21679 1.17281 0
M  V30 3228 C 302.817 5.12415 -1.01134 0
M  V30 3229 H 304.511 2.87081 -0.850007 0
M  V30 3230 H 302.057 1.38034 -0.410201 0
M  V30 3231 H 304.01 4.00648 1.30612 0
M  V30 3232 H 302.734 2.81439 1.65709 0
M  V30 3233 H 301.393 3.65342 -0.303426 0
M  V30 3234 H 301.041 4.62677 1.9733 0
M  V30 3235 H 300.741 5.83435 0.698397 0
M  V30 3236 H 302.265 5.88456 1.62947 0
M  V30 3237 H 303.679 5.69781 -0.634274 0
M  V30 3238 H 302.076 5.83203 -1.41399 0
M  V30 3239 H 303.146 4.48514 -1.84292 0
M  V30 3240 N 304.489 0.459591 1.5075 0
M  V30 3241 C 305.735 -0.0994966 2.02556 0
M  V30 3242 C 306.068 -1.40399 1.3417 0
M  V30 3243 O 305.343 -1.88892 0.463683 0
M  V30 3244 C 305.626 -0.295242 3.58888 0
M  V30 3245 C 305.479 1.02947 4.37861 0
M  V30 3246 C 306.798 -1.05502 4.27267 0
M  V30 3247 H 303.917 -0.034686 0.736183 0
M  V30 3248 H 306.559 0.602938 1.8018 0
M  V30 3249 H 304.709 -0.893563 3.78084 0
M  V30 3250 H 306.381 1.66348 4.30263 0
M  V30 3251 H 304.624 1.62885 4.02058 0
M  V30 3252 H 305.295 0.846281 5.45474 0
M  V30 3253 H 307.771 -0.547993 4.12476 0
M  V30 3254 H 306.647 -1.16077 5.36486 0
M  V30 3255 H 306.908 -2.08875 3.89645 0
M  V30 3256 N 305.967 -1.56429 0.191757 0
M  V30 3257 C 307.215 -1.97095 -0.447006 0
M  V30 3258 C 307.536 -1.07967 -1.62383 0
M  V30 3259 O 306.806 -0.150248 -1.95323 0
M  V30 3260 H 305.386 -0.727832 -0.168135 0
M  V30 3261 H 308.048 -1.92911 0.27771 0
M  V30 3262 H 307.144 -3.01848 -0.793371 0
M  V30 3263 N 307.445 0.0818655 -1.57387 0
M  V30 3264 C 308.355 1.11642 -2.06333 0
M  V30 3265 C 309.371 1.43033 -0.99083 0
M  V30 3266 O 310.547 1.53411 -1.30488 0
M  V30 3267 C 307.612 2.41342 -2.48907 0
M  V30 3268 C 306.673 2.17014 -3.7041 0
M  V30 3269 C 305.906 3.4053 -4.10944 0
M  V30 3270 O 306.129 4.4927 -3.51444 0
M  V30 3271 O 305.063 3.29336 -5.03807 0
M  V30 3272 H 308.889 0.730657 -2.9478 0
M  V30 3273 H 306.474 0.295301 -1.46452 0
M  V30 3274 H 308.356 3.17691 -2.76858 0
M  V30 3275 H 307.031 2.79319 -1.63593 0
M  V30 3276 H 305.938 1.38403 -3.47556 0
M  V30 3277 H 307.271 1.83923 -4.56545 0
M  V30 3278 N 308.923 1.53595 0.353017 0
M  V30 3279 C 309.886 1.80232 1.41594 0
M  V30 3280 C 310.886 0.673081 1.46035 0
M  V30 3281 O 312.076 0.941335 1.46576 0
M  V30 3282 C 309.208 1.93578 2.80607 0
M  V30 3283 H 310.401 2.75174 1.19244 0
M  V30 3284 H 307.954 1.44864 0.586872 0
M  V30 3285 H 308.689 1.00746 3.08254 0
M  V30 3286 H 308.474 2.75724 2.78781 0
M  V30 3287 H 309.964 2.15735 3.57558 0
M  V30 3288 N 310.401 -0.613514 1.45168 0
M  V30 3289 C 311.641 -1.38405 1.5041 0
M  V30 3290 C 312.005 -1.91489 0.139922 0
M  V30 3291 O 313.206 -2.68716 0.067033 0
M  V30 3292 C 311.477 -2.50552 2.5487 0
M  V30 3293 S 313.036 -3.38439 2.79292 0
M  V30 3294 H 309.854 -0.471945 0.531779 0
M  V30 3295 H 312.456 -0.708518 1.82209 0
M  V30 3296 H 311.16 -2.09894 3.52665 0
M  V30 3297 H 310.691 -3.22913 2.24701 0
M  V30 3298 H 312.706 -4.48527 2.12222 0
M  V30 3299 N 311.879 -1.3236 -0.855495 0
M  V30 3300 C 313.126 -1.22872 -1.60962 0
M  V30 3301 C 313.454 0.209658 -1.93367 0
M  V30 3302 O 312.709 1.16243 -1.57436 0
M  V30 3303 C 313.008 -2.03275 -2.93963 0
M  V30 3304 C 312.674 -3.5264 -2.80991 0
M  V30 3305 C 311.336 -3.93364 -2.7716 0
M  V30 3306 C 313.688 -4.47626 -2.66983 0
M  V30 3307 C 311.016 -5.27319 -2.572 0
M  V30 3308 C 313.368 -5.81723 -2.48558 0
M  V30 3309 C 312.032 -6.2165 -2.4312 0
M  V30 3310 H 311.302 -0.44962 -0.589001 0
M  V30 3311 H 313.949 -1.63777 -0.992442 0
M  V30 3312 H 312.254 -1.55095 -3.59795 0
M  V30 3313 H 313.951 -1.93303 -3.51333 0
M  V30 3314 H 310.541 -3.20295 -2.84797 0
M  V30 3315 H 314.725 -4.17084 -2.68988 0
M  V30 3316 H 309.981 -5.57311 -2.51424 0
M  V30 3317 H 314.155 -6.5494 -2.36699 0
M  V30 3318 H 311.782 -7.25388 -2.27412 0
M  V30 3319 N 313.357 1.07166 -1.15556 0
M  V30 3320 C 314.585 1.83514 -0.955519 0
M  V30 3321 C 315 1.82163 0.49621 0
M  V30 3322 O 314.357 1.23441 1.34419 0
M  V30 3323 C 314.408 3.30515 -1.46432 0
M  V30 3324 O 314.129 3.31937 -2.85918 0
M  V30 3325 C 315.63 4.23625 -1.30603 0
M  V30 3326 H 312.85 0.578926 -0.339244 0
M  V30 3327 H 315.394 1.35265 -1.53374 0
M  V30 3328 H 313.549 3.76106 -0.928584 0
M  V30 3329 H 313.963 4.23794 -3.09029 0
M  V30 3330 H 315.437 5.24831 -1.71047 0
M  V30 3331 H 315.914 4.38485 -0.250441 0
M  V30 3332 H 316.52 3.83871 -1.83094 0
M  V30 3333 N 314.835 0.952656 1.25548 0
M  V30 3334 C 315.783 0.462354 2.27958 0
M  V30 3335 C 316.777 -0.46634 1.62855 0
M  V30 3336 O 317.983 -0.343287 1.76696 0
M  V30 3337 H 314.358 0.13101 0.7405 0
M  V30 3338 H 316.329 1.33839 2.66702 0
M  V30 3339 C 315.078 -0.24628 3.46827 0
M  V30 3340 H 314.401 0.459192 3.97154 0
M  V30 3341 H 315.841 -0.553393 4.20373 0
M  V30 3342 C 314.3 -1.4681 3.0323 0
M  V30 3343 O 314.83 -2.56591 3.09069 0
M  V30 3344 N 313.036 -1.32874 2.58443 0
M  V30 3345 H 312.583 -0.435536 2.53891 0
M  V30 3346 H 312.541 -2.14742 2.29637 0
M  V30 3347 N 316.313 -1.40141 0.720998 0
M  V30 3348 C 317.724 -1.83678 0.334553 0
M  V30 3349 C 318.075 -1.6027 -1.13173 0
M  V30 3350 O 317.2 -1.08643 -1.87152 0
M  V30 3351 C 317.795 -3.33437 0.600437 0
M  V30 3352 C 316.354 -3.75447 0.267642 0
M  V30 3353 C 315.501 -2.63296 0.870097 0
M  V30 3354 H 318.452 -1.29331 0.919732 0
M  V30 3355 H 318.473 -3.80269 -0.132517 0
M  V30 3356 H 317.985 -3.50442 1.66768 0
M  V30 3357 H 316.086 -3.64035 -0.794329 0
M  V30 3358 H 316.199 -4.73344 0.74042 0
M  V30 3359 H 314.563 -2.52954 0.297739 0
M  V30 3360 H 315.346 -2.83112 1.94172 0
M  V30 3361 N 317.792 -0.46758 -1.50504 0
M  V30 3362 C 318.722 0.318381 -2.31319 0
M  V30 3363 C 319.703 0.993564 -1.38066 0
M  V30 3364 O 320.888 0.991411 -1.66987 0
M  V30 3365 C 318.018 1.40275 -3.17711 0
M  V30 3366 C 316.972 0.849373 -4.19487 0
M  V30 3367 C 316.298 2.03177 -4.94594 0
M  V30 3368 C 317.598 -0.136942 -5.2212 0
M  V30 3369 H 319.292 -0.356106 -2.97275 0
M  V30 3370 H 316.838 -0.172703 -1.42961 0
M  V30 3371 H 318.791 1.96004 -3.73042 0
M  V30 3372 H 317.515 2.10596 -2.49634 0
M  V30 3373 H 316.174 0.314076 -3.65252 0
M  V30 3374 H 315.822 2.72187 -4.22993 0
M  V30 3375 H 315.522 1.66774 -5.63436 0
M  V30 3376 H 317.046 2.59403 -5.52759 0
M  V30 3377 H 318.46 0.331056 -5.72343 0
M  V30 3378 H 316.857 -0.41507 -5.98663 0
M  V30 3379 H 317.927 -1.06398 -4.73083 0
M  V30 3380 N 319.27 1.56325 -0.20005 0
M  V30 3381 C 320.519 1.96895 0.437652 0
M  V30 3382 C 320.832 1.08999 1.62415 0
M  V30 3383 O 322.038 1.39372 2.32997 0
M  V30 3384 C 320.494 3.50198 0.830025 0
M  V30 3385 C 320.102 4.46765 -0.332461 0
M  V30 3386 C 321.846 3.99526 1.43453 0
M  V30 3387 C 319.753 5.91344 0.0811468 0
M  V30 3388 H 318.683 0.735209 0.167282 0
M  V30 3389 H 321.334 1.81148 -0.292853 0
M  V30 3390 H 319.716 3.61467 1.61734 0
M  V30 3391 H 320.89 4.47231 -1.11 0
M  V30 3392 H 319.205 4.07657 -0.848789 0
M  V30 3393 H 321.802 5.05025 1.75652 0
M  V30 3394 H 322.145 3.44122 2.34277 0
M  V30 3395 H 322.678 3.91393 0.71109 0
M  V30 3396 H 319.417 6.50685 -0.793033 0
M  V30 3397 H 318.937 5.94121 0.823445 0
M  V30 3398 H 320.616 6.44945 0.515252 0
M  V30 3399 N 320.748 -0.0735177 1.57428 0
M  V30 3400 C 321.994 -0.774145 1.87443 0
M  V30 3401 C 322.327 -1.77311 0.792103 0
M  V30 3402 O 321.602 -1.93492 -0.197793 0
M  V30 3403 C 321.885 -1.48367 3.28115 0
M  V30 3404 C 321.738 -0.501227 4.46999 0
M  V30 3405 C 323.057 -2.429 3.66998 0
M  V30 3406 H 320.176 -0.279971 0.681752 0
M  V30 3407 H 322.818 -0.0373616 1.89963 0
M  V30 3408 H 320.968 -2.11171 3.26097 0
M  V30 3409 H 322.64 0.121468 4.6114 0
M  V30 3410 H 320.883 0.183593 4.33411 0
M  V30 3411 H 321.554 -1.03526 5.42205 0
M  V30 3412 H 324.03 -1.90175 3.70098 0
M  V30 3413 H 322.906 -2.89549 4.66318 0
M  V30 3414 H 323.167 -3.27628 2.96837 0
M  V30 3415 N 322.226 -1.5378 -0.344866 0
M  V30 3416 C 323.189 -1.80981 -1.40637 0
M  V30 3417 C 324.189 -0.680816 -1.45676 0
M  V30 3418 O 325.379 -0.949095 -1.46075 0
M  V30 3419 C 322.511 -1.95063 -2.79577 0
M  V30 3420 H 323.704 -2.75803 -1.17783 0
M  V30 3421 H 321.257 -1.45173 -0.579181 0
M  V30 3422 H 321.992 -1.02379 -3.07716 0
M  V30 3423 H 321.777 -2.77198 -2.77315 0
M  V30 3424 H 323.267 -2.17629 -3.56409 0
M  V30 3425 N 323.704 0.605807 -1.45491 0
M  V30 3426 C 324.95 1.36679 -1.49823 0
M  V30 3427 C 325.283 1.93693 -0.140175 0
M  V30 3428 O 324.558 1.75158 0.845581 0
M  V30 3429 C 324.841 2.51337 -2.57879 0
M  V30 3430 C 324.694 1.99508 -4.03134 0
M  V30 3431 C 326.013 3.53463 -2.62205 0
M  V30 3432 H 323.132 0.495617 -0.545466 0
M  V30 3433 H 325.774 0.682732 -1.7731 0
M  V30 3434 H 323.924 3.09691 -2.34571 0
M  V30 3435 H 325.596 1.45789 -4.37656 0
M  V30 3436 H 323.839 1.30496 -4.13707 0
M  V30 3437 H 324.51 2.82169 -4.74431 0
M  V30 3438 H 326.986 3.04953 -2.83095 0
M  V30 3439 H 325.862 4.31178 -3.39672 0
M  V30 3440 H 326.123 4.09197 -1.67363 0
M  V30 3441 N 325.182 1.32811 0.848464 0
M  V30 3442 C 326.41 1.26739 1.63538 0
M  V30 3443 C 326.825 -0.163484 1.88091 0
M  V30 3444 O 326.182 -1.10258 1.45429 0
M  V30 3445 C 326.233 2.03013 2.99112 0
M  V30 3446 O 325.954 3.40518 2.75643 0
M  V30 3447 C 327.455 2.04038 3.93552 0
M  V30 3448 H 324.675 0.437024 0.509167 0
M  V30 3449 H 327.219 1.75033 1.05753 0
M  V30 3450 H 325.374 1.58426 3.53525 0
M  V30 3451 H 325.788 3.79635 3.61908 0
M  V30 3452 H 327.262 2.61877 4.85926 0
M  V30 3453 H 327.739 1.0282 4.26995 0
M  V30 3454 H 328.345 2.486 3.45077 0
M  V30 3455 N 326.66 -1.06551 1.16123 0
M  V30 3456 C 327.57 -2.17484 0.879662 0
M  V30 3457 C 328.586 -1.73377 -0.147104 0
M  V30 3458 O 329.762 -2.01379 0.0289128 0
M  V30 3459 C 326.827 -3.44591 0.381829 0
M  V30 3460 C 325.888 -4.0322 1.4735 0
M  V30 3461 C 325.121 -5.24261 0.999324 0
M  V30 3462 O 325.344 -5.70198 -0.151957 0
M  V30 3463 O 324.278 -5.74775 1.78653 0
M  V30 3464 H 328.104 -2.44075 1.80724 0
M  V30 3465 H 325.689 -1.16042 0.940992 0
M  V30 3466 H 327.571 -4.21254 0.111053 0
M  V30 3467 H 326.246 -3.19532 -0.51777 0
M  V30 3468 H 325.153 -3.2806 1.79798 0
M  V30 3469 H 326.486 -4.32568 2.34831 0
M  V30 3470 N 328.138 -0.959301 -1.25041 0
M  V30 3471 C 329.384 -0.627096 -1.93492 0
M  V30 3472 C 329.739 0.827484 -1.73696 0
M  V30 3473 O 329.032 1.58651 -1.07427 0
M  V30 3474 C 329.226 -0.927136 -3.45165 0
M  V30 3475 C 329.055 -2.40933 -3.79712 0
M  V30 3476 C 327.825 -3.0677 -4.01522 0
M  V30 3477 C 330.023 -3.38894 -3.86853 0
M  V30 3478 N 328.005 -4.44815 -4.231 0
M  V30 3479 C 329.376 -4.62263 -4.13174 0
M  V30 3480 C 331.431 -3.33668 -3.69554 0
M  V30 3481 C 330.134 -5.81052 -4.23995 0
M  V30 3482 C 332.16 -4.518 -3.81616 0
M  V30 3483 C 331.522 -5.73957 -4.08354 0
M  V30 3484 H 327.621 -0.280166 -0.73009 0
M  V30 3485 H 330.205 -1.23244 -1.50729 0
M  V30 3486 H 328.376 -0.350685 -3.86814 0
M  V30 3487 H 330.108 -0.554361 -4.00885 0
M  V30 3488 H 326.863 -2.57327 -3.97593 0
M  V30 3489 H 327.287 -5.16319 -4.37885 0
M  V30 3490 H 331.929 -2.40268 -3.47895 0
M  V30 3491 H 329.647 -6.74888 -4.44468 0
M  V30 3492 H 333.233 -4.49309 -3.69612 0
M  V30 3493 H 332.113 -6.6384 -4.17475 0
M  V30 3494 N 329.616 1.39756 -0.72842 0
M  V30 3495 C 330.579 2.29012 -0.0927297 0
M  V30 3496 C 331.579 1.45992 0.674025 0
M  V30 3497 O 332.769 1.66749 0.50402 0
M  V30 3498 C 329.901 3.29396 0.878137 0
M  V30 3499 H 331.094 2.86729 -0.879011 0
M  V30 3500 H 328.647 1.48293 -0.493847 0
M  V30 3501 H 329.382 2.76722 1.69101 0
M  V30 3502 H 329.167 3.907 0.331051 0
M  V30 3503 H 330.657 3.96199 1.3197 0
M  V30 3504 N 331.094 0.475555 1.50254 0
M  V30 3505 C 332.057 -0.305016 2.27161 0
M  V30 3506 C 333.057 -0.916519 1.32123 0
M  V30 3507 O 334.247 -0.785003 1.5551 0
M  V30 3508 C 331.379 -1.43496 3.09227 0
M  V30 3509 H 332.572 0.369511 2.97615 0
M  V30 3510 H 330.125 0.229747 1.54602 0
M  V30 3511 H 330.86 -2.14441 2.43281 0
M  V30 3512 H 330.645 -1.00223 3.79075 0
M  V30 3513 H 332.135 -1.98548 3.67381 0
M  V30 3514 N 332.573 -1.56217 0.208337 0
M  V30 3515 C 333.536 -2.18455 -0.693557 0
M  V30 3516 C 334.536 -1.14268 -1.13135 0
M  V30 3517 O 335.726 -1.39577 -1.0423 0
M  V30 3518 C 332.858 -2.79727 -1.94848 0
M  V30 3519 H 334.051 -2.99519 -0.15114 0
M  V30 3520 H 331.604 -1.56245 -0.041287 0
M  V30 3521 H 332.339 -2.02497 -2.53309 0
M  V30 3522 H 332.124 -3.56009 -1.64316 0
M  V30 3523 H 333.614 -3.27475 -2.59133 0
M  V30 3524 N 334.051 0.0651679 -1.57465 0
M  V30 3525 C 334.999 1.09542 -2.05191 0
M  V30 3526 C 335.993 1.39675 -0.958509 0
M  V30 3527 O 337.199 1.39003 -1.14359 0
M  V30 3528 H 333.574 0.370623 -0.654326 0
M  V30 3529 H 335.545 0.666802 -2.90854 0
M  V30 3530 C 334.294 2.39881 -2.51699 0
M  V30 3531 H 333.617 2.17547 -3.3543 0
M  V30 3532 H 335.057 3.104 -2.88839 0
M  V30 3533 C 333.516 3.0631 -1.40271 0
M  V30 3534 O 334.046 3.94664 -0.748523 0
M  V30 3535 N 332.252 2.67041 -1.14618 0
M  V30 3536 H 331.799 1.95281 -1.67997 0
M  V30 3537 H 331.757 3.1181 -0.402688 0
M  V30 3538 N 335.529 1.53961 0.336706 0
M  V30 3539 C 336.777 1.71197 1.07405 0
M  V30 3540 C 337.098 0.481475 1.88962 0
M  V30 3541 O 336.368 -0.504585 1.8929 0
M  V30 3542 H 334.948 0.631185 0.399517 0
M  V30 3543 H 337.61 1.91232 0.376323 0
M  V30 3544 H 336.706 2.58587 1.74755 0
M  V30 3545 N 337.007 -0.598083 1.45811 0
M  V30 3546 C 338.284 -1.35777 1.40797 0
M  V30 3547 C 338.664 -2.10935 0.083462 0
M  V30 3548 O 338.012 -2.08505 -0.934763 0
M  V30 3549 C 338.222 -2.29666 2.62783 0
M  V30 3550 C 339.57 -2.91977 3.08277 0
M  V30 3551 O 340.594 -2.39984 2.63223 0
M  V30 3552 O 339.453 -3.86376 3.86491 0
M  V30 3553 H 336.547 -0.609291 0.55919 0
M  V30 3554 H 339.093 -0.620379 1.57954 0
M  V30 3555 H 337.865 -1.73454 3.50756 0
M  V30 3556 H 337.488 -3.1077 2.48008 0
M  V30 3557 N 338.485 -1.33259 -0.841409 0
M  V30 3558 C 339.395 -1.25332 -1.98316 0
M  V30 3559 C 340.411 -0.164364 -1.73222 0
M  V30 3560 O 341.587 -0.387486 -1.97637 0
M  V30 3561 C 338.652 -0.990078 -3.32262 0
M  V30 3562 C 337.713 -2.16879 -3.70489 0
M  V30 3563 C 336.946 -1.91801 -4.98044 0
M  V30 3564 O 337.169 -0.867075 -5.63771 0
M  V30 3565 O 336.103 -2.78267 -5.33714 0
M  V30 3566 H 339.929 -2.21344 -2.07944 0
M  V30 3567 H 337.514 -1.1328 -0.974058 0
M  V30 3568 H 339.396 -0.860321 -4.12524 0
M  V30 3569 H 338.071 -0.0602155 -3.23644 0
M  V30 3570 H 336.978 -2.35407 -2.90748 0
M  V30 3571 H 338.311 -3.0819 -3.8377 0
M  V30 3572 N 339.963 1.05934 -1.16686 0
M  V30 3573 C 341.212 1.78188 -0.945085 0
M  V30 3574 C 341.525 1.88338 0.528021 0
M  V30 3575 O 342.731 2.57258 0.867799 0
M  V30 3576 C 341.187 3.20277 -1.64167 0
M  V30 3577 C 340.795 3.18281 -3.15279 0
M  V30 3578 C 342.539 3.97039 -1.502 0
M  V30 3579 C 340.446 4.55112 -3.7766 0
M  V30 3580 H 339.376 0.667866 -0.349959 0
M  V30 3581 H 342.027 1.18794 -1.39858 0
M  V30 3582 H 340.409 3.79952 -1.11589 0
M  V30 3583 H 341.583 2.68167 -3.74731 0
M  V30 3584 H 339.898 2.55018 -3.29173 0
M  V30 3585 H 342.495 4.98194 -1.94183 0
M  V30 3586 H 342.838 4.13845 -0.451461 0
M  V30 3587 H 343.371 3.43894 -1.99954 0
M  V30 3588 H 340.11 4.43512 -4.82677 0
M  V30 3589 H 339.63 5.05406 -3.22994 0
M  V30 3590 H 341.309 5.24064 -3.79428 0
M  V30 3591 N 341.441 0.965919 1.2453 0
M  V30 3592 C 342.669 0.644385 1.96609 0
M  V30 3593 C 343.084 -0.785823 1.71669 0
M  V30 3594 O 342.441 -1.52703 0.999399 0
M  V30 3595 C 342.492 0.907375 3.49927 0
M  V30 3596 O 342.213 2.28136 3.74013 0
M  V30 3597 C 343.714 0.599784 4.39224 0
M  V30 3598 H 340.934 0.240588 0.626385 0
M  V30 3599 H 343.478 1.29337 1.58405 0
M  V30 3600 H 341.633 0.304631 3.862 0
M  V30 3601 H 342.047 2.36002 4.68405 0
M  V30 3602 H 343.521 0.834263 5.45659 0
M  V30 3603 H 343.998 -0.465921 4.36722 0
M  V30 3604 H 344.604 1.18235 4.08535 0
M  V30 3605 N 342.919 -1.39368 0.735821 0
M  V30 3606 C 344.33 -1.83313 0.354015 0
M  V30 3607 C 344.681 -1.61461 -1.11466 0
M  V30 3608 O 343.806 -1.10621 -1.85989 0
M  V30 3609 C 344.401 -3.32781 0.635769 0
M  V30 3610 C 342.96 -3.75142 0.307448 0
M  V30 3611 C 342.107 -2.62358 0.897974 0
M  V30 3612 H 345.058 -1.28349 0.933398 0
M  V30 3613 H 345.079 -3.80388 -0.0921773 0
M  V30 3614 H 344.591 -3.48654 1.70476 0
M  V30 3615 H 342.692 -3.64857 -0.755674 0
M  V30 3616 H 342.805 -4.72532 0.790583 0
M  V30 3617 H 341.169 -2.52624 0.324551 0
M  V30 3618 H 341.952 -2.81036 1.97164 0
M  V30 3619 N 344.397 -0.483516 -1.5 0
M  V30 3620 C 345.625 0.0644831 -2.06799 0
M  V30 3621 C 346.04 1.32399 -1.34596 0
M  V30 3622 O 345.397 1.77626 -0.418946 0
M  V30 3623 C 345.448 0.339927 -3.59898 0
M  V30 3624 O 345.169 -0.869635 -4.29382 0
M  V30 3625 C 346.67 0.933515 -4.33359 0
M  V30 3626 H 343.89 -0.0126333 -0.670881 0
M  V30 3627 H 346.434 -0.675864 -1.93009 0
M  V30 3628 H 344.589 1.03022 -3.7345 0
M  V30 3629 H 345.003 -0.62179 -5.20801 0
M  V30 3630 H 346.477 1.07593 -5.41413 0
M  V30 3631 H 346.954 1.92685 -3.94676 0
M  V30 3632 H 347.56 0.281221 -4.24369 0
M  V30 3633 N 345.875 1.56104 -0.216619 0
M  V30 3634 C 347.121 1.98466 0.417033 0
M  V30 3635 C 347.454 1.10403 1.59765 0
M  V30 3636 O 346.729 0.160632 1.93836 0
M  V30 3637 C 347.012 3.49769 0.85637 0
M  V30 3638 C 346.865 4.48606 -0.327546 0
M  V30 3639 C 348.184 4.05339 1.7143 0
M  V30 3640 H 345.303 0.721551 0.150112 0
M  V30 3641 H 347.945 1.87423 -0.311864 0
M  V30 3642 H 346.095 3.5931 1.47745 0
M  V30 3643 H 347.767 4.5108 -0.965618 0
M  V30 3644 H 346.01 4.22682 -0.975805 0
M  V30 3645 H 346.681 5.51995 0.0227149 0
M  V30 3646 H 349.157 3.98712 1.19031 0
M  V30 3647 H 348.033 5.11533 1.99061 0
M  V30 3648 H 348.294 3.51918 2.67593 0
M  V30 3649 N 347.353 -0.0568162 1.57498 0
M  V30 3650 C 348.6 -0.753104 1.87975 0
M  V30 3651 C 348.928 -1.76815 0.81035 0
M  V30 3652 O 348.183 -1.94756 -0.19199 0
M  V30 3653 C 348.482 -1.48359 3.25153 0
M  V30 3654 C 348.148 -0.60713 4.46794 0
M  V30 3655 C 346.81 -0.365642 4.79809 0
M  V30 3656 C 349.162 -0.000305978 5.212 0
M  V30 3657 C 346.49 0.491905 5.84634 0
M  V30 3658 C 348.842 0.844781 6.26934 0
M  V30 3659 C 347.506 1.096 6.58441 0
M  V30 3660 H 346.776 -0.27558 0.687849 0
M  V30 3661 H 349.423 -0.0135173 1.91495 0
M  V30 3662 H 347.728 -2.29577 3.17492 0
M  V30 3663 H 349.425 -2.02739 3.45974 0
M  V30 3664 H 346.015 -0.805487 4.20963 0
M  V30 3665 H 350.199 -0.173961 4.95995 0
M  V30 3666 H 345.455 0.695131 6.07436 0
M  V30 3667 H 349.629 1.32165 6.83744 0
M  V30 3668 H 347.256 1.76224 7.39492 0
M  V30 3669 N 348.832 -1.54138 -0.328536 0
M  V30 3670 C 349.762 -1.86167 -1.40939 0
M  V30 3671 C 350.743 -0.718044 -1.54202 0
M  V30 3672 O 351.928 -0.971328 -1.68163 0
M  V30 3673 C 349.058 -2.08461 -2.77779 0
M  V30 3674 C 348.012 -3.24299 -2.7931 0
M  V30 3675 C 347.338 -3.31955 -4.19178 0
M  V30 3676 C 348.638 -4.62065 -2.43502 0
M  V30 3677 H 350.332 -2.76689 -1.14383 0
M  V30 3678 H 347.878 -1.33132 -0.548806 0
M  V30 3679 H 349.831 -2.29453 -3.53454 0
M  V30 3680 H 348.555 -1.14684 -3.05802 0
M  V30 3681 H 347.214 -3.03187 -2.0609 0
M  V30 3682 H 346.862 -2.35745 -4.44335 0
M  V30 3683 H 346.562 -4.09805 -4.2111 0
M  V30 3684 H 348.086 -3.55175 -4.96672 0
M  V30 3685 H 349.5 -4.8297 -3.08889 0
M  V30 3686 H 347.897 -5.42429 -2.56693 0
M  V30 3687 H 348.967 -4.64652 -1.38659 0
M  V30 3688 N 350.31 0.590341 -1.46126 0
M  V30 3689 C 351.535 1.37991 -1.54833 0
M  V30 3690 C 351.96 1.87163 -0.187506 0
M  V30 3691 O 351.318 1.61133 0.831008 0
M  V30 3692 C 351.366 2.54867 -2.55098 0
M  V30 3693 O 350.47 3.56061 -2.08073 0
M  V30 3694 H 349.811 0.411265 -0.521303 0
M  V30 3695 H 352.341 0.716819 -1.91632 0
M  V30 3696 H 352.351 3.01886 -2.74461 0
M  V30 3697 H 351.026 2.18429 -3.53923 0
M  V30 3698 H 349.603 3.15574 -1.98664 0
M  V30 3699 N 351.788 1.33704 0.83433 0
M  V30 3700 C 353.037 1.24763 1.58484 0
M  V30 3701 C 353.35 -0.183775 1.94735 0
M  V30 3702 O 354.556 -0.395234 2.68608 0
M  V30 3703 C 353.012 2.18638 2.85876 0
M  V30 3704 C 352.62 3.66974 2.56971 0
M  V30 3705 C 354.364 2.18581 3.63899 0
M  V30 3706 C 352.271 4.5275 3.80488 0
M  V30 3707 H 351.201 0.463425 0.594772 0
M  V30 3708 H 353.852 1.58797 0.919551 0
M  V30 3709 H 352.234 1.77542 3.5397 0
M  V30 3710 H 353.408 4.16538 1.9706 0
M  V30 3711 H 351.723 3.69366 1.92244 0
M  V30 3712 H 354.32 2.79894 4.55591 0
M  V30 3713 H 354.663 1.18207 3.99165 0
M  V30 3714 H 355.196 2.58062 3.02735 0
M  V30 3715 H 351.935 5.54017 3.5035 0
M  V30 3716 H 351.455 4.07927 4.39722 0
M  V30 3717 H 353.134 4.66784 4.4802 0
M  V30 3718 N 353.266 -1.05314 1.17247 0
M  V30 3719 C 354.176 -2.16538 0.90268 0
M  V30 3720 C 355.192 -1.73523 -0.128707 0
M  V30 3721 O 356.368 -2.01337 0.0502701 0
M  V30 3722 C 353.433 -3.44167 0.418356 0
M  V30 3723 C 352.494 -4.01635 1.51618 0
M  V30 3724 C 351.727 -5.23171 1.05487 0
M  V30 3725 O 351.95 -5.70327 -0.0914715 0
M  V30 3726 O 350.884 -5.72848 1.8474 0
M  V30 3727 H 354.71 -2.42145 1.83302 0
M  V30 3728 H 352.295 -1.15037 0.953246 0
M  V30 3729 H 354.177 -4.21112 0.155726 0
M  V30 3730 H 352.852 -3.20063 -0.48385 0
M  V30 3731 H 351.759 -3.26135 1.83268 0
M  V30 3732 H 353.092 -4.30053 2.39405 0
M  V30 3733 N 354.744 -0.972509 -1.24016 0
M  V30 3734 C 355.972 -0.654803 -1.96265 0
M  V30 3735 C 356.387 0.776708 -1.72083 0
M  V30 3736 O 355.744 1.52171 -1.00748 0
M  V30 3737 C 355.795 -0.92592 -3.49441 0
M  V30 3738 O 355.516 -2.30116 -3.72798 0
M  V30 3739 C 357.017 -0.623068 -4.38899 0
M  V30 3740 H 354.237 -0.243907 -0.6251 0
M  V30 3741 H 356.781 -1.30175 -1.57717 0
M  V30 3742 H 354.936 -0.325108 -3.86033 0
M  V30 3743 H 355.35 -2.38483 -4.67147 0
M  V30 3744 H 356.824 -0.863189 -5.45209 0
M  V30 3745 H 357.301 0.442754 -4.36963 0
M  V30 3746 H 357.907 -1.204 -4.07902 0
M  V30 3747 N 356.222 1.38976 -0.743202 0
M  V30 3748 C 357.499 1.94351 -0.220705 0
M  V30 3749 C 357.879 1.67935 1.2791 0
M  V30 3750 O 357.227 1.01211 2.04862 0
M  V30 3751 C 357.437 3.44426 -0.563171 0
M  V30 3752 C 358.785 4.2144 -0.517046 0
M  V30 3753 O 359.809 3.52661 -0.500846 0
M  V30 3754 O 358.668 5.44032 -0.518806 0
M  V30 3755 H 355.762 0.825879 -0.043047 0
M  V30 3756 H 358.308 1.48429 -0.822618 0
M  V30 3757 H 357.08 3.5712 -1.59941 0
M  V30 3758 H 356.703 3.97543 0.0672883 0
M  V30 3759 N 357.7 0.491464 1.49741 0
M  V30 3760 C 358.61 -0.296835 2.32715 0
M  V30 3761 C 359.626 -0.976536 1.44013 0
M  V30 3762 O 360.802 -0.960023 1.77047 0
M  V30 3763 C 357.867 -1.35288 3.19215 0
M  V30 3764 C 356.928 -0.687632 4.23757 0
M  V30 3765 C 356.161 -1.69336 5.06123 0
M  V30 3766 O 356.384 -2.92219 4.89861 0
M  V30 3767 O 355.318 -1.25394 5.88693 0
M  V30 3768 H 359.144 0.382048 3.01287 0
M  V30 3769 H 356.729 0.252953 1.47243 0
M  V30 3770 H 358.611 -1.96411 3.72828 0
M  V30 3771 H 357.286 -2.01487 2.53347 0
M  V30 3772 H 356.193 -0.0369159 3.74082 0
M  V30 3773 H 357.526 -0.0682566 4.92153 0
M  V30 3774 N 359.178 -1.55987 0.224894 0
M  V30 3775 C 360.108 -2.23426 -0.678457 0
M  V30 3776 C 361.089 -1.20709 -1.19847 0
M  V30 3777 O 362.274 -1.49304 -1.24186 0
M  V30 3778 C 359.404 -2.91676 -1.88527 0
M  V30 3779 C 358.358 -4.00893 -1.49896 0
M  V30 3780 C 357.684 -4.56455 -2.78483 0
M  V30 3781 C 358.984 -5.17769 -0.686461 0
M  V30 3782 H 360.678 -2.99175 -0.116173 0
M  V30 3783 H 358.224 -1.43897 -0.054436 0
M  V30 3784 H 360.177 -3.37547 -2.5227 0
M  V30 3785 H 358.901 -2.1338 -2.47258 0
M  V30 3786 H 357.56 -3.55758 -0.884985 0
M  V30 3787 H 357.208 -3.74886 -3.35365 0
M  V30 3788 H 356.908 -5.30169 -2.53368 0
M  V30 3789 H 358.432 -5.05047 -3.43162 0
M  V30 3790 H 359.846 -5.60001 -1.22767 0
M  V30 3791 H 358.243 -5.97735 -0.532259 0
M  V30 3792 H 359.313 -4.83932 0.306196 0
M  V30 3793 N 360.656 0.0484629 -1.57525 0
M  V30 3794 C 362.072 0.40375 -1.54409 0
M  V30 3795 C 362.272 1.77786 -0.948384 0
M  V30 3796 O 361.328 2.46189 -0.560983 0
M  V30 3797 C 362.641 0.323394 -2.98956 0
M  V30 3798 C 364.189 0.401892 -3.10409 0
M  V30 3799 C 364.664 0.351195 -4.56652 0
M  V30 3800 N 366.155 0.410576 -4.61377 0
M  V30 3801 C 366.89 0.393933 -5.72045 0
M  V30 3802 N 366.386 0.330724 -6.9201 0
M  V30 3803 N 368.179 0.442227 -5.60358 0
M  V30 3804 H 360.33 -0.851016 -1.94606 0
M  V30 3805 H 362.593 -0.321721 -0.89174 0
M  V30 3806 H 362.299 -0.62011 -3.4619 0
M  V30 3807 H 362.173 1.12463 -3.60044 0
M  V30 3808 H 364.56 1.33582 -2.63134 0
M  V30 3809 H 364.641 -0.428342 -2.52188 0
M  V30 3810 H 364.285 -0.578987 -5.04589 0
M  V30 3811 H 364.215 1.19928 -5.12762 0
M  V30 3812 H 366.706 0.462729 -3.75056 0
M  V30 3813 H 367.019 0.322592 -7.72126 0
M  V30 3814 H 365.364 0.29706 -6.94365 0
M  V30 3815 H 368.555 0.489464 -4.65534 0
M  V30 3816 H 368.728 0.425788 -6.466 0
M  V30 3817 N 362.134 1.5431 0.320358 0
M  V30 3818 C 363.084 1.803 1.39556 0
M  V30 3819 C 364.068 0.659166 1.46778 0
M  V30 3820 O 365.26 0.91926 1.51257 0
M  V30 3821 C 362.389 2.03665 2.76361 0
M  V30 3822 C 361.475 3.24178 2.73439 0
M  V30 3823 N 361.866 4.4516 2.40137 0
M  V30 3824 C 360.164 3.25816 3.04565 0
M  V30 3825 C 360.865 5.27109 2.4603 0
M  V30 3826 N 359.841 4.64368 2.82601 0
M  V30 3827 H 363.643 2.71416 1.12742 0
M  V30 3828 H 361.157 1.53548 0.528856 0
M  V30 3829 H 363.154 2.20425 3.53862 0
M  V30 3830 H 361.814 1.13805 3.04103 0
M  V30 3831 H 362.825 4.72104 2.12927 0
M  V30 3832 H 359.502 2.46001 3.37328 0
M  V30 3833 H 360.892 6.33728 2.23246 0
M  V30 3834 N 363.613 -0.582584 1.46437 0
M  V30 3835 C 364.546 -1.70633 1.51524 0
M  V30 3836 C 365.524 -1.58349 0.369351 0
M  V30 3837 O 366.708 -1.79563 0.573516 0
M  V30 3838 C 363.835 -3.08687 1.39392 0
M  V30 3839 C 362.881 -3.3949 2.58164 0
M  V30 3840 S 363.714 -3.31548 4.20519 0
M  V30 3841 C 364.87 -4.72139 4.10896 0
M  V30 3842 H 365.103 -1.66058 2.46601 0
M  V30 3843 H 362.636 -0.761337 1.34324 0
M  V30 3844 H 364.594 -3.8833 1.33079 0
M  V30 3845 H 363.255 -3.10751 0.457436 0
M  V30 3846 H 362.448 -4.40071 2.45669 0
M  V30 3847 H 362.05 -2.67415 2.61468 0
M  V30 3848 H 364.342 -5.62527 3.77584 0
M  V30 3849 H 365.285 -4.89692 5.11476 0
M  V30 3850 H 365.693 -4.48995 3.42146 0
M  V30 3851 N 365.091 -1.34144 -0.827227 0
M  V30 3852 C 366.054 -1.25264 -1.91942 0
M  V30 3853 C 367.054 -0.168866 -1.59911 0
M  V30 3854 O 368.244 -0.421198 -1.69031 0
M  V30 3855 C 365.376 -0.932952 -3.27885 0
M  V30 3856 H 366.569 -2.22357 -2.0124 0
M  V30 3857 H 364.122 -1.1837 -1.0207 0
M  V30 3858 H 364.857 0.0349917 -3.24281 0
M  V30 3859 H 364.642 -1.71682 -3.52516 0
M  V30 3860 H 366.132 -0.895874 -4.07877 0
M  V30 3861 N 366.569 1.04691 -1.17803 0
M  V30 3862 C 367.517 2.14665 -0.895635 0
M  V30 3863 C 368.511 1.68806 0.141679 0
M  V30 3864 O 369.717 1.79999 -0.00587914 0
M  V30 3865 H 366.092 0.701038 -0.272121 0
M  V30 3866 H 368.063 2.35685 -1.83017 0
M  V30 3867 C 366.812 3.45019 -0.430962 0
M  V30 3868 H 366.135 3.8071 -1.22064 0
M  V30 3869 H 367.575 4.23125 -0.272301 0
M  V30 3870 C 366.034 3.25943 0.852207 0
M  V30 3871 O 366.564 3.5296 1.91786 0
M  V30 3872 N 364.77 2.79304 0.802346 0
M  V30 3873 H 364.317 2.57518 -0.0650788 0
M  V30 3874 H 364.275 2.66921 1.66134 0
M  V30 3875 N 368.047 0.979072 1.23499 0
M  V30 3876 C 369.295 0.645941 1.91499 0
M  V30 3877 C 369.616 -0.822948 1.76784 0
M  V30 3878 O 368.886 -1.58854 1.14639 0
M  V30 3879 H 367.466 0.235919 0.708767 0
M  V30 3880 H 370.128 1.2426 1.50152 0
M  V30 3881 H 369.224 0.896411 2.9895 0
M  V30 3882 N 369.525 -1.3858 0.750561 0
M  V30 3883 C 370.755 -2.04175 0.31564 0
M  V30 3884 C 371.163 -1.56726 -1.05989 0
M  V30 3885 O 370.506 -0.734225 -1.68389 0
M  V30 3886 C 370.568 -3.58585 0.256389 0
M  V30 3887 C 370.232 -4.29077 1.57296 0
M  V30 3888 C 371.229 -4.54656 2.52159 0
M  V30 3889 C 368.914 -4.67324 1.84156 0
M  V30 3890 C 370.908 -5.17512 3.72103 0
M  V30 3891 C 368.595 -5.29905 3.04374 0
M  V30 3892 C 369.593 -5.54933 3.98168 0
M  V30 3893 O 369.281 -6.16212 5.16273 0
M  V30 3894 H 369.013 -0.662742 0.133226 0
M  V30 3895 H 371.567 -1.78313 1.01948 0
M  V30 3896 H 369.797 -3.83406 -0.503677 0
M  V30 3897 H 371.486 -4.05628 -0.148612 0
M  V30 3898 H 372.252 -4.25539 2.32683 0
M  V30 3899 H 368.131 -4.47191 1.11988 0
M  V30 3900 H 371.675 -5.36963 4.45327 0
M  V30 3901 H 367.572 -5.58444 3.23745 0
M  V30 3902 H 368.34 -6.34701 5.16815 0
M  V30 3903 N 371.003 -0.499398 -1.49478 0
M  V30 3904 C 371.935 0.316575 -2.27003 0
M  V30 3905 C 372.948 0.932047 -1.33479 0
M  V30 3906 O 374.137 0.815658 -1.58774 0
M  V30 3907 C 371.237 1.46055 -3.05812 0
M  V30 3908 C 370.41 0.952679 -4.26899 0
M  V30 3909 C 369.469 1.97407 -4.87767 0
M  V30 3910 O 368.495 1.54326 -5.4788 0
M  V30 3911 N 369.697 3.30436 -4.77276 0
M  V30 3912 H 372.462 -0.348168 -2.97671 0
M  V30 3913 H 370.023 -0.33185 -1.58463 0
M  V30 3914 H 372.015 2.14135 -3.43407 0
M  V30 3915 H 370.585 2.02948 -2.37762 0
M  V30 3916 H 369.805 0.0968248 -3.94081 0
M  V30 3917 H 371.093 0.59174 -5.05347 0
M  V30 3918 H 370.491 3.68126 -4.29534 0
M  V30 3919 H 369.048 3.94235 -5.19059 0
M  V30 3920 N 372.481 1.55866 -0.233164 0
M  V30 3921 C 373.709 2.02998 0.399905 0
M  V30 3922 C 374.124 1.11274 1.52524 0
M  V30 3923 O 373.481 0.124528 1.82075 0
M  V30 3924 C 373.532 3.4958 0.920639 0
M  V30 3925 O 373.253 4.37808 -0.159834 0
M  V30 3926 C 374.754 4.12411 1.62578 0
M  V30 3927 H 371.974 0.664006 0.0966281 0
M  V30 3928 H 374.518 2.0143 -0.353013 0
M  V30 3929 H 372.673 3.51727 1.62379 0
M  V30 3930 H 373.087 5.23981 0.23337 0
M  V30 3931 H 374.561 5.16711 1.94201 0
M  V30 3932 H 375.038 3.5809 2.54299 0
M  V30 3933 H 375.644 4.14148 0.967553 0
M  V30 3934 N 373.959 -0.0401083 1.57549 0
M  V30 3935 C 375.205 -0.734211 1.89043 0
M  V30 3936 C 375.538 -1.75591 0.829535 0
M  V30 3937 O 374.813 -1.93868 -0.156706 0
M  V30 3938 C 375.096 -1.41374 3.31188 0
M  V30 3939 C 374.949 -0.406299 4.47961 0
M  V30 3940 C 376.268 -2.35061 3.72068 0
M  V30 3941 H 373.387 -0.265447 0.687537 0
M  V30 3942 H 376.029 0.00294087 1.9 0
M  V30 3943 H 374.179 -2.04206 3.30503 0
M  V30 3944 H 375.851 0.219255 4.60779 0
M  V30 3945 H 374.094 0.275485 4.32924 0
M  V30 3946 H 374.765 -0.920022 5.44279 0
M  V30 3947 H 377.241 -1.82282 3.74049 0
M  V30 3948 H 376.117 -2.79593 4.72355 0
M  V30 3949 H 376.378 -3.21258 3.0372 0
M  V30 3950 N 375.437 -1.54477 -0.31217 0
M  V30 3951 C 376.683 -1.73483 -1.0503 0
M  V30 3952 C 377.016 -0.513125 -1.87298 0
M  V30 3953 O 376.291 0.489864 -1.8823 0
M  V30 3954 C 376.574 -3.01723 -1.96558 0
M  V30 3955 C 376.427 -4.3417 -1.17545 0
M  V30 3956 C 377.746 -3.25772 -2.95907 0
M  V30 3957 H 374.865 -0.631222 -0.380432 0
M  V30 3958 H 377.507 -1.87184 -0.325932 0
M  V30 3959 H 375.657 -2.90174 -2.58324 0
M  V30 3960 H 377.329 -4.5762 -0.581513 0
M  V30 3961 H 375.572 -4.31159 -0.477925 0
M  V30 3962 H 376.243 -5.20143 -1.84811 0
M  V30 3963 H 378.719 -3.36857 -2.44267 0
M  V30 3964 H 377.595 -4.16838 -3.57123 0
M  V30 3965 H 377.856 -2.43537 -3.68974 0
M  V30 3966 N 376.915 0.57481 -1.46744 0
M  V30 3967 C 378.14 1.36341 -1.56288 0
M  V30 3968 C 378.565 1.86954 -0.207347 0
M  V30 3969 O 377.923 1.62006 0.813871 0
M  V30 3970 C 377.971 2.52147 -2.57787 0
M  V30 3971 O 377.075 3.53834 -2.11838 0
M  V30 3972 H 376.416 0.405713 -0.525636 0
M  V30 3973 H 378.946 0.696453 -1.92382 0
M  V30 3974 H 378.956 2.98958 -2.77648 0
M  V30 3975 H 377.631 2.14663 -3.5622 0
M  V30 3976 H 376.208 3.1345 -2.01999 0
M  V30 3977 N 378.394 1.34581 0.820102 0
M  V30 3978 C 379.643 1.26437 1.57151 0
M  V30 3979 C 379.956 -0.163111 1.94919 0
M  V30 3980 O 381.162 -0.366722 2.69012 0
M  V30 3981 C 379.618 2.21658 2.83541 0
M  V30 3982 C 379.226 3.69679 2.53065 0
M  V30 3983 C 380.97 2.22428 3.61561 0
M  V30 3984 C 378.877 4.56761 3.75664 0
M  V30 3985 H 377.807 0.469707 0.589823 0
M  V30 3986 H 380.458 1.59763 0.902656 0
M  V30 3987 H 378.84 1.81287 3.52067 0
M  V30 3988 H 380.014 4.18605 1.92631 0
M  V30 3989 H 378.329 3.71384 1.88316 0
M  V30 3990 H 380.926 2.8471 4.52597 0
M  V30 3991 H 381.269 1.22434 3.97889 0
M  V30 3992 H 381.802 2.61259 2.99981 0
M  V30 3993 H 378.541 5.57702 3.44454 0
M  V30 3994 H 378.061 4.12568 4.35371 0
M  V30 3995 H 379.74 4.71509 4.43044 0
M  V30 3996 N 379.872 -1.04064 1.18357 0
M  V30 3997 C 380.835 -2.10243 0.912707 0
M  V30 3998 C 381.835 -1.60477 -0.101928 0
M  V30 3999 O 383.025 -1.73703 0.131517 0
M  V30 4000 C 380.157 -3.38893 0.369387 0
M  V30 4001 H 381.35 -2.35706 1.85426 0
M  V30 4002 H 378.903 -1.20489 0.995594 0
M  V30 4003 H 379.638 -3.19094 -0.578776 0
M  V30 4004 H 379.423 -3.76331 1.1008 0
M  V30 4005 H 380.913 -4.17128 0.198575 0
M  V30 4006 N 381.35 -0.985608 -1.22978 0
M  V30 4007 C 382.298 -0.522631 -2.26652 0
M  V30 4008 C 383.292 0.422998 -1.64034 0
M  V30 4009 O 384.498 0.296319 -1.77544 0
M  V30 4010 H 380.873 -0.150597 -0.736766 0
M  V30 4011 H 382.844 -1.40863 -2.63059 0
M  V30 4012 C 381.593 0.154238 -3.47358 0
M  V30 4013 H 380.916 -0.564329 -3.95797 0
M  V30 4014 H 382.356 0.441744 -4.21693 0
M  V30 4015 C 380.815 1.38719 -3.07016 0
M  V30 4016 O 381.345 2.48307 -3.15764 0
M  V30 4017 N 379.551 1.25975 -2.61875 0
M  V30 4018 H 379.098 0.368068 -2.54957 0
M  V30 4019 H 379.056 2.08578 -2.3525 0
M  V30 4020 N 382.828 1.3818 -0.7579 0
M  V30 4021 C 384.105 1.94106 -0.241306 0
M  V30 4022 C 384.485 1.69282 1.26122 0
M  V30 4023 O 383.833 1.03378 2.03777 0
M  V30 4024 C 384.043 3.43809 -0.59967 0
M  V30 4025 C 385.391 4.20868 -0.561717 0
M  V30 4026 O 386.415 3.5211 -0.538222 0
M  V30 4027 O 385.274 5.43451 -0.576478 0
M  V30 4028 H 382.368 0.825376 -0.0518042 0
M  V30 4029 H 384.914 1.47548 -0.838315 0
M  V30 4030 H 383.686 3.55403 -1.6372 0
M  V30 4031 H 383.309 3.97592 0.0251197 0
M  V30 4032 N 384.306 0.507319 1.49211 0
M  V30 4033 C 385.717 0.0611118 1.866 0
M  V30 4034 C 386.068 -1.35488 1.41907 0
M  V30 4035 O 385.193 -2.0108 0.799726 0
M  V30 4036 C 385.788 0.104125 3.3864 0
M  V30 4037 C 384.347 -0.28677 3.75306 0
M  V30 4038 C 383.494 0.473893 2.73221 0
M  V30 4039 H 386.445 0.719775 1.41439 0
M  V30 4040 H 386.466 -0.689672 3.74198 0
M  V30 4041 H 385.978 1.13482 3.71138 0
M  V30 4042 H 384.079 -1.32046 3.48417 0
M  V30 4043 H 384.192 0.0370745 4.79086 0
M  V30 4044 H 382.556 -0.0770644 2.54583 0
M  V30 4045 H 383.339 1.50478 3.08563 0
M  V30 4046 N 385.784 -1.5574 0.241426 0
M  V30 4047 C 386.747 -2.19877 -0.647063 0
M  V30 4048 C 387.747 -1.16642 -1.10686 0
M  V30 4049 O 388.937 -1.41757 -1.01245 0
M  V30 4050 C 386.069 -2.83797 -1.88871 0
M  V30 4051 H 387.262 -2.99772 -0.087574 0
M  V30 4052 H 384.815 -1.56298 -0.00813574 0
M  V30 4053 H 385.55 -2.07824 -2.48957 0
M  V30 4054 H 385.335 -3.59414 -1.56728 0
M  V30 4055 H 386.825 -3.32898 -2.52129 0
M  V30 4056 N 387.262 0.0317525 -1.57568 0
M  V30 4057 C 388.487 0.738664 -1.938 0
M  V30 4058 C 388.912 1.68242 -0.841208 0
M  V30 4059 O 388.27 1.80157 0.203267 0
M  V30 4060 C 388.318 1.47417 -3.29091 0
M  V30 4061 O 387.422 2.5872 -3.2115 0
M  V30 4062 H 386.763 0.198856 -0.633524 0
M  V30 4063 H 389.293 -0.0119713 -2.04596 0
M  V30 4064 H 389.303 1.84468 -3.63917 0
M  V30 4065 H 387.978 0.781988 -4.08482 0
M  V30 4066 H 386.555 2.24231 -2.97951 0
M  V30 4067 N 388.74 1.54641 0.303973 0
M  V30 4068 C 389.703 1.84646 1.35789 0
M  V30 4069 C 390.703 0.7192 1.4382 0
M  V30 4070 O 391.893 0.987491 1.43507 0
M  V30 4071 C 389.025 2.02407 2.74307 0
M  V30 4072 H 390.218 2.78829 1.10429 0
M  V30 4073 H 387.771 1.46658 0.540487 0
M  V30 4074 H 388.506 1.10502 3.04893 0
M  V30 4075 H 388.291 2.84453 2.69868 0
M  V30 4076 H 389.781 2.27002 3.50514 0
M  V30 4077 N 390.218 -0.567019 1.47046 0
M  V30 4078 C 391.165 -1.67489 1.58796 0
M  V30 4079 C 392.135 -1.60399 0.43144 0
M  V30 4080 O 393.32 -1.79378 0.650233 0
M  V30 4081 C 390.46 -3.05821 1.59899 0
M  V30 4082 C 389.573 -3.2342 2.86397 0
M  V30 4083 C 388.708 -4.52093 2.789 0
M  V30 4084 C 387.747 -4.6309 4.00267 0
M  V30 4085 N 386.884 -5.83106 3.91064 0
M  V30 4086 H 391.724 -1.56785 2.53422 0
M  V30 4087 H 389.261 -0.763896 1.2571 0
M  V30 4088 H 391.219 -3.8591 1.58522 0
M  V30 4089 H 389.849 -3.15384 0.687929 0
M  V30 4090 H 388.901 -2.3683 2.97684 0
M  V30 4091 H 390.213 -3.27412 3.76301 0
M  V30 4092 H 389.367 -5.4043 2.75718 0
M  V30 4093 H 388.106 -4.50565 1.86662 0
M  V30 4094 H 387.111 -3.73168 4.03765 0
M  V30 4095 H 388.336 -4.66386 4.93621 0
M  V30 4096 H 386.282 -5.82546 3.01623 0
M  V30 4097 H 386.199 -5.88434 4.74638 0
M  V30 4098 H 387.467 -6.73831 3.91882 0
M  V30 4099 N 391.696 -1.35014 -0.812953 0
M  V30 4100 C 392.926 -1.30841 -1.59888 0
M  V30 4101 C 393.334 0.117576 -1.88834 0
M  V30 4102 O 392.677 1.07807 -1.48739 0
M  V30 4103 C 392.739 -2.0412 -2.95931 0
M  V30 4104 C 392.403 -3.53336 -2.89832 0
M  V30 4105 C 393.4 -4.48052 -2.63714 0
M  V30 4106 C 391.085 -3.95894 -3.0915 0
M  V30 4107 C 393.079 -5.833 -2.56982 0
M  V30 4108 C 390.766 -5.31239 -3.0204 0
M  V30 4109 C 391.764 -6.24754 -2.75991 0
M  V30 4110 O 391.452 -7.57617 -2.68833 0
M  V30 4111 H 391.184 -0.451215 -0.50337 0
M  V30 4112 H 393.738 -1.78354 -1.01877 0
M  V30 4113 H 391.968 -1.51235 -3.559 0
M  V30 4114 H 393.657 -1.93107 -3.57022 0
M  V30 4115 H 394.423 -4.16492 -2.48515 0
M  V30 4116 H 390.302 -3.23495 -3.28438 0
M  V30 4117 H 393.846 -6.56263 -2.36569 0
M  V30 4118 H 389.743 -5.62415 -3.16796 0
M  V30 4119 H 390.511 -7.67469 -2.84487 0
M  V30 4120 N 393.175 1.03435 -1.18907 0
M  V30 4121 C 394.105 2.13503 -0.945448 0
M  V30 4122 C 395.086 1.69682 0.119189 0
M  V30 4123 O 396.271 1.94169 -0.034707 0
M  V30 4124 C 393.401 3.44004 -0.477316 0
M  V30 4125 C 392.355 4.0148 -1.48316 0
M  V30 4126 C 391.681 5.27537 -0.872311 0
M  V30 4127 C 392.981 4.36921 -2.86177 0
M  V30 4128 H 394.675 2.34141 -1.86597 0
M  V30 4129 H 392.221 1.12523 -0.898584 0
M  V30 4130 H 394.174 4.20372 -0.294204 0
M  V30 4131 H 392.898 3.23072 0.478786 0
M  V30 4132 H 391.557 3.27201 -1.65332 0
M  V30 4133 H 391.205 5.02917 0.0911752 0
M  V30 4134 H 390.905 5.66954 -1.54393 0
M  V30 4135 H 392.429 6.06576 -0.699871 0
M  V30 4136 H 393.843 5.04248 -2.72776 0
M  V30 4137 H 392.24 4.87405 -3.50081 0
M  V30 4138 H 393.31 3.46466 -3.39248 0
M  V30 4139 N 394.653 0.992116 1.22453 0
M  V30 4140 C 395.601 0.534644 2.26372 0
M  V30 4141 C 396.595 -0.414293 1.64256 0
M  V30 4142 O 397.801 -0.286899 1.77699 0
M  V30 4143 H 394.176 0.154502 0.735957 0
M  V30 4144 H 396.147 1.42256 2.62309 0
M  V30 4145 C 394.896 -0.135815 3.47435 0
M  V30 4146 H 394.219 0.585311 3.95492 0
M  V30 4147 H 395.659 -0.419374 4.21921 0
M  V30 4148 C 394.118 -1.37089 3.07747 0
M  V30 4149 O 394.648 -2.46629 3.17076 0
M  V30 4150 N 392.854 -1.24585 2.62539 0
M  V30 4151 H 392.401 -0.354542 2.55149 0
M  V30 4152 H 392.359 -2.07327 2.36353 0
M  V30 4153 N 396.131 -1.37776 0.765217 0
M  V30 4154 C 397.359 -2.04124 0.337767 0
M  V30 4155 C 397.774 -1.57715 -1.03785 0
M  V30 4156 O 397.131 -0.755447 -1.6613 0
M  V30 4157 C 397.182 -3.59658 0.364442 0
M  V30 4158 O 396.903 -4.04367 1.68579 0
M  V30 4159 C 398.404 -4.43236 -0.0754221 0
M  V30 4160 H 395.624 -0.655696 0.142491 0
M  V30 4161 H 398.168 -1.76238 1.03732 0
M  V30 4162 H 396.323 -3.86339 -0.286471 0
M  V30 4163 H 396.737 -4.98857 1.61993 0
M  V30 4164 H 398.211 -5.52 -0.00560067 0
M  V30 4165 H 398.688 -4.2455 -1.12491 0
M  V30 4166 H 399.294 -4.21767 0.547055 0
M  V30 4167 N 397.609 -0.515225 -1.4894 0
M  V30 4168 C 398.886 0.0879088 -1.95402 0
M  V30 4169 C 399.266 1.52745 -1.45712 0
M  V30 4170 O 398.614 2.18238 -0.677093 0
M  V30 4171 C 398.824 -0.0141055 -3.48997 0
M  V30 4172 C 400.172 0.152646 -4.24326 0
M  V30 4173 O 401.196 0.0604025 -3.56149 0
M  V30 4174 O 400.055 0.34384 -5.45417 0
M  V30 4175 H 397.149 0.0874636 -0.822362 0
M  V30 4176 H 399.695 -0.578775 -1.59525 0
M  V30 4177 H 398.467 -1.01745 -3.77841 0
M  V30 4178 H 398.09 0.692091 -3.9153 0
M  V30 4179 N 399.087 1.5561 -0.249682 0
M  V30 4180 C 400.017 2.24477 0.642826 0
M  V30 4181 C 400.998 1.22601 1.17911 0
M  V30 4182 O 402.183 1.5126 1.21795 0
M  V30 4183 C 399.313 2.94638 1.83863 0
M  V30 4184 C 398.267 4.03227 1.435 0
M  V30 4185 C 397.593 4.60828 2.71186 0
M  V30 4186 C 398.893 5.18796 0.604002 0
M  V30 4187 H 400.587 2.99321 0.0685625 0
M  V30 4188 H 398.133 1.43965 0.0315363 0
M  V30 4189 H 400.086 3.41517 2.46868 0
M  V30 4190 H 398.81 2.17287 2.43832 0
M  V30 4191 H 397.469 3.57121 0.828275 0
M  V30 4192 H 397.117 3.80174 3.29358 0
M  V30 4193 H 396.817 5.34132 2.44901 0
M  V30 4194 H 398.341 5.10442 3.35084 0
M  V30 4195 H 399.755 5.61883 1.13842 0
M  V30 4196 H 398.152 5.98506 0.437097 0
M  V30 4197 H 399.222 4.83384 -0.383147 0
M  V30 4198 N 400.565 -0.0233959 1.57583 0
M  V30 4199 C 401.513 -1.04063 2.08023 0
M  V30 4200 C 402.507 -1.37084 0.995204 0
M  V30 4201 O 403.713 -1.35923 1.18004 0
M  V30 4202 H 400.088 -0.353144 0.663922 0
M  V30 4203 H 402.059 -0.589453 2.9252 0
M  V30 4204 C 400.808 -2.33123 2.57971 0
M  V30 4205 H 400.131 -2.08577 3.4108 0
M  V30 4206 H 401.571 -3.02632 2.96967 0
M  V30 4207 C 400.03 -3.02483 1.48342 0
M  V30 4208 O 400.56 -3.92541 0.852898 0
M  V30 4209 N 398.766 -2.63909 1.21658 0
M  V30 4210 H 398.313 -1.90758 1.73116 0
M  V30 4211 H 398.271 -3.10633 0.485218 0
M  V30 4212 N 402.043 -1.548 -0.295768 0
M  V30 4213 C 402.991 -1.86874 -1.38495 0
M  V30 4214 C 403.985 -0.742938 -1.52239 0
M  V30 4215 O 405.191 -0.926999 -1.54294 0
M  V30 4216 H 401.566 -0.592786 -0.462719 0
M  V30 4217 H 403.537 -2.77904 -1.08682 0
M  V30 4218 C 402.286 -2.13732 -2.74252 0
M  V30 4219 H 401.609 -2.99835 -2.64459 0
M  V30 4220 H 403.049 -2.4011 -3.49461 0
M  V30 4221 C 401.508 -0.937539 -3.23592 0
M  V30 4222 O 402.038 -0.160665 -4.01379 0
M  V30 4223 N 400.244 -0.741478 -2.80981 0
M  V30 4224 H 399.791 -1.37489 -2.1784 0
M  V30 4225 H 399.749 0.0597103 -3.14343 0
M  V30 4226 N 403.521 0.559213 -1.47345 0
M  V30 4227 C 404.484 1.64854 -1.59235 0
M  V30 4228 C 405.484 1.53851 -0.467607 0
M  V30 4229 O 406.674 1.58045 -0.732617 0
M  V30 4230 C 403.806 3.04388 -1.53496 0
M  V30 4231 H 404.999 1.55662 -2.56339 0
M  V30 4232 H 402.552 0.778973 -1.35505 0
M  V30 4233 H 403.287 3.19115 -0.577604 0
M  V30 4234 H 403.072 3.13783 -2.35123 0
M  V30 4235 H 404.562 3.83642 -1.6495 0
M  V30 4236 N 404.999 1.35443 0.805782 0
M  V30 4237 C 406.246 1.28761 1.56291 0
M  V30 4238 C 406.574 -0.137747 1.94012 0
M  V30 4239 O 405.829 -1.1032 1.61642 0
M  V30 4240 C 406.128 2.14045 2.86216 0
M  V30 4241 C 405.794 3.62826 2.67709 0
M  V30 4242 C 404.456 4.0338 2.6237 0
M  V30 4243 C 406.808 4.57227 2.50186 0
M  V30 4244 C 404.136 5.36501 2.37451 0
M  V30 4245 C 406.488 5.90547 2.26797 0
M  V30 4246 C 405.152 6.30245 2.1988 0
M  V30 4247 H 404.422 0.471171 0.571908 0
M  V30 4248 H 407.069 1.67347 0.930974 0
M  V30 4249 H 405.374 1.68342 3.53791 0
M  V30 4250 H 407.071 2.0621 3.43917 0
M  V30 4251 H 403.661 3.30644 2.72713 0
M  V30 4252 H 407.845 4.2678 2.53323 0
M  V30 4253 H 403.101 5.66259 2.30567 0
M  V30 4254 H 407.275 6.63274 2.12228 0
M  V30 4255 H 404.902 7.33328 2.00333 0
M  V30 4256 N 406.477 -1.02803 1.19454 0
M  V30 4257 C 407.723 -1.76598 1.0092 0
M  V30 4258 C 408.078 -1.86939 -0.455142 0
M  V30 4259 O 407.371 -1.37575 -1.33355 0
M  V30 4260 C 407.565 -3.18941 1.6128 0
M  V30 4261 C 407.394 -3.22476 3.13431 0
M  V30 4262 C 406.164 -3.30375 3.82336 0
M  V30 4263 C 408.362 -3.09451 4.10785 0
M  V30 4264 N 406.344 -3.23292 5.21877 0
M  V30 4265 C 407.715 -3.10012 5.36929 0
M  V30 4266 C 409.77 -2.93585 4.02135 0
M  V30 4267 C 408.473 -2.96334 6.55423 0
M  V30 4268 C 410.499 -2.81256 5.20239 0
M  V30 4269 C 409.861 -2.82472 6.45282 0
M  V30 4270 H 405.96 -0.657447 0.423424 0
M  V30 4271 H 408.544 -1.22369 1.5144 0
M  V30 4272 H 406.715 -3.71489 1.1336 0
M  V30 4273 H 408.447 -3.81102 1.36173 0
M  V30 4274 H 405.202 -3.3663 3.33132 0
M  V30 4275 H 405.626 -3.23156 5.94894 0
M  V30 4276 H 410.268 -2.91466 3.0628 0
M  V30 4277 H 407.986 -2.97203 7.51463 0
M  V30 4278 H 411.572 -2.70014 5.15348 0
M  V30 4279 H 410.452 -2.73036 7.35133 0
M  V30 4280 N 407.956 -0.998596 -1.21925 0
M  V30 4281 C 409.184 -0.696286 -1.94832 0
M  V30 4282 C 409.599 0.740032 -1.73692 0
M  V30 4283 O 408.956 1.5 -1.03953 0
M  V30 4284 C 409.007 -0.999833 -3.47398 0
M  V30 4285 O 408.728 -2.37972 -3.67833 0
M  V30 4286 C 410.229 -0.716025 -4.37479 0
M  V30 4287 H 407.449 -0.257111 -0.619786 0
M  V30 4288 H 409.993 -1.33491 -1.54921 0
M  V30 4289 H 408.148 -0.406918 -3.85257 0
M  V30 4290 H 408.562 -2.48338 -4.61983 0
M  V30 4291 H 410.036 -0.978642 -5.43256 0
M  V30 4292 H 410.513 0.349968 -4.37803 0
M  V30 4293 H 411.119 -1.29025 -4.05256 0
M  V30 4294 N 409.434 1.37368 -0.772513 0
M  V30 4295 C 410.366 2.28899 -0.117502 0
M  V30 4296 C 411.379 1.4867 0.663405 0
M  V30 4297 O 412.568 1.71314 0.501372 0
M  V30 4298 C 409.668 3.2788 0.857192 0
M  V30 4299 C 408.841 4.37207 0.129938 0
M  V30 4300 C 407.9 5.16257 1.01811 0
M  V30 4301 O 406.926 5.67159 0.481601 0
M  V30 4302 N 408.128 5.31058 2.3443 0
M  V30 4303 H 410.893 2.85752 -0.903662 0
M  V30 4304 H 408.454 1.49353 -0.62493 0
M  V30 4305 H 410.446 3.77647 1.45482 0
M  V30 4306 H 409.016 2.7179 1.54432 0
M  V30 4307 H 408.236 3.88827 -0.648605 0
M  V30 4308 H 409.524 5.07434 -0.372559 0
M  V30 4309 H 408.922 4.91287 2.80452 0
M  V30 4310 H 407.479 5.84131 2.89197 0
M  V30 4311 N 410.912 0.523116 1.48665 0
M  V30 4312 C 411.844 -0.280421 2.27478 0
M  V30 4313 C 412.857 -0.910694 1.34945 0
M  V30 4314 O 414.046 -0.790295 1.60052 0
M  V30 4315 C 411.146 -1.41171 3.08097 0
M  V30 4316 C 410.319 -0.884642 4.28361 0
M  V30 4317 C 409.378 -1.89622 4.90846 0
M  V30 4318 O 408.404 -1.4559 5.50265 0
M  V30 4319 N 409.606 -3.22801 4.82472 0
M  V30 4320 H 412.371 0.395481 2.97079 0
M  V30 4321 H 409.932 0.357018 1.57915 0
M  V30 4322 H 411.924 -2.08645 3.4677 0
M  V30 4323 H 410.494 -1.99139 2.40961 0
M  V30 4324 H 409.714 -0.0341177 3.94185 0
M  V30 4325 H 411.002 -0.511268 5.06225 0
M  V30 4326 H 410.4 -3.61246 4.35336 0
M  V30 4327 H 408.957 -3.85927 5.25265 0
M  V30 4328 N 412.39 -1.55475 0.257931 0
M  V30 4329 C 413.337 -2.21837 -0.636939 0
M  V30 4330 C 414.307 -1.18596 -1.16294 0
M  V30 4331 O 415.492 -1.47081 -1.21539 0
M  V30 4332 C 412.632 -2.9301 -1.82317 0
M  V30 4333 C 411.745 -4.10931 -1.33265 0
M  V30 4334 C 410.88 -4.69791 -2.47931 0
M  V30 4335 C 409.919 -5.7994 -1.95796 0
M  V30 4336 N 409.056 -6.32935 -3.0387 0
M  V30 4337 H 413.896 -2.9793 -0.0643591 0
M  V30 4338 H 411.433 -1.47086 -0.0200031 0
M  V30 4339 H 413.391 -3.3248 -2.52018 0
M  V30 4340 H 412.021 -2.1937 -2.36805 0
M  V30 4341 H 411.073 -3.76699 -0.52931 0
M  V30 4342 H 412.385 -4.90417 -0.910654 0
M  V30 4343 H 411.539 -5.11892 -3.25656 0
M  V30 4344 H 410.278 -3.89545 -2.93438 0
M  V30 4345 H 409.283 -5.37305 -1.16546 0
M  V30 4346 H 410.508 -6.62043 -1.51246 0
M  V30 4347 H 408.454 -5.55591 -3.48791 0
M  V30 4348 H 408.371 -7.07645 -2.66035 0
M  V30 4349 H 409.639 -6.79695 -3.81621 0
M  V30 4350 N 413.868 0.0150385 -1.57593 0
M  V30 4351 C 415.098 0.713359 -1.93894 0
M  V30 4352 C 415.506 1.68663 -0.857289 0
M  V30 4353 O 414.849 1.82876 0.173788 0
M  V30 4354 C 414.911 1.51348 -3.26089 0
M  V30 4355 C 414.575 0.703451 -4.51554 0
M  V30 4356 C 415.572 -0.00237924 -5.199 0
M  V30 4357 C 413.257 0.653854 -4.98026 0
M  V30 4358 C 415.251 -0.746955 -6.33008 0
M  V30 4359 C 412.938 -0.0944578 -6.11027 0
M  V30 4360 C 413.936 -0.793609 -6.78374 0
M  V30 4361 O 413.624 -1.52974 -7.89211 0
M  V30 4362 H 413.356 0.204637 -0.644282 0
M  V30 4363 H 415.91 -0.0276411 -2.05381 0
M  V30 4364 H 414.14 2.29862 -3.10967 0
M  V30 4365 H 415.829 2.09572 -3.47612 0
M  V30 4366 H 416.595 0.0268803 -4.84993 0
M  V30 4367 H 412.474 1.18756 -4.45441 0
M  V30 4368 H 416.018 -1.2932 -6.85509 0
M  V30 4369 H 411.915 -0.125591 -6.45378 0
M  V30 4370 H 412.683 -1.44488 -8.05646 0
M  V30 4371 N 415.346 1.54954 0.287554 0
M  V30 4372 C 416.593 1.74873 1.02106 0
M  V30 4373 C 416.921 0.541829 1.86801 0
M  V30 4374 O 416.176 -0.475992 1.89823 0
M  V30 4375 C 416.475 2.99833 1.94512 0
M  V30 4376 C 416.141 4.33029 1.25686 0
M  V30 4377 C 414.803 4.69233 1.06649 0
M  V30 4378 C 417.155 5.15542 0.765913 0
M  V30 4379 C 414.483 5.85518 0.372222 0
M  V30 4380 C 416.835 6.32542 0.0853101 0
M  V30 4381 C 415.499 6.67398 -0.1169 0
M  V30 4382 H 414.769 0.639906 0.373632 0
M  V30 4383 H 417.416 1.89219 0.294665 0
M  V30 4384 H 415.721 2.80325 2.73725 0
M  V30 4385 H 417.418 3.1244 2.51361 0
M  V30 4386 H 414.008 4.04564 1.41512 0
M  V30 4387 H 418.192 4.88059 0.90066 0
M  V30 4388 H 413.448 6.11057 0.204695 0
M  V30 4389 H 417.622 6.95741 -0.302936 0
M  V30 4390 H 415.249 7.57357 -0.656859 0
M  V30 4391 N 416.824 -0.551391 1.4764 0
M  V30 4392 C 418.052 -1.33357 1.58189 0
M  V30 4393 C 418.467 -1.87342 0.234199 0
M  V30 4394 O 417.824 -1.65301 -0.77343 0
M  V30 4395 C 417.875 -2.49942 2.61173 0
M  V30 4396 O 417.596 -1.98187 3.90709 0
M  V30 4397 C 419.097 -3.42072 2.8196 0
M  V30 4398 H 416.317 -0.40631 0.533998 0
M  V30 4399 H 418.861 -0.667367 1.93304 0
M  V30 4400 H 417.016 -3.12489 2.28975 0
M  V30 4401 H 417.43 -2.74342 4.47031 0
M  V30 4402 H 418.904 -4.20278 3.57869 0
M  V30 4403 H 419.381 -3.95978 1.89995 0
M  V30 4404 H 419.987 -2.85336 3.15378 0
M  V30 4405 N 418.302 -1.35869 -0.798587 0
M  V30 4406 C 419.713 -1.26498 -1.37314 0
M  V30 4407 C 420.064 0.0991899 -1.95949 0
M  V30 4408 O 419.189 1.0004 -1.91888 0
M  V30 4409 C 419.784 -2.29054 -2.49639 0
M  V30 4410 C 418.343 -2.234 -3.02935 0
M  V30 4411 C 417.49 -2.14329 -1.75949 0
M  V30 4412 H 420.441 -1.46881 -0.600971 0
M  V30 4413 H 420.462 -1.92166 -3.28409 0
M  V30 4414 H 419.974 -3.2833 -2.06933 0
M  V30 4415 H 418.075 -1.27562 -3.50084 0
M  V30 4416 H 418.188 -3.15703 -3.60372 0
M  V30 4417 H 416.552 -1.60435 -1.9782 0
M  V30 4418 H 417.335 -3.15477 -1.35384 0
M  V30 4419 N 419.78 1.02168 -1.19998 0
M  V30 4420 C 421.026 1.75945 -1.00852 0
M  V30 4421 C 421.359 1.88702 0.458828 0
M  V30 4422 O 420.634 1.40911 1.34069 0
M  V30 4423 C 420.917 3.18154 -1.68671 0
M  V30 4424 C 420.77 3.13224 -3.22817 0
M  V30 4425 C 422.089 4.16711 -1.41561 0
M  V30 4426 H 419.208 0.638673 -0.367785 0
M  V30 4427 H 421.85 1.19222 -1.4794 0
M  V30 4428 H 420 3.66586 -1.28636 0
M  V30 4429 H 421.672 2.72635 -3.72112 0
M  V30 4430 H 419.915 2.50751 -3.53986 0
M  V30 4431 H 420.586 4.13728 -3.65422 0
M  V30 4432 H 423.062 3.76913 -1.76284 0
M  V30 4433 H 421.938 5.14391 -1.91553 0
M  V30 4434 H 422.199 4.40774 -0.342193 0
M  V30 4435 N 421.258 1.00505 1.21394 0
M  V30 4436 C 422.188 0.585684 2.26035 0
M  V30 4437 C 423.169 -0.393525 1.65485 0
M  V30 4438 O 424.354 -0.281497 1.92149 0
M  V30 4439 C 421.484 -0.0884283 3.47187 0
M  V30 4440 C 420.438 0.810567 4.20254 0
M  V30 4441 C 419.764 0.00286382 5.347 0
M  V30 4442 C 421.064 2.1132 4.77641 0
M  V30 4443 H 422.758 1.46039 2.61368 0
M  V30 4444 H 420.304 0.703648 1.25638 0
M  V30 4445 H 422.257 -0.393286 4.19561 0
M  V30 4446 H 420.981 -0.997766 3.10986 0
M  V30 4447 H 419.64 1.09925 3.49731 0
M  V30 4448 H 419.288 -0.907765 4.94741 0
M  V30 4449 H 418.988 0.601444 5.84514 0
M  V30 4450 H 420.512 -0.295808 6.09883 0
M  V30 4451 H 421.926 1.87148 5.41893 0
M  V30 4452 H 420.323 2.66164 5.37845 0
M  V30 4453 H 421.393 2.78393 3.9702 0
M  V30 4454 N 422.737 -1.36956 0.779787 0
M  V30 4455 C 423.985 -1.99097 0.347079 0
M  V30 4456 C 424.306 -1.62206 -1.08232 0
M  V30 4457 O 423.576 -0.891373 -1.74446 0
M  V30 4458 H 422.156 -0.736409 0.125342 0
M  V30 4459 H 424.818 -1.67308 0.999696 0
M  V30 4460 H 423.914 -3.09107 0.431162 0
M  V30 4461 N 424.215 -0.530993 -1.48385 0
M  V30 4462 C 425.148 0.278511 -2.26494 0
M  V30 4463 C 426.126 0.943905 -1.32398 0
M  V30 4464 O 427.31 0.968098 -1.61741 0
M  V30 4465 C 424.437 1.39453 -3.08659 0
M  V30 4466 C 423.483 0.840434 -4.18137 0
M  V30 4467 S 424.316 -0.292496 -5.34701 0
M  V30 4468 C 425.472 0.825973 -6.20426 0
M  V30 4469 H 425.705 -0.384365 -2.94805 0
M  V30 4470 H 423.238 -0.316799 -1.51115 0
M  V30 4471 H 425.196 2.03382 -3.56575 0
M  V30 4472 H 423.857 2.02913 -2.3976 0
M  V30 4473 H 423.05 1.67769 -4.75257 0
M  V30 4474 H 422.652 0.277819 -3.72967 0
M  V30 4475 H 424.944 1.72438 -6.55188 0
M  V30 4476 H 425.887 0.292728 -7.07495 0
M  V30 4477 H 426.295 1.10683 -5.53543 0
M  V30 4478 N 425.693 1.55336 -0.266172 0
M  V30 4479 C 426.623 2.25146 0.618981 0
M  V30 4480 C 427.604 1.23845 1.16604 0
M  V30 4481 O 428.789 1.52544 1.20183 0
M  V30 4482 C 425.919 2.96572 1.80728 0
M  V30 4483 C 424.873 4.04726 1.39215 0
M  V30 4484 C 424.199 4.63678 2.66283 0
M  V30 4485 C 425.499 5.19407 0.548942 0
M  V30 4486 H 427.193 2.99377 0.0368116 0
M  V30 4487 H 424.739 1.43991 0.0162651 0
M  V30 4488 H 426.692 3.44116 2.43232 0
M  V30 4489 H 425.416 2.19861 2.41514 0
M  V30 4490 H 424.075 3.57979 0.790351 0
M  V30 4491 H 423.723 3.83646 3.25308 0
M  V30 4492 H 423.423 5.367 2.39222 0
M  V30 4493 H 424.947 5.13967 3.29651 0
M  V30 4494 H 426.361 5.63059 1.07876 0
M  V30 4495 H 424.758 5.98936 0.373593 0
M  V30 4496 H 425.828 4.8295 -0.434394 0
M  V30 4497 N 427.171 -0.0066808 1.57599 0
M  V30 4498 C 428.418 -0.69292 1.90276 0
M  V30 4499 C 428.746 -1.74148 0.866192 0
M  V30 4500 O 428.001 -1.95268 -0.129933 0
M  V30 4501 C 428.3 -1.37939 3.29708 0
M  V30 4502 C 427.966 -0.464679 4.48499 0
M  V30 4503 C 426.628 -0.212809 4.80729 0
M  V30 4504 C 428.98 0.16551 5.20937 0
M  V30 4505 C 426.308 0.677653 5.82773 0
M  V30 4506 C 428.66 1.04381 6.23929 0
M  V30 4507 C 427.324 1.30492 6.54621 0
M  V30 4508 H 426.594 -0.253558 0.696268 0
M  V30 4509 H 429.241 0.0474123 1.91441 0
M  V30 4510 H 427.546 -2.1936 3.24636 0
M  V30 4511 H 429.243 -1.9163 3.52249 0
M  V30 4512 H 425.833 -0.671153 4.23313 0
M  V30 4513 H 430.017 -0.0160756 4.96297 0
M  V30 4514 H 425.273 0.88803 6.04917 0
M  V30 4515 H 429.447 1.53851 6.79193 0
M  V30 4516 H 427.074 1.99662 7.33512 0
M  V30 4517 N 428.649 -1.55105 -0.279332 0
M  V30 4518 C 429.559 -1.90638 -1.36727 0
M  V30 4519 C 430.575 -0.802899 -1.54368 0
M  V30 4520 O 431.751 -1.10138 -1.68616 0
M  V30 4521 C 428.816 -2.16547 -2.70755 0
M  V30 4522 C 427.877 -3.40146 -2.61915 0
M  V30 4523 C 427.11 -3.6481 -3.8955 0
M  V30 4524 O 427.333 -2.92095 -4.89935 0
M  V30 4525 O 426.267 -4.58343 -3.90135 0
M  V30 4526 H 430.093 -2.83237 -1.09591 0
M  V30 4527 H 427.678 -1.4157 -0.477306 0
M  V30 4528 H 429.56 -2.34665 -3.50014 0
M  V30 4529 H 428.235 -1.27131 -2.9769 0
M  V30 4530 H 427.142 -3.2737 -1.81052 0
M  V30 4531 H 428.475 -4.29761 -2.3993 0
M  V30 4532 N 430.127 0.543554 -1.4793 0
M  V30 4533 C 431.357 1.32324 -1.58663 0
M  V30 4534 C 431.765 1.8766 -0.240896 0
M  V30 4535 O 431.108 1.66411 0.778011 0
M  V30 4536 C 431.17 2.52094 -2.56299 0
M  V30 4537 C 430.834 2.17944 -4.01683 0
M  V30 4538 C 431.831 1.74422 -4.89768 0
M  V30 4539 C 429.516 2.28884 -4.47121 0
M  V30 4540 C 431.51 1.42287 -6.21316 0
M  V30 4541 C 429.197 1.96361 -5.78693 0
M  V30 4542 C 430.195 1.53132 -6.65612 0
M  V30 4543 O 429.883 1.21029 -7.94737 0
M  V30 4544 H 429.615 0.409174 -0.538101 0
M  V30 4545 H 432.169 0.663887 -1.94375 0
M  V30 4546 H 430.399 3.20965 -2.15681 0
M  V30 4547 H 432.088 3.14165 -2.57012 0
M  V30 4548 H 432.854 1.65452 -4.55907 0
M  V30 4549 H 428.733 2.61488 -3.79664 0
M  V30 4550 H 432.277 1.08472 -6.89115 0
M  V30 4551 H 428.174 2.04967 -6.12094 0
M  V30 4552 H 428.942 1.34543 -8.07366 0
M  V30 4553 N 431.605 1.3629 0.791371 0
M  V30 4554 C 432.853 1.30154 1.5461 0
M  V30 4555 C 433.174 -0.119409 1.94634 0
M  V30 4556 O 432.444 -1.05924 1.64794 0
M  V30 4557 H 431.024 0.478784 0.573389 0
M  V30 4558 H 433.686 1.70565 0.94306 0
M  V30 4559 H 432.782 1.92762 2.45457 0
M  V30 4560 N 433.083 -1.0153 1.20538 0
M  V30 4561 C 434.308 -1.79283 1.04271 0
M  V30 4562 C 434.733 -1.8372 -0.403544 0
M  V30 4563 O 434.091 -1.27321 -1.2907 0
M  V30 4564 C 434.139 -3.21535 1.63241 0
M  V30 4565 O 433.243 -4.03099 0.870908 0
M  V30 4566 H 432.584 -0.55293 0.367647 0
M  V30 4567 H 435.114 -1.27696 1.59859 0
M  V30 4568 H 435.124 -3.72243 1.6703 0
M  V30 4569 H 433.799 -3.1762 2.68497 0
M  V30 4570 H 432.376 -3.61693 0.907323 0
M  V30 4571 N 434.561 -1.01147 -1.20859 0
M  V30 4572 C 435.508 -0.577354 -2.23462 0
M  V30 4573 C 436.478 0.399922 -1.61214 0
M  V30 4574 O 437.663 0.300515 -1.88419 0
M  V30 4575 C 434.803 0.083372 -3.44999 0
M  V30 4576 C 433.916 -0.937856 -4.21697 0
M  V30 4577 C 433.051 -0.248717 -5.30617 0
M  V30 4578 C 432.09 -1.25705 -5.99053 0
M  V30 4579 N 431.227 -0.594939 -6.99575 0
M  V30 4580 H 436.067 -1.45695 -2.59956 0
M  V30 4581 H 433.604 -0.729428 -1.27741 0
M  V30 4582 H 435.562 0.483535 -4.14388 0
M  V30 4583 H 434.192 0.926645 -3.09214 0
M  V30 4584 H 433.244 -1.45622 -3.51423 0
M  V30 4585 H 434.556 -1.70493 -4.68757 0
M  V30 4586 H 433.71 0.207215 -6.06346 0
M  V30 4587 H 432.449 0.55071 -4.84581 0
M  V30 4588 H 431.454 -1.72343 -5.2209 0
M  V30 4589 H 432.679 -2.05767 -6.47176 0
M  V30 4590 H 430.625 0.184713 -6.5574 0
M  V30 4591 H 430.542 -1.30017 -7.44736 0
M  V30 4592 H 431.81 -0.162427 -7.79331 0
M  V30 4593 N 436.039 1.36541 -0.78704 0
M  V30 4594 C 437.286 1.99304 -0.358341 0
M  V30 4595 C 437.614 1.62467 1.06933 0
M  V30 4596 O 436.869 0.870019 1.75297 0
M  V30 4597 C 437.168 3.54343 -0.466485 0
M  V30 4598 C 436.834 4.10993 -1.85461 0
M  V30 4599 C 435.496 4.26177 -2.23443 0
M  V30 4600 C 437.848 4.41895 -2.76366 0
M  V30 4601 C 435.176 4.69573 -3.51736 0
M  V30 4602 C 437.528 4.86722 -4.04084 0
M  V30 4603 C 436.192 5.00112 -4.42091 0
M  V30 4604 H 435.462 0.729306 -0.131126 0
M  V30 4605 H 438.109 1.63068 -1.00404 0
M  V30 4606 H 436.414 3.90918 0.262719 0
M  V30 4607 H 438.111 4.00833 -0.115854 0
M  V30 4608 H 434.701 3.99612 -1.54946 0
M  V30 4609 H 438.885 4.29735 -2.48277 0
M  V30 4610 H 434.141 4.78127 -3.81057 0
M  V30 4611 H 438.315 5.09598 -4.7464 0
M  V30 4612 H 435.942 5.33498 -5.41557 0
M  V30 4613 N 437.518 0.538854 1.48102 0
M  V30 4614 C 438.465 -0.219042 2.29758 0
M  V30 4615 C 439.435 -0.925562 1.37922 0
M  V30 4616 O 440.62 -0.924855 1.66886 0
M  V30 4617 C 437.76 -1.25452 3.2149 0
M  V30 4618 C 436.873 -0.555943 4.28408 0
M  V30 4619 C 436.008 -1.57512 5.0731 0
M  V30 4620 C 435.047 -0.860498 6.06021 0
M  V30 4621 N 434.184 -1.82564 6.77949 0
M  V30 4622 H 439.024 0.483449 2.94052 0
M  V30 4623 H 436.561 0.250247 1.44956 0
M  V30 4624 H 438.519 -1.86727 3.7308 0
M  V30 4625 H 437.149 -1.92528 2.591 0
M  V30 4626 H 436.201 0.170938 3.80016 0
M  V30 4627 H 437.513 0.00474616 4.988 0
M  V30 4628 H 436.667 -2.26191 5.62959 0
M  V30 4629 H 435.406 -2.16972 4.36778 0
M  V30 4630 H 434.411 -0.159686 5.49568 0
M  V30 4631 H 435.636 -0.271897 6.78555 0
M  V30 4632 H 433.582 -2.40915 6.10161 0
M  V30 4633 H 433.499 -1.31662 7.44447 0
M  V30 4634 H 434.767 -2.50414 7.38182 0
M  V30 4635 N 438.996 -1.55193 0.274407 0
M  V30 4636 C 440.242 -1.99877 -0.343086 0
M  V30 4637 C 440.575 -1.16256 -1.55558 0
M  V30 4638 O 439.85 -0.232462 -1.93106 0
M  V30 4639 C 440.133 -3.52706 -0.725965 0
M  V30 4640 C 439.986 -4.47081 0.493818 0
M  V30 4641 C 441.305 -4.11422 -1.56268 0
M  V30 4642 H 438.424 -0.726625 -0.123229 0
M  V30 4643 H 441.066 -1.86136 0.38121 0
M  V30 4644 H 439.216 -3.64546 -1.34307 0
M  V30 4645 H 440.888 -4.47186 1.13237 0
M  V30 4646 H 439.131 -4.1877 1.13201 0
M  V30 4647 H 439.802 -5.51699 0.18217 0
M  V30 4648 H 442.278 -4.02855 -1.04151 0
M  V30 4649 H 441.154 -5.18568 -1.79939 0
M  V30 4650 H 441.415 -3.61607 -2.54348 0
M  V30 4651 N 440.474 -0.00167713 -1.576 0
M  V30 4652 C 441.384 1.00548 -2.1196 0
M  V30 4653 C 442.4 1.3758 -1.06526 0
M  V30 4654 O 443.576 1.46278 -1.38436 0
M  V30 4655 C 440.641 2.27809 -2.6135 0
M  V30 4656 C 439.702 1.97074 -3.81393 0
M  V30 4657 C 438.935 3.18267 -4.28417 0
M  V30 4658 O 439.158 4.30009 -3.74765 0
M  V30 4659 O 438.092 3.02167 -5.20556 0
M  V30 4660 H 441.918 0.573373 -2.98238 0
M  V30 4661 H 439.503 0.217255 -1.47812 0
M  V30 4662 H 441.385 3.02568 -2.93309 0
M  V30 4663 H 440.06 2.70254 -1.78169 0
M  V30 4664 H 438.967 1.19785 -3.54404 0
M  V30 4665 H 440.3 1.59464 -4.65652 0
M  V30 4666 N 441.952 1.55251 0.271103 0
M  V30 4667 C 443.363 1.66635 0.842007 0
M  V30 4668 C 443.714 0.594631 1.86972 0
M  V30 4669 O 442.839 -0.263532 2.14789 0
M  V30 4670 C 443.434 3.02082 1.53401 0
M  V30 4671 C 441.993 3.15487 2.05293 0
M  V30 4672 C 441.14 2.62438 0.895631 0
M  V30 4673 H 444.091 1.58629 0.0474117 0
M  V30 4674 H 444.112 2.95176 2.40107 0
M  V30 4675 H 443.624 3.80062 0.785786 0
M  V30 4676 H 441.725 2.42284 2.83071 0
M  V30 4677 H 441.838 4.22075 2.26693 0
M  V30 4678 H 440.202 2.19644 1.28953 0
M  V30 4679 H 440.985 3.42923 0.160878 0
M  V30 4680 N 443.43 -0.535701 1.48216 0
M  V30 4681 C 444.676 -1.2913 1.57153 0
M  V30 4682 C 445.031 -1.90899 0.239823 0
M  V30 4683 O 444.324 -1.76022 -0.756748 0
M  V30 4684 C 444.518 -2.4068 2.64212 0
M  V30 4685 C 444.347 -1.89844 4.07663 0
M  V30 4686 C 443.117 -1.72708 4.74869 0
M  V30 4687 C 445.315 -1.43031 4.94011 0
M  V30 4688 N 443.297 -1.16437 6.02757 0
M  V30 4689 C 444.668 -0.986691 6.12098 0
M  V30 4690 C 446.723 -1.3128 4.80281 0
M  V30 4691 C 445.426 -0.437231 7.1797 0
M  V30 4692 C 447.452 -0.777346 5.86269 0
M  V30 4693 C 446.814 -0.343774 7.03561 0
M  V30 4694 H 442.913 -0.463753 0.629648 0
M  V30 4695 H 445.497 -0.604736 1.8507 0
M  V30 4696 H 443.668 -3.06839 2.38126 0
M  V30 4697 H 445.4 -3.07706 2.62867 0
M  V30 4698 H 442.155 -1.96061 4.31111 0
M  V30 4699 H 442.579 -0.903281 6.70947 0
M  V30 4700 H 447.221 -1.63408 3.89946 0
M  V30 4701 H 444.939 -0.103621 8.08034 0
M  V30 4702 H 448.525 -0.689688 5.77698 0
M  V30 4703 H 447.405 0.0641219 7.84174 0
M  V30 4704 N 444.908 -1.36708 -0.784132 0
M  V30 4705 C 446.154 -1.31426 -1.54451 0
M  V30 4706 C 446.487 0.10476 -1.93917 0
M  V30 4707 O 445.762 1.05934 -1.6312 0
M  V30 4708 C 446.045 -2.24189 -2.818 0
M  V30 4709 C 445.898 -3.74813 -2.48667 0
M  V30 4710 C 447.217 -2.15626 -3.83658 0
M  V30 4711 H 444.336 -0.478739 -0.560337 0
M  V30 4712 H 446.978 -1.67305 -0.900498 0
M  V30 4713 H 445.128 -1.93722 -3.36755 0
M  V30 4714 H 446.8 -4.15823 -1.99722 0
M  V30 4715 H 445.043 -3.93989 -1.81535 0
M  V30 4716 H 445.714 -4.35138 -3.39646 0
M  V30 4717 H 448.19 -2.42456 -3.38163 0
M  V30 4718 H 447.066 -2.82694 -4.70506 0
M  V30 4719 H 447.327 -1.14522 -4.27009 0
M  V30 4720 N 446.386 1.0089 -1.21074 0
M  V30 4721 C 447.333 2.09588 -0.966512 0
M  V30 4722 C 448.303 1.65761 0.106089 0
M  V30 4723 O 449.488 1.90758 -0.0402287 0
M  V30 4724 C 446.628 3.40958 -0.533058 0
M  V30 4725 C 445.741 3.9822 -1.67467 0
M  V30 4726 C 444.876 5.17682 -1.19076 0
M  V30 4727 C 443.915 5.67043 -2.30496 0
M  V30 4728 N 443.052 6.77759 -1.83267 0
M  V30 4729 H 447.892 2.29815 -1.89708 0
M  V30 4730 H 445.429 1.12689 -0.945489 0
M  V30 4731 H 447.387 4.1637 -0.263019 0
M  V30 4732 H 446.017 3.20781 0.360505 0
M  V30 4733 H 445.069 3.1983 -2.05944 0
M  V30 4734 H 446.381 4.3085 -2.51336 0
M  V30 4735 H 445.535 6.00326 -0.877151 0
M  V30 4736 H 444.274 4.86635 -0.322066 0
M  V30 4737 H 443.279 4.82999 -2.62664 0
M  V30 4738 H 444.504 6.00121 -3.17855 0
M  V30 4739 H 442.45 6.48527 -0.987356 0
M  V30 4740 H 442.367 7.09624 -2.60711 0
M  V30 4741 H 443.635 7.63949 -1.54928 0
M  V30 4742 N 447.864 1.01787 1.20321 0
M  V30 4743 C 449.092 0.727194 1.937 0
M  V30 4744 C 449.507 -0.712305 1.74848 0
M  V30 4745 O 448.864 -1.48327 1.06327 0
M  V30 4746 C 448.915 1.05497 3.45764 0
M  V30 4747 O 448.636 2.43794 3.64 0
M  V30 4748 C 450.137 0.785534 4.36285 0
M  V30 4749 H 447.357 0.266939 0.615617 0
M  V30 4750 H 449.901 1.35939 1.52777 0
M  V30 4751 H 448.056 0.468158 3.84561 0
M  V30 4752 H 448.47 2.55656 4.57974 0
M  V30 4753 H 449.944 1.06495 5.4163 0
M  V30 4754 H 450.421 -0.280273 4.38305 0
M  V30 4755 H 451.027 1.35456 4.03152 0
M  V30 4756 N 449.342 -1.36122 0.79427 0
M  V30 4757 C 450.588 -1.99846 0.378542 0
M  V30 4758 C 450.943 -1.61898 -1.03955 0
M  V30 4759 O 450.236 -0.866013 -1.70912 0
M  V30 4760 C 450.43 -3.5409 0.48527 0
M  V30 4761 C 450.259 -4.0702 1.91219 0
M  V30 4762 C 449.029 -4.36944 2.53787 0
M  V30 4763 C 451.227 -4.26435 2.87502 0
M  V30 4764 N 449.209 -4.75727 3.88017 0
M  V30 4765 C 450.58 -4.68077 4.06576 0
M  V30 4766 C 452.635 -4.08616 2.84495 0
M  V30 4767 C 451.338 -4.93765 5.23057 0
M  V30 4768 C 453.364 -4.35453 4.00169 0
M  V30 4769 C 452.726 -4.77355 5.17988 0
M  V30 4770 H 448.825 -0.759549 0.186034 0
M  V30 4771 H 451.409 -1.65043 1.0329 0
M  V30 4772 H 449.58 -3.88151 -0.139023 0
M  V30 4773 H 451.312 -4.04675 0.0453192 0
M  V30 4774 H 448.067 -4.26822 2.05231 0
M  V30 4775 H 448.491 -4.99396 4.57092 0
M  V30 4776 H 453.133 -3.75373 1.94564 0
M  V30 4777 H 450.851 -5.25887 6.1357 0
M  V30 4778 H 454.437 -4.2323 3.99208 0
M  V30 4779 H 453.317 -4.97718 6.06008 0
M  V30 4780 N 450.82 -0.546701 -1.47814 0
M  V30 4781 C 451.768 0.220048 -2.31557 0
M  V30 4782 C 452.762 0.919472 -1.42275 0
M  V30 4783 O 453.968 0.841953 -1.59095 0
M  V30 4784 H 450.343 0.0898334 -0.746615 0
M  V30 4785 H 452.314 -0.505589 -2.94086 0
M  V30 4786 C 451.063 1.24353 -3.24702 0
M  V30 4787 H 450.386 0.714758 -3.93359 0
M  V30 4788 H 451.826 1.75112 -3.8615 0
M  V30 4789 C 450.285 2.28593 -2.47481 0
M  V30 4790 O 450.815 3.35334 -2.21165 0
M  V30 4791 N 449.021 2.02244 -2.08676 0
M  V30 4792 H 448.568 1.15455 -2.30278 0
M  V30 4793 H 448.526 2.72207 -1.57323 0
M  V30 4794 N 452.299 1.55045 -0.282633 0
M  V30 4795 C 453.715 1.59441 0.0712997 0
M  V30 4796 C 453.915 1.2998 1.53972 0
M  V30 4797 O 452.971 1.06431 2.28973 0
M  V30 4798 C 454.284 2.99097 -0.310104 0
M  V30 4799 C 455.832 3.1194 -0.257343 0
M  V30 4800 C 456.307 4.53875 -0.613297 0
M  V30 4801 N 457.798 4.5974 -0.565134 0
M  V30 4802 C 458.533 5.67603 -0.81326 0
M  V30 4803 N 458.029 6.83582 -1.1264 0
M  V30 4804 N 459.822 5.57187 -0.741553 0
M  V30 4805 H 451.973 1.72458 -1.23984 0
M  V30 4806 H 454.236 0.804549 -0.501403 0
M  V30 4807 H 453.942 3.25516 -1.33163 0
M  V30 4808 H 453.816 3.75616 0.345366 0
M  V30 4809 H 456.203 2.85281 0.754905 0
M  V30 4810 H 456.284 2.37618 -0.947178 0
M  V30 4811 H 455.928 4.81261 -1.62327 0
M  V30 4812 H 455.858 5.26508 0.09841 0
M  V30 4813 H 458.349 3.76427 -0.333294 0
M  V30 4814 H 458.662 7.6175 -1.30219 0
M  V30 4815 H 457.007 6.85179 -1.16425 0
M  V30 4816 H 460.198 4.65457 -0.496705 0
M  V30 4817 H 460.371 6.41171 -0.938306 0
M  V30 4818 N 453.777 0.010035 1.57597 0
M  V30 4819 C 455.023 -0.668011 1.92118 0
M  V30 4820 C 455.378 -1.70821 0.885328 0
M  V30 4821 O 454.671 -1.91333 -0.101187 0
M  V30 4822 C 454.865 -1.34434 3.31153 0
M  V30 4823 C 454.694 -0.371176 4.48166 0
M  V30 4824 C 453.464 0.0220686 5.05295 0
M  V30 4825 C 455.662 0.366731 5.12991 0
M  V30 4826 N 453.644 0.9924 6.05826 0
M  V30 4827 C 455.015 1.19142 6.08445 0
M  V30 4828 C 457.07 0.429489 4.96044 0
M  V30 4829 C 455.773 2.07317 6.88776 0
M  V30 4830 C 457.799 1.2985 5.76969 0
M  V30 4831 C 457.161 2.11101 6.72023 0
M  V30 4832 H 453.26 -0.217337 0.751192 0
M  V30 4833 H 455.844 0.0727375 1.94564 0
M  V30 4834 H 454.015 -2.05533 3.29561 0
M  V30 4835 H 455.747 -1.97789 3.53075 0
M  V30 4836 H 452.502 -0.348409 4.72317 0
M  V30 4837 H 452.926 1.47324 6.60776 0
M  V30 4838 H 457.568 -0.18442 4.22398 0
M  V30 4839 H 455.286 2.69771 7.61741 0
M  V30 4840 H 458.872 1.3511 5.65894 0
M  V30 4841 H 457.752 2.77257 7.33552 0
M  V30 4842 N 455.255 -1.55392 -0.262866 0
M  V30 4843 C 456.501 -1.76737 -0.99458 0
M  V30 4844 C 456.834 -0.572453 -1.85571 0
M  V30 4845 O 456.109 0.429732 -1.89693 0
M  V30 4846 C 456.392 -3.07824 -1.8686 0
M  V30 4847 C 456.245 -4.3769 -1.03672 0
M  V30 4848 C 457.564 -3.35021 -2.85393 0
M  V30 4849 H 454.683 -0.643005 -0.360157 0
M  V30 4850 H 457.325 -1.88126 -0.266216 0
M  V30 4851 H 455.475 -2.98245 -2.48962 0
M  V30 4852 H 457.147 -4.59238 -0.43563 0
M  V30 4853 H 455.39 -4.32461 -0.340513 0
M  V30 4854 H 456.061 -5.25759 -1.6817 0
M  V30 4855 H 458.537 -3.44458 -2.33426 0
M  V30 4856 H 457.413 -4.27989 -3.43681 0
M  V30 4857 H 457.674 -2.55153 -3.61039 0
M  V30 4858 N 456.733 0.527833 -1.48498 0
M  V30 4859 C 457.963 1.30633 -1.60058 0
M  V30 4860 C 458.371 1.87394 -0.260786 0
M  V30 4861 O 457.714 1.67227 0.760317 0
M  V30 4862 C 457.776 2.49361 -2.58958 0
M  V30 4863 C 457.44 2.13671 -4.03972 0
M  V30 4864 C 458.437 1.69217 -4.91591 0
M  V30 4865 C 456.122 2.24129 -4.49524 0
M  V30 4866 C 458.116 1.35689 -6.2279 0
M  V30 4867 C 455.803 1.90212 -5.80743 0
M  V30 4868 C 456.801 1.46063 -6.67199 0
M  V30 4869 O 456.489 1.12593 -7.95976 0
M  V30 4870 H 456.221 0.403444 -0.54241 0
M  V30 4871 H 458.775 0.643233 -1.95068 0
M  V30 4872 H 457.005 3.18659 -2.19073 0
M  V30 4873 H 458.694 3.11421 -2.6033 0
M  V30 4874 H 459.46 1.60607 -4.57636 0
M  V30 4875 H 455.339 2.57447 -3.82416 0
M  V30 4876 H 458.883 1.01157 -6.90227 0
M  V30 4877 H 454.78 1.98464 -6.14233 0
M  V30 4878 H 455.548 1.25972 -8.08748 0
M  V30 4879 N 458.211 1.37122 0.776871 0
M  V30 4880 C 459.121 1.34651 1.9211 0
M  V30 4881 C 460.137 0.246824 1.7224 0
M  V30 4882 O 461.313 0.48134 1.95563 0
M  V30 4883 C 458.378 1.14748 3.2716 0
M  V30 4884 C 457.439 2.34308 3.5972 0
M  V30 4885 C 456.672 2.15345 4.88326 0
M  V30 4886 O 456.895 1.13507 5.58992 0
M  V30 4887 O 455.829 3.03414 5.1983 0
M  V30 4888 H 459.655 2.31013 1.97146 0
M  V30 4889 H 457.24 1.17799 0.918901 0
M  V30 4890 H 459.122 1.05616 4.0795 0
M  V30 4891 H 457.797 0.214562 3.22988 0
M  V30 4892 H 456.704 2.49011 2.79185 0
M  V30 4893 H 458.037 3.26149 3.68629 0
M  V30 4894 N 459.689 -1.00246 1.21608 0
M  V30 4895 C 460.966 -1.71336 0.943568 0
M  V30 4896 C 461.346 -2.03972 -0.543943 0
M  V30 4897 O 460.694 -1.71545 -1.50946 0
M  V30 4898 C 460.904 -2.97094 1.83128 0
M  V30 4899 C 462.252 -3.70071 2.08165 0
M  V30 4900 O 463.276 -3.07081 1.80498 0
M  V30 4901 O 462.135 -4.83376 2.54971 0
M  V30 4902 H 459.229 -0.747386 0.354039 0
M  V30 4903 H 461.775 -1.05967 1.32549 0
M  V30 4904 H 460.547 -2.69407 2.83788 0
M  V30 4905 H 460.17 -3.70204 1.45034 0
M  V30 4906 N 461.167 -1.02423 -1.1978 0
M  V30 4907 C 462.413 -0.72878 -1.89896 0
M  V30 4908 C 462.768 0.734248 -1.77839 0
M  V30 4909 O 462.061 1.52733 -1.15685 0
M  V30 4910 C 462.255 -1.1088 -3.39765 0
M  V30 4911 C 462.084 -2.60722 -3.66407 0
M  V30 4912 C 460.854 -3.27623 -3.84696 0
M  V30 4913 C 463.052 -3.58924 -3.68345 0
M  V30 4914 N 461.034 -4.66617 -3.98926 0
M  V30 4915 C 462.405 -4.83514 -3.8809 0
M  V30 4916 C 464.46 -3.52788 -3.51347 0
M  V30 4917 C 463.163 -6.0271 -3.92598 0
M  V30 4918 C 465.189 -4.71394 -3.5713 0
M  V30 4919 C 464.551 -5.94796 -3.77356 0
M  V30 4920 H 460.65 -0.318473 -0.714212 0
M  V30 4921 H 463.234 -1.3106 -1.43984 0
M  V30 4922 H 461.405 -0.555233 -3.84411 0
M  V30 4923 H 463.137 -0.766082 -3.97383 0
M  V30 4924 H 459.892 -2.7804 -3.83393 0
M  V30 4925 H 460.316 -5.38805 -4.099 0
M  V30 4926 H 464.958 -2.58372 -3.3467 0
M  V30 4927 H 462.676 -6.97499 -4.08069 0
M  V30 4928 H 466.262 -4.6827 -3.45275 0
M  V30 4929 H 465.142 -6.85037 -3.81699 0
M  V30 4930 N 462.645 1.35699 -0.801477 0
M  V30 4931 C 463.893 1.9852 -0.37871 0
M  V30 4932 C 464.214 1.63907 1.05638 0
M  V30 4933 O 463.484 0.919013 1.73006 0
M  V30 4934 H 462.064 0.734322 -0.137042 0
M  V30 4935 H 464.726 1.65697 -1.02619 0
M  V30 4936 H 463.822 3.08382 -0.480284 0
M  V30 4937 N 464.123 0.554532 1.47522 0
M  V30 4938 C 465.371 0.0294208 2.02079 0
M  V30 4939 C 465.692 -1.32411 1.43151 0
M  V30 4940 O 464.962 -1.863 0.605728 0
M  V30 4941 H 463.542 0.00788672 0.746958 0
M  V30 4942 H 466.204 0.723934 1.80956 0
M  V30 4943 H 465.3 -0.0606745 3.12041 0
M  V30 4944 N 465.601 -1.54893 0.290851 0
M  V30 4945 C 466.85 -1.99111 -0.322113 0
M  V30 4946 C 467.163 -1.18283 -1.55784 0
M  V30 4947 O 468.369 -1.5272 -2.24475 0
M  V30 4948 C 466.825 -3.54442 -0.624438 0
M  V30 4949 C 466.433 -4.44066 0.592373 0
M  V30 4950 C 468.177 -4.07211 -1.19916 0
M  V30 4951 C 466.084 -5.90812 0.263762 0
M  V30 4952 H 465.014 -0.743712 -0.124133 0
M  V30 4953 H 467.665 -1.79132 0.39797 0
M  V30 4954 H 466.047 -3.70281 -1.40384 0
M  V30 4955 H 467.221 -4.39999 1.36886 0
M  V30 4956 H 465.536 -4.02015 1.08502 0
M  V30 4957 H 468.133 -5.14407 -1.45909 0
M  V30 4958 H 468.476 -3.57196 -2.13815 0
M  V30 4959 H 469.009 -3.94873 -0.481687 0
M  V30 4960 H 465.748 -6.44955 1.17105 0
M  V30 4961 H 465.268 -5.97911 -0.475655 0
M  V30 4962 H 466.947 -6.46852 -0.138354 0
M  V30 4963 N 467.08 -0.0183926 -1.57589 0
M  V30 4964 C 468.326 0.657813 -1.92469 0
M  V30 4965 C 468.681 1.70349 -0.894375 0
M  V30 4966 O 467.974 1.91384 0.0910389 0
M  V30 4967 C 468.168 1.32676 -3.31861 0
M  V30 4968 C 467.997 0.347403 -4.48356 0
M  V30 4969 C 466.767 -0.0488653 -5.05276 0
M  V30 4970 C 468.965 -0.393931 -5.12789 0
M  V30 4971 N 466.947 -1.02451 -6.05291 0
M  V30 4972 C 468.318 -1.22367 -6.07804 0
M  V30 4973 C 470.373 -0.455789 -4.95809 0
M  V30 4974 C 469.076 -2.10966 -6.87667 0
M  V30 4975 C 471.102 -1.32908 -5.76272 0
M  V30 4976 C 470.464 -2.14662 -6.70894 0
M  V30 4977 H 466.563 0.21335 -0.752334 0
M  V30 4978 H 469.147 -0.0830547 -1.94523 0
M  V30 4979 H 467.318 2.03782 -3.30647 0
M  V30 4980 H 469.05 1.95913 -3.54119 0
M  V30 4981 H 465.805 0.323356 -4.72495 0
M  V30 4982 H 466.229 -1.50826 -6.59985 0
M  V30 4983 H 470.871 0.162017 -4.22489 0
M  V30 4984 H 468.589 -2.73807 -7.603 0
M  V30 4985 H 472.175 -1.38109 -5.6517 0
M  V30 4986 H 471.055 -2.81143 -7.32071 0
M  V30 4987 N 468.558 1.5553 0.254621 0
M  V30 4988 C 469.807 1.76202 0.981612 0
M  V30 4989 C 470.12 0.580883 1.86776 0
M  V30 4990 O 471.326 0.670448 2.63092 0
M  V30 4991 C 469.782 3.11921 1.79537 0
M  V30 4992 C 469.39 4.37659 0.956991 0
M  V30 4993 C 471.134 3.41936 2.51555 0
M  V30 4994 C 469.041 5.64411 1.76619 0
M  V30 4995 H 467.971 0.656841 0.370237 0
M  V30 4996 H 470.622 1.81969 0.236556 0
M  V30 4997 H 469.004 3.00241 2.58208 0
M  V30 4998 H 470.178 4.60307 0.21315 0
M  V30 4999 H 468.493 4.14922 0.350497 0
M  V30 5000 H 471.09 4.33849 3.12536 0
M  V30 5001 H 471.433 2.62905 3.22779 0
M  V30 5002 H 471.966 3.54797 1.799 0
M  V30 5003 H 468.705 6.46241 1.09783 0
M  V30 5004 H 468.225 5.45877 2.48551 0
M  V30 5005 H 469.904 6.03386 2.33527 0
M  V30 5006 N 470.036 -0.519951 1.48776 0
M  V30 5007 C 471.284 -1.2727 1.56993 0
M  V30 5008 C 471.605 -1.9339 0.25004 0
M  V30 5009 O 470.875 -1.81822 -0.729216 0
M  V30 5010 H 469.455 -0.472732 0.578389 0
M  V30 5011 H 472.117 -0.604234 1.85297 0
M  V30 5012 H 471.213 -2.04669 2.3562 0
M  V30 5013 N 471.514 -1.37532 -0.769588 0
M  V30 5014 C 472.93 -1.18379 -1.07045 0
M  V30 5015 C 473.13 -0.0214312 -2.01489 0
M  V30 5016 O 472.186 0.637809 -2.44312 0
M  V30 5017 C 473.499 -2.50338 -1.66588 0
M  V30 5018 C 475.047 -2.56879 -1.78835 0
M  V30 5019 C 475.522 -3.88974 -2.41792 0
M  V30 5020 N 477.013 -3.90428 -2.4924 0
M  V30 5021 C 477.748 -4.89388 -2.98809 0
M  V30 5022 N 477.244 -5.98745 -3.48535 0
M  V30 5023 N 479.037 -4.76791 -2.97703 0
M  V30 5024 H 471.188 -2.11921 -0.142541 0
M  V30 5025 H 473.451 -0.939608 -0.125863 0
M  V30 5026 H 473.157 -3.35767 -1.0466 0
M  V30 5027 H 473.031 -2.67583 -2.65856 0
M  V30 5028 H 475.418 -1.71856 -2.39895 0
M  V30 5029 H 475.499 -2.43516 -0.783166 0
M  V30 5030 H 475.143 -4.74412 -1.81371 0
M  V30 5031 H 475.073 -3.99641 -3.4292 0
M  V30 5032 H 477.564 -3.11433 -2.14052 0
M  V30 5033 H 477.877 -6.70205 -3.84767 0
M  V30 5034 H 476.222 -6.02387 -3.46634 0
M  V30 5035 H 479.413 -3.90478 -2.58157 0
M  V30 5036 H 479.586 -5.54069 -3.36024 0
M  V30 5037 N 472.992 0.995999 -1.22138 0
M  V30 5038 C 473.922 2.10387 -1.01289 0
M  V30 5039 C 474.903 1.69975 0.0651454 0
M  V30 5040 O 476.088 1.9396 -0.0964628 0
M  V30 5041 C 473.218 3.42312 -0.586517 0
M  V30 5042 C 472.172 3.96558 -1.61014 0
M  V30 5043 C 471.498 5.24494 -1.0397 0
M  V30 5044 C 472.798 4.27595 -2.99933 0
M  V30 5045 H 474.492 2.28086 -1.93951 0
M  V30 5046 H 472.038 1.09607 -0.933928 0
M  V30 5047 H 473.991 4.19223 -0.427793 0
M  V30 5048 H 472.715 3.24431 0.375761 0
M  V30 5049 H 471.374 3.21776 -1.75658 0
M  V30 5050 H 471.022 5.02953 -0.0688703 0
M  V30 5051 H 470.722 5.61755 -1.72352 0
M  V30 5052 H 472.246 6.04042 -0.892494 0
M  V30 5053 H 473.66 4.95315 -2.8868 0
M  V30 5054 H 472.057 4.76021 -3.6541 0
M  V30 5055 H 473.127 3.35498 -3.50099 0
M  V30 5056 N 474.47 1.03057 1.19235 0
M  V30 5057 C 475.718 0.726581 1.88587 0
M  V30 5058 C 476.039 -0.747227 1.80115 0
M  V30 5059 O 475.309 -1.53849 1.21274 0
M  V30 5060 H 473.889 0.265768 0.698124 0
M  V30 5061 H 476.551 1.30516 1.44746 0
M  V30 5062 H 475.647 1.0224 2.94879 0
M  V30 5063 N 475.948 -1.35272 0.808662 0
M  V30 5064 C 476.895 -2.29764 0.218482 0
M  V30 5065 C 477.865 -1.52911 -0.648652 0
M  V30 5066 O 479.05 -1.81341 -0.593297 0
M  V30 5067 C 476.19 -3.39388 -0.625282 0
M  V30 5068 C 475.303 -4.31202 0.262516 0
M  V30 5069 C 474.438 -5.27919 -0.589451 0
M  V30 5070 C 473.477 -6.11371 0.298617 0
M  V30 5071 N 472.614 -7.0022 -0.513443 0
M  V30 5072 H 477.454 -2.79645 1.02968 0
M  V30 5073 H 474.991 -1.37629 0.519303 0
M  V30 5074 H 476.949 -4.01615 -1.12966 0
M  V30 5075 H 475.579 -2.90777 -1.40173 0
M  V30 5076 H 474.631 -3.69962 0.885013 0
M  V30 5077 H 475.943 -4.89748 0.945971 0
M  V30 5078 H 475.097 -5.95529 -1.15888 0
M  V30 5079 H 473.836 -4.69875 -1.30647 0
M  V30 5080 H 472.841 -5.42707 0.880301 0
M  V30 5081 H 474.066 -6.71494 1.01352 0
M  V30 5082 H 472.012 -6.44662 -1.21439 0
M  V30 5083 H 471.929 -7.55917 0.111922 0
M  V30 5084 H 473.197 -7.72175 -1.06608 0
M  V30 5085 N 477.426 -0.562348 -1.47226 0
M  V30 5086 C 478.656 -0.0451619 -2.06551 0
M  V30 5087 C 479.064 1.25626 -1.41473 0
M  V30 5088 O 478.407 1.76563 -0.507061 0
M  V30 5089 C 478.469 0.216068 -3.5885 0
M  V30 5090 C 478.133 -0.996691 -4.45999 0
M  V30 5091 C 479.13 -1.90358 -4.83797 0
M  V30 5092 C 476.815 -1.21281 -4.87438 0
M  V30 5093 C 478.809 -3.01023 -5.6184 0
M  V30 5094 C 476.496 -2.32255 -5.65244 0
M  V30 5095 C 477.494 -3.21956 -6.02356 0
M  V30 5096 O 477.182 -4.31005 -6.78594 0
M  V30 5097 H 476.914 -0.0451646 -0.67449 0
M  V30 5098 H 479.468 -0.776842 -1.90143 0
M  V30 5099 H 477.698 1.00212 -3.7349 0
M  V30 5100 H 479.387 0.679264 -4.00176 0
M  V30 5101 H 480.153 -1.74868 -4.52378 0
M  V30 5102 H 476.032 -0.523767 -4.58015 0
M  V30 5103 H 479.576 -3.71064 -5.90726 0
M  V30 5104 H 475.473 -2.47715 -5.96077 0
M  V30 5105 H 476.241 -4.29118 -6.96994 0
M  V30 5106 N 478.904 1.54736 -0.299062 0
M  V30 5107 C 480.152 1.99706 0.31017 0
M  V30 5108 C 480.473 1.18896 1.54559 0
M  V30 5109 O 479.743 0.284445 1.93824 0
M  V30 5110 H 478.323 0.737686 0.117596 0
M  V30 5111 H 480.985 1.9054 -0.409943 0
M  V30 5112 H 480.081 3.06596 0.58355 0
M  V30 5113 N 480.382 0.0267497 1.57577 0
M  V30 5114 C 481.628 -0.653371 1.91987 0
M  V30 5115 C 481.961 -1.71915 0.903263 0
M  V30 5116 O 481.236 -1.94358 -0.0743387 0
M  V30 5117 C 481.519 -1.272 3.36886 0
M  V30 5118 C 481.372 -0.215938 4.49281 0
M  V30 5119 C 482.691 -2.19069 3.81703 0
M  V30 5120 H 479.81 -0.236047 0.698177 0
M  V30 5121 H 482.452 0.0835236 1.89816 0
M  V30 5122 H 480.602 -1.90005 3.38866 0
M  V30 5123 H 482.274 0.41449 4.59434 0
M  V30 5124 H 480.517 0.458855 4.31366 0
M  V30 5125 H 481.188 -0.688347 5.47691 0
M  V30 5126 H 483.664 -1.66253 3.81444 0
M  V30 5127 H 482.54 -2.59307 4.83788 0
M  V30 5128 H 482.801 -3.08087 3.17072 0
M  V30 5129 N 481.861 -1.55662 -0.24637 0
M  V30 5130 C 482.771 -1.93495 -1.32653 0
M  V30 5131 C 483.787 -0.835462 -1.5263 0
M  V30 5132 O 484.963 -1.1369 -1.66242 0
M  V30 5133 C 482.028 -2.22242 -2.66101 0
M  V30 5134 C 481.089 -3.45625 -2.54641 0
M  V30 5135 C 480.322 -3.72991 -3.81724 0
M  V30 5136 O 480.545 -3.02421 -4.8363 0
M  V30 5137 O 479.479 -4.66515 -3.80325 0
M  V30 5138 H 483.305 -2.85498 -1.03559 0
M  V30 5139 H 480.89 -1.42551 -0.44717 0
M  V30 5140 H 482.772 -2.42037 -3.44958 0
M  V30 5141 H 481.447 -1.33417 -2.94926 0
M  V30 5142 H 480.354 -3.31136 -1.74067 0
M  V30 5143 H 481.687 -4.34754 -2.3076 0
M  V30 5144 N 483.339 0.512053 -1.4905 0
M  V30 5145 C 484.564 1.2959 -1.6193 0
M  V30 5146 C 484.989 1.85906 -0.286454 0
M  V30 5147 O 484.347 1.65312 0.744426 0
M  V30 5148 C 484.395 2.40987 -2.68249 0
M  V30 5149 O 483.499 3.44531 -2.26654 0
M  V30 5150 H 482.84 0.383053 -0.542371 0
M  V30 5151 H 485.37 0.614231 -1.95162 0
M  V30 5152 H 485.38 2.86913 -2.90078 0
M  V30 5153 H 484.055 1.99361 -3.65004 0
M  V30 5154 H 482.632 3.046 -2.15112 0
M  V30 5155 N 484.817 1.37938 0.762283 0
M  V30 5156 C 486.228 1.30094 1.33912 0
M  V30 5157 C 486.579 -0.0472026 1.96143 0
M  V30 5158 O 485.704 -0.94917 1.94473 0
M  V30 5159 C 486.299 2.35592 2.43478 0
M  V30 5160 C 484.858 2.31353 2.96905 0
M  V30 5161 C 484.005 2.18919 1.70205 0
M  V30 5162 H 486.956 1.48423 0.561816 0
M  V30 5163 H 486.977 2.00806 3.23199 0
M  V30 5164 H 486.489 3.33701 1.98155 0
M  V30 5165 H 484.59 1.36799 3.46579 0
M  V30 5166 H 484.703 3.25147 3.51875 0
M  V30 5167 H 483.067 1.65624 1.93496 0
M  V30 5168 H 483.85 3.18956 1.26973 0
M  V30 5169 N 486.295 -0.989507 1.22664 0
M  V30 5170 C 487.711 -1.25395 0.987331 0
M  V30 5171 C 487.911 -1.9899 -0.317056 0
M  V30 5172 O 486.967 -2.30141 -1.03882 0
M  V30 5173 C 488.28 -2.06242 2.18826 0
M  V30 5174 C 489.828 -2.19413 2.23219 0
M  V30 5175 C 490.303 -3.03648 3.42873 0
M  V30 5176 N 491.794 -3.11234 3.43056 0
M  V30 5177 C 492.529 -3.7671 4.32293 0
M  V30 5178 N 492.025 -4.44085 5.31752 0
M  V30 5179 N 493.818 -3.73505 4.2006 0
M  V30 5180 H 485.969 -0.496212 2.06522 0
M  V30 5181 H 488.232 -0.281784 0.905153 0
M  V30 5182 H 487.938 -1.59531 3.13437 0
M  V30 5183 H 487.812 -3.06996 2.19165 0
M  V30 5184 H 490.199 -2.65336 1.29154 0
M  V30 5185 H 490.28 -1.18078 2.26917 0
M  V30 5186 H 489.924 -2.58424 4.37241 0
M  V30 5187 H 489.854 -4.05132 3.36416 0
M  V30 5188 H 492.345 -2.63287 2.71088 0
M  V30 5189 H 492.658 -4.91797 5.96117 0
M  V30 5190 H 491.003 -4.42822 5.35662 0
M  V30 5191 H 494.194 -3.20033 3.41609 0
M  V30 5192 H 494.367 -4.24253 4.8981 0
M  V30 5193 N 487.773 -1.03688 -1.18687 0
M  V30 5194 C 488.998 -0.757819 -1.93059 0
M  V30 5195 C 489.423 0.678353 -1.75442 0
M  V30 5196 O 488.781 1.46938 -1.06203 0
M  V30 5197 C 488.829 -1.12423 -3.42627 0
M  V30 5198 O 487.933 -0.247505 -4.11657 0
M  V30 5199 H 487.274 -0.279245 -0.602427 0
M  V30 5200 H 489.804 -1.3857 -1.5053 0
M  V30 5201 H 489.814 -1.08454 -3.93322 0
M  V30 5202 H 488.489 -2.17049 -3.54771 0
M  V30 5203 H 487.066 -0.34649 -3.71287 0
M  V30 5204 N 489.251 1.34841 -0.815825 0
M  V30 5205 C 490.181 2.32187 -0.247298 0
M  V30 5206 C 491.162 1.5791 0.632344 0
M  V30 5207 O 492.347 1.8593 0.560698 0
M  V30 5208 C 489.477 3.42122 0.597466 0
M  V30 5209 C 488.431 4.27602 -0.184446 0
M  V30 5210 C 487.757 5.28942 0.782609 0
M  V30 5211 C 489.057 5.03502 -1.38865 0
M  V30 5212 H 490.751 2.79985 -1.06061 0
M  V30 5213 H 488.297 1.34611 -0.511461 0
M  V30 5214 H 490.25 4.09232 1.00533 0
M  V30 5215 H 488.974 2.92956 1.44376 0
M  V30 5216 H 487.633 3.62085 -0.573592 0
M  V30 5217 H 487.281 4.7604 1.62466 0
M  V30 5218 H 486.981 5.87008 0.263695 0
M  V30 5219 H 488.505 5.98922 1.18848 0
M  V30 5220 H 489.919 5.63506 -1.05518 0
M  V30 5221 H 488.316 5.71108 -1.8427 0
M  V30 5222 H 489.386 4.33608 -2.17054 0
M  V30 5223 N 490.729 0.570148 1.46925 0
M  V30 5224 C 491.676 -0.170257 2.30171 0
M  V30 5225 C 492.646 -0.896099 1.39855 0
M  V30 5226 O 493.831 -0.889248 1.68811 0
M  V30 5227 C 490.971 -1.18605 3.24079 0
M  V30 5228 C 490.084 -0.464947 4.29491 0
M  V30 5229 C 489.219 -1.46716 5.10537 0
M  V30 5230 C 488.258 -0.731758 6.0771 0
M  V30 5231 N 487.395 -1.68142 6.81669 0
M  V30 5232 H 492.235 0.545713 2.92961 0
M  V30 5233 H 489.772 0.280938 1.44392 0
M  V30 5234 H 491.73 -1.78771 3.76957 0
M  V30 5235 H 490.36 -1.86989 2.63125 0
M  V30 5236 H 489.412 0.251506 3.79568 0
M  V30 5237 H 490.724 0.110548 4.98677 0
M  V30 5238 H 489.878 -2.14199 5.6763 0
M  V30 5239 H 488.617 -2.07658 4.41282 0
M  V30 5240 H 487.622 -0.0430787 5.49783 0
M  V30 5241 H 488.847 -0.127904 6.7898 0
M  V30 5242 H 486.793 -2.27918 6.15134 0
M  V30 5243 H 486.71 -1.15841 7.47072 0
M  V30 5244 H 487.978 -2.347 7.43328 0
M  V30 5245 N 492.207 -1.54576 0.307264 0
M  V30 5246 C 493.484 -1.92377 -0.353605 0
M  V30 5247 C 493.864 -1.23517 -1.71192 0
M  V30 5248 O 493.212 -0.373101 -2.25433 0
M  V30 5249 C 493.422 -3.45928 -0.462039 0
M  V30 5250 C 494.77 -4.18278 -0.729975 0
M  V30 5251 O 495.794 -3.51997 -0.545605 0
M  V30 5252 O 494.653 -5.3563 -1.08454 0
M  V30 5253 H 491.747 -0.802747 -0.198812 0
M  V30 5254 H 494.293 -1.65929 0.355783 0
M  V30 5255 H 493.065 -3.88187 0.492592 0
M  V30 5256 H 492.688 -3.78431 -1.21965 0
M  V30 5257 N 493.685 -0.035106 -1.57561 0
M  V30 5258 C 494.648 0.929819 -2.09492 0
M  V30 5259 C 495.648 1.25026 -1.01119 0
M  V30 5260 O 496.838 1.18961 -1.27255 0
M  V30 5261 C 493.97 2.24457 -2.56577 0
M  V30 5262 H 495.163 0.479935 -2.96035 0
M  V30 5263 H 492.716 0.213033 -1.54841 0
M  V30 5264 H 493.451 2.74061 -1.73382 0
M  V30 5265 H 493.236 2.02508 -3.35757 0
M  V30 5266 H 494.726 2.93607 -2.96959 0
M  V30 5267 N 495.163 1.55791 0.238111 0
M  V30 5268 C 496.11 1.9105 1.29493 0
M  V30 5269 C 497.08 0.765733 1.47397 0
M  V30 5270 O 498.265 1.02017 1.61236 0
M  V30 5271 C 495.405 2.21826 2.64362 0
M  V30 5272 C 494.518 3.49153 2.54394 0
M  V30 5273 C 493.653 3.69455 3.81676 0
M  V30 5274 C 492.692 4.90353 3.66361 0
M  V30 5275 N 491.829 5.07131 4.85554 0
M  V30 5276 H 496.669 2.81172 0.987233 0
M  V30 5277 H 494.206 1.39179 0.476203 0
M  V30 5278 H 496.164 2.37675 3.4288 0
M  V30 5279 H 494.794 1.34897 2.93262 0
M  V30 5280 H 493.846 3.41587 1.67399 0
M  V30 5281 H 495.158 4.37818 2.38991 0
M  V30 5282 H 494.312 3.85311 4.68636 0
M  V30 5283 H 493.051 2.7904 3.99985 0
M  V30 5284 H 492.056 4.74464 2.77784 0
M  V30 5285 H 493.281 5.82237 3.49538 0
M  V30 5286 H 491.227 4.19654 5.04209 0
M  V30 5287 H 491.144 5.89899 4.72816 0
M  V30 5288 H 492.412 5.27407 5.73988 0
M  V30 5289 N 496.642 -0.504142 1.49319 0
M  V30 5290 C 497.574 -1.62265 1.61872 0
M  V30 5291 C 498.587 -1.54881 0.501573 0
M  V30 5292 O 499.776 -1.6087 0.773497 0
M  V30 5293 C 496.876 -3.01042 1.55651 0
M  V30 5294 C 496.049 -3.33642 2.82845 0
M  V30 5295 C 495.108 -4.51816 2.69719 0
M  V30 5296 O 494.134 -4.53755 3.4365 0
M  V30 5297 N 495.336 -5.51543 1.81055 0
M  V30 5298 H 498.101 -1.51924 2.58339 0
M  V30 5299 H 495.662 -0.691954 1.46368 0
M  V30 5300 H 497.654 -3.78013 1.44528 0
M  V30 5301 H 496.224 -3.05323 0.670546 0
M  V30 5302 H 495.444 -2.45598 3.08343 0
M  V30 5303 H 496.732 -3.5222 3.67177 0
M  V30 5304 H 496.13 -5.52774 1.20241 0
M  V30 5305 H 494.687 -6.27629 1.75856 0
M  V30 5306 N 498.12 -1.38341 -0.754957 0
M  V30 5307 C 499.397 -1.24995 -1.50451 0
M  V30 5308 C 499.777 0.149244 -2.10572 0
M  V30 5309 O 499.125 1.15861 -1.96948 0
M  V30 5310 C 499.335 -2.35904 -2.57197 0
M  V30 5311 C 500.683 -2.74262 -3.24138 0
M  V30 5312 O 501.707 -2.35205 -2.67501 0
M  V30 5313 O 500.566 -3.4161 -4.26574 0
M  V30 5314 H 497.66 -0.48872 -0.667144 0
M  V30 5315 H 500.206 -1.50165 -0.790486 0
M  V30 5316 H 498.978 -3.2953 -2.11011 0
M  V30 5317 H 498.601 -2.12291 -3.36182 0
M  V30 5318 N 499.598 0.982988 -1.23187 0
M  V30 5319 C 500.561 2.05649 -1.01198 0
M  V30 5320 C 501.561 1.6078 0.0252464 0
M  V30 5321 O 502.751 1.72878 -0.214243 0
M  V30 5322 C 499.883 3.36744 -0.530656 0
M  V30 5323 H 501.076 2.2659 -1.96461 0
M  V30 5324 H 498.629 1.15602 -1.05195 0
M  V30 5325 H 499.364 3.21492 0.425873 0
M  V30 5326 H 499.149 3.7065 -1.2791 0
M  V30 5327 H 500.639 4.15705 -0.397366 0
M  V30 5328 N 501.076 1.04316 1.18135 0
M  V30 5329 C 502.306 0.767003 1.91835 0
M  V30 5330 C 502.714 -0.68002 1.76557 0
M  V30 5331 O 502.057 -1.47548 1.09432 0
M  V30 5332 C 502.119 1.05674 3.43618 0
M  V30 5333 C 501.783 2.49818 3.82675 0
M  V30 5334 C 502.78 3.48003 3.86251 0
M  V30 5335 C 500.465 2.84596 4.13897 0
M  V30 5336 C 502.459 4.79016 4.20503 0
M  V30 5337 C 500.146 4.15813 4.4782 0
M  V30 5338 C 501.144 5.12834 4.51099 0
M  V30 5339 O 500.832 6.41699 4.84229 0
M  V30 5340 H 500.564 0.278948 0.615763 0
M  V30 5341 H 503.118 1.3946 1.50798 0
M  V30 5342 H 501.348 0.372029 3.84906 0
M  V30 5343 H 503.037 0.767994 3.98568 0
M  V30 5344 H 503.803 3.22475 3.62264 0
M  V30 5345 H 499.682 2.09748 4.1052 0
M  V30 5346 H 503.226 5.54739 4.22978 0
M  V30 5347 H 499.123 4.41109 4.71268 0
M  V30 5348 H 499.891 6.46387 5.02121 0
M  V30 5349 N 502.554 -1.34406 0.822964 0
M  V30 5350 C 503.8 -1.98999 0.420847 0
M  V30 5351 C 504.155 -1.64067 -1.00498 0
M  V30 5352 O 503.448 -0.902071 -1.69036 0
M  V30 5353 C 503.642 -3.52981 0.560268 0
M  V30 5354 C 503.471 -4.02873 1.99809 0
M  V30 5355 C 502.241 -4.31463 2.62998 0
M  V30 5356 C 504.439 -4.20241 2.96483 0
M  V30 5357 N 502.421 -4.6739 3.9802 0
M  V30 5358 C 503.792 -4.59348 4.16413 0
M  V30 5359 C 505.847 -4.02489 2.93098 0
M  V30 5360 C 504.55 -4.82559 5.33413 0
M  V30 5361 C 506.576 -4.26866 4.09315 0
M  V30 5362 C 505.938 -4.6626 5.27997 0
M  V30 5363 H 502.037 -0.755432 0.202104 0
M  V30 5364 H 504.621 -1.62815 1.06767 0
M  V30 5365 H 502.792 -3.88359 -0.0566596 0
M  V30 5366 H 504.524 -4.04487 0.131146 0
M  V30 5367 H 501.279 -4.22373 2.14238 0
M  V30 5368 H 501.703 -4.89588 4.67582 0
M  V30 5369 H 506.345 -3.71161 2.02483 0
M  V30 5370 H 504.063 -5.12754 6.24587 0
M  V30 5371 H 507.649 -4.14667 4.08096 0
M  V30 5372 H 506.529 -4.84752 6.16429 0
M  V30 5373 N 504.032 -0.577932 -1.46621 0
M  V30 5374 C 504.995 0.147805 -2.28723 0
M  V30 5375 C 505.995 0.823325 -1.38123 0
M  V30 5376 O 507.185 0.676011 -1.60548 0
M  V30 5377 C 504.317 1.21853 -3.18378 0
M  V30 5378 H 505.51 -0.573654 -2.94362 0
M  V30 5379 H 503.063 -0.335703 -1.52652 0
M  V30 5380 H 503.798 1.97173 -2.57475 0
M  V30 5381 H 503.583 0.738714 -3.85078 0
M  V30 5382 H 505.073 1.72768 -3.80186 0
M  V30 5383 N 505.51 1.54411 -0.315457 0
M  V30 5384 C 506.46 2.20772 0.569549 0
M  V30 5385 C 507.444 1.18551 1.08787 0
M  V30 5386 O 508.636 1.44213 1.02624 0
M  V30 5387 C 505.765 2.96293 1.73394 0
M  V30 5388 C 504.851 4.05844 1.2309 0
M  V30 5389 N 505.242 5.03822 0.446927 0
M  V30 5390 C 503.54 4.19648 1.51035 0
M  V30 5391 C 504.241 5.8143 0.17725 0
M  V30 5392 N 503.217 5.38245 0.761118 0
M  V30 5393 H 507.019 2.93877 -0.0368076 0
M  V30 5394 H 504.533 1.61949 -0.120915 0
M  V30 5395 H 506.53 3.42313 2.37965 0
M  V30 5396 H 505.19 2.24708 2.34386 0
M  V30 5397 H 506.201 5.17821 0.0905027 0
M  V30 5398 H 502.878 3.59274 2.1267 0
M  V30 5399 H 504.268 6.70369 -0.45335 0
M  V30 5400 N 506.988 0.0434614 1.5754 0
M  V30 5401 C 507.938 -0.943039 2.07583 0
M  V30 5402 C 508.922 -1.27662 0.979342 0
M  V30 5403 O 510.114 -1.26034 1.24276 0
M  V30 5404 C 507.243 -2.22056 2.61813 0
M  V30 5405 C 506.329 -1.91471 3.78417 0
M  V30 5406 N 506.72 -1.31214 4.88484 0
M  V30 5407 C 505.018 -2.21384 3.87176 0
M  V30 5408 C 505.719 -1.18084 5.69588 0
M  V30 5409 N 504.695 -1.68116 5.16951 0
M  V30 5410 H 508.497 -0.472354 2.90079 0
M  V30 5411 H 506.011 -0.161191 1.61598 0
M  V30 5412 H 508.008 -2.93618 2.95963 0
M  V30 5413 H 506.668 -2.69738 1.80752 0
M  V30 5414 H 507.679 -0.985318 5.08441 0
M  V30 5415 H 504.356 -2.7164 3.17046 0
M  V30 5416 H 505.746 -0.713684 6.68099 0
M  V30 5417 N 508.466 -1.55915 -0.229846 0
M  V30 5418 C 509.743 -1.6932 -0.979295 0
M  V30 5419 C 510.123 -0.588321 -2.02736 0
M  V30 5420 O 509.471 0.40586 -2.24867 0
M  V30 5421 C 509.681 -3.10305 -1.59724 0
M  V30 5422 C 511.029 -3.6945 -2.09264 0
M  V30 5423 O 512.053 -3.13214 -1.69633 0
M  V30 5424 O 510.912 -4.68072 -2.82082 0
M  V30 5425 H 508.006 -0.689314 -0.456919 0
M  V30 5426 H 510.552 -1.68238 -0.222283 0
M  V30 5427 H 509.324 -3.82177 -0.840039 0
M  V30 5428 H 508.947 -3.1547 -2.42001 0
M  V30 5429 N 509.944 0.496216 -1.49584 0
M  V30 5430 C 510.874 1.60576 -1.69521 0
M  V30 5431 C 511.855 1.61169 -0.543933 0
M  V30 5432 O 513.04 1.77834 -0.78031 0
M  V30 5433 C 510.17 2.99038 -1.76616 0
M  V30 5434 C 509.124 3.13312 -2.91581 0
M  V30 5435 C 508.45 4.53172 -2.83794 0
M  V30 5436 C 509.75 2.92886 -4.32452 0
M  V30 5437 H 511.444 1.44146 -2.62416 0
M  V30 5438 H 508.99 0.692024 -1.26282 0
M  V30 5439 H 510.943 3.76564 -1.8915 0
M  V30 5440 H 509.667 3.16568 -0.80324 0
M  V30 5441 H 508.326 2.38213 -2.78658 0
M  V30 5442 H 507.974 4.67585 -1.854 0
M  V30 5443 H 507.674 4.63662 -3.60958 0
M  V30 5444 H 509.198 5.32752 -2.98342 0
M  V30 5445 H 510.612 3.60178 -4.46032 0
M  V30 5446 H 509.009 3.14844 -5.10875 0
M  V30 5447 H 510.079 1.88966 -4.46565 0
M  V30 5448 N 511.423 1.38739 0.74761 0
M  V30 5449 C 512.653 1.3832 1.53464 0
M  V30 5450 C 513.061 -0.0273464 1.8918 0
M  V30 5451 O 512.404 -1.00588 1.53713 0
M  V30 5452 C 512.466 2.18007 2.85855 0
M  V30 5453 C 512.13 3.66762 2.72644 0
M  V30 5454 C 513.127 4.60124 2.42037 0
M  V30 5455 C 510.812 4.10193 2.89909 0
M  V30 5456 C 512.806 5.94897 2.28859 0
M  V30 5457 C 510.493 5.45045 2.7635 0
M  V30 5458 C 511.491 6.37211 2.45869 0
M  V30 5459 O 511.179 7.69581 2.3238 0
M  V30 5460 H 510.911 0.474718 0.481268 0
M  V30 5461 H 513.465 1.83012 0.932518 0
M  V30 5462 H 511.695 1.68043 3.48279 0
M  V30 5463 H 513.384 2.09921 3.47402 0
M  V30 5464 H 514.15 4.27874 2.28361 0
M  V30 5465 H 510.029 3.38797 3.1263 0
M  V30 5466 H 513.573 6.66802 2.04989 0
M  V30 5467 H 509.47 5.76889 2.89601 0
M  V30 5468 H 510.238 7.80169 2.47546 0
M  V30 5469 N 512.901 -0.976442 1.23707 0
M  V30 5470 C 513.831 -2.08749 1.04624 0
M  V30 5471 C 514.812 -1.70057 -0.0380956 0
M  V30 5472 O 515.997 -1.93782 0.127308 0
M  V30 5473 C 513.127 -3.41335 0.640902 0
M  V30 5474 C 512.081 -3.93947 1.67302 0
M  V30 5475 C 511.407 -5.22774 1.12301 0
M  V30 5476 C 512.707 -4.22769 3.06697 0
M  V30 5477 H 514.401 -2.24972 1.97555 0
M  V30 5478 H 511.947 -1.08108 0.951247 0
M  V30 5479 H 513.9 -4.18489 0.494434 0
M  V30 5480 H 512.624 -3.24988 -0.324099 0
M  V30 5481 H 511.283 -3.18941 1.80755 0
M  V30 5482 H 510.931 -5.0278 0.148877 0
M  V30 5483 H 510.631 -5.58942 1.81267 0
M  V30 5484 H 512.155 -6.02546 0.988479 0
M  V30 5485 H 513.569 -4.90659 2.96524 0
M  V30 5486 H 511.966 -4.70147 3.72937 0
M  V30 5487 H 513.036 -3.29885 3.55392 0
M  V30 5488 N 514.379 -1.04941 -1.1758 0
M  V30 5489 C 515.309 -0.669172 -2.23706 0
M  V30 5490 C 516.29 0.331835 -1.66832 0
M  V30 5491 O 517.475 0.209988 -1.93061 0
M  V30 5492 C 514.605 -0.0404889 -3.47276 0
M  V30 5493 C 513.559 -0.965983 -4.16957 0
M  V30 5494 C 512.885 -0.201312 -5.34321 0
M  V30 5495 C 514.185 -2.28902 -4.69469 0
M  V30 5496 H 515.879 -1.55639 -2.55767 0
M  V30 5497 H 513.425 -0.749793 -1.22939 0
M  V30 5498 H 515.378 0.237298 -4.20731 0
M  V30 5499 H 514.102 0.881658 -3.14475 0
M  V30 5500 H 512.761 -1.22829 -3.45411 0
M  V30 5501 H 512.409 0.723519 -4.97769 0
M  V30 5502 H 512.109 -0.817968 -5.81879 0
M  V30 5503 H 513.633 0.0692499 -6.10561 0
M  V30 5504 H 515.047 -2.07132 -5.34574 0
M  V30 5505 H 513.444 -2.85942 -5.27596 0
M  V30 5506 H 514.514 -2.92937 -3.86414 0
M  V30 5507 N 515.857 1.33968 -0.830081 0
M  V30 5508 C 516.82 2.27694 -0.26235 0
M  V30 5509 C 517.82 1.50589 0.563876 0
M  V30 5510 O 519.01 1.70028 0.378941 0
M  V30 5511 C 516.142 3.35002 0.63138 0
M  V30 5512 H 517.335 2.79419 -1.08928 0
M  V30 5513 H 514.888 1.44221 -0.602486 0
M  V30 5514 H 515.623 2.88504 1.48109 0
M  V30 5515 H 515.408 3.92079 0.0403276 0
M  V30 5516 H 516.898 4.04897 1.02217 0
M  V30 5517 N 517.335 0.585699 1.46312 0
M  V30 5518 C 518.565 0.0780166 2.06453 0
M  V30 5519 C 518.973 -1.2336 1.43454 0
M  V30 5520 O 518.316 -1.75734 0.535086 0
M  V30 5521 C 518.378 -0.158951 3.59148 0
M  V30 5522 C 518.042 1.06752 4.44357 0
M  V30 5523 C 519.039 1.98031 4.80708 0
M  V30 5524 C 516.724 1.2902 4.85447 0
M  V30 5525 C 518.718 3.09924 5.5698 0
M  V30 5526 C 516.405 2.41218 5.61478 0
M  V30 5527 C 517.403 3.31499 5.97158 0
M  V30 5528 O 517.091 4.41747 6.71651 0
M  V30 5529 H 516.823 0.0558894 0.673686 0
M  V30 5530 H 519.377 0.806994 1.88883 0
M  V30 5531 H 517.607 -0.942575 3.75037 0
M  V30 5532 H 519.296 -0.615513 4.01206 0
M  V30 5533 H 520.062 1.82043 4.49539 0
M  V30 5534 H 515.941 0.596567 4.57124 0
M  V30 5535 H 519.485 3.80415 5.84748 0
M  V30 5536 H 515.382 2.57167 5.9206 0
M  V30 5537 H 516.15 4.40152 6.90079 0
M  V30 5538 N 518.813 -1.54241 0.323641 0
M  V30 5539 C 519.776 -2.22997 -0.529602 0
M  V30 5540 C 520.776 -1.22345 -1.04347 0
M  V30 5541 O 521.966 -1.46924 -0.935889 0
M  V30 5542 C 519.098 -2.93409 -1.73562 0
M  V30 5543 H 520.291 -2.99815 0.0714518 0
M  V30 5544 H 517.844 -1.56121 0.0747258 0
M  V30 5545 H 518.579 -2.20729 -2.37591 0
M  V30 5546 H 518.364 -3.67217 -1.37456 0
M  V30 5547 H 519.854 -3.45794 -2.34128 0
M  V30 5548 N 520.291 -0.0518155 -1.57515 0
M  V30 5549 C 521.221 0.920283 -2.146 0
M  V30 5550 C 522.202 1.32406 -1.06783 0
M  V30 5551 O 523.387 1.39866 -1.34726 0
M  V30 5552 C 520.517 2.1949 -2.6915 0
M  V30 5553 C 519.471 1.93116 -3.81956 0
M  V30 5554 C 518.797 3.27037 -4.23026 0
M  V30 5555 C 520.097 1.25225 -5.07066 0
M  V30 5556 H 521.791 0.444801 -2.96077 0
M  V30 5557 H 519.337 0.212508 -1.42423 0
M  V30 5558 H 521.29 2.87894 -3.07725 0
M  V30 5559 H 520.014 2.69244 -1.84865 0
M  V30 5560 H 518.673 1.27123 -3.43854 0
M  V30 5561 H 518.321 3.74595 -3.3569 0
M  V30 5562 H 518.021 3.10189 -4.99056 0
M  V30 5563 H 519.545 3.96673 -4.64202 0
M  V30 5564 H 520.959 1.83666 -5.43083 0
M  V30 5565 H 519.356 1.18702 -5.88243 0
M  V30 5566 H 520.426 0.228382 -4.84362 0
M  V30 5567 N 521.769 1.56035 0.221574 0
M  V30 5568 C 523.015 1.80221 0.942973 0
M  V30 5569 C 523.37 0.624799 1.81973 0
M  V30 5570 O 522.663 -0.381145 1.87771 0
M  V30 5571 C 522.857 3.07813 1.8162 0
M  V30 5572 C 522.686 4.37852 1.02548 0
M  V30 5573 C 521.456 5.00138 0.720418 0
M  V30 5574 C 523.654 5.12813 0.390799 0
M  V30 5575 N 521.636 6.13831 -0.0917139 0
M  V30 5576 C 523.007 6.19346 -0.284728 0
M  V30 5577 C 525.062 4.96972 0.303828 0
M  V30 5578 C 523.765 7.11758 -1.03891 0
M  V30 5579 C 525.791 5.89784 -0.436883 0
M  V30 5580 C 525.153 6.95743 -1.10095 0
M  V30 5581 H 521.252 0.711117 0.325325 0
M  V30 5582 H 523.836 1.93522 0.213854 0
M  V30 5583 H 522.007 2.95795 2.51714 0
M  V30 5584 H 523.739 3.20191 2.47508 0
M  V30 5585 H 520.494 4.62075 1.03843 0
M  V30 5586 H 520.918 6.75249 -0.486615 0
M  V30 5587 H 525.56 4.15107 0.802896 0
M  V30 5588 H 523.278 7.93105 -1.54949 0
M  V30 5589 H 526.864 5.79603 -0.505181 0
M  V30 5590 H 525.744 7.66322 -1.66495 0
M  V30 5591 N 523.247 -0.488276 1.49845 0
M  V30 5592 C 524.658 -1.06955 1.53028 0
M  V30 5593 C 525.009 -1.9351 0.323797 0
M  V30 5594 O 524.134 -2.08891 -0.565116 0
M  V30 5595 C 524.729 -1.94643 2.77307 0
M  V30 5596 C 523.288 -2.4791 2.83227 0
M  V30 5597 C 522.435 -1.25833 2.47106 0
M  V30 5598 H 525.386 -0.271626 1.56358 0
M  V30 5599 H 525.407 -2.79496 2.5819 0
M  V30 5600 H 524.919 -1.31621 3.65099 0
M  V30 5601 H 523.02 -3.14535 1.99745 0
M  V30 5602 H 523.133 -2.84193 3.85709 0
M  V30 5603 H 521.497 -1.58764 1.99163 0
M  V30 5604 H 522.28 -0.644993 3.37186 0
M  V30 5605 N 524.725 -1.39134 -0.740242 0
M  V30 5606 C 525.953 -1.39334 -1.5295 0
M  V30 5607 C 526.368 0.0135008 -1.88795 0
M  V30 5608 O 525.725 0.983524 -1.5373 0
M  V30 5609 C 525.776 -2.2614 -2.82034 0
M  V30 5610 O 525.497 -3.61345 -2.47712 0
M  V30 5611 C 526.998 -2.34666 -3.76094 0
M  V30 5612 H 524.218 -0.476103 -0.472828 0
M  V30 5613 H 526.762 -1.82883 -0.9151 0
M  V30 5614 H 524.917 -1.86018 -3.39818 0
M  V30 5615 H 525.331 -4.07194 -3.30595 0
M  V30 5616 H 526.805 -2.99663 -4.63579 0
M  V30 5617 H 527.282 -1.36426 -4.17474 0
M  V30 5618 H 527.888 -2.75236 -3.2423 0
M  V30 5619 N 526.204 0.969867 -1.24223 0
M  V30 5620 C 527.452 1.70918 -1.0785 0
M  V30 5621 C 527.773 1.91186 0.383763 0
M  V30 5622 O 527.043 1.48806 1.27411 0
M  V30 5623 H 525.623 0.633334 -0.396103 0
M  V30 5624 H 528.285 1.16689 -1.56108 0
M  V30 5625 H 527.381 2.69455 -1.57482 0
M  V30 5626 N 527.682 1.05563 1.17022 0
M  V30 5627 C 528.929 0.767937 1.87374 0
M  V30 5628 C 529.257 -0.705224 1.81265 0
M  V30 5629 O 528.512 -1.5318 1.21796 0
M  V30 5630 C 528.811 1.19849 3.36706 0
M  V30 5631 C 528.477 2.6745 3.63017 0
M  V30 5632 C 527.139 3.0777 3.69907 0
M  V30 5633 C 529.491 3.62811 3.74189 0
M  V30 5634 C 526.819 4.42307 3.85463 0
M  V30 5635 C 529.171 4.97087 3.91264 0
M  V30 5636 C 527.835 5.37055 3.96394 0
M  V30 5637 H 527.105 0.281008 0.68565 0
M  V30 5638 H 529.752 1.32339 1.38415 0
M  V30 5639 H 528.057 0.562096 3.87747 0
M  V30 5640 H 529.754 0.953038 3.8951 0
M  V30 5641 H 526.344 2.35228 3.58282 0
M  V30 5642 H 530.528 3.32798 3.68183 0
M  V30 5643 H 525.784 4.72769 3.87684 0
M  V30 5644 H 529.958 5.70869 3.9885 0
M  V30 5645 H 527.585 6.41308 4.082 0
M  V30 5646 N 529.16 -1.33526 0.837174 0
M  V30 5647 C 530.407 -1.97837 0.432064 0
M  V30 5648 C 530.735 -1.66324 -1.00829 0
M  V30 5649 O 529.99 -0.93448 -1.71948 0
M  V30 5650 C 530.289 -3.52367 0.597675 0
M  V30 5651 C 529.955 -4.03826 2.00587 0
M  V30 5652 C 528.617 -4.1759 2.39106 0
M  V30 5653 C 530.969 -4.31333 2.92576 0
M  V30 5654 C 528.297 -4.56195 3.68921 0
M  V30 5655 C 530.649 -4.7139 4.2187 0
M  V30 5656 C 529.313 -4.8336 4.60347 0
M  V30 5657 H 528.583 -0.723937 0.158104 0
M  V30 5658 H 531.23 -1.5923 1.06387 0
M  V30 5659 H 529.535 -3.91624 -0.117452 0
M  V30 5660 H 531.232 -4.00126 0.26454 0
M  V30 5661 H 527.822 -3.93586 1.69671 0
M  V30 5662 H 532.006 -4.20224 2.64056 0
M  V30 5663 H 527.262 -4.63655 3.9854 0
M  V30 5664 H 531.436 -4.91631 4.93226 0
M  V30 5665 H 529.063 -5.1303 5.60985 0
M  V30 5666 N 530.638 -0.59345 -1.46 0
M  V30 5667 C 532.054 -0.255965 -1.57534 0
M  V30 5668 C 532.254 1.24167 -1.58697 0
M  V30 5669 O 531.31 2.02398 -1.50968 0
M  V30 5670 C 532.623 -0.91466 -2.86451 0
M  V30 5671 C 534.171 -0.889253 -3.00102 0
M  V30 5672 C 534.646 -1.52769 -4.3177 0
M  V30 5673 N 536.137 -1.49253 -4.38495 0
M  V30 5674 C 536.872 -1.9558 -5.39014 0
M  V30 5675 N 536.368 -2.49929 -6.46148 0
M  V30 5676 N 538.161 -1.86432 -5.30282 0
M  V30 5677 H 530.312 -1.56604 -1.43489 0
M  V30 5678 H 532.575 -0.655207 -0.685133 0
M  V30 5679 H 532.281 -1.96861 -2.91442 0
M  V30 5680 H 532.155 -0.429356 -3.74748 0
M  V30 5681 H 534.542 0.156111 -2.94687 0
M  V30 5682 H 534.623 -1.41268 -2.13253 0
M  V30 5683 H 534.267 -2.57231 -4.37944 0
M  V30 5684 H 534.197 -0.979398 -5.17412 0
M  V30 5685 H 536.688 -1.09536 -3.61677 0
M  V30 5686 H 537.001 -2.83109 -7.19075 0
M  V30 5687 H 535.346 -2.53961 -6.46938 0
M  V30 5688 H 538.537 -1.43722 -4.4549 0
M  V30 5689 H 538.71 -2.22852 -6.08474 0
M  V30 5690 N 532.116 1.54067 -0.331816 0
M  V30 5691 C 533.046 2.27569 0.522932 0
M  V30 5692 C 534.027 1.28679 1.11247 0
M  V30 5693 O 535.212 1.57504 1.13605 0
M  V30 5694 C 532.342 3.0397 1.67987 0
M  V30 5695 C 531.296 4.10267 1.21924 0
M  V30 5696 C 530.622 4.74555 2.46377 0
M  V30 5697 C 531.922 5.21268 0.32815 0
M  V30 5698 H 533.616 2.99264 -0.0901977 0
M  V30 5699 H 531.162 1.4393 -0.044821 0
M  V30 5700 H 533.115 3.54123 2.28418 0
M  V30 5701 H 531.839 2.29906 2.31971 0
M  V30 5702 H 530.498 3.61009 0.637809 0
M  V30 5703 H 530.146 3.97098 3.08743 0
M  V30 5704 H 529.846 5.46363 2.16243 0
M  V30 5705 H 531.37 5.27487 3.07555 0
M  V30 5706 H 532.784 5.67128 0.838978 0
M  V30 5707 H 531.181 5.99982 0.119228 0
M  V30 5708 H 532.251 4.80673 -0.638839 0
M  V30 5709 N 533.594 0.0601682 1.57485 0
M  V30 5710 C 534.557 -0.896373 2.10945 0
M  V30 5711 C 535.557 -1.23402 1.03095 0
M  V30 5712 O 536.747 -1.16921 1.29132 0
M  V30 5713 C 533.879 -2.20346 2.60116 0
M  V30 5714 H 535.072 -0.432778 2.96761 0
M  V30 5715 H 532.625 -0.188372 1.55161 0
M  V30 5716 H 533.36 -2.71268 1.7772 0
M  V30 5717 H 533.145 -1.9714 3.38937 0
M  V30 5718 H 534.635 -2.88846 3.01592 0
M  V30 5719 N 535.072 -1.5615 -0.213296 0
M  V30 5720 C 536.002 -1.96109 -1.26742 0
M  V30 5721 C 536.983 -0.830448 -1.48451 0
M  V30 5722 O 538.168 -1.09339 -1.60495 0
M  V30 5723 C 535.298 -2.28492 -2.61551 0
M  V30 5724 C 534.252 -3.44124 -2.54485 0
M  V30 5725 C 533.578 -3.62134 -3.93399 0
M  V30 5726 C 534.878 -4.78855 -2.08556 0
M  V30 5727 H 536.572 -2.84412 -0.935434 0
M  V30 5728 H 534.118 -1.36836 -0.44854 0
M  V30 5729 H 536.071 -2.55039 -3.3546 0
M  V30 5730 H 534.795 -1.37052 -2.96453 0
M  V30 5731 H 533.454 -3.17639 -1.83033 0
M  V30 5732 H 533.102 -2.68055 -4.25623 0
M  V30 5733 H 532.802 -4.39913 -3.89551 0
M  V30 5734 H 534.326 -3.91038 -4.68958 0
M  V30 5735 H 535.74 -5.04552 -2.72213 0
M  V30 5736 H 534.137 -5.59975 -2.1575 0
M  V30 5737 H 535.207 -4.73657 -1.03811 0
M  V30 5738 N 536.55 0.480323 -1.50102 0
M  V30 5739 C 537.961 1.06142 -1.53593 0
M  V30 5740 C 538.312 1.93335 -0.334055 0
M  V30 5741 O 537.437 2.09188 0.55403 0
M  V30 5742 C 538.032 1.9317 -2.78336 0
M  V30 5743 C 536.591 2.46405 -2.84538 0
M  V30 5744 C 535.738 1.24521 -2.4777 0
M  V30 5745 H 538.689 0.26333 -1.565 0
M  V30 5746 H 538.71 2.78123 -2.59669 0
M  V30 5747 H 538.222 1.29683 -3.65792 0
M  V30 5748 H 536.323 3.13472 -2.01411 0
M  V30 5749 H 536.436 2.82143 -3.87211 0
M  V30 5750 H 534.8 1.57706 -2.00003 0
M  V30 5751 H 535.583 0.627102 -3.37524 0
M  V30 5752 N 538.028 1.39524 0.732853 0
M  V30 5753 C 539.305 1.27373 1.48444 0
M  V30 5754 C 539.685 -0.115725 2.10783 0
M  V30 5755 O 539.033 -1.12713 1.98766 0
M  V30 5756 C 539.243 2.39966 2.53412 0
M  V30 5757 C 540.591 2.79384 3.19733 0
M  V30 5758 O 541.615 2.39431 2.63725 0
M  V30 5759 O 540.474 3.48353 4.21085 0
M  V30 5760 H 537.568 0.499272 0.659285 0
M  V30 5761 H 540.114 1.51403 0.766496 0
M  V30 5762 H 538.886 3.32845 2.05742 0
M  V30 5763 H 538.509 2.17612 3.32762 0
M  V30 5764 N 539.506 -0.963266 1.24736 0
M  V30 5765 C 540.438 -2.06162 1.0015 0
M  V30 5766 C 541.451 -1.62771 -0.0305905 0
M  V30 5767 O 542.64 -1.77296 0.206966 0
M  V30 5768 C 539.74 -3.35333 0.490385 0
M  V30 5769 C 538.913 -4.07609 1.58663 0
M  V30 5770 C 537.972 -5.15052 1.0774 0
M  V30 5771 O 536.998 -5.4098 1.77002 0
M  V30 5772 N 538.2 -5.80436 -0.0858605 0
M  V30 5773 H 540.965 -2.27825 1.94719 0
M  V30 5774 H 538.526 -1.13121 1.15825 0
M  V30 5775 H 540.518 -4.04477 0.134371 0
M  V30 5776 H 539.088 -3.10507 -0.361155 0
M  V30 5777 H 538.308 -3.32681 2.11463 0
M  V30 5778 H 539.596 -4.52656 2.32336 0
M  V30 5779 H 538.994 -5.6178 -0.664806 0
M  V30 5780 H 537.551 -6.50674 -0.382981 0
M  V30 5781 N 540.985 -1.06182 -1.16461 0
M  V30 5782 C 541.895 -0.682671 -2.24448 0
M  V30 5783 C 542.911 0.30078 -1.71381 0
M  V30 5784 O 544.087 0.150376 -2.00838 0
M  V30 5785 C 541.152 -0.0737202 -3.46622 0
M  V30 5786 C 540.213 -1.10889 -4.14731 0
M  V30 5787 C 539.446 -0.528908 -5.31073 0
M  V30 5788 O 539.669 0.65868 -5.66584 0
M  V30 5789 O 538.603 -1.26805 -5.88391 0
M  V30 5790 H 542.429 -1.58291 -2.59187 0
M  V30 5791 H 540.014 -0.834013 -1.23954 0
M  V30 5792 H 541.896 0.264192 -4.20571 0
M  V30 5793 H 540.571 0.800015 -3.13658 0
M  V30 5794 H 539.478 -1.49896 -3.42756 0
M  V30 5795 H 540.811 -1.95412 -4.51747 0
M  V30 5796 N 542.463 1.3308 -0.844243 0
M  V30 5797 C 543.373 2.32876 -0.283922 0
M  V30 5798 C 544.389 1.63589 0.592846 0
M  V30 5799 O 545.565 1.95205 0.495693 0
M  V30 5800 C 542.63 3.42667 0.527283 0
M  V30 5801 C 541.691 4.27664 -0.374394 0
M  V30 5802 C 540.924 5.32212 0.39819 0
M  V30 5803 O 541.147 5.46635 1.62932 0
M  V30 5804 O 540.081 6.01458 -0.2306 0
M  V30 5805 H 543.907 2.82671 -1.11045 0
M  V30 5806 H 541.492 1.36518 -0.606903 0
M  V30 5807 H 543.374 4.09652 0.988078 0
M  V30 5808 H 542.049 2.95079 1.33078 0
M  V30 5809 H 540.956 3.63526 -0.883144 0
M  V30 5810 H 542.289 4.78749 -1.1428 0
M  V30 5811 N 543.941 0.601185 1.45683 0
M  V30 5812 C 544.874 -0.17013 2.27565 0
M  V30 5813 C 545.852 -0.879661 1.36751 0
M  V30 5814 O 547.036 -0.889827 1.66176 0
M  V30 5815 C 544.163 -1.24568 3.14961 0
M  V30 5816 C 543.209 -0.639978 4.21671 0
M  V30 5817 S 544.042 0.547275 5.32696 0
M  V30 5818 C 545.198 -0.529019 6.2366 0
M  V30 5819 H 545.431 0.524583 2.92635 0
M  V30 5820 H 542.964 0.388537 1.49431 0
M  V30 5821 H 544.922 -1.86138 3.65873 0
M  V30 5822 H 543.583 -1.91243 2.49169 0
M  V30 5823 H 542.776 -1.44903 4.8272 0
M  V30 5824 H 542.378 -0.0995558 3.73867 0
M  V30 5825 H 544.67 -1.40981 6.62669 0
M  V30 5826 H 545.613 0.0451599 7.08086 0
M  V30 5827 H 546.021 -0.84147 5.58193 0
M  V30 5828 N 545.419 -1.53889 0.339982 0
M  V30 5829 C 546.329 -2.28604 -0.526988 0
M  V30 5830 C 547.345 -1.33578 -1.11503 0
M  V30 5831 O 548.521 -1.66612 -1.13148 0
M  V30 5832 C 545.586 -3.04164 -1.66389 0
M  V30 5833 C 544.647 -4.14809 -1.10599 0
M  V30 5834 C 543.88 -4.86756 -2.18871 0
M  V30 5835 O 544.103 -4.58343 -3.39526 0
M  V30 5836 O 543.037 -5.73289 -1.83366 0
M  V30 5837 H 546.863 -3.03594 0.0802707 0
M  V30 5838 H 544.448 -1.4903 0.105141 0
M  V30 5839 H 546.33 -3.51427 -2.32544 0
M  V30 5840 H 545.005 -2.32035 -2.25703 0
M  V30 5841 H 543.912 -3.71857 -0.409067 0
M  V30 5842 H 545.245 -4.89029 -0.557771 0
M  V30 5843 N 546.897 -0.0685191 -1.57451 0
M  V30 5844 C 548.143 0.596247 -1.94465 0
M  V30 5845 C 548.498 1.67417 -0.948117 0
M  V30 5846 O 547.791 1.91576 0.0301056 0
M  V30 5847 C 547.985 1.22051 -3.35914 0
M  V30 5848 C 547.814 0.204586 -4.49234 0
M  V30 5849 C 546.584 -0.20959 -5.04865 0
M  V30 5850 C 548.782 -0.556872 -5.11276 0
M  V30 5851 N 546.764 -1.21656 -6.01725 0
M  V30 5852 C 548.135 -1.41642 -6.03604 0
M  V30 5853 C 550.19 -0.613297 -4.94108 0
M  V30 5854 C 548.893 -2.32737 -6.80607 0
M  V30 5855 C 550.919 -1.51174 -5.71752 0
M  V30 5856 C 550.281 -2.35898 -6.63726 0
M  V30 5857 H 546.38 0.189307 -0.75874 0
M  V30 5858 H 548.964 -0.144899 -1.9416 0
M  V30 5859 H 547.135 1.9316 -3.36963 0
M  V30 5860 H 548.867 1.84548 -3.60172 0
M  V30 5861 H 545.622 0.172871 -4.73284 0
M  V30 5862 H 546.046 -1.71746 -6.54853 0
M  V30 5863 H 550.688 0.0275228 -4.22791 0
M  V30 5864 H 548.406 -2.97856 -7.51204 0
M  V30 5865 H 551.992 -1.5602 -5.6049 0
M  V30 5866 H 550.872 -3.04291 -7.22756 0
M  V30 5867 N 548.375 1.56261 0.205012 0
M  V30 5868 C 549.622 1.8004 0.926927 0
M  V30 5869 C 549.95 0.640086 1.83666 0
M  V30 5870 O 549.205 -0.374702 1.92079 0
M  V30 5871 C 549.504 3.09722 1.78345 0
M  V30 5872 C 549.17 4.39082 1.02555 0
M  V30 5873 C 547.832 4.74226 0.816256 0
M  V30 5874 C 550.184 5.18877 0.491559 0
M  V30 5875 C 547.512 5.86668 0.0613287 0
M  V30 5876 C 549.864 6.32105 -0.250107 0
M  V30 5877 C 548.528 6.6584 -0.470508 0
M  V30 5878 H 547.798 0.658812 0.339187 0
M  V30 5879 H 550.445 1.90515 0.19395 0
M  V30 5880 H 548.75 2.9444 2.5848 0
M  V30 5881 H 550.447 3.25324 2.34446 0
M  V30 5882 H 547.037 4.11497 1.19868 0
M  V30 5883 H 551.221 4.92147 0.640684 0
M  V30 5884 H 546.477 6.11283 -0.119501 0
M  V30 5885 H 550.651 6.93157 -0.671307 0
M  V30 5886 H 548.278 7.5281 -1.05739 0
M  V30 5887 N 549.853 -0.472356 1.50355 0
M  V30 5888 C 550.763 -1.59637 1.7191 0
M  V30 5889 C 551.779 -1.63247 0.602195 0
M  V30 5890 O 552.955 -1.81139 0.880369 0
M  V30 5891 C 550.02 -2.9586 1.80742 0
M  V30 5892 C 549.081 -3.02649 3.04471 0
M  V30 5893 C 548.314 -4.32374 3.12872 0
M  V30 5894 O 548.537 -5.22807 2.28099 0
M  V30 5895 O 547.471 -4.44728 4.05587 0
M  V30 5896 H 551.297 -1.44373 2.67189 0
M  V30 5897 H 548.882 -0.651717 1.34436 0
M  V30 5898 H 550.764 -3.7677 1.88739 0
M  V30 5899 H 549.439 -3.11325 0.88647 0
M  V30 5900 H 548.346 -2.20821 3.01975 0
M  V30 5901 H 549.679 -2.92119 3.9614 0
M  V30 5902 N 551.331 -1.39911 -0.725443 0
M  V30 5903 C 552.294 -1.39156 -1.82121 0
M  V30 5904 C 553.294 -0.287018 -1.58218 0
M  V30 5905 O 554.484 -0.545421 -1.65441 0
M  V30 5906 C 551.616 -1.1736 -3.20062 0
M  V30 5907 H 552.809 -2.36672 -1.84191 0
M  V30 5908 H 550.362 -1.25615 -0.930079 0
M  V30 5909 H 551.097 -0.205648 -3.23647 0
M  V30 5910 H 550.882 -1.97358 -3.3881 0
M  V30 5911 H 552.372 -1.19596 -4.00108 0
M  V30 5912 N 552.809 0.956637 -1.25245 0
M  V30 5913 C 553.757 2.0743 -1.0524 0
M  V30 5914 C 554.751 1.69392 0.0160725 0
M  V30 5915 O 555.957 1.7946 -0.139382 0
M  V30 5916 H 552.332 0.678921 -0.323373 0
M  V30 5917 H 554.303 2.2146 -1.99995 0
M  V30 5918 C 553.052 3.40872 -0.685702 0
M  V30 5919 H 552.375 3.70607 -1.49968 0
M  V30 5920 H 553.815 4.19939 -0.585415 0
M  V30 5921 C 552.274 3.31367 0.608082 0
M  V30 5922 O 552.804 3.66214 1.65076 0
M  V30 5923 N 551.01 2.84486 0.592955 0
M  V30 5924 H 550.557 2.56326 -0.25592 0
M  V30 5925 H 550.515 2.78509 1.45877 0
M  V30 5926 N 554.287 1.06798 1.15896 0
M  V30 5927 C 555.517 0.807522 1.90165 0
M  V30 5928 C 555.925 -0.642417 1.7796 0
M  V30 5929 O 555.268 -1.45193 1.12537 0
M  V30 5930 C 555.33 1.12939 3.41299 0
M  V30 5931 C 554.994 2.57879 3.7729 0
M  V30 5932 C 555.991 3.56118 3.78782 0
M  V30 5933 C 553.676 2.93311 4.07767 0
M  V30 5934 C 555.67 4.87827 4.10248 0
M  V30 5935 C 553.357 4.25219 4.38899 0
M  V30 5936 C 554.355 5.22287 4.4012 0
M  V30 5937 O 554.043 6.51826 4.70508 0
M  V30 5938 H 553.775 0.291946 0.609708 0
M  V30 5939 H 556.329 1.42627 1.47806 0
M  V30 5940 H 554.559 0.45359 3.84031 0
M  V30 5941 H 556.248 0.852363 3.9685 0
M  V30 5942 H 557.014 3.30086 3.55342 0
M  V30 5943 H 552.893 2.18409 4.05979 0
M  V30 5944 H 556.437 5.63586 4.11116 0
M  V30 5945 H 552.334 4.51006 4.61805 0
M  V30 5946 H 553.102 6.56893 4.88298 0
M  V30 5947 N 555.766 -1.3263 0.851289 0
M  V30 5948 C 557.177 -1.79653 0.5081 0
M  V30 5949 C 557.528 -1.70327 -0.973815 0
M  V30 5950 O 556.653 -1.25986 -1.75944 0
M  V30 5951 C 557.248 -3.26196 0.915515 0
M  V30 5952 C 555.807 -3.71187 0.624277 0
M  V30 5953 C 554.954 -2.53804 1.11709 0
M  V30 5954 H 557.905 -1.19976 1.03882 0
M  V30 5955 H 557.926 -3.79801 0.230535 0
M  V30 5956 H 557.438 -3.32952 1.99411 0
M  V30 5957 H 555.539 -3.69948 -0.443737 0
M  V30 5958 H 555.652 -4.64132 1.18821 0
M  V30 5959 H 554.016 -2.48964 0.537484 0
M  V30 5960 H 554.799 -2.63315 2.20272 0
M  V30 5961 N 557.244 -0.608902 -1.45362 0
M  V30 5962 C 558.492 -0.104401 -2.0183 0
M  V30 5963 C 558.813 1.27007 -1.47967 0
M  V30 5964 O 558.083 1.83924 -0.674455 0
M  V30 5965 H 556.663 -0.0356042 -0.746151 0
M  V30 5966 H 559.325 -0.790596 -1.78145 0
M  V30 5967 H 558.421 -0.0551793 -3.12051 0
M  V30 5968 N 558.722 1.53707 -0.348139 0
M  V30 5969 C 559.968 2.01979 0.239986 0
M  V30 5970 C 560.323 1.23141 1.47831 0
M  V30 5971 O 559.616 0.311936 1.89044 0
M  V30 5972 C 559.81 3.52292 0.602061 0
M  V30 5973 C 559.639 4.45684 -0.599625 0
M  V30 5974 C 558.409 4.9304 -1.10635 0
M  V30 5975 C 560.607 4.93156 -1.4595 0
M  V30 5976 N 558.589 5.70394 -2.26988 0
M  V30 5977 C 559.96 5.6868 -2.46988 0
M  V30 5978 C 562.015 4.75257 -1.48441 0
M  V30 5979 C 560.718 6.28208 -3.50353 0
M  V30 5980 C 562.744 5.35639 -2.50689 0
M  V30 5981 C 562.106 6.11034 -3.50453 0
M  V30 5982 H 558.205 0.780335 0.0509992 0
M  V30 5983 H 560.789 1.88466 -0.488742 0
M  V30 5984 H 558.96 3.66002 1.29989 0
M  V30 5985 H 560.692 3.87304 1.17377 0
M  V30 5986 H 557.447 4.68784 -0.67371 0
M  V30 5987 H 557.871 6.13741 -2.85747 0
M  V30 5988 H 562.513 4.16508 -0.726707 0
M  V30 5989 H 560.231 6.86064 -4.27015 0
M  V30 5990 H 563.817 5.23693 -2.53449 0
M  V30 5991 H 562.697 6.56925 -4.28275 0
M  V30 5992 N 560.2 0.0768682 1.57412 0
M  V30 5993 C 561.43 -0.5991 1.97723 0
M  V30 5994 C 561.838 -1.63378 0.954166 0
M  V30 5995 O 561.181 -1.83578 -0.0668706 0
M  V30 5996 C 561.243 -1.32078 3.34358 0
M  V30 5997 C 560.907 -0.438985 4.54887 0
M  V30 5998 C 561.904 0.305492 5.19002 0
M  V30 5999 C 559.589 -0.362378 5.00991 0
M  V30 6000 C 561.583 1.11475 6.27576 0
M  V30 6001 C 559.27 0.450543 6.09437 0
M  V30 6002 C 560.268 1.18777 6.72593 0
M  V30 6003 O 559.956 1.98727 7.7895 0
M  V30 6004 H 559.688 -0.166725 0.655117 0
M  V30 6005 H 562.242 0.147337 2.04871 0
M  V30 6006 H 560.472 -2.1134 3.2384 0
M  V30 6007 H 562.161 -1.88949 3.5924 0
M  V30 6008 H 562.927 0.25593 4.84324 0
M  V30 6009 H 558.806 -0.925832 4.51608 0
M  V30 6010 H 562.35 1.69068 6.76803 0
M  V30 6011 H 558.247 0.501651 6.43548 0
M  V30 6012 H 559.015 1.91214 7.95851 0
M  V30 6013 N 561.678 -1.56367 -0.196722 0
M  V30 6014 C 562.955 -1.71359 -0.943159 0
M  V30 6015 C 563.335 -0.631192 -2.01443 0
M  V30 6016 O 562.683 0.358071 -2.25677 0
M  V30 6017 C 562.893 -3.13623 -1.53106 0
M  V30 6018 C 564.241 -3.73806 -2.01381 0
M  V30 6019 O 565.265 -3.16742 -1.62951 0
M  V30 6020 O 564.124 -4.73951 -2.7209 0
M  V30 6021 H 561.218 -0.698851 -0.442195 0
M  V30 6022 H 563.764 -1.68672 -0.186547 0
M  V30 6023 H 562.536 -3.83873 -0.758785 0
M  V30 6024 H 562.159 -3.20532 -2.35255 0
M  V30 6025 N 563.156 0.464375 -1.50603 0
M  V30 6026 C 564.106 1.55929 -1.66343 0
M  V30 6027 C 565.09 1.52338 -0.517887 0
M  V30 6028 O 566.282 1.59248 -0.772601 0
M  V30 6029 C 563.411 2.94327 -1.7671 0
M  V30 6030 C 562.497 3.02777 -2.96962 0
M  V30 6031 N 562.888 2.81026 -4.20545 0
M  V30 6032 C 561.186 3.33919 -2.95659 0
M  V30 6033 C 561.887 2.94618 -5.01573 0
M  V30 6034 N 560.863 3.25112 -4.35664 0
M  V30 6035 H 564.665 1.37822 -2.59581 0
M  V30 6036 H 562.179 0.671227 -1.47879 0
M  V30 6037 H 564.176 3.73063 -1.86091 0
M  V30 6038 H 562.836 3.13476 -0.846353 0
M  V30 6039 H 563.847 2.56477 -4.49933 0
M  V30 6040 H 560.524 3.59013 -2.13111 0
M  V30 6041 H 561.914 2.81984 -6.09865 0
M  V30 6042 N 564.634 1.40294 0.718013 0
M  V30 6043 C 565.864 1.41544 1.50495 0
M  V30 6044 C 566.272 0.0127877 1.89196 0
M  V30 6045 O 565.615 -0.97305 1.55812 0
M  V30 6046 C 565.677 2.24021 2.81167 0
M  V30 6047 C 565.341 3.72463 2.64803 0
M  V30 6048 C 566.338 4.65154 2.32223 0
M  V30 6049 C 564.023 4.1625 2.81143 0
M  V30 6050 C 566.017 5.99618 2.16189 0
M  V30 6051 C 563.704 5.50784 2.64727 0
M  V30 6052 C 564.702 6.42283 2.32297 0
M  V30 6053 O 564.39 7.74337 2.16004 0
M  V30 6054 H 564.122 0.484819 0.471091 0
M  V30 6055 H 566.676 1.84948 0.893488 0
M  V30 6056 H 564.906 1.75393 3.44636 0
M  V30 6057 H 566.595 2.17243 3.42871 0
M  V30 6058 H 567.361 4.32622 2.19234 0
M  V30 6059 H 563.24 3.45352 3.05373 0
M  V30 6060 H 566.784 6.71 1.90799 0
M  V30 6061 H 562.681 5.82902 2.773 0
M  V30 6062 H 563.449 7.85244 2.30942 0
M  V30 6063 N 566.112 -0.949982 1.2575 0
M  V30 6064 C 567.36 -1.6918 1.10555 0
M  V30 6065 C 567.681 -1.91773 -0.353298 0
M  V30 6066 O 566.951 -1.50814 -1.25027 0
M  V30 6067 H 565.531 -0.626952 0.406129 0
M  V30 6068 H 568.193 -1.1419 1.57945 0
M  V30 6069 H 567.289 -2.66915 1.61749 0
M  V30 6070 N 567.59 -1.07411 -1.15328 0
M  V30 6071 C 568.537 -0.694995 -2.20087 0
M  V30 6072 C 569.507 0.313904 -1.63107 0
M  V30 6073 O 570.692 0.200216 -1.89747 0
M  V30 6074 C 567.832 -0.0996218 -3.44956 0
M  V30 6075 C 566.945 -1.16007 -4.16133 0
M  V30 6076 C 566.08 -0.529636 -5.28553 0
M  V30 6077 C 565.119 -1.57283 -5.91548 0
M  V30 6078 N 564.256 -0.964932 -6.95438 0
M  V30 6079 H 569.096 -1.5927 -2.51867 0
M  V30 6080 H 566.633 -0.796115 -1.23695 0
M  V30 6081 H 568.591 0.263197 -4.16369 0
M  V30 6082 H 567.221 0.761435 -3.13691 0
M  V30 6083 H 566.273 -1.64045 -3.4321 0
M  V30 6084 H 567.585 -1.95101 -4.59061 0
M  V30 6085 H 566.739 -0.114487 -6.06592 0
M  V30 6086 H 565.478 0.29307 -4.86819 0
M  V30 6087 H 564.483 -1.99775 -5.12221 0
M  V30 6088 H 565.708 -2.39783 -6.35359 0
M  V30 6089 H 563.654 -0.16314 -6.55797 0
M  V30 6090 H 563.571 -1.69311 -7.36797 0
M  V30 6091 H 564.839 -0.575305 -7.77374 0
M  V30 6092 N 569.068 1.32177 -0.85831 0
M  V30 6093 C 570.317 1.96392 -0.459689 0
M  V30 6094 C 570.63 1.68659 0.990632 0
M  V30 6095 O 571.836 2.26641 1.49485 0
M  V30 6096 C 570.292 3.51542 -0.7711 0
M  V30 6097 C 569.9 3.8813 -2.2374 0
M  V30 6098 C 571.644 4.2221 -0.44038 0
M  V30 6099 C 569.551 5.36341 -2.49183 0
M  V30 6100 H 568.481 0.735007 -0.168169 0
M  V30 6101 H 571.132 1.50518 -1.0496 0
M  V30 6102 H 569.514 3.95846 -0.11058 0
M  V30 6103 H 570.688 3.54824 -2.94001 0
M  V30 6104 H 569.003 3.30497 -2.533 0
M  V30 6105 H 571.6 5.31234 -0.607855 0
M  V30 6106 H 571.943 4.11683 0.618291 0
M  V30 6107 H 572.476 3.83502 -1.05695 0
M  V30 6108 H 569.215 5.51892 -3.53689 0
M  V30 6109 H 568.735 5.7104 -1.83504 0
M  V30 6110 H 570.414 6.03466 -2.33318 0
M  V30 6111 N 570.547 0.616602 1.45037 0
M  V30 6112 C 571.777 0.121791 2.06241 0
M  V30 6113 C 572.185 -1.20289 1.46038 0
M  V30 6114 O 571.528 -1.7456 0.572242 0
M  V30 6115 C 571.59 -0.0827345 3.59405 0
M  V30 6116 C 571.254 1.16153 4.41993 0
M  V30 6117 C 572.251 2.08183 4.76399 0
M  V30 6118 C 569.936 1.39288 4.82601 0
M  V30 6119 C 571.93 3.21668 5.5028 0
M  V30 6120 C 569.617 2.53073 5.56235 0
M  V30 6121 C 570.615 3.44091 5.89992 0
M  V30 6122 O 570.303 4.55894 6.6213 0
M  V30 6123 H 570.035 0.0701667 0.672349 0
M  V30 6124 H 572.589 0.846877 1.87129 0
M  V30 6125 H 570.819 -0.862812 3.76952 0
M  V30 6126 H 572.508 -0.530273 4.02421 0
M  V30 6127 H 573.274 1.91538 4.45576 0
M  V30 6128 H 569.153 0.693396 4.55755 0
M  V30 6129 H 572.697 3.92733 5.76547 0
M  V30 6130 H 568.594 2.69667 5.86472 0
M  V30 6131 H 569.362 4.5469 6.80587 0
M  V30 6132 N 572.025 -1.5352 0.356285 0
M  V30 6133 C 572.935 -2.29151 -0.502712 0
M  V30 6134 C 573.951 -1.34753 -1.1008 0
M  V30 6135 O 575.127 -1.67803 -1.11374 0
M  V30 6136 C 572.192 -3.05911 -1.63154 0
M  V30 6137 C 571.253 -4.15958 -1.06194 0
M  V30 6138 C 570.486 -4.8905 -2.13696 0
M  V30 6139 O 570.709 -4.61919 -3.34645 0
M  V30 6140 O 569.643 -5.75202 -1.77275 0
M  V30 6141 H 573.469 -3.03492 0.112466 0
M  V30 6142 H 571.054 -1.4891 0.120942 0
M  V30 6143 H 572.936 -3.53874 -2.28804 0
M  V30 6144 H 571.611 -2.34415 -2.23229 0
M  V30 6145 H 570.518 -3.7227 -0.369603 0
M  V30 6146 H 571.851 -4.89593 -0.505872 0
M  V30 6147 N 573.503 -0.0852151 -1.57369 0
M  V30 6148 C 574.413 0.891712 -2.16992 0
M  V30 6149 C 575.429 1.3174 -1.13669 0
M  V30 6150 O 576.605 1.38735 -1.45995 0
M  V30 6151 C 573.67 2.13635 -2.73059 0
M  V30 6152 C 572.731 1.7658 -3.91303 0
M  V30 6153 C 571.964 2.95111 -4.44686 0
M  V30 6154 O 572.187 4.09539 -3.97032 0
M  V30 6155 O 571.121 2.74149 -5.35841 0
M  V30 6156 H 574.947 0.414477 -3.00858 0
M  V30 6157 H 572.532 0.138598 -1.48756 0
M  V30 6158 H 574.414 2.86595 -3.08935 0
M  V30 6159 H 573.089 2.6043 -1.92244 0
M  V30 6160 H 571.996 1.00831 -3.60255 0
M  V30 6161 H 573.329 1.34557 -4.7345 0
M  V30 6162 N 574.981 1.5647 0.188427 0
M  V30 6163 C 576.227 1.82181 0.904534 0
M  V30 6164 C 576.582 0.663258 1.80606 0
M  V30 6165 O 575.875 -0.341231 1.88537 0
M  V30 6166 C 576.069 3.11596 1.7505 0
M  V30 6167 C 575.898 4.39928 0.932372 0
M  V30 6168 C 574.668 5.01554 0.61417 0
M  V30 6169 C 576.866 5.13527 0.281936 0
M  V30 6170 N 574.848 6.13499 -0.221896 0
M  V30 6171 C 576.219 6.18603 -0.416037 0
M  V30 6172 C 578.274 4.97505 0.198345 0
M  V30 6173 C 576.977 7.09394 -1.18965 0
M  V30 6174 C 579.003 5.88725 -0.561887 0
M  V30 6175 C 578.365 6.93251 -1.24828 0
M  V30 6176 H 574.464 0.717858 0.310168 0
M  V30 6177 H 577.048 1.93932 0.172757 0
M  V30 6178 H 575.219 3.01068 2.45383 0
M  V30 6179 H 576.951 3.25369 2.4066 0
M  V30 6180 H 573.706 4.64174 0.940187 0
M  V30 6181 H 574.13 6.74065 -0.629735 0
M  V30 6182 H 578.772 4.16716 0.714665 0
M  V30 6183 H 576.49 7.8964 -1.71737 0
M  V30 6184 H 580.076 5.78401 -0.628009 0
M  V30 6185 H 578.956 7.62618 -1.82712 0
M  V30 6186 N 576.459 -0.456382 1.50847 0
M  V30 6187 C 577.875 -0.791345 1.386 0
M  V30 6188 C 578.075 -1.9633 0.453498 0
M  V30 6189 O 577.131 -2.52308 -0.0984353 0
M  V30 6190 C 578.444 -1.08959 2.80265 0
M  V30 6191 C 579.992 -1.19517 2.89283 0
M  V30 6192 C 580.467 -1.52647 4.31814 0
M  V30 6193 N 581.958 -1.59609 4.34832 0
M  V30 6194 C 582.693 -1.86777 5.42127 0
M  V30 6195 N 582.189 -2.11866 6.59609 0
M  V30 6196 N 583.982 -1.88402 5.29586 0
M  V30 6197 H 576.133 0.315746 2.1004 0
M  V30 6198 H 578.396 0.0787916 0.94472 0
M  V30 6199 H 578.102 -0.301355 3.50407 0
M  V30 6200 H 577.976 -2.02211 3.18419 0
M  V30 6201 H 580.363 -1.97406 2.19351 0
M  V30 6202 H 580.444 -0.242111 2.54652 0
M  V30 6203 H 580.088 -0.752922 5.02288 0
M  V30 6204 H 580.018 -2.49127 4.63943 0
M  V30 6205 H 582.509 -1.42201 3.50125 0
M  V30 6206 H 582.822 -2.31912 7.37182 0
M  V30 6207 H 581.167 -2.09228 6.62758 0
M  V30 6208 H 584.358 -1.68307 4.36795 0
M  V30 6209 H 584.531 -2.09238 6.13289 0
M  V30 6210 N 577.937 -1.40673 -0.710563 0
M  V30 6211 C 578.9 -1.4108 -1.80635 0
M  V30 6212 C 579.9 -0.303783 -1.57904 0
M  V30 6213 O 581.09 -0.562937 -1.64853 0
M  V30 6214 C 578.222 -1.20748 -3.18799 0
M  V30 6215 H 579.415 -2.38612 -1.81671 0
M  V30 6216 H 576.968 -1.26595 -0.916704 0
M  V30 6217 H 577.703 -0.239964 -3.23411 0
M  V30 6218 H 577.488 -2.00941 -3.36698 0
M  V30 6219 H 578.978 -1.23833 -3.98817 0
M  V30 6220 N 579.415 0.9433 -1.26252 0
M  V30 6221 C 580.831 1.21644 -1.03319 0
M  V30 6222 C 581.031 2.0003 0.242983 0
M  V30 6223 O 580.087 2.33838 0.952688 0
M  V30 6224 C 581.4 1.97978 -2.2633 0
M  V30 6225 C 582.948 2.10978 -2.31209 0
M  V30 6226 C 583.423 2.90713 -3.53907 0
M  V30 6227 N 584.914 2.98287 -3.54371 0
M  V30 6228 C 585.649 3.60406 -4.45976 0
M  V30 6229 N 585.145 4.24043 -5.47868 0
M  V30 6230 N 586.938 3.57658 -4.33633 0
M  V30 6231 H 579.089 0.419221 -2.08222 0
M  V30 6232 H 581.352 0.247995 -0.914988 0
M  V30 6233 H 581.058 1.47788 -3.19142 0
M  V30 6234 H 580.932 2.9865 -2.30408 0
M  V30 6235 H 583.319 2.6036 -1.38913 0
M  V30 6236 H 583.4 1.09575 -2.31143 0
M  V30 6237 H 583.044 2.42018 -4.46531 0
M  V30 6238 H 582.974 3.92367 -3.5122 0
M  V30 6239 H 585.465 2.53044 -2.80673 0
M  V30 6240 H 585.778 4.69334 -6.13959 0
M  V30 6241 H 584.123 4.22637 -5.51728 0
M  V30 6242 H 587.314 3.07134 -3.53251 0
M  V30 6243 H 587.487 4.05782 -5.05218 0
M  V30 6244 N 580.893 1.08022 1.14757 0
M  V30 6245 C 582.141 0.805913 1.85336 0
M  V30 6246 C 582.462 -0.670162 1.83122 0
M  V30 6247 O 581.732 -1.48567 1.2769 0
M  V30 6248 H 580.312 0.295138 0.686223 0
M  V30 6249 H 582.974 1.36538 1.3908 0
M  V30 6250 H 582.07 1.14655 2.90277 0
M  V30 6251 N 582.371 -1.3172 0.865308 0
M  V30 6252 C 583.611 -1.98675 0.480365 0
M  V30 6253 C 583.975 -1.66929 -0.948621 0
M  V30 6254 O 585.176 -2.27059 -1.43867 0
M  V30 6255 C 583.447 -3.49972 0.724858 0
M  V30 6256 S 585.006 -4.36598 0.439078 0
M  V30 6257 H 581.824 -0.687967 0.179506 0
M  V30 6258 H 584.426 -1.60215 1.12033 0
M  V30 6259 H 583.13 -3.70567 1.76375 0
M  V30 6260 H 582.661 -3.93335 0.0717173 0
M  V30 6261 H 584.676 -4.90792 -0.730564 0
M  V30 6262 N 583.85 -0.624285 -1.44708 0
M  V30 6263 C 584.76 0.0861083 -2.34442 0
M  V30 6264 C 585.776 0.84291 -1.5222 0
M  V30 6265 O 586.952 0.796723 -1.84971 0
M  V30 6266 C 584.017 1.05999 -3.30099 0
M  V30 6267 C 583.077 0.303316 -4.28227 0
M  V30 6268 C 582.311 1.23081 -5.19314 0
M  V30 6269 O 582.534 2.46929 -5.14181 0
M  V30 6270 O 581.468 0.71883 -5.97592 0
M  V30 6271 H 585.293 -0.651756 -2.96624 0
M  V30 6272 H 582.879 -0.384493 -1.44368 0
M  V30 6273 H 584.76 1.62046 -3.88997 0
M  V30 6274 H 583.436 1.77859 -2.70459 0
M  V30 6275 H 582.343 -0.300033 -3.72895 0
M  V30 6276 H 583.676 -0.375123 -4.90768 0
M  V30 6277 N 585.328 1.53329 -0.364422 0
M  V30 6278 C 586.605 1.93557 0.281962 0
M  V30 6279 C 586.985 1.29786 1.6649 0
M  V30 6280 O 586.333 0.456512 2.23893 0
M  V30 6281 C 586.543 3.47405 0.333331 0
M  V30 6282 C 587.891 4.20699 0.574231 0
M  V30 6283 O 588.915 3.53779 0.414588 0
M  V30 6284 O 587.774 5.39287 0.885002 0
M  V30 6285 H 584.868 0.809573 0.168881 0
M  V30 6286 H 587.414 1.64494 -0.417121 0
M  V30 6287 H 586.186 3.86091 -0.636326 0
M  V30 6288 H 585.809 3.82697 1.07836 0
M  V30 6289 N 586.806 0.0935595 1.57322 0
M  V30 6290 C 588.217 -0.435807 1.81542 0
M  V30 6291 C 588.568 -1.68263 1.00907 0
M  V30 6292 O 587.693 -2.15087 0.237983 0
M  V30 6293 C 588.288 -0.797436 3.29282 0
M  V30 6294 C 586.847 -1.27155 3.54272 0
M  V30 6295 C 585.994 -0.267455 2.76007 0
M  V30 6296 H 588.945 0.31902 1.5546 0
M  V30 6297 H 588.966 -1.6571 3.42521 0
M  V30 6298 H 588.478 0.110206 3.87943 0
M  V30 6299 H 586.579 -2.19696 3.00939 0
M  V30 6300 H 586.692 -1.23445 4.62923 0
M  V30 6301 H 585.056 -0.749282 2.43429 0
M  V30 6302 H 585.839 0.632839 3.37417 0
M  V30 6303 N 588.284 -1.56567 -0.180126 0
M  V30 6304 C 589.509 -1.85975 -0.918041 0
M  V30 6305 C 589.934 -0.678888 -1.75422 0
M  V30 6306 O 589.292 0.372168 -1.77439 0
M  V30 6307 C 589.34 -3.13731 -1.77779 0
M  V30 6308 O 588.444 -2.95335 -2.87838 0
M  V30 6309 H 587.785 -0.61196 -0.257683 0
M  V30 6310 H 590.315 -2.03798 -0.180923 0
M  V30 6311 H 590.325 -3.4491 -2.17948 0
M  V30 6312 H 589 -3.99293 -1.16352 0
M  V30 6313 H 587.577 -2.7549 -2.51316 0
M  V30 6314 N 589.762 0.448376 -1.51087 0
M  V30 6315 C 590.987 1.22605 -1.6728 0
M  V30 6316 C 591.412 1.84524 -0.365045 0
M  V30 6317 O 590.77 1.6832 0.673642 0
M  V30 6318 C 590.818 2.29393 -2.78229 0
M  V30 6319 O 589.922 3.34608 -2.41063 0
M  V30 6320 H 589.263 0.359705 -0.558129 0
M  V30 6321 H 591.793 0.530903 -1.97592 0
M  V30 6322 H 591.803 2.74352 -3.01986 0
M  V30 6323 H 590.478 1.83701 -3.73131 0
M  V30 6324 H 589.055 2.95202 -2.27838 0
M  V30 6325 N 591.24 1.41047 0.703093 0
M  V30 6326 C 592.488 1.39723 1.4602 0
M  V30 6327 C 592.809 0.00461257 1.94999 0
M  V30 6328 O 592.079 -0.952292 1.71196 0
M  V30 6329 H 590.659 0.514281 0.541779 0
M  V30 6330 H 593.321 1.76217 0.832678 0
M  V30 6331 H 592.417 2.07982 2.32701 0
M  V30 6332 N 592.718 -0.936591 1.26751 0
M  V30 6333 C 593.965 -1.68331 1.12566 0
M  V30 6334 C 594.293 -1.91677 -0.330168 0
M  V30 6335 O 593.548 -1.49859 -1.2586 0
M  V30 6336 C 593.847 -3.06099 1.84494 0
M  V30 6337 C 593.513 -3.02493 3.34378 0
M  V30 6338 C 592.175 -3.01217 3.75262 0
M  V30 6339 C 594.527 -2.94453 4.30055 0
M  V30 6340 C 591.855 -2.89672 5.10203 0
M  V30 6341 C 594.207 -2.84449 5.65041 0
M  V30 6342 C 592.871 -2.81518 6.0523 0
M  V30 6343 H 592.141 -0.615965 0.411907 0
M  V30 6344 H 594.788 -1.09292 1.5725 0
M  V30 6345 H 593.093 -3.6879 1.32292 0
M  V30 6346 H 594.79 -3.62733 1.70955 0
M  V30 6347 H 591.38 -3.04269 3.01858 0
M  V30 6348 H 595.564 -2.94544 3.99447 0
M  V30 6349 H 590.82 -2.85783 5.40498 0
M  V30 6350 H 594.994 -2.77192 6.38856 0
M  V30 6351 H 592.621 -2.72329 7.09747 0
M  V30 6352 N 594.196 -1.08629 -1.14182 0
M  V30 6353 C 595.445 -0.812271 -1.84621 0
M  V30 6354 C 595.758 0.664313 -1.83973 0
M  V30 6355 O 596.964 1.05357 -2.50224 0
M  V30 6356 C 595.42 -1.4031 -3.31423 0
M  V30 6357 C 595.028 -2.91164 -3.40481 0
M  V30 6358 C 596.772 -1.20767 -4.06959 0
M  V30 6359 C 594.679 -3.43373 -4.81507 0
M  V30 6360 H 593.609 -0.30019 -0.691666 0
M  V30 6361 H 596.26 -1.30798 -1.28701 0
M  V30 6362 H 594.642 -0.835096 -3.87094 0
M  V30 6363 H 595.816 -3.5412 -2.94848 0
M  V30 6364 H 594.131 -3.09646 -2.78403 0
M  V30 6365 H 596.728 -1.57237 -5.11058 0
M  V30 6366 H 597.071 -0.147664 -4.16038 0
M  V30 6367 H 597.604 -1.74274 -3.57594 0
M  V30 6368 H 594.343 -4.48958 -4.77616 0
M  V30 6369 H 593.863 -2.85176 -5.27669 0
M  V30 6370 H 595.542 -3.40095 -5.50404 0
M  V30 6371 N 595.674 1.31259 -0.872281 0
M  V30 6372 C 597.085 1.78822 -0.536617 0
M  V30 6373 C 597.436 1.71855 0.946594 0
M  V30 6374 O 596.561 1.28769 1.73918 0
M  V30 6375 C 597.156 3.24698 -0.967294 0
M  V30 6376 C 595.715 3.70147 -0.683251 0
M  V30 6377 C 594.862 2.51994 -1.15733 0
M  V30 6378 H 597.813 1.18308 -1.05777 0
M  V30 6379 H 597.834 3.79386 -0.290929 0
M  V30 6380 H 597.346 3.29737 -2.04683 0
M  V30 6381 H 595.447 3.70607 0.384825 0
M  V30 6382 H 595.56 4.62183 -1.2619 0
M  V30 6383 H 593.924 2.48078 -0.577024 0
M  V30 6384 H 594.707 2.59778 -2.24434 0
M  V30 6385 N 597.152 0.631951 1.44375 0
M  V30 6386 C 598.082 -0.0593243 2.33425 0
M  V30 6387 C 599.063 -0.833964 1.48253 0
M  V30 6388 O 600.248 -0.799682 1.76971 0
M  V30 6389 C 597.378 -1.04096 3.31333 0
M  V30 6390 C 596.332 -0.377899 4.26328 0
M  V30 6391 C 595.658 -1.4695 5.14111 0
M  V30 6392 C 596.958 0.716371 5.17364 0
M  V30 6393 H 598.652 0.684287 2.91475 0
M  V30 6394 H 596.198 0.330518 1.40156 0
M  V30 6395 H 598.151 -1.53331 3.92514 0
M  V30 6396 H 596.875 -1.81547 2.71493 0
M  V30 6397 H 595.534 0.0938054 3.6648 0
M  V30 6398 H 595.182 -2.2349 4.50623 0
M  V30 6399 H 594.882 -1.03121 5.78481 0
M  V30 6400 H 596.406 -1.96363 5.78164 0
M  V30 6401 H 597.82 0.307089 5.72477 0
M  V30 6402 H 596.217 1.07784 5.90341 0
M  V30 6403 H 597.287 1.58316 4.58327 0
M  V30 6404 N 598.631 -1.53133 0.372548 0
M  V30 6405 C 599.564 -2.22328 -0.514361 0
M  V30 6406 C 600.542 -1.21776 -1.07747 0
M  V30 6407 O 601.726 -1.50704 -1.13228 0
M  V30 6408 C 598.853 -2.92343 -1.71035 0
M  V30 6409 C 597.899 -4.07026 -1.27405 0
M  V30 6410 S 598.732 -5.34821 -0.269526 0
M  V30 6411 C 599.888 -6.08352 -1.47168 0
M  V30 6412 H 600.121 -2.9721 0.0732683 0
M  V30 6413 H 597.654 -1.53603 0.156673 0
M  V30 6414 H 599.612 -3.33296 -2.39634 0
M  V30 6415 H 598.273 -2.17173 -2.26925 0
M  V30 6416 H 597.466 -4.55056 -2.16656 0
M  V30 6417 H 597.068 -3.68001 -0.66719 0
M  V30 6418 H 599.36 -6.33507 -2.40157 0
M  V30 6419 H 600.303 -7.0053 -1.03263 0
M  V30 6420 H 600.711 -5.38893 -1.6809 0
M  V30 6421 N 600.109 -0.101901 -1.5727 0
M  V30 6422 C 601.355 0.554864 -1.95686 0
M  V30 6423 C 601.71 1.65368 -0.983415 0
M  V30 6424 O 601.003 1.91597 -0.0105374 0
M  V30 6425 C 601.197 1.14898 -3.38427 0
M  V30 6426 C 601.026 0.109251 -4.49567 0
M  V30 6427 C 599.796 -0.316633 -5.04307 0
M  V30 6428 C 601.994 -0.665196 -5.0998 0
M  V30 6429 N 599.976 -1.34393 -5.99009 0
M  V30 6430 C 601.347 -1.54413 -6.00464 0
M  V30 6431 C 603.402 -0.717966 -4.92696 0
M  V30 6432 C 602.105 -2.47122 -6.75517 0
M  V30 6433 C 604.131 -1.63268 -5.68417 0
M  V30 6434 C 603.493 -2.49923 -6.58572 0
M  V30 6435 H 599.592 0.17317 -0.762585 0
M  V30 6436 H 602.176 -0.18605 -1.93809 0
M  V30 6437 H 600.347 1.85969 -3.40984 0
M  V30 6438 H 602.079 1.76867 -3.64006 0
M  V30 6439 H 598.834 0.0724419 -4.73545 0
M  V30 6440 H 599.258 -1.85598 -6.51062 0
M  V30 6441 H 603.9 -0.0621637 -4.22754 0
M  V30 6442 H 601.618 -3.13724 -7.44717 0
M  V30 6443 H 605.204 -1.67874 -5.57054 0
M  V30 6444 H 604.084 -3.19553 -7.16139 0
M  V30 6445 N 601.587 1.56661 0.17182 0
M  V30 6446 C 602.834 1.81965 0.888529 0
M  V30 6447 C 603.162 0.6789 1.82267 0
M  V30 6448 O 602.417 -0.333875 1.92831 0
M  V30 6449 C 602.716 3.13435 1.71736 0
M  V30 6450 C 602.382 4.41159 0.932184 0
M  V30 6451 C 601.044 4.75851 0.715481 0
M  V30 6452 C 603.396 5.19803 0.381387 0
M  V30 6453 C 600.724 5.86666 -0.063126 0
M  V30 6454 C 603.076 6.31433 -0.384129 0
M  V30 6455 C 601.74 6.64692 -0.611637 0
M  V30 6456 H 601.01 0.665859 0.325136 0
M  V30 6457 H 603.657 1.90884 0.153495 0
M  V30 6458 H 601.962 2.99857 2.52177 0
M  V30 6459 H 603.659 3.30224 2.27493 0
M  V30 6460 H 600.249 4.13947 1.11112 0
M  V30 6461 H 604.433 4.93396 0.536148 0
M  V30 6462 H 599.689 6.10892 -0.249136 0
M  V30 6463 H 603.863 6.91577 -0.818185 0
M  V30 6464 H 601.49 7.50398 -1.21684 0
M  V30 6465 N 603.065 -0.440357 1.51323 0
M  V30 6466 C 604.314 -1.18697 1.63076 0
M  V30 6467 C 604.627 -1.92418 0.35136 0
M  V30 6468 O 605.833 -2.69258 0.348221 0
M  V30 6469 C 604.289 -2.15849 2.87988 0
M  V30 6470 C 603.897 -1.47789 4.22921 0
M  V30 6471 C 605.641 -2.90962 3.09098 0
M  V30 6472 C 603.548 -2.43407 5.38987 0
M  V30 6473 H 602.478 -0.44676 0.607389 0
M  V30 6474 H 605.129 -0.454313 1.77787 0
M  V30 6475 H 603.511 -2.92537 2.66905 0
M  V30 6476 H 604.685 -0.7668 4.54375 0
M  V30 6477 H 603 -0.848404 4.07665 0
M  V30 6478 H 605.597 -3.62584 3.92985 0
M  V30 6479 H 605.94 -3.52133 2.22053 0
M  V30 6480 H 606.473 -2.21381 3.30507 0
M  V30 6481 H 603.212 -1.86929 6.28282 0
M  V30 6482 H 602.732 -3.12579 5.11913 0
M  V30 6483 H 604.411 -3.046 5.70813 0
M  V30 6484 N 604.543 -1.41418 -0.695603 0
M  V30 6485 C 605.453 -1.45622 -1.83933 0
M  V30 6486 C 606.469 -0.346825 -1.70508 0
M  V30 6487 O 607.645 -0.59454 -1.92424 0
M  V30 6488 C 604.71 -1.33627 -3.19914 0
M  V30 6489 C 603.771 -2.54882 -3.45447 0
M  V30 6490 C 603.004 -2.43449 -4.7494 0
M  V30 6491 O 603.227 -1.45905 -5.51424 0
M  V30 6492 O 602.161 -3.33206 -5.01256 0
M  V30 6493 H 605.987 -2.42114 -1.83342 0
M  V30 6494 H 603.572 -1.22956 -0.848658 0
M  V30 6495 H 605.454 -1.29221 -4.01098 0
M  V30 6496 H 604.129 -0.402508 -3.21188 0
M  V30 6497 H 603.036 -2.64865 -2.64192 0
M  V30 6498 H 604.369 -3.47087 -3.48987 0
M  V30 6499 N 606.021 0.929856 -1.27246 0
M  V30 6500 C 606.969 2.05151 -1.09616 0
M  V30 6501 C 607.963 1.69388 -0.0198617 0
M  V30 6502 O 609.169 1.79124 -0.177417 0
M  V30 6503 H 605.544 0.671909 -0.337701 0
M  V30 6504 H 607.515 2.17168 -2.04648 0
M  V30 6505 C 606.264 3.3934 -0.757851 0
M  V30 6506 H 605.587 3.67343 -1.57795 0
M  V30 6507 H 607.027 4.18603 -0.674358 0
M  V30 6508 C 605.486 3.32582 0.537658 0
M  V30 6509 O 606.016 3.69633 1.57271 0
M  V30 6510 N 604.222 2.8568 0.532478 0
M  V30 6511 H 603.769 2.55725 -0.310233 0
M  V30 6512 H 603.727 2.81541 1.39936 0
M  V30 6513 N 607.499 1.09233 1.13605 0
M  V30 6514 C 608.447 0.724572 2.21027 0
M  V30 6515 C 609.441 -0.273595 1.67176 0
M  V30 6516 O 610.647 -0.135266 1.79491 0
M  V30 6517 H 607.022 0.216319 0.720215 0
M  V30 6518 H 608.993 1.63975 2.49309 0
M  V30 6519 C 607.742 0.159126 3.47336 0
M  V30 6520 H 607.065 0.918387 3.89109 0
M  V30 6521 H 608.505 -0.0602851 4.23957 0
M  V30 6522 C 606.964 -1.10514 3.18258 0
M  V30 6523 O 607.494 -2.18869 3.36837 0
M  V30 6524 N 605.7 -1.01886 2.72154 0
M  V30 6525 H 605.247 -0.137027 2.57235 0
M  V30 6526 H 605.205 -1.8655 2.53074 0
M  V30 6527 N 608.977 -1.30795 0.87923 0
M  V30 6528 C 609.927 -2.25838 0.313276 0
M  V30 6529 C 610.911 -1.51025 -0.55499 0
M  V30 6530 O 612.103 -1.72413 -0.400353 0
M  V30 6531 C 609.232 -3.39981 -0.476204 0
M  V30 6532 C 608.318 -4.22154 0.405826 0
M  V30 6533 N 608.709 -4.82934 1.50362 0
M  V30 6534 C 607.007 -4.45552 0.199909 0
M  V30 6535 C 607.708 -5.44444 2.0483 0
M  V30 6536 N 606.684 -5.26723 1.34403 0
M  V30 6537 H 610.486 -2.70374 1.15218 0
M  V30 6538 H 608 -1.45168 0.728003 0
M  V30 6539 H 609.997 -4.07108 -0.898251 0
M  V30 6540 H 608.657 -2.96986 -1.31261 0
M  V30 6541 H 609.668 -4.82319 1.8865 0
M  V30 6542 H 606.345 -4.13169 -0.599795 0
M  V30 6543 H 607.735 -6.02701 2.96986 0
M  V30 6544 N 610.455 -0.639598 -1.44038 0
M  V30 6545 C 611.866 -0.228866 -1.85292 0
M  V30 6546 C 612.217 1.22161 -1.53529 0
M  V30 6547 O 611.342 1.93064 -0.977518 0
M  V30 6548 C 611.937 -0.408592 -3.36327 0
M  V30 6549 C 610.496 -0.0522953 -3.76364 0
M  V30 6550 C 609.643 -0.717959 -2.67844 0
M  V30 6551 H 612.594 -0.844194 -1.34384 0
M  V30 6552 H 612.615 0.349968 -3.78887 0
M  V30 6553 H 612.127 -1.46435 -3.59414 0
M  V30 6554 H 610.228 1.0014 -3.58891 0
M  V30 6555 H 610.341 -0.468261 -4.76806 0
M  V30 6556 H 608.705 -0.152459 -2.54243 0
M  V30 6557 H 609.488 -1.77648 -2.93762 0
M  V30 6558 N 611.933 1.52934 -0.380664 0
M  V30 6559 C 613.182 2.00651 0.205477 0
M  V30 6560 C 613.495 1.27164 1.48623 0
M  V30 6561 O 614.701 1.65547 2.15189 0
M  V30 6562 C 613.157 3.57479 0.416726 0
M  V30 6563 C 612.765 4.39857 -0.850268 0
M  V30 6564 C 614.509 4.13509 0.959702 0
M  V30 6565 C 612.416 5.88269 -0.607773 0
M  V30 6566 H 611.346 0.749684 0.0805614 0
M  V30 6567 H 613.997 1.76508 -0.501732 0
M  V30 6568 H 612.379 3.77836 1.18557 0
M  V30 6569 H 613.553 4.31269 -1.62307 0
M  V30 6570 H 611.868 3.95005 -1.31756 0
M  V30 6571 H 614.465 5.22039 1.15669 0
M  V30 6572 H 614.808 3.69054 1.92626 0
M  V30 6573 H 615.341 3.9701 0.250645 0
M  V30 6574 H 612.08 6.3703 -1.54509 0
M  V30 6575 H 611.6 5.99667 0.126247 0
M  V30 6576 H 613.279 6.46558 -0.239014 0
M  V30 6577 N 613.412 0.11024 1.57214 0
M  V30 6578 C 614.642 -0.557025 1.98949 0
M  V30 6579 C 615.05 -1.61317 0.988606 0
M  V30 6580 O 614.393 -1.83679 -0.0279159 0
M  V30 6581 C 614.455 -1.24956 3.37085 0
M  V30 6582 C 614.119 -0.342398 4.55716 0
M  V30 6583 C 615.116 0.415511 5.18237 0
M  V30 6584 C 612.801 -0.256029 5.01647 0
M  V30 6585 C 614.795 1.24761 6.25071 0
M  V30 6586 C 612.482 0.579713 6.08344 0
M  V30 6587 C 613.48 1.33017 6.69922 0
M  V30 6588 O 613.168 2.15205 7.74559 0
M  V30 6589 H 612.9 -0.152792 0.658506 0
M  V30 6590 H 615.454 0.19076 2.04512 0
M  V30 6591 H 613.684 -2.04424 3.2825 0
M  V30 6592 H 615.373 -1.81286 3.63167 0
M  V30 6593 H 616.139 0.358605 4.83672 0
M  V30 6594 H 612.018 -0.829831 4.5347 0
M  V30 6595 H 615.562 1.83386 6.73064 0
M  V30 6596 H 611.459 0.638044 6.42339 0
M  V30 6597 H 612.227 2.08052 7.91617 0
M  V30 6598 N 614.89 -1.56749 -0.16351 0
M  V30 6599 C 616.139 -1.81626 -0.877211 0
M  V30 6600 C 616.452 -0.688791 -1.83071 0
M  V30 6601 O 617.658 -0.822697 -2.58735 0
M  V30 6602 C 616.114 -3.21858 -1.61045 0
M  V30 6603 C 615.722 -4.42494 -0.700195 0
M  V30 6604 C 617.466 -3.56021 -2.31192 0
M  V30 6605 C 615.373 -5.73748 -1.43412 0
M  V30 6606 H 614.303 -0.67731 -0.331312 0
M  V30 6607 H 616.954 -1.83039 -0.13006 0
M  V30 6608 H 615.336 -3.14784 -2.40264 0
M  V30 6609 H 616.51 -4.60766 0.0555849 0
M  V30 6610 H 614.825 -4.1626 -0.10799 0
M  V30 6611 H 617.422 -4.51333 -2.8671 0
M  V30 6612 H 617.765 -2.81277 -3.06902 0
M  V30 6613 H 618.298 -3.64682 -1.58909 0
M  V30 6614 H 615.037 -6.51543 -0.719186 0
M  V30 6615 H 614.557 -5.5944 -2.16302 0
M  V30 6616 H 616.236 -6.15975 -1.9795 0
M  V30 6617 N 616.368 0.432326 -1.51554 0
M  V30 6618 C 617.645 1.19288 -1.55015 0
M  V30 6619 C 618.025 2.08701 -0.317375 0
M  V30 6620 O 617.373 2.17602 0.697243 0
M  V30 6621 C 617.583 1.99037 -2.86679 0
M  V30 6622 C 618.931 2.55907 -3.38817 0
M  V30 6623 O 619.955 2.09243 -2.88263 0
M  V30 6624 O 618.814 3.41029 -4.27038 0
M  V30 6625 H 615.908 0.543369 -0.623441 0
M  V30 6626 H 618.454 0.440988 -1.6387 0
M  V30 6627 H 617.226 1.33397 -3.6786 0
M  V30 6628 H 616.849 2.81281 -2.8101 0
M  V30 6629 N 617.846 1.41785 0.688094 0
M  V30 6630 C 619.262 1.24419 0.999608 0
M  V30 6631 C 619.462 0.138868 2.01021 0
M  V30 6632 O 618.518 -0.494283 2.47615 0
M  V30 6633 C 619.831 2.59625 1.51709 0
M  V30 6634 C 621.379 2.66869 1.63554 0
M  V30 6635 C 621.854 4.0241 2.18702 0
M  V30 6636 N 623.345 4.04295 2.26053 0
M  V30 6637 C 624.08 5.05977 2.69768 0
M  V30 6638 N 623.576 6.18047 3.13033 0
M  V30 6639 N 625.369 4.93336 2.69398 0
M  V30 6640 H 617.52 2.12392 0.0187427 0
M  V30 6641 H 619.783 0.945347 0.0708673 0
M  V30 6642 H 619.489 3.41297 0.849059 0
M  V30 6643 H 619.363 2.82628 2.49803 0
M  V30 6644 H 621.75 1.8555 2.29467 0
M  V30 6645 H 621.831 2.47668 0.639857 0
M  V30 6646 H 621.475 4.8418 1.53402 0
M  V30 6647 H 621.405 4.18955 3.19037 0
M  V30 6648 H 623.896 3.23383 1.9553 0
M  V30 6649 H 624.209 6.91498 3.45038 0
M  V30 6650 H 622.554 6.21572 3.10923 0
M  V30 6651 H 625.745 4.04865 2.34952 0
M  V30 6652 H 625.918 5.72717 3.03148 0
M  V30 6653 N 619.324 -0.923095 1.27737 0
M  V30 6654 C 620.57 -1.67375 1.14514 0
M  V30 6655 C 620.903 -1.91751 -0.307424 0
M  V30 6656 O 620.178 -1.51119 -1.22447 0
M  V30 6657 C 620.461 -3.03745 1.9342 0
M  V30 6658 C 620.314 -2.86581 3.46686 0
M  V30 6659 C 621.633 -4.04144 1.74228 0
M  V30 6660 H 618.752 -0.607427 0.417374 0
M  V30 6661 H 621.394 -1.07089 1.56946 0
M  V30 6662 H 619.544 -3.55204 1.5736 0
M  V30 6663 H 621.216 -2.42203 3.92601 0
M  V30 6664 H 619.459 -2.21829 3.72793 0
M  V30 6665 H 620.13 -3.83381 3.97143 0
M  V30 6666 H 622.606 -3.61712 2.05678 0
M  V30 6667 H 621.482 -4.97543 2.31824 0
M  V30 6668 H 621.743 -4.36661 0.691373 0
M  V30 6669 N 620.802 -1.09834 -1.13024 0
M  V30 6670 C 622.027 -0.85909 -1.88771 0
M  V30 6671 C 622.452 0.584402 -1.78791 0
M  V30 6672 O 621.81 1.41101 -1.13842 0
M  V30 6673 C 621.858 -1.30427 -3.36186 0
M  V30 6674 O 620.962 -0.465368 -4.09766 0
M  V30 6675 H 620.303 -0.310786 -0.586778 0
M  V30 6676 H 622.833 -1.46355 -1.42973 0
M  V30 6677 H 622.843 -1.2915 -3.8702 0
M  V30 6678 H 621.518 -2.3555 -3.42767 0
M  V30 6679 H 620.095 -0.542814 -3.68928 0
M  V30 6680 N 622.28 1.30327 -0.886154 0
M  V30 6681 C 623.212 2.27079 -0.311072 0
M  V30 6682 C 624.225 1.53758 0.53502 0
M  V30 6683 O 625.414 1.74947 0.354378 0
M  V30 6684 C 622.514 3.33965 0.576228 0
M  V30 6685 C 621.687 4.36735 -0.241064 0
M  V30 6686 C 620.746 5.23028 0.576916 0
M  V30 6687 O 619.772 5.692 -0.000802231 0
M  V30 6688 N 620.974 5.49016 1.88579 0
M  V30 6689 H 623.739 2.77065 -1.14259 0
M  V30 6690 H 621.3 1.43519 -0.749258 0
M  V30 6691 H 623.292 3.88618 1.12953 0
M  V30 6692 H 621.862 2.839 1.30842 0
M  V30 6693 H 621.082 3.81932 -0.975805 0
M  V30 6694 H 622.37 5.02451 -0.801272 0
M  V30 6695 H 621.768 5.13288 2.37806 0
M  V30 6696 H 620.325 6.06539 2.38651 0
M  V30 6697 N 623.758 0.647228 1.43697 0
M  V30 6698 C 625.004 0.158422 2.0218 0
M  V30 6699 C 625.337 -1.22233 1.50907 0
M  V30 6700 O 624.612 -1.81478 0.699702 0
M  V30 6701 C 624.895 0.1627 3.59732 0
M  V30 6702 C 624.748 1.57694 4.21251 0
M  V30 6703 C 626.067 -0.504138 4.37203 0
M  V30 6704 H 623.186 0.059042 0.734631 0
M  V30 6705 H 625.828 0.826772 1.71069 0
M  V30 6706 H 623.978 -0.406414 3.86368 0
M  V30 6707 H 625.65 2.19618 4.05667 0
M  V30 6708 H 623.893 2.12603 3.7813 0
M  V30 6709 H 624.564 1.53183 5.3032 0
M  V30 6710 H 627.04 -0.0199841 4.16095 0
M  V30 6711 H 625.916 -0.470394 5.46881 0
M  V30 6712 H 626.177 -1.57726 4.13007 0
M  V30 6713 N 625.236 -1.5273 0.388769 0
M  V30 6714 C 626.647 -1.86505 -0.0853788 0
M  V30 6715 C 626.998 -1.30847 -1.46197 0
M  V30 6716 O 626.123 -0.639609 -2.06732 0
M  V30 6717 C 626.718 -3.38414 -0.161703 0
M  V30 6718 C 625.277 -3.71902 -0.580144 0
M  V30 6719 C 624.424 -2.76095 0.258218 0
M  V30 6720 H 627.375 -1.46647 0.606665 0
M  V30 6721 H 627.396 -3.67638 -0.980936 0
M  V30 6722 H 626.908 -3.78893 0.840333 0
M  V30 6723 H 625.009 -3.36992 -1.58957 0
M  V30 6724 H 625.122 -4.77902 -0.338663 0
M  V30 6725 H 623.486 -2.53195 -0.276432 0
M  V30 6726 H 624.269 -3.19411 1.25822 0
M  V30 6727 N 626.714 -0.118576 -1.57153 0
M  V30 6728 C 627.961 0.539526 -1.9518 0
M  V30 6729 C 628.289 1.66714 -1.00184 0
M  V30 6730 O 627.544 1.95683 -0.0256482 0
M  V30 6731 C 627.843 1.11303 -3.39627 0
M  V30 6732 C 627.509 0.106809 -4.50773 0
M  V30 6733 C 626.171 -0.169876 -4.809 0
M  V30 6734 C 628.523 -0.57895 -5.17975 0
M  V30 6735 C 625.851 -1.13861 -5.75545 0
M  V30 6736 C 628.203 -1.53631 -6.13661 0
M  V30 6737 C 626.867 -1.82099 -6.42181 0
M  V30 6738 H 626.137 0.197427 -0.714215 0
M  V30 6739 H 628.784 -0.199391 -1.90459 0
M  V30 6740 H 627.089 1.92869 -3.4104 0
M  V30 6741 H 628.786 1.63032 -3.66363 0
M  V30 6742 H 625.376 0.332645 -4.27307 0
M  V30 6743 H 629.56 -0.378359 -4.94856 0
M  V30 6744 H 624.816 -1.36592 -5.95947 0
M  V30 6745 H 628.99 -2.07337 -6.64819 0
M  V30 6746 H 626.617 -2.57319 -7.15326 0
M  V30 6747 N 628.193 1.56834 0.155195 0
M  V30 6748 C 629.433 1.84701 0.875488 0
M  V30 6749 C 629.797 0.701747 1.78716 0
M  V30 6750 O 630.998 0.861263 2.54629 0
M  V30 6751 C 629.269 3.1773 1.63654 0
M  V30 6752 S 630.828 3.67128 2.40338 0
M  V30 6753 H 627.646 0.647856 0.292923 0
M  V30 6754 H 630.248 1.95026 0.136024 0
M  V30 6755 H 628.952 3.99059 0.958117 0
M  V30 6756 H 628.483 3.10388 2.41708 0
M  V30 6757 H 630.498 3.35739 3.65368 0
M  V30 6758 N 629.671 -0.424282 1.51781 0
M  V30 6759 C 631.082 -1.00368 1.57427 0
M  V30 6760 C 631.433 -1.91962 0.40558 0
M  V30 6761 O 630.558 -2.111 -0.47601 0
M  V30 6762 C 631.153 -1.82707 2.85313 0
M  V30 6763 C 629.712 -2.35675 2.93487 0
M  V30 6764 C 628.859 -1.1524 2.5222 0
M  V30 6765 H 631.81 -0.205064 1.5737 0
M  V30 6766 H 631.831 -2.68294 2.69812 0
M  V30 6767 H 631.343 -1.16017 3.70353 0
M  V30 6768 H 629.444 -3.05781 2.12906 0
M  V30 6769 H 629.557 -2.67578 3.97415 0
M  V30 6770 H 627.921 -1.50174 2.05718 0
M  V30 6771 H 628.704 -0.5014 3.39619 0
M  V30 6772 N 631.149 -1.42148 -0.680565 0
M  V30 6773 C 632.374 -1.45901 -1.47403 0
M  V30 6774 C 632.799 -0.0700985 -1.87969 0
M  V30 6775 O 632.157 0.930145 -1.55621 0
M  V30 6776 C 632.205 -2.38661 -2.70321 0
M  V30 6777 O 631.309 -1.85399 -3.68376 0
M  V30 6778 H 630.65 -0.494565 -0.443059 0
M  V30 6779 H 633.18 -1.86774 -0.835251 0
M  V30 6780 H 633.19 -2.55046 -3.18458 0
M  V30 6781 H 631.865 -3.39571 -2.40134 0
M  V30 6782 H 630.442 -1.78541 -3.2738 0
M  V30 6783 N 632.627 0.916307 -1.28225 0
M  V30 6784 C 633.557 2.0352 -1.14464 0
M  V30 6785 C 634.538 1.70045 -0.0430844 0
M  V30 6786 O 635.723 1.92954 -0.219619 0
M  V30 6787 C 632.853 3.37889 -0.803027 0
M  V30 6788 C 631.807 3.85516 -1.85908 0
M  V30 6789 C 631.133 5.1682 -1.37116 0
M  V30 6790 C 632.433 4.07655 -3.26519 0
M  V30 6791 H 634.127 2.1529 -2.08064 0
M  V30 6792 H 631.673 1.03446 -1.00174 0
M  V30 6793 H 633.626 4.15654 -0.693537 0
M  V30 6794 H 632.35 3.26164 0.168674 0
M  V30 6795 H 631.009 3.09953 -1.95767 0
M  V30 6796 H 630.657 5.01497 -0.38859 0
M  V30 6797 H 630.357 5.49657 -2.07728 0
M  V30 6798 H 631.881 5.97143 -1.27484 0
M  V30 6799 H 633.295 4.75953 -3.19596 0
M  V30 6800 H 631.692 4.51818 -3.94943 0
M  V30 6801 H 632.762 3.12553 -3.70727 0
M  V30 6802 N 634.105 1.10431 1.1244 0
M  V30 6803 C 635.068 0.756542 2.16354 0
M  V30 6804 C 636.068 -0.21899 1.59302 0
M  V30 6805 O 637.258 0.00415969 1.742 0
M  V30 6806 C 634.39 0.120612 3.40687 0
M  V30 6807 H 635.583 1.67696 2.48632 0
M  V30 6808 H 633.136 0.904832 1.27446 0
M  V30 6809 H 633.871 -0.810536 3.14008 0
M  V30 6810 H 633.656 0.822693 3.83372 0
M  V30 6811 H 635.146 -0.106945 4.17463 0
M  V30 6812 N 635.583 -1.29855 0.893053 0
M  V30 6813 C 636.53 -2.27909 0.364161 0
M  V30 6814 C 637.5 -1.56726 -0.550093 0
M  V30 6815 O 638.685 -1.84747 -0.47677 0
M  V30 6816 C 635.825 -3.42678 -0.408178 0
M  V30 6817 C 634.938 -4.28659 0.536212 0
M  V30 6818 C 634.073 -5.30599 -0.252521 0
M  V30 6819 C 633.112 -6.08234 0.686822 0
M  V30 6820 N 632.249 -7.02068 -0.0670902 0
M  V30 6821 H 637.089 -2.72531 1.20544 0
M  V30 6822 H 634.626 -1.34047 0.605779 0
M  V30 6823 H 636.584 -4.07986 -0.871962 0
M  V30 6824 H 635.214 -2.99103 -1.21397 0
M  V30 6825 H 634.266 -3.63584 1.1185 0
M  V30 6826 H 635.578 -4.8274 1.25552 0
M  V30 6827 H 634.732 -6.01694 -0.777801 0
M  V30 6828 H 633.471 -4.77233 -1.005 0
M  V30 6829 H 632.476 -5.3601 1.22366 0
M  V30 6830 H 633.701 -6.63689 1.43852 0
M  V30 6831 H 631.647 -6.5108 -0.801955 0
M  V30 6832 H 631.564 -7.53675 0.59243 0
M  V30 6833 H 632.832 -7.77392 -0.572851 0
M  V30 6834 N 637.061 -0.65484 -1.43351 0
M  V30 6835 C 638.309 -0.168559 -2.01396 0
M  V30 6836 C 638.63 1.22235 -1.51933 0
M  V30 6837 O 637.9 1.81685 -0.732627 0
M  V30 6838 H 636.48 -0.0593244 -0.744641 0
M  V30 6839 H 639.142 -0.846871 -1.75539 0
M  V30 6840 H 638.238 -0.154428 -3.11718 0
M  V30 6841 N 638.539 1.52521 -0.396863 0
M  V30 6842 C 639.502 2.2527 0.422604 0
M  V30 6843 C 640.502 1.27184 0.983913 0
M  V30 6844 O 641.692 1.51222 0.864723 0
M  V30 6845 C 638.824 3.01356 1.59365 0
M  V30 6846 H 640.017 2.99133 -0.214416 0
M  V30 6847 H 637.57 1.55587 -0.149128 0
M  V30 6848 H 638.305 2.31813 2.26789 0
M  V30 6849 H 638.09 3.73357 1.19779 0
M  V30 6850 H 639.58 3.56571 2.17363 0
M  V30 6851 N 640.017 0.126909 1.57088 0
M  V30 6852 C 641.242 -0.53997 2.00248 0
M  V30 6853 C 641.667 -1.58927 1.00618 0
M  V30 6854 O 641.025 -1.81288 -0.0210131 0
M  V30 6855 C 641.073 -1.13565 3.4225 0
M  V30 6856 O 640.177 -2.25103 3.45547 0
M  V30 6857 H 639.518 -0.13412 0.650314 0
M  V30 6858 H 642.048 0.217718 2.03438 0
M  V30 6859 H 642.058 -1.46925 3.80627 0
M  V30 6860 H 640.733 -0.367122 4.14277 0
M  V30 6861 H 639.31 -1.93123 3.18995 0
M  V30 6862 N 641.495 -1.56914 -0.146875 0
M  V30 6863 C 642.723 -1.87515 -0.874394 0
M  V30 6864 C 643.138 -0.715116 -1.74733 0
M  V30 6865 O 642.495 0.315113 -1.79759 0
M  V30 6866 C 642.546 -3.17362 -1.731 0
M  V30 6867 O 642.267 -4.28897 -0.893245 0
M  V30 6868 C 643.768 -3.61479 -2.56609 0
M  V30 6869 H 640.988 -0.621546 -0.252827 0
M  V30 6870 H 643.532 -2.04023 -0.139627 0
M  V30 6871 H 641.687 -3.02608 -2.41883 0
M  V30 6872 H 642.101 -5.03146 -1.48137 0
M  V30 6873 H 643.575 -4.5517 -3.12289 0
M  V30 6874 H 644.052 -2.86773 -3.32653 0
M  V30 6875 H 644.658 -3.78927 -1.93117 0
M  V30 6876 N 642.974 0.416227 -1.52004 0
M  V30 6877 C 643.904 1.51365 -1.77795 0
M  V30 6878 C 644.885 1.58059 -0.628601 0
M  V30 6879 O 646.07 1.73447 -0.873478 0
M  V30 6880 C 643.2 2.89256 -1.92219 0
M  V30 6881 C 642.154 2.97415 -3.0778 0
M  V30 6882 C 641.48 4.37492 -3.07417 0
M  V30 6883 C 642.78 2.69551 -4.47369 0
M  V30 6884 H 644.474 1.30033 -2.69688 0
M  V30 6885 H 642.02 0.624112 -1.29772 0
M  V30 6886 H 643.973 3.66008 -2.08845 0
M  V30 6887 H 642.697 3.11866 -0.969917 0
M  V30 6888 H 641.356 2.23107 -2.90893 0
M  V30 6889 H 641.004 4.571 -2.09925 0
M  V30 6890 H 640.704 4.43877 -3.85029 0
M  V30 6891 H 642.228 5.16188 -3.26162 0
M  V30 6892 H 643.642 3.36028 -4.64497 0
M  V30 6893 H 642.039 2.87321 -5.26846 0
M  V30 6894 H 643.109 1.65029 -4.55953 0
M  V30 6895 N 644.452 1.42507 0.673017 0
M  V30 6896 C 645.868 1.25472 0.986355 0
M  V30 6897 C 646.068 0.160181 2.00862 0
M  V30 6898 O 645.124 -0.467993 2.48125 0
M  V30 6899 C 646.437 2.61219 1.48947 0
M  V30 6900 C 647.985 2.68589 1.60715 0
M  V30 6901 C 648.46 4.04707 2.14422 0
M  V30 6902 N 649.951 4.0667 2.21752 0
M  V30 6903 C 650.686 5.0881 2.64386 0
M  V30 6904 N 650.182 6.21332 3.0646 0
M  V30 6905 N 651.975 4.96166 2.64151 0
M  V30 6906 H 644.126 2.124 -0.00378532 0
M  V30 6907 H 646.389 0.946046 0.0608367 0
M  V30 6908 H 646.095 3.42179 0.812812 0
M  V30 6909 H 645.969 2.85261 2.46791 0
M  V30 6910 H 648.356 1.87974 2.27486 0
M  V30 6911 H 648.437 2.48333 0.613552 0
M  V30 6912 H 648.081 4.8578 1.48258 0
M  V30 6913 H 648.011 4.22315 3.14575 0
M  V30 6914 H 650.502 3.25438 1.92089 0
M  V30 6915 H 650.815 6.95118 3.37684 0
M  V30 6916 H 649.16 6.24835 3.04313 0
M  V30 6917 H 652.351 4.07334 2.30644 0
M  V30 6918 H 652.524 5.759 2.97057 0
M  V30 6919 N 645.93 -0.909495 1.28709 0
M  V30 6920 C 647.176 -1.66151 1.16283 0
M  V30 6921 C 647.509 -1.92067 -0.287069 0
M  V30 6922 O 646.784 -1.52409 -1.20837 0
M  V30 6923 C 647.067 -3.01676 1.9663 0
M  V30 6924 C 646.92 -2.82888 3.49707 0
M  V30 6925 C 648.239 -4.02274 1.78504 0
M  V30 6926 H 645.358 -0.602966 0.423793 0
M  V30 6927 H 648 -1.05418 1.58073 0
M  V30 6928 H 646.15 -3.53515 1.61119 0
M  V30 6929 H 647.822 -2.38026 3.95147 0
M  V30 6930 H 646.065 -2.17862 3.75125 0
M  V30 6931 H 646.736 -3.79147 4.01187 0
M  V30 6932 H 649.212 -3.59511 2.09503 0
M  V30 6933 H 648.088 -4.95056 2.37088 0
M  V30 6934 H 648.349 -4.35903 0.737647 0
M  V30 6935 N 647.408 -1.11026 -1.11852 0
M  V30 6936 C 648.358 -0.733836 -2.15868 0
M  V30 6937 C 649.342 0.26001 -1.58785 0
M  V30 6938 O 650.534 0.0677901 -1.7687 0
M  V30 6939 C 647.663 -0.173948 -3.42859 0
M  V30 6940 C 646.749 -1.1952 -4.0691 0
M  V30 6941 N 647.14 -2.38797 -4.45881 0
M  V30 6942 C 645.438 -1.03714 -4.33773 0
M  V30 6943 C 646.139 -3.03894 -4.96007 0
M  V30 6944 N 645.115 -2.31389 -4.91894 0
M  V30 6945 H 648.917 -1.64171 -2.43773 0
M  V30 6946 H 646.431 -0.988877 -1.28822 0
M  V30 6947 H 648.428 0.113836 -4.16745 0
M  V30 6948 H 647.088 0.728568 -3.16421 0
M  V30 6949 H 648.099 -2.76281 -4.38051 0
M  V30 6950 H 644.776 -0.190694 -4.17064 0
M  V30 6951 H 646.166 -4.05389 -5.35826 0
M  V30 6952 N 648.886 1.2938 -0.899927 0
M  V30 6953 C 649.796 2.31462 -0.382437 0
M  V30 6954 C 650.812 1.65956 0.522929 0
M  V30 6955 O 651.988 1.97131 0.412454 0
M  V30 6956 C 649.053 3.44595 0.381472 0
M  V30 6957 C 648.114 4.25692 -0.555444 0
M  V30 6958 C 647.347 5.33422 0.172102 0
M  V30 6959 O 647.57 5.53053 1.396 0
M  V30 6960 O 646.504 5.99939 -0.485491 0
M  V30 6961 H 650.33 2.77706 -1.22934 0
M  V30 6962 H 647.915 1.33821 -0.664259 0
M  V30 6963 H 649.797 4.13474 0.813442 0
M  V30 6964 H 648.472 3.00458 1.20443 0
M  V30 6965 H 647.379 3.59453 -1.03653 0
M  V30 6966 H 648.712 4.73471 -1.34483 0
M  V30 6967 N 650.364 0.662433 1.43002 0
M  V30 6968 C 651.594 0.187343 2.05749 0
M  V30 6969 C 652.002 -1.15582 1.49791 0
M  V30 6970 O 651.345 -1.72651 0.627487 0
M  V30 6971 C 651.407 0.0316493 3.59486 0
M  V30 6972 C 651.071 1.30156 4.38073 0
M  V30 6973 C 652.068 2.23234 4.69535 0
M  V30 6974 C 649.753 1.54572 4.77926 0
M  V30 6975 C 651.747 3.39012 5.39768 0
M  V30 6976 C 649.434 2.70641 5.47902 0
M  V30 6977 C 650.432 3.62687 5.78746 0
M  V30 6978 O 650.12 4.76728 6.47291 0
M  V30 6979 H 649.852 0.0915214 0.669776 0
M  V30 6980 H 652.406 0.905982 1.8434 0
M  V30 6981 H 650.636 -0.742451 3.79506 0
M  V30 6982 H 652.325 -0.401977 4.03905 0
M  V30 6983 H 653.091 2.05616 4.39257 0
M  V30 6984 H 648.97 0.83804 4.53319 0
M  V30 6985 H 652.514 4.10877 5.63761 0
M  V30 6986 H 648.411 2.88189 5.77596 0
M  V30 6987 H 649.179 4.76113 6.65777 0
M  V30 6988 N 651.842 -1.52309 0.404946 0
M  V30 6989 C 652.79 -2.28452 -0.437321 0
M  V30 6990 C 653.784 -1.32975 -1.04948 0
M  V30 6991 O 654.99 -1.50451 -0.988159 0
M  V30 6992 H 651.365 -0.734824 -0.159805 0
M  V30 6993 H 653.336 -2.97542 0.22615 0
M  V30 6994 C 652.085 -3.11536 -1.54404 0
M  V30 6995 H 651.408 -3.84871 -1.08233 0
M  V30 6996 H 652.848 -3.67926 -2.10729 0
M  V30 6997 C 651.307 -2.24833 -2.50902 0
M  V30 6998 O 651.837 -1.88574 -3.54687 0
M  V30 6999 N 650.043 -1.88685 -2.21012 0
M  V30 7000 H 649.59 -2.18371 -1.36646 0
M  V30 7001 H 649.548 -1.30966 -2.85824 0
M  V30 7002 N 653.32 -0.135238 -1.57019 0
M  V30 7003 C 654.568 0.51777 -1.95355 0
M  V30 7004 C 654.889 1.6617 -1.02042 0
M  V30 7005 O 654.159 1.95738 -0.0797343 0
M  V30 7006 H 652.739 0.194264 -0.721298 0
M  V30 7007 H 655.401 -0.207983 -1.93787 0
M  V30 7008 H 654.497 0.901675 -2.98791 0
M  V30 7009 N 654.798 1.5699 0.138552 0
M  V30 7010 C 655.73 1.95515 1.1961 0
M  V30 7011 C 656.743 0.852002 1.38726 0
M  V30 7012 O 657.932 1.13038 1.38147 0
M  V30 7013 C 655.032 2.2213 2.55952 0
M  V30 7014 C 654.205 3.53424 2.57702 0
M  V30 7015 C 653.264 3.6848 3.75645 0
M  V30 7016 O 652.29 4.4079 3.60129 0
M  V30 7017 N 653.492 3.05777 4.93438 0
M  V30 7018 H 656.257 2.86838 0.868557 0
M  V30 7019 H 653.818 1.58542 0.328033 0
M  V30 7020 H 655.81 2.29435 3.33379 0
M  V30 7021 H 654.38 1.3703 2.80965 0
M  V30 7022 H 653.6 3.57484 1.6613 0
M  V30 7023 H 654.888 4.39759 2.55909 0
M  V30 7024 H 654.286 2.46961 5.08947 0
M  V30 7025 H 652.843 3.18631 5.6861 0
M  V30 7026 N 656.276 -0.40816 1.52223 0
M  V30 7027 C 657.209 -1.51834 1.70357 0
M  V30 7028 C 658.187 -1.52973 0.551171 0
M  V30 7029 O 659.371 -1.71667 0.778642 0
M  V30 7030 C 656.498 -2.90362 1.74378 0
M  V30 7031 C 655.544 -3.0713 2.95928 0
M  V30 7032 S 656.377 -2.80342 4.56255 0
M  V30 7033 C 657.533 -4.21098 4.63063 0
M  V30 7034 H 657.766 -1.36223 2.64255 0
M  V30 7035 H 655.299 -0.599798 1.42274 0
M  V30 7036 H 657.257 -3.70199 1.77379 0
M  V30 7037 H 655.918 -3.03314 0.816063 0
M  V30 7038 H 655.111 -4.08482 2.95226 0
M  V30 7039 H 654.713 -2.3516 2.90819 0
M  V30 7040 H 657.005 -5.14749 4.40499 0
M  V30 7041 H 657.948 -4.26823 5.65002 0
M  V30 7042 H 658.356 -4.06114 3.92086 0
M  V30 7043 N 657.755 -1.42862 -0.66545 0
M  V30 7044 C 658.705 -1.43521 -1.7716 0
M  V30 7045 C 659.689 -0.305267 -1.57978 0
M  V30 7046 O 660.881 -0.548176 -1.68297 0
M  V30 7047 C 658.01 -1.34914 -3.15679 0
M  V30 7048 C 657.096 -2.5289 -3.40452 0
M  V30 7049 N 657.487 -3.78284 -3.3576 0
M  V30 7050 C 655.785 -2.47351 -3.71124 0
M  V30 7051 C 656.486 -4.56701 -3.60276 0
M  V30 7052 N 655.462 -3.87249 -3.81496 0
M  V30 7053 H 659.264 -2.38357 -1.7194 0
M  V30 7054 H 656.778 -1.37342 -0.866653 0
M  V30 7055 H 658.775 -1.33468 -3.94958 0
M  V30 7056 H 657.435 -0.410881 -3.2209 0
M  V30 7057 H 658.446 -4.10746 -3.15448 0
M  V30 7058 H 655.123 -1.62152 -3.84725 0
M  V30 7059 H 656.513 -5.65704 -3.6253 0
M  V30 7060 N 659.233 0.902656 -1.29189 0
M  V30 7061 C 660.461 1.68639 -1.19869 0
M  V30 7062 C 660.876 1.87254 0.241121 0
M  V30 7063 O 660.233 1.40745 1.16177 0
M  V30 7064 C 660.284 3.07251 -1.90471 0
M  V30 7065 O 660.005 2.89488 -3.28829 0
M  V30 7066 C 661.506 4.01653 -1.8759 0
M  V30 7067 H 658.726 0.526802 -0.415596 0
M  V30 7068 H 661.27 1.12901 -1.7051 0
M  V30 7069 H 659.425 3.59774 -1.43672 0
M  V30 7070 H 659.839 3.77296 -3.64346 0
M  V30 7071 H 661.313 4.96339 -2.4156 0
M  V30 7072 H 661.79 4.30881 -0.850756 0
M  V30 7073 H 662.396 3.55061 -2.34119 0
M  V30 7074 N 660.711 1.11618 1.11262 0
M  V30 7075 C 661.958 0.86618 1.8304 0
M  V30 7076 C 662.286 -0.608149 1.84748 0
M  V30 7077 O 661.541 -1.46508 1.29745 0
M  V30 7078 C 661.84 1.37529 3.2988 0
M  V30 7079 C 661.506 2.86317 3.4833 0
M  V30 7080 C 660.168 3.26945 3.53073 0
M  V30 7081 C 662.52 3.82136 3.54431 0
M  V30 7082 C 659.848 4.62117 3.61475 0
M  V30 7083 C 662.2 5.17128 3.64365 0
M  V30 7084 C 660.864 5.57312 3.67369 0
M  V30 7085 H 660.134 0.316958 0.66979 0
M  V30 7086 H 662.781 1.3949 1.31205 0
M  V30 7087 H 661.086 0.766842 3.84222 0
M  V30 7088 H 662.783 1.15817 3.83911 0
M  V30 7089 H 659.373 2.53889 3.45309 0
M  V30 7090 H 663.557 3.51847 3.50025 0
M  V30 7091 H 658.813 4.92655 3.62079 0
M  V30 7092 H 662.987 5.91208 3.68029 0
M  V30 7093 H 660.614 6.62045 3.73632 0
M  V30 7094 N 662.189 -1.289 0.906776 0
M  V30 7095 C 663.414 -1.99939 0.551303 0
M  V30 7096 C 663.839 -1.67366 -0.858496 0
M  V30 7097 O 663.197 -0.902176 -1.57259 0
M  V30 7098 C 663.245 -3.52523 0.758937 0
M  V30 7099 O 662.349 -4.11983 -0.185308 0
M  V30 7100 H 661.69 -0.628376 0.214568 0
M  V30 7101 H 664.22 -1.64225 1.2203 0
M  V30 7102 H 664.23 -4.02522 0.666329 0
M  V30 7103 H 662.905 -3.75566 1.78671 0
M  V30 7104 H 661.482 -3.72873 -0.0445577 0
M  V30 7105 N 663.667 -0.670007 -1.42649 0
M  V30 7106 C 664.944 -0.119451 -1.95235 0
M  V30 7107 C 665.324 1.36461 -1.61064 0
M  V30 7108 O 664.672 2.09843 -0.904329 0
M  V30 7109 C 664.882 -0.383498 -3.46887 0
M  V30 7110 C 666.23 -0.297431 -4.23557 0
M  V30 7111 O 667.254 -0.31698 -3.54787 0
M  V30 7112 O 666.113 -0.235507 -5.45992 0
M  V30 7113 H 663.207 -8.85474e-05 -0.827 0
M  V30 7114 H 665.753 -0.744406 -1.52501 0
M  V30 7115 H 664.525 -1.41174 -3.64946 0
M  V30 7116 H 664.148 0.273702 -3.96657 0
M  V30 7117 N 665.145 1.52092 -0.413018 0
M  V30 7118 C 666.077 2.24819 0.445994 0
M  V30 7119 C 667.09 1.27925 1.00692 0
M  V30 7120 O 668.279 1.53845 0.905204 0
M  V30 7121 C 665.379 2.96951 1.6332 0
M  V30 7122 C 664.552 4.20746 1.19548 0
M  V30 7123 C 663.611 4.75668 2.25003 0
M  V30 7124 O 662.637 5.38148 1.85434 0
M  V30 7125 N 663.839 4.57579 3.57214 0
M  V30 7126 H 666.604 2.99176 -0.177209 0
M  V30 7127 H 664.165 1.60102 -0.240601 0
M  V30 7128 H 666.157 3.30586 2.33441 0
M  V30 7129 H 664.727 2.25756 2.16225 0
M  V30 7130 H 663.947 3.92881 0.32224 0
M  V30 7131 H 665.235 5.01132 0.880033 0
M  V30 7132 H 664.633 4.07758 3.92109 0
M  V30 7133 H 663.19 4.95642 4.23299 0
M  V30 7134 N 666.623 0.143563 1.56945 0
M  V30 7135 C 667.869 -0.502787 1.97088 0
M  V30 7136 C 668.224 -1.62703 1.02691 0
M  V30 7137 O 667.517 -1.91502 0.0613323 0
M  V30 7138 C 667.711 -1.05885 3.41355 0
M  V30 7139 C 667.54 0.00998209 4.49699 0
M  V30 7140 C 666.31 0.450229 5.0329 0
M  V30 7141 C 668.508 0.800174 5.08037 0
M  V30 7142 N 666.49 1.50227 5.95235 0
M  V30 7143 C 667.861 1.70279 5.96158 0
M  V30 7144 C 669.916 0.848344 4.9062 0
M  V30 7145 C 668.619 2.64945 6.68728 0
M  V30 7146 C 670.645 1.78281 5.63888 0
M  V30 7147 C 670.007 2.67296 6.51715 0
M  V30 7148 H 666.106 -0.152891 0.766908 0
M  V30 7149 H 668.69 0.23737 1.93248 0
M  V30 7150 H 666.861 -1.76863 3.45795 0
M  V30 7151 H 668.593 -1.67154 3.68567 0
M  V30 7152 H 665.348 0.0531355 4.7357 0
M  V30 7153 H 665.772 2.02795 6.45913 0
M  V30 7154 H 670.414 0.174228 4.22441 0
M  V30 7155 H 668.132 3.33358 7.36137 0
M  V30 7156 H 671.718 1.82584 5.52408 0
M  V30 7157 H 670.598 3.38428 7.07415 0
M  V30 7158 N 668.101 -1.57061 -0.130224 0
M  V30 7159 C 669.349 -1.83893 -0.838313 0
M  V30 7160 C 669.67 -0.727046 -1.80939 0
M  V30 7161 O 668.94 0.249927 -1.94299 0
M  V30 7162 H 667.52 -0.67846 -0.312573 0
M  V30 7163 H 670.182 -1.94529 -0.120224 0
M  V30 7164 H 669.278 -2.79419 -1.39038 0
M  V30 7165 N 669.579 0.400081 -1.52437 0
M  V30 7166 C 670.489 1.51253 -1.79331 0
M  V30 7167 C 671.505 1.60188 -0.679396 0
M  V30 7168 O 672.681 1.76733 -0.965791 0
M  V30 7169 C 669.746 2.869 -1.94652 0
M  V30 7170 C 668.807 2.87777 -3.18564 0
M  V30 7171 C 668.04 4.16954 -3.33145 0
M  V30 7172 O 668.263 5.11329 -2.52783 0
M  V30 7173 O 667.197 4.2487 -4.26343 0
M  V30 7174 H 671.023 1.31461 -2.73773 0
M  V30 7175 H 668.608 0.586834 -1.37392 0
M  V30 7176 H 670.49 3.67336 -2.065 0
M  V30 7177 H 669.165 3.06741 -1.034 0
M  V30 7178 H 668.072 2.06162 -3.12167 0
M  V30 7179 H 669.405 2.72886 -4.09627 0
M  V30 7180 N 671.057 1.43213 0.657864 0
M  V30 7181 C 672.473 1.26511 0.972992 0
M  V30 7182 C 672.673 0.181477 2.00681 0
M  V30 7183 O 671.729 -0.441649 2.48608 0
M  V30 7184 C 673.042 2.62784 1.46168 0
M  V30 7185 C 674.59 2.70278 1.57857 0
M  V30 7186 C 675.065 4.06958 2.10117 0
M  V30 7187 N 676.556 4.08999 2.17426 0
M  V30 7188 C 677.291 5.11585 2.58975 0
M  V30 7189 N 676.787 6.24548 2.99853 0
M  V30 7190 N 678.58 4.9894 2.58873 0
M  V30 7191 H 670.731 2.12384 -0.0263129 0
M  V30 7192 H 672.994 0.946638 0.0507992 0
M  V30 7193 H 672.7 3.43022 0.776474 0
M  V30 7194 H 672.574 2.87863 2.43751 0
M  V30 7195 H 674.961 1.90376 2.25479 0
M  V30 7196 H 675.042 2.4897 0.587179 0
M  V30 7197 H 674.686 4.87325 1.43098 0
M  V30 7198 H 674.616 4.25628 3.10078 0
M  V30 7199 H 677.107 3.27457 1.88627 0
M  V30 7200 H 677.42 6.98661 3.30292 0
M  V30 7201 H 675.765 6.28027 2.97669 0
M  V30 7202 H 678.956 4.09757 2.26311 0
M  V30 7203 H 679.129 5.79019 2.90932 0
M  V30 7204 N 672.536 -0.895792 1.29666 0
M  V30 7205 C 673.469 -2.00238 1.09453 0
M  V30 7206 C 674.447 -1.62599 0.00527044 0
M  V30 7207 O 675.631 -1.87847 0.156729 0
M  V30 7208 C 672.758 -3.32066 0.667054 0
M  V30 7209 C 671.804 -3.88691 1.7556 0
M  V30 7210 S 672.637 -4.17317 3.35569 0
M  V30 7211 C 673.793 -5.52181 2.94698 0
M  V30 7212 H 674.026 -2.17076 2.03138 0
M  V30 7213 H 671.559 -1.04287 1.13858 0
M  V30 7214 H 673.517 -4.08272 0.427136 0
M  V30 7215 H 672.178 -3.13101 -0.250256 0
M  V30 7216 H 671.371 -4.83918 1.40853 0
M  V30 7217 H 670.973 -3.19187 1.94924 0
M  V30 7218 H 673.265 -6.3281 2.41986 0
M  V30 7219 H 674.208 -5.91817 3.88791 0
M  V30 7220 H 674.616 -5.14225 2.32879 0
M  V30 7221 N 674.014 -1.12206 -1.10668 0
M  V30 7222 C 675.26 -0.887096 -1.83036 0
M  V30 7223 C 675.615 0.580887 -1.83422 0
M  V30 7224 O 674.908 1.42379 -1.28213 0
M  V30 7225 C 675.102 -1.39276 -3.29146 0
M  V30 7226 C 674.931 -2.90837 -3.42992 0
M  V30 7227 C 673.701 -3.59047 -3.55546 0
M  V30 7228 C 675.899 -3.8885 -3.36601 0
M  V30 7229 N 673.881 -4.98747 -3.57945 0
M  V30 7230 C 675.252 -5.14666 -3.45716 0
M  V30 7231 C 677.307 -3.81296 -3.20184 0
M  V30 7232 C 676.01 -6.33814 -3.40106 0
M  V30 7233 C 678.036 -4.99965 -3.15895 0
M  V30 7234 C 677.398 -6.24637 -3.25589 0
M  V30 7235 H 673.497 -0.377857 -0.684652 0
M  V30 7236 H 676.081 -1.42791 -1.32358 0
M  V30 7237 H 674.252 -0.879026 -3.78322 0
M  V30 7238 H 675.984 -1.10011 -3.89461 0
M  V30 7239 H 672.739 -3.09533 -3.5845 0
M  V30 7240 H 673.163 -5.71606 -3.62762 0
M  V30 7241 H 677.805 -2.85806 -3.11569 0
M  V30 7242 H 675.523 -7.29574 -3.47487 0
M  V30 7243 H 679.109 -4.95847 -3.04347 0
M  V30 7244 H 677.989 -7.14921 -3.22269 0
M  V30 7245 N 675.492 1.28418 -0.913599 0
M  V30 7246 C 676.422 2.29713 -0.418847 0
M  V30 7247 C 677.403 1.62165 0.513469 0
M  V30 7248 O 678.588 1.89576 0.421235 0
M  V30 7249 C 675.718 3.45612 0.342042 0
M  V30 7250 C 674.672 4.25056 -0.501123 0
M  V30 7251 C 673.998 5.3329 0.388097 0
M  V30 7252 C 675.298 4.91814 -1.75831 0
M  V30 7253 H 676.992 2.71346 -1.26538 0
M  V30 7254 H 674.538 1.30446 -0.609903 0
M  V30 7255 H 676.491 4.15562 0.699 0
M  V30 7256 H 675.215 3.02858 1.22248 0
M  V30 7257 H 673.874 3.56833 -0.840598 0
M  V30 7258 H 673.522 4.8678 1.26707 0
M  V30 7259 H 673.222 5.87347 -0.172459 0
M  V30 7260 H 674.746 6.06088 0.74094 0
M  V30 7261 H 676.16 5.54126 -1.47026 0
M  V30 7262 H 674.557 5.55866 -2.26126 0
M  V30 7263 H 675.627 4.16313 -2.4862 0
M  V30 7264 N 676.97 0.677563 1.42291 0
M  V30 7265 C 677.933 0.0101085 2.29198 0
M  V30 7266 C 678.933 -0.726219 1.43467 0
M  V30 7267 O 680.123 -0.563807 1.64824 0
M  V30 7268 C 677.255 -0.996316 3.26016 0
M  V30 7269 H 678.448 0.775071 2.89711 0
M  V30 7270 H 676.001 0.440065 1.49977 0
M  V30 7271 H 676.736 -1.78967 2.70446 0
M  V30 7272 H 676.521 -0.471687 3.89253 0
M  V30 7273 H 678.011 -1.46167 3.91184 0
M  V30 7274 N 678.448 -1.51871 0.421078 0
M  V30 7275 C 679.358 -2.31077 -0.405069 0
M  V30 7276 C 680.374 -1.39301 -1.04265 0
M  V30 7277 O 681.55 -1.72376 -1.04157 0
M  V30 7278 C 678.615 -3.12556 -1.50032 0
M  V30 7279 C 677.676 -4.20088 -0.884559 0
M  V30 7280 C 676.909 -4.97673 -1.92762 0
M  V30 7281 O 677.132 -4.75696 -3.14753 0
M  V30 7282 O 676.066 -5.82203 -1.52719 0
M  V30 7283 H 679.892 -3.02742 0.241086 0
M  V30 7284 H 677.477 -1.48263 0.183991 0
M  V30 7285 H 679.359 -3.6326 -2.13589 0
M  V30 7286 H 678.034 -2.43672 -2.13086 0
M  V30 7287 H 676.941 -3.73502 -0.211379 0
M  V30 7288 H 678.274 -4.91298 -0.297763 0
M  V30 7289 N 679.926 -0.151884 -1.56866 0
M  V30 7290 C 681.337 0.368128 -1.83035 0
M  V30 7291 C 681.688 1.64402 -1.07082 0
M  V30 7292 O 680.813 2.14056 -0.317647 0
M  V30 7293 C 681.408 0.674676 -3.32014 0
M  V30 7294 C 679.967 1.13919 -3.58747 0
M  V30 7295 C 679.114 0.164833 -2.7681 0
M  V30 7296 H 682.065 -0.376499 -1.54169 0
M  V30 7297 H 682.086 1.52883 -3.48435 0
M  V30 7298 H 681.598 -0.254113 -3.87267 0
M  V30 7299 H 679.699 2.08375 -3.08886 0
M  V30 7300 H 679.812 1.06179 -4.67186 0
M  V30 7301 H 678.176 0.658419 -2.46043 0
M  V30 7302 H 678.959 -0.757633 -3.34836 0
M  V30 7303 N 681.404 1.57128 0.121893 0
M  V30 7304 C 682.314 2.03425 1.16857 0
M  V30 7305 C 683.33 0.954108 1.45509 0
M  V30 7306 O 684.506 1.26541 1.56682 0
M  V30 7307 C 681.571 2.42685 2.47599 0
M  V30 7308 C 680.632 3.64767 2.2637 0
M  V30 7309 C 679.865 4.02145 3.50878 0
M  V30 7310 O 680.088 3.39897 4.58068 0
M  V30 7311 O 679.022 4.95262 3.42051 0
M  V30 7312 H 682.848 2.92825 0.80544 0
M  V30 7313 H 680.433 1.45654 0.332477 0
M  V30 7314 H 682.315 2.68684 3.24634 0
M  V30 7315 H 680.99 1.56432 2.83392 0
M  V30 7316 H 679.897 3.43922 1.47203 0
M  V30 7317 H 681.23 4.51716 1.95482 0
M  V30 7318 N 682.882 -0.391992 1.52647 0
M  V30 7319 C 684.298 -0.731848 1.41831 0
M  V30 7320 C 684.498 -1.9423 0.536361 0
M  V30 7321 O 683.554 -2.52499 0.00866571 0
M  V30 7322 C 684.867 -0.969743 2.84634 0
M  V30 7323 C 686.415 -1.0714 2.94092 0
M  V30 7324 C 686.89 -1.34195 4.37899 0
M  V30 7325 N 688.381 -1.41023 4.41211 0
M  V30 7326 C 689.116 -1.63616 5.49561 0
M  V30 7327 N 688.612 -1.83699 6.68002 0
M  V30 7328 N 690.405 -1.65771 5.371 0
M  V30 7329 H 682.556 0.404547 2.08512 0
M  V30 7330 H 684.819 0.11879 0.940528 0
M  V30 7331 H 684.525 -0.152465 3.51369 0
M  V30 7332 H 684.399 -1.88523 3.26709 0
M  V30 7333 H 686.786 -1.87925 2.27526 0
M  V30 7334 H 686.867 -0.133887 2.55449 0
M  V30 7335 H 686.511 -0.539207 5.0503 0
M  V30 7336 H 686.441 -2.29226 4.74092 0
M  V30 7337 H 688.932 -1.27223 3.55841 0
M  V30 7338 H 689.245 -2.00437 7.46354 0
M  V30 7339 H 687.59 -1.8093 6.71036 0
M  V30 7340 H 690.781 -1.4963 4.43541 0
M  V30 7341 H 690.954 -1.83038 6.21612 0
M  V30 7342 N 684.36 -1.4356 -0.65026 0
M  V30 7343 C 685.59 -1.48563 -1.4357 0
M  V30 7344 C 685.998 -0.103041 -1.88919 0
M  V30 7345 O 685.341 0.897602 -1.60277 0
M  V30 7346 C 685.403 -2.37181 -2.70158 0
M  V30 7347 C 685.067 -3.84673 -2.4673 0
M  V30 7348 C 686.064 -4.75704 -2.09765 0
M  V30 7349 C 683.749 -4.29189 -2.60963 0
M  V30 7350 C 685.743 -6.09249 -1.87334 0
M  V30 7351 C 683.43 -5.62787 -2.38147 0
M  V30 7352 C 684.428 -6.52634 -2.01389 0
M  V30 7353 O 684.116 -7.83761 -1.78813 0
M  V30 7354 H 683.848 -0.506743 -0.447423 0
M  V30 7355 H 686.402 -1.89001 -0.80423 0
M  V30 7356 H 684.632 -1.91636 -3.35876 0
M  V30 7357 H 686.321 -2.33354 -3.32116 0
M  V30 7358 H 687.087 -4.42589 -1.98343 0
M  V30 7359 H 682.966 -3.59529 -2.88548 0
M  V30 7360 H 686.51 -6.7934 -1.58567 0
M  V30 7361 H 682.407 -5.95469 -2.49173 0
M  V30 7362 H 683.175 -7.95368 -1.93214 0
M  V30 7363 N 685.838 0.888903 -1.30139 0
M  V30 7364 C 686.748 2.02705 -1.18101 0
M  V30 7365 C 687.764 1.73702 -0.101809 0
M  V30 7366 O 688.94 1.98906 -0.315984 0
M  V30 7367 C 686.005 3.35616 -0.869651 0
M  V30 7368 C 685.066 3.78067 -2.03381 0
M  V30 7369 C 684.299 5.04635 -1.73721 0
M  V30 7370 O 684.522 5.66531 -0.663267 0
M  V30 7371 O 683.456 5.43399 -2.58845 0
M  V30 7372 H 687.282 2.15788 -2.13704 0
M  V30 7373 H 684.867 1.01426 -1.09695 0
M  V30 7374 H 686.749 4.15358 -0.711043 0
M  V30 7375 H 685.424 3.23651 0.0565002 0
M  V30 7376 H 684.331 2.99046 -2.24772 0
M  V30 7377 H 685.664 3.94631 -2.94155 0
M  V30 7378 N 687.317 1.12792 1.10072 0
M  V30 7379 C 688.557 0.895691 1.8373 0
M  V30 7380 C 688.921 -0.568131 1.83402 0
M  V30 7381 O 690.122 -0.917666 2.52651 0
M  V30 7382 C 688.393 1.4593 3.2625 0
M  V30 7383 S 689.952 1.36615 4.16991 0
M  V30 7384 H 686.77 0.323017 0.633389 0
M  V30 7385 H 689.372 1.43816 1.32428 0
M  V30 7386 H 688.076 2.51818 3.24062 0
M  V30 7387 H 687.607 0.914478 3.82624 0
M  V30 7388 H 689.622 0.340131 4.95033 0
M  V30 7389 N 688.795 -1.27931 0.920396 0
M  V30 7390 C 689.727 -2.26175 0.371169 0
M  V30 7391 C 690.74 -1.55122 -0.494065 0
M  V30 7392 O 691.929 -1.75825 -0.30787 0
M  V30 7393 C 689.029 -3.35376 -0.487481 0
M  V30 7394 C 688.202 -4.35943 0.356772 0
M  V30 7395 C 687.261 -5.24374 -0.438042 0
M  V30 7396 O 686.287 -5.68998 0.151715 0
M  V30 7397 N 687.489 -5.53823 -1.73956 0
M  V30 7398 H 690.254 -2.73938 1.21564 0
M  V30 7399 H 687.815 -1.41482 0.787047 0
M  V30 7400 H 689.807 -3.91476 -1.02609 0
M  V30 7401 H 688.377 -2.87269 -1.23269 0
M  V30 7402 H 687.597 -3.7921 1.07672 0
M  V30 7403 H 688.885 -5.0015 0.934206 0
M  V30 7404 H 688.283 -5.19413 -2.24114 0
M  V30 7405 H 686.84 -6.12653 -2.22486 0
M  V30 7406 N 690.273 -0.685099 -1.4193 0
M  V30 7407 C 691.221 -0.00165985 -2.326 0
M  V30 7408 C 692.215 0.779678 -1.50391 0
M  V30 7409 O 693.421 0.68648 -1.66395 0
M  V30 7410 H 689.796 0.0182616 -0.751778 0
M  V30 7411 H 691.767 -0.783592 -2.87928 0
M  V30 7412 C 690.516 0.928385 -3.35077 0
M  V30 7413 H 689.839 0.336578 -3.98381 0
M  V30 7414 H 691.279 1.37509 -4.01083 0
M  V30 7415 C 689.738 2.03964 -2.68142 0
M  V30 7416 O 690.268 3.12727 -2.5212 0
M  V30 7417 N 688.474 1.81433 -2.27003 0
M  V30 7418 H 688.021 0.929807 -2.40234 0
M  V30 7419 H 687.979 2.55973 -1.82552 0
M  V30 7420 N 691.751 1.51645 -0.429126 0
M  V30 7421 C 693 2.01203 0.141538 0
M  V30 7422 C 693.313 1.31828 1.44502 0
M  V30 7423 O 694.519 1.7231 2.09813 0
M  V30 7424 C 692.975 3.58624 0.302786 0
M  V30 7425 C 692.583 4.3693 -0.989775 0
M  V30 7426 C 694.327 4.16353 0.827661 0
M  V30 7427 C 692.234 5.86037 -0.794619 0
M  V30 7428 H 691.164 0.751867 0.05667 0
M  V30 7429 H 693.815 1.74822 -0.557633 0
M  V30 7430 H 692.197 3.81417 1.06476 0
M  V30 7431 H 693.371 4.25887 -1.75945 0
M  V30 7432 H 691.686 3.90614 -1.44256 0
M  V30 7433 H 694.283 5.25455 0.990026 0
M  V30 7434 H 694.626 3.74995 1.80787 0
M  V30 7435 H 695.159 3.97606 0.124213 0
M  V30 7436 H 691.898 6.31792 -1.74697 0
M  V30 7437 H 691.418 5.99765 -0.0645968 0
M  V30 7438 H 693.097 6.45471 -0.444591 0
M  V30 7439 N 693.229 0.160201 1.56784 0
M  V30 7440 C 694.476 -0.487588 1.96542 0
M  V30 7441 C 694.804 -1.63999 1.04569 0
M  V30 7442 O 694.059 -1.95546 0.0775211 0
M  V30 7443 C 694.358 -1.02259 3.42459 0
M  V30 7444 C 694.024 0.0127436 4.50898 0
M  V30 7445 C 692.686 0.297318 4.80281 0
M  V30 7446 C 695.038 0.716078 5.16257 0
M  V30 7447 C 692.366 1.29081 5.72324 0
M  V30 7448 C 694.718 1.69847 6.09372 0
M  V30 7449 C 693.382 1.99061 6.37127 0
M  V30 7450 H 692.652 -0.178421 0.719199 0
M  V30 7451 H 695.299 0.249818 1.89864 0
M  V30 7452 H 693.604 -1.8376 3.46034 0
M  V30 7453 H 695.301 -1.53261 3.70556 0
M  V30 7454 H 691.891 -0.219235 4.28039 0
M  V30 7455 H 696.075 0.509428 4.93679 0
M  V30 7456 H 691.331 1.52344 5.92116 0
M  V30 7457 H 695.505 2.2489 6.59088 0
M  V30 7458 H 693.132 2.76194 7.08252 0
M  V30 7459 N 694.707 -1.5719 -0.113559 0
M  V30 7460 C 695.617 -2.04041 -1.15777 0
M  V30 7461 C 696.633 -0.961812 -1.45001 0
M  V30 7462 O 697.809 -1.2737 -1.56009 0
M  V30 7463 C 694.874 -2.43994 -2.46308 0
M  V30 7464 C 693.935 -3.65962 -2.24433 0
M  V30 7465 C 693.168 -4.04 -3.4874 0
M  V30 7466 O 693.391 -3.42321 -4.56259 0
M  V30 7467 O 692.325 -4.97069 -3.3942 0
M  V30 7468 H 696.151 -2.93248 -0.789899 0
M  V30 7469 H 693.736 -1.45828 -0.324748 0
M  V30 7470 H 695.618 -2.70401 -3.23204 0
M  V30 7471 H 694.293 -1.57932 -2.82558 0
M  V30 7472 H 693.2 -3.44697 -1.45377 0
M  V30 7473 H 694.533 -4.52746 -1.93084 0
M  V30 7474 N 696.185 0.383891 -1.52853 0
M  V30 7475 C 697.117 1.48889 -1.74255 0
M  V30 7476 C 698.13 1.50405 -0.623063 0
M  V30 7477 O 699.319 1.54215 -0.898887 0
M  V30 7478 C 696.419 2.87721 -1.79081 0
M  V30 7479 C 695.592 3.10111 -3.08464 0
M  V30 7480 C 694.651 4.28954 -3.0477 0
M  V30 7481 O 693.677 4.25012 -3.78621 0
M  V30 7482 N 694.879 5.35411 -2.24311 0
M  V30 7483 H 697.644 1.30915 -2.69595 0
M  V30 7484 H 695.205 0.573454 -1.51404 0
M  V30 7485 H 697.197 3.65333 -1.7411 0
M  V30 7486 H 695.767 2.99029 -0.911052 0
M  V30 7487 H 694.987 2.20319 -3.26884 0
M  V30 7488 H 696.275 3.21928 -3.94005 0
M  V30 7489 H 695.673 5.41471 -1.63787 0
M  V30 7490 H 694.23 6.1167 -2.25175 0
M  V30 7491 N 697.663 1.43903 0.642637 0
M  V30 7492 C 698.893 1.49323 1.4278 0
M  V30 7493 C 699.301 0.113058 1.88862 0
M  V30 7494 O 698.644 -0.889089 1.60751 0
M  V30 7495 C 698.706 2.3861 2.68897 0
M  V30 7496 C 698.37 3.85976 2.44687 0
M  V30 7497 C 699.367 4.7681 2.07239 0
M  V30 7498 C 697.052 4.30567 2.58683 0
M  V30 7499 C 699.046 6.10234 1.841 0
M  V30 7500 C 696.733 5.64042 2.35159 0
M  V30 7501 C 697.731 6.53693 1.97925 0
M  V30 7502 O 697.419 7.84698 1.74654 0
M  V30 7503 H 697.151 0.509109 0.444729 0
M  V30 7504 H 699.705 1.89425 0.794195 0
M  V30 7505 H 697.935 1.93415 3.34855 0
M  V30 7506 H 699.624 2.35112 3.30873 0
M  V30 7507 H 700.39 4.43635 1.95993 0
M  V30 7508 H 696.269 3.61054 2.86637 0
M  V30 7509 H 699.813 6.80171 1.54962 0
M  V30 7510 H 695.71 5.96782 2.46011 0
M  V30 7511 H 696.478 7.96382 1.88993 0
M  V30 7512 N 699.141 -0.881989 1.30609 0
M  V30 7513 C 700.051 -2.02076 1.19174 0
M  V30 7514 C 701.067 -1.73645 0.11102 0
M  V30 7515 O 702.243 -1.98735 0.326528 0
M  V30 7516 C 699.308 -3.3515 0.887438 0
M  V30 7517 C 698.369 -3.76983 2.05383 0
M  V30 7518 C 697.602 -5.03707 1.76395 0
M  V30 7519 O 697.825 -5.66171 0.693302 0
M  V30 7520 O 696.759 -5.42019 2.61723 0
M  V30 7521 H 700.585 -2.14652 2.14845 0
M  V30 7522 H 698.17 -1.00843 1.10232 0
M  V30 7523 H 700.052 -4.14975 0.73306 0
M  V30 7524 H 698.727 -3.23676 -0.0393354 0
M  V30 7525 H 697.634 -2.97849 2.26355 0
M  V30 7526 H 698.967 -3.93066 2.96243 0
M  V30 7527 N 700.619 -1.13374 -1.09472 0
M  V30 7528 C 701.867 -0.893422 -1.8128 0
M  V30 7529 C 702.188 0.582029 -1.86111 0
M  V30 7530 O 701.458 1.42305 -1.34633 0
M  V30 7531 H 700.038 -0.327543 -0.67136 0
M  V30 7532 H 702.7 -1.43018 -1.32408 0
M  V30 7533 H 701.796 -1.28374 -2.84476 0
M  V30 7534 N 702.098 1.27442 -0.927168 0
M  V30 7535 C 703.514 1.46754 -0.627329 0
M  V30 7536 C 703.714 1.83902 0.823549 0
M  V30 7537 O 702.77 1.95215 1.60148 0
M  V30 7538 C 704.083 2.56045 -1.57674 0
M  V30 7539 C 705.631 2.69906 -1.58491 0
M  V30 7540 C 706.106 3.82355 -2.52128 0
M  V30 7541 N 707.597 3.89728 -2.50332 0
M  V30 7542 C 708.332 4.76155 -3.19475 0
M  V30 7543 N 707.828 5.67073 -3.97995 0
M  V30 7544 N 709.621 4.6988 -3.08496 0
M  V30 7545 H 701.772 1.01613 -1.86517 0
M  V30 7546 H 704.035 0.507443 -0.800753 0
M  V30 7547 H 703.741 2.35542 -2.61176 0
M  V30 7548 H 703.615 3.53423 -1.31804 0
M  V30 7549 H 706.002 2.89792 -0.557208 0
M  V30 7550 H 706.083 1.73018 -1.8841 0
M  V30 7551 H 705.727 3.63224 -3.55008 0
M  V30 7552 H 705.657 4.7867 -2.19505 0
M  V30 7553 H 708.148 3.24717 -1.93306 0
M  V30 7554 H 708.461 6.2988 -4.4774 0
M  V30 7555 H 706.806 5.6687 -4.02098 0
M  V30 7556 H 709.997 3.97848 -2.46646 0
M  V30 7557 H 710.17 5.37017 -3.62652 0
M  V30 7558 N 703.576 0.692616 1.41565 0
M  V30 7559 C 704.486 0.0258451 2.34586 0
M  V30 7560 C 705.502 -0.769324 1.56069 0
M  V30 7561 O 706.678 -0.707563 1.88562 0
M  V30 7562 C 703.743 -0.901289 3.3478 0
M  V30 7563 C 702.804 -0.0986579 4.29187 0
M  V30 7564 C 702.037 -0.981634 5.24595 0
M  V30 7565 O 702.26 -2.22115 5.25377 0
M  V30 7566 O 701.194 -0.432892 6.00341 0
M  V30 7567 H 705.02 0.792537 2.93177 0
M  V30 7568 H 702.605 0.452935 1.42369 0
M  V30 7569 H 704.487 -1.43302 3.96286 0
M  V30 7570 H 703.162 -1.64752 2.78637 0
M  V30 7571 H 702.069 0.477604 3.71039 0
M  V30 7572 H 703.402 0.608848 4.8842 0
M  V30 7573 N 705.054 -1.51416 0.437162 0
M  V30 7574 C 705.984 -2.30631 -0.364922 0
M  V30 7575 C 706.965 -1.36037 -1.02118 0
M  V30 7576 O 708.15 -1.64956 -1.02485 0
M  V30 7577 C 705.28 -3.1482 -1.46648 0
M  V30 7578 C 704.234 -4.17691 -0.933717 0
M  V30 7579 C 703.56 -4.904 -2.13101 0
M  V30 7580 C 704.86 -5.2229 0.0317201 0
M  V30 7581 H 706.554 -2.97932 0.29614 0
M  V30 7582 H 704.1 -1.4328 0.143865 0
M  V30 7583 H 706.053 -3.69017 -2.03481 0
M  V30 7584 H 704.777 -2.4534 -2.15583 0
M  V30 7585 H 703.436 -3.64545 -0.387602 0
M  V30 7586 H 703.084 -4.17423 -2.80654 0
M  V30 7587 H 702.784 -5.59962 -1.78092 0
M  V30 7588 H 704.308 -5.4742 -2.70487 0
M  V30 7589 H 705.722 -5.7156 -0.446302 0
M  V30 7590 H 704.119 -5.99378 0.29437 0
M  V30 7591 H 705.189 -4.75131 0.968447 0
M  V30 7592 N 706.532 -0.168513 -1.56696 0
M  V30 7593 C 707.757 0.486688 -2.01609 0
M  V30 7594 C 708.182 1.56203 -1.04796 0
M  V30 7595 O 707.54 1.8128 -0.0270596 0
M  V30 7596 C 707.588 1.04451 -3.45141 0
M  V30 7597 O 706.692 2.15862 -3.51393 0
M  V30 7598 H 706.033 0.116831 -0.653641 0
M  V30 7599 H 708.563 -0.271579 -2.0279 0
M  V30 7600 H 708.573 1.36782 -3.84389 0
M  V30 7601 H 707.248 0.257155 -4.15104 0
M  V30 7602 H 705.825 1.84597 -3.24004 0
M  V30 7603 N 708.01 1.57248 0.105221 0
M  V30 7604 C 708.92 2.04653 1.14693 0
M  V30 7605 C 709.936 0.969488 1.44489 0
M  V30 7606 O 711.112 1.28196 1.55331 0
M  V30 7607 C 708.177 2.45297 2.45011 0
M  V30 7608 C 707.238 3.67148 2.22489 0
M  V30 7609 C 706.471 4.05844 3.46592 0
M  V30 7610 O 706.694 3.44736 4.54437 0
M  V30 7611 O 705.628 4.98862 3.36779 0
M  V30 7612 H 709.454 2.93663 0.774336 0
M  V30 7613 H 707.039 1.45998 0.31701 0
M  V30 7614 H 708.921 2.72112 3.21766 0
M  V30 7615 H 707.596 1.59429 2.81717 0
M  V30 7616 H 706.503 3.45463 1.43547 0
M  V30 7617 H 707.836 4.53764 1.9068 0
M  V30 7618 N 709.488 -0.375779 1.53054 0
M  V30 7619 C 710.734 -1.12114 1.68992 0
M  V30 7620 C 711.067 -1.8926 0.435238 0
M  V30 7621 O 710.342 -1.86044 -0.567278 0
M  V30 7622 C 710.625 -2.08867 2.93337 0
M  V30 7623 C 710.478 -1.35397 4.28938 0
M  V30 7624 C 711.797 -3.09124 3.13257 0
M  V30 7625 H 708.916 -0.406207 0.614951 0
M  V30 7626 H 711.558 -0.403054 1.85676 0
M  V30 7627 H 709.708 -2.70102 2.79244 0
M  V30 7628 H 711.38 -0.770242 4.54824 0
M  V30 7629 H 709.623 -0.655801 4.28814 0
M  V30 7630 H 710.294 -2.06161 5.12056 0
M  V30 7631 H 712.77 -2.57987 3.26469 0
M  V30 7632 H 711.646 -3.74054 4.01715 0
M  V30 7633 H 711.907 -3.78729 2.28072 0
M  V30 7634 N 710.966 -1.44241 -0.634997 0
M  V30 7635 C 712.215 -1.46102 -1.39058 0
M  V30 7636 C 712.528 -0.0959909 -1.95364 0
M  V30 7637 O 713.734 0.00788751 -2.71499 0
M  V30 7638 C 712.19 -2.57195 -2.51751 0
M  V30 7639 C 711.798 -3.99888 -2.01974 0
M  V30 7640 C 713.542 -2.68272 -3.28984 0
M  V30 7641 C 711.449 -5.02412 -3.11987 0
M  V30 7642 H 710.379 -0.543556 -0.522554 0
M  V30 7643 H 713.03 -1.70294 -0.683538 0
M  V30 7644 H 711.412 -2.26237 -3.25012 0
M  V30 7645 H 712.586 -4.40396 -1.35604 0
M  V30 7646 H 710.901 -3.93019 -1.37568 0
M  V30 7647 H 713.498 -3.42042 -4.10988 0
M  V30 7648 H 713.841 -1.73957 -3.78212 0
M  V30 7649 H 714.374 -2.98622 -2.62812 0
M  V30 7650 H 711.113 -5.98342 -2.67707 0
M  V30 7651 H 710.633 -4.66501 -3.77011 0
M  V30 7652 H 712.312 -5.25939 -3.76825 0
M  V30 7653 N 712.444 0.87505 -1.31075 0
M  V30 7654 C 713.407 1.96333 -1.18263 0
M  V30 7655 C 714.407 1.60416 -0.111106 0
M  V30 7656 O 715.597 1.7044 -0.359987 0
M  V30 7657 C 712.729 3.31036 -0.81414 0
M  V30 7658 H 713.922 2.09125 -2.14958 0
M  V30 7659 H 711.475 1.06271 -1.14614 0
M  V30 7660 H 712.21 3.23944 0.151875 0
M  V30 7661 H 711.995 3.58476 -1.58862 0
M  V30 7662 H 713.485 4.10842 -0.748249 0
M  V30 7663 N 713.922 1.13953 1.08869 0
M  V30 7664 C 714.832 0.835666 2.19212 0
M  V30 7665 C 715.848 -0.182005 1.73045 0
M  V30 7666 O 717.024 -0.0116661 2.01397 0
M  V30 7667 C 714.089 0.312325 3.4529 0
M  V30 7668 C 713.15 1.39196 4.06107 0
M  V30 7669 C 712.383 0.893496 5.26168 0
M  V30 7670 O 712.606 -0.266807 5.69776 0
M  V30 7671 O 711.54 1.67037 5.78258 0
M  V30 7672 H 715.366 1.75769 2.47667 0
M  V30 7673 H 712.951 0.917421 1.17914 0
M  V30 7674 H 714.833 0.0261582 4.21392 0
M  V30 7675 H 713.508 -0.582042 3.18424 0
M  V30 7676 H 712.415 1.73152 3.31616 0
M  V30 7677 H 713.748 2.26068 4.37212 0
M  V30 7678 N 715.4 -1.26948 0.933913 0
M  V30 7679 C 716.33 -2.29017 0.45534 0
M  V30 7680 C 717.311 -1.62961 -0.487605 0
M  V30 7681 O 718.496 -1.90223 -0.391022 0
M  V30 7682 C 715.626 -3.46112 -0.287015 0
M  V30 7683 C 714.58 -4.24205 0.568682 0
M  V30 7684 C 713.906 -5.3384 -0.303206 0
M  V30 7685 C 715.206 -4.88954 1.83633 0
M  V30 7686 H 716.9 -2.69298 1.30839 0
M  V30 7687 H 714.446 -1.29459 0.630579 0
M  V30 7688 H 716.399 -4.16622 -0.6328 0
M  V30 7689 H 715.123 -3.04765 -1.17414 0
M  V30 7690 H 713.782 -3.5545 0.897261 0
M  V30 7691 H 713.43 -4.88734 -1.18947 0
M  V30 7692 H 713.13 -5.86998 0.265879 0
M  V30 7693 H 714.654 -6.0719 -0.644423 0
M  V30 7694 H 716.068 -5.51717 1.55823 0
M  V30 7695 H 714.465 -5.52198 2.34941 0
M  V30 7696 H 715.535 -4.12305 2.55211 0
M  V30 7697 N 716.879 -0.700114 -1.41195 0
M  V30 7698 C 717.829 -0.0144098 -2.27995 0
M  V30 7699 C 718.813 0.748249 -1.42443 0
M  V30 7700 O 720.005 0.622995 -1.65674 0
M  V30 7701 C 717.134 0.917938 -3.308 0
M  V30 7702 C 716.22 0.151286 -4.2383 0
M  V30 7703 N 716.611 -0.85732 -4.98481 0
M  V30 7704 C 714.909 0.386108 -4.44326 0
M  V30 7705 C 715.61 -1.31663 -5.66604 0
M  V30 7706 N 714.586 -0.641689 -5.39799 0
M  V30 7707 H 718.388 -0.787662 -2.83149 0
M  V30 7708 H 715.902 -0.531344 -1.53462 0
M  V30 7709 H 717.899 1.42437 -3.91813 0
M  V30 7710 H 716.559 1.69074 -2.77208 0
M  V30 7711 H 717.57 -1.2377 -5.02893 0
M  V30 7712 H 714.247 1.13644 -4.01735 0
M  V30 7713 H 715.637 -2.15384 -6.36443 0
M  V30 7714 N 718.357 1.51182 -0.445186 0
M  V30 7715 C 719.605 2.01753 0.11841 0
M  V30 7716 C 719.926 1.33087 1.42523 0
M  V30 7717 O 719.196 0.467891 1.9023 0
M  V30 7718 H 717.776 0.745536 0.0467492 0
M  V30 7719 H 720.438 1.85765 -0.589688 0
M  V30 7720 H 719.534 3.10762 0.288665 0
M  V30 7721 N 719.835 0.176821 1.56605 0
M  V30 7722 C 720.765 -0.746841 2.21234 0
M  V30 7723 C 721.746 -1.23502 1.16967 0
M  V30 7724 O 722.931 -1.28718 1.45414 0
M  V30 7725 C 720.061 -1.97407 2.8574 0
M  V30 7726 C 719.015 -1.62153 3.96094 0
M  V30 7727 C 718.341 -2.92387 4.47676 0
M  V30 7728 C 719.641 -0.845353 5.15413 0
M  V30 7729 H 721.335 -0.208116 2.98676 0
M  V30 7730 H 718.881 -0.0986594 1.43662 0
M  V30 7731 H 720.834 -2.62531 3.2963 0
M  V30 7732 H 719.558 -2.53703 2.05676 0
M  V30 7733 H 718.217 -0.993964 3.52868 0
M  V30 7734 H 717.865 -3.46734 3.64396 0
M  V30 7735 H 717.565 -2.69551 5.22127 0
M  V30 7736 H 719.089 -3.5853 4.94255 0
M  V30 7737 H 720.503 -1.39929 5.55961 0
M  V30 7738 H 718.9 -0.715814 5.95815 0
M  V30 7739 H 719.97 0.157239 4.84645 0
M  V30 7740 N 721.313 -1.57302 -0.09688 0
M  V30 7741 C 722.729 -1.53094 -0.451041 0
M  V30 7742 C 722.929 -0.893265 -1.80618 0
M  V30 7743 O 721.985 -0.485013 -2.47798 0
M  V30 7744 C 723.298 -2.9782 -0.415172 0
M  V30 7745 C 724.846 -3.09026 -0.497155 0
M  V30 7746 C 725.321 -4.55356 -0.491452 0
M  V30 7747 N 726.812 -4.59896 -0.552258 0
M  V30 7748 C 727.547 -5.70563 -0.569654 0
M  V30 7749 N 727.043 -6.90666 -0.543365 0
M  V30 7750 N 728.836 -5.58733 -0.614331 0
M  V30 7751 H 720.987 -1.97131 0.790771 0
M  V30 7752 H 723.25 -0.901211 0.294147 0
M  V30 7753 H 722.956 -3.47933 0.513362 0
M  V30 7754 H 722.83 -3.56416 -1.23481 0
M  V30 7755 H 725.217 -2.58902 -1.41611 0
M  V30 7756 H 725.298 -2.53386 0.35059 0
M  V30 7757 H 724.942 -5.06131 0.423549 0
M  V30 7758 H 724.872 -5.08832 -1.35639 0
M  V30 7759 H 727.363 -3.73456 -0.577842 0
M  V30 7760 H 727.676 -7.70769 -0.559873 0
M  V30 7761 H 726.021 -6.93123 -0.510441 0
M  V30 7762 H 729.212 -4.63809 -0.632387 0
M  V30 7763 H 729.385 -6.44984 -0.62442 0
M  V30 7764 N 722.791 0.367657 -1.53252 0
M  V30 7765 C 724.016 1.13566 -1.73544 0
M  V30 7766 C 724.441 1.82329 -0.462344 0
M  V30 7767 O 723.799 1.71655 0.583472 0
M  V30 7768 C 723.847 2.14322 -2.89997 0
M  V30 7769 O 722.951 3.21359 -2.58461 0
M  V30 7770 H 722.292 0.329614 -0.576412 0
M  V30 7771 H 724.822 0.425417 -2.00128 0
M  V30 7772 H 724.832 2.57958 -3.16104 0
M  V30 7773 H 723.507 1.63664 -3.82344 0
M  V30 7774 H 722.084 2.8271 -2.43165 0
M  V30 7775 N 724.269 1.44576 0.627338 0
M  V30 7776 C 725.546 1.38033 1.38586 0
M  V30 7777 C 725.926 0.0409468 2.1106 0
M  V30 7778 O 725.274 -0.976582 2.0658 0
M  V30 7779 C 725.484 2.58102 2.34913 0
M  V30 7780 C 726.832 3.02332 2.98129 0
M  V30 7781 O 727.856 2.58334 2.45238 0
M  V30 7782 O 726.715 3.78628 3.94085 0
M  V30 7783 H 723.809 0.546801 0.620434 0
M  V30 7784 H 726.355 1.56672 0.652077 0
M  V30 7785 H 725.127 3.4719 1.80485 0
M  V30 7786 H 724.75 2.41696 3.15703 0
M  V30 7787 N 725.747 -0.868086 1.31537 0
M  V30 7788 C 726.995 -1.61807 1.21091 0
M  V30 7789 C 727.316 -1.93631 -0.230623 0
M  V30 7790 O 726.586 -1.5846 -1.15183 0
M  V30 7791 H 725.166 -0.599854 0.445178 0
M  V30 7792 H 727.828 -1.03915 1.64887 0
M  V30 7793 H 726.924 -2.56088 1.78396 0
M  V30 7794 N 727.225 -1.14528 -1.08264 0
M  V30 7795 C 728.172 -0.833556 -2.15222 0
M  V30 7796 C 729.142 0.209539 -1.64773 0
M  V30 7797 O 730.327 0.0791388 -1.90636 0
M  V30 7798 C 727.467 -0.318799 -3.43624 0
M  V30 7799 C 726.58 -1.42237 -4.07913 0
M  V30 7800 C 725.715 -0.864704 -5.24115 0
M  V30 7801 C 724.754 -1.94585 -5.80347 0
M  V30 7802 N 723.891 -1.40525 -6.87893 0
M  V30 7803 H 728.731 -1.74965 -2.41228 0
M  V30 7804 H 726.268 -0.873169 -1.18381 0
M  V30 7805 H 728.226 -0.00213088 -4.172 0
M  V30 7806 H 726.856 0.560397 -3.17898 0
M  V30 7807 H 725.908 -1.8554 -3.32083 0
M  V30 7808 H 727.22 -2.23901 -4.45724 0
M  V30 7809 H 726.374 -0.500025 -6.04636 0
M  V30 7810 H 725.113 -0.0171219 -4.87697 0
M  V30 7811 H 724.118 -2.31946 -4.98479 0
M  V30 7812 H 725.343 -2.79704 -6.18823 0
M  V30 7813 H 723.289 -0.579873 -6.53432 0
M  V30 7814 H 723.206 -2.15825 -7.24538 0
M  V30 7815 H 724.474 -1.06852 -7.72142 0
M  V30 7816 N 728.703 1.26451 -0.940633 0
M  V30 7817 C 729.931 1.97868 -0.604642 0
M  V30 7818 C 730.346 1.70051 0.820251 0
M  V30 7819 O 729.703 0.96843 1.54686 0
M  V30 7820 C 729.754 3.51684 -0.836689 0
M  V30 7821 O 729.475 3.78533 -2.20554 0
M  V30 7822 C 730.976 4.40343 -0.511169 0
M  V30 7823 H 728.196 0.631105 -0.227919 0
M  V30 7824 H 730.74 1.60979 -1.26119 0
M  V30 7825 H 728.895 3.86736 -0.226759 0
M  V30 7826 H 729.309 4.73065 -2.26517 0
M  V30 7827 H 730.783 5.47229 -0.724157 0
M  V30 7828 H 731.26 4.35694 0.553815 0
M  V30 7829 H 731.866 4.10834 -1.0998 0
M  V30 7830 N 730.181 0.707592 1.40822 0
M  V30 7831 C 731.111 0.0644925 2.33411 0
M  V30 7832 C 732.092 -0.754205 1.52466 0
M  V30 7833 O 733.277 -0.704749 1.80961 0
M  V30 7834 C 730.407 -0.863865 3.36385 0
M  V30 7835 C 729.361 -0.15138 4.27732 0
M  V30 7836 C 728.687 -1.19491 5.21177 0
M  V30 7837 C 729.987 0.989607 5.12839 0
M  V30 7838 H 731.681 0.837829 2.87438 0
M  V30 7839 H 729.227 0.404346 1.38207 0
M  V30 7840 H 731.18 -1.32309 4.0009 0
M  V30 7841 H 729.904 -1.66901 2.80734 0
M  V30 7842 H 728.563 0.287937 3.65467 0
M  V30 7843 H 728.211 -1.9929 4.61836 0
M  V30 7844 H 727.911 -0.723123 5.83134 0
M  V30 7845 H 729.435 -1.6544 5.8776 0
M  V30 7846 H 730.849 0.610114 5.70044 0
M  V30 7847 H 729.246 1.38926 5.83798 0
M  V30 7848 H 730.316 1.82389 4.49291 0
M  V30 7849 N 731.66 -1.50943 0.453197 0
M  V30 7850 C 732.909 -2.01402 -0.10951 0
M  V30 7851 C 733.222 -1.3411 -1.42386 0
M  V30 7852 O 734.428 -1.75626 -2.07045 0
M  V30 7853 C 732.884 -3.5906 -0.245693 0
M  V30 7854 C 732.492 -4.353 1.05916 0
M  V30 7855 C 734.236 -4.17617 -0.761318 0
M  V30 7856 C 732.143 -5.84699 0.887752 0
M  V30 7857 H 731.073 -0.752674 -0.0447013 0
M  V30 7858 H 733.724 -1.73913 0.585375 0
M  V30 7859 H 732.106 -3.83062 -1.00395 0
M  V30 7860 H 733.28 -4.23034 1.82698 0
M  V30 7861 H 731.595 -3.88269 1.50452 0
M  V30 7862 H 734.192 -5.26963 -0.906306 0
M  V30 7863 H 734.535 -3.77824 -1.74799 0
M  V30 7864 H 735.068 -3.97753 -0.0609416 0
M  V30 7865 H 731.807 -6.28933 1.84726 0
M  V30 7866 H 731.327 -5.99587 0.160006 0
M  V30 7867 H 733.006 -6.44682 0.547223 0
M  V30 7868 N 733.138 -0.185124 -1.56509 0
M  V30 7869 C 734.101 0.72591 -2.17401 0
M  V30 7870 C 735.101 1.14819 -1.12575 0
M  V30 7871 O 736.291 1.0629 -1.38015 0
M  V30 7872 C 733.423 1.98979 -2.76803 0
M  V30 7873 H 734.616 0.195588 -2.99262 0
M  V30 7874 H 732.169 0.0644772 -1.56167 0
M  V30 7875 H 732.904 2.56287 -1.98714 0
M  V30 7876 H 732.689 1.69583 -3.53531 0
M  V30 7877 H 734.179 2.63966 -3.23592 0
M  V30 7878 N 734.616 1.57351 0.0885366 0
M  V30 7879 C 735.548 1.99221 1.13329 0
M  V30 7880 C 736.561 0.895705 1.35945 0
M  V30 7881 O 737.75 1.17376 1.34481 0
M  V30 7882 C 734.85 2.3016 2.48756 0
M  V30 7883 C 734.023 3.61444 2.46327 0
M  V30 7884 C 733.082 3.80244 3.63732 0
M  V30 7885 O 732.108 4.52024 3.45924 0
M  V30 7886 N 733.31 3.2132 4.8346 0
M  V30 7887 H 736.075 2.89456 0.776862 0
M  V30 7888 H 733.636 1.59505 0.277428 0
M  V30 7889 H 735.628 2.39925 3.25911 0
M  V30 7890 H 734.198 1.459 2.76464 0
M  V30 7891 H 733.418 3.62588 1.54673 0
M  V30 7892 H 734.706 4.47678 2.41789 0
M  V30 7893 H 734.104 2.63028 5.00832 0
M  V30 7894 H 732.661 3.3656 5.58185 0
M  V30 7895 N 736.094 -0.359525 1.53444 0
M  V30 7896 C 737.505 -0.936009 1.61542 0
M  V30 7897 C 737.856 -1.90069 0.486633 0
M  V30 7898 O 736.981 -2.12929 -0.386047 0
M  V30 7899 C 737.576 -1.70441 2.92806 0
M  V30 7900 C 736.135 -2.23015 3.03218 0
M  V30 7901 C 735.282 -1.04438 2.56881 0
M  V30 7902 H 738.233 -0.138134 1.58098 0
M  V30 7903 H 738.254 -2.56609 2.80948 0
M  V30 7904 H 737.766 -1.00205 3.74941 0
M  V30 7905 H 735.867 -2.96475 2.25684 0
M  V30 7906 H 735.98 -2.50481 4.08407 0
M  V30 7907 H 734.344 -1.41314 2.11902 0
M  V30 7908 H 735.127 -0.356905 3.4144 0
M  V30 7909 N 737.572 -1.44907 -0.619662 0
M  V30 7910 C 738.522 -1.49085 -1.72504 0
M  V30 7911 C 739.506 -0.355372 -1.56926 0
M  V30 7912 O 740.698 -0.601441 -1.66468 0
M  V30 7913 C 737.827 -1.44889 -3.11227 0
M  V30 7914 C 736.913 -2.63593 -3.32234 0
M  V30 7915 N 737.304 -3.88775 -3.23555 0
M  V30 7916 C 735.602 -2.59033 -3.63067 0
M  V30 7917 C 736.303 -4.67932 -3.45564 0
M  V30 7918 N 735.279 -3.9919 -3.68983 0
M  V30 7919 H 739.081 -2.43706 -1.6427 0
M  V30 7920 H 736.595 -1.4003 -0.82252 0
M  V30 7921 H 738.592 -1.45966 -3.90512 0
M  V30 7922 H 737.252 -0.513143 -3.2062 0
M  V30 7923 H 738.263 -4.20574 -3.02221 0
M  V30 7924 H 734.94 -1.7431 -3.79371 0
M  V30 7925 H 736.33 -5.76952 -3.44349 0
M  V30 7926 N 739.05 0.861098 -1.31996 0
M  V30 7927 C 740.296 1.61721 -1.22369 0
M  V30 7928 C 740.629 1.93 0.215587 0
M  V30 7929 O 739.904 1.56789 1.15098 0
M  V30 7930 C 740.187 2.9417 -2.07691 0
M  V30 7931 C 740.04 2.69714 -3.59965 0
M  V30 7932 C 741.359 3.95372 -1.93312 0
M  V30 7933 H 738.478 0.586822 -0.44588 0
M  V30 7934 H 741.12 0.994788 -1.61876 0
M  V30 7935 H 739.27 3.47292 -1.74128 0
M  V30 7936 H 740.942 2.23196 -4.03709 0
M  V30 7937 H 739.185 2.03789 -3.82952 0
M  V30 7938 H 739.856 3.63996 -4.14983 0
M  V30 7939 H 742.332 3.51487 -2.22701 0
M  V30 7940 H 741.208 4.85916 -2.55298 0
M  V30 7941 H 741.469 4.32865 -0.898922 0
M  V30 7942 N 740.528 1.15101 1.07655 0
M  V30 7943 C 741.944 0.893004 1.32279 0
M  V30 7944 C 742.144 -0.461701 1.96139 0
M  V30 7945 O 741.2 -1.20431 2.21929 0
M  V30 7946 C 742.513 2.03161 2.21689 0
M  V30 7947 C 744.061 2.06579 2.35147 0
M  V30 7948 C 744.536 3.19754 3.27905 0
M  V30 7949 N 746.027 3.19382 3.35484 0
M  V30 7950 C 746.762 4.03592 4.07309 0
M  V30 7951 N 746.258 4.97859 4.81776 0
M  V30 7952 N 748.051 3.91626 4.03219 0
M  V30 7953 H 740.202 2.02341 0.645886 0
M  V30 7954 H 742.465 0.882127 0.347211 0
M  V30 7955 H 742.171 3.00934 1.82021 0
M  V30 7956 H 742.045 1.96132 3.22199 0
M  V30 7957 H 744.432 1.09408 2.74069 0
M  V30 7958 H 744.513 2.17676 1.34353 0
M  V30 7959 H 744.157 4.17175 2.89702 0
M  V30 7960 H 744.087 3.05893 4.28645 0
M  V30 7961 H 746.578 2.51112 2.82403 0
M  V30 7962 H 746.891 5.58563 5.34067 0
M  V30 7963 H 745.236 5.0185 4.80803 0
M  V30 7964 H 748.427 3.17295 3.44154 0
M  V30 7965 H 748.6 4.57479 4.5893 0
M  V30 7966 N 742.006 -1.2595 0.947325 0
M  V30 7967 C 743.254 -1.93081 0.596996 0
M  V30 7968 C 743.575 -1.74632 -0.867672 0
M  V30 7969 O 742.845 -1.1056 -1.6172 0
M  V30 7970 H 741.425 -0.714542 0.217805 0
M  V30 7971 H 744.087 -1.53265 1.20398 0
M  V30 7972 H 743.183 -3.01134 0.82004 0
M  V30 7973 N 743.484 -0.715051 -1.40445 0
M  V30 7974 C 744.761 -0.181503 -1.94756 0
M  V30 7975 C 745.141 1.31268 -1.65324 0
M  V30 7976 O 744.489 2.0686 -0.970631 0
M  V30 7977 C 744.699 -0.493663 -3.45491 0
M  V30 7978 C 746.047 -0.432032 -4.22396 0
M  V30 7979 O 747.071 -0.429692 -3.53599 0
M  V30 7980 O 745.93 -0.409091 -5.44967 0
M  V30 7981 H 743.024 -0.0263989 -0.826579 0
M  V30 7982 H 745.57 -0.792546 -1.50056 0
M  V30 7983 H 744.342 -1.52713 -3.6027 0
M  V30 7984 H 743.965 0.14737 -3.97327 0
M  V30 7985 N 744.962 1.50701 -0.461195 0
M  V30 7986 C 745.909 2.2831 0.338094 0
M  V30 7987 C 746.879 1.32928 0.995957 0
M  V30 7988 O 748.064 1.61857 1.0103 0
M  V30 7989 C 745.204 3.14539 1.41983 0
M  V30 7990 C 744.317 4.24942 0.77773 0
M  V30 7991 C 743.452 4.98443 1.83652 0
M  V30 7992 C 742.491 6.00733 1.17413 0
M  V30 7993 N 741.628 6.6755 2.17533 0
M  V30 7994 H 746.468 2.96167 -0.330051 0
M  V30 7995 H 744.005 1.4606 -0.174611 0
M  V30 7996 H 745.963 3.62877 2.05855 0
M  V30 7997 H 744.593 2.48749 2.05727 0
M  V30 7998 H 743.645 3.80391 0.0266924 0
M  V30 7999 H 744.957 4.98151 0.254362 0
M  V30 8000 H 744.111 5.50449 2.55129 0
M  V30 8001 H 742.85 4.24917 2.39367 0
M  V30 8002 H 741.855 5.47997 0.444944 0
M  V30 8003 H 743.08 6.76227 0.624006 0
M  V30 8004 H 741.026 5.96823 2.72284 0
M  V30 8005 H 740.943 7.36603 1.70154 0
M  V30 8006 H 742.211 7.24178 2.88421 0
M  V30 8007 N 746.441 0.193421 1.56409 0
M  V30 8008 C 747.371 -0.723334 2.22014 0
M  V30 8009 C 748.352 -1.22254 1.1827 0
M  V30 8010 O 749.537 -1.27168 1.46771 0
M  V30 8011 C 746.667 -1.94366 2.87818 0
M  V30 8012 C 745.621 -1.57943 3.97791 0
M  V30 8013 C 744.947 -2.87623 4.50752 0
M  V30 8014 C 746.247 -0.790639 5.16281 0
M  V30 8015 H 747.941 -0.176426 2.9888 0
M  V30 8016 H 745.487 -0.0834166 1.43758 0
M  V30 8017 H 747.44 -2.5902 3.32396 0
M  V30 8018 H 746.164 -2.51507 2.08355 0
M  V30 8019 H 744.823 -0.956482 3.53903 0
M  V30 8020 H 744.471 -3.4285 3.68053 0
M  V30 8021 H 744.171 -2.63998 5.24956 0
M  V30 8022 H 745.695 -3.53268 4.9803 0
M  V30 8023 H 747.109 -1.34024 5.57414 0
M  V30 8024 H 745.506 -0.65258 5.96541 0
M  V30 8025 H 746.576 0.208633 4.84451 0
M  V30 8026 N 747.919 -1.57396 -0.0801906 0
M  V30 8027 C 749.165 -1.87979 -0.776884 0
M  V30 8028 C 749.52 -0.786098 -1.75608 0
M  V30 8029 O 748.813 0.210541 -1.9044 0
M  V30 8030 C 749.007 -3.22915 -1.53169 0
M  V30 8031 C 748.836 -4.45306 -0.627099 0
M  V30 8032 C 747.606 -5.04593 -0.267201 0
M  V30 8033 C 749.804 -5.14249 0.0724916 0
M  V30 8034 N 747.786 -6.10513 0.643995 0
M  V30 8035 C 749.157 -6.14267 0.841191 0
M  V30 8036 C 751.212 -4.97689 0.144847 0
M  V30 8037 C 749.915 -6.99514 1.67551 0
M  V30 8038 C 751.941 -5.83455 0.966112 0
M  V30 8039 C 751.303 -6.83005 1.72288 0
M  V30 8040 H 747.402 -0.737519 -0.259979 0
M  V30 8041 H 749.986 -1.94661 -0.0387512 0
M  V30 8042 H 748.157 -3.17256 -2.2406 0
M  V30 8043 H 749.889 -3.41174 -2.17675 0
M  V30 8044 H 746.644 -4.69548 -0.618194 0
M  V30 8045 H 747.068 -6.68125 1.09259 0
M  V30 8046 H 751.71 -4.20649 -0.4259 0
M  V30 8047 H 749.428 -7.75934 2.25726 0
M  V30 8048 H 753.014 -5.727 1.02497 0
M  V30 8049 H 751.894 -7.48219 2.34813 0
M  V30 8050 N 749.397 0.351382 -1.53633 0
M  V30 8051 C 750.625 1.11275 -1.74429 0
M  V30 8052 C 751.04 1.82602 -0.479798 0
M  V30 8053 O 750.397 1.74074 0.548125 0
M  V30 8054 C 750.448 2.13223 -2.91921 0
M  V30 8055 O 750.169 1.44798 -4.13479 0
M  V30 8056 C 751.67 3.01797 -3.24706 0
M  V30 8057 H 748.89 0.332153 -0.583023 0
M  V30 8058 H 751.434 0.405974 -2.0043 0
M  V30 8059 H 749.589 2.79477 -2.68274 0
M  V30 8060 H 750.003 2.12839 -4.79374 0
M  V30 8061 H 751.477 3.69282 -4.10286 0
M  V30 8062 H 751.954 3.67387 -2.40673 0
M  V30 8063 H 752.56 2.41141 -3.5033 0
M  V30 8064 N 750.875 1.45233 0.611969 0
M  V30 8065 C 751.805 1.5641 1.73373 0
M  V30 8066 C 752.786 0.415896 1.64937 0
M  V30 8067 O 753.971 0.638478 1.83404 0
M  V30 8068 C 751.101 1.52627 3.11965 0
M  V30 8069 C 750.055 2.66119 3.35208 0
M  V30 8070 C 749.381 2.4739 4.74028 0
M  V30 8071 C 750.681 4.08157 3.25891 0
M  V30 8072 H 752.375 2.50307 1.64277 0
M  V30 8073 H 749.921 1.20467 0.788904 0
M  V30 8074 H 751.874 1.59043 3.90235 0
M  V30 8075 H 750.598 0.552564 3.21892 0
M  V30 8076 H 749.257 2.59123 2.59327 0
M  V30 8077 H 748.905 1.48168 4.80682 0
M  V30 8078 H 748.605 3.23494 4.90536 0
M  V30 8079 H 750.129 2.55653 5.54503 0
M  V30 8080 H 751.543 4.1642 3.9404 0
M  V30 8081 H 749.94 4.84617 3.5393 0
M  V30 8082 H 751.01 4.30374 2.23397 0
M  V30 8083 N 752.353 -0.854086 1.3245 0
M  V30 8084 C 753.63 -1.59188 1.1366 0
M  V30 8085 C 754.01 -2.08917 -0.302807 0
M  V30 8086 O 753.358 -1.8795 -1.29951 0
M  V30 8087 C 753.568 -2.73757 2.16467 0
M  V30 8088 C 754.916 -3.43323 2.49829 0
M  V30 8089 O 755.94 -2.83983 2.15017 0
M  V30 8090 O 754.799 -4.50409 3.09506 0
M  V30 8091 H 751.893 -0.701092 0.438633 0
M  V30 8092 H 754.439 -0.898165 1.43983 0
M  V30 8093 H 753.211 -2.3454 3.1322 0
M  V30 8094 H 752.834 -3.50804 1.87142 0
M  V30 8095 N 753.831 -1.1567 -1.07043 0
M  V30 8096 C 755.108 -0.843948 -1.76456 0
M  V30 8097 C 755.488 0.659806 -2.00524 0
M  V30 8098 O 754.836 1.60518 -1.62623 0
M  V30 8099 C 755.046 -1.65822 -3.0709 0
M  V30 8100 C 756.394 -1.8664 -3.8138 0
M  V30 8101 O 757.418 -1.62624 -3.1691 0
M  V30 8102 O 756.277 -2.26884 -4.97178 0
M  V30 8103 H 753.371 -0.310677 -0.766426 0
M  V30 8104 H 755.917 -1.26266 -1.1338 0
M  V30 8105 H 754.689 -2.67902 -2.85209 0
M  V30 8106 H 754.312 -1.23605 -3.77899 0
M  V30 8107 N 755.309 1.25446 -0.953992 0
M  V30 8108 C 756.558 1.92441 -0.604101 0
M  V30 8109 C 756.871 1.75543 0.862796 0
M  V30 8110 O 758.077 2.37106 1.32262 0
M  V30 8111 C 756.533 3.44854 -1.02974 0
M  V30 8112 C 756.141 3.70464 -2.51914 0
M  V30 8113 C 757.885 4.1778 -0.752352 0
M  V30 8114 C 755.792 5.1638 -2.88281 0
M  V30 8115 H 754.722 0.720508 -0.222227 0
M  V30 8116 H 757.373 1.42318 -1.15836 0
M  V30 8117 H 755.755 3.93935 -0.403904 0
M  V30 8118 H 756.929 3.32038 -3.19511 0
M  V30 8119 H 755.244 3.10797 -2.77117 0
M  V30 8120 H 757.841 5.25261 -1.00024 0
M  V30 8121 H 758.184 4.15135 0.311212 0
M  V30 8122 H 758.717 3.74605 -1.33851 0
M  V30 8123 H 755.456 5.24135 -3.93653 0
M  V30 8124 H 754.976 5.55855 -2.25357 0
M  V30 8125 H 756.655 5.84497 -2.77439 0
M  V30 8126 N 756.787 0.722489 1.40064 0
M  V30 8127 C 757.734 0.0743738 2.3068 0
M  V30 8128 C 758.704 -0.743004 1.48555 0
M  V30 8129 O 759.889 -0.705536 1.77276 0
M  V30 8130 C 757.029 -0.836292 3.34814 0
M  V30 8131 C 756.142 -0.00764663 4.31999 0
M  V30 8132 C 755.277 -0.918428 5.232 0
M  V30 8133 C 754.316 -0.0842838 6.12042 0
M  V30 8134 N 753.453 -0.950316 6.95639 0
M  V30 8135 H 758.293 0.852794 2.85537 0
M  V30 8136 H 755.83 0.432222 1.40607 0
M  V30 8137 H 757.788 -1.3786 3.93765 0
M  V30 8138 H 756.418 -1.58082 2.81443 0
M  V30 8139 H 755.47 0.651928 3.74772 0
M  V30 8140 H 756.782 0.63786 4.94705 0
M  V30 8141 H 755.936 -1.52902 5.87116 0
M  V30 8142 H 754.675 -1.59774 4.60786 0
M  V30 8143 H 753.68 0.5392 5.4715 0
M  V30 8144 H 754.905 0.591628 6.76518 0
M  V30 8145 H 752.851 -1.61515 6.35806 0
M  V30 8146 H 752.768 -0.361004 7.55138 0
M  V30 8147 H 754.036 -1.54687 7.63997 0
M  V30 8148 N 758.265 -1.50454 0.469181 0
M  V30 8149 C 759.681 -1.59124 0.123226 0
M  V30 8150 C 759.881 -1.47749 -1.37013 0
M  V30 8151 O 758.937 -1.335 -2.14322 0
M  V30 8152 C 760.25 -2.93101 0.67172 0
M  V30 8153 C 761.798 -3.06491 0.634978 0
M  V30 8154 C 762.273 -4.43041 1.16098 0
M  V30 8155 N 763.764 -4.49448 1.12031 0
M  V30 8156 C 764.499 -5.53491 1.49784 0
M  V30 8157 N 763.995 -6.64798 1.94976 0
M  V30 8158 N 765.788 -5.44025 1.41399 0
M  V30 8159 H 757.939 -1.56091 1.44046 0
M  V30 8160 H 760.202 -0.737564 0.59557 0
M  V30 8161 H 759.908 -3.06895 1.7178 0
M  V30 8162 H 759.782 -3.77027 0.114222 0
M  V30 8163 H 762.169 -2.92346 -0.402187 0
M  V30 8164 H 762.25 -2.24328 1.22926 0
M  V30 8165 H 761.894 -4.57935 2.19677 0
M  V30 8166 H 761.824 -5.23794 0.542939 0
M  V30 8167 H 764.315 -3.69575 0.788828 0
M  V30 8168 H 764.628 -7.40246 2.21936 0
M  V30 8169 H 762.973 -6.65923 1.98927 0
M  V30 8170 H 766.164 -4.55955 1.05935 0
M  V30 8171 H 766.337 -6.2499 1.71147 0
M  V30 8172 N 759.743 -0.201713 -1.56304 0
M  V30 8173 C 760.673 0.71155 -2.22394 0
M  V30 8174 C 761.654 1.21625 -1.18917 0
M  V30 8175 O 762.839 1.26388 -1.47444 0
M  V30 8176 C 759.969 1.92837 -2.88845 0
M  V30 8177 C 758.923 1.55831 -3.98623 0
M  V30 8178 C 758.249 2.85228 -4.52271 0
M  V30 8179 C 759.549 0.763249 -5.16693 0
M  V30 8180 H 761.243 0.160573 -2.98969 0
M  V30 8181 H 758.789 0.0757916 -1.438 0
M  V30 8182 H 760.742 2.57253 -3.33764 0
M  V30 8183 H 759.466 2.50398 -2.09686 0
M  V30 8184 H 758.125 0.9377 -3.54405 0
M  V30 8185 H 757.773 3.40893 -3.69866 0
M  V30 8186 H 757.473 2.6121 -5.26349 0
M  V30 8187 H 758.997 3.50622 -4.99897 0
M  V30 8188 H 760.411 1.31066 -5.58117 0
M  V30 8189 H 758.808 0.620935 -5.96879 0
M  V30 8190 H 759.878 -0.234322 -4.84334 0
M  V30 8191 N 761.222 1.57436 0.0718424 0
M  V30 8192 C 762.17 2.04725 1.10411 0
M  V30 8193 C 763.164 0.952579 1.4008 0
M  V30 8194 O 764.37 1.13769 1.39487 0
M  V30 8195 H 760.745 0.652749 0.373393 0
M  V30 8196 H 762.716 2.90569 0.679126 0
M  V30 8197 C 761.465 2.5068 2.40946 0
M  V30 8198 H 760.788 3.34505 2.18967 0
M  V30 8199 H 762.228 2.87521 3.11621 0
M  V30 8200 C 760.687 1.38971 3.06902 0
M  V30 8201 O 761.217 0.731786 3.94978 0
M  V30 8202 N 759.423 1.13485 2.67525 0
M  V30 8203 H 758.97 1.67168 1.95991 0
M  V30 8204 H 758.928 0.389467 3.11978 0
M  V30 8205 N 762.7 -0.34323 1.53817 0
M  V30 8206 C 763.94 -1.09188 1.72793 0
M  V30 8207 C 764.304 -1.85876 0.481062 0
M  V30 8208 O 765.505 -2.63158 0.547851 0
M  V30 8209 C 763.776 -2.00783 2.9567 0
M  V30 8210 S 765.335 -2.82866 3.35459 0
M  V30 8211 H 762.153 -0.368926 0.607795 0
M  V30 8212 H 764.755 -0.370265 1.91962 0
M  V30 8213 H 763.459 -1.43245 3.84589 0
M  V30 8214 H 762.99 -2.77381 2.78968 0
M  V30 8215 H 765.005 -4.03196 2.89218 0
M  V30 8216 N 764.178 -1.45556 -0.604258 0
M  V30 8217 C 765.424 -1.49968 -1.36519 0
M  V30 8218 C 765.757 -0.142236 -1.93678 0
M  V30 8219 O 765.032 0.843717 -1.75247 0
M  V30 8220 C 765.315 -2.58146 -2.51063 0
M  V30 8221 C 765.168 -4.03346 -1.99078 0
M  V30 8222 C 766.487 -2.62581 -3.53184 0
M  V30 8223 H 763.606 -0.545993 -0.495036 0
M  V30 8224 H 766.248 -1.77382 -0.680845 0
M  V30 8225 H 764.398 -2.34901 -3.09441 0
M  V30 8226 H 766.07 -4.37811 -1.45323 0
M  V30 8227 H 764.313 -4.13845 -1.30055 0
M  V30 8228 H 764.984 -4.74731 -2.81664 0
M  V30 8229 H 767.46 -2.83419 -3.04652 0
M  V30 8230 H 766.336 -3.40131 -4.30816 0
M  V30 8231 H 766.597 -1.67798 -4.09019 0
M  V30 8232 N 765.656 0.84705 -1.32902 0
M  V30 8233 C 766.903 1.60176 -1.23894 0
M  V30 8234 C 767.231 1.93496 0.197341 0
M  V30 8235 O 766.486 1.58173 1.15238 0
M  V30 8236 C 766.785 2.92663 -2.05142 0
M  V30 8237 C 766.451 2.7874 -3.54422 0
M  V30 8238 C 765.113 2.7465 -3.95121 0
M  V30 8239 C 767.465 2.64128 -4.49317 0
M  V30 8240 C 764.793 2.53837 -5.28946 0
M  V30 8241 C 767.145 2.44849 -5.83294 0
M  V30 8242 C 765.809 2.39156 -6.23186 0
M  V30 8243 H 765.079 0.586127 -0.453361 0
M  V30 8244 H 767.726 0.981994 -1.64405 0
M  V30 8245 H 766.031 3.588 -1.57383 0
M  V30 8246 H 767.728 3.50095 -1.95537 0
M  V30 8247 H 764.318 2.82751 -3.22102 0
M  V30 8248 H 768.502 2.66327 -4.18788 0
M  V30 8249 H 763.758 2.4787 -5.58901 0
M  V30 8250 H 767.932 2.32524 -6.56434 0
M  V30 8251 H 765.559 2.22789 -7.26821 0
M  V30 8252 N 767.134 1.16236 1.06428 0
M  V30 8253 C 768.081 0.86769 2.13869 0
M  V30 8254 C 769.051 -0.183298 1.65086 0
M  V30 8255 O 770.236 -0.0488002 1.90738 0
M  V30 8256 C 767.376 0.373427 3.43074 0
M  V30 8257 C 766.489 1.48708 4.05598 0
M  V30 8258 C 765.624 0.947977 5.22673 0
M  V30 8259 C 764.663 2.03793 5.77178 0
M  V30 8260 N 763.8 1.51451 6.85571 0
M  V30 8261 H 768.64 1.78781 2.38414 0
M  V30 8262 H 766.177 0.891892 1.16977 0
M  V30 8263 H 768.135 0.0685035 4.17144 0
M  V30 8264 H 766.765 -0.509752 3.1875 0
M  V30 8265 H 765.817 1.908 3.29089 0
M  V30 8266 H 767.129 2.30964 4.42105 0
M  V30 8267 H 766.283 0.596154 6.03764 0
M  V30 8268 H 765.022 0.0947081 4.87608 0
M  V30 8269 H 764.027 2.39847 4.94726 0
M  V30 8270 H 765.252 2.89514 6.14295 0
M  V30 8271 H 763.198 0.683755 6.52427 0
M  V30 8272 H 763.115 2.27325 7.21013 0
M  V30 8273 H 764.383 1.19123 7.70344 0
M  V30 8274 N 768.612 -1.24939 0.960631 0
M  V30 8275 C 769.56 -2.27659 0.47686 0
M  V30 8276 C 770.554 -1.63148 -0.455961 0
M  V30 8277 O 771.76 -1.76911 -0.332029 0
M  V30 8278 H 768.135 -0.739651 0.135723 0
M  V30 8279 H 770.106 -2.65844 1.35534 0
M  V30 8280 C 768.855 -3.46976 -0.224191 0
M  V30 8281 H 768.178 -3.96854 0.484471 0
M  V30 8282 H 769.618 -4.20717 -0.526615 0
M  V30 8283 C 768.077 -3.04159 -1.44876 0
M  V30 8284 O 768.607 -3.10697 -2.54618 0
M  V30 8285 N 766.813 -2.59284 -1.31226 0
M  V30 8286 H 766.36 -2.54164 -0.419361 0
M  V30 8287 H 766.318 -2.31 -2.13275 0
M  V30 8288 N 770.09 -0.729906 -1.39679 0
M  V30 8289 C 771.501 -0.346241 -1.83461 0
M  V30 8290 C 771.852 1.1215 -1.60987 0
M  V30 8291 O 770.977 1.86456 -1.09832 0
M  V30 8292 C 771.572 -0.621656 -3.33048 0
M  V30 8293 C 770.131 -0.291543 -3.75269 0
M  V30 8294 C 769.278 -0.886844 -2.62736 0
M  V30 8295 H 772.229 -0.927949 -1.28743 0
M  V30 8296 H 772.25 0.108301 -3.80346 0
M  V30 8297 H 771.762 -1.68996 -3.49373 0
M  V30 8298 H 769.863 0.771133 -3.64533 0
M  V30 8299 H 769.976 -0.770544 -4.72863 0
M  V30 8300 H 768.34 -0.313839 -2.52759 0
M  V30 8301 H 769.123 -1.95971 -2.81869 0
M  V30 8302 N 771.568 1.50203 -0.477153 0
M  V30 8303 C 772.814 2.02658 0.0758507 0
M  V30 8304 C 773.147 1.358 1.38824 0
M  V30 8305 O 772.422 0.485696 1.88338 0
M  V30 8306 C 772.705 3.59208 0.253339 0
M  V30 8307 C 772.558 4.36629 -1.0805 0
M  V30 8308 C 773.877 4.28469 1.00509 0
M  V30 8309 H 770.996 0.736538 0.0260921 0
M  V30 8310 H 773.638 1.79464 -0.623925 0
M  V30 8311 H 771.788 3.79101 0.849378 0
M  V30 8312 H 773.46 4.28292 -1.71358 0
M  V30 8313 H 771.703 4.0013 -1.67566 0
M  V30 8314 H 772.374 5.44449 -0.909883 0
M  V30 8315 H 774.85 4.13087 0.499818 0
M  V30 8316 H 773.726 5.37804 1.09808 0
M  V30 8317 H 773.987 3.92057 2.04314 0
M  V30 8318 N 773.046 0.209999 1.56195 0
M  V30 8319 C 773.993 -0.704854 2.19774 0
M  V30 8320 C 774.963 -1.19886 1.14964 0
M  V30 8321 O 776.148 -1.26005 1.43274 0
M  V30 8322 C 773.288 -1.91241 2.87265 0
M  V30 8323 C 772.401 -1.45838 4.06639 0
M  V30 8324 C 771.536 -2.6226 4.61945 0
M  V30 8325 C 770.575 -2.13537 5.73645 0
M  V30 8326 N 769.712 -3.2319 6.23292 0
M  V30 8327 H 774.552 -0.155944 2.97592 0
M  V30 8328 H 772.089 -0.0652235 1.46955 0
M  V30 8329 H 774.047 -2.62123 3.24573 0
M  V30 8330 H 772.677 -2.43439 2.11985 0
M  V30 8331 H 771.729 -0.644897 3.74894 0
M  V30 8332 H 773.041 -1.06103 4.87384 0
M  V30 8333 H 772.195 -3.41243 5.01636 0
M  V30 8334 H 770.934 -3.05278 3.80338 0
M  V30 8335 H 769.939 -1.33013 5.33468 0
M  V30 8336 H 771.164 -1.71533 6.57079 0
M  V30 8337 H 769.11 -3.65711 5.44602 0
M  V30 8338 H 769.027 -2.8767 6.99129 0
M  V30 8339 H 770.295 -4.02342 6.67639 0
M  V30 8340 N 774.524 -1.57472 -0.0634922 0
M  V30 8341 C 775.487 -2.03268 -1.059 0
M  V30 8342 C 776.487 -0.931028 -1.31105 0
M  V30 8343 O 777.677 -1.19567 -1.26686 0
M  V30 8344 C 774.809 -2.42039 -2.40062 0
M  V30 8345 H 776.002 -2.92454 -0.664119 0
M  V30 8346 H 773.555 -1.53206 -0.309444 0
M  V30 8347 H 774.29 -1.55904 -2.84367 0
M  V30 8348 H 774.075 -3.22437 -2.23108 0
M  V30 8349 H 775.565 -2.78017 -3.11603 0
M  V30 8350 N 776.003 0.335068 -1.53997 0
M  V30 8351 C 777.25 1.07435 -1.71651 0
M  V30 8352 C 777.578 1.88378 -0.48413 0
M  V30 8353 O 776.833 1.8827 0.534139 0
M  V30 8354 C 777.132 2.0364 -2.9371 0
M  V30 8355 C 776.798 1.38942 -4.28959 0
M  V30 8356 C 775.46 1.21027 -4.65732 0
M  V30 8357 C 777.812 0.924083 -5.12943 0
M  V30 8358 C 775.14 0.552097 -5.84097 0
M  V30 8359 C 777.492 0.27978 -6.31981 0
M  V30 8360 C 776.156 0.0883843 -6.67441 0
M  V30 8361 H 775.426 0.393133 -0.628114 0
M  V30 8362 H 778.073 0.352712 -1.88224 0
M  V30 8363 H 776.378 2.82215 -2.71775 0
M  V30 8364 H 778.075 2.6085 -3.04562 0
M  V30 8365 H 774.665 1.53885 -4.00022 0
M  V30 8366 H 778.849 1.05032 -4.85059 0
M  V30 8367 H 774.105 0.392502 -6.10139 0
M  V30 8368 H 778.279 -0.0888479 -6.96343 0
M  V30 8369 H 775.906 -0.423657 -7.59019 0
M  V30 8370 N 777.481 1.45874 0.596531 0
M  V30 8371 C 778.429 1.55739 1.72766 0
M  V30 8372 C 779.423 0.426666 1.63939 0
M  V30 8373 O 780.629 0.60301 1.69599 0
M  V30 8374 H 777.004 0.489386 0.570968 0
M  V30 8375 H 778.975 2.50871 1.61575 0
M  V30 8376 C 777.724 1.55174 3.11153 0
M  V30 8377 H 777.047 2.41511 3.1861 0
M  V30 8378 H 778.487 1.66133 3.90097 0
M  V30 8379 C 776.946 0.278001 3.35751 0
M  V30 8380 O 777.476 -0.637557 3.96608 0
M  V30 8381 N 775.682 0.170227 2.90101 0
M  V30 8382 H 775.229 0.916159 2.40758 0
M  V30 8383 H 775.187 -0.68117 3.06932 0
M  V30 8384 O 778.998 -0.740596 1.43518 0
M  V30 8385 H 779.689 -1.39004 1.34898 0
M  V30 END ATOM
M  V30 BEGIN BOND
M  V30 END BOND
M  V30 END CTAB
M  END
$$$$
