drugbank_target|P51649 Succinate-semialdehyde dehydrogenase, mitochondrial (DB00139; DB00157; DB00313; DB00534)
 OpenBabel12092119253D

  0  0  0     0  0            999 V3000
M  V30 BEGIN CTAB
M  V30 COUNTS 8062 8143 0 0 0
M  V30 BEGIN ATOM
M  V30 1 H -0.908 1.98254 -0.117106 0
M  V30 2 N 0 1.576 0 0
M  V30 3 C 0.933 2.03868 1.02534 0
M  V30 4 C 1.911 0.928543 1.3348 0
M  V30 5 O 3.095 1.19667 1.45644 0
M  V30 6 C 0.222 2.43627 2.35294 0
M  V30 7 C -0.732 3.65373 2.2001 0
M  V30 8 S 0.101 5.13292 1.52614 0
M  V30 9 C 1.257 5.56322 2.86805 0
M  V30 10 H 1.49 2.90518 0.631377 0
M  V30 11 H -0.977 1.52953 0.210867 0
M  V30 12 H 0.981 2.67203 3.11629 0
M  V30 13 H -0.358 1.57376 2.7183 0
M  V30 14 H -1.165 3.90944 3.18086 0
M  V30 15 H -1.563 3.418 1.51819 0
M  V30 16 H 0.729 5.58782 3.83104 0
M  V30 17 H 1.672 6.56266 2.65933 0
M  V30 18 H 2.08 4.83886 2.90714 0
M  V30 19 N 1.4781 -0.272755 1.55222 0
M  V30 20 C 2.4411 -1.32041 1.87344 0
M  V30 21 C 3.4411 -1.42342 0.74803 0
M  V30 22 O 4.6311 -1.41488 1.0162 0
M  V30 23 C 1.7631 -2.70173 2.07893 0
M  V30 24 H 2.9561 -1.04789 2.80997 0
M  V30 25 H 0.5091 -0.51083 1.47717 0
M  V30 26 H 1.2441 -3.02605 1.16622 0
M  V30 27 H 1.0291 -2.64082 2.89833 0
M  V30 28 H 2.5191 -3.45869 2.34017 0
M  V30 29 N 2.9562 -1.48159 -0.537278 0
M  V30 30 C 4.1842 -1.59454 -1.31841 0
M  V30 31 C 4.5992 -0.252065 -1.8711 0
M  V30 32 O 3.9562 0.757621 -1.66031 0
M  V30 33 C 4.0072 -2.63546 -2.47439 0
M  V30 34 O 3.7282 -3.92583 -1.94449 0
M  V30 35 C 5.2292 -2.85212 -3.39366 0
M  V30 36 H 2.4492 -0.53785 -0.401196 0
M  V30 37 H 4.9932 -1.93932 -0.648891 0
M  V30 38 H 3.1482 -2.31946 -3.1029 0
M  V30 39 H 3.5622 -4.49629 -2.70063 0
M  V30 40 H 5.0362 -3.61863 -4.16844 0
M  V30 41 H 5.5132 -1.93765 -3.94147 0
M  V30 42 H 6.1192 -3.18086 -2.82314 0
M  V30 43 N 4.4343 0.785586 -1.36625 0
M  V30 44 C 5.6743 1.55678 -1.32453 0
M  V30 45 C 6.0383 1.91769 0.0941089 0
M  V30 46 O 7.2393 2.67536 0.26042 0
M  V30 47 C 5.5103 2.79701 -2.22491 0
M  V30 48 S 7.0693 3.69907 -2.36038 0
M  V30 49 H 3.8873 0.533141 -0.470405 0
M  V30 50 H 6.4893 0.924953 -1.72235 0
M  V30 51 H 5.1933 2.51244 -3.24507 0
M  V30 52 H 4.7243 3.47854 -1.83742 0
M  V30 53 H 6.7393 4.71016 -1.56072 0
M  V30 54 N 5.9124 1.20967 1.01018 0
M  V30 55 C 7.1614 1.01796 1.74128 0
M  V30 56 C 7.4744 -0.449691 1.90361 0
M  V30 57 O 8.6804 -0.76068 2.60626 0
M  V30 58 C 7.1364 1.7727 3.13215 0
M  V30 59 C 6.7444 3.28171 3.04972 0
M  V30 60 C 8.4884 1.66489 3.90489 0
M  V30 61 C 6.3954 3.96156 4.39107 0
M  V30 62 H 5.3254 0.377276 0.652824 0
M  V30 63 H 7.9764 1.44651 1.12909 0
M  V30 64 H 6.3584 1.27205 3.75013 0
M  V30 65 H 7.5324 3.85499 2.52443 0
M  V30 66 H 5.8474 3.39437 2.41188 0
M  V30 67 H 8.4444 2.14617 4.89738 0
M  V30 68 H 8.7874 0.6222 4.11624 0
M  V30 69 H 9.3204 2.14003 3.35332 0
M  V30 70 H 6.0594 5.00604 4.23174 0
M  V30 71 H 5.5794 3.43617 4.91617 0
M  V30 72 H 7.2584 4.00774 5.07926 0
M  V30 73 N 7.3905 -1.2043 1.01659 0
M  V30 74 C 8.6365 -1.90356 0.716674 0
M  V30 75 C 8.9915 -1.77367 -0.745557 0
M  V30 76 O 8.2845 -1.1471 -1.53467 0
M  V30 77 C 8.4785 -3.40464 1.08714 0
M  V30 78 C 8.3075 -3.6806 2.58384 0
M  V30 79 C 7.0775 -3.86775 3.25167 0
M  V30 80 C 9.2755 -3.70623 3.56572 0
M  V30 81 N 7.2575 -4.01889 4.64067 0
M  V30 82 C 8.6285 -3.91161 4.81034 0
M  V30 83 C 10.6835 -3.53586 3.50544 0
M  V30 84 C 9.3865 -3.96428 6.00198 0
M  V30 85 C 11.4125 -3.60125 4.6911 0
M  V30 86 C 10.7745 -3.81135 5.92381 0
M  V30 87 H 6.8735 -0.716226 0.313918 0
M  V30 88 H 9.4575 -1.44815 1.30141 0
M  V30 89 H 7.6285 -3.84757 0.530745 0
M  V30 90 H 9.3605 -3.97863 0.740763 0
M  V30 91 H 6.1155 -3.85156 2.75594 0
M  V30 92 H 6.5395 -4.13323 5.36184 0
M  V30 93 H 11.1815 -3.36308 2.56235 0
M  V30 94 H 8.8995 -4.12502 6.94887 0
M  V30 95 H 12.4855 -3.4825 4.66062 0
M  V30 96 H 11.3655 -3.86054 6.82592 0
M  V30 97 N 8.8686 -0.792821 -1.36206 0
M  V30 98 C 9.7986 -0.207853 -2.32573 0
M  V30 99 C 10.7796 0.659055 -1.56813 0
M  V30 100 O 11.9646 0.592176 -1.84951 0
M  V30 101 C 9.0946 0.655449 -3.41059 0
M  V30 102 C 8.0486 -0.111842 -4.27854 0
M  V30 103 C 7.3746 0.872274 -5.27537 0
M  V30 104 C 8.6746 -1.30299 -5.05786 0
M  V30 105 H 10.3686 -1.01294 -2.81744 0
M  V30 106 H 7.9146 -0.48854 -1.3546 0
M  V30 107 H 9.8676 1.07464 -4.07467 0
M  V30 108 H 8.5916 1.49328 -2.90463 0
M  V30 109 H 7.2506 -0.512053 -3.63006 0
M  V30 110 H 6.8986 1.70523 -4.73214 0
M  V30 111 H 6.5986 0.363291 -5.86476 0
M  V30 112 H 8.1226 1.28996 -5.96818 0
M  V30 113 H 9.5366 -0.959379 -5.65216 0
M  V30 114 H 7.9336 -1.7455 -5.74154 0
M  V30 115 H 9.0036 -2.09663 -4.37229 0
M  V30 116 N 10.3467 1.47872 -0.545128 0
M  V30 117 C 11.7627 1.5829 -0.204032 0
M  V30 118 C 11.9627 1.54529 1.29317 0
M  V30 119 O 11.0187 1.44232 2.07252 0
M  V30 120 C 12.3317 2.89304 -0.819987 0
M  V30 121 C 13.8797 3.02864 -0.790105 0
M  V30 122 C 14.3547 4.3656 -1.38491 0
M  V30 123 N 15.8457 4.43165 -1.34755 0
M  V30 124 C 16.5807 5.45153 -1.77753 0
M  V30 125 N 16.0767 6.54016 -2.2855 0
M  V30 126 N 17.8697 5.36125 -1.68897 0
M  V30 127 H 10.0207 1.4856 -1.51802 0
M  V30 128 H 12.2837 0.706305 -0.632327 0
M  V30 129 H 11.9897 2.97757 -1.87173 0
M  V30 130 H 11.8637 3.75957 -0.305915 0
M  V30 131 H 14.2507 2.94014 0.252913 0
M  V30 132 H 14.3317 2.17782 -1.34181 0
M  V30 133 H 13.9757 4.46164 -2.42693 0
M  V30 134 H 13.9057 5.20353 -0.808754 0
M  V30 135 H 16.3967 3.65083 -0.975855 0
M  V30 136 H 16.7097 7.27994 -2.59314 0
M  V30 137 H 15.0547 6.54938 -2.32553 0
M  V30 138 H 18.2457 4.49975 -1.28998 0
M  V30 139 H 18.4187 6.15472 -2.02726 0
M  V30 140 N 11.8248 0.280983 1.55075 0
M  V30 141 C 13.0498 -0.340154 2.04592 0
M  V30 142 C 13.4748 -1.48246 1.15779 0
M  V30 143 O 12.8328 -1.80614 0.15761 0
M  V30 144 C 12.8808 -0.793104 3.5177 0
M  V30 145 O 11.9848 -1.89981 3.66034 0
M  V30 146 H 11.3258 -0.0694289 0.66036 0
M  V30 147 H 13.8558 0.416993 2.00306 0
M  V30 148 H 13.8658 -1.08729 3.93245 0
M  V30 149 H 12.5408 0.0426163 4.15878 0
M  V30 150 H 11.1178 -1.60771 3.36463 0
M  V30 151 N 13.3029 -1.57598 0.00835791 0
M  V30 152 C 14.5429 -1.92788 -0.679136 0
M  V30 153 C 14.9069 -0.883378 -1.70471 0
M  V30 154 O 16.1079 -1.12079 -2.44319 0
M  V30 155 C 14.3789 -3.32994 -1.29807 0
M  V30 156 S 15.9379 -3.90082 -2.00952 0
M  V30 157 H 12.7559 -0.67475 -0.224127 0
M  V30 158 H 15.3579 -1.95385 0.0670497 0
M  V30 159 H 14.0619 -4.06846 -0.538922 0
M  V30 160 H 13.5929 -3.33791 -2.082 0
M  V30 161 H 15.6079 -3.71834 -3.28563 0
M  V30 162 N 14.781 0.264519 -1.55364 0
M  V30 163 C 16.029 0.993021 -1.76021 0
M  V30 164 C 16.35 1.86511 -0.569099 0
M  V30 165 O 15.62 1.91438 0.415735 0
M  V30 166 H 14.2 0.369639 -0.649135 0
M  V30 167 H 16.862 0.286707 -1.9278 0
M  V30 168 H 15.958 1.62502 -2.66457 0
M  V30 169 N 16.2591 1.48442 0.529413 0
M  V30 170 C 17.2221 1.62524 1.61612 0
M  V30 171 C 18.2221 0.498509 1.52877 0
M  V30 172 O 19.4121 0.76431 1.56537 0
M  V30 173 C 16.5441 1.59597 3.01233 0
M  V30 174 H 17.7371 2.59423 1.50465 0
M  V30 175 H 15.2901 1.37047 0.751514 0
M  V30 176 H 16.0251 0.641781 3.17886 0
M  V30 177 H 15.8101 2.41397 3.08982 0
M  V30 178 H 17.3001 1.72646 3.80241 0
M  V30 179 N 17.7372 -0.778329 1.37039 0
M  V30 180 C 19.1532 -1.07796 1.17695 0
M  V30 181 C 19.3532 -2.01498 0.00860115 0
M  V30 182 O 18.4092 -2.43901 -0.653352 0
M  V30 183 C 19.7222 -1.68178 2.49272 0
M  V30 184 C 21.2702 -1.80467 2.55735 0
M  V30 185 C 21.7452 -2.44263 3.87427 0
M  V30 186 N 23.2362 -2.51721 3.88833 0
M  V30 187 C 23.9712 -3.01919 4.87476 0
M  V30 188 N 23.4672 -3.5234 5.96513 0
M  V30 189 N 25.2602 -3.00733 4.74885 0
M  V30 190 H 17.4112 -0.156032 2.11826 0
M  V30 191 H 19.6742 -0.131844 0.938787 0
M  V30 192 H 19.3802 -1.06796 3.35093 0
M  V30 193 H 19.2542 -2.67554 2.65885 0
M  V30 194 H 21.6412 -2.40984 1.70325 0
M  V30 195 H 21.7222 -0.798656 2.43013 0
M  V30 196 H 21.3662 -1.84388 4.73248 0
M  V30 197 H 21.2962 -3.45458 3.9745 0
M  V30 198 H 23.7872 -2.1603 3.10063 0
M  V30 199 H 24.1002 -3.89027 6.67741 0
M  V30 200 H 22.4452 -3.50462 6.00168 0
M  V30 201 H 25.6362 -2.60638 3.88826 0
M  V30 202 H 25.8092 -3.39545 5.51918 0
M  V30 203 N 19.2153 -1.21501 -1.00376 0
M  V30 204 C 20.6313 -0.972629 -1.26539 0
M  V30 205 C 20.8313 0.340257 -1.98606 0
M  V30 206 O 19.8873 1.06561 -2.28913 0
M  V30 207 C 21.2003 -2.16404 -2.08781 0
M  V30 208 C 22.7483 -2.20643 -2.22004 0
M  V30 209 C 23.2233 -3.39306 -3.07629 0
M  V30 210 N 24.7143 -3.39401 -3.15217 0
M  V30 211 C 25.4493 -4.27867 -3.81729 0
M  V30 212 N 24.9453 -5.26533 -4.5026 0
M  V30 213 N 26.7383 -4.15672 -3.78382 0
M  V30 214 H 18.8893 -2.05929 -0.520281 0
M  V30 215 H 21.1523 -0.901803 -0.292328 0
M  V30 216 H 20.8583 -3.11554 -1.63178 0
M  V30 217 H 20.7323 -2.15567 -3.09533 0
M  V30 218 H 23.1193 -1.26048 -2.66825 0
M  V30 219 H 23.2003 -2.25523 -1.20718 0
M  V30 220 H 22.8443 -4.34195 -2.63509 0
M  V30 221 H 22.7743 -3.31665 -4.09031 0
M  V30 222 H 25.2653 -2.67997 -2.66432 0
M  V30 223 H 25.5783 -5.90337 -4.98721 0
M  V30 224 H 23.9233 -5.30457 -4.49044 0
M  V30 225 H 27.1143 -3.3785 -3.23998 0
M  V30 226 H 27.2873 -4.84825 -4.2994 0
M  V30 227 N 20.6934 1.19889 -1.02296 0
M  V30 228 C 21.6234 2.25141 -0.619174 0
M  V30 229 C 22.6044 1.66051 0.368915 0
M  V30 230 O 23.7894 1.92546 0.252941 0
M  V30 231 C 20.9194 3.4728 0.0368783 0
M  V30 232 C 19.8734 4.19005 -0.872865 0
M  V30 233 C 19.1994 5.34637 -0.0822402 0
M  V30 234 C 20.4994 4.74452 -2.18387 0
M  V30 235 H 22.1934 2.59171 -1.49903 0
M  V30 236 H 19.7394 1.24579 -0.722222 0
M  V30 237 H 21.6924 4.20098 0.330958 0
M  V30 238 H 20.4164 3.12433 0.95149 0
M  V30 239 H 19.0754 3.48061 -1.15105 0
M  V30 240 H 18.7234 4.96034 0.83422 0
M  V30 241 H 18.4234 5.83557 -0.688149 0
M  V30 242 H 19.9474 6.10255 0.205238 0
M  V30 243 H 21.3614 5.39055 -1.95172 0
M  V30 244 H 19.7584 5.33834 -2.74119 0
M  V30 245 H 20.8284 3.92844 -2.84257 0
M  V30 246 N 22.1715 0.800033 1.35784 0
M  V30 247 C 23.4195 0.376597 1.9856 0
M  V30 248 C 23.7405 -1.05812 1.63795 0
M  V30 249 O 23.0105 -1.73103 0.917171 0
M  V30 250 H 21.5905 0.136261 0.734467 0
M  V30 251 H 24.2525 1.02442 1.65806 0
M  V30 252 H 23.3485 0.477002 3.08433 0
M  V30 253 N 23.6496 -1.47581 0.552962 0
M  V30 254 C 24.8746 -2.07378 0.0300593 0
M  V30 255 C 25.2996 -1.40355 -1.25229 0
M  V30 256 O 24.6576 -0.477099 -1.7491 0
M  V30 257 C 24.7056 -3.60274 -0.153231 0
M  V30 258 O 23.8096 -3.94041 -1.21678 0
M  V30 259 H 23.1506 -0.662158 0.0494182 0
M  V30 260 H 25.6806 -1.89662 0.767434 0
M  V30 261 H 25.6906 -4.0633 -0.368761 0
M  V30 262 H 24.3656 -4.08455 0.783397 0
M  V30 263 H 22.9426 -3.59735 -0.982079 0
M  V30 264 N 25.1277 -0.289203 -1.54924 0
M  V30 265 C 26.3557 0.326463 -2.04308 0
M  V30 266 C 26.7707 1.48413 -1.16701 0
M  V30 267 O 26.1277 1.81507 -0.190087 0
M  V30 268 C 26.1787 0.794014 -3.52672 0
M  V30 269 O 25.8997 -0.317564 -4.36948 0
M  V30 270 C 27.4007 1.47605 -4.18004 0
M  V30 271 H 24.6207 0.0726272 -0.667058 0
M  V30 272 H 27.1647 -0.425401 -2.00026 0
M  V30 273 H 25.3197 1.49593 -3.57352 0
M  V30 274 H 25.7337 0.0443186 -5.24481 0
M  V30 275 H 27.2077 1.75447 -5.23376 0
M  V30 276 H 27.6847 2.41224 -3.67025 0
M  V30 277 H 28.2907 0.81762 -4.17367 0
M  V30 278 N 26.6058 1.57591 -0.0167156 0
M  V30 279 C 27.8528 1.91283 0.664597 0
M  V30 280 C 28.1808 0.891949 1.72842 0
M  V30 281 O 27.4358 -0.100931 1.9544 0
M  V30 282 C 27.7348 3.3172 1.33029 0
M  V30 283 C 27.4008 4.4914 0.398047 0
M  V30 284 C 26.0628 4.80992 0.141421 0
M  V30 285 C 28.4148 5.20634 -0.242825 0
M  V30 286 C 25.7428 5.81703 -0.764092 0
M  V30 287 C 28.0948 6.22311 -1.13632 0
M  V30 288 C 26.7588 6.52611 -1.40196 0
M  V30 289 H 26.0288 0.699956 0.243193 0
M  V30 290 H 28.6758 1.9135 -0.0758267 0
M  V30 291 H 26.9808 3.27856 2.14517 0
M  V30 292 H 28.6778 3.55055 1.86379 0
M  V30 293 H 25.2678 4.24262 0.608238 0
M  V30 294 H 29.4518 4.96267 -0.0576019 0
M  V30 295 H 24.7078 6.03532 -0.977732 0
M  V30 296 H 28.8818 6.76834 -1.63917 0
M  V30 297 H 26.5088 7.30467 -2.10529 0
M  V30 298 N 28.0839 -0.256276 1.55502 0
M  V30 299 C 29.4949 -0.826068 1.67431 0
M  V30 300 C 29.8459 -1.86396 0.612446 0
M  V30 301 O 28.9709 -2.15031 -0.243025 0
M  V30 302 C 29.5659 -1.50512 3.03532 0
M  V30 303 C 28.1249 -2.02273 3.17431 0
M  V30 304 C 27.2719 -0.870548 2.63281 0
M  V30 305 H 30.2229 -0.0322728 1.58667 0
M  V30 306 H 30.2439 -2.37279 2.97454 0
M  V30 307 H 29.7559 -0.749484 3.80794 0
M  V30 308 H 27.8569 -2.80746 2.44974 0
M  V30 309 H 27.9699 -2.22655 4.24219 0
M  V30 310 H 26.3339 -1.26851 2.20864 0
M  V30 311 H 27.1169 -0.128149 3.43061 0
M  V30 312 N 29.562 -1.4872 -0.521534 0
M  V30 313 C 30.81 -1.56857 -1.27437 0
M  V30 314 C 31.131 -0.247982 -1.93417 0
M  V30 315 O 30.401 0.731151 -1.81744 0
M  V30 316 H 28.981 -0.577885 -0.473347 0
M  V30 317 H 31.643 -1.85233 -0.606205 0
M  V30 318 H 30.739 -2.35402 -2.0492 0
M  V30 319 N 31.0401 0.771051 -1.3745 0
M  V30 320 C 32.2801 1.54264 -1.34096 0
M  V30 321 C 32.6441 1.91858 0.0737639 0
M  V30 322 O 33.8451 2.67797 0.23203 0
M  V30 323 C 32.1161 2.77326 -2.25445 0
M  V30 324 S 33.6751 3.67383 -2.39948 0
M  V30 325 H 30.4931 0.528122 -0.476034 0
M  V30 326 H 33.0951 0.906633 -1.73206 0
M  V30 327 H 31.7991 2.47788 -3.27153 0
M  V30 328 H 31.3301 3.45886 -1.87421 0
M  V30 329 H 33.3451 4.69334 -1.61059 0
M  V30 330 N 32.5182 1.22032 0.997298 0
M  V30 331 C 33.9342 0.979326 1.26021 0
M  V30 332 C 34.1342 -0.32972 1.98784 0
M  V30 333 O 33.1902 -1.05345 2.29475 0
M  V30 334 C 34.5032 2.17509 2.07631 0
M  V30 335 C 36.0512 2.21817 2.2083 0
M  V30 336 C 36.5262 3.40933 3.05825 0
M  V30 337 N 38.0172 3.41067 3.13412 0
M  V30 338 C 38.7522 4.29885 3.79455 0
M  V30 339 N 38.2482 5.28914 4.47462 0
M  V30 340 N 40.0412 4.17673 3.76173 0
M  V30 341 H 32.1922 2.06202 0.509352 0
M  V30 342 H 34.4552 0.90334 0.287541 0
M  V30 343 H 34.1612 3.12415 1.61524 0
M  V30 344 H 34.0352 2.17206 3.08385 0
M  V30 345 H 36.4222 1.27462 2.66153 0
M  V30 346 H 36.5032 2.2616 1.1952 0
M  V30 347 H 36.1472 4.35586 2.61203 0
M  V30 348 H 36.0772 3.33829 4.07266 0
M  V30 349 H 38.5682 2.69406 2.65007 0
M  V30 350 H 38.8812 5.92973 4.95583 0
M  V30 351 H 37.2262 5.32831 4.46224 0
M  V30 352 H 40.4172 3.39564 3.22202 0
M  V30 353 H 40.5902 4.87098 4.27363 0
M  V30 354 N 33.9963 -1.19345 1.0293 0
M  V30 355 C 34.9263 -2.2481 0.631105 0
M  V30 356 C 35.9073 -1.66245 -0.360104 0
M  V30 357 O 37.0923 -1.92677 -0.242726 0
M  V30 358 C 34.2223 -3.47295 -0.0184607 0
M  V30 359 C 33.1763 -4.18536 0.895073 0
M  V30 360 C 32.5023 -5.34586 0.110592 0
M  V30 361 C 33.8023 -4.73287 2.209 0
M  V30 362 H 35.4963 -2.58372 1.51275 0
M  V30 363 H 33.0423 -1.24194 0.728818 0
M  V30 364 H 34.9953 -4.20268 -0.308675 0
M  V30 365 H 33.7193 -3.12933 -0.934907 0
M  V30 366 H 32.3783 -3.47446 1.16949 0
M  V30 367 H 32.0263 -4.96469 -0.807902 0
M  V30 368 H 31.7263 -5.83183 0.719087 0
M  V30 369 H 33.2503 -6.10355 -0.172871 0
M  V30 370 H 34.6643 -5.38013 1.98028 0
M  V30 371 H 33.0613 -5.32373 2.76946 0
M  V30 372 H 34.1313 -3.91331 2.86336 0
M  V30 373 N 35.4744 -0.807222 -1.35358 0
M  V30 374 C 36.8904 -0.491038 -1.51858 0
M  V30 375 C 37.0904 0.987648 -1.75635 0
M  V30 376 O 36.1464 1.77265 -1.79815 0
M  V30 377 C 37.4594 -1.33695 -2.69344 0
M  V30 378 C 39.0074 -1.33246 -2.83222 0
M  V30 379 C 39.4824 -2.1625 -4.03733 0
M  V30 380 N 40.9734 -2.1379 -4.10911 0
M  V30 381 C 41.7084 -2.74772 -5.03277 0
M  V30 382 N 41.2044 -3.44684 -6.0097 0
M  V30 383 N 42.9974 -2.6441 -4.96028 0
M  V30 384 H 35.1484 -1.76485 -1.18181 0
M  V30 385 H 37.4114 -0.751199 -0.578276 0
M  V30 386 H 37.1174 -2.38634 -2.58354 0
M  V30 387 H 36.9914 -0.990618 -3.6396 0
M  V30 388 H 39.3784 -0.290911 -2.93663 0
M  V30 389 H 39.4594 -1.71866 -1.89461 0
M  V30 390 H 39.1034 -3.20445 -3.94052 0
M  V30 391 H 39.0334 -1.74989 -4.96675 0
M  V30 392 H 41.5244 -1.62923 -3.40976 0
M  V30 393 H 41.8374 -3.88501 -6.68047 0
M  V30 394 H 40.1824 -3.48788 -6.01142 0
M  V30 395 H 43.3734 -2.0938 -4.18662 0
M  V30 396 H 43.5464 -3.12225 -5.6782 0
M  V30 397 N 36.9525 1.47285 -0.560781 0
M  V30 398 C 38.3635 1.86258 -0.128343 0
M  V30 399 C 38.7145 1.46699 1.30284 0
M  V30 400 O 37.8395 0.871698 1.98067 0
M  V30 401 C 38.4345 3.38044 -0.22614 0
M  V30 402 C 36.9935 3.76096 0.151283 0
M  V30 403 C 36.1405 2.71335 -0.572084 0
M  V30 404 H 39.0915 1.38752 -0.770297 0
M  V30 405 H 39.1125 3.76441 0.554322 0
M  V30 406 H 38.6245 3.66806 -1.26788 0
M  V30 407 H 36.7255 3.52951 1.19399 0
M  V30 408 H 36.8385 4.78641 -0.209765 0
M  V30 409 H 35.2025 2.54696 -0.0147653 0
M  V30 410 H 35.9855 3.02938 -1.61504 0
M  V30 411 N 38.4306 0.297415 1.54768 0
M  V30 412 C 39.8466 -0.0560823 1.59501 0
M  V30 413 C 40.0466 -1.52725 1.31444 0
M  V30 414 O 39.1026 -2.27947 1.08611 0
M  V30 415 C 40.4156 0.338631 2.98787 0
M  V30 416 C 41.9636 0.287097 3.11681 0
M  V30 417 C 42.4386 0.656579 4.53269 0
M  V30 418 N 43.9296 0.608977 4.59179 0
M  V30 419 C 44.6646 0.867385 5.66802 0
M  V30 420 N 44.1606 1.19157 6.82476 0
M  V30 421 N 45.9536 0.794687 5.56454 0
M  V30 422 H 38.1046 1.25624 1.71267 0
M  V30 423 H 40.3676 0.509057 0.799728 0
M  V30 424 H 40.0736 1.36263 3.2423 0
M  V30 425 H 39.9476 -0.309508 3.75928 0
M  V30 426 H 42.3346 -0.727649 2.85988 0
M  V30 427 H 42.4156 0.969809 2.36703 0
M  V30 428 H 42.0596 1.66912 4.7969 0
M  V30 429 H 41.9896 -0.0481649 5.26578 0
M  V30 430 H 44.4806 0.369198 3.76092 0
M  V30 431 H 44.7936 1.37482 7.60473 0
M  V30 432 H 43.1386 1.22958 6.84037 0
M  V30 433 H 46.3296 0.541098 4.64962 0
M  V30 434 H 46.5026 0.999445 6.40246 0
M  V30 435 N 39.9087 -1.5758 0.0250728 0
M  V30 436 C 40.8717 -2.08896 -0.943139 0
M  V30 437 C 41.8717 -1.00321 -1.25668 0
M  V30 438 O 43.0617 -1.26495 -1.19769 0
M  V30 439 C 40.1937 -2.55143 -2.26086 0
M  V30 440 H 41.3867 -2.95723 -0.498775 0
M  V30 441 H 38.9397 -1.54703 -0.222888 0
M  V30 442 H 39.6747 -1.71633 -2.75159 0
M  V30 443 H 39.4597 -3.34461 -2.04641 0
M  V30 444 H 40.9497 -2.95083 -2.95492 0
M  V30 445 N 41.3868 0.248026 -1.55636 0
M  V30 446 C 42.6348 0.974295 -1.77065 0
M  V30 447 C 42.9558 1.85897 -0.588849 0
M  V30 448 O 42.2258 1.91868 0.395407 0
M  V30 449 H 40.8058 0.362733 -0.653019 0
M  V30 450 H 43.4678 0.266244 -1.93073 0
M  V30 451 H 42.5638 1.59667 -2.68166 0
M  V30 452 N 42.8649 1.48995 0.513639 0
M  V30 453 C 44.1129 1.57531 1.26604 0
M  V30 454 C 44.4339 0.258236 1.93283 0
M  V30 455 O 43.7039 -0.721502 1.8213 0
M  V30 456 H 42.2839 0.580387 0.470276 0
M  V30 457 H 44.9459 1.85552 0.596373 0
M  V30 458 H 44.0419 2.36486 2.03669 0
M  V30 459 N 44.343 -0.763751 1.37857 0
M  V30 460 C 45.273 -1.89103 1.36975 0
M  V30 461 C 46.254 -1.68439 0.237152 0
M  V30 462 O 47.439 -1.8918 0.438713 0
M  V30 463 C 44.569 -3.26496 1.18395 0
M  V30 464 C 43.523 -3.61741 2.28751 0
M  V30 465 C 42.849 -4.97762 1.95286 0
M  V30 466 C 44.149 -3.67665 3.70972 0
M  V30 467 H 45.843 -1.90099 2.31307 0
M  V30 468 H 43.389 -0.91319 1.11341 0
M  V30 469 H 45.342 -4.05003 1.16406 0
M  V30 470 H 44.066 -3.25955 0.205215 0
M  V30 471 H 42.725 -2.85547 2.29909 0
M  V30 472 H 42.373 -4.93769 0.959221 0
M  V30 473 H 42.073 -5.22313 2.69189 0
M  V30 474 H 43.597 -5.7866 1.94898 0
M  V30 475 H 45.011 -4.36307 3.719 0
M  V30 476 H 43.408 -4.03718 4.43995 0
M  V30 477 H 44.478 -2.68134 4.0402 0
M  V30 478 N 45.8211 -1.22559 -0.990812 0
M  V30 479 C 47.0671 -1.05297 -1.73322 0
M  V30 480 C 47.4001 0.410655 -1.89808 0
M  V30 481 O 46.6751 1.30439 -1.44277 0
M  V30 482 C 46.9581 -1.76713 -3.13759 0
M  V30 483 C 46.8111 -3.30684 -3.04907 0
M  V30 484 C 48.1301 -1.52121 -4.12974 0
M  V30 485 H 45.2491 -0.38392 -0.629106 0
M  V30 486 H 47.8911 -1.50926 -1.15418 0
M  V30 487 H 46.0411 -1.37924 -3.63193 0
M  V30 488 H 47.7131 -3.7893 -2.63077 0
M  V30 489 H 45.9561 -3.60253 -2.41661 0
M  V30 490 H 46.6271 -3.75833 -4.04294 0
M  V30 491 H 49.1031 -1.85819 -3.72304 0
M  V30 492 H 47.9791 -2.04582 -5.0935 0
M  V30 493 H 48.2401 -0.454257 -4.3976 0
M  V30 494 N 47.2992 1.18797 -1.03562 0
M  V30 495 C 48.7102 1.70322 -0.764676 0
M  V30 496 C 49.0612 1.82708 0.714996 0
M  V30 497 O 48.1862 1.50299 1.55689 0
M  V30 498 C 48.7812 3.09356 -1.38145 0
M  V30 499 C 47.3402 3.58114 -1.15895 0
M  V30 500 C 46.4872 2.34798 -1.4753 0
M  V30 501 H 49.4382 1.03543 -1.20268 0
M  V30 502 H 49.4592 3.72378 -0.781977 0
M  V30 503 H 48.9712 3.00309 -2.45837 0
M  V30 504 H 47.0722 3.72464 -0.100544 0
M  V30 505 H 47.1852 4.4184 -1.8524 0
M  V30 506 H 45.5492 2.38464 -0.894829 0
M  V30 507 H 46.3322 2.28375 -2.56319 0
M  V30 508 N 48.7773 0.814389 1.34928 0
M  V30 509 C 49.7403 0.235759 2.27984 0
M  V30 510 C 50.7403 -0.581412 1.49921 0
M  V30 511 O 51.9303 -0.398758 1.69575 0
M  V30 512 C 49.0623 -0.670433 3.34242 0
M  V30 513 H 50.2553 1.05659 2.80671 0
M  V30 514 H 47.8083 0.585614 1.44915 0
M  V30 515 H 48.5433 -1.51466 2.86755 0
M  V30 516 H 48.3283 -0.0860822 3.92005 0
M  V30 517 H 49.8183 -1.06935 4.03676 0
M  V30 518 N 50.2554 -1.46986 0.568584 0
M  V30 519 C 51.4804 -2.07335 0.0520528 0
M  V30 520 C 51.9054 -1.41675 -1.23733 0
M  V30 521 O 51.2634 -0.495623 -1.74394 0
M  V30 522 C 51.3114 -3.60417 -0.11501 0
M  V30 523 O 50.4154 -3.95309 -1.17492 0
M  V30 524 H 49.7564 -0.661597 0.0564385 0
M  V30 525 H 52.2864 -1.88837 0.787507 0
M  V30 526 H 52.2964 -4.06698 -0.325644 0
M  V30 527 H 50.9714 -4.07601 0.826675 0
M  V30 528 H 49.5484 -3.60757 -0.943869 0
M  V30 529 N 51.7335 -0.305618 -1.54608 0
M  V30 530 C 52.9815 0.301701 -1.99835 0
M  V30 531 C 53.3025 1.54054 -1.19551 0
M  V30 532 O 52.5725 1.93702 -0.292658 0
M  V30 533 H 51.1525 0.114468 -0.738178 0
M  V30 534 H 53.8145 -0.418016 -1.90364 0
M  V30 535 H 52.9105 0.570548 -3.06841 0
M  V30 536 N 53.2116 1.57565 -0.0334293 0
M  V30 537 C 54.6226 1.79746 0.504798 0
M  V30 538 C 54.9736 0.944091 1.71992 0
M  V30 539 O 54.0986 0.155694 2.15839 0
M  V30 540 C 54.6936 3.25997 0.922567 0
M  V30 541 C 53.2526 3.49159 1.40588 0
M  V30 542 C 52.3996 2.74785 0.372633 0
M  V30 543 H 55.3506 1.56565 -0.259436 0
M  V30 544 H 55.3716 3.35945 1.78666 0
M  V30 545 H 54.8836 3.88081 0.0379825 0
M  V30 546 H 52.9846 2.92332 2.31025 0
M  V30 547 H 53.0976 4.57873 1.41028 0
M  V30 548 H 51.4616 2.40391 0.841672 0
M  V30 549 H 52.2446 3.39587 -0.503559 0
M  V30 550 N 54.6897 -0.239769 1.55765 0
M  V30 551 C 55.6527 -1.28038 1.90103 0
M  V30 552 C 56.6527 -1.40723 0.778055 0
M  V30 553 O 57.8427 -1.39301 1.04599 0
M  V30 554 C 54.9747 -2.65702 2.13577 0
M  V30 555 H 56.1677 -0.988048 2.83157 0
M  V30 556 H 53.7207 -0.479382 1.48767 0
M  V30 557 H 54.4557 -3.00063 1.23015 0
M  V30 558 H 54.2407 -2.57875 2.95369 0
M  V30 559 H 55.7307 -3.40828 2.41301 0
M  V30 560 N 56.1678 -1.49265 -0.50573 0
M  V30 561 C 57.5788 -1.51769 -1.08734 0
M  V30 562 C 57.9298 -0.301192 -1.93874 0
M  V30 563 O 57.0548 0.589456 -2.08217 0
M  V30 564 C 57.6498 -2.75017 -1.97867 0
M  V30 565 C 56.2088 -2.80314 -2.51199 0
M  V30 566 C 55.3558 -2.4562 -1.28709 0
M  V30 567 H 58.3068 -1.56031 -0.289855 0
M  V30 568 H 58.3278 -2.5491 -2.82491 0
M  V30 569 H 57.8398 -3.63539 -1.35873 0
M  V30 570 H 55.9408 -1.96061 -3.16845 0
M  V30 571 H 56.0538 -3.82366 -2.88675 0
M  V30 572 H 54.4178 -1.97297 -1.61078 0
M  V30 573 H 55.2008 -3.36411 -0.6843 0
M  V30 574 N 57.6459 0.756429 -1.3826 0
M  V30 575 C 58.8939 1.51248 -1.34047 0
M  V30 576 C 59.2149 1.94875 0.0698372 0
M  V30 577 O 58.4849 1.67436 1.01696 0
M  V30 578 H 57.0649 0.561018 -0.493222 0
M  V30 579 H 59.7269 0.899347 -1.7291 0
M  V30 580 H 58.8229 2.40472 -1.98947 0
M  V30 581 N 59.124 1.23083 0.984299 0
M  V30 582 C 60.535 1.05609 1.5396 0
M  V30 583 C 60.886 -0.377793 1.92528 0
M  V30 584 O 60.011 -1.26398 1.75649 0
M  V30 585 C 60.606 1.91087 2.7977 0
M  V30 586 C 59.165 1.77885 3.31713 0
M  V30 587 C 58.312 1.87028 2.04733 0
M  V30 588 H 61.263 1.36802 0.804419 0
M  V30 589 H 61.284 1.43336 3.5247 0
M  V30 590 H 60.796 2.9544 2.51668 0
M  V30 591 H 58.897 0.762995 3.64704 0
M  V30 592 H 59.01 2.61047 4.01735 0
M  V30 593 H 57.374 1.30565 2.18689 0
M  V30 594 H 58.157 2.92929 1.79017 0
M  V30 595 N 60.6021 -1.18246 1.0419 0
M  V30 596 C 61.5651 -2.20128 0.638452 0
M  V30 597 C 62.5651 -1.57885 -0.304805 0
M  V30 598 O 63.7551 -1.73967 -0.0900369 0
M  V30 599 C 60.8871 -3.4084 -0.0637751 0
M  V30 600 H 62.0801 -2.57336 1.54007 0
M  V30 601 H 59.6331 -1.32152 0.834598 0
M  V30 602 H 60.3681 -3.09166 -0.979136 0
M  V30 603 H 60.1531 -3.8726 0.614198 0
M  V30 604 H 61.6431 -4.16274 -0.332512 0
M  V30 605 N 62.0802 -0.821533 -1.34494 0
M  V30 606 C 63.0122 -0.199946 -2.28326 0
M  V30 607 C 64.0252 0.609377 -1.50965 0
M  V30 608 O 65.2142 0.439285 -1.7301 0
M  V30 609 C 62.3142 0.738431 -3.30757 0
M  V30 610 C 61.4872 -0.0277632 -4.37391 0
M  V30 611 C 60.5462 0.831332 -5.19591 0
M  V30 612 O 59.5722 0.276822 -5.68526 0
M  V30 613 N 60.7742 2.15132 -5.39165 0
M  V30 614 H 63.5392 -1.00609 -2.82308 0
M  V30 615 H 61.1002 -0.678366 -1.47003 0
M  V30 616 H 63.0922 1.31773 -3.82646 0
M  V30 617 H 61.6622 1.44533 -2.7718 0
M  V30 618 H 60.8822 -0.788359 -3.86236 0
M  V30 619 H 62.1702 -0.555251 -5.05761 0
M  V30 620 H 61.5682 2.62559 -5.01078 0
M  V30 621 H 60.1252 2.6795 -5.94177 0
M  V30 622 N 63.5583 1.46682 -0.576371 0
M  V30 623 C 64.4883 2.33028 0.148397 0
M  V30 624 C 65.4693 1.44961 0.889956 0
M  V30 625 O 66.6543 1.73789 0.866662 0
M  V30 626 C 63.7843 3.27117 1.1667 0
M  V30 627 C 62.7383 4.24575 0.540386 0
M  V30 628 C 62.0643 5.08126 1.6647 0
M  V30 629 C 63.3643 5.19722 -0.518331 0
M  V30 630 H 65.0583 2.93875 -0.572509 0
M  V30 631 H 62.6043 1.41315 -0.276768 0
M  V30 632 H 64.5573 3.86374 1.68204 0
M  V30 633 H 63.2813 2.64364 1.9178 0
M  V30 634 H 61.9403 3.66571 0.0461769 0
M  V30 635 H 61.5883 4.41762 2.40531 0
M  V30 636 H 61.2883 5.74122 1.25131 0
M  V30 637 H 62.8123 5.70246 2.18293 0
M  V30 638 H 64.2263 5.73232 -0.0883058 0
M  V30 639 H 62.6233 5.94026 -0.851679 0
M  V30 640 H 63.6933 4.64037 -1.40703 0
M  V30 641 N 65.0364 0.313813 1.54444 0
M  V30 642 C 66.4524 -0.0391619 1.59552 0
M  V30 643 C 66.6524 -1.51322 1.33056 0
M  V30 644 O 65.7084 -2.26782 1.11022 0
M  V30 645 C 67.0214 0.370302 2.98411 0
M  V30 646 C 68.5694 0.320139 3.11358 0
M  V30 647 C 69.0444 0.704617 4.52547 0
M  V30 648 N 70.5354 0.657645 4.58508 0
M  V30 649 C 71.2704 0.927453 5.6585 0
M  V30 650 N 70.7664 1.26389 6.81174 0
M  V30 651 N 72.5594 0.853662 5.5558 0
M  V30 652 H 64.7104 1.27433 1.69925 0
M  V30 653 H 66.9734 0.517511 0.794284 0
M  V30 654 H 66.6794 1.39694 3.22767 0
M  V30 655 H 66.5534 -0.269619 3.76235 0
M  V30 656 H 68.9404 -0.697275 2.86744 0
M  V30 657 H 69.0214 0.99486 2.35661 0
M  V30 658 H 68.6654 1.7199 4.77893 0
M  V30 659 H 68.5954 0.00768843 5.26599 0
M  V30 660 H 71.0864 0.409067 3.75679 0
M  V30 661 H 71.3994 1.4554 7.58972 0
M  V30 662 H 69.7444 1.30206 6.82694 0
M  V30 663 H 72.9354 0.590383 4.64362 0
M  V30 664 H 73.1084 1.0673 6.3915 0
M  V30 665 N 66.5145 -1.57545 0.0417849 0
M  V30 666 C 67.7545 -1.94185 -0.63809 0
M  V30 667 C 68.1185 -0.919339 -1.68559 0
M  V30 668 O 69.3195 -1.17236 -2.41886 0
M  V30 669 C 67.5905 -3.35672 -1.22714 0
M  V30 670 S 69.1495 -3.94256 -1.92633 0
M  V30 671 H 65.9675 -0.679353 -0.209764 0
M  V30 672 H 68.5695 -1.95199 0.108479 0
M  V30 673 H 67.2735 -4.07898 -0.452503 0
M  V30 674 H 66.8045 -3.38132 -2.01073 0
M  V30 675 H 68.8195 -3.7872 -3.20602 0
M  V30 676 N 67.9926 0.231505 -1.5589 0
M  V30 677 C 69.2226 0.973092 -1.82248 0
M  V30 678 C 69.6306 1.78845 -0.617328 0
M  V30 679 O 68.9736 1.78752 0.423499 0
M  V30 680 C 69.0356 1.94732 -3.02192 0
M  V30 681 C 68.6996 1.31743 -4.37599 0
M  V30 682 C 69.6966 0.712238 -5.14998 0
M  V30 683 C 67.3816 1.33218 -4.84312 0
M  V30 684 C 69.3756 0.130195 -6.37267 0
M  V30 685 C 67.0626 0.746286 -6.06526 0
M  V30 686 C 68.0606 0.146337 -6.82843 0
M  V30 687 O 67.7486 -0.430465 -8.02747 0
M  V30 688 H 67.4806 0.29125 -0.61004 0
M  V30 689 H 70.0346 0.254915 -2.03812 0
M  V30 690 H 68.2646 2.70422 -2.76422 0
M  V30 691 H 69.9536 2.55362 -3.15508 0
M  V30 692 H 70.7196 0.69324 -4.8002 0
M  V30 693 H 66.5986 1.78854 -4.24891 0
M  V30 694 H 70.1426 -0.33871 -6.96777 0
M  V30 695 H 66.0396 0.762663 -6.40979 0
M  V30 696 H 66.8076 -0.323818 -8.17859 0
M  V30 697 N 69.4707 1.49531 0.497807 0
M  V30 698 C 70.4337 1.65916 1.58128 0
M  V30 699 C 71.4337 0.530825 1.51786 0
M  V30 700 O 72.6237 0.797342 1.54881 0
M  V30 701 C 69.7557 1.65951 2.9778 0
M  V30 702 H 70.9487 2.62556 1.44929 0
M  V30 703 H 68.5017 1.38611 0.722275 0
M  V30 704 H 69.2367 0.709065 3.16453 0
M  V30 705 H 69.0217 2.47897 3.03792 0
M  V30 706 H 70.5117 1.80673 3.76493 0
M  V30 707 N 70.9488 -0.749086 1.3866 0
M  V30 708 C 72.1968 -1.50535 1.34847 0
M  V30 709 C 72.5178 -1.94909 -0.0595016 0
M  V30 710 O 71.7878 -1.67973 -1.00806 0
M  V30 711 H 70.3678 -0.558395 0.49619 0
M  V30 712 H 73.0298 -0.890165 1.73384 0
M  V30 713 H 72.1258 -2.39413 2.00219 0
M  V30 714 N 72.4269 -1.23603 -0.977757 0
M  V30 715 C 73.8429 -0.999251 -1.24447 0
M  V30 716 C 74.0429 0.298053 -1.99283 0
M  V30 717 O 73.0989 1.01681 -2.31122 0
M  V30 718 C 74.4119 -2.20784 -2.04144 0
M  V30 719 C 75.9599 -2.25303 -2.17273 0
M  V30 720 C 76.4349 -3.45755 -3.00362 0
M  V30 721 N 77.9259 -3.4601 -3.07947 0
M  V30 722 C 78.6609 -4.35868 -3.72568 0
M  V30 723 N 78.1569 -5.35966 -4.38991 0
M  V30 724 N 79.9499 -4.23605 -3.6948 0
M  V30 725 H 72.1009 -2.06986 -0.476483 0
M  V30 726 H 74.3639 -0.907801 -0.273134 0
M  V30 727 H 74.0699 -3.14945 -1.56533 0
M  V30 728 H 73.9439 -2.22085 -3.04891 0
M  V30 729 H 76.3309 -1.3168 -2.64092 0
M  V30 730 H 76.4119 -2.28033 -1.15907 0
M  V30 731 H 76.0559 -4.39687 -2.5424 0
M  V30 732 H 75.9859 -3.40266 -4.01904 0
M  V30 733 H 78.4769 -2.73588 -2.60688 0
M  V30 734 H 78.7899 -6.00783 -4.86086 0
M  V30 735 H 77.1349 -5.39863 -4.37691 0
M  V30 736 H 80.3259 -3.44647 -3.16759 0
M  V30 737 H 80.4989 -4.93836 -4.1956 0
M  V30 738 N 73.905 1.17692 -1.04816 0
M  V30 739 C 74.835 2.23777 -0.666791 0
M  V30 740 C 75.816 1.66796 0.33361 0
M  V30 741 O 77.001 1.93039 0.212042 0
M  V30 742 C 74.131 3.47281 -0.0367933 0
M  V30 743 C 73.085 4.17059 -0.961546 0
M  V30 744 C 72.411 5.34342 -0.195626 0
M  V30 745 C 73.711 4.69713 -2.28402 0
M  V30 746 H 75.405 2.55933 -1.55367 0
M  V30 747 H 72.951 1.23019 -0.748484 0
M  V30 748 H 74.904 4.20706 0.241775 0
M  V30 749 H 73.628 3.14381 0.885004 0
M  V30 750 H 72.287 3.45541 -1.22462 0
M  V30 751 H 71.935 4.97692 0.728816 0
M  V30 752 H 71.635 5.81966 -0.811775 0
M  V30 753 H 73.159 6.10553 0.0757473 0
M  V30 754 H 74.573 5.34794 -2.06563 0
M  V30 755 H 72.97 5.279 -2.8538 0
M  V30 756 H 74.04 3.86726 -2.92525 0
M  V30 757 N 75.3831 0.828654 1.34056 0
M  V30 758 C 76.3461 0.259927 2.27721 0
M  V30 759 C 77.3461 -0.565478 1.50529 0
M  V30 760 O 78.5361 -0.38075 1.69988 0
M  V30 761 C 75.6681 -0.634944 3.34935 0
M  V30 762 H 76.8611 1.0863 2.79534 0
M  V30 763 H 74.4141 0.600951 1.44285 0
M  V30 764 H 75.1491 -1.48416 2.88346 0
M  V30 765 H 74.9341 -0.0444999 3.92075 0
M  V30 766 H 76.4241 -1.02648 4.04788 0
M  V30 767 N 76.8612 -1.46375 0.584142 0
M  V30 768 C 78.1092 -2.01978 0.0701287 0
M  V30 769 C 78.4302 -1.4579 -1.295 0
M  V30 770 O 77.7002 -0.64314 -1.85042 0
M  V30 771 H 76.2802 -0.746648 0.0229345 0
M  V30 772 H 78.9422 -1.79461 0.760245 0
M  V30 773 H 78.0382 -3.121 0.0022064 0
M  V30 774 N 78.3393 -0.321999 -1.54275 0
M  V30 775 C 79.2693 0.537411 -2.27231 0
M  V30 776 C 80.2503 1.12064 -1.27968 0
M  V30 777 O 81.4353 1.14606 -1.56777 0
M  V30 778 C 78.5653 1.69919 -3.02894 0
M  V30 779 C 77.5193 1.24534 -4.09482 0
M  V30 780 C 76.8453 2.49394 -4.72977 0
M  V30 781 C 78.1453 0.361335 -5.21049 0
M  V30 782 H 79.8393 -0.0711406 -2.99315 0
M  V30 783 H 77.3853 -0.0356555 -1.43956 0
M  V30 784 H 79.3383 2.30668 -3.52662 0
M  V30 785 H 78.0623 2.33431 -2.28424 0
M  V30 786 H 76.7213 0.660782 -3.60596 0
M  V30 787 H 76.3693 3.11265 -3.95124 0
M  V30 788 H 76.0693 2.19718 -5.44975 0
M  V30 789 H 77.5933 3.10908 -5.25517 0
M  V30 790 H 79.0073 0.875072 -5.66582 0
M  V30 791 H 77.4043 0.157428 -5.99893 0
M  V30 792 H 78.4743 -0.60822 -4.8107 0
M  V30 793 N 79.8174 1.5752 -0.0501392 0
M  V30 794 C 81.0424 1.97376 0.636997 0
M  V30 795 C 81.4674 0.927466 1.63645 0
M  V30 796 O 80.8254 -0.10941 1.8097 0
M  V30 797 C 80.8734 3.36304 1.30123 0
M  V30 798 O 79.9774 3.34156 2.41689 0
M  V30 799 H 79.3184 0.642998 0.165679 0
M  V30 800 H 81.8484 2.04258 -0.118233 0
M  V30 801 H 81.8584 3.73008 1.65315 0
M  V30 802 H 80.5334 4.11993 0.568746 0
M  V30 803 H 79.1104 3.09196 2.08451 0
M  V30 804 N 81.2955 -0.223234 1.56011 0
M  V30 805 C 82.2585 -1.26014 1.9145 0
M  V30 806 C 83.2585 -1.3989 0.792937 0
M  V30 807 O 84.4485 -1.38184 1.0607 0
M  V30 808 C 81.5805 -2.63422 2.16383 0
M  V30 809 H 82.7735 -0.95796 2.84189 0
M  V30 810 H 80.3265 -0.463576 1.49267 0
M  V30 811 H 81.0615 -2.98741 1.2619 0
M  V30 812 H 80.8465 -2.54728 2.98088 0
M  V30 813 H 82.3365 -3.38249 2.44903 0
M  V30 814 N 82.7736 -1.49793 -0.48987 0
M  V30 815 C 83.7366 -1.66752 -1.57246 0
M  V30 816 C 84.7366 -0.538867 -1.51502 0
M  V30 817 O 85.9266 -0.805545 -1.54456 0
M  V30 818 C 83.0586 -1.67528 -2.96896 0
M  V30 819 H 84.2516 -2.63321 -1.43534 0
M  V30 820 H 81.8046 -1.38992 -0.714914 0
M  V30 821 H 82.5396 -0.725837 -3.16073 0
M  V30 822 H 82.3246 -2.49504 -3.02473 0
M  V30 823 H 83.8146 -1.82667 -3.7553 0
M  V30 824 N 84.2517 0.741722 -1.39055 0
M  V30 825 C 85.1817 1.869 -1.39966 0
M  V30 826 C 86.1627 1.6804 -0.26392 0
M  V30 827 O 87.3477 1.88458 -0.468755 0
M  V30 828 C 84.4777 3.24572 -1.23574 0
M  V30 829 C 83.4317 3.58056 -2.34477 0
M  V30 830 C 82.7577 4.94593 -2.0318 0
M  V30 831 C 84.0577 3.61716 -3.76774 0
M  V30 832 H 85.7517 1.86395 -2.34302 0
M  V30 833 H 83.2977 0.895361 -1.1278 0
M  V30 834 H 85.2507 4.031 -1.22834 0
M  V30 835 H 83.9747 3.25587 -0.257045 0
M  V30 836 H 82.6337 2.81854 -2.34423 0
M  V30 837 H 82.2817 4.92181 -1.03765 0
M  V30 838 H 81.9817 5.17964 -2.77465 0
M  V30 839 H 83.5057 5.75486 -2.04079 0
M  V30 840 H 84.9197 4.30335 -3.78794 0
M  V30 841 H 83.3167 3.96603 -4.50362 0
M  V30 842 H 84.3867 2.61672 -4.08235 0
M  V30 843 N 85.7298 1.2412 0.971189 0
M  V30 844 C 86.6598 1.05508 2.08304 0
M  V30 845 C 87.6408 -0.0308864 1.70072 0
M  V30 846 O 88.8258 0.135521 1.93727 0
M  V30 847 C 85.9558 0.655365 3.4106 0
M  V30 848 C 84.9098 1.68971 3.93234 0
M  V30 849 C 84.2358 1.14516 5.22293 0
M  V30 850 C 85.5358 3.08487 4.21465 0
M  V30 851 H 87.2298 1.98507 2.24132 0
M  V30 852 H 84.7758 0.955821 1.07704 0
M  V30 853 H 86.7288 0.51217 4.18276 0
M  V30 854 H 85.4528 -0.31032 3.25122 0
M  V30 855 H 84.1118 1.82106 3.18171 0
M  V30 856 H 83.7598 0.170189 5.02712 0
M  V30 857 H 83.4598 1.83635 5.58168 0
M  V30 858 H 84.9838 1.01401 6.02121 0
M  V30 859 H 86.3978 2.98601 4.89398 0
M  V30 860 H 84.7948 3.74926 4.68562 0
M  V30 861 H 85.8648 3.56787 3.28376 0
M  V30 862 N 87.2079 -1.17134 1.05439 0
M  V30 863 C 88.6239 -1.39454 0.776201 0
M  V30 864 C 88.8239 -1.91454 -0.628307 0
M  V30 865 O 87.8799 -2.10777 -1.39031 0
M  V30 866 C 89.1929 -2.38305 1.83388 0
M  V30 867 C 90.7409 -2.52006 1.85639 0
M  V30 868 C 91.2159 -3.54133 2.90437 0
M  V30 869 N 92.7069 -3.61653 2.89415 0
M  V30 870 C 93.4419 -4.4044 3.67152 0
M  V30 871 N 92.9379 -5.22721 4.54681 0
M  V30 872 N 94.7309 -4.35337 3.55581 0
M  V30 873 H 86.8819 -0.817134 1.96053 0
M  V30 874 H 89.1449 -0.421626 0.849079 0
M  V30 875 H 88.8509 -2.07173 2.84204 0
M  V30 876 H 88.7249 -3.37841 1.67761 0
M  V30 877 H 91.1119 -2.82447 0.85486 0
M  V30 878 H 91.1929 -1.52537 2.05344 0
M  V30 879 H 90.8369 -3.24431 3.90777 0
M  V30 880 H 90.7669 -4.53313 2.67983 0
M  V30 881 H 93.2579 -3.02909 2.25952 0
M  V30 882 H 93.5709 -5.80027 5.10674 0
M  V30 883 H 91.9159 -5.22093 4.58741 0
M  V30 884 H 95.1069 -3.70112 2.86592 0
M  V30 885 H 95.2799 -4.96494 4.1641 0
M  V30 886 N 88.686 -0.835752 -1.33615 0
M  V30 887 C 89.914 -0.443344 -2.02094 0
M  V30 888 C 90.329 0.954522 -1.62894 0
M  V30 889 O 89.686 1.61982 -0.840723 0
M  V30 890 C 89.737 -0.550775 -3.5728 0
M  V30 891 O 89.458 -1.89356 -3.95065 0
M  V30 892 C 90.959 -0.154919 -4.43029 0
M  V30 893 H 88.179 -0.176359 -0.647409 0
M  V30 894 H 90.723 -1.12746 -1.70612 0
M  V30 895 H 88.878 0.0853997 -3.87306 0
M  V30 896 H 89.292 -1.87687 -4.89769 0
M  V30 897 H 90.766 -0.281144 -5.51284 0
M  V30 898 H 91.243 0.902863 -4.2982 0
M  V30 899 H 91.849 -0.765404 -4.18356 0
M  V30 900 N 90.1641 1.46063 -0.591896 0
M  V30 901 C 91.4411 1.95595 -0.0137119 0
M  V30 902 C 91.8211 1.5345 1.4497 0
M  V30 903 O 91.1691 0.789543 2.14426 0
M  V30 904 C 91.3791 3.48453 -0.195373 0
M  V30 905 C 92.7271 4.24546 -0.0679765 0
M  V30 906 O 93.7511 3.55982 -0.124681 0
M  V30 907 O 92.6101 5.46467 0.0600579 0
M  V30 908 H 89.7041 0.825795 0.0446279 0
M  V30 909 H 92.2501 1.56303 -0.660859 0
M  V30 910 H 91.0221 3.72045 -1.21235 0
M  V30 911 H 90.6451 3.94597 0.487775 0
M  V30 912 N 91.6422 0.330177 1.54103 0
M  V30 913 C 92.8672 -0.274893 2.0557 0
M  V30 914 C 93.2922 -1.44487 1.20437 0
M  V30 915 O 92.6502 -1.80021 0.214991 0
M  V30 916 C 92.6982 -0.68079 3.54115 0
M  V30 917 O 91.8022 -1.7824 3.71893 0
M  V30 918 H 91.1432 -0.0483849 0.662235 0
M  V30 919 H 93.6732 0.480508 1.98878 0
M  V30 920 H 93.6832 -0.961635 3.96505 0
M  V30 921 H 92.3582 0.174903 4.15532 0
M  V30 922 H 90.9352 -1.49985 3.41407 0
M  V30 923 N 93.1203 -1.57491 0.0584922 0
M  V30 924 C 94.3673 -1.92978 -0.613648 0
M  V30 925 C 94.6953 -0.937461 -1.70417 0
M  V30 926 O 93.9503 0.049078 -1.95638 0
M  V30 927 C 94.2493 -3.3513 -1.24188 0
M  V30 928 C 93.9153 -4.50037 -0.278826 0
M  V30 929 C 92.5773 -4.81198 -0.0138447 0
M  V30 930 C 94.9293 -5.19807 0.380777 0
M  V30 931 C 92.2573 -5.79473 0.918052 0
M  V30 932 C 94.6093 -6.19079 1.30091 0
M  V30 933 C 93.2733 -6.48665 1.57449 0
M  V30 934 H 92.5433 -0.706157 -0.22455 0
M  V30 935 H 95.1903 -1.91082 0.126533 0
M  V30 936 H 93.4953 -3.33429 -2.05749 0
M  V30 937 H 95.1923 -3.59871 -1.769 0
M  V30 938 H 91.7823 -4.25726 -0.495539 0
M  V30 939 H 95.9663 -4.95939 0.189158 0
M  V30 940 H 91.2223 -6.00727 1.1374 0
M  V30 941 H 95.3963 -6.7225 1.81804 0
M  V30 942 H 93.0233 -7.24628 2.29822 0
M  V30 943 N 94.5984 0.214957 -1.56127 0
M  V30 944 C 95.8444 0.939762 -1.79712 0
M  V30 945 C 96.1774 1.83723 -0.629247 0
M  V30 946 O 95.4524 1.90925 0.371197 0
M  V30 947 C 95.7354 1.77306 -3.13424 0
M  V30 948 C 95.5884 0.90164 -4.40671 0
M  V30 949 C 96.9074 2.74956 -3.43638 0
M  V30 950 H 94.0264 0.340214 -0.653776 0
M  V30 951 H 96.6684 0.20824 -1.88855 0
M  V30 952 H 94.8184 2.39673 -3.0576 0
M  V30 953 H 96.4904 0.294206 -4.60361 0
M  V30 954 H 94.7334 0.207368 -4.33304 0
M  V30 955 H 95.4044 1.51923 -5.30682 0
M  V30 956 H 97.8804 2.22724 -3.51473 0
M  V30 957 H 96.7564 3.30358 -4.38355 0
M  V30 958 H 97.0174 3.53023 -2.66134 0
M  V30 959 N 96.0765 1.50051 0.48192 0
M  V30 960 C 97.3245 1.60181 1.23234 0
M  V30 961 C 97.6455 0.299176 1.92691 0
M  V30 962 O 96.9155 -0.682708 1.83619 0
M  V30 963 H 95.4955 0.590232 0.457859 0
M  V30 964 H 98.1575 1.86775 0.556881 0
M  V30 965 H 97.2535 2.40753 1.98607 0
M  V30 966 N 97.5546 -0.734337 1.39446 0
M  V30 967 C 98.8026 -1.49096 1.36436 0
M  V30 968 C 99.1236 -1.94961 -0.0388255 0
M  V30 969 O 98.3936 -1.69033 -0.990191 0
M  V30 970 H 96.9736 -0.5531 0.502085 0
M  V30 971 H 99.6356 -0.871725 1.74319 0
M  V30 972 H 98.7316 -2.37276 2.02747 0
M  V30 973 N 99.0327 -1.24633 -0.964593 0
M  V30 974 C 100.449 -1.01239 -1.2338 0
M  V30 975 C 100.649 0.2769 -1.99588 0
M  V30 976 O 99.7047 0.992241 -2.32187 0
M  V30 977 C 101.018 -2.22937 -2.01791 0
M  V30 978 C 102.566 -2.27594 -2.14872 0
M  V30 979 C 103.041 -3.48921 -2.96678 0
M  V30 980 N 104.532 -3.49257 -3.04259 0
M  V30 981 C 105.267 -4.39795 -3.67924 0
M  V30 982 N 104.763 -5.40591 -4.33281 0
M  V30 983 N 106.556 -4.275 -3.64966 0
M  V30 984 H 98.7067 -2.0748 -0.454502 0
M  V30 985 H 100.97 -0.910647 -0.26349 0
M  V30 986 H 100.676 -3.16587 -1.53184 0
M  V30 987 H 100.55 -2.25306 -3.02518 0
M  V30 988 H 102.937 -1.34473 -2.6268 0
M  V30 989 H 103.018 -2.2925 -1.13482 0
M  V30 990 H 102.662 -4.42359 -2.49562 0
M  V30 991 H 102.592 -3.4451 -3.98272 0
M  V30 992 H 105.083 -2.76337 -2.57771 0
M  V30 993 H 105.396 -6.05904 -4.79687 0
M  V30 994 H 103.741 -5.44475 -4.3194 0
M  V30 995 H 106.932 -3.47987 -3.13086 0
M  V30 996 H 107.105 -4.98258 -4.14298 0
M  V30 997 N 100.511 1.16574 -1.06058 0
M  V30 998 C 101.757 1.87565 -0.78683 0
M  V30 999 C 102.112 1.80012 0.679214 0
M  V30 1000 O 101.405 1.20327 1.49104 0
M  V30 1001 C 101.599 3.36195 -1.21275 0
M  V30 1002 C 101.428 3.58216 -2.71866 0
M  V30 1003 C 100.198 3.7444 -3.39298 0
M  V30 1004 C 102.396 3.57134 -3.70081 0
M  V30 1005 N 100.378 3.84389 -4.78663 0
M  V30 1006 C 101.749 3.73038 -4.9522 0
M  V30 1007 C 103.804 3.40332 -3.63426 0
M  V30 1008 C 102.507 3.73879 -6.14497 0
M  V30 1009 C 104.533 3.42466 -4.82153 0
M  V30 1010 C 103.895 3.58887 -6.06118 0
M  V30 1011 H 99.9938 0.704081 -0.340284 0
M  V30 1012 H 102.578 1.39885 -1.35426 0
M  V30 1013 H 100.749 3.82522 -0.673179 0
M  V30 1014 H 102.481 3.94839 -0.887917 0
M  V30 1015 H 99.2358 3.74662 -2.89699 0
M  V30 1016 H 99.6598 3.93138 -5.51155 0
M  V30 1017 H 104.302 3.26566 -2.68541 0
M  V30 1018 H 102.02 3.86427 -7.09718 0
M  V30 1019 H 105.606 3.30712 -4.78666 0
M  V30 1020 H 104.486 3.60454 -6.9645 0
M  V30 1021 N 101.989 0.842826 1.3317 0
M  V30 1022 C 102.919 0.294028 2.31641 0
M  V30 1023 C 103.9 -0.600401 1.59151 0
M  V30 1024 O 105.085 -0.523124 1.87022 0
M  V30 1025 C 102.215 -0.528416 3.43257 0
M  V30 1026 C 101.169 0.27056 4.27144 0
M  V30 1027 C 100.495 -0.675881 5.30411 0
M  V30 1028 C 101.795 1.48981 5.00602 0
M  V30 1029 H 103.489 1.11681 2.77791 0
M  V30 1030 H 101.035 0.538478 1.33553 0
M  V30 1031 H 102.988 -0.922674 4.11175 0
M  V30 1032 H 101.712 -1.38445 2.95805 0
M  V30 1033 H 100.371 0.646427 3.60856 0
M  V30 1034 H 100.019 -1.52842 4.79216 0
M  V30 1035 H 99.7189 -0.145374 5.8742 0
M  V30 1036 H 101.243 -1.06757 6.01195 0
M  V30 1037 H 102.657 1.16849 5.61266 0
M  V30 1038 H 101.054 1.95739 5.6728 0
M  V30 1039 H 102.124 2.25746 4.29147 0
M  V30 1040 N 103.467 -1.45747 0.599634 0
M  V30 1041 C 104.878 -1.85853 0.177681 0
M  V30 1042 C 105.229 -1.50102 -1.26348 0
M  V30 1043 O 104.354 -0.923905 -1.95686 0
M  V30 1044 C 104.949 -3.37326 0.315688 0
M  V30 1045 C 103.508 -3.76365 -0.0515144 0
M  V30 1046 C 102.655 -2.69722 0.643822 0
M  V30 1047 H 105.606 -1.36661 0.806814 0
M  V30 1048 H 105.627 -3.77778 -0.454321 0
M  V30 1049 H 105.139 -3.63315 1.36468 0
M  V30 1050 H 103.24 -3.55993 -1.09999 0
M  V30 1051 H 103.353 -4.77916 0.336594 0
M  V30 1052 H 101.717 -2.54567 0.0822881 0
M  V30 1053 H 102.5 -2.98549 1.6948 0
M  V30 1054 N 104.945 -0.338344 -1.53925 0
M  V30 1055 C 105.908 0.508299 -2.23493 0
M  V30 1056 C 106.908 1.03175 -1.23335 0
M  V30 1057 O 108.098 0.921826 -1.47811 0
M  V30 1058 C 105.23 1.70754 -2.95052 0
M  V30 1059 H 106.423 -0.100058 -2.99733 0
M  V30 1060 H 103.976 -0.0896198 -1.56043 0
M  V30 1061 H 104.711 2.35474 -2.22986 0
M  V30 1062 H 104.496 1.33946 -3.68512 0
M  V30 1063 H 105.986 2.30818 -3.48013 0
M  V30 1064 N 106.423 1.57458 -0.0668435 0
M  V30 1065 C 107.386 2.11323 0.887422 0
M  V30 1066 C 108.386 1.03618 1.22964 0
M  V30 1067 O 109.576 1.29626 1.16373 0
M  V30 1068 C 106.708 2.61048 2.19242 0
M  V30 1069 H 107.901 2.96942 0.420194 0
M  V30 1070 H 105.454 1.55239 0.181793 0
M  V30 1071 H 106.189 1.78868 2.70512 0
M  V30 1072 H 105.974 3.39769 1.95702 0
M  V30 1073 H 107.464 3.02814 2.87565 0
M  V30 1074 N 107.901 -0.206675 1.56239 0
M  V30 1075 C 108.864 -1.23976 1.92776 0
M  V30 1076 C 109.864 -1.39041 0.807729 0
M  V30 1077 O 111.054 -1.37051 1.0753 0
M  V30 1078 C 108.186 -2.61112 2.19165 0
M  V30 1079 H 109.379 -0.927764 2.85189 0
M  V30 1080 H 106.932 -0.447718 1.4975 0
M  V30 1081 H 107.667 -2.97386 1.29352 0
M  V30 1082 H 107.452 -2.51552 3.00772 0
M  V30 1083 H 108.942 -3.35633 2.48476 0
M  V30 1084 N 109.379 -1.50304 -0.473955 0
M  V30 1085 C 110.607 -1.64902 -1.24959 0
M  V30 1086 C 111.022 -0.331198 -1.85872 0
M  V30 1087 O 110.379 0.68652 -1.69095 0
M  V30 1088 C 110.43 -2.73803 -2.36038 0
M  V30 1089 O 110.151 -4.00477 -1.77624 0
M  V30 1090 C 111.652 -2.99349 -3.26964 0
M  V30 1091 H 108.872 -0.554383 -0.378022 0
M  V30 1092 H 111.416 -1.9651 -0.566054 0
M  V30 1093 H 109.571 -2.44898 -3.00173 0
M  V30 1094 H 109.985 -4.60678 -2.5075 0
M  V30 1095 H 111.459 -3.79217 -4.01121 0
M  V30 1096 H 111.936 -2.10307 -3.85574 0
M  V30 1097 H 112.542 -3.29774 -2.68569 0
M  V30 1098 N 110.857 0.726932 -1.39834 0
M  V30 1099 C 112.104 1.48664 -1.37496 0
M  V30 1100 C 112.432 1.94482 0.0264678 0
M  V30 1101 O 111.687 1.67692 1.00886 0
M  V30 1102 C 111.986 2.73495 -2.30077 0
M  V30 1103 C 111.652 2.46502 -3.77555 0
M  V30 1104 C 110.314 2.3885 -4.17737 0
M  V30 1105 C 112.666 2.23604 -4.70798 0
M  V30 1106 C 109.994 2.06352 -5.49214 0
M  V30 1107 C 112.346 1.92622 -6.02561 0
M  V30 1108 C 111.01 1.83444 -6.41798 0
M  V30 1109 H 110.28 0.544001 -0.503135 0
M  V30 1110 H 112.927 0.833657 -1.72402 0
M  V30 1111 H 111.232 3.43575 -1.88317 0
M  V30 1112 H 112.929 3.31549 -2.25558 0
M  V30 1113 H 109.519 2.5334 -3.45712 0
M  V30 1114 H 113.703 2.28479 -4.40581 0
M  V30 1115 H 108.959 1.97776 -5.78528 0
M  V30 1116 H 113.133 1.73914 -6.74334 0
M  V30 1117 H 110.76 1.58029 -7.43593 0
M  V30 1118 N 112.336 1.25143 0.95797 0
M  V30 1119 C 113.747 1.08851 1.51685 0
M  V30 1120 C 114.098 -0.33687 1.93286 0
M  V30 1121 O 113.223 -1.22644 1.7829 0
M  V30 1122 C 113.818 1.96978 2.75654 0
M  V30 1123 C 112.377 1.84881 3.27866 0
M  V30 1124 C 111.524 1.91329 2.0072 0
M  V30 1125 H 114.475 1.38478 0.77522 0
M  V30 1126 H 114.496 1.5078 3.4935 0
M  V30 1127 H 114.008 3.00712 2.45345 0
M  V30 1128 H 112.109 0.840182 3.63004 0
M  V30 1129 H 112.222 2.6951 3.96107 0
M  V30 1130 H 110.586 1.35174 2.15871 0
M  V30 1131 H 111.369 2.96661 1.72764 0
M  V30 1132 N 113.814 -1.1601 1.06675 0
M  V30 1133 C 115.06 -1.86909 0.786945 0
M  V30 1134 C 115.393 -1.81717 -0.685018 0
M  V30 1135 O 114.668 -1.23551 -1.50218 0
M  V30 1136 C 114.951 -3.36313 1.28707 0
M  V30 1137 C 114.804 -3.50175 2.82308 0
M  V30 1138 C 116.123 -4.3084 0.898071 0
M  V30 1139 H 113.242 -0.678677 0.287343 0
M  V30 1140 H 115.884 -1.36336 1.32334 0
M  V30 1141 H 114.034 -3.79513 0.830768 0
M  V30 1142 H 115.706 -3.15886 3.36175 0
M  V30 1143 H 113.949 -2.91959 3.20847 0
M  V30 1144 H 114.62 -4.55116 3.12368 0
M  V30 1145 H 117.096 -3.95561 1.29114 0
M  V30 1146 H 115.972 -5.33876 1.27543 0
M  V30 1147 H 116.233 -4.41662 -0.196651 0
M  V30 1148 N 115.292 -0.849877 -1.32721 0
M  V30 1149 C 116.224 -0.248332 -2.27851 0
M  V30 1150 C 117.237 0.577218 -1.52224 0
M  V30 1151 O 118.426 0.402489 -1.73903 0
M  V30 1152 C 115.526 0.668107 -3.32249 0
M  V30 1153 C 114.699 -0.120534 -4.37234 0
M  V30 1154 C 113.758 0.720932 -5.21238 0
M  V30 1155 O 112.784 0.156166 -5.68986 0
M  V30 1156 N 113.986 2.03647 -5.43607 0
M  V30 1157 H 116.751 -1.06575 -2.80111 0
M  V30 1158 H 114.312 -0.709395 -1.45531 0
M  V30 1159 H 116.304 1.23627 -3.85355 0
M  V30 1160 H 114.874 1.38621 -2.80184 0
M  V30 1161 H 114.094 -0.870108 -3.84477 0
M  V30 1162 H 115.382 -0.662406 -5.0447 0
M  V30 1163 H 114.78 2.51871 -5.06535 0
M  V30 1164 H 113.337 2.55287 -5.99727 0
M  V30 1165 N 116.77 1.45427 -0.607355 0
M  V30 1166 C 118.047 1.9557 -0.0344566 0
M  V30 1167 C 118.427 1.54979 1.43334 0
M  V30 1168 O 117.775 0.812241 2.13576 0
M  V30 1169 C 117.985 3.48226 -0.232321 0
M  V30 1170 C 119.333 4.2445 -0.113001 0
M  V30 1171 O 120.357 3.55829 -0.162431 0
M  V30 1172 O 119.216 5.465 0.00209442 0
M  V30 1173 H 116.31 0.826222 0.0358667 0
M  V30 1174 H 118.856 1.55594 -0.6774 0
M  V30 1175 H 117.628 3.70739 -1.25174 0
M  V30 1176 H 117.251 3.95092 0.445896 0
M  V30 1177 N 118.248 0.346503 1.53744 0
M  V30 1178 C 119.659 -0.136779 1.86198 0
M  V30 1179 C 120.01 -1.49749 1.26766 0
M  V30 1180 O 119.135 -2.08417 0.582355 0
M  V30 1181 C 119.73 -0.254966 3.37839 0
M  V30 1182 C 118.289 -0.682482 3.70161 0
M  V30 1183 C 117.436 0.181981 2.76702 0
M  V30 1184 H 120.387 0.565994 1.48264 0
M  V30 1185 H 120.408 -1.08195 3.64793 0
M  V30 1186 H 119.92 0.735526 3.81066 0
M  V30 1187 H 118.021 -1.68189 3.3248 0
M  V30 1188 H 118.134 -0.470326 4.76786 0
M  V30 1189 H 116.498 -0.34615 2.52337 0
M  V30 1190 H 117.281 1.16966 3.2276 0
M  V30 1191 N 119.726 -1.57421 0.075193 0
M  V30 1192 C 120.689 -2.11791 -0.876203 0
M  V30 1193 C 121.689 -1.04268 -1.22412 0
M  V30 1194 O 122.879 -1.30242 -1.15684 0
M  V30 1195 C 120.011 -2.62207 -2.17854 0
M  V30 1196 H 121.204 -2.9716 -0.40444 0
M  V30 1197 H 118.757 -1.55333 -0.173557 0
M  V30 1198 H 119.492 -1.803 -2.6956 0
M  V30 1199 H 119.277 -3.40802 -1.93897 0
M  V30 1200 H 120.767 -3.04335 -2.85955 0
M  V30 1201 N 121.204 0.198386 -1.56346 0
M  V30 1202 C 122.429 0.939682 -1.84891 0
M  V30 1203 C 122.854 1.76202 -0.658369 0
M  V30 1204 O 122.212 1.76993 0.392851 0
M  V30 1205 C 122.26 1.81428 -3.11635 0
M  V30 1206 O 121.364 2.91265 -2.91956 0
M  V30 1207 H 120.705 0.264807 -0.608912 0
M  V30 1208 H 123.235 0.204695 -2.03573 0
M  V30 1209 H 123.245 2.21958 -3.42343 0
M  V30 1210 H 121.92 1.21004 -3.97908 0
M  V30 1211 H 120.497 2.54514 -2.72538 0
M  V30 1212 N 122.682 1.50554 0.465978 0
M  V30 1213 C 123.93 1.61479 1.21528 0
M  V30 1214 C 124.251 0.319596 1.92363 0
M  V30 1215 O 123.521 -0.663194 1.84333 0
M  V30 1216 H 122.101 0.595055 0.451573 0
M  V30 1217 H 124.763 1.87355 0.53704 0
M  V30 1218 H 123.859 2.42846 1.96042 0
M  V30 1219 N 124.16 -0.719506 1.40217 0
M  V30 1220 C 125.123 -1.8153 1.39927 0
M  V30 1221 C 126.123 -1.58095 0.293723 0
M  V30 1222 O 127.313 -1.65209 0.552429 0
M  V30 1223 C 124.445 -3.19561 1.18716 0
M  V30 1224 H 125.638 -1.83186 2.37451 0
M  V30 1225 H 123.191 -0.924746 1.26008 0
M  V30 1226 H 123.926 -3.23557 0.219366 0
M  V30 1227 H 123.711 -3.3797 1.98793 0
M  V30 1228 H 125.201 -3.99598 1.21291 0
M  V30 1229 N 125.638 -1.25649 -0.95132 0
M  V30 1230 C 126.601 -1.06399 -2.03007 0
M  V30 1231 C 127.601 -0.0156794 -1.60792 0
M  V30 1232 O 128.791 -0.25817 -1.72276 0
M  V30 1233 C 125.923 -0.616184 -3.35285 0
M  V30 1234 H 127.116 -2.02164 -2.21517 0
M  V30 1235 H 124.669 -1.08103 -1.12887 0
M  V30 1236 H 125.404 0.343917 -3.22471 0
M  V30 1237 H 125.189 -1.37301 -3.67275 0
M  V30 1238 H 126.679 -0.503032 -4.14559 0
M  V30 1239 N 127.117 1.15442 -1.07289 0
M  V30 1240 C 128.047 2.22312 -0.714107 0
M  V30 1241 C 129.028 1.67467 0.298155 0
M  V30 1242 O 130.213 1.93445 0.171048 0
M  V30 1243 C 127.343 3.47124 -0.110448 0
M  V30 1244 C 126.297 4.14926 -1.04979 0
M  V30 1245 C 125.623 5.33807 -0.308924 0
M  V30 1246 C 126.923 4.64762 -2.38314 0
M  V30 1247 H 128.617 2.5258 -1.6076 0
M  V30 1248 H 126.163 1.21404 -0.77441 0
M  V30 1249 H 128.116 4.21124 0.152482 0
M  V30 1250 H 126.84 3.16187 0.81812 0
M  V30 1251 H 125.499 3.42866 -1.29764 0
M  V30 1252 H 125.147 4.99126 0.623084 0
M  V30 1253 H 124.847 5.80113 -0.935036 0
M  V30 1254 H 126.371 6.10576 -0.0537771 0
M  V30 1255 H 127.785 5.30292 -2.1786 0
M  V30 1256 H 126.182 5.21728 -2.96514 0
M  V30 1257 H 127.252 3.80434 -3.00663 0
M  V30 1258 N 128.595 0.856903 1.32268 0
M  V30 1259 C 129.843 0.460474 1.96784 0
M  V30 1260 C 130.164 -0.987701 1.68135 0
M  V30 1261 O 129.434 -1.69058 0.989765 0
M  V30 1262 H 128.014 0.167289 0.728027 0
M  V30 1263 H 130.676 1.09383 1.61312 0
M  V30 1264 H 129.772 0.60739 3.06133 0
M  V30 1265 N 130.073 -1.45103 0.615059 0
M  V30 1266 C 131.006 -2.27717 -0.148408 0
M  V30 1267 C 131.984 -1.37584 -0.866572 0
M  V30 1268 O 133.168 -1.67017 -0.87393 0
M  V30 1269 C 130.295 -3.16136 -1.21557 0
M  V30 1270 C 129.341 -4.22263 -0.599712 0
M  V30 1271 S 130.174 -5.3215 0.598081 0
M  V30 1272 C 131.33 -6.24137 -0.469484 0
M  V30 1273 H 131.563 -2.92121 0.552483 0
M  V30 1274 H 129.096 -1.49054 0.402778 0
M  V30 1275 H 131.054 -3.67633 -1.82638 0
M  V30 1276 H 129.715 -2.50982 -1.88857 0
M  V30 1277 H 128.908 -4.84081 -1.4029 0
M  V30 1278 H 128.51 -3.73945 -0.063876 0
M  V30 1279 H 130.802 -6.63984 -1.34652 0
M  V30 1280 H 131.745 -7.0801 0.112725 0
M  V30 1281 H 132.153 -5.58971 -0.788168 0
M  V30 1282 N 131.551 -0.354651 -1.53558 0
M  V30 1283 C 132.797 0.238797 -2.01389 0
M  V30 1284 C 133.13 1.49309 -1.2418 0
M  V30 1285 O 132.405 1.91638 -0.332457 0
M  V30 1286 C 132.688 0.541771 -3.56001 0
M  V30 1287 C 132.541 -0.725388 -4.43912 0
M  V30 1288 C 133.86 1.34685 -4.18984 0
M  V30 1289 H 130.979 0.0853177 -0.732045 0
M  V30 1290 H 133.621 -0.477384 -1.83905 0
M  V30 1291 H 131.771 1.15189 -3.71031 0
M  V30 1292 H 133.443 -1.36313 -4.407 0
M  V30 1293 H 131.686 -1.34801 -4.12324 0
M  V30 1294 H 132.357 -0.468505 -5.50008 0
M  V30 1295 H 134.833 0.830837 -4.07721 0
M  V30 1296 H 133.709 1.52759 -5.27215 0
M  V30 1297 H 133.97 2.35221 -3.74331 0
M  V30 1298 N 133.029 1.57378 -0.0835403 0
M  V30 1299 C 133.992 2.12252 0.864959 0
M  V30 1300 C 134.992 1.04916 1.21858 0
M  V30 1301 O 136.182 1.30853 1.14991 0
M  V30 1302 C 133.314 2.63358 2.16461 0
M  V30 1303 H 134.507 2.97371 0.388676 0
M  V30 1304 H 132.06 1.55423 0.165317 0
M  V30 1305 H 132.795 1.81727 2.686 0
M  V30 1306 H 132.58 3.41826 1.92087 0
M  V30 1307 H 134.07 3.05847 2.84337 0
M  V30 1308 N 134.507 -0.190092 1.56449 0
M  V30 1309 C 135.784 -0.935886 1.71757 0
M  V30 1310 C 136.164 -2.01173 0.639726 0
M  V30 1311 O 135.512 -2.25827 -0.348502 0
M  V30 1312 C 135.722 -1.51775 3.1427 0
M  V30 1313 C 137.07 -1.99794 3.74656 0
M  V30 1314 O 138.094 -1.61607 3.1743 0
M  V30 1315 O 136.953 -2.70079 4.751 0
M  V30 1316 H 134.047 -0.439229 0.700719 0
M  V30 1317 H 136.593 -0.179395 1.68749 0
M  V30 1318 H 135.365 -0.742505 3.84191 0
M  V30 1319 H 134.988 -2.33894 3.21527 0
M  V30 1320 N 135.985 -1.50799 -0.457987 0
M  V30 1321 C 137.225 -1.64088 -1.21879 0
M  V30 1322 C 137.589 -0.339848 -1.88968 0
M  V30 1323 O 138.79 -0.348301 -2.66534 0
M  V30 1324 C 137.061 -2.79726 -2.2246 0
M  V30 1325 S 138.62 -3.13225 -3.07303 0
M  V30 1326 H 135.438 -0.578314 -0.41361 0
M  V30 1327 H 138.04 -1.88632 -0.513645 0
M  V30 1328 H 136.744 -3.72722 -1.71775 0
M  V30 1329 H 136.275 -2.57308 -2.97584 0
M  V30 1330 H 138.29 -2.58062 -4.23814 0
M  V30 1331 N 137.463 0.71206 -1.40597 0
M  V30 1332 C 138.711 1.46907 -1.38791 0
M  V30 1333 C 139.032 1.94998 0.00780391 0
M  V30 1334 O 138.302 1.70587 0.963174 0
M  V30 1335 H 136.882 0.545043 -0.51082 0
M  V30 1336 H 139.544 0.843882 -1.75683 0
M  V30 1337 H 138.64 2.34021 -2.06496 0
M  V30 1338 N 138.941 1.26152 0.944643 0
M  V30 1339 C 140.187 1.11657 1.69294 0
M  V30 1340 C 140.52 -0.339926 1.91202 0
M  V30 1341 O 139.795 -1.24994 1.49019 0
M  V30 1342 C 140.078 1.88236 3.06984 0
M  V30 1343 C 139.931 3.41772 2.92424 0
M  V30 1344 C 141.25 1.67343 4.07043 0
M  V30 1345 H 138.369 0.407004 0.614424 0
M  V30 1346 H 141.011 1.55106 1.09737 0
M  V30 1347 H 139.161 1.51308 3.57824 0
M  V30 1348 H 140.833 3.88433 2.48832 0
M  V30 1349 H 139.076 3.68974 2.28124 0
M  V30 1350 H 139.747 3.90579 3.90067 0
M  V30 1351 H 142.223 1.99509 3.65151 0
M  V30 1352 H 141.099 2.23346 5.01406 0
M  V30 1353 H 141.36 0.617158 4.37771 0
M  V30 1354 N 140.419 -1.14872 1.07899 0
M  V30 1355 C 141.835 -1.37776 0.805606 0
M  V30 1356 C 142.035 -1.92743 -0.587555 0
M  V30 1357 O 141.091 -2.13678 -1.34528 0
M  V30 1358 C 142.404 -2.34361 1.88402 0
M  V30 1359 C 143.952 -2.48012 1.90942 0
M  V30 1360 C 144.427 -3.47893 2.97883 0
M  V30 1361 N 145.918 -3.55433 2.97021 0
M  V30 1362 C 146.653 -4.32553 3.76412 0
M  V30 1363 N 146.149 -5.12959 4.65666 0
M  V30 1364 N 147.942 -4.27697 3.64735 0
M  V30 1365 H 140.093 -0.775365 1.97742 0
M  V30 1366 H 142.356 -0.403521 0.857831 0
M  V30 1367 H 142.062 -2.01098 2.88535 0
M  V30 1368 H 141.936 -3.34206 1.74889 0
M  V30 1369 H 144.323 -2.8057 0.914579 0
M  V30 1370 H 144.404 -1.48147 2.08534 0
M  V30 1371 H 144.048 -3.16069 3.97571 0
M  V30 1372 H 143.978 -4.47527 2.77538 0
M  V30 1373 H 146.469 -2.98048 2.32326 0
M  V30 1374 H 146.782 -5.69065 5.22862 0
M  V30 1375 H 145.127 -5.12245 4.69712 0
M  V30 1376 H 148.318 -3.63949 2.94378 0
M  V30 1377 H 148.491 -4.8755 4.26848 0
M  V30 1378 N 141.898 -0.863906 -1.31812 0
M  V30 1379 C 142.808 -0.318461 -2.32428 0
M  V30 1380 C 143.824 0.568496 -1.64451 0
M  V30 1381 O 145 0.46666 -1.95919 0
M  V30 1382 C 142.065 0.476355 -3.43412 0
M  V30 1383 C 141.126 -0.43784 -4.27061 0
M  V30 1384 C 140.359 0.319138 -5.32745 0
M  V30 1385 O 140.582 1.54799 -5.48993 0
M  V30 1386 O 139.516 -0.319861 -6.01049 0
M  V30 1387 H 143.342 -1.15229 -2.80991 0
M  V30 1388 H 140.927 -0.627103 -1.35602 0
M  V30 1389 H 142.809 0.927156 -4.11074 0
M  V30 1390 H 141.484 1.28683 -2.97022 0
M  V30 1391 H 140.391 -0.937013 -3.62175 0
M  V30 1392 H 141.724 -1.21375 -4.77 0
M  V30 1393 N 143.376 1.44774 -0.622745 0
M  V30 1394 C 144.339 2.29069 0.0774015 0
M  V30 1395 C 145.339 1.4059 0.780461 0
M  V30 1396 O 146.529 1.62551 0.626322 0
M  V30 1397 C 143.661 3.21974 1.12006 0
M  V30 1398 H 144.854 2.92459 -0.663901 0
M  V30 1399 H 142.407 1.51548 -0.382486 0
M  V30 1400 H 143.142 2.63417 1.89162 0
M  V30 1401 H 142.927 3.87168 0.619951 0
M  V30 1402 H 144.417 3.85318 1.60995 0
M  V30 1403 N 144.854 0.36279 1.53368 0
M  V30 1404 C 146.27 0.0116182 1.59596 0
M  V30 1405 C 146.47 -1.47012 1.37803 0
M  V30 1406 O 145.526 -2.23136 1.18181 0
M  V30 1407 C 146.839 0.465052 2.97082 0
M  V30 1408 C 148.387 0.419033 3.10182 0
M  V30 1409 C 148.862 0.848235 4.50077 0
M  V30 1410 N 150.353 0.803183 4.56183 0
M  V30 1411 C 151.088 1.107 5.62613 0
M  V30 1412 N 150.584 1.47996 6.76808 0
M  V30 1413 N 152.377 1.02998 5.52583 0
M  V30 1414 H 144.528 1.32775 1.65785 0
M  V30 1415 H 146.791 0.542518 0.777417 0
M  V30 1416 H 146.497 1.49892 3.18159 0
M  V30 1417 H 146.371 -0.149786 3.76902 0
M  V30 1418 H 148.758 -0.605696 2.88817 0
M  V30 1419 H 148.839 1.06933 2.32377 0
M  V30 1420 H 148.483 1.87107 4.7218 0
M  V30 1421 H 148.413 0.175218 5.26308 0
M  V30 1422 H 150.904 0.52838 3.74188 0
M  V30 1423 H 151.217 1.69613 7.53957 0
M  V30 1424 H 149.562 1.51859 6.78206 0
M  V30 1425 H 152.753 0.737817 4.62249 0
M  V30 1426 H 152.926 1.2701 6.35431 0
M  V30 1427 N 146.332 -1.57332 0.0918853 0
M  V30 1428 C 147.295 -2.12708 -0.85369 0
M  V30 1429 C 148.295 -1.05561 -1.213 0
M  V30 1430 O 149.485 -1.31461 -1.14296 0
M  V30 1431 C 146.617 -2.64503 -2.15061 0
M  V30 1432 H 147.81 -2.97573 -0.3729 0
M  V30 1433 H 145.363 -1.55509 -0.157072 0
M  V30 1434 H 146.098 -1.83149 -2.67632 0
M  V30 1435 H 145.883 -3.4284 -1.90272 0
M  V30 1436 H 147.373 -3.07351 -2.82711 0
M  V30 1437 N 147.81 0.181792 -1.56548 0
M  V30 1438 C 148.773 1.20894 -1.94724 0
M  V30 1439 C 149.773 1.37738 -0.829747 0
M  V30 1440 O 150.963 1.35323 -1.09697 0
M  V30 1441 C 148.095 2.57593 -2.23291 0
M  V30 1442 H 149.288 0.882275 -2.86629 0
M  V30 1443 H 146.841 0.423838 -1.50444 0
M  V30 1444 H 147.576 2.95291 -1.34067 0
M  V30 1445 H 147.361 2.46735 -3.04736 0
M  V30 1446 H 148.851 3.31637 -2.53785 0
M  V30 1447 N 149.288 1.51039 0.449983 0
M  V30 1448 C 150.534 1.63322 1.20223 0
M  V30 1449 C 150.867 0.34241 1.91158 0
M  V30 1450 O 150.142 -0.657344 1.83055 0
M  V30 1451 C 150.425 2.82801 2.22925 0
M  V30 1452 C 150.278 4.21823 1.56157 0
M  V30 1453 C 151.597 2.97807 3.24035 0
M  V30 1454 H 148.716 0.594407 0.435718 0
M  V30 1455 H 151.358 1.83489 0.493136 0
M  V30 1456 H 149.508 2.65738 2.834 0
M  V30 1457 H 151.18 4.50526 0.991162 0
M  V30 1458 H 149.423 4.25105 0.864172 0
M  V30 1459 H 150.094 5.01391 2.30891 0
M  V30 1460 H 152.57 3.13497 2.73603 0
M  V30 1461 H 151.446 3.82992 3.93202 0
M  V30 1462 H 151.707 2.09328 3.89402 0
M  V30 1463 N 150.766 -0.704594 1.40972 0
M  V30 1464 C 152.182 -1.01406 1.23244 0
M  V30 1465 C 152.382 -2.01169 0.115399 0
M  V30 1466 O 151.438 -2.47021 -0.523147 0
M  V30 1467 C 152.751 -1.54728 2.57836 0
M  V30 1468 C 154.299 -1.66658 2.64942 0
M  V30 1469 C 154.774 -2.23383 3.9983 0
M  V30 1470 N 156.265 -2.30756 4.01629 0
M  V30 1471 C 157 -2.75655 5.02794 0
M  V30 1472 N 156.496 -3.20225 6.14352 0
M  V30 1473 N 158.289 -2.75138 4.90159 0
M  V30 1474 H 150.44 -0.0435285 2.12355 0
M  V30 1475 H 152.703 -0.0818951 0.944456 0
M  V30 1476 H 152.409 -0.888832 3.40283 0
M  V30 1477 H 152.283 -2.53084 2.79693 0
M  V30 1478 H 154.67 -2.31617 1.8286 0
M  V30 1479 H 154.751 -0.668717 2.46904 0
M  V30 1480 H 154.395 -1.59043 4.82357 0
M  V30 1481 H 154.325 -3.23904 4.15203 0
M  V30 1482 H 156.816 -1.99291 3.21079 0
M  V30 1483 H 157.129 -3.53084 6.87424 0
M  V30 1484 H 155.474 -3.18156 6.17901 0
M  V30 1485 H 158.665 -2.39661 4.02095 0
M  V30 1486 H 158.838 -3.09812 5.6914 0
M  V30 1487 N 152.244 -1.26651 -0.937939 0
M  V30 1488 C 153.207 -1.08546 -2.01867 0
M  V30 1489 C 154.207 -0.0327327 -1.60767 0
M  V30 1490 O 155.397 -0.276427 -1.71993 0
M  V30 1491 C 152.529 -0.651711 -3.34613 0
M  V30 1492 H 153.722 -2.04502 -2.1936 0
M  V30 1493 H 151.275 -1.09294 -1.11734 0
M  V30 1494 H 152.01 0.309696 -3.22818 0
M  V30 1495 H 151.795 -1.41189 -3.65798 0
M  V30 1496 H 153.285 -0.546973 -4.14002 0
M  V30 1497 N 153.722 1.14298 -1.08507 0
M  V30 1498 C 154.685 2.17607 -0.719711 0
M  V30 1499 C 155.685 1.58907 0.245997 0
M  V30 1500 O 156.875 1.74181 0.0254081 0
M  V30 1501 C 154.007 3.40842 -0.0627695 0
M  V30 1502 H 155.2 2.51443 -1.63452 0
M  V30 1503 H 152.753 1.28963 -0.88307 0
M  V30 1504 H 153.488 3.12587 0.863716 0
M  V30 1505 H 153.273 3.84713 -0.757504 0
M  V30 1506 H 154.763 4.17221 0.177786 0
M  V30 1507 N 155.201 0.870884 1.31352 0
M  V30 1508 C 156.431 0.496049 2.00557 0
M  V30 1509 C 156.839 -0.916241 1.65534 0
M  V30 1510 O 156.182 -1.61188 0.881134 0
M  V30 1511 C 156.244 0.574418 3.54881 0
M  V30 1512 C 155.908 1.94849 4.1338 0
M  V30 1513 C 156.905 2.91611 4.30417 0
M  V30 1514 C 154.59 2.25005 4.49086 0
M  V30 1515 C 156.584 4.16672 4.82352 0
M  V30 1516 C 154.271 3.50315 5.00722 0
M  V30 1517 C 155.269 4.45964 5.17306 0
M  V30 1518 O 154.957 5.69052 5.67833 0
M  V30 1519 H 154.689 0.191664 0.64826 0
M  V30 1520 H 157.243 1.17409 1.68536 0
M  V30 1521 H 155.473 -0.160549 3.86367 0
M  V30 1522 H 157.162 0.212879 4.05341 0
M  V30 1523 H 157.928 2.69622 4.03149 0
M  V30 1524 H 153.807 1.51332 4.35453 0
M  V30 1525 H 157.351 4.91336 4.95211 0
M  V30 1526 H 153.248 3.72147 5.27424 0
M  V30 1527 H 154.016 5.71236 5.86201 0
M  V30 1528 N 156.679 -1.44442 0.630414 0
M  V30 1529 C 157.589 -2.34476 -0.0761693 0
M  V30 1530 C 158.605 -1.52576 -0.836449 0
M  V30 1531 O 159.781 -1.85307 -0.788874 0
M  V30 1532 C 156.846 -3.30545 -1.04599 0
M  V30 1533 C 155.907 -4.28352 -0.28516 0
M  V30 1534 C 155.14 -5.19831 -1.20878 0
M  V30 1535 O 155.363 -5.15223 -2.44747 0
M  V30 1536 O 154.297 -5.97892 -0.693491 0
M  V30 1537 H 158.123 -2.96345 0.664324 0
M  V30 1538 H 155.708 -1.44203 0.39061 0
M  V30 1539 H 157.59 -3.89681 -1.60396 0
M  V30 1540 H 156.265 -2.7121 -1.76711 0
M  V30 1541 H 155.172 -3.72764 0.315837 0
M  V30 1542 H 156.505 -4.90605 0.395924 0
M  V30 1543 N 158.157 -0.370918 -1.53173 0
M  V30 1544 C 159.12 0.460778 -2.24521 0
M  V30 1545 C 160.12 1.00536 -1.25496 0
M  V30 1546 O 161.31 0.890266 -1.49733 0
M  V30 1547 C 158.442 1.64457 -2.98608 0
M  V30 1548 H 159.635 -0.163613 -2.99453 0
M  V30 1549 H 157.188 -0.122699 -1.55818 0
M  V30 1550 H 157.923 2.30691 -2.2793 0
M  V30 1551 H 157.708 1.26099 -3.7127 0
M  V30 1552 H 159.198 2.23384 -3.5283 0
M  V30 1553 N 159.635 1.57281 -0.100228 0
M  V30 1554 C 160.882 1.94537 0.562268 0
M  V30 1555 C 161.21 0.982315 1.67871 0
M  V30 1556 O 160.465 0.00280936 1.957 0
M  V30 1557 C 160.764 3.38305 1.15259 0
M  V30 1558 C 160.43 4.50618 0.159409 0
M  V30 1559 C 159.092 4.81066 -0.113741 0
M  V30 1560 C 161.444 5.18615 -0.518461 0
M  V30 1561 C 158.772 5.76835 -1.07137 0
M  V30 1562 C 161.124 6.15412 -1.46459 0
M  V30 1563 C 159.788 6.44262 -1.74592 0
M  V30 1564 H 159.058 0.711863 0.205748 0
M  V30 1565 H 161.705 1.90679 -0.17715 0
M  V30 1566 H 160.01 3.38766 1.96836 0
M  V30 1567 H 161.707 3.64435 1.67297 0
M  V30 1568 H 158.297 4.2689 0.382491 0
M  V30 1569 H 162.481 4.95264 -0.320581 0
M  V30 1570 H 157.737 5.975 -1.29628 0
M  V30 1571 H 161.911 6.67194 -1.99564 0
M  V30 1572 H 159.538 7.1828 -2.48953 0
M  V30 1573 N 161.113 -0.173488 1.56642 0
M  V30 1574 C 162.353 -0.896984 1.83667 0
M  V30 1575 C 162.717 -1.79523 0.680842 0
M  V30 1576 O 163.918 -2.55616 0.831488 0
M  V30 1577 C 162.189 -1.67351 3.15798 0
M  V30 1578 S 163.748 -2.44607 3.64298 0
M  V30 1579 H 160.566 -0.300464 0.644393 0
M  V30 1580 H 163.168 -0.158775 1.94854 0
M  V30 1581 H 161.872 -1.00462 3.97914 0
M  V30 1582 H 161.403 -2.45313 3.07546 0
M  V30 1583 H 163.418 -3.69261 3.31452 0
M  V30 1584 N 162.591 -1.51276 -0.441967 0
M  V30 1585 C 164.007 -1.39349 -0.778083 0
M  V30 1586 C 164.207 -0.472212 -1.95889 0
M  V30 1587 O 163.263 0.0743551 -2.5239 0
M  V30 1588 C 164.576 -2.81292 -1.0628 0
M  V30 1589 C 166.124 -2.9041 -1.16751 0
M  V30 1590 C 166.599 -4.33251 -1.48519 0
M  V30 1591 N 168.09 -4.36336 -1.55453 0
M  V30 1592 C 168.825 -5.43885 -1.81596 0
M  V30 1593 N 168.321 -6.61601 -2.05562 0
M  V30 1594 N 170.114 -5.3136 -1.8334 0
M  V30 1595 H 162.265 -2.09729 0.335774 0
M  V30 1596 H 164.528 -0.943925 0.0878028 0
M  V30 1597 H 164.234 -3.50678 -0.267905 0
M  V30 1598 H 164.108 -3.20334 -1.99163 0
M  V30 1599 H 166.495 -2.21225 -1.95304 0
M  V30 1600 H 166.576 -2.54871 -0.217801 0
M  V30 1601 H 166.22 -5.02984 -0.704958 0
M  V30 1602 H 166.15 -4.66299 -2.44689 0
M  V30 1603 H 168.641 -3.51466 -1.38853 0
M  V30 1604 H 168.954 -7.39361 -2.24867 0
M  V30 1605 H 167.299 -6.64725 -2.02894 0
M  V30 1606 H 170.49 -4.38382 -1.64132 0
M  V30 1607 H 170.663 -6.15258 -2.03377 0
M  V30 1608 N 164.069 0.697108 -1.41344 0
M  V30 1609 C 165.315 1.45796 -1.41828 0
M  V30 1610 C 165.67 1.92382 -0.0261743 0
M  V30 1611 O 164.963 1.66522 0.947688 0
M  V30 1612 C 165.157 2.68553 -2.35826 0
M  V30 1613 C 164.986 2.33975 -3.84039 0
M  V30 1614 C 163.756 2.24414 -4.52732 0
M  V30 1615 C 165.954 1.97048 -4.75054 0
M  V30 1616 N 163.936 1.82705 -5.86082 0
M  V30 1617 C 165.307 1.66086 -5.9734 0
M  V30 1618 C 167.362 1.83845 -4.62715 0
M  V30 1619 C 166.065 1.23246 -7.08663 0
M  V30 1620 C 168.091 1.4241 -5.73998 0
M  V30 1621 C 167.453 1.12357 -6.95381 0
M  V30 1622 H 163.552 0.530859 -0.574206 0
M  V30 1623 H 166.136 0.806674 -1.77203 0
M  V30 1624 H 164.307 3.31404 -2.02549 0
M  V30 1625 H 166.039 3.35015 -2.2704 0
M  V30 1626 H 162.794 2.4276 -4.0665 0
M  V30 1627 H 163.218 1.64337 -6.56751 0
M  V30 1628 H 167.86 2.05734 -3.69369 0
M  V30 1629 H 165.578 1.00102 -8.01876 0
M  V30 1630 H 169.164 1.32746 -5.66454 0
M  V30 1631 H 168.044 0.807795 -7.80028 0
M  V30 1632 N 165.547 1.27147 0.931209 0
M  V30 1633 C 166.963 1.04475 1.20653 0
M  V30 1634 C 167.163 -0.223885 2.00252 0
M  V30 1635 O 166.219 -0.930332 2.34736 0
M  V30 1636 C 167.532 2.28209 1.95809 0
M  V30 1637 C 169.08 2.33211 2.08762 0
M  V30 1638 C 169.555 3.56665 2.87323 0
M  V30 1639 N 171.046 3.57201 2.94892 0
M  V30 1640 C 171.781 4.49395 3.56134 0
M  V30 1641 N 171.277 5.51889 4.18796 0
M  V30 1642 N 173.07 4.37026 3.53504 0
M  V30 1643 H 165.221 2.08612 0.399333 0
M  V30 1644 H 167.484 0.917312 0.239253 0
M  V30 1645 H 167.19 3.20538 1.44736 0
M  V30 1646 H 167.064 2.33247 2.96438 0
M  V30 1647 H 169.451 1.41391 2.59023 0
M  V30 1648 H 169.532 2.32178 1.07364 0
M  V30 1649 H 169.176 4.4882 2.37746 0
M  V30 1650 H 169.106 3.54948 3.88998 0
M  V30 1651 H 171.597 2.83074 2.50354 0
M  V30 1652 H 171.91 6.18409 4.63454 0
M  V30 1653 H 170.255 5.55735 4.17353 0
M  V30 1654 H 173.446 3.56166 3.03749 0
M  V30 1655 H 173.619 5.09067 4.00942 0
M  V30 1656 N 167.025 -1.13721 1.09112 0
M  V30 1657 C 167.935 -2.22638 0.73957 0
M  V30 1658 C 168.951 -1.72091 -0.257068 0
M  V30 1659 O 170.127 -2.01155 -0.0992154 0
M  V30 1660 C 167.192 -3.46322 0.16191 0
M  V30 1661 C 166.253 -4.11775 1.21408 0
M  V30 1662 C 165.486 -5.29555 0.663891 0
M  V30 1663 O 165.709 -5.68077 -0.514274 0
M  V30 1664 O 164.643 -5.84973 1.41738 0
M  V30 1665 H 168.469 -2.55074 1.64836 0
M  V30 1666 H 166.054 -1.21791 0.865289 0
M  V30 1667 H 167.936 -4.21107 -0.157073 0
M  V30 1668 H 166.611 -3.15593 -0.719932 0
M  V30 1669 H 165.518 -3.3883 1.58571 0
M  V30 1670 H 166.851 -4.46627 2.06845 0
M  V30 1671 N 168.503 -0.877838 -1.30888 0
M  V30 1672 C 169.749 -0.493426 -1.96706 0
M  V30 1673 C 170.082 0.953504 -1.6918 0
M  V30 1674 O 169.357 1.67266 -0.992594 0
M  V30 1675 C 169.64 -0.760429 -3.51979 0
M  V30 1676 C 169.493 -2.25747 -3.89048 0
M  V30 1677 C 170.812 -0.232148 -4.39487 0
M  V30 1678 H 167.931 -0.180746 -0.714493 0
M  V30 1679 H 170.573 -1.10052 -1.54882 0
M  V30 1680 H 168.723 -0.243715 -3.87735 0
M  V30 1681 H 170.395 -2.84204 -3.63354 0
M  V30 1682 H 168.638 -2.72694 -3.37373 0
M  V30 1683 H 169.309 -2.39491 -4.97341 0
M  V30 1684 H 171.785 -0.674314 -4.106 0
M  V30 1685 H 170.661 -0.448355 -5.47066 0
M  V30 1686 H 170.922 0.866297 -4.33529 0
M  V30 1687 N 169.982 1.44106 -0.638065 0
M  V30 1688 C 171.207 2.0685 -0.150916 0
M  V30 1689 C 171.632 1.47417 1.16833 0
M  V30 1690 O 170.99 0.578264 1.71831 0
M  V30 1691 C 171.038 3.60555 -0.05708 0
M  V30 1692 O 170.142 4.00465 0.984972 0
M  V30 1693 H 169.483 0.658151 -0.0879399 0
M  V30 1694 H 172.013 1.84865 -0.876707 0
M  V30 1695 H 172.023 4.07789 0.131232 0
M  V30 1696 H 170.698 4.03193 -1.02021 0
M  V30 1697 H 169.275 3.64849 0.770672 0
M  V30 1698 N 171.46 0.379036 1.52974 0
M  V30 1699 C 172.423 -0.448865 2.24762 0
M  V30 1700 C 173.423 -0.998689 1.26027 0
M  V30 1701 O 174.613 -0.882313 1.50203 0
M  V30 1702 C 171.745 -1.62872 2.99476 0
M  V30 1703 H 172.938 0.179491 2.99362 0
M  V30 1704 H 170.491 0.13096 1.5575 0
M  V30 1705 H 171.226 -2.29479 2.29151 0
M  V30 1706 H 171.011 -1.24128 3.71934 0
M  V30 1707 H 172.501 -2.2151 3.5401 0
M  V30 1708 N 172.938 -1.57226 0.108567 0
M  V30 1709 C 173.885 -2.14756 -0.845481 0
M  V30 1710 C 174.855 -1.06971 -1.27068 0
M  V30 1711 O 176.04 -1.34827 -1.35005 0
M  V30 1712 C 173.18 -2.74298 -2.09415 0
M  V30 1713 C 172.293 -3.96358 -1.71826 0
M  V30 1714 C 171.428 -4.44021 -2.9158 0
M  V30 1715 C 170.467 -5.58637 -2.50181 0
M  V30 1716 N 169.604 -6.01091 -3.62814 0
M  V30 1717 H 174.444 -2.95961 -0.348035 0
M  V30 1718 H 171.981 -1.46226 -0.160106 0
M  V30 1719 H 173.939 -3.06945 -2.82561 0
M  V30 1720 H 172.569 -1.95801 -2.56636 0
M  V30 1721 H 171.621 -3.69939 -0.885947 0
M  V30 1722 H 172.933 -4.79504 -1.37394 0
M  V30 1723 H 172.087 -4.78522 -3.72963 0
M  V30 1724 H 170.826 -3.59803 -3.29231 0
M  V30 1725 H 169.831 -5.23751 -1.67228 0
M  V30 1726 H 171.056 -6.44613 -2.13659 0
M  V30 1727 H 169.002 -5.19817 -4.00158 0
M  V30 1728 H 168.919 -6.79066 -3.32273 0
M  V30 1729 H 170.187 -6.40227 -4.44668 0
M  V30 1730 N 174.416 0.165178 -1.56732 0
M  V30 1731 C 175.326 1.22423 -2.00125 0
M  V30 1732 C 176.342 1.48084 -0.913619 0
M  V30 1733 O 177.518 1.60112 -1.22172 0
M  V30 1734 C 174.583 2.54197 -2.35764 0
M  V30 1735 C 173.644 2.36343 -3.58386 0
M  V30 1736 C 172.877 3.61834 -3.92316 0
M  V30 1737 O 173.1 4.67267 -3.27135 0
M  V30 1738 O 172.034 3.55579 -4.85641 0
M  V30 1739 H 175.86 0.885886 -2.90492 0
M  V30 1740 H 173.445 0.372518 -1.44681 0
M  V30 1741 H 175.327 3.3192 -2.59629 0
M  V30 1742 H 174.002 2.87598 -1.48557 0
M  V30 1743 H 172.909 1.56632 -3.39731 0
M  V30 1744 H 174.242 2.07865 -4.46154 0
M  V30 1745 N 175.894 1.51508 0.433938 0
M  V30 1746 C 177.31 1.39759 0.770682 0
M  V30 1747 C 177.51 0.482594 1.95636 0
M  V30 1748 O 176.566 -0.0609691 2.52426 0
M  V30 1749 C 177.879 2.81851 1.04787 0
M  V30 1750 C 179.427 2.91025 1.1521 0
M  V30 1751 C 179.902 4.34032 1.46219 0
M  V30 1752 N 181.393 4.37154 1.53136 0
M  V30 1753 C 182.128 5.4484 1.78709 0
M  V30 1754 N 181.624 6.62682 2.02051 0
M  V30 1755 N 183.417 5.32324 1.80519 0
M  V30 1756 H 175.568 2.09548 -0.346892 0
M  V30 1757 H 177.831 0.943446 -0.0928074 0
M  V30 1758 H 177.537 3.50815 0.249304 0
M  V30 1759 H 177.411 3.21386 1.97461 0
M  V30 1760 H 179.798 2.22257 1.94128 0
M  V30 1761 H 179.879 2.54983 0.204281 0
M  V30 1762 H 179.523 5.03351 0.678274 0
M  V30 1763 H 179.453 4.6759 2.42212 0
M  V30 1764 H 181.944 3.52197 1.36987 0
M  V30 1765 H 182.257 7.40543 2.20943 0
M  V30 1766 H 180.602 6.65791 1.99366 0
M  V30 1767 H 183.793 4.39246 1.61805 0
M  V30 1768 H 183.966 6.16328 2.00111 0
M  V30 1769 N 177.372 -0.689602 1.41712 0
M  V30 1770 C 178.597 -1.48329 1.44959 0
M  V30 1771 C 179.022 -1.8801 0.0581283 0
M  V30 1772 O 178.38 -1.55026 -0.940035 0
M  V30 1773 C 178.428 -2.71835 2.36935 0
M  V30 1774 O 177.532 -3.69549 1.8305 0
M  V30 1775 H 176.873 -0.446199 0.491734 0
M  V30 1776 H 179.403 -0.847127 1.86239 0
M  V30 1777 H 179.413 -3.20076 2.53013 0
M  V30 1778 H 178.088 -2.42291 3.38035 0
M  V30 1779 H 176.665 -3.2851 1.76452 0
M  V30 1780 N 178.85 -1.27639 -0.924453 0
M  V30 1781 C 180.075 -1.17101 -1.71179 0
M  V30 1782 C 180.5 0.268134 -1.86179 0
M  V30 1783 O 179.858 1.19415 -1.36418 0
M  V30 1784 C 179.906 -1.86313 -3.08739 0
M  V30 1785 O 179.01 -1.16331 -3.95652 0
M  V30 1786 H 178.351 -0.407091 -0.524569 0
M  V30 1787 H 180.881 -1.68767 -1.15666 0
M  V30 1788 H 180.891 -1.938 -3.59034 0
M  V30 1789 H 179.566 -2.91001 -2.97138 0
M  V30 1790 H 178.143 -1.16935 -3.54091 0
M  V30 1791 N 180.328 1.1314 -1.09713 0
M  V30 1792 C 181.258 2.20748 -0.761102 0
M  V30 1793 C 182.239 1.68061 0.262566 0
M  V30 1794 O 183.424 1.93765 0.129977 0
M  V30 1795 C 180.554 3.46812 -0.184054 0
M  V30 1796 C 179.508 4.12606 -1.13757 0
M  V30 1797 C 178.834 5.33031 -0.422083 0
M  V30 1798 C 180.134 4.59603 -2.48118 0
M  V30 1799 H 181.828 2.49113 -1.66082 0
M  V30 1800 H 179.374 1.19734 -0.799987 0
M  V30 1801 H 181.327 4.21353 0.0631215 0
M  V30 1802 H 180.051 3.17851 0.750868 0
M  V30 1803 H 178.71 3.40036 -1.37007 0
M  V30 1804 H 178.358 5.00335 0.517072 0
M  V30 1805 H 178.058 5.77999 -1.05788 0
M  V30 1806 H 179.582 6.10325 -0.183277 0
M  V30 1807 H 180.996 5.25552 -2.29059 0
M  V30 1808 H 179.393 5.15321 -3.07514 0
M  V30 1809 H 180.463 3.73971 -3.08665 0
M  V30 1810 N 181.806 0.884767 1.30421 0
M  V30 1811 C 182.736 0.367574 2.30589 0
M  V30 1812 C 183.717 -0.549464 1.60981 0
M  V30 1813 O 184.902 -0.46336 1.88591 0
M  V30 1814 C 182.032 -0.418944 3.44764 0
M  V30 1815 C 180.986 0.406316 4.26067 0
M  V30 1816 C 180.312 -0.506793 5.32293 0
M  V30 1817 C 181.612 1.64832 4.95608 0
M  V30 1818 H 183.306 1.20462 2.74097 0
M  V30 1819 H 180.852 0.580695 1.31772 0
M  V30 1820 H 182.805 -0.791395 4.13902 0
M  V30 1821 H 181.529 -1.28964 3.0006 0
M  V30 1822 H 180.188 0.760903 3.58617 0
M  V30 1823 H 179.836 -1.37519 4.83836 0
M  V30 1824 H 179.536 0.0415828 5.87585 0
M  V30 1825 H 181.06 -0.875764 6.04287 0
M  V30 1826 H 182.474 1.34646 5.57264 0
M  V30 1827 H 180.871 2.13688 5.60765 0
M  V30 1828 H 181.941 2.39284 4.21748 0
M  V30 1829 N 183.284 -1.43765 0.645699 0
M  V30 1830 C 184.7 -1.56509 0.312591 0
M  V30 1831 C 184.9 -1.6307 -1.18365 0
M  V30 1832 O 183.956 -1.58167 -1.96824 0
M  V30 1833 C 185.269 -2.82968 1.01733 0
M  V30 1834 C 186.817 -2.96701 0.996865 0
M  V30 1835 C 187.292 -4.25982 1.68236 0
M  V30 1836 N 188.783 -4.32829 1.64964 0
M  V30 1837 C 189.518 -5.31613 2.14885 0
M  V30 1838 N 189.014 -6.36718 2.73061 0
M  V30 1839 N 190.807 -5.23217 2.05428 0
M  V30 1840 H 182.958 -1.3775 1.61675 0
M  V30 1841 H 185.221 -0.661067 0.679481 0
M  V30 1842 H 184.927 -2.84156 2.0724 0
M  V30 1843 H 184.801 -3.72957 0.564177 0
M  V30 1844 H 187.188 -2.95058 -0.0497719 0
M  V30 1845 H 187.269 -2.08022 1.48865 0
M  V30 1846 H 186.913 -4.28386 2.72852 0
M  V30 1847 H 186.843 -5.13545 1.16529 0
M  V30 1848 H 189.334 -3.57493 1.22503 0
M  V30 1849 H 189.647 -7.08401 3.08848 0
M  V30 1850 H 187.992 -6.37362 2.77118 0
M  V30 1851 H 191.183 -4.40019 1.59689 0
M  V30 1852 H 191.356 -6.00045 2.44643 0
M  V30 1853 N 184.763 -0.387143 -1.52771 0
M  V30 1854 C 185.71 0.449048 -2.26389 0
M  V30 1855 C 186.68 1.05961 -1.27912 0
M  V30 1856 O 187.865 1.08804 -1.56737 0
M  V30 1857 C 185.005 1.57155 -3.0724 0
M  V30 1858 C 184.118 0.984066 -4.20643 0
M  V30 1859 C 183.253 2.07745 -4.88892 0
M  V30 1860 C 182.292 1.46574 -5.94292 0
M  V30 1861 N 181.429 2.49834 -6.56146 0
M  V30 1862 H 186.269 -0.185205 -2.97424 0
M  V30 1863 H 183.806 -0.103164 -1.46738 0
M  V30 1864 H 185.764 2.23309 -3.52405 0
M  V30 1865 H 184.394 2.17615 -2.38419 0
M  V30 1866 H 183.446 0.212193 -3.79808 0
M  V30 1867 H 184.758 0.497029 -4.96318 0
M  V30 1868 H 183.912 2.81673 -5.3735 0
M  V30 1869 H 182.651 2.59807 -4.12737 0
M  V30 1870 H 181.656 0.711696 -5.45174 0
M  V30 1871 H 182.881 0.953088 -6.72379 0
M  V30 1872 H 180.827 3.0107 -5.82832 0
M  V30 1873 H 180.744 2.05879 -7.27427 0
M  V30 1874 H 182.012 3.23399 -7.09249 0
M  V30 1875 N 186.241 1.57166 -0.116904 0
M  V30 1876 C 187.487 1.96206 0.536166 0
M  V30 1877 C 187.842 0.99915 1.64422 0
M  V30 1878 O 187.135 0.0288195 1.91578 0
M  V30 1879 C 187.329 3.39508 1.11664 0
M  V30 1880 C 187.158 4.49651 0.0663474 0
M  V30 1881 C 185.928 5.03982 -0.36474 0
M  V30 1882 C 188.126 5.09322 -0.713829 0
M  V30 1883 N 186.108 5.97699 -1.40102 0
M  V30 1884 C 187.479 5.98963 -1.60136 0
M  V30 1885 C 189.534 4.91989 -0.764948 0
M  V30 1886 C 188.237 6.73128 -2.53556 0
M  V30 1887 C 190.263 5.66833 -1.68685 0
M  V30 1888 C 189.625 6.56158 -2.56196 0
M  V30 1889 H 185.724 0.764203 0.165886 0
M  V30 1890 H 188.308 1.93623 -0.204535 0
M  V30 1891 H 186.479 3.42743 1.82707 0
M  V30 1892 H 188.211 3.65677 1.73386 0
M  V30 1893 H 184.966 4.73592 0.027252 0
M  V30 1894 H 185.39 6.49262 -1.91802 0
M  V30 1895 H 190.032 4.22676 -0.102501 0
M  V30 1896 H 187.75 7.41689 -3.20816 0
M  V30 1897 H 191.336 5.55427 -1.73181 0
M  V30 1898 H 190.216 7.13057 -3.26372 0
M  V30 1899 N 187.719 -0.156864 1.56817 0
M  V30 1900 C 188.949 -0.885031 1.86684 0
M  V30 1901 C 189.357 -1.75696 0.701954 0
M  V30 1902 O 188.7 -1.80569 -0.337732 0
M  V30 1903 C 188.762 -1.80092 3.11138 0
M  V30 1904 C 188.426 -1.10714 4.43386 0
M  V30 1905 C 189.423 -0.465714 5.1781 0
M  V30 1906 C 187.108 -1.09959 4.90117 0
M  V30 1907 C 189.102 0.174002 6.37162 0
M  V30 1908 C 186.789 -0.456055 6.09396 0
M  V30 1909 C 187.787 0.179622 6.82764 0
M  V30 1910 O 187.475 0.812975 7.99779 0
M  V30 1911 H 187.207 -0.261813 0.623242 0
M  V30 1912 H 189.761 -0.157383 2.04796 0
M  V30 1913 H 187.991 -2.56926 2.89009 0
M  V30 1914 H 189.68 -2.40018 3.27332 0
M  V30 1915 H 190.446 -0.463427 4.82781 0
M  V30 1916 H 186.325 -1.58378 4.3294 0
M  V30 1917 H 189.869 0.670765 6.94368 0
M  V30 1918 H 185.766 -0.455975 6.43888 0
M  V30 1919 H 186.534 0.71366 8.15383 0
M  V30 1920 N 189.197 -1.51736 -0.425897 0
M  V30 1921 C 190.145 -1.74464 -1.53834 0
M  V30 1922 C 191.139 -0.611241 -1.57988 0
M  V30 1923 O 192.345 -0.792899 -1.61596 0
M  V30 1924 H 188.72 -0.551437 -0.511293 0
M  V30 1925 H 190.691 -2.67694 -1.31843 0
M  V30 1926 C 189.44 -1.8972 -2.91379 0
M  V30 1927 H 188.763 -2.76344 -2.88919 0
M  V30 1928 H 190.203 -2.09629 -3.68553 0
M  V30 1929 C 188.662 -0.65992 -3.30374 0
M  V30 1930 O 189.192 0.180083 -4.01296 0
M  V30 1931 N 187.398 -0.500677 -2.86254 0
M  V30 1932 H 186.945 -1.18532 -2.28709 0
M  V30 1933 H 186.903 0.325903 -3.12706 0
M  V30 1934 N 190.675 0.682077 -1.42076 0
M  V30 1935 C 191.605 1.80796 -1.47767 0
M  V30 1936 C 192.586 1.6677 -0.334954 0
M  V30 1937 O 193.771 1.863 -0.548264 0
M  V30 1938 C 190.901 3.19038 -1.37229 0
M  V30 1939 C 189.855 3.47789 -2.49453 0
M  V30 1940 C 189.181 4.8553 -2.23975 0
M  V30 1941 C 190.481 3.45411 -3.91776 0
M  V30 1942 H 192.175 1.7629 -2.41997 0
M  V30 1943 H 189.721 0.846721 -1.16476 0
M  V30 1944 H 191.674 3.97528 -1.39821 0
M  V30 1945 H 190.398 3.24204 -0.394907 0
M  V30 1946 H 189.057 2.71657 -2.46166 0
M  V30 1947 H 188.705 4.87337 -1.24547 0
M  V30 1948 H 188.405 5.0573 -2.99184 0
M  V30 1949 H 189.929 5.66312 -2.28304 0
M  V30 1950 H 191.343 4.13882 -3.96705 0
M  V30 1951 H 189.74 3.77145 -4.66778 0
M  V30 1952 H 190.81 2.44122 -4.18966 0
M  V30 1953 N 192.153 1.28127 0.917671 0
M  V30 1954 C 193.086 1.06039 2.02067 0
M  V30 1955 C 194.064 -0.0223285 1.62585 0
M  V30 1956 O 195.248 0.124823 1.88086 0
M  V30 1957 C 192.375 0.610596 3.33151 0
M  V30 1958 C 191.421 1.68937 3.91615 0
M  V30 1959 S 192.254 3.28437 4.22953 0
M  V30 1960 C 193.41 2.85283 5.57103 0
M  V30 1961 H 193.643 1.99425 2.20493 0
M  V30 1962 H 191.176 1.12071 1.06205 0
M  V30 1963 H 193.134 0.357778 4.08938 0
M  V30 1964 H 191.795 -0.303364 3.12632 0
M  V30 1965 H 190.988 1.32619 4.86239 0
M  V30 1966 H 190.59 1.89478 3.2245 0
M  V30 1967 H 192.882 2.3121 6.36827 0
M  V30 1968 H 193.825 3.7869 5.98331 0
M  V30 1969 H 194.233 2.24118 5.18104 0
M  V30 1970 N 193.631 -1.12557 1.10312 0
M  V30 1971 C 194.88 -1.83395 0.839588 0
M  V30 1972 C 195.193 -1.84939 -0.636929 0
M  V30 1973 O 196.399 -2.51761 -1.01631 0
M  V30 1974 C 194.855 -3.29303 1.45215 0
M  V30 1975 C 194.463 -3.36122 2.96186 0
M  V30 1976 C 196.207 -4.05121 1.26796 0
M  V30 1977 C 194.114 -4.76357 3.50483 0
M  V30 1978 H 193.044 -0.687133 0.310425 0
M  V30 1979 H 195.695 -1.26746 1.32694 0
M  V30 1980 H 194.077 -3.85812 0.892469 0
M  V30 1981 H 195.251 -2.89559 3.58458 0
M  V30 1982 H 193.566 -2.73776 3.13745 0
M  V30 1983 H 196.163 -5.08668 1.64806 0
M  V30 1984 H 196.506 -4.15773 0.209409 0
M  V30 1985 H 197.039 -3.54967 1.79563 0
M  V30 1986 H 193.778 -4.70899 4.55998 0
M  V30 1987 H 193.298 -5.23377 2.92978 0
M  V30 1988 H 194.977 -5.45294 3.48228 0
M  V30 1989 N 195.109 -0.891671 -1.2995 0
M  V30 1990 C 196.041 -0.320695 -2.26945 0
M  V30 1991 C 197.054 0.528497 -1.53983 0
M  V30 1992 O 198.243 0.346959 -1.75096 0
M  V30 1993 C 195.343 0.562066 -3.34207 0
M  V30 1994 C 194.516 -0.259576 -4.36629 0
M  V30 1995 C 193.575 0.554739 -5.23268 0
M  V30 1996 O 192.601 -0.0249311 -5.69195 0
M  V30 1997 N 193.803 1.8625 -5.4981 0
M  V30 1998 H 196.568 -1.15432 -2.76578 0
M  V30 1999 H 194.129 -0.755336 -1.432 0
M  V30 2000 H 196.121 1.11304 -3.89093 0
M  V30 2001 H 194.691 1.29637 -2.84452 0
M  V30 2002 H 193.911 -0.991986 -3.81514 0
M  V30 2003 H 195.199 -0.822564 -5.02107 0
M  V30 2004 H 194.597 2.35628 -5.14292 0
M  V30 2005 H 193.154 2.36078 -6.07545 0
M  V30 2006 N 196.587 1.43421 -0.653314 0
M  V30 2007 C 197.535 2.32546 0.0501531 0
M  V30 2008 C 198.529 1.48617 0.812985 0
M  V30 2009 O 199.735 1.64825 0.723375 0
M  V30 2010 H 196.11 0.751185 0.0350032 0
M  V30 2011 H 198.081 2.89602 -0.719261 0
M  V30 2012 C 196.83 3.32925 1.00279 0
M  V30 2013 H 196.153 3.97532 0.425236 0
M  V30 2014 H 197.593 3.9792 1.46409 0
M  V30 2015 C 196.052 2.63532 2.09886 0
M  V30 2016 O 196.582 2.45092 3.18265 0
M  V30 2017 N 194.788 2.22905 1.86445 0
M  V30 2018 H 194.335 2.38103 0.98309 0
M  V30 2019 H 194.293 1.76805 2.59976 0
M  V30 2020 N 198.065 0.39524 1.52563 0
M  V30 2021 C 199.012 -0.437036 2.26624 0
M  V30 2022 C 199.982 -1.05281 1.28472 0
M  V30 2023 O 201.167 -1.07971 1.57311 0
M  V30 2024 C 198.307 -1.55524 3.08069 0
M  V30 2025 C 197.42 -0.961745 4.21158 0
M  V30 2026 C 196.555 -2.05149 4.89987 0
M  V30 2027 C 195.594 -1.4342 5.95061 0
M  V30 2028 N 194.731 -2.46351 6.57462 0
M  V30 2029 H 199.571 0.200976 2.97322 0
M  V30 2030 H 197.108 0.110944 1.46681 0
M  V30 2031 H 199.066 -2.21437 3.53584 0
M  V30 2032 H 197.696 -2.16348 2.3957 0
M  V30 2033 H 196.748 -0.192048 3.79915 0
M  V30 2034 H 198.06 -0.470701 4.96574 0
M  V30 2035 H 197.214 -2.78819 5.38837 0
M  V30 2036 H 195.953 -2.57615 4.14109 0
M  V30 2037 H 194.958 -0.682774 5.45544 0
M  V30 2038 H 196.183 -0.917416 6.72875 0
M  V30 2039 H 194.129 -2.97975 5.8442 0
M  V30 2040 H 194.046 -2.02019 7.28508 0
M  V30 2041 H 195.314 -3.19633 7.10954 0
M  V30 2042 N 199.544 -1.57102 0.125237 0
M  V30 2043 C 200.821 -1.86953 -0.575142 0
M  V30 2044 C 201.201 -1.02749 -1.84407 0
M  V30 2045 O 200.549 -0.108144 -2.28244 0
M  V30 2046 C 200.759 -3.38198 -0.861583 0
M  V30 2047 C 202.107 -4.06937 -1.21192 0
M  V30 2048 O 203.131 -3.43252 -0.951645 0
M  V30 2049 O 201.99 -5.19364 -1.70068 0
M  V30 2050 H 199.084 -0.774147 -0.290906 0
M  V30 2051 H 201.63 -1.68942 0.160211 0
M  V30 2052 H 200.402 -3.91282 0.0373647 0
M  V30 2053 H 200.025 -3.61661 -1.65188 0
M  V30 2054 N 201.022 0.148545 -1.56898 0
M  V30 2055 C 202.299 0.890019 -1.74178 0
M  V30 2056 C 202.679 1.99407 -0.692839 0
M  V30 2057 O 202.027 2.26671 0.288505 0
M  V30 2058 C 202.237 1.43389 -3.18183 0
M  V30 2059 C 203.585 1.89791 -3.79822 0
M  V30 2060 O 204.609 1.53134 -3.21603 0
M  V30 2061 O 203.468 2.57387 -4.82093 0
M  V30 2062 H 200.562 0.420496 -0.712118 0
M  V30 2063 H 203.108 0.134591 -1.69165 0
M  V30 2064 H 201.88 0.640383 -3.86024 0
M  V30 2065 H 201.503 2.25287 -3.27615 0
M  V30 2066 N 202.5 1.5196 0.417844 0
M  V30 2067 C 203.43 1.77634 1.51554 0
M  V30 2068 C 204.411 0.626918 1.58126 0
M  V30 2069 O 205.596 0.871632 1.7354 0
M  V30 2070 C 202.726 1.91911 2.8946 0
M  V30 2071 C 201.68 3.07463 2.97743 0
M  V30 2072 C 201.006 3.06951 4.37819 0
M  V30 2073 C 202.306 4.47082 2.70027 0
M  V30 2074 H 204 2.6955 1.3032 0
M  V30 2075 H 201.546 1.29706 0.625492 0
M  V30 2076 H 203.499 2.08455 3.6623 0
M  V30 2077 H 202.223 0.966598 3.11969 0
M  V30 2078 H 200.882 2.90656 2.23416 0
M  V30 2079 H 200.53 2.09438 4.57323 0
M  V30 2080 H 200.23 3.84556 4.44286 0
M  V30 2081 H 201.754 3.25613 5.16535 0
M  V30 2082 H 203.168 4.6414 3.36522 0
M  V30 2083 H 201.565 5.2654 2.87881 0
M  V30 2084 H 202.635 4.55777 1.65514 0
M  V30 2085 N 203.978 -0.674533 1.42435 0
M  V30 2086 C 204.941 -1.76986 1.45632 0
M  V30 2087 C 205.941 -1.5708 0.343871 0
M  V30 2088 O 207.131 -1.63367 0.604709 0
M  V30 2089 C 204.263 -3.15623 1.28822 0
M  V30 2090 H 205.456 -1.75539 2.43158 0
M  V30 2091 H 203.009 -0.884189 1.28887 0
M  V30 2092 H 203.744 -3.22696 0.322193 0
M  V30 2093 H 203.529 -3.31475 2.09444 0
M  V30 2094 H 205.019 -3.95537 1.33942 0
M  V30 2095 N 205.456 -1.28612 -0.910864 0
M  V30 2096 C 206.872 -1.06381 -1.18976 0
M  V30 2097 C 207.072 0.191998 -2.00583 0
M  V30 2098 O 206.128 0.892869 -2.36187 0
M  V30 2099 C 207.441 -2.31295 -1.92154 0
M  V30 2100 C 208.989 -2.36503 -2.05025 0
M  V30 2101 C 209.464 -3.61191 -2.81612 0
M  V30 2102 N 210.955 -3.61847 -2.89172 0
M  V30 2103 C 211.69 -4.55004 -3.4894 0
M  V30 2104 N 211.186 -5.58482 -4.09963 0
M  V30 2105 N 212.979 -4.42594 -3.46506 0
M  V30 2106 H 205.13 -2.09221 -0.366094 0
M  V30 2107 H 207.393 -0.921003 -0.224629 0
M  V30 2108 H 207.099 -3.228 -1.39618 0
M  V30 2109 H 206.973 -2.37934 -2.9269 0
M  V30 2110 H 209.36 -1.45494 -2.5674 0
M  V30 2111 H 209.441 -2.33857 -1.03657 0
M  V30 2112 H 209.085 -4.52545 -2.30576 0
M  V30 2113 H 209.015 -3.61092 -3.83302 0
M  V30 2114 H 211.506 -2.87022 -2.45819 0
M  V30 2115 H 211.819 -6.25704 -4.53557 0
M  V30 2116 H 210.164 -5.62305 -4.08459 0
M  V30 2117 H 213.355 -3.60953 -2.98045 0
M  V30 2118 H 213.528 -5.15381 -3.92793 0
M  V30 2119 N 206.934 1.1197 -1.10907 0
M  V30 2120 C 208.183 1.82947 -0.849302 0
M  V30 2121 C 208.496 1.85275 0.627112 0
M  V30 2122 O 209.702 2.52296 1.00295 0
M  V30 2123 C 208.158 3.28529 -1.46959 0
M  V30 2124 C 207.766 3.34546 -2.97965 0
M  V30 2125 C 209.51 4.04443 -1.28942 0
M  V30 2126 C 207.417 4.74491 -3.53004 0
M  V30 2127 H 206.347 0.685477 -0.314065 0
M  V30 2128 H 208.998 1.2604 -1.33365 0
M  V30 2129 H 207.38 3.85333 -0.912917 0
M  V30 2130 H 208.554 2.87654 -3.59989 0
M  V30 2131 H 206.869 2.72108 -3.15192 0
M  V30 2132 H 209.466 5.07787 -1.67502 0
M  V30 2133 H 209.809 4.15656 -0.231456 0
M  V30 2134 H 210.342 3.5401 -1.81443 0
M  V30 2135 H 207.081 4.68474 -4.58489 0
M  V30 2136 H 206.601 5.21816 -2.9575 0
M  V30 2137 H 208.28 5.4344 -3.51115 0
M  V30 2138 N 208.412 0.89855 1.29475 0
M  V30 2139 C 209.661 0.519863 1.94885 0
M  V30 2140 C 209.974 -0.9383 1.71625 0
M  V30 2141 O 211.18 -1.42445 2.31131 0
M  V30 2142 C 209.636 0.878836 3.49005 0
M  V30 2143 C 209.244 2.35569 3.81066 0
M  V30 2144 C 210.988 0.570004 4.20656 0
M  V30 2145 C 208.895 2.65558 5.28425 0
M  V30 2146 H 207.825 0.190692 0.729488 0
M  V30 2147 H 210.476 1.09539 1.47219 0
M  V30 2148 H 208.858 0.232253 3.95318 0
M  V30 2149 H 210.032 3.04773 3.45616 0
M  V30 2150 H 208.347 2.63343 3.22552 0
M  V30 2151 H 210.944 0.770925 5.29113 0
M  V30 2152 H 211.287 -0.491404 4.1339 0
M  V30 2153 H 211.82 1.17438 3.8007 0
M  V30 2154 H 208.559 3.70493 5.40754 0
M  V30 2155 H 208.079 2.00977 5.65127 0
M  V30 2156 H 209.758 2.51765 5.96006 0
M  V30 2157 N 209.89 -1.43072 0.660911 0
M  V30 2158 C 211.118 -2.06067 0.185422 0
M  V30 2159 C 211.533 -1.49582 -1.15198 0
M  V30 2160 O 210.89 -0.630134 -1.71276 0
M  V30 2161 C 210.941 -3.61371 0.0966523 0
M  V30 2162 O 210.662 -4.15758 1.38119 0
M  V30 2163 C 212.163 -4.41455 -0.403996 0
M  V30 2164 H 209.383 -0.664459 0.0934604 0
M  V30 2165 H 211.927 -1.83447 0.90373 0
M  V30 2166 H 210.082 -3.8315 -0.572259 0
M  V30 2167 H 210.496 -5.09499 1.24542 0
M  V30 2168 H 211.97 -5.50437 -0.415045 0
M  V30 2169 H 212.447 -4.15036 -1.43674 0
M  V30 2170 H 213.053 -4.24663 0.232691 0
M  V30 2171 N 211.368 -0.403325 -1.52352 0
M  V30 2172 C 212.331 0.413051 -2.25447 0
M  V30 2173 C 213.331 0.978513 -1.276 0
M  V30 2174 O 214.521 0.858305 -1.51587 0
M  V30 2175 C 211.653 1.58087 -3.02029 0
M  V30 2176 H 212.846 -0.227094 -2.99039 0
M  V30 2177 H 210.399 -0.155722 -1.55522 0
M  V30 2178 H 211.134 2.25804 -2.32772 0
M  V30 2179 H 210.919 1.18195 -3.73861 0
M  V30 2180 H 212.409 2.1585 -3.57489 0
M  V30 2181 N 212.846 1.57033 -0.133567 0
M  V30 2182 C 213.756 2.19632 0.824564 0
M  V30 2183 C 214.772 1.17666 1.28182 0
M  V30 2184 O 215.948 1.50193 1.3418 0
M  V30 2185 C 213.013 2.79499 2.05137 0
M  V30 2186 C 212.074 3.96548 1.64464 0
M  V30 2187 C 211.307 4.5355 2.81297 0
M  V30 2188 O 211.53 4.09438 3.97136 0
M  V30 2189 O 210.464 5.44018 2.57542 0
M  V30 2190 H 214.29 3.01991 0.321766 0
M  V30 2191 H 211.875 1.49112 0.0927889 0
M  V30 2192 H 213.757 3.17602 2.7696 0
M  V30 2193 H 212.432 2.00162 2.54395 0
M  V30 2194 H 211.339 3.63186 0.897048 0
M  V30 2195 H 212.672 4.77364 1.19934 0
M  V30 2196 N 214.325 -0.140222 1.56975 0
M  V30 2197 C 215.55 -0.870414 1.88251 0
M  V30 2198 C 215.975 -1.73637 0.723312 0
M  V30 2199 O 215.333 -1.78329 -0.32689 0
M  V30 2200 C 215.381 -1.69737 3.18154 0
M  V30 2201 O 214.485 -2.80229 3.02565 0
M  V30 2202 H 213.826 -0.242025 0.61832 0
M  V30 2203 H 216.356 -0.128999 2.04193 0
M  V30 2204 H 216.366 -2.09099 3.50345 0
M  V30 2205 H 215.041 -1.06152 4.02125 0
M  V30 2206 H 213.618 -2.44224 2.81796 0
M  V30 2207 N 215.803 -1.52179 -0.40978 0
M  V30 2208 C 217.051 -1.65878 -1.15451 0
M  V30 2209 C 217.372 -0.390771 -1.91044 0
M  V30 2210 O 216.642 0.594323 -1.86667 0
M  V30 2211 H 215.222 -0.611405 -0.429177 0
M  V30 2212 H 217.884 -1.89219 -0.467134 0
M  V30 2213 H 216.98 -2.49954 -1.86894 0
M  V30 2214 N 217.281 0.66697 -1.42791 0
M  V30 2215 C 218.228 1.7803 -1.4688 0
M  V30 2216 C 219.198 1.6299 -0.319919 0
M  V30 2217 O 220.383 1.83432 -0.525118 0
M  V30 2218 C 217.523 3.1611 -1.38451 0
M  V30 2219 C 216.636 3.42381 -2.63437 0
M  V30 2220 C 215.771 4.70232 -2.47094 0
M  V30 2221 C 214.81 4.89564 -3.67415 0
M  V30 2222 N 213.947 6.08661 -3.49966 0
M  V30 2223 H 218.787 1.7387 -2.42019 0
M  V30 2224 H 216.324 0.84868 -1.20149 0
M  V30 2225 H 218.282 3.95914 -1.31561 0
M  V30 2226 H 216.912 3.19374 -0.469033 0
M  V30 2227 H 215.964 2.56774 -2.80662 0
M  V30 2228 H 217.276 3.52557 -3.52853 0
M  V30 2229 H 216.43 5.5814 -2.37834 0
M  V30 2230 H 215.169 4.62353 -1.5518 0
M  V30 2231 H 214.174 4.00096 -3.77099 0
M  V30 2232 H 215.399 4.99282 -4.6032 0
M  V30 2233 H 213.345 6.0194 -2.60776 0
M  V30 2234 H 213.262 6.19733 -4.32975 0
M  V30 2235 H 214.53 6.99226 -3.44532 0
M  V30 2236 N 218.759 1.29093 0.90403 0
M  V30 2237 C 220.17 1.15186 1.46932 0
M  V30 2238 C 220.521 -0.254587 1.94541 0
M  V30 2239 O 219.646 -1.14972 1.83332 0
M  V30 2240 C 220.241 2.08492 2.67051 0
M  V30 2241 C 218.8 1.98621 3.19729 0
M  V30 2242 C 217.947 1.9967 1.92425 0
M  V30 2243 H 220.898 1.41641 0.715789 0
M  V30 2244 H 220.919 1.65461 3.42641 0
M  V30 2245 H 220.431 3.10847 2.3237 0
M  V30 2246 H 218.532 0.993389 3.59114 0
M  V30 2247 H 218.645 2.86068 3.8432 0
M  V30 2248 H 217.009 1.44208 2.09943 0
M  V30 2249 H 217.792 3.03721 1.60026 0
M  V30 2250 N 220.237 -1.11381 1.11499 0
M  V30 2251 C 221.167 -2.19509 0.796125 0
M  V30 2252 C 222.148 -1.68458 -0.235796 0
M  V30 2253 O 223.333 -1.93947 -0.0991344 0
M  V30 2254 C 220.463 -3.46475 0.239205 0
M  V30 2255 C 219.417 -4.10744 1.20307 0
M  V30 2256 C 218.743 -5.32293 0.50683 0
M  V30 2257 C 220.043 -4.55597 2.55399 0
M  V30 2258 H 221.737 -2.46439 1.70024 0
M  V30 2259 H 219.283 -1.18446 0.818935 0
M  V30 2260 H 221.236 -4.214 0.00392006 0
M  V30 2261 H 219.96 -3.19006 -0.700206 0
M  V30 2262 H 218.619 -3.37813 1.42399 0
M  V30 2263 H 218.267 -5.01095 -0.437408 0
M  V30 2264 H 217.967 -5.76243 1.1497 0
M  V30 2265 H 219.491 -6.09956 0.280351 0
M  V30 2266 H 220.905 -5.21841 2.37391 0
M  V30 2267 H 219.302 -5.10363 3.15673 0
M  V30 2268 H 220.372 -3.69013 3.14575 0
M  V30 2269 N 221.715 -0.905404 -1.28997 0
M  V30 2270 C 222.662 -0.385892 -2.27551 0
M  V30 2271 C 223.632 0.535113 -1.57244 0
M  V30 2272 O 224.817 0.459119 -1.85194 0
M  V30 2273 C 221.957 0.375461 -3.43051 0
M  V30 2274 C 221.07 -0.577092 -4.28128 0
M  V30 2275 C 220.205 0.201879 -5.30816 0
M  V30 2276 C 219.244 -0.744829 -6.07551 0
M  V30 2277 N 218.381 9.42587e-05 -7.021 0
M  V30 2278 H 223.221 -1.23139 -2.71368 0
M  V30 2279 H 220.758 -0.618542 -1.33463 0
M  V30 2280 H 222.716 0.832992 -4.088 0
M  V30 2281 H 221.346 1.18537 -3.00248 0
M  V30 2282 H 220.398 -1.15315 -3.62501 0
M  V30 2283 H 221.71 -1.30152 -4.8152 0
M  V30 2284 H 220.864 0.720351 -6.02408 0
M  V30 2285 H 219.603 0.959413 -4.7817 0
M  V30 2286 H 218.608 -1.27475 -5.34818 0
M  V30 2287 H 219.833 -1.50178 -6.62286 0
M  V30 2288 H 217.779 0.739791 -6.51815 0
M  V30 2289 H 217.696 -0.664321 -7.53076 0
M  V30 2290 H 218.964 0.498644 -7.77903 0
M  V30 2291 N 223.193 1.4272 -0.668489 0
M  V30 2292 C 224.103 2.34596 0.0139753 0
M  V30 2293 C 225.119 1.5474 0.795703 0
M  V30 2294 O 226.295 1.87334 0.739466 0
M  V30 2295 C 223.36 3.33202 0.957982 0
M  V30 2296 C 222.421 4.28957 0.17149 0
M  V30 2297 C 221.654 5.22853 1.07053 0
M  V30 2298 O 221.877 5.21531 2.31001 0
M  V30 2299 O 220.811 5.9952 0.534727 0
M  V30 2300 H 224.637 2.9448 -0.742661 0
M  V30 2301 H 222.222 1.43117 -0.428705 0
M  V30 2302 H 224.104 3.93796 1.50008 0
M  V30 2303 H 222.779 2.758 1.69458 0
M  V30 2304 H 221.686 3.71796 -0.414558 0
M  V30 2305 H 223.019 4.89383 -0.52586 0
M  V30 2306 N 224.671 0.411399 1.52136 0
M  V30 2307 C 225.634 -0.401089 2.25663 0
M  V30 2308 C 226.634 -0.971732 1.28117 0
M  V30 2309 O 227.824 -0.850254 1.52041 0
M  V30 2310 C 224.956 -1.56483 3.02863 0
M  V30 2311 H 226.149 0.24295 2.98914 0
M  V30 2312 H 223.702 0.163968 1.55438 0
M  V30 2313 H 224.437 -2.24567 2.33967 0
M  V30 2314 H 224.222 -1.16211 3.74483 0
M  V30 2315 H 225.712 -2.13951 3.58629 0
M  V30 2316 N 226.149 -1.5696 0.141893 0
M  V30 2317 C 227.099 -2.13074 -0.811383 0
M  V30 2318 C 228.083 -1.05726 -1.21288 0
M  V30 2319 O 229.275 -1.31914 -1.18015 0
M  V30 2320 C 226.404 -2.75186 -2.0525 0
M  V30 2321 C 225.49 -3.8965 -1.67432 0
M  V30 2322 N 225.881 -4.95733 -1.0041 0
M  V30 2323 C 224.179 -4.00262 -1.96739 0
M  V30 2324 C 224.88 -5.75858 -0.822345 0
M  V30 2325 N 223.856 -5.26452 -1.3546 0
M  V30 2326 H 227.658 -2.92465 -0.290031 0
M  V30 2327 H 225.172 -1.6229 -0.0598218 0
M  V30 2328 H 227.169 -3.13745 -2.74535 0
M  V30 2329 H 225.829 -1.97266 -2.57907 0
M  V30 2330 H 226.84 -5.13607 -0.665441 0
M  V30 2331 H 223.517 -3.33412 -2.51282 0
M  V30 2332 H 224.907 -6.71254 -0.294496 0
M  V30 2333 N 227.627 0.131896 -1.57047 0
M  V30 2334 C 228.875 0.840269 -1.83804 0
M  V30 2335 C 229.196 1.81017 -0.72512 0
M  V30 2336 O 228.466 1.94272 0.251995 0
M  V30 2337 H 227.046 0.313294 -0.678127 0
M  V30 2338 H 229.708 0.122294 -1.94516 0
M  V30 2339 H 228.804 1.39335 -2.79271 0
M  V30 2340 N 229.106 1.52395 0.401703 0
M  V30 2341 C 230.016 1.7917 1.51444 0
M  V30 2342 C 231.032 0.677691 1.6026 0
M  V30 2343 O 232.208 0.963909 1.76835 0
M  V30 2344 C 229.273 1.94347 2.87107 0
M  V30 2345 C 228.334 3.18257 2.88116 0
M  V30 2346 C 227.567 3.32701 4.17308 0
M  V30 2347 O 227.79 2.52238 5.11598 0
M  V30 2348 O 226.724 4.25891 4.25324 0
M  V30 2349 H 230.55 2.73633 1.31752 0
M  V30 2350 H 228.135 1.3733 0.588296 0
M  V30 2351 H 230.017 2.06109 3.67555 0
M  V30 2352 H 228.692 1.03073 3.06851 0
M  V30 2353 H 227.599 3.11947 2.06494 0
M  V30 2354 H 228.932 4.09336 2.73322 0
M  V30 2355 N 230.584 -0.659388 1.43143 0
M  V30 2356 C 231.833 -1.41518 1.43721 0
M  V30 2357 C 232.146 -1.95499 0.0628176 0
M  V30 2358 O 233.352 -2.71446 -0.0539683 0
M  V30 2359 C 231.808 -2.5608 2.52885 0
M  V30 2360 C 231.416 -2.08733 3.96402 0
M  V30 2361 C 233.16 -3.3349 2.62649 0
M  V30 2362 C 231.067 -3.20469 4.97045 0
M  V30 2363 H 229.997 -0.531705 0.534608 0
M  V30 2364 H 232.648 -0.712343 1.69109 0
M  V30 2365 H 231.03 -3.28805 2.20688 0
M  V30 2366 H 232.204 -1.43059 4.3803 0
M  V30 2367 H 230.519 -1.44219 3.90627 0
M  V30 2368 H 233.116 -4.16734 3.35017 0
M  V30 2369 H 233.459 -3.8111 1.67513 0
M  V30 2370 H 233.992 -2.67842 2.94118 0
M  V30 2371 H 230.731 -2.77824 5.93712 0
M  V30 2372 H 230.251 -3.84874 4.60034 0
M  V30 2373 H 231.93 -3.85698 5.19467 0
M  V30 2374 N 232.062 -1.29571 -0.897171 0
M  V30 2375 C 232.992 -1.17473 -2.01798 0
M  V30 2376 C 233.973 -0.068323 -1.69963 0
M  V30 2377 O 235.158 -0.248239 -1.92607 0
M  V30 2378 C 232.288 -0.853099 -3.36659 0
M  V30 2379 C 231.242 -1.9161 -3.82713 0
M  V30 2380 C 230.568 -1.44773 -5.14728 0
M  V30 2381 C 231.868 -3.32535 -4.02763 0
M  V30 2382 H 233.562 -2.11237 -2.12177 0
M  V30 2383 H 231.108 -1.01699 -1.01948 0
M  V30 2384 H 233.061 -0.755165 -4.14578 0
M  V30 2385 H 231.785 0.120236 -3.26379 0
M  V30 2386 H 230.444 -2.00346 -3.07013 0
M  V30 2387 H 230.092 -0.462995 -5.00865 0
M  V30 2388 H 229.792 -2.15865 -5.46513 0
M  V30 2389 H 231.316 -1.36334 -5.95185 0
M  V30 2390 H 232.73 -3.26626 -4.71156 0
M  V30 2391 H 231.127 -4.01607 -4.45905 0
M  V30 2392 H 232.197 -3.75326 -3.07016 0
M  V30 2393 N 233.54 1.10788 -1.12088 0
M  V30 2394 C 234.77 1.86191 -0.895351 0
M  V30 2395 C 235.178 1.80763 0.558702 0
M  V30 2396 O 234.521 1.19188 1.39785 0
M  V30 2397 C 234.583 3.35659 -1.28737 0
M  V30 2398 C 234.247 3.64849 -2.75198 0
M  V30 2399 C 235.244 3.61757 -3.734 0
M  V30 2400 C 232.929 3.93641 -3.12013 0
M  V30 2401 C 234.923 3.87045 -5.06434 0
M  V30 2402 C 232.61 4.18585 -4.4523 0
M  V30 2403 C 233.608 4.15277 -5.42249 0
M  V30 2404 O 233.296 4.3959 -6.73065 0
M  V30 2405 H 233.028 0.595425 -0.32007 0
M  V30 2406 H 235.582 1.40992 -1.49367 0
M  V30 2407 H 233.812 3.81497 -0.63224 0
M  V30 2408 H 235.501 3.92441 -1.03656 0
M  V30 2409 H 236.267 3.39557 -3.46303 0
M  V30 2410 H 232.146 3.95348 -2.37109 0
M  V30 2411 H 235.69 3.84378 -5.82151 0
M  V30 2412 H 231.587 4.40264 -4.72057 0
M  V30 2413 H 232.355 4.57123 -6.78956 0
M  V30 2414 N 235.018 0.912232 1.28515 0
M  V30 2415 C 236.243 0.559774 1.99703 0
M  V30 2416 C 236.668 -0.851393 1.67729 0
M  V30 2417 O 236.026 -1.56875 0.908834 0
M  V30 2418 C 236.074 0.773874 3.52198 0
M  V30 2419 O 235.178 -0.167842 4.12058 0
M  V30 2420 H 234.519 0.21723 0.627461 0
M  V30 2421 H 237.049 1.22725 1.63706 0
M  V30 2422 H 237.059 0.683386 4.02236 0
M  V30 2423 H 235.734 1.80261 3.74805 0
M  V30 2424 H 234.311 -0.0287509 3.72889 0
M  V30 2425 N 236.496 -1.42363 0.676048 0
M  V30 2426 C 237.459 -2.29199 0.00766941 0
M  V30 2427 C 238.459 -1.43389 -0.727745 0
M  V30 2428 O 239.649 -1.64764 -0.56556 0
M  V30 2429 C 236.781 -3.2591 -0.999785 0
M  V30 2430 H 237.974 -2.89794 0.771988 0
M  V30 2431 H 235.527 -1.50024 0.438468 0
M  V30 2432 H 236.262 -2.70256 -1.79255 0
M  V30 2433 H 236.047 -3.89202 -0.475829 0
M  V30 2434 H 237.537 -3.91028 -1.46583 0
M  V30 2435 N 237.974 -0.419461 -1.51915 0
M  V30 2436 C 239.221 0.152939 -2.01922 0
M  V30 2437 C 239.549 1.4426 -1.30458 0
M  V30 2438 O 238.804 1.91514 -0.402593 0
M  V30 2439 C 239.103 0.437067 -3.54717 0
M  V30 2440 C 238.769 -0.764632 -4.44369 0
M  V30 2441 C 237.431 -1.09423 -4.68594 0
M  V30 2442 C 239.783 -1.56713 -4.97082 0
M  V30 2443 C 237.111 -2.22732 -5.42777 0
M  V30 2444 C 239.463 -2.69107 -5.72507 0
M  V30 2445 C 238.127 -3.02541 -5.95 0
M  V30 2446 H 237.397 0.0559644 -0.738884 0
M  V30 2447 H 240.044 -0.562998 -1.83037 0
M  V30 2448 H 238.349 1.23469 -3.71837 0
M  V30 2449 H 240.046 0.893083 -3.90928 0
M  V30 2450 H 236.636 -0.497775 -4.257 0
M  V30 2451 H 240.82 -1.32571 -4.78266 0
M  V30 2452 H 236.076 -2.48971 -5.58411 0
M  V30 2453 H 240.25 -3.31671 -6.12346 0
M  V30 2454 H 237.877 -3.90457 -6.52264 0
M  V30 2455 N 239.452 1.56882 -0.150215 0
M  V30 2456 C 240.699 1.96228 0.500093 0
M  V30 2457 C 241.027 1.03522 1.64661 0
M  V30 2458 O 240.282 0.0650683 1.95592 0
M  V30 2459 C 240.581 3.41801 1.04437 0
M  V30 2460 C 240.247 4.50897 0.0159671 0
M  V30 2461 C 238.909 4.8046 -0.266731 0
M  V30 2462 C 241.261 5.16703 -0.683192 0
M  V30 2463 C 238.589 5.73135 -1.25434 0
M  V30 2464 C 240.941 6.10441 -1.65964 0
M  V30 2465 C 239.605 6.38382 -1.95 0
M  V30 2466 H 238.875 0.718048 0.182997 0
M  V30 2467 H 241.522 1.90019 -0.237724 0
M  V30 2468 H 239.827 3.44857 1.85959 0
M  V30 2469 H 241.524 3.69573 1.55618 0
M  V30 2470 H 238.114 4.27891 0.246485 0
M  V30 2471 H 242.298 4.93993 -0.477983 0
M  V30 2472 H 237.554 5.93074 -1.48571 0
M  V30 2473 H 241.728 6.60507 -2.20689 0
M  V30 2474 H 239.355 7.09996 -2.71679 0
M  V30 2475 N 240.93 -0.123565 1.57115 0
M  V30 2476 C 241.86 -1.15309 2.03042 0
M  V30 2477 C 242.841 -1.43454 0.914061 0
M  V30 2478 O 244.026 -1.53973 1.18347 0
M  V30 2479 C 241.156 -2.48043 2.43089 0
M  V30 2480 C 240.11 -2.3437 3.58127 0
M  V30 2481 C 239.436 -3.72026 3.84059 0
M  V30 2482 C 240.736 -1.80804 4.90007 0
M  V30 2483 H 242.43 -0.771102 2.893 0
M  V30 2484 H 239.976 -0.369479 1.39179 0
M  V30 2485 H 241.929 -3.20311 2.73823 0
M  V30 2486 H 240.653 -2.88122 1.53796 0
M  V30 2487 H 239.312 -1.64551 3.27595 0
M  V30 2488 H 238.96 -4.09582 2.91979 0
M  V30 2489 H 238.66 -3.63732 4.6149 0
M  V30 2490 H 240.184 -4.45806 4.1724 0
M  V30 2491 H 241.598 -2.42886 5.19307 0
M  V30 2492 H 239.995 -1.83343 5.71407 0
M  V30 2493 H 241.065 -0.76528 4.78823 0
M  V30 2494 N 242.408 -1.52605 -0.393616 0
M  V30 2495 C 243.318 -1.79971 -1.50492 0
M  V30 2496 C 244.334 -0.686181 -1.59899 0
M  V30 2497 O 245.51 -0.973274 -1.76322 0
M  V30 2498 C 242.575 -1.95867 -2.86072 0
M  V30 2499 C 241.636 -3.19781 -2.86424 0
M  V30 2500 C 240.869 -3.34909 -4.15538 0
M  V30 2501 O 241.092 -2.54948 -5.10253 0
M  V30 2502 O 240.026 -4.28141 -4.23059 0
M  V30 2503 H 243.852 -2.74328 -1.30299 0
M  V30 2504 H 241.437 -1.3764 -0.581005 0
M  V30 2505 H 243.319 -2.08056 -3.66457 0
M  V30 2506 H 241.994 -1.04699 -3.063 0
M  V30 2507 H 240.901 -3.13038 -2.04837 0
M  V30 2508 H 242.234 -4.1078 -2.71147 0
M  V30 2509 N 243.887 0.651787 -1.4349 0
M  V30 2510 C 245.133 1.4121 -1.46395 0
M  V30 2511 C 245.488 1.92202 -0.087366 0
M  V30 2512 O 244.781 1.69452 0.894231 0
M  V30 2513 C 244.975 2.60914 -2.44251 0
M  V30 2514 C 244.804 2.21639 -3.91288 0
M  V30 2515 C 243.574 2.09897 -4.59643 0
M  V30 2516 C 245.772 1.81835 -4.81083 0
M  V30 2517 N 243.754 1.63967 -5.91598 0
M  V30 2518 C 245.125 1.46998 -6.02322 0
M  V30 2519 C 247.18 1.69031 -4.6833 0
M  V30 2520 C 245.883 1.00638 -7.12225 0
M  V30 2521 C 247.909 1.24077 -5.78238 0
M  V30 2522 C 247.271 0.901772 -6.98604 0
M  V30 2523 H 243.37 0.512322 -0.590805 0
M  V30 2524 H 245.954 0.74989 -1.7968 0
M  V30 2525 H 244.125 3.24792 -2.1299 0
M  V30 2526 H 245.857 3.27622 -2.37584 0
M  V30 2527 H 242.612 2.297 -4.14168 0
M  V30 2528 H 243.036 1.43359 -6.61647 0
M  V30 2529 H 247.678 1.93878 -3.75727 0
M  V30 2530 H 245.396 0.745399 -8.04655 0
M  V30 2531 H 248.982 1.14657 -5.7039 0
M  V30 2532 H 247.862 0.559226 -7.82203 0
M  V30 2533 N 245.365 1.30045 0.890287 0
M  V30 2534 C 246.612 1.18561 1.64163 0
M  V30 2535 C 246.94 -0.260852 1.92743 0
M  V30 2536 O 246.195 -1.20376 1.54299 0
M  V30 2537 C 246.494 1.95409 2.99249 0
M  V30 2538 C 246.16 3.45066 2.90242 0
M  V30 2539 C 244.822 3.85878 2.87492 0
M  V30 2540 C 247.174 4.4039 2.78758 0
M  V30 2541 C 244.502 5.20314 2.7109 0
M  V30 2542 C 246.854 5.74928 2.63894 0
M  V30 2543 C 245.518 6.14986 2.59516 0
M  V30 2544 H 244.788 0.433846 0.600715 0
M  V30 2545 H 247.435 1.61088 1.03552 0
M  V30 2546 H 245.74 1.45501 3.63781 0
M  V30 2547 H 247.437 1.8392 3.56334 0
M  V30 2548 H 244.027 3.12631 2.93189 0
M  V30 2549 H 248.211 4.09806 2.79952 0
M  V30 2550 H 243.467 5.50449 2.66112 0
M  V30 2551 H 247.641 6.48434 2.53981 0
M  V30 2552 H 245.268 7.19104 2.46565 0
M  V30 2553 N 246.843 -1.10192 1.12674 0
M  V30 2554 C 248.068 -1.86523 0.906853 0
M  V30 2555 C 248.493 -1.80221 -0.538711 0
M  V30 2556 O 247.851 -1.17396 -1.38158 0
M  V30 2557 C 247.899 -3.32758 1.3894 0
M  V30 2558 O 247.003 -4.08449 0.5695 0
M  V30 2559 H 246.344 -0.578678 0.325619 0
M  V30 2560 H 248.874 -1.39203 1.49946 0
M  V30 2561 H 248.884 -3.83608 1.38958 0
M  V30 2562 H 247.559 -3.36661 2.44197 0
M  V30 2563 H 246.136 -3.67427 0.636528 0
M  V30 2564 N 248.321 -0.919034 -1.28029 0
M  V30 2565 C 249.231 -0.416756 -2.30869 0
M  V30 2566 C 250.247 0.498235 -1.66714 0
M  V30 2567 O 251.423 0.383144 -1.97722 0
M  V30 2568 C 248.488 0.330274 -3.45123 0
M  V30 2569 C 247.549 -0.618578 -4.2482 0
M  V30 2570 C 246.782 0.0928959 -5.33619 0
M  V30 2571 O 247.005 1.31375 -5.55065 0
M  V30 2572 O 245.939 -0.574499 -5.99152 0
M  V30 2573 H 249.765 -1.27043 -2.75851 0
M  V30 2574 H 247.35 -0.684052 -1.3282 0
M  V30 2575 H 249.232 0.751972 -4.14636 0
M  V30 2576 H 247.907 1.1597 -3.02213 0
M  V30 2577 H 246.814 -1.08978 -3.57875 0
M  V30 2578 H 248.147 -1.41497 -4.71423 0
M  V30 2579 N 249.799 1.42003 -0.683588 0
M  V30 2580 C 250.709 2.34597 -0.0109075 0
M  V30 2581 C 251.725 1.55576 0.779245 0
M  V30 2582 O 252.901 1.88107 0.719555 0
M  V30 2583 C 249.966 3.34199 0.922588 0
M  V30 2584 C 249.027 4.29115 0.125984 0
M  V30 2585 C 248.26 5.23959 1.01502 0
M  V30 2586 O 248.483 5.23952 2.25456 0
M  V30 2587 O 247.417 6.00053 0.47111 0
M  V30 2588 H 251.243 2.93675 -0.773853 0
M  V30 2589 H 248.828 1.42654 -0.443861 0
M  V30 2590 H 250.71 3.95365 1.45823 0
M  V30 2591 H 249.385 2.77582 1.66523 0
M  V30 2592 H 248.292 3.71335 -0.453969 0
M  V30 2593 H 249.625 4.88798 -0.577736 0
M  V30 2594 N 251.277 0.427512 1.51691 0
M  V30 2595 C 252.24 -0.377132 2.26076 0
M  V30 2596 C 253.24 -0.958089 1.29141 0
M  V30 2597 O 254.43 -0.83408 1.52934 0
M  V30 2598 C 251.562 -1.53262 3.04506 0
M  V30 2599 H 252.755 0.27464 2.9864 0
M  V30 2600 H 250.308 0.180445 1.55255 0
M  V30 2601 H 251.043 -2.22072 2.36335 0
M  V30 2602 H 250.828 -1.12232 3.75694 0
M  V30 2603 H 252.318 -2.10135 3.60878 0
M  V30 2604 N 252.755 -1.56801 0.158532 0
M  V30 2605 C 254.171 -1.5837 -0.197774 0
M  V30 2606 C 254.371 -1.17334 -1.63814 0
M  V30 2607 O 253.427 -0.878988 -2.36707 0
M  V30 2608 C 254.74 -3.00615 0.0714459 0
M  V30 2609 C 256.288 -3.12999 0.00864533 0
M  V30 2610 C 256.763 -4.57313 0.250685 0
M  V30 2611 N 258.254 -4.62777 0.198014 0
M  V30 2612 C 258.989 -5.72271 0.359642 0
M  V30 2613 N 258.485 -6.90371 0.579625 0
M  V30 2614 N 260.278 -5.61318 0.296438 0
M  V30 2615 H 252.429 -1.81765 1.09887 0
M  V30 2616 H 254.692 -0.841849 0.435884 0
M  V30 2617 H 254.398 -3.35068 1.06874 0
M  V30 2618 H 254.272 -3.71683 -0.642757 0
M  V30 2619 H 256.659 -2.7838 -0.979217 0
M  V30 2620 H 256.74 -2.44393 0.755359 0
M  V30 2621 H 256.384 -4.92639 1.2357 0
M  V30 2622 H 256.314 -5.24061 -0.516489 0
M  V30 2623 H 258.805 -3.77885 0.0331115 0
M  V30 2624 H 259.118 -7.69689 0.69275 0
M  V30 2625 H 257.463 -6.92264 0.616087 0
M  V30 2626 H 260.654 -4.67932 0.125258 0
M  V30 2627 H 260.827 -6.46599 0.425831 0
M  V30 2628 N 254.233 0.115231 -1.57178 0
M  V30 2629 C 255.649 0.468877 -1.52557 0
M  V30 2630 C 255.849 1.81649 -0.872125 0
M  V30 2631 O 254.905 2.48347 -0.45606 0
M  V30 2632 C 256.218 0.4499 -2.97315 0
M  V30 2633 C 257.766 0.533185 -3.08425 0
M  V30 2634 C 258.241 0.54456 -4.54751 0
M  V30 2635 N 259.732 0.605892 -4.5922 0
M  V30 2636 C 260.467 0.636203 -5.6986 0
M  V30 2637 N 259.963 0.623931 -6.89985 0
M  V30 2638 N 261.756 0.679496 -5.57978 0
M  V30 2639 H 253.907 -0.767712 -1.9804 0
M  V30 2640 H 256.17 -0.283609 -0.904583 0
M  V30 2641 H 255.876 -0.472721 -3.48509 0
M  V30 2642 H 255.75 1.27632 -3.5495 0
M  V30 2643 H 258.137 1.44623 -2.57232 0
M  V30 2644 H 258.218 -0.320995 -2.53778 0
M  V30 2645 H 257.862 -0.364452 -5.06591 0
M  V30 2646 H 257.792 1.41568 -5.07214 0
M  V30 2647 H 260.283 0.621386 -3.72756 0
M  V30 2648 H 260.596 0.649787 -7.70063 0
M  V30 2649 H 258.941 0.591296 -6.9248 0
M  V30 2650 H 262.132 0.686472 -4.63039 0
M  V30 2651 H 262.305 0.69965 -6.44212 0
M  V30 2652 N 255.711 1.52812 0.385517 0
M  V30 2653 C 256.957 1.68275 1.13188 0
M  V30 2654 C 257.29 0.423179 1.89533 0
M  V30 2655 O 256.565 -0.579113 1.85679 0
M  V30 2656 C 256.848 2.92001 2.1073 0
M  V30 2657 C 256.701 4.28067 1.38125 0
M  V30 2658 C 258.02 3.11283 3.11113 0
M  V30 2659 H 255.139 0.612352 0.410115 0
M  V30 2660 H 257.781 1.85415 0.414869 0
M  V30 2661 H 255.931 2.77519 2.71874 0
M  V30 2662 H 257.603 4.54324 0.799187 0
M  V30 2663 H 255.846 4.28388 0.683092 0
M  V30 2664 H 256.517 5.10733 2.09417 0
M  V30 2665 H 258.993 3.2482 2.6006 0
M  V30 2666 H 257.869 3.99325 3.76605 0
M  V30 2667 H 258.13 2.25656 3.80173 0
M  V30 2668 N 257.189 -0.644168 1.43834 0
M  V30 2669 C 258.419 -1.42939 1.49171 0
M  V30 2670 C 258.827 -1.88874 0.111048 0
M  V30 2671 O 258.17 -1.60656 -0.8908 0
M  V30 2672 C 258.232 -2.69151 2.38324 0
M  V30 2673 C 257.896 -2.45097 3.85715 0
M  V30 2674 C 258.893 -2.07747 4.76589 0
M  V30 2675 C 256.578 -2.59141 4.30292 0
M  V30 2676 C 258.572 -1.8475 6.10038 0
M  V30 2677 C 256.259 -2.35759 5.63792 0
M  V30 2678 C 257.257 -1.9862 6.53482 0
M  V30 2679 O 256.945 -1.75489 7.84512 0
M  V30 2680 H 256.677 -0.445271 0.508635 0
M  V30 2681 H 259.231 -0.79621 1.8934 0
M  V30 2682 H 257.461 -3.3506 1.93058 0
M  V30 2683 H 259.15 -3.31123 2.3476 0
M  V30 2684 H 259.916 -1.96465 4.43426 0
M  V30 2685 H 255.795 -2.87022 3.60749 0
M  V30 2686 H 259.339 -1.55686 6.80006 0
M  V30 2687 H 255.236 -2.46646 5.9652 0
M  V30 2688 H 256.004 -1.89841 7.9618 0
M  V30 2689 N 258.668 -1.30515 -0.883378 0
M  V30 2690 C 259.916 -1.19194 -1.63209 0
M  V30 2691 C 260.237 0.253205 -1.93349 0
M  V30 2692 O 259.507 1.17025 -1.57105 0
M  V30 2693 H 258.087 -0.438148 -0.605009 0
M  V30 2694 H 260.749 -1.63663 -1.05832 0
M  V30 2695 H 259.845 -1.75396 -2.58153 0
M  V30 2696 N 260.146 1.09593 -1.13257 0
M  V30 2697 C 261.423 1.78293 -0.804432 0
M  V30 2698 C 261.803 1.99004 0.70431 0
M  V30 2699 O 261.151 1.59007 1.641 0
M  V30 2700 C 261.361 3.10707 -1.5894 0
M  V30 2701 C 262.709 3.85443 -1.78099 0
M  V30 2702 O 263.733 3.20454 -1.55525 0
M  V30 2703 O 262.592 5.02108 -2.15753 0
M  V30 2704 H 259.686 0.773156 -0.293528 0
M  V30 2705 H 262.232 1.16164 -1.23709 0
M  V30 2706 H 261.004 2.91106 -2.61482 0
M  V30 2707 H 260.627 3.80558 -1.15157 0
M  V30 2708 N 261.624 0.925811 1.2754 0
M  V30 2709 C 262.873 0.561084 1.93739 0
M  V30 2710 C 263.186 -0.901685 1.73577 0
M  V30 2711 O 264.392 -1.37511 2.34101 0
M  V30 2712 C 262.848 0.952668 3.47062 0
M  V30 2713 C 262.456 2.43599 3.75983 0
M  V30 2714 C 264.2 0.659103 4.19352 0
M  V30 2715 C 262.107 2.76707 5.22673 0
M  V30 2716 H 261.037 0.206122 0.725279 0
M  V30 2717 H 263.688 1.12637 1.44863 0
M  V30 2718 H 262.07 0.316053 3.94737 0
M  V30 2719 H 263.244 3.12035 3.39073 0
M  V30 2720 H 261.559 2.70125 3.16893 0
M  V30 2721 H 264.156 0.882985 5.27359 0
M  V30 2722 H 264.499 -0.403607 4.14339 0
M  V30 2723 H 265.032 1.25473 3.77494 0
M  V30 2724 H 261.771 3.8188 5.32774 0
M  V30 2725 H 261.291 2.12919 5.60737 0
M  V30 2726 H 262.97 2.6435 5.90532 0
M  V30 2727 N 263.102 -1.41638 0.69111 0
M  V30 2728 C 264.351 -2.00526 0.217318 0
M  V30 2729 C 264.664 -1.55353 -1.18848 0
M  V30 2730 O 265.87 -2.06769 -1.75951 0
M  V30 2731 C 264.326 -3.58313 0.337639 0
M  V30 2732 C 263.934 -4.12469 1.74852 0
M  V30 2733 C 265.678 -4.24431 -0.0766066 0
M  V30 2734 C 263.585 -5.62675 1.82074 0
M  V30 2735 H 262.515 -0.750008 0.0774893 0
M  V30 2736 H 265.166 -1.6217 0.858661 0
M  V30 2737 H 263.548 -3.9425 -0.371879 0
M  V30 2738 H 264.722 -3.8796 2.48644 0
M  V30 2739 H 263.037 -3.58861 2.11205 0
M  V30 2740 H 265.634 -5.34683 -0.0430284 0
M  V30 2741 H 265.977 -4.01101 -1.1146 0
M  V30 2742 H 266.51 -3.93512 0.582476 0
M  V30 2743 H 263.249 -5.90826 2.83911 0
M  V30 2744 H 262.769 -5.89124 1.12661 0
M  V30 2745 H 264.448 -6.27371 1.58159 0
M  V30 2746 N 264.58 -0.43555 -1.51462 0
M  V30 2747 C 265.53 0.394701 -2.24558 0
M  V30 2748 C 266.514 0.99157 -1.26715 0
M  V30 2749 O 267.706 0.910007 -1.51815 0
M  V30 2750 C 264.835 1.4963 -3.08975 0
M  V30 2751 C 263.921 0.908912 -4.14246 0
M  V30 2752 N 264.312 0.0505335 -5.05775 0
M  V30 2753 C 262.61 1.17668 -4.30198 0
M  V30 2754 C 263.311 -0.279161 -5.8103 0
M  V30 2755 N 262.287 0.336767 -5.42556 0
M  V30 2756 H 266.089 -0.267106 -2.92684 0
M  V30 2757 H 263.603 -0.247518 -1.60503 0
M  V30 2758 H 265.6 2.10394 -3.59917 0
M  V30 2759 H 264.26 2.16046 -2.42393 0
M  V30 2760 H 265.271 -0.31577 -5.16936 0
M  V30 2761 H 261.948 1.83847 -3.74842 0
M  V30 2762 H 263.338 -0.977553 -6.64751 0
M  V30 2763 N 266.058 1.56714 -0.166846 0
M  V30 2764 C 267.286 2.0112 0.485644 0
M  V30 2765 C 267.701 1.04705 1.57106 0
M  V30 2766 O 267.058 0.0471923 1.82439 0
M  V30 2767 C 267.109 3.45361 1.06808 0
M  V30 2768 O 266.83 4.38092 0.0259995 0
M  V30 2769 C 268.331 4.05145 1.79924 0
M  V30 2770 H 265.551 0.65931 0.124704 0
M  V30 2771 H 268.095 2.02746 -0.267262 0
M  V30 2772 H 266.25 3.44524 1.7715 0
M  V30 2773 H 266.664 5.22519 0.455398 0
M  V30 2774 H 268.138 5.08009 2.15942 0
M  V30 2775 H 268.615 3.46982 2.69258 0
M  V30 2776 H 269.221 4.09672 1.14234 0
M  V30 2777 N 267.536 -0.106894 1.57237 0
M  V30 2778 C 268.947 -0.662723 1.74542 0
M  V30 2779 C 269.298 -1.7971 0.787319 0
M  V30 2780 O 268.423 -2.16368 -0.0369636 0
M  V30 2781 C 269.018 -1.20896 3.16496 0
M  V30 2782 C 267.577 -1.71096 3.35266 0
M  V30 2783 C 266.724 -0.615642 2.7038 0
M  V30 2784 H 269.675 0.119106 1.58252 0
M  V30 2785 H 269.696 -2.07847 3.18716 0
M  V30 2786 H 269.208 -0.383122 3.86204 0
M  V30 2787 H 267.309 -2.56119 2.70618 0
M  V30 2788 H 267.422 -1.81208 4.43509 0
M  V30 2789 H 265.786 -1.05222 2.31949 0
M  V30 2790 H 266.569 0.199419 3.4272 0
M  V30 2791 N 269.014 -1.53014 -0.377408 0
M  V30 2792 C 269.977 -1.77957 -1.44444 0
M  V30 2793 C 270.977 -0.649763 -1.47087 0
M  V30 2794 O 272.167 -0.917897 -1.48055 0
M  V30 2795 C 269.299 -1.89089 -2.83651 0
M  V30 2796 H 270.492 -2.73243 -1.23606 0
M  V30 2797 H 268.045 -1.43912 -0.609844 0
M  V30 2798 H 268.78 -0.958293 -3.09818 0
M  V30 2799 H 268.565 -2.71254 -2.83132 0
M  V30 2800 H 270.055 -2.1002 -3.60945 0
M  V30 2801 N 270.492 0.636531 -1.44174 0
M  V30 2802 C 271.439 1.74875 -1.50624 0
M  V30 2803 C 272.409 1.62275 -0.35442 0
M  V30 2804 O 273.594 1.82276 -0.563908 0
M  V30 2805 C 270.734 3.13102 -1.45125 0
M  V30 2806 C 269.847 3.36717 -2.7064 0
M  V30 2807 C 268.982 4.64885 -2.57013 0
M  V30 2808 C 268.021 4.8166 -3.77717 0
M  V30 2809 N 267.158 6.01101 -3.62798 0
M  V30 2810 H 271.998 1.68697 -2.45653 0
M  V30 2811 H 269.535 0.823004 -1.21922 0
M  V30 2812 H 271.493 3.93034 -1.39929 0
M  V30 2813 H 270.123 3.18308 -0.536671 0
M  V30 2814 H 269.175 2.50763 -2.86046 0
M  V30 2815 H 270.487 3.44993 -3.60252 0
M  V30 2816 H 269.641 5.52969 -2.49619 0
M  V30 2817 H 268.38 4.58957 -1.64953 0
M  V30 2818 H 267.385 3.92007 -3.85501 0
M  V30 2819 H 268.61 4.89406 -4.70807 0
M  V30 2820 H 266.556 5.96273 -2.73486 0
M  V30 2821 H 266.473 6.10409 -4.46023 0
M  V30 2822 H 267.741 6.91761 -3.59286 0
M  V30 2823 N 271.97 1.30982 0.876444 0
M  V30 2824 C 273.247 1.10942 1.61094 0
M  V30 2825 C 273.627 -0.338223 2.08373 0
M  V30 2826 O 272.975 -1.33122 1.85717 0
M  V30 2827 C 273.185 2.11789 2.77392 0
M  V30 2828 C 274.533 2.43965 3.47514 0
M  V30 2829 O 275.557 2.10166 2.87591 0
M  V30 2830 O 274.416 3.01817 4.55597 0
M  V30 2831 H 271.51 0.42667 0.708436 0
M  V30 2832 H 274.056 1.42438 0.922474 0
M  V30 2833 H 272.828 3.09194 2.39823 0
M  V30 2834 H 272.451 1.81161 3.5393 0
M  V30 2835 N 273.449 -1.08991 1.13837 0
M  V30 2836 C 274.865 -1.33312 0.877506 0
M  V30 2837 C 275.065 -1.95587 -0.48456 0
M  V30 2838 O 274.121 -2.20509 -1.23013 0
M  V30 2839 C 275.434 -2.24045 2.0056 0
M  V30 2840 C 276.982 -2.37542 2.03821 0
M  V30 2841 C 277.457 -3.31614 3.15905 0
M  V30 2842 N 278.948 -3.39189 3.15445 0
M  V30 2843 C 279.683 -4.11992 3.98811 0
M  V30 2844 N 279.179 -4.87553 4.92203 0
M  V30 2845 N 280.972 -4.07762 3.86894 0
M  V30 2846 H 273.123 -0.669456 2.01574 0
M  V30 2847 H 275.386 -0.357482 0.878015 0
M  V30 2848 H 275.092 -1.85521 2.98789 0
M  V30 2849 H 274.966 -3.24466 1.92359 0
M  V30 2850 H 277.353 -2.75327 1.06202 0
M  V30 2851 H 277.434 -1.36884 2.16093 0
M  V30 2852 H 277.078 -2.94551 4.13766 0
M  V30 2853 H 277.008 -4.32186 3.0087 0
M  V30 2854 H 279.499 -2.85314 2.47799 0
M  V30 2855 H 279.812 -5.40549 5.52292 0
M  V30 2856 H 278.157 -4.86627 4.96205 0
M  V30 2857 H 281.348 -3.47833 3.13257 0
M  V30 2858 H 281.521 -4.64238 4.52092 0
M  V30 2859 N 274.927 -0.932562 -1.27047 0
M  V30 2860 C 276.343 -0.633544 -1.46487 0
M  V30 2861 C 276.543 0.815746 -1.84249 0
M  V30 2862 O 275.599 1.59319 -1.95892 0
M  V30 2863 C 276.912 -1.58758 -2.55375 0
M  V30 2864 C 278.46 -1.59634 -2.69232 0
M  V30 2865 C 278.935 -2.53747 -3.81283 0
M  V30 2866 N 280.426 -2.51982 -3.88664 0
M  V30 2867 C 281.161 -3.21491 -4.74796 0
M  V30 2868 N 280.657 -4.00395 -5.65381 0
M  V30 2869 N 282.45 -3.10485 -4.68568 0
M  V30 2870 H 274.601 -1.86946 -1.00821 0
M  V30 2871 H 276.864 -0.802897 -0.504044 0
M  V30 2872 H 276.57 -2.62172 -2.34432 0
M  V30 2873 H 276.444 -1.33301 -3.52861 0
M  V30 2874 H 278.831 -0.569488 -2.89553 0
M  V30 2875 H 278.912 -1.89142 -1.72218 0
M  V30 2876 H 278.556 -3.56545 -3.61715 0
M  V30 2877 H 278.486 -2.21532 -4.77735 0
M  V30 2878 H 280.977 -1.94681 -3.23895 0
M  V30 2879 H 281.29 -4.50406 -6.27976 0
M  V30 2880 H 279.635 -4.04498 -5.65161 0
M  V30 2881 H 282.826 -2.48331 -3.96799 0
M  V30 2882 H 282.999 -3.64925 -5.35475 0
M  V30 2883 N 276.405 1.4127 -0.698611 0
M  V30 2884 C 277.368 2.29158 -0.044132 0
M  V30 2885 C 278.368 1.44529 0.704841 0
M  V30 2886 O 279.558 1.65643 0.539276 0
M  V30 2887 C 276.69 3.27459 0.947809 0
M  V30 2888 H 277.883 2.88529 -0.817994 0
M  V30 2889 H 275.436 1.49307 -0.46228 0
M  V30 2890 H 276.171 2.73073 1.74933 0
M  V30 2891 H 275.956 3.8991 0.41385 0
M  V30 2892 H 277.446 3.93311 1.40344 0
M  V30 2893 N 277.883 0.443576 1.51229 0
M  V30 2894 C 278.813 -0.355142 2.30783 0
M  V30 2895 C 279.794 -1.0154 1.36468 0
M  V30 2896 O 280.979 -1.01785 1.65389 0
M  V30 2897 C 278.109 -1.45312 3.15439 0
M  V30 2898 C 277.063 -0.916002 4.18083 0
M  V30 2899 C 276.389 -2.1102 4.91299 0
M  V30 2900 C 277.689 0.0538602 5.22272 0
M  V30 2901 H 279.383 0.308767 2.97804 0
M  V30 2902 H 276.929 0.149937 1.43217 0
M  V30 2903 H 278.882 -2.01914 3.69876 0
M  V30 2904 H 277.606 -2.14541 2.46252 0
M  V30 2905 H 276.265 -0.372145 3.64706 0
M  V30 2906 H 275.913 -2.78882 4.18609 0
M  V30 2907 H 275.613 -1.75717 5.60712 0
M  V30 2908 H 277.137 -2.68164 5.48562 0
M  V30 2909 H 278.551 -0.422069 5.71744 0
M  V30 2910 H 276.948 0.319776 5.99247 0
M  V30 2911 H 278.018 0.98858 4.74716 0
M  V30 2912 N 279.361 -1.56624 0.175154 0
M  V30 2913 C 280.607 -1.9729 -0.469506 0
M  V30 2914 C 280.94 -1.06128 -1.62636 0
M  V30 2915 O 280.215 -0.109183 -1.94193 0
M  V30 2916 C 280.498 -3.47375 -0.948804 0
M  V30 2917 C 280.351 -4.49317 0.208491 0
M  V30 2918 C 281.67 -4.00652 -1.82116 0
M  V30 2919 H 278.789 -0.717317 -0.16919 0
M  V30 2920 H 281.431 -1.88184 0.262062 0
M  V30 2921 H 279.581 -3.55267 -1.57219 0
M  V30 2922 H 281.253 -4.53482 0.845682 0
M  V30 2923 H 279.496 -4.25121 0.863395 0
M  V30 2924 H 280.167 -5.51741 -0.169059 0
M  V30 2925 H 282.643 -3.95416 -1.2956 0
M  V30 2926 H 281.519 -5.06075 -2.12554 0
M  V30 2927 H 281.78 -3.44699 -2.7683 0
M  V30 2928 N 280.839 0.0985539 -1.57292 0
M  V30 2929 C 281.769 1.12064 -2.04851 0
M  V30 2930 C 282.75 1.41981 -0.936767 0
M  V30 2931 O 283.935 1.52071 -1.20781 0
M  V30 2932 C 281.065 2.44144 -2.47004 0
M  V30 2933 C 280.019 2.28643 -3.6181 0
M  V30 2934 C 279.345 3.65869 -3.89929 0
M  V30 2935 C 280.645 1.72986 -4.92822 0
M  V30 2936 H 282.339 0.724979 -2.9049 0
M  V30 2937 H 279.885 0.34729 -1.39749 0
M  V30 2938 H 281.838 3.15914 -2.78884 0
M  V30 2939 H 280.562 2.85639 -1.5836 0
M  V30 2940 H 279.221 1.59318 -3.30172 0
M  V30 2941 H 278.869 4.04885 -2.98458 0
M  V30 2942 H 278.569 3.56344 -4.67218 0
M  V30 2943 H 280.093 4.39112 -4.2428 0
M  V30 2944 H 281.507 2.34593 -5.23105 0
M  V30 2945 H 279.904 1.74229 -5.74251 0
M  V30 2946 H 280.974 0.689007 -4.7998 0
M  V30 2947 N 282.317 1.53212 0.369288 0
M  V30 2948 C 283.264 1.79388 1.45219 0
M  V30 2949 C 284.234 0.638059 1.53356 0
M  V30 2950 O 285.419 0.879852 1.69302 0
M  V30 2951 C 282.559 1.98623 2.82211 0
M  V30 2952 C 281.672 3.26337 2.8307 0
M  V30 2953 C 280.807 3.35779 4.11614 0
M  V30 2954 C 279.846 4.5754 4.06601 0
M  V30 2955 N 278.983 4.64155 5.26787 0
M  V30 2956 H 283.823 2.71794 1.22198 0
M  V30 2957 H 281.36 1.34642 0.592444 0
M  V30 2958 H 283.318 2.07761 3.61789 0
M  V30 2959 H 281.948 1.09558 3.03639 0
M  V30 2960 H 281 3.26171 1.95747 0
M  V30 2961 H 282.312 4.15988 2.75237 0
M  V30 2962 H 281.466 3.44208 4.99606 0
M  V30 2963 H 280.205 2.44137 4.22195 0
M  V30 2964 H 279.21 4.49215 3.16996 0
M  V30 2965 H 280.435 5.50519 3.97625 0
M  V30 2966 H 278.381 3.75413 5.3796 0
M  V30 2967 H 278.298 5.47706 5.21109 0
M  V30 2968 H 279.566 4.76863 6.16621 0
M  V30 2969 N 283.795 -0.628877 1.44509 0
M  V30 2970 C 284.727 -1.754 1.47538 0
M  V30 2971 C 285.74 -1.58575 0.368506 0
M  V30 2972 O 286.929 -1.66847 0.634376 0
M  V30 2973 C 284.029 -3.1315 1.29577 0
M  V30 2974 C 283.202 -3.56413 2.53551 0
M  V30 2975 C 282.261 -4.7305 2.30457 0
M  V30 2976 O 281.287 -4.81247 3.03957 0
M  V30 2977 N 282.489 -5.64903 1.3366 0
M  V30 2978 H 285.254 -1.73272 2.44534 0
M  V30 2979 H 282.815 -0.813512 1.39977 0
M  V30 2980 H 284.807 -3.88902 1.11971 0
M  V30 2981 H 283.377 -3.09908 0.409371 0
M  V30 2982 H 282.597 -2.70847 2.86419 0
M  V30 2983 H 283.885 -3.82071 3.36005 0
M  V30 2984 H 283.283 -5.60975 0.729604 0
M  V30 2985 H 281.84 -6.40275 1.22032 0
M  V30 2986 N 285.273 -1.31445 -0.869486 0
M  V30 2987 C 286.684 -1.19042 -1.43826 0
M  V30 2988 C 287.035 0.202919 -1.95148 0
M  V30 2989 O 286.16 1.10071 -1.86315 0
M  V30 2990 C 286.755 -2.15499 -2.6143 0
M  V30 2991 C 285.314 -2.07028 -3.14351 0
M  V30 2992 C 284.461 -2.04701 -1.87063 0
M  V30 2993 H 287.412 -1.43489 -0.677984 0
M  V30 2994 H 287.433 -1.74488 -3.38134 0
M  V30 2995 H 286.945 -3.16899 -2.24046 0
M  V30 2996 H 285.046 -1.08825 -3.56354 0
M  V30 2997 H 285.159 -2.96157 -3.766 0
M  V30 2998 H 283.523 -1.49724 -2.06046 0
M  V30 2999 H 284.306 -3.07857 -1.51917 0
M  V30 3000 N 286.751 1.08385 -1.14413 0
M  V30 3001 C 288 1.80153 -0.907076 0
M  V30 3002 C 288.313 1.87176 0.567851 0
M  V30 3003 O 289.519 2.55359 0.922172 0
M  V30 3004 C 287.975 3.23687 -1.57336 0
M  V30 3005 C 287.583 3.24897 -3.08457 0
M  V30 3006 C 289.327 4.00136 -1.41744 0
M  V30 3007 C 287.234 4.6302 -3.67921 0
M  V30 3008 H 286.164 0.675139 -0.335714 0
M  V30 3009 H 288.815 1.21733 -1.37307 0
M  V30 3010 H 287.197 3.82234 -1.03505 0
M  V30 3011 H 288.371 2.76055 -3.68958 0
M  V30 3012 H 286.686 2.61943 -3.2369 0
M  V30 3013 H 289.283 5.02201 -1.83572 0
M  V30 3014 H 289.626 4.14709 -0.363576 0
M  V30 3015 H 290.159 3.48058 -1.92614 0
M  V30 3016 H 286.898 4.5365 -4.73161 0
M  V30 3017 H 286.418 5.12143 -3.12201 0
M  V30 3018 H 288.097 5.31994 -3.68227 0
M  V30 3019 N 288.23 0.939286 1.26551 0
M  V30 3020 C 289.478 0.58469 1.93457 0
M  V30 3021 C 289.799 -0.878774 1.74076 0
M  V30 3022 O 289.069 -1.62421 1.09528 0
M  V30 3023 H 287.649 0.21325 0.715914 0
M  V30 3024 H 290.311 1.1942 1.54029 0
M  V30 3025 H 289.407 0.800849 3.0165 0
M  V30 3026 N 289.708 -1.40897 0.706093 0
M  V30 3027 C 290.954 -2.01352 0.241889 0
M  V30 3028 C 291.287 -1.55832 -1.15888 0
M  V30 3029 O 290.562 -0.774145 -1.7843 0
M  V30 3030 C 290.845 -3.58752 0.311311 0
M  V30 3031 C 290.698 -4.1437 1.74978 0
M  V30 3032 C 292.017 -4.38914 -0.322922 0
M  V30 3033 H 289.136 -0.731562 0.0893687 0
M  V30 3034 H 291.778 -1.67504 0.896802 0
M  V30 3035 H 289.928 -3.87718 -0.246302 0
M  V30 3036 H 291.6 -3.96239 2.36205 0
M  V30 3037 H 289.843 -3.69016 2.28057 0
M  V30 3038 H 290.514 -5.23532 1.74981 0
M  V30 3039 H 292.99 -4.15822 0.152089 0
M  V30 3040 H 291.866 -5.48358 -0.243855 0
M  V30 3041 H 292.127 -4.19176 -1.40513 0
M  V30 3042 N 291.186 -0.45159 -1.50991 0
M  V30 3043 C 292.149 0.341117 -2.26647 0
M  V30 3044 C 293.149 0.937422 -1.30649 0
M  V30 3045 O 294.339 0.809644 -1.54241 0
M  V30 3046 C 291.471 1.48398 -3.06905 0
M  V30 3047 H 292.664 -0.322117 -2.98165 0
M  V30 3048 H 290.217 -0.205122 -1.54948 0
M  V30 3049 H 290.952 2.18284 -2.39838 0
M  V30 3050 H 290.737 1.06241 -3.77432 0
M  V30 3051 H 292.227 2.04367 -3.64176 0
M  V30 3052 N 292.664 1.56529 -0.183458 0
M  V30 3053 C 293.627 2.17324 0.728223 0
M  V30 3054 C 294.627 1.12453 1.14939 0
M  V30 3055 O 295.817 1.37902 1.06437 0
M  V30 3056 C 292.949 2.76591 1.99274 0
M  V30 3057 H 294.142 2.99241 0.198772 0
M  V30 3058 H 291.695 1.5616 0.0661391 0
M  V30 3059 H 292.43 1.98441 2.56499 0
M  V30 3060 H 292.215 3.5335 1.69959 0
M  V30 3061 H 293.705 3.23311 2.6431 0
M  V30 3062 N 294.142 -0.090211 1.57342 0
M  V30 3063 C 295.388 -0.793982 1.86611 0
M  V30 3064 C 295.721 -1.78142 0.773252 0
M  V30 3065 O 294.996 -1.93271 -0.218304 0
M  V30 3066 C 295.279 -1.51839 3.26523 0
M  V30 3067 C 295.132 -0.548609 4.46442 0
M  V30 3068 C 296.451 -2.46779 3.64401 0
M  V30 3069 H 293.57 -0.287186 0.678744 0
M  V30 3070 H 296.212 -0.0575076 1.89913 0
M  V30 3071 H 294.362 -2.14617 3.23839 0
M  V30 3072 H 296.034 0.0725513 4.61243 0
M  V30 3073 H 294.277 0.137614 4.33582 0
M  V30 3074 H 294.948 -1.09271 5.41076 0
M  V30 3075 H 297.424 -1.94089 3.68061 0
M  V30 3076 H 296.3 -2.94479 4.63221 0
M  V30 3077 H 296.561 -3.30758 2.93346 0
M  V30 3078 N 295.62 -1.53406 -0.361157 0
M  V30 3079 C 296.869 -1.69022 -1.10066 0
M  V30 3080 C 297.182 -0.450838 -1.90333 0
M  V30 3081 O 298.388 -0.487617 -2.67085 0
M  V30 3082 C 296.844 -2.98812 -2.00598 0
M  V30 3083 C 296.452 -4.30027 -1.25621 0
M  V30 3084 C 298.196 -3.23795 -2.74513 0
M  V30 3085 C 296.103 -5.50903 -2.1508 0
M  V30 3086 H 295.033 -0.629776 -0.414606 0
M  V30 3087 H 297.684 -1.79907 -0.361348 0
M  V30 3088 H 296.066 -2.8174 -2.78278 0
M  V30 3089 H 297.24 -4.57745 -0.529739 0
M  V30 3090 H 295.555 -4.11522 -0.635496 0
M  V30 3091 H 298.152 -4.11289 -3.41681 0
M  V30 3092 H 298.495 -2.40045 -3.40123 0
M  V30 3093 H 299.028 -3.41561 -2.03914 0
M  V30 3094 H 295.767 -6.37143 -1.54041 0
M  V30 3095 H 295.287 -5.27459 -2.85565 0
M  V30 3096 H 296.966 -5.85865 -2.74538 0
M  V30 3097 N 297.098 0.621204 -1.44841 0
M  V30 3098 C 298.326 1.40752 -1.51646 0
M  V30 3099 C 298.741 1.88246 -0.144549 0
M  V30 3100 O 298.098 1.61422 0.851416 0
M  V30 3101 C 298.149 2.62119 -2.4895 0
M  V30 3102 O 297.87 2.16602 -3.80808 0
M  V30 3103 C 299.371 3.55135 -2.65319 0
M  V30 3104 H 296.591 0.431325 -0.514004 0
M  V30 3105 H 299.135 0.758835 -1.899 0
M  V30 3106 H 297.29 3.23058 -2.13805 0
M  V30 3107 H 297.704 2.95358 -4.33433 0
M  V30 3108 H 299.178 4.36874 -3.37409 0
M  V30 3109 H 299.655 4.04592 -1.70886 0
M  V30 3110 H 300.261 3.00058 -3.01405 0
M  V30 3111 N 298.576 1.31904 0.862503 0
M  V30 3112 C 299.987 1.19803 1.43193 0
M  V30 3113 C 300.338 -0.192567 1.95253 0
M  V30 3114 O 299.463 -1.09081 1.86896 0
M  V30 3115 C 300.058 2.16883 2.60283 0
M  V30 3116 C 298.617 2.08692 3.13248 0
M  V30 3117 C 297.764 2.05691 1.85975 0
M  V30 3118 H 300.715 1.43846 0.670365 0
M  V30 3119 H 300.736 1.76278 3.37204 0
M  V30 3120 H 300.248 3.18083 2.22363 0
M  V30 3121 H 298.349 1.10713 3.55771 0
M  V30 3122 H 298.462 2.9815 3.75025 0
M  V30 3123 H 296.826 1.50814 2.05249 0
M  V30 3124 H 297.609 3.08659 1.50282 0
M  V30 3125 N 300.054 -1.07777 1.14986 0
M  V30 3126 C 301.3 -1.80719 0.93339 0
M  V30 3127 C 301.655 -1.8484 -0.534019 0
M  V30 3128 O 300.948 -1.31795 -1.3907 0
M  V30 3129 C 301.142 -3.25495 1.47608 0
M  V30 3130 C 300.971 -3.3548 2.99472 0
M  V30 3131 C 299.741 -3.46293 3.6798 0
M  V30 3132 C 301.939 -3.26596 3.97291 0
M  V30 3133 N 299.921 -3.45136 5.07695 0
M  V30 3134 C 301.292 -3.32506 5.23297 0
M  V30 3135 C 303.347 -3.10376 3.89321 0
M  V30 3136 C 302.05 -3.23866 6.42264 0
M  V30 3137 C 304.076 -3.03069 5.07842 0
M  V30 3138 C 303.438 -3.09587 6.32721 0
M  V30 3139 H 299.537 -0.674814 0.395158 0
M  V30 3140 H 302.121 -1.28681 1.46114 0
M  V30 3141 H 300.292 -3.75963 0.975022 0
M  V30 3142 H 302.024 -3.86535 1.19887 0
M  V30 3143 H 298.779 -3.50456 3.18555 0
M  V30 3144 H 299.203 -3.48097 5.80653 0
M  V30 3145 H 303.845 -3.04194 2.93642 0
M  V30 3146 H 301.563 -3.28807 7.38181 0
M  V30 3147 H 305.149 -2.91629 5.03432 0
M  V30 3148 H 304.029 -3.0397 7.22891 0
M  V30 3149 N 301.532 -0.945985 -1.26051 0
M  V30 3150 C 302.48 -0.450259 -2.282 0
M  V30 3151 C 303.474 0.47497 -1.62605 0
M  V30 3152 O 304.68 0.352653 -1.76512 0
M  V30 3153 H 301.055 -0.127081 -0.741184 0
M  V30 3154 H 303.026 -1.32422 -2.67408 0
M  V30 3155 C 301.775 0.26467 -3.46691 0
M  V30 3156 H 301.098 -0.438123 -3.97392 0
M  V30 3157 H 302.538 0.575678 -4.20074 0
M  V30 3158 C 300.997 1.48416 -3.02447 0
M  V30 3159 O 301.527 2.58227 -3.07704 0
M  V30 3160 N 299.733 1.34243 -2.57735 0
M  V30 3161 H 299.28 0.448994 -2.53657 0
M  V30 3162 H 299.238 2.15957 -2.28495 0
M  V30 3163 N 303.011 1.40521 -0.713556 0
M  V30 3164 C 304.258 2.00923 -0.25219 0
M  V30 3165 C 304.586 1.56571 1.15395 0
M  V30 3166 O 303.841 0.775874 1.79663 0
M  V30 3167 C 304.14 3.56317 -0.278 0
M  V30 3168 C 303.806 4.20246 -1.63415 0
M  V30 3169 C 302.468 4.37422 -2.00538 0
M  V30 3170 C 304.82 4.55923 -2.52554 0
M  V30 3171 C 302.148 4.87558 -3.2635 0
M  V30 3172 C 304.5 5.07458 -3.77716 0
M  V30 3173 C 303.164 5.22843 -4.14959 0
M  V30 3174 H 302.434 0.735231 -0.0922829 0
M  V30 3175 H 305.081 1.68161 -0.916188 0
M  V30 3176 H 303.386 3.88976 0.469567 0
M  V30 3177 H 305.083 4.00883 0.0967819 0
M  V30 3178 H 301.673 4.07263 -1.33546 0
M  V30 3179 H 305.857 4.42291 -2.25149 0
M  V30 3180 H 301.113 4.97654 -3.55176 0
M  V30 3181 H 305.287 5.34041 -4.4696 0
M  V30 3182 H 302.914 5.61454 -5.12516 0
M  V30 3183 N 304.489 0.459591 1.5075 0
M  V30 3184 C 305.9 0.00171547 1.867 0
M  V30 3185 C 306.251 -1.39934 1.37525 0
M  V30 3186 O 305.376 -2.03523 0.735349 0
M  V30 3187 C 305.971 -0.00366298 3.388 0
M  V30 3188 C 304.53 -0.406026 3.74204 0
M  V30 3189 C 303.677 0.38673 2.7459 0
M  V30 3190 H 306.628 0.674413 1.43657 0
M  V30 3191 H 306.649 -0.808371 3.71814 0
M  V30 3192 H 306.161 1.01617 3.74561 0
M  V30 3193 H 304.262 -1.43063 3.4404 0
M  V30 3194 H 304.375 -0.115362 4.78961 0
M  V30 3195 H 302.739 -0.158019 2.54209 0
M  V30 3196 H 303.522 1.40585 3.13194 0
M  V30 3197 N 305.967 -1.56429 0.191757 0
M  V30 3198 C 307.192 -2.02309 -0.456706 0
M  V30 3199 C 307.617 -1.07103 -1.5463 0
M  V30 3200 O 306.975 -0.0539677 -1.8122 0
M  V30 3201 C 307.023 -3.46654 -0.993159 0
M  V30 3202 O 306.127 -3.54559 -2.10622 0
M  V30 3203 H 305.468 -0.655303 -0.107114 0
M  V30 3204 H 307.998 -2.02364 0.301653 0
M  V30 3205 H 308.008 -3.86377 -1.31061 0
M  V30 3206 H 306.683 -4.1544 -0.195504 0
M  V30 3207 H 305.26 -3.26708 -1.79767 0
M  V30 3208 N 307.445 0.0818655 -1.57387 0
M  V30 3209 C 308.408 1.08265 -2.02018 0
M  V30 3210 C 309.408 1.32183 -0.915664 0
M  V30 3211 O 310.598 1.28073 -1.18081 0
M  V30 3212 C 307.73 2.42871 -2.39221 0
M  V30 3213 H 308.923 0.698204 -2.91659 0
M  V30 3214 H 306.476 0.327303 -1.52835 0
M  V30 3215 H 307.211 2.86167 -1.52575 0
M  V30 3216 H 306.996 2.26855 -3.19811 0
M  V30 3217 H 308.486 3.14826 -2.74362 0
M  V30 3218 N 308.923 1.53595 0.353017 0
M  V30 3219 C 309.856 1.7572 1.45594 0
M  V30 3220 C 310.834 0.605961 1.50887 0
M  V30 3221 O 312.018 0.840023 1.68748 0
M  V30 3222 C 309.145 1.84732 2.83887 0
M  V30 3223 C 308.191 3.06808 2.96262 0
M  V30 3224 S 309.024 4.66065 2.63711 0
M  V30 3225 C 310.18 4.77943 4.04131 0
M  V30 3226 H 310.413 2.68994 1.26608 0
M  V30 3227 H 307.946 1.44343 0.548117 0
M  V30 3228 H 309.904 1.9061 3.63563 0
M  V30 3229 H 308.565 0.92488 3.00175 0
M  V30 3230 H 307.758 3.09761 3.97573 0
M  V30 3231 H 307.36 2.99108 2.24523 0
M  V30 3232 H 309.652 4.5877 4.98534 0
M  V30 3233 H 310.595 5.80022 4.06177 0
M  V30 3234 H 311.003 4.06472 3.91715 0
M  V30 3235 N 310.401 -0.613514 1.45168 0
M  V30 3236 C 311.65 -1.36874 1.4815 0
M  V30 3237 C 311.963 -1.952 0.124982 0
M  V30 3238 O 313.169 -2.71481 0.0324176 0
M  V30 3239 C 311.625 -2.47905 2.60904 0
M  V30 3240 C 311.233 -1.96016 4.02842 0
M  V30 3241 C 312.977 -3.24965 2.73126 0
M  V30 3242 C 310.884 -3.04494 5.06988 0
M  V30 3243 H 309.814 -0.514428 0.551253 0
M  V30 3244 H 312.465 -0.658182 1.7129 0
M  V30 3245 H 310.847 -3.21618 2.31037 0
M  V30 3246 H 312.021 -1.29051 4.4236 0
M  V30 3247 H 310.336 -1.31719 3.95018 0
M  V30 3248 H 312.933 -4.05865 3.48106 0
M  V30 3249 H 313.276 -3.75588 1.79553 0
M  V30 3250 H 313.809 -2.5835 3.0249 0
M  V30 3251 H 310.548 -2.58795 6.0225 0
M  V30 3252 H 310.068 -3.70044 4.72046 0
M  V30 3253 H 311.747 -3.68976 5.31475 0
M  V30 3254 N 311.879 -1.3236 -0.855495 0
M  V30 3255 C 313.107 -1.2587 -1.64208 0
M  V30 3256 C 313.522 0.173457 -1.88002 0
M  V30 3257 O 312.879 1.11027 -1.44842 0
M  V30 3258 C 312.93 -2.01424 -3.00184 0
M  V30 3259 O 312.651 -3.39051 -2.77445 0
M  V30 3260 C 314.152 -2.01948 -3.94629 0
M  V30 3261 H 311.372 -0.434318 -0.511477 0
M  V30 3262 H 313.916 -1.74469 -1.0668 0
M  V30 3263 H 312.071 -1.56549 -3.5436 0
M  V30 3264 H 312.485 -3.77711 -3.63916 0
M  V30 3265 H 313.959 -2.59297 -4.87308 0
M  V30 3266 H 314.436 -1.00554 -4.27534 0
M  V30 3267 H 315.042 -2.46767 -3.4639 0
M  V30 3268 N 313.357 1.07166 -1.15556 0
M  V30 3269 C 314.773 1.31899 -0.898603 0
M  V30 3270 C 314.973 1.96333 0.453383 0
M  V30 3271 O 314.029 2.22438 1.19489 0
M  V30 3272 C 315.342 2.20826 -2.04099 0
M  V30 3273 C 316.89 2.34269 -2.07574 0
M  V30 3274 C 317.365 3.26546 -3.21141 0
M  V30 3275 N 318.856 3.34127 -3.20801 0
M  V30 3276 C 319.591 4.05595 -4.05315 0
M  V30 3277 N 319.087 4.79661 -4.99897 0
M  V30 3278 N 320.88 4.01555 -3.93332 0
M  V30 3279 H 313.031 0.637302 -2.02613 0
M  V30 3280 H 315.294 0.343468 -0.883591 0
M  V30 3281 H 315 1.80744 -3.01703 0
M  V30 3282 H 314.874 3.21364 -1.97496 0
M  V30 3283 H 317.261 2.73603 -1.10568 0
M  V30 3284 H 317.342 1.33429 -2.18244 0
M  V30 3285 H 316.986 2.87931 -4.184 0
M  V30 3286 H 316.916 4.27345 -3.07708 0
M  V30 3287 H 319.407 2.81336 -2.52306 0
M  V30 3288 H 319.72 5.31694 -5.60822 0
M  V30 3289 H 318.065 4.78671 -5.03884 0
M  V30 3290 H 321.256 3.42806 -3.18751 0
M  V30 3291 H 321.429 4.56987 -4.5942 0
M  V30 3292 N 314.835 0.952656 1.25548 0
M  V30 3293 C 315.782 0.47008 2.25962 0
M  V30 3294 C 316.752 -0.476384 1.59122 0
M  V30 3295 O 317.937 -0.39007 1.8677 0
M  V30 3296 C 315.077 -0.247881 3.44209 0
M  V30 3297 C 314.19 0.735591 4.25691 0
M  V30 3298 C 313.325 -0.0047306 5.312 0
M  V30 3299 C 312.364 0.969805 6.04368 0
M  V30 3300 N 311.501 0.260486 7.01617 0
M  V30 3301 H 316.341 1.33126 2.66611 0
M  V30 3302 H 313.878 0.66765 1.31076 0
M  V30 3303 H 315.836 -0.680695 4.1161 0
M  V30 3304 H 314.466 -1.07312 3.0444 0
M  V30 3305 H 313.518 1.28689 3.57971 0
M  V30 3306 H 314.83 1.47934 4.76358 0
M  V30 3307 H 313.984 -0.496275 6.04667 0
M  V30 3308 H 312.723 -0.781282 4.81401 0
M  V30 3309 H 311.728 1.47237 5.29718 0
M  V30 3310 H 312.953 1.74655 6.56256 0
M  V30 3311 H 310.899 -0.497364 6.54112 0
M  V30 3312 H 310.816 0.943362 7.50091 0
M  V30 3313 H 312.084 -0.209587 7.79218 0
M  V30 3314 N 316.313 -1.40141 0.720998 0
M  V30 3315 C 317.559 -2.01084 0.263231 0
M  V30 3316 C 317.892 -1.57052 -1.14229 0
M  V30 3317 O 317.167 -0.793027 -1.77599 0
M  V30 3318 C 317.45 -3.58401 0.349344 0
M  V30 3319 C 317.303 -4.12491 1.79363 0
M  V30 3320 C 318.622 -4.39231 -0.276351 0
M  V30 3321 H 315.741 -0.730572 0.0971228 0
M  V30 3322 H 318.383 -1.66543 0.914518 0
M  V30 3323 H 316.533 -3.87958 -0.205165 0
M  V30 3324 H 318.205 -3.93711 2.40394 0
M  V30 3325 H 316.448 -3.66576 2.31958 0
M  V30 3326 H 317.119 -5.21646 1.80524 0
M  V30 3327 H 319.595 -4.15637 0.196184 0
M  V30 3328 H 318.471 -5.48586 -0.185681 0
M  V30 3329 H 318.732 -4.20643 -1.36059 0
M  V30 3330 N 317.792 -0.46758 -1.50504 0
M  V30 3331 C 319.04 0.0884469 -2.01906 0
M  V30 3332 C 319.361 1.40532 -1.35188 0
M  V30 3333 O 318.631 1.89515 -0.496079 0
M  V30 3334 H 317.211 0.0356765 -0.746148 0
M  V30 3335 H 319.873 -0.6172 -1.84869 0
M  V30 3336 H 318.969 0.2425 -3.11156 0
M  V30 3337 N 319.27 1.56325 -0.20005 0
M  V30 3338 C 320.233 2.18084 0.705132 0
M  V30 3339 C 321.233 1.13666 1.1374 0
M  V30 3340 O 322.423 1.39023 1.04968 0
M  V30 3341 C 319.555 2.78689 1.96329 0
M  V30 3342 H 320.748 2.99435 0.167023 0
M  V30 3343 H 318.301 1.56221 0.0495725 0
M  V30 3344 H 319.036 2.0115 2.5438 0
M  V30 3345 H 318.821 3.55133 1.66202 0
M  V30 3346 H 320.311 3.26096 2.60866 0
M  V30 3347 N 320.748 -0.0735177 1.57428 0
M  V30 3348 C 321.711 -1.07192 2.02589 0
M  V30 3349 C 322.711 -1.31695 0.922661 0
M  V30 3350 O 323.901 -1.27445 1.18758 0
M  V30 3351 C 321.033 -2.41599 2.40506 0
M  V30 3352 H 322.226 -0.682727 2.92025 0
M  V30 3353 H 319.779 -0.319193 1.53006 0
M  V30 3354 H 320.514 -2.85354 1.5409 0
M  V30 3355 H 320.299 -2.25156 3.21009 0
M  V30 3356 H 321.789 -3.13367 2.76027 0
M  V30 3357 N 322.226 -1.5378 -0.344866 0
M  V30 3358 C 323.156 -1.84662 -1.42906 0
M  V30 3359 C 324.137 -0.701648 -1.54955 0
M  V30 3360 O 325.322 -0.953438 -1.69184 0
M  V30 3361 C 322.452 -2.05503 -2.79974 0
M  V30 3362 C 321.406 -3.21318 -2.82734 0
M  V30 3363 C 320.732 -3.2749 -4.22675 0
M  V30 3364 C 322.032 -4.59456 -2.48389 0
M  V30 3365 H 323.726 -2.75461 -1.17311 0
M  V30 3366 H 321.272 -1.32542 -0.562896 0
M  V30 3367 H 323.225 -2.25691 -3.55867 0
M  V30 3368 H 321.949 -1.11434 -3.07002 0
M  V30 3369 H 320.608 -3.00984 -2.09294 0
M  V30 3370 H 320.256 -2.31019 -4.4681 0
M  V30 3371 H 319.956 -4.05316 -4.25433 0
M  V30 3372 H 321.48 -3.49887 -5.00412 0
M  V30 3373 H 322.894 -4.79667 -3.13995 0
M  V30 3374 H 321.291 -5.39675 -2.62432 0
M  V30 3375 H 322.361 -4.63155 -1.4358 0
M  V30 3376 N 323.704 0.605807 -1.45491 0
M  V30 3377 C 324.667 1.69836 -1.5391 0
M  V30 3378 C 325.667 1.55261 -0.418424 0
M  V30 3379 O 326.857 1.60296 -0.681965 0
M  V30 3380 C 323.989 3.09117 -1.43734 0
M  V30 3381 H 325.182 1.63738 -2.51257 0
M  V30 3382 H 322.735 0.821689 -1.32959 0
M  V30 3383 H 323.47 3.20791 -0.475788 0
M  V30 3384 H 323.255 3.21104 -2.25021 0
M  V30 3385 H 324.745 3.88696 -1.52661 0
M  V30 3386 N 325.182 1.32811 0.848464 0
M  V30 3387 C 326.145 1.22194 1.9391 0
M  V30 3388 C 327.145 0.143404 1.60159 0
M  V30 3389 O 328.335 0.394253 1.6968 0
M  V30 3390 C 325.467 0.88067 3.29328 0
M  V30 3391 H 326.66 2.19127 2.04752 0
M  V30 3392 H 324.213 1.16731 1.0394 0
M  V30 3393 H 324.948 -0.0865776 3.24184 0
M  V30 3394 H 324.733 1.66052 3.55203 0
M  V30 3395 H 326.223 0.830871 4.09251 0
M  V30 3396 N 326.66 -1.06551 1.16123 0
M  V30 3397 C 327.908 -1.78947 0.939267 0
M  V30 3398 C 328.229 -1.87532 -0.534476 0
M  V30 3399 O 327.499 -1.38211 -1.38833 0
M  V30 3400 H 326.079 -0.662807 0.344523 0
M  V30 3401 H 328.741 -1.28725 1.46342 0
M  V30 3402 H 327.837 -2.81117 1.35572 0
M  V30 3403 N 328.138 -0.959301 -1.25041 0
M  V30 3404 C 329.378 -0.624343 -1.94631 0
M  V30 3405 C 329.742 0.82403 -1.73418 0
M  V30 3406 O 330.943 1.26881 -2.3697 0
M  V30 3407 C 329.214 -0.978805 -3.43736 0
M  V30 3408 S 330.773 -0.757127 -4.32219 0
M  V30 3409 H 327.591 -0.229327 -0.673001 0
M  V30 3410 H 330.193 -1.23447 -1.51595 0
M  V30 3411 H 328.897 -2.02997 -3.56679 0
M  V30 3412 H 328.428 -0.359117 -3.91757 0
M  V30 3413 H 330.443 0.369759 -4.9482 0
M  V30 3414 N 329.616 1.39756 -0.72842 0
M  V30 3415 C 330.844 2.04948 -0.283528 0
M  V30 3416 C 331.259 1.54908 1.0793 0
M  V30 3417 O 330.616 0.711135 1.68075 0
M  V30 3418 C 330.667 3.60498 -0.268957 0
M  V30 3419 O 330.388 4.08695 -1.57798 0
M  V30 3420 C 331.889 4.4288 0.192912 0
M  V30 3421 H 329.109 0.659243 -0.125056 0
M  V30 3422 H 331.653 1.78927 -0.990226 0
M  V30 3423 H 329.808 3.85444 0.388801 0
M  V30 3424 H 330.222 5.02977 -1.48709 0
M  V30 3425 H 331.696 5.51791 0.151952 0
M  V30 3426 H 332.173 4.21418 1.23708 0
M  V30 3427 H 332.779 4.23069 -0.435039 0
M  V30 3428 N 331.094 0.475555 1.50254 0
M  V30 3429 C 332.34 -0.0780073 2.0265 0
M  V30 3430 C 332.673 -1.38968 1.35652 0
M  V30 3431 O 331.948 -1.8839 0.483691 0
M  V30 3432 C 332.231 -0.257161 3.59181 0
M  V30 3433 C 332.084 1.07585 4.36744 0
M  V30 3434 C 333.403 -1.00965 4.28362 0
M  V30 3435 H 330.522 -0.0268758 0.73651 0
M  V30 3436 H 333.164 0.622015 1.7953 0
M  V30 3437 H 331.314 -0.853412 3.79011 0
M  V30 3438 H 332.986 1.70902 4.28474 0
M  V30 3439 H 331.229 1.6714 4.00308 0
M  V30 3440 H 331.9 0.904088 5.44546 0
M  V30 3441 H 334.376 -0.504214 4.13034 0
M  V30 3442 H 333.252 -1.10381 5.37687 0
M  V30 3443 H 333.513 -2.04731 3.91839 0
M  V30 3444 N 332.573 -1.56217 0.208337 0
M  V30 3445 C 333.819 -1.98242 -0.427552 0
M  V30 3446 C 334.152 -1.09554 -1.60348 0
M  V30 3447 O 333.427 -0.15035 -1.93918 0
M  V30 3448 C 333.71 -3.4931 -0.874907 0
M  V30 3449 C 333.563 -4.48773 0.303751 0
M  V30 3450 C 334.882 -4.04424 -1.73577 0
M  V30 3451 H 332.001 -0.720744 -0.153936 0
M  V30 3452 H 334.643 -1.87586 0.30192 0
M  V30 3453 H 332.793 -3.58522 -1.49648 0
M  V30 3454 H 334.465 -4.51586 0.941682 0
M  V30 3455 H 332.708 -4.23194 0.953375 0
M  V30 3456 H 333.379 -5.51976 -0.0519883 0
M  V30 3457 H 335.855 -3.98075 -1.21143 0
M  V30 3458 H 334.731 -5.1047 -2.01771 0
M  V30 3459 H 334.992 -3.50494 -2.69456 0
M  V30 3460 N 334.051 0.0651679 -1.57465 0
M  V30 3461 C 335.297 0.764193 -1.87851 0
M  V30 3462 C 335.63 1.76889 -0.801495 0
M  V30 3463 O 334.905 1.93594 0.187528 0
M  V30 3464 C 335.188 1.46625 -3.28897 0
M  V30 3465 C 335.041 0.477515 -4.47258 0
M  V30 3466 C 336.36 2.4095 -3.68281 0
M  V30 3467 H 333.479 0.276351 -0.683227 0
M  V30 3468 H 336.121 0.0272868 -1.8998 0
M  V30 3469 H 334.271 2.09438 -3.27212 0
M  V30 3470 H 335.943 -0.145922 -4.61069 0
M  V30 3471 H 334.186 -0.206576 -4.33308 0
M  V30 3472 H 334.857 1.0065 -5.42746 0
M  V30 3473 H 337.333 1.88209 -3.71102 0
M  V30 3474 H 336.209 2.87072 -4.67847 0
M  V30 3475 H 336.47 3.26049 -2.98571 0
M  V30 3476 N 335.529 1.53961 0.336706 0
M  V30 3477 C 336.476 1.82428 1.41381 0
M  V30 3478 C 337.446 0.670444 1.51968 0
M  V30 3479 O 338.631 0.915565 1.67398 0
M  V30 3480 C 335.771 2.04564 2.77934 0
M  V30 3481 C 334.884 3.32267 2.76084 0
M  V30 3482 C 334.019 3.44434 4.04399 0
M  V30 3483 C 333.058 4.66061 3.96804 0
M  V30 3484 N 332.195 4.75224 5.16823 0
M  V30 3485 H 337.035 2.74324 1.16405 0
M  V30 3486 H 334.572 1.35869 0.563752 0
M  V30 3487 H 336.53 2.15388 3.57301 0
M  V30 3488 H 335.16 1.15974 3.01247 0
M  V30 3489 H 334.212 3.3025 1.88784 0
M  V30 3490 H 335.524 4.21733 2.66351 0
M  V30 3491 H 334.678 3.54728 4.92192 0
M  V30 3492 H 333.417 2.53037 4.16921 0
M  V30 3493 H 332.422 4.55838 3.07396 0
M  V30 3494 H 333.647 5.58829 3.85858 0
M  V30 3495 H 331.593 3.86739 5.29876 0
M  V30 3496 H 331.51 5.58636 5.09374 0
M  V30 3497 H 332.778 4.89835 6.06367 0
M  V30 3498 N 337.007 -0.598083 1.45811 0
M  V30 3499 C 338.418 -1.18011 1.44673 0
M  V30 3500 C 338.769 -1.95378 0.179364 0
M  V30 3501 O 337.894 -2.04124 -0.718509 0
M  V30 3502 C 338.489 -2.14677 2.62105 0
M  V30 3503 C 337.048 -2.68236 2.64057 0
M  V30 3504 C 336.195 -1.43816 2.37091 0
M  V30 3505 H 339.146 -0.38686 1.53913 0
M  V30 3506 H 339.167 -2.97878 2.36746 0
M  V30 3507 H 338.679 -1.5834 3.5433 0
M  V30 3508 H 336.78 -3.28486 1.75864 0
M  V30 3509 H 336.893 -3.12021 3.63566 0
M  V30 3510 H 335.257 -1.731 1.86838 0
M  V30 3511 H 336.04 -0.893333 3.31473 0
M  V30 3512 N 338.485 -1.33259 -0.841409 0
M  V30 3513 C 339.448 -1.23221 -1.9326 0
M  V30 3514 C 340.448 -0.151895 -1.60081 0
M  V30 3515 O 341.638 -0.403246 -1.69468 0
M  V30 3516 C 338.77 -0.898123 -3.28856 0
M  V30 3517 H 339.963 -2.2021 -2.03587 0
M  V30 3518 H 337.516 -1.17281 -1.03319 0
M  V30 3519 H 338.251 0.0693841 -3.24226 0
M  V30 3520 H 338.036 -1.67934 -3.54317 0
M  V30 3521 H 339.526 -0.852563 -4.08805 0
M  V30 3522 N 339.963 1.05934 -1.16686 0
M  V30 3523 C 340.873 2.17014 -0.891183 0
M  V30 3524 C 341.889 1.73453 0.137907 0
M  V30 3525 O 343.065 2.01361 -0.039592 0
M  V30 3526 C 340.13 3.44384 -0.400099 0
M  V30 3527 C 339.191 4.02433 -1.49486 0
M  V30 3528 C 338.424 5.23723 -1.02711 0
M  V30 3529 O 338.647 5.7027 0.121716 0
M  V30 3530 O 337.581 5.7382 -1.81699 0
M  V30 3531 H 341.407 2.43113 -1.82015 0
M  V30 3532 H 338.992 1.15541 -0.947132 0
M  V30 3533 H 340.874 4.21189 -0.133392 0
M  V30 3534 H 339.549 3.19802 0.500817 0
M  V30 3535 H 338.456 3.27102 -1.81535 0
M  V30 3536 H 339.789 4.31317 -2.37121 0
M  V30 3537 N 341.441 0.965919 1.2453 0
M  V30 3538 C 342.718 0.543777 1.87889 0
M  V30 3539 C 343.098 -0.97909 1.87021 0
M  V30 3540 O 342.446 -1.84969 1.3416 0
M  V30 3541 C 342.656 1.13327 3.30088 0
M  V30 3542 C 344.004 1.21707 4.06783 0
M  V30 3543 O 345.028 1.08566 3.39252 0
M  V30 3544 O 343.887 1.42456 5.27606 0
M  V30 3545 H 340.981 0.181054 0.806938 0
M  V30 3546 H 343.527 1.06007 1.32516 0
M  V30 3547 H 342.299 2.17612 3.25209 0
M  V30 3548 H 341.922 0.600911 3.93033 0
M  V30 3549 N 342.919 -1.39368 0.735821 0
M  V30 3550 C 344.147 -2.04795 0.294393 0
M  V30 3551 C 344.562 -1.55478 -1.07107 0
M  V30 3552 O 343.919 -0.720038 -1.67695 0
M  V30 3553 C 343.97 -3.6035 0.288071 0
M  V30 3554 O 343.691 -4.07852 1.59963 0
M  V30 3555 C 345.192 -4.42976 -0.169422 0
M  V30 3556 H 342.412 -0.658571 0.128551 0
M  V30 3557 H 344.956 -1.78399 0.999701 0
M  V30 3558 H 343.111 -3.85645 -0.368355 0
M  V30 3559 H 343.525 -5.02181 1.51375 0
M  V30 3560 H 344.999 -5.51864 -0.122687 0
M  V30 3561 H 345.476 -4.22068 -1.21472 0
M  V30 3562 H 346.082 -4.22832 0.457469 0
M  V30 3563 N 344.397 -0.483516 -1.5 0
M  V30 3564 C 345.808 -0.0314176 -1.86674 0
M  V30 3565 C 346.159 1.37728 -1.39733 0
M  V30 3566 O 345.284 2.02327 -0.767635 0
M  V30 3567 C 345.879 -0.0502376 -3.38763 0
M  V30 3568 C 344.438 0.346442 -3.74802 0
M  V30 3569 C 343.585 -0.430366 -2.7394 0
M  V30 3570 H 346.536 -0.697182 -1.42566 0
M  V30 3571 H 346.557 0.749116 -3.73053 0
M  V30 3572 H 346.069 -1.07563 -3.72897 0
M  V30 3573 H 344.17 1.37572 -3.46273 0
M  V30 3574 H 344.283 0.0391486 -4.79084 0
M  V30 3575 H 342.647 0.117557 -2.54429 0
M  V30 3576 H 343.43 -1.4555 -3.10918 0
M  V30 3577 N 345.875 1.56104 -0.216619 0
M  V30 3578 C 347.122 1.98172 0.416416 0
M  V30 3579 C 347.45 1.10413 1.60122 0
M  V30 3580 O 346.705 0.147967 1.9514 0
M  V30 3581 C 347.004 3.45923 0.898464 0
M  V30 3582 C 346.67 4.50559 -0.175288 0
M  V30 3583 C 345.332 4.78897 -0.470271 0
M  V30 3584 C 347.684 5.1334 -0.901728 0
M  V30 3585 C 345.012 5.67299 -1.4963 0
M  V30 3586 C 347.364 6.02853 -1.91705 0
M  V30 3587 C 346.028 6.29537 -2.21901 0
M  V30 3588 H 345.298 0.725164 0.152377 0
M  V30 3589 H 347.945 1.88839 -0.318103 0
M  V30 3590 H 346.25 3.52434 1.71165 0
M  V30 3591 H 347.947 3.75841 1.39803 0
M  V30 3592 H 344.537 4.28551 0.0647806 0
M  V30 3593 H 348.721 4.91521 -0.687072 0
M  V30 3594 H 343.977 5.86239 -1.73592 0
M  V30 3595 H 348.151 6.50552 -2.48505 0
M  V30 3596 H 345.778 6.97835 -3.01548 0
M  V30 3597 N 347.353 -0.0568162 1.57498 0
M  V30 3598 C 348.578 -0.769402 1.92601 0
M  V30 3599 C 349.003 -1.69559 0.814336 0
M  V30 3600 O 348.361 -1.79811 -0.231903 0
M  V30 3601 C 348.409 -1.52634 3.26704 0
M  V30 3602 O 347.513 -2.63797 3.16994 0
M  V30 3603 H 346.854 -0.208909 0.63028 0
M  V30 3604 H 349.384 -0.0205798 2.0459 0
M  V30 3605 H 349.394 -1.90234 3.60936 0
M  V30 3606 H 348.069 -0.846875 4.07186 0
M  V30 3607 H 346.646 -2.28943 2.94346 0
M  V30 3608 N 348.832 -1.54138 -0.328536 0
M  V30 3609 C 349.795 -1.82462 -1.38709 0
M  V30 3610 C 350.795 -0.696229 -1.44946 0
M  V30 3611 O 351.985 -0.964535 -1.4506 0
M  V30 3612 C 349.117 -1.98018 -2.77492 0
M  V30 3613 H 350.31 -2.77037 -1.14851 0
M  V30 3614 H 347.863 -1.45779 -0.563751 0
M  V30 3615 H 348.598 -1.05637 -3.06613 0
M  V30 3616 H 348.383 -2.80124 -2.74359 0
M  V30 3617 H 349.873 -2.21396 -3.54081 0
M  V30 3618 N 350.31 0.590341 -1.46126 0
M  V30 3619 C 351.24 1.71032 -1.58966 0
M  V30 3620 C 352.221 1.64302 -0.440335 0
M  V30 3621 O 353.406 1.82436 -0.665634 0
M  V30 3622 C 350.536 3.09665 -1.57241 0
M  V30 3623 C 349.49 3.31221 -2.71066 0
M  V30 3624 C 348.816 4.70303 -2.54399 0
M  V30 3625 C 350.116 3.19796 -4.1295 0
M  V30 3626 H 351.81 1.60543 -2.52718 0
M  V30 3627 H 349.356 0.770933 -1.21625 0
M  V30 3628 H 351.309 3.87831 -1.64819 0
M  V30 3629 H 350.033 3.21036 -0.600289 0
M  V30 3630 H 348.692 2.55452 -2.62944 0
M  V30 3631 H 348.34 4.78429 -1.55288 0
M  V30 3632 H 348.04 4.85679 -3.30741 0
M  V30 3633 H 349.564 5.50647 -2.63857 0
M  V30 3634 H 350.978 3.87815 -4.22223 0
M  V30 3635 H 349.375 3.46696 -4.89818 0
M  V30 3636 H 350.445 2.16983 -4.33643 0
M  V30 3637 N 351.788 1.33704 0.83433 0
M  V30 3638 C 352.751 1.24244 1.92603 0
M  V30 3639 C 353.751 0.160383 1.59998 0
M  V30 3640 O 354.941 0.412228 1.69252 0
M  V30 3641 C 352.073 0.91555 3.28376 0
M  V30 3642 H 353.266 2.21287 2.02416 0
M  V30 3643 H 350.819 1.17827 1.02696 0
M  V30 3644 H 351.554 -0.0521886 3.24258 0
M  V30 3645 H 351.339 1.69811 3.53422 0
M  V30 3646 H 352.829 0.874231 4.08347 0
M  V30 3647 N 353.266 -1.05314 1.17247 0
M  V30 3648 C 354.196 -2.1498 0.911362 0
M  V30 3649 C 355.177 -1.69471 -0.146169 0
M  V30 3650 O 356.362 -1.942 0.003812 0
M  V30 3651 C 353.492 -3.4472 0.422528 0
M  V30 3652 C 352.446 -4.03789 1.4191 0
M  V30 3653 C 351.772 -5.28858 0.788274 0
M  V30 3654 C 353.072 -4.41418 2.7919 0
M  V30 3655 H 354.766 -2.3708 1.82848 0
M  V30 3656 H 352.312 -1.13938 0.880569 0
M  V30 3657 H 354.265 -4.20787 0.227289 0
M  V30 3658 H 352.989 -3.22269 -0.530123 0
M  V30 3659 H 351.648 -3.2979 1.60106 0
M  V30 3660 H 351.296 -5.02709 -0.171173 0
M  V30 3661 H 350.996 -5.69338 1.45353 0
M  V30 3662 H 352.52 -6.07612 0.603282 0
M  V30 3663 H 353.934 -5.08524 2.64719 0
M  V30 3664 H 352.331 -4.92913 3.42282 0
M  V30 3665 H 353.401 -3.51819 3.33693 0
M  V30 3666 N 354.744 -0.972509 -1.24016 0
M  V30 3667 C 355.707 -0.511403 -2.23422 0
M  V30 3668 C 356.707 0.394679 -1.55881 0
M  V30 3669 O 357.897 0.189469 -1.73167 0
M  V30 3670 C 355.029 0.258769 -3.39916 0
M  V30 3671 H 356.222 -1.39024 -2.6573 0
M  V30 3672 H 353.775 -0.757585 -1.36713 0
M  V30 3673 H 354.51 1.1545 -3.03054 0
M  V30 3674 H 354.295 -0.391522 -3.9014 0
M  V30 3675 H 355.785 0.570244 -4.13688 0
M  V30 3676 N 356.222 1.38976 -0.743202 0
M  V30 3677 C 357.132 2.3434 -0.110399 0
M  V30 3678 C 358.148 1.58741 0.712559 0
M  V30 3679 O 359.324 1.9099 0.639125 0
M  V30 3680 C 356.389 3.37812 0.780012 0
M  V30 3681 C 355.45 4.29263 -0.0561319 0
M  V30 3682 C 354.683 5.27793 0.791875 0
M  V30 3683 O 354.906 5.33043 2.03031 0
M  V30 3684 O 353.84 6.01512 0.216183 0
M  V30 3685 H 357.666 2.90129 -0.897714 0
M  V30 3686 H 355.251 1.40643 -0.503966 0
M  V30 3687 H 357.133 4.01194 1.28923 0
M  V30 3688 H 355.808 2.84395 1.546 0
M  V30 3689 H 354.715 3.69076 -0.611056 0
M  V30 3690 H 356.048 4.85907 -0.784531 0
M  V30 3691 N 357.7 0.491464 1.49741 0
M  V30 3692 C 358.63 -0.28154 2.31796 0
M  V30 3693 C 359.611 -0.971473 1.3963 0
M  V30 3694 O 360.796 -0.964719 1.68543 0
M  V30 3695 C 357.926 -1.35203 3.19902 0
M  V30 3696 C 356.88 -0.782529 4.20786 0
M  V30 3697 C 356.206 -1.95283 4.97764 0
M  V30 3698 C 357.506 0.21999 5.21837 0
M  V30 3699 H 359.2 0.403355 2.96671 0
M  V30 3700 H 356.746 0.195425 1.42668 0
M  V30 3701 H 358.699 -1.90045 3.76113 0
M  V30 3702 H 357.423 -2.06598 2.52953 0
M  V30 3703 H 356.082 -0.255928 3.65706 0
M  V30 3704 H 355.73 -2.65423 4.2727 0
M  V30 3705 H 355.43 -1.57789 5.66018 0
M  V30 3706 H 356.954 -2.50577 5.56816 0
M  V30 3707 H 358.368 -0.23996 5.72798 0
M  V30 3708 H 356.765 0.51026 5.97927 0
M  V30 3709 H 357.835 1.13911 4.7133 0
M  V30 3710 N 359.178 -1.55987 0.224894 0
M  V30 3711 C 360.141 -2.19178 -0.670348 0
M  V30 3712 C 361.141 -1.15461 -1.11917 0
M  V30 3713 O 362.331 -1.40675 -1.02743 0
M  V30 3714 C 359.463 -2.81777 -1.9187 0
M  V30 3715 H 360.656 -2.99662 -0.119364 0
M  V30 3716 H 358.209 -1.5628 -0.0247128 0
M  V30 3717 H 358.944 -2.05172 -2.51147 0
M  V30 3718 H 358.729 -3.57732 -1.60531 0
M  V30 3719 H 360.219 -3.30205 -2.55645 0
M  V30 3720 N 360.656 0.0484629 -1.57525 0
M  V30 3721 C 361.881 0.759177 -1.93006 0
M  V30 3722 C 362.306 1.69125 -0.823317 0
M  V30 3723 O 361.664 1.79931 0.222364 0
M  V30 3724 C 361.712 1.50899 -3.27509 0
M  V30 3725 O 360.816 2.62112 -3.18388 0
M  V30 3726 H 360.157 0.205564 -0.631379 0
M  V30 3727 H 362.687 0.00972959 -2.04598 0
M  V30 3728 H 362.697 1.88317 -3.6194 0
M  V30 3729 H 361.372 0.825269 -4.0763 0
M  V30 3730 H 359.949 2.27379 -2.95556 0
M  V30 3731 N 362.134 1.5431 0.320358 0
M  V30 3732 C 363.066 1.80262 1.41556 0
M  V30 3733 C 364.079 0.684723 1.477 0
M  V30 3734 O 365.268 0.961886 1.50366 0
M  V30 3735 C 362.368 1.90825 2.8007 0
M  V30 3736 C 361.541 3.21023 2.97091 0
M  V30 3737 C 360.6 3.22247 4.15985 0
M  V30 3738 O 359.626 3.95871 4.08992 0
M  V30 3739 N 360.828 2.46258 5.25678 0
M  V30 3740 H 363.593 2.74778 1.19655 0
M  V30 3741 H 361.154 1.53646 0.510358 0
M  V30 3742 H 363.146 1.89067 3.57821 0
M  V30 3743 H 361.716 1.03392 2.95006 0
M  V30 3744 H 360.936 3.35715 2.06614 0
M  V30 3745 H 362.224 4.0698 3.05361 0
M  V30 3746 H 361.622 1.86037 5.34235 0
M  V30 3747 H 360.179 2.50275 6.01835 0
M  V30 3748 N 363.613 -0.582584 1.46437 0
M  V30 3749 C 364.576 -1.67366 1.56592 0
M  V30 3750 C 365.576 -1.54575 0.443072 0
M  V30 3751 O 366.766 -1.59191 0.707381 0
M  V30 3752 C 363.898 -3.06791 1.48634 0
M  V30 3753 H 365.091 -1.5972 2.5383 0
M  V30 3754 H 362.644 -0.800432 1.34249 0
M  V30 3755 H 363.379 -3.19993 0.526763 0
M  V30 3756 H 363.164 -3.17484 2.30101 0
M  V30 3757 H 364.654 -3.86218 1.58826 0
M  V30 3758 N 365.091 -1.34144 -0.827227 0
M  V30 3759 C 366.339 -1.26009 -1.58007 0
M  V30 3760 C 366.66 0.170971 -1.94249 0
M  V30 3761 O 365.93 1.10256 -1.61927 0
M  V30 3762 H 364.51 -0.463414 -0.585881 0
M  V30 3763 H 367.172 -1.68005 -0.987951 0
M  V30 3764 H 366.268 -1.86187 -2.50481 0
M  V30 3765 N 366.569 1.04691 -1.17803 0
M  V30 3766 C 367.818 1.77176 -0.963931 0
M  V30 3767 C 368.131 1.88888 0.508015 0
M  V30 3768 O 369.337 2.58164 0.840465 0
M  V30 3769 C 367.793 3.18518 -1.67555 0
M  V30 3770 C 367.401 3.14919 -3.18637 0
M  V30 3771 C 369.145 3.95424 -1.54402 0
M  V30 3772 C 367.052 4.51081 -3.82466 0
M  V30 3773 H 365.982 0.664116 -0.357023 0
M  V30 3774 H 368.633 1.17303 -1.4111 0
M  V30 3775 H 367.015 3.78748 -1.15613 0
M  V30 3776 H 368.189 2.64178 -3.77554 0
M  V30 3777 H 366.504 2.51512 -3.31859 0
M  V30 3778 H 369.101 4.96106 -1.99456 0
M  V30 3779 H 369.444 4.13343 -0.495329 0
M  V30 3780 H 369.977 3.41754 -2.0359 0
M  V30 3781 H 366.716 4.38368 -4.87354 0
M  V30 3782 H 366.236 5.01951 -3.28337 0
M  V30 3783 H 367.915 5.2001 -3.84965 0
M  V30 3784 N 368.047 0.979072 1.23499 0
M  V30 3785 C 369.458 0.684391 1.73704 0
M  V30 3786 C 369.809 -0.799448 1.79174 0
M  V30 3787 O 368.934 -1.62531 1.42873 0
M  V30 3788 C 369.529 1.23564 3.15464 0
M  V30 3789 C 368.088 0.99063 3.6313 0
M  V30 3790 C 367.235 1.36416 2.41425 0
M  V30 3791 H 370.186 1.15307 1.09041 0
M  V30 3792 H 370.207 0.607417 3.7562 0
M  V30 3793 H 369.719 2.31561 3.1145 0
M  V30 3794 H 367.82 -0.0733136 3.72528 0
M  V30 3795 H 367.933 1.64427 4.5 0
M  V30 3796 H 366.297 0.782616 2.42378 0
M  V30 3797 H 367.08 2.45387 2.40083 0
M  V30 3798 N 369.525 -1.3858 0.750561 0
M  V30 3799 C 370.75 -2.04997 0.314812 0
M  V30 3800 C 371.175 -1.56235 -1.04749 0
M  V30 3801 O 370.533 -0.712981 -1.66692 0
M  V30 3802 C 370.581 -3.58961 0.343415 0
M  V30 3803 O 369.685 -4.07025 -0.663628 0
M  V30 3804 H 369.026 -0.649081 0.139962 0
M  V30 3805 H 371.556 -1.77313 1.02084 0
M  V30 3806 H 371.566 -4.07542 0.193233 0
M  V30 3807 H 370.241 -3.93811 1.33738 0
M  V30 3808 H 368.818 -3.6982 -0.478307 0
M  V30 3809 N 371.003 -0.499398 -1.49478 0
M  V30 3810 C 372.251 0.0455996 -2.02049 0
M  V30 3811 C 372.572 1.37633 -1.38138 0
M  V30 3812 O 371.842 1.8842 -0.536166 0
M  V30 3813 H 370.422 0.0198416 -0.746736 0
M  V30 3814 H 373.084 -0.656274 -1.83519 0
M  V30 3815 H 372.18 0.176445 -3.11601 0
M  V30 3816 N 372.481 1.55866 -0.233164 0
M  V30 3817 C 373.727 1.98897 0.395959 0
M  V30 3818 C 374.06 1.12091 1.58585 0
M  V30 3819 O 373.335 0.181182 1.93654 0
M  V30 3820 C 373.618 3.50658 0.819224 0
M  V30 3821 C 373.471 4.48233 -0.375109 0
M  V30 3822 C 374.79 4.07135 1.67121 0
M  V30 3823 H 371.909 0.723102 0.142451 0
M  V30 3824 H 374.551 1.87082 -0.331725 0
M  V30 3825 H 372.701 3.60857 1.43925 0
M  V30 3826 H 374.373 4.50031 -1.01341 0
M  V30 3827 H 372.616 4.21624 -1.02058 0
M  V30 3828 H 373.287 5.51988 -0.0358328 0
M  V30 3829 H 375.763 3.99952 1.14795 0
M  V30 3830 H 374.639 5.13615 1.93625 0
M  V30 3831 H 374.9 3.54736 2.63846 0
M  V30 3832 N 373.959 -0.0401083 1.57549 0
M  V30 3833 C 375.189 -0.744115 1.92734 0
M  V30 3834 C 375.597 -1.70005 0.830348 0
M  V30 3835 O 374.94 -1.82576 -0.20286 0
M  V30 3836 C 375.002 -1.56516 3.2364 0
M  V30 3837 C 374.666 -0.7752 4.50377 0
M  V30 3838 C 375.663 -0.0803326 5.19838 0
M  V30 3839 C 373.348 -0.733002 4.96923 0
M  V30 3840 C 375.342 0.646154 6.34116 0
M  V30 3841 C 373.029 -0.00276321 6.111 0
M  V30 3842 C 374.027 0.685585 6.7955 0
M  V30 3843 O 373.715 1.40399 7.91545 0
M  V30 3844 H 373.447 -0.214861 0.640945 0
M  V30 3845 H 376.001 -0.00503675 2.05399 0
M  V30 3846 H 374.231 -2.3478 3.07271 0
M  V30 3847 H 375.92 -2.15076 3.44234 0
M  V30 3848 H 376.686 -0.104035 4.84888 0
M  V30 3849 H 372.565 -1.25827 4.43496 0
M  V30 3850 H 376.109 1.18398 6.87479 0
M  V30 3851 H 372.006 0.0229012 6.45496 0
M  V30 3852 H 372.774 1.31653 8.07843 0
M  V30 3853 N 375.437 -1.54477 -0.31217 0
M  V30 3854 C 376.385 -1.85395 -1.40469 0
M  V30 3855 C 377.379 -0.726749 -1.53019 0
M  V30 3856 O 378.585 -0.910582 -1.55269 0
M  V30 3857 H 374.96 -0.587845 -0.46898 0
M  V30 3858 H 376.931 -2.76736 -1.11623 0
M  V30 3859 C 375.68 -2.10811 -2.76503 0
M  V30 3860 H 375.003 -2.97014 -2.67625 0
M  V30 3861 H 376.443 -2.3639 -3.51988 0
M  V30 3862 C 374.902 -0.903165 -3.24568 0
M  V30 3863 O 375.432 -0.118085 -4.01526 0
M  V30 3864 N 373.638 -0.711634 -2.81752 0
M  V30 3865 H 373.185 -1.35171 -2.19286 0
M  V30 3866 H 373.143 0.0930473 -3.14262 0
M  V30 3867 N 376.915 0.57481 -1.46744 0
M  V30 3868 C 378.161 1.3347 -1.52688 0
M  V30 3869 C 378.494 1.93353 -0.181229 0
M  V30 3870 O 377.769 1.76912 0.808237 0
M  V30 3871 C 378.052 2.45811 -2.63152 0
M  V30 3872 C 377.905 1.90912 -4.07275 0
M  V30 3873 C 379.224 3.47822 -2.69644 0
M  V30 3874 H 376.343 0.483935 -0.555856 0
M  V30 3875 H 378.985 0.644968 -1.78718 0
M  V30 3876 H 377.135 3.04646 -2.41088 0
M  V30 3877 H 378.807 1.36473 -4.4065 0
M  V30 3878 H 377.05 1.21691 -4.16382 0
M  V30 3879 H 377.721 2.72042 -4.80309 0
M  V30 3880 H 380.197 2.9888 -2.895 0
M  V30 3881 H 379.073 4.23876 -3.48742 0
M  V30 3882 H 379.334 4.05555 -1.76005 0
M  V30 3883 N 378.394 1.34581 0.820102 0
M  V30 3884 C 379.643 1.26437 1.57151 0
M  V30 3885 C 379.956 -0.163111 1.94919 0
M  V30 3886 O 381.162 -0.366722 2.69012 0
M  V30 3887 C 379.618 2.21658 2.83541 0
M  V30 3888 C 379.226 3.69679 2.53065 0
M  V30 3889 C 380.97 2.22428 3.61561 0
M  V30 3890 C 378.877 4.56761 3.75664 0
M  V30 3891 H 377.807 0.469707 0.589823 0
M  V30 3892 H 380.458 1.59763 0.902656 0
M  V30 3893 H 378.84 1.81287 3.52067 0
M  V30 3894 H 380.014 4.18605 1.92631 0
M  V30 3895 H 378.329 3.71384 1.88316 0
M  V30 3896 H 380.926 2.8471 4.52597 0
M  V30 3897 H 381.269 1.22434 3.97889 0
M  V30 3898 H 381.802 2.61259 2.99981 0
M  V30 3899 H 378.541 5.57702 3.44454 0
M  V30 3900 H 378.061 4.12568 4.35371 0
M  V30 3901 H 379.74 4.71509 4.43044 0
M  V30 3902 N 379.872 -1.04064 1.18357 0
M  V30 3903 C 381.283 -1.58719 0.98312 0
M  V30 3904 C 381.634 -1.90556 -0.467193 0
M  V30 3905 O 380.759 -1.69561 -1.34454 0
M  V30 3906 C 381.354 -2.88379 1.77828 0
M  V30 3907 C 379.913 -3.3965 1.62218 0
M  V30 3908 C 379.06 -2.13235 1.77274 0
M  V30 3909 H 382.011 -0.867359 1.32901 0
M  V30 3910 H 382.032 -3.58773 1.26737 0
M  V30 3911 H 381.544 -2.65176 2.83379 0
M  V30 3912 H 379.645 -3.67866 0.592036 0
M  V30 3913 H 379.758 -4.13475 2.42023 0
M  V30 3914 H 378.122 -2.24542 1.20221 0
M  V30 3915 H 378.905 -1.92487 2.8426 0
M  V30 3916 N 381.35 -0.985608 -1.22978 0
M  V30 3917 C 382.59 -0.665487 -1.93263 0
M  V30 3918 C 382.954 0.78706 -1.75127 0
M  V30 3919 O 384.155 1.21826 -2.39608 0
M  V30 3920 C 382.426 -1.0515 -3.41582 0
M  V30 3921 S 383.985 -0.848637 -4.30516 0
M  V30 3922 H 380.803 -0.24355 -0.667985 0
M  V30 3923 H 383.405 -1.26635 -1.48942 0
M  V30 3924 H 382.109 -2.10517 -3.52293 0
M  V30 3925 H 381.64 -0.442134 -3.90908 0
M  V30 3926 H 383.655 0.264717 -4.95493 0
M  V30 3927 N 382.828 1.3818 -0.7579 0
M  V30 3928 C 384.053 2.04827 -0.325679 0
M  V30 3929 C 384.478 1.56788 1.03919 0
M  V30 3930 O 383.836 0.721811 1.66312 0
M  V30 3931 C 383.884 3.58774 -0.362447 0
M  V30 3932 O 382.988 4.07372 0.642033 0
M  V30 3933 H 382.329 0.64833 -0.143402 0
M  V30 3934 H 384.859 1.7677 -1.03023 0
M  V30 3935 H 384.869 4.07434 -0.214844 0
M  V30 3936 H 383.544 3.93096 -1.35824 0
M  V30 3937 H 382.121 3.70068 0.458688 0
M  V30 3938 N 384.306 0.507319 1.49211 0
M  V30 3939 C 385.722 0.163682 1.58758 0
M  V30 3940 C 385.922 -1.33208 1.51188 0
M  V30 3941 O 384.978 -2.10855 1.38911 0
M  V30 3942 C 386.291 0.746095 2.91297 0
M  V30 3943 C 387.839 0.712773 3.04776 0
M  V30 3944 C 388.314 1.27336 4.39943 0
M  V30 3945 N 389.805 1.23433 4.46451 0
M  V30 3946 C 390.54 1.63821 5.495 0
M  V30 3947 N 390.036 2.11832 6.5962 0
M  V30 3948 N 391.829 1.55198 5.4025 0
M  V30 3949 H 383.98 1.47972 1.52375 0
M  V30 3950 H 386.243 0.614147 0.722168 0
M  V30 3951 H 385.949 1.79534 3.02424 0
M  V30 3952 H 385.823 0.210137 3.76614 0
M  V30 3953 H 388.21 -0.327656 2.93275 0
M  V30 3954 H 388.291 1.28595 2.21127 0
M  V30 3955 H 387.935 2.3126 4.52196 0
M  V30 3956 H 387.865 0.676066 5.22242 0
M  V30 3957 H 390.356 0.882627 3.67448 0
M  V30 3958 H 390.669 2.40703 7.34358 0
M  V30 3959 H 389.014 2.1581 6.60644 0
M  V30 3960 H 392.205 1.17505 4.53112 0
M  V30 3961 H 392.378 1.86997 6.20432 0
M  V30 3962 N 385.784 -1.5574 0.241426 0
M  V30 3963 C 386.731 -2.21149 -0.660432 0
M  V30 3964 C 387.701 -1.17356 -1.17545 0
M  V30 3965 O 388.886 -1.45784 -1.23093 0
M  V30 3966 C 386.026 -2.91059 -1.85414 0
M  V30 3967 C 385.139 -4.09495 -1.37616 0
M  V30 3968 C 384.274 -4.67135 -2.529 0
M  V30 3969 C 383.313 -5.77831 -2.01936 0
M  V30 3970 N 382.45 -6.29677 -3.10566 0
M  V30 3971 H 387.29 -2.97845 -0.095955 0
M  V30 3972 H 384.827 -1.47057 -0.0356024 0
M  V30 3973 H 386.785 -3.29788 -2.5553 0
M  V30 3974 H 385.415 -2.16846 -2.39118 0
M  V30 3975 H 384.467 -3.76117 -0.569235 0
M  V30 3976 H 385.779 -4.89423 -0.962618 0
M  V30 3977 H 384.933 -5.08409 -3.31067 0
M  V30 3978 H 383.672 -3.86411 -2.97553 0
M  V30 3979 H 382.677 -5.36039 -1.22238 0
M  V30 3980 H 383.902 -6.60402 -1.58259 0
M  V30 3981 H 381.848 -5.5186 -3.54664 0
M  V30 3982 H 381.765 -7.04783 -2.73526 0
M  V30 3983 H 383.033 -6.75609 -3.88809 0
M  V30 3984 N 387.262 0.0317525 -1.57568 0
M  V30 3985 C 388.21 1.05165 -2.07468 0
M  V30 3986 C 389.204 1.3761 -0.98792 0
M  V30 3987 O 390.41 1.36546 -1.17282 0
M  V30 3988 H 386.785 0.35666 -0.66204 0
M  V30 3989 H 388.756 0.604958 -2.92203 0
M  V30 3990 C 387.505 2.34488 -2.56731 0
M  V30 3991 H 386.828 2.10383 -3.39969 0
M  V30 3992 H 388.268 3.04203 -2.95358 0
M  V30 3993 C 386.727 3.03266 -1.46736 0
M  V30 3994 O 387.257 3.92988 -0.832069 0
M  V30 3995 N 385.463 2.6455 -1.20256 0
M  V30 3996 H 385.01 1.91674 -1.72102 0
M  V30 3997 H 384.968 3.10886 -0.468737 0
M  V30 3998 N 388.74 1.54641 0.303973 0
M  V30 3999 C 389.703 1.84646 1.35789 0
M  V30 4000 C 390.703 0.7192 1.4382 0
M  V30 4001 O 391.893 0.987491 1.43507 0
M  V30 4002 C 389.025 2.02407 2.74307 0
M  V30 4003 H 390.218 2.78829 1.10429 0
M  V30 4004 H 387.771 1.46658 0.540487 0
M  V30 4005 H 388.506 1.10502 3.04893 0
M  V30 4006 H 388.291 2.84453 2.69868 0
M  V30 4007 H 389.781 2.27002 3.50514 0
M  V30 4008 N 390.218 -0.567019 1.47046 0
M  V30 4009 C 391.165 -1.67489 1.58796 0
M  V30 4010 C 392.135 -1.60399 0.43144 0
M  V30 4011 O 393.32 -1.79378 0.650233 0
M  V30 4012 C 390.46 -3.05821 1.59899 0
M  V30 4013 C 389.573 -3.2342 2.86397 0
M  V30 4014 C 388.708 -4.52093 2.789 0
M  V30 4015 C 387.747 -4.6309 4.00267 0
M  V30 4016 N 386.884 -5.83106 3.91064 0
M  V30 4017 H 391.724 -1.56785 2.53422 0
M  V30 4018 H 389.261 -0.763896 1.2571 0
M  V30 4019 H 391.219 -3.8591 1.58522 0
M  V30 4020 H 389.849 -3.15384 0.687929 0
M  V30 4021 H 388.901 -2.3683 2.97684 0
M  V30 4022 H 390.213 -3.27412 3.76301 0
M  V30 4023 H 389.367 -5.4043 2.75718 0
M  V30 4024 H 388.106 -4.50565 1.86662 0
M  V30 4025 H 387.111 -3.73168 4.03765 0
M  V30 4026 H 388.336 -4.66386 4.93621 0
M  V30 4027 H 386.282 -5.82546 3.01623 0
M  V30 4028 H 386.199 -5.88434 4.74638 0
M  V30 4029 H 387.467 -6.73831 3.91882 0
M  V30 4030 N 391.696 -1.35014 -0.812953 0
M  V30 4031 C 392.606 -1.2951 -1.95613 0
M  V30 4032 C 393.622 -0.20107 -1.72834 0
M  V30 4033 O 394.798 -0.42932 -1.96771 0
M  V30 4034 C 391.863 -1.06033 -3.30088 0
M  V30 4035 C 390.924 -2.24688 -3.65805 0
M  V30 4036 C 390.157 -2.02322 -4.93864 0
M  V30 4037 O 390.38 -0.986464 -5.61805 0
M  V30 4038 O 389.314 -2.89525 -5.27692 0
M  V30 4039 H 393.14 -2.25705 -2.03202 0
M  V30 4040 H 390.725 -1.15321 -0.949811 0
M  V30 4041 H 392.607 -0.94763 -4.10607 0
M  V30 4042 H 391.282 -0.128852 -3.23443 0
M  V30 4043 H 390.189 -2.41521 -2.85689 0
M  V30 4044 H 391.522 -3.16261 -3.77147 0
M  V30 4045 N 393.175 1.03435 -1.18907 0
M  V30 4046 C 394.421 1.77005 -0.989798 0
M  V30 4047 C 394.754 1.88205 0.478816 0
M  V30 4048 O 394.029 1.39481 1.35556 0
M  V30 4049 C 394.312 3.19925 -1.65287 0
M  V30 4050 C 394.165 3.1663 -3.19477 0
M  V30 4051 C 395.484 4.18189 -1.37134 0
M  V30 4052 H 392.603 0.642538 -0.360991 0
M  V30 4053 H 395.245 1.20784 -1.46667 0
M  V30 4054 H 393.395 3.67929 -1.24741 0
M  V30 4055 H 395.067 2.76567 -3.692 0
M  V30 4056 H 393.31 2.54491 -3.51307 0
M  V30 4057 H 393.981 4.1758 -3.61013 0
M  V30 4058 H 396.457 3.78761 -1.72276 0
M  V30 4059 H 395.333 5.16394 -1.86087 0
M  V30 4060 H 395.594 4.41112 -0.295424 0
M  V30 4061 N 394.653 0.992116 1.22453 0
M  V30 4062 C 395.901 0.666215 1.90804 0
M  V30 4063 C 396.222 -0.804152 1.77647 0
M  V30 4064 O 395.492 -1.57629 1.16318 0
M  V30 4065 H 394.072 0.243423 0.706225 0
M  V30 4066 H 396.734 1.25845 1.48825 0
M  V30 4067 H 395.83 0.928069 2.97982 0
M  V30 4068 N 396.131 -1.37776 0.765217 0
M  V30 4069 C 397.041 -2.34135 0.147666 0
M  V30 4070 C 398.057 -1.59854 -0.687215 0
M  V30 4071 O 399.233 -1.91983 -0.608659 0
M  V30 4072 C 396.298 -3.3901 -0.72617 0
M  V30 4073 C 395.359 -4.2912 0.124417 0
M  V30 4074 C 394.592 -5.28986 -0.707807 0
M  V30 4075 O 394.815 -5.36205 -1.94525 0
M  V30 4076 O 393.749 -6.01779 -0.12046 0
M  V30 4077 H 397.575 -2.88664 0.943758 0
M  V30 4078 H 395.16 -1.39824 0.526277 0
M  V30 4079 H 397.042 -4.03195 -1.22524 0
M  V30 4080 H 395.717 -2.86819 -1.50056 0
M  V30 4081 H 394.624 -3.68057 0.669696 0
M  V30 4082 H 395.957 -4.84598 0.861736 0
M  V30 4083 N 397.609 -0.515225 -1.4894 0
M  V30 4084 C 398.572 0.244681 -2.2789 0
M  V30 4085 C 399.572 0.881166 -1.34507 0
M  V30 4086 O 400.762 0.743497 -1.57537 0
M  V30 4087 C 397.894 1.35247 -3.12923 0
M  V30 4088 H 399.087 -0.448289 -2.96531 0
M  V30 4089 H 396.64 -0.270656 -1.53939 0
M  V30 4090 H 397.375 2.07916 -2.48881 0
M  V30 4091 H 397.16 0.901374 -3.81599 0
M  V30 4092 H 398.65 1.88737 -3.72516 0
M  V30 4093 N 399.087 1.5561 -0.249682 0
M  V30 4094 C 400.336 1.98187 0.37479 0
M  V30 4095 C 400.649 1.14111 1.58865 0
M  V30 4096 O 401.855 1.46714 2.28445 0
M  V30 4097 C 400.311 3.52661 0.718192 0
M  V30 4098 C 399.919 4.45481 -0.474428 0
M  V30 4099 C 401.663 4.03888 1.3067 0
M  V30 4100 C 399.57 5.91303 -0.107026 0
M  V30 4101 H 398.5 0.740159 0.143808 0
M  V30 4102 H 401.151 1.80125 -0.350336 0
M  V30 4103 H 399.533 3.66429 1.50152 0
M  V30 4104 H 400.707 4.43473 -1.25172 0
M  V30 4105 H 399.022 4.04751 -0.978052 0
M  V30 4106 H 401.619 5.10358 1.59496 0
M  V30 4107 H 401.962 3.51401 2.23211 0
M  V30 4108 H 402.495 3.93457 0.586211 0
M  V30 4109 H 399.234 6.47833 -0.999642 0
M  V30 4110 H 398.754 5.9644 0.634013 0
M  V30 4111 H 400.433 6.46258 0.309807 0
M  V30 4112 N 400.565 -0.0233959 1.57583 0
M  V30 4113 C 401.805 -0.71784 1.9138 0
M  V30 4114 C 402.169 -1.72216 0.848853 0
M  V30 4115 O 403.37 -2.46527 1.07134 0
M  V30 4116 C 401.641 -1.36489 3.30311 0
M  V30 4117 S 403.2 -2.0877 3.85954 0
M  V30 4118 H 400.018 -0.237676 0.670098 0
M  V30 4119 H 402.62 0.0276709 1.9548 0
M  V30 4120 H 401.324 -0.620782 4.05678 0
M  V30 4121 H 400.855 -2.14883 3.29528 0
M  V30 4122 H 402.87 -3.35988 3.65139 0
M  V30 4123 N 402.043 -1.548 -0.295768 0
M  V30 4124 C 403.271 -1.78327 -1.04914 0
M  V30 4125 C 403.686 -0.545316 -1.80753 0
M  V30 4126 O 403.043 0.485013 -1.75937 0
M  V30 4127 C 403.094 -2.99418 -2.02561 0
M  V30 4128 O 402.815 -4.18431 -1.29798 0
M  V30 4129 C 404.316 -3.35375 -2.89895 0
M  V30 4130 H 401.536 -0.594618 -0.310918 0
M  V30 4131 H 404.08 -2.01763 -0.333454 0
M  V30 4132 H 402.235 -2.78175 -2.69624 0
M  V30 4133 H 402.649 -4.86736 -1.95419 0
M  V30 4134 H 404.123 -4.23332 -3.54251 0
M  V30 4135 H 404.6 -2.53761 -3.58472 0
M  V30 4136 H 405.206 -3.58796 -2.28355 0
M  V30 4137 N 403.521 0.559213 -1.47345 0
M  V30 4138 C 404.798 1.31997 -1.44348 0
M  V30 4139 C 405.178 2.1064 -0.139358 0
M  V30 4140 O 404.526 2.1091 0.879153 0
M  V30 4141 C 404.736 2.22618 -2.68779 0
M  V30 4142 C 406.084 2.83701 -3.1591 0
M  V30 4143 O 407.108 2.32921 -2.69493 0
M  V30 4144 O 405.967 3.75993 -3.966 0
M  V30 4145 H 403.061 0.594251 -0.575147 0
M  V30 4146 H 405.607 0.578282 -1.59543 0
M  V30 4147 H 404.379 1.64093 -3.55231 0
M  V30 4148 H 404.002 3.04085 -2.5616 0
M  V30 4149 N 404.999 1.35443 0.805782 0
M  V30 4150 C 406.41 1.25768 1.37983 0
M  V30 4151 C 406.761 -0.10958 1.95894 0
M  V30 4152 O 405.886 -1.01056 1.91355 0
M  V30 4153 C 406.481 2.27727 2.5085 0
M  V30 4154 C 405.04 2.2179 3.04115 0
M  V30 4155 C 404.187 2.13393 1.77084 0
M  V30 4156 H 407.138 1.4656 0.608752 0
M  V30 4157 H 407.159 1.90422 3.29424 0
M  V30 4158 H 406.671 3.27227 2.08671 0
M  V30 4159 H 404.772 1.25703 3.50756 0
M  V30 4160 H 404.885 3.13788 3.62042 0
M  V30 4161 H 403.249 1.59384 1.98668 0
M  V30 4162 H 404.032 3.14755 1.37056 0
M  V30 4163 N 406.477 -1.02803 1.19454 0
M  V30 4164 C 407.407 -2.12999 0.956758 0
M  V30 4165 C 408.388 -1.69743 -0.110188 0
M  V30 4166 O 409.573 -1.94148 0.0450038 0
M  V30 4167 C 406.703 -3.43746 0.495553 0
M  V30 4168 C 405.657 -4.00688 1.50443 0
M  V30 4169 C 404.983 -5.27067 0.900275 0
M  V30 4170 C 406.283 -4.35397 2.8849 0
M  V30 4171 H 407.977 -2.33148 1.87836 0
M  V30 4172 H 405.523 -1.12045 0.904539 0
M  V30 4173 H 407.476 -4.2021 0.316493 0
M  V30 4174 H 406.2 -3.23321 -0.461646 0
M  V30 4175 H 404.859 -3.2632 1.67065 0
M  V30 4176 H 404.507 -5.02959 -0.064503 0
M  V30 4177 H 404.207 -5.66127 1.57397 0
M  V30 4178 H 405.731 -6.06196 0.73203 0
M  V30 4179 H 407.145 -5.02795 2.75446 0
M  V30 4180 H 405.542 -4.85541 3.52661 0
M  V30 4181 H 406.612 -3.44662 3.41081 0
M  V30 4182 N 407.956 -0.998596 -1.21925 0
M  V30 4183 C 409.202 -0.678667 -1.91107 0
M  V30 4184 C 409.535 0.78791 -1.77498 0
M  V30 4185 O 408.81 1.57043 -1.1475 0
M  V30 4186 C 409.093 -1.09245 -3.43129 0
M  V30 4187 C 408.946 -2.61801 -3.6576 0
M  V30 4188 C 410.265 -0.649984 -4.35274 0
M  V30 4189 H 407.384 -0.248025 -0.694012 0
M  V30 4190 H 410.026 -1.24314 -1.43688 0
M  V30 4191 H 408.176 -0.612171 -3.83647 0
M  V30 4192 H 409.848 -3.17543 -3.34611 0
M  V30 4193 H 408.091 -3.03609 -3.09845 0
M  V30 4194 H 408.762 -2.85804 -4.7225 0
M  V30 4195 H 411.238 -1.0626 -4.02303 0
M  V30 4196 H 410.114 -0.967743 -5.40302 0
M  V30 4197 H 410.375 0.449139 -4.39813 0
M  V30 4198 N 409.434 1.37368 -0.772513 0
M  V30 4199 C 410.659 2.0447 -0.347386 0
M  V30 4200 C 411.084 1.57882 1.0225 0
M  V30 4201 O 410.442 0.73941 1.65537 0
M  V30 4202 C 410.49 3.58369 -0.400479 0
M  V30 4203 O 409.594 4.0803 0.598789 0
M  V30 4204 H 408.935 0.646773 -0.15027 0
M  V30 4205 H 411.465 1.75667 -1.04892 0
M  V30 4206 H 411.475 4.07183 -0.258045 0
M  V30 4207 H 410.15 3.91633 -1.39986 0
M  V30 4208 H 408.727 3.70534 0.419411 0
M  V30 4209 N 410.912 0.523116 1.48665 0
M  V30 4210 C 411.859 -0.243398 2.29513 0
M  V30 4211 C 412.829 -0.940139 1.36933 0
M  V30 4212 O 414.014 -0.942503 1.65896 0
M  V30 4213 C 411.154 -1.28855 3.20141 0
M  V30 4214 C 410.267 -0.60135 4.27794 0
M  V30 4215 C 409.402 -1.62884 5.05611 0
M  V30 4216 C 408.441 -0.924726 6.05075 0
M  V30 4217 N 407.578 -1.89744 6.75975 0
M  V30 4218 H 412.418 0.452234 2.94549 0
M  V30 4219 H 409.955 0.234858 1.45213 0
M  V30 4220 H 411.913 -1.90674 3.71079 0
M  V30 4221 H 410.543 -1.95266 2.57043 0
M  V30 4222 H 409.595 0.130623 3.80176 0
M  V30 4223 H 410.907 -0.0481585 4.98777 0
M  V30 4224 H 410.061 -2.32149 5.60528 0
M  V30 4225 H 408.8 -2.21592 4.34452 0
M  V30 4226 H 407.805 -0.217966 5.49368 0
M  V30 4227 H 409.03 -0.343851 6.78229 0
M  V30 4228 H 406.976 -2.47373 6.07571 0
M  V30 4229 H 406.893 -1.3955 7.43009 0
M  V30 4230 H 408.161 -2.58229 7.35485 0
M  V30 4231 N 412.39 -1.55475 0.257931 0
M  V30 4232 C 413.639 -1.98383 -0.364275 0
M  V30 4233 C 413.952 -1.14952 -1.58258 0
M  V30 4234 O 415.158 -1.47924 -2.27664 0
M  V30 4235 C 413.614 -3.53037 -0.699479 0
M  V30 4236 C 413.222 -4.45223 0.498046 0
M  V30 4237 C 414.966 -4.04575 -1.28526 0
M  V30 4238 C 412.873 -5.91238 0.138383 0
M  V30 4239 H 411.803 -0.740911 -0.13988 0
M  V30 4240 H 414.454 -1.79936 0.359883 0
M  V30 4241 H 412.836 -3.6722 -1.48207 0
M  V30 4242 H 414.01 -4.42803 1.27522 0
M  V30 4243 H 412.325 -4.04226 0.999503 0
M  V30 4244 H 414.922 -5.11196 -1.56788 0
M  V30 4245 H 415.265 -3.5258 -2.21344 0
M  V30 4246 H 415.798 -3.93762 -0.565337 0
M  V30 4247 H 412.537 -6.47294 1.03398 0
M  V30 4248 H 412.057 -5.96768 -0.602374 0
M  V30 4249 H 413.736 -6.46413 -0.27553 0
M  V30 4250 N 413.868 0.0150385 -1.57593 0
M  V30 4251 C 415.093 0.718067 -1.94573 0
M  V30 4252 C 415.518 1.6734 -0.859005 0
M  V30 4253 O 414.876 1.80362 0.184147 0
M  V30 4254 C 414.924 1.43918 -3.30636 0
M  V30 4255 O 414.028 2.55299 -3.23876 0
M  V30 4256 H 413.369 0.192125 -0.635597 0
M  V30 4257 H 415.899 -0.0336708 -2.04572 0
M  V30 4258 H 415.909 1.80598 -3.65853 0
M  V30 4259 H 414.584 0.738619 -4.09289 0
M  V30 4260 H 413.161 2.21058 -3.00312 0
M  V30 4261 N 415.346 1.54954 0.287554 0
M  V30 4262 C 416.593 1.74873 1.02106 0
M  V30 4263 C 416.921 0.541829 1.86801 0
M  V30 4264 O 416.176 -0.475992 1.89823 0
M  V30 4265 C 416.475 2.99833 1.94512 0
M  V30 4266 C 416.141 4.33029 1.25686 0
M  V30 4267 C 414.803 4.69233 1.06649 0
M  V30 4268 C 417.155 5.15542 0.765913 0
M  V30 4269 C 414.483 5.85518 0.372222 0
M  V30 4270 C 416.835 6.32542 0.0853101 0
M  V30 4271 C 415.499 6.67398 -0.1169 0
M  V30 4272 H 414.769 0.639906 0.373632 0
M  V30 4273 H 417.416 1.89219 0.294665 0
M  V30 4274 H 415.721 2.80325 2.73725 0
M  V30 4275 H 417.418 3.1244 2.51361 0
M  V30 4276 H 414.008 4.04564 1.41512 0
M  V30 4277 H 418.192 4.88059 0.90066 0
M  V30 4278 H 413.448 6.11057 0.204695 0
M  V30 4279 H 417.622 6.95741 -0.302936 0
M  V30 4280 H 415.249 7.57357 -0.656859 0
M  V30 4281 N 416.824 -0.551391 1.4764 0
M  V30 4282 C 418.052 -1.33357 1.58189 0
M  V30 4283 C 418.467 -1.87342 0.234199 0
M  V30 4284 O 417.824 -1.65301 -0.77343 0
M  V30 4285 C 417.875 -2.49942 2.61173 0
M  V30 4286 O 417.596 -1.98187 3.90709 0
M  V30 4287 C 419.097 -3.42072 2.8196 0
M  V30 4288 H 416.317 -0.40631 0.533998 0
M  V30 4289 H 418.861 -0.667367 1.93304 0
M  V30 4290 H 417.016 -3.12489 2.28975 0
M  V30 4291 H 417.43 -2.74342 4.47031 0
M  V30 4292 H 418.904 -4.20278 3.57869 0
M  V30 4293 H 419.381 -3.95978 1.89995 0
M  V30 4294 H 419.987 -2.85336 3.15378 0
M  V30 4295 N 418.302 -1.35869 -0.798587 0
M  V30 4296 C 419.55 -1.29332 -1.55298 0
M  V30 4297 C 419.871 0.129729 -1.94568 0
M  V30 4298 O 419.141 1.06796 -1.6423 0
M  V30 4299 H 417.721 -0.475737 -0.57592 0
M  V30 4300 H 420.383 -1.70062 -0.952093 0
M  V30 4301 H 419.479 -1.91458 -2.46476 0
M  V30 4302 N 419.78 1.02168 -1.19998 0
M  V30 4303 C 421.005 1.79833 -1.03319 0
M  V30 4304 C 421.43 1.83504 0.413281 0
M  V30 4305 O 420.788 1.26635 1.29743 0
M  V30 4306 C 420.836 3.22396 -1.61533 0
M  V30 4307 O 419.94 4.03555 -0.849519 0
M  V30 4308 H 419.281 0.554872 -0.364709 0
M  V30 4309 H 421.811 1.28542 -1.59179 0
M  V30 4310 H 421.821 3.73124 -1.65054 0
M  V30 4311 H 420.496 3.19039 -2.66809 0
M  V30 4312 H 419.073 3.62169 -0.888129 0
M  V30 4313 N 421.258 1.00505 1.21394 0
M  V30 4314 C 422.486 0.706609 1.9446 0
M  V30 4315 C 422.901 -0.73081 1.74082 0
M  V30 4316 O 422.258 -1.49446 1.04747 0
M  V30 4317 C 422.309 1.01824 3.46863 0
M  V30 4318 O 422.03 2.39919 3.66566 0
M  V30 4319 C 423.531 0.739216 4.37093 0
M  V30 4320 H 420.751 0.260394 0.618414 0
M  V30 4321 H 423.295 1.34311 1.54211 0
M  V30 4322 H 421.45 0.427343 3.85036 0
M  V30 4323 H 421.864 2.50784 4.6066 0
M  V30 4324 H 423.338 1.00744 5.42729 0
M  V30 4325 H 423.815 -0.326746 4.37983 0
M  V30 4326 H 424.421 1.31173 4.04566 0
M  V30 4327 N 422.737 -1.36956 0.779787 0
M  V30 4328 C 423.965 -2.03755 0.359398 0
M  V30 4329 C 424.38 -1.58807 -1.02106 0
M  V30 4330 O 423.737 -0.773024 -1.6532 0
M  V30 4331 C 423.788 -3.59251 0.402568 0
M  V30 4332 O 423.509 -4.02557 1.72858 0
M  V30 4333 C 425.01 -4.43291 -0.0284068 0
M  V30 4334 H 422.23 -0.654148 0.149437 0
M  V30 4335 H 424.774 -1.75128 1.05595 0
M  V30 4336 H 422.929 -3.86621 -0.245478 0
M  V30 4337 H 423.343 -4.97111 1.67275 0
M  V30 4338 H 424.817 -5.51975 0.0529466 0
M  V30 4339 H 425.294 -4.25719 -1.07982 0
M  V30 4340 H 425.9 -4.21163 0.591758 0
M  V30 4341 N 424.215 -0.530993 -1.48385 0
M  V30 4342 C 425.443 -0.00134122 -2.069 0
M  V30 4343 C 425.858 1.2805 -1.3874 0
M  V30 4344 O 425.215 1.76204 -0.475244 0
M  V30 4345 C 425.266 0.225256 -3.60798 0
M  V30 4346 O 424.987 -1.0058 -4.26398 0
M  V30 4347 C 426.488 0.795172 -4.3611 0
M  V30 4348 H 423.708 -0.0339704 -0.67014 0
M  V30 4349 H 426.252 -0.736926 -1.90761 0
M  V30 4350 H 424.407 0.910891 -3.76539 0
M  V30 4351 H 424.821 -0.787165 -5.1856 0
M  V30 4352 H 426.295 0.903143 -5.44562 0
M  V30 4353 H 426.772 1.80031 -4.00606 0
M  V30 4354 H 427.378 0.146069 -4.25049 0
M  V30 4355 N 425.693 1.55336 -0.266172 0
M  V30 4356 C 426.941 1.99003 0.35246 0
M  V30 4357 C 427.262 1.15591 1.57047 0
M  V30 4358 O 426.532 0.243268 1.94384 0
M  V30 4359 H 425.112 0.735025 0.133217 0
M  V30 4360 H 427.774 1.91367 -0.369434 0
M  V30 4361 H 426.87 3.05289 0.648453 0
M  V30 4362 N 427.171 -0.0066808 1.57599 0
M  V30 4363 C 428.118 -1.00024 2.08 0
M  V30 4364 C 429.088 -1.34549 0.973943 0
M  V30 4365 O 430.273 -1.44502 1.24595 0
M  V30 4366 C 427.413 -2.2891 2.58252 0
M  V30 4367 C 426.526 -2.00346 3.82734 0
M  V30 4368 C 425.661 -3.23265 4.21513 0
M  V30 4369 C 424.7 -2.90357 5.3885 0
M  V30 4370 N 423.837 -4.05793 5.72954 0
M  V30 4371 H 428.677 -0.563499 2.92624 0
M  V30 4372 H 426.214 -0.266592 1.44664 0
M  V30 4373 H 428.172 -3.04247 2.85464 0
M  V30 4374 H 426.802 -2.70265 1.76512 0
M  V30 4375 H 425.854 -1.15406 3.62471 0
M  V30 4376 H 427.166 -1.72086 4.68175 0
M  V30 4377 H 426.32 -4.06953 4.49971 0
M  V30 4378 H 425.059 -3.54657 3.34768 0
M  V30 4379 H 424.064 -2.05075 5.10122 0
M  V30 4380 H 425.289 -2.60219 6.27266 0
M  V30 4381 H 423.235 -4.37094 4.89167 0
M  V30 4382 H 423.152 -3.81034 6.52954 0
M  V30 4383 H 424.42 -4.90289 6.06001 0
M  V30 4384 N 428.649 -1.55105 -0.279332 0
M  V30 4385 C 429.898 -1.74618 -1.00952 0
M  V30 4386 C 430.211 -0.551096 -1.87676 0
M  V30 4387 O 431.417 -0.628507 -2.64125 0
M  V30 4388 C 429.873 -3.09025 -1.84476 0
M  V30 4389 C 429.481 -4.36081 -1.0265 0
M  V30 4390 C 431.225 -3.37891 -2.56963 0
M  V30 4391 C 429.132 -5.6153 -1.85576 0
M  V30 4392 H 428.062 -0.650868 -0.38064 0
M  V30 4393 H 430.713 -1.81569 -0.265475 0
M  V30 4394 H 429.095 -2.96095 -2.62952 0
M  V30 4395 H 430.269 -4.59909 -0.286354 0
M  V30 4396 H 428.584 -4.14312 -0.416464 0
M  V30 4397 H 431.181 -4.28822 -3.19399 0
M  V30 4398 H 431.524 -2.57737 -3.26921 0
M  V30 4399 H 432.057 -3.5189 -1.85522 0
M  V30 4400 H 428.796 -6.44413 -1.2005 0
M  V30 4401 H 428.316 -5.41854 -2.57204 0
M  V30 4402 H 429.995 -5.99594 -2.43096 0
M  V30 4403 N 430.127 0.543554 -1.4793 0
M  V30 4404 C 431.057 1.65888 -1.64327 0
M  V30 4405 C 432.038 1.62818 -0.492383 0
M  V30 4406 O 433.223 1.80226 -0.723338 0
M  V30 4407 C 430.353 3.04506 -1.67013 0
M  V30 4408 C 429.307 3.2243 -2.81466 0
M  V30 4409 C 428.633 4.61972 -2.69233 0
M  V30 4410 C 429.933 3.06496 -4.22915 0
M  V30 4411 H 431.627 1.52421 -2.57698 0
M  V30 4412 H 429.173 0.731849 -1.24016 0
M  V30 4413 H 431.126 3.82391 -1.77074 0
M  V30 4414 H 429.85 3.18964 -0.70212 0
M  V30 4415 H 428.509 2.46957 -2.70938 0
M  V30 4416 H 428.157 4.73247 -1.7043 0
M  V30 4417 H 427.857 4.74911 -3.46025 0
M  V30 4418 H 429.381 5.41974 -2.81242 0
M  V30 4419 H 430.795 3.74186 -4.34348 0
M  V30 4420 H 429.192 3.30938 -5.006 0
M  V30 4421 H 430.262 2.03077 -4.40327 0
M  V30 4422 N 431.605 1.3629 0.791371 0
M  V30 4423 C 432.535 1.33137 1.91825 0
M  V30 4424 C 433.516 0.203168 1.68882 0
M  V30 4425 O 434.701 0.400509 1.90025 0
M  V30 4426 C 431.831 1.11793 3.28816 0
M  V30 4427 C 430.785 2.21417 3.66277 0
M  V30 4428 C 430.111 1.85218 5.01596 0
M  V30 4429 C 431.411 3.63489 3.75064 0
M  V30 4430 H 433.105 2.2743 1.9472 0
M  V30 4431 H 430.651 1.09479 0.935437 0
M  V30 4432 H 432.604 1.08222 4.07266 0
M  V30 4433 H 431.328 0.139501 3.26302 0
M  V30 4434 H 429.987 2.2411 2.90121 0
M  V30 4435 H 429.635 0.859544 4.95602 0
M  V30 4436 H 429.335 2.58611 5.27631 0
M  V30 4437 H 430.859 1.832 5.82469 0
M  V30 4438 H 432.273 3.63034 4.43711 0
M  V30 4439 H 430.67 4.35771 4.12582 0
M  V30 4440 H 431.74 3.98536 2.76219 0
M  V30 4441 N 433.083 -1.0153 1.20538 0
M  V30 4442 C 434.033 -2.08482 0.922991 0
M  V30 4443 C 435.017 -1.60469 -0.117702 0
M  V30 4444 O 436.209 -1.76772 0.0898465 0
M  V30 4445 C 433.338 -3.39952 0.478312 0
M  V30 4446 C 432.424 -3.94662 1.5525 0
M  V30 4447 N 432.815 -4.22866 2.77521 0
M  V30 4448 C 431.113 -4.22825 1.41897 0
M  V30 4449 C 431.814 -4.67002 3.4682 0
M  V30 4450 N 430.79 -4.69356 2.74237 0
M  V30 4451 H 434.592 -2.28199 1.85209 0
M  V30 4452 H 432.106 -1.19512 1.09957 0
M  V30 4453 H 434.103 -4.16105 0.257408 0
M  V30 4454 H 432.763 -3.21648 -0.444148 0
M  V30 4455 H 433.774 -4.11732 3.1416 0
M  V30 4456 H 430.451 -4.13714 0.561015 0
M  V30 4457 H 431.841 -4.97632 4.51455 0
M  V30 4458 N 434.561 -1.01147 -1.20859 0
M  V30 4459 C 435.511 -0.548247 -2.2131 0
M  V30 4460 C 436.495 0.393646 -1.5601 0
M  V30 4461 O 437.687 0.217445 -1.75659 0
M  V30 4462 C 434.816 0.117252 -3.431 0
M  V30 4463 C 433.902 -0.846043 -4.15575 0
M  V30 4464 N 434.293 -2.00149 -4.64515 0
M  V30 4465 C 432.591 -0.665783 -4.41003 0
M  V30 4466 C 433.292 -2.60764 -5.19978 0
M  V30 4467 N 432.268 -1.88868 -5.09735 0
M  V30 4468 H 436.07 -1.42921 -2.56809 0
M  V30 4469 H 433.584 -0.876142 -1.36739 0
M  V30 4470 H 435.581 0.46662 -4.1428 0
M  V30 4471 H 434.241 0.994115 -3.09107 0
M  V30 4472 H 435.252 -2.38162 -4.5989 0
M  V30 4473 H 431.929 0.163456 -4.1718 0
M  V30 4474 H 433.319 -3.58519 -5.68255 0
M  V30 4475 N 436.039 1.36541 -0.78704 0
M  V30 4476 C 437.002 2.28413 -0.189778 0
M  V30 4477 C 438.002 1.48719 0.611499 0
M  V30 4478 O 439.192 1.68737 0.432842 0
M  V30 4479 C 436.324 3.32824 0.737638 0
M  V30 4480 H 437.517 2.82743 -0.999831 0
M  V30 4481 H 435.07 1.46065 -0.556298 0
M  V30 4482 H 435.805 2.83646 1.57212 0
M  V30 4483 H 435.59 3.91752 0.165044 0
M  V30 4484 H 437.08 4.0144 1.15047 0
M  V30 4485 N 437.518 0.538854 1.48102 0
M  V30 4486 C 438.481 -0.208395 2.28251 0
M  V30 4487 C 439.481 -0.859656 1.35892 0
M  V30 4488 O 440.671 -0.71834 1.58699 0
M  V30 4489 C 437.803 -1.30252 3.15035 0
M  V30 4490 H 438.996 0.495407 2.9578 0
M  V30 4491 H 436.549 0.295112 1.53489 0
M  V30 4492 H 437.284 -2.0393 2.52157 0
M  V30 4493 H 437.069 -0.840551 3.82985 0
M  V30 4494 H 438.559 -1.82787 3.75471 0
M  V30 4495 N 438.996 -1.55193 0.274407 0
M  V30 4496 C 439.944 -2.23924 -0.629362 0
M  V30 4497 C 440.938 -1.23602 -1.1584 0
M  V30 4498 O 442.144 -1.41535 -1.11211 0
M  V30 4499 H 438.519 -0.718637 -0.221507 0
M  V30 4500 H 440.49 -2.98388 -0.0268322 0
M  V30 4501 C 439.239 -2.97329 -1.80252 0
M  V30 4502 H 438.562 -3.74313 -1.40462 0
M  V30 4503 H 440.002 -3.48743 -2.41152 0
M  V30 4504 C 438.461 -2.0276 -2.69054 0
M  V30 4505 O 438.991 -1.57836 -3.69392 0
M  V30 4506 N 437.197 -1.69275 -2.36208 0
M  V30 4507 H 436.744 -2.06004 -1.54661 0
M  V30 4508 H 436.702 -1.06271 -2.95895 0
M  V30 4509 N 440.474 -0.00167713 -1.576 0
M  V30 4510 C 441.699 0.69739 -1.95323 0
M  V30 4511 C 442.124 1.6642 -0.876706 0
M  V30 4512 O 441.482 1.80548 0.165007 0
M  V30 4513 C 441.53 1.40403 -3.32144 0
M  V30 4514 O 440.634 2.5185 -3.26566 0
M  V30 4515 H 439.975 0.185373 -0.637599 0
M  V30 4516 H 442.505 -0.0553665 -2.04525 0
M  V30 4517 H 442.515 1.76707 -3.67748 0
M  V30 4518 H 441.19 0.695167 -4.10049 0
M  V30 4519 H 439.767 2.17861 -3.0264 0
M  V30 4520 N 441.952 1.55251 0.271103 0
M  V30 4521 C 443.198 1.76207 1.00394 0
M  V30 4522 C 443.531 0.562604 1.85872 0
M  V30 4523 O 442.806 -0.439785 1.89463 0
M  V30 4524 C 443.089 3.06828 1.8849 0
M  V30 4525 C 442.942 4.37134 1.05992 0
M  V30 4526 C 444.261 3.33503 2.87165 0
M  V30 4527 H 441.38 0.641086 0.363562 0
M  V30 4528 H 444.022 1.87982 0.276189 0
M  V30 4529 H 442.172 2.96921 2.5054 0
M  V30 4530 H 443.844 4.59001 0.459978 0
M  V30 4531 H 442.087 4.32275 0.363443 0
M  V30 4532 H 442.758 5.2486 1.70955 0
M  V30 4533 H 445.234 3.43215 2.3525 0
M  V30 4534 H 444.11 4.2616 3.45946 0
M  V30 4535 H 444.371 2.53235 3.62387 0
M  V30 4536 N 443.43 -0.535701 1.48216 0
M  V30 4537 C 444.377 -1.64083 1.62312 0
M  V30 4538 C 445.347 -1.59448 0.465365 0
M  V30 4539 O 446.532 -1.77959 0.688135 0
M  V30 4540 C 443.672 -3.0236 1.66349 0
M  V30 4541 C 442.785 -3.17273 2.93193 0
M  V30 4542 C 441.92 -4.46075 2.88427 0
M  V30 4543 C 440.959 -4.54496 4.1 0
M  V30 4544 N 440.096 -5.7468 4.03345 0
M  V30 4545 H 444.936 -1.51374 2.5669 0
M  V30 4546 H 442.473 -0.737059 1.27302 0
M  V30 4547 H 444.431 -3.82461 1.66672 0
M  V30 4548 H 443.061 -3.13854 0.754672 0
M  V30 4549 H 442.113 -2.30462 3.02641 0
M  V30 4550 H 443.425 -3.19357 3.83162 0
M  V30 4551 H 442.579 -5.3446 2.87119 0
M  V30 4552 H 441.318 -4.46504 1.96177 0
M  V30 4553 H 440.323 -3.64519 4.11589 0
M  V30 4554 H 441.548 -4.5581 5.03402 0
M  V30 4555 H 439.494 -5.76017 3.13912 0
M  V30 4556 H 439.411 -5.78234 4.87013 0
M  V30 4557 H 440.679 -6.65367 4.06087 0
M  V30 4558 N 444.908 -1.36708 -0.784132 0
M  V30 4559 C 446.324 -1.17237 -1.08294 0
M  V30 4560 C 446.524 -5.93947e-05 -2.015 0
M  V30 4561 O 445.58 0.663686 -2.43622 0
M  V30 4562 C 446.893 -2.48557 -1.69233 0
M  V30 4563 C 448.441 -2.54968 -1.8155 0
M  V30 4564 C 448.916 -3.86388 -2.45904 0
M  V30 4565 N 450.407 -3.87762 -2.53367 0
M  V30 4566 C 451.142 -4.86191 -3.03983 0
M  V30 4567 N 450.638 -5.95015 -3.54866 0
M  V30 4568 N 452.431 -4.73606 -3.02743 0
M  V30 4569 H 444.582 -2.11758 -0.16501 0
M  V30 4570 H 446.845 -0.93822 -0.135822 0
M  V30 4571 H 446.551 -3.34638 -1.08215 0
M  V30 4572 H 446.425 -2.64748 -2.68679 0
M  V30 4573 H 448.812 -1.69302 -2.41704 0
M  V30 4574 H 448.893 -2.42672 -0.80895 0
M  V30 4575 H 448.537 -4.72462 -1.86392 0
M  V30 4576 H 448.467 -3.95982 -3.4714 0
M  V30 4577 H 450.958 -3.09145 -2.17343 0
M  V30 4578 H 451.271 -6.66086 -3.91854 0
M  V30 4579 H 449.616 -5.98676 -3.53003 0
M  V30 4580 H 452.807 -3.87717 -2.62284 0
M  V30 4581 H 452.98 -5.50473 -3.41881 0
M  V30 4582 N 446.386 1.0089 -1.21074 0
M  V30 4583 C 447.632 1.74866 -1.02712 0
M  V30 4584 C 447.965 1.89178 0.438787 0
M  V30 4585 O 447.24 1.42325 1.32567 0
M  V30 4586 C 447.523 3.16347 -1.72036 0
M  V30 4587 C 447.376 3.09782 -3.26121 0
M  V30 4588 C 448.695 4.15187 -1.45973 0
M  V30 4589 H 445.814 0.634736 -0.374539 0
M  V30 4590 H 448.456 1.17646 -1.49196 0
M  V30 4591 H 446.606 3.65201 -1.32517 0
M  V30 4592 H 448.278 2.68673 -3.74983 0
M  V30 4593 H 446.521 2.46982 -3.56626 0
M  V30 4594 H 447.192 4.09829 -3.6979 0
M  V30 4595 H 449.668 3.75022 -1.80272 0
M  V30 4596 H 448.544 5.12331 -1.96999 0
M  V30 4597 H 448.805 4.40386 -0.388924 0
M  V30 4598 N 447.864 1.01787 1.20321 0
M  V30 4599 C 449.089 0.727009 1.9424 0
M  V30 4600 C 449.514 -0.706179 1.74341 0
M  V30 4601 O 448.872 -1.48609 1.03852 0
M  V30 4602 C 448.92 1.06958 3.44372 0
M  V30 4603 O 448.024 0.181983 4.11998 0
M  V30 4604 H 447.365 0.269626 0.606793 0
M  V30 4605 H 449.895 1.36158 1.52716 0
M  V30 4606 H 449.905 1.02182 3.94997 0
M  V30 4607 H 448.58 2.11378 3.58179 0
M  V30 4608 H 447.157 0.287378 3.71791 0
M  V30 4609 N 449.342 -1.36122 0.79427 0
M  V30 4610 C 450.275 -2.27759 0.141845 0
M  V30 4611 C 451.253 -1.47471 -0.684921 0
M  V30 4612 O 452.437 -1.76759 -0.654857 0
M  V30 4613 C 449.564 -3.29008 -0.804446 0
M  V30 4614 C 448.61 -4.26459 -0.0588617 0
M  V30 4615 S 449.443 -5.20253 1.26873 0
M  V30 4616 C 450.599 -6.25048 0.326562 0
M  V30 4617 H 450.832 -2.82746 0.918818 0
M  V30 4618 H 448.365 -1.42736 0.588722 0
M  V30 4619 H 450.323 -3.87842 -1.34495 0
M  V30 4620 H 448.984 -2.72924 -1.5547 0
M  V30 4621 H 448.177 -4.97973 -0.777087 0
M  V30 4622 H 447.779 -3.71731 0.411309 0
M  V30 4623 H 450.071 -6.75705 -0.492795 0
M  V30 4624 H 451.014 -7.00852 1.01053 0
M  V30 4625 H 451.422 -5.64454 -0.0722627 0
M  V30 4626 N 450.82 -0.546701 -1.47814 0
M  V30 4627 C 451.73 0.21026 -2.33656 0
M  V30 4628 C 452.746 0.922413 -1.47538 0
M  V30 4629 O 453.922 0.893652 -1.80488 0
M  V30 4630 C 450.987 1.23348 -3.24016 0
M  V30 4631 C 450.048 0.529883 -4.26017 0
M  V30 4632 C 449.281 1.50435 -5.12059 0
M  V30 4633 O 449.504 2.73837 -5.00369 0
M  V30 4634 O 448.438 1.03459 -5.92942 0
M  V30 4635 H 452.264 -0.493605 -2.99662 0
M  V30 4636 H 449.849 -0.307427 -1.46203 0
M  V30 4637 H 451.731 1.82438 -3.79861 0
M  V30 4638 H 450.406 1.91945 -2.60651 0
M  V30 4639 H 449.313 -0.101948 -3.73961 0
M  V30 4640 H 450.646 -0.11445 -4.92067 0
M  V30 4641 N 452.299 1.55045 -0.282633 0
M  V30 4642 C 453.229 2.2579 0.595066 0
M  V30 4643 C 454.21 1.25074 1.15284 0
M  V30 4644 O 455.395 1.5381 1.18559 0
M  V30 4645 C 452.525 2.98472 1.77572 0
M  V30 4646 C 451.479 4.0618 1.34914 0
M  V30 4647 C 450.805 4.66477 2.6135 0
M  V30 4648 C 452.105 5.1996 0.493821 0
M  V30 4649 H 453.799 2.994 0.00505653 0
M  V30 4650 H 451.345 1.44 0.000992001 0
M  V30 4651 H 453.298 3.46677 2.39568 0
M  V30 4652 H 452.022 2.2241 2.39168 0
M  V30 4653 H 450.681 3.58797 0.752338 0
M  V30 4654 H 450.329 3.87074 3.2122 0
M  V30 4655 H 450.029 5.39207 2.33516 0
M  V30 4656 H 451.553 5.17435 3.24181 0
M  V30 4657 H 452.967 5.64172 1.01898 0
M  V30 4658 H 451.364 5.99299 0.310047 0
M  V30 4659 H 452.434 4.82462 -0.485593 0
M  V30 4660 N 453.777 0.010035 1.57597 0
M  V30 4661 C 455.025 -0.671371 1.90623 0
M  V30 4662 C 455.346 -1.73753 0.885151 0
M  V30 4663 O 454.616 -1.95752 -0.0760611 0
M  V30 4664 H 453.196 -0.250968 0.703579 0
M  V30 4665 H 455.858 0.0533325 1.94827 0
M  V30 4666 H 454.954 -1.13626 2.90681 0
M  V30 4667 N 455.255 -1.55392 -0.262866 0
M  V30 4668 C 456.503 -1.76127 -0.991147 0
M  V30 4669 C 456.824 -0.571083 -1.8645 0
M  V30 4670 O 456.094 0.413698 -1.91482 0
M  V30 4671 H 454.674 -0.649528 -0.368948 0
M  V30 4672 H 457.336 -1.9281 -0.284655 0
M  V30 4673 H 456.432 -2.6663 -1.62219 0
M  V30 4674 N 456.733 0.527833 -1.48498 0
M  V30 4675 C 457.663 1.64136 -1.66077 0
M  V30 4676 C 458.644 1.62286 -0.509625 0
M  V30 4677 O 459.829 1.79449 -0.742413 0
M  V30 4678 C 456.959 3.02717 -1.70234 0
M  V30 4679 C 455.913 3.19426 -2.8487 0
M  V30 4680 C 455.239 4.5909 -2.74118 0
M  V30 4681 C 456.539 3.01993 -4.26142 0
M  V30 4682 H 458.233 1.4968 -2.593 0
M  V30 4683 H 455.779 0.718654 -1.24785 0
M  V30 4684 H 457.732 3.80491 -1.8112 0
M  V30 4685 H 456.456 3.18201 -0.735911 0
M  V30 4686 H 455.115 2.4407 -2.73542 0
M  V30 4687 H 454.763 4.71413 -1.7544 0
M  V30 4688 H 454.463 4.71214 -3.51042 0
M  V30 4689 H 455.987 5.3896 -2.86974 0
M  V30 4690 H 457.401 3.69558 -4.38292 0
M  V30 4691 H 455.798 3.2561 -5.04082 0
M  V30 4692 H 456.868 1.98396 -4.42456 0
M  V30 4693 N 458.211 1.37122 0.776871 0
M  V30 4694 C 459.174 1.32301 1.8716 0
M  V30 4695 C 460.174 0.228099 1.59174 0
M  V30 4696 O 461.364 0.483642 1.67352 0
M  V30 4697 C 458.496 1.054 3.24197 0
M  V30 4698 H 459.689 2.29673 1.92848 0
M  V30 4699 H 457.242 1.22077 0.97606 0
M  V30 4700 H 457.977 0.0853872 3.24188 0
M  V30 4701 H 457.762 1.84648 3.45901 0
M  V30 4702 H 459.252 1.04664 4.04271 0
M  V30 4703 N 459.689 -1.00246 1.21608 0
M  V30 4704 C 461.1 -1.55511 1.03312 0
M  V30 4705 C 461.451 -1.91946 -0.406332 0
M  V30 4706 O 460.576 -1.73753 -1.28992 0
M  V30 4707 C 461.171 -2.82576 1.86913 0
M  V30 4708 C 459.73 -3.34318 1.72941 0
M  V30 4709 C 458.877 -2.07487 1.83968 0
M  V30 4710 H 461.828 -0.824638 1.35593 0
M  V30 4711 H 461.849 -3.54559 1.38087 0
M  V30 4712 H 461.361 -2.56026 2.91672 0
M  V30 4713 H 459.462 -3.65797 0.70877 0
M  V30 4714 H 459.575 -4.05566 2.55055 0
M  V30 4715 H 457.939 -2.20603 1.27304 0
M  V30 4716 H 458.722 -1.83346 2.9024 0
M  V30 4717 N 461.167 -1.02423 -1.1978 0
M  V30 4718 C 462.414 -0.717988 -1.89344 0
M  V30 4719 C 462.742 0.753036 -1.79331 0
M  V30 4720 O 461.997 1.56355 -1.17692 0
M  V30 4721 C 462.296 -1.1088 -3.39765 0
M  V30 4722 C 461.962 -2.57731 -3.6998 0
M  V30 4723 C 460.624 -2.97854 -3.77937 0
M  V30 4724 C 462.976 -3.52763 -3.83677 0
M  V30 4725 C 460.304 -4.31931 -3.97054 0
M  V30 4726 C 462.656 -4.86538 -4.04306 0
M  V30 4727 C 461.32 -5.26356 -4.10494 0
M  V30 4728 H 460.59 -0.26273 -0.692859 0
M  V30 4729 H 463.237 -1.28623 -1.41875 0
M  V30 4730 H 461.542 -0.459094 -3.89101 0
M  V30 4731 H 463.239 -0.849432 -3.919 0
M  V30 4732 H 459.829 -2.25646 -3.64393 0
M  V30 4733 H 464.013 -3.2292 -3.76877 0
M  V30 4734 H 459.269 -4.62324 -4.00083 0
M  V30 4735 H 463.443 -5.60093 -4.13846 0
M  V30 4736 H 461.07 -6.3026 -4.2506 0
M  V30 4737 N 462.645 1.35699 -0.801477 0
M  V30 4738 C 463.894 1.98165 -0.375979 0
M  V30 4739 C 464.207 1.64306 1.06127 0
M  V30 4740 O 465.413 2.20097 1.58964 0
M  V30 4741 C 463.869 3.54497 -0.621305 0
M  V30 4742 C 463.477 3.9727 -2.07076 0
M  V30 4743 C 465.221 4.23697 -0.26091 0
M  V30 4744 C 463.128 5.46427 -2.26211 0
M  V30 4745 H 462.058 0.741478 -0.136844 0
M  V30 4746 H 464.709 1.54834 -0.984814 0
M  V30 4747 H 463.091 3.95958 0.0574112 0
M  V30 4748 H 464.265 3.66974 -2.78687 0
M  V30 4749 H 462.58 3.40943 -2.39054 0
M  V30 4750 H 465.177 5.33334 -0.381994 0
M  V30 4751 H 465.52 4.0869 0.792344 0
M  V30 4752 H 466.053 3.87639 -0.893339 0
M  V30 4753 H 462.792 5.66396 -3.29963 0
M  V30 4754 H 462.312 5.78309 -1.59119 0
M  V30 4755 H 463.991 6.12819 -2.07513 0
M  V30 4756 N 464.123 0.554532 1.47522 0
M  V30 4757 C 465.369 0.0295227 2.02779 0
M  V30 4758 C 465.702 -1.31582 1.42828 0
M  V30 4759 O 464.977 -1.85561 0.582872 0
M  V30 4760 C 465.26 -0.0664057 3.60039 0
M  V30 4761 C 465.113 1.30585 4.30427 0
M  V30 4762 C 466.432 -0.781162 4.33112 0
M  V30 4763 H 463.551 0.0122027 0.736899 0
M  V30 4764 H 466.193 0.716305 1.7598 0
M  V30 4765 H 464.343 -0.651307 3.83002 0
M  V30 4766 H 466.015 1.93374 4.18813 0
M  V30 4767 H 464.258 1.88125 3.90886 0
M  V30 4768 H 464.929 1.19147 5.38988 0
M  V30 4769 H 467.405 -0.284565 4.15126 0
M  V30 4770 H 466.281 -0.817237 5.42782 0
M  V30 4771 H 466.542 -1.83672 4.0214 0
M  V30 4772 N 465.601 -1.54893 0.290851 0
M  V30 4773 C 466.848 -1.99933 -0.321391 0
M  V30 4774 C 467.176 -1.17927 -1.54672 0
M  V30 4775 O 466.431 -0.240902 -1.94212 0
M  V30 4776 C 466.73 -3.49815 -0.732397 0
M  V30 4777 C 466.396 -4.4921 0.390056 0
M  V30 4778 C 465.058 -4.76107 0.698223 0
M  V30 4779 C 467.41 -5.08453 1.14562 0
M  V30 4780 C 464.738 -5.59514 1.76526 0
M  V30 4781 C 467.09 -5.9302 2.2025 0
M  V30 4782 C 465.754 -6.18232 2.51684 0
M  V30 4783 H 465.024 -0.731608 -0.117605 0
M  V30 4784 H 467.671 -1.87107 0.407839 0
M  V30 4785 H 465.976 -3.60199 -1.54155 0
M  V30 4786 H 467.673 -3.82083 -1.21712 0
M  V30 4787 H 464.263 -4.28372 0.13976 0
M  V30 4788 H 468.447 -4.87683 0.920801 0
M  V30 4789 H 463.703 -5.77289 2.01364 0
M  V30 4790 H 467.877 -6.37955 2.7926 0
M  V30 4791 H 465.504 -6.82653 3.34499 0
M  V30 4792 N 467.08 -0.0183926 -1.57589 0
M  V30 4793 C 468.357 0.700621 -1.82622 0
M  V30 4794 C 468.737 1.90951 -0.90005 0
M  V30 4795 O 468.085 2.28452 0.0469145 0
M  V30 4796 C 468.295 1.08899 -3.31575 0
M  V30 4797 C 469.643 1.48514 -3.9778 0
M  V30 4798 O 470.667 1.18227 -3.36007 0
M  V30 4799 O 469.526 2.04903 -5.06633 0
M  V30 4800 H 466.62 0.342743 -0.752633 0
M  V30 4801 H 469.166 -0.0452548 -1.6964 0
M  V30 4802 H 467.938 0.228113 -3.90635 0
M  V30 4803 H 467.561 1.89338 -3.49624 0
M  V30 4804 N 468.558 1.5553 0.254621 0
M  V30 4805 C 469.783 1.81383 1.00573 0
M  V30 4806 C 470.208 0.594419 1.78461 0
M  V30 4807 O 469.566 -0.456403 1.75461 0
M  V30 4808 C 469.614 3.04892 1.92545 0
M  V30 4809 O 468.718 2.81266 3.01601 0
M  V30 4810 H 468.059 0.598969 0.286587 0
M  V30 4811 H 470.589 2.02703 0.277952 0
M  V30 4812 H 470.599 3.34119 2.34155 0
M  V30 4813 H 469.274 3.93287 1.3527 0
M  V30 4814 H 467.851 2.63185 2.64174 0
M  V30 4815 N 470.036 -0.519951 1.48776 0
M  V30 4816 C 470.999 -1.60574 1.6355 0
M  V30 4817 C 471.999 -1.52557 0.508234 0
M  V30 4818 O 473.189 -1.56047 0.774262 0
M  V30 4819 C 470.321 -3.00211 1.61512 0
M  V30 4820 H 471.514 -1.4881 2.60376 0
M  V30 4821 H 469.067 -0.742772 1.37523 0
M  V30 4822 H 469.802 -3.17471 0.662009 0
M  V30 4823 H 469.587 -3.07439 2.43359 0
M  V30 4824 H 471.077 -3.79134 1.75064 0
M  V30 4825 N 471.514 -1.37532 -0.769588 0
M  V30 4826 C 472.462 -1.33561 -1.90432 0
M  V30 4827 C 473.456 -0.224027 -1.67912 0
M  V30 4828 O 474.662 -0.392174 -1.75676 0
M  V30 4829 H 471.037 -0.416279 -0.626271 0
M  V30 4830 H 473.008 -2.29348 -1.90899 0
M  V30 4831 C 471.757 -1.16162 -3.27722 0
M  V30 4832 H 471.08 -2.00951 -3.45628 0
M  V30 4833 H 472.52 -1.17434 -4.07413 0
M  V30 4834 C 470.979 0.132583 -3.36639 0
M  V30 4835 O 471.509 1.11539 -3.85904 0
M  V30 4836 N 469.715 0.184013 -2.90017 0
M  V30 4837 H 469.262 -0.616415 -2.50116 0
M  V30 4838 H 469.22 1.04956 -2.96364 0
M  V30 4839 N 472.992 0.995999 -1.22138 0
M  V30 4840 C 474.238 1.73767 -1.04561 0
M  V30 4841 C 474.571 1.89633 0.418698 0
M  V30 4842 O 473.846 1.43723 1.3105 0
M  V30 4843 C 474.129 3.14505 -1.75382 0
M  V30 4844 C 473.982 3.06306 -3.29388 0
M  V30 4845 C 475.301 4.13615 -1.50369 0
M  V30 4846 H 472.42 0.630728 -0.38125 0
M  V30 4847 H 475.062 1.16057 -1.50435 0
M  V30 4848 H 473.212 3.63775 -1.36383 0
M  V30 4849 H 474.884 2.64681 -3.77812 0
M  V30 4850 H 473.127 2.43186 -3.59226 0
M  V30 4851 H 473.798 4.05884 -3.74116 0
M  V30 4852 H 476.274 3.73089 -1.84239 0
M  V30 4853 H 475.15 5.10212 -2.02421 0
M  V30 4854 H 475.411 4.39949 -0.435611 0
M  V30 4855 N 474.47 1.03057 1.19235 0
M  V30 4856 C 475.747 0.642608 1.84743 0
M  V30 4857 C 476.127 -0.878577 1.91948 0
M  V30 4858 O 475.475 -1.77597 1.43776 0
M  V30 4859 C 475.685 1.30665 3.23616 0
M  V30 4860 C 477.033 1.43098 3.9976 0
M  V30 4861 O 478.057 1.26396 3.3302 0
M  V30 4862 O 476.916 1.70223 5.19313 0
M  V30 4863 H 474.01 0.223573 0.796206 0
M  V30 4864 H 476.556 1.12883 1.26711 0
M  V30 4865 H 475.328 2.34544 3.13217 0
M  V30 4866 H 474.951 0.808405 3.89295 0
M  V30 4867 N 475.948 -1.35272 0.808662 0
M  V30 4868 C 476.88 -2.28507 0.178149 0
M  V30 4869 C 477.893 -1.50377 -0.623754 0
M  V30 4870 O 479.082 -1.72583 -0.455774 0
M  V30 4871 C 476.182 -3.30038 -0.769959 0
M  V30 4872 C 475.355 -4.37398 -0.0139749 0
M  V30 4873 C 474.414 -5.18775 -0.880875 0
M  V30 4874 O 473.44 -5.68236 -0.331059 0
M  V30 4875 N 474.642 -5.37087 -2.20267 0
M  V30 4876 H 477.407 -2.83255 0.979106 0
M  V30 4877 H 474.968 -1.47643 0.664308 0
M  V30 4878 H 476.96 -3.81371 -1.35418 0
M  V30 4879 H 475.53 -2.75789 -1.47171 0
M  V30 4880 H 474.75 -3.86971 0.751468 0
M  V30 4881 H 476.038 -5.06268 0.506965 0
M  V30 4882 H 475.436 -4.9855 -2.67328 0
M  V30 4883 H 473.993 -5.91593 -2.73608 0
M  V30 4884 N 477.426 -0.562348 -1.47226 0
M  V30 4885 C 478.389 0.172056 -2.28553 0
M  V30 4886 C 479.389 0.837928 -1.37242 0
M  V30 4887 O 480.579 0.693001 -1.59822 0
M  V30 4888 C 477.711 1.25223 -3.17068 0
M  V30 4889 H 478.904 -0.542401 -2.94954 0
M  V30 4890 H 476.457 -0.319493 -1.53 0
M  V30 4891 H 477.192 1.99892 -2.55369 0
M  V30 4892 H 476.977 0.779515 -3.84273 0
M  V30 4893 H 478.467 1.76791 -3.78332 0
M  V30 4894 N 478.904 1.54736 -0.299062 0
M  V30 4895 C 480.15 2.00397 0.311244 0
M  V30 4896 C 480.483 1.18716 1.53688 0
M  V30 4897 O 479.758 0.263154 1.92712 0
M  V30 4898 C 480.041 3.53817 0.669761 0
M  V30 4899 C 479.894 4.46239 -0.564882 0
M  V30 4900 C 481.213 4.13856 1.49702 0
M  V30 4901 H 478.332 0.728493 0.111653 0
M  V30 4902 H 480.974 1.85506 -0.410774 0
M  V30 4903 H 479.124 3.66637 1.28491 0
M  V30 4904 H 480.796 4.45328 -1.20337 0
M  V30 4905 H 479.039 4.16916 -1.19849 0
M  V30 4906 H 479.71 5.5134 -0.269918 0
M  V30 4907 H 482.186 4.04461 0.977284 0
M  V30 4908 H 481.062 5.21365 1.71666 0
M  V30 4909 H 481.323 3.65608 2.48563 0
M  V30 4910 N 480.382 0.0267497 1.57577 0
M  V30 4911 C 481.345 -0.940916 2.08996 0
M  V30 4912 C 482.345 -1.25561 1.00455 0
M  V30 4913 O 483.535 -1.19634 1.26623 0
M  V30 4914 C 480.667 -2.25814 2.55384 0
M  V30 4915 H 481.86 -0.495628 2.95776 0
M  V30 4916 H 479.413 -0.221241 1.54726 0
M  V30 4917 H 480.148 -2.74976 1.71926 0
M  V30 4918 H 479.933 -2.04285 3.34679 0
M  V30 4919 H 481.423 -2.95178 2.95398 0
M  V30 4920 N 481.861 -1.55662 -0.24637 0
M  V30 4921 C 483.109 -1.77168 -0.972411 0
M  V30 4922 C 483.43 -0.590827 -1.85834 0
M  V30 4923 O 482.7 0.393365 -1.9191 0
M  V30 4924 H 481.28 -0.653405 -0.362038 0
M  V30 4925 H 483.942 -1.93101 -0.264189 0
M  V30 4926 H 483.038 -2.68335 -1.59382 0
M  V30 4927 N 483.339 0.512053 -1.4905 0
M  V30 4928 C 484.302 1.59704 -1.64399 0
M  V30 4929 C 485.302 1.52285 -0.516317 0
M  V30 4930 O 486.492 1.55635 -0.782527 0
M  V30 4931 C 483.624 2.9935 -1.63102 0
M  V30 4932 H 484.817 1.47428 -2.61161 0
M  V30 4933 H 482.37 0.735469 -1.37915 0
M  V30 4934 H 483.105 3.17116 -0.678836 0
M  V30 4935 H 482.89 3.06144 -2.44986 0
M  V30 4936 H 484.38 3.782 -1.77072 0
M  V30 4937 N 484.817 1.37938 0.762283 0
M  V30 4938 C 485.75 1.2884 1.88349 0
M  V30 4939 C 486.728 0.167084 1.61739 0
M  V30 4940 O 487.912 0.34292 1.85355 0
M  V30 4941 C 485.039 0.994257 3.23778 0
M  V30 4942 C 484.085 2.13376 3.69287 0
M  V30 4943 S 484.918 3.75439 3.81845 0
M  V30 4944 C 486.074 3.48195 5.20107 0
M  V30 4945 H 486.307 2.23736 1.95779 0
M  V30 4946 H 483.84 1.23672 0.924368 0
M  V30 4947 H 485.798 0.83138 4.01993 0
M  V30 4948 H 484.459 0.0626251 3.14038 0
M  V30 4949 H 483.652 1.88319 4.67495 0
M  V30 4950 H 483.254 2.25726 2.98201 0
M  V30 4951 H 485.546 3.0377 6.05583 0
M  V30 4952 H 486.489 4.45765 5.50181 0
M  V30 4953 H 486.897 2.82905 4.88493 0
M  V30 4954 N 486.295 -0.989507 1.22664 0
M  V30 4955 C 487.258 -2.06183 1.00106 0
M  V30 4956 C 488.258 -1.60765 -0.0337726 0
M  V30 4957 O 489.448 -1.72989 0.205072 0
M  V30 4958 C 486.58 -3.37021 0.51279 0
M  V30 4959 H 487.773 -2.27629 1.95256 0
M  V30 4960 H 485.326 -1.16158 1.0458 0
M  V30 4961 H 486.061 -3.21261 -0.442917 0
M  V30 4962 H 485.846 -3.71323 1.25942 0
M  V30 4963 H 487.336 -4.1591 0.375315 0
M  V30 4964 N 487.773 -1.03688 -1.18687 0
M  V30 4965 C 488.998 -0.757819 -1.93059 0
M  V30 4966 C 489.423 0.678353 -1.75442 0
M  V30 4967 O 488.781 1.46938 -1.06203 0
M  V30 4968 C 488.829 -1.12423 -3.42627 0
M  V30 4969 O 487.933 -0.247505 -4.11657 0
M  V30 4970 H 487.274 -0.279245 -0.602427 0
M  V30 4971 H 489.804 -1.3857 -1.5053 0
M  V30 4972 H 489.814 -1.08454 -3.93322 0
M  V30 4973 H 488.489 -2.17049 -3.54771 0
M  V30 4974 H 487.066 -0.34649 -3.71287 0
M  V30 4975 N 489.251 1.34841 -0.815825 0
M  V30 4976 C 490.198 2.29644 -0.230664 0
M  V30 4977 C 491.168 1.53253 0.640533 0
M  V30 4978 O 492.353 1.81653 0.583672 0
M  V30 4979 C 489.493 3.39715 0.607275 0
M  V30 4980 C 488.606 4.31056 -0.28538 0
M  V30 4981 C 487.741 5.28225 0.561446 0
M  V30 4982 C 486.78 6.11204 -0.331035 0
M  V30 4983 N 485.917 7.00483 0.476302 0
M  V30 4984 H 490.757 2.79095 -1.0445 0
M  V30 4985 H 488.294 1.37351 -0.526595 0
M  V30 4986 H 490.252 4.02208 1.10835 0
M  V30 4987 H 488.882 2.91517 1.38629 0
M  V30 4988 H 487.934 3.69487 -0.904621 0
M  V30 4989 H 489.246 4.89239 -0.97193 0
M  V30 4990 H 488.4 5.96135 1.12728 0
M  V30 4991 H 487.139 4.70562 1.28153 0
M  V30 4992 H 486.144 5.42232 -0.909069 0
M  V30 4993 H 487.369 6.70947 -1.04912 0
M  V30 4994 H 485.315 6.45296 1.18019 0
M  V30 4995 H 485.232 7.55847 -0.152008 0
M  V30 4996 H 486.5 7.7273 1.02512 0
M  V30 4997 N 490.729 0.570148 1.46925 0
M  V30 4998 C 491.976 0.0509529 2.02436 0
M  V30 4999 C 492.304 -1.30405 1.44308 0
M  V30 5000 O 491.559 -1.86493 0.593198 0
M  V30 5001 C 491.858 -0.0780336 3.57315 0
M  V30 5002 C 491.524 1.20775 4.34424 0
M  V30 5003 C 490.186 1.56004 4.5521 0
M  V30 5004 C 492.538 2.0592 4.78797 0
M  V30 5005 C 489.866 2.76201 5.17619 0
M  V30 5006 C 492.218 3.25332 5.42533 0
M  V30 5007 C 490.882 3.60859 5.61549 0
M  V30 5008 H 490.152 0.018645 0.740765 0
M  V30 5009 H 492.799 0.744262 1.76445 0
M  V30 5010 H 491.104 -0.854394 3.82371 0
M  V30 5011 H 492.801 -0.495312 3.97929 0
M  V30 5012 H 489.391 0.923469 4.18533 0
M  V30 5013 H 493.575 1.80008 4.62505 0
M  V30 5014 H 488.831 3.0388 5.30535 0
M  V30 5015 H 493.005 3.91586 5.75876 0
M  V30 5016 H 490.632 4.54088 6.09678 0
M  V30 5017 N 492.207 -1.54576 0.307264 0
M  V30 5018 C 493.623 -1.59534 -0.0459251 0
M  V30 5019 C 493.823 -1.32414 -1.51884 0
M  V30 5020 O 492.879 -1.1006 -2.27251 0
M  V30 5021 C 494.192 -2.98566 0.357649 0
M  V30 5022 C 495.74 -3.11491 0.306937 0
M  V30 5023 C 496.215 -4.52842 0.685427 0
M  V30 5024 N 497.706 -4.58782 0.638203 0
M  V30 5025 C 498.441 -5.66238 0.903458 0
M  V30 5026 N 497.937 -6.81703 1.23501 0
M  V30 5027 N 499.73 -5.55937 0.830102 0
M  V30 5028 H 491.881 -1.70464 1.26712 0
M  V30 5029 H 494.144 -0.79647 0.514139 0
M  V30 5030 H 493.85 -3.23356 1.38325 0
M  V30 5031 H 493.724 -3.76117 -0.285565 0
M  V30 5032 H 496.111 -2.86446 -0.709424 0
M  V30 5033 H 496.192 -2.36081 0.984861 0
M  V30 5034 H 495.836 -4.78618 1.69963 0
M  V30 5035 H 495.766 -5.26598 -0.0146346 0
M  V30 5036 H 498.257 -3.75849 0.393138 0
M  V30 5037 H 498.57 -7.59582 1.42322 0
M  V30 5038 H 496.915 -6.8324 1.27311 0
M  V30 5039 H 500.106 -4.64608 0.570693 0
M  V30 5040 H 500.279 -6.39597 1.04019 0
M  V30 5041 N 493.685 -0.035106 -1.57561 0
M  V30 5042 C 494.633 0.962707 -2.11742 0
M  V30 5043 C 495.627 1.33296 -1.0454 0
M  V30 5044 O 496.833 1.31449 -1.22968 0
M  V30 5045 H 493.208 0.32826 -0.676572 0
M  V30 5046 H 495.179 0.48048 -2.94506 0
M  V30 5047 C 493.928 2.23388 -2.66445 0
M  V30 5048 H 493.251 1.95774 -3.48587 0
M  V30 5049 H 494.691 2.91402 -3.07995 0
M  V30 5050 C 493.15 2.96769 -1.59467 0
M  V30 5051 O 493.68 3.89105 -0.998 0
M  V30 5052 N 491.886 2.59212 -1.31369 0
M  V30 5053 H 491.433 1.84202 -1.80076 0
M  V30 5054 H 491.391 3.08618 -0.600173 0
M  V30 5055 N 495.163 1.55791 0.238111 0
M  V30 5056 C 496.391 1.82098 0.982233 0
M  V30 5057 C 496.806 0.612025 1.78605 0
M  V30 5058 O 496.163 -0.419381 1.77616 0
M  V30 5059 C 496.214 3.0673 1.91309 0
M  V30 5060 O 495.935 4.2296 1.14179 0
M  V30 5061 C 497.436 3.45903 2.77248 0
M  V30 5062 H 494.656 0.605748 0.288635 0
M  V30 5063 H 497.2 2.02862 0.258341 0
M  V30 5064 H 495.355 2.87991 2.59114 0
M  V30 5065 H 495.769 4.93653 1.7722 0
M  V30 5066 H 497.243 4.36189 3.38295 0
M  V30 5067 H 497.72 2.66891 3.48806 0
M  V30 5068 H 498.326 3.67024 2.14881 0
M  V30 5069 N 496.642 -0.504142 1.49319 0
M  V30 5070 C 497.89 -1.25598 1.58334 0
M  V30 5071 C 498.211 -1.93114 0.270538 0
M  V30 5072 O 497.481 -1.82585 -0.709891 0
M  V30 5073 H 496.061 -0.466571 0.58337 0
M  V30 5074 H 498.723 -0.584547 1.85928 0
M  V30 5075 H 497.819 -2.02159 2.37778 0
M  V30 5076 N 498.12 -1.38341 -0.754957 0
M  V30 5077 C 499.052 -1.31347 -1.87831 0
M  V30 5078 C 500.065 -0.225955 -1.61224 0
M  V30 5079 O 501.254 -0.48341 -1.7183 0
M  V30 5080 C 498.354 -1.01201 -3.23437 0
M  V30 5081 C 497.527 -2.20834 -3.77559 0
M  V30 5082 C 496.586 -1.87454 -4.91678 0
M  V30 5083 O 495.612 -2.59934 -5.06382 0
M  V30 5084 N 496.814 -0.828682 -5.74555 0
M  V30 5085 H 499.579 -2.28147 -1.94342 0
M  V30 5086 H 497.14 -1.32184 -0.934828 0
M  V30 5087 H 499.132 -0.769249 -3.97322 0
M  V30 5088 H 497.702 -0.132011 -3.12321 0
M  V30 5089 H 496.922 -2.61184 -2.95256 0
M  V30 5090 H 498.21 -3.00678 -4.10451 0
M  V30 5091 H 497.608 -0.227591 -5.65242 0
M  V30 5092 H 496.165 -0.645802 -6.48593 0
M  V30 5093 N 499.598 0.982988 -1.23187 0
M  V30 5094 C 500.826 1.75921 -1.08901 0
M  V30 5095 C 501.241 1.85341 0.359719 0
M  V30 5096 O 500.598 1.33072 1.24892 0
M  V30 5097 C 500.649 3.18742 -1.70545 0
M  V30 5098 O 500.37 3.09814 -3.09753 0
M  V30 5099 C 501.871 4.1277 -1.61667 0
M  V30 5100 H 499.091 0.552166 -0.381252 0
M  V30 5101 H 501.635 1.23516 -1.62985 0
M  V30 5102 H 499.79 3.68182 -1.20501 0
M  V30 5103 H 500.204 3.99703 -3.39614 0
M  V30 5104 H 501.678 5.10697 -2.09506 0
M  V30 5105 H 502.155 4.3542 -0.575009 0
M  V30 5106 H 502.761 3.69232 -2.11064 0
M  V30 5107 N 501.076 1.04316 1.18135 0
M  V30 5108 C 502.316 0.756937 1.89868 0
M  V30 5109 C 502.68 -0.702609 1.78682 0
M  V30 5110 O 503.881 -1.10255 2.45148 0
M  V30 5111 C 502.152 1.21327 3.36176 0
M  V30 5112 S 503.711 1.05307 4.25976 0
M  V30 5113 H 500.529 0.275143 0.655604 0
M  V30 5114 H 503.131 1.33597 1.42731 0
M  V30 5115 H 501.835 2.27086 3.41848 0
M  V30 5116 H 501.366 0.628137 3.88353 0
M  V30 5117 H 503.381 -0.0280093 4.96192 0
M  V30 5118 N 502.554 -1.34406 0.822964 0
M  V30 5119 C 503.8 -1.98578 0.411666 0
M  V30 5120 C 504.133 -1.65093 -1.02264 0
M  V30 5121 O 503.408 -0.92258 -1.71227 0
M  V30 5122 C 503.691 -3.54823 0.614235 0
M  V30 5123 C 503.544 -3.9805 2.09466 0
M  V30 5124 C 504.863 -4.40071 0.050221 0
M  V30 5125 H 501.982 -0.721355 0.151047 0
M  V30 5126 H 504.624 -1.59301 1.03554 0
M  V30 5127 H 502.774 -3.88411 0.0831774 0
M  V30 5128 H 504.446 -3.74795 2.68936 0
M  V30 5129 H 502.689 -3.4836 2.5851 0
M  V30 5130 H 503.36 -5.06819 2.18721 0
M  V30 5131 H 505.836 -4.13037 0.503953 0
M  V30 5132 H 504.712 -5.48452 0.221759 0
M  V30 5133 H 504.973 -4.29576 -1.04482 0
M  V30 5134 N 504.032 -0.577932 -1.46621 0
M  V30 5135 C 505.272 -0.0643097 -2.04299 0
M  V30 5136 C 505.636 1.26967 -1.44026 0
M  V30 5137 O 506.837 1.87224 -1.92875 0
M  V30 5138 C 505.108 0.00547588 -3.574 0
M  V30 5139 S 506.667 0.462216 -4.36359 0
M  V30 5140 H 503.485 -0.0351573 -0.71013 0
M  V30 5141 H 506.087 -0.76935 -1.79725 0
M  V30 5142 H 504.791 -0.969423 -3.98786 0
M  V30 5143 H 504.322 0.733435 -3.86503 0
M  V30 5144 H 506.337 1.71791 -4.65513 0
M  V30 5145 N 505.51 1.54411 -0.315457 0
M  V30 5146 C 506.735 2.05299 0.294496 0
M  V30 5147 C 507.16 1.19052 1.4563 0
M  V30 5148 O 506.518 0.197804 1.80218 0
M  V30 5149 C 506.566 3.5345 0.714549 0
M  V30 5150 O 505.67 3.70175 1.81781 0
M  V30 5151 H 505.011 0.661743 0.0547019 0
M  V30 5152 H 507.541 1.99327 -0.461508 0
M  V30 5153 H 507.551 3.9557 0.999426 0
M  V30 5154 H 506.226 4.1568 -0.135244 0
M  V30 5155 H 504.803 3.3996 1.53236 0
M  V30 5156 N 506.988 0.0434614 1.5754 0
M  V30 5157 C 507.936 -0.951465 2.1225 0
M  V30 5158 C 508.93 -1.3274 1.05245 0
M  V30 5159 O 510.136 -1.30795 1.23663 0
M  V30 5160 H 506.511 -0.324667 0.678303 0
M  V30 5161 H 508.482 -0.464855 2.94757 0
M  V30 5162 C 507.231 -2.21972 2.67626 0
M  V30 5163 H 506.554 -1.93923 3.4962 0
M  V30 5164 H 507.994 -2.89765 3.09536 0
M  V30 5165 C 506.453 -2.95919 1.61038 0
M  V30 5166 O 506.983 -3.8857 1.01862 0
M  V30 5167 N 505.189 -2.58511 1.32741 0
M  V30 5168 H 504.736 -1.83244 1.81051 0
M  V30 5169 H 504.694 -3.08296 0.616531 0
M  V30 5170 N 508.466 -1.55915 -0.229846 0
M  V30 5171 C 509.398 -1.88209 -1.30805 0
M  V30 5172 C 510.411 -0.769672 -1.43457 0
M  V30 5173 O 511.6 -1.04792 -1.44502 0
M  V30 5174 C 508.7 -2.06829 -2.68468 0
M  V30 5175 C 507.873 -3.37798 -2.77869 0
M  V30 5176 C 506.932 -3.45952 -3.96489 0
M  V30 5177 O 505.958 -4.19043 -3.85216 0
M  V30 5178 N 507.16 -2.76488 -5.10426 0
M  V30 5179 H 509.925 -2.81286 -1.03431 0
M  V30 5180 H 507.486 -1.5636 -0.41991 0
M  V30 5181 H 509.478 -2.09608 -3.46189 0
M  V30 5182 H 508.048 -1.20416 -2.88477 0
M  V30 5183 H 507.268 -3.4719 -1.86689 0
M  V30 5184 H 508.556 -4.24091 -2.81113 0
M  V30 5185 H 507.954 -2.16868 -5.2248 0
M  V30 5186 H 506.511 -2.84938 -5.8622 0
M  V30 5187 N 509.944 0.496216 -1.49584 0
M  V30 5188 C 511.191 1.25003 -1.59312 0
M  V30 5189 C 511.519 1.92445 -0.28198 0
M  V30 5190 O 510.774 1.81557 0.730452 0
M  V30 5191 C 511.073 2.3359 -2.705 0
M  V30 5192 C 510.739 1.83574 -4.11839 0
M  V30 5193 C 509.401 1.69653 -4.50302 0
M  V30 5194 C 511.753 1.46193 -5.00277 0
M  V30 5195 C 509.081 1.16736 -5.74969 0
M  V30 5196 C 511.433 0.947265 -6.25468 0
M  V30 5197 C 510.097 0.794485 -6.62755 0
M  V30 5198 H 509.367 0.45742 -0.582965 0
M  V30 5199 H 512.014 0.549996 -1.83432 0
M  V30 5200 H 510.319 3.09401 -2.40371 0
M  V30 5201 H 512.016 2.91627 -2.75235 0
M  V30 5202 H 508.606 1.9537 -3.81482 0
M  V30 5203 H 512.79 1.55793 -4.71214 0
M  V30 5204 H 508.046 1.03623 -6.02555 0
M  V30 5205 H 512.22 0.648846 -6.93371 0
M  V30 5206 H 509.847 0.382271 -7.59238 0
M  V30 5207 N 511.423 1.38739 0.74761 0
M  V30 5208 C 512.353 1.39173 1.87492 0
M  V30 5209 C 513.334 0.256794 1.6815 0
M  V30 5210 O 514.519 0.460762 1.88655 0
M  V30 5211 C 511.649 1.22197 3.25093 0
M  V30 5212 C 510.603 2.32957 3.59047 0
M  V30 5213 C 509.929 2.01082 4.95449 0
M  V30 5214 C 511.229 3.75237 3.6331 0
M  V30 5215 H 512.923 2.3351 1.87386 0
M  V30 5216 H 510.469 1.12399 0.900134 0
M  V30 5217 H 512.422 1.21124 4.03617 0
M  V30 5218 H 511.146 0.243241 3.25693 0
M  V30 5219 H 509.805 2.33226 2.82845 0
M  V30 5220 H 509.453 1.01678 4.92616 0
M  V30 5221 H 509.153 2.75267 5.19136 0
M  V30 5222 H 510.677 2.01638 5.76346 0
M  V30 5223 H 512.091 3.76966 4.31937 0
M  V30 5224 H 510.488 4.48677 3.98509 0
M  V30 5225 H 511.558 4.07122 2.634 0
M  V30 5226 N 512.901 -0.976442 1.23707 0
M  V30 5227 C 514.147 -1.72081 1.07312 0
M  V30 5228 C 514.48 -1.90275 -0.388476 0
M  V30 5229 O 513.755 -1.4579 -1.28746 0
M  V30 5230 C 514.038 -3.11675 1.80363 0
M  V30 5231 C 513.891 -3.01027 3.3422 0
M  V30 5232 C 515.21 -4.1117 1.5693 0
M  V30 5233 H 512.329 -0.624583 0.391236 0
M  V30 5234 H 514.971 -1.13649 1.52263 0
M  V30 5235 H 513.121 -3.61559 1.42153 0
M  V30 5236 H 514.793 -2.58637 3.81975 0
M  V30 5237 H 513.036 -2.3744 3.63049 0
M  V30 5238 H 513.707 -3.9988 3.80525 0
M  V30 5239 H 516.183 -3.7011 1.90151 0
M  V30 5240 H 515.059 -5.06928 2.10513 0
M  V30 5241 H 515.32 -4.392 0.505548 0
M  V30 5242 N 514.379 -1.04941 -1.1758 0
M  V30 5243 C 515.311 -0.606174 -2.21039 0
M  V30 5244 C 516.324 0.328763 -1.59446 0
M  V30 5245 O 517.513 0.121895 -1.78083 0
M  V30 5246 C 514.613 0.133294 -3.38638 0
M  V30 5247 C 513.786 -0.811711 -4.29802 0
M  V30 5248 C 512.845 -0.113958 -5.26077 0
M  V30 5249 O 511.871 -0.747237 -5.64274 0
M  V30 5250 N 513.073 1.14953 -5.69004 0
M  V30 5251 H 515.838 -1.49606 -2.59689 0
M  V30 5252 H 513.399 -0.930997 -1.32454 0
M  V30 5253 H 515.391 0.610144 -4.00074 0
M  V30 5254 H 513.961 0.924816 -2.98607 0
M  V30 5255 H 513.181 -1.46824 -3.65837 0
M  V30 5256 H 514.469 -1.45326 -4.87604 0
M  V30 5257 H 513.867 1.68441 -5.40041 0
M  V30 5258 H 512.424 1.57049 -6.32597 0
M  V30 5259 N 515.857 1.33968 -0.830081 0
M  V30 5260 C 517.273 1.51003 -0.516742 0
M  V30 5261 C 517.473 1.77286 0.957694 0
M  V30 5262 O 516.529 1.82797 1.74188 0
M  V30 5263 C 517.842 2.67036 -1.38247 0
M  V30 5264 C 519.39 2.80919 -1.38034 0
M  V30 5265 C 519.865 4.00004 -2.23071 0
M  V30 5266 N 521.356 4.07224 -2.20733 0
M  V30 5267 C 522.091 4.98541 -2.83275 0
M  V30 5268 N 521.587 5.95033 -3.54835 0
M  V30 5269 N 523.38 4.91469 -2.72791 0
M  V30 5270 H 515.531 1.15168 -1.78466 0
M  V30 5271 H 517.794 0.565443 -0.760906 0
M  V30 5272 H 517.5 2.54266 -2.42985 0
M  V30 5273 H 517.374 3.62226 -1.05225 0
M  V30 5274 H 519.761 2.93127 -0.340713 0
M  V30 5275 H 519.842 1.86517 -1.75057 0
M  V30 5276 H 519.486 3.88557 -3.27087 0
M  V30 5277 H 519.416 4.93634 -1.83394 0
M  V30 5278 H 521.907 3.38162 -1.68687 0
M  V30 5279 H 522.22 6.61357 -3.99784 0
M  V30 5280 H 520.565 5.95135 -3.58942 0
M  V30 5281 H 523.756 4.15048 -2.16456 0
M  V30 5282 H 523.929 5.62439 -3.21818 0
M  V30 5283 N 517.335 0.585699 1.46312 0
M  V30 5284 C 518.583 0.072278 2.01971 0
M  V30 5285 C 518.904 -1.29345 1.45928 0
M  V30 5286 O 518.174 -1.84973 0.645109 0
M  V30 5287 H 516.754 0.023729 0.746623 0
M  V30 5288 H 519.416 0.762155 1.7938 0
M  V30 5289 H 518.512 0.00552767 3.121 0
M  V30 5290 N 518.813 -1.54241 0.323641 0
M  V30 5291 C 520.062 -1.9975 -0.279806 0
M  V30 5292 C 520.375 -1.2156 -1.5324 0
M  V30 5293 O 521.581 -1.57447 -2.21185 0
M  V30 5294 C 520.037 -3.55686 -0.549115 0
M  V30 5295 C 519.645 -4.4271 0.686432 0
M  V30 5296 C 521.389 -4.09663 -1.11251 0
M  V30 5297 C 519.296 -5.90119 0.389022 0
M  V30 5298 H 518.226 -0.746177 -0.10833 0
M  V30 5299 H 520.877 -1.78248 0.435877 0
M  V30 5300 H 519.259 -3.73176 -1.32499 0
M  V30 5301 H 520.433 -4.36996 1.46188 0
M  V30 5302 H 518.748 -3.99623 1.17005 0
M  V30 5303 H 521.345 -5.17386 -1.34965 0
M  V30 5304 H 521.688 -3.61651 -2.06191 0
M  V30 5305 H 522.221 -3.95806 -0.39782 0
M  V30 5306 H 518.96 -6.42326 1.30759 0
M  V30 5307 H 518.48 -5.98785 -0.348722 0
M  V30 5308 H 520.159 -6.47 -0.0011164 0
M  V30 5309 N 520.291 -0.0518155 -1.57515 0
M  V30 5310 C 521.241 0.932017 -2.0808 0
M  V30 5311 C 522.225 1.27141 -0.986098 0
M  V30 5312 O 523.417 1.25373 -1.24943 0
M  V30 5313 C 520.546 2.20665 -2.62986 0
M  V30 5314 C 519.632 1.89462 -3.79427 0
M  V30 5315 N 520.023 1.28621 -4.89173 0
M  V30 5316 C 518.321 2.19327 -3.88345 0
M  V30 5317 C 519.022 1.15062 -5.70207 0
M  V30 5318 N 517.998 1.65372 -5.17835 0
M  V30 5319 H 521.8 0.456964 -2.90326 0
M  V30 5320 H 519.314 0.152619 -1.61681 0
M  V30 5321 H 521.311 2.92044 -2.97516 0
M  V30 5322 H 519.971 2.68776 -1.8218 0
M  V30 5323 H 520.982 0.958341 -5.08956 0
M  V30 5324 H 517.659 2.69955 -3.18482 0
M  V30 5325 H 519.049 0.678243 -6.68468 0
M  V30 5326 N 521.769 1.56035 0.221574 0
M  V30 5327 C 523.046 1.69837 0.970301 0
M  V30 5328 C 523.426 0.599065 2.02421 0
M  V30 5329 O 522.774 -0.393929 2.25079 0
M  V30 5330 C 522.984 3.11148 1.58076 0
M  V30 5331 C 524.332 3.70555 2.07302 0
M  V30 5332 O 525.356 3.14109 1.6797 0
M  V30 5333 O 524.215 4.69562 2.79596 0
M  V30 5334 H 521.309 0.691727 0.453257 0
M  V30 5335 H 523.855 1.68353 0.213358 0
M  V30 5336 H 522.627 3.82617 0.819759 0
M  V30 5337 H 522.25 3.16749 2.40324 0
M  V30 5338 N 523.247 -0.488276 1.49845 0
M  V30 5339 C 524.21 -1.57069 1.66919 0
M  V30 5340 C 525.21 -1.51445 0.540479 0
M  V30 5341 O 526.4 -1.5437 0.807188 0
M  V30 5342 C 523.532 -2.96718 1.67844 0
M  V30 5343 H 524.725 -1.43254 2.63474 0
M  V30 5344 H 522.278 -0.713435 1.39068 0
M  V30 5345 H 523.013 -3.15996 0.7292 0
M  V30 5346 H 522.798 -3.02208 2.49826 0
M  V30 5347 H 524.288 -3.75335 1.83066 0
M  V30 5348 N 524.725 -1.39134 -0.740242 0
M  V30 5349 C 525.972 -1.36071 -1.49969 0
M  V30 5350 C 526.3 0.0450245 -1.94448 0
M  V30 5351 O 525.555 1.02482 -1.66721 0
M  V30 5352 C 525.854 -2.27457 -2.75678 0
M  V30 5353 C 525.52 -3.75185 -2.50094 0
M  V30 5354 C 524.182 -4.15439 -2.42825 0
M  V30 5355 C 526.534 -4.68643 -2.28086 0
M  V30 5356 C 523.862 -5.4722 -2.11584 0
M  V30 5357 C 526.214 -6.00695 -1.98363 0
M  V30 5358 C 524.878 -6.40018 -1.8956 0
M  V30 5359 H 524.148 -0.497921 -0.548777 0
M  V30 5360 H 526.795 -1.71599 -0.85007 0
M  V30 5361 H 525.1 -1.8503 -3.45356 0
M  V30 5362 H 526.797 -2.22384 -3.33686 0
M  V30 5363 H 523.387 -3.43279 -2.56627 0
M  V30 5364 H 527.571 -4.3838 -2.32672 0
M  V30 5365 H 522.827 -5.76615 -2.03287 0
M  V30 5366 H 527.001 -6.72644 -1.80341 0
M  V30 5367 H 524.628 -7.42051 -1.65117 0
M  V30 5368 N 526.204 0.969867 -1.24223 0
M  V30 5369 C 527.45 1.7151 -1.08223 0
M  V30 5370 C 527.783 1.90478 0.37838 0
M  V30 5371 O 527.058 1.4647 1.27971 0
M  V30 5372 C 527.341 3.10714 -1.82013 0
M  V30 5373 C 527.194 2.9925 -3.35811 0
M  V30 5374 C 528.513 4.10332 -1.59108 0
M  V30 5375 H 525.632 0.622499 -0.394543 0
M  V30 5376 H 528.274 1.1284 -1.52863 0
M  V30 5377 H 526.424 3.608 -1.44068 0
M  V30 5378 H 528.096 2.56608 -3.83341 0
M  V30 5379 H 526.339 2.35512 -3.64303 0
M  V30 5380 H 527.01 3.97857 -3.82641 0
M  V30 5381 H 529.486 3.69097 -1.92111 0
M  V30 5382 H 528.362 5.05804 -2.13198 0
M  V30 5383 H 528.623 4.38926 -0.528832 0
M  V30 5384 N 527.682 1.05563 1.17022 0
M  V30 5385 C 528.629 0.659893 2.21165 0
M  V30 5386 C 529.599 -0.339813 1.62587 0
M  V30 5387 O 530.784 -0.230378 1.89404 0
M  V30 5388 C 527.924 0.0447297 3.45071 0
M  V30 5389 C 527.037 1.09372 4.17926 0
M  V30 5390 C 526.172 0.445481 5.29329 0
M  V30 5391 C 525.211 1.47852 5.93975 0
M  V30 5392 N 524.348 0.854172 6.96885 0
M  V30 5393 H 529.188 1.55243 2.54369 0
M  V30 5394 H 526.725 0.776336 1.24946 0
M  V30 5395 H 528.683 -0.329404 4.15898 0
M  V30 5396 H 527.313 -0.811244 3.1244 0
M  V30 5397 H 526.365 1.58564 3.45777 0
M  V30 5398 H 527.677 1.87773 4.62107 0
M  V30 5399 H 526.831 0.0179688 6.06697 0
M  V30 5400 H 525.57 -0.370481 4.86291 0
M  V30 5401 H 524.575 1.91601 5.15334 0
M  V30 5402 H 525.8 2.29645 6.39093 0
M  V30 5403 H 523.746 0.0587882 6.55974 0
M  V30 5404 H 523.663 1.57567 7.39397 0
M  V30 5405 H 524.931 0.451559 7.78191 0
M  V30 5406 N 529.16 -1.33526 0.837174 0
M  V30 5407 C 530.123 -2.27551 0.274421 0
M  V30 5408 C 531.123 -1.50886 -0.555881 0
M  V30 5409 O 532.313 -1.70227 -0.369918 0
M  V30 5410 C 529.445 -3.35332 -0.613605 0
M  V30 5411 H 530.638 -2.78837 1.10408 0
M  V30 5412 H 528.191 -1.439 0.610126 0
M  V30 5413 H 528.926 -2.89285 -1.46577 0
M  V30 5414 H 528.711 -3.92095 -0.0195341 0
M  V30 5415 H 530.201 -4.05433 -1.00068 0
M  V30 5416 N 530.638 -0.59345 -1.46 0
M  V30 5417 C 531.885 -0.0831523 -2.02329 0
M  V30 5418 C 532.213 1.28093 -1.46364 0
M  V30 5419 O 531.468 1.85526 -0.622793 0
M  V30 5420 C 531.767 0.021178 -3.57394 0
M  V30 5421 C 531.433 -1.27671 -4.32448 0
M  V30 5422 C 530.095 -1.63227 -4.5267 0
M  V30 5423 C 532.447 -2.13511 -4.7546 0
M  V30 5424 C 529.775 -2.84401 -5.1316 0
M  V30 5425 C 532.127 -3.33922 -5.37289 0
M  V30 5426 C 530.791 -3.69747 -5.55737 0
M  V30 5427 H 530.061 -0.0304276 -0.740375 0
M  V30 5428 H 532.708 -0.772239 -1.75239 0
M  V30 5429 H 531.013 0.793454 -3.83682 0
M  V30 5430 H 532.71 0.431942 -3.98667 0
M  V30 5431 H 529.3 -0.989937 -4.17011 0
M  V30 5432 H 533.484 -1.87344 -4.59582 0
M  V30 5433 H 528.74 -3.12282 -5.25633 0
M  V30 5434 H 532.914 -4.00698 -5.69574 0
M  V30 5435 H 530.541 -4.6373 -6.02377 0
M  V30 5436 N 532.116 1.54067 -0.331816 0
M  V30 5437 C 533.079 2.23275 0.517768 0
M  V30 5438 C 534.079 1.22897 1.03697 0
M  V30 5439 O 535.269 1.47419 0.928084 0
M  V30 5440 C 532.401 2.94326 1.72004 0
M  V30 5441 H 533.594 2.99773 -0.0873507 0
M  V30 5442 H 531.147 1.56079 -0.0830042 0
M  V30 5443 H 531.882 2.21986 2.36417 0
M  V30 5444 H 531.667 3.67941 1.35507 0
M  V30 5445 H 533.157 3.47031 2.32291 0
M  V30 5446 N 533.594 0.0601682 1.57485 0
M  V30 5447 C 534.504 -0.926121 2.15546 0
M  V30 5448 C 535.52 -1.33532 1.11558 0
M  V30 5449 O 536.696 -1.4104 1.4377 0
M  V30 5450 C 533.761 -2.17952 2.69625 0
M  V30 5451 C 532.822 -1.82783 3.88444 0
M  V30 5452 C 532.055 -3.02148 4.39935 0
M  V30 5453 O 532.278 -4.15803 3.90466 0
M  V30 5454 O 531.212 -2.82639 5.31412 0
M  V30 5455 H 535.038 -0.462289 3.00161 0
M  V30 5456 H 532.623 -0.162246 1.48516 0
M  V30 5457 H 534.505 -2.91474 3.04337 0
M  V30 5458 H 533.18 -2.63456 1.88077 0
M  V30 5459 H 532.087 -1.06549 3.58606 0
M  V30 5460 H 533.42 -1.42072 4.7125 0
M  V30 5461 N 535.072 -1.5615 -0.213296 0
M  V30 5462 C 536.035 -1.92249 -1.24792 0
M  V30 5463 C 537.035 -0.801828 -1.39382 0
M  V30 5464 O 538.225 -1.06948 -1.37506 0
M  V30 5465 C 535.357 -2.18056 -2.62039 0
M  V30 5466 H 536.55 -2.84793 -0.939845 0
M  V30 5467 H 534.103 -1.49559 -0.454062 0
M  V30 5468 H 534.838 -1.2809 -2.97932 0
M  V30 5469 H 534.623 -2.99703 -2.52825 0
M  V30 5470 H 536.113 -2.47051 -3.36683 0
M  V30 5471 N 536.55 0.480323 -1.50102 0
M  V30 5472 C 537.483 1.59789 -1.62919 0
M  V30 5473 C 538.461 1.55429 -0.477557 0
M  V30 5474 O 539.645 1.75186 -0.695851 0
M  V30 5475 C 536.772 2.98351 -1.60325 0
M  V30 5476 C 535.818 3.20899 -2.80938 0
M  V30 5477 S 536.651 3.01791 -4.4236 0
M  V30 5478 C 537.807 4.42712 -4.42444 0
M  V30 5479 H 538.04 1.48676 -2.57454 0
M  V30 5480 H 535.573 0.666996 -1.3925 0
M  V30 5481 H 537.531 3.7824 -1.59514 0
M  V30 5482 H 536.192 3.06862 -0.670419 0
M  V30 5483 H 535.385 4.22102 -2.75401 0
M  V30 5484 H 534.987 2.48768 -2.79268 0
M  V30 5485 H 537.279 5.3518 -4.15438 0
M  V30 5486 H 538.222 4.53294 -5.43995 0
M  V30 5487 H 538.63 4.24359 -3.72263 0
M  V30 5488 N 538.028 1.39524 0.732853 0
M  V30 5489 C 538.975 1.38416 1.84688 0
M  V30 5490 C 539.945 0.243539 1.64305 0
M  V30 5491 O 541.13 0.438979 1.85681 0
M  V30 5492 C 538.27 1.23555 3.22224 0
M  V30 5493 C 537.383 2.47179 3.54298 0
M  V30 5494 C 536.518 2.2489 4.81246 0
M  V30 5495 C 535.557 3.44178 5.0617 0
M  V30 5496 N 534.694 3.21192 6.24323 0
M  V30 5497 H 539.534 2.33645 1.84971 0
M  V30 5498 H 537.071 1.16059 0.903804 0
M  V30 5499 H 539.029 1.12949 4.0162 0
M  V30 5500 H 537.659 0.31954 3.21215 0
M  V30 5501 H 536.711 2.68379 2.69587 0
M  V30 5502 H 538.023 3.36022 3.68633 0
M  V30 5503 H 537.177 2.11538 5.68627 0
M  V30 5504 H 535.916 1.33443 4.69089 0
M  V30 5505 H 534.921 3.58025 4.17251 0
M  V30 5506 H 536.146 4.36528 5.20212 0
M  V30 5507 H 534.092 2.32413 6.1345 0
M  V30 5508 H 534.009 4.03594 6.39256 0
M  V30 5509 H 535.277 3.1154 7.14537 0
M  V30 5510 N 539.506 -0.963266 1.24736 0
M  V30 5511 C 540.453 -2.05857 1.04363 0
M  V30 5512 C 541.423 -1.6604 -0.0444951 0
M  V30 5513 O 542.608 -1.90477 0.110999 0
M  V30 5514 C 539.748 -3.38745 0.659235 0
M  V30 5515 C 538.861 -3.9173 1.82131 0
M  V30 5516 C 537.996 -5.12906 1.38208 0
M  V30 5517 C 537.035 -5.58098 2.51382 0
M  V30 5518 N 536.172 -6.7049 2.08295 0
M  V30 5519 H 541.012 -2.22616 1.98107 0
M  V30 5520 H 538.549 -1.09103 0.986661 0
M  V30 5521 H 540.507 -4.15107 0.417371 0
M  V30 5522 H 539.137 -3.21898 -0.241201 0
M  V30 5523 H 538.189 -3.11966 2.17672 0
M  V30 5524 H 539.501 -4.21225 2.67153 0
M  V30 5525 H 538.655 -5.96657 1.09935 0
M  V30 5526 H 537.394 -4.85105 0.502456 0
M  V30 5527 H 536.399 -4.72917 2.80409 0
M  V30 5528 H 537.624 -5.87911 3.39909 0
M  V30 5529 H 535.57 -6.44416 1.22737 0
M  V30 5530 H 535.487 -6.99458 2.86869 0
M  V30 5531 H 536.755 -7.57672 1.83175 0
M  V30 5532 N 540.985 -1.06182 -1.16461 0
M  V30 5533 C 541.933 -0.665716 -2.2287 0
M  V30 5534 C 542.927 0.317822 -1.66392 0
M  V30 5535 O 544.133 0.182807 -1.79069 0
M  V30 5536 H 540.508 -0.197148 -0.725697 0
M  V30 5537 H 542.479 -1.57307 -2.53569 0
M  V30 5538 C 541.228 -0.0669803 -3.47635 0
M  V30 5539 H 540.551 -0.814899 -3.91407 0
M  V30 5540 H 541.991 0.172669 -4.23648 0
M  V30 5541 C 540.45 1.18913 -3.15216 0
M  V30 5542 O 540.98 2.27723 -3.30916 0
M  V30 5543 N 539.186 1.09066 -2.69357 0
M  V30 5544 H 538.733 0.20518 -2.56782 0
M  V30 5545 H 538.691 1.93195 -2.48039 0
M  V30 5546 N 542.463 1.3308 -0.844243 0
M  V30 5547 C 543.393 2.3161 -0.296493 0
M  V30 5548 C 544.374 1.59215 0.598707 0
M  V30 5549 O 545.559 1.87077 0.521134 0
M  V30 5550 C 542.689 3.43313 0.524762 0
M  V30 5551 C 541.643 4.27115 -0.275106 0
M  V30 5552 C 540.969 5.30483 0.670236 0
M  V30 5553 C 542.269 5.00443 -1.49514 0
M  V30 5554 H 543.963 2.77672 -1.11976 0
M  V30 5555 H 541.509 1.33496 -0.539899 0
M  V30 5556 H 543.462 4.11273 0.918298 0
M  V30 5557 H 542.186 2.95952 1.3813 0
M  V30 5558 H 540.845 3.60787 -0.650267 0
M  V30 5559 H 540.493 4.79379 1.52332 0
M  V30 5560 H 540.193 5.87435 0.139123 0
M  V30 5561 H 541.717 6.01308 1.06117 0
M  V30 5562 H 543.131 5.61141 -1.17447 0
M  V30 5563 H 541.528 5.67071 -1.96343 0
M  V30 5564 H 542.598 4.28906 -2.26202 0
M  V30 5565 N 543.941 0.601185 1.45683 0
M  V30 5566 C 545.357 0.264315 1.57396 0
M  V30 5567 C 545.557 -1.23324 1.59353 0
M  V30 5568 O 544.613 -2.01594 1.52039 0
M  V30 5569 C 545.926 0.929839 2.85962 0
M  V30 5570 C 547.474 0.905156 2.99626 0
M  V30 5571 C 547.949 1.55057 4.30954 0
M  V30 5572 N 549.44 1.51576 4.37697 0
M  V30 5573 C 550.175 1.98436 5.37969 0
M  V30 5574 N 549.671 2.53352 6.44813 0
M  V30 5575 N 551.464 1.89242 5.29286 0
M  V30 5576 H 543.615 1.57363 1.42656 0
M  V30 5577 H 545.878 0.658831 0.681649 0
M  V30 5578 H 545.584 1.98404 2.90394 0
M  V30 5579 H 545.458 0.449224 3.74515 0
M  V30 5580 H 547.845 -0.14048 2.94765 0
M  V30 5581 H 547.926 1.42397 2.12501 0
M  V30 5582 H 547.57 2.5955 4.36573 0
M  V30 5583 H 547.5 1.00682 5.16886 0
M  V30 5584 H 549.991 1.11452 3.61091 0
M  V30 5585 H 550.304 2.86918 7.17564 0
M  V30 5586 H 548.649 2.57388 6.45582 0
M  V30 5587 H 551.84 1.46083 4.44722 0
M  V30 5588 H 552.013 2.26075 6.07284 0
M  V30 5589 N 545.419 -1.53889 0.339982 0
M  V30 5590 C 546.665 -2.01152 -0.258003 0
M  V30 5591 C 546.998 -1.22749 -1.50487 0
M  V30 5592 O 546.273 -0.314156 -1.91946 0
M  V30 5593 C 546.556 -3.55468 -0.575717 0
M  V30 5594 C 546.409 -4.44584 0.682996 0
M  V30 5595 C 547.728 -4.1768 -1.38677 0
M  V30 5596 H 544.847 -0.731198 -0.0922992 0
M  V30 5597 H 547.489 -1.84352 0.459814 0
M  V30 5598 H 545.639 -3.69914 -1.18725 0
M  V30 5599 H 547.311 -4.41981 1.32102 0
M  V30 5600 H 545.554 -4.13592 1.3086 0
M  V30 5601 H 546.225 -5.5043 0.416001 0
M  V30 5602 H 548.701 -4.0691 -0.869705 0
M  V30 5603 H 547.577 -5.25734 -1.57783 0
M  V30 5604 H 547.838 -3.72069 -2.38782 0
M  V30 5605 N 546.897 -0.0685191 -1.57451 0
M  V30 5606 C 548.145 0.60016 -1.92983 0
M  V30 5607 C 548.466 1.70348 -0.949028 0
M  V30 5608 O 547.736 1.959 0.00335647 0
M  V30 5609 H 546.316 0.224682 -0.712409 0
M  V30 5610 H 548.978 -0.125605 -1.94495 0
M  V30 5611 H 548.074 1.02759 -2.94698 0
M  V30 5612 N 548.375 1.56261 0.205012 0
M  V30 5613 C 549.323 1.94631 1.27364 0
M  V30 5614 C 550.317 0.830434 1.47649 0
M  V30 5615 O 551.523 1.01538 1.48627 0
M  V30 5616 H 547.898 0.618755 0.427371 0
M  V30 5617 H 549.869 2.83768 0.922941 0
M  V30 5618 C 548.618 2.29358 2.61324 0
M  V30 5619 H 547.941 3.14744 2.46528 0
M  V30 5620 H 549.381 2.60076 3.34868 0
M  V30 5621 C 547.84 1.12461 3.17575 0
M  V30 5622 O 548.37 0.394407 3.99759 0
M  V30 5623 N 546.576 0.904036 2.7618 0
M  V30 5624 H 546.123 1.49956 2.09454 0
M  V30 5625 H 546.081 0.123662 3.14157 0
M  V30 5626 N 549.853 -0.472356 1.50355 0
M  V30 5627 C 551.101 -1.22211 1.60962 0
M  V30 5628 C 551.422 -1.92497 0.311439 0
M  V30 5629 O 550.692 -1.8405 -0.671002 0
M  V30 5630 H 549.272 -0.454092 0.593135 0
M  V30 5631 H 551.934 -0.544977 1.87126 0
M  V30 5632 H 551.03 -1.9707 2.42012 0
M  V30 5633 N 551.331 -1.39911 -0.725443 0
M  V30 5634 C 552.578 -1.37654 -1.48518 0
M  V30 5635 C 552.906 0.0243982 -1.94485 0
M  V30 5636 O 552.161 1.00708 -1.67799 0
M  V30 5637 C 552.46 -2.30368 -2.7325 0
M  V30 5638 C 552.126 -3.77817 -2.461 0
M  V30 5639 C 550.788 -4.17991 -2.38405 0
M  V30 5640 C 553.14 -4.71036 -2.23103 0
M  V30 5641 C 550.468 -5.49433 -2.05768 0
M  V30 5642 C 552.82 -6.02766 -1.9198 0
M  V30 5643 C 551.484 -6.41993 -1.82761 0
M  V30 5644 H 550.754 -0.503713 -0.543465 0
M  V30 5645 H 553.401 -1.7249 -0.831822 0
M  V30 5646 H 551.706 -1.88683 -3.43375 0
M  V30 5647 H 553.403 -2.2591 -3.31309 0
M  V30 5648 H 549.993 -3.45982 -2.52972 0
M  V30 5649 H 554.177 -4.40823 -2.2801 0
M  V30 5650 H 549.433 -5.78738 -1.9716 0
M  V30 5651 H 553.607 -6.74519 -1.73197 0
M  V30 5652 H 551.234 -7.43761 -1.57237 0
M  V30 5653 N 552.809 0.956637 -1.25245 0
M  V30 5654 C 553.719 2.0868 -1.0719 0
M  V30 5655 C 554.735 1.73997 -0.00959074 0
M  V30 5656 O 555.911 2.00301 -0.210104 0
M  V30 5657 C 552.976 3.39754 -0.690526 0
M  V30 5658 C 552.037 3.88316 -1.83055 0
M  V30 5659 C 551.27 5.13134 -1.46728 0
M  V30 5660 O 551.493 5.6925 -0.362029 0
M  V30 5661 O 550.427 5.56356 -2.29677 0
M  V30 5662 H 554.253 2.26813 -2.01965 0
M  V30 5663 H 551.838 1.07098 -1.04165 0
M  V30 5664 H 553.72 4.18543 -0.489871 0
M  V30 5665 H 552.395 3.22896 0.227981 0
M  V30 5666 H 551.302 3.1054 -2.08604 0
M  V30 5667 H 552.635 4.09669 -2.72822 0
M  V30 5668 N 554.287 1.06798 1.15896 0
M  V30 5669 C 555.197 0.694564 2.24083 0
M  V30 5670 C 556.213 -0.291687 1.71538 0
M  V30 5671 O 557.389 -0.139723 2.00915 0
M  V30 5672 C 554.454 0.0921014 3.46578 0
M  V30 5673 C 553.515 1.13087 4.14137 0
M  V30 5674 C 552.748 0.557064 5.30785 0
M  V30 5675 O 552.971 -0.628623 5.66925 0
M  V30 5676 O 551.905 1.29924 5.8771 0
M  V30 5677 H 555.731 1.59663 2.58344 0
M  V30 5678 H 553.316 0.840575 1.2351 0
M  V30 5679 H 555.198 -0.241884 4.20705 0
M  V30 5680 H 553.873 -0.78337 3.14078 0
M  V30 5681 H 552.78 1.51712 3.41957 0
M  V30 5682 H 554.113 1.97805 4.50704 0
M  V30 5683 N 555.766 -1.3263 0.851289 0
M  V30 5684 C 557.014 -1.96978 0.452128 0
M  V30 5685 C 557.335 -1.67715 -0.99482 0
M  V30 5686 O 556.605 -0.98259 -1.69476 0
M  V30 5687 H 555.185 -0.72873 0.164202 0
M  V30 5688 H 557.847 -1.61774 1.08698 0
M  V30 5689 H 556.943 -3.06387 0.594407 0
M  V30 5690 N 557.244 -0.608902 -1.45362 0
M  V30 5691 C 558.472 -0.111013 -2.06602 0
M  V30 5692 C 558.887 1.20516 -1.45332 0
M  V30 5693 O 558.244 1.73437 -0.567978 0
M  V30 5694 C 558.295 0.033688 -3.61484 0
M  V30 5695 O 558.016 -1.23041 -4.20467 0
M  V30 5696 C 559.517 0.562882 -4.39712 0
M  V30 5697 H 556.737 -0.0694453 -0.667397 0
M  V30 5698 H 559.281 -0.837008 -1.86586 0
M  V30 5699 H 557.436 0.710016 -3.80838 0
M  V30 5700 H 557.85 -1.06094 -5.13658 0
M  V30 5701 H 559.324 0.613213 -5.48583 0
M  V30 5702 H 559.801 1.58543 -4.09586 0
M  V30 5703 H 560.407 -0.0794454 -4.25226 0
M  V30 5704 N 558.722 1.53707 -0.348139 0
M  V30 5705 C 559.95 2.05406 0.248224 0
M  V30 5706 C 560.365 1.22282 1.43849 0
M  V30 5707 O 559.722 0.259244 1.80649 0
M  V30 5708 C 559.773 3.55446 0.658793 0
M  V30 5709 O 559.494 4.35417 -0.484149 0
M  V30 5710 C 560.995 4.23335 1.31539 0
M  V30 5711 H 558.215 0.669344 0.0471075 0
M  V30 5712 H 560.759 1.98257 -0.501456 0
M  V30 5713 H 558.914 3.62803 1.35841 0
M  V30 5714 H 559.328 5.24268 -0.155949 0
M  V30 5715 H 560.802 5.29692 1.55338 0
M  V30 5716 H 561.279 3.75967 2.27036 0
M  V30 5717 H 561.885 4.20184 0.657683 0
M  V30 5718 N 560.2 0.0768682 1.57412 0
M  V30 5719 C 561.132 -0.918248 2.10002 0
M  V30 5720 C 562.145 -1.25808 1.03325 0
M  V30 5721 O 563.334 -1.21438 1.30824 0
M  V30 5722 C 560.434 -2.23263 2.54964 0
M  V30 5723 C 559.607 -2.07088 3.8527 0
M  V30 5724 C 558.666 -3.21876 4.16272 0
M  V30 5725 O 557.692 -2.96643 4.8579 0
M  V30 5726 N 558.894 -4.4712 3.70221 0
M  V30 5727 H 561.659 -0.469209 2.96004 0
M  V30 5728 H 559.22 -0.108725 1.61535 0
M  V30 5729 H 561.212 -2.9897 2.72762 0
M  V30 5730 H 559.782 -2.59649 1.74072 0
M  V30 5731 H 559.002 -1.15818 3.76802 0
M  V30 5732 H 560.29 -1.93537 4.70554 0
M  V30 5733 H 559.688 -4.70506 3.1407 0
M  V30 5734 H 558.245 -5.19837 3.93209 0
M  V30 5735 N 561.678 -1.56367 -0.196722 0
M  V30 5736 C 562.926 -1.80172 -0.915554 0
M  V30 5737 C 563.247 -0.649649 -1.8386 0
M  V30 5738 O 562.517 0.332111 -1.93064 0
M  V30 5739 H 561.097 -0.664592 -0.341067 0
M  V30 5740 H 563.759 -1.93844 -0.202622 0
M  V30 5741 H 562.855 -2.7327 -1.50764 0
M  V30 5742 N 563.156 0.464375 -1.50603 0
M  V30 5743 C 564.567 1.04507 -1.5471 0
M  V30 5744 C 564.918 1.9297 -0.354542 0
M  V30 5745 O 564.043 2.09763 0.531812 0
M  V30 5746 C 564.638 1.90207 -2.80369 0
M  V30 5747 C 563.197 2.43373 -2.87135 0
M  V30 5748 C 562.344 1.21886 -2.49076 0
M  V30 5749 H 565.295 0.246716 -1.56771 0
M  V30 5750 H 565.316 2.75353 -2.62604 0
M  V30 5751 H 564.828 1.25796 -3.67147 0
M  V30 5752 H 562.929 3.11318 -2.04724 0
M  V30 5753 H 563.042 2.7802 -3.90181 0
M  V30 5754 H 561.406 1.55575 -2.01664 0
M  V30 5755 H 562.189 0.591268 -3.3817 0
M  V30 5756 N 564.634 1.40294 0.718013 0
M  V30 5757 C 565.564 1.43118 1.84498 0
M  V30 5758 C 566.545 0.292403 1.67568 0
M  V30 5759 O 567.73 0.500675 1.87635 0
M  V30 5760 C 564.86 1.29065 3.22427 0
M  V30 5761 C 563.814 2.40521 3.54025 0
M  V30 5762 C 563.14 2.11546 4.91073 0
M  V30 5763 C 564.44 3.82859 3.55269 0
M  V30 5764 H 566.134 2.37432 1.82391 0
M  V30 5765 H 563.68 1.14283 0.87609 0
M  V30 5766 H 565.633 1.29658 4.00957 0
M  V30 5767 H 564.357 0.312271 3.25104 0
M  V30 5768 H 563.016 2.39173 2.77834 0
M  V30 5769 H 562.664 1.12104 4.90348 0
M  V30 5770 H 562.364 2.86216 5.1318 0
M  V30 5771 H 563.888 2.13817 5.71939 0
M  V30 5772 H 565.302 3.86044 4.23843 0
M  V30 5773 H 563.699 4.57029 3.88902 0
M  V30 5774 H 564.769 4.12617 2.54706 0
M  V30 5775 N 566.112 -0.949982 1.2575 0
M  V30 5776 C 567.361 -1.68956 1.10168 0
M  V30 5777 C 567.674 -1.92327 -0.356309 0
M  V30 5778 O 568.88 -2.64026 -0.632657 0
M  V30 5779 C 567.336 -3.04196 1.92336 0
M  V30 5780 C 566.944 -2.88603 3.42655 0
M  V30 5781 C 568.688 -3.81904 1.85336 0
M  V30 5782 C 566.595 -4.19262 4.17101 0
M  V30 5783 H 565.525 -0.633645 0.408668 0
M  V30 5784 H 568.176 -1.05719 1.49986 0
M  V30 5785 H 566.558 -3.68363 1.45344 0
M  V30 5786 H 567.732 -2.3334 3.97353 0
M  V30 5787 H 566.047 -2.24345 3.50796 0
M  V30 5788 H 568.644 -4.78688 2.38248 0
M  V30 5789 H 568.987 -4.08099 0.822226 0
M  V30 5790 H 569.52 -3.24495 2.30104 0
M  V30 5791 H 566.259 -3.98254 5.20648 0
M  V30 5792 H 565.779 -4.74273 3.67186 0
M  V30 5793 H 567.458 -4.87775 4.25071 0
M  V30 5794 N 567.59 -1.07411 -1.15328 0
M  V30 5795 C 568.538 -0.689316 -2.22151 0
M  V30 5796 C 569.532 0.300156 -1.6672 0
M  V30 5797 O 570.738 0.163804 -1.79253 0
M  V30 5798 H 567.113 -0.204834 -0.723566 0
M  V30 5799 H 569.084 -1.59988 -2.51886 0
M  V30 5800 C 567.833 -0.103848 -3.47545 0
M  V30 5801 H 567.156 -0.856367 -3.90521 0
M  V30 5802 H 568.596 0.127725 -4.23808 0
M  V30 5803 C 567.055 1.15563 -3.1646 0
M  V30 5804 O 567.585 2.242 -3.33312 0
M  V30 5805 N 565.791 1.06203 -2.70498 0
M  V30 5806 H 565.338 0.177933 -2.56985 0
M  V30 5807 H 565.296 1.90553 -2.50074 0
M  V30 5808 N 569.068 1.32177 -0.85831 0
M  V30 5809 C 569.978 2.32561 -0.308606 0
M  V30 5810 C 570.994 1.64209 0.575462 0
M  V30 5811 O 572.17 1.95719 0.474961 0
M  V30 5812 C 569.235 3.43207 0.490909 0
M  V30 5813 C 568.296 4.27243 -0.419733 0
M  V30 5814 C 567.529 5.32605 0.341719 0
M  V30 5815 O 567.752 5.48332 1.57125 0
M  V30 5816 O 566.686 6.0118 -0.294379 0
M  V30 5817 H 570.512 2.81477 -1.14037 0
M  V30 5818 H 568.097 1.35866 -0.621349 0
M  V30 5819 H 569.979 4.10677 0.944574 0
M  V30 5820 H 568.654 2.96474 1.29941 0
M  V30 5821 H 567.561 3.62569 -0.921652 0
M  V30 5822 H 568.894 4.7751 -1.19352 0
M  V30 5823 N 570.547 0.616602 1.45037 0
M  V30 5824 C 571.494 -0.0969439 2.30596 0
M  V30 5825 C 572.464 -0.851151 1.42635 0
M  V30 5826 O 573.649 -0.835092 1.71554 0
M  V30 5827 C 570.789 -1.08234 3.27688 0
M  V30 5828 C 569.902 -0.328072 4.30752 0
M  V30 5829 C 569.037 -1.30399 5.14946 0
M  V30 5830 C 568.076 -0.538049 6.09731 0
M  V30 5831 N 567.213 -1.46371 6.86673 0
M  V30 5832 H 572.053 0.63864 2.91076 0
M  V30 5833 H 569.59 0.326733 1.43425 0
M  V30 5834 H 571.548 -1.66688 3.82454 0
M  V30 5835 H 570.178 -1.78523 2.68941 0
M  V30 5836 H 569.23 0.372136 3.78575 0
M  V30 5837 H 570.542 0.269142 4.98073 0
M  V30 5838 H 569.696 -1.96032 5.74157 0
M  V30 5839 H 568.435 -1.93514 4.47665 0
M  V30 5840 H 567.44 0.131852 5.49642 0
M  V30 5841 H 568.665 0.0881732 6.79043 0
M  V30 5842 H 566.611 -2.08233 6.22073 0
M  V30 5843 H 566.528 -0.920152 7.50379 0
M  V30 5844 H 567.796 -2.10932 7.50418 0
M  V30 5845 N 572.025 -1.5352 0.356285 0
M  V30 5846 C 572.988 -2.24071 -0.482182 0
M  V30 5847 C 573.988 -1.24531 -1.01729 0
M  V30 5848 O 575.178 -1.48876 -0.904513 0
M  V30 5849 C 572.31 -2.97025 -1.67299 0
M  V30 5850 H 573.503 -2.99596 0.135031 0
M  V30 5851 H 571.056 -1.55928 0.107825 0
M  V30 5852 H 571.791 -2.25719 -2.32855 0
M  V30 5853 H 571.576 -3.7005 -1.29636 0
M  V30 5854 H 573.066 -3.50683 -2.26741 0
M  V30 5855 N 573.503 -0.0852151 -1.57369 0
M  V30 5856 C 574.749 0.581666 -1.94279 0
M  V30 5857 C 575.082 1.68444 -0.966446 0
M  V30 5858 O 574.357 1.945 0.00215277 0
M  V30 5859 C 574.64 1.14609 -3.41375 0
M  V30 5860 C 574.493 0.0490414 -4.49773 0
M  V30 5861 C 575.812 2.04751 -3.8957 0
M  V30 5862 H 572.931 0.209972 -0.706456 0
M  V30 5863 H 575.573 -0.153915 -1.89376 0
M  V30 5864 H 573.723 1.77297 -3.45685 0
M  V30 5865 H 575.395 -0.584721 -4.57579 0
M  V30 5866 H 573.638 -0.618638 -4.29366 0
M  V30 5867 H 574.309 0.484601 -5.49869 0
M  V30 5868 H 576.785 1.51981 -3.87351 0
M  V30 5869 H 575.661 2.41173 -4.93079 0
M  V30 5870 H 575.922 2.96107 -3.28288 0
M  V30 5871 N 574.981 1.5647 0.188427 0
M  V30 5872 C 575.891 1.98285 1.2538 0
M  V30 5873 C 576.907 0.891535 1.49424 0
M  V30 5874 O 578.083 1.19782 1.61908 0
M  V30 5875 C 575.148 2.31965 2.57669 0
M  V30 5876 C 574.209 3.54838 2.41638 0
M  V30 5877 C 573.442 3.86901 3.67618 0
M  V30 5878 O 573.665 3.20163 4.72072 0
M  V30 5879 O 572.599 4.80309 3.62749 0
M  V30 5880 H 576.425 2.89145 0.928912 0
M  V30 5881 H 574.01 1.44112 0.393955 0
M  V30 5882 H 575.892 2.54673 3.35737 0
M  V30 5883 H 574.567 1.44271 2.89771 0
M  V30 5884 H 573.474 3.37369 1.61658 0
M  V30 5885 H 574.807 4.43019 2.14465 0
M  V30 5886 N 576.459 -0.456382 1.50847 0
M  V30 5887 C 577.406 -1.55249 1.70782 0
M  V30 5888 C 578.376 -1.56757 0.549231 0
M  V30 5889 O 579.561 -1.74061 0.7815 0
M  V30 5890 C 576.701 -2.93118 1.82143 0
M  V30 5891 C 575.814 -3.01285 3.09598 0
M  V30 5892 C 574.949 -4.30159 3.11667 0
M  V30 5893 C 573.988 -4.32124 4.33515 0
M  V30 5894 N 573.125 -5.52492 4.3324 0
M  V30 5895 H 577.965 -1.37555 2.64353 0
M  V30 5896 H 575.502 -0.668543 1.3103 0
M  V30 5897 H 577.46 -3.73088 1.86711 0
M  V30 5898 H 576.09 -3.09413 0.919978 0
M  V30 5899 H 575.142 -2.14096 3.14431 0
M  V30 5900 H 576.454 -2.98597 3.99551 0
M  V30 5901 H 575.608 -5.18489 3.15046 0
M  V30 5902 H 574.347 -4.35477 2.1957 0
M  V30 5903 H 573.352 -3.42189 4.30333 0
M  V30 5904 H 574.577 -4.28485 5.26856 0
M  V30 5905 H 572.523 -5.58567 3.44004 0
M  V30 5906 H 572.44 -5.51605 5.16979 0
M  V30 5907 H 573.708 -6.42906 4.40786 0
M  V30 5908 N 577.937 -1.40673 -0.710563 0
M  V30 5909 C 579.183 -1.39428 -1.47267 0
M  V30 5910 C 579.516 0.00182129 -1.942 0
M  V30 5911 O 578.791 0.971387 -1.68506 0
M  V30 5912 C 579.074 -2.38812 -2.6952 0
M  V30 5913 C 578.927 -3.87467 -2.28449 0
M  V30 5914 C 580.246 -2.3566 -3.71689 0
M  V30 5915 H 577.365 -0.507768 -0.534173 0
M  V30 5916 H 580.007 -1.71843 -0.810547 0
M  V30 5917 H 578.157 -2.113 -3.26013 0
M  V30 5918 H 579.829 -4.25825 -1.77399 0
M  V30 5919 H 578.072 -4.03058 -1.60395 0
M  V30 5920 H 578.743 -4.5253 -3.16103 0
M  V30 5921 H 581.219 -2.6004 -3.24836 0
M  V30 5922 H 580.095 -3.07237 -4.54859 0
M  V30 5923 H 580.356 -1.36996 -4.20339 0
M  V30 5924 N 579.415 0.9433 -1.26252 0
M  V30 5925 C 580.325 2.07532 -1.09397 0
M  V30 5926 C 581.341 1.73977 -0.0280449 0
M  V30 5927 O 582.517 2.00067 -0.231337 0
M  V30 5928 C 579.582 3.39002 -0.726523 0
M  V30 5929 C 578.643 3.86353 -1.87163 0
M  V30 5930 C 577.876 5.11549 -1.52162 0
M  V30 5931 O 578.099 5.68834 -0.422385 0
M  V30 5932 O 577.033 5.53889 -2.35565 0
M  V30 5933 H 580.859 2.24658 -2.04359 0
M  V30 5934 H 578.444 1.05988 -1.05295 0
M  V30 5935 H 580.326 4.18 -0.534236 0
M  V30 5936 H 579.001 3.2312 0.193721 0
M  V30 5937 H 577.908 3.0831 -2.11886 0
M  V30 5938 H 579.241 4.06752 -2.77152 0
M  V30 5939 N 580.893 1.08022 1.14757 0
M  V30 5940 C 581.84 0.706657 2.19716 0
M  V30 5941 C 582.81 -0.30525 1.63271 0
M  V30 5942 O 583.995 -0.19015 1.8985 0
M  V30 5943 C 581.135 0.117914 3.44898 0
M  V30 5944 C 580.248 1.18212 4.15512 0
M  V30 5945 C 579.383 0.557659 5.28265 0
M  V30 5946 C 578.422 1.60418 5.90705 0
M  V30 5947 N 577.559 1.0018 6.94916 0
M  V30 5948 H 582.399 1.60603 2.51019 0
M  V30 5949 H 579.936 0.802664 1.23271 0
M  V30 5950 H 581.894 -0.241112 4.16503 0
M  V30 5951 H 580.524 -0.744788 3.1409 0
M  V30 5952 H 579.576 1.65863 3.42335 0
M  V30 5953 H 580.888 1.97533 4.5802 0
M  V30 5954 H 580.042 0.146654 6.06523 0
M  V30 5955 H 578.781 -0.267249 4.86967 0
M  V30 5956 H 577.786 2.02489 5.11154 0
M  V30 5957 H 579.011 2.43149 6.34078 0
M  V30 5958 H 576.957 0.197917 6.55701 0
M  V30 5959 H 576.874 1.73216 7.35889 0
M  V30 5960 H 578.142 0.616523 7.77058 0
M  V30 5961 N 582.371 -1.3172 0.865308 0
M  V30 5962 C 583.303 -2.27545 0.274906 0
M  V30 5963 C 584.316 -1.52887 -0.559413 0
M  V30 5964 O 585.505 -1.74361 -0.382166 0
M  V30 5965 C 582.605 -3.33006 -0.629286 0
M  V30 5966 C 581.778 -4.37063 0.171553 0
M  V30 5967 C 580.837 -5.22044 -0.660052 0
M  V30 5968 O 579.863 -5.69129 -0.0897527 0
M  V30 5969 N 581.065 -5.45946 -1.97289 0
M  V30 5970 H 583.83 -2.78848 1.09836 0
M  V30 5971 H 581.391 -1.44693 0.726331 0
M  V30 5972 H 583.383 -3.86772 -1.19121 0
M  V30 5973 H 581.953 -2.81782 -1.35342 0
M  V30 5974 H 581.173 -3.83436 0.914919 0
M  V30 5975 H 582.461 -5.03662 0.721235 0
M  V30 5976 H 581.859 -5.0944 -2.45942 0
M  V30 5977 H 580.416 -6.02665 -2.4827 0
M  V30 5978 N 583.85 -0.624285 -1.44708 0
M  V30 5979 C 585.096 -0.126237 -2.02407 0
M  V30 5980 C 585.428 1.24618 -1.48943 0
M  V30 5981 O 584.704 1.82569 -0.670742 0
M  V30 5982 C 584.986 -0.105449 -3.59946 0
M  V30 5983 C 584.84 -1.50972 -4.23707 0
M  V30 5984 C 586.159 0.573629 -4.36346 0
M  V30 5985 H 583.278 -0.0473472 -0.735478 0
M  V30 5986 H 585.92 -0.799452 -1.72362 0
M  V30 5987 H 584.07 0.46783 -3.85673 0
M  V30 5988 H 585.742 -2.13136 -4.0911 0
M  V30 5989 H 583.985 -2.0656 -3.81465 0
M  V30 5990 H 584.656 -1.44727 -5.32689 0
M  V30 5991 H 587.132 0.0861787 -4.16011 0
M  V30 5992 H 586.008 0.557338 -5.46063 0
M  V30 5993 H 586.269 1.64276 -4.10446 0
M  V30 5994 N 585.328 1.53329 -0.364422 0
M  V30 5995 C 586.276 2.27212 0.497737 0
M  V30 5996 C 587.27 1.30146 1.08437 0
M  V30 5997 O 588.476 1.47778 1.0277 0
M  V30 5998 H 584.851 0.730329 0.179232 0
M  V30 5999 H 586.822 2.98037 -0.147182 0
M  V30 6000 C 585.571 3.07333 1.6261 0
M  V30 6001 H 584.894 3.81866 1.184 0
M  V30 6002 H 586.334 3.62209 2.20409 0
M  V30 6003 C 584.793 2.18102 2.56775 0
M  V30 6004 O 585.323 1.79104 3.59562 0
M  V30 6005 N 583.529 1.82759 2.25937 0
M  V30 6006 H 583.076 2.14671 1.42387 0
M  V30 6007 H 583.034 1.23342 2.89196 0
M  V30 6008 N 586.806 0.0935595 1.57322 0
M  V30 6009 C 588.083 -0.612692 1.85756 0
M  V30 6010 C 588.463 -1.86439 0.99013 0
M  V30 6011 O 587.811 -2.28416 0.0621362 0
M  V30 6012 C 588.021 -0.929547 3.36393 0
M  V30 6013 C 589.369 -1.29366 4.04413 0
M  V30 6014 O 590.393 -1.02061 3.41265 0
M  V30 6015 O 589.252 -1.80498 5.15832 0
M  V30 6016 H 586.346 -0.306444 0.768128 0
M  V30 6017 H 588.892 0.126141 1.69231 0
M  V30 6018 H 587.664 -0.0414766 3.91278 0
M  V30 6019 H 587.287 -1.72441 3.5826 0
M  V30 6020 N 588.284 -1.56567 -0.180126 0
M  V30 6021 C 589.247 -1.94852 -1.20686 0
M  V30 6022 C 590.247 -0.831212 -1.3765 0
M  V30 6023 O 591.437 -1.09841 -1.35206 0
M  V30 6024 C 588.569 -2.23565 -2.57355 0
M  V30 6025 H 589.762 -2.86722 -0.879225 0
M  V30 6026 H 587.315 -1.50489 -0.422237 0
M  V30 6027 H 588.05 -1.34381 -2.95148 0
M  V30 6028 H 587.835 -3.04999 -2.46411 0
M  V30 6029 H 589.325 -2.54137 -3.31367 0
M  V30 6030 N 589.762 0.448376 -1.51087 0
M  V30 6031 C 591.008 1.20049 -1.6345 0
M  V30 6032 C 591.341 1.91121 -0.344444 0
M  V30 6033 O 590.616 1.83125 0.655396 0
M  V30 6034 C 590.899 2.22624 -2.83038 0
M  V30 6035 C 590.752 1.55708 -4.21989 0
M  V30 6036 C 592.071 3.23718 -2.98152 0
M  V30 6037 H 589.19 0.435085 -0.59487 0
M  V30 6038 H 591.832 0.491183 -1.83541 0
M  V30 6039 H 589.982 2.83117 -2.66039 0
M  V30 6040 H 591.654 0.986367 -4.50631 0
M  V30 6041 H 589.897 0.859647 -4.25197 0
M  V30 6042 H 590.568 2.30357 -5.01637 0
M  V30 6043 H 593.044 2.73269 -3.13788 0
M  V30 6044 H 591.92 3.92795 -3.83411 0
M  V30 6045 H 592.181 3.89179 -2.09743 0
M  V30 6046 N 591.24 1.41047 0.703093 0
M  V30 6047 C 592.465 1.43537 1.49706 0
M  V30 6048 C 592.89 0.0401853 1.88057 0
M  V30 6049 O 592.248 -0.954785 1.54122 0
M  V30 6050 C 592.296 2.3433 2.74084 0
M  V30 6051 O 591.4 1.79515 3.71279 0
M  V30 6052 H 590.741 0.487454 0.450871 0
M  V30 6053 H 593.271 1.85422 0.86486 0
M  V30 6054 H 593.281 2.49947 3.22476 0
M  V30 6055 H 591.956 3.35708 2.45506 0
M  V30 6056 H 590.533 1.7331 3.30179 0
M  V30 6057 N 592.718 -0.936591 1.26751 0
M  V30 6058 C 593.665 -2.03597 1.08706 0
M  V30 6059 C 594.635 -1.66097 -0.00926542 0
M  V30 6060 O 595.82 -1.90199 0.151377 0
M  V30 6061 C 592.96 -3.3727 0.73094 0
M  V30 6062 C 592.073 -3.87778 1.90399 0
M  V30 6063 C 591.208 -5.09859 1.49056 0
M  V30 6064 C 590.247 -5.5264 2.63164 0
M  V30 6065 N 589.384 -6.65921 2.22471 0
M  V30 6066 H 594.224 -2.18364 2.02784 0
M  V30 6067 H 591.761 -1.06985 1.00958 0
M  V30 6068 H 593.719 -4.14128 0.505328 0
M  V30 6069 H 592.349 -3.22337 -0.172868 0
M  V30 6070 H 591.401 -3.07279 2.2424 0
M  V30 6071 H 592.713 -4.15464 2.76028 0
M  V30 6072 H 591.867 -5.9419 1.22567 0
M  V30 6073 H 590.606 -4.8393 0.60524 0
M  V30 6074 H 589.611 -4.66863 2.90377 0
M  V30 6075 H 590.836 -5.80568 3.52303 0
M  V30 6076 H 588.782 -6.41667 1.36379 0
M  V30 6077 H 588.699 -6.93216 3.01641 0
M  V30 6078 H 589.967 -7.53616 1.99205 0
M  V30 6079 N 594.196 -1.08629 -1.14182 0
M  V30 6080 C 595.444 -0.815731 -1.84906 0
M  V30 6081 C 595.765 0.660441 -1.83475 0
M  V30 6082 O 595.035 1.47888 -1.28476 0
M  V30 6083 H 593.615 -0.298773 -0.684648 0
M  V30 6084 H 596.277 -1.37274 -1.38354 0
M  V30 6085 H 595.373 -1.16193 -2.89665 0
M  V30 6086 N 595.674 1.31259 -0.872281 0
M  V30 6087 C 596.637 2.26744 -0.334656 0
M  V30 6088 C 597.637 1.52307 0.515681 0
M  V30 6089 O 598.827 1.71148 0.324656 0
M  V30 6090 C 595.959 3.36841 0.524482 0
M  V30 6091 H 597.152 2.75812 -1.17762 0
M  V30 6092 H 594.705 1.42232 -0.648064 0
M  V30 6093 H 595.44 2.93069 1.38855 0
M  V30 6094 H 595.225 3.92009 -0.0844299 0
M  V30 6095 H 596.715 4.07944 0.892838 0
M  V30 6096 N 597.152 0.631951 1.44375 0
M  V30 6097 C 598.38 0.143867 2.06399 0
M  V30 6098 C 598.795 -1.18188 1.47231 0
M  V30 6099 O 598.152 -1.72511 0.595498 0
M  V30 6100 C 598.203 0.0238253 3.61492 0
M  V30 6101 O 597.924 1.29715 4.18456 0
M  V30 6102 C 599.425 -0.492856 4.40552 0
M  V30 6103 H 596.645 0.0800542 0.666207 0
M  V30 6104 H 599.189 0.866586 1.85231 0
M  V30 6105 H 597.344 -0.649338 3.81919 0
M  V30 6106 H 597.758 1.14252 5.11905 0
M  V30 6107 H 599.232 -0.525861 5.49489 0
M  V30 6108 H 599.709 -1.52006 4.12057 0
M  V30 6109 H 600.315 0.147085 4.25046 0
M  V30 6110 N 598.631 -1.53133 0.372548 0
M  V30 6111 C 599.877 -2.01654 -0.215277 0
M  V30 6112 C 600.21 -1.25914 -1.47849 0
M  V30 6113 O 599.485 -0.3548 -1.91237 0
M  V30 6114 C 599.768 -3.56609 -0.500187 0
M  V30 6115 C 599.621 -4.43036 0.777145 0
M  V30 6116 C 600.94 -4.20528 -1.29786 0
M  V30 6117 H 598.059 -0.732991 -0.0767686 0
M  V30 6118 H 600.701 -1.83335 0.498814 0
M  V30 6119 H 598.851 -3.7235 -1.10852 0
M  V30 6120 H 600.523 -4.39079 1.41447 0
M  V30 6121 H 598.766 -4.10723 1.39604 0
M  V30 6122 H 599.437 -5.49424 0.532662 0
M  V30 6123 H 601.913 -4.08663 -0.783198 0
M  V30 6124 H 600.789 -5.28962 -1.46596 0
M  V30 6125 H 601.05 -3.77051 -2.30836 0
M  V30 6126 N 600.109 -0.101901 -1.5727 0
M  V30 6127 C 601.355 0.561027 -1.94885 0
M  V30 6128 C 601.688 1.6741 -0.984258 0
M  V30 6129 O 600.963 1.94491 -0.0184767 0
M  V30 6130 C 601.246 1.10982 -3.42571 0
M  V30 6131 C 601.099 0.00133418 -4.498 0
M  V30 6132 C 602.418 2.00608 -3.9172 0
M  V30 6133 H 599.537 0.202467 -0.708644 0
M  V30 6134 H 602.179 -0.173992 -1.89202 0
M  V30 6135 H 600.329 1.73621 -3.47546 0
M  V30 6136 H 602.001 -0.63322 -4.56933 0
M  V30 6137 H 600.244 -0.664143 -4.28686 0
M  V30 6138 H 600.915 0.426253 -5.50352 0
M  V30 6139 H 603.391 1.47864 -3.88941 0
M  V30 6140 H 602.267 2.3593 -4.95609 0
M  V30 6141 H 602.528 2.92608 -3.3141 0
M  V30 6142 N 601.587 1.56661 0.17182 0
M  V30 6143 C 602.815 1.861 0.904115 0
M  V30 6144 C 603.23 0.687227 1.75848 0
M  V30 6145 O 602.587 -0.343671 1.79235 0
M  V30 6146 C 602.638 3.14568 1.78127 0
M  V30 6147 O 602.359 4.27422 0.961366 0
M  V30 6148 C 603.86 3.5735 2.62327 0
M  V30 6149 H 601.08 0.617445 0.262684 0
M  V30 6150 H 603.624 2.03775 0.172068 0
M  V30 6151 H 601.779 2.98721 2.46666 0
M  V30 6152 H 602.193 5.00725 1.56123 0
M  V30 6153 H 603.667 4.50144 3.1949 0
M  V30 6154 H 604.144 2.81445 3.37173 0
M  V30 6155 H 604.75 3.75807 1.99121 0
M  V30 6156 N 603.065 -0.440357 1.51323 0
M  V30 6157 C 604.313 -1.18769 1.63518 0
M  V30 6158 C 604.634 -1.91793 0.352201 0
M  V30 6159 O 603.904 -1.85432 -0.631811 0
M  V30 6160 H 602.484 -0.441408 0.602634 0
M  V30 6161 H 605.146 -0.505162 1.8824 0
M  V30 6162 H 604.242 -1.91892 2.46138 0
M  V30 6163 N 604.543 -1.41418 -0.695603 0
M  V30 6164 C 605.791 -1.40496 -1.45277 0
M  V30 6165 C 606.112 -0.0149538 -1.94994 0
M  V30 6166 O 605.382 0.9432 -1.71699 0
M  V30 6167 H 603.962 -0.517147 -0.539044 0
M  V30 6168 H 606.624 -1.76656 -0.823321 0
M  V30 6169 H 605.72 -2.09214 -2.31595 0
M  V30 6170 N 606.021 0.929856 -1.27246 0
M  V30 6171 C 606.968 2.03017 -1.09785 0
M  V30 6172 C 607.938 1.661 0.000456744 0
M  V30 6173 O 609.123 1.90116 -0.161462 0
M  V30 6174 C 606.263 3.36878 -0.748816 0
M  V30 6175 C 605.376 3.86763 -1.92453 0
M  V30 6176 C 604.511 5.09061 -1.51758 0
M  V30 6177 C 603.55 5.51237 -2.66091 0
M  V30 6178 N 602.687 6.64732 -2.25999 0
M  V30 6179 H 607.527 2.17285 -2.03939 0
M  V30 6180 H 605.064 1.06448 -1.01524 0
M  V30 6181 H 607.022 4.13855 -0.527283 0
M  V30 6182 H 605.652 3.22424 0.155771 0
M  V30 6183 H 604.704 3.06086 -2.25867 0
M  V30 6184 H 606.016 4.13994 -2.78227 0
M  V30 6185 H 605.17 5.93532 -1.25716 0
M  V30 6186 H 603.909 4.83602 -0.630896 0
M  V30 6187 H 602.914 4.65316 -2.92849 0
M  V30 6188 H 604.139 5.78692 -3.55377 0
M  V30 6189 H 602.085 6.40935 -1.3978 0
M  V30 6190 H 602.002 6.91607 -3.05313 0
M  V30 6191 H 603.27 7.52549 -2.03199 0
M  V30 6192 N 607.499 1.09233 1.13605 0
M  V30 6193 C 608.915 0.82163 1.36826 0
M  V30 6194 C 609.115 -0.565021 1.93416 0
M  V30 6195 O 608.171 -1.32026 2.15234 0
M  V30 6196 C 609.484 1.91124 2.32147 0
M  V30 6197 C 611.032 1.93824 2.45767 0
M  V30 6198 C 611.507 3.01923 3.44393 0
M  V30 6199 N 612.998 3.01149 3.51942 0
M  V30 6200 C 613.733 3.81434 4.2813 0
M  V30 6201 N 613.229 4.71621 5.07489 0
M  V30 6202 N 615.022 3.69702 4.23411 0
M  V30 6203 H 607.173 1.98633 0.752234 0
M  V30 6204 H 609.436 0.862482 0.393482 0
M  V30 6205 H 609.142 2.90862 1.97717 0
M  V30 6206 H 609.016 1.78777 3.32142 0
M  V30 6207 H 611.403 0.94726 2.79483 0
M  V30 6208 H 611.484 2.10248 1.45703 0
M  V30 6209 H 611.128 4.01232 3.11408 0
M  V30 6210 H 611.058 2.82742 4.44257 0
M  V30 6211 H 613.549 2.35789 2.95317 0
M  V30 6212 H 613.862 5.29468 5.62924 0
M  V30 6213 H 612.207 4.75658 5.06729 0
M  V30 6214 H 615.398 2.98606 3.60489 0
M  V30 6215 H 615.571 4.32509 4.82535 0
M  V30 6216 N 608.977 -1.30795 0.87923 0
M  V30 6217 C 609.927 -2.25838 0.313276 0
M  V30 6218 C 610.911 -1.51025 -0.55499 0
M  V30 6219 O 612.103 -1.72413 -0.400353 0
M  V30 6220 C 609.232 -3.39981 -0.476204 0
M  V30 6221 C 608.318 -4.22154 0.405826 0
M  V30 6222 N 608.709 -4.82934 1.50362 0
M  V30 6223 C 607.007 -4.45552 0.199909 0
M  V30 6224 C 607.708 -5.44444 2.0483 0
M  V30 6225 N 606.684 -5.26723 1.34403 0
M  V30 6226 H 610.486 -2.70374 1.15218 0
M  V30 6227 H 608 -1.45168 0.728003 0
M  V30 6228 H 609.997 -4.07108 -0.898251 0
M  V30 6229 H 608.657 -2.96986 -1.31261 0
M  V30 6230 H 609.668 -4.82319 1.8865 0
M  V30 6231 H 606.345 -4.13169 -0.599795 0
M  V30 6232 H 607.735 -6.02701 2.96986 0
M  V30 6233 N 610.455 -0.639598 -1.44038 0
M  V30 6234 C 611.387 0.0987684 -2.28987 0
M  V30 6235 C 612.4 0.80058 -1.41755 0
M  V30 6236 O 613.589 0.660611 -1.65826 0
M  V30 6237 C 610.689 1.16242 -3.18341 0
M  V30 6238 C 609.862 0.541447 -4.34036 0
M  V30 6239 C 608.921 1.50017 -5.04362 0
M  V30 6240 O 607.947 1.01403 -5.60095 0
M  V30 6241 N 609.149 2.83441 -5.06598 0
M  V30 6242 H 611.914 -0.630305 -2.92997 0
M  V30 6243 H 609.475 -0.481376 -1.54578 0
M  V30 6244 H 611.467 1.80429 -3.62253 0
M  V30 6245 H 610.037 1.79362 -2.56024 0
M  V30 6246 H 609.257 -0.27923 -3.9321 0
M  V30 6247 H 610.545 0.107379 -5.08687 0
M  V30 6248 H 609.943 3.2551 -4.62666 0
M  V30 6249 H 608.5 3.42966 -5.54272 0
M  V30 6250 N 611.933 1.52934 -0.380664 0
M  V30 6251 C 612.863 2.29118 0.450268 0
M  V30 6252 C 613.844 1.32153 1.07096 0
M  V30 6253 O 615.029 1.61038 1.08537 0
M  V30 6254 C 612.159 3.09161 1.58231 0
M  V30 6255 C 611.113 4.13938 1.0881 0
M  V30 6256 C 610.439 4.82153 2.31155 0
M  V30 6257 C 611.739 5.22048 0.162146 0
M  V30 6258 H 613.433 2.98826 -0.185361 0
M  V30 6259 H 610.979 1.43715 -0.0905886 0
M  V30 6260 H 612.932 3.61211 2.17036 0
M  V30 6261 H 611.656 2.3717 2.2454 0
M  V30 6262 H 610.315 3.62855 0.522633 0
M  V30 6263 H 609.963 4.06719 2.95953 0
M  V30 6264 H 609.663 5.52966 1.98752 0
M  V30 6265 H 611.187 5.37004 2.90618 0
M  V30 6266 H 612.601 5.6951 0.658126 0
M  V30 6267 H 610.998 6.00057 -0.0717122 0
M  V30 6268 H 612.068 4.78398 -0.791438 0
M  V30 6269 N 613.412 0.11024 1.57214 0
M  V30 6270 C 614.66 -0.548783 1.94506 0
M  V30 6271 C 614.981 -1.67772 0.99386 0
M  V30 6272 O 614.251 -1.9584 0.0485841 0
M  V30 6273 H 612.831 -0.205715 0.718116 0
M  V30 6274 H 615.493 0.177127 1.94093 0
M  V30 6275 H 614.589 -0.949096 2.97319 0
M  V30 6276 N 614.89 -1.56749 -0.16351 0
M  V30 6277 C 615.837 -1.97011 -1.2023 0
M  V30 6278 C 616.807 -0.835186 -1.43575 0
M  V30 6279 O 617.992 -1.09594 -1.56185 0
M  V30 6280 C 615.132 -2.34186 -2.53478 0
M  V30 6281 C 614.245 -3.60893 -2.37446 0
M  V30 6282 C 613.38 -3.87245 -3.63614 0
M  V30 6283 C 612.419 -5.07274 -3.42548 0
M  V30 6284 N 611.556 -5.29719 -4.60806 0
M  V30 6285 H 616.396 -2.85562 -0.851958 0
M  V30 6286 H 613.933 -1.41292 -0.409257 0
M  V30 6287 H 615.891 -2.53764 -3.31149 0
M  V30 6288 H 614.521 -1.48736 -2.86492 0
M  V30 6289 H 613.573 -3.49185 -1.50911 0
M  V30 6290 H 614.885 -4.48722 -2.1783 0
M  V30 6291 H 614.039 -4.07232 -4.49719 0
M  V30 6292 H 612.778 -2.97806 -3.86216 0
M  V30 6293 H 611.783 -4.87177 -2.5483 0
M  V30 6294 H 613.008 -5.98251 -3.2136 0
M  V30 6295 H 610.954 -4.43233 -4.83612 0
M  V30 6296 H 610.871 -6.11786 -4.44132 0
M  V30 6297 H 612.139 -5.54192 -5.48171 0
M  V30 6298 N 616.368 0.432326 -1.51554 0
M  V30 6299 C 617.316 1.54572 -1.73811 0
M  V30 6300 C 618.31 1.58246 -0.604539 0
M  V30 6301 O 619.516 1.6193 -0.786041 0
M  V30 6302 H 615.891 0.513626 -0.549265 0
M  V30 6303 H 617.862 1.32977 -2.67132 0
M  V30 6304 C 616.611 2.92181 -1.88483 0
M  V30 6305 H 615.934 2.90088 -2.75116 0
M  V30 6306 H 617.374 3.69439 -2.08065 0
M  V30 6307 C 615.833 3.3065 -0.645909 0
M  V30 6308 O 616.363 4.01216 0.197093 0
M  V30 6309 N 614.569 2.86464 -0.488538 0
M  V30 6310 H 614.116 2.29209 -1.17562 0
M  V30 6311 H 614.074 3.12565 0.339156 0
M  V30 6312 N 617.846 1.41785 0.688094 0
M  V30 6313 C 619.093 1.41544 1.44816 0
M  V30 6314 C 619.421 0.0271746 1.94481 0
M  V30 6315 O 618.676 -0.962235 1.7041 0
M  V30 6316 C 618.975 2.37532 2.67046 0
M  V30 6317 C 618.641 3.84209 2.35996 0
M  V30 6318 C 617.303 4.24165 2.27239 0
M  V30 6319 C 619.655 4.76785 2.10536 0
M  V30 6320 C 616.983 5.54695 1.91128 0
M  V30 6321 C 619.335 6.07644 1.75931 0
M  V30 6322 C 617.999 6.46613 1.65675 0
M  V30 6323 H 617.269 0.517945 0.529919 0
M  V30 6324 H 619.916 1.74635 0.785797 0
M  V30 6325 H 618.221 1.9772 3.38251 0
M  V30 6326 H 619.918 2.34615 3.25203 0
M  V30 6327 H 616.508 3.52567 2.4371 0
M  V30 6328 H 620.692 4.46714 2.16242 0
M  V30 6329 H 615.948 5.83762 1.81746 0
M  V30 6330 H 620.122 6.78874 1.55252 0
M  V30 6331 H 617.749 7.47668 1.37463 0
M  V30 6332 N 619.324 -0.923095 1.27737 0
M  V30 6333 C 620.571 -1.67127 1.14345 0
M  V30 6334 C 620.899 -1.92017 -0.30982 0
M  V30 6335 O 620.154 -1.51185 -1.24264 0
M  V30 6336 C 620.453 -3.04125 1.8773 0
M  V30 6337 C 620.119 -2.98929 3.37568 0
M  V30 6338 C 618.781 -2.9722 3.78436 0
M  V30 6339 C 621.133 -2.89875 4.33154 0
M  V30 6340 C 618.461 -2.84244 5.13247 0
M  V30 6341 C 620.813 -2.7844 5.68026 0
M  V30 6342 C 619.477 -2.75083 6.08182 0
M  V30 6343 H 618.747 -0.611562 0.418417 0
M  V30 6344 H 621.394 -1.07618 1.584 0
M  V30 6345 H 619.699 -3.67366 1.36196 0
M  V30 6346 H 621.396 -3.609 1.74792 0
M  V30 6347 H 617.986 -3.0105 3.05069 0
M  V30 6348 H 622.17 -2.9029 4.02548 0
M  V30 6349 H 617.426 -2.80034 5.43499 0
M  V30 6350 H 621.6 -2.70401 6.4176 0
M  V30 6351 H 619.227 -2.64786 7.12596 0
M  V30 6352 N 620.802 -1.09834 -1.13024 0
M  V30 6353 C 621.712 -0.753731 -2.22162 0
M  V30 6354 C 622.728 0.246105 -1.72251 0
M  V30 6355 O 623.904 0.0864051 -2.01215 0
M  V30 6356 C 620.969 -0.183958 -3.46212 0
M  V30 6357 C 620.03 -1.24028 -4.10993 0
M  V30 6358 C 619.263 -0.697597 -5.29121 0
M  V30 6359 O 619.486 0.478092 -5.68393 0
M  V30 6360 O 618.42 -1.4546 -5.84059 0
M  V30 6361 H 622.246 -1.66456 -2.5402 0
M  V30 6362 H 619.831 -0.873026 -1.21238 0
M  V30 6363 H 621.713 0.130257 -4.21199 0
M  V30 6364 H 620.388 0.699823 -3.16045 0
M  V30 6365 H 619.295 -1.60725 -3.37814 0
M  V30 6366 H 620.628 -2.09685 -4.45301 0
M  V30 6367 N 622.28 1.30327 -0.886154 0
M  V30 6368 C 623.691 1.78243 -0.555554 0
M  V30 6369 C 624.042 1.72849 0.928314 0
M  V30 6370 O 623.167 1.30607 1.72542 0
M  V30 6371 C 623.762 3.23654 -1.00168 0
M  V30 6372 C 622.321 3.69401 -0.722471 0
M  V30 6373 C 621.468 2.50753 -1.18399 0
M  V30 6374 H 624.419 1.1718 -1.07026 0
M  V30 6375 H 624.44 3.79056 -0.331152 0
M  V30 6376 H 623.952 3.27548 -2.08169 0
M  V30 6377 H 622.053 3.70995 0.345496 0
M  V30 6378 H 622.166 4.60818 -1.31085 0
M  V30 6379 H 620.53 2.47452 -0.603303 0
M  V30 6380 H 621.313 2.57383 -2.27176 0
M  V30 6381 N 623.758 0.647228 1.43697 0
M  V30 6382 C 624.986 0.16575 2.06235 0
M  V30 6383 C 625.401 -1.1662 1.48476 0
M  V30 6384 O 624.758 -1.7187 0.613762 0
M  V30 6385 C 624.809 0.0621651 3.61447 0
M  V30 6386 O 624.53 1.34146 4.17057 0
M  V30 6387 C 626.031 -0.446102 4.4105 0
M  V30 6388 H 623.251 0.0871158 0.665321 0
M  V30 6389 H 625.795 0.886183 1.84301 0
M  V30 6390 H 623.95 -0.608794 3.82587 0
M  V30 6391 H 624.364 1.19675 5.10664 0
M  V30 6392 H 625.838 -0.46755 5.50016 0
M  V30 6393 H 626.315 -1.47627 4.13646 0
M  V30 6394 H 626.921 0.192159 4.24866 0
M  V30 6395 N 625.236 -1.5273 0.388769 0
M  V30 6396 C 626.166 -2.29353 -0.438111 0
M  V30 6397 C 627.147 -1.32719 -1.06394 0
M  V30 6398 O 628.332 -1.61612 -1.07681 0
M  V30 6399 C 625.462 -3.09995 -1.56589 0
M  V30 6400 C 624.416 -4.14509 -1.06613 0
M  V30 6401 C 623.742 -4.83372 -2.28594 0
M  V30 6402 C 625.042 -5.22127 -0.134459 0
M  V30 6403 H 626.736 -2.98723 0.201206 0
M  V30 6404 H 624.282 -1.43665 0.0982089 0
M  V30 6405 H 626.235 -3.62357 -2.15118 0
M  V30 6406 H 624.959 -2.38357 -2.23279 0
M  V30 6407 H 623.618 -3.63128 -0.503383 0
M  V30 6408 H 623.266 -4.08283 -2.93792 0
M  V30 6409 H 622.966 -5.54012 -1.95817 0
M  V30 6410 H 624.49 -5.38538 -2.87766 0
M  V30 6411 H 625.904 -5.69851 -0.627914 0
M  V30 6412 H 624.301 -6.00011 0.103534 0
M  V30 6413 H 625.371 -4.77971 0.816798 0
M  V30 6414 N 626.714 -0.118576 -1.57153 0
M  V30 6415 C 627.644 0.828436 -2.1831 0
M  V30 6416 C 628.625 1.27758 -1.12303 0
M  V30 6417 O 629.81 1.34026 -1.40537 0
M  V30 6418 C 626.94 2.07876 -2.78217 0
M  V30 6419 C 625.894 1.76742 -3.89803 0
M  V30 6420 C 625.22 3.08801 -4.36516 0
M  V30 6421 C 626.52 1.03606 -5.11921 0
M  V30 6422 H 628.214 0.318824 -2.97698 0
M  V30 6423 H 625.76 0.151911 -1.43196 0
M  V30 6424 H 627.713 2.74584 -3.19659 0
M  V30 6425 H 626.437 2.61161 -1.96118 0
M  V30 6426 H 625.096 1.12424 -3.48936 0
M  V30 6427 H 624.744 3.6002 -3.51276 0
M  V30 6428 H 624.444 2.88743 -5.11763 0
M  V30 6429 H 625.968 3.76627 -4.80608 0
M  V30 6430 H 627.382 1.60467 -5.50385 0
M  V30 6431 H 625.779 0.936454 -5.92748 0
M  V30 6432 H 626.849 0.0227421 -4.84895 0
M  V30 6433 N 628.193 1.56834 0.155195 0
M  V30 6434 C 629.433 1.84701 0.875488 0
M  V30 6435 C 629.797 0.701747 1.78716 0
M  V30 6436 O 630.998 0.861263 2.54629 0
M  V30 6437 C 629.269 3.1773 1.63654 0
M  V30 6438 S 630.828 3.67128 2.40338 0
M  V30 6439 H 627.646 0.647856 0.292923 0
M  V30 6440 H 630.248 1.95026 0.136024 0
M  V30 6441 H 628.952 3.99059 0.958117 0
M  V30 6442 H 628.483 3.10388 2.41708 0
M  V30 6443 H 630.498 3.35739 3.65368 0
M  V30 6444 N 629.671 -0.424282 1.51781 0
M  V30 6445 C 630.619 -1.53649 1.74628 0
M  V30 6446 C 631.613 -1.57923 0.612922 0
M  V30 6447 O 632.819 -1.61511 0.794618 0
M  V30 6448 H 629.194 -0.510706 0.551981 0
M  V30 6449 H 631.165 -1.31558 2.67834 0
M  V30 6450 C 629.914 -2.91177 1.9003 0
M  V30 6451 H 629.237 -2.88625 2.76651 0
M  V30 6452 H 630.677 -3.6833 2.10021 0
M  V30 6453 C 629.136 -3.30303 0.663435 0
M  V30 6454 O 629.666 -4.01315 -0.175812 0
M  V30 6455 N 627.872 -2.86201 0.503723 0
M  V30 6456 H 627.419 -2.28583 1.18776 0
M  V30 6457 H 627.377 -3.12741 -0.322575 0
M  V30 6458 N 631.149 -1.42148 -0.680565 0
M  V30 6459 C 632.395 -1.42521 -1.44277 0
M  V30 6460 C 632.728 -0.0393718 -1.9416 0
M  V30 6461 O 632.003 0.935425 -1.70529 0
M  V30 6462 C 632.286 -2.44475 -2.64394 0
M  V30 6463 C 632.139 -3.92226 -2.20179 0
M  V30 6464 C 633.458 -2.43491 -3.66606 0
M  V30 6465 H 630.577 -0.518985 -0.523282 0
M  V30 6466 H 633.219 -1.73524 -0.773914 0
M  V30 6467 H 631.369 -2.18168 -3.21458 0
M  V30 6468 H 633.041 -4.29493 -1.68327 0
M  V30 6469 H 631.284 -4.0637 -1.5181 0
M  V30 6470 H 631.955 -4.59133 -3.06433 0
M  V30 6471 H 634.431 -2.66872 -3.19247 0
M  V30 6472 H 633.307 -3.16816 -4.4824 0
M  V30 6473 H 633.568 -1.45881 -4.17338 0
M  V30 6474 N 632.627 0.916307 -1.28225 0
M  V30 6475 C 633.855 1.69901 -1.18073 0
M  V30 6476 C 634.27 1.86988 0.260968 0
M  V30 6477 O 633.627 1.39505 1.17663 0
M  V30 6478 C 633.678 3.09254 -1.87201 0
M  V30 6479 O 633.399 2.92959 -3.2574 0
M  V30 6480 C 634.9 4.0362 -1.83319 0
M  V30 6481 H 632.12 0.531181 -0.409985 0
M  V30 6482 H 634.664 1.14703 -1.69303 0
M  V30 6483 H 632.819 3.61277 -1.39848 0
M  V30 6484 H 633.233 3.81139 -3.60324 0
M  V30 6485 H 634.707 4.98873 -2.36282 0
M  V30 6486 H 635.184 4.3176 -0.805007 0
M  V30 6487 H 635.79 3.57524 -2.3034 0
M  V30 6488 N 634.105 1.10431 1.1244 0
M  V30 6489 C 635.037 0.710945 2.17895 0
M  V30 6490 C 636.05 -0.252315 1.60833 0
M  V30 6491 O 637.239 -0.03679 1.78462 0
M  V30 6492 C 634.339 0.0284262 3.38888 0
M  V30 6493 C 633.512 1.01585 4.2544 0
M  V30 6494 C 632.571 0.364826 5.24934 0
M  V30 6495 O 631.597 1.01561 5.60066 0
M  V30 6496 N 632.799 -0.87674 5.73841 0
M  V30 6497 H 635.564 1.61826 2.52255 0
M  V30 6498 H 633.125 0.993132 1.27861 0
M  V30 6499 H 635.117 -0.418568 4.0253 0
M  V30 6500 H 633.687 -0.781294 3.02679 0
M  V30 6501 H 632.907 1.64111 3.58415 0
M  V30 6502 H 634.195 1.68425 4.80115 0
M  V30 6503 H 633.593 -1.42483 5.47462 0
M  V30 6504 H 632.15 -1.26688 6.39369 0
M  V30 6505 N 635.583 -1.29855 0.893053 0
M  V30 6506 C 636.86 -1.90694 0.435336 0
M  V30 6507 C 637.24 -1.8111 -1.08454 0
M  V30 6508 O 636.588 -1.23352 -1.92345 0
M  V30 6509 C 636.798 -3.36033 0.942472 0
M  V30 6510 C 638.146 -4.13083 0.982226 0
M  V30 6511 O 639.17 -3.4491 0.889686 0
M  V30 6512 O 638.029 -5.34896 1.12022 0
M  V30 6513 H 635.123 -0.815978 0.134567 0
M  V30 6514 H 637.669 -1.38367 0.982484 0
M  V30 6515 H 636.441 -3.37132 1.9864 0
M  V30 6516 H 636.064 -3.95828 0.374952 0
M  V30 6517 N 637.061 -0.65484 -1.43351 0
M  V30 6518 C 637.994 0.0855537 -2.2804 0
M  V30 6519 C 638.972 0.828301 -1.39921 0
M  V30 6520 O 640.156 0.827539 -1.69364 0
M  V30 6521 C 637.283 1.12792 -3.19368 0
M  V30 6522 C 636.329 0.483037 -4.23756 0
M  V30 6523 S 637.162 -0.744605 -5.30298 0
M  V30 6524 C 638.318 0.297187 -6.25194 0
M  V30 6525 H 638.551 -0.632831 -2.90487 0
M  V30 6526 H 636.084 -0.44373 -1.47886 0
M  V30 6527 H 638.042 1.7243 -3.72529 0
M  V30 6528 H 636.703 1.81863 -2.56095 0
M  V30 6529 H 635.896 1.26888 -4.87766 0
M  V30 6530 H 635.498 -0.0392713 -3.73979 0
M  V30 6531 H 637.79 1.1629 -6.67445 0
M  V30 6532 H 638.733 -0.30793 -7.0743 0
M  V30 6533 H 639.141 0.633721 -5.60932 0
M  V30 6534 N 638.539 1.52521 -0.396863 0
M  V30 6535 C 639.469 2.29582 0.425941 0
M  V30 6536 C 640.45 1.33281 1.05689 0
M  V30 6537 O 641.635 1.62181 1.06823 0
M  V30 6538 C 638.765 3.10821 1.54943 0
M  V30 6539 C 637.719 4.15069 1.04413 0
M  V30 6540 C 637.045 4.84578 2.26028 0
M  V30 6541 C 638.345 5.22191 0.106767 0
M  V30 6542 H 640.039 2.98612 -0.217045 0
M  V30 6543 H 637.585 1.43611 -0.105826 0
M  V30 6544 H 639.538 3.63492 2.13193 0
M  V30 6545 H 638.262 2.39538 2.22011 0
M  V30 6546 H 636.921 3.63389 0.484118 0
M  V30 6547 H 636.569 4.09835 2.91623 0
M  V30 6548 H 636.269 5.55043 1.92876 0
M  V30 6549 H 637.793 5.40056 2.84906 0
M  V30 6550 H 639.207 5.70176 0.597685 0
M  V30 6551 H 637.604 5.99947 -0.135352 0
M  V30 6552 H 638.674 4.77531 -0.842134 0
M  V30 6553 N 640.017 0.126909 1.57088 0
M  V30 6554 C 641.257 -0.53216 1.97351 0
M  V30 6555 C 641.621 -1.63342 1.00913 0
M  V30 6556 O 642.822 -2.35194 1.30144 0
M  V30 6557 C 641.093 -1.04385 3.41817 0
M  V30 6558 S 642.652 -1.71033 4.04095 0
M  V30 6559 H 639.47 -0.172724 0.689701 0
M  V30 6560 H 642.072 0.213865 1.94327 0
M  V30 6561 H 640.776 -0.231289 4.09748 0
M  V30 6562 H 640.307 -1.82496 3.48509 0
M  V30 6563 H 642.322 -2.99656 3.95501 0
M  V30 6564 N 641.495 -1.56914 -0.146875 0
M  V30 6565 C 642.723 -1.87515 -0.874394 0
M  V30 6566 C 643.138 -0.715116 -1.74733 0
M  V30 6567 O 642.495 0.315113 -1.79759 0
M  V30 6568 C 642.546 -3.17362 -1.731 0
M  V30 6569 O 642.267 -4.28897 -0.893245 0
M  V30 6570 C 643.768 -3.61479 -2.56609 0
M  V30 6571 H 640.988 -0.621546 -0.252827 0
M  V30 6572 H 643.532 -2.04023 -0.139627 0
M  V30 6573 H 641.687 -3.02608 -2.41883 0
M  V30 6574 H 642.101 -5.03146 -1.48137 0
M  V30 6575 H 643.575 -4.5517 -3.12289 0
M  V30 6576 H 644.052 -2.86773 -3.32653 0
M  V30 6577 H 644.658 -3.78927 -1.93117 0
M  V30 6578 N 642.974 0.416227 -1.52004 0
M  V30 6579 C 643.924 1.50558 -1.7122 0
M  V30 6580 C 644.908 1.50613 -0.56609 0
M  V30 6581 O 646.1 1.56709 -0.822874 0
M  V30 6582 C 643.229 2.88556 -1.85984 0
M  V30 6583 C 642.315 2.93177 -3.06445 0
M  V30 6584 N 642.706 2.67505 -4.29272 0
M  V30 6585 C 641.004 3.24343 -3.06133 0
M  V30 6586 C 641.705 2.78511 -5.10692 0
M  V30 6587 N 640.681 3.11087 -4.45787 0
M  V30 6588 H 644.483 1.29494 -2.63834 0
M  V30 6589 H 641.997 0.62384 -1.4994 0
M  V30 6590 H 643.994 3.66954 -1.97865 0
M  V30 6591 H 642.654 3.10624 -0.945654 0
M  V30 6592 H 643.665 2.42033 -4.57865 0
M  V30 6593 H 640.342 3.52051 -2.24425 0
M  V30 6594 H 641.732 2.62438 -6.18527 0
M  V30 6595 N 644.452 1.42507 0.673017 0
M  V30 6596 C 645.362 1.4853 1.81593 0
M  V30 6597 C 646.378 0.373907 1.69935 0
M  V30 6598 O 647.554 0.625078 1.91454 0
M  V30 6599 C 644.619 1.387 3.17747 0
M  V30 6600 C 643.68 2.60346 3.41348 0
M  V30 6601 C 642.913 2.50975 4.71007 0
M  V30 6602 O 643.136 1.54659 5.49033 0
M  V30 6603 O 642.07 3.41138 4.95892 0
M  V30 6604 H 645.896 2.45001 1.79467 0
M  V30 6605 H 643.481 1.2429 0.82899 0
M  V30 6606 H 645.363 1.35586 3.98992 0
M  V30 6607 H 644.038 0.453555 3.20507 0
M  V30 6608 H 642.945 2.69034 2.59945 0
M  V30 6609 H 644.278 3.52595 3.43421 0
M  V30 6610 N 645.93 -0.909495 1.28709 0
M  V30 6611 C 646.84 -2.04558 1.14861 0
M  V30 6612 C 647.856 -1.73842 0.0741621 0
M  V30 6613 O 649.032 -1.99383 0.2843 0
M  V30 6614 C 646.097 -3.36957 0.816148 0
M  V30 6615 C 645.158 -3.81255 1.97341 0
M  V30 6616 C 644.391 -5.07335 1.65671 0
M  V30 6617 O 644.614 -5.67514 0.573053 0
M  V30 6618 O 643.548 -5.47449 2.50167 0
M  V30 6619 H 647.374 -2.19161 2.10243 0
M  V30 6620 H 644.959 -1.03159 1.08068 0
M  V30 6621 H 646.841 -4.16436 0.644873 0
M  V30 6622 H 645.516 -3.2352 -0.107983 0
M  V30 6623 H 644.423 -3.02584 2.19986 0
M  V30 6624 H 645.756 -3.99261 2.87839 0
M  V30 6625 N 647.408 -1.11026 -1.11852 0
M  V30 6626 C 648.636 -0.878818 -1.87308 0
M  V30 6627 C 649.051 0.57111 -1.79955 0
M  V30 6628 O 648.408 1.39409 -1.17777 0
M  V30 6629 C 648.459 -1.3264 -3.36287 0
M  V30 6630 O 648.18 -2.71948 -3.43476 0
M  V30 6631 C 649.681 -1.12974 -4.28663 0
M  V30 6632 H 646.901 -0.315015 -0.592458 0
M  V30 6633 H 649.445 -1.47649 -1.41492 0
M  V30 6634 H 647.6 -0.772269 -3.79625 0
M  V30 6635 H 648.014 -2.91241 -4.3621 0
M  V30 6636 H 649.488 -1.49198 -5.31454 0
M  V30 6637 H 649.965 -0.0689127 -4.39146 0
M  V30 6638 H 650.571 -1.67064 -3.91113 0
M  V30 6639 N 648.886 1.2938 -0.899927 0
M  V30 6640 C 650.133 1.9555 -0.525963 0
M  V30 6641 C 650.461 1.70945 0.927789 0
M  V30 6642 O 649.716 1.01545 1.67293 0
M  V30 6643 C 650.015 3.49114 -0.765113 0
M  V30 6644 C 649.681 3.93796 -2.19626 0
M  V30 6645 C 648.343 4.05707 -2.58758 0
M  V30 6646 C 650.695 4.16883 -3.12823 0
M  V30 6647 C 648.023 4.38074 -3.90267 0
M  V30 6648 C 650.375 4.50725 -4.4388 0
M  V30 6649 C 649.039 4.60845 -4.82885 0
M  V30 6650 H 648.309 0.715569 -0.192463 0
M  V30 6651 H 650.956 1.53972 -1.13863 0
M  V30 6652 H 649.261 3.91738 -0.069531 0
M  V30 6653 H 650.958 3.98409 -0.455144 0
M  V30 6654 H 647.548 3.85042 -1.88256 0
M  V30 6655 H 651.732 4.07147 -2.83804 0
M  V30 6656 H 646.988 4.44112 -4.20207 0
M  V30 6657 H 651.162 4.67538 -5.16121 0
M  V30 6658 H 648.789 4.85681 -5.84823 0
M  V30 6659 N 650.364 0.662433 1.43002 0
M  V30 6660 C 651.612 0.179237 2.01304 0
M  V30 6661 C 651.933 -1.21428 1.52579 0
M  V30 6662 O 651.203 -1.81294 0.742252 0
M  V30 6663 H 649.783 0.0632725 0.744316 0
M  V30 6664 H 652.445 0.856169 1.75088 0
M  V30 6665 H 651.541 0.170957 3.11631 0
M  V30 6666 N 651.842 -1.52309 0.404946 0
M  V30 6667 C 653.253 -1.86585 -0.0655926 0
M  V30 6668 C 653.604 -1.3239 -1.44801 0
M  V30 6669 O 652.729 -0.6615 -2.06042 0
M  V30 6670 C 653.324 -3.38566 -0.125801 0
M  V30 6671 C 651.883 -3.72497 -0.540666 0
M  V30 6672 C 651.03 -2.75806 0.287487 0
M  V30 6673 H 653.981 -1.45995 0.622185 0
M  V30 6674 H 654.002 -3.68658 -0.941888 0
M  V30 6675 H 653.514 -3.77981 0.880473 0
M  V30 6676 H 651.615 -3.38659 -1.55373 0
M  V30 6677 H 651.728 -4.78234 -0.287956 0
M  V30 6678 H 650.092 -2.53474 -0.249561 0
M  V30 6679 H 650.875 -3.18059 1.29203 0
M  V30 6680 N 653.32 -0.135238 -1.57019 0
M  V30 6681 C 654.25 0.805235 -2.19176 0
M  V30 6682 C 655.231 1.2656 -1.13651 0
M  V30 6683 O 656.416 1.32528 -1.4195 0
M  V30 6684 C 653.546 2.04914 -2.80406 0
M  V30 6685 C 652.5 1.72598 -3.91655 0
M  V30 6686 C 651.826 3.04154 -4.39766 0
M  V30 6687 C 653.126 0.981709 -5.12991 0
M  V30 6688 H 654.82 0.287232 -2.98019 0
M  V30 6689 H 652.366 0.136714 -1.4335 0
M  V30 6690 H 654.319 2.71178 -3.22553 0
M  V30 6691 H 653.043 2.59067 -1.98877 0
M  V30 6692 H 651.702 1.08717 -3.50109 0
M  V30 6693 H 651.35 3.56274 -3.55075 0
M  V30 6694 H 651.05 2.83299 -5.14796 0
M  V30 6695 H 652.574 3.71509 -4.84576 0
M  V30 6696 H 653.988 1.5462 -5.52056 0
M  V30 6697 H 652.385 0.873533 -5.93708 0
M  V30 6698 H 653.455 -0.0286887 -4.84892 0
M  V30 6699 N 654.798 1.5699 0.138552 0
M  V30 6700 C 655.761 1.97984 1.15478 0
M  V30 6701 C 656.761 0.867416 1.35398 0
M  V30 6702 O 657.951 1.13387 1.32246 0
M  V30 6703 C 655.083 2.3031 2.51337 0
M  V30 6704 H 656.276 2.88953 0.802896 0
M  V30 6705 H 653.829 1.51555 0.382189 0
M  V30 6706 H 654.564 1.42159 2.91481 0
M  V30 6707 H 654.349 3.11425 2.38237 0
M  V30 6708 H 655.839 2.62834 3.24512 0
M  V30 6709 N 656.276 -0.40816 1.52223 0
M  V30 6710 C 657.687 -0.986929 1.58482 0
M  V30 6711 C 658.038 -1.91521 0.425917 0
M  V30 6712 O 657.163 -2.11593 -0.453593 0
M  V30 6713 C 657.758 -1.7967 2.87235 0
M  V30 6714 C 656.317 -2.32549 2.9597 0
M  V30 6715 C 655.464 -1.12558 2.53428 0
M  V30 6716 H 658.415 -0.188362 1.57578 0
M  V30 6717 H 658.436 -2.65417 2.72642 0
M  V30 6718 H 657.948 -1.12082 3.71563 0
M  V30 6719 H 656.049 -3.03505 2.16137 0
M  V30 6720 H 656.162 -2.63348 4.00231 0
M  V30 6721 H 654.526 -1.47984 2.07299 0
M  V30 6722 H 655.309 -0.465351 3.40131 0
M  V30 6723 N 657.755 -1.42862 -0.66545 0
M  V30 6724 C 659.001 -1.44043 -1.42757 0
M  V30 6725 C 659.334 -0.0599629 -1.94107 0
M  V30 6726 O 658.609 0.917286 -1.71511 0
M  V30 6727 C 658.892 -2.47266 -2.61786 0
M  V30 6728 C 658.745 -3.94539 -2.16007 0
M  V30 6729 C 660.064 -2.47365 -3.64003 0
M  V30 6730 H 657.183 -0.524506 -0.517748 0
M  V30 6731 H 659.825 -1.74335 -0.755466 0
M  V30 6732 H 657.975 -2.21565 -3.19126 0
M  V30 6733 H 659.647 -4.31254 -1.63762 0
M  V30 6734 H 657.89 -4.07957 -1.47491 0
M  V30 6735 H 658.561 -4.62357 -3.01546 0
M  V30 6736 H 661.037 -2.70243 -3.16399 0
M  V30 6737 H 659.913 -3.21552 -4.44854 0
M  V30 6738 H 660.174 -1.50299 -4.15767 0
M  V30 6739 N 659.233 0.902656 -1.29189 0
M  V30 6740 C 660.482 1.6475 -1.16362 0
M  V30 6741 C 660.795 1.93517 0.284682 0
M  V30 6742 O 662.001 2.66192 0.534229 0
M  V30 6743 C 660.457 2.96848 -2.03493 0
M  V30 6744 C 660.065 2.75687 -3.5313 0
M  V30 6745 C 661.809 3.74762 -1.99383 0
M  V30 6746 C 659.716 4.03492 -4.32375 0
M  V30 6747 H 658.646 0.618041 -0.431904 0
M  V30 6748 H 661.297 1.0008 -1.53806 0
M  V30 6749 H 659.679 3.62715 -1.58916 0
M  V30 6750 H 660.853 2.18431 -4.05739 0
M  V30 6751 H 659.168 2.11171 -3.58881 0
M  V30 6752 H 661.765 4.69515 -2.5585 0
M  V30 6753 H 662.108 4.04767 -0.973123 0
M  V30 6754 H 662.641 3.15732 -2.41988 0
M  V30 6755 H 659.38 3.78656 -5.3507 0
M  V30 6756 H 658.9 4.60318 -3.84535 0
M  V30 6757 H 660.579 4.71662 -4.42881 0
M  V30 6758 N 660.711 1.11618 1.11262 0
M  V30 6759 C 661.658 0.7762 2.17356 0
M  V30 6760 C 662.628 -0.253152 1.6416 0
M  V30 6761 O 663.813 -0.129655 1.90359 0
M  V30 6762 C 660.953 0.227581 3.44349 0
M  V30 6763 C 660.066 1.31372 4.1154 0
M  V30 6764 C 659.201 0.72544 5.26223 0
M  V30 6765 C 658.24 1.7913 5.85302 0
M  V30 6766 N 657.377 1.22237 6.91377 0
M  V30 6767 H 662.217 1.68508 2.45783 0
M  V30 6768 H 659.754 0.841475 1.20655 0
M  V30 6769 H 661.712 -0.108483 4.17059 0
M  V30 6770 H 660.342 -0.644486 3.16301 0
M  V30 6771 H 659.394 1.7667 3.36885 0
M  V30 6772 H 660.706 2.12005 4.51504 0
M  V30 6773 H 659.86 0.339541 6.05749 0
M  V30 6774 H 658.599 -0.112188 4.87571 0
M  V30 6775 H 657.604 2.18648 5.04453 0
M  V30 6776 H 658.829 2.63199 6.26022 0
M  V30 6777 H 656.775 0.406423 6.5474 0
M  V30 6778 H 656.692 1.9654 7.30006 0
M  V30 6779 H 657.96 0.863426 7.74703 0
M  V30 6780 N 662.189 -1.289 0.906776 0
M  V30 6781 C 663.436 -1.95269 0.536326 0
M  V30 6782 C 663.764 -1.71435 -0.918711 0
M  V30 6783 O 663.019 -1.02431 -1.66752 0
M  V30 6784 C 663.318 -3.48704 0.783617 0
M  V30 6785 C 662.984 -3.92626 2.21711 0
M  V30 6786 C 661.646 -4.04329 2.60906 0
M  V30 6787 C 663.998 -4.15218 3.15029 0
M  V30 6788 C 661.326 -4.35998 3.92584 0
M  V30 6789 C 663.678 -4.48365 4.46264 0
M  V30 6790 C 662.342 -4.58278 4.85322 0
M  V30 6791 H 661.612 -0.714538 0.196256 0
M  V30 6792 H 664.259 -1.53366 1.14678 0
M  V30 6793 H 662.564 -3.91696 0.0903048 0
M  V30 6794 H 664.261 -3.98162 0.476267 0
M  V30 6795 H 660.851 -3.84038 1.90296 0
M  V30 6796 H 665.035 -4.05636 2.8596 0
M  V30 6797 H 660.291 -4.41878 4.22557 0
M  V30 6798 H 664.465 -4.64795 5.18593 0
M  V30 6799 H 662.092 -4.82573 5.87391 0
M  V30 6800 N 663.667 -0.670007 -1.42649 0
M  V30 6801 C 664.944 -0.119451 -1.95235 0
M  V30 6802 C 665.324 1.36461 -1.61064 0
M  V30 6803 O 664.672 2.09843 -0.904329 0
M  V30 6804 C 664.882 -0.383498 -3.46887 0
M  V30 6805 C 666.23 -0.297431 -4.23557 0
M  V30 6806 O 667.254 -0.31698 -3.54787 0
M  V30 6807 O 666.113 -0.235507 -5.45992 0
M  V30 6808 H 663.207 -8.85474e-05 -0.827 0
M  V30 6809 H 665.753 -0.744406 -1.52501 0
M  V30 6810 H 664.525 -1.41174 -3.64946 0
M  V30 6811 H 664.148 0.273702 -3.96657 0
M  V30 6812 N 665.145 1.52092 -0.413018 0
M  V30 6813 C 666.373 2.06274 0.160881 0
M  V30 6814 C 666.788 1.28273 1.38533 0
M  V30 6815 O 666.145 0.33563 1.79387 0
M  V30 6816 C 666.196 3.57921 0.507443 0
M  V30 6817 O 665.917 4.32971 -0.668388 0
M  V30 6818 C 667.418 4.28533 1.13465 0
M  V30 6819 H 664.638 0.67074 0.0186759 0
M  V30 6820 H 667.182 1.95951 -0.585092 0
M  V30 6821 H 665.337 3.68238 1.20331 0
M  V30 6822 H 665.751 5.23135 -0.378169 0
M  V30 6823 H 667.225 5.35804 1.32732 0
M  V30 6824 H 667.702 3.85258 2.10886 0
M  V30 6825 H 668.308 4.22595 0.478876 0
M  V30 6826 N 666.623 0.143563 1.56945 0
M  V30 6827 C 667.533 -0.810562 2.20152 0
M  V30 6828 C 668.549 -1.27431 1.1848 0
M  V30 6829 O 669.725 -1.33221 1.51044 0
M  V30 6830 C 666.79 -2.03353 2.80799 0
M  V30 6831 C 665.851 -1.61936 3.97587 0
M  V30 6832 C 665.084 -2.78403 4.55332 0
M  V30 6833 O 665.307 -3.94521 4.11958 0
M  V30 6834 O 664.241 -2.54073 5.45647 0
M  V30 6835 H 668.067 -0.30253 3.02189 0
M  V30 6836 H 665.652 -0.0832925 1.49168 0
M  V30 6837 H 667.534 -2.74932 3.19359 0
M  V30 6838 H 666.209 -2.53116 2.01777 0
M  V30 6839 H 665.116 -0.873904 3.6375 0
M  V30 6840 H 666.449 -1.16892 4.78118 0
M  V30 6841 N 668.101 -1.57061 -0.130224 0
M  V30 6842 C 669.011 -2.02802 -1.17934 0
M  V30 6843 C 670.027 -0.946378 -1.46013 0
M  V30 6844 O 671.203 -1.25708 -1.57351 0
M  V30 6845 C 668.268 -2.41368 -2.48882 0
M  V30 6846 C 667.329 -3.63561 -2.28301 0
M  V30 6847 C 666.562 -4.00279 -3.53005 0
M  V30 6848 O 666.785 -3.37463 -4.59864 0
M  V30 6849 O 665.719 -4.93441 -3.44673 0
M  V30 6850 H 669.545 -2.92394 -0.820958 0
M  V30 6851 H 667.13 -1.45475 -0.340197 0
M  V30 6852 H 669.012 -2.66958 -3.26054 0
M  V30 6853 H 667.687 -1.54926 -2.84217 0
M  V30 6854 H 666.594 -3.43136 -1.49025 0
M  V30 6855 H 667.927 -4.50673 -1.97875 0
M  V30 6856 N 669.579 0.400081 -1.52437 0
M  V30 6857 C 670.489 1.51253 -1.79331 0
M  V30 6858 C 671.505 1.60188 -0.679396 0
M  V30 6859 O 672.681 1.76733 -0.965791 0
M  V30 6860 C 669.746 2.869 -1.94652 0
M  V30 6861 C 668.807 2.87777 -3.18564 0
M  V30 6862 C 668.04 4.16954 -3.33145 0
M  V30 6863 O 668.263 5.11329 -2.52783 0
M  V30 6864 O 667.197 4.2487 -4.26343 0
M  V30 6865 H 671.023 1.31461 -2.73773 0
M  V30 6866 H 668.608 0.586834 -1.37392 0
M  V30 6867 H 670.49 3.67336 -2.065 0
M  V30 6868 H 669.165 3.06741 -1.034 0
M  V30 6869 H 668.072 2.06162 -3.12167 0
M  V30 6870 H 669.405 2.72886 -4.09627 0
M  V30 6871 N 671.057 1.43213 0.657864 0
M  V30 6872 C 672.02 1.47687 1.75275 0
M  V30 6873 C 673.02 0.362179 1.56668 0
M  V30 6874 O 674.21 0.623734 1.62651 0
M  V30 6875 C 671.342 1.32497 3.14098 0
M  V30 6876 H 672.535 2.4519 1.7269 0
M  V30 6877 H 670.088 1.2991 0.869087 0
M  V30 6878 H 670.823 0.359831 3.22298 0
M  V30 6879 H 670.608 2.13299 3.29008 0
M  V30 6880 H 672.098 1.38549 3.93946 0
M  V30 6881 N 672.536 -0.895792 1.29666 0
M  V30 6882 C 673.785 -1.64131 1.17234 0
M  V30 6883 C 674.098 -1.93665 -0.274416 0
M  V30 6884 O 675.304 -2.66472 -0.520105 0
M  V30 6885 C 673.76 -2.95764 2.05065 0
M  V30 6886 C 673.368 -2.7381 3.54587 0
M  V30 6887 C 675.112 -3.737 2.01367 0
M  V30 6888 C 673.019 -4.01194 4.34508 0
M  V30 6889 H 671.949 -0.615742 0.435175 0
M  V30 6890 H 674.6 -0.992626 1.54335 0
M  V30 6891 H 672.982 -3.61867 1.60837 0
M  V30 6892 H 674.156 -2.16277 4.06892 0
M  V30 6893 H 672.471 -2.09265 3.59996 0
M  V30 6894 H 675.068 -4.68152 2.58337 0
M  V30 6895 H 675.411 -4.04245 0.994575 0
M  V30 6896 H 675.944 -3.14444 2.43659 0
M  V30 6897 H 672.683 -3.75813 5.37071 0
M  V30 6898 H 672.203 -4.58272 3.86971 0
M  V30 6899 H 673.882 -4.69307 4.45376 0
M  V30 6900 N 674.014 -1.12206 -1.10668 0
M  V30 6901 C 674.977 -0.790867 -2.15123 0
M  V30 6902 C 675.977 0.193618 -1.5963 0
M  V30 6903 O 677.167 -0.0318728 -1.74171 0
M  V30 6904 C 674.299 -0.174797 -3.40452 0
M  V30 6905 H 675.492 -1.7163 -2.45933 0
M  V30 6906 H 673.045 -0.924993 -1.2599 0
M  V30 6907 H 673.78 0.760478 -3.15257 0
M  V30 6908 H 673.565 -0.88358 -3.82015 0
M  V30 6909 H 675.055 0.0405162 -4.1758 0
M  V30 6910 N 675.492 1.28418 -0.913599 0
M  V30 6911 C 676.741 1.94265 -0.542572 0
M  V30 6912 C 677.054 1.72709 0.918207 0
M  V30 6913 O 678.26 2.32778 1.39738 0
M  V30 6914 C 676.716 3.47956 -0.919507 0
M  V30 6915 C 676.324 3.78291 -2.4 0
M  V30 6916 C 678.068 4.19962 -0.619057 0
M  V30 6917 C 675.975 5.2529 -2.71707 0
M  V30 6918 H 674.905 0.727213 -0.199192 0
M  V30 6919 H 677.556 1.45931 -1.11249 0
M  V30 6920 H 675.938 3.9502 -0.278372 0
M  V30 6921 H 677.112 3.42035 -3.08786 0
M  V30 6922 H 675.427 3.19456 -2.67089 0
M  V30 6923 H 678.024 5.28178 -0.832623 0
M  V30 6924 H 678.367 4.13935 0.443126 0
M  V30 6925 H 678.9 3.78674 -1.21865 0
M  V30 6926 H 675.639 5.36394 -3.76778 0
M  V30 6927 H 675.159 5.62743 -2.07559 0
M  V30 6928 H 676.838 5.93027 -2.58703 0
M  V30 6929 N 676.97 0.677563 1.42291 0
M  V30 6930 C 677.933 0.0101085 2.29198 0
M  V30 6931 C 678.933 -0.726219 1.43467 0
M  V30 6932 O 680.123 -0.563807 1.64824 0
M  V30 6933 C 677.255 -0.996316 3.26016 0
M  V30 6934 H 678.448 0.775071 2.89711 0
M  V30 6935 H 676.001 0.440065 1.49977 0
M  V30 6936 H 676.736 -1.78967 2.70446 0
M  V30 6937 H 676.521 -0.471687 3.89253 0
M  V30 6938 H 678.011 -1.46167 3.91184 0
M  V30 6939 N 678.448 -1.51871 0.421078 0
M  V30 6940 C 679.396 -2.28903 -0.413066 0
M  V30 6941 C 680.39 -1.3408 -1.03532 0
M  V30 6942 O 681.596 -1.5149 -0.972146 0
M  V30 6943 H 677.971 -0.736478 -0.152003 0
M  V30 6944 H 679.942 -2.97285 0.257695 0
M  V30 6945 C 678.691 -3.13156 -1.51091 0
M  V30 6946 H 678.014 -3.85997 -1.04145 0
M  V30 6947 H 679.454 -3.7014 -2.06814 0
M  V30 6948 C 677.913 -2.27482 -2.48503 0
M  V30 6949 O 678.443 -1.92325 -3.52667 0
M  V30 6950 N 676.649 -1.91019 -2.18998 0
M  V30 6951 H 676.196 -2.19808 -1.34322 0
M  V30 6952 H 676.154 -1.3399 -2.84419 0
M  V30 6953 N 679.926 -0.151884 -1.56866 0
M  V30 6954 C 680.889 0.771861 -2.15812 0
M  V30 6955 C 681.889 1.17181 -1.10115 0
M  V30 6956 O 683.079 1.09194 -1.35729 0
M  V30 6957 C 680.211 2.04806 -2.7252 0
M  V30 6958 H 681.404 0.259021 -2.98779 0
M  V30 6959 H 678.957 0.097588 -1.55995 0
M  V30 6960 H 679.692 2.60445 -1.93233 0
M  V30 6961 H 679.477 1.77044 -3.49854 0
M  V30 6962 H 680.967 2.70771 -3.1792 0
M  V30 6963 N 681.404 1.57128 0.121893 0
M  V30 6964 C 682.367 1.99197 1.13372 0
M  V30 6965 C 683.367 0.881728 1.3447 0
M  V30 6966 O 684.557 1.14783 1.31036 0
M  V30 6967 C 681.689 2.32963 2.4888 0
M  V30 6968 H 682.882 2.89788 0.772204 0
M  V30 6969 H 680.435 1.51952 0.366093 0
M  V30 6970 H 681.17 1.45243 2.89957 0
M  V30 6971 H 680.955 3.13934 2.34921 0
M  V30 6972 H 682.445 2.66261 3.21706 0
M  V30 6973 N 682.882 -0.391992 1.52647 0
M  V30 6974 C 684.159 -1.15136 1.58123 0
M  V30 6975 C 684.539 -2.07786 0.372597 0
M  V30 6976 O 683.887 -2.19374 -0.639304 0
M  V30 6977 C 684.097 -1.91367 2.91856 0
M  V30 6978 C 685.445 -2.46833 3.45483 0
M  V30 6979 O 686.469 -2.01527 2.9371 0
M  V30 6980 O 685.328 -3.29587 4.3593 0
M  V30 6981 H 682.422 -0.526649 0.637629 0
M  V30 6982 H 684.968 -0.397386 1.64982 0
M  V30 6983 H 683.74 -1.23597 3.71268 0
M  V30 6984 H 683.363 -2.73732 2.88369 0
M  V30 6985 N 684.36 -1.4356 -0.65026 0
M  V30 6986 C 685.606 -1.45549 -1.41221 0
M  V30 6987 C 685.939 -0.0805472 -1.94033 0
M  V30 6988 O 685.214 0.899043 -1.72475 0
M  V30 6989 C 685.497 -2.50028 -2.59148 0
M  V30 6990 C 685.35 -3.96808 -2.1181 0
M  V30 6991 C 686.669 -2.51212 -3.61359 0
M  V30 6992 H 683.788 -0.529967 -0.512156 0
M  V30 6993 H 686.43 -1.75127 -0.736933 0
M  V30 6994 H 684.58 -2.24937 -3.16758 0
M  V30 6995 H 686.252 -4.32966 -1.59178 0
M  V30 6996 H 684.495 -4.09498 -1.43156 0
M  V30 6997 H 685.166 -4.6553 -2.96625 0
M  V30 6998 H 687.642 -2.73583 -3.13515 0
M  V30 6999 H 686.518 -3.26252 -4.41419 0
M  V30 7000 H 686.779 -1.54701 -4.1415 0
M  V30 7001 N 685.838 0.888903 -1.30139 0
M  V30 7002 C 687.086 1.63713 -1.18501 0
M  V30 7003 C 687.407 1.9324 0.261399 0
M  V30 7004 O 686.677 1.56608 1.17689 0
M  V30 7005 H 685.257 0.606861 -0.435579 0
M  V30 7006 H 687.919 1.06525 -1.63213 0
M  V30 7007 H 687.015 2.58894 -1.743 0
M  V30 7008 N 687.317 1.12792 1.10072 0
M  V30 7009 C 688.247 0.821688 2.18565 0
M  V30 7010 C 689.228 -0.21612 1.68721 0
M  V30 7011 O 690.413 -0.0764932 1.94049 0
M  V30 7012 C 687.543 0.279624 3.46172 0
M  V30 7013 C 686.497 1.25092 4.09312 0
M  V30 7014 C 685.823 0.568916 5.31665 0
M  V30 7015 C 687.123 2.60699 4.52585 0
M  V30 7016 H 688.817 1.72888 2.44438 0
M  V30 7017 H 686.363 0.832702 1.17482 0
M  V30 7018 H 688.316 0.053099 4.21367 0
M  V30 7019 H 687.04 -0.662929 3.19801 0
M  V30 7020 H 685.699 1.46332 3.36129 0
M  V30 7021 H 685.347 -0.378898 5.01571 0
M  V30 7022 H 685.047 1.21687 5.74862 0
M  V30 7023 H 686.571 0.351517 6.09587 0
M  V30 7024 H 687.985 2.43465 5.19035 0
M  V30 7025 H 686.382 3.21608 5.06644 0
M  V30 7026 H 687.452 3.1886 3.65317 0
M  V30 7027 N 688.795 -1.27931 0.920396 0
M  V30 7028 C 689.758 -2.25345 0.41858 0
M  V30 7029 C 690.758 -1.54116 -0.458798 0
M  V30 7030 O 691.948 -1.72235 -0.260912 0
M  V30 7031 C 689.08 -3.38556 -0.399104 0
M  V30 7032 H 690.273 -2.71251 1.27918 0
M  V30 7033 H 687.826 -1.39728 0.700406 0
M  V30 7034 H 688.561 -2.98021 -1.27882 0
M  V30 7035 H 688.346 -3.91426 0.229863 0
M  V30 7036 H 689.836 -4.10976 -0.740817 0
M  V30 7037 N 690.273 -0.685099 -1.4193 0
M  V30 7038 C 691.521 -0.21124 -2.00993 0
M  V30 7039 C 691.842 1.18985 -1.54491 0
M  V30 7040 O 691.112 1.8009 -0.771 0
M  V30 7041 H 689.692 -0.0751059 -0.743215 0
M  V30 7042 H 692.354 -0.883915 -1.73704 0
M  V30 7043 H 691.45 -0.220513 -3.1132 0
M  V30 7044 N 691.751 1.51645 -0.429126 0
M  V30 7045 C 692.981 2.06133 0.138793 0
M  V30 7046 C 693.389 1.29735 1.37716 0
M  V30 7047 O 692.732 0.347955 1.80375 0
M  V30 7048 C 692.794 3.55504 0.534493 0
M  V30 7049 C 692.458 4.53098 -0.595917 0
M  V30 7050 C 693.455 4.98815 -1.46558 0
M  V30 7051 C 691.14 4.96296 -0.774309 0
M  V30 7052 C 693.134 5.86394 -2.4984 0
M  V30 7053 C 690.821 5.83667 -1.81042 0
M  V30 7054 C 691.819 6.28613 -2.67086 0
M  V30 7055 O 691.507 7.14251 -3.68919 0
M  V30 7056 H 691.239 0.675833 0.0150263 0
M  V30 7057 H 693.793 1.96301 -0.604584 0
M  V30 7058 H 692.023 3.63092 1.33045 0
M  V30 7059 H 693.712 3.92545 1.03262 0
M  V30 7060 H 694.478 4.66143 -1.33925 0
M  V30 7061 H 690.357 4.60859 -0.114178 0
M  V30 7062 H 693.901 6.21398 -3.17034 0
M  V30 7063 H 689.798 6.15753 -1.93698 0
M  V30 7064 H 690.566 7.3241 -3.65402 0
M  V30 7065 N 693.229 0.160201 1.56784 0
M  V30 7066 C 694.476 -0.487588 1.96542 0
M  V30 7067 C 694.804 -1.63999 1.04569 0
M  V30 7068 O 694.059 -1.95546 0.0775211 0
M  V30 7069 C 694.358 -1.02259 3.42459 0
M  V30 7070 C 694.024 0.0127436 4.50898 0
M  V30 7071 C 692.686 0.297318 4.80281 0
M  V30 7072 C 695.038 0.716078 5.16257 0
M  V30 7073 C 692.366 1.29081 5.72324 0
M  V30 7074 C 694.718 1.69847 6.09372 0
M  V30 7075 C 693.382 1.99061 6.37127 0
M  V30 7076 H 692.652 -0.178421 0.719199 0
M  V30 7077 H 695.299 0.249818 1.89864 0
M  V30 7078 H 693.604 -1.8376 3.46034 0
M  V30 7079 H 695.301 -1.53261 3.70556 0
M  V30 7080 H 691.891 -0.219235 4.28039 0
M  V30 7081 H 696.075 0.509428 4.93679 0
M  V30 7082 H 691.331 1.52344 5.92116 0
M  V30 7083 H 695.505 2.2489 6.59088 0
M  V30 7084 H 693.132 2.76194 7.08252 0
M  V30 7085 N 694.707 -1.5719 -0.113559 0
M  V30 7086 C 695.937 -1.89053 -0.833212 0
M  V30 7087 C 696.345 -0.750139 -1.73694 0
M  V30 7088 O 695.688 0.287808 -1.81431 0
M  V30 7089 C 695.75 -3.15986 -1.71443 0
M  V30 7090 C 695.414 -4.46271 -0.984449 0
M  V30 7091 C 696.411 -5.18897 -0.322741 0
M  V30 7092 C 694.096 -4.92963 -0.964011 0
M  V30 7093 C 696.09 -6.3644 0.349646 0
M  V30 7094 C 693.777 -6.10422 -0.287828 0
M  V30 7095 C 694.775 -6.82009 0.36784 0
M  V30 7096 O 694.463 -7.97233 1.03322 0
M  V30 7097 H 694.195 -0.630225 -0.244526 0
M  V30 7098 H 696.749 -2.05152 -0.100847 0
M  V30 7099 H 694.979 -2.95984 -2.48858 0
M  V30 7100 H 696.668 -3.33826 -2.309 0
M  V30 7101 H 697.434 -4.83875 -0.330114 0
M  V30 7102 H 693.313 -4.37143 -1.46379 0
M  V30 7103 H 696.857 -6.92254 0.861996 0
M  V30 7104 H 692.754 -6.449 -0.278237 0
M  V30 7105 H 693.522 -8.13105 0.938247 0
M  V30 7106 N 696.185 0.383891 -1.52853 0
M  V30 7107 C 697.41 1.154 -1.7233 0
M  V30 7108 C 697.835 1.82809 -0.44298 0
M  V30 7109 O 697.193 1.71026 0.601645 0
M  V30 7110 C 697.241 2.17386 -2.87708 0
M  V30 7111 O 696.345 3.24082 -2.55038 0
M  V30 7112 H 695.686 0.335709 -0.572883 0
M  V30 7113 H 698.216 0.44662 -1.99666 0
M  V30 7114 H 698.226 2.61296 -3.1335 0
M  V30 7115 H 696.901 1.6771 -3.80587 0
M  V30 7116 H 695.478 2.85273 -2.40153 0
M  V30 7117 N 697.663 1.43903 0.642637 0
M  V30 7118 C 698.595 1.45857 1.768 0
M  V30 7119 C 699.608 0.353358 1.58919 0
M  V30 7120 O 700.797 0.618426 1.67445 0
M  V30 7121 C 697.897 1.26583 3.14372 0
M  V30 7122 C 697.07 2.50139 3.58817 0
M  V30 7123 C 696.129 2.25933 4.75227 0
M  V30 7124 O 695.155 2.99351 4.84125 0
M  V30 7125 N 696.357 1.28263 5.66153 0
M  V30 7126 H 699.122 2.42869 1.75598 0
M  V30 7127 H 696.683 1.39194 0.826832 0
M  V30 7128 H 698.675 1.08255 3.89953 0
M  V30 7129 H 697.245 0.37978 3.10284 0
M  V30 7130 H 696.465 2.83821 2.73568 0
M  V30 7131 H 697.753 3.32344 3.8526 0
M  V30 7132 H 697.151 0.676041 5.61646 0
M  V30 7133 H 695.708 1.15916 6.4141 0
M  V30 7134 N 699.141 -0.881989 1.30609 0
M  V30 7135 C 700.418 -1.61563 1.10258 0
M  V30 7136 C 700.798 -2.08228 -0.347053 0
M  V30 7137 O 700.146 -1.85151 -1.33908 0
M  V30 7138 C 700.356 -2.78287 2.10612 0
M  V30 7139 C 701.704 -3.48545 2.4249 0
M  V30 7140 O 702.728 -2.88479 2.08945 0
M  V30 7141 O 701.587 -4.56873 2.99883 0
M  V30 7142 H 698.681 -0.710238 0.423663 0
M  V30 7143 H 701.227 -0.928503 1.42045 0
M  V30 7144 H 699.999 -2.41131 3.08174 0
M  V30 7145 H 699.622 -3.54695 1.79659 0
M  V30 7146 N 700.619 -1.13374 -1.09472 0
M  V30 7147 C 702.03 -0.90801 -1.63132 0
M  V30 7148 C 702.381 0.555576 -1.8817 0
M  V30 7149 O 701.506 1.42218 -1.63104 0
M  V30 7150 C 702.101 -1.64182 -2.96361 0
M  V30 7151 C 700.66 -1.46197 -3.46848 0
M  V30 7152 C 699.807 -1.67134 -2.21273 0
M  V30 7153 H 702.758 -1.2871 -0.928411 0
M  V30 7154 H 702.779 -1.09863 -3.64294 0
M  V30 7155 H 702.291 -2.707 -2.78106 0
M  V30 7156 H 700.392 -0.419788 -3.70228 0
M  V30 7157 H 700.505 -2.22472 -4.24315 0
M  V30 7158 H 698.869 -1.09616 -2.29905 0
M  V30 7159 H 699.652 -2.74971 -2.05538 0
M  V30 7160 N 702.098 1.27442 -0.927168 0
M  V30 7161 C 703.061 2.2512 -0.430525 0
M  V30 7162 C 704.061 1.54357 0.450619 0
M  V30 7163 O 705.251 1.72371 0.251774 0
M  V30 7164 C 702.383 3.38763 0.381144 0
M  V30 7165 H 703.576 2.70569 -1.29354 0
M  V30 7166 H 701.129 1.39355 -0.707806 0
M  V30 7167 H 701.864 2.98695 1.263 0
M  V30 7168 H 701.649 3.91298 -0.250618 0
M  V30 7169 H 703.139 4.11364 0.719012 0
M  V30 7170 N 703.576 0.692616 1.41565 0
M  V30 7171 C 704.508 -0.0137132 2.29196 0
M  V30 7172 C 705.521 -0.747417 1.44629 0
M  V30 7173 O 706.71 -0.598611 1.68163 0
M  V30 7174 C 703.81 -1.04347 3.22436 0
M  V30 7175 C 702.983 -0.379985 4.35746 0
M  V30 7176 C 702.042 -1.31195 5.09583 0
M  V30 7177 O 701.068 -0.805455 5.63472 0
M  V30 7178 N 702.27 -2.64443 5.16769 0
M  V30 7179 H 705.035 0.738614 2.90456 0
M  V30 7180 H 702.596 0.538415 1.52685 0
M  V30 7181 H 704.588 -1.6686 3.687 0
M  V30 7182 H 703.158 -1.69736 2.62504 0
M  V30 7183 H 702.378 0.424975 3.91903 0
M  V30 7184 H 703.666 0.0814904 5.08735 0
M  V30 7185 H 703.064 -3.08114 4.74428 0
M  V30 7186 H 701.621 -3.22159 5.66619 0
M  V30 7187 N 705.054 -1.51416 0.437162 0
M  V30 7188 C 706.303 -2.01275 -0.130865 0
M  V30 7189 C 706.616 -1.32593 -1.438 0
M  V30 7190 O 707.822 -1.7342 -2.08897 0
M  V30 7191 C 706.278 -3.5878 -0.283763 0
M  V30 7192 C 705.886 -4.36399 1.01293 0
M  V30 7193 C 707.63 -4.16786 -0.805569 0
M  V30 7194 C 705.537 -5.85608 0.825687 0
M  V30 7195 H 704.467 -0.752157 -0.0526818 0
M  V30 7196 H 707.118 -1.74524 0.566896 0
M  V30 7197 H 705.5 -3.81976 -1.04452 0
M  V30 7198 H 706.674 -4.24948 1.78201 0
M  V30 7199 H 704.989 -3.89843 1.46326 0
M  V30 7200 H 707.586 -5.25972 -0.962146 0
M  V30 7201 H 707.929 -3.75949 -1.78796 0
M  V30 7202 H 708.462 -3.97666 -0.103125 0
M  V30 7203 H 705.201 -6.30857 1.78045 0
M  V30 7204 H 704.721 -5.99723 0.0964029 0
M  V30 7205 H 706.4 -6.45226 0.478815 0
M  V30 7206 N 706.532 -0.168513 -1.56696 0
M  V30 7207 C 707.778 0.471368 -1.97863 0
M  V30 7208 C 708.133 1.61049 -1.05267 0
M  V30 7209 O 707.426 1.9138 -0.0917908 0
M  V30 7210 C 707.62 1.00441 -3.42996 0
M  V30 7211 C 707.449 -0.081524 -4.49626 0
M  V30 7212 C 706.219 -0.530242 -5.0251 0
M  V30 7213 C 708.417 -0.880897 -5.067 0
M  V30 7214 N 706.399 -1.59678 -5.9277 0
M  V30 7215 C 707.77 -1.79742 -5.93374 0
M  V30 7216 C 709.825 -0.92629 -4.89208 0
M  V30 7217 C 708.528 -2.7555 -6.64428 0
M  V30 7218 C 710.554 -1.8723 -5.6098 0
M  V30 7219 C 709.916 -2.77631 -6.4738 0
M  V30 7220 H 706.015 0.140671 -0.769244 0
M  V30 7221 H 708.599 -0.268084 -1.92846 0
M  V30 7222 H 706.77 1.71339 -3.48565 0
M  V30 7223 H 708.502 1.61269 -3.7118 0
M  V30 7224 H 705.257 -0.12847 -4.73426 0
M  V30 7225 H 705.681 -2.13045 -6.42605 0
M  V30 7226 H 710.323 -0.241412 -4.2211 0
M  V30 7227 H 708.041 -3.45027 -7.30741 0
M  V30 7228 H 711.627 -1.91349 -5.49433 0
M  V30 7229 H 710.507 -3.4964 -7.01941 0
M  V30 7230 N 708.01 1.57248 0.105221 0
M  V30 7231 C 709.426 1.52853 0.459153 0
M  V30 7232 C 709.626 0.883674 1.8109 0
M  V30 7233 O 708.682 0.471864 2.48052 0
M  V30 7234 C 709.995 2.97596 0.43096 0
M  V30 7235 C 711.543 3.08758 0.513536 0
M  V30 7236 C 712.018 4.55089 0.515593 0
M  V30 7237 N 713.509 4.59597 0.576639 0
M  V30 7238 C 714.244 5.70253 0.599904 0
M  V30 7239 N 713.74 6.90368 0.579985 0
M  V30 7240 N 715.533 5.58399 0.643953 0
M  V30 7241 H 707.684 1.97547 -0.780306 0
M  V30 7242 H 709.947 0.902758 -0.289363 0
M  V30 7243 H 709.653 3.48201 -0.494903 0
M  V30 7244 H 709.527 3.55756 1.2537 0
M  V30 7245 H 711.914 2.58148 1.42982 0
M  V30 7246 H 711.995 2.53568 -0.337148 0
M  V30 7247 H 711.639 5.06348 -0.396701 0
M  V30 7248 H 711.569 5.08105 1.38335 0
M  V30 7249 H 714.06 3.73144 0.597639 0
M  V30 7250 H 714.373 7.70462 0.600741 0
M  V30 7251 H 712.718 6.92843 0.547191 0
M  V30 7252 H 715.909 4.63467 0.656975 0
M  V30 7253 H 716.082 6.44644 0.658616 0
M  V30 7254 N 709.488 -0.375779 1.53054 0
M  V30 7255 C 710.734 -1.12114 1.68992 0
M  V30 7256 C 711.067 -1.8926 0.435238 0
M  V30 7257 O 710.342 -1.86044 -0.567278 0
M  V30 7258 C 710.625 -2.08867 2.93337 0
M  V30 7259 C 710.478 -1.35397 4.28938 0
M  V30 7260 C 711.797 -3.09124 3.13257 0
M  V30 7261 H 708.916 -0.406207 0.614951 0
M  V30 7262 H 711.558 -0.403054 1.85676 0
M  V30 7263 H 709.708 -2.70102 2.79244 0
M  V30 7264 H 711.38 -0.770242 4.54824 0
M  V30 7265 H 709.623 -0.655801 4.28814 0
M  V30 7266 H 710.294 -2.06161 5.12056 0
M  V30 7267 H 712.77 -2.57987 3.26469 0
M  V30 7268 H 711.646 -3.74054 4.01715 0
M  V30 7269 H 711.907 -3.78729 2.28072 0
M  V30 7270 N 710.966 -1.44241 -0.634997 0
M  V30 7271 C 711.929 -1.50457 -1.72903 0
M  V30 7272 C 712.929 -0.387058 -1.56072 0
M  V30 7273 O 714.119 -0.649531 -1.61638 0
M  V30 7274 C 711.251 -1.37477 -3.1195 0
M  V30 7275 H 712.444 -2.47907 -1.68767 0
M  V30 7276 H 709.997 -1.31276 -0.84831 0
M  V30 7277 H 710.732 -0.41106 -3.21684 0
M  V30 7278 H 710.517 -2.18506 -3.25573 0
M  V30 7279 H 712.007 -1.44799 -3.91692 0
M  V30 7280 N 712.444 0.87505 -1.31075 0
M  V30 7281 C 713.354 2.01441 -1.20244 0
M  V30 7282 C 714.37 1.73584 -0.120227 0
M  V30 7283 O 715.546 1.98559 -0.337063 0
M  V30 7284 C 712.611 3.34675 -0.905199 0
M  V30 7285 C 711.672 3.75889 -2.0738 0
M  V30 7286 C 710.905 5.02764 -1.79064 0
M  V30 7287 O 711.128 5.65795 -0.723318 0
M  V30 7288 O 710.062 5.40623 -2.64594 0
M  V30 7289 H 713.888 2.13509 -2.1598 0
M  V30 7290 H 711.473 1.00257 -1.10765 0
M  V30 7291 H 713.355 4.1458 -0.755057 0
M  V30 7292 H 712.03 3.23692 0.0221695 0
M  V30 7293 H 710.937 2.96645 -2.27931 0
M  V30 7294 H 712.27 3.91489 -2.98324 0
M  V30 7295 N 713.922 1.13953 1.08869 0
M  V30 7296 C 714.854 0.779906 2.15523 0
M  V30 7297 C 715.867 -0.20102 1.61554 0
M  V30 7298 O 717.056 0.0200049 1.78489 0
M  V30 7299 C 714.156 0.136226 3.38626 0
M  V30 7300 C 713.329 1.15069 4.21993 0
M  V30 7301 C 712.388 0.531645 5.23507 0
M  V30 7302 O 711.414 1.19327 5.56552 0
M  V30 7303 N 712.616 -0.693734 5.7634 0
M  V30 7304 H 715.381 1.69769 2.46979 0
M  V30 7305 H 712.942 1.03331 1.24637 0
M  V30 7306 H 714.934 -0.290295 4.03658 0
M  V30 7307 H 713.504 -0.684603 3.05011 0
M  V30 7308 H 712.724 1.75431 3.53012 0
M  V30 7309 H 714.012 1.83614 4.74514 0
M  V30 7310 H 713.41 -1.24994 5.51718 0
M  V30 7311 H 711.967 -1.06283 6.43076 0
M  V30 7312 N 715.4 -1.26948 0.933913 0
M  V30 7313 C 716.33 -2.29017 0.45534 0
M  V30 7314 C 717.311 -1.62961 -0.487605 0
M  V30 7315 O 718.496 -1.90223 -0.391022 0
M  V30 7316 C 715.626 -3.46112 -0.287015 0
M  V30 7317 C 714.58 -4.24205 0.568682 0
M  V30 7318 C 713.906 -5.3384 -0.303206 0
M  V30 7319 C 715.206 -4.88954 1.83633 0
M  V30 7320 H 716.9 -2.69298 1.30839 0
M  V30 7321 H 714.446 -1.29459 0.630579 0
M  V30 7322 H 716.399 -4.16622 -0.6328 0
M  V30 7323 H 715.123 -3.04765 -1.17414 0
M  V30 7324 H 713.782 -3.5545 0.897261 0
M  V30 7325 H 713.43 -4.88734 -1.18947 0
M  V30 7326 H 713.13 -5.86998 0.265879 0
M  V30 7327 H 714.654 -6.0719 -0.644423 0
M  V30 7328 H 716.068 -5.51717 1.55823 0
M  V30 7329 H 714.465 -5.52198 2.34941 0
M  V30 7330 H 715.535 -4.12305 2.55211 0
M  V30 7331 N 716.879 -0.700114 -1.41195 0
M  V30 7332 C 717.789 -0.0382854 -2.34569 0
M  V30 7333 C 718.805 0.761036 -1.56474 0
M  V30 7334 O 719.981 0.697553 -1.88934 0
M  V30 7335 C 717.046 0.883522 -3.35253 0
M  V30 7336 C 716.107 0.0758957 -4.29233 0
M  V30 7337 C 715.34 0.9538 -5.25108 0
M  V30 7338 O 715.563 2.19326 -5.26547 0
M  V30 7339 O 714.497 0.401049 -6.00562 0
M  V30 7340 H 718.323 -0.808073 -2.92752 0
M  V30 7341 H 715.908 -0.460479 -1.42127 0
M  V30 7342 H 717.79 1.41199 -3.9704 0
M  V30 7343 H 716.465 1.63272 -2.79506 0
M  V30 7344 H 715.372 -0.497274 -3.7078 0
M  V30 7345 H 716.705 -0.634741 -4.8809 0
M  V30 7346 N 718.357 1.51182 -0.445186 0
M  V30 7347 C 719.603 2.02452 0.11882 0
M  V30 7348 C 719.936 1.32824 1.41673 0
M  V30 7349 O 719.211 0.445637 1.89326 0
M  V30 7350 C 719.494 3.5859 0.329475 0
M  V30 7351 C 719.347 4.38823 -0.987638 0
M  V30 7352 C 720.666 4.26241 1.09575 0
M  V30 7353 H 717.785 0.735819 0.0417092 0
M  V30 7354 H 720.427 1.80747 -0.585718 0
M  V30 7355 H 718.577 3.77214 0.9296 0
M  V30 7356 H 720.249 4.3183 -1.62235 0
M  V30 7357 H 718.492 4.03594 -1.59041 0
M  V30 7358 H 719.163 5.46257 -0.794192 0
M  V30 7359 H 721.639 4.11934 0.587328 0
M  V30 7360 H 720.515 5.35354 1.21191 0
M  V30 7361 H 720.776 3.87635 2.12584 0
M  V30 7362 N 719.835 0.176821 1.56605 0
M  V30 7363 C 721.083 -0.465793 1.96659 0
M  V30 7364 C 721.404 -1.63406 1.06412 0
M  V30 7365 O 720.674 -1.95457 0.131603 0
M  V30 7366 H 719.254 -0.175072 0.726195 0
M  V30 7367 H 721.916 0.25929 1.93168 0
M  V30 7368 H 721.012 -0.822138 3.01077 0
M  V30 7369 N 721.313 -1.57302 -0.09688 0
M  V30 7370 C 722.246 -1.97179 -1.14872 0
M  V30 7371 C 723.224 -0.844734 -1.38935 0
M  V30 7372 O 724.408 -1.10487 -1.52725 0
M  V30 7373 C 721.535 -2.28703 -2.49826 0
M  V30 7374 C 720.581 -3.51158 -2.42054 0
M  V30 7375 S 721.414 -5.0294 -1.83879 0
M  V30 7376 C 722.57 -5.37639 -3.2046 0
M  V30 7377 H 722.803 -2.86088 -0.808771 0
M  V30 7378 H 720.336 -1.51368 -0.304492 0
M  V30 7379 H 722.294 -2.47541 -3.27466 0
M  V30 7380 H 720.955 -1.40368 -2.8099 0
M  V30 7381 H 720.148 -3.70651 -3.41517 0
M  V30 7382 H 719.75 -3.31821 -1.72543 0
M  V30 7383 H 722.042 -5.34175 -4.16729 0
M  V30 7384 H 722.985 -6.38677 -3.05773 0
M  V30 7385 H 723.393 -4.651 -3.19909 0
M  V30 7386 N 722.791 0.367657 -1.53252 0
M  V30 7387 C 724.037 1.11216 -1.69584 0
M  V30 7388 C 724.37 1.89026 -0.445269 0
M  V30 7389 O 723.645 1.86342 0.557404 0
M  V30 7390 C 723.928 2.07308 -2.94441 0
M  V30 7391 C 723.781 1.3312 -4.2965 0
M  V30 7392 C 725.1 3.07459 -3.14892 0
M  V30 7393 H 722.219 0.40294 -0.617096 0
M  V30 7394 H 724.861 0.393201 -1.85887 0
M  V30 7395 H 723.011 2.68617 -2.80673 0
M  V30 7396 H 724.683 0.746111 -4.55226 0
M  V30 7397 H 722.926 0.633051 -4.29156 0
M  V30 7398 H 723.597 2.03443 -5.13142 0
M  V30 7399 H 726.073 2.56252 -3.27832 0
M  V30 7400 H 724.949 3.71919 -4.03693 0
M  V30 7401 H 725.21 3.77514 -2.30077 0
M  V30 7402 N 724.269 1.44576 0.627338 0
M  V30 7403 C 725.517 1.47267 1.38408 0
M  V30 7404 C 725.838 0.107971 1.94701 0
M  V30 7405 O 725.108 -0.860206 1.76004 0
M  V30 7406 H 723.688 0.542276 0.513756 0
M  V30 7407 H 726.35 1.80383 0.738099 0
M  V30 7408 H 725.446 2.20025 2.21349 0
M  V30 7409 N 725.747 -0.868086 1.31537 0
M  V30 7410 C 726.993 -1.62367 1.2151 0
M  V30 7411 C 727.326 -1.92883 -0.225819 0
M  V30 7412 O 726.601 -1.56176 -1.15927 0
M  V30 7413 C 726.884 -2.95268 2.06129 0
M  V30 7414 C 726.737 -2.71619 3.58529 0
M  V30 7415 C 728.056 -3.96391 1.91212 0
M  V30 7416 H 725.175 -0.589178 0.442762 0
M  V30 7417 H 727.817 -1.00336 1.61347 0
M  V30 7418 H 725.967 -3.4821 1.72284 0
M  V30 7419 H 727.639 -2.25334 4.0252 0
M  V30 7420 H 725.882 -2.05817 3.81866 0
M  V30 7421 H 726.553 -3.66192 4.13047 0
M  V30 7422 H 729.029 -3.52663 2.20834 0
M  V30 7423 H 727.905 -4.87263 2.52718 0
M  V30 7424 H 728.166 -4.33335 0.875953 0
M  V30 7425 N 727.225 -1.14528 -1.08264 0
M  V30 7426 C 728.173 -0.829201 -2.17318 0
M  V30 7427 C 729.167 0.193521 -1.68291 0
M  V30 7428 O 730.373 0.0494744 -1.79932 0
M  V30 7429 H 726.748 -0.250435 -0.709074 0
M  V30 7430 H 728.719 -1.75683 -2.41201 0
M  V30 7431 C 727.468 -0.324663 -3.46181 0
M  V30 7432 H 726.791 -1.10299 -3.84284 0
M  V30 7433 H 728.231 -0.142059 -4.23762 0
M  V30 7434 C 726.69 0.952033 -3.23169 0
M  V30 7435 O 727.22 2.02549 -3.46896 0
M  V30 7436 N 725.426 0.887854 -2.76705 0
M  V30 7437 H 724.973 0.0141402 -2.57596 0
M  V30 7438 H 724.931 1.74263 -2.61686 0
M  V30 7439 N 728.703 1.26451 -0.940633 0
M  V30 7440 C 729.613 2.30128 -0.455881 0
M  V30 7441 C 730.629 1.67536 0.469867 0
M  V30 7442 O 731.805 1.98344 0.349529 0
M  V30 7443 C 728.87 3.45634 0.271648 0
M  V30 7444 C 727.931 4.23709 -0.690594 0
M  V30 7445 C 727.164 5.337 0.00231047 0
M  V30 7446 O 727.387 5.57215 1.21935 0
M  V30 7447 O 726.321 5.98091 -0.676111 0
M  V30 7448 H 730.147 2.73655 -1.31707 0
M  V30 7449 H 727.732 1.3164 -0.706497 0
M  V30 7450 H 729.614 4.15853 0.681486 0
M  V30 7451 H 728.289 3.04138 1.10824 0
M  V30 7452 H 727.196 3.55974 -1.15037 0
M  V30 7453 H 728.529 4.68953 -1.49478 0
M  V30 7454 N 730.181 0.707592 1.40822 0
M  V30 7455 C 731.429 0.243189 2.00632 0
M  V30 7456 C 731.75 -1.16512 1.56365 0
M  V30 7457 O 731.02 -1.78841 0.799553 0
M  V30 7458 H 729.6 0.0869203 0.741926 0
M  V30 7459 H 732.262 0.911438 1.72275 0
M  V30 7460 H 731.358 0.270014 3.1093 0
M  V30 7461 N 731.66 -1.50943 0.453197 0
M  V30 7462 C 732.59 -2.31005 -0.34044 0
M  V30 7463 C 733.571 -1.37112 -1.00669 0
M  V30 7464 O 734.756 -1.66033 -1.0073 0
M  V30 7465 C 731.886 -3.16358 -1.433 0
M  V30 7466 C 730.84 -4.18658 -0.889363 0
M  V30 7467 C 730.166 -4.92633 -2.07887 0
M  V30 7468 C 731.466 -5.22227 0.0871142 0
M  V30 7469 H 733.16 -2.97601 0.327723 0
M  V30 7470 H 730.706 -1.43119 0.159054 0
M  V30 7471 H 732.659 -3.71155 -1.99555 0
M  V30 7472 H 731.383 -2.47613 -2.12968 0
M  V30 7473 H 730.042 -3.64936 -0.348915 0
M  V30 7474 H 729.69 -4.20376 -2.76211 0
M  V30 7475 H 729.39 -5.61819 -1.72143 0
M  V30 7476 H 730.914 -5.50258 -2.64666 0
M  V30 7477 H 732.328 -5.72001 -0.385656 0
M  V30 7478 H 730.725 -5.99032 0.357926 0
M  V30 7479 H 731.795 -4.74077 1.01879 0
M  V30 7480 N 733.138 -0.185124 -1.56509 0
M  V30 7481 C 734.387 0.456421 -1.96468 0
M  V30 7482 C 734.7 1.63448 -1.07444 0
M  V30 7483 O 735.906 2.34316 -1.37143 0
M  V30 7484 C 734.362 0.863404 -3.4939 0
M  V30 7485 C 733.97 -0.289815 -4.47062 0
M  V30 7486 C 735.714 1.47259 -3.98139 0
M  V30 7487 C 733.621 0.137571 -5.9124 0
M  V30 7488 H 732.551 0.17429 -0.733579 0
M  V30 7489 H 735.202 -0.275554 -1.81419 0
M  V30 7490 H 733.584 1.65176 -3.59907 0
M  V30 7491 H 734.758 -1.06728 -4.4827 0
M  V30 7492 H 733.073 -0.809851 -4.08449 0
M  V30 7493 H 735.67 1.80463 -5.03326 0
M  V30 7494 H 736.013 2.3755 -3.41871 0
M  V30 7495 H 736.546 0.748405 -3.90696 0
M  V30 7496 H 733.285 -0.730907 -6.51412 0
M  V30 7497 H 732.805 0.8801 -5.93308 0
M  V30 7498 H 734.484 0.576771 -6.44424 0
M  V30 7499 N 734.616 1.57351 0.0885366 0
M  V30 7500 C 735.841 1.91011 0.80805 0
M  V30 7501 C 736.266 0.780009 1.71165 0
M  V30 7502 O 735.624 -0.268083 1.79307 0
M  V30 7503 C 735.672 3.23562 1.59185 0
M  V30 7504 O 734.776 3.11615 2.7013 0
M  V30 7505 H 734.117 0.625943 0.221565 0
M  V30 7506 H 736.647 2.04507 0.0617954 0
M  V30 7507 H 736.657 3.5703 1.97468 0
M  V30 7508 H 735.332 4.05398 0.928741 0
M  V30 7509 H 733.909 2.89673 2.34827 0
M  V30 7510 N 736.094 -0.359525 1.53444 0
M  V30 7511 C 737.319 -1.12644 1.74144 0
M  V30 7512 C 737.744 -1.82082 0.472007 0
M  V30 7513 O 737.102 -1.71962 -0.57436 0
M  V30 7514 C 737.15 -2.12781 2.9113 0
M  V30 7515 O 736.254 -3.19984 2.60162 0
M  V30 7516 H 735.595 -0.326553 0.578152 0
M  V30 7517 H 738.125 -0.414798 2.00351 0
M  V30 7518 H 738.135 -2.56278 3.17467 0
M  V30 7519 H 736.81 -1.61634 3.83207 0
M  V30 7520 H 735.387 -2.81417 2.44661 0
M  V30 7521 N 737.572 -1.44907 -0.619662 0
M  V30 7522 C 738.818 -1.48512 -1.38102 0
M  V30 7523 C 739.151 -0.121686 -1.93818 0
M  V30 7524 O 738.426 0.862256 -1.74343 0
M  V30 7525 C 738.709 -2.55469 -2.53787 0
M  V30 7526 C 738.562 -4.01212 -2.03345 0
M  V30 7527 C 739.881 -2.58821 -3.55949 0
M  V30 7528 H 737 -0.540712 -0.500799 0
M  V30 7529 H 739.642 -1.7665 -0.69962 0
M  V30 7530 H 737.792 -2.31606 -3.11915 0
M  V30 7531 H 739.464 -4.36245 -1.49959 0
M  V30 7532 H 737.707 -4.12443 -1.34438 0
M  V30 7533 H 738.378 -4.71717 -2.86683 0
M  V30 7534 H 740.854 -2.80172 -3.07641 0
M  V30 7535 H 739.73 -3.35542 -4.34399 0
M  V30 7536 H 739.991 -1.63451 -4.10775 0
M  V30 7537 N 739.05 0.861098 -1.31996 0
M  V30 7538 C 739.96 2.00154 -1.22374 0
M  V30 7539 C 740.976 1.73447 -0.138631 0
M  V30 7540 O 742.152 1.98191 -0.358104 0
M  V30 7541 C 739.217 3.33696 -0.940645 0
M  V30 7542 C 738.278 3.73668 -2.11355 0
M  V30 7543 C 737.511 5.00837 -1.84386 0
M  V30 7544 O 737.734 5.64996 -0.783287 0
M  V30 7545 O 736.668 5.37787 -2.70313 0
M  V30 7546 H 740.494 2.11207 -2.18233 0
M  V30 7547 H 738.079 0.990768 -1.11822 0
M  V30 7548 H 739.961 4.13756 -0.798987 0
M  V30 7549 H 738.636 3.23698 -0.0121636 0
M  V30 7550 H 737.543 2.94211 -2.31065 0
M  V30 7551 H 738.876 3.88303 -3.02459 0
M  V30 7552 N 740.528 1.15101 1.07655 0
M  V30 7553 C 741.768 0.934462 1.81789 0
M  V30 7554 C 742.132 -0.529101 1.84566 0
M  V30 7555 O 743.333 -0.863868 2.5454 0
M  V30 7556 C 741.604 1.52817 3.23082 0
M  V30 7557 S 743.163 1.45429 4.14 0
M  V30 7558 H 739.981 0.336379 0.626395 0
M  V30 7559 H 742.583 1.46593 1.29347 0
M  V30 7560 H 741.287 2.58635 3.18647 0
M  V30 7561 H 740.818 0.995432 3.80598 0
M  V30 7562 H 742.833 0.445058 4.942 0
M  V30 7563 N 742.006 -1.2595 0.947325 0
M  V30 7564 C 743.417 -1.75389 0.639963 0
M  V30 7565 C 743.768 -1.77081 -0.844788 0
M  V30 7566 O 742.893 -1.3869 -1.66114 0
M  V30 7567 C 743.488 -3.18506 1.15496 0
M  V30 7568 C 742.047 -3.65534 0.897894 0
M  V30 7569 C 741.194 -2.44818 1.30228 0
M  V30 7570 H 744.145 -1.1194 1.12495 0
M  V30 7571 H 744.166 -3.77045 0.511627 0
M  V30 7572 H 743.678 -3.17243 2.23559 0
M  V30 7573 H 741.779 -3.72221 -0.168096 0
M  V30 7574 H 741.892 -4.54039 1.52922 0
M  V30 7575 H 740.256 -2.44291 0.720678 0
M  V30 7576 H 741.039 -2.46251 2.39198 0
M  V30 7577 N 743.484 -0.715051 -1.40445 0
M  V30 7578 C 744.731 -0.254328 -2.00897 0
M  V30 7579 C 745.059 1.15228 -1.56693 0
M  V30 7580 O 744.314 1.7958 -0.777786 0
M  V30 7581 C 744.613 -0.281791 -3.56287 0
M  V30 7582 C 744.279 -1.63862 -4.20071 0
M  V30 7583 C 742.941 -2.01003 -4.37208 0
M  V30 7584 C 745.293 -2.53039 -4.55654 0
M  V30 7585 C 742.621 -3.26869 -4.8721 0
M  V30 7586 C 744.973 -3.78256 -5.07055 0
M  V30 7587 C 743.637 -4.15515 -5.22401 0
M  V30 7588 H 742.907 -0.0930652 -0.735133 0
M  V30 7589 H 745.554 -0.917977 -1.68064 0
M  V30 7590 H 743.859 0.465428 -3.89026 0
M  V30 7591 H 745.556 0.0925158 -4.00893 0
M  V30 7592 H 742.146 -1.33979 -4.07121 0
M  V30 7593 H 746.33 -2.2562 -4.42051 0
M  V30 7594 H 741.586 -3.55706 -4.97276 0
M  V30 7595 H 745.76 -4.47528 -5.33565 0
M  V30 7596 H 743.387 -5.13114 -5.60909 0
M  V30 7597 N 744.962 1.50701 -0.461195 0
M  V30 7598 C 746.21 2.01867 0.0970051 0
M  V30 7599 C 746.531 1.34591 1.41104 0
M  V30 7600 O 745.801 0.488041 1.89723 0
M  V30 7601 H 744.381 0.74599 0.0388392 0
M  V30 7602 H 747.043 1.85129 -0.609357 0
M  V30 7603 H 746.139 3.11051 0.255688 0
M  V30 7604 N 746.441 0.193421 1.56409 0
M  V30 7605 C 747.689 -0.444908 1.97142 0
M  V30 7606 C 748.01 -1.62268 1.08139 0
M  V30 7607 O 747.28 -1.95307 0.152326 0
M  V30 7608 H 745.86 -0.16736 0.728011 0
M  V30 7609 H 748.522 0.279763 1.92882 0
M  V30 7610 H 747.618 -0.790159 3.01932 0
M  V30 7611 N 747.919 -1.57396 -0.0801906 0
M  V30 7612 C 749.165 -1.87113 -0.782083 0
M  V30 7613 C 749.498 -0.78458 -1.77646 0
M  V30 7614 O 748.773 0.205993 -1.93406 0
M  V30 7615 C 749.056 -3.27483 -1.49756 0
M  V30 7616 C 748.909 -4.46782 -0.520171 0
M  V30 7617 C 750.228 -3.65965 -2.44454 0
M  V30 7618 H 747.347 -0.680559 -0.282858 0
M  V30 7619 H 749.989 -1.89946 -0.0454139 0
M  V30 7620 H 748.139 -3.25199 -2.12551 0
M  V30 7621 H 749.811 -4.61187 0.101919 0
M  V30 7622 H 748.054 -4.33485 0.165219 0
M  V30 7623 H 748.725 -5.41761 -1.05824 0
M  V30 7624 H 751.201 -3.69289 -1.91742 0
M  V30 7625 H 750.077 -4.65086 -2.91524 0
M  V30 7626 H 750.338 -2.95446 -3.28883 0
M  V30 7627 N 749.397 0.351382 -1.53633 0
M  V30 7628 C 750.344 1.43115 -1.81071 0
M  V30 7629 C 751.314 1.52601 -0.655913 0
M  V30 7630 O 752.499 1.68264 -0.89955 0
M  V30 7631 C 749.639 2.79874 -2.01903 0
M  V30 7632 C 748.752 2.79242 -3.29618 0
M  V30 7633 C 747.887 4.07667 -3.40559 0
M  V30 7634 C 746.926 4.01233 -4.62254 0
M  V30 7635 N 746.063 5.21334 -4.70271 0
M  V30 7636 H 750.903 1.19017 -2.73201 0
M  V30 7637 H 748.44 0.576691 -1.35324 0
M  V30 7638 H 750.398 3.5934 -2.11969 0
M  V30 7639 H 749.028 3.0234 -1.13094 0
M  V30 7640 H 748.08 1.91927 -3.28433 0
M  V30 7641 H 749.392 2.70363 -4.19172 0
M  V30 7642 H 748.546 4.95555 -3.50015 0
M  V30 7643 H 747.285 4.19317 -2.49047 0
M  V30 7644 H 746.29 3.11732 -4.52884 0
M  V30 7645 H 747.515 3.91173 -5.55122 0
M  V30 7646 H 745.461 5.33543 -3.81665 0
M  V30 7647 H 745.378 5.14681 -5.5375 0
M  V30 7648 H 746.646 6.11014 -4.84027 0
M  V30 7649 N 750.875 1.45233 0.611969 0
M  V30 7650 C 751.807 1.49575 1.73666 0
M  V30 7651 C 752.82 0.386987 1.58134 0
M  V30 7652 O 754.009 0.653804 1.66095 0
M  V30 7653 C 751.109 1.33223 3.11617 0
M  V30 7654 C 750.282 2.57694 3.5343 0
M  V30 7655 C 749.341 2.35962 4.70328 0
M  V30 7656 O 748.367 3.09553 4.77667 0
M  V30 7657 N 749.569 1.40243 5.63305 0
M  V30 7658 H 752.334 2.46539 1.70407 0
M  V30 7659 H 749.895 1.40917 0.79712 0
M  V30 7660 H 751.887 1.16502 3.87569 0
M  V30 7661 H 750.457 0.44551 3.09409 0
M  V30 7662 H 749.677 2.8956 2.67486 0
M  V30 7663 H 750.965 3.40441 3.78124 0
M  V30 7664 H 750.363 0.795023 5.60086 0
M  V30 7665 H 748.92 1.29496 6.38807 0
M  V30 7666 N 752.353 -0.854086 1.3245 0
M  V30 7667 C 753.578 -1.64597 1.26185 0
M  V30 7668 C 754.003 -1.87357 -0.167074 0
M  V30 7669 O 753.361 -1.42675 -1.11864 0
M  V30 7670 C 753.409 -2.98213 2.02734 0
M  V30 7671 O 752.513 -3.88784 1.37554 0
M  V30 7672 H 751.854 -0.50179 0.434859 0
M  V30 7673 H 754.384 -1.06372 1.74775 0
M  V30 7674 H 754.394 -3.4803 2.1293 0
M  V30 7675 H 753.069 -2.80969 3.06642 0
M  V30 7676 H 751.646 -3.4725 1.3591 0
M  V30 7677 N 753.831 -1.1567 -1.07043 0
M  V30 7678 C 755.079 -0.931673 -1.79344 0
M  V30 7679 C 755.4 0.542421 -1.87304 0
M  V30 7680 O 754.67 1.39418 -1.37621 0
M  V30 7681 H 753.25 -0.34171 -0.664262 0
M  V30 7682 H 755.912 -1.45795 -1.29344 0
M  V30 7683 H 755.008 -1.34379 -2.81689 0
M  V30 7684 N 755.309 1.25446 -0.953992 0
M  V30 7685 C 756.239 2.28264 -0.491717 0
M  V30 7686 C 757.22 1.63717 0.461617 0
M  V30 7687 O 758.405 1.90821 0.36071 0
M  V30 7688 C 755.535 3.46525 0.231915 0
M  V30 7689 C 754.489 4.23247 -0.636098 0
M  V30 7690 C 753.815 5.34254 0.218238 0
M  V30 7691 C 755.115 4.85971 -1.91389 0
M  V30 7692 H 756.809 2.67183 -1.35106 0
M  V30 7693 H 754.355 1.2844 -0.651095 0
M  V30 7694 H 756.308 4.17576 0.566439 0
M  V30 7695 H 755.032 3.06594 1.12551 0
M  V30 7696 H 753.691 3.53978 -0.953696 0
M  V30 7697 H 753.339 4.90564 1.11156 0
M  V30 7698 H 753.039 5.86501 -0.359232 0
M  V30 7699 H 754.563 6.08138 0.547743 0
M  V30 7700 H 755.977 5.49168 -1.64581 0
M  V30 7701 H 754.374 5.48391 -2.43696 0
M  V30 7702 H 755.444 4.08192 -2.61738 0
M  V30 7703 N 756.787 0.722489 1.40064 0
M  V30 7704 C 758.035 0.264455 2.00362 0
M  V30 7705 C 758.356 -1.14847 1.57592 0
M  V30 7706 O 757.626 -1.77982 0.818477 0
M  V30 7707 H 756.206 0.0947846 0.740962 0
M  V30 7708 H 758.868 0.929659 1.71299 0
M  V30 7709 H 757.964 0.302977 3.10626 0
M  V30 7710 N 758.265 -1.50454 0.469181 0
M  V30 7711 C 759.681 -1.59124 0.123226 0
M  V30 7712 C 759.881 -1.47749 -1.37013 0
M  V30 7713 O 758.937 -1.335 -2.14322 0
M  V30 7714 C 760.25 -2.93101 0.67172 0
M  V30 7715 C 761.798 -3.06491 0.634978 0
M  V30 7716 C 762.273 -4.43041 1.16098 0
M  V30 7717 N 763.764 -4.49448 1.12031 0
M  V30 7718 C 764.499 -5.53491 1.49784 0
M  V30 7719 N 763.995 -6.64798 1.94976 0
M  V30 7720 N 765.788 -5.44025 1.41399 0
M  V30 7721 H 757.939 -1.56091 1.44046 0
M  V30 7722 H 760.202 -0.737564 0.59557 0
M  V30 7723 H 759.908 -3.06895 1.7178 0
M  V30 7724 H 759.782 -3.77027 0.114222 0
M  V30 7725 H 762.169 -2.92346 -0.402187 0
M  V30 7726 H 762.25 -2.24328 1.22926 0
M  V30 7727 H 761.894 -4.57935 2.19677 0
M  V30 7728 H 761.824 -5.23794 0.542939 0
M  V30 7729 H 764.315 -3.69575 0.788828 0
M  V30 7730 H 764.628 -7.40246 2.21936 0
M  V30 7731 H 762.973 -6.65923 1.98927 0
M  V30 7732 H 766.164 -4.55955 1.05935 0
M  V30 7733 H 766.337 -6.2499 1.71147 0
M  V30 7734 N 759.743 -0.201713 -1.56304 0
M  V30 7735 C 760.653 0.728296 -2.23009 0
M  V30 7736 C 761.669 1.22945 -1.23128 0
M  V30 7737 O 762.845 1.27523 -1.55884 0
M  V30 7738 C 759.91 1.92792 -2.88153 0
M  V30 7739 C 758.971 1.47068 -4.03323 0
M  V30 7740 C 758.204 2.61312 -4.65351 0
M  V30 7741 O 758.427 3.7896 -4.26317 0
M  V30 7742 O 757.361 2.33646 -5.54701 0
M  V30 7743 H 761.187 0.190166 -3.03104 0
M  V30 7744 H 758.772 0.0278725 -1.49374 0
M  V30 7745 H 760.654 2.6289 -3.29343 0
M  V30 7746 H 759.329 2.45452 -2.11033 0
M  V30 7747 H 758.236 0.738299 -3.66742 0
M  V30 7748 H 759.569 0.990666 -4.82127 0
M  V30 7749 N 761.222 1.57436 0.0718424 0
M  V30 7750 C 762.47 1.86878 0.769484 0
M  V30 7751 C 762.791 0.7937 1.78116 0
M  V30 7752 O 762.061 -0.177642 1.95093 0
M  V30 7753 H 760.641 0.689593 0.287177 0
M  V30 7754 H 763.303 1.94841 0.0479427 0
M  V30 7755 H 762.399 2.84387 1.28572 0
M  V30 7756 N 762.7 -0.34323 1.53817 0
M  V30 7757 C 763.925 -1.1079 1.75329 0
M  V30 7758 C 764.35 -1.81571 0.491293 0
M  V30 7759 O 763.708 -1.72561 -0.556089 0
M  V30 7760 C 763.756 -2.09681 2.9337 0
M  V30 7761 O 762.86 -3.17207 2.63541 0
M  V30 7762 H 762.201 -0.320402 0.581583 0
M  V30 7763 H 764.731 -0.393525 2.0078 0
M  V30 7764 H 764.741 -2.52897 3.20168 0
M  V30 7765 H 763.416 -1.5756 3.84899 0
M  V30 7766 H 761.993 -2.78806 2.47632 0
M  V30 7767 N 764.178 -1.45556 -0.604258 0
M  V30 7768 C 765.125 -1.54482 -1.71476 0
M  V30 7769 C 766.095 -0.390479 -1.61445 0
M  V30 7770 O 767.28 -0.604371 -1.80975 0
M  V30 7771 C 764.42 -1.52064 -3.09791 0
M  V30 7772 C 763.533 -2.78073 -3.30604 0
M  V30 7773 C 762.668 -2.67304 -4.59044 0
M  V30 7774 C 761.707 -3.88352 -4.73127 0
M  V30 7775 N 760.844 -3.76098 -5.9287 0
M  V30 7776 H 765.684 -2.49349 -1.63184 0
M  V30 7777 H 763.221 -1.23725 -0.795641 0
M  V30 7778 H 765.179 -1.48649 -3.89819 0
M  V30 7779 H 763.809 -0.607442 -3.17033 0
M  V30 7780 H 762.861 -2.91561 -2.44329 0
M  V30 7781 H 764.173 -3.67847 -3.36883 0
M  V30 7782 H 763.327 -2.61875 -5.47272 0
M  V30 7783 H 762.066 -1.75135 -4.55169 0
M  V30 7784 H 761.071 -3.94137 -3.83322 0
M  V30 7785 H 762.296 -4.81591 -4.78797 0
M  V30 7786 H 760.242 -2.867 -5.90033 0
M  V30 7787 H 760.159 -4.59509 -6.00323 0
M  V30 7788 H 761.427 -3.74607 -6.83586 0
M  V30 7789 N 765.656 0.84705 -1.32902 0
M  V30 7790 C 766.886 1.63166 -1.26729 0
M  V30 7791 C 767.294 1.88474 0.165595 0
M  V30 7792 O 766.637 1.45947 1.11558 0
M  V30 7793 C 766.699 3.0103 -1.96522 0
M  V30 7794 C 766.363 2.9873 -3.45846 0
M  V30 7795 C 767.36 2.75032 -4.41196 0
M  V30 7796 C 765.045 3.19125 -3.87898 0
M  V30 7797 C 767.039 2.71743 -5.76571 0
M  V30 7798 C 764.726 3.15462 -5.2338 0
M  V30 7799 C 765.724 2.91801 -6.17528 0
M  V30 7800 O 765.412 2.88027 -7.5053 0
M  V30 7801 H 765.144 0.51469 -0.438258 0
M  V30 7802 H 767.698 1.06383 -1.75704 0
M  V30 7803 H 765.928 3.59634 -1.42128 0
M  V30 7804 H 767.617 3.61821 -1.83958 0
M  V30 7805 H 768.383 2.59034 -4.10032 0
M  V30 7806 H 764.262 3.36565 -3.15032 0
M  V30 7807 H 767.806 2.53194 -6.5003 0
M  V30 7808 H 763.703 3.31006 -5.54171 0
M  V30 7809 H 764.471 3.03927 -7.59981 0
M  V30 7810 N 767.134 1.16236 1.06428 0
M  V30 7811 C 768.382 0.941171 1.78847 0
M  V30 7812 C 768.703 -0.53248 1.87589 0
M  V30 7813 O 767.973 -1.38686 1.38358 0
M  V30 7814 H 766.553 0.345228 0.66244 0
M  V30 7815 H 769.215 1.46479 1.28569 0
M  V30 7816 H 768.311 1.35871 2.80972 0
M  V30 7817 N 768.612 -1.24939 0.960631 0
M  V30 7818 C 769.861 -1.92118 0.614298 0
M  V30 7819 C 770.174 -1.75998 -0.853474 0
M  V30 7820 O 771.38 -2.37804 -1.31003 0
M  V30 7821 C 769.836 -3.44303 1.04801 0
M  V30 7822 C 769.444 -3.69123 2.53875 0
M  V30 7823 C 771.188 -4.17375 0.774497 0
M  V30 7824 C 769.095 -5.14843 2.91016 0
M  V30 7825 H 768.025 -0.719319 0.226045 0
M  V30 7826 H 770.676 -1.41701 1.16589 0
M  V30 7827 H 769.058 -3.93715 0.42479 0
M  V30 7828 H 770.232 -3.30339 3.21267 0
M  V30 7829 H 768.547 -3.09323 2.78762 0
M  V30 7830 H 771.144 -5.24723 1.02808 0
M  V30 7831 H 771.487 -4.15294 -0.289192 0
M  V30 7832 H 772.02 -3.7389 1.35835 0
M  V30 7833 H 768.759 -5.2204 3.96427 0
M  V30 7834 H 768.279 -5.54652 2.28302 0
M  V30 7835 H 769.958 -5.83017 2.80535 0
M  V30 7836 N 770.09 -0.729906 -1.39679 0
M  V30 7837 C 771.367 -0.202149 -1.94553 0
M  V30 7838 C 771.747 1.29507 -1.66707 0
M  V30 7839 O 771.095 2.05819 -0.992517 0
M  V30 7840 C 771.305 -0.530279 -3.44948 0
M  V30 7841 C 772.653 -0.476808 -4.21914 0
M  V30 7842 O 773.677 -0.467171 -3.53123 0
M  V30 7843 O 772.536 -0.466869 -5.44502 0
M  V30 7844 H 769.63 -0.0351644 -0.826252 0
M  V30 7845 H 772.176 -0.808417 -1.49207 0
M  V30 7846 H 770.948 -1.56526 -3.5863 0
M  V30 7847 H 770.571 0.10522 -3.97461 0
M  V30 7848 N 771.568 1.50203 -0.477153 0
M  V30 7849 C 772.478 2.32421 0.319027 0
M  V30 7850 C 773.494 1.43075 0.990233 0
M  V30 7851 O 774.67 1.76123 0.976873 0
M  V30 7852 C 771.735 3.17909 1.38328 0
M  V30 7853 C 770.796 4.23082 0.728036 0
M  V30 7854 C 770.029 5.04484 1.74158 0
M  V30 7855 O 770.252 4.8705 2.96881 0
M  V30 7856 O 769.186 5.8747 1.31006 0
M  V30 7857 H 773.012 3.01638 -0.353281 0
M  V30 7858 H 770.597 1.47478 -0.238891 0
M  V30 7859 H 772.479 3.70937 1.9996 0
M  V30 7860 H 771.154 2.51413 2.03895 0
M  V30 7861 H 770.061 3.7403 0.07261 0
M  V30 7862 H 771.394 4.92065 0.115216 0
M  V30 7863 N 773.046 0.209999 1.56195 0
M  V30 7864 C 774.276 -0.429373 2.02089 0
M  V30 7865 C 774.684 -1.54703 1.0892 0
M  V30 7866 O 774.027 -1.83485 0.0889535 0
M  V30 7867 C 774.089 -1.03266 3.44349 0
M  V30 7868 C 773.753 -0.0518873 4.56971 0
M  V30 7869 C 774.75 0.744249 5.14545 0
M  V30 7870 C 772.435 0.0635185 5.0226 0
M  V30 7871 C 774.429 1.64261 6.15871 0
M  V30 7872 C 772.116 0.965423 6.03426 0
M  V30 7873 C 773.114 1.75352 6.60106 0
M  V30 7874 O 772.802 2.64029 7.59305 0
M  V30 7875 H 772.534 -0.110604 0.66689 0
M  V30 7876 H 775.088 0.320436 2.02885 0
M  V30 7877 H 773.318 -1.83134 3.40586 0
M  V30 7878 H 775.007 -1.57823 3.73961 0
M  V30 7879 H 775.773 0.665476 4.80413 0
M  V30 7880 H 771.652 -0.539762 4.57829 0
M  V30 7881 H 775.196 2.25819 6.60039 0
M  V30 7882 H 771.093 1.04526 6.36981 0
M  V30 7883 H 771.861 2.57974 7.76783 0
M  V30 7884 N 774.524 -1.57472 -0.0634922 0
M  V30 7885 C 775.454 -2.07297 -1.07473 0
M  V30 7886 C 776.435 -0.968162 -1.39859 0
M  V30 7887 O 777.62 -1.24139 -1.49343 0
M  V30 7888 C 774.75 -2.52381 -2.38581 0
M  V30 7889 C 773.704 -3.66813 -2.20526 0
M  V30 7890 C 773.03 -3.97982 -3.57092 0
M  V30 7891 C 774.33 -4.96553 -1.61965 0
M  V30 7892 H 776.024 -2.92033 -0.660092 0
M  V30 7893 H 773.57 -1.40488 -0.316074 0
M  V30 7894 H 775.523 -2.85852 -3.09624 0
M  V30 7895 H 774.247 -1.64684 -2.8204 0
M  V30 7896 H 772.906 -3.33639 -1.51924 0
M  V30 7897 H 772.554 -3.07403 -3.98136 0
M  V30 7898 H 772.254 -4.7504 -3.45848 0
M  V30 7899 H 773.778 -4.33956 -4.29552 0
M  V30 7900 H 775.192 -5.28201 -2.22883 0
M  V30 7901 H 773.589 -5.7799 -1.61394 0
M  V30 7902 H 774.659 -4.81396 -0.581918 0
M  V30 7903 N 776.003 0.335068 -1.53997 0
M  V30 7904 C 776.913 1.43511 -1.85585 0
M  V30 7905 C 777.929 1.57162 -0.746726 0
M  V30 7906 O 779.105 1.72477 -1.03988 0
M  V30 7907 C 776.17 2.78386 -2.06646 0
M  V30 7908 C 775.231 2.74007 -3.30483 0
M  V30 7909 C 774.464 4.02449 -3.50529 0
M  V30 7910 O 774.687 5.00147 -2.74242 0
M  V30 7911 O 773.621 4.06405 -4.4398 0
M  V30 7912 H 777.447 1.19731 -2.79102 0
M  V30 7913 H 775.032 0.528033 -1.39758 0
M  V30 7914 H 776.914 3.58247 -2.21894 0
M  V30 7915 H 775.589 3.0208 -1.16317 0
M  V30 7916 H 774.496 1.92736 -3.2063 0
M  V30 7917 H 775.829 2.55267 -4.20832 0
M  V30 7918 N 777.481 1.45874 0.596531 0
M  V30 7919 C 778.411 1.5824 1.71705 0
M  V30 7920 C 779.392 0.433366 1.64487 0
M  V30 7921 O 780.577 0.657895 1.82717 0
M  V30 7922 C 777.707 1.55927 3.10329 0
M  V30 7923 C 776.661 2.69659 3.32367 0
M  V30 7924 C 775.987 2.52403 4.71377 0
M  V30 7925 C 777.287 4.11591 3.21544 0
M  V30 7926 H 778.981 2.52035 1.61613 0
M  V30 7927 H 776.527 1.21297 0.776082 0
M  V30 7928 H 778.48 1.63173 3.88526 0
M  V30 7929 H 777.204 0.586674 3.21288 0
M  V30 7930 H 775.863 2.61859 2.56564 0
M  V30 7931 H 775.511 1.53258 4.79083 0
M  V30 7932 H 775.211 3.28679 4.87077 0
M  V30 7933 H 776.735 2.6152 5.5176 0
M  V30 7934 H 778.149 4.20576 3.89601 0
M  V30 7935 H 776.546 4.88344 3.4877 0
M  V30 7936 H 777.616 4.32719 2.1882 0
M  V30 7937 N 778.959 -0.83999 1.33349 0
M  V30 7938 C 779.906 -1.94972 1.23509 0
M  V30 7939 C 780.876 -1.65709 0.113967 0
M  V30 7940 O 782.061 -1.88552 0.292045 0
M  V30 7941 C 779.201 -3.30919 0.979105 0
M  V30 7942 C 778.314 -3.72587 2.18639 0
M  V30 7943 C 777.449 -4.97397 1.86465 0
M  V30 7944 C 776.488 -5.31597 3.03432 0
M  V30 7945 N 775.625 -6.47584 2.71254 0
M  V30 7946 H 780.465 -2.0272 2.18423 0
M  V30 7947 H 778.002 -0.992017 1.08616 0
M  V30 7948 H 779.96 -4.09239 0.811126 0
M  V30 7949 H 778.59 -3.22731 0.0667099 0
M  V30 7950 H 777.642 -2.89799 2.46416 0
M  V30 7951 H 778.954 -3.93844 3.06086 0
M  V30 7952 H 778.108 -5.83462 1.66305 0
M  V30 7953 H 776.847 -4.78107 0.96254 0
M  V30 7954 H 775.852 -4.44037 3.24208 0
M  V30 7955 H 777.077 -5.52836 3.94397 0
M  V30 7956 H 775.023 -6.29783 1.836 0
M  V30 7957 H 774.94 -6.68931 3.52231 0
M  V30 7958 H 776.208 -7.36764 2.54558 0
M  V30 7959 N 780.437 -1.16799 -1.0581 0
M  V30 7960 C 781.667 -0.975454 -1.82122 0
M  V30 7961 C 782.075 0.479584 -1.83021 0
M  V30 7962 O 781.418 1.34471 -1.25153 0
M  V30 7963 C 781.48 -1.43209 -3.29744 0
M  V30 7964 C 781.144 -2.908 -3.5254 0
M  V30 7965 C 782.141 -3.88775 -3.45181 0
M  V30 7966 C 779.826 -3.28832 -3.79703 0
M  V30 7967 C 781.82 -5.22782 -3.64661 0
M  V30 7968 C 779.507 -4.63007 -3.98832 0
M  V30 7969 C 780.505 -5.59791 -3.91309 0
M  V30 7970 O 780.193 -6.9154 -4.09911 0
M  V30 7971 H 779.925 -0.345655 -0.580947 0
M  V30 7972 H 782.479 -1.55355 -1.34365 0
M  V30 7973 H 780.709 -0.797504 -3.78387 0
M  V30 7974 H 782.398 -1.2062 -3.87564 0
M  V30 7975 H 783.164 -3.60738 -3.2418 0
M  V30 7976 H 779.043 -2.54073 -3.84666 0
M  V30 7977 H 782.587 -5.98312 -3.58705 0
M  V30 7978 H 778.484 -4.90752 -4.19324 0
M  V30 7979 H 779.252 -6.98188 -4.27172 0
M  V30 7980 N 781.915 1.24427 -0.967243 0
M  V30 7981 C 783.161 1.92772 -0.629812 0
M  V30 7982 C 783.494 1.75436 0.832827 0
M  V30 7983 O 782.769 1.10716 1.59913 0
M  V30 7984 C 783.052 3.45798 -1.00477 0
M  V30 7985 C 782.905 3.72304 -2.52407 0
M  V30 7986 C 784.224 4.36787 -0.538999 0
M  V30 7987 H 781.343 0.700099 -0.230282 0
M  V30 7988 H 783.985 1.46805 -1.20616 0
M  V30 7989 H 782.135 3.8508 -0.514336 0
M  V30 7990 H 783.807 3.42584 -3.08924 0
M  V30 7991 H 782.05 3.17472 -2.95625 0
M  V30 7992 H 782.721 4.7937 -2.73693 0
M  V30 7993 H 785.197 4.04877 -0.959874 0
M  V30 7994 H 784.073 5.4259 -0.829926 0
M  V30 7995 H 784.334 4.38527 0.560923 0
M  V30 7996 N 783.393 0.737304 1.3929 0
M  V30 7997 C 784.633 0.290966 2.02318 0
M  V30 7998 C 784.997 -1.10174 1.57244 0
M  V30 7999 O 786.198 -1.64628 2.12488 0
M  V30 8000 C 784.469 0.391767 3.55246 0
M  V30 8001 S 786.028 0.0256103 4.38793 0
M  V30 8002 H 782.846 0.113862 0.701824 0
M  V30 8003 H 785.448 0.964329 1.70062 0
M  V30 8004 H 784.152 1.40662 3.85542 0
M  V30 8005 H 783.683 -0.299338 3.9226 0
M  V30 8006 H 785.698 -1.18991 4.81722 0
M  V30 8007 N 784.871 -1.49948 0.485112 0
M  V30 8008 C 786.101 -2.06506 -0.0621921 0
M  V30 8009 C 786.509 -1.34756 -1.32806 0
M  V30 8010 O 785.852 -0.41466 -1.78959 0
M  V30 8011 C 785.914 -3.57243 -0.402182 0
M  V30 8012 C 785.578 -4.50574 0.763671 0
M  V30 8013 C 786.575 -4.93032 1.6497 0
M  V30 8014 C 784.26 -4.9308 0.957973 0
M  V30 8015 C 786.254 -5.76718 2.71432 0
M  V30 8016 C 783.941 -5.76546 2.0258 0
M  V30 8017 C 784.939 -6.18267 2.90232 0
M  V30 8018 O 784.627 -7.00066 3.95174 0
M  V30 8019 H 784.359 -0.675925 0.0100672 0
M  V30 8020 H 786.913 -1.93922 0.677023 0
M  V30 8021 H 785.143 -3.6778 -1.19478 0
M  V30 8022 H 786.832 -3.96107 -0.886219 0
M  V30 8023 H 787.598 -4.60851 1.51134 0
M  V30 8024 H 783.477 -4.60117 0.285144 0
M  V30 8025 H 787.021 -6.09203 3.39878 0
M  V30 8026 H 782.918 -6.0814 2.16417 0
M  V30 8027 H 783.686 -7.18343 3.92333 0
M  V30 8028 N 786.349 -0.21828 -1.56081 0
M  V30 8029 C 787.597 0.413488 -1.97825 0
M  V30 8030 C 787.918 1.60527 -1.10707 0
M  V30 8031 O 787.188 1.9504 -0.183378 0
M  V30 8032 H 785.768 0.155757 -0.730581 0
M  V30 8033 H 788.43 -0.310413 -1.92412 0
M  V30 8034 H 787.526 0.742024 -3.03151 0
M  V30 8035 N 787.827 1.57504 0.0551401 0
M  V30 8036 C 789.075 1.87684 0.74962 0
M  V30 8037 C 789.396 0.812547 1.77264 0
M  V30 8038 O 788.666 -0.15694 1.9527 0
M  V30 8039 H 787.246 0.6926 0.279846 0
M  V30 8040 H 789.908 1.94881 0.0272745 0
M  V30 8041 H 789.004 2.85734 1.25548 0
M  V30 8042 N 789.305 -0.326896 1.54172 0
M  V30 8043 C 790.235 -1.40741 1.86317 0
M  V30 8044 C 791.216 -1.54125 0.719684 0
M  V30 8045 O 792.401 -1.6806 0.973117 0
M  V30 8046 C 789.531 -2.77557 2.08757 0
M  V30 8047 C 788.485 -2.78965 3.24596 0
M  V30 8048 C 787.811 -4.18824 3.32401 0
M  V30 8049 C 789.111 -2.4301 4.62324 0
M  V30 8050 H 790.805 -1.14088 2.76811 0
M  V30 8051 H 788.351 -0.547389 1.3319 0
M  V30 8052 H 790.304 -3.53209 2.29829 0
M  V30 8053 H 789.028 -3.0568 1.15009 0
M  V30 8054 H 787.687 -2.05767 3.03406 0
M  V30 8055 H 787.335 -4.44083 2.36218 0
M  V30 8056 H 787.035 -4.20673 4.10253 0
M  V30 8057 H 788.559 -4.96294 3.55703 0
M  V30 8058 H 789.973 -3.08375 4.83299 0
M  V30 8059 H 788.37 -2.56116 5.42701 0
M  V30 8060 H 789.44 -1.38165 4.64799 0
M  V30 8061 O 790.822 -1.54423 -0.472853 0
M  V30 8062 H 791.513 -1.5752 -1.12726 0
M  V30 END ATOM
M  V30 BEGIN BOND
M  V30 END BOND
M  V30 END CTAB
M  END
$$$$
