drugbank_target|Q5EK40 Cholix toxin (DB08348)
 OpenBabel12092120503D

  0  0  0     0  0            999 V3000
M  V30 BEGIN CTAB
M  V30 COUNTS 10329 10445 0 0 0
M  V30 BEGIN ATOM
M  V30 1 H -0.908 1.98254 -0.117106 0
M  V30 2 N 0 1.576 0 0
M  V30 3 C 0.933 2.03868 1.02534 0
M  V30 4 C 1.911 0.928543 1.3348 0
M  V30 5 O 3.095 1.19667 1.45644 0
M  V30 6 C 0.222 2.43627 2.35294 0
M  V30 7 C -0.732 3.65373 2.2001 0
M  V30 8 S 0.101 5.13292 1.52614 0
M  V30 9 C 1.257 5.56322 2.86805 0
M  V30 10 H 1.49 2.90518 0.631377 0
M  V30 11 H -0.977 1.52953 0.210867 0
M  V30 12 H 0.981 2.67203 3.11629 0
M  V30 13 H -0.358 1.57376 2.7183 0
M  V30 14 H -1.165 3.90944 3.18086 0
M  V30 15 H -1.563 3.418 1.51819 0
M  V30 16 H 0.729 5.58782 3.83104 0
M  V30 17 H 1.672 6.56266 2.65933 0
M  V30 18 H 2.08 4.83886 2.90714 0
M  V30 19 N 1.4781 -0.272755 1.55222 0
M  V30 20 C 2.7081 -1.02107 1.79604 0
M  V30 21 C 3.1161 -1.80419 0.569693 0
M  V30 22 O 2.4591 -1.77566 -0.470743 0
M  V30 23 C 2.5211 -2.02675 2.96922 0
M  V30 24 C 2.1851 -1.43299 4.33952 0
M  V30 25 C 3.1821 -0.84853 5.12929 0
M  V30 26 C 0.8671 -1.46012 4.8061 0
M  V30 27 C 2.8611 -0.299109 6.36698 0
M  V30 28 C 0.5481 -0.906833 6.04334 0
M  V30 29 C 1.5461 -0.32733 6.82215 0
M  V30 30 O 1.2341 0.217479 8.03606 0
M  V30 31 H 0.9661 -0.307322 0.602104 0
M  V30 32 H 3.5201 -0.308862 2.03065 0
M  V30 33 H 1.7501 -2.77656 2.69155 0
M  V30 34 H 3.4391 -2.63637 3.08626 0
M  V30 35 H 4.2051 -0.820265 4.78013 0
M  V30 36 H 0.0841 -1.90056 4.2 0
M  V30 37 H 3.6281 0.153852 6.9743 0
M  V30 38 H -0.4749 -0.932339 6.38731 0
M  V30 39 H 0.2931 0.106863 8.1843 0
M  V30 40 N 2.9562 -1.48159 -0.537278 0
M  V30 41 C 3.8862 -1.65029 -1.6519 0
M  V30 42 C 4.8672 -0.499281 -1.62607 0
M  V30 43 O 6.0522 -0.730972 -1.79918 0
M  V30 44 C 3.1822 -1.68303 -3.03795 0
M  V30 45 C 2.1362 -2.8283 -3.21234 0
M  V30 46 C 1.4622 -2.71189 -4.60826 0
M  V30 47 C 2.7622 -4.24211 -3.04701 0
M  V30 48 H 4.4562 -2.58341 -1.51328 0
M  V30 49 H 2.0022 -1.24325 -0.726585 0
M  V30 50 H 3.9552 -1.78693 -3.81637 0
M  V30 51 H 2.6792 -0.715635 -3.18663 0
M  V30 52 H 1.3382 -2.71983 -2.45807 0
M  V30 53 H 0.9862 -1.72435 -4.7252 0
M  V30 54 H 0.6862 -3.48035 -4.7344 0
M  V30 55 H 2.2102 -2.83537 -5.40777 0
M  V30 56 H 3.6242 -4.3593 -3.72341 0
M  V30 57 H 2.0212 -5.01998 -3.28813 0
M  V30 58 H 3.0912 -4.41184 -2.01209 0
M  V30 59 N 4.4343 0.785586 -1.36625 0
M  V30 60 C 5.6623 1.57448 -1.3423 0
M  V30 61 C 6.0773 1.88649 0.0755653 0
M  V30 62 O 5.4343 1.50414 1.03354 0
M  V30 63 C 5.4853 2.89316 -2.16745 0
M  V30 64 O 5.2063 2.59459 -3.53005 0
M  V30 65 C 6.7073 3.83606 -2.22174 0
M  V30 66 H 3.9273 0.488226 -0.4603 0
M  V30 67 H 6.4713 0.974733 -1.79775 0
M  V30 68 H 4.6263 3.4575 -1.74745 0
M  V30 69 H 5.0403 3.43804 -3.96105 0
M  V30 70 H 6.5143 4.73181 -2.8426 0
M  V30 71 H 6.9913 4.21734 -1.22627 0
M  V30 72 H 7.5973 3.33104 -2.64427 0
M  V30 73 N 5.9124 1.20967 1.01018 0
M  V30 74 C 7.1594 1.02374 1.74716 0
M  V30 75 C 7.4874 -0.443375 1.89379 0
M  V30 76 O 6.7424 -1.34535 1.42123 0
M  V30 77 C 7.0414 1.65997 3.16512 0
M  V30 78 C 6.7074 3.15831 3.2181 0
M  V30 79 C 5.3694 3.56719 3.22963 0
M  V30 80 C 7.7214 4.11816 3.19464 0
M  V30 81 C 5.0494 4.92107 3.19449 0
M  V30 82 C 7.4014 5.47158 3.17491 0
M  V30 83 C 6.0654 5.87451 3.16951 0
M  V30 84 H 5.3354 0.374614 0.639332 0
M  V30 85 H 7.9824 1.50485 1.18434 0
M  V30 86 H 6.2874 1.10166 3.75993 0
M  V30 87 H 7.9844 1.49119 3.72242 0
M  V30 88 H 4.5744 2.83263 3.21652 0
M  V30 89 H 8.7584 3.81257 3.17737 0
M  V30 90 H 4.0144 5.22579 3.17366 0
M  V30 91 H 8.1884 6.21274 3.14629 0
M  V30 92 H 5.8154 6.92329 3.13983 0
M  V30 93 N 7.3905 -1.2043 1.01659 0
M  V30 94 C 8.6205 -1.93496 0.724081 0
M  V30 95 C 9.0285 -1.74998 -0.71918 0
M  V30 96 O 8.3715 -1.06118 -1.49949 0
M  V30 97 C 8.4335 -3.45886 0.97994 0
M  V30 98 C 8.0975 -3.88145 2.41232 0
M  V30 99 C 9.0945 -3.93907 3.39313 0
M  V30 100 C 6.7795 -4.20134 2.75305 0
M  V30 101 C 8.7735 -4.31069 4.6953 0
M  V30 102 C 6.4605 -4.56971 4.05735 0
M  V30 103 C 7.4585 -4.62411 5.02658 0
M  V30 104 O 7.1465 -4.98403 6.30754 0
M  V30 105 H 6.8785 -0.621824 0.265162 0
M  V30 106 H 9.4325 -1.53867 1.36066 0
M  V30 107 H 7.6625 -3.85639 0.286198 0
M  V30 108 H 9.3515 -4.0018 0.679021 0
M  V30 109 H 10.1175 -3.69357 3.14325 0
M  V30 110 H 5.9965 -4.1509 2.00551 0
M  V30 111 H 9.5405 -4.3523 5.45179 0
M  V30 112 H 5.4375 -4.80977 4.30502 0
M  V30 113 H 6.2055 -5.16395 6.35042 0
M  V30 114 N 8.8686 -0.792821 -1.36206 0
M  V30 115 C 9.7986 -0.207853 -2.32573 0
M  V30 116 C 10.7796 0.659055 -1.56813 0
M  V30 117 O 11.9646 0.592176 -1.84951 0
M  V30 118 C 9.0946 0.655449 -3.41059 0
M  V30 119 C 8.0486 -0.111842 -4.27854 0
M  V30 120 C 7.3746 0.872274 -5.27537 0
M  V30 121 C 8.6746 -1.30299 -5.05786 0
M  V30 122 H 10.3686 -1.01294 -2.81744 0
M  V30 123 H 7.9146 -0.48854 -1.3546 0
M  V30 124 H 9.8676 1.07464 -4.07467 0
M  V30 125 H 8.5916 1.49328 -2.90463 0
M  V30 126 H 7.2506 -0.512053 -3.63006 0
M  V30 127 H 6.8986 1.70523 -4.73214 0
M  V30 128 H 6.5986 0.363291 -5.86476 0
M  V30 129 H 8.1226 1.28996 -5.96818 0
M  V30 130 H 9.5366 -0.959379 -5.65216 0
M  V30 131 H 7.9336 -1.7455 -5.74154 0
M  V30 132 H 9.0036 -2.09663 -4.37229 0
M  V30 133 N 10.3467 1.47872 -0.545128 0
M  V30 134 C 11.2567 2.33633 0.212746 0
M  V30 135 C 12.2727 1.4744 0.923983 0
M  V30 136 O 13.4487 1.80393 0.895572 0
M  V30 137 C 10.5137 3.23884 1.23693 0
M  V30 138 C 9.5747 4.25961 0.534417 0
M  V30 139 C 8.8077 5.11899 1.5098 0
M  V30 140 O 9.0307 5.00077 2.7437 0
M  V30 141 O 7.9647 5.92831 1.0409 0
M  V30 142 H 11.7907 2.99714 -0.490416 0
M  V30 143 H 9.3757 1.46235 -0.305871 0
M  V30 144 H 11.2577 3.79666 1.82843 0
M  V30 145 H 9.9327 2.60446 1.92222 0
M  V30 146 H 8.8397 3.73972 -0.0979679 0
M  V30 147 H 10.1727 4.92079 -0.109213 0
M  V30 148 N 11.8248 0.280983 1.55075 0
M  V30 149 C 12.7718 -0.603937 2.22758 0
M  V30 150 C 13.7418 -1.1452 1.20309 0
M  V30 151 O 14.9268 -1.19343 1.48869 0
M  V30 152 C 12.0668 -1.77947 2.95684 0
M  V30 153 C 11.1798 -1.2715 4.12864 0
M  V30 154 C 10.3148 -2.4093 4.7342 0
M  V30 155 C 9.3538 -1.87165 5.82783 0
M  V30 156 N 8.4908 -2.94441 6.37377 0
M  V30 157 H 13.3308 -0.020124 2.97993 0
M  V30 158 H 10.8678 0.00183425 1.471 0
M  V30 159 H 12.8258 -2.47055 3.36184 0
M  V30 160 H 11.4558 -2.33522 2.22861 0
M  V30 161 H 10.5078 -0.473331 3.77444 0
M  V30 162 H 11.8198 -0.837751 4.91715 0
M  V30 163 H 10.9738 -3.18021 5.1667 0
M  V30 164 H 9.7128 -2.87623 3.93859 0
M  V30 165 H 8.7178 -1.08556 5.38976 0
M  V30 166 H 9.9428 -1.41401 6.64216 0
M  V30 167 H 7.8888 -3.40505 5.60707 0
M  V30 168 H 7.8058 -2.55501 7.11516 0
M  V30 169 H 9.0738 -3.71489 6.85285 0
M  V30 170 N 13.3029 -1.57598 0.00835791 0
M  V30 171 C 14.5489 -1.91211 -0.675732 0
M  V30 172 C 14.8819 -0.883139 -1.72958 0
M  V30 173 O 14.1569 0.097016 -1.94258 0
M  V30 174 C 14.4399 -3.35379 -1.31123 0
M  V30 175 C 14.2929 -4.48999 -0.268356 0
M  V30 176 C 15.6119 -3.7912 -2.23508 0
M  V30 177 H 12.7309 -0.695374 -0.244179 0
M  V30 178 H 15.3729 -1.89901 0.0613655 0
M  V30 179 H 13.5229 -3.36626 -1.93946 0
M  V30 180 H 15.1949 -4.59887 0.360844 0
M  V30 181 H 13.4379 -4.31873 0.408482 0
M  V30 182 H 14.1089 -5.46851 -0.752218 0
M  V30 183 H 16.5849 -3.79477 -1.70693 0
M  V30 184 H 15.4609 -4.80729 -2.64936 0
M  V30 185 H 15.7219 -3.13455 -3.11766 0
M  V30 186 N 14.781 0.264519 -1.55364 0
M  V30 187 C 15.714 1.35297 -1.83766 0
M  V30 188 C 16.692 1.47171 -0.691336 0
M  V30 189 O 17.876 1.63663 -0.935238 0
M  V30 190 C 15.003 2.72847 -2.00679 0
M  V30 191 C 14.049 2.78214 -3.23263 0
M  V30 192 S 14.882 2.36601 -4.80396 0
M  V30 193 C 16.038 3.7611 -5.00292 0
M  V30 194 H 16.271 1.11003 -2.758 0
M  V30 195 H 13.804 0.464596 -1.47244 0
M  V30 196 H 15.762 3.52057 -2.11108 0
M  V30 197 H 14.423 2.94388 -1.09518 0
M  V30 198 H 13.616 3.7919 -3.3201 0
M  V30 199 H 13.218 2.07034 -3.11469 0
M  V30 200 H 15.51 4.71457 -4.86554 0
M  V30 201 H 16.453 3.7231 -6.02321 0
M  V30 202 H 16.861 3.67806 -4.28228 0
M  V30 203 N 16.2591 1.48442 0.529413 0
M  V30 204 C 17.2061 1.63007 1.63394 0
M  V30 205 C 18.1761 0.47212 1.59249 0
M  V30 206 O 19.3611 0.695673 1.77666 0
M  V30 207 C 16.5011 1.6763 3.01653 0
M  V30 208 C 15.6141 2.94535 3.16027 0
M  V30 209 C 14.7491 2.90316 4.44849 0
M  V30 210 C 13.7881 4.11923 4.52754 0
M  V30 211 N 12.9251 4.05777 5.72965 0
M  V30 212 H 17.7651 2.5733 1.50285 0
M  V30 213 H 15.3021 1.27613 0.731656 0
M  V30 214 H 17.2601 1.68292 3.81751 0
M  V30 215 H 15.8901 0.76797 3.13532 0
M  V30 216 H 14.9421 3.03615 2.29177 0
M  V30 217 H 16.2541 3.84512 3.17729 0
M  V30 218 H 15.4081 2.89382 5.33238 0
M  V30 219 H 14.1471 1.98068 4.45668 0
M  V30 220 H 13.1521 4.13131 3.62771 0
M  V30 221 H 14.3771 5.0533 4.53672 0
M  V30 222 H 12.3231 3.16351 5.74681 0
M  V30 223 H 12.2401 4.8946 5.76164 0
M  V30 224 H 13.5081 4.08904 6.6364 0
M  V30 225 N 17.7372 -0.778329 1.37039 0
M  V30 226 C 18.6842 -1.89139 1.32269 0
M  V30 227 C 19.6542 -1.65017 0.189387 0
M  V30 228 O 20.8392 -1.87024 0.377693 0
M  V30 229 C 17.9792 -3.26112 1.12894 0
M  V30 230 C 17.0922 -3.62233 2.35396 0
M  V30 231 C 16.2272 -4.8838 2.08946 0
M  V30 232 C 15.2662 -5.17212 3.2735 0
M  V30 233 N 14.4032 -6.34546 3.00492 0
M  V30 234 H 19.2432 -1.92552 2.27437 0
M  V30 235 H 16.7802 -0.941473 1.13025 0
M  V30 236 H 18.7382 -4.05116 0.996835 0
M  V30 237 H 17.3682 -3.22091 0.213758 0
M  V30 238 H 16.4202 -2.78265 2.5937 0
M  V30 239 H 17.7322 -3.79481 3.23721 0
M  V30 240 H 16.8862 -5.75274 1.92729 0
M  V30 241 H 15.6252 -4.73222 1.17949 0
M  V30 242 H 14.6302 -4.28796 3.44113 0
M  V30 243 H 15.8552 -5.34283 4.19188 0
M  V30 244 H 13.8012 -6.20759 2.12118 0
M  V30 245 H 13.7182 -6.52179 3.82358 0
M  V30 246 H 14.9862 -7.24394 2.87879 0
M  V30 247 N 19.2153 -1.21501 -1.00376 0
M  V30 248 C 20.1483 -0.918669 -2.08892 0
M  V30 249 C 21.1263 0.134277 -1.62045 0
M  V30 250 O 22.3103 0.00504255 -1.88499 0
M  V30 251 C 19.4373 -0.379645 -3.36566 0
M  V30 252 C 18.4833 -1.41559 -4.02323 0
M  V30 253 S 19.3163 -2.98521 -4.44574 0
M  V30 254 C 20.4723 -2.46228 -5.75433 0
M  V30 255 H 20.7053 -1.83761 -2.33707 0
M  V30 256 H 18.2383 -1.04489 -1.13673 0
M  V30 257 H 20.1963 -0.0752195 -4.10431 0
M  V30 258 H 18.8573 0.518008 -3.09799 0
M  V30 259 H 18.0503 -0.988076 -4.9422 0
M  V30 260 H 17.6523 -1.66815 -3.34737 0
M  V30 261 H 19.9443 -1.86791 -6.51241 0
M  V30 262 H 20.8873 -3.36572 -6.22997 0
M  V30 263 H 21.2953 -1.87894 -5.32312 0
M  V30 264 N 20.6934 1.19889 -1.02296 0
M  V30 265 C 21.6234 2.25141 -0.619174 0
M  V30 266 C 22.6044 1.66051 0.368915 0
M  V30 267 O 23.7894 1.92546 0.252941 0
M  V30 268 C 20.9194 3.4728 0.0368783 0
M  V30 269 C 19.8734 4.19005 -0.872865 0
M  V30 270 C 19.1994 5.34637 -0.0822402 0
M  V30 271 C 20.4994 4.74452 -2.18387 0
M  V30 272 H 22.1934 2.59171 -1.49903 0
M  V30 273 H 19.7394 1.24579 -0.722222 0
M  V30 274 H 21.6924 4.20098 0.330958 0
M  V30 275 H 20.4164 3.12433 0.95149 0
M  V30 276 H 19.0754 3.48061 -1.15105 0
M  V30 277 H 18.7234 4.96034 0.83422 0
M  V30 278 H 18.4234 5.83557 -0.688149 0
M  V30 279 H 19.9474 6.10255 0.205238 0
M  V30 280 H 21.3614 5.39055 -1.95172 0
M  V30 281 H 19.7584 5.33834 -2.74119 0
M  V30 282 H 20.8284 3.92844 -2.84257 0
M  V30 283 N 22.1715 0.800033 1.35784 0
M  V30 284 C 23.1015 0.220184 2.3246 0
M  V30 285 C 24.0825 -0.65073 1.57161 0
M  V30 286 O 25.2675 -0.582359 1.85263 0
M  V30 287 C 22.3975 -0.637353 3.41402 0
M  V30 288 C 21.3515 0.134531 4.27789 0
M  V30 289 C 20.6775 -0.844285 5.27992 0
M  V30 290 C 21.9775 1.32979 5.05088 0
M  V30 291 H 23.6715 1.02787 2.81203 0
M  V30 292 H 21.2175 0.495717 1.35199 0
M  V30 293 H 23.1705 -1.05302 4.08031 0
M  V30 294 H 21.8945 -1.47785 2.91251 0
M  V30 295 H 20.5535 0.531296 3.6273 0
M  V30 296 H 20.2015 -1.68011 4.74111 0
M  V30 297 H 19.9015 -0.332184 5.8666 0
M  V30 298 H 21.4255 -1.2583 5.97494 0
M  V30 299 H 22.8395 0.98934 5.64699 0
M  V30 300 H 21.2365 1.77593 5.7322 0
M  V30 301 H 22.3065 2.11978 4.36111 0
M  V30 302 N 23.6496 -1.47581 0.552962 0
M  V30 303 C 24.8986 -2.01684 0.0251995 0
M  V30 304 C 25.2116 -1.43317 -1.33115 0
M  V30 305 O 26.4176 -1.89057 -1.94858 0
M  V30 306 C 24.8736 -3.599 -0.00542052 0
M  V30 307 C 24.4816 -4.27257 1.34742 0
M  V30 308 C 26.2256 -4.21768 -0.4808 0
M  V30 309 C 24.1326 -5.77467 1.27614 0
M  V30 310 H 23.0626 -0.753979 0.00565033 0
M  V30 311 H 25.7136 -1.69616 0.70018 0
M  V30 312 H 24.0956 -3.88911 -0.745961 0
M  V30 313 H 25.2696 -4.09893 2.10534 0
M  V30 314 H 23.5846 -3.77358 1.76039 0
M  V30 315 H 26.1816 -5.31838 -0.55246 0
M  V30 316 H 26.5246 -3.88651 -1.49184 0
M  V30 317 H 27.0576 -3.97273 0.204752 0
M  V30 318 H 23.7966 -6.15196 2.26304 0
M  V30 319 H 23.3166 -5.9718 0.55996 0
M  V30 320 H 24.9956 -6.3959 0.976421 0
M  V30 321 N 25.1277 -0.289203 -1.54924 0
M  V30 322 C 26.0907 0.579144 -2.21762 0
M  V30 323 C 27.0907 1.07047 -1.1999 0
M  V30 324 O 28.2807 0.968384 -1.44803 0
M  V30 325 C 25.4127 1.80055 -2.8947 0
M  V30 326 H 26.6057 -0.00464908 -2.999 0
M  V30 327 H 24.1587 -0.0399306 -1.56249 0
M  V30 328 H 24.8937 2.42449 -2.15381 0
M  V30 329 H 24.6787 1.45602 -3.64064 0
M  V30 330 H 26.1687 2.41773 -3.40493 0
M  V30 331 N 26.6058 1.57591 -0.0167156 0
M  V30 332 C 27.8538 1.90906 0.663285 0
M  V30 333 C 28.1748 0.892509 1.73376 0
M  V30 334 O 27.4448 -0.0677623 1.95783 0
M  V30 335 H 26.0248 0.704637 0.247983 0
M  V30 336 H 28.6868 1.94803 -0.0615909 0
M  V30 337 H 27.7828 2.9116 1.12393 0
M  V30 338 N 28.0839 -0.256276 1.55502 0
M  V30 339 C 29.0469 -1.30047 1.88734 0
M  V30 340 C 30.0469 -1.4154 0.763086 0
M  V30 341 O 31.2369 -1.40403 1.03115 0
M  V30 342 C 28.3689 -2.67953 2.10747 0
M  V30 343 H 29.5619 -1.01802 2.82093 0
M  V30 344 H 27.1149 -0.495134 1.4825 0
M  V30 345 H 27.8499 -3.01351 1.19825 0
M  V30 346 H 27.6349 -2.60993 2.92617 0
M  V30 347 H 29.1249 -3.43368 2.37673 0
M  V30 348 N 29.562 -1.4872 -0.521534 0
M  V30 349 C 30.79 -1.60843 -1.30142 0
M  V30 350 C 31.205 -0.271897 -1.86832 0
M  V30 351 O 30.562 0.739969 -1.66825 0
M  V30 352 C 30.613 -2.66155 -2.4463 0
M  V30 353 O 30.334 -3.94623 -1.90275 0
M  V30 354 C 31.835 -2.88795 -3.36322 0
M  V30 355 H 29.055 -0.542075 -0.395468 0
M  V30 356 H 31.599 -1.94609 -0.628285 0
M  V30 357 H 29.754 -2.35224 -3.07812 0
M  V30 358 H 30.168 -4.52468 -2.65279 0
M  V30 359 H 31.642 -3.66264 -4.12983 0
M  V30 360 H 32.119 -1.97934 -3.9207 0
M  V30 361 H 32.725 -3.21063 -2.78924 0
M  V30 362 N 31.0401 0.771051 -1.3745 0
M  V30 363 C 32.2861 1.5319 -1.32894 0
M  V30 364 C 32.6191 1.94008 0.0862511 0
M  V30 365 O 31.8941 1.64124 1.04373 0
M  V30 366 C 32.1771 2.79648 -2.26868 0
M  V30 367 C 32.0301 2.45079 -3.77169 0
M  V30 368 C 33.3491 3.81583 -2.19277 0
M  V30 369 H 30.4681 0.555744 -0.484064 0
M  V30 370 H 33.1101 0.884492 -1.68157 0
M  V30 371 H 31.2601 3.34891 -1.96926 0
M  V30 372 H 32.9321 1.95745 -4.1771 0
M  V30 373 H 31.1751 1.77767 -3.95704 0
M  V30 374 H 31.8461 3.35478 -4.38359 0
M  V30 375 H 34.3221 3.35835 -2.45671 0
M  V30 376 H 33.1981 4.67787 -2.87171 0
M  V30 377 H 33.4591 4.25897 -1.18592 0
M  V30 378 N 32.5182 1.22032 0.997298 0
M  V30 379 C 33.7672 1.03637 1.73038 0
M  V30 380 C 34.0802 -0.429475 1.90827 0
M  V30 381 O 35.2862 -0.732995 2.61418 0
M  V30 382 C 33.7422 1.80582 3.11317 0
M  V30 383 C 33.3502 3.31387 3.01474 0
M  V30 384 C 35.0942 1.70621 3.88701 0
M  V30 385 C 33.0012 4.00791 4.3488 0
M  V30 386 H 31.9312 0.384179 0.648785 0
M  V30 387 H 34.5822 1.4584 1.11368 0
M  V30 388 H 32.9642 1.31175 3.73643 0
M  V30 389 H 34.1382 3.88155 2.4834 0
M  V30 390 H 32.4532 3.41976 2.37575 0
M  V30 391 H 35.0502 2.19799 4.87434 0
M  V30 392 H 35.3932 0.665823 4.10941 0
M  V30 393 H 35.9262 2.17547 3.33044 0
M  V30 394 H 32.6652 5.05064 4.1784 0
M  V30 395 H 32.1852 3.48811 4.87945 0
M  V30 396 H 33.8642 4.06139 5.03647 0
M  V30 397 N 33.9963 -1.19345 1.0293 0
M  V30 398 C 35.2213 -1.93538 0.745511 0
M  V30 399 C 35.6463 -1.75007 -0.689511 0
M  V30 400 O 35.0043 -1.05265 -1.47611 0
M  V30 401 C 35.0523 -3.43336 1.10239 0
M  V30 402 O 34.1563 -4.11806 0.221289 0
M  V30 403 H 33.4973 -0.604193 0.275404 0
M  V30 404 H 36.0273 -1.5141 1.37609 0
M  V30 405 H 36.0373 -3.94004 1.05947 0
M  V30 406 H 34.7123 -3.56146 2.14786 0
M  V30 407 H 33.2893 -3.715 0.322842 0
M  V30 408 N 35.4744 -0.807222 -1.35358 0
M  V30 409 C 36.6994 -0.399309 -2.0352 0
M  V30 410 C 37.1244 0.981986 -1.60433 0
M  V30 411 O 36.4824 1.63601 -0.781299 0
M  V30 412 C 36.5304 -0.491552 -3.57234 0
M  V30 413 O 35.6344 0.494754 -4.09421 0
M  V30 414 H 34.9754 -0.166682 -0.642739 0
M  V30 415 H 37.5054 -1.09328 -1.72941 0
M  V30 416 H 37.5154 -0.361588 -4.06395 0
M  V30 417 H 36.1904 -1.49907 -3.87944 0
M  V30 418 H 34.7674 0.324977 -3.71481 0
M  V30 419 N 36.9525 1.47285 -0.560781 0
M  V30 420 C 37.8855 2.27009 0.232821 0
M  V30 421 C 38.8635 1.34273 0.917039 0
M  V30 422 O 40.0475 1.63659 0.935315 0
M  V30 423 C 37.1745 3.11406 1.33206 0
M  V30 424 C 36.2205 4.19746 0.756019 0
M  V30 425 S 37.0535 5.34003 -0.400165 0
M  V30 426 C 38.2095 6.21964 0.700805 0
M  V30 427 H 38.4425 2.93971 -0.443683 0
M  V30 428 H 35.9755 1.50446 -0.347181 0
M  V30 429 H 37.9335 3.60601 1.96156 0
M  V30 430 H 36.5945 2.438 1.98041 0
M  V30 431 H 35.7875 4.78541 1.5816 0
M  V30 432 H 35.3895 3.73451 0.202619 0
M  V30 433 H 37.6815 6.58529 1.59202 0
M  V30 434 H 38.6245 7.07941 0.150126 0
M  V30 435 H 39.0325 5.5566 0.995083 0
M  V30 436 N 38.4306 0.297415 1.54768 0
M  V30 437 C 39.3936 -0.567375 2.22066 0
M  V30 438 C 40.3936 -1.06409 1.20556 0
M  V30 439 O 41.5836 -0.960691 1.45315 0
M  V30 440 C 38.7156 -1.78517 2.90421 0
M  V30 441 H 39.9086 0.0205534 2.99893 0
M  V30 442 H 37.4616 0.0482163 1.56226 0
M  V30 443 H 38.1966 -2.41303 2.16664 0
M  V30 444 H 37.9816 -1.43669 3.64831 0
M  V30 445 H 39.4716 -2.39964 3.41771 0
M  V30 446 N 39.9087 -1.5758 0.0250728 0
M  V30 447 C 40.8587 -2.06468 -0.967201 0
M  V30 448 C 41.8427 -0.964376 -1.28797 0
M  V30 449 O 43.0347 -1.22797 -1.27475 0
M  V30 450 C 40.1637 -2.59203 -2.25097 0
M  V30 451 C 39.2497 -3.76157 -1.95874 0
M  V30 452 N 39.6407 -4.86919 -1.36905 0
M  V30 453 C 37.9387 -3.84566 -2.25887 0
M  V30 454 C 38.6397 -5.68172 -1.24724 0
M  V30 455 N 37.6157 -5.14953 -1.74138 0
M  V30 456 H 41.4177 -2.89508 -0.506176 0
M  V30 457 H 38.9317 -1.61399 -0.18004 0
M  V30 458 H 40.9287 -2.92517 -2.97052 0
M  V30 459 H 39.5887 -1.77592 -2.71829 0
M  V30 460 H 40.5997 -5.07256 -1.04459 0
M  V30 461 H 37.2767 -3.13854 -2.75321 0
M  V30 462 H 38.6667 -6.67221 -0.791605 0
M  V30 463 N 41.3868 0.248026 -1.55636 0
M  V30 464 C 42.7978 0.817177 -1.67866 0
M  V30 465 C 43.1488 1.86069 -0.622322 0
M  V30 466 O 42.2738 2.15157 0.231618 0
M  V30 467 C 42.8688 1.489 -3.04326 0
M  V30 468 C 41.4278 2.00587 -3.185 0
M  V30 469 C 40.5748 0.856573 -2.63739 0
M  V30 470 H 43.5258 0.0238579 -1.58682 0
M  V30 471 H 43.5468 2.35698 -2.98708 0
M  V30 472 H 43.0588 0.729279 -3.81186 0
M  V30 473 H 41.1598 2.79443 -2.4646 0
M  V30 474 H 41.2728 2.20402 -4.25393 0
M  V30 475 H 39.6368 1.25678 -2.21534 0
M  V30 476 H 40.4198 0.109953 -3.43124 0
M  V30 477 N 42.8649 1.48995 0.513639 0
M  V30 478 C 44.0929 1.61531 1.29288 0
M  V30 479 C 44.5079 0.281801 1.86685 0
M  V30 480 O 43.8649 -0.731111 1.67215 0
M  V30 481 C 43.9159 2.67449 2.43215 0
M  V30 482 O 43.6369 3.95626 1.88179 0
M  V30 483 C 45.1379 2.90575 3.34785 0
M  V30 484 H 42.3579 0.544165 0.392588 0
M  V30 485 H 44.9019 1.9494 0.617956 0
M  V30 486 H 43.0569 2.36853 3.0656 0
M  V30 487 H 43.4709 4.53868 2.62876 0
M  V30 488 H 44.9449 3.68449 4.11035 0
M  V30 489 H 45.4219 2.00011 3.91015 0
M  V30 490 H 46.0279 3.22538 2.77218 0
M  V30 491 N 44.343 -0.763751 1.37857 0
M  V30 492 C 45.59 -1.52257 1.33506 0
M  V30 493 C 45.918 -1.94343 -0.078022 0
M  V30 494 O 45.173 -1.64958 -1.05297 0
M  V30 495 C 45.472 -2.79499 2.22745 0
M  V30 496 C 45.138 -2.56426 3.70886 0
M  V30 497 C 43.8 -2.49842 4.11257 0
M  V30 498 C 46.152 -2.36008 4.64704 0
M  V30 499 C 43.48 -2.20841 5.43549 0
M  V30 500 C 45.832 -2.0853 5.97242 0
M  V30 501 C 44.496 -2.00396 6.36709 0
M  V30 502 H 43.766 -0.557149 0.488534 0
M  V30 503 H 46.413 -0.879073 1.70131 0
M  V30 504 H 44.718 -3.48447 1.79142 0
M  V30 505 H 46.415 -3.37413 2.16688 0
M  V30 506 H 43.005 -2.62416 3.38874 0
M  V30 507 H 47.189 -2.40079 4.34368 0
M  V30 508 H 42.445 -2.13045 5.73081 0
M  V30 509 H 46.619 -1.91732 6.69486 0
M  V30 510 H 44.246 -1.77688 7.39142 0
M  V30 511 N 45.8211 -1.22559 -0.990812 0
M  V30 512 C 46.7841 -0.998863 -2.0629 0
M  V30 513 C 47.7841 0.0354834 -1.60761 0
M  V30 514 O 48.9741 -0.203231 -1.7301 0
M  V30 515 C 46.1061 -0.509203 -3.37076 0
M  V30 516 H 47.2991 -1.95014 -2.27837 0
M  V30 517 H 44.8521 -1.04456 -1.16269 0
M  V30 518 H 45.5871 0.446335 -3.21214 0
M  V30 519 H 45.3721 -1.25547 -3.71457 0
M  V30 520 H 46.8621 -0.370888 -4.1595 0
M  V30 521 N 47.2992 1.18797 -1.03562 0
M  V30 522 C 48.5452 1.8893 -0.737113 0
M  V30 523 C 48.8782 1.79837 0.732956 0
M  V30 524 O 48.1532 1.19525 1.5344 0
M  V30 525 C 48.4362 3.39607 -1.19745 0
M  V30 526 C 48.2892 3.57537 -2.72924 0
M  V30 527 C 49.6082 4.33069 -0.783526 0
M  V30 528 H 46.7272 0.686057 -0.269249 0
M  V30 529 H 49.3692 1.39797 -1.28673 0
M  V30 530 H 47.5192 3.81583 -0.729855 0
M  V30 531 H 49.1912 3.24688 -3.27682 0
M  V30 532 H 47.4342 3.00363 -3.12993 0
M  V30 533 H 48.1052 4.63238 -3.00191 0
M  V30 534 H 50.5812 3.98846 -1.18581 0
M  V30 535 H 49.4572 5.3707 -1.13343 0
M  V30 536 H 49.7182 4.40986 0.313681 0
M  V30 537 N 48.7773 0.814389 1.34928 0
M  V30 538 C 49.6873 0.231978 2.3345 0
M  V30 539 C 50.7033 -0.629139 1.62228 0
M  V30 540 O 51.8793 -0.539052 1.94052 0
M  V30 541 C 48.9443 -0.603482 3.41407 0
M  V30 542 C 48.0053 0.279037 4.28392 0
M  V30 543 C 47.2383 -0.516643 5.31193 0
M  V30 544 O 47.4613 -1.75068 5.4287 0
M  V30 545 O 46.3953 0.0965652 6.01823 0
M  V30 546 H 50.2213 1.04721 2.85074 0
M  V30 547 H 47.8063 0.576343 1.37836 0
M  V30 548 H 49.6883 -1.07908 4.0735 0
M  V30 549 H 48.3633 -1.39618 2.92042 0
M  V30 550 H 47.2703 0.801948 3.65403 0
M  V30 551 H 48.6033 1.03588 4.81176 0
M  V30 552 N 50.2554 -1.46986 0.568584 0
M  V30 553 C 51.5324 -1.95592 -0.0174074 0
M  V30 554 C 51.9124 -1.51124 -1.47393 0
M  V30 555 O 51.2604 -0.755329 -2.15655 0
M  V30 556 C 51.4704 -3.48719 0.139913 0
M  V30 557 C 52.8184 -4.246 0.000426376 0
M  V30 558 O 53.8424 -3.56135 0.0680316 0
M  V30 559 O 52.7014 -5.46302 -0.146988 0
M  V30 560 H 49.7954 -0.82498 -0.0577599 0
M  V30 561 H 52.3414 -1.57335 0.635909 0
M  V30 562 H 51.1134 -3.73927 1.15301 0
M  V30 563 H 50.7364 -3.93771 -0.550491 0
M  V30 564 N 51.7335 -0.305618 -1.54608 0
M  V30 565 C 52.6435 0.57778 -2.27374 0
M  V30 566 C 53.6595 1.14451 -1.31061 0
M  V30 567 O 54.8355 1.16831 -1.6405 0
M  V30 568 C 51.9005 1.73123 -3.00382 0
M  V30 569 C 50.9615 1.19812 -4.12242 0
M  V30 570 C 50.1945 2.2966 -4.81759 0
M  V30 571 O 50.4175 3.49651 -4.50666 0
M  V30 572 O 49.3515 1.96091 -5.69062 0
M  V30 573 H 53.1775 -0.012624 -3.03697 0
M  V30 574 H 50.7625 -0.0719184 -1.49227 0
M  V30 575 H 52.6445 2.40315 -3.4616 0
M  V30 576 H 51.3195 2.30815 -2.26949 0
M  V30 577 H 50.2265 0.491798 -3.70853 0
M  V30 578 H 51.5595 0.666566 -4.87666 0
M  V30 579 N 53.2116 1.57565 -0.0334293 0
M  V30 580 C 54.1416 2.13511 0.945265 0
M  V30 581 C 55.1226 1.05231 1.33643 0
M  V30 582 O 56.3076 1.33084 1.41429 0
M  V30 583 C 53.4376 2.6657 2.22616 0
M  V30 584 C 52.3916 3.79676 1.97561 0
M  V30 585 C 51.7176 4.1918 3.31952 0
M  V30 586 C 53.0176 5.0557 1.31135 0
M  V30 587 H 54.7116 2.95538 0.479325 0
M  V30 588 H 52.2576 1.42166 0.229115 0
M  V30 589 H 54.2106 3.04344 2.91466 0
M  V30 590 H 52.9346 1.8171 2.71384 0
M  V30 591 H 51.5936 3.42347 1.31127 0
M  V30 592 H 51.2416 3.31296 3.78487 0
M  V30 593 H 50.9416 4.95402 3.15992 0
M  V30 594 H 52.4656 4.59541 4.02063 0
M  V30 595 H 53.8796 5.40903 1.89992 0
M  V30 596 H 52.2766 5.86818 1.25559 0
M  V30 597 H 53.3466 4.84062 0.284894 0
M  V30 598 N 54.6897 -0.239769 1.55765 0
M  V30 599 C 55.6377 -1.31668 1.91745 0
M  V30 600 C 56.6317 -1.49462 0.797338 0
M  V30 601 O 57.8377 -1.50852 0.982021 0
M  V30 602 H 54.2127 -0.441048 0.609082 0
M  V30 603 H 56.1837 -0.985923 2.81642 0
M  V30 604 C 54.9327 -2.66368 2.2348 0
M  V30 605 H 54.2557 -2.53478 3.09175 0
M  V30 606 H 55.6957 -3.40578 2.52553 0
M  V30 607 C 54.1547 -3.20002 1.05359 0
M  V30 608 O 54.6847 -4.00538 0.305261 0
M  V30 609 N 52.8907 -2.78126 0.842292 0
M  V30 610 H 52.4377 -2.12742 1.45253 0
M  V30 611 H 52.3957 -3.14354 0.053652 0
M  V30 612 N 56.1678 -1.49265 -0.50573 0
M  V30 613 C 57.4168 -1.57761 -1.25675 0
M  V30 614 C 57.7298 -0.267371 -1.93764 0
M  V30 615 O 58.9358 -0.230827 -2.70517 0
M  V30 616 C 57.3918 -2.78332 -2.28165 0
M  V30 617 C 56.9998 -4.16096 -1.66037 0
M  V30 618 C 58.7438 -2.96155 -3.04125 0
M  V30 619 C 56.6508 -5.27895 -2.6661 0
M  V30 620 H 55.5808 -0.587391 -0.472745 0
M  V30 621 H 58.2318 -1.75644 -0.53118 0
M  V30 622 H 56.6138 -2.53934 -3.03865 0
M  V30 623 H 57.7878 -4.50612 -0.963622 0
M  V30 624 H 56.1028 -4.03591 -1.02484 0
M  V30 625 H 58.6998 -3.76849 -3.79327 0
M  V30 626 H 59.0428 -2.06534 -3.61455 0
M  V30 627 H 59.5758 -3.2057 -2.35541 0
M  V30 628 H 56.3148 -6.1956 -2.14068 0
M  V30 629 H 55.8348 -4.97839 -3.34539 0
M  V30 630 H 57.5138 -5.57031 -3.29129 0
M  V30 631 N 57.6459 0.756429 -1.3826 0
M  V30 632 C 58.8929 1.51547 -1.34312 0
M  V30 633 C 59.2209 1.94382 0.0677144 0
M  V30 634 O 58.4759 1.65514 1.04421 0
M  V30 635 C 58.7749 2.78313 -2.24224 0
M  V30 636 C 58.4409 2.54455 -3.72241 0
M  V30 637 C 57.1029 2.47657 -4.12576 0
M  V30 638 C 59.4549 2.3354 -4.65949 0
M  V30 639 C 56.7829 2.17956 -5.44713 0
M  V30 640 C 59.1349 2.05359 -5.9834 0
M  V30 641 C 57.7989 1.97016 -6.37762 0
M  V30 642 H 57.0689 0.55455 -0.491482 0
M  V30 643 H 59.7159 0.870039 -1.70595 0
M  V30 644 H 58.0209 3.47492 -1.80987 0
M  V30 645 H 59.7179 3.36259 -2.18474 0
M  V30 646 H 56.3079 2.60616 -3.40261 0
M  V30 647 H 60.4919 2.37772 -4.35635 0
M  V30 648 H 55.7479 2.10003 -5.74203 0
M  V30 649 H 59.9219 1.88179 -6.70494 0
M  V30 650 H 57.5489 1.73766 -7.40074 0
M  V30 651 N 59.124 1.23083 0.984299 0
M  V30 652 C 60.401 0.9689 1.69917 0
M  V30 653 C 60.781 -0.513604 2.04757 0
M  V30 654 O 60.129 -1.48383 1.73767 0
M  V30 655 C 60.339 1.87518 2.94343 0
M  V30 656 C 61.687 2.13636 3.6694 0
M  V30 657 O 62.711 1.85036 3.04368 0
M  V30 658 O 61.57 2.62119 4.79537 0
M  V30 659 H 58.664 0.365095 0.742048 0
M  V30 660 H 61.21 1.34107 1.03987 0
M  V30 661 H 59.982 2.87756 2.65164 0
M  V30 662 H 59.605 1.50514 3.6801 0
M  V30 663 N 60.6021 -1.18246 1.0419 0
M  V30 664 C 61.5121 -2.25574 0.644476 0
M  V30 665 C 62.5281 -1.70845 -0.329826 0
M  V30 666 O 63.7041 -2.00554 -0.184443 0
M  V30 667 C 60.7691 -3.46697 0.014877 0
M  V30 668 C 59.8301 -4.16554 1.03834 0
M  V30 669 C 59.0631 -5.31894 0.438692 0
M  V30 670 O 59.2861 -5.65385 -0.754752 0
M  V30 671 O 58.2201 -5.90459 1.168 0
M  V30 672 H 62.0461 -2.61836 1.53869 0
M  V30 673 H 59.6311 -1.25352 0.812854 0
M  V30 674 H 61.5131 -4.20062 -0.335538 0
M  V30 675 H 60.1881 -3.12255 -0.853138 0
M  V30 676 H 59.0951 -3.45251 1.44057 0
M  V30 677 H 60.4281 -4.54998 1.87716 0
M  V30 678 N 62.0802 -0.821533 -1.34494 0
M  V30 679 C 63.3202 -0.414785 -2.00147 0
M  V30 680 C 63.6842 1.00299 -1.6372 0
M  V30 681 O 64.8852 1.51255 -2.22206 0
M  V30 682 C 63.1562 -0.609403 -3.52166 0
M  V30 683 S 64.7152 -0.295297 -4.37805 0
M  V30 684 H 61.5332 -0.15679 -0.693497 0
M  V30 685 H 64.1352 -1.06705 -1.63812 0
M  V30 686 H 62.8392 -1.64096 -3.76166 0
M  V30 687 H 62.3702 0.0576414 -3.93358 0
M  V30 688 H 64.3852 0.891531 -4.88125 0
M  V30 689 N 63.5583 1.46682 -0.576371 0
M  V30 690 C 64.9743 1.57822 -0.237562 0
M  V30 691 C 65.1743 1.57237 1.26011 0
M  V30 692 O 64.2303 1.48596 2.04146 0
M  V30 693 C 65.5433 2.87499 -0.881168 0
M  V30 694 C 67.0913 3.01119 -0.85417 0
M  V30 695 C 67.5663 4.33524 -1.4772 0
M  V30 696 N 69.0573 4.40207 -1.44125 0
M  V30 697 C 69.7923 5.4126 -1.89276 0
M  V30 698 N 69.2883 6.49021 -2.42371 0
M  V30 699 N 71.0813 5.32422 -1.80231 0
M  V30 700 H 63.2323 1.45306 -1.54919 0
M  V30 701 H 65.4953 0.692733 -0.647167 0
M  V30 702 H 65.2013 2.9372 -1.93447 0
M  V30 703 H 65.0753 3.75224 -0.385592 0
M  V30 704 H 67.4623 2.94485 0.190491 0
M  V30 705 H 67.5433 2.14887 -1.3877 0
M  V30 706 H 67.1873 4.40916 -2.52103 0
M  V30 707 H 67.1173 5.1852 -0.918947 0
M  V30 708 H 69.6083 3.62931 -1.05307 0
M  V30 709 H 69.9213 7.2233 -2.74698 0
M  V30 710 H 68.2663 6.49858 -2.46393 0
M  V30 711 H 71.4573 4.47137 -1.38514 0
M  V30 712 H 71.6303 6.11034 -2.15735 0
M  V30 713 N 65.0364 0.313813 1.54444 0
M  V30 714 C 66.2614 -0.296681 2.05267 0
M  V30 715 C 66.6864 -1.45757 1.18897 0
M  V30 716 O 66.0444 -1.80239 0.195886 0
M  V30 717 C 66.0924 -0.71831 3.53373 0
M  V30 718 O 65.1964 -1.82175 3.69981 0
M  V30 719 H 64.5374 -0.0554061 0.661684 0
M  V30 720 H 67.0674 0.459387 1.99376 0
M  V30 721 H 67.0774 -1.00364 3.95463 0
M  V30 722 H 65.7524 0.130821 4.15694 0
M  V30 723 H 64.3294 -1.53598 3.39797 0
M  V30 724 N 66.5145 -1.57545 0.0417849 0
M  V30 725 C 67.9255 -1.80011 -0.495259 0
M  V30 726 C 68.2765 -0.953199 -1.71489 0
M  V30 727 O 67.4015 -0.167138 -2.15754 0
M  V30 728 C 67.9965 -3.26482 -0.905265 0
M  V30 729 C 66.5555 -3.499 -1.38734 0
M  V30 730 C 65.7025 -2.74979 -0.358056 0
M  V30 731 H 68.6535 -1.56425 0.267736 0
M  V30 732 H 68.6745 -3.36887 -1.76882 0
M  V30 733 H 68.1865 -3.88096 -0.017401 0
M  V30 734 H 66.2875 -2.93553 -2.29471 0
M  V30 735 H 66.4005 -4.58615 -1.38598 0
M  V30 736 H 64.7645 -2.40834 -0.828912 0
M  V30 737 H 65.5475 -3.39315 0.521561 0
M  V30 738 N 67.9926 0.231505 -1.5589 0
M  V30 739 C 69.2326 0.964533 -1.80211 0
M  V30 740 C 69.5966 1.81926 -0.613744 0
M  V30 741 O 70.7976 2.58526 -0.736045 0
M  V30 742 C 69.0686 1.78956 -3.09369 0
M  V30 743 S 70.6276 2.57959 -3.54969 0
M  V30 744 H 67.4456 0.324173 -0.632798 0
M  V30 745 H 70.0476 0.230985 -1.94131 0
M  V30 746 H 68.7516 1.15161 -3.93911 0
M  V30 747 H 68.2826 2.56559 -2.9823 0
M  V30 748 H 70.2976 3.81309 -3.17519 0
M  V30 749 N 69.4707 1.49531 0.497807 0
M  V30 750 C 70.6957 1.63159 1.28039 0
M  V30 751 C 71.1207 0.30418 1.85624 0
M  V30 752 O 70.4787 -0.728618 1.66015 0
M  V30 753 C 70.5267 2.70537 2.38416 0
M  V30 754 O 69.6307 2.29931 3.42353 0
M  V30 755 H 68.9717 0.546001 0.377861 0
M  V30 756 H 71.5017 1.9574 0.59558 0
M  V30 757 H 71.5117 2.92802 2.84132 0
M  V30 758 H 70.1867 3.6689 1.95869 0
M  V30 759 H 68.7637 2.18009 3.02533 0
M  V30 760 N 70.9488 -0.749086 1.3866 0
M  V30 761 C 71.8788 -1.8764 1.38973 0
M  V30 762 C 72.8598 -1.68178 0.255004 0
M  V30 763 O 74.0448 -1.88704 0.458754 0
M  V30 764 C 71.1748 -3.25222 1.21851 0
M  V30 765 C 70.1288 -3.59295 2.32575 0
M  V30 766 C 69.4548 -4.95663 2.00555 0
M  V30 767 C 70.7548 -3.63709 3.7485 0
M  V30 768 H 72.4488 -1.87635 2.3331 0
M  V30 769 H 69.9948 -0.901329 1.12303 0
M  V30 770 H 71.9478 -4.03746 1.20695 0
M  V30 771 H 70.6718 -3.25719 0.239775 0
M  V30 772 H 69.3308 -2.83093 2.32925 0
M  V30 773 H 68.9788 -4.92724 1.01154 0
M  V30 774 H 68.6788 -5.19429 2.74714 0
M  V30 775 H 70.2028 -5.7656 2.01024 0
M  V30 776 H 71.6168 -4.32338 3.76506 0
M  V30 777 H 70.0138 -3.98986 4.48252 0
M  V30 778 H 71.0838 -2.63834 4.06841 0
M  V30 779 N 72.4269 -1.23603 -0.977757 0
M  V30 780 C 73.6549 -1.09646 -1.75458 0
M  V30 781 C 74.0699 0.351859 -1.85492 0
M  V30 782 O 73.4269 1.24327 -1.336 0
M  V30 783 C 73.4779 -1.71895 -3.18016 0
M  V30 784 O 73.1989 -3.11063 -3.08498 0
M  V30 785 C 74.6999 -1.63415 -4.12081 0
M  V30 786 H 71.9199 -0.38359 -0.550545 0
M  V30 787 H 74.4639 -1.63507 -1.22824 0
M  V30 788 H 72.6189 -1.22061 -3.67668 0
M  V30 789 H 73.0329 -3.41305 -3.9826 0
M  V30 790 H 74.5069 -2.11669 -5.09804 0
M  V30 791 H 74.9839 -0.593462 -4.35172 0
M  V30 792 H 75.5899 -2.12628 -3.68334 0
M  V30 793 N 73.905 1.17692 -1.04816 0
M  V30 794 C 75.316 1.69501 -0.782698 0
M  V30 795 C 75.667 1.83456 0.695577 0
M  V30 796 O 74.792 1.51942 1.54086 0
M  V30 797 C 75.387 3.07874 -1.41419 0
M  V30 798 C 73.946 3.56864 -1.19686 0
M  V30 799 C 73.093 2.3322 -1.50012 0
M  V30 800 H 76.044 1.02262 -1.2136 0
M  V30 801 H 76.065 3.71528 -0.821428 0
M  V30 802 H 75.577 2.97685 -2.49009 0
M  V30 803 H 73.678 3.72337 -0.140043 0
M  V30 804 H 73.791 4.39851 -1.89916 0
M  V30 805 H 72.155 2.37501 -0.920071 0
M  V30 806 H 72.938 2.25644 -2.58727 0
M  V30 807 N 75.3831 0.828654 1.34056 0
M  V30 808 C 76.2931 0.256725 2.33191 0
M  V30 809 C 77.3091 -0.611898 1.62886 0
M  V30 810 O 78.4851 -0.51844 1.94613 0
M  V30 811 C 75.5501 -0.567238 3.42028 0
M  V30 812 C 74.6111 0.324458 4.28072 0
M  V30 813 C 73.8441 -0.460274 5.31712 0
M  V30 814 O 74.0671 -1.693 5.44696 0
M  V30 815 O 73.0011 0.160391 6.01686 0
M  V30 816 H 76.8271 1.07739 2.83947 0
M  V30 817 H 74.4121 0.59093 1.37217 0
M  V30 818 H 76.2941 -1.03582 4.08471 0
M  V30 819 H 74.9691 -1.36513 2.93506 0
M  V30 820 H 73.8761 0.840659 3.64532 0
M  V30 821 H 75.2091 1.08685 4.8005 0
M  V30 822 N 76.8612 -1.46375 0.584142 0
M  V30 823 C 78.2722 -1.86031 0.157959 0
M  V30 824 C 78.6232 -1.48753 -1.27933 0
M  V30 825 O 77.7482 -0.903098 -1.96655 0
M  V30 826 C 78.3432 -3.37642 0.279892 0
M  V30 827 C 76.9022 -3.76289 -0.09143 0
M  V30 828 C 76.0492 -2.7039 0.615178 0
M  V30 829 H 79.0002 -1.37509 0.792274 0
M  V30 830 H 79.0212 -3.77275 -0.494364 0
M  V30 831 H 78.5332 -3.64742 1.32607 0
M  V30 832 H 76.6342 -3.54806 -1.13769 0
M  V30 833 H 76.7472 -4.78246 0.285886 0
M  V30 834 H 75.1112 -2.5464 0.0552833 0
M  V30 835 H 75.8942 -3.0033 1.66303 0
M  V30 836 N 78.3393 -0.321999 -1.54275 0
M  V30 837 C 79.5873 0.280489 -2.00144 0
M  V30 838 C 79.9083 1.52777 -1.21178 0
M  V30 839 O 79.1783 1.9338 -0.313187 0
M  V30 840 H 77.7583 0.106632 -0.73935 0
M  V30 841 H 80.4203 -0.438184 -1.8991 0
M  V30 842 H 79.5163 0.537972 -3.07428 0
M  V30 843 N 79.8174 1.5752 -0.0501392 0
M  V30 844 C 80.7644 2.1147 0.924603 0
M  V30 845 C 81.7344 1.02182 1.30951 0
M  V30 846 O 82.9194 1.29723 1.39916 0
M  V30 847 C 80.0594 2.66337 2.19451 0
M  V30 848 C 79.1724 3.89708 1.86418 0
M  V30 849 C 78.3074 4.32893 3.07859 0
M  V30 850 C 77.3464 5.48967 2.70742 0
M  V30 851 N 76.4834 5.87211 3.84874 0
M  V30 852 H 81.3234 2.94465 0.457639 0
M  V30 853 H 78.8604 1.45531 0.214266 0
M  V30 854 H 80.8184 2.96247 2.93758 0
M  V30 855 H 79.4484 1.86141 2.63726 0
M  V30 856 H 78.5004 3.66396 1.02264 0
M  V30 857 H 79.8124 4.74074 1.55096 0
M  V30 858 H 78.9664 4.6435 3.90466 0
M  V30 859 H 77.7054 3.47336 3.42358 0
M  V30 860 H 76.7104 5.17183 1.86551 0
M  V30 861 H 77.9354 6.3624 2.37436 0
M  V30 862 H 75.8814 5.04607 4.19175 0
M  V30 863 H 75.7984 6.66266 3.57247 0
M  V30 864 H 77.0664 6.23282 4.68123 0
M  V30 865 N 81.2955 -0.223234 1.56011 0
M  V30 866 C 82.7065 -0.790368 1.69145 0
M  V30 867 C 83.0575 -1.85055 0.651845 0
M  V30 868 O 82.1825 -2.15498 -0.197359 0
M  V30 869 C 82.7775 -1.4404 3.06656 0
M  V30 870 C 81.3365 -1.95494 3.2165 0
M  V30 871 C 80.4835 -0.814506 2.65068 0
M  V30 872 H 83.4345 0.00139011 1.587 0
M  V30 873 H 83.4555 -2.30916 3.0242 0
M  V30 874 H 82.9675 -0.668543 3.82298 0
M  V30 875 H 81.0685 -2.75487 2.50874 0
M  V30 876 H 81.1815 -2.13607 4.28846 0
M  V30 877 H 79.5455 -1.22137 2.23505 0
M  V30 878 H 80.3285 -0.0553515 3.43255 0
M  V30 879 N 82.7736 -1.49793 -0.48987 0
M  V30 880 C 84.0226 -1.59085 -1.23995 0
M  V30 881 C 84.3356 -0.287907 -1.9347 0
M  V30 882 O 85.5416 -0.259506 -2.70257 0
M  V30 883 C 83.9976 -2.80736 -2.252 0
M  V30 884 C 83.6056 -4.17833 -1.61614 0
M  V30 885 C 85.3496 -2.99364 -3.00967 0
M  V30 886 C 83.2566 -5.30693 -2.60996 0
M  V30 887 H 82.1866 -0.592372 -0.466488 0
M  V30 888 H 84.8376 -1.76197 -0.51252 0
M  V30 889 H 83.2196 -2.57142 -3.01154 0
M  V30 890 H 84.3936 -4.51608 -0.915774 0
M  V30 891 H 82.7086 -4.04656 -0.981977 0
M  V30 892 H 85.3056 -3.80851 -3.75308 0
M  V30 893 H 85.6486 -2.10356 -3.59244 0
M  V30 894 H 86.1816 -3.2305 -2.32128 0
M  V30 895 H 82.9206 -6.21796 -2.07485 0
M  V30 896 H 82.4406 -5.01359 -3.2924 0
M  V30 897 H 84.1196 -5.6049 -3.23202 0
M  V30 898 N 84.2517 0.741722 -1.39055 0
M  V30 899 C 85.1837 1.8657 -1.33133 0
M  V30 900 C 86.1967 1.61001 -0.241329 0
M  V30 901 O 87.3857 1.7136 -0.499784 0
M  V30 902 C 84.4857 3.22457 -1.04283 0
M  V30 903 C 83.6587 3.75435 -2.24427 0
M  V30 904 C 82.7177 4.89867 -1.92138 0
M  V30 905 O 81.7437 5.03879 -2.64754 0
M  V30 906 N 82.9457 5.73738 -0.88347 0
M  V30 907 H 85.7107 1.92156 -2.29991 0
M  V30 908 H 83.2717 0.922172 -1.3307 0
M  V30 909 H 85.2637 3.9657 -0.807128 0
M  V30 910 H 83.8337 3.12181 -0.161807 0
M  V30 911 H 83.0537 2.92751 -2.6399 0
M  V30 912 H 84.3417 4.07563 -3.04581 0
M  V30 913 H 83.7397 5.64999 -0.281517 0
M  V30 914 H 82.2967 6.47947 -0.707662 0
M  V30 915 N 85.7298 1.2412 0.971189 0
M  V30 916 C 86.9548 1.10667 1.75407 0
M  V30 917 C 87.3798 -0.337048 1.85056 0
M  V30 918 O 86.7378 -1.24396 1.31892 0
M  V30 919 C 86.7858 1.74726 3.15441 0
M  V30 920 O 85.8898 1.01566 3.99697 0
M  V30 921 H 85.2308 0.387341 0.539317 0
M  V30 922 H 87.7608 1.64358 1.2185 0
M  V30 923 H 87.7708 1.80341 3.6598 0
M  V30 924 H 86.4458 2.79773 3.07734 0
M  V30 925 H 85.0228 1.03713 3.58187 0
M  V30 926 N 87.2079 -1.17134 1.05439 0
M  V30 927 C 88.1549 -2.21235 0.657539 0
M  V30 928 C 89.1249 -1.62551 -0.341543 0
M  V30 929 O 90.3099 -1.89379 -0.232393 0
M  V30 930 C 87.4499 -3.45076 0.0410575 0
M  V30 931 C 86.5629 -4.18042 1.08927 0
M  V30 932 C 85.6979 -5.29376 0.439848 0
M  V30 933 C 84.7369 -5.94132 1.4722 0
M  V30 934 N 83.8739 -6.96975 0.846756 0
M  V30 935 H 88.7139 -2.54534 1.54972 0
M  V30 936 H 86.2509 -1.25028 0.775006 0
M  V30 937 H 88.2089 -4.15862 -0.33383 0
M  V30 938 H 86.8389 -3.12353 -0.814568 0
M  V30 939 H 85.8909 -3.45945 1.58196 0
M  V30 940 H 87.2029 -4.62306 1.87282 0
M  V30 941 H 86.3569 -6.06699 0.0115125 0
M  V30 942 H 85.0959 -4.86251 -0.375656 0
M  V30 943 H 84.1009 -5.15538 1.91052 0
M  V30 944 H 85.3259 -6.39337 2.28965 0
M  V30 945 H 83.2719 -6.5598 0.0518075 0
M  V30 946 H 83.1889 -7.39565 1.5678 0
M  V30 947 H 84.4569 -7.78239 0.443277 0
M  V30 948 N 88.686 -0.835752 -1.33615 0
M  V30 949 C 89.616 -0.281739 -2.31794 0
M  V30 950 C 90.597 0.608833 -1.58831 0
M  V30 951 O 91.782 0.533035 -1.86741 0
M  V30 952 C 88.912 0.546612 -3.42971 0
M  V30 953 C 87.866 -0.247904 -4.27281 0
M  V30 954 C 87.192 0.704001 -5.30045 0
M  V30 955 C 88.492 -1.46324 -5.01385 0
M  V30 956 H 90.186 -1.10206 -2.78379 0
M  V30 957 H 87.732 -0.531388 -1.33837 0
M  V30 958 H 89.685 0.944467 -4.1068 0
M  V30 959 H 88.409 1.40011 -2.95067 0
M  V30 960 H 87.068 -0.627281 -3.61194 0
M  V30 961 H 86.716 1.55381 -4.78399 0
M  V30 962 H 86.416 0.176524 -5.87335 0
M  V30 963 H 87.94 1.09944 -6.0062 0
M  V30 964 H 89.354 -1.13871 -5.61877 0
M  V30 965 H 87.751 -1.92728 -5.6831 0
M  V30 966 H 88.821 -2.23467 -4.30338 0
M  V30 967 N 90.1641 1.46063 -0.591896 0
M  V30 968 C 91.3891 2.07226 -0.0850314 0
M  V30 969 C 91.8141 1.43625 1.21463 0
M  V30 970 O 91.1721 0.523305 1.73583 0
M  V30 971 C 91.2201 3.60554 0.0576567 0
M  V30 972 O 90.3241 3.97128 1.11188 0
M  V30 973 H 89.6651 0.660615 -0.0669568 0
M  V30 974 H 92.1951 1.8756 -0.81745 0
M  V30 975 H 92.2051 4.07165 0.2609 0
M  V30 976 H 90.8801 4.06235 -0.891416 0
M  V30 977 H 89.4571 3.62213 0.886356 0
M  V30 978 N 91.6422 0.330177 1.54103 0
M  V30 979 C 92.8912 -0.271336 1.99867 0
M  V30 980 C 93.2042 -1.52723 1.22209 0
M  V30 981 O 94.4102 -2.20515 1.58383 0
M  V30 982 C 92.8662 -0.534032 3.55916 0
M  V30 983 C 92.4742 0.705193 4.42415 0
M  V30 984 C 94.2182 -1.09514 4.1013 0
M  V30 985 C 92.1252 0.414035 5.89949 0
M  V30 986 H 91.0552 -0.105166 0.74663 0
M  V30 987 H 93.7062 0.443429 1.78062 0
M  V30 988 H 92.0882 -1.30915 3.73734 0
M  V30 989 H 93.2622 1.4804 4.36372 0
M  V30 990 H 91.5772 1.18698 3.99124 0
M  V30 991 H 94.1742 -1.3277 5.17954 0
M  V30 992 H 94.5172 -2.04656 3.62521 0
M  V30 993 H 95.0502 -0.381038 3.95971 0
M  V30 994 H 91.7892 1.33481 6.41766 0
M  V30 995 H 91.3092 -0.323336 5.98928 0
M  V30 996 H 92.9882 0.0263105 6.46995 0
M  V30 997 N 93.1203 -1.57491 0.0584922 0
M  V30 998 C 94.5313 -1.80526 -0.476138 0
M  V30 999 C 94.8823 -0.971334 -1.70469 0
M  V30 1000 O 94.0073 -0.190012 -2.15564 0
M  V30 1001 C 94.6023 -3.27424 -0.870587 0
M  V30 1002 C 93.1613 -3.51351 -1.35015 0
M  V30 1003 C 92.3083 -2.75343 -0.32887 0
M  V30 1004 H 95.2593 -1.56133 0.284312 0
M  V30 1005 H 95.2803 -3.38745 -1.73299 0
M  V30 1006 H 94.7923 -3.88093 0.0237627 0
M  V30 1007 H 92.8933 -2.95971 -2.26345 0
M  V30 1008 H 93.0063 -4.60059 -1.33726 0
M  V30 1009 H 91.3703 -2.417 -0.803321 0
M  V30 1010 H 92.1533 -3.38743 0.557521 0
M  V30 1011 N 94.5984 0.214957 -1.56127 0
M  V30 1012 C 95.8234 0.95924 -1.83884 0
M  V30 1013 C 96.2484 1.7689 -0.639644 0
M  V30 1014 O 95.6064 1.76566 0.411601 0
M  V30 1015 C 95.6544 1.84723 -3.09693 0
M  V30 1016 O 94.7584 2.94346 -2.8885 0
M  V30 1017 H 94.0994 0.27125 -0.606069 0
M  V30 1018 H 96.6294 0.226276 -2.03345 0
M  V30 1019 H 96.6394 2.25576 -3.39969 0
M  V30 1020 H 95.3144 1.25218 -3.96602 0
M  V30 1021 H 93.8914 2.57391 -2.69823 0
M  V30 1022 N 96.0765 1.50051 0.48192 0
M  V30 1023 C 97.3535 1.51009 1.2432 0
M  V30 1024 C 97.7335 0.248587 2.09631 0
M  V30 1025 O 97.0815 -0.768409 2.15192 0
M  V30 1026 C 97.2915 2.79981 2.08355 0
M  V30 1027 C 98.6395 3.3022 2.66908 0
M  V30 1028 O 99.6635 2.81228 2.18607 0
M  V30 1029 O 98.5225 4.15595 3.54884 0
M  V30 1030 H 95.6165 0.605239 0.563573 0
M  V30 1031 H 98.1625 1.62332 0.494627 0
M  V30 1032 H 96.9345 3.63275 1.45419 0
M  V30 1033 H 96.5575 2.7161 2.90368 0
M  V30 1034 N 97.5546 -0.734337 1.39446 0
M  V30 1035 C 98.8006 -1.49613 1.36908 0
M  V30 1036 C 99.1336 -1.94169 -0.0347829 0
M  V30 1037 O 98.4086 -1.66833 -0.999847 0
M  V30 1038 C 98.6916 -2.73534 2.34203 0
M  V30 1039 C 98.5446 -2.34993 3.83534 0
M  V30 1040 C 99.8636 -3.75635 2.29317 0
M  V30 1041 H 96.9826 -0.542714 0.498629 0
M  V30 1042 H 99.6246 -0.839597 1.70443 0
M  V30 1043 H 97.7746 -3.29553 2.05736 0
M  V30 1044 H 99.4466 -1.84601 4.22753 0
M  V30 1045 H 97.6896 -1.67213 4.00278 0
M  V30 1046 H 98.3606 -3.23738 4.47099 0
M  V30 1047 H 100.837 -3.29203 2.54489 0
M  V30 1048 H 99.7126 -4.60008 2.99472 0
M  V30 1049 H 99.9736 -4.22603 1.29842 0
M  V30 1050 N 99.0327 -1.24633 -0.964593 0
M  V30 1051 C 100.279 -1.08949 -1.71049 0
M  V30 1052 C 100.612 0.370302 -1.90637 0
M  V30 1053 O 99.8867 1.27349 -1.47011 0
M  V30 1054 C 100.17 -1.83329 -3.0994 0
M  V30 1055 C 100.023 -3.37077 -2.97824 0
M  V30 1056 C 101.342 -1.60846 -4.09654 0
M  V30 1057 H 98.4607 -0.397178 -0.620821 0
M  V30 1058 H 101.103 -1.5334 -1.12191 0
M  V30 1059 H 99.2527 -1.45597 -3.60186 0
M  V30 1060 H 100.925 -3.84425 -2.5498 0
M  V30 1061 H 99.1677 -3.65298 -2.33965 0
M  V30 1062 H 99.8387 -3.84324 -3.96231 0
M  V30 1063 H 102.315 -1.93674 -3.68279 0
M  V30 1064 H 101.191 -2.1534 -5.04896 0
M  V30 1065 H 101.452 -0.547434 -4.38698 0
M  V30 1066 N 100.511 1.16574 -1.06058 0
M  V30 1067 C 101.441 2.23057 -0.690488 0
M  V30 1068 C 102.422 1.67141 0.315901 0
M  V30 1069 O 103.607 1.93253 0.191556 0
M  V30 1070 C 100.737 3.47222 -0.073625 0
M  V30 1071 C 99.6908 4.16016 -1.00573 0
M  V30 1072 C 99.0168 5.34104 -0.252289 0
M  V30 1073 C 100.317 4.67264 -2.33371 0
M  V30 1074 H 102.011 2.54271 -1.58072 0
M  V30 1075 H 99.5568 1.22218 -0.76149 0
M  V30 1076 H 101.51 4.20939 0.19714 0
M  V30 1077 H 100.234 3.15302 0.85161 0
M  V30 1078 H 98.8928 3.44223 -1.2612 0
M  V30 1079 H 98.5408 4.98437 0.675988 0
M  V30 1080 H 98.2408 5.81072 -0.873455 0
M  V30 1081 H 99.7648 6.10599 0.0109857 0
M  V30 1082 H 101.179 5.32573 -2.12223 0
M  V30 1083 H 99.5758 5.24843 -2.90963 0
M  V30 1084 H 100.646 3.83602 -2.96611 0
M  V30 1085 N 101.989 0.842826 1.3317 0
M  V30 1086 C 103.266 0.362216 1.92217 0
M  V30 1087 C 103.646 -1.15289 1.76838 0
M  V30 1088 O 102.994 -1.96914 1.15919 0
M  V30 1089 C 103.204 0.813495 3.39387 0
M  V30 1090 C 104.552 0.823804 4.16532 0
M  V30 1091 O 105.576 0.757358 3.48055 0
M  V30 1092 O 104.435 0.915193 5.38782 0
M  V30 1093 H 101.529 0.103317 0.820521 0
M  V30 1094 H 104.075 0.928942 1.42017 0
M  V30 1095 H 102.847 1.85624 3.4447 0
M  V30 1096 H 102.47 0.223561 3.96971 0
M  V30 1097 N 103.467 -1.45747 0.599634 0
M  V30 1098 C 104.377 -2.34262 -0.125888 0
M  V30 1099 C 105.393 -1.50768 -0.868625 0
M  V30 1100 O 106.569 -1.83592 -0.828003 0
M  V30 1101 C 103.634 -3.28252 -1.11587 0
M  V30 1102 C 102.695 -4.27651 -0.375956 0
M  V30 1103 C 101.928 -5.1715 -1.31877 0
M  V30 1104 O 102.151 -5.09916 -2.55621 0
M  V30 1105 O 101.085 -5.96286 -0.820157 0
M  V30 1106 H 104.911 -2.97688 0.601315 0
M  V30 1107 H 102.496 -1.44999 0.359934 0
M  V30 1108 H 104.378 -3.86191 -1.68626 0
M  V30 1109 H 103.053 -2.67401 -1.82424 0
M  V30 1110 H 101.96 -3.7335 0.236698 0
M  V30 1111 H 103.293 -4.91334 0.29177 0
M  V30 1112 N 104.945 -0.338344 -1.53925 0
M  V30 1113 C 106.193 0.259245 -2.0043 0
M  V30 1114 C 106.514 1.51484 -1.22791 0
M  V30 1115 O 105.784 1.93037 -0.33368 0
M  V30 1116 H 104.364 0.0987845 -0.740439 0
M  V30 1117 H 107.026 -0.458302 -1.89435 0
M  V30 1118 H 106.122 0.505334 -3.07982 0
M  V30 1119 N 106.423 1.57458 -0.0668435 0
M  V30 1120 C 107.669 1.93587 0.6043 0
M  V30 1121 C 108.002 0.946722 1.69561 0
M  V30 1122 O 107.277 -0.0248516 1.94484 0
M  V30 1123 C 107.56 3.40014 1.18585 0
M  V30 1124 C 107.413 4.49685 0.101529 0
M  V30 1125 C 108.732 3.87154 2.09284 0
M  V30 1126 H 105.851 0.703958 0.218202 0
M  V30 1127 H 108.493 1.89542 -0.131804 0
M  V30 1128 H 106.643 3.43592 1.81319 0
M  V30 1129 H 108.315 4.5823 -0.531279 0
M  V30 1130 H 106.558 4.30059 -0.568487 0
M  V30 1131 H 107.229 5.49266 0.54874 0
M  V30 1132 H 109.705 3.85551 1.56491 0
M  V30 1133 H 108.581 4.90231 2.46911 0
M  V30 1134 H 108.842 3.2481 2.99918 0
M  V30 1135 N 107.901 -0.206675 1.56239 0
M  V30 1136 C 108.831 -1.25909 1.96645 0
M  V30 1137 C 109.812 -1.48097 0.836734 0
M  V30 1138 O 110.997 -1.6003 1.10019 0
M  V30 1139 C 108.127 -2.6058 2.29599 0
M  V30 1140 C 107.081 -2.53024 3.452 0
M  V30 1141 C 106.407 -3.91861 3.63798 0
M  V30 1142 C 107.707 -2.06524 4.79734 0
M  V30 1143 H 109.401 -0.923369 2.84806 0
M  V30 1144 H 106.947 -0.442735 1.37025 0
M  V30 1145 H 108.9 -3.34375 2.56459 0
M  V30 1146 H 107.624 -2.95869 1.38307 0
M  V30 1147 H 106.283 -1.81684 3.18412 0
M  V30 1148 H 105.931 -4.24483 2.69857 0
M  V30 1149 H 105.631 -3.87683 4.4156 0
M  V30 1150 H 107.155 -4.67296 3.93022 0
M  V30 1151 H 108.569 -2.70072 5.05702 0
M  V30 1152 H 106.966 -2.13374 5.60885 0
M  V30 1153 H 108.036 -1.01802 4.74093 0
M  V30 1154 N 109.379 -1.50304 -0.473955 0
M  V30 1155 C 110.609 -1.64663 -1.24778 0
M  V30 1156 C 111.017 -0.328174 -1.86332 0
M  V30 1157 O 110.36 0.699536 -1.69859 0
M  V30 1158 C 110.422 -2.6778 -2.39863 0
M  V30 1159 C 110.086 -4.11413 -1.98969 0
M  V30 1160 C 111.083 -4.97372 -1.51385 0
M  V30 1161 C 108.768 -4.57312 -2.07777 0
M  V30 1162 C 110.762 -6.27277 -1.13148 0
M  V30 1163 C 108.449 -5.87223 -1.69152 0
M  V30 1164 C 109.447 -6.72031 -1.21915 0
M  V30 1165 O 109.135 -7.99518 -0.838237 0
M  V30 1166 H 108.867 -0.556602 -0.383627 0
M  V30 1167 H 111.421 -1.9726 -0.572491 0
M  V30 1168 H 109.651 -2.30419 -3.10554 0
M  V30 1169 H 111.34 -2.71388 -3.01833 0
M  V30 1170 H 112.106 -4.63128 -1.44004 0
M  V30 1171 H 107.985 -3.91449 -2.43493 0
M  V30 1172 H 111.529 -6.93425 -0.762077 0
M  V30 1173 H 107.426 -6.20989 -1.76191 0
M  V30 1174 H 108.194 -8.12764 -0.967339 0
M  V30 1175 N 110.857 0.726932 -1.39834 0
M  V30 1176 C 112.087 1.51393 -1.40583 0
M  V30 1177 C 112.495 1.892 -0.000740625 0
M  V30 1178 O 111.838 1.55189 0.982951 0
M  V30 1179 C 111.9 2.82588 -2.22226 0
M  V30 1180 C 111.564 2.67169 -3.70769 0
M  V30 1181 C 112.561 2.3518 -4.63666 0
M  V30 1182 C 110.246 2.83788 -4.14451 0
M  V30 1183 C 112.24 2.20002 -5.98229 0
M  V30 1184 C 109.927 2.68229 -5.49087 0
M  V30 1185 C 110.925 2.36382 -6.4079 0
M  V30 1186 O 110.613 2.2093 -7.72946 0
M  V30 1187 H 110.345 0.474168 -0.48181 0
M  V30 1188 H 112.899 0.905247 -1.84376 0
M  V30 1189 H 111.129 3.45746 -1.73195 0
M  V30 1190 H 112.818 3.44247 -2.15055 0
M  V30 1191 H 113.584 2.21984 -4.31217 0
M  V30 1192 H 109.463 3.07566 -3.43401 0
M  V30 1193 H 113.007 1.95067 -6.69772 0
M  V30 1194 H 108.904 2.81006 -5.81125 0
M  V30 1195 H 109.672 2.35937 -7.83757 0
M  V30 1196 N 112.336 1.25143 0.95797 0
M  V30 1197 C 113.561 1.12521 1.74223 0
M  V30 1198 C 113.986 -0.317402 1.85403 0
M  V30 1199 O 113.344 -1.2299 1.33204 0
M  V30 1200 C 113.392 1.78062 3.1357 0
M  V30 1201 O 112.496 1.058 3.98598 0
M  V30 1202 H 111.837 0.39304 0.535178 0
M  V30 1203 H 114.367 1.65641 1.201 0
M  V30 1204 H 114.377 1.84213 3.64046 0
M  V30 1205 H 113.052 2.83021 3.04749 0
M  V30 1206 H 111.629 1.07506 3.57067 0
M  V30 1207 N 113.814 -1.1601 1.06675 0
M  V30 1208 C 114.747 -2.1947 0.625168 0
M  V30 1209 C 115.725 -1.58699 -0.354041 0
M  V30 1210 O 116.909 -1.86669 -0.262098 0
M  V30 1211 C 114.036 -3.38598 -0.0829593 0
M  V30 1212 C 113.082 -4.1787 0.853611 0
M  V30 1213 S 113.915 -4.81135 2.35094 0
M  V30 1214 C 115.071 -6.03639 1.65441 0
M  V30 1215 H 115.304 -2.56587 1.50168 0
M  V30 1216 H 112.837 -1.26862 0.880078 0
M  V30 1217 H 114.795 -4.07621 -0.485288 0
M  V30 1218 H 113.456 -2.99839 -0.935716 0
M  V30 1219 H 112.649 -5.03078 0.304755 0
M  V30 1220 H 112.251 -3.54361 1.196 0
M  V30 1221 H 114.543 -6.70632 0.962201 0
M  V30 1222 H 115.486 -6.63081 2.48454 0
M  V30 1223 H 115.894 -5.52965 1.13534 0
M  V30 1224 N 115.292 -0.849877 -1.32721 0
M  V30 1225 C 116.52 -0.464754 -2.01613 0
M  V30 1226 C 116.935 0.937191 -1.63897 0
M  V30 1227 O 116.292 1.61081 -0.857856 0
M  V30 1228 C 116.343 -0.588638 -3.56675 0
M  V30 1229 O 116.064 -1.93535 -3.93034 0
M  V30 1230 C 117.565 -0.2019 -4.4284 0
M  V30 1231 H 114.785 -0.183215 -0.645502 0
M  V30 1232 H 117.329 -1.1455 -1.69407 0
M  V30 1233 H 115.484 0.0443159 -3.87375 0
M  V30 1234 H 115.898 -1.92871 -4.87751 0
M  V30 1235 H 117.372 -0.339599 -5.50954 0
M  V30 1236 H 117.849 0.857224 -4.30753 0
M  V30 1237 H 118.455 -0.809733 -4.17521 0
M  V30 1238 N 116.77 1.45427 -0.607355 0
M  V30 1239 C 118.019 2.01452 -0.100036 0
M  V30 1240 C 118.332 1.48159 1.27704 0
M  V30 1241 O 119.538 1.96159 1.87707 0
M  V30 1242 C 117.994 3.59672 -0.128158 0
M  V30 1243 C 117.602 4.21962 -1.50507 0
M  V30 1244 C 119.346 4.23262 0.323932 0
M  V30 1245 C 117.253 5.72333 -1.48959 0
M  V30 1246 H 116.183 0.75325 -0.0336299 0
M  V30 1247 H 118.834 1.66901 -0.76265 0
M  V30 1248 H 117.216 3.91411 0.601105 0
M  V30 1249 H 118.39 4.01796 -2.25602 0
M  V30 1250 H 116.705 3.70565 -1.89923 0
M  V30 1251 H 119.302 5.33522 0.354691 0
M  V30 1252 H 119.645 3.93921 1.34656 0
M  V30 1253 H 120.178 3.96239 -0.352056 0
M  V30 1254 H 116.917 6.06373 -2.48981 0
M  V30 1255 H 116.437 5.94691 -0.781214 0
M  V30 1256 H 118.116 6.35525 -1.21313 0
M  V30 1257 N 118.248 0.346503 1.53744 0
M  V30 1258 C 119.196 -0.52422 2.26616 0
M  V30 1259 C 120.19 -1.09948 1.28871 0
M  V30 1260 O 121.396 -1.04488 1.46568 0
M  V30 1261 H 117.771 -0.187743 0.728187 0
M  V30 1262 H 119.742 0.11239 2.98188 0
M  V30 1263 C 118.491 -1.66186 3.05414 0
M  V30 1264 H 117.814 -1.22848 3.80458 0
M  V30 1265 H 119.254 -2.24622 3.59612 0
M  V30 1266 C 117.713 -2.59302 2.1509 0
M  V30 1267 O 118.243 -3.61628 1.74895 0
M  V30 1268 N 116.449 -2.28055 1.8011 0
M  V30 1269 H 115.996 -1.44883 2.12994 0
M  V30 1270 H 115.954 -2.90615 1.19958 0
M  V30 1271 N 119.726 -1.57421 0.075193 0
M  V30 1272 C 121.003 -1.85029 -0.634329 0
M  V30 1273 C 121.383 -0.968305 -1.87582 0
M  V30 1274 O 120.731 -0.0354749 -2.28472 0
M  V30 1275 C 120.941 -3.35286 -0.968742 0
M  V30 1276 C 122.289 -4.02875 -1.34077 0
M  V30 1277 O 123.313 -3.40051 -1.06037 0
M  V30 1278 O 122.172 -5.13691 -1.86506 0
M  V30 1279 H 119.266 -0.7645 -0.315387 0
M  V30 1280 H 121.812 -1.69366 0.106382 0
M  V30 1281 H 120.584 -3.91203 -0.0871376 0
M  V30 1282 H 120.207 -3.56223 -1.7661 0
M  V30 1283 N 121.204 0.198386 -1.56346 0
M  V30 1284 C 122.114 1.2664 -1.97483 0
M  V30 1285 C 123.13 1.49989 -0.882002 0
M  V30 1286 O 124.306 1.62668 -1.18748 0
M  V30 1287 C 121.371 2.59141 -2.30319 0
M  V30 1288 C 120.432 2.43892 -3.53292 0
M  V30 1289 C 119.665 3.70074 -3.84553 0
M  V30 1290 O 119.888 4.74101 -3.1715 0
M  V30 1291 O 118.822 3.658 -4.7799 0
M  V30 1292 H 122.648 0.947304 -2.88548 0
M  V30 1293 H 120.233 0.403123 -1.43859 0
M  V30 1294 H 122.115 3.37352 -2.5253 0
M  V30 1295 H 120.79 2.90684 -1.42423 0
M  V30 1296 H 119.697 1.63803 -3.36332 0
M  V30 1297 H 121.03 2.17282 -4.41644 0
M  V30 1298 N 122.682 1.50554 0.465978 0
M  V30 1299 C 123.614 1.65949 1.58093 0
M  V30 1300 C 124.627 0.540827 1.53554 0
M  V30 1301 O 125.816 0.814187 1.5885 0
M  V30 1302 C 122.916 1.63261 2.96983 0
M  V30 1303 C 122.089 2.91245 3.26336 0
M  V30 1304 C 121.148 2.8113 4.44806 0
M  V30 1305 O 120.174 3.55086 4.44862 0
M  V30 1306 N 121.376 1.95032 5.46756 0
M  V30 1307 H 124.141 2.62122 1.45301 0
M  V30 1308 H 121.702 1.48082 0.65448 0
M  V30 1309 H 123.694 1.54101 3.74212 0
M  V30 1310 H 122.264 0.748032 3.03518 0
M  V30 1311 H 121.484 3.14493 2.37672 0
M  V30 1312 H 122.772 3.76022 3.42761 0
M  V30 1313 H 122.17 1.3427 5.49534 0
M  V30 1314 H 120.727 1.91772 6.2295 0
M  V30 1315 N 124.16 -0.719506 1.40217 0
M  V30 1316 C 125.108 -1.85493 1.40339 0
M  V30 1317 C 126.102 -1.66995 0.284415 0
M  V30 1318 O 127.308 -1.74148 0.455252 0
M  V30 1319 H 123.683 -0.610857 0.438586 0
M  V30 1320 H 125.654 -1.82506 2.36081 0
M  V30 1321 C 124.403 -3.23321 1.27901 0
M  V30 1322 H 123.726 -3.38159 2.1328 0
M  V30 1323 H 125.166 -4.02914 1.32045 0
M  V30 1324 C 123.625 -3.36898 -0.0111355 0
M  V30 1325 O 124.155 -3.89674 -0.975538 0
M  V30 1326 N 122.361 -2.90492 -0.0793393 0
M  V30 1327 H 121.908 -2.47731 0.706183 0
M  V30 1328 H 121.866 -2.99955 -0.942038 0
M  V30 1329 N 125.638 -1.25649 -0.95132 0
M  V30 1330 C 126.915 -1.01361 -1.67288 0
M  V30 1331 C 127.295 0.459135 -2.06046 0
M  V30 1332 O 126.643 1.43723 -1.7764 0
M  V30 1333 C 126.853 -1.95256 -2.89268 0
M  V30 1334 C 128.201 -2.23289 -3.61147 0
M  V30 1335 O 129.225 -1.93041 -2.99355 0
M  V30 1336 O 128.084 -2.74741 -4.72419 0
M  V30 1337 H 125.178 -0.38464 -0.732107 0
M  V30 1338 H 127.724 -1.36817 -1.00395 0
M  V30 1339 H 126.496 -2.94685 -2.57442 0
M  V30 1340 H 126.119 -1.60218 -3.6389 0
M  V30 1341 N 127.117 1.15442 -1.07289 0
M  V30 1342 C 128.366 1.85557 -0.790669 0
M  V30 1343 C 128.679 1.83186 0.685739 0
M  V30 1344 O 129.885 2.48977 1.0827 0
M  V30 1345 C 128.341 3.33038 -1.36433 0
M  V30 1346 C 127.949 3.43856 -2.8717 0
M  V30 1347 C 129.693 4.0834 -1.1601 0
M  V30 1348 C 127.6 4.85482 -3.3773 0
M  V30 1349 H 126.53 0.695122 -0.292098 0
M  V30 1350 H 129.181 1.30219 -1.29287 0
M  V30 1351 H 127.563 3.88043 -0.789864 0
M  V30 1352 H 128.737 2.98961 -3.50655 0
M  V30 1353 H 127.052 2.81998 -3.06376 0
M  V30 1354 H 129.649 5.12859 -1.51262 0
M  V30 1355 H 129.992 4.16182 -0.0991007 0
M  V30 1356 H 130.525 3.59603 -1.70089 0
M  V30 1357 H 127.264 4.82823 -4.43353 0
M  V30 1358 H 126.784 5.30961 -2.78999 0
M  V30 1359 H 128.463 5.54335 -3.33648 0
M  V30 1360 N 128.595 0.856903 1.32268 0
M  V30 1361 C 129.542 0.301172 2.28827 0
M  V30 1362 C 130.512 -0.593104 1.5515 0
M  V30 1363 O 131.697 -0.527537 1.83362 0
M  V30 1364 C 128.837 -0.502523 3.41422 0
M  V30 1365 C 127.95 0.417797 4.29975 0
M  V30 1366 C 127.085 -0.398749 5.29701 0
M  V30 1367 C 126.124 0.518827 6.09897 0
M  V30 1368 N 125.261 -0.260674 7.01616 0
M  V30 1369 H 130.101 1.12983 2.75751 0
M  V30 1370 H 127.638 0.568582 1.35667 0
M  V30 1371 H 129.596 -0.984141 4.05426 0
M  V30 1372 H 128.226 -1.29599 2.95642 0
M  V30 1373 H 127.278 1.01781 3.66531 0
M  V30 1374 H 128.59 1.12191 4.86019 0
M  V30 1375 H 127.744 -0.943435 5.9932 0
M  V30 1376 H 126.483 -1.13622 4.7428 0
M  V30 1377 H 125.488 1.07538 5.39181 0
M  V30 1378 H 126.713 1.25495 6.67404 0
M  V30 1379 H 124.659 -0.981198 6.4862 0
M  V30 1380 H 124.576 0.384364 7.55022 0
M  V30 1381 H 125.844 -0.787014 7.75517 0
M  V30 1382 N 130.073 -1.45103 0.615059 0
M  V30 1383 C 131.35 -1.95549 0.0448276 0
M  V30 1384 C 131.73 -1.55737 -1.4251 0
M  V30 1385 O 131.078 -0.823556 -2.13143 0
M  V30 1386 C 131.288 -3.48098 0.250785 0
M  V30 1387 C 132.636 -4.24384 0.135509 0
M  V30 1388 O 133.66 -3.55738 0.181299 0
M  V30 1389 O 132.519 -5.46493 0.0268878 0
M  V30 1390 H 129.613 -0.8264 -0.0314845 0
M  V30 1391 H 132.159 -1.55232 0.685642 0
M  V30 1392 H 130.931 -3.7007 1.27139 0
M  V30 1393 H 130.554 -3.95323 -0.424937 0
M  V30 1394 N 131.551 -0.354651 -1.53558 0
M  V30 1395 C 132.461 0.50515 -2.29097 0
M  V30 1396 C 133.477 1.10223 -1.34636 0
M  V30 1397 O 134.653 1.11553 -1.67684 0
M  V30 1398 C 131.718 1.63479 -3.05738 0
M  V30 1399 C 130.779 1.06636 -4.15845 0
M  V30 1400 C 130.012 2.14217 -4.88822 0
M  V30 1401 O 130.235 3.35137 -4.61562 0
M  V30 1402 O 129.169 1.77887 -5.75013 0
M  V30 1403 H 132.995 -0.109237 -3.03503 0
M  V30 1404 H 130.58 -0.119357 -1.48922 0
M  V30 1405 H 132.462 2.2918 -3.5363 0
M  V30 1406 H 131.137 2.23478 -2.34178 0
M  V30 1407 H 130.044 0.373565 -3.7223 0
M  V30 1408 H 131.377 0.511081 -4.89539 0
M  V30 1409 N 133.029 1.57378 -0.0835403 0
M  V30 1410 C 134.306 1.85363 0.624507 0
M  V30 1411 C 134.686 0.978239 1.87066 0
M  V30 1412 O 134.034 0.0475908 2.2845 0
M  V30 1413 C 134.244 3.35795 0.950947 0
M  V30 1414 C 135.592 4.03581 1.31939 0
M  V30 1415 O 136.616 3.40609 1.04232 0
M  V30 1416 O 135.475 5.14672 1.83779 0
M  V30 1417 H 132.569 0.766162 0.311329 0
M  V30 1418 H 135.115 1.69307 -0.115362 0
M  V30 1419 H 133.887 3.91244 0.0663899 0
M  V30 1420 H 133.51 3.57154 1.74719 0
M  V30 1421 N 134.507 -0.190092 1.56449 0
M  V30 1422 C 135.454 -1.23557 1.94942 0
M  V30 1423 C 136.424 -1.44972 0.810696 0
M  V30 1424 O 137.609 -1.58023 1.06927 0
M  V30 1425 C 134.749 -2.57416 2.2985 0
M  V30 1426 C 133.862 -2.43537 3.5681 0
M  V30 1427 C 132.997 -3.70134 3.81017 0
M  V30 1428 C 132.036 -3.51109 5.01387 0
M  V30 1429 N 131.173 -4.6973 5.21822 0
M  V30 1430 H 136.013 -0.900304 2.84075 0
M  V30 1431 H 133.55 -0.43318 1.40577 0
M  V30 1432 H 135.508 -3.35409 2.48106 0
M  V30 1433 H 134.138 -2.88975 1.43852 0
M  V30 1434 H 133.19 -1.56816 3.46573 0
M  V30 1435 H 134.502 -2.25415 4.4496 0
M  V30 1436 H 133.656 -4.56566 3.9954 0
M  V30 1437 H 132.395 -3.91215 2.91207 0
M  V30 1438 H 131.4 -2.63063 4.82782 0
M  V30 1439 H 132.625 -3.31468 5.9271 0
M  V30 1440 H 130.571 -4.91065 4.34961 0
M  V30 1441 H 130.488 -4.54452 6.0416 0
M  V30 1442 H 131.756 -5.57499 5.44808 0
M  V30 1443 N 135.985 -1.50799 -0.457987 0
M  V30 1444 C 137.233 -1.62121 -1.2067 0
M  V30 1445 C 137.554 -0.329793 -1.92191 0
M  V30 1446 O 136.824 0.653409 -1.84682 0
M  V30 1447 H 135.404 -0.597441 -0.448411 0
M  V30 1448 H 138.066 -1.87637 -0.527096 0
M  V30 1449 H 137.162 -2.43882 -1.94751 0
M  V30 1450 N 137.463 0.71206 -1.40597 0
M  V30 1451 C 138.373 1.8562 -1.43466 0
M  V30 1452 C 139.389 1.70902 -0.326902 0
M  V30 1453 O 140.565 1.93105 -0.572043 0
M  V30 1454 C 137.63 3.21451 -1.29884 0
M  V30 1455 C 136.691 3.48398 -2.50833 0
M  V30 1456 C 135.924 4.77749 -2.3789 0
M  V30 1457 O 136.147 5.53089 -1.39459 0
M  V30 1458 O 135.081 5.05111 -3.27333 0
M  V30 1459 H 138.907 1.86155 -2.39958 0
M  V30 1460 H 136.492 0.86295 -1.21957 0
M  V30 1461 H 138.374 4.02579 -1.24531 0
M  V30 1462 H 137.049 3.21636 -0.364997 0
M  V30 1463 H 135.956 2.67265 -2.61763 0
M  V30 1464 H 137.289 3.53014 -3.4299 0
M  V30 1465 N 138.941 1.26152 0.944643 0
M  V30 1466 C 140.166 1.14363 1.7302 0
M  V30 1467 C 140.591 -0.29772 1.85729 0
M  V30 1468 O 139.949 -1.2157 1.34501 0
M  V30 1469 C 139.997 1.81378 3.11664 0
M  V30 1470 O 139.101 1.10022 3.97453 0
M  V30 1471 H 138.442 0.398694 0.53098 0
M  V30 1472 H 140.972 1.66906 1.18337 0
M  V30 1473 H 140.982 1.88064 3.62072 0
M  V30 1474 H 139.657 2.86237 3.0173 0
M  V30 1475 H 138.234 1.11287 3.55907 0
M  V30 1476 N 140.419 -1.14872 1.07899 0
M  V30 1477 C 141.668 -1.85135 0.800499 0
M  V30 1478 C 141.981 -1.83547 -0.676014 0
M  V30 1479 O 143.187 -2.49548 -1.06948 0
M  V30 1480 C 141.643 -3.3231 1.38197 0
M  V30 1481 C 141.251 -3.42329 2.8899 0
M  V30 1482 C 142.995 -4.0772 1.18174 0
M  V30 1483 C 140.902 -4.83684 3.403 0
M  V30 1484 H 139.832 -0.693563 0.29578 0
M  V30 1485 H 142.483 -1.29532 1.29976 0
M  V30 1486 H 140.865 -3.87618 0.810431 0
M  V30 1487 H 142.039 -2.97097 3.52236 0
M  V30 1488 H 140.354 -2.80369 3.07867 0
M  V30 1489 H 142.951 -5.12049 1.5398 0
M  V30 1490 H 143.294 -4.16124 0.12117 0
M  V30 1491 H 143.827 -3.58696 1.71994 0
M  V30 1492 H 140.566 -4.80465 4.45907 0
M  V30 1493 H 140.086 -5.29474 2.81811 0
M  V30 1494 H 141.765 -5.52558 3.36584 0
M  V30 1495 N 141.898 -0.863906 -1.31812 0
M  V30 1496 C 143.147 -0.46801 -1.96195 0
M  V30 1497 C 143.46 0.983474 -1.69077 0
M  V30 1498 O 144.666 1.48523 -2.27273 0
M  V30 1499 C 143.122 -0.785995 -3.51212 0
M  V30 1500 C 142.73 -2.25383 -3.87178 0
M  V30 1501 C 144.474 -0.458274 -4.22019 0
M  V30 1502 C 142.381 -2.51455 -5.3528 0
M  V30 1503 H 141.311 -0.171283 -0.734287 0
M  V30 1504 H 143.962 -1.05597 -1.50072 0
M  V30 1505 H 142.344 -0.127359 -3.95795 0
M  V30 1506 H 143.518 -2.95502 -3.53575 0
M  V30 1507 H 141.833 -2.54698 -3.2942 0
M  V30 1508 H 144.43 -0.630369 -5.30971 0
M  V30 1509 H 144.773 0.600834 -4.11941 0
M  V30 1510 H 145.306 -1.07319 -3.8305 0
M  V30 1511 H 142.045 -3.56025 -5.50387 0
M  V30 1512 H 141.565 -1.85923 -5.70257 0
M  V30 1513 H 143.244 -2.35874 -6.02472 0
M  V30 1514 N 143.376 1.44774 -0.622745 0
M  V30 1515 C 144.604 2.06487 -0.130722 0
M  V30 1516 C 145.019 1.46476 1.19123 0
M  V30 1517 O 144.376 0.584502 1.72887 0
M  V30 1518 C 144.427 3.615 -0.000807207 0
M  V30 1519 O 144.148 4.19274 -1.27048 0
M  V30 1520 C 145.649 4.40229 0.520898 0
M  V30 1521 H 142.869 0.666704 -0.0758106 0
M  V30 1522 H 145.413 1.85779 -0.854774 0
M  V30 1523 H 143.568 3.81498 0.673643 0
M  V30 1524 H 143.982 5.12622 -1.1099 0
M  V30 1525 H 145.456 5.49144 0.560838 0
M  V30 1526 H 145.933 4.1108 1.54627 0
M  V30 1527 H 146.539 4.25131 -0.120018 0
M  V30 1528 N 144.854 0.36279 1.53368 0
M  V30 1529 C 146.103 -0.22888 2.00397 0
M  V30 1530 C 146.416 -1.50096 1.25421 0
M  V30 1531 O 147.622 -2.17106 1.63025 0
M  V30 1532 C 146.078 -0.458417 3.56969 0
M  V30 1533 C 145.686 0.798877 4.4082 0
M  V30 1534 C 147.43 -1.00789 4.12361 0
M  V30 1535 C 145.337 0.539078 5.88938 0
M  V30 1536 H 144.267 -0.089305 0.748693 0
M  V30 1537 H 146.918 0.481099 1.77081 0
M  V30 1538 H 145.3 -1.22959 3.76427 0
M  V30 1539 H 146.474 1.57262 4.33134 0
M  V30 1540 H 144.789 1.27137 3.96516 0
M  V30 1541 H 147.386 -1.21754 5.20653 0
M  V30 1542 H 147.729 -1.9692 3.66781 0
M  V30 1543 H 148.262 -0.296961 3.9669 0
M  V30 1544 H 145.001 1.47064 6.3879 0
M  V30 1545 H 144.521 -0.196222 5.99479 0
M  V30 1546 H 146.2 0.163542 6.46793 0
M  V30 1547 N 146.332 -1.57332 0.0918853 0
M  V30 1548 C 147.58 -1.93853 -0.571446 0
M  V30 1549 C 147.901 -0.974212 -1.6892 0
M  V30 1550 O 147.171 -0.0257254 -1.95883 0
M  V30 1551 H 145.751 -0.715666 -0.214082 0
M  V30 1552 H 148.413 -1.94287 0.154464 0
M  V30 1553 H 147.509 -2.96191 -0.983729 0
M  V30 1554 N 147.81 0.181792 -1.56548 0
M  V30 1555 C 148.72 1.24538 -1.98815 0
M  V30 1556 C 149.736 1.49045 -0.897861 0
M  V30 1557 O 150.912 1.61399 -1.20467 0
M  V30 1558 C 147.977 2.56683 -2.33055 0
M  V30 1559 C 147.038 2.40131 -3.55859 0
M  V30 1560 C 146.271 3.65975 -3.88456 0
M  V30 1561 O 146.494 4.70711 -3.22161 0
M  V30 1562 O 145.428 3.6071 -4.81842 0
M  V30 1563 H 149.254 0.916647 -2.89536 0
M  V30 1564 H 146.839 0.387842 -1.44278 0
M  V30 1565 H 148.721 3.34655 -2.56094 0
M  V30 1566 H 147.396 2.89157 -1.45498 0
M  V30 1567 H 146.303 1.60226 -3.38051 0
M  V30 1568 H 147.636 2.12585 -4.43924 0
M  V30 1569 N 149.288 1.51039 0.449983 0
M  V30 1570 C 150.535 1.63081 1.20045 0
M  V30 1571 C 150.863 0.341024 1.91487 0
M  V30 1572 O 150.118 -0.674276 1.83717 0
M  V30 1573 C 150.417 2.77556 2.25161 0
M  V30 1574 C 150.083 4.17289 1.70823 0
M  V30 1575 C 148.745 4.55305 1.55725 0
M  V30 1576 C 151.097 5.04536 1.3074 0
M  V30 1577 C 148.425 5.78287 0.989999 0
M  V30 1578 C 150.777 6.28085 0.754482 0
M  V30 1579 C 149.441 6.64885 0.590308 0
M  V30 1580 H 148.711 0.596755 0.439277 0
M  V30 1581 H 151.358 1.85037 0.49333 0
M  V30 1582 H 149.663 2.49771 3.01863 0
M  V30 1583 H 151.36 2.84073 2.83026 0
M  V30 1584 H 147.95 3.8731 1.83546 0
M  V30 1585 H 152.134 4.75782 1.41229 0
M  V30 1586 H 147.39 6.05456 0.850451 0
M  V30 1587 H 151.564 6.95038 0.435324 0
M  V30 1588 H 149.191 7.60055 0.14862 0
M  V30 1589 N 150.766 -0.704594 1.40972 0
M  V30 1590 C 151.729 -1.80035 1.41845 0
M  V30 1591 C 152.729 -1.57774 0.310474 0
M  V30 1592 O 153.919 -1.64613 0.56992 0
M  V30 1593 C 151.051 -3.18284 1.22098 0
M  V30 1594 H 152.244 -1.80658 2.3938 0
M  V30 1595 H 149.797 -0.911329 1.26982 0
M  V30 1596 H 150.532 -3.23306 0.253672 0
M  V30 1597 H 150.317 -3.35843 2.02366 0
M  V30 1598 H 151.807 -3.98289 1.25522 0
M  V30 1599 N 152.244 -1.26651 -0.937939 0
M  V30 1600 C 153.472 -1.15173 -1.7188 0
M  V30 1601 C 153.887 0.292668 -1.86518 0
M  V30 1602 O 153.244 1.20014 -1.37488 0
M  V30 1603 C 153.295 -1.81925 -3.12387 0
M  V30 1604 O 153.016 -3.2072 -2.98446 0
M  V30 1605 C 154.517 -1.76442 -4.06673 0
M  V30 1606 H 151.737 -0.400911 -0.538063 0
M  V30 1607 H 154.281 -1.67332 -1.1756 0
M  V30 1608 H 152.436 -1.33696 -3.63599 0
M  V30 1609 H 152.85 -3.53802 -3.872 0
M  V30 1610 H 154.324 -2.27781 -5.02812 0
M  V30 1611 H 154.801 -0.731608 -4.33064 0
M  V30 1612 H 155.407 -2.24238 -3.61382 0
M  V30 1613 N 153.722 1.14298 -1.08507 0
M  V30 1614 C 154.968 1.85633 -0.816581 0
M  V30 1615 C 155.301 1.82784 0.656021 0
M  V30 1616 O 154.576 1.25926 1.48233 0
M  V30 1617 C 154.859 3.34223 -1.34041 0
M  V30 1618 C 154.712 3.45639 -2.87843 0
M  V30 1619 C 156.031 4.29356 -0.9665 0
M  V30 1620 H 153.15 0.67402 -0.298104 0
M  V30 1621 H 155.792 1.34214 -1.34487 0
M  V30 1622 H 153.942 3.78144 -0.89104 0
M  V30 1623 H 155.614 3.10498 -3.41158 0
M  V30 1624 H 153.857 2.86817 -3.25451 0
M  V30 1625 H 154.528 4.50089 -3.19569 0
M  V30 1626 H 157.004 3.93457 -1.35391 0
M  V30 1627 H 155.88 5.3178 -1.3602 0
M  V30 1628 H 156.141 4.41919 0.126362 0
M  V30 1629 N 155.201 0.870884 1.31352 0
M  V30 1630 C 156.617 0.562932 1.49343 0
M  V30 1631 C 156.817 -0.902725 1.80148 0
M  V30 1632 O 155.873 -1.68484 1.88067 0
M  V30 1633 C 157.186 1.46393 2.62659 0
M  V30 1634 C 158.734 1.46607 2.76542 0
M  V30 1635 C 159.209 2.35266 3.92955 0
M  V30 1636 N 160.7 2.33151 4.00243 0
M  V30 1637 C 161.435 2.98471 4.89594 0
M  V30 1638 N 160.931 3.72964 5.8384 0
M  V30 1639 N 162.724 2.87775 4.82848 0
M  V30 1640 H 154.875 1.81923 1.09626 0
M  V30 1641 H 157.138 0.777934 0.541777 0
M  V30 1642 H 156.844 2.50689 2.46674 0
M  V30 1643 H 156.718 1.16314 3.58819 0
M  V30 1644 H 159.105 0.43069 2.9194 0
M  V30 1645 H 159.186 1.8071 1.81046 0
M  V30 1646 H 158.83 3.38881 3.78315 0
M  V30 1647 H 158.76 1.98487 4.87761 0
M  V30 1648 H 161.251 1.79006 3.32814 0
M  V30 1649 H 161.564 4.19932 6.4875 0
M  V30 1650 H 159.909 3.77073 5.83816 0
M  V30 1651 H 163.1 2.29116 4.08195 0
M  V30 1652 H 163.273 3.38961 5.52277 0
M  V30 1653 N 156.679 -1.44442 0.630414 0
M  V30 1654 C 157.642 -2.29107 -0.0652523 0
M  V30 1655 C 158.642 -1.41002 -0.772995 0
M  V30 1656 O 159.832 -1.62881 -0.617692 0
M  V30 1657 C 156.964 -3.22564 -1.10296 0
M  V30 1658 H 158.157 -2.92103 0.679401 0
M  V30 1659 H 155.71 -1.51343 0.390517 0
M  V30 1660 H 156.445 -2.64416 -1.87762 0
M  V30 1661 H 156.23 -3.87491 -0.59941 0
M  V30 1662 H 157.72 -3.86167 -1.5895 0
M  V30 1663 N 158.157 -0.370918 -1.53173 0
M  V30 1664 C 159.385 0.217704 -2.05751 0
M  V30 1665 C 159.8 1.42018 -1.24404 0
M  V30 1666 O 159.157 1.80245 -0.286033 0
M  V30 1667 C 159.208 0.605954 -3.56385 0
M  V30 1668 O 158.929 -0.548734 -4.3465 0
M  V30 1669 C 160.43 1.2524 -4.25241 0
M  V30 1670 H 157.65 0.0371659 -0.66997 0
M  V30 1671 H 160.194 -0.530832 -1.9749 0
M  V30 1672 H 158.349 1.3044 -3.6478 0
M  V30 1673 H 158.763 -0.23376 -5.23979 0
M  V30 1674 H 160.237 1.47458 -5.3194 0
M  V30 1675 H 160.714 2.2143 -3.79296 0
M  V30 1676 H 161.32 0.595233 -4.21114 0
M  V30 1677 N 159.635 1.57281 -0.100228 0
M  V30 1678 C 161.051 1.57527 0.256416 0
M  V30 1679 C 161.251 1.11173 1.68056 0
M  V30 1680 O 160.307 0.79053 2.39806 0
M  V30 1681 C 161.62 3.00673 0.0401747 0
M  V30 1682 C 163.168 3.12815 0.107528 0
M  V30 1683 C 163.643 4.57929 -0.0807834 0
M  V30 1684 N 165.134 4.63193 -0.0261207 0
M  V30 1685 C 165.869 5.73212 -0.146999 0
M  V30 1686 N 165.365 6.92047 -0.322999 0
M  V30 1687 N 167.158 5.62031 -0.0879044 0
M  V30 1688 H 159.309 1.85718 -1.03065 0
M  V30 1689 H 161.572 0.857446 -0.404339 0
M  V30 1690 H 161.278 3.38804 -0.943649 0
M  V30 1691 H 161.152 3.69042 0.780262 0
M  V30 1692 H 163.539 2.74554 1.08186 0
M  V30 1693 H 163.62 2.47028 -0.664134 0
M  V30 1694 H 163.264 4.96886 -1.05201 0
M  V30 1695 H 163.194 5.21783 0.710635 0
M  V30 1696 H 165.685 3.77748 0.107161 0
M  V30 1697 H 165.998 7.7173 -0.406608 0
M  V30 1698 H 164.343 6.94074 -0.358733 0
M  V30 1699 H 167.534 4.68075 0.048498 0
M  V30 1700 H 167.707 6.47734 -0.185557 0
M  V30 1701 N 161.113 -0.173488 1.56642 0
M  V30 1702 C 162.063 -1.21941 1.92651 0
M  V30 1703 C 163.047 -1.39912 0.794577 0
M  V30 1704 O 164.239 -1.41919 1.05773 0
M  V30 1705 C 161.368 -2.55935 2.28806 0
M  V30 1706 C 160.454 -2.41667 3.48508 0
M  V30 1707 N 160.845 -1.9711 4.65813 0
M  V30 1708 C 159.143 -2.72499 3.53072 0
M  V30 1709 C 159.844 -1.95253 5.47952 0
M  V30 1710 N 158.82 -2.37575 4.88937 0
M  V30 1711 H 162.622 -0.866581 2.80834 0
M  V30 1712 H 160.136 -0.381776 1.57849 0
M  V30 1713 H 162.133 -3.31511 2.52797 0
M  V30 1714 H 160.793 -2.92022 1.41961 0
M  V30 1715 H 161.804 -1.67481 4.90072 0
M  V30 1716 H 158.481 -3.12639 2.767 0
M  V30 1717 H 159.871 -1.6252 6.51948 0
M  V30 1718 N 162.591 -1.51276 -0.441967 0
M  V30 1719 C 163.821 -1.67273 -1.21257 0
M  V30 1720 C 164.229 -0.367624 -1.85594 0
M  V30 1721 O 163.572 0.663349 -1.71305 0
M  V30 1722 C 163.634 -2.72807 -2.34129 0
M  V30 1723 C 163.298 -4.1554 -1.90198 0
M  V30 1724 C 164.295 -5.00471 -1.40801 0
M  V30 1725 C 161.98 -4.61616 -1.9803 0
M  V30 1726 C 163.974 -6.29536 -0.998174 0
M  V30 1727 C 161.661 -5.90679 -1.56658 0
M  V30 1728 C 162.659 -6.74466 -1.07633 0
M  V30 1729 O 162.347 -8.01116 -0.668459 0
M  V30 1730 H 162.079 -0.564614 -0.371734 0
M  V30 1731 H 164.633 -1.9843 -0.530521 0
M  V30 1732 H 162.863 -2.36954 -3.05597 0
M  V30 1733 H 164.552 -2.77729 -2.96009 0
M  V30 1734 H 165.318 -4.66079 -1.34148 0
M  V30 1735 H 161.197 -3.96526 -2.35135 0
M  V30 1736 H 164.741 -6.94885 -0.61482 0
M  V30 1737 H 160.638 -6.24586 -1.62979 0
M  V30 1738 H 161.406 -8.14633 -0.794722 0
M  V30 1739 N 164.069 0.697108 -1.41344 0
M  V30 1740 C 165.315 1.4593 -1.40827 0
M  V30 1741 C 165.648 1.94193 -0.0167098 0
M  V30 1742 O 164.923 1.69425 0.955263 0
M  V30 1743 C 165.206 2.67229 -2.41373 0
M  V30 1744 C 165.059 2.24741 -3.8963 0
M  V30 1745 C 166.378 3.69423 -2.39196 0
M  V30 1746 H 163.497 0.529303 -0.512842 0
M  V30 1747 H 166.139 0.794112 -1.72609 0
M  V30 1748 H 164.289 3.23982 -2.14401 0
M  V30 1749 H 165.961 1.73327 -4.27499 0
M  V30 1750 H 164.204 1.56542 -4.0457 0
M  V30 1751 H 164.875 3.1177 -4.55525 0
M  V30 1752 H 167.351 3.2234 -2.63128 0
M  V30 1753 H 166.227 4.51907 -3.11563 0
M  V30 1754 H 166.488 4.19012 -1.41001 0
M  V30 1755 N 165.547 1.27147 0.931209 0
M  V30 1756 C 166.495 1.09398 2.05268 0
M  V30 1757 C 167.489 0.0180591 1.6939 0
M  V30 1758 O 168.695 0.17551 1.79142 0
M  V30 1759 H 165.07 0.336986 0.672268 0
M  V30 1760 H 167.041 2.04416 2.17386 0
M  V30 1761 C 165.79 0.75424 3.39421 0
M  V30 1762 H 165.113 1.57404 3.67511 0
M  V30 1763 H 166.553 0.669903 4.18674 0
M  V30 1764 C 165.012 -0.541197 3.32525 0
M  V30 1765 O 165.542 -1.57664 3.69466 0
M  V30 1766 N 163.748 -0.535517 2.85623 0
M  V30 1767 H 163.295 0.307511 2.55758 0
M  V30 1768 H 163.253 -1.40236 2.81392 0
M  V30 1769 N 167.025 -1.13721 1.09112 0
M  V30 1770 C 167.957 -2.1871 0.685467 0
M  V30 1771 C 168.97 -1.60527 -0.271068 0
M  V30 1772 O 170.159 -1.78407 -0.0576148 0
M  V30 1773 C 167.259 -3.38898 -0.0111255 0
M  V30 1774 C 166.432 -4.26597 0.966131 0
M  V30 1775 C 165.491 -5.25324 0.303539 0
M  V30 1776 O 164.517 -5.61213 0.950177 0
M  V30 1777 N 165.719 -5.72779 -0.943651 0
M  V30 1778 H 168.484 -2.54126 1.58871 0
M  V30 1779 H 166.045 -1.29012 0.978143 0
M  V30 1780 H 168.037 -4.02014 -0.465517 0
M  V30 1781 H 166.607 -3.01747 -0.816565 0
M  V30 1782 H 165.827 -3.60306 1.59917 0
M  V30 1783 H 167.115 -4.82048 1.6281 0
M  V30 1784 H 166.513 -5.45762 -1.48862 0
M  V30 1785 H 165.07 -6.37847 -1.34142 0
M  V30 1786 N 168.503 -0.877838 -1.30888 0
M  V30 1787 C 169.78 -0.413052 -1.91189 0
M  V30 1788 C 170.16 1.1056 -1.79832 0
M  V30 1789 O 169.508 1.93771 -1.21099 0
M  V30 1790 C 169.718 -0.903191 -3.3711 0
M  V30 1791 C 171.066 -0.93395 -4.14201 0
M  V30 1792 O 172.09 -0.849373 -3.45925 0
M  V30 1793 O 170.949 -1.05772 -5.36167 0
M  V30 1794 H 168.043 -0.125035 -0.817493 0
M  V30 1795 H 170.589 -0.966269 -1.39504 0
M  V30 1796 H 169.361 -1.94692 -3.39427 0
M  V30 1797 H 168.984 -0.328732 -3.96239 0
M  V30 1798 N 169.982 1.44106 -0.638065 0
M  V30 1799 C 170.945 2.29138 0.0531013 0
M  V30 1800 C 171.945 1.41409 0.765506 0
M  V30 1801 O 173.135 1.63206 0.609046 0
M  V30 1802 C 170.267 3.23144 1.08584 0
M  V30 1803 H 171.46 2.91739 -0.694883 0
M  V30 1804 H 169.013 1.51134 -0.398538 0
M  V30 1805 H 169.748 2.65408 1.86357 0
M  V30 1806 H 169.533 3.87804 0.578852 0
M  V30 1807 H 171.023 3.87004 1.56899 0
M  V30 1808 N 171.46 0.379036 1.52974 0
M  V30 1809 C 172.871 -0.0972525 1.86447 0
M  V30 1810 C 173.222 -1.47027 1.29914 0
M  V30 1811 O 172.347 -2.07135 0.626433 0
M  V30 1812 C 172.942 -0.183248 3.38304 0
M  V30 1813 C 171.501 -0.603812 3.71525 0
M  V30 1814 C 170.648 0.240632 2.76254 0
M  V30 1815 H 173.599 0.597316 1.4703 0
M  V30 1816 H 173.62 -1.00432 3.67006 0
M  V30 1817 H 173.132 0.816191 3.79421 0
M  V30 1818 H 171.233 -1.61099 3.35973 0
M  V30 1819 H 171.346 -0.369086 4.77676 0
M  V30 1820 H 169.71 -0.292548 2.53014 0
M  V30 1821 H 170.493 1.23786 3.20206 0
M  V30 1822 N 172.938 -1.57226 0.108567 0
M  V30 1823 C 174.185 -1.94833 -0.551943 0
M  V30 1824 C 174.513 -0.991204 -1.67348 0
M  V30 1825 O 173.768 -0.0131878 -1.95696 0
M  V30 1826 C 174.067 -3.38911 -1.13463 0
M  V30 1827 C 173.733 -4.50696 -0.135509 0
M  V30 1828 C 172.395 -4.80998 0.139252 0
M  V30 1829 C 174.747 -5.18333 0.545957 0
M  V30 1830 C 172.075 -5.76259 1.10194 0
M  V30 1831 C 174.427 -6.14627 1.49721 0
M  V30 1832 C 173.091 -6.43327 1.78006 0
M  V30 1833 H 172.361 -0.712944 -0.20197 0
M  V30 1834 H 175.008 -1.90582 0.18726 0
M  V30 1835 H 173.313 -3.39805 -1.95037 0
M  V30 1836 H 175.01 -3.65317 -1.65362 0
M  V30 1837 H 171.6 -4.27087 -0.359846 0
M  V30 1838 H 175.784 -4.95087 0.346842 0
M  V30 1839 H 171.04 -5.96804 1.32795 0
M  V30 1840 H 175.214 -6.66126 2.03099 0
M  V30 1841 H 172.841 -7.1695 2.52759 0
M  V30 1842 N 174.416 0.165178 -1.56732 0
M  V30 1843 C 175.664 0.879068 -1.8198 0
M  V30 1844 C 175.985 1.82514 -0.686561 0
M  V30 1845 O 175.255 1.93694 0.293146 0
M  V30 1846 H 173.835 0.327608 -0.671329 0
M  V30 1847 H 176.497 0.163526 -1.94213 0
M  V30 1848 H 175.593 1.45228 -2.76252 0
M  V30 1849 N 175.894 1.51508 0.433938 0
M  V30 1850 C 177.14 1.64588 1.18484 0
M  V30 1851 C 177.473 0.362666 1.90784 0
M  V30 1852 O 176.748 -0.637892 1.83742 0
M  V30 1853 C 177.031 2.85149 2.19913 0
M  V30 1854 C 176.884 4.23456 1.51674 0
M  V30 1855 C 178.203 3.01227 3.20858 0
M  V30 1856 H 175.322 0.598994 0.429389 0
M  V30 1857 H 177.964 1.84002 0.473647 0
M  V30 1858 H 176.114 2.68729 2.80566 0
M  V30 1859 H 177.786 4.51552 0.943322 0
M  V30 1860 H 176.029 4.25998 0.819035 0
M  V30 1861 H 176.7 5.03812 2.2556 0
M  V30 1862 H 179.176 3.16382 2.70263 0
M  V30 1863 H 178.052 3.87141 3.89118 0
M  V30 1864 H 178.313 2.13447 3.8716 0
M  V30 1865 N 177.372 -0.689602 1.41712 0
M  V30 1866 C 178.621 -1.44534 1.40686 0
M  V30 1867 C 178.934 -1.95588 0.0213352 0
M  V30 1868 O 180.14 -2.71271 -0.111534 0
M  V30 1869 C 178.596 -2.61387 2.47396 0
M  V30 1870 C 178.204 -2.17094 3.91885 0
M  V30 1871 C 179.948 -3.38986 2.55517 0
M  V30 1872 C 177.855 -3.3094 4.90135 0
M  V30 1873 H 176.785 -0.542925 0.52321 0
M  V30 1874 H 179.436 -0.748054 1.6756 0
M  V30 1875 H 177.818 -3.33412 2.13664 0
M  V30 1876 H 178.992 -1.52318 4.34897 0
M  V30 1877 H 177.307 -1.52473 3.8748 0
M  V30 1878 H 179.904 -4.23747 3.26102 0
M  V30 1879 H 180.247 -3.84578 1.59391 0
M  V30 1880 H 180.78 -2.74021 2.8837 0
M  V30 1881 H 177.519 -2.90355 5.87685 0
M  V30 1882 H 177.039 -3.94546 4.51767 0
M  V30 1883 H 178.718 -3.9663 5.11169 0
M  V30 1884 N 178.85 -1.27639 -0.924453 0
M  V30 1885 C 179.8 -1.07295 -2.01176 0
M  V30 1886 C 180.784 5.77352e-05 -1.609 0
M  V30 1887 O 181.976 -0.218855 -1.75642 0
M  V30 1888 C 179.105 -0.725592 -3.35544 0
M  V30 1889 C 178.191 -1.83691 -3.82254 0
M  V30 1890 N 178.582 -3.07697 -4.01443 0
M  V30 1891 C 176.88 -1.72433 -4.11319 0
M  V30 1892 C 177.581 -3.80037 -4.40394 0
M  V30 1893 N 176.557 -3.0782 -4.48049 0
M  V30 1894 H 180.359 -2.01399 -2.14046 0
M  V30 1895 H 177.873 -1.18401 -1.11153 0
M  V30 1896 H 179.87 -0.560959 -4.13109 0
M  V30 1897 H 178.53 0.207782 -3.24034 0
M  V30 1898 H 179.541 -3.43424 -3.8766 0
M  V30 1899 H 176.218 -0.862005 -4.08504 0
M  V30 1900 H 177.608 -4.86632 -4.63291 0
M  V30 1901 N 180.328 1.1314 -1.09713 0
M  V30 1902 C 181.258 2.20748 -0.761102 0
M  V30 1903 C 182.239 1.68061 0.262566 0
M  V30 1904 O 183.424 1.93765 0.129977 0
M  V30 1905 C 180.554 3.46812 -0.184054 0
M  V30 1906 C 179.508 4.12606 -1.13757 0
M  V30 1907 C 178.834 5.33031 -0.422083 0
M  V30 1908 C 180.134 4.59603 -2.48118 0
M  V30 1909 H 181.828 2.49113 -1.66082 0
M  V30 1910 H 179.374 1.19734 -0.799987 0
M  V30 1911 H 181.327 4.21353 0.0631215 0
M  V30 1912 H 180.051 3.17851 0.750868 0
M  V30 1913 H 178.71 3.40036 -1.37007 0
M  V30 1914 H 178.358 5.00335 0.517072 0
M  V30 1915 H 178.058 5.77999 -1.05788 0
M  V30 1916 H 179.582 6.10325 -0.183277 0
M  V30 1917 H 180.996 5.25552 -2.29059 0
M  V30 1918 H 179.393 5.15321 -3.07514 0
M  V30 1919 H 180.463 3.73971 -3.08665 0
M  V30 1920 N 181.806 0.884767 1.30421 0
M  V30 1921 C 183.083 0.423185 1.90967 0
M  V30 1922 C 183.463 -1.09605 1.80416 0
M  V30 1923 O 182.811 -1.93126 1.22125 0
M  V30 1924 C 183.021 0.921056 3.36627 0
M  V30 1925 C 184.369 0.955903 4.137 0
M  V30 1926 O 185.393 0.867706 3.4547 0
M  V30 1927 O 184.252 1.08614 5.35598 0
M  V30 1928 H 181.346 0.129369 0.816819 0
M  V30 1929 H 183.892 0.973653 1.3899 0
M  V30 1930 H 182.664 1.96489 3.3839 0
M  V30 1931 H 182.287 0.349741 3.96059 0
M  V30 1932 N 183.284 -1.43765 0.645699 0
M  V30 1933 C 184.533 -2.01116 0.153412 0
M  V30 1934 C 184.846 -1.51493 -1.23731 0
M  V30 1935 O 186.052 -2.01067 -1.8244 0
M  V30 1936 C 184.508 -3.59206 0.223473 0
M  V30 1937 C 184.116 -4.17823 1.61642 0
M  V30 1938 C 185.86 -4.23972 -0.211597 0
M  V30 1939 C 183.767 -5.68183 1.64081 0
M  V30 1940 H 182.697 -0.752093 0.0535891 0
M  V30 1941 H 185.348 -1.6482 0.806633 0
M  V30 1942 H 183.73 -3.92867 -0.497118 0
M  V30 1943 H 184.904 -3.95674 2.36176 0
M  V30 1944 H 183.219 -3.65399 1.99681 0
M  V30 1945 H 185.816 -5.34275 -0.213112 0
M  V30 1946 H 186.159 -3.97352 -1.24165 0
M  V30 1947 H 186.692 -3.95166 0.456988 0
M  V30 1948 H 183.431 -5.99559 2.64971 0
M  V30 1949 H 182.951 -5.9241 0.938611 0
M  V30 1950 H 184.63 -6.32085 1.3812 0
M  V30 1951 N 184.763 -0.387143 -1.52771 0
M  V30 1952 C 185.991 0.195869 -2.05971 0
M  V30 1953 C 186.406 1.40691 -1.25903 0
M  V30 1954 O 185.763 1.79931 -0.305134 0
M  V30 1955 C 185.814 0.56812 -3.57008 0
M  V30 1956 O 185.535 -0.594803 -4.34043 0
M  V30 1957 C 187.036 1.20723 -4.26545 0
M  V30 1958 H 184.256 0.0300578 -0.670326 0
M  V30 1959 H 186.8 -0.551749 -1.96916 0
M  V30 1960 H 184.955 1.26564 -3.66143 0
M  V30 1961 H 185.369 -0.289322 -5.23701 0
M  V30 1962 H 186.843 1.41807 -5.33474 0
M  V30 1963 H 187.32 2.17395 -3.81623 0
M  V30 1964 H 187.926 0.550535 -4.21722 0
M  V30 1965 N 186.241 1.57166 -0.116904 0
M  V30 1966 C 187.469 1.99473 0.549383 0
M  V30 1967 C 187.884 0.996541 1.60357 0
M  V30 1968 O 187.241 -0.0108731 1.82497 0
M  V30 1969 C 187.292 3.41788 1.17741 0
M  V30 1970 O 187.013 4.37788 0.165362 0
M  V30 1971 C 188.514 3.99216 1.92722 0
M  V30 1972 H 185.734 0.655009 0.145616 0
M  V30 1973 H 188.278 2.03494 -0.202625 0
M  V30 1974 H 186.433 3.38713 1.88021 0
M  V30 1975 H 186.847 5.20806 0.621403 0
M  V30 1976 H 188.321 5.00882 2.31995 0
M  V30 1977 H 188.798 3.3824 2.80161 0
M  V30 1978 H 189.404 4.0583 1.27209 0
M  V30 1979 N 187.719 -0.156864 1.56817 0
M  V30 1980 C 188.629 -1.2136 2.00771 0
M  V30 1981 C 189.645 -1.47598 0.921459 0
M  V30 1982 O 190.821 -1.59462 1.2302 0
M  V30 1983 C 187.886 -2.52943 2.37109 0
M  V30 1984 C 186.947 -2.34439 3.59634 0
M  V30 1985 C 186.18 -3.59748 3.94229 0
M  V30 1986 O 186.403 -4.65526 3.29609 0
M  V30 1987 O 185.337 -3.52998 4.8752 0
M  V30 1988 H 189.163 -0.870468 2.90958 0
M  V30 1989 H 186.748 -0.36484 1.44877 0
M  V30 1990 H 188.63 -3.30538 2.61386 0
M  V30 1991 H 187.305 -2.86806 1.5008 0
M  V30 1992 H 186.212 -1.54828 3.40557 0
M  V30 1993 H 187.545 -2.05496 4.4725 0
M  V30 1994 N 189.197 -1.51736 -0.425897 0
M  V30 1995 C 190.145 -1.74464 -1.53834 0
M  V30 1996 C 191.139 -0.611241 -1.57988 0
M  V30 1997 O 192.345 -0.792899 -1.61596 0
M  V30 1998 H 188.72 -0.551437 -0.511293 0
M  V30 1999 H 190.691 -2.67694 -1.31843 0
M  V30 2000 C 189.44 -1.8972 -2.91379 0
M  V30 2001 H 188.763 -2.76344 -2.88919 0
M  V30 2002 H 190.203 -2.09629 -3.68553 0
M  V30 2003 C 188.662 -0.65992 -3.30374 0
M  V30 2004 O 189.192 0.180083 -4.01296 0
M  V30 2005 N 187.398 -0.500677 -2.86254 0
M  V30 2006 H 186.945 -1.18532 -2.28709 0
M  V30 2007 H 186.903 0.325903 -3.12706 0
M  V30 2008 N 190.675 0.682077 -1.42076 0
M  V30 2009 C 191.923 1.4393 -1.41876 0
M  V30 2010 C 192.244 1.94971 -0.0335599 0
M  V30 2011 O 191.514 1.72591 0.926773 0
M  V30 2012 H 190.094 0.534085 -0.522267 0
M  V30 2013 H 192.756 0.806427 -1.77434 0
M  V30 2014 H 191.852 2.29588 -2.11414 0
M  V30 2015 N 192.153 1.28127 0.917671 0
M  V30 2016 C 193.381 1.17892 1.70026 0
M  V30 2017 C 193.796 -0.262958 1.8696 0
M  V30 2018 O 193.153 -1.17811 1.3938 0
M  V30 2019 C 193.204 1.86872 3.09453 0
M  V30 2020 O 192.925 3.25428 2.93306 0
M  V30 2021 C 194.426 1.8289 4.03815 0
M  V30 2022 H 191.646 0.40942 0.531617 0
M  V30 2023 H 194.19 1.69181 1.14883 0
M  V30 2024 H 192.345 1.39464 3.61426 0
M  V30 2025 H 192.759 3.59918 3.81523 0
M  V30 2026 H 194.233 2.35751 4.99125 0
M  V30 2027 H 194.71 0.800412 4.31845 0
M  V30 2028 H 195.316 2.29959 3.57769 0
M  V30 2029 N 193.631 -1.12557 1.10312 0
M  V30 2030 C 194.578 -2.18247 0.750781 0
M  V30 2031 C 195.548 -1.63853 -0.272293 0
M  V30 2032 O 196.733 -1.90195 -0.151862 0
M  V30 2033 C 193.873 -3.44591 0.187379 0
M  V30 2034 C 192.986 -4.13046 1.2656 0
M  V30 2035 C 192.121 -5.27034 0.663978 0
M  V30 2036 C 191.16 -5.87353 1.72287 0
M  V30 2037 N 190.297 -6.92757 1.1416 0
M  V30 2038 H 195.137 -2.47732 1.65628 0
M  V30 2039 H 192.674 -1.21629 0.827337 0
M  V30 2040 H 194.632 -4.16904 -0.157148 0
M  V30 2041 H 193.262 -3.15527 -0.681355 0
M  V30 2042 H 192.314 -3.38924 1.72727 0
M  V30 2043 H 193.626 -4.53947 2.06721 0
M  V30 2044 H 192.78 -6.06104 0.268824 0
M  V30 2045 H 191.519 -4.87407 -0.169082 0
M  V30 2046 H 190.524 -5.06971 2.12746 0
M  V30 2047 H 191.749 -6.29051 2.55875 0
M  V30 2048 H 189.695 -6.5517 0.329984 0
M  V30 2049 H 189.612 -7.3225 1.88007 0
M  V30 2050 H 190.88 -7.75658 0.772956 0
M  V30 2051 N 195.109 -0.891671 -1.2995 0
M  V30 2052 C 196.337 -0.52866 -2.00032 0
M  V30 2053 C 196.752 0.884574 -1.66795 0
M  V30 2054 O 196.109 1.5827 -0.908669 0
M  V30 2055 C 196.16 -0.701814 -3.54622 0
M  V30 2056 O 195.881 -2.05942 -3.86678 0
M  V30 2057 C 197.382 -0.342683 -4.41973 0
M  V30 2058 H 194.602 -0.203659 -0.639347 0
M  V30 2059 H 197.146 -1.19881 -1.65677 0
M  V30 2060 H 195.301 -0.0789468 -3.8732 0
M  V30 2061 H 195.715 -2.08291 -4.81368 0
M  V30 2062 H 197.189 -0.514709 -5.49595 0
M  V30 2063 H 197.666 0.71975 -4.33262 0
M  V30 2064 H 198.272 -0.942154 -4.14733 0
M  V30 2065 N 196.587 1.43421 -0.653314 0
M  V30 2066 C 197.817 2.05864 -0.174238 0
M  V30 2067 C 198.225 1.49052 1.16534 0
M  V30 2068 O 197.568 0.616481 1.73047 0
M  V30 2069 C 197.63 3.59499 -0.00875873 0
M  V30 2070 C 197.294 4.38893 -1.27364 0
M  V30 2071 C 198.291 4.70947 -2.20239 0
M  V30 2072 C 195.976 4.789 -1.51525 0
M  V30 2073 C 197.97 5.41916 -3.35568 0
M  V30 2074 C 195.657 5.49614 -2.67147 0
M  V30 2075 C 196.655 5.81044 -3.58994 0
M  V30 2076 O 196.343 6.50313 -4.72597 0
M  V30 2077 H 196.075 0.670345 -0.0872549 0
M  V30 2078 H 198.629 1.84913 -0.894226 0
M  V30 2079 H 196.859 3.79025 0.7666 0
M  V30 2080 H 198.548 4.0364 0.427687 0
M  V30 2081 H 199.314 4.40558 -2.02815 0
M  V30 2082 H 195.193 4.53843 -0.809158 0
M  V30 2083 H 198.737 5.66365 -4.07279 0
M  V30 2084 H 194.634 5.79419 -2.84505 0
M  V30 2085 H 195.402 6.68795 -4.71864 0
M  V30 2086 N 198.065 0.39524 1.52563 0
M  V30 2087 C 199.29 -0.187456 2.06551 0
M  V30 2088 C 199.715 -1.39249 1.26457 0
M  V30 2089 O 199.073 -1.78947 0.291151 0
M  V30 2090 C 199.121 -0.529985 3.56684 0
M  V30 2091 O 198.225 -1.62307 3.79118 0
M  V30 2092 H 197.566 -0.0202537 0.663691 0
M  V30 2093 H 200.096 0.564426 1.96661 0
M  V30 2094 H 200.106 -0.792598 4.00227 0
M  V30 2095 H 198.781 0.350987 4.14416 0
M  V30 2096 H 197.358 -1.3537 3.47461 0
M  V30 2097 N 199.544 -1.57102 0.125237 0
M  V30 2098 C 200.774 -1.99472 -0.538015 0
M  V30 2099 C 201.182 -1.00395 -1.60366 0
M  V30 2100 O 200.525 0.0103875 -1.83697 0
M  V30 2101 C 200.587 -3.38262 -1.21734 0
M  V30 2102 C 200.251 -4.56021 -0.298897 0
M  V30 2103 C 201.248 -5.17817 0.464943 0
M  V30 2104 C 198.933 -5.01869 -0.208149 0
M  V30 2105 C 200.927 -6.23852 1.3072 0
M  V30 2106 C 198.614 -6.07763 0.637736 0
M  V30 2107 C 199.612 -6.68622 1.39403 0
M  V30 2108 O 199.3 -7.7247 2.22586 0
M  V30 2109 H 199.032 -0.659934 -0.146501 0
M  V30 2110 H 201.586 -2.04321 0.210267 0
M  V30 2111 H 199.816 -3.30185 -2.01282 0
M  V30 2112 H 201.505 -3.6488 -1.77813 0
M  V30 2113 H 202.271 -4.83308 0.404741 0
M  V30 2114 H 198.15 -4.54241 -0.786522 0
M  V30 2115 H 201.694 -6.71284 1.898 0
M  V30 2116 H 197.591 -6.41701 0.699309 0
M  V30 2117 H 198.359 -7.89595 2.15596 0
M  V30 2118 N 201.022 0.148545 -1.56898 0
M  V30 2119 C 201.97 1.20265 -1.99096 0
M  V30 2120 C 202.964 1.44559 -0.883123 0
M  V30 2121 O 204.17 1.4487 -1.0683 0
M  V30 2122 H 200.545 0.404786 -0.63376 0
M  V30 2123 H 202.516 0.82004 -2.86911 0
M  V30 2124 C 201.265 2.52886 -2.3863 0
M  V30 2125 H 200.588 2.35021 -3.23427 0
M  V30 2126 H 202.028 3.25274 -2.7198 0
M  V30 2127 C 200.487 3.13315 -1.23837 0
M  V30 2128 O 201.017 3.98077 -0.538268 0
M  V30 2129 N 199.223 2.72742 -1.00301 0
M  V30 2130 H 198.77 2.03912 -1.5741 0
M  V30 2131 H 198.728 3.13507 -0.236838 0
M  V30 2132 N 202.5 1.5196 0.417844 0
M  V30 2133 C 203.916 1.40569 0.755816 0
M  V30 2134 C 204.116 0.503316 1.95113 0
M  V30 2135 O 203.172 -0.0341925 2.52477 0
M  V30 2136 C 204.485 2.82947 1.01791 0
M  V30 2137 C 206.033 2.92231 1.12116 0
M  V30 2138 C 206.508 4.35559 1.41608 0
M  V30 2139 N 207.999 4.38753 1.48491 0
M  V30 2140 C 208.734 5.46705 1.7292 0
M  V30 2141 N 208.23 6.64788 1.95011 0
M  V30 2142 N 210.023 5.34209 1.74863 0
M  V30 2143 H 202.174 2.09168 -0.369098 0
M  V30 2144 H 204.437 0.942409 -0.102809 0
M  V30 2145 H 204.143 3.5106 0.212081 0
M  V30 2146 H 204.017 3.23462 1.94042 0
M  V30 2147 H 206.404 2.24304 1.9176 0
M  V30 2148 H 206.485 2.55185 0.177225 0
M  V30 2149 H 206.129 5.04042 0.624848 0
M  V30 2150 H 206.059 4.70133 2.37239 0
M  V30 2151 H 208.55 3.5363 1.33244 0
M  V30 2152 H 208.863 7.42845 2.13076 0
M  V30 2153 H 207.208 6.67869 1.92293 0
M  V30 2154 H 210.399 4.40937 1.57137 0
M  V30 2155 H 210.572 6.18415 1.93563 0
M  V30 2156 N 203.978 -0.674533 1.42435 0
M  V30 2157 C 204.925 -1.78807 1.45934 0
M  V30 2158 C 205.895 -1.63157 0.311271 0
M  V30 2159 O 207.08 -1.83707 0.515383 0
M  V30 2160 C 204.22 -3.16839 1.36773 0
M  V30 2161 C 203.333 -3.43774 2.61617 0
M  V30 2162 C 202.468 -4.71536 2.44597 0
M  V30 2163 C 201.507 -4.91505 3.64814 0
M  V30 2164 N 200.644 -6.10508 3.46734 0
M  V30 2165 H 205.484 -1.75151 2.41093 0
M  V30 2166 H 203.021 -0.85504 1.19697 0
M  V30 2167 H 204.979 -3.96606 1.29459 0
M  V30 2168 H 203.609 -3.19619 0.452089 0
M  V30 2169 H 202.661 -2.58259 2.79297 0
M  V30 2170 H 203.973 -3.54423 3.50978 0
M  V30 2171 H 203.127 -5.59393 2.3487 0
M  V30 2172 H 201.866 -4.6317 1.52726 0
M  V30 2173 H 200.871 -4.0209 3.74972 0
M  V30 2174 H 202.096 -5.01716 4.57665 0
M  V30 2175 H 200.042 -6.03315 2.5758 0
M  V30 2176 H 199.959 -6.2202 4.29682 0
M  V30 2177 H 201.227 -7.01044 3.40819 0
M  V30 2178 N 205.456 -1.28612 -0.910864 0
M  V30 2179 C 206.366 -1.14643 -2.0468 0
M  V30 2180 C 207.382 -0.0723121 -1.7385 0
M  V30 2181 O 208.558 -0.282178 -1.99413 0
M  V30 2182 C 205.623 -0.812561 -3.37044 0
M  V30 2183 C 204.684 -1.96935 -3.81465 0
M  V30 2184 C 203.917 -1.65131 -5.07511 0
M  V30 2185 O 204.14 -0.567013 -5.67575 0
M  V30 2186 O 203.074 -2.49585 -5.47714 0
M  V30 2187 H 206.9 -2.1001 -2.19384 0
M  V30 2188 H 204.485 -1.07958 -1.03274 0
M  V30 2189 H 206.367 -0.640441 -4.16505 0
M  V30 2190 H 205.042 0.111426 -3.23508 0
M  V30 2191 H 203.949 -2.19664 -3.02818 0
M  V30 2192 H 205.282 -2.87414 -3.99567 0
M  V30 2193 N 206.934 1.1197 -1.10907 0
M  V30 2194 C 208.182 1.83225 -0.852819 0
M  V30 2195 C 208.503 1.84769 0.623341 0
M  V30 2196 O 207.773 1.3143 1.45269 0
M  V30 2197 H 206.353 0.67849 -0.312507 0
M  V30 2198 H 209.015 1.3556 -1.40033 0
M  V30 2199 H 208.111 2.87265 -1.22005 0
M  V30 2200 N 208.412 0.89855 1.29475 0
M  V30 2201 C 209.322 0.379974 2.31502 0
M  V30 2202 C 210.338 -0.524695 1.659 0
M  V30 2203 O 211.514 -0.414551 1.97087 0
M  V30 2204 C 208.579 -0.385138 3.44554 0
M  V30 2205 C 207.64 0.550914 4.2575 0
M  V30 2206 C 206.873 -0.177778 5.33404 0
M  V30 2207 O 207.096 -1.40189 5.52904 0
M  V30 2208 O 206.03 0.479106 5.9999 0
M  V30 2209 H 209.856 1.22639 2.77837 0
M  V30 2210 H 207.441 0.662834 1.33891 0
M  V30 2211 H 209.323 -0.817841 4.13388 0
M  V30 2212 H 207.998 -1.20763 3.0033 0
M  V30 2213 H 206.905 1.03271 3.59564 0
M  V30 2214 H 208.238 1.33979 4.73614 0
M  V30 2215 N 209.89 -1.43072 0.660911 0
M  V30 2216 C 211.137 -2.01721 0.177445 0
M  V30 2217 C 211.465 -1.5218 -1.21126 0
M  V30 2218 O 210.72 -0.708659 -1.82419 0
M  V30 2219 C 211.019 -3.57103 0.145563 0
M  V30 2220 C 210.685 -4.26021 1.47705 0
M  V30 2221 C 209.347 -4.44563 1.84165 0
M  V30 2222 C 211.699 -4.64983 2.35458 0
M  V30 2223 C 209.027 -4.99334 3.0803 0
M  V30 2224 C 211.379 -5.21127 3.58622 0
M  V30 2225 C 210.043 -5.37884 3.95268 0
M  V30 2226 H 209.313 -0.73815 0.0649317 0
M  V30 2227 H 211.96 -1.71446 0.853144 0
M  V30 2228 H 210.265 -3.86965 -0.61361 0
M  V30 2229 H 211.962 -4.00248 -0.2455 0
M  V30 2230 H 208.552 -4.11939 1.18339 0
M  V30 2231 H 212.736 -4.50343 2.08579 0
M  V30 2232 H 207.992 -5.10493 3.36462 0
M  V30 2233 H 212.166 -5.50262 4.26831 0
M  V30 2234 H 209.793 -5.80089 4.91325 0
M  V30 2235 N 211.368 -0.403325 -1.52352 0
M  V30 2236 C 212.331 0.413051 -2.25447 0
M  V30 2237 C 213.331 0.978513 -1.276 0
M  V30 2238 O 214.521 0.858305 -1.51587 0
M  V30 2239 C 211.653 1.58087 -3.02029 0
M  V30 2240 H 212.846 -0.227094 -2.99039 0
M  V30 2241 H 210.399 -0.155722 -1.55522 0
M  V30 2242 H 211.134 2.25804 -2.32772 0
M  V30 2243 H 210.919 1.18195 -3.73861 0
M  V30 2244 H 212.409 2.1585 -3.57489 0
M  V30 2245 N 212.846 1.57033 -0.133567 0
M  V30 2246 C 214.095 1.94861 0.520768 0
M  V30 2247 C 214.408 1.02012 1.66892 0
M  V30 2248 O 215.614 1.29365 2.38699 0
M  V30 2249 C 214.07 3.46362 0.977809 0
M  V30 2250 C 213.678 4.47773 -0.142674 0
M  V30 2251 C 215.422 3.93083 1.60269 0
M  V30 2252 C 213.329 5.90468 0.331883 0
M  V30 2253 H 212.259 0.727453 0.198315 0
M  V30 2254 H 214.91 1.82227 -0.215759 0
M  V30 2255 H 213.292 3.54282 1.7692 0
M  V30 2256 H 214.466 4.51536 -0.919317 0
M  V30 2257 H 212.781 4.10891 -0.675124 0
M  V30 2258 H 215.378 4.97121 1.96914 0
M  V30 2259 H 215.721 3.33876 2.48662 0
M  V30 2260 H 216.254 3.88025 0.876453 0
M  V30 2261 H 212.993 6.53463 -0.516341 0
M  V30 2262 H 212.513 5.90094 1.07469 0
M  V30 2263 H 214.192 6.42179 0.788332 0
M  V30 2264 N 214.325 -0.140222 1.56975 0
M  V30 2265 C 215.273 -1.19207 1.99731 0
M  V30 2266 C 216.267 -1.44089 0.890777 0
M  V30 2267 O 217.473 -1.44301 1.07597 0
M  V30 2268 H 213.848 -0.40142 0.635898 0
M  V30 2269 H 215.819 -0.804813 2.87342 0
M  V30 2270 C 214.568 -2.51617 2.39967 0
M  V30 2271 H 213.891 -2.33303 3.24669 0
M  V30 2272 H 215.331 -3.23827 2.73701 0
M  V30 2273 C 213.79 -3.12654 1.25496 0
M  V30 2274 O 214.32 -3.97786 0.559371 0
M  V30 2275 N 212.526 -2.72206 1.01746 0
M  V30 2276 H 212.073 -2.03074 1.58489 0
M  V30 2277 H 212.031 -3.13377 0.253461 0
M  V30 2278 N 215.803 -1.52179 -0.40978 0
M  V30 2279 C 217.049 -1.67408 -1.15525 0
M  V30 2280 C 217.404 -0.398746 -1.88223 0
M  V30 2281 O 216.697 0.60678 -1.81738 0
M  V30 2282 C 216.891 -2.83428 -2.17723 0
M  V30 2283 C 216.72 -4.22121 -1.55061 0
M  V30 2284 C 215.49 -4.87657 -1.3236 0
M  V30 2285 C 217.688 -5.04248 -1.01185 0
M  V30 2286 N 215.67 -6.10387 -0.655834 0
M  V30 2287 C 217.041 -6.18209 -0.470963 0
M  V30 2288 C 219.096 -4.89583 -0.906252 0
M  V30 2289 C 217.799 -7.1911 0.165172 0
M  V30 2290 C 219.825 -5.90718 -0.28397 0
M  V30 2291 C 219.187 -7.03969 0.246243 0
M  V30 2292 H 215.286 -0.666251 -0.409431 0
M  V30 2293 H 217.87 -1.89482 -0.447729 0
M  V30 2294 H 216.041 -2.6297 -2.85834 0
M  V30 2295 H 217.773 -2.87697 -2.84627 0
M  V30 2296 H 214.528 -4.46007 -1.59294 0
M  V30 2297 H 214.952 -6.76153 -0.338596 0
M  V30 2298 H 219.594 -4.02253 -1.302 0
M  V30 2299 H 217.312 -8.06066 0.572986 0
M  V30 2300 H 220.898 -5.81443 -0.203792 0
M  V30 2301 H 219.778 -7.80886 0.720173 0
M  V30 2302 N 217.281 0.66697 -1.42791 0
M  V30 2303 C 218.211 1.79218 -1.49677 0
M  V30 2304 C 219.192 1.66405 -0.352623 0
M  V30 2305 O 220.377 1.85708 -0.567993 0
M  V30 2306 C 217.507 3.17565 -1.40605 0
M  V30 2307 C 216.461 3.45124 -2.53127 0
M  V30 2308 C 215.787 4.83127 -2.29112 0
M  V30 2309 C 217.087 3.41236 -3.95418 0
M  V30 2310 H 218.781 1.73713 -2.43853 0
M  V30 2311 H 216.327 0.83432 -1.17367 0
M  V30 2312 H 218.28 3.96022 -1.44029 0
M  V30 2313 H 217.004 3.23767 -0.429271 0
M  V30 2314 H 215.663 2.69031 -2.49034 0
M  V30 2315 H 215.311 4.85988 -1.29709 0
M  V30 2316 H 215.011 5.02528 -3.04531 0
M  V30 2317 H 216.535 5.63859 -2.34297 0
M  V30 2318 H 217.949 4.09651 -4.01073 0
M  V30 2319 H 216.346 3.72173 -4.70752 0
M  V30 2320 H 217.416 2.39665 -4.21532 0
M  V30 2321 N 218.759 1.29093 0.90403 0
M  V30 2322 C 220.005 1.16986 1.65656 0
M  V30 2323 C 220.338 -0.278925 1.92186 0
M  V30 2324 O 219.613 -1.2019 1.5292 0
M  V30 2325 C 219.896 1.97908 3.0084 0
M  V30 2326 C 219.749 3.50903 2.81403 0
M  V30 2327 C 221.068 1.80208 4.01513 0
M  V30 2328 H 218.187 0.426346 0.601164 0
M  V30 2329 H 220.829 1.58518 1.04747 0
M  V30 2330 H 218.979 1.62616 3.52829 0
M  V30 2331 H 220.651 3.96153 2.36348 0
M  V30 2332 H 218.894 3.76045 2.1627 0
M  V30 2333 H 219.565 4.02791 3.77443 0
M  V30 2334 H 222.041 2.11025 3.58619 0
M  V30 2335 H 220.917 2.39184 4.94047 0
M  V30 2336 H 221.178 0.756119 4.35586 0
M  V30 2337 N 220.237 -1.11381 1.11499 0
M  V30 2338 C 221.648 -1.6465 0.880191 0
M  V30 2339 C 221.999 -1.87199 -0.587434 0
M  V30 2340 O 221.124 -1.60667 -1.44966 0
M  V30 2341 C 221.719 -2.99105 1.59128 0
M  V30 2342 C 220.278 -3.49279 1.40289 0
M  V30 2343 C 219.425 -2.24077 1.63354 0
M  V30 2344 H 222.376 -0.950123 1.27116 0
M  V30 2345 H 222.397 -3.66107 1.03664 0
M  V30 2346 H 221.909 -2.82661 2.65941 0
M  V30 2347 H 220.01 -3.70887 0.356888 0
M  V30 2348 H 220.123 -4.2803 2.15238 0
M  V30 2349 H 218.487 -2.31733 1.05698 0
M  V30 2350 H 219.27 -2.10175 2.71443 0
M  V30 2351 N 221.715 -0.905404 -1.28997 0
M  V30 2352 C 222.964 -0.530191 -1.94607 0
M  V30 2353 C 223.277 0.929185 -1.72121 0
M  V30 2354 O 224.483 1.41218 -2.31883 0
M  V30 2355 C 222.939 -0.897333 -3.48534 0
M  V30 2356 C 222.547 -2.37587 -3.79811 0
M  V30 2357 C 224.291 -0.592304 -4.20347 0
M  V30 2358 C 222.198 -2.68357 -5.27009 0
M  V30 2359 H 221.128 -0.194558 -0.728466 0
M  V30 2360 H 223.779 -1.10318 -1.46636 0
M  V30 2361 H 222.161 -0.253214 -3.9519 0
M  V30 2362 H 223.335 -3.06602 -3.43994 0
M  V30 2363 H 221.65 -2.6505 -3.2115 0
M  V30 2364 H 224.247 -0.798975 -5.28697 0
M  V30 2365 H 224.59 0.469474 -4.13644 0
M  V30 2366 H 225.123 -1.19452 -3.79442 0
M  V30 2367 H 221.862 -3.73355 -5.38782 0
M  V30 2368 H 221.382 -2.03971 -5.64053 0
M  V30 2369 H 223.061 -2.54922 -5.94663 0
M  V30 2370 N 223.193 1.4272 -0.668489 0
M  V30 2371 C 224.441 2.01226 -0.187769 0
M  V30 2372 C 224.762 1.53092 1.2078 0
M  V30 2373 O 224.032 0.74993 1.80977 0
M  V30 2374 H 222.612 0.744041 -0.0664272 0
M  V30 2375 H 225.274 1.74723 -0.863583 0
M  V30 2376 H 224.37 3.11556 -0.184166 0
M  V30 2377 N 224.671 0.411399 1.52136 0
M  V30 2378 C 225.581 -0.419774 2.30814 0
M  V30 2379 C 226.597 -1.0515 1.38634 0
M  V30 2380 O 227.773 -1.05252 1.71709 0
M  V30 2381 C 224.838 -1.52019 3.11594 0
M  V30 2382 C 223.899 -0.91129 4.19516 0
M  V30 2383 C 223.132 -1.95927 4.96436 0
M  V30 2384 O 223.355 -3.17775 4.73683 0
M  V30 2385 O 222.289 -1.56423 5.81219 0
M  V30 2386 H 226.115 0.221805 3.02889 0
M  V30 2387 H 223.7 0.174547 1.48377 0
M  V30 2388 H 225.582 -2.15898 3.61892 0
M  V30 2389 H 224.257 -2.14633 2.42311 0
M  V30 2390 H 223.164 -0.235157 3.7336 0
M  V30 2391 H 224.497 -0.32904 4.91099 0
M  V30 2392 N 226.149 -1.5696 0.141893 0
M  V30 2393 C 227.426 -1.87553 -0.555281 0
M  V30 2394 C 227.806 -1.04699 -1.83306 0
M  V30 2395 O 227.154 -0.132346 -2.28116 0
M  V30 2396 C 227.364 -3.39093 -0.825664 0
M  V30 2397 C 228.712 -4.08199 -1.16869 0
M  V30 2398 O 229.736 -3.44242 -0.915185 0
M  V30 2399 O 228.595 -5.21139 -1.6455 0
M  V30 2400 H 225.689 -0.777188 -0.282679 0
M  V30 2401 H 228.235 -1.68763 0.17812 0
M  V30 2402 H 227.007 -3.91221 0.0788633 0
M  V30 2403 H 226.63 -3.63393 -1.61343 0
M  V30 2404 N 227.627 0.131896 -1.57047 0
M  V30 2405 C 228.852 0.860418 -1.8871 0
M  V30 2406 C 229.277 1.73251 -0.73251 0
M  V30 2407 O 228.635 1.785 0.317429 0
M  V30 2408 C 228.683 1.68047 -3.19049 0
M  V30 2409 O 227.787 2.7862 -3.04047 0
M  V30 2410 H 227.128 0.238743 -0.619595 0
M  V30 2411 H 229.658 0.118169 -2.04258 0
M  V30 2412 H 229.668 2.07238 -3.51449 0
M  V30 2413 H 228.343 1.04018 -4.02682 0
M  V30 2414 H 226.92 2.42726 -2.83088 0
M  V30 2415 N 229.106 1.52395 0.401703 0
M  V30 2416 C 230.517 1.58899 0.980202 0
M  V30 2417 C 230.868 0.434032 1.91339 0
M  V30 2418 O 229.993 -0.444619 2.11783 0
M  V30 2419 C 230.588 2.87994 1.78451 0
M  V30 2420 C 229.147 2.96953 2.31292 0
M  V30 2421 C 228.294 2.53903 1.11483 0
M  V30 2422 H 231.245 1.57657 0.18168 0
M  V30 2423 H 231.266 2.73765 2.64259 0
M  V30 2424 H 230.778 3.72035 1.10506 0
M  V30 2425 H 228.879 2.17422 3.02586 0
M  V30 2426 H 228.992 4.01344 2.61649 0
M  V30 2427 H 227.356 2.07925 1.47104 0
M  V30 2428 H 228.139 3.40326 0.450928 0
M  V30 2429 N 230.584 -0.659388 1.43143 0
M  V30 2430 C 231.547 -1.75432 1.47501 0
M  V30 2431 C 232.547 -1.56707 0.360512 0
M  V30 2432 O 233.737 -1.62717 0.622002 0
M  V30 2433 C 230.869 -3.14239 1.32162 0
M  V30 2434 H 232.062 -1.7295 2.45006 0
M  V30 2435 H 229.615 -0.870469 1.29817 0
M  V30 2436 H 230.35 -3.22336 0.356401 0
M  V30 2437 H 230.135 -3.29235 2.12948 0
M  V30 2438 H 231.625 -3.94094 1.3813 0
M  V30 2439 N 232.062 -1.29571 -0.897171 0
M  V30 2440 C 233.287 -1.20705 -1.68656 0
M  V30 2441 C 233.712 0.228582 -1.86706 0
M  V30 2442 O 233.07 1.16494 -1.3892 0
M  V30 2443 C 233.118 -1.9282 -3.04717 0
M  V30 2444 O 232.222 -1.24697 -3.93096 0
M  V30 2445 H 231.563 -0.418126 -0.515816 0
M  V30 2446 H 234.093 -1.71183 -1.12061 0
M  V30 2447 H 234.103 -2.01372 -3.54843 0
M  V30 2448 H 232.778 -2.97239 -2.90899 0
M  V30 2449 H 231.355 -1.2442 -3.51531 0
M  V30 2450 N 233.54 1.10788 -1.12088 0
M  V30 2451 C 234.789 1.82036 -0.868659 0
M  V30 2452 C 235.102 1.85929 0.607426 0
M  V30 2453 O 236.308 2.53346 0.97613 0
M  V30 2454 C 234.764 3.26951 -1.50435 0
M  V30 2455 C 234.372 3.31367 -3.01496 0
M  V30 2456 C 236.116 4.03053 -1.33225 0
M  V30 2457 C 234.023 4.7072 -3.58017 0
M  V30 2458 H 232.953 0.682108 -0.321318 0
M  V30 2459 H 235.604 1.24618 -1.34694 0
M  V30 2460 H 233.986 3.84343 -0.953735 0
M  V30 2461 H 235.16 2.83819 -3.6302 0
M  V30 2462 H 233.475 2.6875 -3.18061 0
M  V30 2463 H 236.072 5.05981 -1.72878 0
M  V30 2464 H 236.415 4.15387 -0.275529 0
M  V30 2465 H 236.948 3.52066 -1.85188 0
M  V30 2466 H 233.687 4.63585 -4.63432 0
M  V30 2467 H 233.207 5.1865 -3.01268 0
M  V30 2468 H 234.886 5.39685 -3.56859 0
M  V30 2469 N 235.018 0.912232 1.28515 0
M  V30 2470 C 235.965 0.397954 2.27343 0
M  V30 2471 C 236.935 -0.526766 1.57526 0
M  V30 2472 O 238.12 -0.449292 1.85435 0
M  V30 2473 C 235.26 -0.357263 3.43246 0
M  V30 2474 C 234.373 0.599788 4.27816 0
M  V30 2475 C 233.508 -0.173725 5.30916 0
M  V30 2476 C 232.547 0.777039 6.07148 0
M  V30 2477 N 231.684 0.0371398 7.0209 0
M  V30 2478 H 236.524 1.24577 2.70711 0
M  V30 2479 H 234.061 0.625612 1.33133 0
M  V30 2480 H 236.019 -0.8113 4.09236 0
M  V30 2481 H 234.649 -1.16943 3.00872 0
M  V30 2482 H 233.701 1.17235 3.61884 0
M  V30 2483 H 235.013 1.32704 4.80823 0
M  V30 2484 H 234.167 -0.688394 6.02782 0
M  V30 2485 H 232.906 -0.934041 4.78672 0
M  V30 2486 H 231.911 1.3031 5.34134 0
M  V30 2487 H 233.136 1.53689 6.61481 0
M  V30 2488 H 231.082 -0.705213 6.52198 0
M  V30 2489 H 230.999 0.704249 7.52713 0
M  V30 2490 H 232.267 -0.457383 7.78157 0
M  V30 2491 N 236.496 -1.42363 0.676048 0
M  V30 2492 C 237.745 -2.00745 0.196037 0
M  V30 2493 C 238.058 -1.54083 -1.20489 0
M  V30 2494 O 239.264 -2.04891 -1.78134 0
M  V30 2495 C 237.72 -3.58651 0.299616 0
M  V30 2496 C 237.328 -4.143 1.70468 0
M  V30 2497 C 239.072 -4.24326 -0.121619 0
M  V30 2498 C 236.979 -5.64574 1.76096 0
M  V30 2499 H 235.909 -0.750787 0.0695301 0
M  V30 2500 H 238.56 -1.63072 0.841412 0
M  V30 2501 H 236.942 -3.93833 -0.413673 0
M  V30 2502 H 238.116 -3.90575 2.44515 0
M  V30 2503 H 236.431 -3.61081 2.07387 0
M  V30 2504 H 239.028 -5.34607 -0.0997362 0
M  V30 2505 H 239.371 -3.99897 -1.15708 0
M  V30 2506 H 239.904 -3.94108 0.540706 0
M  V30 2507 H 236.643 -5.93804 2.77628 0
M  V30 2508 H 236.163 -5.90286 1.06406 0
M  V30 2509 H 237.842 -6.29013 1.51496 0
M  V30 2510 N 237.974 -0.419461 -1.51915 0
M  V30 2511 C 239.199 0.154572 -2.06823 0
M  V30 2512 C 239.624 1.3722 -1.28656 0
M  V30 2513 O 238.982 1.78461 -0.319583 0
M  V30 2514 C 239.03 0.473172 -3.57482 0
M  V30 2515 O 238.134 1.56255 -3.81652 0
M  V30 2516 H 237.475 0.0096924 -0.663929 0
M  V30 2517 H 240.005 -0.595642 -1.95738 0
M  V30 2518 H 240.015 0.728825 -4.01438 0
M  V30 2519 H 238.69 -0.416873 -4.13805 0
M  V30 2520 H 237.267 1.29825 -3.49571 0
M  V30 2521 N 239.452 1.56882 -0.150215 0
M  V30 2522 C 240.698 1.96518 0.500834 0
M  V30 2523 C 241.031 1.03527 1.64304 0
M  V30 2524 O 240.306 0.0782751 1.94342 0
M  V30 2525 C 240.589 3.45822 1.00395 0
M  V30 2526 C 240.442 4.49591 -0.136983 0
M  V30 2527 C 241.761 3.97704 1.88467 0
M  V30 2528 H 238.88 0.714535 0.18058 0
M  V30 2529 H 241.522 1.88577 -0.232091 0
M  V30 2530 H 239.672 3.5272 1.62851 0
M  V30 2531 H 241.344 4.5477 -0.77343 0
M  V30 2532 H 239.587 4.26441 -0.795652 0
M  V30 2533 H 240.258 5.51402 0.256815 0
M  V30 2534 H 242.734 3.93304 1.35834 0
M  V30 2535 H 241.61 5.0263 2.20578 0
M  V30 2536 H 241.871 3.40252 2.82279 0
M  V30 2537 N 240.93 -0.123565 1.57115 0
M  V30 2538 C 242.207 -0.862196 1.75572 0
M  V30 2539 C 242.587 -1.98279 0.724475 0
M  V30 2540 O 241.935 -2.27102 -0.252407 0
M  V30 2541 C 242.145 -1.38309 3.20424 0
M  V30 2542 C 243.493 -1.83724 3.82793 0
M  V30 2543 O 244.517 -1.47999 3.23998 0
M  V30 2544 O 243.376 -2.49685 4.86127 0
M  V30 2545 H 240.47 -0.409113 0.718718 0
M  V30 2546 H 243.016 -0.107661 1.69358 0
M  V30 2547 H 241.788 -0.578889 3.86994 0
M  V30 2548 H 241.411 -2.20046 3.31158 0
M  V30 2549 N 242.408 -1.52605 -0.393616 0
M  V30 2550 C 243.318 -1.79971 -1.50492 0
M  V30 2551 C 244.334 -0.686181 -1.59899 0
M  V30 2552 O 245.51 -0.973274 -1.76322 0
M  V30 2553 C 242.575 -1.95867 -2.86072 0
M  V30 2554 C 241.636 -3.19781 -2.86424 0
M  V30 2555 C 240.869 -3.34909 -4.15538 0
M  V30 2556 O 241.092 -2.54948 -5.10253 0
M  V30 2557 O 240.026 -4.28141 -4.23059 0
M  V30 2558 H 243.852 -2.74328 -1.30299 0
M  V30 2559 H 241.437 -1.3764 -0.581005 0
M  V30 2560 H 243.319 -2.08056 -3.66457 0
M  V30 2561 H 241.994 -1.04699 -3.063 0
M  V30 2562 H 240.901 -3.13038 -2.04837 0
M  V30 2563 H 242.234 -4.1078 -2.71147 0
M  V30 2564 N 243.887 0.651787 -1.4349 0
M  V30 2565 C 244.817 1.77621 -1.51569 0
M  V30 2566 C 245.798 1.66022 -0.370253 0
M  V30 2567 O 246.983 1.85095 -0.587658 0
M  V30 2568 C 244.113 3.16056 -1.43966 0
M  V30 2569 C 243.067 3.4242 -2.56774 0
M  V30 2570 C 242.393 4.8067 -2.34223 0
M  V30 2571 C 243.693 3.37023 -3.99015 0
M  V30 2572 H 245.387 1.71117 -2.45681 0
M  V30 2573 H 242.933 0.821825 -1.18246 0
M  V30 2574 H 244.886 3.94472 -1.48221 0
M  V30 2575 H 243.61 3.23293 -0.463586 0
M  V30 2576 H 242.269 2.66375 -2.51873 0
M  V30 2577 H 241.917 4.84585 -1.34856 0
M  V30 2578 H 241.617 4.9927 -3.09844 0
M  V30 2579 H 243.141 5.61342 -2.40265 0
M  V30 2580 H 244.555 4.05374 -4.05395 0
M  V30 2581 H 242.952 3.67159 -4.74673 0
M  V30 2582 H 244.022 2.3518 -4.2405 0
M  V30 2583 N 245.365 1.30045 0.890287 0
M  V30 2584 C 246.642 1.09227 1.62262 0
M  V30 2585 C 247.022 -0.360305 2.08002 0
M  V30 2586 O 246.37 -1.35084 1.84295 0
M  V30 2587 C 246.58 2.08835 2.79623 0
M  V30 2588 C 247.928 2.40266 3.50082 0
M  V30 2589 O 248.952 2.07104 2.89804 0
M  V30 2590 O 247.811 2.96967 4.58773 0
M  V30 2591 H 244.905 0.419132 0.712922 0
M  V30 2592 H 247.451 1.41451 0.937529 0
M  V30 2593 H 246.223 3.06633 2.43089 0
M  V30 2594 H 245.846 1.77397 3.55832 0
M  V30 2595 N 246.843 -1.10192 1.12674 0
M  V30 2596 C 247.775 -2.16418 0.754701 0
M  V30 2597 C 248.788 -1.61309 -0.21986 0
M  V30 2598 O 249.977 -1.785 -0.000826841 0
M  V30 2599 C 247.077 -3.38762 0.096698 0
M  V30 2600 C 246.25 -4.23307 1.10136 0
M  V30 2601 C 245.309 -5.24092 0.470513 0
M  V30 2602 O 244.335 -5.57906 1.12824 0
M  V30 2603 N 245.537 -5.75491 -0.760948 0
M  V30 2604 H 248.302 -2.48943 1.66875 0
M  V30 2605 H 245.863 -1.25834 1.01869 0
M  V30 2606 H 247.855 -4.03291 -0.337384 0
M  V30 2607 H 246.425 -3.04192 -0.720153 0
M  V30 2608 H 245.645 -3.55036 1.71299 0
M  V30 2609 H 246.933 -4.76624 1.78064 0
M  V30 2610 H 246.331 -5.50222 -1.31424 0
M  V30 2611 H 244.888 -6.41792 -1.13781 0
M  V30 2612 N 248.321 -0.919034 -1.28029 0
M  V30 2613 C 249.253 -0.368762 -2.26214 0
M  V30 2614 C 250.266 0.495716 -1.55069 0
M  V30 2615 O 251.455 0.30974 -1.75792 0
M  V30 2616 C 248.555 0.491049 -3.35324 0
M  V30 2617 C 247.728 -0.352133 -4.3598 0
M  V30 2618 C 246.787 0.443622 -5.24327 0
M  V30 2619 O 245.813 -0.14566 -5.69014 0
M  V30 2620 N 247.015 1.74545 -5.53637 0
M  V30 2621 H 249.78 -1.21273 -2.74068 0
M  V30 2622 H 247.341 -0.785541 -1.41566 0
M  V30 2623 H 249.333 1.03026 -3.91366 0
M  V30 2624 H 247.903 1.23574 -2.87138 0
M  V30 2625 H 247.123 -1.07269 -3.79324 0
M  V30 2626 H 248.411 -0.928883 -5.00249 0
M  V30 2627 H 247.809 2.24666 -5.19174 0
M  V30 2628 H 246.366 2.23138 -6.12416 0
M  V30 2629 N 249.799 1.42003 -0.683588 0
M  V30 2630 C 251.215 1.55625 -0.353976 0
M  V30 2631 C 251.415 1.66151 1.14 0
M  V30 2632 O 250.471 1.63329 1.92561 0
M  V30 2633 C 251.784 2.80171 -1.092 0
M  V30 2634 C 253.332 2.93954 -1.07518 0
M  V30 2635 C 253.807 4.21372 -1.79471 0
M  V30 2636 N 255.298 4.28303 -1.76381 0
M  V30 2637 C 256.033 5.25729 -2.28904 0
M  V30 2638 N 255.529 6.29254 -2.89846 0
M  V30 2639 N 257.322 5.17586 -2.19228 0
M  V30 2640 H 249.473 1.33415 -1.6527 0
M  V30 2641 H 251.736 0.64282 -0.696769 0
M  V30 2642 H 251.442 2.78561 -2.14701 0
M  V30 2643 H 251.316 3.7133 -0.662862 0
M  V30 2644 H 253.703 2.95086 -0.028475 0
M  V30 2645 H 253.784 2.04002 -1.54328 0
M  V30 2646 H 253.428 4.21001 -2.84114 0
M  V30 2647 H 253.358 5.10275 -1.30104 0
M  V30 2648 H 255.849 3.54119 -1.31939 0
M  V30 2649 H 256.162 6.99964 -3.27522 0
M  V30 2650 H 254.507 6.29791 -2.93919 0
M  V30 2651 H 257.698 4.35631 -1.71299 0
M  V30 2652 H 257.871 5.93348 -2.60466 0
M  V30 2653 N 251.277 0.427512 1.51691 0
M  V30 2654 C 252.225 -0.403359 2.29076 0
M  V30 2655 C 253.219 -1.02962 1.34518 0
M  V30 2656 O 254.425 -0.965715 1.51901 0
M  V30 2657 H 250.8 -0.148879 0.737115 0
M  V30 2658 H 252.771 0.270295 2.97173 0
M  V30 2659 C 251.52 -1.49763 3.13794 0
M  V30 2660 H 250.843 -1.02508 3.86435 0
M  V30 2661 H 252.283 -2.05244 3.71014 0
M  V30 2662 C 250.742 -2.47536 2.28533 0
M  V30 2663 O 251.272 -3.51848 1.93819 0
M  V30 2664 N 249.478 -2.18187 1.91945 0
M  V30 2665 H 249.025 -1.33389 2.20375 0
M  V30 2666 H 248.983 -2.83848 1.35195 0
M  V30 2667 N 252.755 -1.56801 0.158532 0
M  V30 2668 C 254.004 -1.95665 -0.489702 0
M  V30 2669 C 254.317 -1.04654 -1.65248 0
M  V30 2670 O 255.523 -1.33146 -2.3661 0
M  V30 2671 C 253.979 -3.47874 -0.922582 0
M  V30 2672 C 253.587 -4.47489 0.213893 0
M  V30 2673 C 255.331 -3.95583 -1.53996 0
M  V30 2674 C 253.238 -5.90921 -0.237903 0
M  V30 2675 H 252.168 -0.730516 -0.186716 0
M  V30 2676 H 254.819 -1.81861 0.244722 0
M  V30 2677 H 253.201 -3.57051 -1.71261 0
M  V30 2678 H 254.375 -4.50017 0.991036 0
M  V30 2679 H 252.69 -4.09764 0.740407 0
M  V30 2680 H 255.287 -5.0019 -1.8898 0
M  V30 2681 H 255.63 -3.37789 -2.43319 0
M  V30 2682 H 256.163 -3.8937 -0.814611 0
M  V30 2683 H 252.902 -6.52559 0.620236 0
M  V30 2684 H 252.422 -5.91729 -0.980676 0
M  V30 2685 H 254.101 -6.43352 -0.686067 0
M  V30 2686 N 254.233 0.115231 -1.57178 0
M  V30 2687 C 255.482 0.820945 -1.84237 0
M  V30 2688 C 255.795 1.80866 -0.744761 0
M  V30 2689 O 257.001 2.56083 -0.901871 0
M  V30 2690 C 255.457 1.51072 -3.26658 0
M  V30 2691 C 255.065 0.563795 -4.44438 0
M  V30 2692 C 256.809 2.20134 -3.62962 0
M  V30 2693 C 254.716 1.25701 -5.77887 0
M  V30 2694 H 253.646 0.310328 -0.687177 0
M  V30 2695 H 256.297 0.0737134 -1.83352 0
M  V30 2696 H 254.679 2.30471 -3.22024 0
M  V30 2697 H 255.853 -0.197247 -4.60378 0
M  V30 2698 H 254.168 -0.0200638 -4.16395 0
M  V30 2699 H 256.765 2.72696 -4.59936 0
M  V30 2700 H 257.108 2.98107 -2.90582 0
M  V30 2701 H 257.641 1.47619 -3.69396 0
M  V30 2702 H 254.38 0.518493 -6.53446 0
M  V30 2703 H 253.9 1.98997 -5.65827 0
M  V30 2704 H 255.579 1.78915 -6.2177 0
M  V30 2705 N 255.711 1.52812 0.385517 0
M  V30 2706 C 256.621 1.80766 1.49535 0
M  V30 2707 C 257.637 0.694651 1.59532 0
M  V30 2708 O 258.813 0.982611 1.75803 0
M  V30 2709 C 255.878 1.97381 2.85029 0
M  V30 2710 C 254.939 3.21295 2.84724 0
M  V30 2711 C 254.172 3.37108 4.13756 0
M  V30 2712 O 254.395 2.5765 5.08893 0
M  V30 2713 O 253.329 4.30378 4.20783 0
M  V30 2714 H 257.155 2.75015 1.28842 0
M  V30 2715 H 254.74 1.37946 0.573697 0
M  V30 2716 H 256.622 2.09996 3.65349 0
M  V30 2717 H 255.297 1.06322 3.05741 0
M  V30 2718 H 254.204 3.1412 2.03174 0
M  V30 2719 H 255.537 4.12212 2.68965 0
M  V30 2720 N 257.189 -0.644168 1.43834 0
M  V30 2721 C 258.435 -1.40603 1.46146 0
M  V30 2722 C 258.768 -1.93997 0.0887717 0
M  V30 2723 O 258.043 -1.72854 -0.891724 0
M  V30 2724 C 258.326 -2.58086 2.51124 0
M  V30 2725 C 258.179 -2.10126 3.97702 0
M  V30 2726 C 259.498 -3.60291 2.52742 0
M  V30 2727 H 256.617 -0.509905 0.532134 0
M  V30 2728 H 259.259 -0.729502 1.75437 0
M  V30 2729 H 257.409 -3.15801 2.26278 0
M  V30 2730 H 259.081 -1.57342 4.33637 0
M  V30 2731 H 257.324 -1.41419 4.10101 0
M  V30 2732 H 257.995 -2.94649 4.66783 0
M  V30 2733 H 260.471 -3.12352 2.7491 0
M  V30 2734 H 259.347 -4.40032 3.28121 0
M  V30 2735 H 259.608 -4.1349 1.56455 0
M  V30 2736 N 258.668 -1.30515 -0.883378 0
M  V30 2737 C 260.079 -1.17509 -1.45081 0
M  V30 2738 C 260.43 0.223605 -1.94922 0
M  V30 2739 O 259.555 1.12041 -1.85137 0
M  V30 2740 C 260.15 -2.12715 -2.63701 0
M  V30 2741 C 258.709 -2.03682 -3.16529 0
M  V30 2742 C 257.856 -2.02706 -1.89224 0
M  V30 2743 H 260.807 -1.42762 -0.693165 0
M  V30 2744 H 260.828 -1.70891 -3.39965 0
M  V30 2745 H 260.34 -3.14505 -2.27395 0
M  V30 2746 H 258.441 -1.05039 -3.57488 0
M  V30 2747 H 258.554 -2.92146 -3.7972 0
M  V30 2748 H 256.918 -1.4753 -2.07622 0
M  V30 2749 H 257.701 -3.06229 -1.55174 0
M  V30 2750 N 260.146 1.09593 -1.13257 0
M  V30 2751 C 261.093 2.1618 -0.808381 0
M  V30 2752 C 262.063 1.64517 0.228754 0
M  V30 2753 O 263.248 1.9053 0.101381 0
M  V30 2754 C 260.388 3.43973 -0.278675 0
M  V30 2755 C 259.501 4.09545 -1.37466 0
M  V30 2756 C 258.636 5.25088 -0.803479 0
M  V30 2757 C 257.675 5.82579 -1.87799 0
M  V30 2758 N 256.812 6.89486 -1.32488 0
M  V30 2759 H 261.652 2.43254 -1.72138 0
M  V30 2760 H 259.189 1.19392 -0.859294 0
M  V30 2761 H 261.147 4.17174 0.0465583 0
M  V30 2762 H 259.777 3.17223 0.597459 0
M  V30 2763 H 258.829 3.34226 -1.81652 0
M  V30 2764 H 260.141 4.48307 -2.18684 0
M  V30 2765 H 259.295 6.05178 -0.429427 0
M  V30 2766 H 258.034 4.87684 0.0397956 0
M  V30 2767 H 257.039 5.01152 -2.26113 0
M  V30 2768 H 258.264 6.22045 -2.72463 0
M  V30 2769 H 256.21 6.54064 -0.503575 0
M  V30 2770 H 256.127 7.27007 -2.07355 0
M  V30 2771 H 257.395 7.73336 -0.978336 0
M  V30 2772 N 261.624 0.925811 1.2754 0
M  V30 2773 C 262.554 0.440748 2.29303 0
M  V30 2774 C 263.535 -0.497971 1.62648 0
M  V30 2775 O 264.72 -0.403126 1.8997 0
M  V30 2776 C 261.85 -0.309048 3.45922 0
M  V30 2777 C 260.804 0.54166 4.24559 0
M  V30 2778 C 260.13 -0.337191 5.33636 0
M  V30 2779 C 261.43 1.80516 4.90114 0
M  V30 2780 H 263.124 1.29121 2.70126 0
M  V30 2781 H 260.67 0.622323 1.29858 0
M  V30 2782 H 262.623 -0.659315 4.1621 0
M  V30 2783 H 261.347 -1.19352 3.04011 0
M  V30 2784 H 260.006 0.874609 3.56014 0
M  V30 2785 H 259.654 -1.22056 4.87966 0
M  V30 2786 H 259.354 0.228497 5.87156 0
M  V30 2787 H 260.878 -0.683072 6.06767 0
M  V30 2788 H 262.292 1.52307 5.52698 0
M  V30 2789 H 260.689 2.3142 5.53683 0
M  V30 2790 H 261.759 2.52581 4.13921 0
M  V30 2791 N 263.102 -1.41638 0.69111 0
M  V30 2792 C 264.332 -2.0533 0.228758 0
M  V30 2793 C 264.74 -1.52089 -1.12541 0
M  V30 2794 O 264.083 -0.662145 -1.71351 0
M  V30 2795 C 264.145 -3.59349 0.10407 0
M  V30 2796 C 263.809 -4.35362 1.38956 0
M  V30 2797 C 264.806 -4.64942 2.32648 0
M  V30 2798 C 262.491 -4.74714 1.64169 0
M  V30 2799 C 264.485 -5.32828 3.49818 0
M  V30 2800 C 262.172 -5.42338 2.81625 0
M  V30 2801 C 263.17 -5.71322 3.74273 0
M  V30 2802 O 262.858 -6.37554 4.89673 0
M  V30 2803 H 262.59 -0.667796 0.104997 0
M  V30 2804 H 265.144 -1.82477 0.942938 0
M  V30 2805 H 263.374 -3.80924 -0.665839 0
M  V30 2806 H 265.063 -4.04633 -0.320519 0
M  V30 2807 H 265.829 -4.35025 2.14425 0
M  V30 2808 H 261.708 -4.51538 0.929202 0
M  V30 2809 H 265.252 -5.55368 4.22152 0
M  V30 2810 H 261.149 -5.71673 2.99768 0
M  V30 2811 H 261.917 -6.56049 4.8943 0
M  V30 2812 N 264.58 -0.43555 -1.51462 0
M  V30 2813 C 265.805 0.132627 -2.06976 0
M  V30 2814 C 266.23 1.35848 -1.30104 0
M  V30 2815 O 265.588 1.78112 -0.338493 0
M  V30 2816 C 265.636 0.43523 -3.57964 0
M  V30 2817 O 264.74 1.52198 -3.83288 0
M  V30 2818 H 264.081 0.00265 -0.663995 0
M  V30 2819 H 266.611 -0.616369 -1.95095 0
M  V30 2820 H 266.621 0.686206 -4.02188 0
M  V30 2821 H 265.296 -0.460739 -4.1334 0
M  V30 2822 H 263.873 1.2611 -3.50928 0
M  V30 2823 N 266.058 1.56714 -0.166846 0
M  V30 2824 C 267.307 1.95922 0.479318 0
M  V30 2825 C 267.62 1.05529 1.6469 0
M  V30 2826 O 268.826 1.34399 2.35901 0
M  V30 2827 C 267.282 3.48359 0.90412 0
M  V30 2828 C 266.89 4.47369 -0.237621 0
M  V30 2829 C 268.634 3.96394 1.51896 0
M  V30 2830 C 266.541 5.91039 0.206561 0
M  V30 2831 H 265.471 0.731495 0.18284 0
M  V30 2832 H 268.122 1.81728 -0.254363 0
M  V30 2833 H 266.504 3.57955 1.69365 0
M  V30 2834 H 267.678 4.49485 -1.01489 0
M  V30 2835 H 265.993 4.09366 -0.762128 0
M  V30 2836 H 268.59 5.01186 1.86325 0
M  V30 2837 H 268.933 3.39075 2.41524 0
M  V30 2838 H 269.466 3.89796 0.79395 0
M  V30 2839 H 266.205 6.52221 -0.654834 0
M  V30 2840 H 265.725 5.9224 0.949282 0
M  V30 2841 H 267.404 6.43707 0.651939 0
M  V30 2842 N 267.536 -0.106894 1.57237 0
M  V30 2843 C 268.813 -0.843526 1.76477 0
M  V30 2844 C 269.193 -1.97499 0.745464 0
M  V30 2845 O 268.541 -2.27357 -0.228306 0
M  V30 2846 C 268.751 -1.34903 3.21873 0
M  V30 2847 C 270.099 -1.79654 3.8472 0
M  V30 2848 O 271.123 -1.44554 3.2555 0
M  V30 2849 O 269.982 -2.44515 4.88748 0
M  V30 2850 H 267.076 -0.401468 0.723016 0
M  V30 2851 H 269.622 -0.0896927 1.69463 0
M  V30 2852 H 268.394 -0.53781 3.87586 0
M  V30 2853 H 268.017 -2.16522 3.33473 0
M  V30 2854 N 269.014 -1.53014 -0.377408 0
M  V30 2855 C 269.944 -1.81589 -1.46791 0
M  V30 2856 C 270.925 -0.668622 -1.56408 0
M  V30 2857 O 272.11 -0.917337 -1.71168 0
M  V30 2858 C 269.24 -1.99519 -2.8427 0
M  V30 2859 C 268.194 -3.15249 -2.89486 0
M  V30 2860 C 267.52 -3.18451 -4.29527 0
M  V30 2861 C 268.82 -4.54084 -2.58079 0
M  V30 2862 H 270.514 -2.7291 -1.23127 0
M  V30 2863 H 268.06 -1.31319 -0.590883 0
M  V30 2864 H 270.013 -2.18092 -3.60575 0
M  V30 2865 H 268.737 -1.04897 -3.09296 0
M  V30 2866 H 267.396 -2.96477 -2.15631 0
M  V30 2867 H 267.044 -2.2149 -4.5161 0
M  V30 2868 H 266.744 -3.962 -4.33934 0
M  V30 2869 H 268.268 -3.39193 -5.07721 0
M  V30 2870 H 269.682 -4.72899 -3.24098 0
M  V30 2871 H 268.079 -5.33987 -2.7382 0
M  V30 2872 H 269.149 -4.60006 -1.53372 0
M  V30 2873 N 270.492 0.636531 -1.44174 0
M  V30 2874 C 271.769 1.39463 -1.37148 0
M  V30 2875 C 272.149 2.11082 -0.027507 0
M  V30 2876 O 271.497 2.05954 0.989716 0
M  V30 2877 C 271.707 2.36552 -2.56601 0
M  V30 2878 C 273.055 3.00048 -3.00427 0
M  V30 2879 O 274.079 2.46878 -2.56767 0
M  V30 2880 O 272.938 3.96488 -3.76111 0
M  V30 2881 H 270.032 0.623903 -0.542839 0
M  V30 2882 H 272.578 0.662039 -1.56253 0
M  V30 2883 H 271.35 1.82692 -3.46034 0
M  V30 2884 H 270.973 3.17236 -2.39681 0
M  V30 2885 N 271.97 1.30982 0.876444 0
M  V30 2886 C 272.918 1.18006 2.00443 0
M  V30 2887 C 273.912 0.0898871 1.69161 0
M  V30 2888 O 275.118 0.251333 1.78237 0
M  V30 2889 H 271.493 0.365196 0.65737 0
M  V30 2890 H 273.464 2.13453 2.0852 0
M  V30 2891 C 272.213 0.897521 3.35916 0
M  V30 2892 H 271.536 1.7285 3.60504 0
M  V30 2893 H 272.976 0.846874 4.15456 0
M  V30 2894 C 271.435 -0.399674 3.34521 0
M  V30 2895 O 271.965 -1.41852 3.7582 0
M  V30 2896 N 270.171 -0.413893 2.87637 0
M  V30 2897 H 269.718 0.41571 2.54224 0
M  V30 2898 H 269.676 -1.28175 2.87086 0
M  V30 2899 N 273.449 -1.08991 1.13837 0
M  V30 2900 C 274.381 -2.15606 0.777612 0
M  V30 2901 C 275.394 -1.61533 -0.202739 0
M  V30 2902 O 276.583 -1.78491 0.0181055 0
M  V30 2903 C 273.683 -3.3864 0.132623 0
M  V30 2904 C 272.856 -4.22115 1.1462 0
M  V30 2905 C 271.915 -5.23564 0.526074 0
M  V30 2906 O 270.941 -5.56678 1.18735 0
M  V30 2907 N 272.143 -5.76266 -0.699866 0
M  V30 2908 H 274.908 -2.47159 1.69506 0
M  V30 2909 H 272.469 -1.24747 1.03198 0
M  V30 2910 H 274.461 -4.03626 -0.29459 0
M  V30 2911 H 273.031 -3.04938 -0.687849 0
M  V30 2912 H 272.251 -3.53199 1.75055 0
M  V30 2913 H 273.539 -4.74709 1.83109 0
M  V30 2914 H 272.937 -5.51585 -1.25581 0
M  V30 2915 H 271.494 -6.42963 -1.06968 0
M  V30 2916 N 274.927 -0.932562 -1.27047 0
M  V30 2917 C 276.155 -0.592031 -1.98249 0
M  V30 2918 C 276.57 0.831062 -1.69525 0
M  V30 2919 O 275.927 1.55299 -0.958561 0
M  V30 2920 C 275.978 -0.814279 -3.5221 0
M  V30 2921 O 275.699 -2.18139 -3.7993 0
M  V30 2922 C 277.2 -0.483121 -4.4066 0
M  V30 2923 H 274.42 -0.223896 -0.632544 0
M  V30 2924 H 276.964 -1.25091 -1.61779 0
M  V30 2925 H 275.119 -0.20213 -3.86872 0
M  V30 2926 H 275.533 -2.235 -4.74498 0
M  V30 2927 H 277.007 -0.689298 -5.47679 0
M  V30 2928 H 277.484 0.581546 -4.35333 0
M  V30 2929 H 278.09 -1.07362 -4.11526 0
M  V30 2930 N 276.405 1.4127 -0.698611 0
M  V30 2931 C 277.335 2.33447 -0.049629 0
M  V30 2932 C 278.316 1.51982 0.763898 0
M  V30 2933 O 279.501 1.80509 0.716257 0
M  V30 2934 C 276.631 3.35828 0.885267 0
M  V30 2935 C 275.585 4.27627 0.178613 0
M  V30 2936 C 274.911 5.20406 1.22807 0
M  V30 2937 C 276.211 5.13459 -0.956933 0
M  V30 2938 H 277.905 2.87966 -0.81951 0
M  V30 2939 H 275.451 1.38461 -0.395538 0
M  V30 2940 H 277.404 3.9924 1.34854 0
M  V30 2941 H 276.128 2.79666 1.68685 0
M  V30 2942 H 274.787 3.65643 -0.26466 0
M  V30 2943 H 274.435 4.60558 2.02226 0
M  V30 2944 H 274.135 5.82661 0.760239 0
M  V30 2945 H 275.659 5.86695 1.69179 0
M  V30 2946 H 277.073 5.70421 -0.573805 0
M  V30 2947 H 275.47 5.8467 -1.35205 0
M  V30 2948 H 276.54 4.50443 -1.79524 0
M  V30 2949 N 277.883 0.443576 1.51229 0
M  V30 2950 C 278.793 -0.370721 2.31652 0
M  V30 2951 C 279.809 -1.02186 1.40833 0
M  V30 2952 O 280.985 -1.01586 1.73903 0
M  V30 2953 C 278.05 -1.45376 3.14749 0
M  V30 2954 C 277.111 -0.822099 4.21355 0
M  V30 2955 C 276.344 -1.85353 5.0048 0
M  V30 2956 O 276.567 -3.07656 4.80316 0
M  V30 2957 O 275.501 -1.4406 5.84406 0
M  V30 2958 H 279.327 0.286002 3.0235 0
M  V30 2959 H 276.912 0.20598 1.47973 0
M  V30 2960 H 278.794 -2.08173 3.66391 0
M  V30 2961 H 277.469 -2.09445 2.46809 0
M  V30 2962 H 276.376 -0.155909 3.73775 0
M  V30 2963 H 277.709 -0.224797 4.91686 0
M  V30 2964 N 279.361 -1.56624 0.175154 0
M  V30 2965 C 280.293 -2.15333 -0.785128 0
M  V30 2966 C 281.306 -1.1099 -1.19101 0
M  V30 2967 O 282.495 -1.38162 -1.13019 0
M  V30 2968 C 279.595 -2.68427 -2.06882 0
M  V30 2969 C 278.768 -3.97466 -1.8259 0
M  V30 2970 C 277.827 -4.35585 -2.95215 0
M  V30 2971 O 276.853 -5.03389 -2.65684 0
M  V30 2972 N 278.055 -3.97457 -4.23094 0
M  V30 2973 H 280.82 -2.98359 -0.283187 0
M  V30 2974 H 278.381 -1.61898 -0.00749817 0
M  V30 2975 H 280.373 -2.90924 -2.81328 0
M  V30 2976 H 278.943 -1.89968 -2.48256 0
M  V30 2977 H 278.163 -3.83307 -0.920287 0
M  V30 2978 H 279.451 -4.81736 -1.63733 0
M  V30 2979 H 278.849 -3.42878 -4.49945 0
M  V30 2980 H 277.406 -4.24947 -4.9423 0
M  V30 2981 N 280.839 0.0985539 -1.57292 0
M  V30 2982 C 282.085 0.798769 -1.87059 0
M  V30 2983 C 282.44 1.76514 -0.76555 0
M  V30 2984 O 281.733 1.90181 0.232752 0
M  V30 2985 C 281.927 1.56927 -3.21105 0
M  V30 2986 C 281.756 0.679026 -4.44544 0
M  V30 2987 C 280.526 0.326071 -5.04247 0
M  V30 2988 C 282.724 -0.0124715 -5.14298 0
M  V30 2989 N 280.706 -0.572702 -6.11223 0
M  V30 2990 C 282.077 -0.769446 -6.15207 0
M  V30 2991 C 284.132 -0.0867545 -4.97824 0
M  V30 2992 C 282.835 -1.59376 -7.01421 0
M  V30 2993 C 284.861 -0.897955 -5.84543 0
M  V30 2994 C 284.223 -1.64306 -6.84969 0
M  V30 2995 H 280.322 0.268568 -0.734435 0
M  V30 2996 H 282.906 0.0614664 -1.94603 0
M  V30 2997 H 281.077 2.27748 -3.1462 0
M  V30 2998 H 282.809 2.21641 -3.38611 0
M  V30 2999 H 279.564 0.67295 -4.68795 0
M  V30 3000 H 279.988 -1.01454 -6.69355 0
M  V30 3001 H 284.63 0.474963 -4.20124 0
M  V30 3002 H 282.348 -2.16655 -7.78515 0
M  V30 3003 H 285.934 -0.958059 -5.73858 0
M  V30 3004 H 284.814 -2.26065 -7.50909 0
M  V30 3005 N 282.317 1.53212 0.369288 0
M  V30 3006 C 283.264 1.79388 1.45219 0
M  V30 3007 C 284.234 0.638059 1.53356 0
M  V30 3008 O 285.419 0.879852 1.69302 0
M  V30 3009 C 282.559 1.98623 2.82211 0
M  V30 3010 C 281.672 3.26337 2.8307 0
M  V30 3011 C 280.807 3.35779 4.11614 0
M  V30 3012 C 279.846 4.5754 4.06601 0
M  V30 3013 N 278.983 4.64155 5.26787 0
M  V30 3014 H 283.823 2.71794 1.22198 0
M  V30 3015 H 281.36 1.34642 0.592444 0
M  V30 3016 H 283.318 2.07761 3.61789 0
M  V30 3017 H 281.948 1.09558 3.03639 0
M  V30 3018 H 281 3.26171 1.95747 0
M  V30 3019 H 282.312 4.15988 2.75237 0
M  V30 3020 H 281.466 3.44208 4.99606 0
M  V30 3021 H 280.205 2.44137 4.22195 0
M  V30 3022 H 279.21 4.49215 3.16996 0
M  V30 3023 H 280.435 5.50519 3.97625 0
M  V30 3024 H 278.381 3.75413 5.3796 0
M  V30 3025 H 278.298 5.47706 5.21109 0
M  V30 3026 H 279.566 4.76863 6.16621 0
M  V30 3027 N 283.795 -0.628877 1.44509 0
M  V30 3028 C 285.023 -1.41554 1.50897 0
M  V30 3029 C 285.438 -1.8832 0.134564 0
M  V30 3030 O 284.795 -1.60969 -0.859965 0
M  V30 3031 C 284.846 -2.63435 2.47556 0
M  V30 3032 O 284.567 -2.18619 3.79654 0
M  V30 3033 C 286.068 -3.56537 2.63431 0
M  V30 3034 H 283.288 -0.434044 0.511709 0
M  V30 3035 H 285.832 -0.768895 1.89495 0
M  V30 3036 H 283.987 -3.24187 2.12089 0
M  V30 3037 H 284.401 -2.97652 4.31861 0
M  V30 3038 H 285.875 -4.38657 3.35088 0
M  V30 3039 H 286.352 -4.05493 1.68738 0
M  V30 3040 H 286.958 -3.01653 2.9981 0
M  V30 3041 N 285.273 -1.31445 -0.869486 0
M  V30 3042 C 286.205 -1.14955 -1.98287 0
M  V30 3043 C 287.218 -0.0885037 -1.62559 0
M  V30 3044 O 288.407 -0.336044 -1.75308 0
M  V30 3045 C 285.507 -0.734255 -3.3085 0
M  V30 3046 C 284.68 -1.88042 -3.94917 0
M  V30 3047 C 283.739 -1.4511 -5.05796 0
M  V30 3048 O 282.765 -2.16082 -5.2659 0
M  V30 3049 N 283.967 -0.338763 -5.79511 0
M  V30 3050 H 286.732 -2.10856 -2.12979 0
M  V30 3051 H 284.293 -1.23786 -1.04349 0
M  V30 3052 H 286.285 -0.42975 -4.02412 0
M  V30 3053 H 284.855 0.133158 -3.12316 0
M  V30 3054 H 284.075 -2.35222 -3.1633 0
M  V30 3055 H 285.363 -2.6481 -4.34457 0
M  V30 3056 H 284.761 0.252274 -5.65137 0
M  V30 3057 H 283.318 -0.0937925 -6.51733 0
M  V30 3058 N 286.751 1.08385 -1.14413 0
M  V30 3059 C 287.999 1.80419 -0.910679 0
M  V30 3060 C 288.32 1.86658 0.564243 0
M  V30 3061 O 287.59 1.35985 1.41014 0
M  V30 3062 H 286.17 0.668204 -0.333934 0
M  V30 3063 H 288.832 1.31037 -1.44275 0
M  V30 3064 H 287.928 2.83238 -1.31082 0
M  V30 3065 N 288.23 0.939286 1.26551 0
M  V30 3066 C 289.178 0.43815 2.28436 0
M  V30 3067 C 290.172 -0.483587 1.62351 0
M  V30 3068 O 291.378 -0.362009 1.76322 0
M  V30 3069 H 287.753 0.123149 0.741848 0
M  V30 3070 H 289.724 1.31002 2.68106 0
M  V30 3071 C 288.473 -0.283052 3.46546 0
M  V30 3072 H 287.796 0.417043 3.97619 0
M  V30 3073 H 289.236 -0.597948 4.19763 0
M  V30 3074 C 287.695 -1.50018 3.01656 0
M  V30 3075 O 288.225 -2.59855 3.0633 0
M  V30 3076 N 286.431 -1.35608 2.57019 0
M  V30 3077 H 285.978 -0.46244 2.53415 0
M  V30 3078 H 285.936 -2.17165 2.27347 0
M  V30 3079 N 289.708 -1.40897 0.706093 0
M  V30 3080 C 290.954 -2.01352 0.241889 0
M  V30 3081 C 291.287 -1.55832 -1.15888 0
M  V30 3082 O 290.562 -0.774145 -1.7843 0
M  V30 3083 C 290.845 -3.58752 0.311311 0
M  V30 3084 C 290.698 -4.1437 1.74978 0
M  V30 3085 C 292.017 -4.38914 -0.322922 0
M  V30 3086 H 289.136 -0.731562 0.0893687 0
M  V30 3087 H 291.778 -1.67504 0.896802 0
M  V30 3088 H 289.928 -3.87718 -0.246302 0
M  V30 3089 H 291.6 -3.96239 2.36205 0
M  V30 3090 H 289.843 -3.69016 2.28057 0
M  V30 3091 H 290.514 -5.23532 1.74981 0
M  V30 3092 H 292.99 -4.15822 0.152089 0
M  V30 3093 H 291.866 -5.48358 -0.243855 0
M  V30 3094 H 292.127 -4.19176 -1.40513 0
M  V30 3095 N 291.186 -0.45159 -1.50991 0
M  V30 3096 C 292.411 0.110667 -2.07105 0
M  V30 3097 C 292.836 1.3446 -1.31538 0
M  V30 3098 O 292.194 1.77743 -0.357365 0
M  V30 3099 C 292.242 0.397238 -3.58405 0
M  V30 3100 O 291.346 1.48124 -3.84881 0
M  V30 3101 H 290.687 -0.00439271 -0.663985 0
M  V30 3102 H 293.217 -0.637026 -1.9443 0
M  V30 3103 H 293.227 0.64351 -4.02893 0
M  V30 3104 H 291.902 -0.504553 -4.12828 0
M  V30 3105 H 290.479 1.22381 -3.52246 0
M  V30 3106 N 292.664 1.56529 -0.183458 0
M  V30 3107 C 293.911 1.97244 0.458357 0
M  V30 3108 C 294.239 1.06992 1.62428 0
M  V30 3109 O 293.494 0.106542 1.9541 0
M  V30 3110 C 293.793 3.43939 0.971637 0
M  V30 3111 C 293.459 4.5083 -0.0796784 0
M  V30 3112 C 292.121 4.79786 -0.368584 0
M  V30 3113 C 294.473 5.15138 -0.792638 0
M  V30 3114 C 291.801 5.70345 -1.37563 0
M  V30 3115 C 294.153 6.06784 -1.78875 0
M  V30 3116 C 292.817 6.34102 -2.08497 0
M  V30 3117 H 292.087 0.721768 0.167725 0
M  V30 3118 H 294.734 1.89472 -0.277976 0
M  V30 3119 H 293.039 3.48724 1.78602 0
M  V30 3120 H 294.736 3.72791 1.47744 0
M  V30 3121 H 291.326 4.28317 0.155668 0
M  V30 3122 H 295.51 4.92868 -0.582659 0
M  V30 3123 H 290.766 5.89789 -1.61118 0
M  V30 3124 H 294.94 6.55677 -2.3465 0
M  V30 3125 H 292.567 7.04074 -2.86678 0
M  V30 3126 N 294.142 -0.090211 1.57342 0
M  V30 3127 C 295.367 -0.810082 1.90925 0
M  V30 3128 C 295.792 -1.71248 0.778187 0
M  V30 3129 O 295.15 -1.79278 -0.269991 0
M  V30 3130 C 295.198 -1.59529 3.23393 0
M  V30 3131 O 294.302 -2.70461 3.11327 0
M  V30 3132 H 293.643 -0.222231 0.625707 0
M  V30 3133 H 296.173 -0.0639716 2.045 0
M  V30 3134 H 296.183 -1.97847 3.5682 0
M  V30 3135 H 294.858 -0.933055 4.05299 0
M  V30 3136 H 293.435 -2.35135 2.89423 0
M  V30 3137 N 295.62 -1.53406 -0.361157 0
M  V30 3138 C 296.866 -1.70054 -1.10496 0
M  V30 3139 C 297.199 -0.453278 -1.88836 0
M  V30 3140 O 296.474 0.5495 -1.86576 0
M  V30 3141 C 296.757 -2.95317 -2.06058 0
M  V30 3142 C 296.61 -4.3021 -1.31298 0
M  V30 3143 C 297.929 -3.16193 -3.06121 0
M  V30 3144 H 295.048 -0.618799 -0.400321 0
M  V30 3145 H 297.69 -1.86052 -0.385318 0
M  V30 3146 H 295.84 -2.81809 -2.67425 0
M  V30 3147 H 297.512 -4.55538 -0.726807 0
M  V30 3148 H 295.755 -4.29421 -0.614853 0
M  V30 3149 H 296.426 -5.14 -2.01265 0
M  V30 3150 H 298.902 -3.28916 -2.5486 0
M  V30 3151 H 297.778 -4.05266 -3.70204 0
M  V30 3152 H 298.039 -2.31676 -3.76535 0
M  V30 3153 N 297.098 0.621204 -1.44841 0
M  V30 3154 C 298.326 1.40752 -1.51646 0
M  V30 3155 C 298.741 1.88246 -0.144549 0
M  V30 3156 O 298.098 1.61422 0.851416 0
M  V30 3157 C 298.149 2.62119 -2.4895 0
M  V30 3158 O 297.87 2.16602 -3.80808 0
M  V30 3159 C 299.371 3.55135 -2.65319 0
M  V30 3160 H 296.591 0.431325 -0.514004 0
M  V30 3161 H 299.135 0.758835 -1.899 0
M  V30 3162 H 297.29 3.23058 -2.13805 0
M  V30 3163 H 297.704 2.95358 -4.33433 0
M  V30 3164 H 299.178 4.36874 -3.37409 0
M  V30 3165 H 299.655 4.04592 -1.70886 0
M  V30 3166 H 300.261 3.00058 -3.01405 0
M  V30 3167 N 298.576 1.31904 0.862503 0
M  V30 3168 C 299.992 1.10724 1.14945 0
M  V30 3169 C 300.192 -0.117421 2.01158 0
M  V30 3170 O 299.248 -0.804595 2.39338 0
M  V30 3171 C 300.561 2.38267 1.83437 0
M  V30 3172 C 302.109 2.43949 1.96106 0
M  V30 3173 C 302.584 3.71394 2.68013 0
M  V30 3174 N 304.075 3.72331 2.75543 0
M  V30 3175 C 304.81 4.67641 3.31812 0
M  V30 3176 N 304.306 5.73313 3.88953 0
M  V30 3177 N 306.099 4.5515 3.29841 0
M  V30 3178 H 298.25 2.10436 0.288191 0
M  V30 3179 H 300.513 0.928705 0.190292 0
M  V30 3180 H 300.219 3.27759 1.27542 0
M  V30 3181 H 300.093 2.48633 2.83657 0
M  V30 3182 H 302.48 1.54922 2.51164 0
M  V30 3183 H 302.561 2.37543 0.949059 0
M  V30 3184 H 302.205 4.60791 2.13621 0
M  V30 3185 H 302.135 3.75069 3.69636 0
M  V30 3186 H 304.626 2.95947 2.34997 0
M  V30 3187 H 304.939 6.42107 4.30022 0
M  V30 3188 H 303.284 5.77077 3.87308 0
M  V30 3189 H 306.475 3.71766 2.84443 0
M  V30 3190 H 306.648 5.29604 3.73394 0
M  V30 3191 N 300.054 -1.07777 1.14986 0
M  V30 3192 C 301.465 -1.61766 0.932127 0
M  V30 3193 C 301.816 -1.88974 -0.527581 0
M  V30 3194 O 300.941 -1.65198 -1.39781 0
M  V30 3195 C 301.536 -2.93891 1.68563 0
M  V30 3196 C 300.095 -3.44639 1.5133 0
M  V30 3197 C 299.242 -2.18767 1.704 0
M  V30 3198 H 302.193 -0.909201 1.30074 0
M  V30 3199 H 302.214 -3.62623 1.15259 0
M  V30 3200 H 301.726 -2.74057 2.74799 0
M  V30 3201 H 299.827 -3.69564 0.474702 0
M  V30 3202 H 299.94 -4.20966 2.28746 0
M  V30 3203 H 298.304 -2.28253 1.13016 0
M  V30 3204 H 299.087 -2.01433 2.77992 0
M  V30 3205 N 301.532 -0.945985 -1.26051 0
M  V30 3206 C 302.442 -0.465633 -2.29933 0
M  V30 3207 C 303.458 0.462761 -1.67733 0
M  V30 3208 O 304.634 0.341118 -1.9849 0
M  V30 3209 C 301.699 0.256994 -3.45746 0
M  V30 3210 C 300.76 -0.708549 -4.23412 0
M  V30 3211 C 299.993 -0.0203135 -5.33696 0
M  V30 3212 O 300.216 1.19571 -5.57726 0
M  V30 3213 O 299.15 -0.701459 -5.97799 0
M  V30 3214 H 302.976 -1.32866 -2.73094 0
M  V30 3215 H 300.561 -0.712071 -1.31339 0
M  V30 3216 H 302.443 0.663852 -4.16138 0
M  V30 3217 H 301.118 1.09533 -3.04605 0
M  V30 3218 H 300.025 -1.16545 -3.55483 0
M  V30 3219 H 301.358 -1.51465 -4.68315 0
M  V30 3220 N 303.011 1.40521 -0.713556 0
M  V30 3221 C 303.961 2.27971 -0.036165 0
M  V30 3222 C 304.945 1.43151 0.734623 0
M  V30 3223 O 306.137 1.66261 0.607158 0
M  V30 3224 C 303.266 3.31661 0.886331 0
M  V30 3225 C 302.352 4.23955 0.110836 0
M  V30 3226 N 302.743 4.97641 -0.904847 0
M  V30 3227 C 301.041 4.44674 0.343692 0
M  V30 3228 C 301.742 5.65322 -1.37064 0
M  V30 3229 N 300.718 5.39162 -0.693168 0
M  V30 3230 H 304.52 2.82384 -0.814645 0
M  V30 3231 H 302.034 1.52948 -0.545963 0
M  V30 3232 H 304.031 3.93154 1.38692 0
M  V30 3233 H 302.691 2.78808 1.66421 0
M  V30 3234 H 303.702 5.01689 -1.28563 0
M  V30 3235 H 300.379 4.02801 1.09805 0
M  V30 3236 H 301.769 6.34359 -2.21447 0
M  V30 3237 N 304.489 0.459591 1.5075 0
M  V30 3238 C 305.437 -0.354678 2.2988 0
M  V30 3239 C 306.431 -1.00086 1.36672 0
M  V30 3240 O 307.637 -0.933277 1.53915 0
M  V30 3241 H 304.012 -0.13321 0.740107 0
M  V30 3242 H 305.983 0.333269 2.96533 0
M  V30 3243 C 304.732 -1.43073 3.169 0
M  V30 3244 H 304.055 -0.942882 3.88523 0
M  V30 3245 H 305.495 -1.97328 3.75284 0
M  V30 3246 C 303.954 -2.42633 2.33732 0
M  V30 3247 O 304.484 -3.47658 2.01238 0
M  V30 3248 N 302.69 -2.14066 1.9653 0
M  V30 3249 H 302.237 -1.28685 2.23155 0
M  V30 3250 H 302.195 -2.80917 1.41185 0
M  V30 3251 N 305.967 -1.56429 0.191757 0
M  V30 3252 C 307.216 -1.9666 -0.448088 0
M  V30 3253 C 307.529 -1.08136 -1.62991 0
M  V30 3254 O 308.735 -1.38135 -2.33733 0
M  V30 3255 C 307.191 -3.49753 -0.848585 0
M  V30 3256 C 306.799 -4.46935 0.308764 0
M  V30 3257 C 308.543 -3.9876 -1.4557 0
M  V30 3258 C 306.45 -5.91293 -0.112506 0
M  V30 3259 H 305.38 -0.734312 -0.171179 0
M  V30 3260 H 308.031 -1.81301 0.283242 0
M  V30 3261 H 306.413 -3.60604 -1.63649 0
M  V30 3262 H 307.587 -4.47813 1.08627 0
M  V30 3263 H 305.902 -4.08102 0.827158 0
M  V30 3264 H 308.499 -5.04086 -1.78328 0
M  V30 3265 H 308.842 -3.42875 -2.36099 0
M  V30 3266 H 309.375 -3.9101 -0.731836 0
M  V30 3267 H 306.114 -6.51097 0.758514 0
M  V30 3268 H 305.634 -5.93676 -0.854941 0
M  V30 3269 H 307.313 -6.44663 -0.549448 0
M  V30 3270 N 307.445 0.0818655 -1.57387 0
M  V30 3271 C 308.408 1.08265 -2.02018 0
M  V30 3272 C 309.408 1.32183 -0.915664 0
M  V30 3273 O 310.598 1.28073 -1.18081 0
M  V30 3274 C 307.73 2.42871 -2.39221 0
M  V30 3275 H 308.923 0.698204 -2.91659 0
M  V30 3276 H 306.476 0.327303 -1.52835 0
M  V30 3277 H 307.211 2.86167 -1.52575 0
M  V30 3278 H 306.996 2.26855 -3.19811 0
M  V30 3279 H 308.486 3.14826 -2.74362 0
M  V30 3280 N 308.923 1.53595 0.353017 0
M  V30 3281 C 310.172 1.69603 1.09168 0
M  V30 3282 C 310.485 0.460925 1.90092 0
M  V30 3283 O 311.691 0.501774 2.66823 0
M  V30 3284 C 310.147 2.99872 1.9901 0
M  V30 3285 C 309.755 4.30687 1.23339 0
M  V30 3286 C 311.499 3.25246 2.72792 0
M  V30 3287 C 309.406 5.52036 2.12156 0
M  V30 3288 H 308.336 0.631966 0.411261 0
M  V30 3289 H 310.987 1.80096 0.351802 0
M  V30 3290 H 309.369 2.83212 2.7678 0
M  V30 3291 H 310.543 4.58019 0.505456 0
M  V30 3292 H 308.858 4.11853 0.613663 0
M  V30 3293 H 311.455 4.13095 3.39495 0
M  V30 3294 H 311.798 2.41846 3.38846 0
M  V30 3295 H 312.331 3.42638 2.021 0
M  V30 3296 H 309.07 6.37951 1.50659 0
M  V30 3297 H 308.59 5.28966 2.82764 0
M  V30 3298 H 310.269 5.87313 2.71427 0
M  V30 3299 N 310.401 -0.613514 1.45168 0
M  V30 3300 C 311.626 -1.40437 1.52618 0
M  V30 3301 C 312.051 -1.87438 0.157707 0
M  V30 3302 O 311.409 -1.59791 -0.856537 0
M  V30 3303 C 311.457 -2.58894 2.51011 0
M  V30 3304 O 310.561 -3.59326 2.02382 0
M  V30 3305 H 309.902 -0.419506 0.514695 0
M  V30 3306 H 312.432 -0.747215 1.90467 0
M  V30 3307 H 312.442 -3.06214 2.69624 0
M  V30 3308 H 311.117 -2.24032 3.50403 0
M  V30 3309 H 309.694 -3.18695 1.93618 0
M  V30 3310 N 311.879 -1.3236 -0.855495 0
M  V30 3311 C 313.125 -1.24064 -1.61182 0
M  V30 3312 C 313.48 0.195914 -1.914 0
M  V30 3313 O 312.773 1.13345 -1.54478 0
M  V30 3314 C 312.967 -2.03275 -2.93963 0
M  V30 3315 C 312.796 -3.54486 -2.76712 0
M  V30 3316 C 311.566 -4.23824 -2.75139 0
M  V30 3317 C 313.764 -4.49154 -2.50531 0
M  V30 3318 N 311.746 -5.61095 -2.4909 0
M  V30 3319 C 313.117 -5.74195 -2.3388 0
M  V30 3320 C 315.172 -4.3842 -2.35992 0
M  V30 3321 C 313.875 -6.89716 -2.04168 0
M  V30 3322 C 315.901 -5.53739 -2.0767 0
M  V30 3323 C 315.263 -6.77779 -1.9182 0
M  V30 3324 H 311.362 -0.509139 -0.59355 0
M  V30 3325 H 313.946 -1.66715 -1.00569 0
M  V30 3326 H 312.117 -1.6297 -3.52555 0
M  V30 3327 H 313.849 -1.86881 -3.58967 0
M  V30 3328 H 310.604 -3.75934 -2.88047 0
M  V30 3329 H 311.028 -6.33411 -2.38996 0
M  V30 3330 H 315.67 -3.43172 -2.46967 0
M  V30 3331 H 313.388 -7.84977 -1.9193 0
M  V30 3332 H 316.974 -5.4736 -1.97201 0
M  V30 3333 H 315.854 -7.65504 -1.70217 0
M  V30 3334 N 313.357 1.07166 -1.15556 0
M  V30 3335 C 314.768 1.6127 -0.940693 0
M  V30 3336 C 315.119 1.89251 0.517551 0
M  V30 3337 O 314.244 1.65937 1.38903 0
M  V30 3338 C 314.839 2.92993 -1.7012 0
M  V30 3339 C 313.398 3.43832 -1.53156 0
M  V30 3340 C 312.545 2.1786 -1.71558 0
M  V30 3341 H 315.496 0.90229 -1.30554 0
M  V30 3342 H 315.517 3.62007 -1.17181 0
M  V30 3343 H 315.029 2.72596 -2.76248 0
M  V30 3344 H 313.13 3.69307 -0.494294 0
M  V30 3345 H 313.243 4.19747 -2.30975 0
M  V30 3346 H 311.607 2.2765 -1.14225 0
M  V30 3347 H 312.39 1.99956 -2.79056 0
M  V30 3348 N 314.835 0.952656 1.25548 0
M  V30 3349 C 316.06 0.623025 1.97821 0
M  V30 3350 C 316.485 -0.7976 1.70352 0
M  V30 3351 O 315.843 -1.53905 0.958283 0
M  V30 3352 C 315.891 0.885532 3.49558 0
M  V30 3353 O 314.995 -0.0366641 4.12384 0
M  V30 3354 H 314.336 0.237082 0.620232 0
M  V30 3355 H 316.866 1.27871 1.59719 0
M  V30 3356 H 316.876 0.811009 3.99858 0
M  V30 3357 H 315.551 1.92094 3.6888 0
M  V30 3358 H 314.128 0.0898954 3.72792 0
M  V30 3359 N 316.313 -1.40141 0.720998 0
M  V30 3360 C 317.559 -2.01084 0.263231 0
M  V30 3361 C 317.892 -1.57052 -1.14229 0
M  V30 3362 O 317.167 -0.793027 -1.77599 0
M  V30 3363 C 317.45 -3.58401 0.349344 0
M  V30 3364 C 317.303 -4.12491 1.79363 0
M  V30 3365 C 318.622 -4.39231 -0.276351 0
M  V30 3366 H 315.741 -0.730572 0.0971228 0
M  V30 3367 H 318.383 -1.66543 0.914518 0
M  V30 3368 H 316.533 -3.87958 -0.205165 0
M  V30 3369 H 318.205 -3.93711 2.40394 0
M  V30 3370 H 316.448 -3.66576 2.31958 0
M  V30 3371 H 317.119 -5.21646 1.80524 0
M  V30 3372 H 319.595 -4.15637 0.196184 0
M  V30 3373 H 318.471 -5.48586 -0.185681 0
M  V30 3374 H 318.732 -4.20643 -1.36059 0
M  V30 3375 N 317.792 -0.46758 -1.50504 0
M  V30 3376 C 319.017 0.0886943 -2.0721 0
M  V30 3377 C 319.442 1.33057 -1.32956 0
M  V30 3378 O 318.8 1.77354 -0.376197 0
M  V30 3379 C 318.848 0.359202 -3.58806 0
M  V30 3380 O 317.952 1.44034 -3.8643 0
M  V30 3381 H 317.293 -0.0114349 -0.663902 0
M  V30 3382 H 319.823 -0.657613 -1.93744 0
M  V30 3383 H 319.833 0.600742 -4.03553 0
M  V30 3384 H 318.508 -0.548311 -4.1227 0
M  V30 3385 H 317.085 1.18638 -3.53524 0
M  V30 3386 N 319.27 1.56325 -0.20005 0
M  V30 3387 C 320.5 2.01811 0.442232 0
M  V30 3388 C 320.908 1.07932 1.55394 0
M  V30 3389 O 320.251 0.0772685 1.83537 0
M  V30 3390 C 320.313 3.43685 1.05457 0
M  V30 3391 C 319.977 4.56928 0.0809833 0
M  V30 3392 C 320.974 5.15009 -0.711471 0
M  V30 3393 C 318.659 5.0229 -0.0315364 0
M  V30 3394 C 320.653 6.16904 -1.60336 0
M  V30 3395 C 318.34 6.04028 -0.926981 0
M  V30 3396 C 319.338 6.6121 -1.71146 0
M  V30 3397 O 319.026 7.60971 -2.59189 0
M  V30 3398 H 318.758 0.666173 0.114848 0
M  V30 3399 H 321.312 2.03085 -0.307511 0
M  V30 3400 H 319.542 3.39413 1.85299 0
M  V30 3401 H 321.231 3.72948 1.60201 0
M  V30 3402 H 321.997 4.80827 -0.634873 0
M  V30 3403 H 317.876 4.57476 0.568902 0
M  V30 3404 H 321.42 6.61464 -2.21611 0
M  V30 3405 H 317.317 6.37634 -1.00468 0
M  V30 3406 H 318.085 7.7841 -2.53023 0
M  V30 3407 N 320.748 -0.0735177 1.57428 0
M  V30 3408 C 321.695 -1.08756 2.0357 0
M  V30 3409 C 322.665 -1.38559 0.916 0
M  V30 3410 O 323.85 -1.49656 1.18354 0
M  V30 3411 C 320.99 -2.39657 2.48311 0
M  V30 3412 C 320.103 -2.16399 3.73892 0
M  V30 3413 C 319.238 -3.40852 4.07423 0
M  V30 3414 C 318.277 -3.1295 5.2605 0
M  V30 3415 N 317.414 -4.29729 5.55228 0
M  V30 3416 H 322.254 -0.687104 2.8997 0
M  V30 3417 H 319.791 -0.327709 1.43403 0
M  V30 3418 H 321.749 -3.16081 2.72303 0
M  V30 3419 H 320.379 -2.77508 1.64891 0
M  V30 3420 H 319.431 -1.30676 3.57251 0
M  V30 3421 H 320.743 -1.91788 4.60455 0
M  V30 3422 H 319.897 -4.25671 4.32306 0
M  V30 3423 H 318.636 -3.68537 3.19425 0
M  V30 3424 H 317.641 -2.26526 5.00965 0
M  V30 3425 H 318.866 -2.86589 6.15665 0
M  V30 3426 H 316.812 -4.57448 4.70188 0
M  V30 3427 H 316.729 -4.08385 6.36206 0
M  V30 3428 H 317.997 -5.1555 5.84661 0
M  V30 3429 N 322.226 -1.5378 -0.344866 0
M  V30 3430 C 323.189 -1.80981 -1.40637 0
M  V30 3431 C 324.189 -0.680816 -1.45676 0
M  V30 3432 O 325.379 -0.949095 -1.46075 0
M  V30 3433 C 322.511 -1.95063 -2.79577 0
M  V30 3434 H 323.704 -2.75803 -1.17783 0
M  V30 3435 H 321.257 -1.45173 -0.579181 0
M  V30 3436 H 321.992 -1.02379 -3.07716 0
M  V30 3437 H 321.777 -2.77198 -2.77315 0
M  V30 3438 H 323.267 -2.17629 -3.56409 0
M  V30 3439 N 323.704 0.605807 -1.45491 0
M  V30 3440 C 324.667 1.69836 -1.5391 0
M  V30 3441 C 325.667 1.55261 -0.418424 0
M  V30 3442 O 326.857 1.60296 -0.681965 0
M  V30 3443 C 323.989 3.09117 -1.43734 0
M  V30 3444 H 325.182 1.63738 -2.51257 0
M  V30 3445 H 322.735 0.821689 -1.32959 0
M  V30 3446 H 323.47 3.20791 -0.475788 0
M  V30 3447 H 323.255 3.21104 -2.25021 0
M  V30 3448 H 324.745 3.88696 -1.52661 0
M  V30 3449 N 325.182 1.32811 0.848464 0
M  V30 3450 C 326.114 1.18095 1.96433 0
M  V30 3451 C 327.127 0.114354 1.62398 0
M  V30 3452 O 328.316 0.363892 1.74751 0
M  V30 3453 C 325.416 0.786798 3.2964 0
M  V30 3454 C 324.589 1.943 3.91875 0
M  V30 3455 C 323.648 1.53138 5.03423 0
M  V30 3456 O 322.674 2.24432 5.23086 0
M  V30 3457 N 323.876 0.430915 5.78898 0
M  V30 3458 H 326.641 2.14218 2.09597 0
M  V30 3459 H 324.202 1.2543 1.02367 0
M  V30 3460 H 326.194 0.493715 4.01677 0
M  V30 3461 H 324.764 -0.0834541 3.12489 0
M  V30 3462 H 323.984 2.40224 3.12547 0
M  V30 3463 H 325.272 2.71689 4.30189 0
M  V30 3464 H 324.67 -0.162333 5.65467 0
M  V30 3465 H 323.227 0.197466 6.51501 0
M  V30 3466 N 326.66 -1.06551 1.16123 0
M  V30 3467 C 327.607 -2.13961 0.865414 0
M  V30 3468 C 328.577 -1.65066 -0.185055 0
M  V30 3469 O 329.762 -1.90732 -0.05083 0
M  V30 3470 C 326.902 -3.43113 0.369776 0
M  V30 3471 C 326.015 -4.05756 1.48276 0
M  V30 3472 C 325.15 -5.22773 0.942414 0
M  V30 3473 C 324.189 -5.77395 2.03179 0
M  V30 3474 N 323.326 -6.85731 1.50721 0
M  V30 3475 H 328.166 -2.38605 1.78527 0
M  V30 3476 H 325.703 -1.17072 0.890646 0
M  V30 3477 H 327.661 -4.17151 0.0640643 0
M  V30 3478 H 326.291 -3.18695 -0.513143 0
M  V30 3479 H 325.343 -3.29292 1.9045 0
M  V30 3480 H 326.655 -4.42351 2.30493 0
M  V30 3481 H 325.809 -6.03827 0.589729 0
M  V30 3482 H 324.548 -4.87618 0.0895191 0
M  V30 3483 H 323.553 -4.94981 2.3932 0
M  V30 3484 H 324.778 -6.14603 2.8886 0
M  V30 3485 H 322.724 -6.52499 0.676811 0
M  V30 3486 H 322.641 -7.21254 2.26557 0
M  V30 3487 H 323.909 -7.7047 1.18303 0
M  V30 3488 N 328.138 -0.959301 -1.25041 0
M  V30 3489 C 329.048 -0.489994 -2.29426 0
M  V30 3490 C 330.064 0.444944 -1.68215 0
M  V30 3491 O 331.24 0.320046 -1.98841 0
M  V30 3492 C 328.305 0.220309 -3.45999 0
M  V30 3493 C 327.366 -0.753418 -4.22637 0
M  V30 3494 C 326.599 -0.076918 -5.33645 0
M  V30 3495 O 326.822 1.13649 -5.58963 0
M  V30 3496 O 325.756 -0.764824 -5.97021 0
M  V30 3497 H 329.582 -1.35755 -2.71669 0
M  V30 3498 H 327.167 -0.725961 -1.30576 0
M  V30 3499 H 329.049 0.619677 -4.16819 0
M  V30 3500 H 327.724 1.06296 -3.0575 0
M  V30 3501 H 326.631 -1.20308 -3.54227 0
M  V30 3502 H 327.964 -1.56423 -4.66683 0
M  V30 3503 N 329.616 1.39756 -0.72842 0
M  V30 3504 C 330.864 2.00248 -0.272946 0
M  V30 3505 C 331.185 1.58077 1.14178 0
M  V30 3506 O 330.455 0.826014 1.77634 0
M  V30 3507 H 329.035 0.740554 -0.0979247 0
M  V30 3508 H 331.697 1.70903 -0.936912 0
M  V30 3509 H 330.793 3.10495 -0.316142 0
M  V30 3510 N 331.094 0.475555 1.50254 0
M  V30 3511 C 332.319 -0.0777042 2.07254 0
M  V30 3512 C 332.744 -1.3235 1.3366 0
M  V30 3513 O 332.102 -1.77152 0.385597 0
M  V30 3514 C 332.15 -0.340169 3.58992 0
M  V30 3515 O 331.254 -1.41982 3.87188 0
M  V30 3516 H 330.595 0.0149556 0.663832 0
M  V30 3517 H 333.125 0.667878 1.93392 0
M  V30 3518 H 333.135 -0.579332 4.03866 0
M  V30 3519 H 331.81 0.570167 4.11973 0
M  V30 3520 H 330.387 -1.16762 3.54148 0
M  V30 3521 N 332.573 -1.56217 0.208337 0
M  V30 3522 C 333.989 -1.58919 -0.14729 0
M  V30 3523 C 334.189 -1.22486 -1.59998 0
M  V30 3524 O 333.245 -0.953849 -2.3379 0
M  V30 3525 C 334.558 -3.00236 0.167048 0
M  V30 3526 C 336.106 -3.12813 0.108219 0
M  V30 3527 C 336.581 -4.56284 0.396049 0
M  V30 3528 N 338.072 -4.61912 0.345142 0
M  V30 3529 C 338.807 -5.70837 0.541523 0
M  V30 3530 N 338.303 -6.88178 0.798968 0
M  V30 3531 N 340.096 -5.60091 0.474867 0
M  V30 3532 H 332.247 -1.78177 1.15614 0
M  V30 3533 H 334.51 -0.827555 0.462446 0
M  V30 3534 H 334.216 -3.31499 1.1748 0
M  V30 3535 H 334.09 -3.7354 -0.524184 0
M  V30 3536 H 336.477 -2.81354 -0.890157 0
M  V30 3537 H 336.558 -2.41866 0.832729 0
M  V30 3538 H 336.202 -4.88458 1.3918 0
M  V30 3539 H 336.132 -5.25439 -0.349502 0
M  V30 3540 H 338.623 -3.77589 0.153316 0
M  V30 3541 H 338.936 -7.67095 0.93727 0
M  V30 3542 H 337.281 -6.89953 0.836013 0
M  V30 3543 H 340.472 -4.67297 0.274064 0
M  V30 3544 H 340.645 -6.44917 0.631326 0
M  V30 3545 N 334.051 0.0651679 -1.57465 0
M  V30 3546 C 335.001 1.0838 -2.00594 0
M  V30 3547 C 335.985 1.34106 -0.889071 0
M  V30 3548 O 337.177 1.34295 -1.15299 0
M  V30 3549 C 334.306 2.39565 -2.45894 0
M  V30 3550 C 333.392 2.17085 -3.64328 0
M  V30 3551 N 333.783 1.64553 -4.78285 0
M  V30 3552 C 332.081 2.4753 -3.71006 0
M  V30 3553 C 332.782 1.57042 -5.60101 0
M  V30 3554 N 331.758 2.03328 -5.04141 0
M  V30 3555 H 335.56 0.671062 -2.86136 0
M  V30 3556 H 333.074 0.27213 -1.60104 0
M  V30 3557 H 335.071 3.13308 -2.75034 0
M  V30 3558 H 333.731 2.81549 -1.61741 0
M  V30 3559 H 334.742 1.33323 -5.00445 0
M  V30 3560 H 331.419 2.92835 -2.9758 0
M  V30 3561 H 332.809 1.17223 -6.61595 0
M  V30 3562 N 335.529 1.53961 0.336706 0
M  V30 3563 C 336.476 1.82428 1.41381 0
M  V30 3564 C 337.446 0.670444 1.51968 0
M  V30 3565 O 338.631 0.915565 1.67398 0
M  V30 3566 C 335.771 2.04564 2.77934 0
M  V30 3567 C 334.884 3.32267 2.76084 0
M  V30 3568 C 334.019 3.44434 4.04399 0
M  V30 3569 C 333.058 4.66061 3.96804 0
M  V30 3570 N 332.195 4.75224 5.16823 0
M  V30 3571 H 337.035 2.74324 1.16405 0
M  V30 3572 H 334.572 1.35869 0.563752 0
M  V30 3573 H 336.53 2.15388 3.57301 0
M  V30 3574 H 335.16 1.15974 3.01247 0
M  V30 3575 H 334.212 3.3025 1.88784 0
M  V30 3576 H 335.524 4.21733 2.66351 0
M  V30 3577 H 334.678 3.54728 4.92192 0
M  V30 3578 H 333.417 2.53037 4.16921 0
M  V30 3579 H 332.422 4.55838 3.07396 0
M  V30 3580 H 333.647 5.58829 3.85858 0
M  V30 3581 H 331.593 3.86739 5.29876 0
M  V30 3582 H 331.51 5.58636 5.09374 0
M  V30 3583 H 332.778 4.89835 6.06367 0
M  V30 3584 N 337.007 -0.598083 1.45811 0
M  V30 3585 C 338.423 -0.919847 1.30426 0
M  V30 3586 C 338.623 -1.99759 0.264303 0
M  V30 3587 O 337.679 -2.50221 -0.338472 0
M  V30 3588 C 338.992 -1.35176 2.68603 0
M  V30 3589 C 340.54 -1.46546 2.76574 0
M  V30 3590 C 341.015 -1.9311 4.15298 0
M  V30 3591 N 342.506 -2.00328 4.1764 0
M  V30 3592 C 343.241 -2.37599 5.21856 0
M  V30 3593 N 342.737 -2.73771 6.36413 0
M  V30 3594 N 344.53 -2.38021 5.09218 0
M  V30 3595 H 336.681 0.114111 2.12093 0
M  V30 3596 H 338.944 -0.0116121 0.947929 0
M  V30 3597 H 338.65 -0.633969 3.45939 0
M  V30 3598 H 338.524 -2.3164 2.97696 0
M  V30 3599 H 340.911 -2.17415 1.99537 0
M  V30 3600 H 340.992 -0.483727 2.51185 0
M  V30 3601 H 340.636 -1.22824 4.92825 0
M  V30 3602 H 340.566 -2.92213 4.38086 0
M  V30 3603 H 343.057 -1.74925 3.34977 0
M  V30 3604 H 343.37 -3.0112 7.11721 0
M  V30 3605 H 341.715 -2.71445 6.39799 0
M  V30 3606 H 344.906 -2.09174 4.18765 0
M  V30 3607 H 345.079 -2.66741 5.90554 0
M  V30 3608 N 338.485 -1.33259 -0.841409 0
M  V30 3609 C 339.731 -1.25766 -1.59857 0
M  V30 3610 C 340.086 0.175602 -1.91597 0
M  V30 3611 O 339.379 1.117 -1.55672 0
M  V30 3612 C 339.573 -2.06381 -2.9179 0
M  V30 3613 C 339.402 -3.57401 -2.72937 0
M  V30 3614 C 338.172 -4.26718 -2.70628 0
M  V30 3615 C 340.37 -4.51786 -2.45753 0
M  V30 3616 N 338.352 -5.63705 -2.43125 0
M  V30 3617 C 339.723 -5.76643 -2.27777 0
M  V30 3618 C 341.778 -4.40898 -2.31329 0
M  V30 3619 C 340.481 -6.91842 -1.96841 0
M  V30 3620 C 342.507 -5.55911 -2.01786 0
M  V30 3621 C 341.869 -6.79776 -1.8462 0
M  V30 3622 H 337.968 -0.515406 -0.588117 0
M  V30 3623 H 340.552 -1.67772 -0.987955 0
M  V30 3624 H 338.723 -1.667 -3.50807 0
M  V30 3625 H 340.455 -1.90678 -3.56965 0
M  V30 3626 H 337.21 -3.78968 -2.84043 0
M  V30 3627 H 337.634 -6.35911 -2.32265 0
M  V30 3628 H 342.276 -3.45772 -2.43314 0
M  V30 3629 H 339.994 -7.86968 -1.83594 0
M  V30 3630 H 343.58 -5.49421 -1.91384 0
M  V30 3631 H 342.46 -7.67266 -1.62088 0
M  V30 3632 N 339.963 1.05934 -1.16686 0
M  V30 3633 C 340.926 2.11669 -0.879144 0
M  V30 3634 C 341.926 1.60294 0.127445 0
M  V30 3635 O 343.116 1.7389 -0.103865 0
M  V30 3636 C 340.248 3.39438 -0.315425 0
M  V30 3637 H 341.441 2.38626 -1.81653 0
M  V30 3638 H 338.994 1.22058 -0.976299 0
M  V30 3639 H 339.729 3.18132 0.629468 0
M  V30 3640 H 339.514 3.78034 -1.04079 0
M  V30 3641 H 341.004 4.17391 -0.132189 0
M  V30 3642 N 341.441 0.965919 1.2453 0
M  V30 3643 C 342.391 0.465731 2.23193 0
M  V30 3644 C 343.375 -0.451277 1.54442 0
M  V30 3645 O 344.567 -0.282489 1.74731 0
M  V30 3646 C 341.696 -0.244511 3.42428 0
M  V30 3647 C 340.782 0.691222 4.18429 0
M  V30 3648 N 341.173 1.82771 4.71623 0
M  V30 3649 C 339.471 0.501649 4.4317 0
M  V30 3650 C 340.172 2.41285 5.29298 0
M  V30 3651 N 339.148 1.69819 5.16394 0
M  V30 3652 H 342.95 1.33291 2.61937 0
M  V30 3653 H 340.464 0.824789 1.39896 0
M  V30 3654 H 342.461 -0.620056 4.12263 0
M  V30 3655 H 341.121 -1.10815 3.05205 0
M  V30 3656 H 342.132 2.20929 4.68413 0
M  V30 3657 H 338.809 -0.318177 4.16286 0
M  V30 3658 H 340.199 3.37181 5.8117 0
M  V30 3659 N 342.919 -1.39368 0.735821 0
M  V30 3660 C 344.165 -2.01272 0.293439 0
M  V30 3661 C 344.52 -1.57344 -1.10728 0
M  V30 3662 O 343.813 -0.792744 -1.74431 0
M  V30 3663 C 344.007 -3.5583 0.334651 0
M  V30 3664 C 343.836 -4.14764 1.73784 0
M  V30 3665 C 342.606 -4.47315 2.35026 0
M  V30 3666 C 344.804 -4.38246 2.69157 0
M  V30 3667 N 342.786 -4.91756 3.6749 0
M  V30 3668 C 344.157 -4.849 3.86357 0
M  V30 3669 C 346.212 -4.20315 2.66908 0
M  V30 3670 C 344.915 -5.15505 5.01645 0
M  V30 3671 C 346.941 -4.52033 3.8134 0
M  V30 3672 C 346.303 -4.98895 4.97276 0
M  V30 3673 H 342.402 -0.766756 0.153652 0
M  V30 3674 H 344.986 -1.69276 0.961967 0
M  V30 3675 H 343.157 -3.87212 -0.303527 0
M  V30 3676 H 344.889 -4.04503 -0.126358 0
M  V30 3677 H 341.644 -4.35143 1.86943 0
M  V30 3678 H 342.068 -5.18333 4.35499 0
M  V30 3679 H 346.71 -3.83287 1.78468 0
M  V30 3680 H 344.428 -5.51437 5.90713 0
M  V30 3681 H 348.014 -4.39781 3.80899 0
M  V30 3682 H 346.894 -5.22973 5.84353 0
M  V30 3683 N 344.397 -0.483516 -1.5 0
M  V30 3684 C 345.347 0.32306 -2.257 0
M  V30 3685 C 346.331 0.950755 -1.29805 0
M  V30 3686 O 347.523 0.861247 -1.54634 0
M  V30 3687 C 344.652 1.39724 -3.13579 0
M  V30 3688 C 343.738 0.776663 -4.16928 0
M  V30 3689 N 344.129 -0.1104 -5.0568 0
M  V30 3690 C 342.427 1.03922 -4.33724 0
M  V30 3691 C 343.128 -0.46387 -5.79848 0
M  V30 3692 N 342.104 0.163987 -5.43353 0
M  V30 3693 H 345.906 -0.360086 -2.91686 0
M  V30 3694 H 343.42 -0.298456 -1.59634 0
M  V30 3695 H 345.417 1.98837 -3.66428 0
M  V30 3696 H 344.077 2.08225 -2.49143 0
M  V30 3697 H 345.088 -0.480069 -5.1567 0
M  V30 3698 H 341.765 1.71829 -3.80501 0
M  V30 3699 H 343.155 -1.18854 -6.61304 0
M  V30 3700 N 345.875 1.56104 -0.216619 0
M  V30 3701 C 347.103 2.02563 0.421413 0
M  V30 3702 C 347.518 1.0965 1.53695 0
M  V30 3703 O 346.875 0.10521 1.82196 0
M  V30 3704 C 346.926 3.48584 0.957665 0
M  V30 3705 O 346.647 4.37953 -0.113389 0
M  V30 3706 C 348.148 4.10664 1.66943 0
M  V30 3707 H 345.368 0.662944 0.103665 0
M  V30 3708 H 347.912 2.01793 -0.331629 0
M  V30 3709 H 346.067 3.49985 1.661 0
M  V30 3710 H 346.481 5.23704 0.288932 0
M  V30 3711 H 347.955 5.14622 1.99671 0
M  V30 3712 H 348.432 3.55373 2.58083 0
M  V30 3713 H 349.038 4.13098 1.01142 0
M  V30 3714 N 347.353 -0.0568162 1.57498 0
M  V30 3715 C 348.601 -0.751617 1.87604 0
M  V30 3716 C 348.922 -1.77351 0.81066 0
M  V30 3717 O 348.192 -1.95254 -0.159018 0
M  V30 3718 H 346.772 -0.280583 0.692302 0
M  V30 3719 H 349.434 -0.0293483 1.94878 0
M  V30 3720 H 348.53 -1.25852 2.856 0
M  V30 3721 N 348.832 -1.54138 -0.328536 0
M  V30 3722 C 349.762 -1.86167 -1.40939 0
M  V30 3723 C 350.743 -0.718044 -1.54202 0
M  V30 3724 O 351.928 -0.971328 -1.68163 0
M  V30 3725 C 349.058 -2.08461 -2.77779 0
M  V30 3726 C 348.012 -3.24299 -2.7931 0
M  V30 3727 C 347.338 -3.31955 -4.19178 0
M  V30 3728 C 348.638 -4.62065 -2.43502 0
M  V30 3729 H 350.332 -2.76689 -1.14383 0
M  V30 3730 H 347.878 -1.33132 -0.548806 0
M  V30 3731 H 349.831 -2.29453 -3.53454 0
M  V30 3732 H 348.555 -1.14684 -3.05802 0
M  V30 3733 H 347.214 -3.03187 -2.0609 0
M  V30 3734 H 346.862 -2.35745 -4.44335 0
M  V30 3735 H 346.562 -4.09805 -4.2111 0
M  V30 3736 H 348.086 -3.55175 -4.96672 0
M  V30 3737 H 349.5 -4.8297 -3.08889 0
M  V30 3738 H 347.897 -5.42429 -2.56693 0
M  V30 3739 H 348.967 -4.64652 -1.38659 0
M  V30 3740 N 350.31 0.590341 -1.46126 0
M  V30 3741 C 351.273 1.68194 -1.55703 0
M  V30 3742 C 352.273 1.54808 -0.434868 0
M  V30 3743 O 353.463 1.59564 -0.698928 0
M  V30 3744 C 350.595 3.07575 -1.47005 0
M  V30 3745 H 351.788 1.61064 -2.52979 0
M  V30 3746 H 349.341 0.807541 -1.33823 0
M  V30 3747 H 350.076 3.20268 -0.509785 0
M  V30 3748 H 349.861 3.187 -2.28414 0
M  V30 3749 H 351.351 3.87055 -1.56776 0
M  V30 3750 N 351.788 1.33704 0.83433 0
M  V30 3751 C 352.718 1.26967 1.95963 0
M  V30 3752 C 353.699 0.149337 1.69443 0
M  V30 3753 O 354.884 0.339852 1.91203 0
M  V30 3754 C 352.014 1.01275 3.32206 0
M  V30 3755 C 350.968 2.09652 3.73136 0
M  V30 3756 C 350.294 1.69166 5.07235 0
M  V30 3757 C 351.594 3.51372 3.86439 0
M  V30 3758 H 353.288 2.2112 2.01857 0
M  V30 3759 H 350.834 1.06447 0.969793 0
M  V30 3760 H 352.787 0.952106 4.10503 0
M  V30 3761 H 351.511 0.0356203 3.26581 0
M  V30 3762 H 350.17 2.14766 2.97104 0
M  V30 3763 H 349.818 0.701437 4.98085 0
M  V30 3764 H 349.518 2.41694 5.35591 0
M  V30 3765 H 351.042 1.64576 5.88003 0
M  V30 3766 H 352.456 3.48734 4.55036 0
M  V30 3767 H 350.853 4.22425 4.26236 0
M  V30 3768 H 351.923 3.89546 2.88759 0
M  V30 3769 N 353.266 -1.05314 1.17247 0
M  V30 3770 C 354.506 -1.79869 0.970898 0
M  V30 3771 C 354.87 -1.85594 -0.491808 0
M  V30 3772 O 356.071 -2.56229 -0.812409 0
M  V30 3773 C 354.342 -3.19937 1.59295 0
M  V30 3774 S 355.901 -4.10986 1.53741 0
M  V30 3775 H 352.719 -0.61949 0.348931 0
M  V30 3776 H 355.321 -1.26368 1.49169 0
M  V30 3777 H 354.025 -3.13372 2.65003 0
M  V30 3778 H 353.556 -3.78515 1.07191 0
M  V30 3779 H 355.571 -4.93203 0.544537 0
M  V30 3780 N 354.744 -0.972509 -1.24016 0
M  V30 3781 C 355.99 -0.647583 -1.92816 0
M  V30 3782 C 356.345 0.809015 -1.74564 0
M  V30 3783 O 355.638 1.57502 -1.09103 0
M  V30 3784 C 355.832 -0.963694 -3.44162 0
M  V30 3785 C 355.661 -2.44947 -3.77135 0
M  V30 3786 C 354.431 -3.11012 -3.98246 0
M  V30 3787 C 356.629 -3.42978 -3.83237 0
M  V30 3788 N 354.611 -4.49277 -4.18358 0
M  V30 3789 C 355.982 -4.66619 -4.08248 0
M  V30 3790 C 358.037 -3.37569 -3.65994 0
M  V30 3791 C 356.74 -5.85516 -4.17808 0
M  V30 3792 C 358.766 -4.55822 -3.76802 0
M  V30 3793 C 358.128 -5.78256 -4.02243 0
M  V30 3794 H 354.227 -0.287894 -0.727077 0
M  V30 3795 H 356.811 -1.24835 -1.49413 0
M  V30 3796 H 354.982 -0.391692 -3.8642 0
M  V30 3797 H 356.714 -0.596849 -4.00275 0
M  V30 3798 H 353.469 -2.61529 -3.94841 0
M  V30 3799 H 353.893 -5.20935 -4.32384 0
M  V30 3800 H 358.535 -2.43945 -3.45327 0
M  V30 3801 H 356.253 -6.79564 -4.37285 0
M  V30 3802 H 359.839 -4.53204 -3.64825 0
M  V30 3803 H 358.719 -6.68231 -4.10411 0
M  V30 3804 N 356.222 1.38976 -0.743202 0
M  V30 3805 C 357.152 2.33171 -0.123873 0
M  V30 3806 C 358.133 1.54336 0.71516 0
M  V30 3807 O 359.318 1.82696 0.658467 0
M  V30 3808 C 356.448 3.38474 0.777978 0
M  V30 3809 C 355.402 4.27979 0.0424758 0
M  V30 3810 C 354.728 5.2405 1.06189 0
M  V30 3811 C 356.028 5.10155 -1.1198 0
M  V30 3812 H 357.722 2.85213 -0.910709 0
M  V30 3813 H 355.268 1.37133 -0.439388 0
M  V30 3814 H 357.221 4.03328 1.22084 0
M  V30 3815 H 355.945 2.84891 1.59702 0
M  V30 3816 H 354.604 3.64616 -0.380853 0
M  V30 3817 H 354.252 4.66758 1.87472 0
M  V30 3818 H 353.952 5.84785 0.574485 0
M  V30 3819 H 355.476 5.9178 1.50428 0
M  V30 3820 H 356.89 5.68307 -0.75499 0
M  V30 3821 H 355.287 5.80073 -1.53738 0
M  V30 3822 H 356.357 4.44504 -1.93764 0
M  V30 3823 N 357.7 0.491464 1.49741 0
M  V30 3824 C 358.946 -0.0565092 2.02721 0
M  V30 3825 C 359.279 -1.37522 1.37118 0
M  V30 3826 O 358.554 -1.87866 0.503645 0
M  V30 3827 C 358.837 -0.219051 3.59433 0
M  V30 3828 C 358.69 1.12211 4.35579 0
M  V30 3829 C 360.009 -0.964157 4.29409 0
M  V30 3830 H 357.128 -0.0190627 0.736753 0
M  V30 3831 H 359.77 0.641021 1.7886 0
M  V30 3832 H 357.92 -0.813165 3.79895 0
M  V30 3833 H 359.592 1.75437 4.26637 0
M  V30 3834 H 357.835 1.71377 3.98513 0
M  V30 3835 H 358.506 0.961794 5.43556 0
M  V30 3836 H 360.982 -0.460378 4.13545 0
M  V30 3837 H 359.858 -1.04671 5.38828 0
M  V30 3838 H 360.119 -2.00563 3.93988 0
M  V30 3839 N 359.178 -1.55987 0.224894 0
M  V30 3840 C 360.589 -1.84553 -0.282345 0
M  V30 3841 C 360.94 -1.14634 -1.59227 0
M  V30 3842 O 360.065 -0.417155 -2.12341 0
M  V30 3843 C 360.66 -3.348 -0.519062 0
M  V30 3844 C 359.219 -3.63671 -0.970604 0
M  V30 3845 C 358.366 -2.77277 -0.0355261 0
M  V30 3846 H 361.317 -1.52245 0.448006 0
M  V30 3847 H 361.338 -3.55187 -1.36463 0
M  V30 3848 H 360.85 -3.8566 0.43449 0
M  V30 3849 H 358.951 -3.1827 -1.9374 0
M  V30 3850 H 359.064 -4.71631 -0.842698 0
M  V30 3851 H 357.428 -2.48846 -0.542927 0
M  V30 3852 H 358.211 -3.30937 0.913003 0
M  V30 3853 N 360.656 0.0484629 -1.57525 0
M  V30 3854 C 361.589 1.08755 -2.00618 0
M  V30 3855 C 362.567 1.36272 -0.887058 0
M  V30 3856 O 363.751 1.49255 -1.15131 0
M  V30 3857 C 360.878 2.42675 -2.36277 0
M  V30 3858 C 359.924 2.31142 -3.58435 0
M  V30 3859 S 360.757 1.68326 -5.08357 0
M  V30 3860 C 361.913 3.03776 -5.47239 0
M  V30 3861 H 362.146 0.720415 -2.88439 0
M  V30 3862 H 359.679 0.257801 -1.52233 0
M  V30 3863 H 361.637 3.19699 -2.57494 0
M  V30 3864 H 360.298 2.76541 -1.48942 0
M  V30 3865 H 359.491 3.29957 -3.80978 0
M  V30 3866 H 359.093 1.62258 -3.36969 0
M  V30 3867 H 361.385 4.00106 -5.46737 0
M  V30 3868 H 362.328 2.85988 -6.47778 0
M  V30 3869 H 362.736 3.05456 -4.74718 0
M  V30 3870 N 362.134 1.5431 0.320358 0
M  V30 3871 C 363.411 1.63322 1.07635 0
M  V30 3872 C 363.791 0.46912 2.05821 0
M  V30 3873 O 363.139 -0.536274 2.22118 0
M  V30 3874 C 363.349 3.00465 1.77544 0
M  V30 3875 C 364.697 3.56621 2.30449 0
M  V30 3876 O 365.721 3.02791 1.87606 0
M  V30 3877 O 364.58 4.5083 3.08892 0
M  V30 3878 H 361.674 0.661502 0.496331 0
M  V30 3879 H 364.22 1.66656 0.319992 0
M  V30 3880 H 362.992 3.76629 1.06143 0
M  V30 3881 H 362.615 3.00824 2.59982 0
M  V30 3882 N 363.613 -0.582584 1.46437 0
M  V30 3883 C 364.576 -1.67366 1.56592 0
M  V30 3884 C 365.576 -1.54575 0.443072 0
M  V30 3885 O 366.766 -1.59191 0.707381 0
M  V30 3886 C 363.898 -3.06791 1.48634 0
M  V30 3887 H 365.091 -1.5972 2.5383 0
M  V30 3888 H 362.644 -0.800432 1.34249 0
M  V30 3889 H 363.379 -3.19993 0.526763 0
M  V30 3890 H 363.164 -3.17484 2.30101 0
M  V30 3891 H 364.654 -3.86218 1.58826 0
M  V30 3892 N 365.091 -1.34144 -0.827227 0
M  V30 3893 C 366.34 -1.25602 -1.5782 0
M  V30 3894 C 366.653 0.173445 -1.94829 0
M  V30 3895 O 367.859 0.380984 -2.68814 0
M  V30 3896 C 366.315 -2.20151 -2.84713 0
M  V30 3897 C 365.923 -3.68331 -2.55021 0
M  V30 3898 C 367.667 -2.20508 -3.62735 0
M  V30 3899 C 365.574 -4.54762 -3.78082 0
M  V30 3900 H 364.504 -0.466573 -0.592306 0
M  V30 3901 H 367.155 -1.59283 -0.911116 0
M  V30 3902 H 365.537 -1.79417 -3.53023 0
M  V30 3903 H 366.711 -4.17577 -1.94849 0
M  V30 3904 H 365.026 -3.7038 -1.90283 0
M  V30 3905 H 367.623 -2.82306 -4.54101 0
M  V30 3906 H 367.966 -1.20322 -3.98533 0
M  V30 3907 H 368.499 -2.59664 -3.01362 0
M  V30 3908 H 365.238 -5.55867 -3.47407 0
M  V30 3909 H 364.758 -4.10254 -4.37552 0
M  V30 3910 H 366.437 -4.69153 -4.45538 0
M  V30 3911 N 366.569 1.04691 -1.17803 0
M  V30 3912 C 367.799 1.81183 -0.992788 0
M  V30 3913 C 368.207 1.8347 0.462098 0
M  V30 3914 O 367.55 1.2643 1.33271 0
M  V30 3915 C 367.612 3.28363 -1.46349 0
M  V30 3916 C 367.276 3.49749 -2.94151 0
M  V30 3917 C 368.273 3.41456 -3.92051 0
M  V30 3918 C 365.958 3.76548 -3.32441 0
M  V30 3919 C 367.952 3.59656 -5.26238 0
M  V30 3920 C 365.639 3.94396 -4.66792 0
M  V30 3921 C 366.637 3.8595 -5.635 0
M  V30 3922 O 366.325 4.03294 -6.9542 0
M  V30 3923 H 366.057 0.577622 -0.351182 0
M  V30 3924 H 368.611 1.32876 -1.5663 0
M  V30 3925 H 366.841 3.77609 -0.833574 0
M  V30 3926 H 368.53 3.86395 -1.24313 0
M  V30 3927 H 369.296 3.20723 -3.63815 0
M  V30 3928 H 365.175 3.82224 -2.57732 0
M  V30 3929 H 368.719 3.52979 -6.01707 0
M  V30 3930 H 364.616 4.14622 -4.94731 0
M  V30 3931 H 365.384 4.2049 -7.02232 0
M  V30 3932 N 368.047 0.979072 1.23499 0
M  V30 3933 C 368.995 0.510604 2.26926 0
M  V30 3934 C 369.989 -0.431691 1.63807 0
M  V30 3935 O 371.195 -0.30573 1.77385 0
M  V30 3936 H 367.57 0.146688 0.737554 0
M  V30 3937 H 369.541 1.39466 2.63803 0
M  V30 3938 C 368.29 -0.172658 3.47271 0
M  V30 3939 H 367.613 0.543331 3.96091 0
M  V30 3940 H 369.053 -0.464101 4.21452 0
M  V30 3941 C 367.512 -1.40345 3.06276 0
M  V30 3942 O 368.042 -2.49978 3.14442 0
M  V30 3943 N 366.248 -1.27362 2.61203 0
M  V30 3944 H 365.795 -0.381584 2.54758 0
M  V30 3945 H 365.753 -2.09822 2.34141 0
M  V30 3946 N 369.525 -1.3858 0.750561 0
M  V30 3947 C 370.755 -2.04175 0.31564 0
M  V30 3948 C 371.163 -1.56726 -1.05989 0
M  V30 3949 O 370.506 -0.734225 -1.68389 0
M  V30 3950 C 370.568 -3.58585 0.256389 0
M  V30 3951 C 370.232 -4.29077 1.57296 0
M  V30 3952 C 371.229 -4.54656 2.52159 0
M  V30 3953 C 368.914 -4.67324 1.84156 0
M  V30 3954 C 370.908 -5.17512 3.72103 0
M  V30 3955 C 368.595 -5.29905 3.04374 0
M  V30 3956 C 369.593 -5.54933 3.98168 0
M  V30 3957 O 369.281 -6.16212 5.16273 0
M  V30 3958 H 369.013 -0.662742 0.133226 0
M  V30 3959 H 371.567 -1.78313 1.01948 0
M  V30 3960 H 369.797 -3.83406 -0.503677 0
M  V30 3961 H 371.486 -4.05628 -0.148612 0
M  V30 3962 H 372.252 -4.25539 2.32683 0
M  V30 3963 H 368.131 -4.47191 1.11988 0
M  V30 3964 H 371.675 -5.36963 4.45327 0
M  V30 3965 H 367.572 -5.58444 3.23745 0
M  V30 3966 H 368.34 -6.34701 5.16815 0
M  V30 3967 N 371.003 -0.499398 -1.49478 0
M  V30 3968 C 372.252 0.0475259 -2.01644 0
M  V30 3969 C 372.565 1.38195 -1.38425 0
M  V30 3970 O 373.771 2.01547 -1.8191 0
M  V30 3971 C 372.227 0.135164 -3.59646 0
M  V30 3972 C 371.835 -1.19252 -4.31837 0
M  V30 3973 C 373.579 0.632538 -4.19761 0
M  V30 3974 C 371.486 -1.06713 -5.81693 0
M  V30 3975 H 370.416 0.0215349 -0.753692 0
M  V30 3976 H 373.067 -0.638577 -1.7203 0
M  V30 3977 H 371.449 0.885681 -3.85969 0
M  V30 3978 H 372.623 -1.9562 -4.17216 0
M  V30 3979 H 370.938 -1.62321 -3.83459 0
M  V30 3980 H 373.535 0.743833 -5.29501 0
M  V30 3981 H 373.878 1.63098 -3.83021 0
M  V30 3982 H 374.411 -0.0613987 -3.97753 0
M  V30 3983 H 371.15 -2.03979 -6.22955 0
M  V30 3984 H 370.67 -0.344307 -5.98811 0
M  V30 3985 H 372.349 -0.745208 -6.42694 0
M  V30 3986 N 372.481 1.55866 -0.233164 0
M  V30 3987 C 373.709 2.02998 0.399905 0
M  V30 3988 C 374.124 1.11274 1.52524 0
M  V30 3989 O 373.481 0.124528 1.82075 0
M  V30 3990 C 373.532 3.4958 0.920639 0
M  V30 3991 O 373.253 4.37808 -0.159834 0
M  V30 3992 C 374.754 4.12411 1.62578 0
M  V30 3993 H 371.974 0.664006 0.0966281 0
M  V30 3994 H 374.518 2.0143 -0.353013 0
M  V30 3995 H 372.673 3.51727 1.62379 0
M  V30 3996 H 373.087 5.23981 0.23337 0
M  V30 3997 H 374.561 5.16711 1.94201 0
M  V30 3998 H 375.038 3.5809 2.54299 0
M  V30 3999 H 375.644 4.14148 0.967553 0
M  V30 4000 N 373.959 -0.0401083 1.57549 0
M  V30 4001 C 374.891 -1.07149 2.02612 0
M  V30 4002 C 375.904 -1.33126 0.937085 0
M  V30 4003 O 377.093 -1.30808 1.21456 0
M  V30 4004 C 374.193 -2.41561 2.37701 0
M  V30 4005 C 373.366 -2.35096 3.68848 0
M  V30 4006 C 372.425 -3.51867 3.91249 0
M  V30 4007 O 371.451 -3.3186 4.62447 0
M  V30 4008 N 372.653 -4.73351 3.36035 0
M  V30 4009 H 375.418 -0.687485 2.91708 0
M  V30 4010 H 372.979 -0.228248 1.60283 0
M  V30 4011 H 374.971 -3.18379 2.49833 0
M  V30 4012 H 373.541 -2.71846 1.54332 0
M  V30 4013 H 372.761 -1.4345 3.67173 0
M  V30 4014 H 374.049 -2.27908 4.54901 0
M  V30 4015 H 373.447 -4.92507 2.78304 0
M  V30 4016 H 372.004 -5.47572 3.53565 0
M  V30 4017 N 375.437 -1.54477 -0.31217 0
M  V30 4018 C 376.369 -1.81011 -1.40598 0
M  V30 4019 C 377.382 -0.692546 -1.47335 0
M  V30 4020 O 378.571 -0.969847 -1.49854 0
M  V30 4021 C 375.671 -1.92307 -2.79054 0
M  V30 4022 C 374.844 -3.22594 -2.95384 0
M  V30 4023 C 373.903 -3.24448 -4.1427 0
M  V30 4024 O 372.929 -3.98035 -4.06887 0
M  V30 4025 N 374.131 -2.49042 -5.24365 0
M  V30 4026 H 376.896 -2.75408 -1.18196 0
M  V30 4027 H 374.457 -1.53914 -0.502202 0
M  V30 4028 H 376.449 -1.90962 -3.56813 0
M  V30 4029 H 375.019 -1.04955 -2.94454 0
M  V30 4030 H 374.239 -3.36806 -2.04831 0
M  V30 4031 H 375.527 -4.08593 -3.03198 0
M  V30 4032 H 374.925 -1.88867 -5.33241 0
M  V30 4033 H 373.482 -2.53463 -6.005 0
M  V30 4034 N 376.915 0.57481 -1.46744 0
M  V30 4035 C 377.863 1.70435 -1.58286 0
M  V30 4036 C 378.857 1.63287 -0.450956 0
M  V30 4037 O 380.063 1.68685 -0.628121 0
M  V30 4038 H 376.438 0.56364 -0.497809 0
M  V30 4039 H 378.409 1.57833 -2.53242 0
M  V30 4040 C 377.158 3.08815 -1.59776 0
M  V30 4041 H 376.481 3.1499 -2.46214 0
M  V30 4042 H 377.921 3.87588 -1.71905 0
M  V30 4043 C 376.38 3.35301 -0.327812 0
M  V30 4044 O 376.91 3.97511 0.57861 0
M  V30 4045 N 375.116 2.89816 -0.213274 0
M  V30 4046 H 374.663 2.39371 -0.951798 0
M  V30 4047 H 374.621 3.0791 0.63553 0
M  V30 4048 N 378.394 1.34581 0.820102 0
M  V30 4049 C 379.634 1.28448 1.58998 0
M  V30 4050 C 379.998 -0.142883 1.91468 0
M  V30 4051 O 381.199 -0.328422 2.66786 0
M  V30 4052 C 379.47 2.153 2.85273 0
M  V30 4053 S 381.029 2.26548 3.75794 0
M  V30 4054 H 377.847 0.456685 0.54494 0
M  V30 4055 H 380.449 1.69825 0.968487 0
M  V30 4056 H 379.153 3.18008 2.59421 0
M  V30 4057 H 378.684 1.7483 3.52417 0
M  V30 4058 H 380.699 1.44034 4.74835 0
M  V30 4059 N 379.872 -1.04064 1.18357 0
M  V30 4060 C 381.1 -1.80916 1.00384 0
M  V30 4061 C 381.515 -1.83414 -0.447738 0
M  V30 4062 O 380.872 -1.26962 -1.31099 0
M  V30 4063 C 380.923 -3.26516 1.55144 0
M  V30 4064 O 380.644 -3.2424 2.94618 0
M  V30 4065 C 382.145 -4.20013 1.41789 0
M  V30 4066 H 379.365 -0.569728 0.354474 0
M  V30 4067 H 381.909 -1.31151 1.56906 0
M  V30 4068 H 380.064 -3.73512 1.02798 0
M  V30 4069 H 380.478 -4.15452 3.20156 0
M  V30 4070 H 381.952 -5.20111 1.84901 0
M  V30 4071 H 382.429 -4.37667 0.36661 0
M  V30 4072 H 383.035 -3.78881 1.93207 0
M  V30 4073 N 381.35 -0.985608 -1.22978 0
M  V30 4074 C 382.28 -0.549649 -2.26939 0
M  V30 4075 C 383.261 0.419803 -1.64838 0
M  V30 4076 O 384.446 0.31203 -1.91677 0
M  V30 4077 C 381.576 0.143652 -3.47003 0
M  V30 4078 C 380.53 -0.743606 -4.21491 0
M  V30 4079 C 379.856 0.0822027 -5.34637 0
M  V30 4080 C 381.156 -2.03694 -4.80943 0
M  V30 4081 H 382.85 -1.41862 -2.63658 0
M  V30 4082 H 380.396 -0.683571 -1.26741 0
M  V30 4083 H 382.349 0.459985 -4.18882 0
M  V30 4084 H 381.073 1.04711 -3.09359 0
M  V30 4085 H 379.732 -1.04347 -3.51436 0
M  V30 4086 H 379.38 0.986359 -4.93234 0
M  V30 4087 H 379.08 -0.508377 -5.85397 0
M  V30 4088 H 380.604 0.392797 -6.09335 0
M  V30 4089 H 382.018 -1.78504 -5.44802 0
M  V30 4090 H 380.415 -2.57573 -5.42011 0
M  V30 4091 H 381.485 -2.72042 -4.01399 0
M  V30 4092 N 382.828 1.3818 -0.7579 0
M  V30 4093 C 384.076 1.99624 -0.315361 0
M  V30 4094 C 384.397 1.60464 1.10799 0
M  V30 4095 O 383.667 0.863507 1.75842 0
M  V30 4096 H 382.247 0.73831 -0.113611 0
M  V30 4097 H 384.909 1.68878 -0.972952 0
M  V30 4098 H 384.005 3.09754 -0.381931 0
M  V30 4099 N 384.306 0.507319 1.49211 0
M  V30 4100 C 385.583 -0.0982702 1.95353 0
M  V30 4101 C 385.963 -1.53516 1.449 0
M  V30 4102 O 385.311 -2.18594 0.66551 0
M  V30 4103 C 385.521 -0.00440283 3.49 0
M  V30 4104 C 386.869 -0.175147 4.24239 0
M  V30 4105 O 387.893 -0.0792891 3.56112 0
M  V30 4106 O 386.752 -0.37276 5.45227 0
M  V30 4107 H 383.846 -0.0918236 0.821887 0
M  V30 4108 H 386.392 0.570307 1.5983 0
M  V30 4109 H 385.164 0.997402 3.78375 0
M  V30 4110 H 384.787 -0.712845 3.91158 0
M  V30 4111 N 385.784 -1.5574 0.241426 0
M  V30 4112 C 386.732 -2.22538 -0.676718 0
M  V30 4113 C 387.726 -1.21117 -1.18436 0
M  V30 4114 O 388.932 -1.39144 -1.14188 0
M  V30 4115 H 385.307 -0.713776 -0.236701 0
M  V30 4116 H 387.278 -2.98264 -0.0901187 0
M  V30 4117 C 386.027 -2.93439 -1.86518 0
M  V30 4118 H 385.35 -3.7125 -1.4837 0
M  V30 4119 H 386.79 -3.43549 -2.48495 0
M  V30 4120 C 385.249 -1.97008 -2.73294 0
M  V30 4121 O 385.779 -1.49965 -3.72657 0
M  V30 4122 N 383.985 -1.64227 -2.39745 0
M  V30 4123 H 383.532 -2.02677 -1.58996 0
M  V30 4124 H 383.49 -0.999708 -2.98083 0
M  V30 4125 N 387.262 0.0317525 -1.57568 0
M  V30 4126 C 388.508 0.718712 -1.90279 0
M  V30 4127 C 388.863 1.73108 -0.839727 0
M  V30 4128 O 388.156 1.90997 0.15188 0
M  V30 4129 C 388.35 1.43167 -3.27472 0
M  V30 4130 C 388.179 0.489869 -4.47024 0
M  V30 4131 C 386.949 0.111909 -5.05176 0
M  V30 4132 C 389.147 -0.230592 -5.13783 0
M  V30 4133 N 387.129 -0.831427 -6.08244 0
M  V30 4134 C 388.5 -1.02968 -6.1139 0
M  V30 4135 C 390.555 -0.297821 -4.97008 0
M  V30 4136 C 389.258 -1.88982 -6.9403 0
M  V30 4137 C 391.284 -1.14507 -5.80209 0
M  V30 4138 C 390.646 -1.9321 -6.77384 0
M  V30 4139 H 386.745 0.237177 -0.745165 0
M  V30 4140 H 389.329 -0.0211267 -1.94689 0
M  V30 4141 H 387.5 2.14199 -3.23996 0
M  V30 4142 H 389.232 2.0708 -3.47707 0
M  V30 4143 H 385.987 0.473513 -4.71227 0
M  V30 4144 H 386.411 -1.29752 -6.6445 0
M  V30 4145 H 391.053 0.296346 -4.2176 0
M  V30 4146 H 388.771 -2.4948 -7.68626 0
M  V30 4147 H 392.357 -1.20059 -5.69278 0
M  V30 4148 H 391.237 -2.57711 -7.40645 0
M  V30 4149 N 388.74 1.54641 0.303973 0
M  V30 4150 C 389.987 1.7378 1.03955 0
M  V30 4151 C 390.315 0.521986 1.87365 0
M  V30 4152 O 389.57 -0.496099 1.89308 0
M  V30 4153 C 389.869 2.97753 1.97681 0
M  V30 4154 C 389.535 4.31671 1.30271 0
M  V30 4155 C 388.197 4.68075 1.11619 0
M  V30 4156 C 390.549 5.147 0.82055 0
M  V30 4157 C 387.877 5.8509 0.434304 0
M  V30 4158 C 390.229 6.32416 0.152395 0
M  V30 4159 C 388.893 6.67484 -0.0461067 0
M  V30 4160 H 388.163 0.635908 0.380398 0
M  V30 4161 H 390.81 1.88896 0.314718 0
M  V30 4162 H 389.115 2.77406 2.76682 0
M  V30 4163 H 390.812 3.09756 2.54661 0
M  V30 4164 H 387.402 4.03041 1.45795 0
M  V30 4165 H 391.586 4.87077 0.952374 0
M  V30 4166 H 386.842 6.10806 0.269495 0
M  V30 4167 H 391.016 6.96023 -0.229126 0
M  V30 4168 H 388.643 7.58011 -0.576494 0
M  V30 4169 N 390.218 -0.567019 1.47046 0
M  V30 4170 C 391.466 -1.322 1.52864 0
M  V30 4171 C 391.787 -1.94088 0.188388 0
M  V30 4172 O 391.057 -1.7941 -0.786693 0
M  V30 4173 H 389.637 -0.490894 0.563056 0
M  V30 4174 H 392.299 -0.662879 1.83281 0
M  V30 4175 H 391.395 -2.12062 2.2899 0
M  V30 4176 N 391.696 -1.35014 -0.812953 0
M  V30 4177 C 392.944 -1.27678 -1.56661 0
M  V30 4178 C 393.265 0.150359 -1.94419 0
M  V30 4179 O 392.535 1.08532 -1.63088 0
M  V30 4180 H 391.115 -0.469602 -0.580933 0
M  V30 4181 H 393.777 -1.69043 -0.970076 0
M  V30 4182 H 392.873 -1.88833 -2.48492 0
M  V30 4183 N 393.175 1.03435 -1.18907 0
M  V30 4184 C 394.4 1.80919 -1.01406 0
M  V30 4185 C 394.825 1.83055 0.432721 0
M  V30 4186 O 394.183 1.25252 1.31079 0
M  V30 4187 C 394.231 3.24091 -1.58105 0
M  V30 4188 O 393.335 4.04434 -0.806669 0
M  V30 4189 H 392.676 0.558709 -0.358803 0
M  V30 4190 H 395.206 1.30223 -1.57807 0
M  V30 4191 H 395.216 3.74853 -1.61087 0
M  V30 4192 H 393.891 3.21851 -2.6341 0
M  V30 4193 H 392.468 3.63091 -0.849666 0
M  V30 4194 N 394.653 0.992116 1.22453 0
M  V30 4195 C 395.883 0.684949 1.94915 0
M  V30 4196 C 396.291 -0.754292 1.73514 0
M  V30 4197 O 395.634 -1.52056 1.03076 0
M  V30 4198 C 395.696 0.910054 3.47791 0
M  V30 4199 C 395.36 2.33363 3.92926 0
M  V30 4200 C 396.357 3.31308 4.00663 0
M  V30 4201 C 394.042 2.66785 4.25595 0
M  V30 4202 C 396.036 4.6075 4.40441 0
M  V30 4203 C 393.723 3.96446 4.65053 0
M  V30 4204 C 394.721 4.9324 4.72444 0
M  V30 4205 O 394.409 6.20584 5.1101 0
M  V30 4206 H 394.141 0.25258 0.62704 0
M  V30 4207 H 396.695 1.32939 1.56577 0
M  V30 4208 H 394.925 0.208443 3.86138 0
M  V30 4209 H 396.614 0.598257 4.01467 0
M  V30 4210 H 397.38 3.0682 3.75615 0
M  V30 4211 H 393.259 1.92148 4.19047 0
M  V30 4212 H 396.803 5.363 4.46126 0
M  V30 4213 H 392.7 4.20724 4.89552 0
M  V30 4214 H 393.468 6.24509 5.29085 0
M  V30 4215 N 396.131 -1.37776 0.765217 0
M  V30 4216 C 397.041 -2.34135 0.147666 0
M  V30 4217 C 398.057 -1.59854 -0.687215 0
M  V30 4218 O 399.233 -1.91983 -0.608659 0
M  V30 4219 C 396.298 -3.3901 -0.72617 0
M  V30 4220 C 395.359 -4.2912 0.124417 0
M  V30 4221 C 394.592 -5.28986 -0.707807 0
M  V30 4222 O 394.815 -5.36205 -1.94525 0
M  V30 4223 O 393.749 -6.01779 -0.12046 0
M  V30 4224 H 397.575 -2.88664 0.943758 0
M  V30 4225 H 395.16 -1.39824 0.526277 0
M  V30 4226 H 397.042 -4.03195 -1.22524 0
M  V30 4227 H 395.717 -2.86819 -1.50056 0
M  V30 4228 H 394.624 -3.68057 0.669696 0
M  V30 4229 H 395.957 -4.84598 0.861736 0
M  V30 4230 N 397.609 -0.515225 -1.4894 0
M  V30 4231 C 398.837 0.0206034 -2.0689 0
M  V30 4232 C 399.252 1.29514 -1.37374 0
M  V30 4233 O 398.609 1.76698 -0.456529 0
M  V30 4234 C 398.66 0.26351 -3.60538 0
M  V30 4235 O 398.381 -0.960517 -4.27441 0
M  V30 4236 C 399.882 0.841383 -4.35242 0
M  V30 4237 H 397.102 -0.0268608 -0.670462 0
M  V30 4238 H 399.646 -0.716651 -1.91532 0
M  V30 4239 H 397.801 0.950777 -3.75552 0
M  V30 4240 H 398.215 -0.73212 -5.19365 0
M  V30 4241 H 399.689 0.96085 -5.43573 0
M  V30 4242 H 400.166 1.8427 -3.98674 0
M  V30 4243 H 400.772 0.191143 -4.2487 0
M  V30 4244 N 399.087 1.5561 -0.249682 0
M  V30 4245 C 400.333 1.99306 0.374841 0
M  V30 4246 C 400.666 1.13767 1.57387 0
M  V30 4247 O 399.941 0.201711 1.93451 0
M  V30 4248 C 400.224 3.51507 0.781986 0
M  V30 4249 C 400.077 4.4781 -0.422629 0
M  V30 4250 C 401.396 4.08884 1.62793 0
M  V30 4251 H 398.515 0.724572 0.134773 0
M  V30 4252 H 401.157 1.86719 -0.351549 0
M  V30 4253 H 399.307 3.62363 1.4009 0
M  V30 4254 H 400.979 4.48931 -1.06108 0
M  V30 4255 H 399.222 4.20518 -1.06524 0
M  V30 4256 H 399.893 5.51919 -0.0943766 0
M  V30 4257 H 402.369 4.01147 1.10547 0
M  V30 4258 H 401.245 5.1564 1.88166 0
M  V30 4259 H 401.506 3.57515 2.60068 0
M  V30 4260 N 400.565 -0.0233959 1.57583 0
M  V30 4261 C 401.528 -1.00693 2.05897 0
M  V30 4262 C 402.528 -1.28693 0.964092 0
M  V30 4263 O 403.718 -1.23602 1.22753 0
M  V30 4264 C 400.85 -2.33825 2.4807 0
M  V30 4265 H 402.043 -0.589476 2.9405 0
M  V30 4266 H 399.596 -0.270354 1.53944 0
M  V30 4267 H 400.331 -2.80307 1.6309 0
M  V30 4268 H 400.116 -2.1483 3.2801 0
M  V30 4269 H 401.606 -3.04426 2.85857 0
M  V30 4270 N 402.043 -1.548 -0.295768 0
M  V30 4271 C 403.291 -1.73985 -1.02828 0
M  V30 4272 C 403.612 -0.531406 -1.87619 0
M  V30 4273 O 402.882 0.454221 -1.90561 0
M  V30 4274 H 401.462 -0.641556 -0.382642 0
M  V30 4275 H 404.124 -1.92163 -0.325489 0
M  V30 4276 H 403.22 -2.63129 -1.67838 0
M  V30 4277 N 403.521 0.559213 -1.47345 0
M  V30 4278 C 404.749 1.34194 -1.57479 0
M  V30 4279 C 405.164 1.87463 -0.224261 0
M  V30 4280 O 404.521 1.64888 0.782185 0
M  V30 4281 C 404.572 2.51324 -2.59843 0
M  V30 4282 O 404.293 2.00256 -3.89653 0
M  V30 4283 C 405.794 3.43563 -2.80142 0
M  V30 4284 H 403.014 0.409136 -0.531835 0
M  V30 4285 H 405.558 0.677609 -1.92947 0
M  V30 4286 H 403.713 3.13699 -2.27314 0
M  V30 4287 H 404.127 2.76708 -4.4557 0
M  V30 4288 H 405.601 4.2217 -3.55635 0
M  V30 4289 H 406.078 3.9698 -1.87892 0
M  V30 4290 H 406.684 2.87005 -3.1386 0
M  V30 4291 N 404.999 1.35443 0.805782 0
M  V30 4292 C 406.41 1.25768 1.37983 0
M  V30 4293 C 406.761 -0.10958 1.95894 0
M  V30 4294 O 405.886 -1.01056 1.91355 0
M  V30 4295 C 406.481 2.27727 2.5085 0
M  V30 4296 C 405.04 2.2179 3.04115 0
M  V30 4297 C 404.187 2.13393 1.77084 0
M  V30 4298 H 407.138 1.4656 0.608752 0
M  V30 4299 H 407.159 1.90422 3.29424 0
M  V30 4300 H 406.671 3.27227 2.08671 0
M  V30 4301 H 404.772 1.25703 3.50756 0
M  V30 4302 H 404.885 3.13788 3.62042 0
M  V30 4303 H 403.249 1.59384 1.98668 0
M  V30 4304 H 404.032 3.14755 1.37056 0
M  V30 4305 N 406.477 -1.02803 1.19454 0
M  V30 4306 C 407.424 -2.11099 0.933046 0
M  V30 4307 C 408.394 -1.65571 -0.132447 0
M  V30 4308 O 409.579 -1.90797 0.00987576 0
M  V30 4309 C 406.719 -3.41763 0.478747 0
M  V30 4310 C 405.832 -4.00833 1.6111 0
M  V30 4311 C 404.967 -5.19511 1.10825 0
M  V30 4312 C 404.006 -5.70639 2.21445 0
M  V30 4313 N 403.143 -6.80589 1.72461 0
M  V30 4314 H 407.983 -2.32804 1.86028 0
M  V30 4315 H 405.52 -1.14179 0.927441 0
M  V30 4316 H 407.478 -4.16736 0.196745 0
M  V30 4317 H 406.108 -3.20166 -0.411493 0
M  V30 4318 H 405.16 -3.23066 2.00829 0
M  V30 4319 H 406.472 -4.34794 2.4445 0
M  V30 4320 H 405.626 -6.01645 0.781533 0
M  V30 4321 H 404.365 -4.87086 0.244606 0
M  V30 4322 H 403.37 -4.87116 2.54947 0
M  V30 4323 H 404.595 -6.05102 3.08267 0
M  V30 4324 H 402.541 -6.50016 0.884056 0
M  V30 4325 H 402.458 -7.13681 2.49389 0
M  V30 4326 H 403.726 -7.66317 1.42755 0
M  V30 4327 N 407.956 -0.998596 -1.21925 0
M  V30 4328 C 409.202 -0.678667 -1.91107 0
M  V30 4329 C 409.535 0.78791 -1.77498 0
M  V30 4330 O 408.81 1.57043 -1.1475 0
M  V30 4331 C 409.093 -1.09245 -3.43129 0
M  V30 4332 C 408.946 -2.61801 -3.6576 0
M  V30 4333 C 410.265 -0.649984 -4.35274 0
M  V30 4334 H 407.384 -0.248025 -0.694012 0
M  V30 4335 H 410.026 -1.24314 -1.43688 0
M  V30 4336 H 408.176 -0.612171 -3.83647 0
M  V30 4337 H 409.848 -3.17543 -3.34611 0
M  V30 4338 H 408.091 -3.03609 -3.09845 0
M  V30 4339 H 408.762 -2.85804 -4.7225 0
M  V30 4340 H 411.238 -1.0626 -4.02303 0
M  V30 4341 H 410.114 -0.967743 -5.40302 0
M  V30 4342 H 410.375 0.449139 -4.39813 0
M  V30 4343 N 409.434 1.37368 -0.772513 0
M  V30 4344 C 410.683 1.98918 -0.333861 0
M  V30 4345 C 410.996 1.62017 1.09589 0
M  V30 4346 O 412.202 2.16676 1.63596 0
M  V30 4347 C 410.658 3.55735 -0.545971 0
M  V30 4348 C 410.266 4.01573 -1.98603 0
M  V30 4349 C 412.01 4.24156 -0.170979 0
M  V30 4350 C 409.917 5.51102 -2.1457 0
M  V30 4351 H 408.847 0.744214 -0.121085 0
M  V30 4352 H 411.498 1.56888 -0.95175 0
M  V30 4353 H 409.88 3.95748 0.141387 0
M  V30 4354 H 411.054 3.72803 -2.7084 0
M  V30 4355 H 409.369 3.45937 -2.31769 0
M  V30 4356 H 411.966 5.34024 -0.26878 0
M  V30 4357 H 412.309 4.06917 0.878855 0
M  V30 4358 H 412.842 3.89447 -0.810914 0
M  V30 4359 H 409.581 5.73268 -3.17875 0
M  V30 4360 H 409.101 5.81554 -1.46817 0
M  V30 4361 H 410.78 6.17083 -1.94468 0
M  V30 4362 N 410.912 0.523116 1.48665 0
M  V30 4363 C 412.14 -0.0096312 2.06898 0
M  V30 4364 C 412.555 -1.28784 1.38059 0
M  V30 4365 O 411.912 -1.76453 0.465893 0
M  V30 4366 C 411.963 -0.244386 3.60673 0
M  V30 4367 O 411.684 0.983172 4.26925 0
M  V30 4368 C 413.185 -0.818289 4.35682 0
M  V30 4369 H 410.405 0.0304161 0.67031 0
M  V30 4370 H 412.949 0.726799 1.91149 0
M  V30 4371 H 411.104 -0.930847 3.76051 0
M  V30 4372 H 411.518 0.759653 5.1897 0
M  V30 4373 H 412.992 -0.93201 5.44075 0
M  V30 4374 H 413.469 -1.82153 3.99646 0
M  V30 4375 H 414.075 -0.168609 4.24966 0
M  V30 4376 N 412.39 -1.55475 0.257931 0
M  V30 4377 C 413.636 -1.99502 -0.364266 0
M  V30 4378 C 413.969 -1.146 -1.56782 0
M  V30 4379 O 413.244 -0.211968 -1.93342 0
M  V30 4380 C 413.527 -3.51917 -0.763333 0
M  V30 4381 C 413.38 -4.4758 0.446371 0
M  V30 4382 C 414.699 -4.09742 -1.60623 0
M  V30 4383 H 411.818 -0.725277 -0.130929 0
M  V30 4384 H 414.46 -1.8653 0.361446 0
M  V30 4385 H 412.61 -3.63101 -1.38166 0
M  V30 4386 H 414.282 -4.48362 1.08487 0
M  V30 4387 H 412.525 -4.19947 1.08753 0
M  V30 4388 H 413.196 -5.51862 0.123645 0
M  V30 4389 H 415.672 -4.01727 -1.08418 0
M  V30 4390 H 414.548 -5.16631 -1.85429 0
M  V30 4391 H 414.809 -3.58889 -2.58169 0
M  V30 4392 N 413.868 0.0150385 -1.57593 0
M  V30 4393 C 414.815 1.01126 -2.07466 0
M  V30 4394 C 415.785 1.35064 -0.966794 0
M  V30 4395 O 416.97 1.4516 -1.23827 0
M  V30 4396 C 414.11 2.30276 -2.57035 0
M  V30 4397 C 413.223 2.02373 -3.81666 0
M  V30 4398 C 412.358 3.25496 -4.19793 0
M  V30 4399 C 411.397 2.93211 -5.37303 0
M  V30 4400 N 410.534 4.08826 -5.70794 0
M  V30 4401 H 415.374 0.57901 -2.92321 0
M  V30 4402 H 412.911 0.27426 -1.44521 0
M  V30 4403 H 414.869 3.05757 -2.83846 0
M  V30 4404 H 413.499 2.71197 -1.75077 0
M  V30 4405 H 412.551 1.17327 -3.61854 0
M  V30 4406 H 413.863 1.74567 -4.67256 0
M  V30 4407 H 413.017 4.09333 -4.47807 0
M  V30 4408 H 411.756 3.56428 -3.32882 0
M  V30 4409 H 410.761 2.07777 -5.09027 0
M  V30 4410 H 411.986 2.63542 -6.25877 0
M  V30 4411 H 409.932 4.39682 -4.86842 0
M  V30 4412 H 409.849 3.84491 -6.50924 0
M  V30 4413 H 411.117 4.93496 -6.03392 0
M  V30 4414 N 415.346 1.54954 0.287554 0
M  V30 4415 C 416.278 1.83224 1.37701 0
M  V30 4416 C 417.291 0.715898 1.46215 0
M  V30 4417 O 418.48 0.993565 1.48292 0
M  V30 4418 C 415.58 1.96723 2.75959 0
M  V30 4419 C 414.753 3.27253 2.90215 0
M  V30 4420 C 413.812 3.30998 4.09056 0
M  V30 4421 O 412.838 4.04457 4.00503 0
M  V30 4422 N 414.04 2.57353 5.20336 0
M  V30 4423 H 416.805 2.77254 1.138 0
M  V30 4424 H 414.366 1.54694 0.477652 0
M  V30 4425 H 416.358 1.96615 3.5373 0
M  V30 4426 H 414.928 1.09626 2.92747 0
M  V30 4427 H 414.148 3.40022 1.99447 0
M  V30 4428 H 415.436 4.13365 2.96659 0
M  V30 4429 H 414.834 1.97327 5.30169 0
M  V30 4430 H 413.391 2.62984 5.96391 0
M  V30 4431 N 416.824 -0.551391 1.4764 0
M  V30 4432 C 418.072 -1.30572 1.54258 0
M  V30 4433 C 418.393 -1.93877 0.208963 0
M  V30 4434 O 417.663 -1.80234 -0.767619 0
M  V30 4435 H 416.243 -0.484894 0.568231 0
M  V30 4436 H 418.905 -0.643402 1.83974 0
M  V30 4437 H 418.001 -2.09621 2.31226 0
M  V30 4438 N 418.302 -1.35869 -0.798587 0
M  V30 4439 C 419.551 -1.28921 -1.5512 0
M  V30 4440 C 419.864 0.13208 -1.95154 0
M  V30 4441 O 421.07 0.323879 -2.69561 0
M  V30 4442 C 419.526 -2.26141 -2.79979 0
M  V30 4443 C 419.134 -3.73658 -2.47151 0
M  V30 4444 C 420.878 -2.28152 -3.57976 0
M  V30 4445 C 418.785 -4.62679 -3.6835 0
M  V30 4446 H 417.715 -0.479031 -0.582276 0
M  V30 4447 H 420.366 -1.61179 -0.877125 0
M  V30 4448 H 418.748 -1.86865 -3.49138 0
M  V30 4449 H 419.922 -4.21616 -1.85947 0
M  V30 4450 H 418.237 -3.74333 -1.82383 0
M  V30 4451 H 420.834 -2.91875 -4.4801 0
M  V30 4452 H 421.177 -1.28748 -3.95891 0
M  V30 4453 H 421.71 -2.65998 -2.95787 0
M  V30 4454 H 418.449 -5.63111 -3.35538 0
M  V30 4455 H 417.969 -4.19442 -4.28752 0
M  V30 4456 H 419.648 -4.78498 -4.35487 0
M  V30 4457 N 419.78 1.02168 -1.19998 0
M  V30 4458 C 420.69 2.14069 -0.959774 0
M  V30 4459 C 421.706 1.73804 0.082655 0
M  V30 4460 O 422.882 2.01133 -0.103633 0
M  V30 4461 C 419.947 3.42936 -0.509459 0
M  V30 4462 C 419.008 3.97474 -1.62213 0
M  V30 4463 C 418.241 5.2019 -1.19321 0
M  V30 4464 O 418.464 5.70369 -0.0597726 0
M  V30 4465 O 417.398 5.67749 -1.99863 0
M  V30 4466 H 421.224 2.37199 -1.89658 0
M  V30 4467 H 418.809 1.12469 -0.983411 0
M  V30 4468 H 420.691 4.20551 -0.267322 0
M  V30 4469 H 419.366 3.21234 0.398821 0
M  V30 4470 H 418.273 3.21161 -1.9185 0
M  V30 4471 H 419.606 4.23555 -2.50723 0
M  V30 4472 N 421.258 1.00505 1.21394 0
M  V30 4473 C 422.19 0.52372 2.23136 0
M  V30 4474 C 423.203 -0.387714 1.58116 0
M  V30 4475 O 424.392 -0.187905 1.77508 0
M  V30 4476 C 421.492 -0.258885 3.3791 0
M  V30 4477 C 420.665 0.651634 4.32519 0
M  V30 4478 C 419.724 -0.0813705 5.26137 0
M  V30 4479 O 418.75 0.537295 5.66658 0
M  V30 4480 N 419.952 -1.35992 5.64346 0
M  V30 4481 H 422.717 1.39865 2.65062 0
M  V30 4482 H 420.278 0.881196 1.35818 0
M  V30 4483 H 422.27 -0.758208 3.97534 0
M  V30 4484 H 420.84 -1.035 2.94968 0
M  V30 4485 H 420.06 1.33145 3.71034 0
M  V30 4486 H 421.348 1.27129 4.92662 0
M  V30 4487 H 420.746 -1.88368 5.33417 0
M  V30 4488 H 419.303 -1.8042 6.26332 0
M  V30 4489 N 422.737 -1.36956 0.779787 0
M  V30 4490 C 423.684 -2.30175 0.169697 0
M  V30 4491 C 424.654 -1.51501 -0.68094 0
M  V30 4492 O 425.839 -1.80042 -0.631629 0
M  V30 4493 C 422.979 -3.37985 -0.697131 0
M  V30 4494 C 422.092 -4.31661 0.170992 0
M  V30 4495 C 421.227 -5.2655 -0.701298 0
M  V30 4496 C 420.266 -6.11867 0.168869 0
M  V30 4497 N 419.403 -6.98973 -0.661855 0
M  V30 4498 H 424.243 -2.81767 0.970135 0
M  V30 4499 H 421.78 -1.38699 0.489994 0
M  V30 4500 H 423.738 -3.99128 -1.2146 0
M  V30 4501 H 422.368 -2.87739 -1.46309 0
M  V30 4502 H 421.42 -3.71756 0.80634 0
M  V30 4503 H 422.732 -4.91644 0.841875 0
M  V30 4504 H 421.886 -5.92937 -1.28494 0
M  V30 4505 H 420.625 -4.66998 -1.40584 0
M  V30 4506 H 419.63 -5.44452 0.764986 0
M  V30 4507 H 420.855 -6.73493 0.870863 0
M  V30 4508 H 418.801 -6.41941 -1.35086 0
M  V30 4509 H 418.718 -7.55984 -0.0484447 0
M  V30 4510 H 419.986 -7.6974 -1.22963 0
M  V30 4511 N 424.215 -0.530993 -1.48385 0
M  V30 4512 C 425.626 -0.0907905 -1.86479 0
M  V30 4513 C 425.977 1.33213 -1.44044 0
M  V30 4514 O 425.102 1.99783 -0.831615 0
M  V30 4515 C 425.697 -0.157987 -3.38431 0
M  V30 4516 C 424.256 0.227026 -3.75715 0
M  V30 4517 C 423.403 -0.5173 -2.72432 0
M  V30 4518 H 426.354 -0.742186 -1.40276 0
M  V30 4519 H 426.375 0.630053 -3.75247 0
M  V30 4520 H 425.887 -1.19372 -3.69286 0
M  V30 4521 H 423.988 1.26486 -3.50474 0
M  V30 4522 H 424.101 -0.113288 -4.78966 0
M  V30 4523 H 422.465 0.0365527 -2.54674 0
M  V30 4524 H 423.248 -1.55368 -3.0613 0
M  V30 4525 N 425.693 1.55336 -0.266172 0
M  V30 4526 C 426.939 1.99692 0.353681 0
M  V30 4527 C 427.272 1.1543 1.56172 0
M  V30 4528 O 426.547 0.222218 1.93226 0
M  V30 4529 C 426.83 3.52316 0.74466 0
M  V30 4530 C 426.683 4.47337 -0.470101 0
M  V30 4531 C 428.002 4.10588 1.58447 0
M  V30 4532 H 425.121 0.725961 0.12708 0
M  V30 4533 H 427.763 1.86336 -0.371333 0
M  V30 4534 H 425.913 3.63829 1.36239 0
M  V30 4535 H 427.585 4.4778 -1.10864 0
M  V30 4536 H 425.828 4.19364 -1.10978 0
M  V30 4537 H 426.499 5.51788 -0.15291 0
M  V30 4538 H 428.975 4.02297 1.06286 0
M  V30 4539 H 427.851 5.17607 1.82686 0
M  V30 4540 H 428.112 3.60253 2.56262 0
M  V30 4541 N 427.171 -0.0066808 1.57599 0
M  V30 4542 C 428.081 -1.01671 2.11424 0
M  V30 4543 C 429.097 -1.38143 1.05795 0
M  V30 4544 O 430.273 -1.47011 1.37658 0
M  V30 4545 C 427.338 -2.29192 2.60139 0
M  V30 4546 C 426.399 -1.99094 3.80342 0
M  V30 4547 C 425.632 -3.20535 4.26724 0
M  V30 4548 O 425.855 -4.3199 3.72479 0
M  V30 4549 O 424.789 -3.04924 5.18946 0
M  V30 4550 H 428.615 -0.589181 2.9793 0
M  V30 4551 H 426.2 -0.225091 1.47695 0
M  V30 4552 H 428.082 -3.0412 2.917 0
M  V30 4553 H 426.757 -2.71195 1.76733 0
M  V30 4554 H 425.664 -1.21663 3.53764 0
M  V30 4555 H 426.997 -1.61931 4.648 0
M  V30 4556 N 428.649 -1.55105 -0.279332 0
M  V30 4557 C 429.581 -1.83952 -1.36727 0
M  V30 4558 C 430.594 -0.723642 -1.45833 0
M  V30 4559 O 431.783 -1.00141 -1.47763 0
M  V30 4560 C 428.883 -1.98183 -2.74912 0
M  V30 4561 C 428.056 -3.28787 -2.88475 0
M  V30 4562 C 427.115 -3.33162 -4.07295 0
M  V30 4563 O 426.141 -4.06576 -3.98353 0
M  V30 4564 N 427.343 -2.60109 -5.18964 0
M  V30 4565 H 430.108 -2.77853 -1.12328 0
M  V30 4566 H 427.669 -1.54945 -0.469442 0
M  V30 4567 H 429.661 -1.98488 -3.52682 0
M  V30 4568 H 428.231 -1.11177 -2.92162 0
M  V30 4569 H 427.451 -3.41075 -1.97641 0
M  V30 4570 H 428.739 -4.14933 -2.94463 0
M  V30 4571 H 428.137 -2.00136 -5.29115 0
M  V30 4572 H 426.694 -2.66143 -5.94988 0
M  V30 4573 N 430.127 0.543554 -1.4793 0
M  V30 4574 C 431.543 0.870806 -1.3375 0
M  V30 4575 C 431.743 1.9864 -0.338261 0
M  V30 4576 O 430.799 2.51305 0.245371 0
M  V30 4577 C 432.112 1.25114 -2.73435 0
M  V30 4578 C 433.66 1.3618 -2.81823 0
M  V30 4579 C 434.135 1.77563 -4.22179 0
M  V30 4580 N 435.626 1.8469 -4.24787 0
M  V30 4581 C 436.361 2.18067 -5.30315 0
M  V30 4582 N 435.857 2.49963 -6.46135 0
M  V30 4583 N 437.65 2.18958 -5.17701 0
M  V30 4584 H 429.801 -0.19275 -2.11524 0
M  V30 4585 H 432.064 -0.0235777 -0.947707 0
M  V30 4586 H 431.77 0.50514 -3.48053 0
M  V30 4587 H 431.644 2.20431 -3.06088 0
M  V30 4588 H 434.031 2.09859 -2.07468 0
M  V30 4589 H 434.112 0.390169 -2.52807 0
M  V30 4590 H 433.756 1.04449 -4.97044 0
M  V30 4591 H 433.686 2.75753 -4.48629 0
M  V30 4592 H 436.177 1.62372 -3.41239 0
M  V30 4593 H 436.49 2.74497 -7.22406 0
M  V30 4594 H 434.835 2.47513 -6.49432 0
M  V30 4595 H 438.026 1.93488 -4.2624 0
M  V30 4596 H 438.199 2.44639 -6.00047 0
M  V30 4597 N 431.605 1.3629 0.791371 0
M  V30 4598 C 432.854 1.29742 1.54434 0
M  V30 4599 C 433.167 -0.121729 1.95221 0
M  V30 4600 O 434.373 -0.309579 2.69729 0
M  V30 4601 C 432.829 2.27623 2.78776 0
M  V30 4602 C 432.437 3.74963 2.45166 0
M  V30 4603 C 434.181 2.30047 3.56761 0
M  V30 4604 C 432.088 4.64626 3.65891 0
M  V30 4605 H 431.018 0.482113 0.579727 0
M  V30 4606 H 433.669 1.61642 0.868565 0
M  V30 4607 H 432.051 1.88714 3.48142 0
M  V30 4608 H 433.225 4.22596 1.83709 0
M  V30 4609 H 431.54 3.75295 1.80396 0
M  V30 4610 H 434.137 2.94247 4.46456 0
M  V30 4611 H 434.48 1.30846 3.95203 0
M  V30 4612 H 435.013 2.67563 2.94372 0
M  V30 4613 H 431.752 5.64883 3.32547 0
M  V30 4614 H 431.272 4.2171 4.26521 0
M  V30 4615 H 432.951 4.80801 4.32943 0
M  V30 4616 N 433.083 -1.0153 1.20538 0
M  V30 4617 C 434.033 -2.08482 0.922991 0
M  V30 4618 C 435.017 -1.60469 -0.117702 0
M  V30 4619 O 436.209 -1.76772 0.0898465 0
M  V30 4620 C 433.338 -3.39952 0.478312 0
M  V30 4621 C 432.424 -3.94662 1.5525 0
M  V30 4622 N 432.815 -4.22866 2.77521 0
M  V30 4623 C 431.113 -4.22825 1.41897 0
M  V30 4624 C 431.814 -4.67002 3.4682 0
M  V30 4625 N 430.79 -4.69356 2.74237 0
M  V30 4626 H 434.592 -2.28199 1.85209 0
M  V30 4627 H 432.106 -1.19512 1.09957 0
M  V30 4628 H 434.103 -4.16105 0.257408 0
M  V30 4629 H 432.763 -3.21648 -0.444148 0
M  V30 4630 H 433.774 -4.11732 3.1416 0
M  V30 4631 H 430.451 -4.13714 0.561015 0
M  V30 4632 H 431.841 -4.97632 4.51455 0
M  V30 4633 N 434.561 -1.01147 -1.20859 0
M  V30 4634 C 435.808 -0.697865 -1.90095 0
M  V30 4635 C 436.136 0.772014 -1.78522 0
M  V30 4636 O 435.391 1.57595 -1.16027 0
M  V30 4637 C 435.69 -1.0727 -3.40922 0
M  V30 4638 C 435.356 -2.53792 -3.72693 0
M  V30 4639 C 434.018 -2.93829 -3.81075 0
M  V30 4640 C 436.37 -3.48674 -3.87397 0
M  V30 4641 C 433.698 -4.27696 -4.01613 0
M  V30 4642 C 436.05 -4.82223 -4.09444 0
M  V30 4643 C 434.714 -5.21973 -4.16054 0
M  V30 4644 H 433.984 -0.255367 -0.695607 0
M  V30 4645 H 436.631 -1.27111 -1.43231 0
M  V30 4646 H 434.936 -0.417799 -3.89566 0
M  V30 4647 H 436.633 -0.807818 -3.92779 0
M  V30 4648 H 433.223 -2.21768 -3.66765 0
M  V30 4649 H 437.407 -3.18904 -3.80281 0
M  V30 4650 H 432.663 -4.58055 -4.04964 0
M  V30 4651 H 436.837 -5.55672 -4.19763 0
M  V30 4652 H 434.464 -6.25717 -4.31721 0
M  V30 4653 N 436.039 1.36541 -0.78704 0
M  V30 4654 C 437.264 2.0409 -0.369053 0
M  V30 4655 C 437.689 1.58957 1.00569 0
M  V30 4656 O 437.047 0.756926 1.64743 0
M  V30 4657 C 437.095 3.57924 -0.438466 0
M  V30 4658 O 436.199 4.08642 0.555479 0
M  V30 4659 H 435.54 0.645142 -0.157122 0
M  V30 4660 H 438.07 1.74545 -1.06749 0
M  V30 4661 H 438.08 4.06887 -0.301218 0
M  V30 4662 H 436.755 3.90127 -1.44132 0
M  V30 4663 H 435.332 3.70958 0.380088 0
M  V30 4664 N 437.518 0.538854 1.48102 0
M  V30 4665 C 438.465 -0.219042 2.29758 0
M  V30 4666 C 439.435 -0.925562 1.37922 0
M  V30 4667 O 440.62 -0.924855 1.66886 0
M  V30 4668 C 437.76 -1.25452 3.2149 0
M  V30 4669 C 436.873 -0.555943 4.28408 0
M  V30 4670 C 436.008 -1.57512 5.0731 0
M  V30 4671 C 435.047 -0.860498 6.06021 0
M  V30 4672 N 434.184 -1.82564 6.77949 0
M  V30 4673 H 439.024 0.483449 2.94052 0
M  V30 4674 H 436.561 0.250247 1.44956 0
M  V30 4675 H 438.519 -1.86727 3.7308 0
M  V30 4676 H 437.149 -1.92528 2.591 0
M  V30 4677 H 436.201 0.170938 3.80016 0
M  V30 4678 H 437.513 0.00474616 4.988 0
M  V30 4679 H 436.667 -2.26191 5.62959 0
M  V30 4680 H 435.406 -2.16972 4.36778 0
M  V30 4681 H 434.411 -0.159686 5.49568 0
M  V30 4682 H 435.636 -0.271897 6.78555 0
M  V30 4683 H 433.582 -2.40915 6.10161 0
M  V30 4684 H 433.499 -1.31662 7.44447 0
M  V30 4685 H 434.767 -2.50414 7.38182 0
M  V30 4686 N 438.996 -1.55193 0.274407 0
M  V30 4687 C 440.244 -1.99187 -0.341902 0
M  V30 4688 C 440.565 -1.16422 -1.56431 0
M  V30 4689 O 439.835 -0.253573 -1.94252 0
M  V30 4690 H 438.415 -0.735721 -0.129317 0
M  V30 4691 H 441.077 -1.91168 0.379578 0
M  V30 4692 H 440.173 -3.05629 -0.632253 0
M  V30 4693 N 440.474 -0.00167713 -1.576 0
M  V30 4694 C 441.422 1.0074 -2.09652 0
M  V30 4695 C 442.416 1.35483 -1.01689 0
M  V30 4696 O 443.622 1.34028 -1.20152 0
M  V30 4697 H 439.997 0.342537 -0.669457 0
M  V30 4698 H 441.968 0.542841 -2.93421 0
M  V30 4699 C 440.717 2.2899 -2.61647 0
M  V30 4700 H 440.04 2.03124 -3.44355 0
M  V30 4701 H 441.48 2.9787 -3.01744 0
M  V30 4702 C 439.939 3.00085 -1.53136 0
M  V30 4703 O 440.469 3.91135 -0.91524 0
M  V30 4704 N 438.675 2.6194 -1.25841 0
M  V30 4705 H 438.222 1.8798 -1.76129 0
M  V30 4706 H 438.18 3.09822 -0.534576 0
M  V30 4707 N 441.952 1.55251 0.271103 0
M  V30 4708 C 442.915 1.87484 1.31842 0
M  V30 4709 C 443.915 0.749545 1.42262 0
M  V30 4710 O 445.105 1.01771 1.4138 0
M  V30 4711 C 442.237 2.0818 2.69951 0
M  V30 4712 H 443.43 2.81108 1.0449 0
M  V30 4713 H 440.983 1.47771 0.509258 0
M  V30 4714 H 441.718 1.16944 3.02481 0
M  V30 4715 H 441.503 2.90114 2.63774 0
M  V30 4716 H 442.993 2.34385 3.4562 0
M  V30 4717 N 443.43 -0.535701 1.48216 0
M  V30 4718 C 444.363 -1.65726 1.56876 0
M  V30 4719 C 445.341 -1.57094 0.419542 0
M  V30 4720 O 446.525 -1.77648 0.630352 0
M  V30 4721 C 443.652 -3.04096 1.49142 0
M  V30 4722 C 442.698 -3.31105 2.68834 0
M  V30 4723 S 443.531 -3.18001 4.30854 0
M  V30 4724 C 444.687 -4.58828 4.25709 0
M  V30 4725 H 444.92 -1.58129 2.51759 0
M  V30 4726 H 442.453 -0.718218 1.36678 0
M  V30 4727 H 444.411 -3.839 1.45366 0
M  V30 4728 H 443.072 -3.09139 0.556067 0
M  V30 4729 H 442.265 -4.32033 2.59545 0
M  V30 4730 H 441.867 -2.58961 2.69843 0
M  V30 4731 H 444.159 -5.5023 3.95289 0
M  V30 4732 H 445.102 -4.73172 5.26796 0
M  V30 4733 H 445.51 -4.37883 3.56257 0
M  V30 4734 N 444.908 -1.36708 -0.784132 0
M  V30 4735 C 446.133 -1.34565 -1.5782 0
M  V30 4736 C 446.558 0.0695257 -1.87971 0
M  V30 4737 O 445.916 1.04302 -1.48293 0
M  V30 4738 C 445.964 -2.17952 -2.87279 0
M  V30 4739 O 445.068 -1.57563 -3.81114 0
M  V30 4740 H 444.409 -0.460337 -0.478524 0
M  V30 4741 H 446.939 -1.80064 -0.971495 0
M  V30 4742 H 446.949 -2.30721 -3.365 0
M  V30 4743 H 445.624 -3.20823 -2.64661 0
M  V30 4744 H 444.201 -1.53764 -3.39722 0
M  V30 4745 N 446.386 1.0089 -1.21074 0
M  V30 4746 C 447.349 2.0775 -0.968129 0
M  V30 4747 C 448.349 1.6069 0.0593445 0
M  V30 4748 O 449.539 1.73293 -0.177525 0
M  V30 4749 C 446.671 3.37794 -0.459108 0
M  V30 4750 H 447.864 2.30707 -1.9161 0
M  V30 4751 H 445.417 1.17807 -1.02719 0
M  V30 4752 H 446.152 3.20516 0.49397 0
M  V30 4753 H 445.937 3.7328 -1.20019 0
M  V30 4754 H 447.427 4.16454 -0.309099 0
M  V30 4755 N 447.864 1.01787 1.20321 0
M  V30 4756 C 448.794 0.609625 2.25401 0
M  V30 4757 C 449.775 -0.375951 1.65893 0
M  V30 4758 O 450.96 -0.261101 1.92437 0
M  V30 4759 C 448.09 -0.0515995 3.47262 0
M  V30 4760 C 447.044 0.855095 4.19371 0
M  V30 4761 C 446.37 0.0595757 5.34667 0
M  V30 4762 C 447.67 2.16374 4.75373 0
M  V30 4763 H 449.364 1.48803 2.59804 0
M  V30 4764 H 446.91 0.716934 1.24884 0
M  V30 4765 H 448.863 -0.348764 4.19954 0
M  V30 4766 H 447.587 -0.964726 3.12027 0
M  V30 4767 H 446.246 1.13628 3.48546 0
M  V30 4768 H 445.894 -0.85524 4.95676 0
M  V30 4769 H 445.594 0.663406 5.83843 0
M  V30 4770 H 447.118 -0.231105 6.10162 0
M  V30 4771 H 448.532 1.92885 5.39878 0
M  V30 4772 H 446.929 2.71853 5.34991 0
M  V30 4773 H 447.999 2.82589 3.94045 0
M  V30 4774 N 449.342 -1.36122 0.79427 0
M  V30 4775 C 450.305 -2.28309 0.201889 0
M  V30 4776 C 451.305 -1.49041 -0.603603 0
M  V30 4777 O 452.495 -1.68964 -0.423888 0
M  V30 4778 C 449.627 -3.3321 -0.719978 0
M  V30 4779 H 450.82 -2.82208 1.01481 0
M  V30 4780 H 448.373 -1.45768 0.564037 0
M  V30 4781 H 449.108 -2.84475 -1.55706 0
M  V30 4782 H 448.893 -3.91835 -0.144266 0
M  V30 4783 H 450.383 -4.02044 -1.12916 0
M  V30 4784 N 450.82 -0.546701 -1.47814 0
M  V30 4785 C 451.783 0.196287 -2.28358 0
M  V30 4786 C 452.783 0.852437 -1.36346 0
M  V30 4787 O 453.973 0.709913 -1.59078 0
M  V30 4788 C 451.105 1.28579 -3.15722 0
M  V30 4789 H 452.298 -0.511086 -2.95513 0
M  V30 4790 H 449.851 -0.303248 -1.5333 0
M  V30 4791 H 450.586 2.0259 -2.53235 0
M  V30 4792 H 450.371 0.820229 -3.83425 0
M  V30 4793 H 451.861 1.80793 -3.76435 0
M  V30 4794 N 452.299 1.55045 -0.282633 0
M  V30 4795 C 453.249 2.19514 0.616249 0
M  V30 4796 C 454.233 1.16216 1.11277 0
M  V30 4797 O 455.425 1.42004 1.05659 0
M  V30 4798 C 452.554 2.92548 1.7964 0
M  V30 4799 C 451.64 4.03142 1.31671 0
M  V30 4800 N 452.031 5.0276 0.553695 0
M  V30 4801 C 450.329 4.1635 1.59903 0
M  V30 4802 C 451.03 5.80923 0.30054 0
M  V30 4803 N 450.006 5.3651 0.875116 0
M  V30 4804 H 453.808 2.93889 0.0255363 0
M  V30 4805 H 451.322 1.62169 -0.0865362 0
M  V30 4806 H 453.319 3.37188 2.45173 0
M  V30 4807 H 451.979 2.19685 2.39099 0
M  V30 4808 H 452.99 5.17512 0.20032 0
M  V30 4809 H 449.667 3.54682 2.20243 0
M  V30 4810 H 451.057 6.7118 -0.311053 0
M  V30 4811 N 453.777 0.010035 1.57597 0
M  V30 4812 C 455.193 -0.346164 1.55801 0
M  V30 4813 C 455.393 -1.74144 1.01371 0
M  V30 4814 O 454.449 -2.43938 0.651968 0
M  V30 4815 C 455.762 -0.212216 2.9995 0
M  V30 4816 C 457.31 -0.286409 3.11687 0
M  V30 4817 C 457.785 -0.18147 4.5764 0
M  V30 4818 N 459.276 -0.239056 4.62583 0
M  V30 4819 C 460.011 -0.181351 5.73113 0
M  V30 4820 N 459.507 -0.073661 6.92761 0
M  V30 4821 N 461.3 -0.233949 5.61613 0
M  V30 4822 H 453.451 0.922657 1.91313 0
M  V30 4823 H 455.714 0.354595 0.879185 0
M  V30 4824 H 455.42 0.748169 3.4365 0
M  V30 4825 H 455.294 -0.990224 3.6397 0
M  V30 4826 H 457.681 -1.23724 2.67911 0
M  V30 4827 H 457.762 0.521645 2.50425 0
M  V30 4828 H 457.406 0.765863 5.02093 0
M  V30 4829 H 457.336 -1.00814 5.1686 0
M  V30 4830 H 459.827 -0.32321 3.76515 0
M  V30 4831 H 460.14 -0.0358003 7.72792 0
M  V30 4832 H 458.485 -0.0391461 6.94989 0
M  V30 4833 H 461.676 -0.316347 4.6703 0
M  V30 4834 H 461.849 -0.185514 6.47734 0
M  V30 4835 N 455.255 -1.55392 -0.262866 0
M  V30 4836 C 456.501 -1.76737 -0.99458 0
M  V30 4837 C 456.834 -0.572453 -1.85571 0
M  V30 4838 O 456.109 0.429732 -1.89693 0
M  V30 4839 C 456.392 -3.07824 -1.8686 0
M  V30 4840 C 456.245 -4.3769 -1.03672 0
M  V30 4841 C 457.564 -3.35021 -2.85393 0
M  V30 4842 H 454.683 -0.643005 -0.360157 0
M  V30 4843 H 457.325 -1.88126 -0.266216 0
M  V30 4844 H 455.475 -2.98245 -2.48962 0
M  V30 4845 H 457.147 -4.59238 -0.43563 0
M  V30 4846 H 455.39 -4.32461 -0.340513 0
M  V30 4847 H 456.061 -5.25759 -1.6817 0
M  V30 4848 H 458.537 -3.44458 -2.33426 0
M  V30 4849 H 457.413 -4.27989 -3.43681 0
M  V30 4850 H 457.674 -2.55153 -3.61039 0
M  V30 4851 N 456.733 0.527833 -1.48498 0
M  V30 4852 C 457.973 1.29401 -1.58224 0
M  V30 4853 C 458.337 1.90348 -0.251327 0
M  V30 4854 O 459.538 2.67868 -0.223588 0
M  V30 4855 C 457.809 2.35266 -2.69044 0
M  V30 4856 S 459.368 3.2158 -2.98549 0
M  V30 4857 H 456.186 0.440138 -0.558391 0
M  V30 4858 H 458.788 0.601079 -1.8603 0
M  V30 4859 H 457.492 1.88975 -3.64303 0
M  V30 4860 H 457.023 3.09263 -2.43146 0
M  V30 4861 H 459.038 4.35391 -2.38011 0
M  V30 4862 N 458.211 1.37122 0.776871 0
M  V30 4863 C 459.459 1.31787 1.53221 0
M  V30 4864 C 459.78 -0.0987589 1.9475 0
M  V30 4865 O 459.05 -1.0417 1.65908 0
M  V30 4866 H 457.63 0.484839 0.568278 0
M  V30 4867 H 460.292 1.71556 0.924917 0
M  V30 4868 H 459.388 1.95355 2.43398 0
M  V30 4869 N 459.689 -1.00246 1.21608 0
M  V30 4870 C 460.935 -1.74319 1.03638 0
M  V30 4871 C 461.268 -1.89408 -0.428749 0
M  V30 4872 O 460.543 -1.43026 -1.3181 0
M  V30 4873 C 460.826 -3.15431 1.73711 0
M  V30 4874 C 460.679 -3.08049 3.27759 0
M  V30 4875 C 461.998 -4.14407 1.48173 0
M  V30 4876 H 459.117 -0.632741 0.377899 0
M  V30 4877 H 461.759 -1.16853 1.49818 0
M  V30 4878 H 459.909 -3.64493 1.34452 0
M  V30 4879 H 461.581 -2.66681 3.76403 0
M  V30 4880 H 459.824 -2.45088 3.57931 0
M  V30 4881 H 460.495 -4.07862 3.71958 0
M  V30 4882 H 462.971 -3.74061 1.82258 0
M  V30 4883 H 461.847 -5.11279 1.99713 0
M  V30 4884 H 462.108 -4.40174 0.412273 0
M  V30 4885 N 461.167 -1.02423 -1.1978 0
M  V30 4886 C 462.578 -0.748389 -1.71044 0
M  V30 4887 C 462.929 0.732398 -1.82017 0
M  V30 4888 O 462.054 1.57116 -1.48807 0
M  V30 4889 C 462.649 -1.35187 -3.1066 0
M  V30 4890 C 461.208 -1.12472 -3.59203 0
M  V30 4891 C 460.355 -1.45283 -2.36195 0
M  V30 4892 H 463.306 -1.19275 -1.04686 0
M  V30 4893 H 463.327 -0.746408 -3.73107 0
M  V30 4894 H 462.839 -2.4296 -3.02642 0
M  V30 4895 H 460.94 -0.0649983 -3.72543 0
M  V30 4896 H 461.053 -1.81016 -4.43588 0
M  V30 4897 H 459.417 -0.872034 -2.39307 0
M  V30 4898 H 460.2 -2.54129 -2.30811 0
M  V30 4899 N 462.645 1.35699 -0.801477 0
M  V30 4900 C 463.575 2.32436 -0.222658 0
M  V30 4901 C 464.556 1.5723 0.649057 0
M  V30 4902 O 465.741 1.85324 0.580387 0
M  V30 4903 C 462.871 3.41469 0.633719 0
M  V30 4904 C 461.825 4.27774 -0.139083 0
M  V30 4905 C 461.151 5.28082 0.838666 0
M  V30 4906 C 462.451 5.04946 -1.33517 0
M  V30 4907 H 464.145 2.81094 -1.03086 0
M  V30 4908 H 461.691 1.35146 -0.497155 0
M  V30 4909 H 463.644 4.08143 1.04868 0
M  V30 4910 H 462.368 2.91408 1.47475 0
M  V30 4911 H 461.027 3.62673 -0.535156 0
M  V30 4912 H 460.675 4.7429 1.67506 0
M  V30 4913 H 460.375 5.86695 0.32594 0
M  V30 4914 H 461.899 5.97628 1.25194 0
M  V30 4915 H 463.313 5.64593 -0.995349 0
M  V30 4916 H 461.71 5.7303 -1.78202 0
M  V30 4917 H 462.78 4.35886 -2.12442 0
M  V30 4918 N 464.123 0.554532 1.47522 0
M  V30 4919 C 465.033 -0.197865 2.33764 0
M  V30 4920 C 466.049 -0.914576 1.48025 0
M  V30 4921 O 467.225 -0.884067 1.80959 0
M  V30 4922 C 464.29 -1.21628 3.24665 0
M  V30 4923 C 463.351 -0.507283 4.26292 0
M  V30 4924 C 462.584 -1.47718 5.1285 0
M  V30 4925 O 462.807 -2.7118 5.01814 0
M  V30 4926 O 461.741 -1.00313 5.93482 0
M  V30 4927 H 465.567 0.50949 2.99396 0
M  V30 4928 H 463.152 0.315176 1.46038 0
M  V30 4929 H 465.034 -1.80421 3.80823 0
M  V30 4930 H 463.709 -1.9056 2.61665 0
M  V30 4931 H 462.616 0.121778 3.73902 0
M  V30 4932 H 463.949 0.140544 4.91999 0
M  V30 4933 N 465.601 -1.54893 0.290851 0
M  V30 4934 C 466.829 -2.04343 -0.324288 0
M  V30 4935 C 467.244 -1.16859 -1.48289 0
M  V30 4936 O 466.601 -0.192018 -1.81487 0
M  V30 4937 C 466.652 -3.52756 -0.79026 0
M  V30 4938 O 466.373 -4.36913 0.322213 0
M  V30 4939 C 467.874 -4.18161 -1.4716 0
M  V30 4940 H 465.094 -0.667135 -0.0719173 0
M  V30 4941 H 467.638 -1.99981 0.427529 0
M  V30 4942 H 465.793 -3.57511 -1.49213 0
M  V30 4943 H 466.207 -5.24486 -0.0387372 0
M  V30 4944 H 467.681 -5.23562 -1.7489 0
M  V30 4945 H 468.158 -3.67282 -2.40834 0
M  V30 4946 H 468.764 -4.17454 -0.813178 0
M  V30 4947 N 467.08 -0.0183926 -1.57589 0
M  V30 4948 C 468.01 0.965596 -2.12599 0
M  V30 4949 C 468.991 1.34641 -1.0395 0
M  V30 4950 O 470.176 1.42693 -1.31729 0
M  V30 4951 C 467.306 2.25149 -2.64434 0
M  V30 4952 C 466.26 2.01175 -3.77773 0
M  V30 4953 C 465.586 3.35937 -4.15994 0
M  V30 4954 C 466.886 1.35953 -5.04296 0
M  V30 4955 H 468.58 0.507504 -2.95067 0
M  V30 4956 H 466.126 0.242671 -1.41941 0
M  V30 4957 H 468.079 2.94357 -3.01549 0
M  V30 4958 H 466.803 2.73105 -1.79112 0
M  V30 4959 H 465.462 1.34388 -3.4108 0
M  V30 4960 H 465.11 3.81631 -3.27669 0
M  V30 4961 H 464.81 3.20705 -4.92364 0
M  V30 4962 H 466.334 4.0643 -4.55683 0
M  V30 4963 H 467.748 1.95144 -5.39065 0
M  V30 4964 H 466.145 1.31152 -5.85593 0
M  V30 4965 H 467.215 0.331071 -4.83768 0
M  V30 4966 N 468.558 1.5553 0.254621 0
M  V30 4967 C 469.521 1.88872 1.29846 0
M  V30 4968 C 470.521 0.764591 1.41459 0
M  V30 4969 O 471.711 1.03265 1.40293 0
M  V30 4970 C 468.843 2.11032 2.67728 0
M  V30 4971 H 470.036 2.82201 1.01502 0
M  V30 4972 H 467.589 1.48303 0.493556 0
M  V30 4973 H 468.324 1.20146 3.01223 0
M  V30 4974 H 468.109 2.92895 2.60682 0
M  V30 4975 H 469.599 2.38038 3.43115 0
M  V30 4976 N 470.036 -0.519951 1.48776 0
M  V30 4977 C 471.452 -0.849418 1.35119 0
M  V30 4978 C 471.652 -1.98077 0.36982 0
M  V30 4979 O 470.708 -2.51664 -0.205359 0
M  V30 4980 C 472.021 -1.20748 2.75391 0
M  V30 4981 C 473.569 -1.31679 2.83954 0
M  V30 4982 C 474.044 -1.70824 4.24951 0
M  V30 4983 N 475.535 -1.77908 4.27672 0
M  V30 4984 C 476.27 -2.09603 5.33717 0
M  V30 4985 N 475.766 -2.39652 6.5003 0
M  V30 4986 N 477.559 -2.10694 5.21119 0
M  V30 4987 H 469.71 0.226377 2.1119 0
M  V30 4988 H 471.973 0.0386519 0.947212 0
M  V30 4989 H 471.679 -0.449703 3.48813 0
M  V30 4990 H 471.553 -2.15534 3.09556 0
M  V30 4991 H 473.94 -2.06532 2.10781 0
M  V30 4992 H 474.021 -0.3499 2.53396 0
M  V30 4993 H 473.665 -0.965282 4.98643 0
M  V30 4994 H 473.595 -2.6858 4.52959 0
M  V30 4995 H 476.086 -1.56923 3.43779 0
M  V30 4996 H 476.399 -2.6297 7.26682 0
M  V30 4997 H 474.744 -2.37149 6.53288 0
M  V30 4998 H 477.935 -1.86682 4.29264 0
M  V30 4999 H 478.108 -2.35062 6.03863 0
M  V30 5000 N 471.514 -1.37532 -0.769588 0
M  V30 5001 C 472.739 -1.36231 -1.56384 0
M  V30 5002 C 473.164 0.0495849 -1.88035 0
M  V30 5003 O 472.522 1.02723 -1.49391 0
M  V30 5004 C 472.57 -2.20986 -2.84952 0
M  V30 5005 O 471.674 -1.61597 -3.79421 0
M  V30 5006 H 471.015 -0.465387 -0.473615 0
M  V30 5007 H 473.545 -1.81085 -0.952342 0
M  V30 5008 H 473.555 -2.34277 -3.34034 0
M  V30 5009 H 472.23 -3.23612 -2.61243 0
M  V30 5010 H 470.807 -1.57359 -3.38072 0
M  V30 5011 N 472.992 0.995999 -1.22138 0
M  V30 5012 C 474.408 1.25917 -0.980667 0
M  V30 5013 C 474.608 1.98819 0.327604 0
M  V30 5014 O 473.664 2.29587 1.05101 0
M  V30 5015 C 474.977 2.07399 -2.17729 0
M  V30 5016 C 476.525 2.20594 -2.22052 0
M  V30 5017 C 477 3.05462 -3.41258 0
M  V30 5018 N 478.491 3.13049 -3.41401 0
M  V30 5019 C 479.226 3.78997 -4.30289 0
M  V30 5020 N 478.722 4.46899 -5.2939 0
M  V30 5021 N 480.515 3.75728 -4.18073 0
M  V30 5022 H 472.666 0.507158 -2.06256 0
M  V30 5023 H 474.929 0.28658 -0.903646 0
M  V30 5024 H 474.635 1.61191 -3.12586 0
M  V30 5025 H 474.509 3.08154 -2.17534 0
M  V30 5026 H 476.896 2.66017 -1.27745 0
M  V30 5027 H 476.977 1.1928 -2.26287 0
M  V30 5028 H 476.621 2.60739 -4.35864 0
M  V30 5029 H 476.551 4.06911 -3.34262 0
M  V30 5030 H 479.042 2.64721 -2.69688 0
M  V30 5031 H 479.355 4.94952 -5.935 0
M  V30 5032 H 477.7 4.45657 -5.33306 0
M  V30 5033 H 480.891 3.2184 -3.39907 0
M  V30 5034 H 481.064 4.26845 -4.87553 0
M  V30 5035 N 474.47 1.03057 1.19235 0
M  V30 5036 C 475.417 0.612832 2.22515 0
M  V30 5037 C 476.387 -0.374224 1.61829 0
M  V30 5038 O 477.572 -0.270501 1.88873 0
M  V30 5039 C 474.712 -0.028475 3.45088 0
M  V30 5040 C 473.825 1.00483 4.20151 0
M  V30 5041 C 472.96 0.333102 5.30155 0
M  V30 5042 C 471.999 1.3522 5.96977 0
M  V30 5043 N 471.136 0.70616 6.9854 0
M  V30 5044 H 475.976 1.49812 2.57605 0
M  V30 5045 H 473.513 0.749658 1.26564 0
M  V30 5046 H 475.471 -0.417548 4.15105 0
M  V30 5047 H 474.101 -0.877334 3.10649 0
M  V30 5048 H 473.153 1.51194 3.49062 0
M  V30 5049 H 474.465 1.77929 4.65986 0
M  V30 5050 H 473.619 -0.110725 6.06599 0
M  V30 5051 H 472.358 -0.473547 4.85396 0
M  V30 5052 H 471.363 1.80627 5.19282 0
M  V30 5053 H 472.588 2.16037 6.4382 0
M  V30 5054 H 470.534 -0.0803667 6.55951 0
M  V30 5055 H 470.451 1.41848 7.42573 0
M  V30 5056 H 471.719 0.286391 7.78974 0
M  V30 5057 N 475.948 -1.35272 0.808662 0
M  V30 5058 C 477.359 -1.81179 0.450688 0
M  V30 5059 C 477.71 -1.67143 -1.02751 0
M  V30 5060 O 476.835 -1.20325 -1.79864 0
M  V30 5061 C 477.43 -3.28943 0.811275 0
M  V30 5062 C 475.989 -3.72985 0.505871 0
M  V30 5063 C 475.136 -2.57229 1.03578 0
M  V30 5064 H 478.087 -1.2322 1.00012 0
M  V30 5065 H 478.108 -3.80342 0.109588 0
M  V30 5066 H 477.62 -3.39127 1.88718 0
M  V30 5067 H 475.721 -3.68349 -0.561209 0
M  V30 5068 H 475.834 -4.67677 1.03995 0
M  V30 5069 H 474.198 -2.50548 0.458005 0
M  V30 5070 H 474.981 -2.7019 2.11784 0
M  V30 5071 N 477.426 -0.562348 -1.47226 0
M  V30 5072 C 478.842 -0.222492 -1.58042 0
M  V30 5073 C 479.042 1.27505 -1.56028 0
M  V30 5074 O 478.098 2.05555 -1.46641 0
M  V30 5075 C 479.411 -0.853694 -2.88327 0
M  V30 5076 C 480.959 -0.825397 -3.01921 0
M  V30 5077 C 481.434 -1.43576 -4.34914 0
M  V30 5078 N 482.925 -1.39918 -4.41562 0
M  V30 5079 C 483.66 -1.84103 -5.43041 0
M  V30 5080 N 483.156 -2.36167 -6.51304 0
M  V30 5081 N 484.949 -1.75142 -5.34118 0
M  V30 5082 H 477.1 -1.53525 -1.46778 0
M  V30 5083 H 479.363 -0.640527 -0.698877 0
M  V30 5084 H 479.069 -1.90635 -2.95552 0
M  V30 5085 H 478.943 -0.34977 -3.75575 0
M  V30 5086 H 481.33 0.218583 -2.94289 0
M  V30 5087 H 481.411 -1.36713 -2.16202 0
M  V30 5088 H 481.055 -2.47884 -4.43301 0
M  V30 5089 H 480.985 -0.869427 -5.19373 0
M  V30 5090 H 483.476 -1.0184 -3.63919 0
M  V30 5091 H 483.789 -2.67793 -7.24919 0
M  V30 5092 H 482.134 -2.40181 -6.52179 0
M  V30 5093 H 485.325 -1.34241 -4.48439 0
M  V30 5094 H 485.498 -2.09895 -6.13065 0
M  V30 5095 N 478.904 1.54736 -0.299062 0
M  V30 5096 C 480.181 1.92187 0.363802 0
M  V30 5097 C 480.561 1.22607 1.71845 0
M  V30 5098 O 479.909 0.361141 2.25628 0
M  V30 5099 C 480.119 3.45678 0.480377 0
M  V30 5100 C 481.467 4.17885 0.752147 0
M  V30 5101 O 482.491 3.51702 0.564264 0
M  V30 5102 O 481.35 5.35048 1.11294 0
M  V30 5103 H 478.444 0.801681 0.203066 0
M  V30 5104 H 480.99 1.66115 -0.346978 0
M  V30 5105 H 479.762 3.88443 -0.471999 0
M  V30 5106 H 479.385 3.77779 1.2397 0
M  V30 5107 N 480.382 0.0267497 1.57577 0
M  V30 5108 C 481.312 -0.954308 2.13108 0
M  V30 5109 C 482.293 -1.34088 1.04663 0
M  V30 5110 O 483.478 -1.41992 1.32484 0
M  V30 5111 C 480.608 -2.23744 2.65624 0
M  V30 5112 C 479.562 -1.99168 3.78835 0
M  V30 5113 C 478.888 -3.33726 4.17769 0
M  V30 5114 C 480.188 -1.33277 5.0501 0
M  V30 5115 H 481.882 -0.491848 2.95332 0
M  V30 5116 H 479.428 -0.23514 1.42067 0
M  V30 5117 H 481.381 -2.92754 3.03106 0
M  V30 5118 H 480.105 -2.72151 1.80558 0
M  V30 5119 H 478.764 -1.32577 3.41788 0
M  V30 5120 H 478.412 -3.79888 3.29688 0
M  V30 5121 H 478.112 -3.18089 4.94058 0
M  V30 5122 H 479.636 -4.04008 4.57832 0
M  V30 5123 H 481.05 -1.92283 5.40093 0
M  V30 5124 H 479.447 -1.28045 5.8628 0
M  V30 5125 H 480.517 -0.305411 4.83937 0
M  V30 5126 N 481.861 -1.55662 -0.24637 0
M  V30 5127 C 483.089 -1.81575 -0.991876 0
M  V30 5128 C 483.504 -0.602545 -1.78927 0
M  V30 5129 O 482.861 0.428795 -1.77391 0
M  V30 5130 C 482.912 -3.05711 -1.92933 0
M  V30 5131 O 482.633 -4.22348 -1.1642 0
M  V30 5132 C 484.134 -3.44428 -2.79078 0
M  V30 5133 H 481.354 -0.604209 -0.291844 0
M  V30 5134 H 483.898 -2.02722 -0.269095 0
M  V30 5135 H 482.053 -2.86612 -2.60638 0
M  V30 5136 H 482.467 -4.92706 -1.79835 0
M  V30 5137 H 483.941 -4.34388 -3.40603 0
M  V30 5138 H 484.418 -2.65037 -3.50217 0
M  V30 5139 H 485.024 -3.65879 -2.16824 0
M  V30 5140 N 483.339 0.512053 -1.4905 0
M  V30 5141 C 484.616 1.27337 -1.48474 0
M  V30 5142 C 484.996 2.1009 -0.206301 0
M  V30 5143 O 484.344 2.136 0.811609 0
M  V30 5144 C 484.554 2.13954 -2.75726 0
M  V30 5145 C 485.902 2.73507 -3.24776 0
M  V30 5146 O 486.926 2.24229 -2.76767 0
M  V30 5147 O 485.785 3.63186 -4.08361 0
M  V30 5148 H 482.879 0.575652 -0.593762 0
M  V30 5149 H 485.425 0.527232 -1.61302 0
M  V30 5150 H 484.197 1.52709 -3.60272 0
M  V30 5151 H 483.82 2.95782 -2.65705 0
M  V30 5152 N 484.817 1.37938 0.762283 0
M  V30 5153 C 486.094 1.24196 1.51112 0
M  V30 5154 C 486.474 -0.160409 2.1049 0
M  V30 5155 O 485.822 -1.16904 1.96331 0
M  V30 5156 C 486.032 2.34537 2.58445 0
M  V30 5157 C 487.38 2.7254 3.25588 0
M  V30 5158 O 488.404 2.33783 2.68745 0
M  V30 5159 O 487.263 3.39343 4.28379 0
M  V30 5160 H 484.357 0.485175 0.669727 0
M  V30 5161 H 486.903 1.49743 0.798438 0
M  V30 5162 H 485.675 3.28406 2.12756 0
M  V30 5163 H 485.298 2.10505 3.37303 0
M  V30 5164 N 486.295 -0.989507 1.22664 0
M  V30 5165 C 487.225 -2.09847 1.02404 0
M  V30 5166 C 488.206 -1.70007 -0.0561303 0
M  V30 5167 O 489.391 -1.93906 0.106748 0
M  V30 5168 C 486.521 -3.41996 0.604663 0
M  V30 5169 C 485.475 -3.95699 1.63115 0
M  V30 5170 C 484.801 -5.23936 1.0675 0
M  V30 5171 C 486.101 -4.25999 3.02196 0
M  V30 5172 H 487.795 -2.27054 1.95158 0
M  V30 5173 H 485.341 -1.09111 0.939727 0
M  V30 5174 H 487.294 -4.1899 0.45002 0
M  V30 5175 H 486.018 -3.24626 -0.35855 0
M  V30 5176 H 484.677 -3.2084 1.77362 0
M  V30 5177 H 484.325 -5.02909 0.0955422 0
M  V30 5178 H 484.025 -5.60833 1.75328 0
M  V30 5179 H 485.549 -6.0356 0.924516 0
M  V30 5180 H 486.963 -4.93777 2.91303 0
M  V30 5181 H 485.36 -4.74076 3.67929 0
M  V30 5182 H 486.43 -3.33636 3.51873 0
M  V30 5183 N 487.773 -1.03688 -1.18687 0
M  V30 5184 C 488.998 -0.757819 -1.93059 0
M  V30 5185 C 489.423 0.678353 -1.75442 0
M  V30 5186 O 488.781 1.46938 -1.06203 0
M  V30 5187 C 488.829 -1.12423 -3.42627 0
M  V30 5188 O 487.933 -0.247505 -4.11657 0
M  V30 5189 H 487.274 -0.279245 -0.602427 0
M  V30 5190 H 489.804 -1.3857 -1.5053 0
M  V30 5191 H 489.814 -1.08454 -3.93322 0
M  V30 5192 H 488.489 -2.17049 -3.54771 0
M  V30 5193 H 487.066 -0.34649 -3.71287 0
M  V30 5194 N 489.251 1.34841 -0.815825 0
M  V30 5195 C 490.491 2.00321 -0.406297 0
M  V30 5196 C 490.855 1.63293 1.00992 0
M  V30 5197 O 492.056 2.21563 1.52195 0
M  V30 5198 C 490.327 3.52421 -0.594469 0
M  V30 5199 S 491.886 4.37926 -0.276735 0
M  V30 5200 H 488.704 0.694155 -0.153848 0
M  V30 5201 H 491.306 1.64263 -1.06009 0
M  V30 5202 H 490.01 3.76858 -1.625 0
M  V30 5203 H 489.541 3.9333 0.0743157 0
M  V30 5204 H 491.556 4.87743 0.912215 0
M  V30 5205 N 490.729 0.570148 1.46925 0
M  V30 5206 C 491.692 -0.159933 2.28641 0
M  V30 5207 C 492.692 -0.830638 1.37685 0
M  V30 5208 O 493.882 -0.684516 1.60187 0
M  V30 5209 C 491.014 -1.2354 3.17727 0
M  V30 5210 H 492.207 0.558035 2.94662 0
M  V30 5211 H 489.76 0.327603 1.52828 0
M  V30 5212 H 490.495 -1.98535 2.56426 0
M  V30 5213 H 490.28 -0.759125 3.84681 0
M  V30 5214 H 491.77 -1.74782 3.79264 0
M  V30 5215 N 492.207 -1.54576 0.307264 0
M  V30 5216 C 493.437 -2.04378 -0.302158 0
M  V30 5217 C 493.845 -1.18381 -1.47589 0
M  V30 5218 O 493.188 -0.20352 -1.82569 0
M  V30 5219 C 493.25 -3.50133 -0.815305 0
M  V30 5220 C 492.914 -4.56401 0.233977 0
M  V30 5221 C 493.911 -5.08884 1.06456 0
M  V30 5222 C 491.596 -5.0088 0.377478 0
M  V30 5223 C 493.59 -6.04394 2.02452 0
M  V30 5224 C 491.277 -5.96208 1.34088 0
M  V30 5225 C 492.275 -6.47849 2.16288 0
M  V30 5226 O 491.963 -7.41308 3.10994 0
M  V30 5227 H 491.695 -0.672502 -0.0686839 0
M  V30 5228 H 494.249 -2.00484 0.446682 0
M  V30 5229 H 492.479 -3.51371 -1.61478 0
M  V30 5230 H 494.168 -3.83098 -1.34129 0
M  V30 5231 H 494.934 -4.75311 0.964596 0
M  V30 5232 H 490.813 -4.60309 -0.252405 0
M  V30 5233 H 494.357 -6.44626 2.66652 0
M  V30 5234 H 490.254 -6.29198 1.44154 0
M  V30 5235 H 491.022 -7.5913 3.06045 0
M  V30 5236 N 493.685 -0.035106 -1.57561 0
M  V30 5237 C 494.617 0.973604 -2.07494 0
M  V30 5238 C 495.63 1.28504 -0.999534 0
M  V30 5239 O 496.819 1.24864 -1.27559 0
M  V30 5240 C 493.919 2.29945 -2.48955 0
M  V30 5241 C 493.092 2.1723 -3.79644 0
M  V30 5242 C 492.151 3.328 -4.07592 0
M  V30 5243 O 491.177 3.09418 -4.77754 0
M  V30 5244 N 492.379 4.56779 -3.58236 0
M  V30 5245 H 495.144 0.547525 -2.94656 0
M  V30 5246 H 492.705 0.151515 -1.61189 0
M  V30 5247 H 494.697 3.06097 -2.64739 0
M  V30 5248 H 493.267 2.64173 -1.67126 0
M  V30 5249 H 492.487 1.25768 -3.73599 0
M  V30 5250 H 493.775 2.05945 -4.65257 0
M  V30 5251 H 493.173 4.78668 -3.01485 0
M  V30 5252 H 491.73 5.30079 -3.79288 0
M  V30 5253 N 495.163 1.55791 0.238111 0
M  V30 5254 C 496.126 1.90239 1.27835 0
M  V30 5255 C 497.126 0.779552 1.4064 0
M  V30 5256 O 498.316 1.04747 1.3919 0
M  V30 5257 C 495.448 2.13859 2.65475 0
M  V30 5258 H 496.641 2.83262 0.985034 0
M  V30 5259 H 494.194 1.48818 0.477799 0
M  V30 5260 H 494.929 1.23334 2.99932 0
M  V30 5261 H 494.714 2.95643 2.57561 0
M  V30 5262 H 496.204 2.41664 3.40571 0
M  V30 5263 N 496.642 -0.504142 1.49319 0
M  V30 5264 C 497.574 -1.62265 1.61872 0
M  V30 5265 C 498.587 -1.54881 0.501573 0
M  V30 5266 O 499.776 -1.6087 0.773497 0
M  V30 5267 C 496.876 -3.01042 1.55651 0
M  V30 5268 C 496.049 -3.33642 2.82845 0
M  V30 5269 C 495.108 -4.51816 2.69719 0
M  V30 5270 O 494.134 -4.53755 3.4365 0
M  V30 5271 N 495.336 -5.51543 1.81055 0
M  V30 5272 H 498.101 -1.51924 2.58339 0
M  V30 5273 H 495.662 -0.691954 1.46368 0
M  V30 5274 H 497.654 -3.78013 1.44528 0
M  V30 5275 H 496.224 -3.05323 0.670546 0
M  V30 5276 H 495.444 -2.45598 3.08343 0
M  V30 5277 H 496.732 -3.5222 3.67177 0
M  V30 5278 H 496.13 -5.52774 1.20241 0
M  V30 5279 H 494.687 -6.27629 1.75856 0
M  V30 5280 N 498.12 -1.38341 -0.754957 0
M  V30 5281 C 499.068 -1.35573 -1.89005 0
M  V30 5282 C 500.062 -0.241824 -1.67665 0
M  V30 5283 O 501.268 -0.410785 -1.7525 0
M  V30 5284 H 497.643 -0.422898 -0.621821 0
M  V30 5285 H 499.614 -2.31359 -1.88455 0
M  V30 5286 C 498.363 -1.19631 -3.26471 0
M  V30 5287 H 497.686 -2.04605 -3.43477 0
M  V30 5288 H 499.126 -1.21748 -4.06144 0
M  V30 5289 C 497.585 0.0968705 -3.36761 0
M  V30 5290 O 498.115 1.07439 -3.87066 0
M  V30 5291 N 496.321 0.153242 -2.90196 0
M  V30 5292 H 495.868 -0.642908 -2.49448 0
M  V30 5293 H 495.826 1.01807 -2.9746 0
M  V30 5294 N 499.598 0.982988 -1.23187 0
M  V30 5295 C 500.847 1.71817 -1.05649 0
M  V30 5296 C 501.16 1.91315 0.407176 0
M  V30 5297 O 502.366 2.62256 0.702436 0
M  V30 5298 C 500.822 3.09188 -1.84203 0
M  V30 5299 C 500.43 2.97586 -3.34882 0
M  V30 5300 C 502.174 3.86684 -1.75146 0
M  V30 5301 C 500.081 4.30173 -4.05839 0
M  V30 5302 H 499.011 0.644258 -0.391724 0
M  V30 5303 H 501.662 1.09659 -1.4713 0
M  V30 5304 H 500.044 3.72087 -1.35527 0
M  V30 5305 H 501.218 2.43793 -3.91026 0
M  V30 5306 H 499.533 2.33567 -3.44725 0
M  V30 5307 H 502.13 4.84836 -2.25473 0
M  V30 5308 H 502.473 4.10136 -0.713737 0
M  V30 5309 H 503.006 3.30482 -2.21419 0
M  V30 5310 H 499.745 4.11918 -5.09906 0
M  V30 5311 H 499.265 4.83841 -3.54482 0
M  V30 5312 H 500.944 4.98873 -4.11989 0
M  V30 5313 N 501.076 1.04316 1.18135 0
M  V30 5314 C 502.322 0.749128 1.88457 0
M  V30 5315 C 502.655 -0.72149 1.803 0
M  V30 5316 O 501.93 -1.52676 1.205 0
M  V30 5317 C 502.213 1.21905 3.38838 0
M  V30 5318 C 502.066 2.75195 3.55792 0
M  V30 5319 C 503.385 0.811085 4.32561 0
M  V30 5320 H 500.504 0.273611 0.684329 0
M  V30 5321 H 503.146 1.29561 1.38975 0
M  V30 5322 H 501.296 0.754137 3.8111 0
M  V30 5323 H 502.968 3.29743 3.22595 0
M  V30 5324 H 501.211 3.14899 2.98364 0
M  V30 5325 H 501.882 3.03135 4.61317 0
M  V30 5326 H 504.358 1.21118 3.98082 0
M  V30 5327 H 503.234 1.16761 5.36338 0
M  V30 5328 H 503.495 -0.285596 4.41177 0
M  V30 5329 N 502.554 -1.34406 0.822964 0
M  V30 5330 C 503.779 -2.0304 0.423034 0
M  V30 5331 C 504.204 -1.61568 -0.963196 0
M  V30 5332 O 503.562 -0.800339 -1.62678 0
M  V30 5333 C 503.61 -3.56636 0.53321 0
M  V30 5334 O 502.714 -4.09971 -0.446939 0
M  V30 5335 H 502.055 -0.64075 0.174171 0
M  V30 5336 H 504.585 -1.71653 1.11339 0
M  V30 5337 H 504.595 -4.05945 0.408991 0
M  V30 5338 H 503.27 -3.86168 1.54425 0
M  V30 5339 H 501.847 -3.71835 -0.281601 0
M  V30 5340 N 504.032 -0.577932 -1.46621 0
M  V30 5341 C 504.962 0.145917 -2.33044 0
M  V30 5342 C 505.943 0.888412 -1.45056 0
M  V30 5343 O 507.128 0.864812 -1.73881 0
M  V30 5344 C 504.258 1.16322 -3.27241 0
M  V30 5345 C 503.212 0.535868 -4.24632 0
M  V30 5346 C 502.538 1.65929 -5.08303 0
M  V30 5347 C 503.838 -0.523861 -5.19666 0
M  V30 5348 H 505.532 -0.575636 -2.93814 0
M  V30 5349 H 503.078 -0.278272 -1.41286 0
M  V30 5350 H 505.031 1.67793 -3.86553 0
M  V30 5351 H 503.755 1.91498 -2.64567 0
M  V30 5352 H 502.414 0.0422759 -3.66576 0
M  V30 5353 H 502.062 2.40061 -4.42018 0
M  V30 5354 H 501.762 1.2452 -5.74255 0
M  V30 5355 H 503.286 2.17686 -5.70478 0
M  V30 5356 H 504.7 -0.0944059 -5.73222 0
M  V30 5357 H 503.097 -0.858 -5.93935 0
M  V30 5358 H 504.167 -1.41197 -4.63887 0
M  V30 5359 N 505.51 1.54411 -0.315457 0
M  V30 5360 C 506.757 2.00419 0.289543 0
M  V30 5361 C 507.085 1.20373 1.52776 0
M  V30 5362 O 506.34 0.271769 1.93804 0
M  V30 5363 C 506.639 3.50936 0.676652 0
M  V30 5364 C 506.305 4.48532 -0.461472 0
M  V30 5365 C 504.967 4.74936 -0.773879 0
M  V30 5366 C 507.319 5.06567 -1.22637 0
M  V30 5367 C 504.647 5.56634 -1.85405 0
M  V30 5368 C 506.999 5.89441 -2.29657 0
M  V30 5369 C 505.663 6.1415 -2.61488 0
M  V30 5370 H 504.933 0.733386 0.105951 0
M  V30 5371 H 507.58 1.86434 -0.437554 0
M  V30 5372 H 505.885 3.62606 1.48405 0
M  V30 5373 H 507.582 3.83971 1.15618 0
M  V30 5374 H 504.172 4.28096 -0.207893 0
M  V30 5375 H 508.356 4.86157 -0.998271 0
M  V30 5376 H 503.612 5.74012 -2.10523 0
M  V30 5377 H 507.786 6.33432 -2.89374 0
M  V30 5378 H 505.413 6.77245 -3.45317 0
M  V30 5379 N 506.988 0.0434614 1.5754 0
M  V30 5380 C 508.234 -0.632971 1.92669 0
M  V30 5381 C 508.567 -1.70947 0.921446 0
M  V30 5382 O 507.842 -1.94426 -0.0537202 0
M  V30 5383 C 508.125 -1.23619 3.38216 0
M  V30 5384 C 507.978 -0.168274 4.49485 0
M  V30 5385 C 509.297 -2.15008 3.84005 0
M  V30 5386 H 506.416 -0.228629 0.700641 0
M  V30 5387 H 509.058 0.103651 1.89717 0
M  V30 5388 H 507.208 -1.864 3.40863 0
M  V30 5389 H 508.88 0.463196 4.58969 0
M  V30 5390 H 507.123 0.504581 4.30855 0
M  V30 5391 H 507.794 -0.630218 5.48391 0
M  V30 5392 H 510.27 -1.62198 3.83185 0
M  V30 5393 H 509.146 -2.54161 4.86511 0
M  V30 5394 H 509.407 -3.04707 3.20322 0
M  V30 5395 N 508.466 -1.55915 -0.229846 0
M  V30 5396 C 509.429 -1.90914 -1.26824 0
M  V30 5397 C 510.429 -0.786999 -1.40225 0
M  V30 5398 O 511.619 -1.05484 -1.38632 0
M  V30 5399 C 508.751 -2.15264 -2.64337 0
M  V30 5400 H 509.944 -2.8378 -0.969998 0
M  V30 5401 H 507.497 -1.49069 -0.4699 0
M  V30 5402 H 508.232 -1.24923 -2.99274 0
M  V30 5403 H 508.017 -2.97005 -2.55989 0
M  V30 5404 H 509.507 -2.43467 -3.39284 0
M  V30 5405 N 509.944 0.496216 -1.49584 0
M  V30 5406 C 511.172 1.27394 -1.63029 0
M  V30 5407 C 511.587 1.86344 -0.303569 0
M  V30 5408 O 510.944 1.68057 0.711547 0
M  V30 5409 C 510.995 2.40077 -2.70269 0
M  V30 5410 O 510.716 1.83549 -3.97796 0
M  V30 5411 C 512.217 3.31372 -2.94462 0
M  V30 5412 H 509.437 0.386211 -0.54871 0
M  V30 5413 H 511.981 0.595163 -1.95648 0
M  V30 5414 H 510.136 3.03775 -2.40415 0
M  V30 5415 H 510.55 2.57561 -4.56905 0
M  V30 5416 H 512.024 4.06707 -3.73221 0
M  V30 5417 H 512.501 3.88654 -2.0456 0
M  V30 5418 H 513.107 2.73435 -3.25751 0
M  V30 5419 N 511.423 1.38739 0.74761 0
M  V30 5420 C 512.839 1.20067 1.05148 0
M  V30 5421 C 513.039 0.0534835 2.01429 0
M  V30 5422 O 512.095 -0.59886 2.45296 0
M  V30 5423 C 513.408 2.52957 1.62584 0
M  V30 5424 C 514.956 2.59692 1.74726 0
M  V30 5425 C 515.431 3.92772 2.35573 0
M  V30 5426 N 516.922 3.94343 2.42997 0
M  V30 5427 C 517.657 4.9408 2.90985 0
M  V30 5428 N 517.153 6.04214 3.38965 0
M  V30 5429 N 518.946 4.81466 2.9008 0
M  V30 5430 H 511.097 2.12121 0.108808 0
M  V30 5431 H 513.36 0.941491 0.110899 0
M  V30 5432 H 513.066 3.37389 0.993051 0
M  V30 5433 H 512.94 2.71779 2.61565 0
M  V30 5434 H 515.327 1.75651 2.3713 0
M  V30 5435 H 515.408 2.44731 0.744326 0
M  V30 5436 H 515.052 4.77238 1.738 0
M  V30 5437 H 514.982 4.05046 3.36519 0
M  V30 5438 H 517.473 3.14799 2.0907 0
M  V30 5439 H 517.786 6.76241 3.74056 0
M  V30 5440 H 516.131 6.07825 3.37007 0
M  V30 5441 H 519.322 3.94535 2.51912 0
M  V30 5442 H 519.495 5.59344 3.27166 0
M  V30 5443 N 512.901 -0.976442 1.23707 0
M  V30 5444 C 514.15 -1.71254 1.06559 0
M  V30 5445 C 514.463 -1.91528 -0.397024 0
M  V30 5446 O 515.669 -2.62625 -0.688518 0
M  V30 5447 C 514.125 -3.08207 1.8584 0
M  V30 5448 C 513.733 -2.95806 3.36456 0
M  V30 5449 C 515.477 -3.85749 1.77194 0
M  V30 5450 C 513.384 -4.28015 4.08114 0
M  V30 5451 H 512.314 -0.642171 0.395136 0
M  V30 5452 H 514.965 -1.08877 1.4771 0
M  V30 5453 H 513.347 -3.71363 1.37498 0
M  V30 5454 H 514.521 -2.41716 3.92314 0
M  V30 5455 H 512.836 -2.31736 3.45959 0
M  V30 5456 H 515.433 -4.83633 2.28041 0
M  V30 5457 H 515.776 -4.09752 0.735477 0
M  V30 5458 H 516.309 -3.29303 2.23169 0
M  V30 5459 H 513.048 -4.09208 5.12083 0
M  V30 5460 H 512.568 -4.81955 3.57043 0
M  V30 5461 H 514.247 -4.96681 4.14629 0
M  V30 5462 N 514.379 -1.04941 -1.1758 0
M  V30 5463 C 515.309 -0.669172 -2.23706 0
M  V30 5464 C 516.29 0.331835 -1.66832 0
M  V30 5465 O 517.475 0.209988 -1.93061 0
M  V30 5466 C 514.605 -0.0404889 -3.47276 0
M  V30 5467 C 513.559 -0.965983 -4.16957 0
M  V30 5468 C 512.885 -0.201312 -5.34321 0
M  V30 5469 C 514.185 -2.28902 -4.69469 0
M  V30 5470 H 515.879 -1.55639 -2.55767 0
M  V30 5471 H 513.425 -0.749793 -1.22939 0
M  V30 5472 H 515.378 0.237298 -4.20731 0
M  V30 5473 H 514.102 0.881658 -3.14475 0
M  V30 5474 H 512.761 -1.22829 -3.45411 0
M  V30 5475 H 512.409 0.723519 -4.97769 0
M  V30 5476 H 512.109 -0.817968 -5.81879 0
M  V30 5477 H 513.633 0.0692499 -6.10561 0
M  V30 5478 H 515.047 -2.07132 -5.34574 0
M  V30 5479 H 513.444 -2.85942 -5.27596 0
M  V30 5480 H 514.514 -2.92937 -3.86414 0
M  V30 5481 N 515.857 1.33968 -0.830081 0
M  V30 5482 C 517.104 1.98063 -0.421566 0
M  V30 5483 C 517.432 1.65787 1.0171 0
M  V30 5484 O 516.687 0.925348 1.72441 0
M  V30 5485 C 516.986 3.52679 -0.57898 0
M  V30 5486 C 516.652 4.04884 -1.98443 0
M  V30 5487 C 515.314 4.18852 -2.36888 0
M  V30 5488 C 517.666 4.32879 -2.90285 0
M  V30 5489 C 514.994 4.58145 -3.66497 0
M  V30 5490 C 517.346 4.7362 -4.19364 0
M  V30 5491 C 516.01 4.85794 -4.57778 0
M  V30 5492 H 515.28 0.724765 -0.154262 0
M  V30 5493 H 517.927 1.59792 -1.05541 0
M  V30 5494 H 516.232 3.91556 0.138219 0
M  V30 5495 H 517.929 4.00261 -0.243317 0
M  V30 5496 H 514.519 3.9448 -1.67581 0
M  V30 5497 H 518.703 4.21619 -2.61823 0
M  V30 5498 H 513.959 4.65762 -3.96075 0
M  V30 5499 H 518.133 4.9424 -4.90612 0
M  V30 5500 H 515.76 5.15998 -5.58256 0
M  V30 5501 N 517.335 0.585699 1.46312 0
M  V30 5502 C 518.56 0.0762461 2.0726 0
M  V30 5503 C 518.985 -1.22071 1.43109 0
M  V30 5504 O 518.343 -1.73804 0.515942 0
M  V30 5505 C 518.391 -0.0729404 3.60526 0
M  V30 5506 O 517.495 -1.1287 3.96654 0
M  V30 5507 H 516.836 0.0641558 0.660893 0
M  V30 5508 H 519.366 0.809492 1.87905 0
M  V30 5509 H 519.376 -0.278158 4.07051 0
M  V30 5510 H 518.051 0.874188 4.06609 0
M  V30 5511 H 516.628 -0.901703 3.61834 0
M  V30 5512 N 518.813 -1.54241 0.323641 0
M  V30 5513 C 519.763 -2.21071 -0.557833 0
M  V30 5514 C 520.747 -1.19126 -1.08157 0
M  V30 5515 O 521.939 -1.44755 -1.01857 0
M  V30 5516 C 519.068 -2.97208 -1.71821 0
M  V30 5517 C 518.154 -4.06491 -1.20936 0
M  V30 5518 N 518.545 -5.04052 -0.420202 0
M  V30 5519 C 516.843 -4.20443 -1.48808 0
M  V30 5520 C 517.544 -5.81516 -0.146413 0
M  V30 5521 N 516.52 -5.38641 -0.732562 0
M  V30 5522 H 520.322 -2.93853 0.0523921 0
M  V30 5523 H 517.836 -1.61883 0.129502 0
M  V30 5524 H 519.833 -3.4357 -2.36146 0
M  V30 5525 H 518.493 -2.25947 -2.33191 0
M  V30 5526 H 519.504 -5.17862 -0.0630401 0
M  V30 5527 H 516.181 -3.60396 -2.10762 0
M  V30 5528 H 517.571 -6.70119 0.488895 0
M  V30 5529 N 520.291 -0.0518155 -1.57515 0
M  V30 5530 C 521.221 0.920283 -2.146 0
M  V30 5531 C 522.202 1.32406 -1.06783 0
M  V30 5532 O 523.387 1.39866 -1.34726 0
M  V30 5533 C 520.517 2.1949 -2.6915 0
M  V30 5534 C 519.471 1.93116 -3.81956 0
M  V30 5535 C 518.797 3.27037 -4.23026 0
M  V30 5536 C 520.097 1.25225 -5.07066 0
M  V30 5537 H 521.791 0.444801 -2.96077 0
M  V30 5538 H 519.337 0.212508 -1.42423 0
M  V30 5539 H 521.29 2.87894 -3.07725 0
M  V30 5540 H 520.014 2.69244 -1.84865 0
M  V30 5541 H 518.673 1.27123 -3.43854 0
M  V30 5542 H 518.321 3.74595 -3.3569 0
M  V30 5543 H 518.021 3.10189 -4.99056 0
M  V30 5544 H 519.545 3.96673 -4.64202 0
M  V30 5545 H 520.959 1.83666 -5.43083 0
M  V30 5546 H 519.356 1.18702 -5.88243 0
M  V30 5547 H 520.426 0.228382 -4.84362 0
M  V30 5548 N 521.769 1.56035 0.221574 0
M  V30 5549 C 523.046 1.69837 0.970301 0
M  V30 5550 C 523.426 0.599065 2.02421 0
M  V30 5551 O 522.774 -0.393929 2.25079 0
M  V30 5552 C 522.984 3.11148 1.58076 0
M  V30 5553 C 524.332 3.70555 2.07302 0
M  V30 5554 O 525.356 3.14109 1.6797 0
M  V30 5555 O 524.215 4.69562 2.79596 0
M  V30 5556 H 521.309 0.691727 0.453257 0
M  V30 5557 H 523.855 1.68353 0.213358 0
M  V30 5558 H 522.627 3.82617 0.819759 0
M  V30 5559 H 522.25 3.16749 2.40324 0
M  V30 5560 N 523.247 -0.488276 1.49845 0
M  V30 5561 C 524.472 -1.26997 1.63971 0
M  V30 5562 C 524.897 -1.85427 0.315994 0
M  V30 5563 O 524.255 -1.66475 -0.718032 0
M  V30 5564 C 524.303 -2.36689 2.72049 0
M  V30 5565 O 523.407 -3.40882 2.32107 0
M  V30 5566 H 522.748 -0.374376 0.548396 0
M  V30 5567 H 525.278 -0.583104 1.96115 0
M  V30 5568 H 525.288 -2.82262 2.94605 0
M  V30 5569 H 523.963 -1.93529 3.68129 0
M  V30 5570 H 522.54 -3.01139 2.19931 0
M  V30 5571 N 524.725 -1.39134 -0.740242 0
M  V30 5572 C 525.971 -1.36273 -1.50192 0
M  V30 5573 C 526.304 0.0430136 -1.94152 0
M  V30 5574 O 525.579 1.00691 -1.66408 0
M  V30 5575 C 525.862 -2.33041 -2.74525 0
M  V30 5576 C 525.715 -3.82535 -2.36617 0
M  V30 5577 C 527.034 -2.27723 -3.76604 0
M  V30 5578 H 524.153 -0.496323 -0.544823 0
M  V30 5579 H 526.795 -1.70085 -0.846815 0
M  V30 5580 H 524.945 -2.04337 -3.30422 0
M  V30 5581 H 526.617 -4.21967 -1.86391 0
M  V30 5582 H 524.86 -3.99565 -1.68909 0
M  V30 5583 H 525.531 -4.45723 -3.2563 0
M  V30 5584 H 528.007 -2.53091 -3.30279 0
M  V30 5585 H 526.883 -2.97519 -4.61274 0
M  V30 5586 H 527.144 -1.28049 -4.2315 0
M  V30 5587 N 526.204 0.969867 -1.24223 0
M  V30 5588 C 527.451 1.71256 -1.08063 0
M  V30 5589 C 527.779 1.90734 0.380872 0
M  V30 5590 O 527.034 1.46469 1.29789 0
M  V30 5591 C 527.333 3.10883 -1.76314 0
M  V30 5592 C 526.999 3.11252 -3.26241 0
M  V30 5593 C 525.661 3.1106 -3.67144 0
M  V30 5594 C 528.013 3.05751 -4.22097 0
M  V30 5595 C 525.341 3.03097 -5.02344 0
M  V30 5596 C 527.693 2.9933 -5.57301 0
M  V30 5597 C 526.357 2.97466 -5.97554 0
M  V30 5598 H 525.627 0.62667 -0.395431 0
M  V30 5599 H 528.274 1.13422 -1.54297 0
M  V30 5600 H 526.579 3.72168 -1.22468 0
M  V30 5601 H 528.276 3.67138 -1.61277 0
M  V30 5602 H 524.866 3.12165 -2.93685 0
M  V30 5603 H 529.05 3.05031 -3.91497 0
M  V30 5604 H 524.306 3.00013 -5.32731 0
M  V30 5605 H 528.48 2.94033 -6.31283 0
M  V30 5606 H 526.107 2.91051 -7.02277 0
M  V30 5607 N 527.682 1.05563 1.17022 0
M  V30 5608 C 528.91 0.78845 1.91288 0
M  V30 5609 C 529.325 -0.656318 1.77025 0
M  V30 5610 O 528.682 -1.44869 1.10992 0
M  V30 5611 C 528.733 1.16444 3.42232 0
M  V30 5612 O 528.454 2.5525 3.5606 0
M  V30 5613 C 529.955 0.923937 4.33565 0
M  V30 5614 H 527.175 0.286389 0.606813 0
M  V30 5615 H 529.719 1.4073 1.48375 0
M  V30 5616 H 527.874 0.590266 3.82877 0
M  V30 5617 H 528.288 2.70097 4.49609 0
M  V30 5618 H 529.762 1.23672 5.37968 0
M  V30 5619 H 530.239 -0.140688 4.38975 0
M  V30 5620 H 530.845 1.48214 3.98639 0
M  V30 5621 N 529.16 -1.33526 0.837174 0
M  V30 5622 C 530.09 -2.31764 0.284206 0
M  V30 5623 C 531.071 -1.58896 -0.607142 0
M  V30 5624 O 532.256 -1.86798 -0.531047 0
M  V30 5625 C 529.386 -3.43029 -0.542962 0
M  V30 5626 C 528.34 -4.27255 0.252451 0
M  V30 5627 C 527.666 -5.3012 -0.69836 0
M  V30 5628 C 528.966 -5.01229 1.46858 0
M  V30 5629 H 530.66 -2.78262 1.10502 0
M  V30 5630 H 528.206 -1.3378 0.532812 0
M  V30 5631 H 530.159 -4.1078 -0.940096 0
M  V30 5632 H 528.883 -2.95216 -1.39697 0
M  V30 5633 H 527.542 -3.61127 0.631124 0
M  V30 5634 H 527.19 -4.78564 -1.54872 0
M  V30 5635 H 526.89 -5.87353 -0.170274 0
M  V30 5636 H 528.414 -6.00737 -1.09305 0
M  V30 5637 H 529.828 -5.61756 1.14469 0
M  V30 5638 H 528.225 -5.68104 1.93333 0
M  V30 5639 H 529.295 -4.301 2.23924 0
M  V30 5640 N 530.638 -0.59345 -1.46 0
M  V30 5641 C 531.586 0.146268 -2.3214 0
M  V30 5642 C 532.58 0.873743 -1.45128 0
M  V30 5643 O 533.786 0.790912 -1.61693 0
M  V30 5644 H 530.161 0.0660349 -0.749095 0
M  V30 5645 H 532.132 -0.598895 -2.92328 0
M  V30 5646 C 530.881 1.1396 -3.28494 0
M  V30 5647 H 530.204 0.589252 -3.95434 0
M  V30 5648 H 531.644 1.62738 -3.91526 0
M  V30 5649 C 530.103 2.20604 -2.54628 0
M  V30 5650 O 530.633 3.28128 -2.31722 0
M  V30 5651 N 528.839 1.95502 -2.15005 0
M  V30 5652 H 528.386 1.0807 -2.33834 0
M  V30 5653 H 528.344 2.67064 -1.65904 0
M  V30 5654 N 532.116 1.54067 -0.331816 0
M  V30 5655 C 533.046 2.27569 0.522932 0
M  V30 5656 C 534.027 1.28679 1.11247 0
M  V30 5657 O 535.212 1.57504 1.13605 0
M  V30 5658 C 532.342 3.0397 1.67987 0
M  V30 5659 C 531.296 4.10267 1.21924 0
M  V30 5660 C 530.622 4.74555 2.46377 0
M  V30 5661 C 531.922 5.21268 0.32815 0
M  V30 5662 H 533.616 2.99264 -0.0901977 0
M  V30 5663 H 531.162 1.4393 -0.044821 0
M  V30 5664 H 533.115 3.54123 2.28418 0
M  V30 5665 H 531.839 2.29906 2.31971 0
M  V30 5666 H 530.498 3.61009 0.637809 0
M  V30 5667 H 530.146 3.97098 3.08743 0
M  V30 5668 H 529.846 5.46363 2.16243 0
M  V30 5669 H 531.37 5.27487 3.07555 0
M  V30 5670 H 532.784 5.67128 0.838978 0
M  V30 5671 H 531.181 5.99982 0.119228 0
M  V30 5672 H 532.251 4.80673 -0.638839 0
M  V30 5673 N 533.594 0.0601682 1.57485 0
M  V30 5674 C 534.871 -0.651956 1.84415 0
M  V30 5675 C 535.251 -1.88498 0.950361 0
M  V30 5676 O 534.599 -2.28496 0.0136719 0
M  V30 5677 C 534.809 -1.00069 3.34346 0
M  V30 5678 C 536.157 -1.37915 4.01578 0
M  V30 5679 O 537.181 -1.09277 3.39024 0
M  V30 5680 O 536.04 -1.91399 5.11887 0
M  V30 5681 H 533.134 -0.322668 0.761455 0
M  V30 5682 H 535.68 0.0902159 1.6946 0
M  V30 5683 H 534.452 -0.124463 3.91102 0
M  V30 5684 H 534.075 -1.80001 3.54521 0
M  V30 5685 N 535.072 -1.5615 -0.213296 0
M  V30 5686 C 535.982 -1.96265 -1.28519 0
M  V30 5687 C 536.998 -0.86765 -1.50824 0
M  V30 5688 O 538.174 -1.17191 -1.63793 0
M  V30 5689 C 535.239 -2.27836 -2.61327 0
M  V30 5690 C 534.3 -3.50949 -2.47252 0
M  V30 5691 C 533.533 -3.81004 -3.73727 0
M  V30 5692 O 533.756 -3.12612 -4.77106 0
M  V30 5693 O 532.69 -4.74477 -3.70344 0
M  V30 5694 H 536.516 -2.87631 -0.974795 0
M  V30 5695 H 534.101 -1.43467 -0.416832 0
M  V30 5696 H 535.983 -2.49299 -3.39747 0
M  V30 5697 H 534.658 -1.39643 -2.9203 0
M  V30 5698 H 533.565 -3.34754 -1.67004 0
M  V30 5699 H 534.898 -4.39551 -2.21486 0
M  V30 5700 N 536.55 0.480323 -1.50102 0
M  V30 5701 C 537.482 1.59669 -1.64433 0
M  V30 5702 C 538.495 1.54063 -0.52615 0
M  V30 5703 O 539.684 1.59619 -0.798992 0
M  V30 5704 C 536.784 2.98527 -1.6042 0
M  V30 5705 C 535.957 3.291 -2.88117 0
M  V30 5706 C 535.016 4.47468 -2.76873 0
M  V30 5707 O 534.042 4.4823 -3.50825 0
M  V30 5708 N 535.244 5.48593 -1.89806 0
M  V30 5709 H 538.009 1.47795 -2.60723 0
M  V30 5710 H 535.57 0.66858 -1.4745 0
M  V30 5711 H 537.562 3.75666 -1.50523 0
M  V30 5712 H 536.132 3.04218 -0.719036 0
M  V30 5713 H 535.352 2.40662 -3.12211 0
M  V30 5714 H 536.64 3.46334 -3.72734 0
M  V30 5715 H 536.038 5.50791 -1.2902 0
M  V30 5716 H 534.595 6.24752 -1.85819 0
M  V30 5717 N 538.028 1.39524 0.732853 0
M  V30 5718 C 538.938 1.40695 1.87729 0
M  V30 5719 C 539.954 0.301496 1.71368 0
M  V30 5720 O 541.13 0.543313 1.93933 0
M  V30 5721 C 538.195 1.25098 3.23344 0
M  V30 5722 C 537.256 2.45634 3.52083 0
M  V30 5723 C 536.489 2.30772 4.81228 0
M  V30 5724 O 536.712 1.31233 5.55098 0
M  V30 5725 O 535.646 3.19799 5.09914 0
M  V30 5726 H 539.472 2.37168 1.89697 0
M  V30 5727 H 537.057 1.20663 0.880959 0
M  V30 5728 H 538.939 1.18541 4.04383 0
M  V30 5729 H 537.614 0.317209 3.22142 0
M  V30 5730 H 536.521 2.57767 2.71122 0
M  V30 5731 H 537.854 3.37712 3.58066 0
M  V30 5732 N 539.506 -0.963266 1.24736 0
M  V30 5733 C 540.917 -1.52145 1.08207 0
M  V30 5734 C 541.268 -1.93142 -0.345061 0
M  V30 5735 O 540.393 -1.77769 -1.23399 0
M  V30 5736 C 540.988 -2.76486 1.95808 0
M  V30 5737 C 539.547 -3.28646 1.8349 0
M  V30 5738 C 538.694 -2.01529 1.90476 0
M  V30 5739 H 541.645 -0.781083 1.38148 0
M  V30 5740 H 541.666 -3.49986 1.49297 0
M  V30 5741 H 541.178 -2.46617 2.99669 0
M  V30 5742 H 539.279 -3.63357 0.824787 0
M  V30 5743 H 539.392 -3.97246 2.67829 0
M  V30 5744 H 537.756 -2.16442 1.34258 0
M  V30 5745 H 538.539 -1.7402 2.95926 0
M  V30 5746 N 540.985 -1.06182 -1.16461 0
M  V30 5747 C 541.895 -0.682671 -2.24448 0
M  V30 5748 C 542.911 0.30078 -1.71381 0
M  V30 5749 O 544.087 0.150376 -2.00838 0
M  V30 5750 C 541.152 -0.0737202 -3.46622 0
M  V30 5751 C 540.213 -1.10889 -4.14731 0
M  V30 5752 C 539.446 -0.528908 -5.31073 0
M  V30 5753 O 539.669 0.65868 -5.66584 0
M  V30 5754 O 538.603 -1.26805 -5.88391 0
M  V30 5755 H 542.429 -1.58291 -2.59187 0
M  V30 5756 H 540.014 -0.834013 -1.23954 0
M  V30 5757 H 541.896 0.264192 -4.20571 0
M  V30 5758 H 540.571 0.800015 -3.13658 0
M  V30 5759 H 539.478 -1.49896 -3.42756 0
M  V30 5760 H 540.811 -1.95412 -4.51747 0
M  V30 5761 N 542.463 1.3308 -0.844243 0
M  V30 5762 C 543.709 1.97898 -0.443206 0
M  V30 5763 C 544.042 1.66699 0.99625 0
M  V30 5764 O 543.317 0.949704 1.69738 0
M  V30 5765 C 543.6 3.53801 -0.670606 0
M  V30 5766 C 543.453 3.94667 -2.15772 0
M  V30 5767 C 544.772 4.39936 -0.120226 0
M  V30 5768 H 541.891 0.718861 -0.162504 0
M  V30 5769 H 544.533 1.57633 -1.06075 0
M  V30 5770 H 542.683 3.88229 -0.14496 0
M  V30 5771 H 544.355 3.70469 -2.74865 0
M  V30 5772 H 542.598 3.44203 -2.6402 0
M  V30 5773 H 543.269 5.03275 -2.26757 0
M  V30 5774 H 545.745 4.12183 -0.5696 0
M  V30 5775 H 544.621 5.4803 -0.308984 0
M  V30 5776 H 544.882 4.31184 0.976347 0
M  V30 5777 N 543.941 0.601185 1.45683 0
M  V30 5778 C 544.904 -0.111398 2.28929 0
M  V30 5779 C 545.904 -0.801246 1.39416 0
M  V30 5780 O 547.094 -0.650383 1.61603 0
M  V30 5781 C 544.226 -1.16773 3.20276 0
M  V30 5782 H 545.419 0.620412 2.93413 0
M  V30 5783 H 542.972 0.359946 1.52099 0
M  V30 5784 H 543.707 -1.93051 2.60579 0
M  V30 5785 H 543.492 -0.677358 3.86205 0
M  V30 5786 H 544.982 -1.66698 3.82886 0
M  V30 5787 N 545.419 -1.53889 0.339982 0
M  V30 5788 C 546.329 -2.28604 -0.526988 0
M  V30 5789 C 547.345 -1.33578 -1.11503 0
M  V30 5790 O 548.521 -1.66612 -1.13148 0
M  V30 5791 C 545.586 -3.04164 -1.66389 0
M  V30 5792 C 544.647 -4.14809 -1.10599 0
M  V30 5793 C 543.88 -4.86756 -2.18871 0
M  V30 5794 O 544.103 -4.58343 -3.39526 0
M  V30 5795 O 543.037 -5.73289 -1.83366 0
M  V30 5796 H 546.863 -3.03594 0.0802707 0
M  V30 5797 H 544.448 -1.4903 0.105141 0
M  V30 5798 H 546.33 -3.51427 -2.32544 0
M  V30 5799 H 545.005 -2.32035 -2.25703 0
M  V30 5800 H 543.912 -3.71857 -0.409067 0
M  V30 5801 H 545.245 -4.89029 -0.557771 0
M  V30 5802 N 546.897 -0.0685191 -1.57451 0
M  V30 5803 C 548.313 0.288101 -1.56978 0
M  V30 5804 C 548.513 1.70262 -1.07765 0
M  V30 5805 O 547.569 2.4135 -0.742054 0
M  V30 5806 C 548.882 0.100745 -3.00531 0
M  V30 5807 C 550.43 0.170531 -3.12535 0
M  V30 5808 C 550.905 0.0114944 -4.57999 0
M  V30 5809 N 552.396 0.0672065 -4.63151 0
M  V30 5810 C 553.131 -0.0314813 -5.73391 0
M  V30 5811 N 552.627 -0.183503 -6.92557 0
M  V30 5812 N 554.42 0.0253489 -5.62094 0
M  V30 5813 H 546.571 -0.993026 -1.87757 0
M  V30 5814 H 548.834 -0.386981 -0.865419 0
M  V30 5815 H 548.54 -0.875197 -3.40636 0
M  V30 5816 H 548.414 0.854457 -3.67395 0
M  V30 5817 H 550.801 1.13696 -2.72318 0
M  V30 5818 H 550.882 -0.614229 -2.48316 0
M  V30 5819 H 550.526 -0.951684 -4.98904 0
M  V30 5820 H 550.456 0.815617 -5.20245 0
M  V30 5821 H 552.947 0.183246 -3.77455 0
M  V30 5822 H 553.26 -0.251041 -7.72392 0
M  V30 5823 H 551.605 -0.218822 -6.94655 0
M  V30 5824 H 554.796 0.142794 -4.67882 0
M  V30 5825 H 554.969 -0.0550166 -6.47977 0
M  V30 5826 N 548.375 1.56261 0.205012 0
M  V30 5827 C 549.305 1.96779 1.257 0
M  V30 5828 C 550.286 0.838309 1.48008 0
M  V30 5829 O 551.471 1.10189 1.59913 0
M  V30 5830 C 548.601 2.29876 2.60335 0
M  V30 5831 C 547.555 3.45469 2.52656 0
M  V30 5832 C 546.881 3.64215 3.91473 0
M  V30 5833 C 548.181 4.79954 2.06014 0
M  V30 5834 H 549.875 2.84904 0.920338 0
M  V30 5835 H 547.421 1.37072 0.441277 0
M  V30 5836 H 549.374 2.56814 3.34102 0
M  V30 5837 H 548.098 1.38622 2.95722 0
M  V30 5838 H 546.757 3.18605 1.81345 0
M  V30 5839 H 546.405 2.70309 4.24196 0
M  V30 5840 H 546.105 4.41973 3.87213 0
M  V30 5841 H 547.629 3.93519 4.66878 0
M  V30 5842 H 549.043 5.05989 2.69533 0
M  V30 5843 H 547.44 5.61111 2.12777 0
M  V30 5844 H 548.51 4.74201 1.01297 0
M  V30 5845 N 549.853 -0.472356 1.50355 0
M  V30 5846 C 551.078 -1.25251 1.65309 0
M  V30 5847 C 551.503 -1.85081 0.335643 0
M  V30 5848 O 550.861 -1.67227 -0.700335 0
M  V30 5849 C 550.909 -2.3379 2.74544 0
M  V30 5850 O 550.013 -3.38401 2.35709 0
M  V30 5851 H 549.354 -0.368539 0.552336 0
M  V30 5852 H 551.884 -0.562271 1.96722 0
M  V30 5853 H 551.894 -2.79121 2.97583 0
M  V30 5854 H 550.569 -1.89614 3.70161 0
M  V30 5855 H 549.146 -2.9879 2.23112 0
M  V30 5856 N 551.331 -1.39911 -0.725443 0
M  V30 5857 C 552.608 -1.28158 -1.47766 0
M  V30 5858 C 552.988 0.104545 -2.10841 0
M  V30 5859 O 552.336 1.11657 -1.99361 0
M  V30 5860 C 552.546 -2.41306 -2.52135 0
M  V30 5861 C 553.894 -2.81076 -3.18247 0
M  V30 5862 O 554.918 -2.40827 -2.62452 0
M  V30 5863 O 553.777 -3.50581 -4.19231 0
M  V30 5864 H 550.871 -0.502761 -0.656628 0
M  V30 5865 H 553.417 -1.51808 -0.758456 0
M  V30 5866 H 552.189 -3.33932 -2.03974 0
M  V30 5867 H 551.812 -2.19374 -3.31603 0
M  V30 5868 N 552.809 0.956637 -1.25245 0
M  V30 5869 C 553.739 2.07058 -1.07931 0
M  V30 5870 C 554.72 1.70096 0.0110361 0
M  V30 5871 O 555.905 1.93555 -0.158121 0
M  V30 5872 C 553.035 3.40272 -0.695124 0
M  V30 5873 C 551.989 3.91235 -1.73549 0
M  V30 5874 C 551.315 5.20921 -1.20604 0
M  V30 5875 C 552.615 4.17837 -3.13385 0
M  V30 5876 H 554.309 2.218 -2.01109 0
M  V30 5877 H 551.855 1.06581 -0.968326 0
M  V30 5878 H 553.808 4.1765 -0.560949 0
M  V30 5879 H 552.532 3.25462 0.272355 0
M  V30 5880 H 551.191 3.16025 -1.85807 0
M  V30 5881 H 550.839 5.02479 -0.228846 0
M  V30 5882 H 550.539 5.55987 -1.90136 0
M  V30 5883 H 552.063 6.00897 -1.08421 0
M  V30 5884 H 553.477 4.8588 -3.04292 0
M  V30 5885 H 551.874 4.64154 -3.80369 0
M  V30 5886 H 552.944 3.2419 -3.60595 0
M  V30 5887 N 554.287 1.06798 1.15896 0
M  V30 5888 C 555.703 0.792423 1.38538 0
M  V30 5889 C 555.903 -0.60592 1.92174 0
M  V30 5890 O 554.959 -1.36561 2.12385 0
M  V30 5891 C 556.272 1.86157 2.36149 0
M  V30 5892 C 557.82 1.88567 2.49823 0
M  V30 5893 C 558.295 2.9455 3.5072 0
M  V30 5894 N 559.786 2.93616 3.58251 0
M  V30 5895 C 560.521 3.72267 4.36125 0
M  V30 5896 N 560.017 4.60751 5.17379 0
M  V30 5897 N 561.81 3.60637 4.31158 0
M  V30 5898 H 553.961 1.96993 0.794198 0
M  V30 5899 H 556.224 0.853942 0.411688 0
M  V30 5900 H 555.93 2.86603 2.03843 0
M  V30 5901 H 555.804 1.71692 3.3586 0
M  V30 5902 H 558.191 0.887765 2.8143 0
M  V30 5903 H 558.272 2.0711 1.5013 0
M  V30 5904 H 557.916 3.94537 3.19849 0
M  V30 5905 H 557.846 2.73255 4.50155 0
M  V30 5906 H 560.337 2.29472 3.00252 0
M  V30 5907 H 560.65 5.17408 5.74028 0
M  V30 5908 H 558.995 4.64803 5.16704 0
M  V30 5909 H 562.186 2.90892 3.66742 0
M  V30 5910 H 562.359 4.22176 4.91601 0
M  V30 5911 N 555.766 -1.3263 0.851289 0
M  V30 5912 C 557.182 -1.50162 0.5407 0
M  V30 5913 C 557.382 -1.78788 -0.929369 0
M  V30 5914 O 556.438 -1.85545 -1.71258 0
M  V30 5915 C 557.751 -2.64803 1.42478 0
M  V30 5916 C 559.299 -2.78688 1.42485 0
M  V30 5917 C 559.774 -3.96405 2.29407 0
M  V30 5918 N 561.265 -4.0366 2.27184 0
M  V30 5919 C 562 -4.93971 2.9117 0
M  V30 5920 N 561.496 -5.89313 3.64256 0
M  V30 5921 N 563.289 -4.87066 2.80576 0
M  V30 5922 H 555.44 -1.12315 1.80275 0
M  V30 5923 H 557.703 -0.553266 0.769806 0
M  V30 5924 H 557.409 -2.50368 2.46999 0
M  V30 5925 H 557.283 -3.60506 1.10974 0
M  V30 5926 H 559.67 -2.92547 0.387304 0
M  V30 5927 H 559.751 -1.83708 1.78002 0
M  V30 5928 H 559.395 -3.83304 3.33228 0
M  V30 5929 H 559.325 -4.90654 1.91224 0
M  V30 5930 H 561.816 -3.35435 1.74045 0
M  V30 5931 H 562.129 -6.54913 4.10255 0
M  V30 5932 H 560.474 -5.8935 3.68364 0
M  V30 5933 H 563.665 -4.11552 2.23031 0
M  V30 5934 H 563.838 -5.57248 3.30725 0
M  V30 5935 N 557.244 -0.608902 -1.45362 0
M  V30 5936 C 558.493 -0.10218 -2.01441 0
M  V30 5937 C 558.806 1.27546 -1.48295 0
M  V30 5938 O 560.012 1.87498 -1.96359 0
M  V30 5939 C 558.468 -0.131985 -3.59658 0
M  V30 5940 C 558.076 -1.50956 -4.21801 0
M  V30 5941 C 559.82 0.319427 -4.23296 0
M  V30 5942 C 557.727 -1.49568 -5.72174 0
M  V30 5943 H 556.657 -0.0344314 -0.753213 0
M  V30 5944 H 559.308 -0.764426 -1.6682 0
M  V30 5945 H 557.69 0.596939 -3.91475 0
M  V30 5946 H 558.864 -2.26029 -4.01556 0
M  V30 5947 H 557.179 -1.90318 -3.70362 0
M  V30 5948 H 559.776 0.349013 -5.3356 0
M  V30 5949 H 560.119 1.34237 -3.94064 0
M  V30 5950 H 560.652 -0.356273 -3.96201 0
M  V30 5951 H 557.391 -2.49626 -6.06108 0
M  V30 5952 H 556.911 -0.787542 -5.94607 0
M  V30 5953 H 558.59 -1.21989 -6.35396 0
M  V30 5954 N 558.722 1.53707 -0.348139 0
M  V30 5955 C 559.67 2.26671 0.521808 0
M  V30 5956 C 560.664 1.28988 1.09811 0
M  V30 5957 O 561.87 1.4668 1.04332 0
M  V30 5958 H 558.245 0.728387 0.186968 0
M  V30 5959 H 560.216 2.98176 -0.115563 0
M  V30 5960 C 558.965 3.05591 1.6586 0
M  V30 5961 H 558.288 3.80589 1.22443 0
M  V30 5962 H 559.728 3.59851 2.24239 0
M  V30 5963 C 558.187 2.15366 2.59073 0
M  V30 5964 O 558.717 1.7528 3.61441 0
M  V30 5965 N 556.923 1.80352 2.27863 0
M  V30 5966 H 556.47 2.13149 1.44656 0
M  V30 5967 H 556.428 1.20268 2.90488 0
M  V30 5968 N 560.2 0.0768682 1.57412 0
M  V30 5969 C 561.11 -0.903207 2.16516 0
M  V30 5970 C 562.126 -1.32341 1.12968 0
M  V30 5971 O 563.302 -1.39507 1.45258 0
M  V30 5972 C 560.367 -2.1508 2.71922 0
M  V30 5973 C 559.428 -1.78653 3.90361 0
M  V30 5974 C 558.661 -2.97465 4.43114 0
M  V30 5975 O 558.884 -4.11638 3.94854 0
M  V30 5976 O 557.818 -2.76987 5.3438 0
M  V30 5977 H 561.644 -0.430427 3.00634 0
M  V30 5978 H 559.229 -0.146485 1.4868 0
M  V30 5979 H 561.111 -2.8823 3.07411 0
M  V30 5980 H 559.786 -2.61446 1.9086 0
M  V30 5981 H 558.693 -1.0274 3.59716 0
M  V30 5982 H 560.026 -1.37066 4.7273 0
M  V30 5983 N 561.678 -1.56367 -0.196722 0
M  V30 5984 C 562.626 -1.95304 -1.2633 0
M  V30 5985 C 563.62 -0.838252 -1.47206 0
M  V30 5986 O 564.826 -1.02325 -1.48087 0
M  V30 5987 H 561.201 -0.621013 -0.424083 0
M  V30 5988 H 563.172 -2.84254 -0.907879 0
M  V30 5989 C 561.921 -2.3074 -2.60104 0
M  V30 5990 H 561.244 -3.16047 -2.44856 0
M  V30 5991 H 562.684 -2.61849 -3.33484 0
M  V30 5992 C 561.143 -1.14143 -3.16975 0
M  V30 5993 O 561.673 -0.415602 -3.99544 0
M  V30 5994 N 559.879 -0.91867 -2.75697 0
M  V30 5995 H 559.426 -1.51065 -2.08656 0
M  V30 5996 H 559.384 -0.140321 -3.14087 0
M  V30 5997 N 563.156 0.464375 -1.50603 0
M  V30 5998 C 564.104 1.58224 -1.70493 0
M  V30 5999 C 565.098 1.59492 -0.570836 0
M  V30 6000 O 566.304 1.63561 -0.751517 0
M  V30 6001 H 562.679 0.525161 -0.538247 0
M  V30 6002 H 564.65 1.38613 -2.64252 0
M  V30 6003 C 563.399 2.96113 -1.82243 0
M  V30 6004 H 562.722 2.95858 -2.68901 0
M  V30 6005 H 564.162 3.73769 -2.00182 0
M  V30 6006 C 562.621 3.31946 -0.575628 0
M  V30 6007 O 563.151 4.00708 0.282152 0
M  V30 6008 N 561.357 2.87436 -0.427665 0
M  V30 6009 H 560.904 2.31652 -1.12674 0
M  V30 6010 H 560.862 3.11776 0.405379 0
M  V30 6011 N 564.634 1.40294 0.718013 0
M  V30 6012 C 566.045 1.34289 1.29705 0
M  V30 6013 C 566.396 0.0152228 1.96194 0
M  V30 6014 O 565.521 -0.88682 1.97394 0
M  V30 6015 C 566.116 2.43219 2.3586 0
M  V30 6016 C 564.675 2.40682 2.89394 0
M  V30 6017 C 563.822 2.24223 1.63154 0
M  V30 6018 H 566.773 1.50135 0.514312 0
M  V30 6019 H 566.794 2.10986 3.16647 0
M  V30 6020 H 566.306 3.39836 1.87439 0
M  V30 6021 H 564.407 1.47756 3.42051 0
M  V30 6022 H 564.52 3.36177 3.41353 0
M  V30 6023 H 562.884 1.71696 1.88129 0
M  V30 6024 H 563.667 3.22834 1.16761 0
M  V30 6025 N 566.112 -0.949982 1.2575 0
M  V30 6026 C 567.36 -1.6918 1.10555 0
M  V30 6027 C 567.681 -1.91773 -0.353298 0
M  V30 6028 O 566.951 -1.50814 -1.25027 0
M  V30 6029 H 565.531 -0.626952 0.406129 0
M  V30 6030 H 568.193 -1.1419 1.57945 0
M  V30 6031 H 567.289 -2.66915 1.61749 0
M  V30 6032 N 567.59 -1.07411 -1.15328 0
M  V30 6033 C 568.523 -0.63913 -2.19067 0
M  V30 6034 C 569.501 0.343929 -1.58921 0
M  V30 6035 O 570.685 0.250207 -1.86832 0
M  V30 6036 C 567.812 0.0613977 -3.38644 0
M  V30 6037 C 566.858 -0.880201 -4.17318 0
M  V30 6038 S 567.691 -2.38152 -4.79629 0
M  V30 6039 C 568.847 -1.69281 -6.02573 0
M  V30 6040 H 569.08 -1.51799 -2.55626 0
M  V30 6041 H 566.613 -0.888138 -1.26299 0
M  V30 6042 H 568.571 0.459323 -4.07922 0
M  V30 6043 H 567.232 0.916605 -3.00428 0
M  V30 6044 H 566.425 -0.336781 -5.02874 0
M  V30 6045 H 566.027 -1.21854 -3.53592 0
M  V30 6046 H 568.319 -1.00488 -6.70006 0
M  V30 6047 H 569.262 -2.52671 -6.61485 0
M  V30 6048 H 569.67 -1.17053 -5.52231 0
M  V30 6049 N 569.068 1.32177 -0.85831 0
M  V30 6050 C 570.314 1.97417 -0.46417 0
M  V30 6051 C 570.647 1.67746 0.978514 0
M  V30 6052 O 569.922 0.967654 1.68721 0
M  V30 6053 C 570.205 3.53069 -0.708094 0
M  V30 6054 C 570.058 3.92357 -2.19946 0
M  V30 6055 C 571.377 4.39783 -0.166881 0
M  V30 6056 H 568.496 0.717097 -0.17012 0
M  V30 6057 H 571.138 1.56499 -1.07741 0
M  V30 6058 H 569.288 3.88054 -0.186128 0
M  V30 6059 H 570.96 3.67533 -2.78779 0
M  V30 6060 H 569.203 3.41384 -2.67656 0
M  V30 6061 H 569.874 5.00841 -2.32082 0
M  V30 6062 H 572.35 4.11556 -0.613285 0
M  V30 6063 H 571.226 5.47671 -0.367093 0
M  V30 6064 H 571.487 4.32196 0.930559 0
M  V30 6065 N 570.547 0.616602 1.45037 0
M  V30 6066 C 571.775 0.121968 2.0654 0
M  V30 6067 C 572.19 -1.19743 1.45969 0
M  V30 6068 O 571.547 -1.73133 0.577168 0
M  V30 6069 C 571.598 -0.0145171 3.61497 0
M  V30 6070 O 571.319 1.25269 4.19809 0
M  V30 6071 C 572.82 -0.539555 4.40004 0
M  V30 6072 H 570.04 0.0729837 0.667019 0
M  V30 6073 H 572.584 0.846891 1.8614 0
M  V30 6074 H 570.739 -0.689809 3.81209 0
M  V30 6075 H 571.153 1.08816 5.13088 0
M  V30 6076 H 572.627 -0.584112 5.48901 0
M  V30 6077 H 573.104 -1.56368 4.10421 0
M  V30 6078 H 573.71 0.101995 4.25178 0
M  V30 6079 N 572.025 -1.5352 0.356285 0
M  V30 6080 C 572.957 -2.23009 -0.529127 0
M  V30 6081 C 573.97 -1.241 -1.05371 0
M  V30 6082 O 575.159 -1.50379 -0.961679 0
M  V30 6083 C 572.259 -2.90685 -1.74229 0
M  V30 6084 C 571.432 -4.16019 -1.35081 0
M  V30 6085 C 570.491 -4.66989 -2.42502 0
M  V30 6086 O 569.517 -5.30895 -2.05279 0
M  V30 6087 N 570.719 -4.44006 -3.7395 0
M  V30 6088 H 573.484 -2.99627 0.0660501 0
M  V30 6089 H 571.045 -1.60885 0.181014 0
M  V30 6090 H 573.037 -3.21695 -2.4555 0
M  V30 6091 H 571.607 -2.17575 -2.24454 0
M  V30 6092 H 570.827 -3.91414 -0.467833 0
M  V30 6093 H 572.115 -4.9752 -1.06542 0
M  V30 6094 H 571.513 -3.92924 -4.06973 0
M  V30 6095 H 570.07 -4.7959 -4.41403 0
M  V30 6096 N 573.503 -0.0852151 -1.57369 0
M  V30 6097 C 574.749 0.581666 -1.94279 0
M  V30 6098 C 575.082 1.68444 -0.966446 0
M  V30 6099 O 574.357 1.945 0.00215277 0
M  V30 6100 C 574.64 1.14609 -3.41375 0
M  V30 6101 C 574.493 0.0490414 -4.49773 0
M  V30 6102 C 575.812 2.04751 -3.8957 0
M  V30 6103 H 572.931 0.209972 -0.706456 0
M  V30 6104 H 575.573 -0.153915 -1.89376 0
M  V30 6105 H 573.723 1.77297 -3.45685 0
M  V30 6106 H 575.395 -0.584721 -4.57579 0
M  V30 6107 H 573.638 -0.618638 -4.29366 0
M  V30 6108 H 574.309 0.484601 -5.49869 0
M  V30 6109 H 576.785 1.51981 -3.87351 0
M  V30 6110 H 575.661 2.41173 -4.93079 0
M  V30 6111 H 575.922 2.96107 -3.28288 0
M  V30 6112 N 574.981 1.5647 0.188427 0
M  V30 6113 C 575.911 1.98101 1.23606 0
M  V30 6114 C 576.892 0.853961 1.47111 0
M  V30 6115 O 578.077 1.11879 1.58735 0
M  V30 6116 C 575.207 2.32624 2.57882 0
M  V30 6117 C 574.161 3.48129 2.48978 0
M  V30 6118 C 573.487 3.68347 3.87588 0
M  V30 6119 C 574.787 4.82112 2.00911 0
M  V30 6120 H 576.481 2.85864 0.890068 0
M  V30 6121 H 574.027 1.37532 0.426714 0
M  V30 6122 H 575.98 2.60343 3.3136 0
M  V30 6123 H 574.704 1.41751 2.94235 0
M  V30 6124 H 573.363 3.20511 1.77956 0
M  V30 6125 H 573.011 2.74793 4.21305 0
M  V30 6126 H 572.711 4.46055 3.82503 0
M  V30 6127 H 574.235 3.98449 4.62678 0
M  V30 6128 H 575.649 5.08819 2.64151 0
M  V30 6129 H 574.046 5.63337 2.06814 0
M  V30 6130 H 575.116 4.75249 0.96262 0
M  V30 6131 N 576.459 -0.456382 1.50847 0
M  V30 6132 C 577.687 -1.23026 1.66349 0
M  V30 6133 C 578.102 -1.85473 0.352868 0
M  V30 6134 O 577.459 -1.69885 -0.666739 0
M  V30 6135 C 577.51 -2.32827 2.76539 0
M  V30 6136 O 577.231 -1.72938 4.02522 0
M  V30 6137 C 578.732 -3.23448 3.03144 0
M  V30 6138 H 575.952 -0.371527 0.558756 0
M  V30 6139 H 578.496 -0.543082 1.97157 0
M  V30 6140 H 576.651 -2.97294 2.48384 0
M  V30 6141 H 577.065 -2.45357 4.63573 0
M  V30 6142 H 578.539 -3.96669 3.83872 0
M  V30 6143 H 579.016 -3.83094 2.14793 0
M  V30 6144 H 579.622 -2.64702 3.32886 0
M  V30 6145 N 577.937 -1.40673 -0.710563 0
M  V30 6146 C 579.183 -1.39428 -1.47267 0
M  V30 6147 C 579.516 0.00182129 -1.942 0
M  V30 6148 O 578.791 0.971387 -1.68506 0
M  V30 6149 C 579.074 -2.38812 -2.6952 0
M  V30 6150 C 578.927 -3.87467 -2.28449 0
M  V30 6151 C 580.246 -2.3566 -3.71689 0
M  V30 6152 H 577.365 -0.507768 -0.534173 0
M  V30 6153 H 580.007 -1.71843 -0.810547 0
M  V30 6154 H 578.157 -2.113 -3.26013 0
M  V30 6155 H 579.829 -4.25825 -1.77399 0
M  V30 6156 H 578.072 -4.03058 -1.60395 0
M  V30 6157 H 578.743 -4.5253 -3.16103 0
M  V30 6158 H 581.219 -2.6004 -3.24836 0
M  V30 6159 H 580.095 -3.07237 -4.54859 0
M  V30 6160 H 580.356 -1.36996 -4.20339 0
M  V30 6161 N 579.415 0.9433 -1.26252 0
M  V30 6162 C 580.378 2.02326 -1.07689 0
M  V30 6163 C 581.378 1.60779 -0.0259174 0
M  V30 6164 O 582.568 1.72108 -0.269134 0
M  V30 6165 C 579.7 3.34886 -0.63752 0
M  V30 6166 H 580.893 2.20225 -2.0357 0
M  V30 6167 H 578.446 1.12197 -1.08819 0
M  V30 6168 H 579.181 3.22684 0.323377 0
M  V30 6169 H 578.966 3.66393 -1.39637 0
M  V30 6170 H 580.456 4.14231 -0.529418 0
M  V30 6171 N 580.893 1.08022 1.14757 0
M  V30 6172 C 582.309 0.807072 1.3769 0
M  V30 6173 C 582.509 -0.585504 1.92806 0
M  V30 6174 O 581.565 -1.34301 2.13821 0
M  V30 6175 C 582.878 1.88651 2.34161 0
M  V30 6176 C 584.426 1.91206 2.47809 0
M  V30 6177 C 584.901 2.98253 3.47576 0
M  V30 6178 N 586.392 2.974 3.55117 0
M  V30 6179 C 587.127 3.76872 4.32152 0
M  V30 6180 N 586.623 4.66212 5.12463 0
M  V30 6181 N 588.416 3.6519 4.27309 0
M  V30 6182 H 580.567 1.97824 0.77326 0
M  V30 6183 H 582.83 0.85826 0.402608 0
M  V30 6184 H 582.536 2.88749 2.00791 0
M  V30 6185 H 582.41 1.75244 3.3402 0
M  V30 6186 H 584.797 0.917564 2.80472 0
M  V30 6187 H 584.878 2.08691 1.47925 0
M  V30 6188 H 584.522 3.97907 3.15646 0
M  V30 6189 H 584.452 2.78014 4.47231 0
M  V30 6190 H 586.943 2.32643 2.97801 0
M  V30 6191 H 587.256 5.23468 5.68508 0
M  V30 6192 H 585.601 4.70257 5.11745 0
M  V30 6193 H 588.792 2.94765 3.63636 0
M  V30 6194 H 588.965 4.27366 4.87095 0
M  V30 6195 N 582.371 -1.3172 0.865308 0
M  V30 6196 C 583.303 -2.27545 0.274906 0
M  V30 6197 C 584.316 -1.52887 -0.559413 0
M  V30 6198 O 585.505 -1.74361 -0.382166 0
M  V30 6199 C 582.605 -3.33006 -0.629286 0
M  V30 6200 C 581.778 -4.37063 0.171553 0
M  V30 6201 C 580.837 -5.22044 -0.660052 0
M  V30 6202 O 579.863 -5.69129 -0.0897527 0
M  V30 6203 N 581.065 -5.45946 -1.97289 0
M  V30 6204 H 583.83 -2.78848 1.09836 0
M  V30 6205 H 581.391 -1.44693 0.726331 0
M  V30 6206 H 583.383 -3.86772 -1.19121 0
M  V30 6207 H 581.953 -2.81782 -1.35342 0
M  V30 6208 H 581.173 -3.83436 0.914919 0
M  V30 6209 H 582.461 -5.03662 0.721235 0
M  V30 6210 H 581.859 -5.0944 -2.45942 0
M  V30 6211 H 580.416 -6.02665 -2.4827 0
M  V30 6212 N 583.85 -0.624285 -1.44708 0
M  V30 6213 C 585.099 -0.123539 -2.01321 0
M  V30 6214 C 585.412 1.25966 -1.49639 0
M  V30 6215 O 586.618 1.85405 -1.98336 0
M  V30 6216 C 585.074 -0.170124 -3.59498 0
M  V30 6217 C 584.682 -1.55421 -4.20176 0
M  V30 6218 C 586.426 0.274513 -4.23611 0
M  V30 6219 C 584.332 -1.55628 -5.70556 0
M  V30 6220 H 583.263 -0.0424183 -0.752806 0
M  V30 6221 H 585.913 -0.782076 -1.65999 0
M  V30 6222 H 584.296 0.555385 -3.92086 0
M  V30 6223 H 585.47 -2.30276 -3.99136 0
M  V30 6224 H 583.784 -1.94235 -3.68323 0
M  V30 6225 H 586.382 0.292402 -5.339 0
M  V30 6226 H 586.725 1.3005 -3.95465 0
M  V30 6227 H 587.258 -0.398275 -3.95801 0
M  V30 6228 H 583.997 -2.56041 -6.03426 0
M  V30 6229 H 583.517 -0.850563 -5.93739 0
M  V30 6230 H 585.196 -1.28721 -6.34066 0
M  V30 6231 N 585.328 1.53329 -0.364422 0
M  V30 6232 C 586.558 2.05359 0.226096 0
M  V30 6233 C 586.966 1.23777 1.43094 0
M  V30 6234 O 586.309 0.271139 1.81688 0
M  V30 6235 C 586.371 3.52918 0.684794 0
M  V30 6236 C 586.035 4.55218 -0.403206 0
M  V30 6237 C 587.032 5.04583 -1.2527 0
M  V30 6238 C 584.717 4.99134 -0.563117 0
M  V30 6239 C 586.711 5.96463 -2.24745 0
M  V30 6240 C 584.398 5.9082 -1.56124 0
M  V30 6241 C 585.396 6.39375 -2.40184 0
M  V30 6242 O 585.084 7.29255 -3.38293 0
M  V30 6243 H 584.816 0.674588 0.0436772 0
M  V30 6244 H 587.37 1.98688 -0.520782 0
M  V30 6245 H 585.6 3.57122 1.48326 0
M  V30 6246 H 587.289 3.87812 1.19818 0
M  V30 6247 H 588.055 4.71403 -1.14034 0
M  V30 6248 H 583.934 4.60928 0.0813909 0
M  V30 6249 H 587.478 6.34285 -2.90393 0
M  V30 6250 H 583.375 6.23414 -1.67407 0
M  V30 6251 H 584.143 7.47249 -3.34009 0
M  V30 6252 N 586.806 0.0935595 1.57322 0
M  V30 6253 C 587.754 -0.883457 2.15169 0
M  V30 6254 C 588.748 -1.29324 1.09415 0
M  V30 6255 O 589.954 -1.26795 1.27762 0
M  V30 6256 H 586.329 -0.302923 0.688289 0
M  V30 6257 H 588.3 -0.370845 2.96087 0
M  V30 6258 C 587.049 -2.13345 2.74552 0
M  V30 6259 H 586.372 -1.82702 3.55612 0
M  V30 6260 H 587.812 -2.7977 3.18598 0
M  V30 6261 C 586.271 -2.90646 1.70371 0
M  V30 6262 O 586.801 -3.85133 1.14173 0
M  V30 6263 N 585.007 -2.54157 1.40899 0
M  V30 6264 H 584.554 -1.77391 1.86789 0
M  V30 6265 H 584.512 -3.06178 0.714301 0
M  V30 6266 N 588.284 -1.56567 -0.180126 0
M  V30 6267 C 589.561 -1.7235 -0.924931 0
M  V30 6268 C 589.941 -0.652523 -2.00762 0
M  V30 6269 O 589.289 0.334115 -2.26044 0
M  V30 6270 C 589.499 -3.1523 -1.49771 0
M  V30 6271 C 590.847 -3.75921 -1.97405 0
M  V30 6272 O 591.871 -3.18452 -1.59583 0
M  V30 6273 O 590.73 -4.7681 -2.67048 0
M  V30 6274 H 587.824 -0.703502 -0.434758 0
M  V30 6275 H 590.37 -1.6886 -0.168647 0
M  V30 6276 H 589.142 -3.84656 -0.718027 0
M  V30 6277 H 588.765 -3.23009 -2.31842 0
M  V30 6278 N 589.762 0.448376 -1.51087 0
M  V30 6279 C 590.992 1.21965 -1.66757 0
M  V30 6280 C 591.4 1.85748 -0.359753 0
M  V30 6281 O 590.743 1.71022 0.670604 0
M  V30 6282 C 590.805 2.35284 -2.71812 0
M  V30 6283 C 590.469 1.91957 -4.1473 0
M  V30 6284 C 591.466 1.42921 -4.9987 0
M  V30 6285 C 589.151 1.99985 -4.60772 0
M  V30 6286 C 591.145 1.02485 -6.29107 0
M  V30 6287 C 588.832 1.5916 -5.90009 0
M  V30 6288 C 589.83 1.10491 -6.74004 0
M  V30 6289 O 589.518 0.702413 -8.00825 0
M  V30 6290 H 589.25 0.374125 -0.563034 0
M  V30 6291 H 591.804 0.538927 -1.98204 0
M  V30 6292 H 590.034 3.06599 -2.35657 0
M  V30 6293 H 591.723 2.97184 -2.76472 0
M  V30 6294 H 592.489 1.36123 -4.65506 0
M  V30 6295 H 588.368 2.36814 -3.95525 0
M  V30 6296 H 591.912 0.644271 -6.94619 0
M  V30 6297 H 587.809 1.65626 -6.2389 0
M  V30 6298 H 588.577 0.829248 -8.14288 0
M  V30 6299 N 591.24 1.41047 0.703093 0
M  V30 6300 C 592.486 1.40207 1.46526 0
M  V30 6301 C 592.819 0.00847763 1.94198 0
M  V30 6302 O 592.094 -0.962437 1.69019 0
M  V30 6303 C 592.377 2.40238 2.6825 0
M  V30 6304 C 592.23 3.88674 2.26391 0
M  V30 6305 C 593.549 2.37627 3.70434 0
M  V30 6306 H 590.668 0.510594 0.531472 0
M  V30 6307 H 593.31 1.72271 0.801422 0
M  V30 6308 H 591.46 2.13026 3.24888 0
M  V30 6309 H 593.132 4.2676 1.75138 0
M  V30 6310 H 591.375 4.03903 1.58255 0
M  V30 6311 H 592.046 4.542 3.13698 0
M  V30 6312 H 594.522 2.61759 3.23452 0
M  V30 6313 H 593.398 3.09645 4.53223 0
M  V30 6314 H 593.659 1.39223 4.19606 0
M  V30 6315 N 592.718 -0.936591 1.26751 0
M  V30 6316 C 593.946 -1.71758 1.15355 0
M  V30 6317 C 594.361 -1.86549 -0.290683 0
M  V30 6318 O 593.718 -1.37616 -1.19868 0
M  V30 6319 C 593.769 -3.12193 1.82258 0
M  V30 6320 O 593.49 -2.98105 3.21038 0
M  V30 6321 C 594.991 -4.06485 1.76875 0
M  V30 6322 H 592.211 -0.537636 0.401483 0
M  V30 6323 H 594.755 -1.17382 1.67457 0
M  V30 6324 H 592.91 -3.63456 1.34083 0
M  V30 6325 H 593.324 -3.86824 3.54214 0
M  V30 6326 H 594.798 -5.02569 2.28316 0
M  V30 6327 H 595.275 -4.32986 0.736216 0
M  V30 6328 H 595.881 -3.61144 2.24623 0
M  V30 6329 N 594.196 -1.08629 -1.14182 0
M  V30 6330 C 595.146 -0.687882 -2.17376 0
M  V30 6331 C 596.13 0.293632 -1.58198 0
M  V30 6332 O 597.322 0.105292 -1.76687 0
M  V30 6333 C 594.451 -0.101184 -3.43151 0
M  V30 6334 C 593.537 -1.10862 -4.09354 0
M  V30 6335 N 593.928 -2.29285 -4.50846 0
M  V30 6336 C 592.226 -0.944897 -4.35876 0
M  V30 6337 C 592.927 -2.93305 -5.02342 0
M  V30 6338 N 591.903 -2.20903 -4.96692 0
M  V30 6339 H 595.705 -1.58963 -2.472 0
M  V30 6340 H 593.219 -0.961329 -1.3089 0
M  V30 6341 H 595.216 0.202209 -4.16409 0
M  V30 6342 H 593.876 0.795522 -3.14804 0
M  V30 6343 H 594.887 -2.66927 -4.43813 0
M  V30 6344 H 591.564 -0.102186 -4.17375 0
M  V30 6345 H 592.954 -3.93932 -5.44304 0
M  V30 6346 N 595.674 1.31259 -0.872281 0
M  V30 6347 C 596.624 2.26 -0.301295 0
M  V30 6348 C 597.608 1.50729 0.562991 0
M  V30 6349 O 598.8 1.72198 0.40949 0
M  V30 6350 C 595.929 3.39724 0.494227 0
M  V30 6351 C 595.015 4.22363 -0.383432 0
M  V30 6352 N 595.406 4.83724 -1.47799 0
M  V30 6353 C 593.704 4.45652 -0.176278 0
M  V30 6354 C 594.405 5.45523 -2.01939 0
M  V30 6355 N 593.381 5.27428 -1.31608 0
M  V30 6356 H 597.183 2.70981 -1.13782 0
M  V30 6357 H 594.697 1.45552 -0.720294 0
M  V30 6358 H 596.694 4.06626 0.919828 0
M  V30 6359 H 595.354 2.96286 1.32834 0
M  V30 6360 H 596.365 4.83313 -1.8609 0
M  V30 6361 H 593.042 4.12845 0.621698 0
M  V30 6362 H 594.432 6.04268 -2.93786 0
M  V30 6363 N 597.152 0.631951 1.44375 0
M  V30 6364 C 598.563 0.219036 1.85411 0
M  V30 6365 C 598.914 -1.22974 1.52879 0
M  V30 6366 O 598.039 -1.93579 0.967266 0
M  V30 6367 C 598.634 0.39075 3.36539 0
M  V30 6368 C 597.193 0.0323351 3.76386 0
M  V30 6369 C 596.34 0.703744 2.68221 0
M  V30 6370 H 599.291 0.837056 1.3483 0
M  V30 6371 H 599.312 -0.370056 3.78696 0
M  V30 6372 H 598.824 1.44527 3.60185 0
M  V30 6373 H 596.925 -1.02042 3.58355 0
M  V30 6374 H 597.038 0.442969 4.77048 0
M  V30 6375 H 595.402 0.138974 2.54321 0
M  V30 6376 H 596.185 1.76088 2.947 0
M  V30 6377 N 598.631 -1.53133 0.372548 0
M  V30 6378 C 599.879 -2.00958 -0.214534 0
M  V30 6379 C 600.2 -1.26135 -1.48711 0
M  V30 6380 O 599.47 -0.376597 -1.92246 0
M  V30 6381 H 598.05 -0.742456 -0.0822664 0
M  V30 6382 H 600.712 -1.88367 0.500385 0
M  V30 6383 H 599.808 -3.09031 -0.436605 0
M  V30 6384 N 600.109 -0.101901 -1.5727 0
M  V30 6385 C 601.039 0.851544 -2.17419 0
M  V30 6386 C 602.02 1.28942 -1.10941 0
M  V30 6387 O 603.205 1.35509 -1.39107 0
M  V30 6388 C 600.335 2.10816 -2.75996 0
M  V30 6389 C 599.289 1.80867 -3.87906 0
M  V30 6390 C 598.615 3.13413 -4.33216 0
M  V30 6391 C 599.915 1.0903 -5.10793 0
M  V30 6392 H 601.609 0.350381 -2.97343 0
M  V30 6393 H 599.155 0.16709 -1.43027 0
M  V30 6394 H 601.108 2.77959 -3.16729 0
M  V30 6395 H 599.832 2.63227 -1.93337 0
M  V30 6396 H 598.491 1.16119 -3.47724 0
M  V30 6397 H 598.139 3.63725 -3.47438 0
M  V30 6398 H 597.839 2.94155 -5.08671 0
M  V30 6399 H 599.363 3.81704 -4.76586 0
M  V30 6400 H 600.777 1.66295 -5.48652 0
M  V30 6401 H 599.174 0.99927 -5.91722 0
M  V30 6402 H 600.244 0.0741704 -4.84843 0
M  V30 6403 N 601.587 1.56661 0.17182 0
M  V30 6404 C 602.815 1.861 0.904115 0
M  V30 6405 C 603.23 0.687227 1.75848 0
M  V30 6406 O 602.587 -0.343671 1.79235 0
M  V30 6407 C 602.638 3.14568 1.78127 0
M  V30 6408 O 602.359 4.27422 0.961366 0
M  V30 6409 C 603.86 3.5735 2.62327 0
M  V30 6410 H 601.08 0.617445 0.262684 0
M  V30 6411 H 603.624 2.03775 0.172068 0
M  V30 6412 H 601.779 2.98721 2.46666 0
M  V30 6413 H 602.193 5.00725 1.56123 0
M  V30 6414 H 603.667 4.50144 3.1949 0
M  V30 6415 H 604.144 2.81445 3.37173 0
M  V30 6416 H 604.75 3.75807 1.99121 0
M  V30 6417 N 603.065 -0.440357 1.51323 0
M  V30 6418 C 604.476 -1.02032 1.56353 0
M  V30 6419 C 604.827 -1.92382 0.385197 0
M  V30 6420 O 603.952 -2.10583 -0.498373 0
M  V30 6421 C 604.547 -1.85723 2.83359 0
M  V30 6422 C 603.106 -2.38774 2.90971 0
M  V30 6423 C 602.253 -1.17908 2.50984 0
M  V30 6424 H 605.204 -0.221744 1.57143 0
M  V30 6425 H 605.225 -2.71141 2.66951 0
M  V30 6426 H 604.737 -1.19939 3.69102 0
M  V30 6427 H 602.838 -3.08021 2.09651 0
M  V30 6428 H 602.951 -2.71778 3.94555 0
M  V30 6429 H 601.315 -1.52347 2.04114 0
M  V30 6430 H 602.098 -0.537393 3.39068 0
M  V30 6431 N 604.543 -1.41418 -0.695603 0
M  V30 6432 C 605.453 -1.45622 -1.83933 0
M  V30 6433 C 606.469 -0.346825 -1.70508 0
M  V30 6434 O 607.645 -0.59454 -1.92424 0
M  V30 6435 C 604.71 -1.33627 -3.19914 0
M  V30 6436 C 603.771 -2.54882 -3.45447 0
M  V30 6437 C 603.004 -2.43449 -4.7494 0
M  V30 6438 O 603.227 -1.45905 -5.51424 0
M  V30 6439 O 602.161 -3.33206 -5.01256 0
M  V30 6440 H 605.987 -2.42114 -1.83342 0
M  V30 6441 H 603.572 -1.22956 -0.848658 0
M  V30 6442 H 605.454 -1.29221 -4.01098 0
M  V30 6443 H 604.129 -0.402508 -3.21188 0
M  V30 6444 H 603.036 -2.64865 -2.64192 0
M  V30 6445 H 604.369 -3.47087 -3.48987 0
M  V30 6446 N 606.021 0.929856 -1.27246 0
M  V30 6447 C 606.953 2.03434 -1.0558 0
M  V30 6448 C 607.966 1.62795 -0.0125762 0
M  V30 6449 O 609.155 1.76685 -0.2539 0
M  V30 6450 C 606.255 3.33915 -0.57912 0
M  V30 6451 C 605.428 4.03259 -1.69415 0
M  V30 6452 C 604.487 5.12014 -1.21357 0
M  V30 6453 O 603.513 5.36097 -1.91282 0
M  V30 6454 N 604.715 5.8046 -0.0680622 0
M  V30 6455 H 607.48 2.22583 -2.00691 0
M  V30 6456 H 605.041 1.1001 -1.18783 0
M  V30 6457 H 607.033 4.03978 -0.241563 0
M  V30 6458 H 605.603 3.11355 0.278703 0
M  V30 6459 H 604.823 3.26958 -2.20209 0
M  V30 6460 H 606.111 4.46337 -2.44255 0
M  V30 6461 H 605.509 5.63345 0.515626 0
M  V30 6462 H 604.066 6.51461 0.210332 0
M  V30 6463 N 607.499 1.09233 1.13605 0
M  V30 6464 C 608.727 0.848908 1.88683 0
M  V30 6465 C 609.142 -0.599667 1.79024 0
M  V30 6466 O 608.499 -1.41265 1.15544 0
M  V30 6467 C 608.55 1.27273 3.38355 0
M  V30 6468 O 608.271 2.66449 3.47759 0
M  V30 6469 C 609.772 1.0614 4.30406 0
M  V30 6470 H 606.992 0.305549 0.597395 0
M  V30 6471 H 609.536 1.4538 1.43823 0
M  V30 6472 H 607.691 0.711776 3.80805 0
M  V30 6473 H 608.105 2.84264 4.40788 0
M  V30 6474 H 609.579 1.40725 5.33761 0
M  V30 6475 H 610.056 -0.000960332 4.392 0
M  V30 6476 H 610.662 1.60821 3.93722 0
M  V30 6477 N 608.977 -1.30795 0.87923 0
M  V30 6478 C 610.202 -2.01063 0.508769 0
M  V30 6479 C 610.627 -1.65508 -0.893803 0
M  V30 6480 O 609.985 -0.868616 -1.59138 0
M  V30 6481 C 610.033 -3.54054 0.683991 0
M  V30 6482 O 609.137 -4.11498 -0.272654 0
M  V30 6483 H 608.478 -0.632786 0.201191 0
M  V30 6484 H 611.008 -1.66776 1.18519 0
M  V30 6485 H 611.018 -4.03845 0.580798 0
M  V30 6486 H 609.693 -3.79271 1.70665 0
M  V30 6487 H 608.27 -3.72695 -0.12364 0
M  V30 6488 N 610.455 -0.639598 -1.44038 0
M  V30 6489 C 611.418 0.0506628 -2.29144 0
M  V30 6490 C 612.418 0.764001 -1.41491 0
M  V30 6491 O 613.608 0.607309 -1.63271 0
M  V30 6492 C 610.74 1.0824 -3.2326 0
M  V30 6493 H 611.933 -0.697987 -2.91664 0
M  V30 6494 H 609.486 -0.400146 -1.51091 0
M  V30 6495 H 610.221 1.86075 -2.65606 0
M  V30 6496 H 610.006 0.574725 -3.87865 0
M  V30 6497 H 611.496 1.56487 -3.87171 0
M  V30 6498 N 611.933 1.52934 -0.380664 0
M  V30 6499 C 613.181 2.01069 0.203874 0
M  V30 6500 C 613.502 1.26922 1.4804 0
M  V30 6501 O 612.772 0.386787 1.92044 0
M  V30 6502 H 611.352 0.742882 0.0783279 0
M  V30 6503 H 614.014 1.88099 -0.510368 0
M  V30 6504 H 613.11 3.09258 0.42021 0
M  V30 6505 N 613.412 0.11024 1.57214 0
M  V30 6506 C 614.375 -0.828808 2.1369 0
M  V30 6507 C 615.375 -1.20059 1.06969 0
M  V30 6508 O 616.565 -1.12754 1.32786 0
M  V30 6509 C 613.697 -2.11959 2.66994 0
M  V30 6510 H 614.89 -0.338146 2.97988 0
M  V30 6511 H 612.443 -0.138913 1.55681 0
M  V30 6512 H 613.178 -2.65476 1.8626 0
M  V30 6513 H 612.963 -1.86258 3.45037 0
M  V30 6514 H 614.453 -2.79105 3.10629 0
M  V30 6515 N 614.89 -1.56749 -0.16351 0
M  V30 6516 C 615.822 -1.93587 -1.22705 0
M  V30 6517 C 616.835 -0.829824 -1.40063 0
M  V30 6518 O 618.024 -1.10826 -1.39928 0
M  V30 6519 C 615.124 -2.1803 -2.59454 0
M  V30 6520 C 614.297 -3.4928 -2.63292 0
M  V30 6521 C 613.356 -3.62457 -3.8146 0
M  V30 6522 O 612.382 -4.35004 -3.67096 0
M  V30 6523 N 613.584 -2.97888 -4.9824 0
M  V30 6524 H 616.349 -2.8542 -0.914081 0
M  V30 6525 H 613.91 -1.58 -0.353214 0
M  V30 6526 H 615.902 -2.24102 -3.36987 0
M  V30 6527 H 614.472 -1.32543 -2.8311 0
M  V30 6528 H 613.692 -3.54795 -1.71796 0
M  V30 6529 H 614.98 -4.35632 -2.62873 0
M  V30 6530 H 614.378 -2.38833 -5.12811 0
M  V30 6531 H 612.935 -3.09545 -5.73607 0
M  V30 6532 N 616.368 0.432326 -1.51554 0
M  V30 6533 C 617.331 1.50765 -1.72634 0
M  V30 6534 C 618.331 1.49334 -0.596314 0
M  V30 6535 O 619.521 1.51268 -0.863925 0
M  V30 6536 C 616.653 2.90284 -1.7874 0
M  V30 6537 H 617.846 1.33377 -2.68609 0
M  V30 6538 H 615.399 0.661329 -1.4162 0
M  V30 6539 H 616.134 3.13071 -0.845977 0
M  V30 6540 H 615.919 2.92727 -2.6087 0
M  V30 6541 H 617.409 3.68282 -1.96871 0
M  V30 6542 N 617.846 1.41785 0.688094 0
M  V30 6543 C 618.809 1.43936 1.78368 0
M  V30 6544 C 619.809 0.328866 1.57401 0
M  V30 6545 O 620.999 0.589093 1.63937 0
M  V30 6546 C 618.131 1.25804 3.16838 0
M  V30 6547 H 619.324 2.41472 1.77852 0
M  V30 6548 H 616.877 1.28037 0.896448 0
M  V30 6549 H 617.612 0.291386 3.22988 0
M  V30 6550 H 617.397 2.06272 3.33458 0
M  V30 6551 H 618.887 1.30162 3.96797 0
M  V30 6552 N 619.324 -0.923095 1.27737 0
M  V30 6553 C 620.601 -1.64989 1.05062 0
M  V30 6554 C 620.981 -2.07018 -0.413124 0
M  V30 6555 O 620.329 -1.80797 -1.39731 0
M  V30 6556 C 620.539 -2.84847 2.01652 0
M  V30 6557 C 621.887 -3.56083 2.31279 0
M  V30 6558 O 622.911 -2.94981 1.99662 0
M  V30 6559 O 621.77 -4.66182 2.85196 0
M  V30 6560 H 618.864 -0.723357 0.400853 0
M  V30 6561 H 621.41 -0.973224 1.3902 0
M  V30 6562 H 620.182 -2.50814 3.00347 0
M  V30 6563 H 619.805 -3.60231 1.68284 0
M  V30 6564 N 620.802 -1.09834 -1.13024 0
M  V30 6565 C 622.051 -0.831806 -1.83749 0
M  V30 6566 C 622.364 0.644763 -1.84668 0
M  V30 6567 O 623.57 1.02697 -2.51327 0
M  V30 6568 C 622.026 -1.43817 -3.29916 0
M  V30 6569 C 621.634 -2.94759 -3.37374 0
M  V30 6570 C 623.378 -1.25077 -4.05655 0
M  V30 6571 C 621.285 -3.48461 -4.77838 0
M  V30 6572 H 620.215 -0.30751 -0.688443 0
M  V30 6573 H 622.866 -1.32156 -1.27307 0
M  V30 6574 H 621.248 -0.876106 -3.86187 0
M  V30 6575 H 622.422 -3.57228 -2.91076 0
M  V30 6576 H 620.737 -3.12581 -2.75103 0
M  V30 6577 H 623.334 -1.62649 -5.09362 0
M  V30 6578 H 623.677 -0.191782 -4.15858 0
M  V30 6579 H 624.21 -1.78057 -3.55725 0
M  V30 6580 H 620.949 -4.53998 -4.72828 0
M  V30 6581 H 620.469 -2.90757 -5.24615 0
M  V30 6582 H 622.148 -3.45914 -5.46766 0
M  V30 6583 N 622.28 1.30327 -0.886154 0
M  V30 6584 C 623.21 2.30549 -0.370028 0
M  V30 6585 C 624.191 1.61039 0.547751 0
M  V30 6586 O 625.376 1.8864 0.461353 0
M  V30 6587 C 622.506 3.44808 0.415275 0
M  V30 6588 C 621.46 4.26024 -0.41085 0
M  V30 6589 C 620.786 5.32347 0.501128 0
M  V30 6590 C 622.086 4.95433 -1.65359 0
M  V30 6591 H 623.78 2.73969 -1.20754 0
M  V30 6592 H 621.326 1.3171 -0.582097 0
M  V30 6593 H 623.279 4.13986 0.78699 0
M  V30 6594 H 622.003 3.00197 1.28644 0
M  V30 6595 H 620.662 3.58535 -0.764719 0
M  V30 6596 H 620.31 4.83982 1.37004 0
M  V30 6597 H 620.01 5.87581 -0.0478356 0
M  V30 6598 H 621.534 6.0438 0.869333 0
M  V30 6599 H 622.948 5.5712 -1.35239 0
M  V30 6600 H 621.345 5.60537 -2.14284 0
M  V30 6601 H 622.415 4.21493 -2.39733 0
M  V30 6602 N 623.758 0.647228 1.43697 0
M  V30 6603 C 624.983 0.164083 2.0675 0
M  V30 6604 C 625.408 -1.15892 1.48158 0
M  V30 6605 O 624.766 -1.71459 0.589194 0
M  V30 6606 C 624.814 0.0800368 3.60511 0
M  V30 6607 O 623.918 -0.959453 4.01084 0
M  V30 6608 H 623.259 0.0921288 0.657578 0
M  V30 6609 H 625.789 0.88846 1.84303 0
M  V30 6610 H 625.799 -0.105263 4.07864 0
M  V30 6611 H 624.474 1.04586 4.02535 0
M  V30 6612 H 623.051 -0.747425 3.65333 0
M  V30 6613 N 625.236 -1.5273 0.388769 0
M  V30 6614 C 626.166 -2.29353 -0.438111 0
M  V30 6615 C 627.147 -1.32719 -1.06394 0
M  V30 6616 O 628.332 -1.61612 -1.07681 0
M  V30 6617 C 625.462 -3.09995 -1.56589 0
M  V30 6618 C 624.416 -4.14509 -1.06613 0
M  V30 6619 C 623.742 -4.83372 -2.28594 0
M  V30 6620 C 625.042 -5.22127 -0.134459 0
M  V30 6621 H 626.736 -2.98723 0.201206 0
M  V30 6622 H 624.282 -1.43665 0.0982089 0
M  V30 6623 H 626.235 -3.62357 -2.15118 0
M  V30 6624 H 624.959 -2.38357 -2.23279 0
M  V30 6625 H 623.618 -3.63128 -0.503383 0
M  V30 6626 H 623.266 -4.08283 -2.93792 0
M  V30 6627 H 622.966 -5.54012 -1.95817 0
M  V30 6628 H 624.49 -5.38538 -2.87766 0
M  V30 6629 H 625.904 -5.69851 -0.627914 0
M  V30 6630 H 624.301 -6.00011 0.103534 0
M  V30 6631 H 625.371 -4.77971 0.816798 0
M  V30 6632 N 626.714 -0.118576 -1.57153 0
M  V30 6633 C 627.961 0.539526 -1.9518 0
M  V30 6634 C 628.289 1.66714 -1.00184 0
M  V30 6635 O 627.544 1.95683 -0.0256482 0
M  V30 6636 C 627.843 1.11303 -3.39627 0
M  V30 6637 C 627.509 0.106809 -4.50773 0
M  V30 6638 C 626.171 -0.169876 -4.809 0
M  V30 6639 C 628.523 -0.57895 -5.17975 0
M  V30 6640 C 625.851 -1.13861 -5.75545 0
M  V30 6641 C 628.203 -1.53631 -6.13661 0
M  V30 6642 C 626.867 -1.82099 -6.42181 0
M  V30 6643 H 626.137 0.197427 -0.714215 0
M  V30 6644 H 628.784 -0.199391 -1.90459 0
M  V30 6645 H 627.089 1.92869 -3.4104 0
M  V30 6646 H 628.786 1.63032 -3.66363 0
M  V30 6647 H 625.376 0.332645 -4.27307 0
M  V30 6648 H 629.56 -0.378359 -4.94856 0
M  V30 6649 H 624.816 -1.36592 -5.95947 0
M  V30 6650 H 628.99 -2.07337 -6.64819 0
M  V30 6651 H 626.617 -2.57319 -7.15326 0
M  V30 6652 N 628.193 1.56834 0.155195 0
M  V30 6653 C 629.433 1.84701 0.875488 0
M  V30 6654 C 629.797 0.701747 1.78716 0
M  V30 6655 O 630.998 0.861263 2.54629 0
M  V30 6656 C 629.269 3.1773 1.63654 0
M  V30 6657 S 630.828 3.67128 2.40338 0
M  V30 6658 H 627.646 0.647856 0.292923 0
M  V30 6659 H 630.248 1.95026 0.136024 0
M  V30 6660 H 628.952 3.99059 0.958117 0
M  V30 6661 H 628.483 3.10388 2.41708 0
M  V30 6662 H 630.498 3.35739 3.65368 0
M  V30 6663 N 629.671 -0.424282 1.51781 0
M  V30 6664 C 631.082 -1.00368 1.57427 0
M  V30 6665 C 631.433 -1.91962 0.40558 0
M  V30 6666 O 630.558 -2.111 -0.47601 0
M  V30 6667 C 631.153 -1.82707 2.85313 0
M  V30 6668 C 629.712 -2.35675 2.93487 0
M  V30 6669 C 628.859 -1.1524 2.5222 0
M  V30 6670 H 631.81 -0.205064 1.5737 0
M  V30 6671 H 631.831 -2.68294 2.69812 0
M  V30 6672 H 631.343 -1.16017 3.70353 0
M  V30 6673 H 629.444 -3.05781 2.12906 0
M  V30 6674 H 629.557 -2.67578 3.97415 0
M  V30 6675 H 627.921 -1.50174 2.05718 0
M  V30 6676 H 628.704 -0.5014 3.39619 0
M  V30 6677 N 631.149 -1.42148 -0.680565 0
M  V30 6678 C 632.426 -1.32795 -1.43614 0
M  V30 6679 C 632.806 0.037415 -2.11067 0
M  V30 6680 O 632.154 1.05258 -2.02813 0
M  V30 6681 C 632.364 -2.49206 -2.44331 0
M  V30 6682 C 633.712 -2.91059 -3.09144 0
M  V30 6683 O 634.736 -2.49054 -2.54657 0
M  V30 6684 O 633.595 -3.63741 -4.07866 0
M  V30 6685 H 630.689 -0.523397 -0.640301 0
M  V30 6686 H 633.235 -1.54144 -0.709775 0
M  V30 6687 H 632.007 -3.40252 -1.93247 0
M  V30 6688 H 631.63 -2.29813 -3.24456 0
M  V30 6689 N 632.627 0.916307 -1.28225 0
M  V30 6690 C 633.59 1.99996 -1.11957 0
M  V30 6691 C 634.59 1.60688 -0.0600152 0
M  V30 6692 O 635.78 1.71499 -0.30558 0
M  V30 6693 C 632.912 3.33458 -0.708411 0
M  V30 6694 H 634.105 2.15858 -2.08196 0
M  V30 6695 H 631.658 1.09863 -1.11175 0
M  V30 6696 H 632.393 3.23297 0.254859 0
M  V30 6697 H 632.178 3.63349 -1.47377 0
M  V30 6698 H 633.668 4.13014 -0.617164 0
M  V30 6699 N 634.105 1.10431 1.1244 0
M  V30 6700 C 635.382 0.758797 1.80282 0
M  V30 6701 C 635.762 -0.754727 1.97147 0
M  V30 6702 O 635.11 -1.68094 1.54779 0
M  V30 6703 C 635.32 1.50982 3.14651 0
M  V30 6704 C 636.668 1.68232 3.8985 0
M  V30 6705 O 637.692 1.47319 3.24308 0
M  V30 6706 O 636.551 2.02905 5.07437 0
M  V30 6707 H 633.645 0.273756 0.780376 0
M  V30 6708 H 636.191 1.20713 1.19275 0
M  V30 6709 H 634.963 2.53989 2.97666 0
M  V30 6710 H 634.586 1.05435 3.83366 0
M  V30 6711 N 635.583 -1.29855 0.893053 0
M  V30 6712 C 636.53 -2.27909 0.364161 0
M  V30 6713 C 637.5 -1.56726 -0.550093 0
M  V30 6714 O 638.685 -1.84747 -0.47677 0
M  V30 6715 C 635.825 -3.42678 -0.408178 0
M  V30 6716 C 634.938 -4.28659 0.536212 0
M  V30 6717 C 634.073 -5.30599 -0.252521 0
M  V30 6718 C 633.112 -6.08234 0.686822 0
M  V30 6719 N 632.249 -7.02068 -0.0670902 0
M  V30 6720 H 637.089 -2.72531 1.20544 0
M  V30 6721 H 634.626 -1.34047 0.605779 0
M  V30 6722 H 636.584 -4.07986 -0.871962 0
M  V30 6723 H 635.214 -2.99103 -1.21397 0
M  V30 6724 H 634.266 -3.63584 1.1185 0
M  V30 6725 H 635.578 -4.8274 1.25552 0
M  V30 6726 H 634.732 -6.01694 -0.777801 0
M  V30 6727 H 633.471 -4.77233 -1.005 0
M  V30 6728 H 632.476 -5.3601 1.22366 0
M  V30 6729 H 633.701 -6.63689 1.43852 0
M  V30 6730 H 631.647 -6.5108 -0.801955 0
M  V30 6731 H 631.564 -7.53675 0.59243 0
M  V30 6732 H 632.832 -7.77392 -0.572851 0
M  V30 6733 N 637.061 -0.65484 -1.43351 0
M  V30 6734 C 638.286 -0.175046 -2.0666 0
M  V30 6735 C 638.711 1.15104 -1.4877 0
M  V30 6736 O 638.069 1.71144 -0.598279 0
M  V30 6737 C 638.117 -0.0991544 -3.60464 0
M  V30 6738 O 637.221 0.938169 -4.01587 0
M  V30 6739 H 636.562 -0.0956148 -0.65708 0
M  V30 6740 H 639.092 -0.898222 -1.83829 0
M  V30 6741 H 639.102 0.083632 -4.07914 0
M  V30 6742 H 637.777 -1.06719 -4.01975 0
M  V30 6743 H 636.354 0.72804 -3.65724 0
M  V30 6744 N 638.539 1.52521 -0.396863 0
M  V30 6745 C 639.779 2.03583 0.182578 0
M  V30 6746 C 640.143 1.2766 1.43412 0
M  V30 6747 O 641.344 1.68884 2.09121 0
M  V30 6748 C 639.615 3.54724 0.436519 0
M  V30 6749 S 641.174 4.27598 0.985163 0
M  V30 6750 H 637.992 0.709186 0.0507529 0
M  V30 6751 H 640.594 1.87693 -0.546955 0
M  V30 6752 H 639.298 4.07567 -0.481343 0
M  V30 6753 H 638.829 3.74834 1.19427 0
M  V30 6754 H 640.844 4.41393 2.26686 0
M  V30 6755 N 640.017 0.126909 1.57088 0
M  V30 6756 C 641.263 -0.529952 1.95753 0
M  V30 6757 C 641.596 -1.65823 1.01077 0
M  V30 6758 O 640.871 -1.94437 0.0494162 0
M  V30 6759 C 641.154 -1.05517 3.44294 0
M  V30 6760 C 641.007 0.0702253 4.49745 0
M  V30 6761 C 642.326 -1.9435 3.94862 0
M  V30 6762 H 639.445 -0.191168 0.711775 0
M  V30 6763 H 642.087 0.204071 1.88901 0
M  V30 6764 H 640.237 -1.68069 3.50264 0
M  V30 6765 H 641.909 0.705834 4.55868 0
M  V30 6766 H 640.152 0.732259 4.27575 0
M  V30 6767 H 640.823 -0.338642 5.5096 0
M  V30 6768 H 643.299 -1.41658 3.91244 0
M  V30 6769 H 642.175 -2.28015 4.993 0
M  V30 6770 H 642.436 -2.87299 3.36024 0
M  V30 6771 N 641.495 -1.56914 -0.146875 0
M  V30 6772 C 642.458 -1.97368 -1.16526 0
M  V30 6773 C 643.458 -0.860223 -1.35856 0
M  V30 6774 O 644.648 -1.12684 -1.32846 0
M  V30 6775 C 641.78 -2.28974 -2.52555 0
M  V30 6776 H 642.973 -2.88523 -0.818209 0
M  V30 6777 H 640.526 -1.5135 -0.390221 0
M  V30 6778 H 641.261 -1.40611 -2.92231 0
M  V30 6779 H 641.046 -3.10157 -2.39886 0
M  V30 6780 H 642.536 -2.61109 -3.25902 0
M  V30 6781 N 642.974 0.416227 -1.52004 0
M  V30 6782 C 644.199 1.19029 -1.69843 0
M  V30 6783 C 644.624 1.83708 -0.404103 0
M  V30 6784 O 643.982 1.69711 0.637787 0
M  V30 6785 C 644.03 2.23439 -2.83032 0
M  V30 6786 O 643.134 3.29419 -2.48106 0
M  V30 6787 H 642.475 0.347785 -0.565634 0
M  V30 6788 H 645.005 0.488871 -1.98674 0
M  V30 6789 H 645.015 2.67884 -3.07737 0
M  V30 6790 H 643.69 1.75745 -3.76944 0
M  V30 6791 H 642.267 2.90303 -2.34048 0
M  V30 6792 N 644.452 1.42507 0.673017 0
M  V30 6793 C 645.4 1.46362 1.80779 0
M  V30 6794 C 646.394 0.339166 1.6597 0
M  V30 6795 O 647.6 0.512262 1.72557 0
M  V30 6796 H 643.975 0.458433 0.596107 0
M  V30 6797 H 645.946 2.41953 1.74646 0
M  V30 6798 C 644.695 1.38462 3.18941 0
M  V30 6799 H 644.018 2.24283 3.30964 0
M  V30 6800 H 645.458 1.45221 3.98355 0
M  V30 6801 C 643.917 0.0996354 3.36753 0
M  V30 6802 O 644.447 -0.846894 3.92671 0
M  V30 6803 N 642.653 0.016211 2.90595 0
M  V30 6804 H 642.2 0.78725 2.45276 0
M  V30 6805 H 642.158 -0.84291 3.0289 0
M  V30 6806 N 645.93 -0.909495 1.28709 0
M  V30 6807 C 646.878 -2.03381 1.12866 0
M  V30 6808 C 647.872 -1.69335 0.0468074 0
M  V30 6809 O 649.078 -1.78819 0.205891 0
M  V30 6810 H 645.453 -0.666452 0.348348 0
M  V30 6811 H 647.424 -2.13885 2.08077 0
M  V30 6812 C 646.173 -3.38092 0.811742 0
M  V30 6813 H 645.496 -3.64786 1.63619 0
M  V30 6814 H 646.936 -4.17477 0.740869 0
M  V30 6815 C 645.395 -3.33395 -0.484679 0
M  V30 6816 O 645.925 -3.72089 -1.5137 0
M  V30 6817 N 644.131 -2.86491 -0.486961 0
M  V30 6818 H 643.678 -2.55199 0.350877 0
M  V30 6819 H 643.636 -2.83731 -1.3544 0
M  V30 6820 N 647.408 -1.11026 -1.11852 0
M  V30 6821 C 648.685 -0.768347 -1.79877 0
M  V30 6822 C 649.065 0.744261 -1.97545 0
M  V30 6823 O 648.413 1.67271 -1.55669 0
M  V30 6824 C 648.623 -1.52648 -3.13846 0
M  V30 6825 C 649.971 -1.70297 -3.88953 0
M  V30 6826 O 650.995 -1.49037 -3.23522 0
M  V30 6827 O 649.854 -2.05593 -5.06353 0
M  V30 6828 H 646.948 -0.277891 -0.778913 0
M  V30 6829 H 649.494 -1.21343 -1.18633 0
M  V30 6830 H 648.266 -2.55564 -2.96315 0
M  V30 6831 H 647.889 -1.07466 -3.82801 0
M  V30 6832 N 648.886 1.2938 -0.899927 0
M  V30 6833 C 649.818 2.26737 -0.335139 0
M  V30 6834 C 650.831 1.54316 0.518681 0
M  V30 6835 O 652.02 1.75313 0.335803 0
M  V30 6836 C 649.12 3.34558 0.540774 0
M  V30 6837 C 648.293 4.36455 -0.287372 0
M  V30 6838 C 647.352 5.2361 0.52141 0
M  V30 6839 O 646.378 5.69167 -0.0611735 0
M  V30 6840 N 647.58 5.50985 1.82745 0
M  V30 6841 H 650.345 2.75838 -1.17191 0
M  V30 6842 H 647.906 1.42716 -0.764438 0
M  V30 6843 H 649.898 3.89794 1.08825 0
M  V30 6844 H 648.468 2.85272 1.27823 0
M  V30 6845 H 647.688 3.80875 -1.01626 0
M  V30 6846 H 648.976 5.01573 -0.854518 0
M  V30 6847 H 648.374 5.15781 2.32349 0
M  V30 6848 H 646.931 6.09036 2.32204 0
M  V30 6849 N 650.364 0.662433 1.43002 0
M  V30 6850 C 651.327 -0.0142016 2.29196 0
M  V30 6851 C 652.327 -0.741394 1.42688 0
M  V30 6852 O 653.517 -0.581257 1.64216 0
M  V30 6853 C 650.649 -1.03084 3.24941 0
M  V30 6854 H 651.842 0.7443 2.90517 0
M  V30 6855 H 649.395 0.424133 1.50435 0
M  V30 6856 H 650.13 -1.81826 2.68533 0
M  V30 6857 H 649.915 -0.512946 3.8873 0
M  V30 6858 H 651.405 -1.50308 3.89612 0
M  V30 6859 N 651.842 -1.52309 0.404946 0
M  V30 6860 C 652.79 -2.28452 -0.437321 0
M  V30 6861 C 653.784 -1.32975 -1.04948 0
M  V30 6862 O 654.99 -1.50451 -0.988159 0
M  V30 6863 H 651.365 -0.734824 -0.159805 0
M  V30 6864 H 653.336 -2.97542 0.22615 0
M  V30 6865 C 652.085 -3.11536 -1.54404 0
M  V30 6866 H 651.408 -3.84871 -1.08233 0
M  V30 6867 H 652.848 -3.67926 -2.10729 0
M  V30 6868 C 651.307 -2.24833 -2.50902 0
M  V30 6869 O 651.837 -1.88574 -3.54687 0
M  V30 6870 N 650.043 -1.88685 -2.21012 0
M  V30 6871 H 649.59 -2.18371 -1.36646 0
M  V30 6872 H 649.548 -1.30966 -2.85824 0
M  V30 6873 N 653.32 -0.135238 -1.57019 0
M  V30 6874 C 654.569 0.518694 -1.94917 0
M  V30 6875 C 654.882 1.66783 -1.0219 0
M  V30 6876 O 656.088 2.38561 -1.29619 0
M  V30 6877 C 654.544 0.974123 -3.46466 0
M  V30 6878 C 654.152 -0.147439 -4.47757 0
M  V30 6879 C 655.896 1.59851 -3.93253 0
M  V30 6880 C 653.803 0.325599 -5.90503 0
M  V30 6881 H 652.733 0.19754 -0.727663 0
M  V30 6882 H 655.384 -0.217698 -1.82204 0
M  V30 6883 H 653.766 1.76542 -3.5447 0
M  V30 6884 H 654.94 -0.924122 -4.51438 0
M  V30 6885 H 653.255 -0.679496 -4.10818 0
M  V30 6886 H 655.852 1.96385 -4.9733 0
M  V30 6887 H 656.195 2.48306 -3.3414 0
M  V30 6888 H 656.728 0.872323 -3.88118 0
M  V30 6889 H 653.467 -0.523295 -6.53408 0
M  V30 6890 H 652.987 1.06841 -5.90208 0
M  V30 6891 H 654.666 0.781498 -6.42263 0
M  V30 6892 N 654.798 1.5699 0.138552 0
M  V30 6893 C 655.746 1.99858 1.18994 0
M  V30 6894 C 656.74 0.89231 1.43994 0
M  V30 6895 O 657.946 1.0775 1.44187 0
M  V30 6896 H 654.321 0.636325 0.400743 0
M  V30 6897 H 656.292 2.87427 0.801755 0
M  V30 6898 C 655.041 2.40235 2.51361 0
M  V30 6899 H 654.364 3.24917 2.32957 0
M  V30 6900 H 655.804 2.74045 3.23535 0
M  V30 6901 C 654.263 1.25829 3.1252 0
M  V30 6902 O 654.793 0.563604 3.97727 0
M  V30 6903 N 652.999 1.02036 2.72097 0
M  V30 6904 H 652.546 1.58705 2.02905 0
M  V30 6905 H 652.504 0.256796 3.1335 0
M  V30 6906 N 656.276 -0.40816 1.52223 0
M  V30 6907 C 657.525 -1.15212 1.65557 0
M  V30 6908 C 657.838 -1.9163 0.392096 0
M  V30 6909 O 659.044 -2.68458 0.405256 0
M  V30 6910 C 657.5 -2.09691 2.92502 0
M  V30 6911 C 657.108 -1.38785 4.25961 0
M  V30 6912 C 658.852 -2.8434 3.152 0
M  V30 6913 C 656.759 -2.31919 5.44029 0
M  V30 6914 H 655.689 -0.433776 0.616729 0
M  V30 6915 H 658.34 -0.4165 1.78711 0
M  V30 6916 H 656.722 -2.8681 2.7305 0
M  V30 6917 H 657.896 -0.670248 4.55899 0
M  V30 6918 H 656.211 -0.761741 4.09373 0
M  V30 6919 H 658.808 -3.54166 4.00587 0
M  V30 6920 H 659.151 -3.47344 2.29473 0
M  V30 6921 H 659.684 -2.14321 3.35129 0
M  V30 6922 H 656.423 -1.7356 6.32105 0
M  V30 6923 H 655.943 -3.0165 5.18428 0
M  V30 6924 H 657.622 -2.92424 5.77146 0
M  V30 6925 N 657.755 -1.42862 -0.66545 0
M  V30 6926 C 658.665 -1.49491 -1.80803 0
M  V30 6927 C 659.681 -0.382914 -1.69734 0
M  V30 6928 O 660.857 -0.635223 -1.9112 0
M  V30 6929 C 657.922 -1.40383 -3.17007 0
M  V30 6930 C 656.983 -2.62152 -3.39963 0
M  V30 6931 C 656.216 -2.53469 -4.69669 0
M  V30 6932 O 656.439 -1.57568 -5.48205 0
M  V30 6933 O 655.373 -3.43763 -4.94075 0
M  V30 6934 H 659.199 -2.45949 -1.78165 0
M  V30 6935 H 656.784 -1.24728 -0.822387 0
M  V30 6936 H 658.666 -1.377 -3.98267 0
M  V30 6937 H 657.341 -0.470546 -3.20262 0
M  V30 6938 H 656.248 -2.70409 -2.58515 0
M  V30 6939 H 657.581 -3.54411 -3.41546 0
M  V30 6940 N 659.233 0.902656 -1.29189 0
M  V30 6941 C 660.458 1.69167 -1.19989 0
M  V30 6942 C 660.883 1.86607 0.236495 0
M  V30 6943 O 660.241 1.38425 1.17082 0
M  V30 6944 C 660.289 3.05532 -1.91527 0
M  V30 6945 O 659.393 3.93621 -1.2303 0
M  V30 6946 H 658.734 0.517584 -0.415936 0
M  V30 6947 H 661.264 1.12785 -1.70706 0
M  V30 6948 H 661.274 3.55693 -1.99866 0
M  V30 6949 H 659.949 2.92156 -2.96003 0
M  V30 6950 H 658.526 3.52055 -1.22928 0
M  V30 6951 N 660.711 1.11618 1.11262 0
M  V30 6952 C 662.127 0.850468 1.35053 0
M  V30 6953 C 662.327 -0.523868 1.94571 0
M  V30 6954 O 661.383 -1.2743 2.17986 0
M  V30 6955 C 662.696 1.96005 2.28041 0
M  V30 6956 C 664.244 1.98993 2.416 0
M  V30 6957 C 664.719 3.0916 3.37911 0
M  V30 6958 N 666.21 3.08547 3.45475 0
M  V30 6959 C 666.945 3.9043 4.19943 0
M  V30 6960 N 666.441 4.8228 4.97371 0
M  V30 6961 N 668.234 3.786 4.15474 0
M  V30 6962 H 660.385 2.00184 0.709932 0
M  V30 6963 H 662.648 0.870635 0.375099 0
M  V30 6964 H 662.354 2.9499 1.91503 0
M  V30 6965 H 662.228 1.85782 3.28275 0
M  V30 6966 H 664.615 1.00633 2.77411 0
M  V30 6967 H 664.696 2.13292 1.4121 0
M  V30 6968 H 664.34 4.07748 3.02827 0
M  V30 6969 H 664.27 2.92102 4.3816 0
M  V30 6970 H 666.761 2.42 2.90249 0
M  V30 6971 H 667.074 5.41289 5.51567 0
M  V30 6972 H 665.419 4.863 4.96525 0
M  V30 6973 H 668.61 3.06185 3.54074 0
M  V30 6974 H 668.783 4.42647 4.73253 0
M  V30 6975 N 662.189 -1.289 0.906776 0
M  V30 6976 C 663.414 -1.99939 0.551303 0
M  V30 6977 C 663.839 -1.67366 -0.858496 0
M  V30 6978 O 663.197 -0.902176 -1.57259 0
M  V30 6979 C 663.245 -3.52523 0.758937 0
M  V30 6980 O 662.349 -4.11983 -0.185308 0
M  V30 6981 H 661.69 -0.628376 0.214568 0
M  V30 6982 H 664.22 -1.64225 1.2203 0
M  V30 6983 H 664.23 -4.02522 0.666329 0
M  V30 6984 H 662.905 -3.75566 1.78671 0
M  V30 6985 H 661.482 -3.72873 -0.0445577 0
M  V30 6986 N 663.667 -0.670007 -1.42649 0
M  V30 6987 C 664.915 -0.18991 -2.01206 0
M  V30 6988 C 665.236 1.20617 -1.53221 0
M  V30 6989 O 664.506 1.80898 -0.751856 0
M  V30 6990 H 663.086 -0.0672189 -0.743969 0
M  V30 6991 H 665.748 -0.865442 -1.74631 0
M  V30 6992 H 664.844 -0.187481 -3.11536 0
M  V30 6993 N 665.145 1.52092 -0.413018 0
M  V30 6994 C 666.561 1.59471 -0.0640836 0
M  V30 6995 C 666.761 1.42562 1.42402 0
M  V30 6996 O 665.817 1.25453 2.19129 0
M  V30 6997 C 667.13 2.95392 -0.562474 0
M  V30 6998 C 668.678 3.08637 -0.520788 0
M  V30 6999 C 669.153 4.47044 -0.995752 0
M  V30 7000 N 670.644 4.53296 -0.952732 0
M  V30 7001 C 671.379 5.58669 -1.29138 0
M  V30 7002 N 670.875 6.71576 -1.70168 0
M  V30 7003 N 672.668 5.48898 -1.2111 0
M  V30 7004 H 664.819 1.6133 -1.38153 0
M  V30 7005 H 667.082 0.75916 -0.567785 0
M  V30 7006 H 666.788 3.13059 -1.60271 0
M  V30 7007 H 666.662 3.77191 0.0257875 0
M  V30 7008 H 669.049 2.90652 0.510412 0
M  V30 7009 H 669.13 2.28735 -1.14515 0
M  V30 7010 H 668.774 4.65773 -2.0253 0
M  V30 7011 H 668.704 5.25448 -0.348162 0
M  V30 7012 H 671.195 3.72248 -0.651119 0
M  V30 7013 H 671.508 7.47973 -1.9431 0
M  V30 7014 H 669.853 6.72847 -1.74075 0
M  V30 7015 H 673.044 4.59573 -0.889396 0
M  V30 7016 H 673.217 6.30912 -1.47833 0
M  V30 7017 N 666.623 0.143563 1.56945 0
M  V30 7018 C 667.848 -0.518701 2.00809 0
M  V30 7019 C 668.273 -1.5785 1.02298 0
M  V30 7020 O 667.631 -1.813 -0.0017839 0
M  V30 7021 C 667.679 -1.09929 3.43436 0
M  V30 7022 O 666.783 -2.21425 3.47915 0
M  V30 7023 H 666.124 -0.127215 0.6517 0
M  V30 7024 H 668.654 0.239283 2.03196 0
M  V30 7025 H 668.664 -1.4288 3.82164 0
M  V30 7026 H 667.339 -0.323162 4.14643 0
M  V30 7027 H 665.916 -1.89728 3.21026 0
M  V30 7028 N 668.101 -1.57061 -0.130224 0
M  V30 7029 C 669.331 -1.88159 -0.853217 0
M  V30 7030 C 669.739 -0.731675 -1.7448 0
M  V30 7031 O 669.082 0.307035 -1.81116 0
M  V30 7032 C 669.144 -3.1415 -1.74785 0
M  V30 7033 C 668.808 -4.45202 -1.03173 0
M  V30 7034 C 669.805 -5.18526 -0.377759 0
M  V30 7035 C 667.49 -4.91912 -1.01624 0
M  V30 7036 C 669.484 -6.36775 0.282123 0
M  V30 7037 C 667.171 -6.10082 -0.352555 0
M  V30 7038 C 668.169 -6.82361 0.295483 0
M  V30 7039 O 667.857 -7.98284 0.948606 0
M  V30 7040 H 667.589 -0.627596 -0.251197 0
M  V30 7041 H 670.143 -2.05034 -0.1226 0
M  V30 7042 H 668.373 -2.93328 -2.51983 0
M  V30 7043 H 670.062 -3.31359 -2.34427 0
M  V30 7044 H 670.828 -4.83498 -0.381417 0
M  V30 7045 H 666.707 -4.35566 -1.51007 0
M  V30 7046 H 670.251 -6.93129 0.788525 0
M  V30 7047 H 666.148 -6.44569 -0.346621 0
M  V30 7048 H 666.916 -8.14054 0.851954 0
M  V30 7049 N 669.579 0.400081 -1.52437 0
M  V30 7050 C 670.509 1.4947 -1.7939 0
M  V30 7051 C 671.49 1.57383 -0.645329 0
M  V30 7052 O 672.675 1.72511 -0.891826 0
M  V30 7053 C 669.805 2.87201 -1.95276 0
M  V30 7054 C 668.759 2.94134 -3.10917 0
M  V30 7055 C 668.085 4.34207 -3.1204 0
M  V30 7056 C 669.385 2.64791 -4.50203 0
M  V30 7057 H 671.079 1.27165 -2.71052 0
M  V30 7058 H 668.625 0.610312 -1.30427 0
M  V30 7059 H 670.578 3.63772 -2.12715 0
M  V30 7060 H 669.302 3.10819 -1.00294 0
M  V30 7061 H 667.961 2.20009 -2.93243 0
M  V30 7062 H 667.609 4.54848 -2.14761 0
M  V30 7063 H 667.309 4.39768 -3.89715 0
M  V30 7064 H 668.833 5.127 -3.31619 0
M  V30 7065 H 670.247 3.31083 -4.68035 0
M  V30 7066 H 668.644 2.81717 -5.29864 0
M  V30 7067 H 669.714 1.60184 -4.57678 0
M  V30 7068 N 671.057 1.43213 0.657864 0
M  V30 7069 C 672.468 1.39669 1.23893 0
M  V30 7070 C 672.819 0.0984217 1.95953 0
M  V30 7071 O 671.944 -0.8023 2.00978 0
M  V30 7072 C 672.539 2.53004 2.25332 0
M  V30 7073 C 671.098 2.5274 2.78926 0
M  V30 7074 C 670.245 2.30941 1.53497 0
M  V30 7075 H 673.196 1.52181 0.450172 0
M  V30 7076 H 673.217 2.24226 3.07413 0
M  V30 7077 H 672.729 3.4748 1.72856 0
M  V30 7078 H 670.83 1.6213 3.35477 0
M  V30 7079 H 670.943 3.50352 3.26787 0
M  V30 7080 H 669.307 1.7952 1.80678 0
M  V30 7081 H 670.09 3.27496 1.02963 0
M  V30 7082 N 672.536 -0.895792 1.29666 0
M  V30 7083 C 673.446 -2.03329 1.17024 0
M  V30 7084 C 674.462 -1.73753 0.0925962 0
M  V30 7085 O 675.638 -1.99071 0.305431 0
M  V30 7086 C 672.703 -3.36072 0.851841 0
M  V30 7087 C 671.764 -3.7914 2.01373 0
M  V30 7088 C 670.997 -5.05549 1.71043 0
M  V30 7089 O 671.22 -5.66874 0.633213 0
M  V30 7090 O 670.154 -5.44764 2.5596 0
M  V30 7091 H 673.98 -2.16918 2.12556 0
M  V30 7092 H 671.565 -1.02007 1.09156 0
M  V30 7093 H 673.447 -4.15729 0.689006 0
M  V30 7094 H 672.122 -3.23616 -0.0736634 0
M  V30 7095 H 671.029 -3.00233 2.23183 0
M  V30 7096 H 672.362 -3.96186 2.92058 0
M  V30 7097 N 674.014 -1.12206 -1.10668 0
M  V30 7098 C 674.962 -0.782918 -2.19028 0
M  V30 7099 C 675.956 0.229175 -1.67843 0
M  V30 7100 O 677.162 0.0876295 -1.79787 0
M  V30 7101 H 673.537 -0.235339 -0.714227 0
M  V30 7102 H 675.508 -1.70527 -2.44874 0
M  V30 7103 C 674.257 -0.25116 -3.46792 0
M  V30 7104 H 673.58 -1.02123 -3.86537 0
M  V30 7105 H 675.02 -0.0521409 -4.23968 0
M  V30 7106 C 673.479 1.02037 -3.21076 0
M  V30 7107 O 674.009 2.09862 -3.42522 0
M  V30 7108 N 672.215 0.946348 -2.74759 0
M  V30 7109 H 671.762 0.068777 -2.57508 0
M  V30 7110 H 671.72 1.79775 -2.57931 0
M  V30 7111 N 675.492 1.28418 -0.913599 0
M  V30 7112 C 676.908 1.47411 -0.611728 0
M  V30 7113 C 677.108 1.83018 0.843008 0
M  V30 7114 O 676.164 1.93505 1.6221 0
M  V30 7115 C 677.477 2.57703 -1.5495 0
M  V30 7116 C 679.025 2.71572 -1.5562 0
M  V30 7117 C 679.5 3.85008 -2.48058 0
M  V30 7118 N 680.991 3.92361 -2.46184 0
M  V30 7119 C 681.726 4.79516 -3.14407 0
M  V30 7120 N 681.222 5.71262 -3.91958 0
M  V30 7121 N 683.015 4.73125 -3.03495 0
M  V30 7122 H 675.166 1.03585 -1.85429 0
M  V30 7123 H 677.429 0.515907 -0.795326 0
M  V30 7124 H 677.135 2.38298 -2.58663 0
M  V30 7125 H 677.009 3.54801 -1.28048 0
M  V30 7126 H 679.396 2.90366 -0.526441 0
M  V30 7127 H 679.477 1.75006 -1.86565 0
M  V30 7128 H 679.121 3.66969 -3.51136 0
M  V30 7129 H 679.051 4.80971 -2.14416 0
M  V30 7130 H 681.542 3.26749 -1.89851 0
M  V30 7131 H 681.855 6.34593 -4.41034 0
M  V30 7132 H 680.2 5.71103 -3.96063 0
M  V30 7133 H 683.391 4.00442 -2.42413 0
M  V30 7134 H 683.564 5.40834 -3.56935 0
M  V30 7135 N 676.97 0.677563 1.42291 0
M  V30 7136 C 677.933 0.0101085 2.29198 0
M  V30 7137 C 678.933 -0.726219 1.43467 0
M  V30 7138 O 680.123 -0.563807 1.64824 0
M  V30 7139 C 677.255 -0.996316 3.26016 0
M  V30 7140 H 678.448 0.775071 2.89711 0
M  V30 7141 H 676.001 0.440065 1.49977 0
M  V30 7142 H 676.736 -1.78967 2.70446 0
M  V30 7143 H 676.521 -0.471687 3.89253 0
M  V30 7144 H 678.011 -1.46167 3.91184 0
M  V30 7145 N 678.448 -1.51871 0.421078 0
M  V30 7146 C 679.694 -2.02237 -0.151014 0
M  V30 7147 C 680.027 -1.30554 -1.43768 0
M  V30 7148 O 679.302 -0.41546 -1.90011 0
M  V30 7149 C 679.585 -3.5802 -0.386482 0
M  V30 7150 C 679.438 -4.40339 0.9177 0
M  V30 7151 C 680.757 -4.24444 -1.16342 0
M  V30 7152 H 677.876 -0.735062 -0.0534102 0
M  V30 7153 H 680.518 -1.81656 0.556888 0
M  V30 7154 H 678.668 -3.75688 -0.989494 0
M  V30 7155 H 680.34 -4.34357 1.55344 0
M  V30 7156 H 678.583 -4.06073 1.526 0
M  V30 7157 H 679.254 -5.47451 0.707187 0
M  V30 7158 H 681.73 -4.10948 -0.652788 0
M  V30 7159 H 680.606 -5.33358 -1.29693 0
M  V30 7160 H 680.867 -3.84204 -2.18724 0
M  V30 7161 N 679.926 -0.151884 -1.56866 0
M  V30 7162 C 681.175 0.497992 -1.95456 0
M  V30 7163 C 681.488 1.6569 -1.03953 0
M  V30 7164 O 682.694 2.37173 -1.32142 0
M  V30 7165 C 681.15 0.93732 -3.4748 0
M  V30 7166 C 680.758 -0.194921 -4.47576 0
M  V30 7167 C 682.502 1.55671 -3.94926 0
M  V30 7168 C 680.409 0.26295 -5.90815 0
M  V30 7169 H 679.339 0.189811 -0.729717 0
M  V30 7170 H 681.99 -0.237011 -1.81963 0
M  V30 7171 H 680.372 1.72773 -3.56322 0
M  V30 7172 H 681.546 -0.971951 -4.50433 0
M  V30 7173 H 679.861 -0.72303 -4.10075 0
M  V30 7174 H 682.458 1.91099 -4.99385 0
M  V30 7175 H 682.801 2.44748 -3.36755 0
M  V30 7176 H 683.334 0.831109 -3.89021 0
M  V30 7177 H 680.073 -0.592568 -6.52816 0
M  V30 7178 H 679.593 1.00575 -5.91308 0
M  V30 7179 H 681.272 0.713333 -6.43056 0
M  V30 7180 N 681.404 1.57128 0.121893 0
M  V30 7181 C 682.632 1.88883 0.844451 0
M  V30 7182 C 683.047 0.742824 1.73573 0
M  V30 7183 O 682.404 -0.286475 1.80238 0
M  V30 7184 C 682.455 3.20076 1.68029 0
M  V30 7185 O 682.176 4.30264 0.824898 0
M  V30 7186 C 683.677 3.65515 2.50826 0
M  V30 7187 H 680.897 0.62549 0.242907 0
M  V30 7188 H 683.441 2.04219 0.107151 0
M  V30 7189 H 681.596 3.06418 2.37038 0
M  V30 7190 H 682.01 5.05439 1.40113 0
M  V30 7191 H 683.484 4.60081 3.05008 0
M  V30 7192 H 683.961 2.92029 3.28048 0
M  V30 7193 H 684.567 3.81952 1.87064 0
M  V30 7194 N 682.882 -0.391992 1.52647 0
M  V30 7195 C 684.293 -0.970064 1.5952 0
M  V30 7196 C 684.644 -1.91059 0.446207 0
M  V30 7197 O 683.769 -2.12062 -0.431125 0
M  V30 7198 C 684.364 -1.76614 2.89125 0
M  V30 7199 C 682.923 -2.29396 2.9842 0
M  V30 7200 C 682.07 -1.09864 2.54608 0
M  V30 7201 H 685.021 -0.171638 1.57769 0
M  V30 7202 H 685.042 -2.62511 2.75442 0
M  V30 7203 H 684.554 -1.08135 3.72731 0
M  V30 7204 H 682.655 -3.01196 2.19344 0
M  V30 7205 H 682.768 -2.59088 4.03002 0
M  V30 7206 H 681.132 -1.45777 2.08857 0
M  V30 7207 H 681.915 -0.429249 3.40606 0
M  V30 7208 N 684.36 -1.4356 -0.65026 0
M  V30 7209 C 685.292 -1.44918 -1.77571 0
M  V30 7210 C 686.305 -0.344925 -1.59104 0
M  V30 7211 O 687.494 -0.609537 -1.6777 0
M  V30 7212 C 684.594 -1.24914 -3.15039 0
M  V30 7213 C 683.767 -2.48232 -3.60138 0
M  V30 7214 C 682.826 -2.23409 -4.76419 0
M  V30 7215 O 681.852 -2.9678 -4.85706 0
M  V30 7216 N 683.054 -1.25259 -5.66825 0
M  V30 7217 H 685.819 -2.41935 -1.76883 0
M  V30 7218 H 683.38 -1.38754 -0.834202 0
M  V30 7219 H 685.372 -1.06185 -3.90521 0
M  V30 7220 H 683.942 -0.363319 -3.10481 0
M  V30 7221 H 683.162 -2.82366 -2.75069 0
M  V30 7222 H 684.45 -3.30296 -3.87017 0
M  V30 7223 H 683.848 -0.646246 -5.61997 0
M  V30 7224 H 682.405 -1.12513 -6.42016 0
M  V30 7225 N 685.838 0.888903 -1.30139 0
M  V30 7226 C 687.086 1.63713 -1.18501 0
M  V30 7227 C 687.407 1.9324 0.261399 0
M  V30 7228 O 686.677 1.56608 1.17689 0
M  V30 7229 H 685.257 0.606861 -0.435579 0
M  V30 7230 H 687.919 1.06525 -1.63213 0
M  V30 7231 H 687.015 2.58894 -1.743 0
M  V30 7232 N 687.317 1.12792 1.10072 0
M  V30 7233 C 688.563 0.886857 1.82381 0
M  V30 7234 C 688.896 -0.58576 1.85155 0
M  V30 7235 O 688.171 -1.43317 1.31493 0
M  V30 7236 C 688.454 1.46703 3.28862 0
M  V30 7237 C 688.307 3.00829 3.34398 0
M  V30 7238 C 689.626 1.12971 4.25353 0
M  V30 7239 H 686.745 0.32362 0.662148 0
M  V30 7240 H 689.387 1.39513 1.28982 0
M  V30 7241 H 687.537 1.03476 3.74466 0
M  V30 7242 H 689.209 3.52764 2.97247 0
M  V30 7243 H 687.452 3.36164 2.74183 0
M  V30 7244 H 688.123 3.36519 4.3756 0
M  V30 7245 H 690.599 1.50313 3.88001 0
M  V30 7246 H 689.475 1.56223 5.26199 0
M  V30 7247 H 689.736 0.0424452 4.4208 0
M  V30 7248 N 688.795 -1.27931 0.920396 0
M  V30 7249 C 690.023 -1.98805 0.573087 0
M  V30 7250 C 690.438 -1.68724 -0.847201 0
M  V30 7251 O 689.795 -0.943699 -1.56207 0
M  V30 7252 C 689.846 -3.52971 0.780633 0
M  V30 7253 O 689.567 -3.81994 2.14504 0
M  V30 7254 C 691.068 -4.411 0.44105 0
M  V30 7255 H 688.288 -0.634651 0.21785 0
M  V30 7256 H 690.832 -1.62965 1.23542 0
M  V30 7257 H 688.987 -3.87048 0.165204 0
M  V30 7258 H 689.401 -4.76609 2.18962 0
M  V30 7259 H 690.875 -5.48312 0.637006 0
M  V30 7260 H 691.352 -4.34758 -0.62306 0
M  V30 7261 H 691.958 -4.12532 1.0343 0
M  V30 7262 N 690.273 -0.685099 -1.4193 0
M  V30 7263 C 691.221 -0.00165985 -2.326 0
M  V30 7264 C 692.215 0.779678 -1.50391 0
M  V30 7265 O 693.421 0.68648 -1.66395 0
M  V30 7266 H 689.796 0.0182616 -0.751778 0
M  V30 7267 H 691.767 -0.783592 -2.87928 0
M  V30 7268 C 690.516 0.928385 -3.35077 0
M  V30 7269 H 689.839 0.336578 -3.98381 0
M  V30 7270 H 691.279 1.37509 -4.01083 0
M  V30 7271 C 689.738 2.03964 -2.68142 0
M  V30 7272 O 690.268 3.12727 -2.5212 0
M  V30 7273 N 688.474 1.81433 -2.27003 0
M  V30 7274 H 688.021 0.929807 -2.40234 0
M  V30 7275 H 687.979 2.55973 -1.82552 0
M  V30 7276 N 691.751 1.51645 -0.429126 0
M  V30 7277 C 692.997 2.02967 0.132584 0
M  V30 7278 C 693.352 1.30804 1.41096 0
M  V30 7279 O 692.645 0.411705 1.87124 0
M  V30 7280 C 692.839 3.54989 0.414472 0
M  V30 7281 C 692.668 4.41879 -0.83503 0
M  V30 7282 C 691.438 4.86482 -1.36614 0
M  V30 7283 C 693.636 4.84727 -1.71886 0
M  V30 7284 N 691.618 5.5756 -2.56904 0
M  V30 7285 C 692.989 5.54788 -2.76786 0
M  V30 7286 C 695.044 4.66721 -1.73425 0
M  V30 7287 C 693.747 6.08753 -3.8316 0
M  V30 7288 C 695.773 5.21597 -2.7873 0
M  V30 7289 C 695.135 5.91598 -3.8235 0
M  V30 7290 H 691.234 0.781942 0.00956367 0
M  V30 7291 H 693.818 1.8561 -0.587957 0
M  V30 7292 H 691.989 3.72378 1.10405 0
M  V30 7293 H 693.721 3.92982 0.966817 0
M  V30 7294 H 690.476 4.64553 -0.921255 0
M  V30 7295 H 690.9 5.97731 -3.17879 0
M  V30 7296 H 695.542 4.1207 -0.946467 0
M  V30 7297 H 693.26 6.62464 -4.62782 0
M  V30 7298 H 696.846 5.09522 -2.80853 0
M  V30 7299 H 695.726 6.33299 -4.62495 0
M  V30 7300 N 693.229 0.160201 1.56784 0
M  V30 7301 C 694.457 -0.494165 2.00912 0
M  V30 7302 C 694.872 -1.57548 1.04038 0
M  V30 7303 O 694.229 -1.82457 0.0394581 0
M  V30 7304 C 694.28 -1.08271 3.44905 0
M  V30 7305 O 694.001 -0.0445704 4.38077 0
M  V30 7306 C 695.502 -1.8164 4.04378 0
M  V30 7307 H 692.722 -0.127498 0.658776 0
M  V30 7308 H 695.266 0.258665 2.02858 0
M  V30 7309 H 693.421 -1.78609 3.4377 0
M  V30 7310 H 693.835 -0.477544 5.22322 0
M  V30 7311 H 695.309 -2.18094 5.07089 0
M  V30 7312 H 695.786 -2.70727 3.45838 0
M  V30 7313 H 696.392 -1.15969 4.09184 0
M  V30 7314 N 694.707 -1.5719 -0.113559 0
M  V30 7315 C 695.937 -1.89053 -0.833212 0
M  V30 7316 C 696.345 -0.750139 -1.73694 0
M  V30 7317 O 695.688 0.287808 -1.81431 0
M  V30 7318 C 695.75 -3.15986 -1.71443 0
M  V30 7319 C 695.414 -4.46271 -0.984449 0
M  V30 7320 C 696.411 -5.18897 -0.322741 0
M  V30 7321 C 694.096 -4.92963 -0.964011 0
M  V30 7322 C 696.09 -6.3644 0.349646 0
M  V30 7323 C 693.777 -6.10422 -0.287828 0
M  V30 7324 C 694.775 -6.82009 0.36784 0
M  V30 7325 O 694.463 -7.97233 1.03322 0
M  V30 7326 H 694.195 -0.630225 -0.244526 0
M  V30 7327 H 696.749 -2.05152 -0.100847 0
M  V30 7328 H 694.979 -2.95984 -2.48858 0
M  V30 7329 H 696.668 -3.33826 -2.309 0
M  V30 7330 H 697.434 -4.83875 -0.330114 0
M  V30 7331 H 693.313 -4.37143 -1.46379 0
M  V30 7332 H 696.857 -6.92254 0.861996 0
M  V30 7333 H 692.754 -6.449 -0.278237 0
M  V30 7334 H 693.522 -8.13105 0.938247 0
M  V30 7335 N 696.185 0.383891 -1.52853 0
M  V30 7336 C 697.117 1.48889 -1.74255 0
M  V30 7337 C 698.13 1.50405 -0.623063 0
M  V30 7338 O 699.319 1.54215 -0.898887 0
M  V30 7339 C 696.419 2.87721 -1.79081 0
M  V30 7340 C 695.592 3.10111 -3.08464 0
M  V30 7341 C 694.651 4.28954 -3.0477 0
M  V30 7342 O 693.677 4.25012 -3.78621 0
M  V30 7343 N 694.879 5.35411 -2.24311 0
M  V30 7344 H 697.644 1.30915 -2.69595 0
M  V30 7345 H 695.205 0.573454 -1.51404 0
M  V30 7346 H 697.197 3.65333 -1.7411 0
M  V30 7347 H 695.767 2.99029 -0.911052 0
M  V30 7348 H 694.987 2.20319 -3.26884 0
M  V30 7349 H 696.275 3.21928 -3.94005 0
M  V30 7350 H 695.673 5.41471 -1.63787 0
M  V30 7351 H 694.23 6.1167 -2.25175 0
M  V30 7352 N 697.663 1.43903 0.642637 0
M  V30 7353 C 698.573 1.52349 1.78401 0
M  V30 7354 C 699.589 0.409869 1.69104 0
M  V30 7355 O 700.765 0.665548 1.90085 0
M  V30 7356 C 697.83 1.45408 3.14734 0
M  V30 7357 C 696.891 2.67528 3.35749 0
M  V30 7358 C 696.124 2.60909 4.65577 0
M  V30 7359 O 696.347 1.6627 5.45628 0
M  V30 7360 O 695.281 3.5158 4.88544 0
M  V30 7361 H 699.107 2.48752 1.7423 0
M  V30 7362 H 696.692 1.26021 0.802439 0
M  V30 7363 H 698.574 1.44019 3.96026 0
M  V30 7364 H 697.249 0.521437 3.19473 0
M  V30 7365 H 696.156 2.74487 2.5418 0
M  V30 7366 H 697.489 3.598 3.35864 0
M  V30 7367 N 699.141 -0.881989 1.30609 0
M  V30 7368 C 700.071 -2.00413 1.1982 0
M  V30 7369 C 701.052 -1.69871 0.0881538 0
M  V30 7370 O 702.237 -1.92304 0.2707 0
M  V30 7371 C 699.367 -3.35641 0.89233 0
M  V30 7372 C 698.321 -3.80451 1.96064 0
M  V30 7373 C 697.647 -5.13003 1.5077 0
M  V30 7374 C 698.947 -3.98855 3.37213 0
M  V30 7375 H 700.641 -2.09698 2.13699 0
M  V30 7376 H 698.187 -1.00754 1.02882 0
M  V30 7377 H 700.14 -4.13669 0.803497 0
M  V30 7378 H 698.864 -3.26497 -0.0821381 0
M  V30 7379 H 697.523 -3.04654 2.03916 0
M  V30 7380 H 697.171 -5.0029 0.521417 0
M  V30 7381 H 696.871 -5.43956 2.22229 0
M  V30 7382 H 698.395 -5.93554 1.43271 0
M  V30 7383 H 699.809 -4.67312 3.32103 0
M  V30 7384 H 698.206 -4.41188 4.06784 0
M  V30 7385 H 699.276 -3.02614 3.78883 0
M  V30 7386 N 700.619 -1.13374 -1.09472 0
M  V30 7387 C 701.529 -0.824029 -2.19652 0
M  V30 7388 C 702.545 0.19118 -1.72947 0
M  V30 7389 O 703.721 0.0223464 -2.01388 0
M  V30 7390 C 700.786 -0.294009 -3.45451 0
M  V30 7391 C 699.847 -1.3704 -4.0684 0
M  V30 7392 C 699.08 -0.86558 -5.26634 0
M  V30 7393 O 699.303 0.29702 -5.69626 0
M  V30 7394 O 698.237 -1.63968 -5.79136 0
M  V30 7395 H 702.063 -1.74454 -2.48595 0
M  V30 7396 H 699.648 -0.911155 -1.18399 0
M  V30 7397 H 701.53 -0.00381039 -4.214 0
M  V30 7398 H 700.205 0.598921 -3.18111 0
M  V30 7399 H 699.112 -1.71391 -3.3253 0
M  V30 7400 H 700.445 -2.23746 -4.38405 0
M  V30 7401 N 702.098 1.27442 -0.927168 0
M  V30 7402 C 703.061 2.2512 -0.430525 0
M  V30 7403 C 704.061 1.54357 0.450619 0
M  V30 7404 O 705.251 1.72371 0.251774 0
M  V30 7405 C 702.383 3.38763 0.381144 0
M  V30 7406 H 703.576 2.70569 -1.29354 0
M  V30 7407 H 701.129 1.39355 -0.707806 0
M  V30 7408 H 701.864 2.98695 1.263 0
M  V30 7409 H 701.649 3.91298 -0.250618 0
M  V30 7410 H 703.139 4.11364 0.719012 0
M  V30 7411 N 703.576 0.692616 1.41565 0
M  V30 7412 C 704.804 0.231279 2.05603 0
M  V30 7413 C 705.219 -1.11837 1.52111 0
M  V30 7414 O 704.576 -1.6983 0.66813 0
M  V30 7415 C 704.627 0.177125 3.61066 0
M  V30 7416 O 704.348 1.47346 4.12578 0
M  V30 7417 C 705.849 -0.30556 4.42246 0
M  V30 7418 H 703.069 0.108238 0.662213 0
M  V30 7419 H 705.613 0.944369 1.81389 0
M  V30 7420 H 703.768 -0.486769 3.8433 0
M  V30 7421 H 704.182 1.35861 5.06599 0
M  V30 7422 H 705.656 -0.29233 5.51225 0
M  V30 7423 H 706.133 -1.34393 4.18133 0
M  V30 7424 H 706.739 0.327229 4.24039 0
M  V30 7425 N 705.054 -1.51416 0.437162 0
M  V30 7426 C 706.004 -2.24599 -0.392311 0
M  V30 7427 C 706.988 -1.2682 -0.990221 0
M  V30 7428 O 708.18 -1.51912 -0.908391 0
M  V30 7429 C 705.309 -3.09134 -1.49301 0
M  V30 7430 C 704.395 -4.14342 -0.904503 0
M  V30 7431 N 704.786 -5.0578 -0.0451511 0
M  V30 7432 C 703.084 -4.30323 -1.1721 0
M  V30 7433 C 703.785 -5.81 0.285344 0
M  V30 7434 N 702.761 -5.42591 -0.330993 0
M  V30 7435 H 706.563 -2.92655 0.270221 0
M  V30 7436 H 704.077 -1.60476 0.249226 0
M  V30 7437 H 706.074 -3.6014 -2.10011 0
M  V30 7438 H 704.734 -2.42622 -2.15788 0
M  V30 7439 H 705.745 -5.16903 0.321271 0
M  V30 7440 H 702.422 -3.75037 -1.83448 0
M  V30 7441 H 703.812 -6.64646 0.984626 0
M  V30 7442 N 706.532 -0.168513 -1.56696 0
M  V30 7443 C 707.464 0.794249 -2.14998 0
M  V30 7444 C 708.477 1.1957 -1.10485 0
M  V30 7445 O 709.666 1.13604 -1.37682 0
M  V30 7446 C 706.766 2.08018 -2.67547 0
M  V30 7447 C 705.939 1.84274 -3.96689 0
M  V30 7448 C 704.998 2.97059 -4.3433 0
M  V30 7449 O 704.024 2.67815 -5.02259 0
M  V30 7450 N 705.226 4.24775 -3.9566 0
M  V30 7451 H 707.991 0.295832 -2.98236 0
M  V30 7452 H 705.552 0.0143611 -1.61894 0
M  V30 7453 H 707.544 2.82559 -2.89729 0
M  V30 7454 H 706.114 2.49059 -1.88914 0
M  V30 7455 H 705.334 0.936528 -3.82914 0
M  V30 7456 H 706.622 1.65773 -4.81037 0
M  V30 7457 H 706.02 4.51395 -3.40968 0
M  V30 7458 H 704.577 4.96027 -4.22848 0
M  V30 7459 N 708.01 1.57248 0.105221 0
M  V30 7460 C 708.973 2.00388 1.11252 0
M  V30 7461 C 709.973 0.89594 1.33527 0
M  V30 7462 O 711.163 1.16166 1.29811 0
M  V30 7463 C 708.295 2.35589 2.46395 0
M  V30 7464 H 709.488 2.90591 0.741424 0
M  V30 7465 H 707.041 1.52332 0.349956 0
M  V30 7466 H 707.776 1.4831 2.884 0
M  V30 7467 H 707.561 3.16408 2.31578 0
M  V30 7468 H 709.051 2.69658 3.18864 0
M  V30 7469 N 709.488 -0.375779 1.53054 0
M  V30 7470 C 710.418 -1.46598 1.81745 0
M  V30 7471 C 711.399 -1.56337 0.670286 0
M  V30 7472 O 712.584 -1.71071 0.919158 0
M  V30 7473 C 709.714 -2.84058 1.99821 0
M  V30 7474 C 708.668 -2.8915 3.15557 0
M  V30 7475 C 707.994 -4.29187 3.18908 0
M  V30 7476 C 709.294 -2.57595 4.54359 0
M  V30 7477 H 710.988 -1.22837 2.73041 0
M  V30 7478 H 708.534 -0.589485 1.31381 0
M  V30 7479 H 710.487 -3.60342 2.18475 0
M  V30 7480 H 709.211 -3.09184 1.05226 0
M  V30 7481 H 707.87 -2.15316 2.96706 0
M  V30 7482 H 707.518 -4.51374 2.2197 0
M  V30 7483 H 707.218 -4.33512 3.96662 0
M  V30 7484 H 708.742 -5.07359 3.39734 0
M  V30 7485 H 710.156 -3.23595 4.73243 0
M  V30 7486 H 708.553 -2.73252 5.34279 0
M  V30 7487 H 709.623 -1.52882 4.60169 0
M  V30 7488 N 710.966 -1.44241 -0.634997 0
M  V30 7489 C 712.194 -1.50296 -1.42193 0
M  V30 7490 C 712.609 -0.12658 -1.88375 0
M  V30 7491 O 711.966 0.86678 -1.60603 0
M  V30 7492 C 712.017 -2.46437 -2.64482 0
M  V30 7493 O 711.738 -3.78724 -2.20226 0
M  V30 7494 C 713.239 -2.61918 -3.57651 0
M  V30 7495 H 710.459 -0.509865 -0.43621 0
M  V30 7496 H 713.003 -1.89167 -0.776921 0
M  V30 7497 H 711.158 -2.10712 -3.25083 0
M  V30 7498 H 711.572 -4.30595 -2.9948 0
M  V30 7499 H 713.046 -3.33225 -4.40074 0
M  V30 7500 H 713.523 -1.67017 -4.06204 0
M  V30 7501 H 714.129 -2.98528 -3.02921 0
M  V30 7502 N 712.444 0.87505 -1.31075 0
M  V30 7503 C 713.86 1.15997 -1.09622 0
M  V30 7504 C 714.06 2.01036 0.136611 0
M  V30 7505 O 713.116 2.38559 0.827397 0
M  V30 7506 C 714.429 1.85702 -2.36506 0
M  V30 7507 C 715.977 1.98425 -2.42067 0
M  V30 7508 C 716.452 2.71544 -3.68819 0
M  V30 7509 N 717.943 2.79084 -3.69684 0
M  V30 7510 C 718.678 3.36259 -4.64454 0
M  V30 7511 N 718.174 3.94406 -5.69575 0
M  V30 7512 N 719.967 3.34169 -4.51982 0
M  V30 7513 H 712.118 0.308258 -2.10151 0
M  V30 7514 H 714.381 0.199145 -0.926847 0
M  V30 7515 H 714.087 1.30663 -3.26527 0
M  V30 7516 H 713.961 2.86017 -2.45915 0
M  V30 7517 H 716.348 2.5263 -1.52518 0
M  V30 7518 H 716.429 0.971682 -2.36626 0
M  V30 7519 H 716.073 2.18008 -4.58732 0
M  V30 7520 H 716.003 3.73198 -3.71525 0
M  V30 7521 H 718.494 2.3781 -2.93691 0
M  V30 7522 H 718.807 4.36129 -6.37974 0
M  V30 7523 H 717.152 3.92797 -5.73355 0
M  V30 7524 H 720.343 2.87977 -3.69035 0
M  V30 7525 H 720.516 3.78431 -5.26017 0
M  V30 7526 N 713.922 1.13953 1.08869 0
M  V30 7527 C 714.832 0.835666 2.19212 0
M  V30 7528 C 715.848 -0.182005 1.73045 0
M  V30 7529 O 717.024 -0.0116661 2.01397 0
M  V30 7530 C 714.089 0.312325 3.4529 0
M  V30 7531 C 713.15 1.39196 4.06107 0
M  V30 7532 C 712.383 0.893496 5.26168 0
M  V30 7533 O 712.606 -0.266807 5.69776 0
M  V30 7534 O 711.54 1.67037 5.78258 0
M  V30 7535 H 715.366 1.75769 2.47667 0
M  V30 7536 H 712.951 0.917421 1.17914 0
M  V30 7537 H 714.833 0.0261582 4.21392 0
M  V30 7538 H 713.508 -0.582042 3.18424 0
M  V30 7539 H 712.415 1.73152 3.31616 0
M  V30 7540 H 713.748 2.26068 4.37212 0
M  V30 7541 N 715.4 -1.26948 0.933913 0
M  V30 7542 C 716.648 -1.93704 0.576484 0
M  V30 7543 C 716.969 -1.73702 -0.886145 0
M  V30 7544 O 716.239 -1.08838 -1.62884 0
M  V30 7545 H 714.819 -0.716812 0.210214 0
M  V30 7546 H 717.481 -1.54534 1.18766 0
M  V30 7547 H 716.577 -3.01987 0.788055 0
M  V30 7548 N 716.879 -0.700114 -1.41195 0
M  V30 7549 C 718.109 -0.241828 -2.0518 0
M  V30 7550 C 718.517 1.1157 -1.52803 0
M  V30 7551 O 717.86 1.70926 -0.673042 0
M  V30 7552 C 717.922 -0.12695 -3.59276 0
M  V30 7553 C 717.586 -1.41725 -4.34469 0
M  V30 7554 C 718.583 -2.35604 -4.63451 0
M  V30 7555 C 716.268 -1.67189 -4.73659 0
M  V30 7556 C 718.262 -3.53204 -5.3059 0
M  V30 7557 C 715.949 -2.85073 -5.40534 0
M  V30 7558 C 716.947 -3.77904 -5.68927 0
M  V30 7559 O 716.635 -4.93723 -6.34424 0
M  V30 7560 H 716.367 -0.109247 -0.667114 0
M  V30 7561 H 718.921 -0.954538 -1.81873 0
M  V30 7562 H 717.151 0.641571 -3.81341 0
M  V30 7563 H 718.84 0.294748 -4.04828 0
M  V30 7564 H 719.606 -2.1719 -4.33651 0
M  V30 7565 H 715.485 -0.957935 -4.50937 0
M  V30 7566 H 719.029 -4.25679 -5.52669 0
M  V30 7567 H 714.926 -3.03402 -5.69752 0
M  V30 7568 H 715.694 -4.93597 -6.5292 0
M  V30 7569 N 718.357 1.51182 -0.445186 0
M  V30 7570 C 719.603 2.02452 0.11882 0
M  V30 7571 C 719.936 1.32824 1.41673 0
M  V30 7572 O 719.211 0.445637 1.89326 0
M  V30 7573 C 719.494 3.5859 0.329475 0
M  V30 7574 C 719.347 4.38823 -0.987638 0
M  V30 7575 C 720.666 4.26241 1.09575 0
M  V30 7576 H 717.785 0.735819 0.0417092 0
M  V30 7577 H 720.427 1.80747 -0.585718 0
M  V30 7578 H 718.577 3.77214 0.9296 0
M  V30 7579 H 720.249 4.3183 -1.62235 0
M  V30 7580 H 718.492 4.03594 -1.59041 0
M  V30 7581 H 719.163 5.46257 -0.794192 0
M  V30 7582 H 721.639 4.11934 0.587328 0
M  V30 7583 H 720.515 5.35354 1.21191 0
M  V30 7584 H 720.776 3.87635 2.12584 0
M  V30 7585 N 719.835 0.176821 1.56605 0
M  V30 7586 C 721.082 -0.466715 1.97048 0
M  V30 7587 C 721.41 -1.6288 1.06302 0
M  V30 7588 O 720.665 -1.95453 0.0982571 0
M  V30 7589 C 720.964 -0.986208 3.43524 0
M  V30 7590 C 720.63 0.0605667 4.50859 0
M  V30 7591 C 719.292 0.348242 4.79938 0
M  V30 7592 C 721.644 0.770794 5.15469 0
M  V30 7593 C 718.972 1.35144 5.70923 0
M  V30 7594 C 721.324 1.76301 6.07537 0
M  V30 7595 C 719.988 2.05808 6.3498 0
M  V30 7596 H 719.258 -0.170783 0.721051 0
M  V30 7597 H 721.905 0.269942 1.89588 0
M  V30 7598 H 720.21 -1.80079 3.47964 0
M  V30 7599 H 721.907 -1.49323 3.72161 0
M  V30 7600 H 718.497 -0.173823 4.28247 0
M  V30 7601 H 722.681 0.56176 4.9311 0
M  V30 7602 H 717.937 1.58616 5.90467 0
M  V30 7603 H 722.111 2.31868 6.56666 0
M  V30 7604 H 719.738 2.8369 7.05283 0
M  V30 7605 N 721.313 -1.57302 -0.09688 0
M  V30 7606 C 722.559 -1.86273 -0.801885 0
M  V30 7607 C 722.892 -0.765694 -1.78468 0
M  V30 7608 O 722.167 0.226495 -1.93177 0
M  V30 7609 C 722.45 -3.25876 -1.53221 0
M  V30 7610 C 722.303 -4.46205 -0.567529 0
M  V30 7611 C 723.622 -3.63352 -2.48321 0
M  V30 7612 H 720.741 -0.67752 -0.29006 0
M  V30 7613 H 723.383 -1.89887 -0.0655577 0
M  V30 7614 H 721.533 -3.22926 -2.15988 0
M  V30 7615 H 723.205 -4.6127 0.0529982 0
M  V30 7616 H 721.448 -4.33636 0.119233 0
M  V30 7617 H 722.119 -5.40608 -1.11564 0
M  V30 7618 H 724.595 -3.67234 -1.95648 0
M  V30 7619 H 723.471 -4.61968 -2.9644 0
M  V30 7620 H 723.732 -2.91941 -3.31998 0
M  V30 7621 N 722.791 0.367657 -1.53252 0
M  V30 7622 C 724.039 1.10832 -1.68999 0
M  V30 7623 C 724.36 1.89894 -0.443306 0
M  V30 7624 O 723.63 1.88235 0.54262 0
M  V30 7625 H 722.21 0.412153 -0.623008 0
M  V30 7626 H 724.872 0.414775 -1.90435 0
M  V30 7627 H 723.968 1.7993 -2.55013 0
M  V30 7628 N 724.269 1.44576 0.627338 0
M  V30 7629 C 725.499 1.50829 1.41189 0
M  V30 7630 C 725.907 0.133083 1.88731 0
M  V30 7631 O 725.25 -0.87199 1.61685 0
M  V30 7632 C 725.312 2.41449 2.66351 0
M  V30 7633 C 724.976 3.88549 2.40579 0
M  V30 7634 C 725.973 4.78981 2.0217 0
M  V30 7635 C 723.658 4.33287 2.54102 0
M  V30 7636 C 725.652 6.12153 1.77618 0
M  V30 7637 C 723.339 5.66505 2.29163 0
M  V30 7638 C 724.337 6.55756 1.9098 0
M  V30 7639 O 724.025 7.86506 1.66321 0
M  V30 7640 H 723.757 0.513797 0.439304 0
M  V30 7641 H 726.311 1.90256 0.774059 0
M  V30 7642 H 724.541 1.96955 3.32784 0
M  V30 7643 H 726.23 2.38608 3.28361 0
M  V30 7644 H 726.996 4.45689 1.91277 0
M  V30 7645 H 722.875 3.64074 2.82792 0
M  V30 7646 H 726.419 6.81776 1.47739 0
M  V30 7647 H 722.316 5.99358 2.39668 0
M  V30 7648 H 723.084 7.98341 1.80536 0
M  V30 7649 N 725.747 -0.868086 1.31537 0
M  V30 7650 C 726.697 -1.96321 1.1594 0
M  V30 7651 C 727.681 -1.60748 0.0698962 0
M  V30 7652 O 728.873 -1.74524 0.295011 0
M  V30 7653 C 726.002 -3.32073 0.870789 0
M  V30 7654 C 725.088 -3.73907 2.00136 0
M  V30 7655 N 725.479 -3.87685 3.24859 0
M  V30 7656 C 723.777 -4.03433 1.90152 0
M  V30 7657 C 724.478 -4.23454 3.98825 0
M  V30 7658 N 723.454 -4.34242 3.27009 0
M  V30 7659 H 727.256 -2.05088 2.10514 0
M  V30 7660 H 724.77 -1.059 1.23122 0
M  V30 7661 H 726.767 -4.10279 0.740034 0
M  V30 7662 H 725.427 -3.24631 -0.0667068 0
M  V30 7663 H 726.438 -3.72363 3.59953 0
M  V30 7664 H 723.115 -4.0437 1.03879 0
M  V30 7665 H 724.505 -4.41696 5.06314 0
M  V30 7666 N 727.225 -1.14528 -1.08264 0
M  V30 7667 C 728.473 -0.912599 -1.80322 0
M  V30 7668 C 728.794 0.562256 -1.86718 0
M  V30 7669 O 728.064 1.40869 -1.36135 0
M  V30 7670 H 726.644 -0.334645 -0.667849 0
M  V30 7671 H 729.306 -1.44415 -1.30883 0
M  V30 7672 H 728.402 -1.31384 -2.83098 0
M  V30 7673 N 728.703 1.26451 -0.940633 0
M  V30 7674 C 729.931 1.97868 -0.604642 0
M  V30 7675 C 730.346 1.70051 0.820251 0
M  V30 7676 O 729.703 0.96843 1.54686 0
M  V30 7677 C 729.754 3.51684 -0.836689 0
M  V30 7678 O 729.475 3.78533 -2.20554 0
M  V30 7679 C 730.976 4.40343 -0.511169 0
M  V30 7680 H 728.196 0.631105 -0.227919 0
M  V30 7681 H 730.74 1.60979 -1.26119 0
M  V30 7682 H 728.895 3.86736 -0.226759 0
M  V30 7683 H 729.309 4.73065 -2.26517 0
M  V30 7684 H 730.783 5.47229 -0.724157 0
M  V30 7685 H 731.26 4.35694 0.553815 0
M  V30 7686 H 731.866 4.10834 -1.0998 0
M  V30 7687 N 730.181 0.707592 1.40822 0
M  V30 7688 C 731.129 0.0386643 2.32568 0
M  V30 7689 C 732.123 -0.755653 1.51612 0
M  V30 7690 O 733.329 -0.659921 1.67467 0
M  V30 7691 H 729.704 -0.00629912 0.751974 0
M  V30 7692 H 731.675 0.8293 2.86645 0
M  V30 7693 C 730.424 -0.87496 3.36511 0
M  V30 7694 H 729.747 -0.273157 3.98866 0
M  V30 7695 H 731.187 -1.31111 4.03219 0
M  V30 7696 C 729.646 -1.99672 2.71353 0
M  V30 7697 O 730.176 -3.08676 2.57064 0
M  V30 7698 N 728.382 -1.77799 2.29861 0
M  V30 7699 H 727.929 -0.89147 2.41683 0
M  V30 7700 H 727.887 -2.53036 1.86601 0
M  V30 7701 N 731.66 -1.50943 0.453197 0
M  V30 7702 C 732.61 -2.25003 -0.368467 0
M  V30 7703 C 733.594 -1.27864 -0.976714 0
M  V30 7704 O 734.786 -1.52867 -0.892228 0
M  V30 7705 C 731.915 -3.10701 -1.46014 0
M  V30 7706 C 731.001 -4.15278 -0.860506 0
M  V30 7707 N 731.392 -5.05799 0.00849611 0
M  V30 7708 C 729.69 -4.31542 -1.1264 0
M  V30 7709 C 730.391 -5.80664 0.346951 0
M  V30 7710 N 729.367 -5.42912 -0.273426 0
M  V30 7711 H 733.169 -2.92352 0.301246 0
M  V30 7712 H 730.683 -1.60203 0.266233 0
M  V30 7713 H 732.68 -3.62348 -2.06179 0
M  V30 7714 H 731.34 -2.44898 -2.13202 0
M  V30 7715 H 732.351 -5.16533 0.376077 0
M  V30 7716 H 729.028 -3.76962 -1.7946 0
M  V30 7717 H 730.418 -6.63565 1.05507 0
M  V30 7718 N 733.138 -0.185124 -1.56509 0
M  V30 7719 C 734.384 0.456934 -1.97585 0
M  V30 7720 C 734.717 1.61957 -1.07161 0
M  V30 7721 O 733.992 1.9412 -0.121546 0
M  V30 7722 C 734.275 0.926666 -3.47973 0
M  V30 7723 C 734.128 -0.237097 -4.49175 0
M  V30 7724 C 735.447 1.79561 -4.01803 0
M  V30 7725 H 732.566 0.164619 -0.71838 0
M  V30 7726 H 735.208 -0.274039 -1.88013 0
M  V30 7727 H 733.358 1.54954 -3.56261 0
M  V30 7728 H 735.03 -0.87454 -4.52934 0
M  V30 7729 H 733.273 -0.890446 -4.24563 0
M  V30 7730 H 733.944 0.133924 -5.51838 0
M  V30 7731 H 736.42 1.27039 -3.96232 0
M  V30 7732 H 735.296 2.09327 -5.07418 0
M  V30 7733 H 735.557 2.74629 -3.46455 0
M  V30 7734 N 734.616 1.57351 0.0885366 0
M  V30 7735 C 735.579 2.01557 1.09121 0
M  V30 7736 C 736.579 0.910052 1.3257 0
M  V30 7737 O 737.769 1.17537 1.28572 0
M  V30 7738 C 734.901 2.38189 2.43883 0
M  V30 7739 H 736.094 2.91361 0.710562 0
M  V30 7740 H 733.647 1.52694 0.333779 0
M  V30 7741 H 734.382 1.5136 2.86811 0
M  V30 7742 H 734.167 3.18846 2.28209 0
M  V30 7743 H 735.657 2.73025 3.15986 0
M  V30 7744 N 736.094 -0.359525 1.53444 0
M  V30 7745 C 737.057 -1.42357 1.7963 0
M  V30 7746 C 738.057 -1.46319 0.666884 0
M  V30 7747 O 739.247 -1.46974 0.935113 0
M  V30 7748 C 736.379 -2.81425 1.92387 0
M  V30 7749 H 737.572 -1.20409 2.74666 0
M  V30 7750 H 735.125 -0.593007 1.44614 0
M  V30 7751 H 735.86 -3.08679 0.994384 0
M  V30 7752 H 735.645 -2.79947 2.74539 0
M  V30 7753 H 737.135 -3.5847 2.14218 0
M  V30 7754 N 737.572 -1.44907 -0.619662 0
M  V30 7755 C 738.504 -1.48652 -1.74457 0
M  V30 7756 C 739.517 -0.378596 -1.58337 0
M  V30 7757 O 740.706 -0.644987 -1.6644 0
M  V30 7758 C 737.806 -1.31568 -3.12319 0
M  V30 7759 C 736.979 -2.55816 -3.54792 0
M  V30 7760 C 736.038 -2.33465 -4.71573 0
M  V30 7761 O 735.064 -3.07015 -4.79302 0
M  V30 7762 N 736.266 -1.37254 -5.6404 0
M  V30 7763 H 739.031 -2.45632 -1.71712 0
M  V30 7764 H 736.592 -1.40492 -0.804582 0
M  V30 7765 H 738.584 -1.14445 -3.88181 0
M  V30 7766 H 737.154 -0.429095 -3.09641 0
M  V30 7767 H 736.374 -2.88137 -2.69018 0
M  V30 7768 H 737.662 -3.38431 -3.79924 0
M  V30 7769 H 737.06 -0.765309 -5.60499 0
M  V30 7770 H 735.617 -1.26106 -6.39485 0
M  V30 7771 N 739.05 0.861098 -1.31996 0
M  V30 7772 C 740.278 1.6474 -1.25173 0
M  V30 7773 C 740.693 1.87926 0.181425 0
M  V30 7774 O 740.05 1.4437 1.1164 0
M  V30 7775 C 740.101 3.01036 -2.0015 0
M  V30 7776 O 739.822 2.7888 -3.37872 0
M  V30 7777 C 741.323 3.95481 -2.00273 0
M  V30 7778 H 738.543 0.513314 -0.432146 0
M  V30 7779 H 741.087 1.07419 -1.74016 0
M  V30 7780 H 739.242 3.55021 -1.55046 0
M  V30 7781 H 739.656 3.65514 -3.76165 0
M  V30 7782 H 741.13 4.88403 -2.57229 0
M  V30 7783 H 741.607 4.27957 -0.987407 0
M  V30 7784 H 742.213 3.47433 -2.45296 0
M  V30 7785 N 740.528 1.15101 1.07655 0
M  V30 7786 C 741.777 0.918528 1.79572 0
M  V30 7787 C 742.09 -0.555922 1.87534 0
M  V30 7788 O 743.296 -0.905893 2.55941 0
M  V30 7789 C 741.752 1.59394 3.22679 0
M  V30 7790 C 741.36 3.1052 3.22927 0
M  V30 7791 C 743.104 1.44289 3.99225 0
M  V30 7792 C 741.011 3.70862 4.60668 0
M  V30 7793 H 739.941 0.340006 0.672987 0
M  V30 7794 H 742.592 1.38079 1.20857 0
M  V30 7795 H 740.974 1.05936 3.81567 0
M  V30 7796 H 742.148 3.70708 2.737 0
M  V30 7797 H 740.463 3.25351 2.59876 0
M  V30 7798 H 743.06 1.86766 5.01022 0
M  V30 7799 H 743.403 0.389975 4.14469 0
M  V30 7800 H 743.936 1.94826 3.46825 0
M  V30 7801 H 740.675 4.7604 4.50628 0
M  V30 7802 H 740.195 3.15456 5.10145 0
M  V30 7803 H 741.874 3.71607 5.29639 0
M  V30 7804 N 742.006 -1.2595 0.947325 0
M  V30 7805 C 743.252 -1.9375 0.599064 0
M  V30 7806 C 743.585 -1.74088 -0.860632 0
M  V30 7807 O 742.86 -1.08158 -1.61654 0
M  V30 7808 C 743.143 -3.47353 0.949634 0
M  V30 7809 C 742.996 -3.76273 2.46452 0
M  V30 7810 C 744.315 -4.37589 0.469442 0
M  V30 7811 H 741.434 -0.703674 0.219115 0
M  V30 7812 H 744.076 -1.48705 1.18266 0
M  V30 7813 H 742.226 -3.8585 0.453008 0
M  V30 7814 H 743.898 -3.47455 3.03435 0
M  V30 7815 H 742.141 -3.22135 2.90537 0
M  V30 7816 H 742.812 -4.83664 2.66032 0
M  V30 7817 H 745.288 -4.06353 0.89534 0
M  V30 7818 H 744.164 -5.43841 0.7435 0
M  V30 7819 H 744.425 -4.37579 -0.630618 0
M  V30 7820 N 743.484 -0.715051 -1.40445 0
M  V30 7821 C 744.432 -0.0509974 -2.32544 0
M  V30 7822 C 745.426 0.747602 -1.52011 0
M  V30 7823 O 746.632 0.651031 -1.67814 0
M  V30 7824 H 743.007 0.00231113 -0.751996 0
M  V30 7825 H 744.978 -0.84449 -2.86201 0
M  V30 7826 C 743.727 0.857101 -3.3697 0
M  V30 7827 H 743.05 0.252 -3.99005 0
M  V30 7828 H 744.49 1.28971 -4.03909 0
M  V30 7829 C 742.949 1.98231 -2.72408 0
M  V30 7830 O 743.479 3.07309 -2.58697 0
M  V30 7831 N 741.685 1.76577 -2.308 0
M  V30 7832 H 741.232 0.878641 -2.42152 0
M  V30 7833 H 741.19 2.52043 -1.87941 0
M  V30 7834 N 744.962 1.50701 -0.461195 0
M  V30 7835 C 746.378 1.59187 -0.114786 0
M  V30 7836 C 746.578 1.4702 1.37794 0
M  V30 7837 O 745.634 1.32361 2.15027 0
M  V30 7838 C 746.947 2.93453 -0.656167 0
M  V30 7839 C 748.495 3.06824 -0.618715 0
M  V30 7840 C 748.97 4.4365 -1.13747 0
M  V30 7841 N 750.461 4.50035 -1.09646 0
M  V30 7842 C 751.196 5.54278 -1.46846 0
M  V30 7843 N 750.692 6.65822 -1.91448 0
M  V30 7844 N 752.485 5.44767 -1.38512 0
M  V30 7845 H 744.636 1.56853 -1.43216 0
M  V30 7846 H 746.899 0.740712 -0.59165 0
M  V30 7847 H 746.605 3.07802 -1.7015 0
M  V30 7848 H 746.479 3.77082 -0.0942261 0
M  V30 7849 H 748.866 2.92129 0.417685 0
M  V30 7850 H 748.947 2.24976 -1.21734 0
M  V30 7851 H 748.591 4.59093 -2.17245 0
M  V30 7852 H 748.521 5.24074 -0.515153 0
M  V30 7853 H 751.012 3.69988 -0.769217 0
M  V30 7854 H 751.325 7.41413 -2.18007 0
M  V30 7855 H 749.67 6.66968 -1.95393 0
M  V30 7856 H 752.861 4.56511 -1.03516 0
M  V30 7857 H 753.034 6.25889 -1.6783 0
M  V30 7858 N 746.441 0.193421 1.56409 0
M  V30 7859 C 747.69 -0.445995 1.96707 0
M  V30 7860 C 748.003 -1.62876 1.08309 0
M  V30 7861 O 749.209 -2.33586 1.38383 0
M  V30 7862 C 747.665 -0.844863 3.49843 0
M  V30 7863 C 747.273 0.31352 4.46902 0
M  V30 7864 C 749.017 -1.45146 3.98915 0
M  V30 7865 C 746.924 -0.106214 5.91305 0
M  V30 7866 H 745.854 -0.170398 0.734493 0
M  V30 7867 H 748.505 0.285172 1.81271 0
M  V30 7868 H 746.887 -1.63265 3.60778 0
M  V30 7869 H 748.061 1.09103 4.47698 0
M  V30 7870 H 746.376 0.8315 4.08014 0
M  V30 7871 H 748.973 -1.77792 5.04276 0
M  V30 7872 H 749.316 -2.35734 3.43126 0
M  V30 7873 H 749.849 -0.727675 3.91088 0
M  V30 7874 H 746.588 0.765442 6.51016 0
M  V30 7875 H 746.108 -0.848623 5.93766 0
M  V30 7876 H 747.787 -0.542588 6.44721 0
M  V30 7877 N 747.919 -1.57396 -0.0801906 0
M  V30 7878 C 748.882 -2.02133 -1.0805 0
M  V30 7879 C 749.882 -0.91707 -1.32085 0
M  V30 7880 O 751.072 -1.18217 -1.27947 0
M  V30 7881 C 748.204 -2.39479 -2.42616 0
M  V30 7882 H 749.397 -2.91733 -0.6951 0
M  V30 7883 H 746.95 -1.52869 -0.325677 0
M  V30 7884 H 747.685 -1.52879 -2.86004 0
M  V30 7885 H 747.47 -3.20052 -2.26515 0
M  V30 7886 H 748.96 -2.74697 -3.14534 0
M  V30 7887 N 749.397 0.351382 -1.53633 0
M  V30 7888 C 750.808 0.927429 -1.62036 0
M  V30 7889 C 751.159 1.89809 -0.496706 0
M  V30 7890 O 750.284 2.1313 0.374749 0
M  V30 7891 C 750.879 1.68886 -2.93706 0
M  V30 7892 C 749.438 2.21404 -3.04397 0
M  V30 7893 C 748.585 1.03075 -2.57431 0
M  V30 7894 H 751.536 0.129748 -1.58169 0
M  V30 7895 H 751.557 2.55116 -2.82305 0
M  V30 7896 H 751.069 0.982149 -3.75467 0
M  V30 7897 H 749.17 2.95274 -2.27253 0
M  V30 7898 H 749.283 2.48312 -4.09729 0
M  V30 7899 H 747.647 1.40188 -2.12649 0
M  V30 7900 H 748.43 0.338793 -3.41624 0
M  V30 7901 N 750.875 1.45233 0.611969 0
M  V30 7902 C 752.121 1.49242 1.37312 0
M  V30 7903 C 752.454 0.131963 1.93751 0
M  V30 7904 O 751.729 -0.852999 1.74798 0
M  V30 7905 C 752.012 2.56811 2.52428 0
M  V30 7906 C 751.865 4.02284 2.01215 0
M  V30 7907 C 753.184 2.60705 3.54572 0
M  V30 7908 H 750.303 0.54336 0.497925 0
M  V30 7909 H 752.945 1.77019 0.690242 0
M  V30 7910 H 751.095 2.33256 3.10683 0
M  V30 7911 H 752.767 4.37035 1.47643 0
M  V30 7912 H 751.01 4.1315 1.32248 0
M  V30 7913 H 751.681 4.7323 2.84178 0
M  V30 7914 H 754.157 2.81799 3.06151 0
M  V30 7915 H 753.033 3.37841 4.32614 0
M  V30 7916 H 753.294 1.65627 4.09903 0
M  V30 7917 N 752.353 -0.854086 1.3245 0
M  V30 7918 C 753.764 -1.42427 1.20712 0
M  V30 7919 C 754.115 -1.95371 -0.18013 0
M  V30 7920 O 753.24 -1.87587 -1.07889 0
M  V30 7921 C 753.835 -2.58897 2.18536 0
M  V30 7922 C 752.394 -3.11913 2.10683 0
M  V30 7923 C 751.541 -1.84661 2.06871 0
M  V30 7924 H 754.492 -0.661192 1.4427 0
M  V30 7925 H 754.513 -3.36074 1.78422 0
M  V30 7926 H 754.025 -2.20333 3.19492 0
M  V30 7927 H 752.126 -3.55059 1.12977 0
M  V30 7928 H 752.239 -3.73119 3.00532 0
M  V30 7929 H 750.603 -2.04285 1.52118 0
M  V30 7930 H 751.386 -1.48314 3.09609 0
M  V30 7931 N 753.831 -1.1567 -1.07043 0
M  V30 7932 C 755.247 -0.900006 -1.31803 0
M  V30 7933 C 755.447 0.451293 -1.96381 0
M  V30 7934 O 754.503 1.19252 -2.22565 0
M  V30 7935 C 755.816 -2.04334 -2.20609 0
M  V30 7936 C 757.364 -2.07823 -2.34048 0
M  V30 7937 C 757.839 -3.21488 -3.26204 0
M  V30 7938 N 759.33 -3.21156 -3.33786 0
M  V30 7939 C 760.065 -4.05746 -4.05163 0
M  V30 7940 N 759.561 -5.00407 -4.79129 0
M  V30 7941 N 761.354 -3.93759 -4.01136 0
M  V30 7942 H 753.505 -2.02681 -0.635146 0
M  V30 7943 H 755.768 -0.883956 -0.342528 0
M  V30 7944 H 755.474 -3.01895 -1.80423 0
M  V30 7945 H 755.348 -1.97838 -3.21154 0
M  V30 7946 H 757.735 -1.1086 -2.73485 0
M  V30 7947 H 757.816 -2.18386 -1.33197 0
M  V30 7948 H 757.46 -4.18706 -2.87485 0
M  V30 7949 H 757.39 -3.08162 -4.27017 0
M  V30 7950 H 759.881 -2.52606 -2.81067 0
M  V30 7951 H 760.194 -5.61387 -5.31097 0
M  V30 7952 H 758.539 -5.04393 -4.78135 0
M  V30 7953 H 761.73 -3.19115 -3.42466 0
M  V30 7954 H 761.903 -4.59906 -4.56498 0
M  V30 7955 N 755.309 1.25446 -0.953992 0
M  V30 7956 C 756.557 1.92762 -0.607227 0
M  V30 7957 C 756.878 1.7509 0.858399 0
M  V30 7958 O 756.148 1.11416 1.61132 0
M  V30 7959 H 754.728 0.713377 -0.221591 0
M  V30 7960 H 757.39 1.52625 -1.21209 0
M  V30 7961 H 756.486 3.00695 -0.835998 0
M  V30 7962 N 756.787 0.722489 1.40064 0
M  V30 7963 C 757.735 0.063329 2.32514 0
M  V30 7964 C 758.729 -0.73953 1.52405 0
M  V30 7965 O 759.935 -0.642122 1.68157 0
M  V30 7966 H 756.31 0.00167692 0.751998 0
M  V30 7967 H 758.281 0.859656 2.85749 0
M  V30 7968 C 757.03 -0.839219 3.3742 0
M  V30 7969 H 756.353 -0.230836 3.99133 0
M  V30 7970 H 757.793 -1.26827 4.04587 0
M  V30 7971 C 756.252 -1.96783 2.73456 0
M  V30 7972 O 756.782 -3.05933 2.60323 0
M  V30 7973 N 754.988 -1.75351 2.31734 0
M  V30 7974 H 754.535 -0.865787 2.42615 0
M  V30 7975 H 754.493 -2.51043 1.89275 0
M  V30 7976 N 758.265 -1.50454 0.469181 0
M  V30 7977 C 759.213 -2.30101 -0.340033 0
M  V30 7978 C 760.207 -1.37306 -0.992135 0
M  V30 7979 O 761.413 -1.54506 -0.923458 0
M  V30 7980 H 757.788 -0.740941 -0.128495 0
M  V30 7981 H 759.759 -2.96315 0.352144 0
M  V30 7982 C 758.508 -3.17804 -1.41052 0
M  V30 7983 H 757.831 -3.89115 -0.918124 0
M  V30 7984 H 759.271 -3.76533 -1.94934 0
M  V30 7985 C 757.73 -2.35272 -2.4114 0
M  V30 7986 O 758.26 -2.03448 -3.4637 0
M  V30 7987 N 756.466 -1.97889 -2.1281 0
M  V30 7988 H 756.013 -2.2397 -1.27261 0
M  V30 7989 H 755.971 -1.42971 -2.80012 0
M  V30 7990 N 759.743 -0.201713 -1.56304 0
M  V30 7991 C 760.971 0.440723 -2.02152 0
M  V30 7992 C 761.386 1.54735 -1.08179 0
M  V30 7993 O 760.743 1.82289 -0.0878196 0
M  V30 7994 C 760.794 0.990884 -3.47655 0
M  V30 7995 O 760.515 -0.0715937 -4.38041 0
M  V30 7996 C 762.016 1.70854 -4.09052 0
M  V30 7997 H 759.236 0.109987 -0.661924 0
M  V30 7998 H 761.78 -0.312358 -2.021 0
M  V30 7999 H 759.935 1.69432 -3.48384 0
M  V30 8000 H 760.349 0.338892 -5.23404 0
M  V30 8001 H 761.823 2.04572 -5.12693 0
M  V30 8002 H 762.3 2.61462 -3.52894 0
M  V30 8003 H 762.906 1.0508 -4.12114 0
M  V30 8004 N 761.222 1.57436 0.0718424 0
M  V30 8005 C 762.132 2.07039 1.10326 0
M  V30 8006 C 763.148 0.999918 1.424 0
M  V30 8007 O 764.324 1.31462 1.52577 0
M  V30 8008 C 761.389 2.50439 2.39752 0
M  V30 8009 C 760.45 3.71784 2.14651 0
M  V30 8010 C 759.683 4.13104 3.37906 0
M  V30 8011 O 759.906 3.54298 4.47023 0
M  V30 8012 O 758.84 5.05894 3.26121 0
M  V30 8013 H 762.666 2.95239 0.711872 0
M  V30 8014 H 760.251 1.46638 0.28597 0
M  V30 8015 H 762.133 2.78876 3.15921 0
M  V30 8016 H 760.808 1.65368 2.78271 0
M  V30 8017 H 759.715 3.48431 1.36187 0
M  V30 8018 H 761.048 4.57707 1.81012 0
M  V30 8019 N 762.7 -0.34323 1.53817 0
M  V30 8020 C 763.648 -1.44176 1.82527 0
M  V30 8021 C 764.642 -1.54452 0.695772 0
M  V30 8022 O 765.848 -1.57072 0.879114 0
M  V30 8023 H 762.223 -0.480729 0.578277 0
M  V30 8024 H 764.194 -1.17176 2.74431 0
M  V30 8025 C 762.943 -2.80695 2.05197 0
M  V30 8026 H 762.266 -2.73554 2.91561 0
M  V30 8027 H 763.706 -3.56679 2.29251 0
M  V30 8028 C 762.165 -3.26322 0.837589 0
M  V30 8029 O 762.695 -4.01683 0.0371631 0
M  V30 8030 N 760.901 -2.83128 0.654724 0
M  V30 8031 H 760.448 -2.21965 1.30725 0
M  V30 8032 H 760.406 -3.14011 -0.156345 0
M  V30 8033 N 764.178 -1.45556 -0.604258 0
M  V30 8034 C 765.088 -1.57025 -1.74299 0
M  V30 8035 C 766.104 -0.45456 -1.67958 0
M  V30 8036 O 767.28 -0.715711 -1.88254 0
M  V30 8037 C 764.345 -1.53702 -3.10768 0
M  V30 8038 C 763.406 -2.76335 -3.28538 0
M  V30 8039 C 762.639 -2.73161 -4.58496 0
M  V30 8040 O 762.862 -1.80678 -5.41028 0
M  V30 8041 O 761.796 -3.64409 -4.79051 0
M  V30 8042 H 765.622 -2.53284 -1.67573 0
M  V30 8043 H 763.207 -1.28104 -0.768745 0
M  V30 8044 H 765.089 -1.54468 -3.92068 0
M  V30 8045 H 763.764 -0.605957 -3.17978 0
M  V30 8046 H 762.671 -2.8113 -2.46813 0
M  V30 8047 H 764.004 -3.68578 -3.26207 0
M  V30 8048 N 765.656 0.84705 -1.32902 0
M  V30 8049 C 766.566 1.98845 -1.2449 0
M  V30 8050 C 767.582 1.7329 -0.15702 0
M  V30 8051 O 768.758 1.978 -0.379104 0
M  V30 8052 C 765.823 3.32679 -0.975985 0
M  V30 8053 C 764.884 3.71405 -2.15306 0
M  V30 8054 C 764.117 4.98853 -1.89688 0
M  V30 8055 O 764.34 5.64134 -0.843168 0
M  V30 8056 O 763.274 5.34889 -2.76002 0
M  V30 8057 H 767.1 2.0888 -2.2046 0
M  V30 8058 H 764.685 0.978852 -1.12867 0
M  V30 8059 H 766.567 4.12885 -0.842826 0
M  V30 8060 H 765.242 3.23667 -0.0464954 0
M  V30 8061 H 764.149 2.91743 -2.34172 0
M  V30 8062 H 765.482 3.85073 -3.06561 0
M  V30 8063 N 767.134 1.16236 1.06428 0
M  V30 8064 C 768.081 0.86769 2.13869 0
M  V30 8065 C 769.051 -0.183298 1.65086 0
M  V30 8066 O 770.236 -0.0488002 1.90738 0
M  V30 8067 C 767.376 0.373427 3.43074 0
M  V30 8068 C 766.489 1.48708 4.05598 0
M  V30 8069 C 765.624 0.947977 5.22673 0
M  V30 8070 C 764.663 2.03793 5.77178 0
M  V30 8071 N 763.8 1.51451 6.85571 0
M  V30 8072 H 768.64 1.78781 2.38414 0
M  V30 8073 H 766.177 0.891892 1.16977 0
M  V30 8074 H 768.135 0.0685035 4.17144 0
M  V30 8075 H 766.765 -0.509752 3.1875 0
M  V30 8076 H 765.817 1.908 3.29089 0
M  V30 8077 H 767.129 2.30964 4.42105 0
M  V30 8078 H 766.283 0.596154 6.03764 0
M  V30 8079 H 765.022 0.0947081 4.87608 0
M  V30 8080 H 764.027 2.39847 4.94726 0
M  V30 8081 H 765.252 2.89514 6.14295 0
M  V30 8082 H 763.198 0.683755 6.52427 0
M  V30 8083 H 763.115 2.27325 7.21013 0
M  V30 8084 H 764.383 1.19123 7.70344 0
M  V30 8085 N 768.612 -1.24939 0.960631 0
M  V30 8086 C 769.858 -1.93425 0.629155 0
M  V30 8087 C 770.213 -1.73784 -0.825635 0
M  V30 8088 O 769.506 -1.07595 -1.58536 0
M  V30 8089 C 769.7 -3.45066 0.930809 0
M  V30 8090 C 769.529 -3.79455 2.41337 0
M  V30 8091 C 768.299 -4.01195 3.07197 0
M  V30 8092 C 770.497 -3.86492 3.39306 0
M  V30 8093 N 768.479 -4.22626 4.45265 0
M  V30 8094 C 769.85 -4.12682 4.62702 0
M  V30 8095 C 771.905 -3.69198 3.34061 0
M  V30 8096 C 770.608 -4.23376 5.81502 0
M  V30 8097 C 772.634 -3.81135 4.52206 0
M  V30 8098 C 771.996 -4.07743 5.74391 0
M  V30 8099 H 768.095 -0.729791 0.280943 0
M  V30 8100 H 770.679 -1.50597 1.23404 0
M  V30 8101 H 768.85 -3.86776 0.354801 0
M  V30 8102 H 770.582 -4.00826 0.558627 0
M  V30 8103 H 767.337 -3.97319 2.5775 0
M  V30 8104 H 767.761 -4.37335 5.16785 0
M  V30 8105 H 772.403 -3.47639 2.40638 0
M  V30 8106 H 770.121 -4.4375 6.75361 0
M  V30 8107 H 773.707 -3.69133 4.49702 0
M  V30 8108 H 772.587 -4.16768 6.64284 0
M  V30 8109 N 770.09 -0.729906 -1.39679 0
M  V30 8110 C 771.338 -0.275077 -2.00219 0
M  V30 8111 C 771.659 1.1401 -1.58199 0
M  V30 8112 O 770.929 1.77546 -0.827904 0
M  V30 8113 H 769.509 -0.0987127 -0.740449 0
M  V30 8114 H 772.171 -0.93873 -1.70804 0
M  V30 8115 H 771.267 -0.319446 -3.10461 0
M  V30 8116 N 771.568 1.50203 -0.477153 0
M  V30 8117 C 772.816 2.01959 0.0755889 0
M  V30 8118 C 773.137 1.3608 1.39668 0
M  V30 8119 O 772.407 0.508136 1.89195 0
M  V30 8120 H 770.987 0.74636 0.0309248 0
M  V30 8121 H 773.649 1.84473 -0.628959 0
M  V30 8122 H 772.745 3.11305 0.222683 0
M  V30 8123 N 773.046 0.209999 1.56195 0
M  V30 8124 C 773.976 -0.699746 2.22769 0
M  V30 8125 C 774.957 -1.20993 1.1956 0
M  V30 8126 O 776.142 -1.25605 1.48112 0
M  V30 8127 C 773.272 -1.91302 2.89863 0
M  V30 8128 C 772.226 -1.53715 3.99444 0
M  V30 8129 C 771.552 -2.82826 4.53777 0
M  V30 8130 C 772.852 -0.735836 5.17091 0
M  V30 8131 H 774.546 -0.144716 2.9905 0
M  V30 8132 H 772.092 -0.0681645 1.43839 0
M  V30 8133 H 774.045 -2.5548 3.35124 0
M  V30 8134 H 772.769 -2.49283 2.11011 0
M  V30 8135 H 771.428 -0.918892 3.54897 0
M  V30 8136 H 771.076 -3.38927 3.71669 0
M  V30 8137 H 770.776 -2.58415 5.27727 0
M  V30 8138 H 772.3 -3.47966 5.01749 0
M  V30 8139 H 773.714 -1.28105 5.58804 0
M  V30 8140 H 772.111 -0.589272 5.972 0
M  V30 8141 H 773.181 0.260004 4.84202 0
M  V30 8142 N 774.524 -1.57472 -0.0634922 0
M  V30 8143 C 775.754 -1.91608 -0.772645 0
M  V30 8144 C 776.162 -0.805019 -1.71219 0
M  V30 8145 O 775.505 0.229941 -1.82255 0
M  V30 8146 C 775.567 -3.21281 -1.61304 0
M  V30 8147 C 775.231 -4.49177 -0.841973 0
M  V30 8148 C 776.228 -5.19661 -0.157494 0
M  V30 8149 C 773.913 -4.9578 -0.80669 0
M  V30 8150 C 775.907 -6.35006 0.551948 0
M  V30 8151 C 773.594 -6.11028 -0.0934812 0
M  V30 8152 C 774.592 -6.80493 0.58463 0
M  V30 8153 O 774.28 -7.93542 1.28633 0
M  V30 8154 H 774.012 -0.637685 -0.224352 0
M  V30 8155 H 776.566 -2.05369 -0.0355279 0
M  V30 8156 H 774.796 -3.03752 -2.39315 0
M  V30 8157 H 776.485 -3.41003 -2.20162 0
M  V30 8158 H 777.251 -4.84681 -0.176006 0
M  V30 8159 H 773.13 -4.41579 -1.32397 0
M  V30 8160 H 776.674 -6.89161 1.0818 0
M  V30 8161 H 772.571 -6.45459 -0.0729258 0
M  V30 8162 H 773.339 -8.09708 1.19646 0
M  V30 8163 N 776.003 0.335068 -1.53997 0
M  V30 8164 C 777.249 1.07594 -1.71905 0
M  V30 8165 C 777.582 1.88039 -0.485264 0
M  V30 8166 O 776.857 1.87482 0.517752 0
M  V30 8167 C 777.14 2.01016 -2.98772 0
M  V30 8168 C 776.993 1.23977 -4.32377 0
M  V30 8169 C 778.312 3.0071 -3.21343 0
M  V30 8170 H 775.431 0.38976 -0.625505 0
M  V30 8171 H 778.073 0.353684 -1.86679 0
M  V30 8172 H 776.223 2.62603 -2.86307 0
M  V30 8173 H 777.895 0.649383 -4.56706 0
M  V30 8174 H 776.138 0.541878 -4.30402 0
M  V30 8175 H 776.809 1.92512 -5.17342 0
M  V30 8176 H 779.285 2.4924 -3.33194 0
M  V30 8177 H 778.161 3.63272 -4.11491 0
M  V30 8178 H 778.422 3.72549 -2.38033 0
M  V30 8179 N 777.481 1.45874 0.596531 0
M  V30 8180 C 778.444 1.54988 1.68853 0
M  V30 8181 C 779.444 0.428302 1.54991 0
M  V30 8182 O 780.634 0.692158 1.59859 0
M  V30 8183 C 777.766 1.457 3.08195 0
M  V30 8184 H 778.959 2.52294 1.62135 0
M  V30 8185 H 776.512 1.33479 0.813206 0
M  V30 8186 H 777.247 0.496204 3.20481 0
M  V30 8187 H 777.032 2.27061 3.19665 0
M  V30 8188 H 778.522 1.55133 3.87716 0
M  V30 8189 N 778.959 -0.83999 1.33349 0
M  V30 8190 C 780.187 -1.62728 1.27778 0
M  V30 8191 C 780.602 -1.88191 -0.151505 0
M  V30 8192 O 779.959 -1.46128 -1.09329 0
M  V30 8193 C 780.01 -2.97813 2.04913 0
M  V30 8194 O 779.731 -2.73469 3.42266 0
M  V30 8195 C 781.232 -3.92245 2.0654 0
M  V30 8196 H 778.452 -0.506374 0.440257 0
M  V30 8197 H 780.996 -1.04637 1.75703 0
M  V30 8198 H 779.151 -3.52509 1.60674 0
M  V30 8199 H 779.565 -3.59483 3.81932 0
M  V30 8200 H 781.039 -4.84249 2.64966 0
M  V30 8201 H 781.516 -4.26332 1.05537 0
M  V30 8202 H 782.122 -3.43487 2.50793 0
M  V30 8203 N 780.437 -1.16799 -1.0581 0
M  V30 8204 C 781.387 -0.847231 -2.11674 0
M  V30 8205 C 782.371 0.175476 -1.5994 0
M  V30 8206 O 783.563 -0.0260602 -1.76981 0
M  V30 8207 C 780.692 -0.355446 -3.41455 0
M  V30 8208 C 779.778 -1.40922 -4.00002 0
M  V30 8209 N 780.169 -2.62096 -4.32596 0
M  V30 8210 C 778.467 -1.26562 -4.27666 0
M  V30 8211 C 779.168 -3.29759 -4.79201 0
M  V30 8212 N 778.144 -2.57138 -4.78938 0
M  V30 8213 H 781.946 -1.76862 -2.34727 0
M  V30 8214 H 779.46 -1.05577 -1.23399 0
M  V30 8215 H 781.457 -0.107231 -4.16762 0
M  V30 8216 H 780.117 0.559817 -3.19838 0
M  V30 8217 H 781.128 -2.99113 -4.22791 0
M  V30 8218 H 777.805 -0.411503 -4.15467 0
M  V30 8219 H 779.195 -4.33222 -5.13584 0
M  V30 8220 N 781.915 1.24427 -0.967243 0
M  V30 8221 C 782.878 2.23637 -0.501927 0
M  V30 8222 C 783.878 1.55712 0.401283 0
M  V30 8223 O 785.068 1.73085 0.196808 0
M  V30 8224 C 782.2 3.39804 0.273176 0
M  V30 8225 H 783.393 2.66317 -1.37897 0
M  V30 8226 H 780.946 1.37033 -0.751783 0
M  V30 8227 H 781.681 3.02562 1.16733 0
M  V30 8228 H 781.466 3.90303 -0.37498 0
M  V30 8229 H 782.956 4.13443 0.587776 0
M  V30 8230 N 783.393 0.737304 1.3929 0
M  V30 8231 C 784.303 0.100464 2.34385 0
M  V30 8232 C 785.319 -0.719282 1.58437 0
M  V30 8233 O 786.495 -0.647216 1.90717 0
M  V30 8234 C 783.56 -0.794325 3.37478 0
M  V30 8235 C 782.621 0.0379345 4.29283 0
M  V30 8236 C 781.854 -0.814241 5.27452 0
M  V30 8237 O 782.077 -2.05288 5.32177 0
M  V30 8238 O 781.011 -0.241679 6.01415 0
M  V30 8239 H 784.837 0.885407 2.90507 0
M  V30 8240 H 782.422 0.497999 1.40856 0
M  V30 8241 H 784.304 -1.30622 4.00644 0
M  V30 8242 H 782.979 -1.55804 2.83737 0
M  V30 8243 H 781.886 0.595405 3.69331 0
M  V30 8244 H 783.219 0.763926 4.86236 0
M  V30 8245 N 784.871 -1.49948 0.485112 0
M  V30 8246 C 786.117 -2.02695 -0.0651022 0
M  V30 8247 C 786.45 -1.36534 -1.38102 0
M  V30 8248 O 785.725 -0.495677 -1.88078 0
M  V30 8249 C 786.008 -3.59337 -0.234285 0
M  V30 8250 C 785.861 -4.3605 1.10364 0
M  V30 8251 C 787.18 -4.28996 -0.982351 0
M  V30 8252 H 784.299 -0.736666 -0.0221856 0
M  V30 8253 H 786.941 -1.7913 0.633433 0
M  V30 8254 H 785.091 -3.79546 -0.829262 0
M  V30 8255 H 786.763 -4.27377 1.73627 0
M  V30 8256 H 785.006 -3.99236 1.69686 0
M  V30 8257 H 785.677 -5.43959 0.938743 0
M  V30 8258 H 788.153 -4.13346 -0.477904 0
M  V30 8259 H 787.029 -5.38379 -1.06955 0
M  V30 8260 H 787.29 -3.93135 -2.02231 0
M  V30 8261 N 786.349 -0.21828 -1.56081 0
M  V30 8262 C 787.312 0.679633 -2.18892 0
M  V30 8263 C 788.312 1.12405 -1.14986 0
M  V30 8264 O 789.502 1.03339 -1.40238 0
M  V30 8265 C 786.634 1.93063 -2.80962 0
M  V30 8266 H 787.827 0.132066 -2.99609 0
M  V30 8267 H 785.38 0.0313374 -1.56269 0
M  V30 8268 H 786.115 2.52015 -2.04106 0
M  V30 8269 H 785.9 1.62046 -3.57048 0
M  V30 8270 H 787.39 2.57043 -3.29118 0
M  V30 8271 N 787.827 1.57504 0.0551401 0
M  V30 8272 C 788.777 2.0128 1.071 0
M  V30 8273 C 789.761 0.897592 1.33537 0
M  V30 8274 O 790.953 1.16151 1.33558 0
M  V30 8275 C 788.082 2.47414 2.37994 0
M  V30 8276 C 787.168 3.65703 2.14761 0
M  V30 8277 N 787.559 4.79323 1.61504 0
M  V30 8278 C 785.857 3.72574 2.45162 0
M  V30 8279 C 786.558 5.61089 1.53472 0
M  V30 8280 N 785.534 5.05426 2.00114 0
M  V30 8281 H 789.336 2.86558 0.652829 0
M  V30 8282 H 786.85 1.60274 0.26193 0
M  V30 8283 H 788.847 2.77023 3.11551 0
M  V30 8284 H 787.507 1.6353 2.80514 0
M  V30 8285 H 788.518 5.01284 1.30134 0
M  V30 8286 H 785.195 2.99439 2.90934 0
M  V30 8287 H 786.585 6.62328 1.13008 0
M  V30 8288 N 789.305 -0.326896 1.54172 0
M  V30 8289 C 790.553 -1.06313 1.71878 0
M  V30 8290 C 790.874 -1.88652 0.493498 0
M  V30 8291 O 790.144 -1.89608 -0.492522 0
M  V30 8292 H 788.724 -0.39549 0.633716 0
M  V30 8293 H 791.386 -0.364139 1.91468 0
M  V30 8294 H 790.482 -1.73105 2.59694 0
M  V30 8295 N 790.784 -1.46188 -0.588786 0
M  V30 8296 C 792.014 -1.54519 -1.3714 0
M  V30 8297 C 792.422 -0.183075 -1.88312 0
M  V30 8298 O 791.765 0.828815 -1.6394 0
M  V30 8299 C 791.827 -2.48426 -2.59856 0
M  V30 8300 C 791.491 -3.94791 -2.30193 0
M  V30 8301 C 792.488 -4.84173 -1.894 0
M  V30 8302 C 790.173 -4.39872 -2.42525 0
M  V30 8303 C 792.167 -6.16647 -1.61325 0
M  V30 8304 C 789.854 -5.72381 -2.14063 0
M  V30 8305 C 790.852 -6.60589 -1.73527 0
M  V30 8306 O 790.54 -7.9064 -1.4541 0
M  V30 8307 H 790.272 -0.525264 -0.425527 0
M  V30 8308 H 792.826 -1.92242 -0.723344 0
M  V30 8309 H 791.056 -2.05709 -3.27446 0
M  V30 8310 H 792.745 -2.4723 -3.21919 0
M  V30 8311 H 793.511 -4.50603 -1.79393 0
M  V30 8312 H 789.39 -3.71444 -2.7304 0
M  V30 8313 H 792.934 -6.85454 -1.29611 0
M  V30 8314 H 788.831 -6.05501 -2.23693 0
M  V30 8315 H 789.599 -8.02847 -1.59306 0
M  V30 8316 N 792.262 0.832906 -1.33792 0
M  V30 8317 C 793.225 1.92471 -1.24449 0
M  V30 8318 C 794.225 1.59981 -0.162085 0
M  V30 8319 O 795.415 1.69208 -0.414029 0
M  V30 8320 C 792.547 3.28278 -0.919044 0
M  V30 8321 H 793.74 2.0218 -2.21502 0
M  V30 8322 H 791.293 1.0257 -1.17936 0
M  V30 8323 H 792.028 3.24263 0.048738 0
M  V30 8324 H 791.813 3.53241 -1.70187 0
M  V30 8325 H 793.303 4.08253 -0.878576 0
M  V30 8326 N 793.74 1.17359 1.05189 0
M  V30 8327 C 795.156 0.920861 1.30355 0
M  V30 8328 C 795.356 -0.419993 1.97074 0
M  V30 8329 O 794.412 -1.15696 2.24434 0
M  V30 8330 C 795.725 2.07818 2.1733 0
M  V30 8331 C 797.273 2.1152 2.30712 0
M  V30 8332 C 797.748 3.26637 3.21048 0
M  V30 8333 N 799.239 3.26426 3.28634 0
M  V30 8334 C 799.974 4.12141 3.98657 0
M  V30 8335 N 799.47 5.07966 4.71107 0
M  V30 8336 N 801.263 4.00091 3.94821 0
M  V30 8337 H 793.414 2.03666 0.602821 0
M  V30 8338 H 795.677 0.889294 0.328421 0
M  V30 8339 H 795.383 3.04727 1.75597 0
M  V30 8340 H 795.257 2.02922 3.17966 0
M  V30 8341 H 797.644 1.15196 2.71687 0
M  V30 8342 H 797.725 2.20477 1.29706 0
M  V30 8343 H 797.369 4.23227 2.80788 0
M  V30 8344 H 797.299 3.14917 4.2206 0
M  V30 8345 H 799.79 2.57045 2.77013 0
M  V30 8346 H 800.103 5.69766 5.22099 0
M  V30 8347 H 798.448 5.11936 4.7005 0
M  V30 8348 H 801.639 3.24523 3.37346 0
M  V30 8349 H 801.812 4.6711 4.49123 0
M  V30 8350 N 795.218 -1.23913 0.973828 0
M  V30 8351 C 796.467 -1.91455 0.63464 0
M  V30 8352 C 796.78 -1.76893 -0.834759 0
M  V30 8353 O 797.986 -2.3918 -1.28473 0
M  V30 8354 C 796.442 -3.43172 1.08447 0
M  V30 8355 C 796.05 -3.66409 2.57776 0
M  V30 8356 C 797.794 -4.1653 0.818721 0
M  V30 8357 C 795.701 -5.11728 2.9646 0
M  V30 8358 H 794.631 -0.716881 0.233661 0
M  V30 8359 H 797.282 -1.40457 1.18085 0
M  V30 8360 H 795.664 -3.93242 0.466524 0
M  V30 8361 H 796.838 -3.26913 3.24753 0
M  V30 8362 H 795.153 -3.06349 2.82027 0
M  V30 8363 H 797.75 -5.23603 1.08367 0
M  V30 8364 H 798.093 -4.15578 -0.245128 0
M  V30 8365 H 798.626 -3.72428 1.39793 0
M  V30 8366 H 795.365 -5.17806 4.01941 0
M  V30 8367 H 794.885 -5.52199 2.34172 0
M  V30 8368 H 796.564 -5.80009 2.86703 0
M  V30 8369 N 796.696 -0.74468 -1.38897 0
M  V30 8370 C 797.643 -0.111064 -2.30533 0
M  V30 8371 C 798.613 0.719276 -1.49719 0
M  V30 8372 O 799.798 0.677244 -1.78376 0
M  V30 8373 C 796.938 0.78292 -3.36102 0
M  V30 8374 C 796.051 -0.0610817 -4.31957 0
M  V30 8375 C 795.186 0.835075 -5.24595 0
M  V30 8376 C 794.225 -0.0130974 -6.12099 0
M  V30 8377 N 793.362 0.839525 -6.97063 0
M  V30 8378 H 798.202 -0.898113 -2.84144 0
M  V30 8379 H 795.739 -0.454537 -1.39901 0
M  V30 8380 H 797.697 1.31578 -3.95908 0
M  V30 8381 H 796.327 1.53585 -2.83922 0
M  V30 8382 H 795.379 -0.711469 -3.73687 0
M  V30 8383 H 796.691 -0.716482 -4.93627 0
M  V30 8384 H 795.845 1.43542 -5.89475 0
M  V30 8385 H 794.584 1.52423 -4.63269 0
M  V30 8386 H 793.589 -0.626179 -5.46223 0
M  V30 8387 H 794.814 -0.699181 -6.75491 0
M  V30 8388 H 792.76 1.5138 -6.38295 0
M  V30 8389 H 792.677 0.240823 -7.55616 0
M  V30 8390 H 793.945 1.42513 -7.66362 0
M  V30 8391 N 798.174 1.49689 -0.493057 0
M  V30 8392 C 799.084 2.32746 0.294358 0
M  V30 8393 C 800.1 1.44117 0.975003 0
M  V30 8394 O 801.276 1.77149 0.958138 0
M  V30 8395 C 798.341 3.19358 1.34949 0
M  V30 8396 C 797.402 4.2383 0.683122 0
M  V30 8397 C 796.635 5.06303 1.68798 0
M  V30 8398 O 796.858 4.90172 2.91698 0
M  V30 8399 O 795.792 5.88826 1.24768 0
M  V30 8400 H 799.618 3.01247 -0.385254 0
M  V30 8401 H 797.203 1.47216 -0.254519 0
M  V30 8402 H 799.085 3.73037 1.96014 0
M  V30 8403 H 797.76 2.53561 2.01217 0
M  V30 8404 H 796.667 3.74086 0.0329351 0
M  V30 8405 H 798 4.9216 0.0630192 0
M  V30 8406 N 799.652 0.226554 1.55963 0
M  V30 8407 C 800.9 -0.402991 1.98041 0
M  V30 8408 C 801.221 -1.59938 1.11557 0
M  V30 8409 O 800.491 -1.9494 0.193719 0
M  V30 8410 H 799.071 -0.15188 0.731397 0
M  V30 8411 H 801.733 0.320613 1.92245 0
M  V30 8412 H 800.829 -0.725937 3.0354 0
M  V30 8413 N 801.13 -1.57531 -0.0467866 0
M  V30 8414 C 802.358 -1.92696 -0.753371 0
M  V30 8415 C 802.773 -0.824792 -1.69831 0
M  V30 8416 O 802.13 0.200155 -1.81399 0
M  V30 8417 C 802.181 -3.27728 -1.52566 0
M  V30 8418 O 801.902 -4.3371 -0.618674 0
M  V30 8419 C 803.403 -3.77066 -2.33101 0
M  V30 8420 H 800.623 -0.636367 -0.212788 0
M  V30 8421 H 803.167 -2.04498 -0.00959361 0
M  V30 8422 H 801.322 -3.17378 -2.22148 0
M  V30 8423 H 801.736 -5.11548 -1.15839 0
M  V30 8424 H 803.21 -4.74109 -2.82709 0
M  V30 8425 H 803.687 -3.07348 -3.13741 0
M  V30 8426 H 804.293 -3.90442 -1.68628 0
M  V30 8427 N 802.608 0.318715 -1.54344 0
M  V30 8428 C 803.856 1.054 -1.72439 0
M  V30 8429 C 804.177 1.88388 -0.503495 0
M  V30 8430 O 803.447 1.89866 0.48246 0
M  V30 8431 H 802.027 0.392124 -0.635805 0
M  V30 8432 H 804.689 0.35398 -1.91659 0
M  V30 8433 H 803.785 1.71726 -2.60608 0
M  V30 8434 N 804.086 1.46499 0.581025 0
M  V30 8435 C 804.996 1.59778 1.71779 0
M  V30 8436 C 806.012 0.481223 1.67213 0
M  V30 8437 O 807.188 0.74557 1.87091 0
M  V30 8438 C 804.253 1.58626 3.08283 0
M  V30 8439 C 803.314 2.81527 3.241 0
M  V30 8440 C 802.547 2.80421 4.54092 0
M  V30 8441 O 802.77 1.89262 5.38085 0
M  V30 8442 O 801.704 3.71984 4.73193 0
M  V30 8443 H 805.53 2.55918 1.63523 0
M  V30 8444 H 803.115 1.29311 0.748267 0
M  V30 8445 H 804.997 1.60686 3.89561 0
M  V30 8446 H 803.672 0.656467 3.16973 0
M  V30 8447 H 802.579 2.85021 2.42309 0
M  V30 8448 H 803.912 3.73721 3.20302 0
M  V30 8449 N 805.565 -0.825799 1.34232 0
M  V30 8450 C 806.795 -1.61129 1.29309 0
M  V30 8451 C 807.203 -1.88714 -0.135589 0
M  V30 8452 O 806.546 -1.47703 -1.09222 0
M  V30 8453 C 806.608 -2.97866 2.01287 0
M  V30 8454 C 806.272 -2.9319 3.50555 0
M  V30 8455 C 807.269 -2.67978 4.45515 0
M  V30 8456 C 804.954 -3.12913 3.92926 0
M  V30 8457 C 806.948 -2.62536 5.80822 0
M  V30 8458 C 804.635 -3.07096 5.28333 0
M  V30 8459 C 805.633 -2.8194 6.22092 0
M  V30 8460 O 805.321 -2.7605 7.55018 0
M  V30 8461 H 805.053 -0.507652 0.446391 0
M  V30 8462 H 807.607 -1.03575 1.77374 0
M  V30 8463 H 805.837 -3.57327 1.47832 0
M  V30 8464 H 807.526 -3.58848 1.89691 0
M  V30 8465 H 808.292 -2.52478 4.14101 0
M  V30 8466 H 804.171 -3.3151 3.20347 0
M  V30 8467 H 807.715 -2.42821 6.53975 0
M  V30 8468 H 803.612 -3.22148 5.59367 0
M  V30 8469 H 804.38 -2.91798 7.6472 0
M  V30 8470 N 807.043 -1.17915 -1.04565 0
M  V30 8471 C 808.291 -0.969505 -1.77327 0
M  V30 8472 C 808.612 0.502569 -1.88412 0
M  V30 8473 O 807.882 1.36467 -1.40547 0
M  V30 8474 H 806.462 -0.355723 -0.656864 0
M  V30 8475 H 809.124 -1.48506 -1.26223 0
M  V30 8476 H 808.22 -1.40324 -2.78775 0
M  V30 8477 N 808.521 1.23394 -0.980386 0
M  V30 8478 C 809.451 2.2717 -0.540024 0
M  V30 8479 C 810.432 1.64659 0.426787 0
M  V30 8480 O 811.617 1.91543 0.320153 0
M  V30 8481 C 808.747 3.46939 0.15836 0
M  V30 8482 C 807.701 4.21802 -0.725732 0
M  V30 8483 C 807.027 5.34597 0.104866 0
M  V30 8484 C 808.327 4.81802 -2.01654 0
M  V30 8485 H 810.021 2.64257 -1.40743 0
M  V30 8486 H 807.567 1.2703 -0.678193 0
M  V30 8487 H 809.52 4.18683 0.477737 0
M  V30 8488 H 808.244 3.08912 1.06022 0
M  V30 8489 H 806.903 3.51875 -1.02857 0
M  V30 8490 H 806.551 4.92812 1.00726 0
M  V30 8491 H 806.251 5.85607 -0.483557 0
M  V30 8492 H 807.775 6.09163 0.418624 0
M  V30 8493 H 809.189 5.45554 -1.76193 0
M  V30 8494 H 807.586 5.43098 -2.55273 0
M  V30 8495 H 808.656 4.02549 -2.70338 0
M  V30 8496 N 809.999 0.752036 1.385 0
M  V30 8497 C 811.41 0.375385 1.82887 0
M  V30 8498 C 811.761 -1.09575 1.62751 0
M  V30 8499 O 810.886 -1.84685 1.12785 0
M  V30 8500 C 811.481 0.674563 3.32017 0
M  V30 8501 C 810.04 0.351208 3.74758 0
M  V30 8502 C 809.187 0.928531 2.61292 0
M  V30 8503 H 812.138 0.948313 1.27251 0
M  V30 8504 H 812.159 -0.0477781 3.8047 0
M  V30 8505 H 811.671 1.74533 3.46641 0
M  V30 8506 H 809.772 -0.713042 3.65714 0
M  V30 8507 H 809.885 0.845675 4.71577 0
M  V30 8508 H 808.249 0.354012 2.52228 0
M  V30 8509 H 809.032 2.0043 2.78716 0
M  V30 8510 N 811.477 -1.49425 0.500989 0
M  V30 8511 C 812.705 -2.06861 -0.0403443 0
M  V30 8512 C 813.12 -1.36132 -1.30819 0
M  V30 8513 O 812.477 -0.439647 -1.77125 0
M  V30 8514 C 812.528 -3.6027 -0.297902 0
M  V30 8515 O 812.249 -4.28338 0.919686 0
M  V30 8516 C 813.75 -4.34419 -0.882876 0
M  V30 8517 H 810.97 -0.670688 0.0204619 0
M  V30 8518 H 813.514 -1.92207 0.698342 0
M  V30 8519 H 811.669 -3.74627 -0.98657 0
M  V30 8520 H 812.083 -5.2004 0.682528 0
M  V30 8521 H 813.557 -5.42631 -1.01268 0
M  V30 8522 H 814.034 -3.96898 -1.88066 0
M  V30 8523 H 814.64 -4.24669 -0.231677 0
M  V30 8524 N 812.955 -0.234822 -1.55841 0
M  V30 8525 C 814.371 0.120295 -1.59146 0
M  V30 8526 C 814.571 1.57896 -1.25184 0
M  V30 8527 O 813.627 2.32138 -0.993393 0
M  V30 8528 C 814.94 -0.217984 -2.99909 0
M  V30 8529 C 816.488 -0.161298 -3.12584 0
M  V30 8530 C 816.963 -0.473438 -4.55546 0
M  V30 8531 N 818.454 -0.423494 -4.6126 0
M  V30 8532 C 819.189 -0.638334 -5.69836 0
M  V30 8533 N 818.685 -0.915659 -6.86722 0
M  V30 8534 N 820.478 -0.569864 -5.59204 0
M  V30 8535 H 812.629 -1.18622 -1.76189 0
M  V30 8536 H 814.892 -0.476426 -0.819587 0
M  V30 8537 H 814.598 -1.2309 -3.29457 0
M  V30 8538 H 814.472 0.460707 -3.74376 0
M  V30 8539 H 816.859 0.842274 -2.82825 0
M  V30 8540 H 816.94 -0.873661 -2.40418 0
M  V30 8541 H 816.584 -1.47451 -4.86025 0
M  V30 8542 H 816.514 0.260268 -5.25956 0
M  V30 8543 H 819.005 -0.217383 -3.77274 0
M  V30 8544 H 819.318 -1.06734 -7.65394 0
M  V30 8545 H 817.663 -0.953 -6.88435 0
M  V30 8546 H 820.854 -0.35334 -4.66765 0
M  V30 8547 H 821.027 -0.740698 -6.43753 0
M  V30 8548 N 814.433 1.57553 0.0384317 0
M  V30 8549 C 815.396 2.04927 1.02653 0
M  V30 8550 C 816.396 0.951768 1.29607 0
M  V30 8551 O 817.586 1.21568 1.24768 0
M  V30 8552 C 814.718 2.45828 2.36181 0
M  V30 8553 H 815.911 2.93474 0.617508 0
M  V30 8554 H 813.464 1.53679 0.285031 0
M  V30 8555 H 814.199 1.60408 2.8185 0
M  V30 8556 H 813.984 3.25945 2.1795 0
M  V30 8557 H 815.474 2.82939 3.0714 0
M  V30 8558 N 815.911 -0.310526 1.54511 0
M  V30 8559 C 816.821 -1.4054 1.87844 0
M  V30 8560 C 817.837 -1.55954 0.771635 0
M  V30 8561 O 819.013 -1.70801 1.06719 0
M  V30 8562 C 816.078 -2.75063 2.11048 0
M  V30 8563 C 815.139 -2.68715 3.348 0
M  V30 8564 C 814.372 -3.96821 3.56887 0
M  V30 8565 O 814.595 -4.95721 2.82165 0
M  V30 8566 O 813.529 -3.99291 4.50389 0
M  V30 8567 H 817.355 -1.15275 2.80972 0
M  V30 8568 H 814.94 -0.505732 1.4058 0
M  V30 8569 H 816.822 -3.54671 2.27566 0
M  V30 8570 H 815.497 -3.00191 1.21108 0
M  V30 8571 H 814.404 -1.87611 3.23655 0
M  V30 8572 H 815.737 -2.4854 4.2484 0
M  V30 8573 N 817.389 -1.46805 -0.573248 0
M  V30 8574 C 818.805 -1.31969 -0.897577 0
M  V30 8575 C 819.005 -0.298171 -1.99282 0
M  V30 8576 O 818.061 0.295953 -2.5076 0
M  V30 8577 C 819.374 -2.70859 -1.30598 0
M  V30 8578 C 820.922 -2.79022 -1.4183 0
M  V30 8579 C 821.397 -4.18516 -1.86033 0
M  V30 8580 N 822.888 -4.2098 -1.9321 0
M  V30 8581 C 823.623 -5.25814 -2.28707 0
M  V30 8582 N 823.119 -6.40968 -2.6293 0
M  V30 8583 N 824.912 -5.13184 -2.29343 0
M  V30 8584 H 817.063 -2.11869 0.150094 0
M  V30 8585 H 819.326 -0.947989 0.00447895 0
M  V30 8586 H 819.032 -3.46965 -0.575161 0
M  V30 8587 H 818.906 -3.01585 -2.26554 0
M  V30 8588 H 821.293 -2.03198 -2.13996 0
M  V30 8589 H 821.374 -2.51969 -0.441024 0
M  V30 8590 H 821.018 -4.94839 -1.14442 0
M  V30 8591 H 820.948 -4.42982 -2.84735 0
M  V30 8592 H 823.439 -3.37898 -1.69214 0
M  V30 8593 H 823.752 -7.16729 -2.88996 0
M  V30 8594 H 822.097 -6.44314 -2.60547 0
M  V30 8595 H 825.288 -4.22255 -2.02036 0
M  V30 8596 H 825.461 -5.94996 -2.56679 0
M  V30 8597 N 818.867 0.818669 -1.34668 0
M  V30 8598 C 820.144 1.56118 -1.17841 0
M  V30 8599 C 820.524 2.09646 0.24731 0
M  V30 8600 O 819.872 1.91329 1.24922 0
M  V30 8601 C 820.082 2.67922 -2.23649 0
M  V30 8602 C 821.43 3.36579 -2.58843 0
M  V30 8603 O 822.454 2.78182 -2.22471 0
M  V30 8604 O 821.313 4.42045 -3.21339 0
M  V30 8605 H 818.407 0.689216 -0.457067 0
M  V30 8606 H 820.953 0.859674 -1.46314 0
M  V30 8607 H 819.725 2.26153 -3.19328 0
M  V30 8608 H 819.348 3.45719 -1.96377 0
M  V30 8609 N 820.346 1.18468 1.03938 0
M  V30 8610 C 821.309 0.914944 2.10146 0
M  V30 8611 C 822.309 -0.10022 1.60487 0
M  V30 8612 O 823.499 0.133365 1.73689 0
M  V30 8613 C 820.631 0.372993 3.38853 0
M  V30 8614 H 821.824 1.85677 2.35508 0
M  V30 8615 H 819.377 0.996876 1.20383 0
M  V30 8616 H 820.112 -0.57538 3.19155 0
M  V30 8617 H 819.897 1.1048 3.76213 0
M  V30 8618 H 821.387 0.203014 4.17106 0
M  V30 8619 N 821.824 -1.22873 0.986916 0
M  V30 8620 C 823.24 -1.43594 0.696633 0
M  V30 8621 C 823.44 -1.87622 -0.734869 0
M  V30 8622 O 822.496 -2.02633 -1.50652 0
M  V30 8623 C 823.809 -2.48231 1.69711 0
M  V30 8624 C 825.357 -2.62037 1.71188 0
M  V30 8625 C 825.832 -3.6989 2.70084 0
M  V30 8626 N 827.323 -3.77341 2.68641 0
M  V30 8627 C 828.058 -4.6037 3.41829 0
M  V30 8628 N 827.554 -5.47438 4.24598 0
M  V30 8629 N 829.347 -4.54626 3.30563 0
M  V30 8630 H 821.498 -0.925982 1.91153 0
M  V30 8631 H 823.761 -0.46866 0.824052 0
M  V30 8632 H 823.467 -2.22812 2.72117 0
M  V30 8633 H 823.341 -3.46731 1.48516 0
M  V30 8634 H 825.728 -2.86803 0.694837 0
M  V30 8635 H 825.809 -1.63831 1.96451 0
M  V30 8636 H 825.453 -3.45872 3.71934 0
M  V30 8637 H 825.383 -4.67652 2.42093 0
M  V30 8638 H 827.874 -3.15124 2.08578 0
M  V30 8639 H 828.187 -6.078 4.77283 0
M  V30 8640 H 826.532 -5.4704 4.28687 0
M  V30 8641 H 829.723 -3.85627 2.65347 0
M  V30 8642 H 829.896 -5.19103 3.8786 0
M  V30 8643 N 823.302 -0.75937 -1.38099 0
M  V30 8644 C 824.55 -0.317485 -1.99591 0
M  V30 8645 C 824.871 1.10628 -1.60581 0
M  V30 8646 O 824.141 1.7575 -0.865378 0
M  V30 8647 H 822.721 -0.114397 -0.738189 0
M  V30 8648 H 825.383 -0.974749 -1.68774 0
M  V30 8649 H 824.479 -0.385227 -3.09713 0
M  V30 8650 N 824.78 1.49157 -0.508906 0
M  V30 8651 C 826.026 2.02773 0.0328469 0
M  V30 8652 C 826.359 1.38714 1.35912 0
M  V30 8653 O 825.634 0.525536 1.87266 0
M  V30 8654 C 825.917 3.59664 0.177088 0
M  V30 8655 C 825.77 4.34239 -1.17287 0
M  V30 8656 C 827.089 4.30505 0.913977 0
M  V30 8657 H 824.208 0.736926 0.0104631 0
M  V30 8658 H 826.85 1.781 -0.661851 0
M  V30 8659 H 825 3.80818 0.768774 0
M  V30 8660 H 826.672 4.24561 -1.80404 0
M  V30 8661 H 824.915 3.96486 -1.76016 0
M  V30 8662 H 825.586 5.42397 -1.02516 0
M  V30 8663 H 828.062 4.14054 0.412084 0
M  V30 8664 H 826.938 5.40012 0.983759 0
M  V30 8665 H 827.199 3.96302 1.95951 0
M  V30 8666 N 826.258 0.243083 1.55714 0
M  V30 8667 C 827.191 -0.698623 2.17243 0
M  V30 8668 C 828.169 -1.1756 1.12331 0
M  V30 8669 O 829.353 -1.25444 1.40699 0
M  V30 8670 C 826.48 -1.94901 2.77004 0
M  V30 8671 C 825.526 -1.61022 3.94936 0
M  V30 8672 S 826.359 -0.716173 5.30689 0
M  V30 8673 C 827.515 -1.97565 5.93901 0
M  V30 8674 H 827.748 -0.175724 2.9678 0
M  V30 8675 H 825.281 0.0275727 1.54375 0
M  V30 8676 H 827.239 -2.66687 3.12071 0
M  V30 8677 H 825.9 -2.44304 1.9742 0
M  V30 8678 H 825.093 -2.5398 4.35328 0
M  V30 8679 H 824.695 -0.972829 3.61126 0
M  V30 8680 H 826.987 -2.92333 6.11186 0
M  V30 8681 H 827.93 -1.61528 6.8943 0
M  V30 8682 H 828.338 -2.126 5.22935 0
M  V30 8683 N 827.736 -1.57571 -0.0300757 0
M  V30 8684 C 828.666 -2.0953 -1.03051 0
M  V30 8685 C 829.647 -0.99761 -1.37774 0
M  V30 8686 O 830.832 -1.27279 -1.46676 0
M  V30 8687 C 827.962 -2.57385 -2.33174 0
M  V30 8688 C 826.916 -3.71409 -2.12696 0
M  V30 8689 C 826.242 -4.05467 -3.4857 0
M  V30 8690 C 827.542 -4.99877 -1.51396 0
M  V30 8691 H 829.236 -2.93367 -0.597999 0
M  V30 8692 H 826.782 -1.41127 -0.286203 0
M  V30 8693 H 828.735 -2.92355 -3.03491 0
M  V30 8694 H 827.459 -1.70629 -2.78484 0
M  V30 8695 H 826.118 -3.36786 -1.44813 0
M  V30 8696 H 825.766 -3.15779 -3.91526 0
M  V30 8697 H 825.466 -4.82269 -3.35694 0
M  V30 8698 H 826.99 -4.4297 -4.2025 0
M  V30 8699 H 828.404 -5.3281 -2.11629 0
M  V30 8700 H 826.801 -5.81283 -1.49098 0
M  V30 8701 H 827.871 -4.82522 -0.479676 0
M  V30 8702 N 829.214 0.302327 -1.54673 0
M  V30 8703 C 830.63 0.647911 -1.45857 0
M  V30 8704 C 830.83 1.90773 -0.64869 0
M  V30 8705 O 829.886 2.52018 -0.155865 0
M  V30 8706 C 831.199 0.802144 -2.89804 0
M  V30 8707 C 832.747 0.898114 -2.99838 0
M  V30 8708 C 833.222 1.08436 -4.44978 0
M  V30 8709 N 834.713 1.15059 -4.48682 0
M  V30 8710 C 835.448 1.31296 -5.58166 0
M  V30 8711 N 834.944 1.4444 -6.77576 0
M  V30 8712 N 836.737 1.34174 -5.45851 0
M  V30 8713 H 828.888 -0.525428 -2.05798 0
M  V30 8714 H 831.151 -0.173423 -0.932002 0
M  V30 8715 H 830.857 -0.0526531 -3.51661 0
M  V30 8716 H 830.731 1.69155 -3.37145 0
M  V30 8717 H 833.118 1.7434 -2.38096 0
M  V30 8718 H 833.199 -0.0152752 -2.55795 0
M  V30 8719 H 832.843 0.243843 -5.07314 0
M  V30 8720 H 832.773 2.01195 -4.8665 0
M  V30 8721 H 835.264 1.0626 -3.62653 0
M  V30 8722 H 835.577 1.56582 -7.56771 0
M  V30 8723 H 833.922 1.41499 -6.80443 0
M  V30 8724 H 837.113 1.23516 -4.5151 0
M  V30 8725 H 837.286 1.46485 -6.31226 0
M  V30 8726 N 830.692 1.47107 0.565454 0
M  V30 8727 C 831.938 1.53535 1.32495 0
M  V30 8728 C 832.271 0.193537 1.93233 0
M  V30 8729 O 831.546 -0.796956 1.77423 0
M  V30 8730 C 831.829 2.64712 2.4413 0
M  V30 8731 C 831.682 4.08482 1.88314 0
M  V30 8732 C 833.001 2.71853 3.46098 0
M  V30 8733 H 830.12 0.558926 0.480386 0
M  V30 8734 H 832.762 1.79125 0.633575 0
M  V30 8735 H 830.912 2.43023 3.03104 0
M  V30 8736 H 832.584 4.4151 1.33665 0
M  V30 8737 H 830.827 4.17148 1.19037 0
M  V30 8738 H 831.498 4.82032 2.68978 0
M  V30 8739 H 833.974 2.91397 2.97031 0
M  V30 8740 H 832.85 3.51433 4.21646 0
M  V30 8741 H 833.111 1.78584 4.04426 0
M  V30 8742 N 832.17 -0.811516 1.35101 0
M  V30 8743 C 833.4 -1.59749 1.31011 0
M  V30 8744 C 833.808 -1.88847 -0.115566 0
M  V30 8745 O 833.151 -1.48854 -1.07649 0
M  V30 8746 C 833.213 -2.95714 2.04435 0
M  V30 8747 C 832.877 -2.89456 3.53645 0
M  V30 8748 C 833.874 -2.63237 4.48333 0
M  V30 8749 C 831.559 -3.08728 3.96222 0
M  V30 8750 C 833.553 -2.56361 5.83573 0
M  V30 8751 C 831.24 -3.01475 5.3156 0
M  V30 8752 C 832.238 -2.75326 6.25048 0
M  V30 8753 O 831.926 -2.68026 7.57903 0
M  V30 8754 H 831.658 -0.502889 0.45175 0
M  V30 8755 H 834.212 -1.01687 1.78462 0
M  V30 8756 H 832.442 -3.55739 1.51613 0
M  V30 8757 H 834.131 -3.56816 1.93487 0
M  V30 8758 H 834.897 -2.48072 4.16756 0
M  V30 8759 H 830.776 -3.28094 3.23845 0
M  V30 8760 H 834.32 -2.35871 6.56514 0
M  V30 8761 H 830.217 -3.16197 5.62752 0
M  V30 8762 H 830.985 -2.8367 7.67772 0
M  V30 8763 N 833.648 -1.19017 -1.03309 0
M  V30 8764 C 834.897 -0.984542 -1.76039 0
M  V30 8765 C 835.21 0.485937 -1.89468 0
M  V30 8766 O 836.416 0.810278 -2.59127 0
M  V30 8767 C 834.872 -1.71261 -3.1654 0
M  V30 8768 C 834.48 -3.22291 -3.11179 0
M  V30 8769 C 836.224 -1.59007 -3.93595 0
M  V30 8770 C 834.131 -3.87704 -4.46587 0
M  V30 8771 H 833.061 -0.364749 -0.659905 0
M  V30 8772 H 835.712 -1.4247 -1.15649 0
M  V30 8773 H 834.094 -1.20025 -3.77373 0
M  V30 8774 H 835.268 -3.80611 -2.59753 0
M  V30 8775 H 833.583 -3.34772 -2.47622 0
M  V30 8776 H 836.18 -2.05232 -4.93745 0
M  V30 8777 H 836.523 -0.543534 -4.12736 0
M  V30 8778 H 837.056 -2.07564 -3.39355 0
M  V30 8779 H 833.795 -4.92437 -4.3265 0
M  V30 8780 H 833.315 -3.34172 -4.98085 0
M  V30 8781 H 834.994 -3.91008 -5.15482 0
M  V30 8782 N 835.127 1.22348 -0.993418 0
M  V30 8783 C 836.538 1.72893 -0.704616 0
M  V30 8784 C 836.889 1.80095 0.778483 0
M  V30 8785 O 836.014 1.4476 1.60853 0
M  V30 8786 C 836.609 3.14 -1.27237 0
M  V30 8787 C 835.168 3.61949 -1.03294 0
M  V30 8788 C 834.315 2.39816 -1.39225 0
M  V30 8789 H 837.266 1.07688 -1.16572 0
M  V30 8790 H 837.287 3.74886 -0.651212 0
M  V30 8791 H 836.799 3.08727 -2.3518 0
M  V30 8792 H 834.9 3.72588 0.0298329 0
M  V30 8793 H 835.013 4.48051 -1.69668 0
M  V30 8794 H 833.377 2.41448 -0.810849 0
M  V30 8795 H 834.16 2.37203 -2.48172 0
M  V30 8796 N 836.605 0.766683 1.37694 0
M  V30 8797 C 838.021 0.445739 1.53249 0
M  V30 8798 C 838.221 -1.03935 1.72626 0
M  V30 8799 O 837.277 -1.82525 1.74473 0
M  V30 8800 C 838.59 1.2564 2.73194 0
M  V30 8801 C 840.138 1.24779 2.87053 0
M  V30 8802 C 840.613 2.04169 4.09974 0
M  V30 8803 N 842.104 2.01497 4.17077 0
M  V30 8804 C 842.839 2.5971 5.11212 0
M  V30 8805 N 842.335 3.26691 6.10938 0
M  V30 8806 N 844.128 2.49568 5.03659 0
M  V30 8807 H 836.279 1.72899 1.23368 0
M  V30 8808 H 838.542 0.733701 0.600322 0
M  V30 8809 H 838.248 2.30859 2.65324 0
M  V30 8810 H 838.122 0.882133 3.6674 0
M  V30 8811 H 840.509 0.203603 2.94397 0
M  V30 8812 H 840.59 1.66166 1.9448 0
M  V30 8813 H 840.234 3.08606 4.03392 0
M  V30 8814 H 840.164 1.60167 5.01651 0
M  V30 8815 H 842.655 1.52728 3.45662 0
M  V30 8816 H 842.968 3.68497 6.79286 0
M  V30 8817 H 841.313 3.30789 6.11231 0
M  V30 8818 H 844.504 1.96859 4.24693 0
M  V30 8819 H 844.677 2.95231 5.76839 0
M  V30 8820 N 838.083 -1.48885 0.516809 0
M  V30 8821 C 839.046 -2.27916 -0.242256 0
M  V30 8822 C 840.046 -1.34601 -0.879735 0
M  V30 8823 O 841.236 -1.57616 -0.74182 0
M  V30 8824 C 838.368 -3.13067 -1.34914 0
M  V30 8825 H 839.561 -2.96483 0.451444 0
M  V30 8826 H 837.114 -1.5391 0.272294 0
M  V30 8827 H 837.849 -2.49102 -2.07651 0
M  V30 8828 H 837.634 -3.81695 -0.897313 0
M  V30 8829 H 839.124 -3.72716 -1.88341 0
M  V30 8830 N 839.561 -0.251338 -1.55583 0
M  V30 8831 C 840.786 0.379136 -2.03905 0
M  V30 8832 C 841.211 1.50428 -1.12929 0
M  V30 8833 O 840.569 1.80882 -0.123114 0
M  V30 8834 C 840.617 0.86009 -3.50193 0
M  V30 8835 O 839.721 1.96932 -3.62342 0
M  V30 8836 H 839.062 0.0820183 -0.658915 0
M  V30 8837 H 841.592 -0.378692 -2.01065 0
M  V30 8838 H 841.602 1.16214 -3.91099 0
M  V30 8839 H 840.277 0.0367559 -4.15884 0
M  V30 8840 H 838.854 1.67163 -3.33333 0
M  V30 8841 N 841.039 1.57585 0.0217189 0
M  V30 8842 C 841.969 2.10073 1.01939 0
M  V30 8843 C 842.95 1.0049 1.37243 0
M  V30 8844 O 844.135 1.28055 1.45999 0
M  V30 8845 C 841.265 2.58618 2.31806 0
M  V30 8846 C 840.219 3.72531 2.10724 0
M  V30 8847 C 839.545 4.07309 3.46415 0
M  V30 8848 C 840.845 5.00672 1.48743 0
M  V30 8849 H 842.539 2.9368 0.582432 0
M  V30 8850 H 840.085 1.41277 0.278715 0
M  V30 8851 H 842.038 2.9396 3.01936 0
M  V30 8852 H 840.762 1.72104 2.77575 0
M  V30 8853 H 839.421 3.37549 1.43025 0
M  V30 8854 H 839.069 3.17851 3.89846 0
M  V30 8855 H 838.769 4.84042 3.33132 0
M  V30 8856 H 840.293 4.45192 4.17895 0
M  V30 8857 H 841.707 5.33925 2.088 0
M  V30 8858 H 840.104 5.82065 1.46013 0
M  V30 8859 H 841.174 4.82769 0.45408 0
M  V30 8860 N 842.517 -0.29412 1.54831 0
M  V30 8861 C 843.427 -1.3854 1.89325 0
M  V30 8862 C 844.443 -1.55127 0.788133 0
M  V30 8863 O 845.619 -1.6966 1.08524 0
M  V30 8864 C 842.684 -2.72809 2.13954 0
M  V30 8865 C 841.745 -2.65148 3.37631 0
M  V30 8866 C 840.978 -3.93014 3.61076 0
M  V30 8867 O 841.201 -4.927 2.87406 0
M  V30 8868 O 840.135 -3.94491 4.54599 0
M  V30 8869 H 843.961 -1.12289 2.82179 0
M  V30 8870 H 841.546 -0.490793 1.41108 0
M  V30 8871 H 843.428 -3.52238 2.31315 0
M  V30 8872 H 842.103 -2.9889 1.24285 0
M  V30 8873 H 841.01 -1.84168 3.25627 0
M  V30 8874 H 842.343 -2.4402 4.27452 0
M  V30 8875 N 843.995 -1.47404 -0.557645 0
M  V30 8876 C 845.411 -1.32913 -0.88353 0
M  V30 8877 C 845.611 -0.31929 -1.98954 0
M  V30 8878 O 844.667 0.26934 -2.51059 0
M  V30 8879 C 845.98 -2.72229 -1.27718 0
M  V30 8880 C 847.528 -2.8051 -1.38863 0
M  V30 8881 C 848.003 -4.20466 -1.81583 0
M  V30 8882 N 849.494 -4.23005 -1.88735 0
M  V30 8883 C 850.229 -5.2821 -2.23118 0
M  V30 8884 N 849.725 -6.4372 -2.56117 0
M  V30 8885 N 851.518 -5.15588 -2.23888 0
M  V30 8886 H 843.669 -2.11698 0.172557 0
M  V30 8887 H 845.932 -0.947889 0.0145334 0
M  V30 8888 H 845.638 -3.47556 -0.538329 0
M  V30 8889 H 845.512 -3.03971 -2.23342 0
M  V30 8890 H 847.899 -2.05457 -2.11829 0
M  V30 8891 H 847.98 -2.52423 -0.414274 0
M  V30 8892 H 847.624 -4.96025 -1.09187 0
M  V30 8893 H 847.554 -4.45977 -2.80021 0
M  V30 8894 H 850.045 -3.39674 -1.65621 0
M  V30 8895 H 850.358 -7.19754 -2.81378 0
M  V30 8896 H 848.703 -6.47041 -2.53698 0
M  V30 8897 H 851.894 -4.24374 -1.97546 0
M  V30 8898 H 852.067 -5.97685 -2.50353 0
M  V30 8899 N 845.473 0.80434 -1.35529 0
M  V30 8900 C 846.72 1.56154 -1.28927 0
M  V30 8901 C 847.048 1.94026 0.135682 0
M  V30 8902 O 846.303 1.61759 1.10148 0
M  V30 8903 C 846.602 2.85988 -2.14349 0
M  V30 8904 C 846.268 2.67323 -3.6311 0
M  V30 8905 C 844.93 2.61941 -4.03659 0
M  V30 8906 C 847.282 2.49699 -4.57493 0
M  V30 8907 C 844.61 2.3688 -5.36754 0
M  V30 8908 C 846.962 2.26168 -5.90788 0
M  V30 8909 C 845.626 2.19209 -6.30479 0
M  V30 8910 H 844.896 0.571407 -0.471779 0
M  V30 8911 H 847.543 0.929193 -1.67446 0
M  V30 8912 H 845.848 3.53612 -1.68718 0
M  V30 8913 H 847.545 3.43697 -2.06576 0
M  V30 8914 H 844.135 2.72361 -3.30934 0
M  V30 8915 H 848.319 2.52869 -4.27049 0
M  V30 8916 H 843.575 2.29964 -5.66504 0
M  V30 8917 H 847.749 2.11522 -6.63499 0
M  V30 8918 H 845.376 1.99553 -7.33541 0
M  V30 8919 N 846.951 1.19563 1.02676 0
M  V30 8920 C 848.181 1.0234 1.79472 0
M  V30 8921 C 848.589 -0.430891 1.84228 0
M  V30 8922 O 847.932 -1.31106 1.28674 0
M  V30 8923 C 847.994 1.51901 3.25832 0
M  V30 8924 C 847.658 3.00045 3.44706 0
M  V30 8925 C 848.655 3.9779 3.34752 0
M  V30 8926 C 846.34 3.38784 3.70851 0
M  V30 8927 C 848.334 5.32267 3.50672 0
M  V30 8928 C 846.021 4.73419 3.86416 0
M  V30 8929 C 847.019 5.69969 3.7633 0
M  V30 8930 O 846.707 7.02165 3.91432 0
M  V30 8931 H 846.439 0.360936 0.571578 0
M  V30 8932 H 848.993 1.58863 1.30198 0
M  V30 8933 H 847.223 0.897546 3.7614 0
M  V30 8934 H 848.912 1.30853 3.84229 0
M  V30 8935 H 849.678 3.69207 3.14502 0
M  V30 8936 H 845.557 2.64183 3.77794 0
M  V30 8937 H 849.101 6.07612 3.42715 0
M  V30 8938 H 844.998 5.01697 4.06165 0
M  V30 8939 H 845.766 7.09268 4.08511 0
M  V30 8940 N 848.429 -1.21819 0.999893 0
M  V30 8941 C 849.845 -1.42847 0.711824 0
M  V30 8942 C 850.045 -1.88391 -0.714928 0
M  V30 8943 O 849.101 -2.0422 -1.48494 0
M  V30 8944 C 850.414 -2.46417 1.72334 0
M  V30 8945 C 851.962 -2.60207 1.73958 0
M  V30 8946 C 852.437 -3.67005 2.73992 0
M  V30 8947 N 853.928 -3.7447 2.72628 0
M  V30 8948 C 854.663 -4.56718 3.46693 0
M  V30 8949 N 854.159 -5.42904 4.3038 0
M  V30 8950 N 855.952 -4.51094 3.35366 0
M  V30 8951 H 848.103 -0.905656 1.92124 0
M  V30 8952 H 850.366 -0.459893 0.828977 0
M  V30 8953 H 850.072 -2.19914 2.74465 0
M  V30 8954 H 849.946 -3.45137 1.52186 0
M  V30 8955 H 852.333 -2.8605 0.725217 0
M  V30 8956 H 852.414 -1.61739 1.98177 0
M  V30 8957 H 852.058 -3.41908 3.75582 0
M  V30 8958 H 851.988 -4.65058 2.4704 0
M  V30 8959 H 854.479 -3.12895 2.11909 0
M  V30 8960 H 854.792 -6.02704 4.83702 0
M  V30 8961 H 853.137 -5.42463 4.34464 0
M  V30 8962 H 856.328 -3.82791 2.69423 0
M  V30 8963 H 856.501 -5.1496 3.93344 0
M  V30 8964 N 849.908 -0.773975 -1.37286 0
M  V30 8965 C 851.136 -0.350758 -2.03905 0
M  V30 8966 C 851.551 1.02779 -1.58373 0
M  V30 8967 O 850.908 1.65646 -0.766009 0
M  V30 8968 C 850.959 -0.387335 -3.59419 0
M  V30 8969 O 850.68 -1.7115 -4.03286 0
M  V30 8970 C 852.181 0.047198 -4.43275 0
M  V30 8971 H 849.401 -0.146663 -0.654775 0
M  V30 8972 H 851.945 -1.04852 -1.75574 0
M  V30 8973 H 850.1 0.261865 -3.86514 0
M  V30 8974 H 850.514 -1.65166 -4.97816 0
M  V30 8975 H 851.988 -0.0295474 -5.51992 0
M  V30 8976 H 852.465 1.09786 -4.25257 0
M  V30 8977 H 853.071 -0.573899 -4.2141 0
M  V30 8978 N 851.386 1.48609 -0.524698 0
M  V30 8979 C 852.334 2.31205 0.254398 0
M  V30 8980 C 853.328 1.40894 0.940491 0
M  V30 8981 O 854.534 1.57827 0.865478 0
M  V30 8982 H 850.909 0.745199 0.100907 0
M  V30 8983 H 852.88 2.94804 -0.461876 0
M  V30 8984 C 851.629 3.2282 1.2916 0
M  V30 8985 H 850.952 3.92255 0.773074 0
M  V30 8986 H 852.392 3.83508 1.80825 0
M  V30 8987 C 850.851 2.4406 2.32242 0
M  V30 8988 O 851.381 2.16163 3.3858 0
M  V30 8989 N 849.587 2.05651 2.05319 0
M  V30 8990 H 849.134 2.28539 1.18861 0
M  V30 8991 H 849.092 1.53265 2.74513 0
M  V30 8992 N 852.864 0.259585 1.55447 0
M  V30 8993 C 854.092 -0.365392 2.03648 0
M  V30 8994 C 854.507 -1.50613 1.13847 0
M  V30 8995 O 853.864 -1.81837 0.155414 0
M  V30 8996 C 853.915 -0.861172 3.51093 0
M  V30 8997 O 853.636 0.234121 4.37474 0
M  V30 8998 C 855.137 -1.55555 4.15111 0
M  V30 8999 H 852.357 -0.0853439 0.66555 0
M  V30 9000 H 854.901 0.387151 2.00802 0
M  V30 9001 H 853.056 -1.56385 3.54433 0
M  V30 9002 H 853.47 -0.1444 5.24301 0
M  V30 9003 H 854.944 -1.85403 5.19932 0
M  V30 9004 H 855.421 -2.48185 3.62355 0
M  V30 9005 H 856.027 -0.89712 4.15731 0
M  V30 9006 N 854.342 -1.57594 -0.0133615 0
M  V30 9007 C 855.753 -1.78168 -0.557937 0
M  V30 9008 C 856.104 -0.892616 -1.74719 0
M  V30 9009 O 855.229 -0.0915491 -2.16206 0
M  V30 9010 C 855.824 -3.23115 -1.01894 0
M  V30 9011 C 854.383 -3.44831 -1.50892 0
M  V30 9012 C 853.53 -2.73558 -0.454044 0
M  V30 9013 H 856.481 -1.57266 0.212843 0
M  V30 9014 H 856.502 -3.30493 -1.8856 0
M  V30 9015 H 856.014 -3.87798 -0.153175 0
M  V30 9016 H 854.115 -2.85345 -2.39602 0
M  V30 9017 H 854.228 -4.53485 -1.54559 0
M  V30 9018 H 852.592 -2.37787 -0.912666 0
M  V30 9019 H 853.375 -3.40932 0.402524 0
M  V30 9020 N 855.82 0.285905 -1.54985 0
M  V30 9021 C 856.75 1.35752 -1.89983 0
M  V30 9022 C 857.731 1.52163 -0.760295 0
M  V30 9023 O 858.916 1.65421 -1.01733 0
M  V30 9024 C 856.046 2.71925 -2.16042 0
M  V30 9025 C 855 2.70261 -3.31878 0
M  V30 9026 C 854.326 4.09864 -3.43388 0
M  V30 9027 C 855.626 2.30667 -4.68604 0
M  V30 9028 H 857.32 1.06709 -2.79738 0
M  V30 9029 H 854.866 0.511884 -1.34595 0
M  V30 9030 H 856.819 3.46992 -2.39113 0
M  V30 9031 H 855.543 3.02523 -1.23074 0
M  V30 9032 H 854.202 1.97651 -3.08755 0
M  V30 9033 H 853.85 4.37664 -2.47909 0
M  V30 9034 H 853.55 4.09648 -4.21262 0
M  V30 9035 H 855.074 4.86689 -3.68736 0
M  V30 9036 H 856.488 2.95453 -4.91305 0
M  V30 9037 H 854.885 2.41637 -5.49301 0
M  V30 9038 H 855.955 1.25793 -4.68299 0
M  V30 9039 N 857.298 1.47698 0.54982 0
M  V30 9040 C 858.208 1.63386 1.68351 0
M  V30 9041 C 859.224 0.516583 1.66155 0
M  V30 9042 O 860.4 0.785088 1.85468 0
M  V30 9043 C 857.465 1.6513 3.04849 0
M  V30 9044 C 856.526 2.88338 3.18056 0
M  V30 9045 C 855.759 2.8999 4.48042 0
M  V30 9046 O 855.982 2.00633 5.3395 0
M  V30 9047 O 854.916 3.81938 4.65196 0
M  V30 9048 H 858.742 2.59329 1.58057 0
M  V30 9049 H 856.327 1.30869 0.72067 0
M  V30 9050 H 858.209 1.68913 3.86065 0
M  V30 9051 H 856.884 0.723555 3.1551 0
M  V30 9052 H 855.791 2.90097 2.36209 0
M  V30 9053 H 857.124 3.80431 3.12302 0
M  V30 9054 N 858.776 -0.797141 1.35954 0
M  V30 9055 C 859.724 -1.93084 1.29697 0
M  V30 9056 C 860.718 -1.68329 0.190152 0
M  V30 9057 O 861.924 -1.7643 0.3567 0
M  V30 9058 H 858.299 -0.634531 0.403577 0
M  V30 9059 H 860.27 -1.95481 2.25455 0
M  V30 9060 C 859.019 -3.29996 1.09536 0
M  V30 9061 H 858.342 -3.49607 1.93946 0
M  V30 9062 H 859.782 -4.09696 1.09202 0
M  V30 9063 C 858.241 -3.36304 -0.200381 0
M  V30 9064 O 858.771 -3.83579 -1.19291 0
M  V30 9065 N 856.977 -2.89587 -0.242406 0
M  V30 9066 H 856.524 -2.51307 0.565897 0
M  V30 9067 H 856.482 -2.94189 -1.10906 0
M  V30 9068 N 860.254 -1.20106 -1.0204 0
M  V30 9069 C 861.217 -0.948261 -2.08664 0
M  V30 9070 C 862.217 0.0746753 -1.60627 0
M  V30 9071 O 863.407 -0.160981 -1.73455 0
M  V30 9072 C 860.539 -0.426854 -3.38217 0
M  V30 9073 H 861.732 -1.894 -2.32524 0
M  V30 9074 H 859.285 -1.0159 -1.18782 0
M  V30 9075 H 860.02 0.524532 -3.2003 0
M  V30 9076 H 859.805 -1.16451 -3.74408 0
M  V30 9077 H 861.295 -0.269346 -4.1673 0
M  V30 9078 N 861.732 1.21287 -1.00634 0
M  V30 9079 C 862.642 2.27388 -0.577226 0
M  V30 9080 C 863.658 1.69791 0.380399 0
M  V30 9081 O 864.834 1.99918 0.2439 0
M  V30 9082 C 861.899 3.46588 0.0880532 0
M  V30 9083 C 860.96 4.19453 -0.914222 0
M  V30 9084 C 860.193 5.32962 -0.280596 0
M  V30 9085 O 860.416 5.62895 0.922265 0
M  V30 9086 O 859.35 5.93666 -0.992196 0
M  V30 9087 H 863.176 2.66289 -1.46028 0
M  V30 9088 H 860.761 1.2771 -0.775283 0
M  V30 9089 H 862.643 4.18881 0.460094 0
M  V30 9090 H 861.318 3.09585 0.945461 0
M  V30 9091 H 860.225 3.49376 -1.33744 0
M  V30 9092 H 861.558 4.6037 -1.74126 0
M  V30 9093 N 863.21 0.781244 1.36873 0
M  V30 9094 C 864.12 0.174981 2.33947 0
M  V30 9095 C 865.136 -0.668512 1.60645 0
M  V30 9096 O 866.312 -0.586213 1.9268 0
M  V30 9097 C 863.377 -0.686557 3.39834 0
M  V30 9098 C 862.438 0.174489 4.28945 0
M  V30 9099 C 861.671 -0.646024 5.29776 0
M  V30 9100 O 861.894 -1.88254 5.38439 0
M  V30 9101 O 860.828 -0.0502214 6.01879 0
M  V30 9102 H 864.654 0.977382 2.87543 0
M  V30 9103 H 862.239 0.542559 1.392 0
M  V30 9104 H 864.121 -1.1781 4.04597 0
M  V30 9105 H 862.796 -1.46699 2.8855 0
M  V30 9106 H 861.703 0.712604 3.6725 0
M  V30 9107 H 863.036 0.918232 4.83559 0
M  V30 9108 N 864.689 -1.48329 0.532571 0
M  V30 9109 C 865.639 -2.2664 -0.24868 0
M  V30 9110 C 866.623 -1.32861 -0.907563 0
M  V30 9111 O 867.815 -1.57382 -0.809942 0
M  V30 9112 C 864.944 -3.18004 -1.29339 0
M  V30 9113 C 864.03 -4.19256 -0.639166 0
M  V30 9114 N 864.421 -5.05043 0.276597 0
M  V30 9115 C 862.719 -4.36906 -0.896062 0
M  V30 9116 C 863.42 -5.78009 0.654261 0
M  V30 9117 N 862.396 -5.43598 0.0147447 0
M  V30 9118 H 866.198 -2.90344 0.455792 0
M  V30 9119 H 863.712 -1.58566 0.350778 0
M  V30 9120 H 865.709 -3.72767 -1.86682 0
M  V30 9121 H 864.369 -2.55855 -1.99921 0
M  V30 9122 H 865.38 -5.13813 0.649351 0
M  V30 9123 H 862.057 -3.85945 -1.59226 0
M  V30 9124 H 863.447 -6.57039 1.40532 0
M  V30 9125 N 866.167 -0.267825 -1.55308 0
M  V30 9126 C 867.416 0.351635 -1.98611 0
M  V30 9127 C 867.729 1.57522 -1.15957 0
M  V30 9128 O 868.935 2.26717 -1.49371 0
M  V30 9129 C 867.391 0.676986 -3.53475 0
M  V30 9130 C 866.999 -0.526385 -4.44897 0
M  V30 9131 C 868.743 1.25948 -4.05386 0
M  V30 9132 C 866.65 -0.176026 -5.91138 0
M  V30 9133 H 865.58 0.13516 -0.741787 0
M  V30 9134 H 868.231 -0.371333 -1.79704 0
M  V30 9135 H 866.613 1.45866 -3.68156 0
M  V30 9136 H 867.787 -1.30339 -4.41982 0
M  V30 9137 H 866.102 -1.02522 -4.03582 0
M  V30 9138 H 868.699 1.53529 -5.12184 0
M  V30 9139 H 869.042 2.19094 -3.53982 0
M  V30 9140 H 869.575 0.540253 -3.94114 0
M  V30 9141 H 866.314 -1.07518 -6.46622 0
M  V30 9142 H 865.834 0.564363 -5.97139 0
M  V30 9143 H 867.513 0.234365 -6.46575 0
M  V30 9144 N 867.645 1.57599 0.00500368 0
M  V30 9145 C 868.873 1.94626 0.702016 0
M  V30 9146 C 869.288 0.86953 1.67585 0
M  V30 9147 O 868.645 -0.15199 1.81866 0
M  V30 9148 C 868.696 3.31658 1.43824 0
M  V30 9149 O 868.417 4.35197 0.503467 0
M  V30 9150 C 869.918 3.83114 2.23021 0
M  V30 9151 H 867.138 0.641785 0.195841 0
M  V30 9152 H 869.682 2.04451 -0.0446287 0
M  V30 9153 H 867.837 3.23156 2.13655 0
M  V30 9154 H 868.251 5.1444 1.02235 0
M  V30 9155 H 869.725 4.81438 2.7004 0
M  V30 9156 H 870.202 3.15559 3.05482 0
M  V30 9157 H 870.808 3.94775 1.58216 0
M  V30 9158 N 869.123 -0.277682 1.55134 0
M  V30 9159 C 870.055 -1.36531 1.84098 0
M  V30 9160 C 871.068 -1.45756 0.725194 0
M  V30 9161 O 872.257 -1.47656 1.00299 0
M  V30 9162 C 869.357 -2.74701 1.98476 0
M  V30 9163 C 868.53 -2.88125 3.29094 0
M  V30 9164 C 867.589 -4.0694 3.33596 0
M  V30 9165 O 866.615 -3.9792 4.06999 0
M  V30 9166 N 867.817 -5.18687 2.60661 0
M  V30 9167 H 870.582 -1.12032 2.77973 0
M  V30 9168 H 868.143 -0.467793 1.54995 0
M  V30 9169 H 870.135 -3.52471 1.98863 0
M  V30 9170 H 868.705 -2.92043 1.11488 0
M  V30 9171 H 867.925 -1.97277 3.41285 0
M  V30 9172 H 869.213 -2.94021 4.15246 0
M  V30 9173 H 868.611 -5.28901 2.00699 0
M  V30 9174 H 867.168 -5.94705 2.66776 0
M  V30 9175 N 870.601 -1.47988 -0.541979 0
M  V30 9176 C 871.847 -1.55623 -1.30036 0
M  V30 9177 C 872.18 -0.224254 -1.92901 0
M  V30 9178 O 871.455 0.768629 -1.78668 0
M  V30 9179 C 871.738 -2.68562 -2.39888 0
M  V30 9180 C 871.591 -4.11426 -1.81792 0
M  V30 9181 C 872.91 -2.77325 -3.41729 0
M  V30 9182 H 870.029 -0.566498 -0.471433 0
M  V30 9183 H 872.671 -1.8011 -0.604998 0
M  V30 9184 H 870.821 -2.47814 -2.992 0
M  V30 9185 H 872.493 -4.43581 -1.26624 0
M  V30 9186 H 870.736 -4.18989 -1.12386 0
M  V30 9187 H 871.407 -4.8625 -2.61276 0
M  V30 9188 H 873.883 -2.96085 -2.92357 0
M  V30 9189 H 872.759 -3.58097 -4.16002 0
M  V30 9190 H 873.02 -1.84995 -4.01534 0
M  V30 9191 N 872.079 0.78992 -1.36375 0
M  V30 9192 C 873.328 1.54296 -1.29906 0
M  V30 9193 C 873.641 1.95234 0.119651 0
M  V30 9194 O 874.847 2.69762 0.306708 0
M  V30 9195 C 873.303 2.78533 -2.27919 0
M  V30 9196 C 872.911 2.44767 -3.75224 0
M  V30 9197 C 874.655 3.56516 -2.30427 0
M  V30 9198 C 872.562 3.65397 -4.65015 0
M  V30 9199 H 871.492 0.579214 -0.482729 0
M  V30 9200 H 874.143 0.866845 -1.61735 0
M  V30 9201 H 872.525 3.47941 -1.89084 0
M  V30 9202 H 873.699 1.83259 -4.22792 0
M  V30 9203 H 872.014 1.79996 -3.75487 0
M  V30 9204 H 874.611 4.46143 -2.94722 0
M  V30 9205 H 874.954 3.95063 -1.31266 0
M  V30 9206 H 875.487 2.94087 -2.67876 0
M  V30 9207 H 872.226 3.31946 -5.65236 0
M  V30 9208 H 871.746 4.26072 -4.22164 0
M  V30 9209 H 873.425 4.32431 -4.81261 0
M  V30 9210 N 873.557 1.20646 1.01402 0
M  V30 9211 C 874.805 1.01618 1.74695 0
M  V30 9212 C 875.126 -0.452438 1.89679 0
M  V30 9213 O 874.396 -1.32693 1.44116 0
M  V30 9214 H 872.976 0.373013 0.647202 0
M  V30 9215 H 875.638 1.518 1.22241 0
M  V30 9216 H 874.734 1.47666 2.74957 0
M  V30 9217 N 875.035 -1.20752 1.01276 0
M  V30 9218 C 875.985 -2.21252 0.550602 0
M  V30 9219 C 876.969 -1.56052 -0.391985 0
M  V30 9220 O 878.161 -1.75682 -0.215575 0
M  V30 9221 C 875.29 -3.43112 -0.113601 0
M  V30 9222 C 874.376 -4.15485 0.850465 0
M  V30 9223 N 874.767 -4.64301 2.00643 0
M  V30 9224 C 873.065 -4.40932 0.670476 0
M  V30 9225 C 873.766 -5.197 2.61317 0
M  V30 9226 N 872.742 -5.09534 1.8941 0
M  V30 9227 H 876.544 -2.56657 1.43194 0
M  V30 9228 H 874.058 -1.36646 0.877597 0
M  V30 9229 H 876.055 -4.1433 -0.462211 0
M  V30 9230 H 874.715 -3.09213 -0.990825 0
M  V30 9231 H 875.726 -4.59637 2.38651 0
M  V30 9232 H 872.403 -4.17197 -0.159016 0
M  V30 9233 H 873.793 -5.67873 3.59123 0
M  V30 9234 N 876.513 -0.788492 -1.36457 0
M  V30 9235 C 877.738 -0.371224 -2.04051 0
M  V30 9236 C 878.163 1.004 -1.59064 0
M  V30 9237 O 877.521 1.64663 -0.758679 0
M  V30 9238 C 877.569 -0.442275 -3.57877 0
M  V30 9239 O 876.673 0.55113 -4.08701 0
M  V30 9240 H 876.014 -0.157808 -0.644975 0
M  V30 9241 H 878.544 -1.06935 -1.74431 0
M  V30 9242 H 878.554 -0.305548 -4.06854 0
M  V30 9243 H 877.229 -1.44547 -3.89973 0
M  V30 9244 H 875.806 0.37614 -3.70998 0
M  V30 9245 N 877.991 1.48044 -0.54043 0
M  V30 9246 C 878.921 2.32597 0.205178 0
M  V30 9247 C 879.902 1.42748 0.925041 0
M  V30 9248 O 881.087 1.71624 0.908784 0
M  V30 9249 C 878.217 3.24175 1.24612 0
M  V30 9250 C 877.171 4.23131 0.64376 0
M  V30 9251 C 876.497 5.03915 1.78812 0
M  V30 9252 C 877.797 5.20831 -0.39144 0
M  V30 9253 H 879.491 2.95184 -0.500676 0
M  V30 9254 H 877.037 1.41948 -0.242225 0
M  V30 9255 H 878.99 3.82158 1.77576 0
M  V30 9256 H 877.714 2.59608 1.98169 0
M  V30 9257 H 876.373 3.66349 0.135554 0
M  V30 9258 H 876.021 4.35765 2.51232 0
M  V30 9259 H 875.721 5.709 1.39094 0
M  V30 9260 H 877.245 5.64753 2.32134 0
M  V30 9261 H 878.659 5.73277 0.0515064 0
M  V30 9262 H 877.056 5.95926 -0.706569 0
M  V30 9263 H 878.126 4.6733 -1.29345 0
M  V30 9264 N 879.47 0.276058 1.55163 0
M  V30 9265 C 880.881 -0.221516 1.85381 0
M  V30 9266 C 881.232 -1.55372 1.19808 0
M  V30 9267 O 880.357 -2.10855 0.486742 0
M  V30 9268 C 880.952 -0.408706 3.36326 0
M  V30 9269 C 879.511 -0.850512 3.66665 0
M  V30 9270 C 878.658 0.055656 2.77244 0
M  V30 9271 H 881.609 0.497819 1.5069 0
M  V30 9272 H 881.63 -1.24711 3.59482 0
M  V30 9273 H 881.142 0.561052 3.84023 0
M  V30 9274 H 879.243 -1.83171 3.24468 0
M  V30 9275 H 879.356 -0.687181 4.74146 0
M  V30 9276 H 877.72 -0.460819 2.50497 0
M  V30 9277 H 878.503 1.02131 3.27756 0
M  V30 9278 N 880.948 -1.576 0.00335426 0
M  V30 9279 C 881.878 -2.11668 -0.985839 0
M  V30 9280 C 882.859 -1.02661 -1.35627 0
M  V30 9281 O 884.044 -1.30361 -1.43943 0
M  V30 9282 C 881.174 -2.62273 -2.27662 0
M  V30 9283 C 880.128 -3.75837 -2.0477 0
M  V30 9284 C 879.454 -4.12769 -3.39891 0
M  V30 9285 C 880.754 -5.02975 -1.40759 0
M  V30 9286 H 882.448 -2.9457 -0.535637 0
M  V30 9287 H 879.994 -1.41702 -0.256204 0
M  V30 9288 H 881.947 -2.98727 -2.97221 0
M  V30 9289 H 880.671 -1.76498 -2.74802 0
M  V30 9290 H 879.33 -3.39782 -1.37636 0
M  V30 9291 H 878.978 -3.24013 -3.8474 0
M  V30 9292 H 878.678 -4.89281 -3.25389 0
M  V30 9293 H 880.202 -4.51784 -4.1076 0
M  V30 9294 H 881.616 -5.37179 -2.00279 0
M  V30 9295 H 880.013 -5.84315 -1.36734 0
M  V30 9296 H 881.083 -4.83431 -0.377218 0
M  V30 9297 N 882.426 0.269451 -1.5528 0
M  V30 9298 C 883.842 0.616827 -1.47199 0
M  V30 9299 C 884.042 1.89354 -0.68901 0
M  V30 9300 O 883.098 2.51631 -0.209287 0
M  V30 9301 C 884.411 0.740492 -2.9144 0
M  V30 9302 C 885.959 0.834312 -3.01676 0
M  V30 9303 C 886.434 0.989725 -4.47178 0
M  V30 9304 N 887.925 1.05516 -4.51022 0
M  V30 9305 C 888.66 1.19427 -5.60825 0
M  V30 9306 N 888.156 1.30035 -6.80487 0
M  V30 9307 N 889.949 1.22566 -5.48575 0
M  V30 9308 H 882.1 -0.568962 -2.04638 0
M  V30 9309 H 884.363 -0.193153 -0.928114 0
M  V30 9310 H 884.069 -0.127234 -3.5147 0
M  V30 9311 H 883.943 1.61965 -3.40657 0
M  V30 9312 H 886.33 1.6925 -2.4174 0
M  V30 9313 H 886.411 -0.0695298 -2.55705 0
M  V30 9314 H 886.055 0.136179 -5.07717 0
M  V30 9315 H 885.985 1.90827 -4.90808 0
M  V30 9316 H 888.476 0.985434 -3.64825 0
M  V30 9317 H 888.789 1.40494 -7.59922 0
M  V30 9318 H 887.134 1.27033 -6.83292 0
M  V30 9319 H 890.325 1.13911 -4.54029 0
M  V30 9320 H 890.498 1.33063 -6.34191 0
M  V30 9321 N 883.904 1.48273 0.534124 0
M  V30 9322 C 884.852 1.62926 1.66005 0
M  V30 9323 C 885.846 0.495814 1.61982 0
M  V30 9324 O 887.052 0.6744 1.66889 0
M  V30 9325 H 883.427 0.513163 0.549698 0
M  V30 9326 H 885.398 2.57498 1.50789 0
M  V30 9327 C 884.147 1.68231 3.04292 0
M  V30 9328 H 883.47 2.54807 3.0808 0
M  V30 9329 H 884.91 1.82528 3.827 0
M  V30 9330 C 883.369 0.420154 3.3427 0
M  V30 9331 O 883.899 -0.468769 3.98955 0
M  V30 9332 N 882.105 0.293115 2.89118 0
M  V30 9333 H 881.652 1.01745 2.36655 0
M  V30 9334 H 881.61 -0.550376 3.09545 0
M  V30 9335 N 885.382 -0.782676 1.36792 0
M  V30 9336 C 886.292 -1.92679 1.33835 0
M  V30 9337 C 887.308 -1.72344 0.23952 0
M  V30 9338 O 888.484 -1.95766 0.473045 0
M  V30 9339 C 885.549 -3.27644 1.1336 0
M  V30 9340 C 884.61 -3.6071 2.32781 0
M  V30 9341 C 883.843 -4.89234 2.13273 0
M  V30 9342 O 884.066 -5.59468 1.11136 0
M  V30 9343 O 883 -5.21112 3.01208 0
M  V30 9344 H 886.826 -1.98124 2.30175 0
M  V30 9345 H 884.411 -0.923887 1.17408 0
M  V30 9346 H 886.293 -4.08394 1.03886 0
M  V30 9347 H 884.968 -3.23076 0.200868 0
M  V30 9348 H 883.875 -2.80238 2.47825 0
M  V30 9349 H 885.208 -3.70008 3.24584 0
M  V30 9350 N 886.86 -1.21182 -1.00761 0
M  V30 9351 C 887.823 -0.970339 -2.07646 0
M  V30 9352 C 888.823 0.0576345 -1.60697 0
M  V30 9353 O 890.013 -0.179369 -1.73274 0
M  V30 9354 C 887.145 -0.462703 -3.37745 0
M  V30 9355 H 888.338 -1.91856 -2.30502 0
M  V30 9356 H 885.891 -1.02844 -1.17698 0
M  V30 9357 H 886.626 0.490559 -3.20568 0
M  V30 9358 H 886.411 -1.20416 -3.73152 0
M  V30 9359 H 887.901 -0.313531 -4.16421 0
M  V30 9360 N 888.338 1.20213 -1.01915 0
M  V30 9361 C 889.585 1.89647 -0.709955 0
M  V30 9362 C 889.913 1.7901 0.760631 0
M  V30 9363 O 889.168 1.17028 1.56853 0
M  V30 9364 C 889.467 3.40232 -1.09438 0
M  V30 9365 C 889.133 3.7107 -2.5616 0
M  V30 9366 C 887.795 3.79196 -2.96249 0
M  V30 9367 C 890.147 3.85169 -3.51133 0
M  V30 9368 C 887.475 3.98882 -4.30244 0
M  V30 9369 C 889.827 4.06365 -4.8482 0
M  V30 9370 C 888.491 4.12722 -5.24611 0
M  V30 9371 H 887.761 0.693967 -0.259791 0
M  V30 9372 H 890.408 1.42419 -1.2802 0
M  V30 9373 H 888.713 3.89292 -0.442596 0
M  V30 9374 H 890.41 3.92257 -0.832811 0
M  V30 9375 H 887 3.65346 -2.24099 0
M  V30 9376 H 891.184 3.78243 -3.21319 0
M  V30 9377 H 886.44 4.02039 -4.60624 0
M  V30 9378 H 890.614 4.16216 -5.58334 0
M  V30 9379 H 888.241 4.27728 -6.28453 0
M  V30 9380 N 889.816 0.795718 1.36037 0
M  V30 9381 C 891.044 0.383153 2.03321 0
M  V30 9382 C 891.459 -1.00246 1.59988 0
M  V30 9383 O 890.816 -1.64406 0.792265 0
M  V30 9384 C 890.867 0.444467 3.58757 0
M  V30 9385 O 890.588 1.77544 4.00512 0
M  V30 9386 C 892.089 0.0233291 4.43294 0
M  V30 9387 H 889.309 0.157061 0.652359 0
M  V30 9388 H 891.853 1.07632 1.73884 0
M  V30 9389 H 890.008 -0.200341 3.86882 0
M  V30 9390 H 890.422 1.73065 4.95125 0
M  V30 9391 H 891.896 0.117361 5.51875 0
M  V30 9392 H 892.373 -1.03007 4.2695 0
M  V30 9393 H 892.979 0.64087 4.20444 0
M  V30 9394 N 891.294 -1.47756 0.548274 0
M  V30 9395 C 892.542 -2.02089 0.0208542 0
M  V30 9396 C 892.863 -1.42589 -1.33017 0
M  V30 9397 O 892.133 -0.597825 -1.86555 0
M  V30 9398 H 890.713 -0.746985 0.00472023 0
M  V30 9399 H 893.375 -1.81262 0.716257 0
M  V30 9400 H 892.471 -3.12012 -0.0739016 0
M  V30 9401 N 892.772 -0.284283 -1.55015 0
M  V30 9402 C 894.183 0.211681 -1.85496 0
M  V30 9403 C 894.534 1.54735 -1.2063 0
M  V30 9404 O 893.659 2.10594 -0.497918 0
M  V30 9405 C 894.254 0.390864 -3.36538 0
M  V30 9406 C 892.813 0.831055 -3.67111 0
M  V30 9407 C 891.96 -0.0703581 -2.77211 0
M  V30 9408 H 894.911 -0.505803 -1.50424 0
M  V30 9409 H 894.932 1.22803 -3.60138 0
M  V30 9410 H 894.444 -0.581409 -3.8372 0
M  V30 9411 H 892.545 1.81447 -3.25434 0
M  V30 9412 H 892.658 0.662026 -4.74504 0
M  V30 9413 H 891.022 0.447528 -2.50737 0
M  V30 9414 H 891.805 -1.03868 -3.2721 0
M  V30 9415 N 894.251 1.57596 -0.0117121 0
M  V30 9416 C 895.161 2.12596 0.991964 0
M  V30 9417 C 896.177 1.07399 1.36899 0
M  V30 9418 O 897.353 1.39365 1.45394 0
M  V30 9419 C 894.418 2.62796 2.2614 0
M  V30 9420 C 893.479 3.8264 1.94642 0
M  V30 9421 C 892.712 4.30435 3.15533 0
M  V30 9422 O 892.935 3.77495 4.27614 0
M  V30 9423 O 891.869 5.22469 2.98847 0
M  V30 9424 H 895.695 2.98597 0.554371 0
M  V30 9425 H 893.28 1.47947 0.207839 0
M  V30 9426 H 895.162 2.9523 3.00695 0
M  V30 9427 H 893.837 1.79886 2.69114 0
M  V30 9428 H 892.744 3.5516 1.17526 0
M  V30 9429 H 894.077 4.66658 1.56496 0
M  V30 9430 N 895.729 -0.261212 1.5542 0
M  V30 9431 C 896.954 -1.01341 1.80955 0
M  V30 9432 C 897.379 -1.78711 0.586849 0
M  V30 9433 O 896.737 -1.75266 -0.463837 0
M  V30 9434 C 896.785 -1.93835 3.04073 0
M  V30 9435 O 895.889 -3.02791 2.79985 0
M  V30 9436 H 895.23 -0.289123 0.597749 0
M  V30 9437 H 897.76 -0.286543 2.02584 0
M  V30 9438 H 897.77 -2.3557 3.33123 0
M  V30 9439 H 896.445 -1.36936 3.9271 0
M  V30 9440 H 895.022 -2.65287 2.62063 0
M  V30 9441 N 897.207 -1.48554 -0.526253 0
M  V30 9442 C 898.17 -1.62868 -1.61266 0
M  V30 9443 C 899.17 -0.501762 -1.52771 0
M  V30 9444 O 900.36 -0.76764 -1.56374 0
M  V30 9445 C 897.492 -1.60238 -3.00893 0
M  V30 9446 H 898.685 -2.59742 -1.49913 0
M  V30 9447 H 896.238 -1.37207 -0.748595 0
M  V30 9448 H 896.973 -0.648545 -3.17749 0
M  V30 9449 H 896.758 -2.42054 -3.08468 0
M  V30 9450 H 898.248 -1.73455 -3.79872 0
M  V30 9451 N 898.685 0.775411 -1.37205 0
M  V30 9452 C 899.933 1.53081 -1.3195 0
M  V30 9453 C 900.254 1.9476 0.0966864 0
M  V30 9454 O 899.524 1.66019 1.03993 0
M  V30 9455 H 898.104 0.567762 -0.485444 0
M  V30 9456 H 900.766 0.92309 -1.71654 0
M  V30 9457 H 899.862 2.4319 -1.95614 0
M  V30 9458 N 900.163 1.21714 1.00117 0
M  V30 9459 C 901.411 1.03465 1.73607 0
M  V30 9460 C 901.732 -0.432295 1.90148 0
M  V30 9461 O 901.002 -1.31157 1.45515 0
M  V30 9462 H 899.582 0.379857 0.643209 0
M  V30 9463 H 902.244 1.53088 1.20624 0
M  V30 9464 H 901.34 1.50574 2.73375 0
M  V30 9465 N 901.641 -1.19671 1.02551 0
M  V30 9466 C 902.551 -2.26441 0.613329 0
M  V30 9467 C 903.567 -1.70375 -0.353339 0
M  V30 9468 O 904.743 -2.0028 -0.212064 0
M  V30 9469 C 901.808 -3.46684 -0.0329028 0
M  V30 9470 C 900.869 -4.17945 0.980837 0
M  V30 9471 C 900.102 -5.32448 0.36535 0
M  V30 9472 O 900.325 -5.64291 -0.832596 0
M  V30 9473 O 899.259 -5.92012 1.08652 0
M  V30 9474 H 903.085 -2.63932 1.50246 0
M  V30 9475 H 900.67 -1.2646 0.795502 0
M  V30 9476 H 902.552 -4.1956 -0.393395 0
M  V30 9477 H 901.227 -3.1105 -0.896089 0
M  V30 9478 H 900.134 -3.47204 1.39286 0
M  V30 9479 H 901.467 -4.57542 1.81428 0
M  V30 9480 N 903.119 -0.802921 -1.35613 0
M  V30 9481 C 904.396 -0.304993 -1.93208 0
M  V30 9482 C 904.776 1.20488 -1.73337 0
M  V30 9483 O 904.124 2.00268 -1.10022 0
M  V30 9484 C 904.334 -0.712383 -3.41652 0
M  V30 9485 C 905.682 -0.699785 -4.18794 0
M  V30 9486 O 906.706 -0.653698 -3.5015 0
M  V30 9487 O 905.565 -0.754842 -5.41262 0
M  V30 9488 H 902.659 -0.0789127 -0.823226 0
M  V30 9489 H 905.205 -0.886372 -1.44712 0
M  V30 9490 H 903.977 -1.75316 -3.49829 0
M  V30 9491 H 903.6 -0.105614 -3.9746 0
M  V30 9492 N 904.597 1.47463 -0.556102 0
M  V30 9493 C 905.507 2.33785 0.195378 0
M  V30 9494 C 906.523 1.48123 0.913 0
M  V30 9495 O 907.699 1.81053 0.882141 0
M  V30 9496 C 904.764 3.24795 1.21282 0
M  V30 9497 C 903.825 4.26346 0.502747 0
M  V30 9498 C 903.058 5.13007 1.47172 0
M  V30 9499 O 903.281 5.02103 2.70646 0
M  V30 9500 O 902.215 5.93588 0.996814 0
M  V30 9501 H 906.041 2.99341 -0.512676 0
M  V30 9502 H 903.626 1.46004 -0.31673 0
M  V30 9503 H 905.508 3.81015 1.80016 0
M  V30 9504 H 904.183 2.61868 1.90282 0
M  V30 9505 H 903.09 3.73889 -0.125757 0
M  V30 9506 H 904.423 4.91984 -0.145779 0
M  V30 9507 N 906.075 0.2925 1.54862 0
M  V30 9508 C 907.303 -0.322113 2.04377 0
M  V30 9509 C 907.718 -1.48164 1.17016 0
M  V30 9510 O 907.075 -1.81466 0.19395 0
M  V30 9511 C 907.126 -0.786506 3.5284 0
M  V30 9512 O 906.847 0.326863 4.36879 0
M  V30 9513 C 908.348 -1.46715 4.18318 0
M  V30 9514 H 905.568 -0.0712074 0.667211 0
M  V30 9515 H 908.112 0.429657 1.99935 0
M  V30 9516 H 906.267 -1.48832 3.5767 0
M  V30 9517 H 906.681 -0.0331558 5.2449 0
M  V30 9518 H 908.155 -1.74333 5.23748 0
M  V30 9519 H 908.632 -2.40443 3.67538 0
M  V30 9520 H 909.238 -0.808735 4.1754 0
M  V30 9521 N 907.553 -1.57587 0.0200696 0
M  V30 9522 C 908.799 -1.91708 -0.661503 0
M  V30 9523 C 909.132 -0.895968 -1.72296 0
M  V30 9524 O 908.407 0.082577 -1.94325 0
M  V30 9525 C 908.69 -3.36344 -1.28627 0
M  V30 9526 C 908.543 -4.49186 -0.234982 0
M  V30 9527 C 909.862 -3.80771 -2.20685 0
M  V30 9528 H 906.981 -0.69717 -0.239005 0
M  V30 9529 H 909.623 -1.8985 0.0754764 0
M  V30 9530 H 907.773 -3.38058 -1.91439 0
M  V30 9531 H 909.445 -4.59606 0.395011 0
M  V30 9532 H 907.688 -4.31557 0.440565 0
M  V30 9533 H 908.359 -5.47395 -0.711558 0
M  V30 9534 H 910.835 -3.80735 -1.67868 0
M  V30 9535 H 909.711 -4.82685 -2.61356 0
M  V30 9536 H 909.972 -3.15764 -3.09428 0
M  V30 9537 N 909.032 0.252966 -1.55557 0
M  V30 9538 C 910.281 0.979736 -1.76307 0
M  V30 9539 C 910.594 1.86714 -0.582871 0
M  V30 9540 O 911.8 2.6302 -0.673247 0
M  V30 9541 C 910.256 1.79205 -3.12112 0
M  V30 9542 C 909.864 0.952333 -4.37761 0
M  V30 9543 C 911.608 2.51191 -3.42203 0
M  V30 9544 C 909.515 1.76018 -5.64599 0
M  V30 9545 H 908.445 0.369538 -0.657235 0
M  V30 9546 H 911.096 0.234619 -1.81994 0
M  V30 9547 H 909.478 2.57888 -3.00515 0
M  V30 9548 H 910.652 0.208251 -4.60329 0
M  V30 9549 H 908.967 0.346082 -4.14959 0
M  V30 9550 H 911.564 3.12074 -4.34182 0
M  V30 9551 H 911.907 3.22499 -2.63249 0
M  V30 9552 H 912.44 1.79523 -3.54988 0
M  V30 9553 H 909.179 1.09095 -6.46358 0
M  V30 9554 H 908.699 2.4797 -5.46142 0
M  V30 9555 H 910.378 2.32884 -6.03634 0
M  V30 9556 N 910.51 1.48831 0.518367 0
M  V30 9557 C 911.758 1.57128 1.27103 0
M  V30 9558 C 912.079 0.252098 1.93364 0
M  V30 9559 O 911.349 -0.727281 1.819 0
M  V30 9560 H 909.929 0.578891 0.472116 0
M  V30 9561 H 912.591 1.85361 0.602262 0
M  V30 9562 H 911.687 2.35838 2.04418 0
M  V30 9563 N 911.988 -0.768124 1.37614 0
M  V30 9564 C 913.234 -1.52823 1.34226 0
M  V30 9565 C 913.589 -1.92266 -0.0717482 0
M  V30 9566 O 912.882 -1.61484 -1.03119 0
M  V30 9567 C 913.076 -2.80204 2.21856 0
M  V30 9568 C 912.905 -2.53213 3.71636 0
M  V30 9569 C 911.675 -2.47159 4.40727 0
M  V30 9570 C 913.873 -2.20965 4.64413 0
M  V30 9571 N 911.855 -2.12289 5.76026 0
M  V30 9572 C 913.226 -1.96264 5.88116 0
M  V30 9573 C 915.281 -2.07151 4.52761 0
M  V30 9574 C 913.984 -1.59145 7.01474 0
M  V30 9575 C 916.01 -1.71432 5.66008 0
M  V30 9576 C 915.372 -1.47594 6.88764 0
M  V30 9577 H 911.471 -0.559388 0.546451 0
M  V30 9578 H 914.055 -0.895795 1.72869 0
M  V30 9579 H 912.226 -3.4128 1.85424 0
M  V30 9580 H 913.958 -3.46133 2.097 0
M  V30 9581 H 910.713 -2.63137 3.93772 0
M  V30 9582 H 911.137 -1.97541 6.47539 0
M  V30 9583 H 915.779 -2.24262 3.58422 0
M  V30 9584 H 913.497 -1.40773 7.95744 0
M  V30 9585 H 917.083 -1.61397 5.58965 0
M  V30 9586 H 915.963 -1.20365 7.74908 0
M  V30 9587 N 913.466 -1.22244 -0.994698 0
M  V30 9588 C 914.743 -0.954459 -1.70732 0
M  V30 9589 C 915.123 0.530945 -2.04314 0
M  V30 9590 O 914.471 1.49851 -1.72502 0
M  V30 9591 C 914.681 -1.85016 -2.95922 0
M  V30 9592 C 916.029 -2.10517 -3.68738 0
M  V30 9593 O 917.053 -1.82449 -3.05926 0
M  V30 9594 O 915.912 -2.58044 -4.81742 0
M  V30 9595 H 913.006 -0.35879 -0.745116 0
M  V30 9596 H 915.552 -1.33221 -1.0512 0
M  V30 9597 H 914.324 -2.85498 -2.67594 0
M  V30 9598 H 913.947 -1.47388 -3.69273 0
M  V30 9599 N 914.944 1.19125 -1.03184 0
M  V30 9600 C 915.877 2.21229 -0.559739 0
M  V30 9601 C 916.855 1.57578 0.400998 0
M  V30 9602 O 918.039 1.85809 0.317399 0
M  V30 9603 C 915.166 3.38203 0.183442 0
M  V30 9604 C 914.212 4.2022 -0.729182 0
M  V30 9605 S 915.045 4.87903 -2.20706 0
M  V30 9606 C 916.201 6.08284 -1.47448 0
M  V30 9607 H 916.434 2.60932 -1.42484 0
M  V30 9608 H 913.967 1.29419 -0.842028 0
M  V30 9609 H 915.925 4.06001 0.606084 0
M  V30 9610 H 914.586 2.96929 1.02432 0
M  V30 9611 H 913.779 5.03761 -0.155272 0
M  V30 9612 H 913.381 3.57755 -1.09028 0
M  V30 9613 H 915.673 6.73193 -0.762687 0
M  V30 9614 H 916.616 6.70165 -2.28659 0
M  V30 9615 H 917.024 5.56092 -0.97068 0
M  V30 9616 N 916.422 0.810101 1.35185 0
M  V30 9617 C 917.385 0.22852 2.28058 0
M  V30 9618 C 918.385 -0.586168 1.49735 0
M  V30 9619 O 919.575 -0.40414 1.69447 0
M  V30 9620 C 916.707 -0.681041 3.34028 0
M  V30 9621 H 917.9 1.04768 2.81005 0
M  V30 9622 H 915.453 0.58101 1.451 0
M  V30 9623 H 916.188 -1.52375 2.86273 0
M  V30 9624 H 915.973 -0.0985276 3.91976 0
M  V30 9625 H 917.463 -1.08217 4.03335 0
M  V30 9626 N 917.9 -1.47166 0.563914 0
M  V30 9627 C 919.149 -2.0166 0.0401871 0
M  V30 9628 C 919.462 -1.44303 -1.32046 0
M  V30 9629 O 920.668 -1.905 -1.93448 0
M  V30 9630 C 919.124 -3.59894 0.0213257 0
M  V30 9631 C 918.732 -4.26244 1.37914 0
M  V30 9632 C 920.476 -4.22114 -0.449442 0
M  V30 9633 C 918.383 -5.76503 1.31902 0
M  V30 9634 H 917.313 -0.753916 0.0112534 0
M  V30 9635 H 919.964 -1.69091 0.712766 0
M  V30 9636 H 918.346 -3.89454 -0.717038 0
M  V30 9637 H 919.52 -4.08317 2.13574 0
M  V30 9638 H 917.835 -3.76039 1.78839 0
M  V30 9639 H 920.432 -5.32234 -0.51292 0
M  V30 9640 H 920.775 -3.89749 -1.46291 0
M  V30 9641 H 921.308 -3.9711 0.23427 0
M  V30 9642 H 918.047 -6.13498 2.3087 0
M  V30 9643 H 917.567 -5.96748 0.604324 0
M  V30 9644 H 919.246 -6.38846 1.02392 0
M  V30 9645 N 919.378 -0.300708 -1.54705 0
M  V30 9646 C 920.328 0.590589 -2.20218 0
M  V30 9647 C 921.312 1.09913 -1.17507 0
M  V30 9648 O 922.504 1.03995 -1.43227 0
M  V30 9649 C 919.633 1.76214 -2.94625 0
M  V30 9650 C 918.719 1.26957 -4.04651 0
M  V30 9651 N 919.11 0.494982 -5.03372 0
M  V30 9652 C 917.408 1.55033 -4.18188 0
M  V30 9653 C 918.109 0.232724 -5.81234 0
M  V30 9654 N 917.085 0.812443 -5.37494 0
M  V30 9655 H 920.887 -0.00876354 -2.93899 0
M  V30 9656 H 918.401 -0.105456 -1.62057 0
M  V30 9657 H 920.398 2.41221 -3.40027 0
M  V30 9658 H 919.058 2.36519 -2.22461 0
M  V30 9659 H 920.069 0.13991 -5.17711 0
M  V30 9660 H 916.746 2.16089 -3.57228 0
M  V30 9661 H 918.136 -0.389362 -6.70771 0
M  V30 9662 N 920.856 1.57574 -0.0284266 0
M  V30 9663 C 921.819 2.09096 0.938691 0
M  V30 9664 C 922.819 1.00588 1.25454 0
M  V30 9665 O 924.009 1.2675 1.19499 0
M  V30 9666 C 921.141 2.55624 2.25542 0
M  V30 9667 H 922.334 2.95829 0.49248 0
M  V30 9668 H 919.887 1.5475 0.219594 0
M  V30 9669 H 920.622 1.72218 2.74793 0
M  V30 9670 H 920.407 3.34896 2.03929 0
M  V30 9671 H 921.897 2.95712 2.94863 0
M  V30 9672 N 922.334 -0.244713 1.55689 0
M  V30 9673 C 923.58 -0.973886 1.77886 0
M  V30 9674 C 923.913 -1.8489 0.594071 0
M  V30 9675 O 923.188 -1.90182 -0.407564 0
M  V30 9676 C 923.471 -1.83255 3.09983 0
M  V30 9677 C 923.324 -0.985571 4.3887 0
M  V30 9678 C 924.643 -2.81464 3.38329 0
M  V30 9679 H 921.762 -0.352629 0.647165 0
M  V30 9680 H 924.404 -0.244243 1.88424 0
M  V30 9681 H 922.554 -2.45464 3.01131 0
M  V30 9682 H 924.226 -0.382005 4.59716 0
M  V30 9683 H 922.469 -0.29002 4.32829 0
M  V30 9684 H 923.14 -1.62022 5.27686 0
M  V30 9685 H 925.616 -2.2939 3.47159 0
M  V30 9686 H 924.492 -3.38663 4.31971 0
M  V30 9687 H 924.753 -3.58037 2.59349 0
M  V30 9688 N 923.813 -1.49104 -0.510467 0
M  V30 9689 C 924.776 -1.64569 -1.59529 0
M  V30 9690 C 925.776 -0.517937 -1.5223 0
M  V30 9691 O 926.966 -0.784183 -1.55551 0
M  V30 9692 C 924.098 -1.6342 -2.99177 0
M  V30 9693 H 925.291 -2.61318 -1.4715 0
M  V30 9694 H 922.844 -1.37993 -0.734001 0
M  V30 9695 H 923.579 -0.68221 -3.17043 0
M  V30 9696 H 923.364 -2.45312 -3.05883 0
M  V30 9697 H 924.854 -1.77474 -3.78011 0
M  V30 9698 N 925.291 0.760815 -1.38019 0
M  V30 9699 C 926.54 1.51506 -1.3315 0
M  V30 9700 C 926.853 1.95444 0.0782124 0
M  V30 9701 O 928.059 2.70352 0.249418 0
M  V30 9702 C 926.515 2.73636 -2.33776 0
M  V30 9703 C 926.123 2.36753 -3.80332 0
M  V30 9704 C 927.867 3.51548 -2.37937 0
M  V30 9705 C 925.774 3.55451 -4.72661 0
M  V30 9706 H 924.704 0.568844 -0.494907 0
M  V30 9707 H 927.355 0.832343 -1.63537 0
M  V30 9708 H 925.737 3.43852 -1.96422 0
M  V30 9709 H 926.911 1.7425 -4.26584 0
M  V30 9710 H 925.226 1.71991 -3.7922 0
M  V30 9711 H 927.823 4.39791 -3.04119 0
M  V30 9712 H 928.166 3.9219 -1.39617 0
M  V30 9713 H 928.699 2.88339 -2.74054 0
M  V30 9714 H 925.438 3.19882 -5.7215 0
M  V30 9715 H 924.958 4.17022 -4.31107 0
M  V30 9716 H 926.637 4.22125 -4.90326 0
M  V30 9717 N 926.769 1.22769 0.988202 0
M  V30 9718 C 928.18 1.0512 1.54294 0
M  V30 9719 C 928.531 -0.383904 1.92407 0
M  V30 9720 O 927.656 -1.26955 1.75246 0
M  V30 9721 C 928.251 1.90198 2.80375 0
M  V30 9722 C 926.81 1.76831 3.32276 0
M  V30 9723 C 925.957 1.86377 2.05326 0
M  V30 9724 H 928.908 1.36546 0.808758 0
M  V30 9725 H 928.929 1.42216 3.52923 0
M  V30 9726 H 928.441 2.9464 2.52605 0
M  V30 9727 H 926.542 0.751412 3.64945 0
M  V30 9728 H 926.655 2.59771 4.02562 0
M  V30 9729 H 925.019 1.2987 2.19103 0
M  V30 9730 H 925.802 2.9236 1.79946 0
M  V30 9731 N 928.247 -1.18576 1.03814 0
M  V30 9732 C 929.472 -1.92978 0.759873 0
M  V30 9733 C 929.897 -1.75514 -0.676486 0
M  V30 9734 O 929.255 -1.06359 -1.46824 0
M  V30 9735 C 929.303 -3.42507 1.12788 0
M  V30 9736 O 928.407 -4.1163 0.251886 0
M  V30 9737 H 927.748 -0.602129 0.279886 0
M  V30 9738 H 930.278 -1.50383 1.3873 0
M  V30 9739 H 930.288 -3.93206 1.08872 0
M  V30 9740 H 928.963 -3.5454 2.17427 0
M  V30 9741 H 927.54 -3.7125 0.350441 0
M  V30 9742 N 929.725 -0.817259 -1.34754 0
M  V30 9743 C 930.953 -0.415451 -2.02686 0
M  V30 9744 C 931.368 0.97688 -1.61563 0
M  V30 9745 O 930.725 1.63125 -0.818321 0
M  V30 9746 C 930.776 -0.501486 -3.58005 0
M  V30 9747 O 930.497 -1.83893 -3.97637 0
M  V30 9748 C 931.998 -0.0938504 -4.43201 0
M  V30 9749 H 929.218 -0.16742 -0.649778 0
M  V30 9750 H 931.762 -1.10384 -1.7215 0
M  V30 9751 H 929.917 0.138766 -3.87151 0
M  V30 9752 H 930.331 -1.8092 -4.92309 0
M  V30 9753 H 931.805 -0.205145 -5.51619 0
M  V30 9754 H 932.282 0.962011 -4.28535 0
M  V30 9755 H 932.888 -0.707677 -4.19371 0
M  V30 9756 N 931.203 1.46865 -0.571711 0
M  V30 9757 C 932.452 2.01636 -0.050881 0
M  V30 9758 C 932.765 1.45001 1.31279 0
M  V30 9759 O 933.971 1.91523 1.92435 0
M  V30 9760 C 932.427 3.59877 -0.0404114 0
M  V30 9761 C 932.035 4.25506 -1.40172 0
M  V30 9762 C 933.779 4.22346 0.42705 0
M  V30 9763 C 931.686 5.75795 -1.34958 0
M  V30 9764 H 930.616 0.753846 -0.0152514 0
M  V30 9765 H 933.267 1.68711 -0.721723 0
M  V30 9766 H 931.649 3.89829 0.696374 0
M  V30 9767 H 932.823 4.07178 -2.15737 0
M  V30 9768 H 931.138 3.75086 -1.8083 0
M  V30 9769 H 933.735 5.32499 0.484688 0
M  V30 9770 H 934.078 3.9052 1.44222 0
M  V30 9771 H 934.611 3.9698 -0.255326 0
M  V30 9772 H 931.35 6.12265 -2.3412 0
M  V30 9773 H 930.87 5.96419 -0.635962 0
M  V30 9774 H 932.549 6.38294 -1.05779 0
M  V30 9775 N 932.681 0.308908 1.54543 0
M  V30 9776 C 934.092 -0.182144 1.85809 0
M  V30 9777 C 934.443 -1.52796 1.23076 0
M  V30 9778 O 933.568 -2.09775 0.531358 0
M  V30 9779 C 934.163 -0.337275 3.37117 0
M  V30 9780 C 932.722 -0.772545 3.68387 0
M  V30 9781 C 931.869 0.114451 2.77064 0
M  V30 9782 H 934.82 0.529671 1.496 0
M  V30 9783 H 934.841 -1.17058 3.62046 0
M  V30 9784 H 934.353 0.642382 3.82747 0
M  V30 9785 H 932.454 -1.76247 3.2828 0
M  V30 9786 H 932.567 -0.586453 4.75497 0
M  V30 9787 H 930.931 -0.407581 2.51418 0
M  V30 9788 H 931.714 1.09061 3.25516 0
M  V30 9789 N 934.159 -1.57557 0.0367827 0
M  V30 9790 C 935.407 -1.91735 -0.63892 0
M  V30 9791 C 935.728 -0.914515 -1.72226 0
M  V30 9792 O 934.998 0.0428248 -1.95853 0
M  V30 9793 H 933.578 -0.707738 -0.23899 0
M  V30 9794 H 936.24 -1.94708 0.0863931 0
M  V30 9795 H 935.336 -2.92568 -1.08676 0
M  V30 9796 N 935.637 0.236453 -1.55816 0
M  V30 9797 C 936.585 1.31259 -1.92025 0
M  V30 9798 C 937.579 1.49292 -0.800518 0
M  V30 9799 O 938.785 1.50643 -0.985229 0
M  V30 9800 H 935.16 0.439751 -0.610019 0
M  V30 9801 H 937.131 0.979926 -2.81851 0
M  V30 9802 C 935.88 2.65892 -2.24046 0
M  V30 9803 H 935.203 2.5282 -3.09713 0
M  V30 9804 H 936.643 3.40039 -2.53277 0
M  V30 9805 C 935.102 3.19777 -1.0604 0
M  V30 9806 O 935.632 4.00473 -0.313786 0
M  V30 9807 N 933.838 2.77946 -0.848209 0
M  V30 9808 H 933.385 2.12433 -1.45706 0
M  V30 9809 H 933.343 3.14342 -0.0603424 0
M  V30 9810 N 937.115 1.49373 0.502552 0
M  V30 9811 C 938.078 1.65413 1.58654 0
M  V30 9812 C 939.078 0.526003 1.51953 0
M  V30 9813 O 940.268 0.792421 1.55133 0
M  V30 9814 C 937.4 1.65005 2.98306 0
M  V30 9815 H 938.593 2.62095 1.45762 0
M  V30 9816 H 936.146 1.38381 0.726672 0
M  V30 9817 H 936.881 0.699014 3.16677 0
M  V30 9818 H 936.666 2.46931 3.04578 0
M  V30 9819 H 938.156 1.79477 3.77065 0
M  V30 9820 N 938.594 -0.753485 1.38421 0
M  V30 9821 C 939.824 -1.54049 1.37669 0
M  V30 9822 C 940.232 -1.89167 -0.0353656 0
M  V30 9823 O 939.575 -1.53285 -1.01239 0
M  V30 9824 C 939.637 -2.86777 2.16793 0
M  V30 9825 C 939.301 -2.74196 3.65603 0
M  V30 9826 C 940.298 -2.43985 4.59094 0
M  V30 9827 C 937.983 -2.91645 4.0896 0
M  V30 9828 C 939.977 -2.31379 5.93921 0
M  V30 9829 C 937.664 -2.78658 5.43868 0
M  V30 9830 C 938.662 -2.48568 6.36163 0
M  V30 9831 O 938.35 -2.3564 7.68589 0
M  V30 9832 H 938.082 -0.483276 0.472673 0
M  V30 9833 H 940.636 -0.940267 1.82615 0
M  V30 9834 H 938.866 -3.48988 1.66565 0
M  V30 9835 H 940.555 -3.48289 2.08446 0
M  V30 9836 H 941.321 -2.30172 4.26902 0
M  V30 9837 H 937.2 -3.14063 3.37469 0
M  V30 9838 H 940.744 -2.07813 6.65927 0
M  V30 9839 H 936.641 -2.92044 5.75656 0
M  V30 9840 H 937.409 -2.50851 7.79112 0
M  V30 9841 N 940.072 -1.23292 -0.981677 0
M  V30 9842 C 940.982 -1.02964 -2.10798 0
M  V30 9843 C 941.998 0.0254674 -1.73981 0
M  V30 9844 O 943.174 -0.169706 -2.00684 0
M  V30 9845 C 940.239 -0.621934 -3.41076 0
M  V30 9846 C 939.3 -1.75194 -3.91926 0
M  V30 9847 C 938.533 -1.36359 -5.15986 0
M  V30 9848 O 938.756 -0.247265 -5.69864 0
M  V30 9849 O 937.69 -2.18421 -5.60871 0
M  V30 9850 H 941.516 -1.97354 -2.30836 0
M  V30 9851 H 939.101 -1.01986 -1.09175 0
M  V30 9852 H 940.983 -0.405446 -4.19445 0
M  V30 9853 H 939.658 0.29299 -3.22371 0
M  V30 9854 H 938.565 -2.02305 -3.1468 0
M  V30 9855 H 939.898 -2.64513 -4.15083 0
M  V30 9856 N 941.55 1.18024 -1.04442 0
M  V30 9857 C 942.46 2.25436 -0.649276 0
M  V30 9858 C 943.476 1.70915 0.326189 0
M  V30 9859 O 944.652 2.00592 0.180174 0
M  V30 9860 C 941.717 3.46693 -0.0222558 0
M  V30 9861 C 940.778 4.16332 -1.0472 0
M  V30 9862 C 940.011 5.31799 -0.450011 0
M  V30 9863 O 940.234 5.65544 0.742717 0
M  V30 9864 O 939.168 5.90209 -1.18056 0
M  V30 9865 H 942.994 2.61508 -1.54426 0
M  V30 9866 H 940.579 1.25178 -0.81552 0
M  V30 9867 H 942.461 4.20132 0.326597 0
M  V30 9868 H 941.136 3.12436 0.84649 0
M  V30 9869 H 940.043 3.44944 -1.44792 0
M  V30 9870 H 941.376 4.54598 -1.88684 0
M  V30 9871 N 943.028 0.824394 1.34319 0
M  V30 9872 C 943.958 0.262077 2.32025 0
M  V30 9873 C 944.939 -0.622277 1.58309 0
M  V30 9874 O 946.124 -0.548848 1.86283 0
M  V30 9875 C 943.254 -0.57567 3.42496 0
M  V30 9876 C 942.208 0.21167 4.27476 0
M  V30 9877 C 941.534 -0.748913 5.29429 0
M  V30 9878 C 942.834 1.42068 5.02607 0
M  V30 9879 H 944.528 1.07842 2.79304 0
M  V30 9880 H 942.074 0.520022 1.34282 0
M  V30 9881 H 944.027 -0.979251 4.09864 0
M  V30 9882 H 942.751 -1.42508 2.93869 0
M  V30 9883 H 941.41 0.596636 3.61712 0
M  V30 9884 H 941.058 -1.59432 4.77064 0
M  V30 9885 H 940.758 -0.226313 5.87164 0
M  V30 9886 H 942.282 -1.15032 5.99667 0
M  V30 9887 H 943.696 1.09103 5.62823 0
M  V30 9888 H 942.093 1.87903 5.69923 0
M  V30 9889 H 943.163 2.1981 4.32217 0
M  V30 9890 N 944.506 -1.46559 0.579492 0
M  V30 9891 C 945.469 -2.28739 -0.145371 0
M  V30 9892 C 946.469 -1.38211 -0.821854 0
M  V30 9893 O 947.659 -1.6062 -0.674302 0
M  V30 9894 C 944.791 -3.18507 -1.21515 0
M  V30 9895 H 945.984 -2.94301 0.576786 0
M  V30 9896 H 943.537 -1.52616 0.337327 0
M  V30 9897 H 944.272 -2.57685 -1.96899 0
M  V30 9898 H 944.057 -3.85157 -0.734616 0
M  V30 9899 H 945.547 -3.80369 -1.72363 0
M  V30 9900 N 945.984 -0.3171 -1.54377 0
M  V30 9901 C 947.233 0.288271 -1.99629 0
M  V30 9902 C 947.546 1.53754 -1.2091 0
M  V30 9903 O 948.752 2.2185 -1.56508 0
M  V30 9904 C 947.208 0.564188 -3.5545 0
M  V30 9905 C 946.816 -0.667659 -4.42997 0
M  V30 9906 C 948.56 1.12987 -4.09187 0
M  V30 9907 C 946.467 -0.364003 -5.90279 0
M  V30 9908 H 945.397 0.111492 -0.745711 0
M  V30 9909 H 948.048 -0.428317 -1.78431 0
M  V30 9910 H 946.43 1.34079 -3.72611 0
M  V30 9911 H 947.604 -1.44335 -4.37612 0
M  V30 9912 H 945.919 -1.1531 -4.00116 0
M  V30 9913 H 948.516 1.37157 -5.1681 0
M  V30 9914 H 948.859 2.07722 -3.60773 0
M  V30 9915 H 949.392 0.414595 -3.95634 0
M  V30 9916 H 946.131 -1.28035 -6.42874 0
M  V30 9917 H 945.651 0.374102 -5.98632 0
M  V30 9918 H 947.33 0.0285433 -6.46994 0
M  V30 9919 N 947.462 1.57535 -0.0451378 0
M  V30 9920 C 948.739 1.83785 0.669523 0
M  V30 9921 C 949.119 0.932331 1.89396 0
M  V30 9922 O 948.467 -0.00813229 2.28499 0
M  V30 9923 C 948.677 3.33376 1.03255 0
M  V30 9924 C 950.025 4.00243 1.41741 0
M  V30 9925 O 951.049 3.37965 1.12507 0
M  V30 9926 O 949.908 5.10038 1.96275 0
M  V30 9927 H 947.002 0.758342 0.329919 0
M  V30 9928 H 949.548 1.69538 -0.0740415 0
M  V30 9929 H 948.32 3.90965 0.161777 0
M  V30 9930 H 947.943 3.52787 1.83376 0
M  V30 9931 N 948.94 -0.228186 1.55939 0
M  V30 9932 C 949.85 -1.30386 1.9503 0
M  V30 9933 C 950.866 -1.51645 0.853218 0
M  V30 9934 O 952.042 -1.64904 1.15623 0
M  V30 9935 C 949.107 -2.63489 2.25332 0
M  V30 9936 C 948.168 -2.5059 3.48573 0
M  V30 9937 C 947.401 -3.77345 3.7742 0
M  V30 9938 O 947.624 -4.80067 3.08045 0
M  V30 9939 O 946.558 -3.74855 4.70922 0
M  V30 9940 H 950.384 -1.0022 2.86687 0
M  V30 9941 H 947.969 -0.430503 1.43063 0
M  V30 9942 H 949.851 -3.4211 2.46046 0
M  V30 9943 H 948.526 -2.93349 1.3685 0
M  V30 9944 H 947.433 -1.70191 3.33145 0
M  V30 9945 H 948.766 -2.2567 4.37417 0
M  V30 9946 N 950.418 -1.49637 -0.494624 0
M  V30 9947 C 951.328 -1.69522 -1.62172 0
M  V30 9948 C 952.344 -0.577894 -1.64123 0
M  V30 9949 O 953.52 -0.853382 -1.82426 0
M  V30 9950 C 950.585 -1.7633 -2.9851 0
M  V30 9951 C 949.646 -2.99944 -3.07135 0
M  V30 9952 C 948.879 -3.06419 -4.36971 0
M  V30 9953 O 949.102 -2.20312 -5.26136 0
M  V30 9954 O 948.036 -3.9894 -4.507 0
M  V30 9955 H 951.862 -2.65017 -1.48324 0
M  V30 9956 H 949.447 -1.33454 -0.671603 0
M  V30 9957 H 951.329 -1.83125 -3.7953 0
M  V30 9958 H 950.004 -0.840155 -3.12607 0
M  V30 9959 H 948.911 -2.98664 -2.2528 0
M  V30 9960 H 950.244 -3.9176 -2.97968 0
M  V30 9961 N 951.896 0.746133 -1.38819 0
M  V30 9962 C 952.859 1.84167 -1.36437 0
M  V30 9963 C 953.859 1.58626 -0.263499 0
M  V30 9964 O 955.049 1.66233 -0.520801 0
M  V30 9965 C 952.181 3.21769 -1.12596 0
M  V30 9966 H 953.374 1.87684 -2.33912 0
M  V30 9967 H 950.927 0.948625 -1.24221 0
M  V30 9968 H 951.662 3.23917 -0.15758 0
M  V30 9969 H 951.447 3.41702 -1.92307 0
M  V30 9970 H 952.937 4.0184 -1.13643 0
M  V30 9971 N 953.375 1.23811 0.975125 0
M  V30 9972 C 954.621 1.07495 1.71967 0
M  V30 9973 C 954.954 -0.386451 1.90316 0
M  V30 9974 O 954.229 -1.28591 1.45927 0
M  V30 9975 C 954.512 1.80694 3.11483 0
M  V30 9976 C 954.365 3.3454 3.00671 0
M  V30 9977 C 955.684 1.57367 4.11003 0
M  V30 9978 H 952.803 0.3919 0.624166 0
M  V30 9979 H 955.445 1.52383 1.13487 0
M  V30 9980 H 953.595 1.42538 3.61407 0
M  V30 9981 H 955.267 3.8225 2.5823 0
M  V30 9982 H 953.51 3.63301 2.37054 0
M  V30 9983 H 954.181 3.80951 3.99475 0
M  V30 9984 H 956.657 1.90545 3.69908 0
M  V30 9985 H 955.533 2.11052 5.06703 0
M  V30 9986 H 955.794 0.510221 4.39146 0
M  V30 9987 N 954.853 -1.17469 1.05066 0
M  V30 9988 C 955.816 -2.19648 0.654793 0
M  V30 9989 C 956.816 -1.58107 -0.293063 0
M  V30 9990 O 958.006 -1.74029 -0.077106 0
M  V30 9991 C 955.138 -3.40878 -0.0384437 0
M  V30 9992 H 956.331 -2.56184 1.55915 0
M  V30 9993 H 953.884 -1.31528 0.844396 0
M  V30 9994 H 954.619 -3.09885 -0.956133 0
M  V30 9995 H 954.404 -3.86792 0.642961 0
M  V30 9996 H 955.894 -4.1651 -0.301568 0
M  V30 9997 N 956.331 -0.831506 -1.3388 0
M  V30 9998 C 957.278 -0.257449 -2.2936 0
M  V30 9999 C 958.248 0.622604 -1.5399 0
M  V30 10000 O 959.433 0.562432 -1.82322 0
M  V30 10001 C 956.573 0.567587 -3.404 0
M  V30 10002 C 955.686 -0.335666 -4.30694 0
M  V30 10003 C 954.821 0.499762 -5.28844 0
M  V30 10004 C 953.86 -0.402343 -6.10776 0
M  V30 10005 N 952.997 0.39452 -7.00991 0
M  V30 10006 H 957.837 -1.077 -2.77857 0
M  V30 10007 H 955.374 -0.542589 -1.36727 0
M  V30 10008 H 957.332 1.06133 -4.03474 0
M  V30 10009 H 955.962 1.35217 -2.93115 0
M  V30 10010 H 955.014 -0.94768 -3.68406 0
M  V30 10011 H 956.326 -1.02896 -4.88072 0
M  V30 10012 H 955.48 1.05763 -5.9741 0
M  V30 10013 H 954.219 1.22652 -4.72025 0
M  V30 10014 H 953.224 -0.972288 -5.41135 0
M  V30 10015 H 954.449 -1.12735 -6.69677 0
M  V30 10016 H 952.395 1.1048 -6.4663 0
M  V30 10017 H 952.312 -0.240209 -7.55618 0
M  V30 10018 H 953.58 0.934867 -7.73874 0
M  V30 10019 N 957.809 1.4625 -0.587256 0
M  V30 10020 C 958.719 2.34147 0.145744 0
M  V30 10021 C 959.735 1.50026 0.881376 0
M  V30 10022 O 960.911 1.82884 0.843539 0
M  V30 10023 C 957.976 3.27294 1.14366 0
M  V30 10024 C 957.037 4.27317 0.412199 0
M  V30 10025 C 956.27 5.16013 1.36257 0
M  V30 10026 O 956.493 5.0773 2.59934 0
M  V30 10027 O 955.427 5.95569 0.870681 0
M  V30 10028 H 959.253 2.98187 -0.576055 0
M  V30 10029 H 956.838 1.45299 -0.347628 0
M  V30 10030 H 958.72 3.84747 1.71894 0
M  V30 10031 H 957.395 2.65845 1.84684 0
M  V30 10032 H 956.302 3.73538 -0.205036 0
M  V30 10033 H 957.635 4.91564 -0.250104 0
M  V30 10034 N 959.287 0.325282 1.54207 0
M  V30 10035 C 960.219 -0.57395 2.21897 0
M  V30 10036 C 961.232 -1.0785 1.21952 0
M  V30 10037 O 962.421 -0.991782 1.48411 0
M  V30 10038 C 959.521 -1.8005 2.87115 0
M  V30 10039 C 958.694 -1.43435 4.13213 0
M  V30 10040 C 957.753 -2.51862 4.62009 0
M  V30 10041 O 956.779 -2.15934 5.26651 0
M  V30 10042 N 957.981 -3.8282 4.36382 0
M  V30 10043 H 960.746 0.00566918 2.99699 0
M  V30 10044 H 958.307 0.148563 1.61217 0
M  V30 10045 H 960.299 -2.51981 3.16682 0
M  V30 10046 H 958.869 -2.28792 2.13009 0
M  V30 10047 H 958.089 -0.546598 3.90392 0
M  V30 10048 H 959.377 -1.16544 4.95273 0
M  V30 10049 H 958.775 -4.14807 3.84645 0
M  V30 10050 H 957.332 -4.50976 4.70599 0
M  V30 10051 N 960.765 -1.57509 0.0534917 0
M  V30 10052 C 961.99 -1.97511 -0.632794 0
M  V30 10053 C 962.415 -0.930947 -1.63447 0
M  V30 10054 O 961.773 0.105558 -1.80992 0
M  V30 10055 C 961.821 -3.3658 -1.29407 0
M  V30 10056 O 960.925 -3.3467 -2.40977 0
M  V30 10057 H 960.266 -0.643349 -0.16431 0
M  V30 10058 H 962.796 -2.04232 0.12258 0
M  V30 10059 H 962.806 -3.73359 -1.64521 0
M  V30 10060 H 961.481 -4.12113 -0.559976 0
M  V30 10061 H 960.058 -3.09639 -2.07793 0
M  V30 10062 N 962.243 0.219913 -1.56058 0
M  V30 10063 C 963.492 0.942119 -1.78345 0
M  V30 10064 C 963.805 1.85435 -0.622344 0
M  V30 10065 O 965.011 2.61533 -0.728886 0
M  V30 10066 C 963.467 1.72544 -3.15843 0
M  V30 10067 C 963.075 0.859263 -4.39682 0
M  V30 10068 C 964.819 2.43876 -3.47455 0
M  V30 10069 C 962.726 1.64003 -5.68205 0
M  V30 10070 H 961.656 0.355514 -0.664925 0
M  V30 10071 H 964.307 0.195963 -1.82451 0
M  V30 10072 H 962.689 2.51456 -3.05918 0
M  V30 10073 H 963.863 0.110562 -4.60667 0
M  V30 10074 H 962.178 0.257985 -4.156 0
M  V30 10075 H 964.775 3.02794 -4.40704 0
M  V30 10076 H 965.118 3.16843 -2.7003 0
M  V30 10077 H 965.651 1.71952 -3.58716 0
M  V30 10078 H 962.39 0.953606 -6.48526 0
M  V30 10079 H 961.91 2.3633 -5.51279 0
M  V30 10080 H 963.589 2.20028 -6.08438 0
M  V30 10081 N 963.721 1.49897 0.486681 0
M  V30 10082 C 964.946 1.64106 1.26823 0
M  V30 10083 C 965.371 0.317967 1.85393 0
M  V30 10084 O 964.729 -0.71626 1.66551 0
M  V30 10085 C 964.777 2.72301 2.36399 0
M  V30 10086 O 963.881 2.32469 3.40634 0
M  V30 10087 H 963.222 0.548794 0.373793 0
M  V30 10088 H 965.752 1.96177 0.581017 0
M  V30 10089 H 965.762 2.94906 2.81948 0
M  V30 10090 H 964.437 3.68335 1.93137 0
M  V30 10091 H 963.014 2.20251 3.00905 0
M  V30 10092 N 965.199 -0.738761 1.39212 0
M  V30 10093 C 966.427 -1.52801 1.39497 0
M  V30 10094 C 966.842 -1.88797 -0.0114917 0
M  V30 10095 O 966.199 -1.53835 -0.981887 0
M  V30 10096 C 966.25 -2.81793 2.2644 0
M  V30 10097 O 965.971 -2.47328 3.61608 0
M  V30 10098 C 967.472 -3.75844 2.35067 0
M  V30 10099 H 964.692 -0.472322 0.476606 0
M  V30 10100 H 967.236 -0.913153 1.8298 0
M  V30 10101 H 965.391 -3.3962 1.8638 0
M  V30 10102 H 965.805 -3.30162 4.07545 0
M  V30 10103 H 967.279 -4.6326 3.00157 0
M  V30 10104 H 967.756 -4.17329 1.3687 0
M  V30 10105 H 968.362 -3.23937 2.75581 0
M  V30 10106 N 966.677 -1.24326 -0.968545 0
M  V30 10107 C 967.624 -1.0349 -2.06297 0
M  V30 10108 C 968.594 0.0515333 -1.6602 0
M  V30 10109 O 969.779 -0.102924 -1.90522 0
M  V30 10110 C 966.919 -0.64487 -3.39021 0
M  V30 10111 C 966.032 -1.80469 -3.92498 0
M  V30 10112 C 965.167 -1.36032 -5.13487 0
M  V30 10113 C 964.206 -2.49014 -5.59159 0
M  V30 10114 N 963.343 -2.05451 -6.71367 0
M  V30 10115 H 968.183 -1.97161 -2.23454 0
M  V30 10116 H 965.72 -0.982028 -1.0952 0
M  V30 10117 H 967.678 -0.399771 -4.1528 0
M  V30 10118 H 966.308 0.254845 -3.21792 0
M  V30 10119 H 965.36 -2.16348 -3.12886 0
M  V30 10120 H 966.672 -2.65365 -4.22354 0
M  V30 10121 H 965.826 -1.07405 -5.97117 0
M  V30 10122 H 964.565 -0.481887 -4.85313 0
M  V30 10123 H 963.57 -2.78402 -4.74102 0
M  V30 10124 H 964.795 -3.37413 -5.89346 0
M  V30 10125 H 962.741 -1.20004 -6.4493 0
M  V30 10126 H 962.658 -2.83901 -7.00668 0
M  V30 10127 H 963.926 -1.79962 -7.58442 0
M  V30 10128 N 968.156 1.1691 -1.05688 0
M  V30 10129 C 969.567 1.68915 -0.795273 0
M  V30 10130 C 969.918 1.83968 0.681925 0
M  V30 10131 O 969.043 1.53083 1.52953 0
M  V30 10132 C 969.638 3.06814 -1.43703 0
M  V30 10133 C 968.197 3.55965 -1.22335 0
M  V30 10134 C 967.344 2.32099 -1.51741 0
M  V30 10135 H 970.295 1.01357 -1.22116 0
M  V30 10136 H 970.316 3.70907 -0.849016 0
M  V30 10137 H 969.828 2.95826 -2.51214 0
M  V30 10138 H 967.929 3.72222 -0.16771 0
M  V30 10139 H 968.042 4.38427 -1.9318 0
M  V30 10140 H 966.406 2.36811 -0.937696 0
M  V30 10141 H 967.189 2.23715 -2.60397 0
M  V30 10142 N 969.634 0.838594 1.33437 0
M  V30 10143 C 971.045 0.490934 1.8013 0
M  V30 10144 C 971.396 -0.990024 1.6939 0
M  V30 10145 O 970.521 -1.77139 1.24302 0
M  V30 10146 C 971.116 0.884347 3.27055 0
M  V30 10147 C 969.675 0.588829 3.71766 0
M  V30 10148 C 968.822 1.09282 2.54858 0
M  V30 10149 H 971.773 1.02732 1.20962 0
M  V30 10150 H 971.794 0.194283 3.80004 0
M  V30 10151 H 971.306 1.96225 3.34839 0
M  V30 10152 H 969.407 -0.479018 3.69508 0
M  V30 10153 H 969.52 1.14387 4.65245 0
M  V30 10154 H 967.884 0.513702 2.49466 0
M  V30 10155 H 968.667 2.1775 2.65405 0
M  V30 10156 N 971.112 -1.45937 0.595003 0
M  V30 10157 C 972.342 -2.06399 0.0911607 0
M  V30 10158 C 972.75 -1.44236 -1.22444 0
M  V30 10159 O 972.093 -0.546265 -1.7539 0
M  V30 10160 C 972.155 -3.59242 -0.136079 0
M  V30 10161 C 971.819 -4.43668 1.09579 0
M  V30 10162 C 972.816 -4.79437 2.01088 0
M  V30 10163 C 970.501 -4.84616 1.32109 0
M  V30 10164 C 972.495 -5.54995 3.13464 0
M  V30 10165 C 970.182 -5.5993 2.44788 0
M  V30 10166 C 971.18 -5.95035 3.35294 0
M  V30 10167 O 970.868 -6.68825 4.46014 0
M  V30 10168 H 970.6 -0.673316 0.0601779 0
M  V30 10169 H 973.154 -1.88365 0.819005 0
M  V30 10170 H 971.384 -3.75629 -0.918676 0
M  V30 10171 H 973.073 -4.0159 -0.589954 0
M  V30 10172 H 973.839 -4.48371 1.84902 0
M  V30 10173 H 969.718 -4.56735 0.625662 0
M  V30 10174 H 973.262 -5.82314 3.84131 0
M  V30 10175 H 969.159 -5.90411 2.60931 0
M  V30 10176 H 969.927 -6.87262 4.44537 0
M  V30 10177 N 972.59 -0.333456 -1.54032 0
M  V30 10178 C 973.537 0.527981 -2.2468 0
M  V30 10179 C 974.507 1.10371 -1.24127 0
M  V30 10180 O 975.692 1.14221 -1.52834 0
M  V30 10181 C 972.832 1.67808 -3.01553 0
M  V30 10182 C 971.945 1.13064 -4.16942 0
M  V30 10183 C 971.08 2.24722 -4.81325 0
M  V30 10184 C 970.119 1.67277 -5.88799 0
M  V30 10185 N 969.256 2.72638 -6.47003 0
M  V30 10186 H 974.096 -0.0810308 -2.9789 0
M  V30 10187 H 971.633 -0.051761 -1.47009 0
M  V30 10188 H 973.591 2.35502 -3.44376 0
M  V30 10189 H 972.221 2.25823 -2.30659 0
M  V30 10190 H 971.273 0.344948 -3.78833 0
M  V30 10191 H 972.585 0.670373 -4.94275 0
M  V30 10192 H 971.739 3.00301 -5.27166 0
M  V30 10193 H 970.478 2.74089 -4.03394 0
M  V30 10194 H 969.483 0.902002 -5.4235 0
M  V30 10195 H 970.708 1.18775 -6.68632 0
M  V30 10196 H 968.654 3.21277 -5.71941 0
M  V30 10197 H 968.571 2.31204 -7.19778 0
M  V30 10198 H 969.839 3.48015 -6.97499 0
M  V30 10199 N 974.068 1.57479 -0.061844 0
M  V30 10200 C 974.978 2.15645 0.923826 0
M  V30 10201 C 975.994 1.117 1.33413 0
M  V30 10202 O 977.17 1.4392 1.40887 0
M  V30 10203 C 974.235 2.69857 2.17665 0
M  V30 10204 C 973.296 3.88638 1.8237 0
M  V30 10205 C 972.529 4.40256 3.01679 0
M  V30 10206 O 972.752 3.90908 4.15388 0
M  V30 10207 O 971.686 5.31713 2.82073 0
M  V30 10208 H 975.512 3.0021 0.459094 0
M  V30 10209 H 973.097 1.48534 0.160665 0
M  V30 10210 H 974.979 3.04647 2.9115 0
M  V30 10211 H 973.654 1.88357 2.63255 0
M  V30 10212 H 972.561 3.58719 1.06167 0
M  V30 10213 H 973.894 4.71401 1.4157 0
M  V30 10214 N 975.546 -0.211634 1.56173 0
M  V30 10215 C 976.962 -0.56177 1.49386 0
M  V30 10216 C 977.162 -1.86666 0.758813 0
M  V30 10217 O 976.218 -2.50681 0.302534 0
M  V30 10218 C 977.531 -0.631815 2.93987 0
M  V30 10219 C 979.079 -0.721773 3.04564 0
M  V30 10220 C 979.554 -0.823075 4.50544 0
M  V30 10221 N 981.045 -0.887038 4.54627 0
M  V30 10222 C 981.78 -0.985304 5.64871 0
M  V30 10223 N 981.276 -1.0469 6.84844 0
M  V30 10224 N 983.069 -1.02121 5.52746 0
M  V30 10225 H 975.22 0.64452 2.02385 0
M  V30 10226 H 977.483 0.227466 0.920306 0
M  V30 10227 H 977.189 0.257592 3.50755 0
M  V30 10228 H 977.063 -1.4921 3.46433 0
M  V30 10229 H 979.45 -1.60162 2.47855 0
M  V30 10230 H 979.531 0.164385 2.55271 0
M  V30 10231 H 979.175 0.0523511 5.07873 0
M  V30 10232 H 979.105 -1.72479 4.97552 0
M  V30 10233 H 981.596 -0.849352 3.68231 0
M  V30 10234 H 981.909 -1.12193 7.64613 0
M  V30 10235 H 980.254 -1.01586 6.87536 0
M  V30 10236 H 983.445 -0.969814 4.57943 0
M  V30 10237 H 983.618 -1.09434 6.38693 0
M  V30 10238 N 977.024 -1.50153 -0.478725 0
M  V30 10239 C 977.971 -1.68458 -1.57767 0
M  V30 10240 C 978.941 -0.5259 -1.57555 0
M  V30 10241 O 980.126 -0.755574 -1.75202 0
M  V30 10242 C 977.266 -1.77772 -2.95789 0
M  V30 10243 C 976.379 -3.05092 -3.05848 0
M  V30 10244 C 975.514 -3.05247 -4.34739 0
M  V30 10245 C 974.553 -4.27053 -4.38512 0
M  V30 10246 N 973.69 -4.24991 -5.58862 0
M  V30 10247 H 978.53 -2.62282 -1.41464 0
M  V30 10248 H 976.067 -1.30023 -0.687921 0
M  V30 10249 H 978.025 -1.81152 -3.75819 0
M  V30 10250 H 976.655 -0.873944 -3.10744 0
M  V30 10251 H 975.707 -3.11219 -2.1874 0
M  V30 10252 H 977.019 -3.95075 -3.04495 0
M  V30 10253 H 976.173 -3.07314 -5.23109 0
M  V30 10254 H 974.912 -2.13081 -4.38689 0
M  V30 10255 H 973.917 -4.25206 -3.4854 0
M  V30 10256 H 975.142 -5.20437 -4.36259 0
M  V30 10257 H 973.088 -3.35674 -5.63612 0
M  V30 10258 H 973.005 -5.08734 -5.59219 0
M  V30 10259 H 974.273 -4.31193 -6.49379 0
M  V30 10260 N 978.502 0.731368 -1.39602 0
M  V30 10261 C 979.779 1.48308 -1.27531 0
M  V30 10262 C 980.159 2.10795 0.113482 0
M  V30 10263 O 979.507 1.98886 1.12501 0
M  V30 10264 C 979.717 2.53156 -2.40235 0
M  V30 10265 C 981.065 3.19436 -2.79725 0
M  V30 10266 O 982.089 2.6347 -2.39712 0
M  V30 10267 O 980.948 4.20714 -3.48801 0
M  V30 10268 H 978.042 0.658753 -0.499973 0
M  V30 10269 H 980.588 0.764884 -1.51485 0
M  V30 10270 H 979.36 2.05387 -3.33064 0
M  V30 10271 H 978.983 3.3253 -2.17966 0
M  V30 10272 N 979.98 1.24838 0.961938 0
M  V30 10273 C 980.89 1.06304 2.09133 0
M  V30 10274 C 981.906 0.00221475 1.74 0
M  V30 10275 O 983.082 0.201611 2.00388 0
M  V30 10276 C 980.147 0.676117 3.40043 0
M  V30 10277 C 979.208 1.81407 3.89089 0
M  V30 10278 C 978.441 1.44551 5.13752 0
M  V30 10279 O 978.664 0.337894 5.69398 0
M  V30 10280 O 977.598 2.27316 5.57325 0
M  V30 10281 H 981.424 2.01001 2.27667 0
M  V30 10282 H 979.009 1.0371 1.07539 0
M  V30 10283 H 980.891 0.472124 4.18747 0
M  V30 10284 H 979.566 -0.241667 3.22797 0
M  V30 10285 H 978.473 2.07286 3.11421 0
M  V30 10286 H 979.806 2.71083 4.10822 0
M  V30 10287 N 981.458 -1.16348 1.06306 0
M  V30 10288 C 982.388 -2.2291 0.695234 0
M  V30 10289 C 983.369 -1.67208 -0.312343 0
M  V30 10290 O 984.554 -1.93293 -0.187442 0
M  V30 10291 C 981.684 -3.47205 0.0810149 0
M  V30 10292 C 980.638 -4.15801 1.01458 0
M  V30 10293 C 979.964 -5.3405 0.263656 0
M  V30 10294 C 981.264 -4.66766 2.34365 0
M  V30 10295 H 982.958 -2.53934 1.58613 0
M  V30 10296 H 980.504 -1.22056 0.76409 0
M  V30 10297 H 982.457 -4.2098 -0.18818 0
M  V30 10298 H 981.181 -3.15482 -0.844897 0
M  V30 10299 H 979.84 -3.43954 1.26852 0
M  V30 10300 H 979.488 -4.9858 -0.665378 0
M  V30 10301 H 979.188 -5.80885 0.88582 0
M  V30 10302 H 980.712 -6.106 0.00200994 0
M  V30 10303 H 982.126 -5.3212 2.13356 0
M  V30 10304 H 980.523 -5.24223 2.9208 0
M  V30 10305 H 981.593 -3.82969 2.97426 0
M  V30 10306 N 982.937 -0.845659 -1.3299 0
M  V30 10307 C 983.884 -0.281761 -2.29074 0
M  V30 10308 C 984.854 0.606237 -1.54641 0
M  V30 10309 O 986.039 0.543063 -1.82908 0
M  V30 10310 C 983.179 0.531451 -3.40983 0
M  V30 10311 C 982.292 -0.381328 -4.30314 0
M  V30 10312 C 981.427 0.443643 -5.29344 0
M  V30 10313 C 980.466 -0.467101 -6.10315 0
M  V30 10314 N 979.603 0.320148 -7.0137 0
M  V30 10315 H 984.443 -1.10641 -2.76699 0
M  V30 10316 H 981.98 -0.55706 -1.36144 0
M  V30 10317 H 983.938 1.01848 -4.04577 0
M  V30 10318 H 982.568 1.32101 -2.94532 0
M  V30 10319 H 981.62 -0.986701 -3.6738 0
M  V30 10320 H 982.932 -1.08067 -4.86953 0
M  V30 10321 H 982.086 0.994212 -5.98498 0
M  V30 10322 H 980.825 1.17639 -4.73299 0
M  V30 10323 H 979.83 -1.02963 -5.40073 0
M  V30 10324 H 981.055 -1.19832 -6.68444 0
M  V30 10325 H 979.001 1.03615 -6.47765 0
M  V30 10326 H 978.918 -0.320338 -7.55321 0
M  V30 10327 H 980.186 0.852735 -7.74822 0
M  V30 10328 O 984.454 1.43385 -0.743168 0
M  V30 10329 H 985.145 1.91402 -0.297468 0
M  V30 END ATOM
M  V30 BEGIN BOND
M  V30 END BOND
M  V30 END CTAB
M  END
$$$$
