drugbank_target|Q81F54 Glyoxalase family protein (DB01942; DB04272)
 OpenBabel12092120233D

  0  0  0     0  0            999 V3000
M  V30 BEGIN CTAB
M  V30 COUNTS 2326 2342 0 0 0
M  V30 BEGIN ATOM
M  V30 1 H -0.908 1.98254 -0.117106 0
M  V30 2 N 0 1.576 0 0
M  V30 3 C 0.933 2.03868 1.02534 0
M  V30 4 C 1.911 0.928543 1.3348 0
M  V30 5 O 3.095 1.19667 1.45644 0
M  V30 6 C 0.222 2.43627 2.35294 0
M  V30 7 C -0.732 3.65373 2.2001 0
M  V30 8 S 0.101 5.13292 1.52614 0
M  V30 9 C 1.257 5.56322 2.86805 0
M  V30 10 H 1.49 2.90518 0.631377 0
M  V30 11 H -0.977 1.52953 0.210867 0
M  V30 12 H 0.981 2.67203 3.11629 0
M  V30 13 H -0.358 1.57376 2.7183 0
M  V30 14 H -1.165 3.90944 3.18086 0
M  V30 15 H -1.563 3.418 1.51819 0
M  V30 16 H 0.729 5.58782 3.83104 0
M  V30 17 H 1.672 6.56266 2.65933 0
M  V30 18 H 2.08 4.83886 2.90714 0
M  V30 19 N 1.4781 -0.272755 1.55222 0
M  V30 20 C 2.4411 -1.32041 1.87344 0
M  V30 21 C 3.4411 -1.42342 0.74803 0
M  V30 22 O 4.6311 -1.41488 1.0162 0
M  V30 23 C 1.7631 -2.70173 2.07893 0
M  V30 24 H 2.9561 -1.04789 2.80997 0
M  V30 25 H 0.5091 -0.51083 1.47717 0
M  V30 26 H 1.2441 -3.02605 1.16622 0
M  V30 27 H 1.0291 -2.64082 2.89833 0
M  V30 28 H 2.5191 -3.45869 2.34017 0
M  V30 29 N 2.9562 -1.48159 -0.537278 0
M  V30 30 C 3.9032 -1.62138 -1.64256 0
M  V30 31 C 4.8732 -0.463668 -1.59497 0
M  V30 32 O 6.0582 -0.686241 -1.78032 0
M  V30 33 C 3.1982 -1.66028 -3.02537 0
M  V30 34 C 2.3112 -2.92855 -3.17585 0
M  V30 35 C 1.4462 -2.87952 -4.46382 0
M  V30 36 C 0.4852 -4.09516 -4.54932 0
M  V30 37 N -0.3778 -4.02733 -5.75109 0
M  V30 38 H 4.4622 -2.56529 -1.51647 0
M  V30 39 H 1.9992 -1.27224 -0.738414 0
M  V30 40 H 3.9572 -1.66265 -3.82638 0
M  V30 41 H 2.5872 -0.751331 -3.13934 0
M  V30 42 H 1.6392 -3.02395 -2.30784 0
M  V30 43 H 2.9512 -3.82822 -3.19764 0
M  V30 44 H 2.1052 -2.8655 -5.34765 0
M  V30 45 H 0.8442 -1.95702 -4.46712 0
M  V30 46 H -0.1508 -4.11201 -3.64957 0
M  V30 47 H 1.0742 -5.02917 -4.56346 0
M  V30 48 H -0.9798 -3.13299 -5.76351 0
M  V30 49 H -1.0628 -4.86397 -5.78752 0
M  V30 50 H 0.2052 -4.05379 -6.65799 0
M  V30 51 N 4.4343 0.785586 -1.36625 0
M  V30 52 C 5.3823 1.91978 -1.31329 0
M  V30 53 C 6.3763 1.68162 -0.204416 0
M  V30 54 O 7.5823 1.76122 -0.371645 0
M  V30 55 H 3.9573 0.631087 -0.408942 0
M  V30 56 H 5.9283 1.93562 -2.27104 0
M  V30 57 C 4.6773 3.29055 -1.12329 0
M  V30 58 H 4.0003 3.4795 -1.96903 0
M  V30 59 H 5.4403 4.08756 -1.12671 0
M  V30 60 C 3.8993 3.36461 0.171861 0
M  V30 61 O 4.4293 3.84576 1.16035 0
M  V30 62 N 2.6353 2.89782 0.217846 0
M  V30 63 H 2.1823 2.50819 -0.587183 0
M  V30 64 H 2.1403 2.95119 1.08408 0
M  V30 65 N 5.9124 1.20967 1.01018 0
M  V30 66 C 6.8594 0.964281 2.09691 0
M  V30 67 C 7.8294 -0.107853 1.65749 0
M  V30 68 O 9.0144 0.0381987 1.90762 0
M  V30 69 C 6.1544 0.52943 3.41015 0
M  V30 70 C 5.2674 1.67043 3.98398 0
M  V30 71 C 4.4024 1.18525 5.17808 0
M  V30 72 C 3.4414 2.29892 5.67288 0
M  V30 73 N 2.5784 1.82546 6.77954 0
M  V30 74 H 7.4184 1.89463 2.30017 0
M  V30 75 H 4.9554 0.944289 1.1279 0
M  V30 76 H 6.9134 0.258588 4.16398 0
M  V30 77 H 5.5434 -0.363919 3.20742 0
M  V30 78 H 4.5954 2.05603 3.20049 0
M  V30 79 H 5.9074 2.50877 4.31117 0
M  V30 80 H 5.0614 0.870762 6.00419 0
M  V30 81 H 3.8004 0.316887 4.86669 0
M  V30 82 H 2.8054 2.6215 4.83278 0
M  V30 83 H 4.0304 3.17216 6.00459 0
M  V30 84 H 1.9764 0.980454 6.48632 0
M  V30 85 H 1.8934 2.59956 7.09901 0
M  V30 86 H 3.1614 1.54115 7.64113 0
M  V30 87 N 7.3905 -1.2043 1.01659 0
M  V30 88 C 8.3205 -2.25466 0.607226 0
M  V30 89 C 9.3015 -1.65853 -0.377716 0
M  V30 90 O 10.4865 -1.92409 -0.263149 0
M  V30 91 C 7.6165 -3.47256 -0.0552949 0
M  V30 92 C 6.5705 -4.19462 0.850632 0
M  V30 93 C 5.8965 -5.34673 0.0538859 0
M  V30 94 C 7.1965 -4.75603 2.15868 0
M  V30 95 H 8.8905 -2.59962 1.48526 0
M  V30 96 H 6.4365 -1.2496 0.715605 0
M  V30 97 H 8.3895 -4.19917 -0.353233 0
M  V30 98 H 7.1135 -3.11924 -0.968045 0
M  V30 99 H 5.7725 -3.48667 1.13257 0
M  V30 100 H 5.4205 -4.95585 -0.860514 0
M  V30 101 H 5.1205 -5.83913 0.657192 0
M  V30 102 H 6.6445 -6.10138 -0.237598 0
M  V30 103 H 8.0585 -5.40083 1.92311 0
M  V30 104 H 6.4555 -5.3528 2.71284 0
M  V30 105 H 7.5255 -3.94346 2.82169 0
M  V30 106 N 8.8686 -0.792821 -1.36206 0
M  V30 107 C 9.7986 -0.207853 -2.32573 0
M  V30 108 C 10.7796 0.659055 -1.56813 0
M  V30 109 O 11.9646 0.592176 -1.84951 0
M  V30 110 C 9.0946 0.655449 -3.41059 0
M  V30 111 C 8.0486 -0.111842 -4.27854 0
M  V30 112 C 7.3746 0.872274 -5.27537 0
M  V30 113 C 8.6746 -1.30299 -5.05786 0
M  V30 114 H 10.3686 -1.01294 -2.81744 0
M  V30 115 H 7.9146 -0.48854 -1.3546 0
M  V30 116 H 9.8676 1.07464 -4.07467 0
M  V30 117 H 8.5916 1.49328 -2.90463 0
M  V30 118 H 7.2506 -0.512053 -3.63006 0
M  V30 119 H 6.8986 1.70523 -4.73214 0
M  V30 120 H 6.5986 0.363291 -5.86476 0
M  V30 121 H 8.1226 1.28996 -5.96818 0
M  V30 122 H 9.5366 -0.959379 -5.65216 0
M  V30 123 H 7.9336 -1.7455 -5.74154 0
M  V30 124 H 9.0036 -2.09663 -4.37229 0
M  V30 125 N 10.3467 1.47872 -0.545128 0
M  V30 126 C 11.7627 1.5829 -0.204032 0
M  V30 127 C 11.9627 1.54529 1.29317 0
M  V30 128 O 11.0187 1.44232 2.07252 0
M  V30 129 C 12.3317 2.89304 -0.819987 0
M  V30 130 C 13.8797 3.02864 -0.790105 0
M  V30 131 C 14.3547 4.3656 -1.38491 0
M  V30 132 N 15.8457 4.43165 -1.34755 0
M  V30 133 C 16.5807 5.45153 -1.77753 0
M  V30 134 N 16.0767 6.54016 -2.2855 0
M  V30 135 N 17.8697 5.36125 -1.68897 0
M  V30 136 H 10.0207 1.4856 -1.51802 0
M  V30 137 H 12.2837 0.706305 -0.632327 0
M  V30 138 H 11.9897 2.97757 -1.87173 0
M  V30 139 H 11.8637 3.75957 -0.305915 0
M  V30 140 H 14.2507 2.94014 0.252913 0
M  V30 141 H 14.3317 2.17782 -1.34181 0
M  V30 142 H 13.9757 4.46164 -2.42693 0
M  V30 143 H 13.9057 5.20353 -0.808754 0
M  V30 144 H 16.3967 3.65083 -0.975855 0
M  V30 145 H 16.7097 7.27994 -2.59314 0
M  V30 146 H 15.0547 6.54938 -2.32553 0
M  V30 147 H 18.2457 4.49975 -1.28998 0
M  V30 148 H 18.4187 6.15472 -2.02726 0
M  V30 149 N 11.8248 0.280983 1.55075 0
M  V30 150 C 12.7578 -0.645439 2.18882 0
M  V30 151 C 13.7358 -1.14786 1.15165 0
M  V30 152 O 14.9198 -1.21975 1.43716 0
M  V30 153 C 12.0468 -1.88088 2.81674 0
M  V30 154 C 11.0928 -1.51343 3.98745 0
M  V30 155 S 11.9258 -0.586548 5.32278 0
M  V30 156 C 13.0818 -1.83024 5.98543 0
M  V30 157 H 13.3148 -0.1033 2.9712 0
M  V30 158 H 10.8478 0.0652099 1.54262 0
M  V30 159 H 12.8058 -2.58997 3.18482 0
M  V30 160 H 11.4668 -2.39417 2.03318 0
M  V30 161 H 10.6598 -2.43289 4.41392 0
M  V30 162 H 10.2618 -0.884477 3.63391 0
M  V30 163 H 12.5538 -2.77342 6.18133 0
M  V30 164 H 13.4968 -1.44668 6.93164 0
M  V30 165 H 13.9048 -1.99785 5.27964 0
M  V30 166 N 13.3029 -1.57598 0.00835791 0
M  V30 167 C 14.5799 -1.82172 -0.712235 0
M  V30 168 C 14.9599 -0.887873 -1.9152 0
M  V30 169 O 14.3079 0.06146 -2.28417 0
M  V30 170 C 14.5179 -3.30875 -1.11008 0
M  V30 171 C 15.8659 -3.96826 -1.51044 0
M  V30 172 O 16.8899 -3.35248 -1.20364 0
M  V30 173 O 15.7489 -5.05318 -2.08125 0
M  V30 174 H 12.8429 -0.750435 -0.347529 0
M  V30 175 H 15.3889 -1.69665 0.0344523 0
M  V30 176 H 14.1609 -3.90481 -0.252982 0
M  V30 177 H 13.7839 -3.48412 -1.9156 0
M  V30 178 N 14.781 0.264519 -1.55364 0
M  V30 179 C 15.729 1.34702 -1.89626 0
M  V30 180 C 16.723 1.50712 -0.773459 0
M  V30 181 O 17.929 1.52395 -0.957897 0
M  V30 182 H 14.304 0.450682 -0.601988 0
M  V30 183 H 16.275 1.0306 -2.80038 0
M  V30 184 C 15.024 2.6989 -2.19214 0
M  V30 185 H 14.347 2.58365 -3.05103 0
M  V30 186 H 15.787 3.44553 -2.47102 0
M  V30 187 C 14.246 3.21637 -1.00254 0
M  V30 188 O 14.776 4.00973 -0.241501 0
M  V30 189 N 12.982 2.7943 -0.797938 0
M  V30 190 H 12.529 2.15026 -1.4185 0
M  V30 191 H 12.487 3.144 -0.00363422 0
M  V30 192 N 16.2591 1.48442 0.529413 0
M  V30 193 C 17.5051 1.5672 1.28711 0
M  V30 194 C 17.8381 0.2406 1.92704 0
M  V30 195 O 17.1131 -0.753454 1.79313 0
M  V30 196 C 17.3961 2.70587 2.37603 0
M  V30 197 C 17.2491 4.12953 1.78297 0
M  V30 198 C 18.5681 2.80212 3.39366 0
M  V30 199 H 15.6871 0.570474 0.466613 0
M  V30 200 H 18.3291 1.80617 0.589706 0
M  V30 201 H 16.4791 2.50342 2.97088 0
M  V30 202 H 18.1511 4.44639 1.22858 0
M  V30 203 H 16.3941 4.19927 1.0883 0
M  V30 204 H 17.0651 4.88448 2.57144 0
M  V30 205 H 19.5411 2.98553 2.89836 0
M  V30 206 H 18.4171 3.61611 4.12951 0
M  V30 207 H 18.6781 1.88393 3.99951 0
M  V30 208 N 17.7372 -0.778329 1.37039 0
M  V30 209 C 18.9622 -1.57248 1.35233 0
M  V30 210 C 19.3872 -1.87999 -0.0615568 0
M  V30 211 O 18.7452 -1.48734 -1.03672 0
M  V30 212 C 18.7932 -2.86353 2.19167 0
M  V30 213 O 17.8972 -3.80442 1.59178 0
M  V30 214 H 17.2382 -0.476569 0.462362 0
M  V30 215 H 19.7682 -0.963853 1.80474 0
M  V30 216 H 19.7782 -3.35519 2.32145 0
M  V30 217 H 18.4532 -2.63299 3.21942 0
M  V30 218 H 17.0302 -3.39067 1.55203 0
M  V30 219 N 19.2153 -1.21501 -1.00376 0
M  V30 220 C 20.4643 -1.02718 -1.73586 0
M  V30 221 C 20.7773 0.439589 -1.90596 0
M  V30 222 O 21.9833 0.746848 -2.61026 0
M  V30 223 C 20.4393 -1.78929 -3.1227 0
M  V30 224 C 20.0473 -3.29783 -3.03228 0
M  V30 225 C 21.7913 -1.68557 -3.89601 0
M  V30 226 C 19.6983 -3.98479 -4.36999 0
M  V30 227 H 18.6283 -0.380733 -0.650814 0
M  V30 228 H 21.2793 -1.45248 -1.1214 0
M  V30 229 H 19.6613 -1.29192 -3.74333 0
M  V30 230 H 20.8353 -3.86832 -2.50395 0
M  V30 231 H 19.1503 -3.40711 -2.39385 0
M  V30 232 H 21.7473 -2.17211 -4.88593 0
M  V30 233 H 22.0903 -0.644021 -4.11288 0
M  V30 234 H 22.6233 -2.15778 -3.34193 0
M  V30 235 H 19.3623 -5.02841 -4.20513 0
M  V30 236 H 18.8823 -3.46219 -4.89788 0
M  V30 237 H 20.5613 -4.03462 -5.05794 0
M  V30 238 N 20.6934 1.19889 -1.02296 0
M  V30 239 C 21.9394 1.89701 -0.717033 0
M  V30 240 C 22.2724 1.7905 0.751989 0
M  V30 241 O 21.5474 1.17891 1.547 0
M  V30 242 C 21.8304 3.40858 -1.16136 0
M  V30 243 C 21.6834 3.60411 -2.69117 0
M  V30 244 C 23.0024 4.33876 -0.737549 0
M  V30 245 H 20.1214 0.688874 -0.261957 0
M  V30 246 H 22.7634 1.41154 -1.27183 0
M  V30 247 H 20.9134 3.82335 -0.689342 0
M  V30 248 H 22.5854 3.28145 -3.2422 0
M  V30 249 H 20.8284 3.03665 -3.0979 0
M  V30 250 H 21.4994 4.66396 -2.95261 0
M  V30 251 H 23.9754 4.00081 -1.14344 0
M  V30 252 H 22.8514 5.38242 -1.0764 0
M  V30 253 H 23.1124 4.40628 0.360436 0
M  V30 254 N 22.1715 0.800033 1.35784 0
M  V30 255 C 23.4175 0.377901 1.99248 0
M  V30 256 C 23.7505 -1.05052 1.63333 0
M  V30 257 O 23.0255 -1.72768 0.893385 0
M  V30 258 C 23.3085 0.553922 3.55814 0
M  V30 259 C 23.1615 2.0268 4.01548 0
M  V30 260 C 24.4805 -0.0244802 4.40093 0
M  V30 261 H 21.5995 0.138782 0.723815 0
M  V30 262 H 24.2415 1.00835 1.61035 0
M  V30 263 H 22.3915 0.0172398 3.88496 0
M  V30 264 H 24.0635 2.62536 3.79305 0
M  V30 265 H 22.3065 2.5256 3.52698 0
M  V30 266 H 22.9775 2.10087 5.10458 0
M  V30 267 H 25.4535 0.433775 4.13833 0
M  V30 268 H 24.3295 0.128637 5.48749 0
M  V30 269 H 24.5905 -1.11758 4.27741 0
M  V30 270 N 23.6496 -1.47581 0.552962 0
M  V30 271 C 24.5596 -2.33743 -0.200353 0
M  V30 272 C 25.5756 -1.47928 -0.916151 0
M  V30 273 O 26.7516 -1.80865 -0.885993 0
M  V30 274 C 23.8166 -3.24536 -1.21973 0
M  V30 275 C 22.8776 -4.26238 -0.511819 0
M  V30 276 C 22.1106 -5.12693 -1.48263 0
M  V30 277 O 22.3336 -5.01525 -2.71714 0
M  V30 278 O 21.2676 -5.93375 -1.00945 0
M  V30 279 H 25.0936 -2.9945 0.506304 0
M  V30 280 H 22.6786 -1.46071 0.313622 0
M  V30 281 H 24.5606 -3.80631 -1.80827 0
M  V30 282 H 23.2356 -2.61462 -1.90839 0
M  V30 283 H 22.1426 -3.73914 0.117799 0
M  V30 284 H 23.4756 -4.92014 0.135308 0
M  V30 285 N 25.1277 -0.289203 -1.54924 0
M  V30 286 C 26.3527 0.329299 -2.04769 0
M  V30 287 C 26.7777 1.4763 -1.16564 0
M  V30 288 O 26.1357 1.80527 -0.167186 0
M  V30 289 C 26.1837 0.774438 -3.52186 0
M  V30 290 O 25.2877 1.88038 -3.67036 0
M  V30 291 H 24.6287 0.0659259 -0.660719 0
M  V30 292 H 27.1587 -0.42761 -2.00082 0
M  V30 293 H 27.1687 1.06642 -3.93816 0
M  V30 294 H 25.8437 -0.0646707 -4.1585 0
M  V30 295 H 24.4207 1.58985 -3.3731 0
M  V30 296 N 26.6058 1.57591 -0.0167156 0
M  V30 297 C 27.5358 2.12496 0.967858 0
M  V30 298 C 28.5168 1.03807 1.34752 0
M  V30 299 O 29.7018 1.31577 1.42833 0
M  V30 300 C 26.8318 2.64194 2.25431 0
M  V30 301 C 25.7858 3.77559 2.01576 0
M  V30 302 C 25.1118 4.15636 3.36379 0
M  V30 303 C 26.4118 5.04151 1.36489 0
M  V30 304 H 28.1058 2.95013 0.510643 0
M  V30 305 H 25.6518 1.41915 0.244181 0
M  V30 306 H 27.6048 3.01236 2.94678 0
M  V30 307 H 26.3288 1.78821 2.73296 0
M  V30 308 H 24.9878 3.40937 1.34751 0
M  V30 309 H 24.6358 3.27263 3.81979 0
M  V30 310 H 24.3358 4.92022 3.21229 0
M  V30 311 H 25.8598 4.5525 4.06915 0
M  V30 312 H 27.2738 5.38857 1.95718 0
M  V30 313 H 25.6708 5.85453 1.31776 0
M  V30 314 H 26.7408 4.83733 0.336219 0
M  V30 315 N 28.0839 -0.256276 1.55502 0
M  V30 316 C 29.3609 -1.00789 1.67633 0
M  V30 317 C 29.7409 -2.03706 0.553826 0
M  V30 318 O 29.0889 -2.24145 -0.443969 0
M  V30 319 C 29.2989 -1.64968 3.07549 0
M  V30 320 C 30.6469 -2.15505 3.65845 0
M  V30 321 O 31.6709 -1.74925 3.1029 0
M  V30 322 O 30.5299 -2.89986 4.63217 0
M  V30 323 H 27.6239 -0.468553 0.681459 0
M  V30 324 H 30.1699 -0.250806 1.67836 0
M  V30 325 H 28.9419 -0.904785 3.80696 0
M  V30 326 H 28.5649 -2.47321 3.11317 0
M  V30 327 N 29.562 -1.4872 -0.521534 0
M  V30 328 C 30.51 -1.64328 -1.64618 0
M  V30 329 C 31.504 -0.50953 -1.61555 0
M  V30 330 O 32.71 -0.688525 -1.66311 0
M  V30 331 H 29.085 -0.517805 -0.545328 0
M  V30 332 H 31.056 -2.58767 -1.48601 0
M  V30 333 C 29.805 -1.70805 -3.02855 0
M  V30 334 H 29.128 -2.5741 -3.05909 0
M  V30 335 H 30.568 -1.85766 -3.81139 0
M  V30 336 C 29.027 -0.448479 -3.33902 0
M  V30 337 O 29.557 0.434928 -3.99339 0
M  V30 338 N 27.763 -0.317616 -2.88859 0
M  V30 339 H 27.31 -1.03748 -2.35784 0
M  V30 340 H 27.268 0.524113 -3.10001 0
M  V30 341 N 31.0401 0.771051 -1.3745 0
M  V30 342 C 32.0031 1.86598 -1.33093 0
M  V30 343 C 33.0031 1.59076 -0.234845 0
M  V30 344 O 34.1931 1.67145 -0.490732 0
M  V30 345 C 31.3251 3.23747 -1.06773 0
M  V30 346 H 32.5181 1.91873 -2.30488 0
M  V30 347 H 30.0711 0.970876 -1.2249 0
M  V30 348 H 30.8061 3.24148 -0.099129 0
M  V30 349 H 30.5911 3.45115 -1.86112 0
M  V30 350 H 32.0811 4.03824 -1.06377 0
M  V30 351 N 32.5182 1.22032 0.997298 0
M  V30 352 C 33.7672 1.03637 1.73038 0
M  V30 353 C 34.0802 -0.429475 1.90827 0
M  V30 354 O 35.2862 -0.732995 2.61418 0
M  V30 355 C 33.7422 1.80582 3.11317 0
M  V30 356 C 33.3502 3.31387 3.01474 0
M  V30 357 C 35.0942 1.70621 3.88701 0
M  V30 358 C 33.0012 4.00791 4.3488 0
M  V30 359 H 31.9312 0.384179 0.648785 0
M  V30 360 H 34.5822 1.4584 1.11368 0
M  V30 361 H 32.9642 1.31175 3.73643 0
M  V30 362 H 34.1382 3.88155 2.4834 0
M  V30 363 H 32.4532 3.41976 2.37575 0
M  V30 364 H 35.0502 2.19799 4.87434 0
M  V30 365 H 35.3932 0.665823 4.10941 0
M  V30 366 H 35.9262 2.17547 3.33044 0
M  V30 367 H 32.6652 5.05064 4.1784 0
M  V30 368 H 32.1852 3.48811 4.87945 0
M  V30 369 H 33.8642 4.06139 5.03647 0
M  V30 370 N 33.9963 -1.19345 1.0293 0
M  V30 371 C 35.2213 -1.93538 0.745511 0
M  V30 372 C 35.6463 -1.75007 -0.689511 0
M  V30 373 O 35.0043 -1.05265 -1.47611 0
M  V30 374 C 35.0523 -3.43336 1.10239 0
M  V30 375 O 34.1563 -4.11806 0.221289 0
M  V30 376 H 33.4973 -0.604193 0.275404 0
M  V30 377 H 36.0273 -1.5141 1.37609 0
M  V30 378 H 36.0373 -3.94004 1.05947 0
M  V30 379 H 34.7123 -3.56146 2.14786 0
M  V30 380 H 33.2893 -3.715 0.322842 0
M  V30 381 N 35.4744 -0.807222 -1.35358 0
M  V30 382 C 36.7214 -0.387888 -1.9875 0
M  V30 383 C 37.0494 1.04509 -1.64037 0
M  V30 384 O 36.3044 1.73986 -0.895946 0
M  V30 385 C 36.6034 -0.519036 -3.53611 0
M  V30 386 C 36.2694 -1.91542 -4.08194 0
M  V30 387 C 34.9314 -2.29745 -4.22813 0
M  V30 388 C 37.2834 -2.82896 -4.37744 0
M  V30 389 C 34.6114 -3.58668 -4.643 0
M  V30 390 C 36.9634 -4.11265 -4.8067 0
M  V30 391 C 35.6274 -4.49466 -4.93494 0
M  V30 392 H 34.8974 -0.141938 -0.727279 0
M  V30 393 H 37.5444 -1.02814 -1.6156 0
M  V30 394 H 35.8494 0.204658 -3.91265 0
M  V30 395 H 37.5464 -0.175345 -4.00616 0
M  V30 396 H 34.1364 -1.60862 -3.97268 0
M  V30 397 H 38.3204 -2.54629 -4.26002 0
M  V30 398 H 33.5764 -3.88113 -4.72418 0
M  V30 399 H 37.7504 -4.82153 -5.02496 0
M  V30 400 H 35.3774 -5.49418 -5.25399 0
M  V30 401 N 36.9525 1.47285 -0.560781 0
M  V30 402 C 38.1995 2.02464 -0.038062 0
M  V30 403 C 38.5275 1.43474 1.31322 0
M  V30 404 O 37.7825 0.581311 1.86867 0
M  V30 405 C 38.0815 3.57258 0.100784 0
M  V30 406 C 37.7475 4.35184 -1.18007 0
M  V30 407 C 36.4095 4.56194 -1.53103 0
M  V30 408 C 38.7615 4.80098 -2.02867 0
M  V30 409 C 36.0895 5.19367 -2.729 0
M  V30 410 C 38.4415 5.44593 -3.21871 0
M  V30 411 C 37.1055 5.63835 -3.57276 0
M  V30 412 H 36.3755 0.740869 -0.0139279 0
M  V30 413 H 39.0225 1.76916 -0.733012 0
M  V30 414 H 37.3275 3.81819 0.878724 0
M  V30 415 H 39.0245 3.97606 0.520639 0
M  V30 416 H 35.6145 4.19113 -0.8968 0
M  V30 417 H 39.7985 4.63642 -1.7706 0
M  V30 418 H 35.0545 5.32459 -3.00496 0
M  V30 419 H 39.2285 5.78358 -3.87911 0
M  V30 420 H 36.8555 6.12557 -4.50197 0
M  V30 421 N 38.4306 0.297415 1.54768 0
M  V30 422 C 39.3406 -0.58983 2.27064 0
M  V30 423 C 40.3566 -1.15144 1.30453 0
M  V30 424 O 41.5326 -1.17699 1.63428 0
M  V30 425 C 38.5976 -1.74714 2.9946 0
M  V30 426 C 37.6586 -1.21997 4.11601 0
M  V30 427 C 36.8916 -2.32212 4.80535 0
M  V30 428 O 37.1146 -3.52036 4.48806 0
M  V30 429 O 36.0486 -1.99106 5.68014 0
M  V30 430 H 39.8746 -0.00348199 3.037 0
M  V30 431 H 37.4596 0.0640035 1.49263 0
M  V30 432 H 39.3416 -2.42147 3.44881 0
M  V30 433 H 38.0166 -2.32016 2.25722 0
M  V30 434 H 36.9236 -0.511458 3.70587 0
M  V30 435 H 38.2566 -0.692419 4.87305 0
M  V30 436 N 39.9087 -1.5758 0.0250728 0
M  V30 437 C 40.8187 -2.1343 -0.973905 0
M  V30 438 C 41.8347 -1.08556 -1.35984 0
M  V30 439 O 43.0107 -1.40592 -1.44207 0
M  V30 440 C 40.0757 -2.64703 -2.23904 0
M  V30 441 C 39.1367 -3.84276 -1.91391 0
M  V30 442 C 38.3697 -4.33095 -3.11873 0
M  V30 443 O 38.5927 -3.81107 -4.24398 0
M  V30 444 O 37.5267 -5.24984 -2.94406 0
M  V30 445 H 41.3527 -2.99057 -0.529036 0
M  V30 446 H 38.9377 -1.48118 -0.195288 0
M  V30 447 H 40.8197 -2.97769 -2.98181 0
M  V30 448 H 39.4947 -1.82161 -2.6758 0
M  V30 449 H 38.4017 -3.56143 -1.14511 0
M  V30 450 H 39.7347 -4.67968 -1.52534 0
M  V30 451 N 41.3868 0.248026 -1.55636 0
M  V30 452 C 42.6358 0.974134 -1.76617 0
M  V30 453 C 42.9488 1.86528 -0.588796 0
M  V30 454 O 44.1548 2.62805 -0.681594 0
M  V30 455 C 42.6108 1.78213 -3.12679 0
M  V30 456 C 42.2188 0.93843 -4.38061 0
M  V30 457 C 43.9628 2.50104 -3.42999 0
M  V30 458 C 41.8698 1.74225 -5.65155 0
M  V30 459 H 40.7998 0.36745 -0.658405 0
M  V30 460 H 43.4508 0.22884 -1.82067 0
M  V30 461 H 41.8328 2.56933 -3.01333 0
M  V30 462 H 43.0068 0.193635 -4.60393 0
M  V30 463 H 41.3218 0.332905 -4.15067 0
M  V30 464 H 43.9188 3.10694 -4.3517 0
M  V30 465 H 44.2618 3.21662 -2.64271 0
M  V30 466 H 44.7948 1.78395 -3.55556 0
M  V30 467 H 41.5338 1.07043 -6.46701 0
M  V30 468 H 41.0538 2.46235 -5.46926 0
M  V30 469 H 42.7328 2.30967 -6.0437 0
M  V30 470 N 42.8649 1.48995 0.513639 0
M  V30 471 C 44.1129 1.57531 1.26604 0
M  V30 472 C 44.4339 0.258236 1.93283 0
M  V30 473 O 43.7039 -0.721502 1.8213 0
M  V30 474 H 42.2839 0.580387 0.470276 0
M  V30 475 H 44.9459 1.85552 0.596373 0
M  V30 476 H 44.0419 2.36486 2.03669 0
M  V30 477 N 44.343 -0.763751 1.37857 0
M  V30 478 C 45.273 -1.89103 1.36975 0
M  V30 479 C 46.254 -1.68439 0.237152 0
M  V30 480 O 47.439 -1.8918 0.438713 0
M  V30 481 C 44.569 -3.26496 1.18395 0
M  V30 482 C 43.523 -3.61741 2.28751 0
M  V30 483 C 42.849 -4.97762 1.95286 0
M  V30 484 C 44.149 -3.67665 3.70972 0
M  V30 485 H 45.843 -1.90099 2.31307 0
M  V30 486 H 43.389 -0.91319 1.11341 0
M  V30 487 H 45.342 -4.05003 1.16406 0
M  V30 488 H 44.066 -3.25955 0.205215 0
M  V30 489 H 42.725 -2.85547 2.29909 0
M  V30 490 H 42.373 -4.93769 0.959221 0
M  V30 491 H 42.073 -5.22313 2.69189 0
M  V30 492 H 43.597 -5.7866 1.94898 0
M  V30 493 H 45.011 -4.36307 3.719 0
M  V30 494 H 43.408 -4.03718 4.43995 0
M  V30 495 H 44.478 -2.68134 4.0402 0
M  V30 496 N 45.8211 -1.22559 -0.990812 0
M  V30 497 C 46.7691 -0.994798 -2.10253 0
M  V30 498 C 47.7631 0.0627798 -1.69284 0
M  V30 499 O 48.9691 -0.0898392 -1.79776 0
M  V30 500 H 45.3441 -0.304527 -0.687581 0
M  V30 501 H 47.3151 -1.93812 -2.26891 0
M  V30 502 C 46.0641 -0.591439 -3.42633 0
M  V30 503 H 45.3871 -1.3969 -3.74602 0
M  V30 504 H 46.8271 -0.469385 -4.21394 0
M  V30 505 C 45.2861 0.699232 -3.29564 0
M  V30 506 O 45.8161 1.75112 -3.61523 0
M  V30 507 N 44.0221 0.671182 -2.82743 0
M  V30 508 H 43.5691 -0.185136 -2.56934 0
M  V30 509 H 43.5271 1.53502 -2.7438 0
M  V30 510 N 47.2992 1.18797 -1.03562 0
M  V30 511 C 48.2292 2.24472 -0.643019 0
M  V30 512 C 49.2102 1.66433 0.351283 0
M  V30 513 O 50.3952 1.92803 0.232505 0
M  V30 514 C 47.5252 3.473 4.24935e-05 0
M  V30 515 C 46.4792 4.18055 -0.917257 0
M  V30 516 C 45.8052 5.34519 -0.138941 0
M  V30 517 C 47.1052 4.72109 -2.23407 0
M  V30 518 H 48.7992 2.57566 -1.52643 0
M  V30 519 H 46.3452 1.23806 -0.735394 0
M  V30 520 H 48.2982 4.20426 0.286383 0
M  V30 521 H 47.0222 3.13424 0.918299 0
M  V30 522 H 45.6812 3.46821 -1.1879 0
M  V30 523 H 45.3292 4.96891 0.781562 0
M  V30 524 H 45.0292 5.82794 -0.750005 0
M  V30 525 H 46.5532 6.10438 0.1405 0
M  V30 526 H 47.9672 5.36955 -2.00879 0
M  V30 527 H 46.3642 5.30897 -2.79765 0
M  V30 528 H 47.4342 3.89807 -2.88407 0
M  V30 529 N 48.7773 0.814389 1.34928 0
M  V30 530 C 49.6873 0.231978 2.3345 0
M  V30 531 C 50.7033 -0.629139 1.62228 0
M  V30 532 O 51.8793 -0.539052 1.94052 0
M  V30 533 C 48.9443 -0.603482 3.41407 0
M  V30 534 C 48.0053 0.279037 4.28392 0
M  V30 535 C 47.2383 -0.516643 5.31193 0
M  V30 536 O 47.4613 -1.75068 5.4287 0
M  V30 537 O 46.3953 0.0965652 6.01823 0
M  V30 538 H 50.2213 1.04721 2.85074 0
M  V30 539 H 47.8063 0.576343 1.37836 0
M  V30 540 H 49.6883 -1.07908 4.0735 0
M  V30 541 H 48.3633 -1.39618 2.92042 0
M  V30 542 H 47.2703 0.801948 3.65403 0
M  V30 543 H 48.6033 1.03588 4.81176 0
M  V30 544 N 50.2554 -1.46986 0.568584 0
M  V30 545 C 51.5034 -2.02041 0.0487022 0
M  V30 546 C 51.8244 -1.44408 -1.31039 0
M  V30 547 O 51.0944 -0.623477 -1.85714 0
M  V30 548 H 49.6744 -0.746849 0.015014 0
M  V30 549 H 52.3364 -1.80257 0.741168 0
M  V30 550 H 51.4324 -3.12085 -0.0308961 0
M  V30 551 N 51.7335 -0.305618 -1.54608 0
M  V30 552 C 53.1495 0.0476228 -1.59529 0
M  V30 553 C 53.3495 1.52025 -1.32252 0
M  V30 554 O 52.4055 2.27368 -1.09818 0
M  V30 555 C 53.7185 -0.354471 -2.98603 0
M  V30 556 C 55.2665 -0.303622 -3.11524 0
M  V30 557 C 55.7415 -0.680608 -4.52915 0
M  V30 558 N 57.2325 -0.63332 -4.5885 0
M  V30 559 C 57.9675 -0.897432 -5.66334 0
M  V30 560 N 57.4635 -1.22775 -6.81834 0
M  V30 561 N 59.2565 -0.824186 -5.56025 0
M  V30 562 H 51.4075 -1.2653 -1.70599 0
M  V30 563 H 53.6705 -0.513291 -0.797017 0
M  V30 564 H 53.3765 -1.3798 -3.23503 0
M  V30 565 H 53.2505 0.289568 -3.76087 0
M  V30 566 H 55.6375 0.712472 -2.8637 0
M  V30 567 H 55.7185 -0.982348 -2.36185 0
M  V30 568 H 55.3625 -1.69453 -4.78799 0
M  V30 569 H 55.2925 0.0202385 -5.26596 0
M  V30 570 H 57.7835 -0.389138 -3.75891 0
M  V30 571 H 58.0965 -1.41513 -7.59733 0
M  V30 572 H 56.4415 -1.26583 -6.83375 0
M  V30 573 H 59.6325 -0.565748 -4.64669 0
M  V30 574 H 59.8055 -1.03338 -6.39707 0
M  V30 575 N 53.2116 1.57565 -0.0334293 0
M  V30 576 C 54.1746 2.09393 0.932048 0
M  V30 577 C 55.1746 1.00986 1.25134 0
M  V30 578 O 56.3646 1.27129 1.19096 0
M  V30 579 C 53.4966 2.56338 2.2473 0
M  V30 580 H 54.6896 2.95984 0.483085 0
M  V30 581 H 52.2426 1.54819 0.21468 0
M  V30 582 H 52.9776 1.7309 2.74245 0
M  V30 583 H 52.7626 3.35542 2.02865 0
M  V30 584 H 54.2526 2.96646 2.93923 0
M  V30 585 N 54.6897 -0.239769 1.55765 0
M  V30 586 C 55.6377 -1.31668 1.91745 0
M  V30 587 C 56.6317 -1.49462 0.797338 0
M  V30 588 O 57.8377 -1.50852 0.982021 0
M  V30 589 H 54.2127 -0.441048 0.609082 0
M  V30 590 H 56.1837 -0.985923 2.81642 0
M  V30 591 C 54.9327 -2.66368 2.2348 0
M  V30 592 H 54.2557 -2.53478 3.09175 0
M  V30 593 H 55.6957 -3.40578 2.52553 0
M  V30 594 C 54.1547 -3.20002 1.05359 0
M  V30 595 O 54.6847 -4.00538 0.305261 0
M  V30 596 N 52.8907 -2.78126 0.842292 0
M  V30 597 H 52.4377 -2.12742 1.45253 0
M  V30 598 H 52.3957 -3.14354 0.053652 0
M  V30 599 N 56.1678 -1.49265 -0.50573 0
M  V30 600 C 57.4138 -1.58748 -1.26202 0
M  V30 601 C 57.7468 -0.271227 -1.92297 0
M  V30 602 O 57.0218 0.724831 -1.80489 0
M  V30 603 C 57.3048 -2.74332 -2.33268 0
M  V30 604 C 57.1578 -4.15737 -1.71705 0
M  V30 605 C 58.4768 -2.85576 -3.34865 0
M  V30 606 H 55.5958 -0.577826 -0.457478 0
M  V30 607 H 58.2378 -1.81532 -0.560897 0
M  V30 608 H 56.3878 -2.55036 -2.93068 0
M  V30 609 H 58.0598 -4.46537 -1.15769 0
M  V30 610 H 56.3028 -4.21605 -1.02135 0
M  V30 611 H 56.9738 -4.92477 -2.49341 0
M  V30 612 H 59.4498 -3.03127 -2.8505 0
M  V30 613 H 58.3258 -3.68135 -4.07146 0
M  V30 614 H 58.5868 -1.94732 -3.96903 0
M  V30 615 N 57.6459 0.756429 -1.3826 0
M  V30 616 C 58.5559 1.9009 -1.37488 0
M  V30 617 C 59.5719 1.71855 -0.272366 0
M  V30 618 O 60.7479 1.94827 -0.510318 0
M  V30 619 C 57.8129 3.25421 -1.19592 0
M  V30 620 C 56.8739 3.56202 -2.39622 0
M  V30 621 C 56.1069 4.85075 -2.2257 0
M  V30 622 O 56.3299 5.57246 -1.21793 0
M  V30 623 O 55.2639 5.15269 -3.11098 0
M  V30 624 H 59.0899 1.93695 -2.33914 0
M  V30 625 H 56.6749 0.901313 -1.1915 0
M  V30 626 H 58.5569 4.06337 -1.11661 0
M  V30 627 H 57.2319 3.22634 -0.262486 0
M  V30 628 H 56.1389 2.75458 -2.53128 0
M  V30 629 H 57.4719 3.63747 -3.31586 0
M  V30 630 N 59.124 1.23083 0.984299 0
M  V30 631 C 60.372 1.05848 1.72165 0
M  V30 632 C 60.693 -0.406049 1.90726 0
M  V30 633 O 59.963 -1.29139 1.47309 0
M  V30 634 H 58.543 0.388685 0.637913 0
M  V30 635 H 61.205 1.54736 1.18503 0
M  V30 636 H 60.301 1.54327 2.71274 0
M  V30 637 N 60.6021 -1.18246 1.0419 0
M  V30 638 C 61.5121 -2.25574 0.644476 0
M  V30 639 C 62.5281 -1.70845 -0.329826 0
M  V30 640 O 63.7041 -2.00554 -0.184443 0
M  V30 641 C 60.7691 -3.46697 0.014877 0
M  V30 642 C 59.8301 -4.16554 1.03834 0
M  V30 643 C 59.0631 -5.31894 0.438692 0
M  V30 644 O 59.2861 -5.65385 -0.754752 0
M  V30 645 O 58.2201 -5.90459 1.168 0
M  V30 646 H 62.0461 -2.61836 1.53869 0
M  V30 647 H 59.6311 -1.25352 0.812854 0
M  V30 648 H 61.5131 -4.20062 -0.335538 0
M  V30 649 H 60.1881 -3.12255 -0.853138 0
M  V30 650 H 59.0951 -3.45251 1.44057 0
M  V30 651 H 60.4281 -4.54998 1.87716 0
M  V30 652 N 62.0802 -0.821533 -1.34494 0
M  V30 653 C 63.3262 -0.418729 -1.99043 0
M  V30 654 C 63.6812 1.00672 -1.6396 0
M  V30 655 O 62.9742 1.69132 -0.900271 0
M  V30 656 C 63.1682 -0.556512 -3.53041 0
M  V30 657 C 62.9972 -1.9938 -4.03085 0
M  V30 658 C 61.7672 -2.62539 -4.31742 0
M  V30 659 C 63.9652 -2.96035 -4.20556 0
M  V30 660 N 61.9472 -3.97523 -4.67813 0
M  V30 661 C 63.3182 -4.15924 -4.59791 0
M  V30 662 C 65.3732 -2.9267 -4.02801 0
M  V30 663 C 64.0762 -5.32899 -4.83126 0
M  V30 664 C 66.1022 -4.08861 -4.27302 0
M  V30 665 C 65.4642 -5.275 -4.66822 0
M  V30 666 H 61.5632 -0.201299 -0.755647 0
M  V30 667 H 64.1472 -1.06594 -1.62929 0
M  V30 668 H 62.3182 0.0607924 -3.88352 0
M  V30 669 H 64.0502 -0.126842 -4.04501 0
M  V30 670 H 60.8052 -2.13789 -4.22601 0
M  V30 671 H 61.2292 -4.67061 -4.90085 0
M  V30 672 H 65.8712 -2.02088 -3.71376 0
M  V30 673 H 63.5892 -6.24041 -5.13418 0
M  V30 674 H 67.1752 -4.07654 -4.15101 0
M  V30 675 H 66.0552 -6.15913 -4.85408 0
M  V30 676 N 63.5583 1.46682 -0.576371 0
M  V30 677 C 64.5213 2.28707 0.150239 0
M  V30 678 C 65.5213 1.38035 0.824794 0
M  V30 679 O 66.7113 1.60476 0.677719 0
M  V30 680 C 63.8433 3.18248 1.22192 0
M  V30 681 H 65.0363 2.94423 -0.570521 0
M  V30 682 H 62.5893 1.52688 -0.334078 0
M  V30 683 H 63.3243 2.57265 1.97447 0
M  V30 684 H 63.1093 3.85 0.742812 0
M  V30 685 H 64.5993 3.80001 1.73172 0
M  V30 686 N 65.0364 0.313813 1.54444 0
M  V30 687 C 66.2844 -0.291099 1.99993 0
M  V30 688 C 66.6054 -1.53418 1.20366 0
M  V30 689 O 65.8754 -1.93544 0.302927 0
M  V30 690 H 64.4554 -0.110552 0.738774 0
M  V30 691 H 67.1174 0.428106 1.9014 0
M  V30 692 H 66.2134 -0.554268 3.07139 0
M  V30 693 N 66.5145 -1.57545 0.0417849 0
M  V30 694 C 67.9305 -1.56467 -0.314704 0
M  V30 695 C 68.1305 -1.04859 -1.72066 0
M  V30 696 O 67.1865 -0.700983 -2.42575 0
M  V30 697 C 68.4995 -3.00317 -0.15174 0
M  V30 698 C 70.0475 -3.12201 -0.223553 0
M  V30 699 C 70.5225 -4.57913 -0.0892295 0
M  V30 700 N 72.0135 -4.6297 -0.145808 0
M  V30 701 C 72.7485 -5.73362 -0.0658459 0
M  V30 702 N 72.2445 -6.92769 0.0659282 0
M  V30 703 N 74.0375 -5.6197 -0.12075 0
M  V30 704 H 66.1885 -1.89416 0.961014 0
M  V30 705 H 68.4515 -0.871862 0.372237 0
M  V30 706 H 68.1575 -3.42073 0.817254 0
M  V30 707 H 68.0315 -3.65892 -0.916692 0
M  V30 708 H 70.4185 -2.70349 -1.18301 0
M  V30 709 H 70.4995 -2.49323 0.571994 0
M  V30 710 H 70.1435 -5.00448 0.866867 0
M  V30 711 H 70.0735 -5.18786 -0.903802 0
M  V30 712 H 72.5645 -3.7709 -0.247286 0
M  V30 713 H 72.8775 -7.72707 0.119905 0
M  V30 714 H 71.2225 -6.94927 0.100885 0
M  V30 715 H 74.4135 -4.67572 -0.222187 0
M  V30 716 H 74.5865 -6.47977 -0.0549735 0
M  V30 717 N 67.9926 0.231505 -1.5589 0
M  V30 718 C 69.2386 0.95877 -1.78705 0
M  V30 719 C 69.5716 1.8438 -0.609725 0
M  V30 720 O 68.8466 1.90521 0.391426 0
M  V30 721 C 69.1296 1.8062 -3.11526 0
M  V30 722 C 68.9826 0.948328 -4.39689 0
M  V30 723 C 70.3016 2.78585 -3.40703 0
M  V30 724 H 67.4206 0.347129 -0.650131 0
M  V30 725 H 70.0626 0.228259 -1.88624 0
M  V30 726 H 68.2126 2.42902 -3.03201 0
M  V30 727 H 69.8846 0.343016 -4.60023 0
M  V30 728 H 68.1276 0.253314 -4.3306 0
M  V30 729 H 68.7986 1.57543 -5.29041 0
M  V30 730 H 71.2746 2.26439 -3.49091 0
M  V30 731 H 70.1506 3.34988 -4.34826 0
M  V30 732 H 70.4116 3.55825 -2.62375 0
M  V30 733 N 69.4707 1.49531 0.497807 0
M  V30 734 C 70.6987 1.62893 1.27567 0
M  V30 735 C 71.1137 0.301585 1.86376 0
M  V30 736 O 70.4707 -0.713335 1.67982 0
M  V30 737 C 70.5217 2.70013 2.40364 0
M  V30 738 O 70.2427 3.976 1.83972 0
M  V30 739 C 71.7437 2.94109 3.31685 0
M  V30 740 H 68.9637 0.548298 0.386794 0
M  V30 741 H 71.5077 1.95584 0.597245 0
M  V30 742 H 69.6627 2.40092 3.04031 0
M  V30 743 H 70.0767 4.56631 2.58047 0
M  V30 744 H 71.5507 3.72788 4.07104 0
M  V30 745 H 72.0277 2.04147 3.88871 0
M  V30 746 H 72.6337 3.2546 2.73781 0
M  V30 747 N 70.9488 -0.749086 1.3866 0
M  V30 748 C 72.1968 -1.50535 1.34847 0
M  V30 749 C 72.5178 -1.94909 -0.0595016 0
M  V30 750 O 71.7878 -1.67973 -1.00806 0
M  V30 751 H 70.3678 -0.558395 0.49619 0
M  V30 752 H 73.0298 -0.890165 1.73384 0
M  V30 753 H 72.1258 -2.39413 2.00219 0
M  V30 754 N 72.4269 -1.23603 -0.977757 0
M  V30 755 C 73.3569 -1.04401 -2.0886 0
M  V30 756 C 74.3379 0.0399052 -1.70053 0
M  V30 757 O 75.5229 -0.125246 -1.93796 0
M  V30 758 C 72.6529 -0.637269 -3.41403 0
M  V30 759 C 71.6069 -1.66883 -3.94124 0
M  V30 760 C 70.9329 -1.11745 -5.22893 0
M  V30 761 C 72.2329 -3.06247 -4.23096 0
M  V30 762 H 73.9269 -1.97316 -2.25182 0
M  V30 763 H 71.4729 -0.950096 -1.08209 0
M  V30 764 H 73.4259 -0.48998 -4.18542 0
M  V30 765 H 72.1499 0.327557 -3.24953 0
M  V30 766 H 70.8089 -1.80416 -3.19133 0
M  V30 767 H 70.4569 -0.143527 -5.02795 0
M  V30 768 H 70.1569 -1.80672 -5.59134 0
M  V30 769 H 71.6809 -0.982067 -6.02651 0
M  V30 770 H 73.0949 -2.96001 -4.90975 0
M  V30 771 H 71.4919 -3.72436 -4.70544 0
M  V30 772 H 72.5619 -3.55041 -3.30263 0
M  V30 773 N 73.905 1.17692 -1.04816 0
M  V30 774 C 75.153 1.87488 -0.754497 0
M  V30 775 C 75.474 1.81205 0.720407 0
M  V30 776 O 74.744 1.23544 1.52032 0
M  V30 777 H 73.324 0.694101 -0.276102 0
M  V30 778 H 75.986 1.42793 -1.32651 0
M  V30 779 H 75.082 2.93328 -1.06606 0
M  V30 780 N 75.3831 0.828654 1.34056 0
M  V30 781 C 76.6081 0.431637 2.02859 0
M  V30 782 C 77.0331 -0.956339 1.61975 0
M  V30 783 O 76.3911 -1.62338 0.807228 0
M  V30 784 C 76.4391 0.548323 3.56407 0
M  V30 785 O 75.5431 -0.429556 4.10157 0
M  V30 786 H 74.8841 0.176886 0.640006 0
M  V30 787 H 77.4141 1.12066 1.71179 0
M  V30 788 H 77.4241 0.426196 4.05768 0
M  V30 789 H 76.0991 1.5606 3.8551 0
M  V30 790 H 74.6761 -0.265836 3.71951 0
M  V30 791 N 76.8612 -1.46375 0.584142 0
M  V30 792 C 77.7932 -2.28443 -0.186119 0
M  V30 793 C 78.8062 -1.38596 -0.854115 0
M  V30 794 O 79.9952 -1.63183 -0.723438 0
M  V30 795 C 77.0952 -3.13671 -1.28311 0
M  V30 796 C 76.2682 -4.31652 -0.706758 0
M  V30 797 C 75.3272 -4.98267 -1.69163 0
M  V30 798 O 74.3532 -5.55815 -1.22712 0
M  V30 799 N 75.5552 -4.95408 -3.02575 0
M  V30 800 H 78.3202 -2.9519 0.517986 0
M  V30 801 H 75.8812 -1.56303 0.42201 0
M  V30 802 H 77.8732 -3.55101 -1.94128 0
M  V30 803 H 76.4432 -2.48989 -1.89005 0
M  V30 804 H 75.6632 -3.93989 0.128908 0
M  V30 805 H 76.9512 -5.07906 -0.301506 0
M  V30 806 H 76.3492 -4.49902 -3.42936 0
M  V30 807 H 74.9062 -5.40774 -3.63877 0
M  V30 808 N 78.3393 -0.321999 -1.54275 0
M  V30 809 C 79.5793 0.281657 -2.0245 0
M  V30 810 C 79.9433 1.49468 -1.20513 0
M  V30 811 O 81.1443 2.17109 -1.58484 0
M  V30 812 C 79.4153 0.609014 -3.52173 0
M  V30 813 S 80.9743 1.19255 -4.22284 0
M  V30 814 H 77.7923 0.0852825 -0.705867 0
M  V30 815 H 80.3943 -0.454758 -1.90137 0
M  V30 816 H 79.0983 -0.281982 -4.0943 0
M  V30 817 H 78.6293 1.37567 -3.68563 0
M  V30 818 H 80.6443 2.47944 -4.29812 0
M  V30 819 N 79.8174 1.5752 -0.0501392 0
M  V30 820 C 81.0634 1.92936 0.624798 0
M  V30 821 C 81.3964 0.928685 1.70555 0
M  V30 822 O 80.6714 -0.0454779 1.94447 0
M  V30 823 C 80.9544 3.38737 1.22185 0
M  V30 824 C 80.8074 4.49552 0.149218 0
M  V30 825 C 82.1264 3.84913 2.13378 0
M  V30 826 H 79.2454 0.701604 0.225657 0
M  V30 827 H 81.8874 1.89671 -0.111693 0
M  V30 828 H 80.0374 3.4165 1.84953 0
M  V30 829 H 81.7094 4.58768 -0.482648 0
M  V30 830 H 79.9524 4.30638 -0.522841 0
M  V30 831 H 80.6234 5.48653 0.606966 0
M  V30 832 H 83.0994 3.8387 1.60572 0
M  V30 833 H 81.9754 4.87584 2.52097 0
M  V30 834 H 82.2364 3.21611 3.03346 0
M  V30 835 N 81.2955 -0.223234 1.56011 0
M  V30 836 C 82.2055 -1.29766 1.95443 0
M  V30 837 C 83.2215 -1.51373 0.858028 0
M  V30 838 O 84.3975 -1.64536 1.16146 0
M  V30 839 C 81.4625 -2.62772 2.26167 0
M  V30 840 C 80.5235 -2.49482 3.49367 0
M  V30 841 C 79.7565 -3.76145 3.78616 0
M  V30 842 O 79.9795 -4.79087 3.09568 0
M  V30 843 O 78.9135 -3.73358 4.72109 0
M  V30 844 H 82.7395 -0.99309 2.87004 0
M  V30 845 H 80.3245 -0.425958 1.43199 0
M  V30 846 H 82.2065 -3.41327 2.47131 0
M  V30 847 H 80.8815 -2.92913 1.37781 0
M  V30 848 H 79.7885 -1.69133 3.33684 0
M  V30 849 H 81.1215 -2.2428 4.38131 0
M  V30 850 N 82.7736 -1.49793 -0.48987 0
M  V30 851 C 84.0226 -1.59085 -1.23995 0
M  V30 852 C 84.3356 -0.287907 -1.9347 0
M  V30 853 O 85.5416 -0.259506 -2.70257 0
M  V30 854 C 83.9976 -2.80736 -2.252 0
M  V30 855 C 83.6056 -4.17833 -1.61614 0
M  V30 856 C 85.3496 -2.99364 -3.00967 0
M  V30 857 C 83.2566 -5.30693 -2.60996 0
M  V30 858 H 82.1866 -0.592372 -0.466488 0
M  V30 859 H 84.8376 -1.76197 -0.51252 0
M  V30 860 H 83.2196 -2.57142 -3.01154 0
M  V30 861 H 84.3936 -4.51608 -0.915774 0
M  V30 862 H 82.7086 -4.04656 -0.981977 0
M  V30 863 H 85.3056 -3.80851 -3.75308 0
M  V30 864 H 85.6486 -2.10356 -3.59244 0
M  V30 865 H 86.1816 -3.2305 -2.32128 0
M  V30 866 H 82.9206 -6.21796 -2.07485 0
M  V30 867 H 82.4406 -5.01359 -3.2924 0
M  V30 868 H 84.1196 -5.6049 -3.23202 0
M  V30 869 N 84.2517 0.741722 -1.39055 0
M  V30 870 C 85.2147 1.83733 -1.37021 0
M  V30 871 C 86.2147 1.58542 -0.268534 0
M  V30 872 O 87.4047 1.66067 -0.526076 0
M  V30 873 C 84.5367 3.2141 -1.13617 0
M  V30 874 H 85.7297 1.86941 -2.34506 0
M  V30 875 H 83.2827 0.944676 -1.24521 0
M  V30 876 H 84.0177 3.23865 -0.167863 0
M  V30 877 H 83.8027 3.4109 -1.93391 0
M  V30 878 H 85.2927 4.01477 -1.14918 0
M  V30 879 N 85.7298 1.2412 0.971189 0
M  V30 880 C 86.6628 0.97373 2.06382 0
M  V30 881 C 87.6408 -0.0912662 1.62344 0
M  V30 882 O 88.8248 0.0449365 1.88446 0
M  V30 883 C 85.9518 0.468746 3.35441 0
M  V30 884 C 84.9978 1.52176 3.98428 0
M  V30 885 S 85.8308 3.10203 4.36503 0
M  V30 886 C 86.9868 2.61398 5.68702 0
M  V30 887 H 87.2198 1.89893 2.28753 0
M  V30 888 H 84.7528 1.07466 1.10862 0
M  V30 889 H 86.7108 0.184012 4.10087 0
M  V30 890 H 85.3718 -0.435688 3.11064 0
M  V30 891 H 84.5648 1.11876 4.91426 0
M  V30 892 H 84.1668 1.75632 3.30196 0
M  V30 893 H 86.4588 2.03992 6.4606 0
M  V30 894 H 87.4018 3.52972 6.13854 0
M  V30 895 H 87.8098 2.01941 5.27143 0
M  V30 896 N 87.2079 -1.17134 1.05439 0
M  V30 897 C 88.1409 -2.2012 0.601855 0
M  V30 898 C 89.1189 -1.58314 -0.370854 0
M  V30 899 O 90.3029 -1.8638 -0.281882 0
M  V30 900 C 87.4299 -3.38491 -0.118868 0
M  V30 901 C 86.4759 -4.18752 0.809242 0
M  V30 902 S 87.3089 -4.83602 2.29977 0
M  V30 903 C 88.4649 -6.0536 1.59029 0
M  V30 904 H 88.6979 -2.58165 1.47438 0
M  V30 905 H 86.2309 -1.27788 0.866573 0
M  V30 906 H 88.1889 -4.07084 -0.528495 0
M  V30 907 H 86.8499 -2.98829 -0.967465 0
M  V30 908 H 86.0429 -5.03373 0.251379 0
M  V30 909 H 85.6449 -3.5561 1.15835 0
M  V30 910 H 87.9369 -6.71615 0.891017 0
M  V30 911 H 88.8799 -6.65679 2.41407 0
M  V30 912 H 89.2879 -5.54138 1.07663 0
M  V30 913 N 88.686 -0.835752 -1.33615 0
M  V30 914 C 89.932 -0.430596 -1.98176 0
M  V30 915 C 90.265 1.00684 -1.66061 0
M  V30 916 O 89.54 1.70339 -0.938877 0
M  V30 917 C 89.823 -0.648065 -3.5422 0
M  V30 918 C 89.676 -2.13255 -3.96033 0
M  V30 919 C 90.995 -0.0922113 -4.40003 0
M  V30 920 H 88.114 -0.157924 -0.719881 0
M  V30 921 H 90.756 -1.05069 -1.58305 0
M  V30 922 H 88.906 -0.120237 -3.88314 0
M  V30 923 H 90.578 -2.725 -3.72211 0
M  V30 924 H 88.821 -2.61823 -3.45878 0
M  V30 925 H 89.492 -2.23547 -5.04708 0
M  V30 926 H 91.968 -0.543343 -4.12537 0
M  V30 927 H 90.844 -0.274083 -5.48215 0
M  V30 928 H 91.105 1.00378 -4.30554 0
M  V30 929 N 90.1641 1.46063 -0.591896 0
M  V30 930 C 91.3921 2.06717 -0.0868936 0
M  V30 931 C 91.8071 1.43916 1.22203 0
M  V30 932 O 91.1641 0.547698 1.74088 0
M  V30 933 C 91.2151 3.6142 0.0758725 0
M  V30 934 O 90.9361 4.21874 -1.18126 0
M  V30 935 C 92.4371 4.39025 0.61416 0
M  V30 936 H 89.6571 0.668162 -0.0616518 0
M  V30 937 H 92.2011 1.8755 -0.815175 0
M  V30 938 H 90.3561 3.79983 0.754413 0
M  V30 939 H 90.7701 5.14861 -1.00092 0
M  V30 940 H 92.2441 5.4783 0.677193 0
M  V30 941 H 92.7211 4.07708 1.63312 0
M  V30 942 H 93.3271 4.2529 -0.0298142 0
M  V30 943 N 91.6422 0.330177 1.54103 0
M  V30 944 C 93.0532 -0.15652 1.86043 0
M  V30 945 C 93.4042 -1.51086 1.2517 0
M  V30 946 O 92.5292 -2.09023 0.560217 0
M  V30 947 C 93.1242 -0.290784 3.3755 0
M  V30 948 C 91.6832 -0.721705 3.69416 0
M  V30 949 C 90.8302 0.152622 2.7688 0
M  V30 950 H 93.7812 0.550237 1.48856 0
M  V30 951 H 93.8022 -1.12058 3.63625 0
M  V30 952 H 93.3142 0.695068 3.81825 0
M  V30 953 H 91.4152 -1.71706 3.30678 0
M  V30 954 H 91.5282 -0.520869 4.7626 0
M  V30 955 H 89.8922 -0.372894 2.51956 0
M  V30 956 H 90.6752 1.13536 3.23982 0
M  V30 957 N 93.1203 -1.57491 0.0584922 0
M  V30 958 C 94.3973 -1.84346 -0.653918 0
M  V30 959 C 94.7773 -0.948355 -1.88599 0
M  V30 960 O 94.1253 -0.0112403 -2.28497 0
M  V30 961 C 94.3353 -3.34239 -1.00425 0
M  V30 962 C 95.6833 -4.01431 -1.38342 0
M  V30 963 O 96.7073 -3.38907 -1.09637 0
M  V30 964 O 95.5663 -5.11683 -1.91943 0
M  V30 965 H 92.6603 -0.761112 -0.323478 0
M  V30 966 H 95.2063 -1.6947 0.0884125 0
M  V30 967 H 93.9783 -3.91089 -0.128625 0
M  V30 968 H 93.6013 -3.54329 -1.80378 0
M  V30 969 N 94.5984 0.214957 -1.56127 0
M  V30 970 C 95.8464 0.936518 -1.79091 0
M  V30 971 C 96.1674 1.84606 -0.628148 0
M  V30 972 O 95.4374 1.92664 0.35462 0
M  V30 973 H 94.0174 0.3488 -0.660566 0
M  V30 974 H 96.6794 0.22523 -1.93594 0
M  V30 975 H 95.7754 1.53943 -2.71492 0
M  V30 976 N 96.0765 1.50051 0.48192 0
M  V30 977 C 97.0265 1.64512 1.5786 0
M  V30 978 C 98.0105 0.500073 1.52932 0
M  V30 979 O 99.2025 0.753964 1.60139 0
M  V30 980 C 96.3315 1.73263 2.9637 0
M  V30 981 C 95.4175 2.93409 3.06222 0
M  V30 982 N 95.8085 4.17236 2.85915 0
M  V30 983 C 94.1065 2.91742 3.37346 0
M  V30 984 C 94.8075 4.981 3.00451 0
M  V30 985 N 93.7835 4.3184 3.30174 0
M  V30 986 H 97.5855 2.57955 1.40842 0
M  V30 987 H 95.0995 1.47086 0.688439 0
M  V30 988 H 97.0965 1.81724 3.75209 0
M  V30 989 H 95.7565 0.809711 3.14442 0
M  V30 990 H 96.7675 4.46909 2.6171 0
M  V30 991 H 93.4445 2.08907 3.61475 0
M  V30 992 H 94.8345 6.06532 2.89082 0
M  V30 993 N 97.5546 -0.734337 1.39446 0
M  V30 994 C 98.7796 -1.52866 1.40167 0
M  V30 995 C 99.2046 -1.881 -0.00171513 0
M  V30 996 O 98.5626 -1.51957 -0.988879 0
M  V30 997 C 98.6106 -2.79235 2.28167 0
M  V30 998 O 97.7146 -3.75185 1.71201 0
M  V30 999 H 97.0556 -0.461618 0.477289 0
M  V30 1000 H 99.5856 -0.905949 1.8345 0
M  V30 1001 H 99.5956 -3.27963 2.42702 0
M  V30 1002 H 98.2706 -2.52923 3.30156 0
M  V30 1003 H 96.8476 -3.33958 1.65912 0
M  V30 1004 N 99.0327 -1.24633 -0.964593 0
M  V30 1005 C 100.449 -1.01239 -1.2338 0
M  V30 1006 C 100.649 0.2769 -1.99588 0
M  V30 1007 O 99.7047 0.992241 -2.32187 0
M  V30 1008 C 101.018 -2.22937 -2.01791 0
M  V30 1009 C 102.566 -2.27594 -2.14872 0
M  V30 1010 C 103.041 -3.48921 -2.96678 0
M  V30 1011 N 104.532 -3.49257 -3.04259 0
M  V30 1012 C 105.267 -4.39795 -3.67924 0
M  V30 1013 N 104.763 -5.40591 -4.33281 0
M  V30 1014 N 106.556 -4.275 -3.64966 0
M  V30 1015 H 98.7067 -2.0748 -0.454502 0
M  V30 1016 H 100.97 -0.910647 -0.26349 0
M  V30 1017 H 100.676 -3.16587 -1.53184 0
M  V30 1018 H 100.55 -2.25306 -3.02518 0
M  V30 1019 H 102.937 -1.34473 -2.6268 0
M  V30 1020 H 103.018 -2.2925 -1.13482 0
M  V30 1021 H 102.662 -4.42359 -2.49562 0
M  V30 1022 H 102.592 -3.4451 -3.98272 0
M  V30 1023 H 105.083 -2.76337 -2.57771 0
M  V30 1024 H 105.396 -6.05904 -4.79687 0
M  V30 1025 H 103.741 -5.44475 -4.3194 0
M  V30 1026 H 106.932 -3.47987 -3.13086 0
M  V30 1027 H 107.105 -4.98258 -4.14298 0
M  V30 1028 N 100.511 1.16574 -1.06058 0
M  V30 1029 C 101.76 1.86385 -0.770944 0
M  V30 1030 C 102.073 1.82448 0.705129 0
M  V30 1031 O 103.279 2.47815 1.10905 0
M  V30 1032 C 101.735 3.34466 -1.32893 0
M  V30 1033 C 101.343 3.46883 -2.83507 0
M  V30 1034 C 103.087 4.09548 -1.11672 0
M  V30 1035 C 100.994 4.89036 -3.32562 0
M  V30 1036 H 99.9238 0.698181 -0.284709 0
M  V30 1037 H 102.575 1.31583 -1.27899 0
M  V30 1038 H 100.957 3.88859 -0.748662 0
M  V30 1039 H 102.131 3.02663 -3.47465 0
M  V30 1040 H 100.446 2.85232 -3.03368 0
M  V30 1041 H 103.043 5.14434 -1.45814 0
M  V30 1042 H 103.386 4.16264 -0.0549535 0
M  V30 1043 H 103.919 3.61387 -1.66265 0
M  V30 1044 H 100.658 4.87499 -4.38207 0
M  V30 1045 H 100.178 5.3389 -2.73351 0
M  V30 1046 H 101.857 5.57843 -3.2775 0
M  V30 1047 N 101.989 0.842826 1.3317 0
M  V30 1048 C 102.899 0.281444 2.32906 0
M  V30 1049 C 103.915 -0.594587 1.63526 0
M  V30 1050 O 105.091 -0.49777 1.95152 0
M  V30 1051 C 102.156 -0.530929 3.42611 0
M  V30 1052 C 101.217 0.369843 4.27704 0
M  V30 1053 C 100.45 -0.403853 5.3217 0
M  V30 1054 O 100.673 -1.63513 5.46461 0
M  V30 1055 O 99.6069 0.224199 6.01482 0
M  V30 1056 H 103.433 1.10744 2.82789 0
M  V30 1057 H 101.018 0.60545 1.36582 0
M  V30 1058 H 102.9 -0.992437 4.09547 0
M  V30 1059 H 101.575 -1.33392 2.94938 0
M  V30 1060 H 100.482 0.879275 3.6362 0
M  V30 1061 H 101.815 1.13771 4.78871 0
M  V30 1062 N 103.467 -1.45747 0.599634 0
M  V30 1063 C 104.397 -2.33235 -0.111306 0
M  V30 1064 C 105.378 -1.46359 -0.866781 0
M  V30 1065 O 106.563 -1.75146 -0.838904 0
M  V30 1066 C 103.693 -3.28932 -1.11451 0
M  V30 1067 C 102.647 -4.25381 -0.472772 0
M  V30 1068 C 101.973 -5.1071 -1.58365 0
M  V30 1069 C 103.273 -5.18831 0.600948 0
M  V30 1070 H 104.967 -2.92927 0.61919 0
M  V30 1071 H 102.513 -1.40857 0.299215 0
M  V30 1072 H 104.466 -3.89002 -1.62036 0
M  V30 1073 H 103.19 -2.67381 -1.8755 0
M  V30 1074 H 101.849 -3.66598 0.0121472 0
M  V30 1075 H 101.497 -4.45533 -2.33473 0
M  V30 1076 H 101.197 -5.7604 -1.15982 0
M  V30 1077 H 102.721 -5.73647 -2.09194 0
M  V30 1078 H 104.135 -5.73019 0.179491 0
M  V30 1079 H 102.532 -5.92595 0.946076 0
M  V30 1080 H 103.602 -4.6174 1.48068 0
M  V30 1081 N 104.945 -0.338344 -1.53925 0
M  V30 1082 C 106.17 0.263987 -2.05713 0
M  V30 1083 C 106.595 1.43847 -1.21201 0
M  V30 1084 O 105.953 1.79904 -0.224535 0
M  V30 1085 C 106.001 0.662 -3.54471 0
M  V30 1086 O 105.105 1.76265 -3.72833 0
M  V30 1087 H 104.446 0.0448722 -0.662482 0
M  V30 1088 H 106.976 -0.491048 -1.9862 0
M  V30 1089 H 106.986 0.940594 -3.9701 0
M  V30 1090 H 105.661 -0.196937 -4.15433 0
M  V30 1091 H 104.238 1.48173 -3.42198 0
M  V30 1092 N 106.423 1.57458 -0.0668435 0
M  V30 1093 C 107.839 1.56947 0.289772 0
M  V30 1094 C 108.039 1.07584 1.70376 0
M  V30 1095 O 107.095 0.739486 2.41429 0
M  V30 1096 C 108.408 3.0052 0.103943 0
M  V30 1097 C 109.956 3.12517 0.173857 0
M  V30 1098 C 110.431 4.57997 0.0163682 0
M  V30 1099 N 111.922 4.63144 0.0721352 0
M  V30 1100 C 112.657 5.73394 -0.0253794 0
M  V30 1101 N 112.153 6.92576 -0.176133 0
M  V30 1102 N 113.946 5.62091 0.0313305 0
M  V30 1103 H 106.097 1.87863 -0.991027 0
M  V30 1104 H 108.36 0.86583 -0.38606 0
M  V30 1105 H 108.066 3.40729 -0.871572 0
M  V30 1106 H 107.94 3.67304 0.858366 0
M  V30 1107 H 110.327 2.72197 1.13985 0
M  V30 1108 H 110.408 2.48381 -0.611586 0
M  V30 1109 H 110.052 4.99005 -0.946374 0
M  V30 1110 H 109.982 5.20158 0.821153 0
M  V30 1111 H 112.473 3.77436 0.187263 0
M  V30 1112 H 112.786 7.72418 -0.242821 0
M  V30 1113 H 111.131 6.94678 -0.211429 0
M  V30 1114 H 114.322 4.67867 0.147773 0
M  V30 1115 H 114.495 6.47982 -0.048121 0
M  V30 1116 N 107.901 -0.206675 1.56239 0
M  V30 1117 C 109.148 -0.928842 1.79941 0
M  V30 1118 C 109.476 -1.83734 0.638131 0
M  V30 1119 O 108.731 -1.92039 -0.376746 0
M  V30 1120 C 109.03 -1.78675 3.09532 0
M  V30 1121 C 108.696 -1.03022 4.38973 0
M  V30 1122 C 107.358 -0.821302 4.74139 0
M  V30 1123 C 109.71 -0.497081 5.18824 0
M  V30 1124 C 107.038 -0.0675719 5.86661 0
M  V30 1125 C 109.39 0.24338 6.32132 0
M  V30 1126 C 108.054 0.463422 6.65889 0
M  V30 1127 H 107.324 -0.339887 0.658451 0
M  V30 1128 H 109.971 -0.195977 1.90495 0
M  V30 1129 H 108.276 -2.58794 2.94165 0
M  V30 1130 H 109.973 -2.34792 3.25075 0
M  V30 1131 H 106.563 -1.20306 4.11369 0
M  V30 1132 H 110.747 -0.645921 4.92079 0
M  V30 1133 H 106.003 0.112995 6.11296 0
M  V30 1134 H 110.177 0.66393 6.93228 0
M  V30 1135 H 107.804 1.04938 7.52922 0
M  V30 1136 N 109.379 -1.50304 -0.473955 0
M  V30 1137 C 110.309 -1.71886 -1.58042 0
M  V30 1138 C 111.29 -0.567799 -1.60344 0
M  V30 1139 O 112.475 -0.806623 -1.76656 0
M  V30 1140 C 109.605 -1.81036 -2.96384 0
M  V30 1141 C 108.559 -2.962 -3.08949 0
M  V30 1142 C 107.885 -2.9049 -4.48909 0
M  V30 1143 C 109.185 -4.36752 -2.86434 0
M  V30 1144 H 110.879 -2.64527 -1.40234 0
M  V30 1145 H 108.425 -1.27295 -0.673201 0
M  V30 1146 H 110.378 -1.94719 -3.73714 0
M  V30 1147 H 109.102 -0.850147 -3.15341 0
M  V30 1148 H 107.761 -2.82164 -2.3405 0
M  V30 1149 H 107.409 -1.92321 -4.64781 0
M  V30 1150 H 107.109 -3.67802 -4.58253 0
M  V30 1151 H 108.633 -3.06218 -5.28264 0
M  V30 1152 H 110.047 -4.5133 -3.53517 0
M  V30 1153 H 108.444 -5.15493 -3.07225 0
M  V30 1154 H 109.514 -4.49321 -1.82316 0
M  V30 1155 N 110.857 0.726932 -1.39834 0
M  V30 1156 C 112.085 1.51613 -1.40787 0
M  V30 1157 C 112.5 1.88799 -0.00451505 0
M  V30 1158 O 111.857 1.54662 0.968809 0
M  V30 1159 C 111.908 2.79863 -2.28821 0
M  V30 1160 O 111.629 2.44253 -3.63692 0
M  V30 1161 C 113.13 3.73837 -2.38245 0
M  V30 1162 H 110.35 0.468264 -0.480593 0
M  V30 1163 H 112.894 0.897607 -1.83748 0
M  V30 1164 H 111.049 3.38027 -1.89252 0
M  V30 1165 H 111.463 3.26695 -4.1033 0
M  V30 1166 H 112.937 4.60699 -3.04073 0
M  V30 1167 H 113.414 4.16153 -1.40403 0
M  V30 1168 H 114.02 3.21589 -2.78317 0
M  V30 1169 N 112.336 1.25143 0.95797 0
M  V30 1170 C 113.747 1.08851 1.51685 0
M  V30 1171 C 114.098 -0.33687 1.93286 0
M  V30 1172 O 113.223 -1.22644 1.7829 0
M  V30 1173 C 113.818 1.96978 2.75654 0
M  V30 1174 C 112.377 1.84881 3.27866 0
M  V30 1175 C 111.524 1.91329 2.0072 0
M  V30 1176 H 114.475 1.38478 0.77522 0
M  V30 1177 H 114.496 1.5078 3.4935 0
M  V30 1178 H 114.008 3.00712 2.45345 0
M  V30 1179 H 112.109 0.840182 3.63004 0
M  V30 1180 H 112.222 2.6951 3.96107 0
M  V30 1181 H 110.586 1.35174 2.15871 0
M  V30 1182 H 111.369 2.96661 1.72764 0
M  V30 1183 N 113.814 -1.1601 1.06675 0
M  V30 1184 C 115.225 -1.68235 0.809565 0
M  V30 1185 C 115.576 -1.8454 -0.666303 0
M  V30 1186 O 114.701 -1.54374 -1.5165 0
M  V30 1187 C 115.296 -3.05585 1.46299 0
M  V30 1188 C 113.855 -3.54915 1.25349 0
M  V30 1189 C 113.002 -2.30804 1.53703 0
M  V30 1190 H 115.953 -1.00318 1.22971 0
M  V30 1191 H 115.974 -3.70174 0.880431 0
M  V30 1192 H 115.486 -2.93686 2.53713 0
M  V30 1193 H 113.587 -3.72067 0.199261 0
M  V30 1194 H 113.7 -4.36774 1.9689 0
M  V30 1195 H 112.064 -2.36007 0.957739 0
M  V30 1196 H 112.847 -2.21499 2.62284 0
M  V30 1197 N 115.292 -0.849877 -1.32721 0
M  V30 1198 C 116.52 -0.464754 -2.01613 0
M  V30 1199 C 116.935 0.937191 -1.63897 0
M  V30 1200 O 116.292 1.61081 -0.857856 0
M  V30 1201 C 116.343 -0.588638 -3.56675 0
M  V30 1202 O 116.064 -1.93535 -3.93034 0
M  V30 1203 C 117.565 -0.2019 -4.4284 0
M  V30 1204 H 114.785 -0.183215 -0.645502 0
M  V30 1205 H 117.329 -1.1455 -1.69407 0
M  V30 1206 H 115.484 0.0443159 -3.87375 0
M  V30 1207 H 115.898 -1.92871 -4.87751 0
M  V30 1208 H 117.372 -0.339599 -5.50954 0
M  V30 1209 H 117.849 0.857224 -4.30753 0
M  V30 1210 H 118.455 -0.809733 -4.17521 0
M  V30 1211 N 116.77 1.45427 -0.607355 0
M  V30 1212 C 118.019 2.01452 -0.100036 0
M  V30 1213 C 118.332 1.48159 1.27704 0
M  V30 1214 O 119.538 1.96159 1.87707 0
M  V30 1215 C 117.994 3.59672 -0.128158 0
M  V30 1216 C 117.602 4.21962 -1.50507 0
M  V30 1217 C 119.346 4.23262 0.323932 0
M  V30 1218 C 117.253 5.72333 -1.48959 0
M  V30 1219 H 116.183 0.75325 -0.0336299 0
M  V30 1220 H 118.834 1.66901 -0.76265 0
M  V30 1221 H 117.216 3.91411 0.601105 0
M  V30 1222 H 118.39 4.01796 -2.25602 0
M  V30 1223 H 116.705 3.70565 -1.89923 0
M  V30 1224 H 119.302 5.33522 0.354691 0
M  V30 1225 H 119.645 3.93921 1.34656 0
M  V30 1226 H 120.178 3.96239 -0.352056 0
M  V30 1227 H 116.917 6.06373 -2.48981 0
M  V30 1228 H 116.437 5.94691 -0.781214 0
M  V30 1229 H 118.116 6.35525 -1.21313 0
M  V30 1230 N 118.248 0.346503 1.53744 0
M  V30 1231 C 119.211 -0.496439 2.23759 0
M  V30 1232 C 120.211 -1.0252 1.2388 0
M  V30 1233 O 121.401 -0.913974 1.48297 0
M  V30 1234 C 118.533 -1.69187 2.95954 0
M  V30 1235 H 119.726 0.115952 2.99676 0
M  V30 1236 H 117.279 0.0978939 1.55993 0
M  V30 1237 H 118.014 -2.34288 2.24231 0
M  V30 1238 H 117.799 -1.31989 3.69217 0
M  V30 1239 H 119.289 -2.28969 3.49232 0
M  V30 1240 N 119.726 -1.57421 0.075193 0
M  V30 1241 C 121.003 -1.85029 -0.634329 0
M  V30 1242 C 121.383 -0.968305 -1.87582 0
M  V30 1243 O 120.731 -0.0354749 -2.28472 0
M  V30 1244 C 120.941 -3.35286 -0.968742 0
M  V30 1245 C 122.289 -4.02875 -1.34077 0
M  V30 1246 O 123.313 -3.40051 -1.06037 0
M  V30 1247 O 122.172 -5.13691 -1.86506 0
M  V30 1248 H 119.266 -0.7645 -0.315387 0
M  V30 1249 H 121.812 -1.69366 0.106382 0
M  V30 1250 H 120.584 -3.91203 -0.0871376 0
M  V30 1251 H 120.207 -3.56223 -1.7661 0
M  V30 1252 N 121.204 0.198386 -1.56346 0
M  V30 1253 C 122.154 1.2499 -1.90687 0
M  V30 1254 C 123.138 1.41158 -0.772217 0
M  V30 1255 O 124.33 1.43584 -1.03502 0
M  V30 1256 C 121.459 2.59542 -2.24706 0
M  V30 1257 C 120.545 2.47181 -3.44619 0
M  V30 1258 N 120.936 2.04495 -4.62618 0
M  V30 1259 C 119.234 2.78082 -3.48692 0
M  V30 1260 C 119.935 2.03945 -5.44776 0
M  V30 1261 N 118.911 2.45323 -4.85095 0
M  V30 1262 H 122.713 0.911149 -2.7942 0
M  V30 1263 H 120.227 0.40684 -1.57221 0
M  V30 1264 H 122.224 3.3549 -2.47491 0
M  V30 1265 H 120.884 2.94244 -1.37298 0
M  V30 1266 H 121.895 1.75256 -4.87345 0
M  V30 1267 H 118.572 3.17002 -2.71691 0
M  V30 1268 H 119.962 1.72872 -6.4928 0
M  V30 1269 N 122.682 1.50554 0.465978 0
M  V30 1270 C 124.098 1.38093 0.800154 0
M  V30 1271 C 124.298 0.440988 1.96615 0
M  V30 1272 O 123.354 -0.114499 2.5224 0
M  V30 1273 C 124.667 2.79565 1.10742 0
M  V30 1274 C 126.215 2.88516 1.21357 0
M  V30 1275 C 126.69 4.30833 1.55393 0
M  V30 1276 N 128.181 4.33807 1.62375 0
M  V30 1277 C 128.916 5.40927 1.90225 0
M  V30 1278 N 128.412 6.58247 2.16062 0
M  V30 1279 N 130.205 5.28376 1.9177 0
M  V30 1280 H 122.356 2.10237 -0.302366 0
M  V30 1281 H 124.619 0.945203 -0.0727746 0
M  V30 1282 H 124.325 3.50208 0.323661 0
M  V30 1283 H 124.199 3.17125 2.04234 0
M  V30 1284 H 126.586 2.1809 1.98799 0
M  V30 1285 H 126.667 2.54492 0.258321 0
M  V30 1286 H 126.311 5.01799 0.784889 0
M  V30 1287 H 126.241 4.62347 2.52076 0
M  V30 1288 H 128.732 3.49212 1.44427 0
M  V30 1289 H 129.045 7.3569 2.36601 0
M  V30 1290 H 127.39 6.61413 2.13444 0
M  V30 1291 H 130.581 4.35715 1.71085 0
M  V30 1292 H 130.754 6.11944 2.13139 0
M  V30 1293 N 124.16 -0.719506 1.40217 0
M  V30 1294 C 125.388 -1.50864 1.41589 0
M  V30 1295 C 125.803 -1.88794 0.0145275 0
M  V30 1296 O 125.16 -1.55174 -0.960594 0
M  V30 1297 C 125.211 -2.78646 2.30302 0
M  V30 1298 O 124.932 -2.42321 3.64983 0
M  V30 1299 C 126.433 -3.72569 2.40224 0
M  V30 1300 H 123.653 -0.465709 0.48307 0
M  V30 1301 H 126.197 -0.88785 1.84221 0
M  V30 1302 H 124.352 -3.37019 1.91042 0
M  V30 1303 H 124.766 -3.24514 4.12057 0
M  V30 1304 H 126.24 -4.5908 3.06512 0
M  V30 1305 H 126.717 -4.15403 1.42608 0
M  V30 1306 H 127.323 -3.20109 2.80019 0
M  V30 1307 N 125.638 -1.25649 -0.95132 0
M  V30 1308 C 126.601 -1.06399 -2.03007 0
M  V30 1309 C 127.601 -0.0156794 -1.60792 0
M  V30 1310 O 128.791 -0.25817 -1.72276 0
M  V30 1311 C 125.923 -0.616184 -3.35285 0
M  V30 1312 H 127.116 -2.02164 -2.21517 0
M  V30 1313 H 124.669 -1.08103 -1.12887 0
M  V30 1314 H 125.404 0.343917 -3.22471 0
M  V30 1315 H 125.189 -1.37301 -3.67275 0
M  V30 1316 H 126.679 -0.503032 -4.14559 0
M  V30 1317 N 127.117 1.15442 -1.07289 0
M  V30 1318 C 128.528 1.67803 -0.818475 0
M  V30 1319 C 128.879 1.8489 0.656507 0
M  V30 1320 O 128.004 1.55176 1.50829 0
M  V30 1321 C 128.599 3.04805 -1.47917 0
M  V30 1322 C 127.158 3.54245 -1.27229 0
M  V30 1323 C 126.305 2.29986 -1.54925 0
M  V30 1324 H 129.256 0.996646 -1.23502 0
M  V30 1325 H 129.277 3.69702 -0.90005 0
M  V30 1326 H 128.789 2.92336 -2.55267 0
M  V30 1327 H 126.89 3.71956 -0.21899 0
M  V30 1328 H 127.003 4.35723 -1.99203 0
M  V30 1329 H 125.367 2.35496 -0.970242 0
M  V30 1330 H 126.15 2.20105 -2.63455 0
M  V30 1331 N 128.595 0.856903 1.32268 0
M  V30 1332 C 129.841 0.462069 1.97466 0
M  V30 1333 C 130.174 -0.980298 1.67642 0
M  V30 1334 O 129.449 -1.68824 0.965858 0
M  V30 1335 C 129.732 0.704336 3.53145 0
M  V30 1336 C 129.585 2.19529 3.9259 0
M  V30 1337 C 130.904 0.1622 4.39801 0
M  V30 1338 H 128.023 0.169357 0.717278 0
M  V30 1339 H 130.665 1.07574 1.56614 0
M  V30 1340 H 128.815 0.181999 3.88073 0
M  V30 1341 H 130.487 2.78387 3.67829 0
M  V30 1342 H 128.73 2.67292 3.41668 0
M  V30 1343 H 129.401 2.31549 5.01088 0
M  V30 1344 H 131.877 0.608905 4.11621 0
M  V30 1345 H 130.753 0.361265 5.4771 0
M  V30 1346 H 131.014 -0.935158 4.32096 0
M  V30 1347 N 130.073 -1.45103 0.615059 0
M  V30 1348 C 131.021 -2.32331 -0.111791 0
M  V30 1349 C 132.015 -1.46409 -0.852102 0
M  V30 1350 O 133.221 -1.62849 -0.766821 0
M  V30 1351 H 129.596 -0.749993 -0.0549072 0
M  V30 1352 H 131.567 -2.91407 0.642225 0
M  V30 1353 C 130.316 -3.3015 -1.09071 0
M  V30 1354 H 129.639 -3.96265 -0.530485 0
M  V30 1355 H 131.079 -3.93898 -1.56908 0
M  V30 1356 C 129.538 -2.57875 -2.168 0
M  V30 1357 O 130.068 -2.36567 -3.24652 0
M  V30 1358 N 128.274 -2.17884 -1.92289 0
M  V30 1359 H 127.821 -2.35413 -1.04587 0
M  V30 1360 H 127.779 -1.6985 -2.64572 0
M  V30 1361 N 131.551 -0.354651 -1.53558 0
M  V30 1362 C 132.514 0.484566 -2.24019 0
M  V30 1363 C 133.514 1.01861 -1.24422 0
M  V30 1364 O 134.704 0.906097 -1.4878 0
M  V30 1365 C 131.836 1.67615 -2.96847 0
M  V30 1366 H 133.029 -0.131843 -2.9961 0
M  V30 1367 H 130.582 -0.106165 -1.55939 0
M  V30 1368 H 131.317 2.33095 -2.25471 0
M  V30 1369 H 131.102 1.30029 -3.69912 0
M  V30 1370 H 132.592 2.27114 -3.50441 0
M  V30 1371 N 133.029 1.57378 -0.0835403 0
M  V30 1372 C 133.959 2.1641 0.87686 0
M  V30 1373 C 134.94 1.09429 1.30228 0
M  V30 1374 O 136.125 1.37516 1.37124 0
M  V30 1375 C 133.255 2.73517 2.14022 0
M  V30 1376 C 132.209 3.85769 1.85381 0
M  V30 1377 C 131.535 4.29529 3.18448 0
M  V30 1378 C 132.835 5.09486 1.14984 0
M  V30 1379 H 134.529 2.96914 0.385059 0
M  V30 1380 H 132.075 1.42823 0.18377 0
M  V30 1381 H 134.028 3.13463 2.81636 0
M  V30 1382 H 132.752 1.90252 2.65465 0
M  V30 1383 H 131.411 3.46345 1.20169 0
M  V30 1384 H 131.059 3.43169 3.67755 0
M  V30 1385 H 130.759 5.05204 3.00071 0
M  V30 1386 H 132.283 4.72099 3.8724 0
M  V30 1387 H 133.697 5.46674 1.72687 0
M  V30 1388 H 132.094 5.90515 1.06826 0
M  V30 1389 H 133.164 4.84724 0.130749 0
M  V30 1390 N 134.507 -0.190092 1.56449 0
M  V30 1391 C 135.755 -0.907908 1.80559 0
M  V30 1392 C 136.076 -1.83583 0.657438 0
M  V30 1393 O 135.346 -1.93203 -0.323924 0
M  V30 1394 H 133.926 -0.338247 0.666032 0
M  V30 1395 H 136.588 -0.194403 1.93928 0
M  V30 1396 H 135.684 -1.49604 2.73907 0
M  V30 1397 N 135.985 -1.50799 -0.457987 0
M  V30 1398 C 137.215 -1.65977 -1.23025 0
M  V30 1399 C 137.623 -0.347918 -1.85974 0
M  V30 1400 O 136.966 0.68148 -1.70592 0
M  V30 1401 C 137.028 -2.70309 -2.3701 0
M  V30 1402 C 136.692 -4.135 -1.94594 0
M  V30 1403 C 137.689 -4.98949 -1.46101 0
M  V30 1404 C 135.374 -4.5949 -2.02915 0
M  V30 1405 C 137.368 -6.28442 -1.06489 0
M  V30 1406 C 135.055 -5.88984 -1.62914 0
M  V30 1407 C 136.053 -6.73286 -1.1478 0
M  V30 1408 O 135.741 -8.00362 -0.75339 0
M  V30 1409 H 135.473 -0.56064 -0.377702 0
M  V30 1410 H 138.027 -1.97857 -0.551537 0
M  V30 1411 H 136.257 -2.337 -3.08093 0
M  V30 1412 H 137.946 -2.74574 -2.98938 0
M  V30 1413 H 138.712 -4.6463 -1.39084 0
M  V30 1414 H 134.591 -3.94009 -2.39328 0
M  V30 1415 H 138.135 -6.94194 -0.688488 0
M  V30 1416 H 134.032 -6.22822 -1.69595 0
M  V30 1417 H 134.8 -8.13744 -0.88108 0
M  V30 1418 N 137.463 0.71206 -1.40597 0
M  V30 1419 C 138.393 1.83889 -1.43899 0
M  V30 1420 C 139.374 1.67442 -0.299504 0
M  V30 1421 O 140.559 1.87421 -0.508624 0
M  V30 1422 C 137.689 3.21877 -1.30431 0
M  V30 1423 C 136.643 3.53002 -2.42019 0
M  V30 1424 C 135.969 4.90172 -2.13626 0
M  V30 1425 C 137.269 3.53643 -3.84362 0
M  V30 1426 H 138.963 1.81383 -2.38203 0
M  V30 1427 H 136.509 0.871237 -1.14654 0
M  V30 1428 H 138.462 4.00404 -1.31357 0
M  V30 1429 H 137.186 3.24968 -0.326049 0
M  V30 1430 H 135.845 2.76818 -2.40349 0
M  V30 1431 H 135.493 4.89869 -1.14182 0
M  V30 1432 H 135.193 5.11962 -2.88389 0
M  V30 1433 H 136.717 5.71028 -2.1624 0
M  V30 1434 H 138.131 4.22203 -3.87837 0
M  V30 1435 H 136.528 3.86961 -4.58673 0
M  V30 1436 H 137.598 2.52954 -4.13693 0
M  V30 1437 N 138.941 1.26152 0.944643 0
M  V30 1438 C 140.357 1.03189 1.21754 0
M  V30 1439 C 140.557 -0.245112 2.00004 0
M  V30 1440 O 139.613 -0.955176 2.33736 0
M  V30 1441 C 140.926 2.26119 1.98219 0
M  V30 1442 C 142.474 2.30984 2.11224 0
M  V30 1443 C 142.949 3.53597 2.91089 0
M  V30 1444 N 144.44 3.54053 2.98664 0
M  V30 1445 C 145.175 4.45593 3.60881 0
M  V30 1446 N 144.671 5.47416 4.24626 0
M  V30 1447 N 146.464 4.33252 3.58119 0
M  V30 1448 H 138.615 2.08177 0.421437 0
M  V30 1449 H 140.878 0.914723 0.248969 0
M  V30 1450 H 140.584 3.18984 1.48128 0
M  V30 1451 H 140.458 2.3009 2.98895 0
M  V30 1452 H 142.845 1.38635 2.60508 0
M  V30 1453 H 142.926 2.31026 1.09821 0
M  V30 1454 H 142.57 4.46273 2.42493 0
M  V30 1455 H 142.5 3.50802 3.92741 0
M  V30 1456 H 144.991 2.80403 2.53343 0
M  V30 1457 H 145.304 6.13459 4.69987 0
M  V30 1458 H 143.649 5.51278 4.23223 0
M  V30 1459 H 146.84 3.52924 3.0751 0
M  V30 1460 H 147.013 5.04786 4.06319 0
M  V30 1461 N 140.419 -1.14872 1.07899 0
M  V30 1462 C 141.665 -1.86064 0.806725 0
M  V30 1463 C 141.998 -1.82434 -0.665706 0
M  V30 1464 O 141.273 -1.25138 -1.48899 0
M  V30 1465 C 141.556 -3.34929 1.32267 0
M  V30 1466 C 141.409 -3.47161 2.86006 0
M  V30 1467 C 142.728 -4.29863 0.943717 0
M  V30 1468 H 139.847 -0.675591 0.294526 0
M  V30 1469 H 142.489 -1.34925 1.33773 0
M  V30 1470 H 140.639 -3.78611 0.870974 0
M  V30 1471 H 142.311 -3.12302 3.39507 0
M  V30 1472 H 140.554 -2.88539 3.23925 0
M  V30 1473 H 141.225 -4.51777 3.17177 0
M  V30 1474 H 143.701 -3.9417 1.33302 0
M  V30 1475 H 142.577 -5.32494 1.33198 0
M  V30 1476 H 142.838 -4.41846 -0.149796 0
M  V30 1477 N 141.898 -0.863906 -1.31812 0
M  V30 1478 C 142.831 -0.259963 -2.26714 0
M  V30 1479 C 143.809 0.607392 -1.50829 0
M  V30 1480 O 144.993 0.562155 -1.79922 0
M  V30 1481 C 142.12 0.632456 -3.32743 0
M  V30 1482 C 141.166 -0.162743 -4.26189 0
M  V30 1483 S 141.999 -1.53726 -5.12961 0
M  V30 1484 C 143.155 -0.650803 -6.22507 0
M  V30 1485 H 143.388 -1.06445 -2.77591 0
M  V30 1486 H 140.921 -0.662071 -1.39485 0
M  V30 1487 H 142.879 1.14167 -3.94305 0
M  V30 1488 H 141.54 1.41083 -2.80632 0
M  V30 1489 H 140.733 0.517366 -5.01338 0
M  V30 1490 H 140.335 -0.60385 -3.69093 0
M  V30 1491 H 142.627 0.141134 -6.77353 0
M  V30 1492 H 143.57 -1.37322 -6.94657 0
M  V30 1493 H 143.978 -0.221041 -5.64067 0
M  V30 1494 N 143.376 1.44774 -0.622745 0
M  V30 1495 C 144.623 2.02121 -0.1239 0
M  V30 1496 C 144.951 1.48915 1.25118 0
M  V30 1497 O 144.206 0.660045 1.84233 0
M  V30 1498 C 144.505 3.57364 -0.0508323 0
M  V30 1499 C 144.171 4.29787 -1.36358 0
M  V30 1500 C 142.833 4.4929 -1.72314 0
M  V30 1501 C 145.185 4.71062 -2.23048 0
M  V30 1502 C 142.513 5.07325 -2.94682 0
M  V30 1503 C 144.865 5.30452 -3.44679 0
M  V30 1504 C 143.529 5.48175 -3.80868 0
M  V30 1505 H 142.799 0.739612 -0.0453381 0
M  V30 1506 H 145.446 1.73648 -0.807389 0
M  V30 1507 H 143.751 3.85202 0.715991 0
M  V30 1508 H 145.448 3.99456 0.351533 0
M  V30 1509 H 142.038 4.14932 -1.07375 0
M  V30 1510 H 146.222 4.55715 -1.96565 0
M  V30 1511 H 141.478 5.19235 -3.22809 0
M  V30 1512 H 145.652 5.61385 -4.12092 0
M  V30 1513 H 143.279 5.92912 -4.75773 0
M  V30 1514 N 144.854 0.36279 1.53368 0
M  V30 1515 C 146.082 -0.228613 2.05633 0
M  V30 1516 C 146.497 -1.42676 1.23649 0
M  V30 1517 O 145.854 -1.80394 0.27647 0
M  V30 1518 C 145.905 -0.624845 3.56059 0
M  V30 1519 O 145.626 0.525675 4.34935 0
M  V30 1520 C 147.127 -1.27493 4.24571 0
M  V30 1521 H 144.347 -0.0407183 0.669763 0
M  V30 1522 H 146.891 0.520352 1.97769 0
M  V30 1523 H 145.046 -1.32373 3.64083 0
M  V30 1524 H 145.46 0.205969 5.24095 0
M  V30 1525 H 146.934 -1.50277 5.31151 0
M  V30 1526 H 147.411 -2.23439 3.78116 0
M  V30 1527 H 148.017 -0.617558 4.20792 0
M  V30 1528 N 146.332 -1.57332 0.0918853 0
M  V30 1529 C 147.578 -1.94524 -0.573425 0
M  V30 1530 C 147.911 -0.973578 -1.68033 0
M  V30 1531 O 147.186 -0.00609226 -1.94499 0
M  V30 1532 C 147.469 -3.41858 -1.13161 0
M  V30 1533 C 147.322 -4.4979 -0.0299747 0
M  V30 1534 C 148.641 -3.90435 -2.03098 0
M  V30 1535 H 145.76 -0.70734 -0.206975 0
M  V30 1536 H 148.402 -1.89309 0.161942 0
M  V30 1537 H 146.552 -3.46433 -1.7583 0
M  V30 1538 H 148.224 -4.57327 0.604112 0
M  V30 1539 H 146.467 -4.291 0.636833 0
M  V30 1540 H 147.138 -5.50069 -0.461287 0
M  V30 1541 H 149.614 -3.87992 -1.50338 0
M  V30 1542 H 148.49 -4.94097 -2.39081 0
M  V30 1543 H 148.751 -3.29541 -2.94712 0
M  V30 1544 N 147.81 0.181792 -1.56548 0
M  V30 1545 C 148.72 1.24538 -1.98815 0
M  V30 1546 C 149.736 1.49045 -0.897861 0
M  V30 1547 O 150.912 1.61399 -1.20467 0
M  V30 1548 C 147.977 2.56683 -2.33055 0
M  V30 1549 C 147.038 2.40131 -3.55859 0
M  V30 1550 C 146.271 3.65975 -3.88456 0
M  V30 1551 O 146.494 4.70711 -3.22161 0
M  V30 1552 O 145.428 3.6071 -4.81842 0
M  V30 1553 H 149.254 0.916647 -2.89536 0
M  V30 1554 H 146.839 0.387842 -1.44278 0
M  V30 1555 H 148.721 3.34655 -2.56094 0
M  V30 1556 H 147.396 2.89157 -1.45498 0
M  V30 1557 H 146.303 1.60226 -3.38051 0
M  V30 1558 H 147.636 2.12585 -4.43924 0
M  V30 1559 N 149.288 1.51039 0.449983 0
M  V30 1560 C 150.565 1.53612 1.21089 0
M  V30 1561 C 150.945 0.292997 2.09057 0
M  V30 1562 O 150.293 -0.72259 2.16774 0
M  V30 1563 C 150.503 2.84337 2.0237 0
M  V30 1564 C 151.851 3.35807 2.59843 0
M  V30 1565 O 152.875 2.85802 2.12593 0
M  V30 1566 O 151.734 4.23029 3.45989 0
M  V30 1567 H 148.828 0.617057 0.550608 0
M  V30 1568 H 151.374 1.63344 0.460082 0
M  V30 1569 H 150.146 3.66278 1.37681 0
M  V30 1570 H 149.769 2.77708 2.84542 0
M  V30 1571 N 150.766 -0.704594 1.40972 0
M  V30 1572 C 152.015 -1.46018 1.39146 0
M  V30 1573 C 152.328 -1.956 0.000589254 0
M  V30 1574 O 153.534 -2.71137 -0.1403 0
M  V30 1575 C 151.99 -2.63996 2.4461 0
M  V30 1576 C 151.598 -2.21238 3.89561 0
M  V30 1577 C 153.342 -3.41677 2.51907 0
M  V30 1578 C 151.249 -3.3612 4.86598 0
M  V30 1579 H 150.179 -0.548444 0.517422 0
M  V30 1580 H 152.83 -0.765784 1.66757 0
M  V30 1581 H 151.212 -3.3566 2.10115 0
M  V30 1582 H 152.386 -1.56923 4.33257 0
M  V30 1583 H 150.701 -1.56574 3.85841 0
M  V30 1584 H 153.298 -4.27182 3.2159 0
M  V30 1585 H 153.641 -3.86247 1.55303 0
M  V30 1586 H 154.174 -2.77064 2.85448 0
M  V30 1587 H 150.913 -2.96572 5.84573 0
M  V30 1588 H 150.433 -3.99315 4.47557 0
M  V30 1589 H 152.112 -4.02029 5.06934 0
M  V30 1590 N 152.244 -1.26651 -0.937939 0
M  V30 1591 C 153.521 -1.0313 -1.66204 0
M  V30 1592 C 153.901 0.437256 -2.06522 0
M  V30 1593 O 153.249 1.41831 -1.79154 0
M  V30 1594 C 153.459 -1.98314 -2.87181 0
M  V30 1595 C 154.807 -2.27107 -3.58758 0
M  V30 1596 O 155.831 -1.96205 -2.97291 0
M  V30 1597 O 154.69 -2.79736 -4.69479 0
M  V30 1598 H 151.784 -0.392384 -0.727986 0
M  V30 1599 H 154.33 -1.37874 -0.989382 0
M  V30 1600 H 153.102 -2.97399 -2.54302 0
M  V30 1601 H 152.725 -1.64068 -3.6217 0
M  V30 1602 N 153.722 1.14298 -1.08507 0
M  V30 1603 C 154.632 2.23027 -0.727753 0
M  V30 1604 C 155.648 1.71952 0.26619 0
M  V30 1605 O 156.824 2.011 0.109882 0
M  V30 1606 C 153.889 3.46403 -0.143541 0
M  V30 1607 C 152.95 4.12413 -1.19223 0
M  V30 1608 C 152.183 5.29899 -0.635798 0
M  V30 1609 O 152.406 5.67796 0.544393 0
M  V30 1610 O 151.34 5.85717 -1.38634 0
M  V30 1611 H 155.166 2.55945 -1.63481 0
M  V30 1612 H 152.751 1.22248 -0.858817 0
M  V30 1613 H 154.633 4.21018 0.179404 0
M  V30 1614 H 153.308 3.15206 0.736659 0
M  V30 1615 H 152.215 3.39667 -1.56772 0
M  V30 1616 H 153.548 4.47718 -2.04474 0
M  V30 1617 N 155.201 0.870884 1.31352 0
M  V30 1618 C 156.134 0.271983 2.26573 0
M  V30 1619 C 157.112 -0.599385 1.51149 0
M  V30 1620 O 158.296 -0.552605 1.80218 0
M  V30 1621 C 155.423 -0.614801 3.33073 0
M  V30 1622 C 154.469 0.185342 4.26097 0
M  V30 1623 S 155.302 1.56444 5.12138 0
M  V30 1624 C 156.458 0.683807 6.22153 0
M  V30 1625 H 156.691 1.07916 2.77023 0
M  V30 1626 H 154.224 0.669459 1.39132 0
M  V30 1627 H 156.182 -1.12074 3.94905 0
M  V30 1628 H 154.843 -1.39593 2.81376 0
M  V30 1629 H 154.036 -0.490771 5.01605 0
M  V30 1630 H 153.638 0.623415 3.68768 0
M  V30 1631 H 155.93 -0.10521 6.77418 0
M  V30 1632 H 156.873 1.41004 6.93919 0
M  V30 1633 H 157.281 0.250952 5.63942 0
M  V30 1634 N 156.679 -1.44442 0.630414 0
M  V30 1635 C 157.925 -2.02351 0.134816 0
M  V30 1636 C 158.258 -1.4947 -1.23986 0
M  V30 1637 O 157.533 -0.678475 -1.82283 0
M  V30 1638 C 157.816 -3.59898 0.120707 0
M  V30 1639 C 157.669 -4.23063 1.52767 0
M  V30 1640 C 158.988 -4.36585 -0.555127 0
M  V30 1641 H 156.107 -0.73527 0.0504646 0
M  V30 1642 H 158.749 -1.72022 0.806751 0
M  V30 1643 H 156.899 -3.85868 -0.451477 0
M  V30 1644 H 158.571 -4.08202 2.14869 0
M  V30 1645 H 156.814 -3.80586 2.08175 0
M  V30 1646 H 157.485 -5.32071 1.46984 0
M  V30 1647 H 159.961 -4.16044 -0.0685429 0
M  V30 1648 H 158.837 -5.46294 -0.534185 0
M  V30 1649 H 159.098 -4.11138 -1.62535 0
M  V30 1650 N 158.157 -0.370918 -1.53173 0
M  V30 1651 C 159.382 0.220293 -2.06227 0
M  V30 1652 C 159.807 1.41243 -1.24225 0
M  V30 1653 O 159.165 1.79387 -0.262645 0
M  V30 1654 C 159.213 0.586663 -3.55796 0
M  V30 1655 O 158.317 1.68317 -3.76488 0
M  V30 1656 H 157.658 0.0308099 -0.663285 0
M  V30 1657 H 160.188 -0.533068 -1.97534 0
M  V30 1658 H 160.198 0.85617 -3.98916 0
M  V30 1659 H 158.873 -0.285013 -4.14922 0
M  V30 1660 H 157.45 1.40881 -3.45264 0
M  V30 1661 N 159.635 1.57281 -0.100228 0
M  V30 1662 C 161.051 1.57527 0.256416 0
M  V30 1663 C 161.251 1.11173 1.68056 0
M  V30 1664 O 160.307 0.79053 2.39806 0
M  V30 1665 C 161.62 3.00673 0.0401747 0
M  V30 1666 C 163.168 3.12815 0.107528 0
M  V30 1667 C 163.643 4.57929 -0.0807834 0
M  V30 1668 N 165.134 4.63193 -0.0261207 0
M  V30 1669 C 165.869 5.73212 -0.146999 0
M  V30 1670 N 165.365 6.92047 -0.322999 0
M  V30 1671 N 167.158 5.62031 -0.0879044 0
M  V30 1672 H 159.309 1.85718 -1.03065 0
M  V30 1673 H 161.572 0.857446 -0.404339 0
M  V30 1674 H 161.278 3.38804 -0.943649 0
M  V30 1675 H 161.152 3.69042 0.780262 0
M  V30 1676 H 163.539 2.74554 1.08186 0
M  V30 1677 H 163.62 2.47028 -0.664134 0
M  V30 1678 H 163.264 4.96886 -1.05201 0
M  V30 1679 H 163.194 5.21783 0.710635 0
M  V30 1680 H 165.685 3.77748 0.107161 0
M  V30 1681 H 165.998 7.7173 -0.406608 0
M  V30 1682 H 164.343 6.94074 -0.358733 0
M  V30 1683 H 167.534 4.68075 0.048498 0
M  V30 1684 H 167.707 6.47734 -0.185557 0
M  V30 1685 N 161.113 -0.173488 1.56642 0
M  V30 1686 C 162.043 -1.2171 1.99271 0
M  V30 1687 C 163.024 -1.46289 0.867959 0
M  V30 1688 O 164.209 -1.5766 1.13388 0
M  V30 1689 C 161.339 -2.55651 2.35074 0
M  V30 1690 C 160.293 -2.45645 3.50489 0
M  V30 1691 C 159.619 -3.84056 3.72028 0
M  V30 1692 C 160.919 -1.96302 4.84007 0
M  V30 1693 H 162.613 -0.86275 2.867 0
M  V30 1694 H 160.159 -0.413571 1.37933 0
M  V30 1695 H 162.112 -3.2886 2.63494 0
M  V30 1696 H 160.836 -2.92869 1.44552 0
M  V30 1697 H 159.495 -1.7489 3.22194 0
M  V30 1698 H 159.143 -4.18664 2.788 0
M  V30 1699 H 158.843 -3.7823 4.49684 0
M  V30 1700 H 160.367 -4.58854 4.02846 0
M  V30 1701 H 161.781 -2.59284 5.11317 0
M  V30 1702 H 160.178 -2.01429 5.65284 0
M  V30 1703 H 161.248 -0.917226 4.76146 0
M  V30 1704 N 162.591 -1.51276 -0.441967 0
M  V30 1705 C 163.819 -1.67516 -1.21434 0
M  V30 1706 C 164.234 -0.37055 -1.85128 0
M  V30 1707 O 163.591 0.650498 -1.70513 0
M  V30 1708 C 163.642 -2.78748 -2.30177 0
M  V30 1709 O 163.363 -4.04154 -1.69089 0
M  V30 1710 C 164.864 -3.06217 -3.20541 0
M  V30 1711 H 162.084 -0.562276 -0.366178 0
M  V30 1712 H 164.628 -1.97666 -0.524244 0
M  V30 1713 H 162.783 -2.5121 -2.94911 0
M  V30 1714 H 163.197 -4.65894 -2.40922 0
M  V30 1715 H 164.671 -3.8764 -3.92987 0
M  V30 1716 H 165.148 -2.18439 -3.81026 0
M  V30 1717 H 165.754 -3.35397 -2.61513 0
M  V30 1718 N 164.069 0.697108 -1.41344 0
M  V30 1719 C 165.016 1.81106 -1.43071 0
M  V30 1720 C 165.986 1.63632 -0.285275 0
M  V30 1721 O 167.171 1.84504 -0.486091 0
M  V30 1722 C 164.311 3.18975 -1.31715 0
M  V30 1723 C 163.424 3.47892 -2.56115 0
M  V30 1724 C 162.559 4.75367 -2.37064 0
M  V30 1725 C 161.598 4.97247 -3.56948 0
M  V30 1726 N 160.735 6.15947 -3.36977 0
M  V30 1727 H 165.575 1.78965 -2.38276 0
M  V30 1728 H 163.112 0.873975 -1.18322 0
M  V30 1729 H 165.07 3.98615 -1.23133 0
M  V30 1730 H 163.7 3.20297 -0.401183 0
M  V30 1731 H 162.752 2.62669 -2.75153 0
M  V30 1732 H 164.064 3.59962 -3.45295 0
M  V30 1733 H 163.218 5.63059 -2.25941 0
M  V30 1734 H 161.957 4.65541 -1.45338 0
M  V30 1735 H 160.962 4.08004 -3.68527 0
M  V30 1736 H 162.187 5.08934 -4.49626 0
M  V30 1737 H 160.133 6.07336 -2.47949 0
M  V30 1738 H 160.05 6.28777 -4.19732 0
M  V30 1739 H 161.318 7.06377 -3.29623 0
M  V30 1740 N 165.547 1.27147 0.931209 0
M  V30 1741 C 166.497 1.06227 2.01742 0
M  V30 1742 C 167.481 -0.00859065 1.60898 0
M  V30 1743 O 168.673 0.209537 1.75755 0
M  V30 1744 C 165.802 0.707787 3.35924 0
M  V30 1745 C 164.888 1.81661 3.83223 0
M  V30 1746 N 165.279 3.05564 4.03069 0
M  V30 1747 C 163.577 1.70249 4.12227 0
M  V30 1748 C 164.278 3.77697 4.42403 0
M  V30 1749 N 163.254 3.0544 4.49675 0
M  V30 1750 H 167.056 2.00261 2.15111 0
M  V30 1751 H 164.57 1.1781 1.11779 0
M  V30 1752 H 166.567 0.539043 4.134 0
M  V30 1753 H 165.227 -0.224964 3.2392 0
M  V30 1754 H 166.238 3.41363 3.89476 0
M  V30 1755 H 162.915 0.840329 4.08956 0
M  V30 1756 H 164.305 4.84168 4.65866 0
M  V30 1757 N 167.025 -1.13721 1.09112 0
M  V30 1758 C 168.273 -1.84559 0.823562 0
M  V30 1759 C 168.594 -1.83754 -0.652658 0
M  V30 1760 O 167.864 -1.29102 -1.47342 0
M  V30 1761 H 166.444 -0.683376 0.301673 0
M  V30 1762 H 169.106 -1.37771 1.37859 0
M  V30 1763 H 168.202 -2.8917 1.17419 0
M  V30 1764 N 168.503 -0.877838 -1.30888 0
M  V30 1765 C 169.466 -0.344265 -2.266 0
M  V30 1766 C 170.466 0.50922 -1.52524 0
M  V30 1767 O 171.656 0.317398 -1.71284 0
M  V30 1768 C 168.788 0.510198 -3.37061 0
M  V30 1769 H 169.981 -1.1893 -2.7531 0
M  V30 1770 H 167.534 -0.654088 -1.41956 0
M  V30 1771 H 168.269 1.37612 -2.93655 0
M  V30 1772 H 168.054 -0.101047 -3.9197 0
M  V30 1773 H 169.544 0.875537 -4.08319 0
M  V30 1774 N 169.982 1.44106 -0.638065 0
M  V30 1775 C 170.892 2.34513 0.0637334 0
M  V30 1776 C 171.908 1.53018 0.828346 0
M  V30 1777 O 173.084 1.85723 0.779036 0
M  V30 1778 C 170.149 3.31095 1.02844 0
M  V30 1779 C 169.21 4.28497 0.26244 0
M  V30 1780 C 168.443 5.20465 1.1812 0
M  V30 1781 O 168.666 5.16514 2.42011 0
M  V30 1782 O 167.6 5.98251 0.661774 0
M  V30 1783 H 171.426 2.95989 -0.68003 0
M  V30 1784 H 169.011 1.43994 -0.398252 0
M  V30 1785 H 170.893 3.90526 1.58327 0
M  V30 1786 H 169.568 2.72144 1.7527 0
M  V30 1787 H 168.475 3.72592 -0.335602 0
M  V30 1788 H 169.808 4.90388 -0.421936 0
M  V30 1789 N 171.46 0.379036 1.52974 0
M  V30 1790 C 172.39 -0.452706 2.29069 0
M  V30 1791 C 173.371 -1.07237 1.32039 0
M  V30 1792 O 174.556 -1.08708 1.60923 0
M  V30 1793 C 171.686 -1.5856 3.08992 0
M  V30 1794 C 170.64 -1.0925 4.13822 0
M  V30 1795 C 169.966 -2.31668 4.81907 0
M  V30 1796 C 171.266 -0.167702 5.22031 0
M  V30 1797 H 172.96 0.182181 2.98845 0
M  V30 1798 H 170.506 0.0890592 1.43724 0
M  V30 1799 H 172.459 -2.1742 3.6098 0
M  V30 1800 H 171.183 -2.24792 2.36931 0
M  V30 1801 H 169.842 -0.526494 3.628 0
M  V30 1802 H 169.49 -2.96386 4.06404 0
M  V30 1803 H 169.19 -1.9934 5.52754 0
M  V30 1804 H 170.714 -2.91189 5.36695 0
M  V30 1805 H 172.128 -0.664186 5.6944 0
M  V30 1806 H 170.525 0.0653265 6.00064 0
M  V30 1807 H 171.595 0.786347 4.78482 0
M  V30 1808 N 172.938 -1.57226 0.108567 0
M  V30 1809 C 174.184 -1.95121 -0.552761 0
M  V30 1810 C 174.517 -0.991345 -1.66991 0
M  V30 1811 O 173.792 -0.0267211 -1.94482 0
M  V30 1812 C 174.075 -3.43039 -1.09528 0
M  V30 1813 C 173.928 -4.49797 0.0177332 0
M  V30 1814 C 175.247 -3.92567 -1.98945 0
M  V30 1815 H 172.366 -0.709496 -0.199461 0
M  V30 1816 H 175.008 -1.89126 0.182011 0
M  V30 1817 H 173.158 -3.48279 -1.72146 0
M  V30 1818 H 174.83 -4.56661 0.652584 0
M  V30 1819 H 173.073 -4.284 0.682309 0
M  V30 1820 H 173.744 -5.50528 -0.402919 0
M  V30 1821 H 176.22 -3.89565 -1.46214 0
M  V30 1822 H 175.096 -4.96605 -2.33827 0
M  V30 1823 H 175.357 -3.32648 -2.91201 0
M  V30 1824 N 174.416 0.165178 -1.56732 0
M  V30 1825 C 175.664 0.879068 -1.8198 0
M  V30 1826 C 175.985 1.82514 -0.686561 0
M  V30 1827 O 175.255 1.93694 0.293146 0
M  V30 1828 H 173.835 0.327608 -0.671329 0
M  V30 1829 H 176.497 0.163526 -1.94213 0
M  V30 1830 H 175.593 1.45228 -2.76252 0
M  V30 1831 N 175.894 1.51508 0.433938 0
M  V30 1832 C 176.804 1.75917 1.5521 0
M  V30 1833 C 177.82 0.643545 1.61662 0
M  V30 1834 O 178.996 0.926183 1.7884 0
M  V30 1835 C 176.061 1.88213 2.91164 0
M  V30 1836 C 175.122 3.12074 2.94802 0
M  V30 1837 C 174.355 3.23774 4.24271 0
M  V30 1838 O 174.578 2.4133 5.16833 0
M  V30 1839 O 173.512 4.16774 4.34262 0
M  V30 1840 H 177.338 2.70777 1.37527 0
M  V30 1841 H 174.923 1.36051 0.617293 0
M  V30 1842 H 176.805 1.98267 3.71845 0
M  V30 1843 H 175.48 0.965413 3.08968 0
M  V30 1844 H 174.387 3.07497 2.13065 0
M  V30 1845 H 175.72 4.03446 2.81943 0
M  V30 1846 N 177.372 -0.689602 1.41712 0
M  V30 1847 C 178.618 -1.45181 1.41599 0
M  V30 1848 C 178.951 -1.94181 0.0270081 0
M  V30 1849 O 178.226 -1.6993 -0.946265 0
M  V30 1850 C 178.509 -2.65945 2.42787 0
M  V30 1851 C 178.362 -2.22672 3.90816 0
M  V30 1852 C 179.681 -3.68149 2.41151 0
M  V30 1853 H 176.8 -0.526576 0.515642 0
M  V30 1854 H 179.442 -0.784947 1.73028 0
M  V30 1855 H 177.592 -3.2284 2.16116 0
M  V30 1856 H 179.264 -1.71058 4.28412 0
M  V30 1857 H 177.507 -1.54394 4.05395 0
M  V30 1858 H 178.178 -3.0935 4.57172 0
M  V30 1859 H 180.654 -3.2094 2.64834 0
M  V30 1860 H 179.53 -4.50248 3.13955 0
M  V30 1861 H 179.791 -4.18259 1.43221 0
M  V30 1862 N 178.85 -1.27639 -0.924453 0
M  V30 1863 C 180.096 -1.14336 -1.67497 0
M  V30 1864 C 180.429 0.309465 -1.91718 0
M  V30 1865 O 179.704 1.22608 -1.50989 0
M  V30 1866 C 179.987 -1.93096 -3.0395 0
M  V30 1867 C 179.84 -3.46381 -2.8695 0
M  V30 1868 C 181.159 -1.73798 -4.0433 0
M  V30 1869 H 178.278 -0.416728 -0.607871 0
M  V30 1870 H 180.92 -1.56832 -1.07256 0
M  V30 1871 H 179.07 -1.56982 -3.55372 0
M  V30 1872 H 180.742 -3.92343 -2.42621 0
M  V30 1873 H 178.985 -3.72557 -2.22225 0
M  V30 1874 H 179.656 -3.96735 -3.83804 0
M  V30 1875 H 182.132 -2.05293 -3.61931 0
M  V30 1876 H 181.008 -2.31294 -4.97789 0
M  V30 1877 H 181.269 -0.686725 -4.36734 0
M  V30 1878 N 180.328 1.1314 -1.09713 0
M  V30 1879 C 181.26 2.18343 -0.697056 0
M  V30 1880 C 182.273 1.60669 0.262551 0
M  V30 1881 O 183.462 1.78435 0.0481527 0
M  V30 1882 C 180.562 3.38899 -0.00684728 0
M  V30 1883 C 179.735 4.26078 -0.988741 0
M  V30 1884 C 178.794 5.25155 -0.331394 0
M  V30 1885 O 177.82 5.60701 -0.979926 0
M  V30 1886 N 179.022 5.73271 0.913261 0
M  V30 1887 H 181.787 2.5328 -1.60216 0
M  V30 1888 H 179.348 1.28491 -0.984971 0
M  V30 1889 H 181.34 4.02255 0.444191 0
M  V30 1890 H 179.91 3.02175 0.800551 0
M  V30 1891 H 179.13 3.59453 -1.61826 0
M  V30 1892 H 180.418 4.81178 -1.65364 0
M  V30 1893 H 179.816 5.46544 1.45966 0
M  V30 1894 H 178.373 6.3855 1.30757 0
M  V30 1895 N 181.806 0.884767 1.30421 0
M  V30 1896 C 183.036 0.517293 2.00019 0
M  V30 1897 C 183.444 -0.898632 1.66497 0
M  V30 1898 O 182.787 -1.60245 0.898181 0
M  V30 1899 C 182.849 0.612025 3.54252 0
M  V30 1900 C 182.513 1.99222 4.1129 0
M  V30 1901 C 183.51 2.9616 4.273 0
M  V30 1902 C 181.195 2.29755 4.46674 0
M  V30 1903 C 183.189 4.21764 4.77906 0
M  V30 1904 C 180.876 3.55606 4.96979 0
M  V30 1905 C 181.874 4.51425 5.12547 0
M  V30 1906 O 181.562 5.75043 5.61766 0
M  V30 1907 H 181.294 0.198529 0.64619 0
M  V30 1908 H 183.848 1.1919 1.67281 0
M  V30 1909 H 182.078 -0.119561 3.86515 0
M  V30 1910 H 183.767 0.255859 4.05093 0
M  V30 1911 H 184.533 2.73882 4.00267 0
M  V30 1912 H 180.412 1.55942 4.33824 0
M  V30 1913 H 183.956 4.96561 4.89972 0
M  V30 1914 H 179.853 3.7772 5.23448 0
M  V30 1915 H 180.621 5.77422 5.80109 0
M  V30 1916 N 183.284 -1.43765 0.645699 0
M  V30 1917 C 184.194 -2.34544 -0.0512957 0
M  V30 1918 C 185.21 -1.53455 -0.82022 0
M  V30 1919 O 186.386 -1.86133 -0.769176 0
M  V30 1920 C 183.451 -3.31636 -1.01087 0
M  V30 1921 C 182.512 -4.2863 -0.239712 0
M  V30 1922 C 181.745 -5.21084 -1.15358 0
M  V30 1923 O 181.968 -5.1779 -2.39269 0
M  V30 1924 O 180.902 -5.98593 -0.630038 0
M  V30 1925 H 184.728 -2.95624 0.695718 0
M  V30 1926 H 182.313 -1.43781 0.405882 0
M  V30 1927 H 184.195 -3.9136 -1.56254 0
M  V30 1928 H 182.87 -2.73069 -1.73824 0
M  V30 1929 H 181.777 -3.72408 0.355356 0
M  V30 1930 H 183.11 -4.90157 0.447936 0
M  V30 1931 N 184.763 -0.387143 -1.52771 0
M  V30 1932 C 185.711 0.463953 -2.27926 0
M  V30 1933 C 186.705 1.06493 -1.31741 0
M  V30 1934 O 187.911 1.00565 -1.49287 0
M  V30 1935 H 184.286 0.16837 -0.732909 0
M  V30 1936 H 186.257 -0.19141 -2.97785 0
M  V30 1937 C 185.006 1.5803 -3.09713 0
M  V30 1938 H 184.329 1.12718 -3.83581 0
M  V30 1939 H 185.769 2.15008 -3.65442 0
M  V30 1940 C 184.228 2.53509 -2.2189 0
M  V30 1941 O 184.758 3.56863 -1.84422 0
M  V30 1942 N 182.964 2.23199 -1.86093 0
M  V30 1943 H 182.511 1.39185 -2.16761 0
M  V30 1944 H 182.469 2.87333 -1.27621 0
M  V30 1945 N 186.241 1.57166 -0.116904 0
M  V30 1946 C 187.466 1.999 0.55271 0
M  V30 1947 C 187.891 0.996039 1.59564 0
M  V30 1948 O 187.249 -0.032556 1.81271 0
M  V30 1949 C 187.297 3.4152 1.15742 0
M  V30 1950 O 186.401 3.44106 2.27299 0
M  V30 1951 H 185.742 0.649447 0.138258 0
M  V30 1952 H 188.272 2.03573 -0.204759 0
M  V30 1953 H 188.282 3.79684 1.49346 0
M  V30 1954 H 186.957 4.14034 0.393493 0
M  V30 1955 H 185.534 3.17759 1.9515 0
M  V30 1956 N 187.719 -0.156864 1.56817 0
M  V30 1957 C 188.949 -0.885031 1.86684 0
M  V30 1958 C 189.357 -1.75696 0.701954 0
M  V30 1959 O 188.7 -1.80569 -0.337732 0
M  V30 1960 C 188.762 -1.80092 3.11138 0
M  V30 1961 C 188.426 -1.10714 4.43386 0
M  V30 1962 C 189.423 -0.465714 5.1781 0
M  V30 1963 C 187.108 -1.09959 4.90117 0
M  V30 1964 C 189.102 0.174002 6.37162 0
M  V30 1965 C 186.789 -0.456055 6.09396 0
M  V30 1966 C 187.787 0.179622 6.82764 0
M  V30 1967 O 187.475 0.812975 7.99779 0
M  V30 1968 H 187.207 -0.261813 0.623242 0
M  V30 1969 H 189.761 -0.157383 2.04796 0
M  V30 1970 H 187.991 -2.56926 2.89009 0
M  V30 1971 H 189.68 -2.40018 3.27332 0
M  V30 1972 H 190.446 -0.463427 4.82781 0
M  V30 1973 H 186.325 -1.58378 4.3294 0
M  V30 1974 H 189.869 0.670765 6.94368 0
M  V30 1975 H 185.766 -0.455975 6.43888 0
M  V30 1976 H 186.534 0.71366 8.15383 0
M  V30 1977 N 189.197 -1.51736 -0.425897 0
M  V30 1978 C 190.613 -1.40166 -0.76326 0
M  V30 1979 C 190.813 -0.492962 -1.95377 0
M  V30 1980 O 189.869 0.0475815 -2.52455 0
M  V30 1981 C 191.182 -2.82403 -1.03291 0
M  V30 1982 C 192.73 -2.91632 -1.13665 0
M  V30 1983 C 193.205 -4.34801 -1.43916 0
M  V30 1984 N 194.696 -4.3796 -1.50816 0
M  V30 1985 C 195.431 -5.4578 -1.75817 0
M  V30 1986 N 194.927 -6.63744 -1.98534 0
M  V30 1987 N 196.72 -5.33274 -1.77694 0
M  V30 1988 H 188.871 -2.09361 0.358 0
M  V30 1989 H 191.134 -0.942941 0.0978094 0
M  V30 1990 H 190.84 -3.50943 -0.230696 0
M  V30 1991 H 190.714 -3.22428 -1.95754 0
M  V30 1992 H 193.101 -2.23284 -1.92947 0
M  V30 1993 H 193.182 -2.55088 -0.190756 0
M  V30 1994 H 192.826 -5.03703 -0.65157 0
M  V30 1995 H 192.756 -4.68868 -2.39729 0
M  V30 1996 H 195.247 -3.52919 -1.35118 0
M  V30 1997 H 195.56 -7.41704 -2.17013 0
M  V30 1998 H 193.905 -6.66839 -1.95832 0
M  V30 1999 H 197.096 -4.40098 -1.59473 0
M  V30 2000 H 197.269 -6.1738 -1.9684 0
M  V30 2001 N 190.675 0.682077 -1.42076 0
M  V30 2002 C 191.605 1.80796 -1.47767 0
M  V30 2003 C 192.586 1.6677 -0.334954 0
M  V30 2004 O 193.771 1.863 -0.548264 0
M  V30 2005 C 190.901 3.19038 -1.37229 0
M  V30 2006 C 189.855 3.47789 -2.49453 0
M  V30 2007 C 189.181 4.8553 -2.23975 0
M  V30 2008 C 190.481 3.45411 -3.91776 0
M  V30 2009 H 192.175 1.7629 -2.41997 0
M  V30 2010 H 189.721 0.846721 -1.16476 0
M  V30 2011 H 191.674 3.97528 -1.39821 0
M  V30 2012 H 190.398 3.24204 -0.394907 0
M  V30 2013 H 189.057 2.71657 -2.46166 0
M  V30 2014 H 188.705 4.87337 -1.24547 0
M  V30 2015 H 188.405 5.0573 -2.99184 0
M  V30 2016 H 189.929 5.66312 -2.28304 0
M  V30 2017 H 191.343 4.13882 -3.96705 0
M  V30 2018 H 189.74 3.77145 -4.66778 0
M  V30 2019 H 190.81 2.44122 -4.18966 0
M  V30 2020 N 192.153 1.28127 0.917671 0
M  V30 2021 C 193.393 1.163 1.68088 0
M  V30 2022 C 193.757 -0.284515 1.8988 0
M  V30 2023 O 194.958 -0.525413 2.63615 0
M  V30 2024 C 193.229 1.93546 3.00457 0
M  V30 2025 S 194.788 1.98048 3.91564 0
M  V30 2026 H 191.606 0.415005 0.577315 0
M  V30 2027 H 194.208 1.62173 1.09179 0
M  V30 2028 H 192.912 2.97888 2.82295 0
M  V30 2029 H 192.443 1.48207 3.64415 0
M  V30 2030 H 194.458 1.08415 4.84211 0
M  V30 2031 N 193.631 -1.12557 1.10312 0
M  V30 2032 C 194.861 -1.87592 0.865617 0
M  V30 2033 C 195.269 -1.79851 -0.587389 0
M  V30 2034 O 194.612 -1.16949 -1.41664 0
M  V30 2035 C 194.674 -3.37665 1.23381 0
M  V30 2036 C 194.338 -3.69181 2.69359 0
M  V30 2037 C 195.335 -3.67652 3.67597 0
M  V30 2038 C 193.02 -3.98555 3.05711 0
M  V30 2039 C 195.014 -3.95053 5.00212 0
M  V30 2040 C 192.701 -4.25616 4.38514 0
M  V30 2041 C 193.699 -4.23851 5.35574 0
M  V30 2042 O 193.387 -4.50242 6.65986 0
M  V30 2043 H 193.119 -0.600442 0.310557 0
M  V30 2044 H 195.673 -1.4335 1.47105 0
M  V30 2045 H 193.903 -3.82454 0.571467 0
M  V30 2046 H 195.592 -3.94041 0.973994 0
M  V30 2047 H 196.358 -3.45024 3.40857 0
M  V30 2048 H 192.237 -3.99071 2.30789 0
M  V30 2049 H 195.781 -3.93591 5.75962 0
M  V30 2050 H 191.678 -4.47718 4.64994 0
M  V30 2051 H 192.446 -4.67867 6.71597 0
M  V30 2052 N 195.109 -0.891671 -1.2995 0
M  V30 2053 C 196.358 -0.509521 -1.95158 0
M  V30 2054 C 196.671 0.947388 -1.71125 0
M  V30 2055 O 197.877 1.43669 -2.30372 0
M  V30 2056 C 196.333 -0.860315 -3.49466 0
M  V30 2057 C 195.941 -2.33545 -3.8231 0
M  V30 2058 C 197.685 -0.547687 -4.20952 0
M  V30 2059 C 195.592 -2.62752 -5.29826 0
M  V30 2060 H 194.522 -0.18682 -0.730489 0
M  V30 2061 H 197.173 -1.08756 -1.47798 0
M  V30 2062 H 195.555 -0.211285 -3.95436 0
M  V30 2063 H 196.729 -3.02936 -3.47227 0
M  V30 2064 H 195.044 -2.61629 -3.23944 0
M  V30 2065 H 197.641 -0.742854 -5.29515 0
M  V30 2066 H 197.984 0.51332 -4.13123 0
M  V30 2067 H 198.517 -1.1542 -3.80688 0
M  V30 2068 H 195.256 -3.6762 -5.42712 0
M  V30 2069 H 194.776 -1.97977 -5.66185 0
M  V30 2070 H 196.455 -2.48601 -5.97333 0
M  V30 2071 N 196.587 1.43421 -0.653314 0
M  V30 2072 C 198.003 1.56341 -0.320886 0
M  V30 2073 C 198.203 1.63696 1.17499 0
M  V30 2074 O 197.259 1.59208 1.95982 0
M  V30 2075 C 198.572 2.82424 -1.03233 0
M  V30 2076 C 200.12 2.96168 -1.01259 0
M  V30 2077 C 200.595 4.25084 -1.70492 0
M  V30 2078 N 202.086 4.31948 -1.67257 0
M  V30 2079 C 202.821 5.30466 -2.17701 0
M  V30 2080 N 202.317 6.35261 -2.76434 0
M  V30 2081 N 204.11 5.2212 -2.082 0
M  V30 2082 H 196.261 1.3689 -1.62403 0
M  V30 2083 H 198.524 0.657455 -0.682977 0
M  V30 2084 H 198.23 2.83053 -2.08744 0
M  V30 2085 H 198.104 3.72653 -0.583948 0
M  V30 2086 H 200.491 2.9508 0.0341235 0
M  V30 2087 H 200.572 2.07229 -1.49966 0
M  V30 2088 H 200.216 4.26932 -2.7512 0
M  V30 2089 H 200.146 5.1292 -1.19251 0
M  V30 2090 H 202.637 3.56838 -1.24398 0
M  V30 2091 H 202.95 7.06754 -3.12601 0
M  V30 2092 H 201.295 6.35884 -2.80495 0
M  V30 2093 H 204.486 4.39166 -1.62021 0
M  V30 2094 H 204.659 5.98739 -2.47822 0
M  V30 2095 N 198.065 0.39524 1.52563 0
M  V30 2096 C 199.313 -0.184678 2.01254 0
M  V30 2097 C 199.634 -1.46822 1.28329 0
M  V30 2098 O 198.904 -1.91666 0.405094 0
M  V30 2099 H 197.484 -0.0712355 0.743596 0
M  V30 2100 H 200.146 0.528293 1.87603 0
M  V30 2101 H 199.242 -0.390681 3.09645 0
M  V30 2102 N 199.544 -1.57102 0.125237 0
M  V30 2103 C 200.79 -1.95697 -0.532035 0
M  V30 2104 C 201.123 -1.009 -1.6593 0
M  V30 2105 O 200.398 -0.047347 -1.94442 0
M  V30 2106 C 200.681 -3.44181 -1.05884 0
M  V30 2107 C 200.534 -4.49752 0.0654392 0
M  V30 2108 C 201.853 -3.94655 -1.9477 0
M  V30 2109 H 198.972 -0.711571 -0.191925 0
M  V30 2110 H 201.614 -1.88923 0.20206 0
M  V30 2111 H 199.764 -3.50085 -1.68442 0
M  V30 2112 H 201.436 -4.55943 0.700982 0
M  V30 2113 H 199.679 -4.27653 0.727709 0
M  V30 2114 H 200.35 -5.50924 -0.344505 0
M  V30 2115 H 202.826 -3.91094 -1.42074 0
M  V30 2116 H 201.702 -4.99057 -2.28546 0
M  V30 2117 H 201.963 -3.35718 -2.87656 0
M  V30 2118 N 201.022 0.148545 -1.56898 0
M  V30 2119 C 201.932 1.20293 -2.01412 0
M  V30 2120 C 202.948 1.47107 -0.929273 0
M  V30 2121 O 204.124 1.58807 -1.23863 0
M  V30 2122 C 201.189 2.51682 -2.38447 0
M  V30 2123 C 200.25 2.32529 -3.60872 0
M  V30 2124 C 199.483 3.57653 -3.96132 0
M  V30 2125 O 199.706 4.63771 -3.32073 0
M  V30 2126 O 198.64 3.50408 -4.89385 0
M  V30 2127 H 202.466 0.855025 -2.91416 0
M  V30 2128 H 200.051 0.357151 -1.45068 0
M  V30 2129 H 201.933 3.29147 -2.63135 0
M  V30 2130 H 200.608 2.86006 -1.51599 0
M  V30 2131 H 199.515 1.53019 -3.41373 0
M  V30 2132 H 200.848 2.03121 -4.48333 0
M  V30 2133 N 202.5 1.5196 0.417844 0
M  V30 2134 C 203.748 1.65263 1.16329 0
M  V30 2135 C 204.069 0.380634 1.91249 0
M  V30 2136 O 203.339 -0.604214 1.86349 0
M  V30 2137 H 201.919 0.60912 0.432414 0
M  V30 2138 H 204.581 1.88969 0.477162 0
M  V30 2139 H 203.677 2.4896 1.88217 0
M  V30 2140 N 203.978 -0.674533 1.42435 0
M  V30 2141 C 205.227 -1.43034 1.42212 0
M  V30 2142 C 205.54 -1.95555 0.0420788 0
M  V30 2143 O 206.746 -2.71374 -0.0827558 0
M  V30 2144 C 205.202 -2.58748 2.50155 0
M  V30 2145 C 204.81 -2.12925 3.94166 0
M  V30 2146 C 206.554 -3.36257 2.59098 0
M  V30 2147 C 204.461 -3.25723 4.93618 0
M  V30 2148 H 203.391 -0.537345 0.528939 0
M  V30 2149 H 206.042 -0.73024 1.68344 0
M  V30 2150 H 204.424 -3.31128 2.17188 0
M  V30 2151 H 205.598 -1.47697 4.36488 0
M  V30 2152 H 203.913 -1.48354 3.89076 0
M  V30 2153 H 206.51 -4.20264 3.30578 0
M  V30 2154 H 206.853 -3.82866 1.63461 0
M  V30 2155 H 207.386 -2.70947 2.9126 0
M  V30 2156 H 204.125 -2.84105 5.90732 0
M  V30 2157 H 203.645 -3.89732 4.55926 0
M  V30 2158 H 205.324 -3.91186 5.15347 0
M  V30 2159 N 205.456 -1.28612 -0.910864 0
M  V30 2160 C 206.386 -1.15326 -2.03032 0
M  V30 2161 C 207.367 -0.0502924 -1.70026 0
M  V30 2162 O 208.552 -0.227797 -1.92859 0
M  V30 2163 C 205.682 -0.817343 -3.37545 0
M  V30 2164 C 204.636 -1.8754 -3.84724 0
M  V30 2165 C 203.962 -1.39305 -5.16235 0
M  V30 2166 C 205.262 -3.28244 -4.06267 0
M  V30 2167 H 206.956 -2.08975 -2.14406 0
M  V30 2168 H 204.502 -1.00612 -1.03021 0
M  V30 2169 H 206.455 -0.711151 -4.15356 0
M  V30 2170 H 205.179 0.154846 -3.26233 0
M  V30 2171 H 203.838 -1.97079 -3.09121 0
M  V30 2172 H 203.486 -0.409846 -5.01328 0
M  V30 2173 H 203.186 -2.10057 -5.48771 0
M  V30 2174 H 204.71 -1.30014 -5.96598 0
M  V30 2175 H 206.124 -3.21611 -4.74594 0
M  V30 2176 H 204.521 -3.96855 -4.5014 0
M  V30 2177 H 205.591 -3.72048 -3.10979 0
M  V30 2178 N 206.934 1.1197 -1.10907 0
M  V30 2179 C 208.183 1.82947 -0.849302 0
M  V30 2180 C 208.496 1.85275 0.627112 0
M  V30 2181 O 209.702 2.52296 1.00295 0
M  V30 2182 C 208.158 3.28529 -1.46959 0
M  V30 2183 C 207.766 3.34546 -2.97965 0
M  V30 2184 C 209.51 4.04443 -1.28942 0
M  V30 2185 C 207.417 4.74491 -3.53004 0
M  V30 2186 H 206.347 0.685477 -0.314065 0
M  V30 2187 H 208.998 1.2604 -1.33365 0
M  V30 2188 H 207.38 3.85333 -0.912917 0
M  V30 2189 H 208.554 2.87654 -3.59989 0
M  V30 2190 H 206.869 2.72108 -3.15192 0
M  V30 2191 H 209.466 5.07787 -1.67502 0
M  V30 2192 H 209.809 4.15656 -0.231456 0
M  V30 2193 H 210.342 3.5401 -1.81443 0
M  V30 2194 H 207.081 4.68474 -4.58489 0
M  V30 2195 H 206.601 5.21816 -2.9575 0
M  V30 2196 H 208.28 5.4344 -3.51115 0
M  V30 2197 N 208.412 0.89855 1.29475 0
M  V30 2198 C 209.66 0.522847 1.9522 0
M  V30 2199 C 209.981 -0.93371 1.71192 0
M  V30 2200 O 209.251 -1.65823 1.04305 0
M  V30 2201 H 207.831 0.190366 0.722336 0
M  V30 2202 H 210.493 1.14459 1.5775 0
M  V30 2203 H 209.589 0.704476 3.04045 0
M  V30 2204 N 209.89 -1.43072 0.660911 0
M  V30 2205 C 210.82 -2.33497 -0.0122829 0
M  V30 2206 C 211.801 -1.49903 -0.803925 0
M  V30 2207 O 212.986 -1.78546 -0.763864 0
M  V30 2208 C 210.116 -3.33363 -0.973994 0
M  V30 2209 C 209.07 -4.27003 -0.291928 0
M  V30 2210 C 208.396 -5.16967 -1.36562 0
M  V30 2211 C 209.696 -5.15816 0.820462 0
M  V30 2212 H 211.39 -2.90038 0.742873 0
M  V30 2213 H 208.936 -1.39461 0.358688 0
M  V30 2214 H 210.889 -3.95524 -1.45392 0
M  V30 2215 H 209.613 -2.75095 -1.7604 0
M  V30 2216 H 208.272 -3.66217 0.167623 0
M  V30 2217 H 207.92 -4.55034 -2.14366 0
M  V30 2218 H 207.62 -5.80441 -0.914454 0
M  V30 2219 H 209.144 -5.82003 -1.84675 0
M  V30 2220 H 210.558 -5.71742 0.422366 0
M  V30 2221 H 208.955 -5.8805 1.19656 0
M  V30 2222 H 210.025 -4.55045 1.67518 0
M  V30 2223 N 211.368 -0.403325 -1.52352 0
M  V30 2224 C 212.331 0.413051 -2.25447 0
M  V30 2225 C 213.331 0.978513 -1.276 0
M  V30 2226 O 214.521 0.858305 -1.51587 0
M  V30 2227 C 211.653 1.58087 -3.02029 0
M  V30 2228 H 212.846 -0.227094 -2.99039 0
M  V30 2229 H 210.399 -0.155722 -1.55522 0
M  V30 2230 H 211.134 2.25804 -2.32772 0
M  V30 2231 H 210.919 1.18195 -3.73861 0
M  V30 2232 H 212.409 2.1585 -3.57489 0
M  V30 2233 N 212.846 1.57033 -0.133567 0
M  V30 2234 C 213.756 2.19632 0.824564 0
M  V30 2235 C 214.772 1.17666 1.28182 0
M  V30 2236 O 215.948 1.50193 1.3418 0
M  V30 2237 C 213.013 2.79499 2.05137 0
M  V30 2238 C 212.074 3.96548 1.64464 0
M  V30 2239 C 211.307 4.5355 2.81297 0
M  V30 2240 O 211.53 4.09438 3.97136 0
M  V30 2241 O 210.464 5.44018 2.57542 0
M  V30 2242 H 214.29 3.01991 0.321766 0
M  V30 2243 H 211.875 1.49112 0.0927889 0
M  V30 2244 H 213.757 3.17602 2.7696 0
M  V30 2245 H 212.432 2.00162 2.54395 0
M  V30 2246 H 211.339 3.63186 0.897048 0
M  V30 2247 H 212.672 4.77364 1.19934 0
M  V30 2248 N 214.325 -0.140222 1.56975 0
M  V30 2249 C 215.235 -1.19223 2.02047 0
M  V30 2250 C 216.251 -1.46612 0.937062 0
M  V30 2251 O 217.427 -1.58148 1.24704 0
M  V30 2252 C 214.492 -2.50414 2.39778 0
M  V30 2253 C 213.553 -2.30612 3.621 0
M  V30 2254 C 212.786 -3.55547 3.98023 0
M  V30 2255 O 213.009 -4.62004 3.34528 0
M  V30 2256 O 211.943 -3.47808 4.91237 0
M  V30 2257 H 215.769 -0.839559 2.91865 0
M  V30 2258 H 213.354 -0.349453 1.45256 0
M  V30 2259 H 215.236 -3.27747 2.64877 0
M  V30 2260 H 213.911 -2.85198 1.53114 0
M  V30 2261 H 212.818 -1.51207 3.4218 0
M  V30 2262 H 214.151 -2.00741 4.49404 0
M  V30 2263 N 215.803 -1.52179 -0.40978 0
M  V30 2264 C 216.733 -1.78435 -1.5061 0
M  V30 2265 C 217.714 -0.635295 -1.57791 0
M  V30 2266 O 218.899 -0.880823 -1.73076 0
M  V30 2267 C 216.029 -1.93444 -2.88439 0
M  V30 2268 C 214.983 -3.09038 -2.96108 0
M  V30 2269 C 214.309 -3.09268 -4.36185 0
M  V30 2270 C 215.609 -4.48508 -2.67652 0
M  V30 2271 H 217.303 -2.70237 -1.28889 0
M  V30 2272 H 214.849 -1.30036 -0.618605 0
M  V30 2273 H 216.802 -2.10394 -3.65119 0
M  V30 2274 H 215.526 -0.983129 -3.11452 0
M  V30 2275 H 214.185 -2.91837 -2.21872 0
M  V30 2276 H 213.833 -2.11861 -4.56206 0
M  V30 2277 H 213.533 -3.86907 -4.42241 0
M  V30 2278 H 215.057 -3.28348 -5.14801 0
M  V30 2279 H 216.471 -4.65918 -3.34056 0
M  V30 2280 H 214.868 -5.28059 -2.85085 0
M  V30 2281 H 215.938 -4.56649 -1.63095 0
M  V30 2282 N 217.281 0.66697 -1.42791 0
M  V30 2283 C 218.529 1.42417 -1.43394 0
M  V30 2284 C 218.85 1.94925 -0.0542373 0
M  V30 2285 O 218.12 1.73564 0.908415 0
M  V30 2286 H 216.7 0.528515 -0.527902 0
M  V30 2287 H 219.362 0.787562 -1.78279 0
M  V30 2288 H 218.458 2.27333 -2.13837 0
M  V30 2289 N 218.759 1.29093 0.90403 0
M  V30 2290 C 219.707 1.13727 2.02901 0
M  V30 2291 C 220.701 0.0539853 1.69314 0
M  V30 2292 O 221.907 0.213469 1.7873 0
M  V30 2293 H 218.282 0.35117 0.664969 0
M  V30 2294 H 220.253 2.08982 2.13001 0
M  V30 2295 C 219.002 0.826066 3.37745 0
M  V30 2296 H 218.325 1.65164 3.64089 0
M  V30 2297 H 219.765 0.758559 4.17159 0
M  V30 2298 C 218.224 -0.470541 3.33598 0
M  V30 2299 O 218.754 -1.49792 3.72727 0
M  V30 2300 N 216.96 -0.474812 2.86695 0
M  V30 2301 H 216.507 0.361692 2.55048 0
M  V30 2302 H 216.465 -1.34236 2.84303 0
M  V30 2303 N 220.237 -1.11381 1.11499 0
M  V30 2304 C 221.184 -2.17439 0.773887 0
M  V30 2305 C 222.154 -1.64132 -0.254899 0
M  V30 2306 O 223.339 -1.90345 -0.13168 0
M  V30 2307 C 220.479 -3.44373 0.223917 0
M  V30 2308 C 219.592 -4.1168 1.30934 0
M  V30 2309 C 218.727 -5.263 0.71984 0
M  V30 2310 C 217.766 -5.85493 1.78507 0
M  V30 2311 N 216.903 -6.91507 1.21502 0
M  V30 2312 H 221.743 -2.45962 1.68246 0
M  V30 2313 H 219.28 -1.20744 0.840191 0
M  V30 2314 H 221.238 -4.17047 -0.112921 0
M  V30 2315 H 219.868 -3.16232 -0.647851 0
M  V30 2316 H 218.92 -3.37073 1.76312 0
M  V30 2317 H 220.232 -4.51729 2.11524 0
M  V30 2318 H 219.386 -6.05785 0.333094 0
M  V30 2319 H 218.125 -4.87559 -0.117377 0
M  V30 2320 H 217.13 -5.04686 2.18111 0
M  V30 2321 H 218.355 -6.26301 2.62533 0
M  V30 2322 H 216.301 -6.54783 0.399455 0
M  V30 2323 H 216.218 -7.30214 1.95763 0
M  V30 2324 H 217.486 -7.74795 0.855181 0
M  V30 2325 O 221.754 -1.0376 -1.23758 0
M  V30 2326 H 222.445 -0.707174 -1.8033 0
M  V30 END ATOM
M  V30 BEGIN BOND
M  V30 END BOND
M  V30 END CTAB
M  END
$$$$
