drugbank_target|P36952 Serpin B5 (DB04530)
 OpenBabel12092120013D

  0  0  0     0  0            999 V3000
M  V30 BEGIN CTAB
M  V30 COUNTS 5927 5980 0 0 0
M  V30 BEGIN ATOM
M  V30 1 H -0.908 1.98254 -0.117106 0
M  V30 2 N 0 1.576 0 0
M  V30 3 C 0.933 2.03868 1.02534 0
M  V30 4 C 1.911 0.928543 1.3348 0
M  V30 5 O 3.095 1.19667 1.45644 0
M  V30 6 C 0.222 2.43627 2.35294 0
M  V30 7 C -0.732 3.65373 2.2001 0
M  V30 8 S 0.101 5.13292 1.52614 0
M  V30 9 C 1.257 5.56322 2.86805 0
M  V30 10 H 1.49 2.90518 0.631377 0
M  V30 11 H -0.977 1.52953 0.210867 0
M  V30 12 H 0.981 2.67203 3.11629 0
M  V30 13 H -0.358 1.57376 2.7183 0
M  V30 14 H -1.165 3.90944 3.18086 0
M  V30 15 H -1.563 3.418 1.51819 0
M  V30 16 H 0.729 5.58782 3.83104 0
M  V30 17 H 1.672 6.56266 2.65933 0
M  V30 18 H 2.08 4.83886 2.90714 0
M  V30 19 N 1.4781 -0.272755 1.55222 0
M  V30 20 C 2.7551 -1.02562 1.66555 0
M  V30 21 C 3.1351 -2.04282 0.532189 0
M  V30 22 O 2.4831 -2.23662 -0.467717 0
M  V30 23 C 2.6931 -1.6822 3.05782 0
M  V30 24 C 4.0411 -2.19373 3.63539 0
M  V30 25 O 5.0651 -1.78206 3.08417 0
M  V30 26 O 3.9241 -2.94883 4.60115 0
M  V30 27 H 1.0181 -0.475755 0.676451 0
M  V30 28 H 3.5641 -0.268593 1.67561 0
M  V30 29 H 2.3361 -0.945112 3.79715 0
M  V30 30 H 1.9591 -2.50609 3.08676 0
M  V30 31 N 2.9562 -1.48159 -0.537278 0
M  V30 32 C 3.9192 -1.61665 -1.62472 0
M  V30 33 C 4.9192 -0.490395 -1.5314 0
M  V30 34 O 6.1092 -0.755998 -1.5694 0
M  V30 35 C 3.2412 -1.57997 -3.02076 0
M  V30 36 H 4.4342 -2.58621 -1.51839 0
M  V30 37 H 1.9872 -1.36647 -0.758771 0
M  V30 38 H 2.7222 -0.624913 -3.18222 0
M  V30 39 H 2.5072 -2.39755 -3.10258 0
M  V30 40 H 3.9972 -1.70627 -3.81151 0
M  V30 41 N 4.4343 0.785586 -1.36625 0
M  V30 42 C 5.3643 1.91259 -1.33949 0
M  V30 43 C 6.3453 1.68795 -0.210325 0
M  V30 44 O 7.5303 1.89854 -0.408561 0
M  V30 45 C 4.6603 3.28339 -1.13186 0
M  V30 46 C 3.6143 3.65335 -2.22967 0
M  V30 47 C 2.9403 5.00806 -1.87342 0
M  V30 48 C 4.2403 3.7352 -3.65075 0
M  V30 49 H 5.9343 1.93755 -2.28253 0
M  V30 50 H 3.4803 0.930788 -1.09874 0
M  V30 51 H 5.4333 4.06804 -1.09948 0
M  V30 52 H 4.1573 3.2624 -0.153332 0
M  V30 53 H 2.8163 2.89169 -2.25337 0
M  V30 54 H 2.4643 4.95233 -0.880545 0
M  V30 55 H 2.1643 5.26529 -2.60846 0
M  V30 56 H 3.6883 5.81687 -1.85667 0
M  V30 57 H 5.1023 4.42168 -3.64911 0
M  V30 58 H 3.4993 4.10731 -4.37516 0
M  V30 59 H 4.5693 2.74527 -3.99703 0
M  V30 60 N 5.9124 1.20967 1.01018 0
M  V30 61 C 6.8444 0.922059 2.09835 0
M  V30 62 C 7.8574 -0.0927106 1.62536 0
M  V30 63 O 9.0464 0.139127 1.77957 0
M  V30 64 C 6.1464 0.362004 3.36961 0
M  V30 65 C 5.3194 1.42986 4.13369 0
M  V30 66 C 4.3784 0.879976 5.1879 0
M  V30 67 O 3.4044 1.56219 5.47343 0
M  V30 68 N 4.6064 -0.307396 5.79686 0
M  V30 69 H 7.3714 1.8588 2.35093 0
M  V30 70 H 4.9324 1.11422 1.1746 0
M  V30 71 H 6.9244 -0.0201474 4.04695 0
M  V30 72 H 5.4944 -0.479437 3.08902 0
M  V30 73 H 4.7144 1.98608 3.40512 0
M  V30 74 H 6.0024 2.14885 4.61196 0
M  V30 75 H 5.4004 -0.878796 5.58832 0
M  V30 76 H 3.9574 -0.631115 6.48737 0
M  V30 77 N 7.3905 -1.2043 1.01659 0
M  V30 78 C 8.3205 -2.25466 0.607226 0
M  V30 79 C 9.3015 -1.65853 -0.377716 0
M  V30 80 O 10.4865 -1.92409 -0.263149 0
M  V30 81 C 7.6165 -3.47256 -0.0552949 0
M  V30 82 C 6.5705 -4.19462 0.850632 0
M  V30 83 C 5.8965 -5.34673 0.0538859 0
M  V30 84 C 7.1965 -4.75603 2.15868 0
M  V30 85 H 8.8905 -2.59962 1.48526 0
M  V30 86 H 6.4365 -1.2496 0.715605 0
M  V30 87 H 8.3895 -4.19917 -0.353233 0
M  V30 88 H 7.1135 -3.11924 -0.968045 0
M  V30 89 H 5.7725 -3.48667 1.13257 0
M  V30 90 H 5.4205 -4.95585 -0.860514 0
M  V30 91 H 5.1205 -5.83913 0.657192 0
M  V30 92 H 6.6445 -6.10138 -0.237598 0
M  V30 93 H 8.0585 -5.40083 1.92311 0
M  V30 94 H 6.4555 -5.3528 2.71284 0
M  V30 95 H 7.5255 -3.94346 2.82169 0
M  V30 96 N 8.8686 -0.792821 -1.36206 0
M  V30 97 C 9.8316 -0.199459 -2.2833 0
M  V30 98 C 10.8316 0.605189 -1.48977 0
M  V30 99 O 12.0216 0.425685 -1.68919 0
M  V30 100 C 9.1536 0.723523 -3.33134 0
M  V30 101 H 10.3466 -1.01181 -2.82316 0
M  V30 102 H 7.8996 -0.562485 -1.45828 0
M  V30 103 H 8.6346 1.56008 -2.84309 0
M  V30 104 H 8.4196 0.148436 -3.91819 0
M  V30 105 H 9.9096 1.13344 -4.01924 0
M  V30 106 N 10.3467 1.47872 -0.545128 0
M  V30 107 C 11.2947 2.31533 0.222512 0
M  V30 108 C 12.2887 1.42177 0.920985 0
M  V30 109 O 13.4947 1.59005 0.843645 0
M  V30 110 H 9.8697 0.746519 0.0906278 0
M  V30 111 H 11.8407 2.94139 -0.50246 0
M  V30 112 C 10.5897 3.2457 1.24699 0
M  V30 113 H 9.9127 3.93283 0.718944 0
M  V30 114 H 11.3527 3.85963 1.75523 0
M  V30 115 C 9.8117 2.47237 2.28856 0
M  V30 116 O 10.3417 2.20808 3.35569 0
M  V30 117 N 8.5477 2.08461 2.02466 0
M  V30 118 H 8.0947 2.30155 1.157 0
M  V30 119 H 8.0527 1.57033 2.72375 0
M  V30 120 N 11.8248 0.280983 1.55075 0
M  V30 121 C 13.0498 -0.340154 2.04592 0
M  V30 122 C 13.4748 -1.48246 1.15779 0
M  V30 123 O 12.8328 -1.80614 0.15761 0
M  V30 124 C 12.8808 -0.793104 3.5177 0
M  V30 125 O 11.9848 -1.89981 3.66034 0
M  V30 126 H 11.3258 -0.0694289 0.66036 0
M  V30 127 H 13.8558 0.416993 2.00306 0
M  V30 128 H 13.8658 -1.08729 3.93245 0
M  V30 129 H 12.5408 0.0426163 4.15878 0
M  V30 130 H 11.1178 -1.60771 3.36463 0
M  V30 131 N 13.3029 -1.57598 0.00835791 0
M  V30 132 C 14.2659 -2.07884 -0.965242 0
M  V30 133 C 15.2659 -0.989825 -1.26725 0
M  V30 134 O 16.4559 -1.25218 -1.21104 0
M  V30 135 C 13.5879 -2.52731 -2.28779 0
M  V30 136 H 14.7809 -2.95178 -0.530112 0
M  V30 137 H 12.3339 -1.54458 -0.239283 0
M  V30 138 H 13.0689 -1.68705 -2.76964 0
M  V30 139 H 12.8539 -3.32272 -2.08177 0
M  V30 140 H 14.3439 -2.91933 -2.98605 0
M  V30 141 N 14.781 0.264519 -1.55364 0
M  V30 142 C 16.028 0.994986 -1.7637 0
M  V30 143 C 16.356 1.85976 -0.5695 0
M  V30 144 O 15.611 1.90509 0.44776 0
M  V30 145 C 15.91 1.9004 -3.02687 0
M  V30 146 C 15.576 1.19243 -4.34847 0
M  V30 147 C 14.238 0.996709 -4.70764 0
M  V30 148 C 16.59 0.689296 -5.16622 0
M  V30 149 C 13.918 0.285261 -5.86006 0
M  V30 150 C 16.27 -0.00860079 -6.32599 0
M  V30 151 C 14.934 -0.215963 -6.67151 0
M  V30 152 H 14.204 0.364091 -0.645383 0
M  V30 153 H 16.851 0.266543 -1.89636 0
M  V30 154 H 15.156 2.69533 -2.84357 0
M  V30 155 H 16.853 2.46695 -3.16137 0
M  V30 156 H 13.443 1.3549 -4.06621 0
M  V30 157 H 17.627 0.828108 -4.89342 0
M  V30 158 H 12.883 0.113961 -6.11294 0
M  V30 159 H 17.057 -0.406186 -6.95214 0
M  V30 160 H 14.684 -0.769217 -7.56298 0
M  V30 161 N 16.2591 1.48442 0.529413 0
M  V30 162 C 17.2221 1.62524 1.61612 0
M  V30 163 C 18.2221 0.498509 1.52877 0
M  V30 164 O 19.4121 0.76431 1.56537 0
M  V30 165 C 16.5441 1.59597 3.01233 0
M  V30 166 H 17.7371 2.59423 1.50465 0
M  V30 167 H 15.2901 1.37047 0.751514 0
M  V30 168 H 16.0251 0.641781 3.17886 0
M  V30 169 H 15.8101 2.41397 3.08982 0
M  V30 170 H 17.3001 1.72646 3.80241 0
M  V30 171 N 17.7372 -0.778329 1.37039 0
M  V30 172 C 18.9832 -1.53892 1.32079 0
M  V30 173 C 19.3162 -1.9396 -0.0965386 0
M  V30 174 O 18.5912 -1.63568 -1.05242 0
M  V30 175 C 18.8742 -2.80847 2.25382 0
M  V30 176 C 18.7272 -2.47076 3.75864 0
M  V30 177 C 20.0462 -3.82741 2.1725 0
M  V30 178 H 17.1652 -0.558303 0.48111 0
M  V30 179 H 19.8072 -0.893397 1.67685 0
M  V30 180 H 17.9572 -3.35931 1.95148 0
M  V30 181 H 19.6292 -1.97957 4.16666 0
M  V30 182 H 17.8722 -1.79863 3.94755 0
M  V30 183 H 18.5432 -3.37798 4.36574 0
M  V30 184 H 21.0192 -3.37133 2.43887 0
M  V30 185 H 19.8952 -4.69303 2.84686 0
M  V30 186 H 20.1562 -4.2652 1.16331 0
M  V30 187 N 19.2153 -1.21501 -1.00376 0
M  V30 188 C 20.4923 -0.941745 -1.71437 0
M  V30 189 C 20.8723 0.546114 -2.03914 0
M  V30 190 O 20.2203 1.51128 -1.71384 0
M  V30 191 C 20.4303 -1.82812 -2.97289 0
M  V30 192 C 21.7783 -2.07771 -3.70292 0
M  V30 193 O 22.8023 -1.80171 -3.07273 0
M  V30 194 O 21.6613 -2.54456 -4.83647 0
M  V30 195 H 18.7553 -0.353243 -0.747762 0
M  V30 196 H 21.3013 -1.32436 -1.06108 0
M  V30 197 H 20.0733 -2.83501 -2.69709 0
M  V30 198 H 19.6963 -1.4464 -3.70358 0
M  V30 199 N 20.6934 1.19889 -1.02296 0
M  V30 200 C 21.6234 2.25141 -0.619174 0
M  V30 201 C 22.6044 1.66051 0.368915 0
M  V30 202 O 23.7894 1.92546 0.252941 0
M  V30 203 C 20.9194 3.4728 0.0368783 0
M  V30 204 C 19.8734 4.19005 -0.872865 0
M  V30 205 C 19.1994 5.34637 -0.0822402 0
M  V30 206 C 20.4994 4.74452 -2.18387 0
M  V30 207 H 22.1934 2.59171 -1.49903 0
M  V30 208 H 19.7394 1.24579 -0.722222 0
M  V30 209 H 21.6924 4.20098 0.330958 0
M  V30 210 H 20.4164 3.12433 0.95149 0
M  V30 211 H 19.0754 3.48061 -1.15105 0
M  V30 212 H 18.7234 4.96034 0.83422 0
M  V30 213 H 18.4234 5.83557 -0.688149 0
M  V30 214 H 19.9474 6.10255 0.205238 0
M  V30 215 H 21.3614 5.39055 -1.95172 0
M  V30 216 H 19.7584 5.33834 -2.74119 0
M  V30 217 H 20.8284 3.92844 -2.84257 0
M  V30 218 N 22.1715 0.800033 1.35784 0
M  V30 219 C 23.4185 0.377342 1.98953 0
M  V30 220 C 23.7465 -1.05378 1.6348 0
M  V30 221 O 23.0015 -1.74459 0.886707 0
M  V30 222 C 23.3005 0.500276 3.53881 0
M  V30 223 C 22.9665 1.89375 4.09204 0
M  V30 224 C 21.6285 2.27499 4.24025 0
M  V30 225 C 23.9805 2.8057 4.39238 0
M  V30 226 C 21.3085 3.562 4.66195 0
M  V30 227 C 23.6605 4.0871 4.82844 0
M  V30 228 C 22.3245 4.46843 4.95871 0
M  V30 229 H 21.5945 0.138079 0.728021 0
M  V30 230 H 24.2415 1.01955 1.62103 0
M  V30 231 H 22.5465 -0.225405 3.91151 0
M  V30 232 H 24.2435 0.154097 4.00704 0
M  V30 233 H 20.8335 1.58753 3.98115 0
M  V30 234 H 25.0175 2.52367 4.27346 0
M  V30 235 H 20.2735 3.85602 4.74469 0
M  V30 236 H 24.4475 4.79481 5.05046 0
M  V30 237 H 22.0745 5.46623 5.28306 0
M  V30 238 N 23.6496 -1.47581 0.552962 0
M  V30 239 C 24.5966 -2.29957 -0.197108 0
M  V30 240 C 25.5666 -1.38799 -0.912359 0
M  V30 241 O 26.7516 -1.67761 -0.908888 0
M  V30 242 C 23.8916 -3.22672 -1.22379 0
M  V30 243 C 23.0046 -4.28919 -0.515038 0
M  V30 244 C 22.1396 -5.0879 -1.52664 0
M  V30 245 C 21.1786 -6.06815 -0.802631 0
M  V30 246 N 20.3156 -6.7966 -1.76086 0
M  V30 247 H 25.1556 -2.93578 0.511486 0
M  V30 248 H 22.6926 -1.4471 0.264067 0
M  V30 249 H 24.6506 -3.74845 -1.83159 0
M  V30 250 H 23.2806 -2.60925 -1.90047 0
M  V30 251 H 22.3326 -3.79835 0.207192 0
M  V30 252 H 23.6446 -4.98773 0.0523425 0
M  V30 253 H 22.7986 -5.65091 -2.20809 0
M  V30 254 H 21.5376 -4.38828 -2.12794 0
M  V30 255 H 20.5426 -5.49695 -0.107238 0
M  V30 256 H 21.7676 -6.78784 -0.207135 0
M  V30 257 H 19.7136 -6.12432 -2.35081 0
M  V30 258 H 19.6306 -7.45669 -1.24552 0
M  V30 259 H 20.8986 -7.40538 -2.43359 0
M  V30 260 N 25.1277 -0.289203 -1.54924 0
M  V30 261 C 26.0597 0.625583 -2.20497 0
M  V30 262 C 27.0727 1.10667 -1.19402 0
M  V30 263 O 28.2617 1.02615 -1.46056 0
M  V30 264 C 25.3617 1.86702 -2.82835 0
M  V30 265 C 24.5347 1.5304 -4.09753 0
M  V30 266 C 23.5937 2.62576 -4.56005 0
M  V30 267 O 22.6197 2.28167 -5.21468 0
M  V30 268 N 23.8217 3.92901 -4.27328 0
M  V30 269 H 26.5867 0.0642801 -2.99631 0
M  V30 270 H 24.1477 -0.110896 -1.6152 0
M  V30 271 H 26.1397 2.59304 -3.10715 0
M  V30 272 H 24.7097 2.33702 -2.07611 0
M  V30 273 H 23.9297 0.637564 -3.8901 0
M  V30 274 H 25.2177 1.28072 -4.92418 0
M  V30 275 H 24.6157 4.23671 -3.74859 0
M  V30 276 H 23.1727 4.61837 -4.59946 0
M  V30 277 N 26.6058 1.57591 -0.0167156 0
M  V30 278 C 27.5358 2.12496 0.967858 0
M  V30 279 C 28.5168 1.03807 1.34752 0
M  V30 280 O 29.7018 1.31577 1.42833 0
M  V30 281 C 26.8318 2.64194 2.25431 0
M  V30 282 C 25.7858 3.77559 2.01576 0
M  V30 283 C 25.1118 4.15636 3.36379 0
M  V30 284 C 26.4118 5.04151 1.36489 0
M  V30 285 H 28.1058 2.95013 0.510643 0
M  V30 286 H 25.6518 1.41915 0.244181 0
M  V30 287 H 27.6048 3.01236 2.94678 0
M  V30 288 H 26.3288 1.78821 2.73296 0
M  V30 289 H 24.9878 3.40937 1.34751 0
M  V30 290 H 24.6358 3.27263 3.81979 0
M  V30 291 H 24.3358 4.92022 3.21229 0
M  V30 292 H 25.8598 4.5525 4.06915 0
M  V30 293 H 27.2738 5.38857 1.95718 0
M  V30 294 H 25.6708 5.85453 1.31776 0
M  V30 295 H 26.7408 4.83733 0.336219 0
M  V30 296 N 28.0839 -0.256276 1.55502 0
M  V30 297 C 29.3239 -0.993081 1.78654 0
M  V30 298 C 29.6879 -1.8288 0.584724 0
M  V30 299 O 30.8889 -2.59665 0.694822 0
M  V30 300 C 29.1599 -1.83856 3.06483 0
M  V30 301 S 30.7189 -2.63573 3.5082 0
M  V30 302 H 27.5369 -0.334199 0.62756 0
M  V30 303 H 30.1389 -0.26184 1.93739 0
M  V30 304 H 28.8429 -1.21414 3.92029 0
M  V30 305 H 28.3739 -2.61271 2.94111 0
M  V30 306 H 30.3889 -3.86312 3.11412 0
M  V30 307 N 29.562 -1.4872 -0.521534 0
M  V30 308 C 30.472 -1.66569 -1.65203 0
M  V30 309 C 31.488 -0.548197 -1.65139 0
M  V30 310 O 32.664 -0.820339 -1.83936 0
M  V30 311 C 29.729 -1.70917 -3.01642 0
M  V30 312 C 28.79 -2.94356 -3.12495 0
M  V30 313 C 28.023 -2.98487 -4.42426 0
M  V30 314 O 28.246 -2.10786 -5.30024 0
M  V30 315 O 27.18 -3.90746 -4.57822 0
M  V30 316 H 31.006 -2.62298 -1.5308 0
M  V30 317 H 28.591 -1.3222 -0.695565 0
M  V30 318 H 30.473 -1.7625 -3.82771 0
M  V30 319 H 29.148 -0.783633 -3.14071 0
M  V30 320 H 28.055 -2.94552 -2.3063 0
M  V30 321 H 29.388 -3.86322 -3.04986 0
M  V30 322 N 31.0401 0.771051 -1.3745 0
M  V30 323 C 31.9871 1.88435 -1.3327 0
M  V30 324 C 32.9571 1.64914 -0.198136 0
M  V30 325 O 34.1421 1.86821 -0.387606 0
M  V30 326 C 31.2821 3.25509 -1.14622 0
M  V30 327 C 30.3951 3.60979 -2.37314 0
M  V30 328 C 29.5301 4.87265 -2.11533 0
M  V30 329 C 28.5691 5.15469 -3.30088 0
M  V30 330 N 27.7061 6.32944 -3.03853 0
M  V30 331 H 32.5461 1.91344 -2.28455 0
M  V30 332 H 30.0831 0.935466 -1.13523 0
M  V30 333 H 32.0411 4.04582 -1.01831 0
M  V30 334 H 30.6711 3.21974 -0.230837 0
M  V30 335 H 29.7231 2.76885 -2.60842 0
M  V30 336 H 31.0351 3.77759 -3.25729 0
M  V30 337 H 30.1891 5.74244 -1.95777 0
M  V30 338 H 28.9281 4.7259 -1.20457 0
M  V30 339 H 27.9331 4.26966 -3.46382 0
M  V30 340 H 29.1581 5.32052 -4.22016 0
M  V30 341 H 27.1041 6.19625 -2.15407 0
M  V30 342 H 27.0211 6.50143 -3.85812 0
M  V30 343 H 28.2891 7.22857 -2.91716 0
M  V30 344 N 32.5182 1.22032 0.997298 0
M  V30 345 C 33.4282 1.00271 2.12092 0
M  V30 346 C 34.4442 -0.047621 1.73935 0
M  V30 347 O 35.6202 0.144136 2.00884 0
M  V30 348 C 32.6852 0.578449 3.4184 0
M  V30 349 C 31.7462 1.70189 3.94125 0
M  V30 350 C 30.9792 1.29778 5.17681 0
M  V30 351 O 31.2022 0.174676 5.70132 0
M  V30 352 O 30.1362 2.11261 5.63607 0
M  V30 353 H 33.9622 1.94398 2.3333 0
M  V30 354 H 31.5472 1.00587 1.10465 0
M  V30 355 H 33.4292 0.351998 4.19927 0
M  V30 356 H 32.1042 -0.334019 3.21972 0
M  V30 357 H 31.0112 1.98282 3.1723 0
M  V30 358 H 32.3442 2.59206 4.18417 0
M  V30 359 N 33.9963 -1.19345 1.0293 0
M  V30 360 C 35.4073 -1.70725 0.755633 0
M  V30 361 C 35.7583 -1.82326 -0.724676 0
M  V30 362 O 34.8833 -1.49471 -1.56484 0
M  V30 363 C 35.4783 -3.10084 1.36503 0
M  V30 364 C 34.0373 -3.58723 1.13994 0
M  V30 365 C 33.1843 -2.35577 1.46283 0
M  V30 366 H 36.1353 -1.0418 1.19718 0
M  V30 367 H 36.1563 -3.72787 0.762217 0
M  V30 368 H 35.6683 -3.01609 2.44241 0
M  V30 369 H 33.7693 -3.72512 0.0807901 0
M  V30 370 H 33.8823 -4.42816 1.82894 0
M  V30 371 H 32.2463 -2.38935 0.88217 0
M  V30 372 H 33.0293 -2.29731 2.55105 0
M  V30 373 N 35.4744 -0.807222 -1.35358 0
M  V30 374 C 36.4044 -0.232509 -2.3234 0
M  V30 375 C 37.3854 0.642386 -1.57504 0
M  V30 376 O 38.5704 0.572526 -1.85569 0
M  V30 377 C 35.7004 0.619238 -3.41735 0
M  V30 378 C 34.6544 -0.157215 -4.27711 0
M  V30 379 C 33.9804 0.816273 -5.28433 0
M  V30 380 C 35.2804 -1.35656 -5.04376 0
M  V30 381 H 36.9744 -1.04276 -2.80654 0
M  V30 382 H 34.5204 -0.50288 -1.34934 0
M  V30 383 H 36.4734 1.03137 -4.08584 0
M  V30 384 H 35.1974 1.46239 -2.92031 0
M  V30 385 H 33.8564 -0.550525 -3.62443 0
M  V30 386 H 33.5044 1.65494 -4.74996 0
M  V30 387 H 33.2044 0.301067 -5.86828 0
M  V30 388 H 34.7284 1.22659 -5.98153 0
M  V30 389 H 36.1424 -1.01927 -5.64166 0
M  V30 390 H 34.5394 -1.8063 -5.7227 0
M  V30 391 H 35.6094 -2.14288 -4.34981 0
M  V30 392 N 36.9525 1.47285 -0.560781 0
M  V30 393 C 38.2005 2.02064 -0.0379868 0
M  V30 394 C 38.5215 1.43711 1.31803 0
M  V30 395 O 37.7915 0.61362 1.86042 0
M  V30 396 H 36.3715 0.746918 -0.0110531 0
M  V30 397 H 39.0335 1.80648 -0.731598 0
M  V30 398 H 38.1295 3.12064 0.0474463 0
M  V30 399 N 38.4306 0.297415 1.54768 0
M  V30 400 C 39.3786 -0.596051 2.24833 0
M  V30 401 C 40.3726 -1.13992 1.25308 0
M  V30 402 O 41.5786 -1.09098 1.4317 0
M  V30 403 H 37.9536 -0.210814 0.721846 0
M  V30 404 H 39.9246 0.0174667 2.98395 0
M  V30 405 C 38.6736 -1.75818 2.99972 0
M  V30 406 H 37.9966 -1.3489 3.76357 0
M  V30 407 H 39.4366 -2.35949 3.52284 0
M  V30 408 C 37.8956 -2.66014 2.06732 0
M  V30 409 O 38.4256 -3.67009 1.63302 0
M  V30 410 N 36.6316 -2.33669 1.72763 0
M  V30 411 H 36.1786 -1.51586 2.08277 0
M  V30 412 H 36.1366 -2.94285 1.10652 0
M  V30 413 N 39.9087 -1.5758 0.0250728 0
M  V30 414 C 41.1547 -1.91917 -0.655413 0
M  V30 415 C 41.4877 -0.901433 -1.72011 0
M  V30 416 O 40.7627 0.0764069 -1.9435 0
M  V30 417 C 41.0457 -3.36751 -1.27558 0
M  V30 418 C 40.8987 -4.49258 -0.220719 0
M  V30 419 C 42.2177 -3.81469 -2.19475 0
M  V30 420 H 39.3367 -0.697925 -0.23679 0
M  V30 421 H 41.9787 -1.89825 0.0815036 0
M  V30 422 H 40.1287 -3.38664 -1.90365 0
M  V30 423 H 41.8007 -4.59478 0.409601 0
M  V30 424 H 40.0437 -4.31415 0.454264 0
M  V30 425 H 40.7147 -5.47618 -0.694175 0
M  V30 426 H 43.1907 -3.81266 -1.66659 0
M  V30 427 H 42.0667 -4.83512 -2.59822 0
M  V30 428 H 42.3277 -3.16744 -3.08424 0
M  V30 429 N 41.3868 0.248026 -1.55636 0
M  V30 430 C 42.3168 1.31079 -1.93237 0
M  V30 431 C 43.2978 1.50264 -0.797174 0
M  V30 432 O 44.4828 1.62891 -1.05737 0
M  V30 433 C 41.6128 2.66575 -2.22609 0
M  V30 434 C 40.5668 2.62087 -3.3837 0
M  V30 435 C 39.8928 4.01369 -3.53281 0
M  V30 436 C 41.1928 2.19171 -4.7409 0
M  V30 437 H 42.8868 0.998556 -2.82257 0
M  V30 438 H 40.4328 0.47891 -1.35803 0
M  V30 439 H 42.3858 3.41057 -2.47503 0
M  V30 440 H 41.1098 2.99432 -1.30414 0
M  V30 441 H 39.7688 1.90063 -3.13483 0
M  V30 442 H 39.4168 4.31489 -2.58508 0
M  V30 443 H 39.1168 3.99254 -4.31127 0
M  V30 444 H 40.6408 4.77552 -3.80495 0
M  V30 445 H 42.0548 2.83384 -4.98363 0
M  V30 446 H 40.4518 2.2817 -5.5503 0
M  V30 447 H 41.5218 1.14336 -4.71227 0
M  V30 448 N 42.8649 1.48995 0.513639 0
M  V30 449 C 44.1119 1.57843 1.26854 0
M  V30 450 C 44.4399 0.259501 1.92761 0
M  V30 451 O 43.6949 -0.75159 1.80692 0
M  V30 452 C 43.9939 2.67756 2.36731 0
M  V30 453 C 43.6599 4.09669 1.88368 0
M  V30 454 C 42.3219 4.48291 1.74896 0
M  V30 455 C 44.6739 4.98537 1.52021 0
M  V30 456 C 42.0019 5.73568 1.23438 0
M  V30 457 C 44.3539 6.24319 1.0202 0
M  V30 458 C 43.0179 6.61783 0.871778 0
M  V30 459 H 42.2879 0.577587 0.464192 0
M  V30 460 H 44.9349 1.82778 0.571366 0
M  V30 461 H 43.2399 2.36743 3.12185 0
M  V30 462 H 44.9369 2.71813 2.9482 0
M  V30 463 H 41.5269 3.79176 1.99808 0
M  V30 464 H 45.7109 4.69363 1.61281 0
M  V30 465 H 40.9669 6.01304 1.10648 0
M  V30 466 H 45.1409 6.92566 0.729722 0
M  V30 467 H 42.7679 7.5874 0.470852 0
M  V30 468 N 44.343 -0.763751 1.37857 0
M  V30 469 C 45.568 -1.55805 1.36893 0
M  V30 470 C 45.993 -1.88054 -0.0416135 0
M  V30 471 O 45.351 -1.49825 -1.02089 0
M  V30 472 C 45.399 -2.84012 2.22192 0
M  V30 473 O 44.503 -3.78732 1.63204 0
M  V30 474 H 43.844 -0.471638 0.46739 0
M  V30 475 H 46.374 -0.944657 1.81487 0
M  V30 476 H 46.384 -3.33037 2.35691 0
M  V30 477 H 45.059 -2.59869 3.24716 0
M  V30 478 H 43.636 -3.37402 1.58791 0
M  V30 479 N 45.8211 -1.22559 -0.990812 0
M  V30 480 C 47.2321 -1.04791 -1.54518 0
M  V30 481 C 47.5831 0.387998 -1.92325 0
M  V30 482 O 46.7081 1.27328 -1.74976 0
M  V30 483 C 47.3031 -1.896 -2.80779 0
M  V30 484 C 45.8621 -1.76124 -3.32652 0
M  V30 485 C 45.0091 -1.8594 -2.05722 0
M  V30 486 H 47.9601 -1.36374 -0.811662 0
M  V30 487 H 47.9811 -1.41464 -3.53225 0
M  V30 488 H 47.4931 -2.94101 -2.53231 0
M  V30 489 H 45.5941 -0.743643 -3.65104 0
M  V30 490 H 45.7071 -2.58913 -4.03114 0
M  V30 491 H 44.0711 -1.29403 -2.19379 0
M  V30 492 H 44.8541 -2.91976 -1.80568 0
M  V30 493 N 47.2992 1.18797 -1.03562 0
M  V30 494 C 48.5482 1.87978 -0.731235 0
M  V30 495 C 48.8612 1.80911 0.743671 0
M  V30 496 O 50.0672 2.45407 1.16137 0
M  V30 497 C 48.5232 3.3721 -1.25768 0
M  V30 498 C 48.1312 3.52818 -2.76085 0
M  V30 499 C 49.8752 4.11825 -1.0296 0
M  V30 500 C 47.7822 4.9598 -3.22114 0
M  V30 501 H 46.7122 0.704063 -0.269835 0
M  V30 502 H 49.3632 1.34266 -1.25079 0
M  V30 503 H 47.7452 3.90359 -0.666011 0
M  V30 504 H 48.9192 3.09965 -3.40966 0
M  V30 505 H 47.2342 2.91602 -2.97249 0
M  V30 506 H 49.8312 5.17411 -1.34869 0
M  V30 507 H 50.1742 4.16287 0.0333546 0
M  V30 508 H 50.7072 3.64833 -1.58562 0
M  V30 509 H 47.4462 4.96684 -4.27768 0
M  V30 510 H 46.9662 5.39569 -2.61965 0
M  V30 511 H 48.6452 5.6467 -3.15844 0
M  V30 512 N 48.7773 0.814389 1.34928 0
M  V30 513 C 50.0173 0.404165 2.00364 0
M  V30 514 C 50.3813 -1.01166 1.63185 0
M  V30 515 O 51.5823 -1.52431 2.21401 0
M  V30 516 C 49.8533 0.590718 3.52484 0
M  V30 517 S 51.4123 0.272075 4.37956 0
M  V30 518 H 48.2303 0.15311 0.694319 0
M  V30 519 H 50.8323 1.05834 1.64376 0
M  V30 520 H 49.5363 1.62099 3.77031 0
M  V30 521 H 49.0673 -0.0785013 3.93322 0
M  V30 522 H 51.0823 -0.917405 4.87645 0
M  V30 523 N 50.2554 -1.46986 0.568584 0
M  V30 524 C 51.1854 -2.32946 -0.160753 0
M  V30 525 C 52.1664 -1.44487 -0.897631 0
M  V30 526 O 53.3514 -1.73327 -0.875867 0
M  V30 527 C 50.4814 -3.26494 -1.18403 0
M  V30 528 C 49.4354 -4.24282 -0.562895 0
M  V30 529 C 48.7614 -5.07236 -1.69163 0
M  V30 530 C 50.0614 -5.19989 0.490761 0
M  V30 531 H 51.7554 -2.94175 0.556916 0
M  V30 532 H 49.3014 -1.4146 0.26927 0
M  V30 533 H 51.2544 -3.85477 -1.70251 0
M  V30 534 H 49.9784 -2.63343 -1.93179 0
M  V30 535 H 48.6374 -3.66541 -0.0656164 0
M  V30 536 H 48.2854 -4.4048 -2.42871 0
M  V30 537 H 47.9854 -5.7345 -1.28174 0
M  V30 538 H 49.5094 -5.6908 -2.21314 0
M  V30 539 H 50.9234 -5.73271 0.0579047 0
M  V30 540 H 49.3204 -5.94469 0.820165 0
M  V30 541 H 50.3904 -4.64777 1.3824 0
M  V30 542 N 51.7335 -0.305618 -1.54608 0
M  V30 543 C 52.9585 0.307562 -2.05107 0
M  V30 544 C 53.3835 1.46385 -1.18123 0
M  V30 545 O 52.7415 1.8034 -0.186324 0
M  V30 546 C 52.7895 0.73704 -3.52987 0
M  V30 547 O 51.8935 1.84134 -3.6901 0
M  V30 548 H 51.2345 0.0589143 -0.661381 0
M  V30 549 H 53.7645 -0.448807 -1.99617 0
M  V30 550 H 53.7745 1.02459 -3.94925 0
M  V30 551 H 52.4495 -0.108773 -4.15758 0
M  V30 552 H 51.0265 1.55398 -3.38978 0
M  V30 553 N 53.2116 1.57565 -0.0334293 0
M  V30 554 C 54.4396 1.9628 0.654347 0
M  V30 555 C 54.8546 0.910138 1.65414 0
M  V30 556 O 54.2116 -0.107595 1.82183 0
M  V30 557 C 54.2626 3.35067 1.35693 0
M  V30 558 O 53.9836 4.36296 0.397191 0
M  V30 559 C 55.4846 3.88439 2.13613 0
M  V30 560 H 52.7046 0.646369 0.180132 0
M  V30 561 H 55.2486 2.04282 -0.0944721 0
M  V30 562 H 53.4036 3.2827 2.05712 0
M  V30 563 H 53.8176 5.1678 0.896597 0
M  V30 564 H 55.2916 4.8788 2.58219 0
M  V30 565 H 55.7686 3.22914 2.97696 0
M  V30 566 H 56.3746 3.98516 1.48543 0
M  V30 567 N 54.6897 -0.239769 1.55765 0
M  V30 568 C 55.9147 -0.988373 1.82335 0
M  V30 569 C 56.3397 -1.77886 0.611421 0
M  V30 570 O 55.6977 -1.75889 -0.439639 0
M  V30 571 C 55.7457 -1.89627 3.06715 0
M  V30 572 O 54.8497 -2.98904 2.84131 0
M  V30 573 H 54.1907 -0.280858 0.601677 0
M  V30 574 H 56.7207 -0.258597 2.02959 0
M  V30 575 H 56.7307 -2.30957 3.36338 0
M  V30 576 H 55.4057 -1.31511 3.9456 0
M  V30 577 H 53.9827 -2.61651 2.65694 0
M  V30 578 N 56.1678 -1.49265 -0.50573 0
M  V30 579 C 57.0978 -1.68495 -1.61653 0
M  V30 580 C 58.0788 -0.53366 -1.61512 0
M  V30 581 O 59.2638 -0.76897 -1.78327 0
M  V30 582 C 56.3938 -1.74709 -3.00157 0
M  V30 583 C 55.3478 -2.89581 -3.15162 0
M  V30 584 C 54.6738 -2.80903 -4.5497 0
M  V30 585 C 55.9738 -4.30578 -2.95634 0
M  V30 586 H 57.6678 -2.61493 -1.45814 0
M  V30 587 H 55.2138 -1.25838 -0.70005 0
M  V30 588 H 57.1668 -1.86748 -3.77761 0
M  V30 589 H 55.8908 -0.783067 -3.17074 0
M  V30 590 H 54.5498 -2.77136 -2.39982 0
M  V30 591 H 54.1978 -1.82419 -4.68756 0
M  V30 592 H 53.8978 -3.57999 -4.65951 0
M  V30 593 H 55.4218 -2.94944 -5.34641 0
M  V30 594 H 56.8358 -4.4373 -3.63011 0
M  V30 595 H 55.2328 -5.0886 -3.18091 0
M  V30 596 H 56.3028 -4.45352 -1.91806 0
M  V30 597 N 57.6459 0.756429 -1.3826 0
M  V30 598 C 58.8709 1.55077 -1.37717 0
M  V30 599 C 59.2959 1.88073 0.03164 0
M  V30 600 O 58.6539 1.50364 1.01293 0
M  V30 601 C 58.7019 2.8283 -2.23695 0
M  V30 602 O 57.8059 3.77862 -1.6521 0
M  V30 603 H 57.1469 0.469152 -0.469885 0
M  V30 604 H 59.6769 0.935019 -1.81985 0
M  V30 605 H 59.6869 3.31783 -2.37453 0
M  V30 606 H 58.3619 2.58144 -3.2609 0
M  V30 607 H 56.9389 3.36555 -1.60578 0
M  V30 608 N 59.124 1.23083 0.984299 0
M  V30 609 C 60.054 1.03292 2.09411 0
M  V30 610 C 61.035 -0.048923 1.7003 0
M  V30 611 O 62.22 0.114967 1.93859 0
M  V30 612 C 59.35 0.619155 3.41736 0
M  V30 613 C 58.304 1.64791 3.95004 0
M  V30 614 C 57.63 1.0897 5.23478 0
M  V30 615 C 58.93 3.03999 4.24714 0
M  V30 616 H 60.624 1.96119 2.26225 0
M  V30 617 H 58.17 0.944344 1.08711 0
M  V30 618 H 60.123 0.467777 4.18796 0
M  V30 619 H 58.847 -0.344786 3.24775 0
M  V30 620 H 57.506 1.78721 3.20085 0
M  V30 621 H 57.154 0.11686 5.02864 0
M  V30 622 H 56.854 1.77704 5.60085 0
M  V30 623 H 58.378 0.950093 6.03163 0
M  V30 624 H 59.792 2.93393 4.92538 0
M  V30 625 H 58.189 3.69936 4.72512 0
M  V30 626 H 59.259 3.53285 3.32142 0
M  V30 627 N 60.6021 -1.18246 1.0419 0
M  V30 628 C 61.5651 -2.20128 0.638452 0
M  V30 629 C 62.5651 -1.57885 -0.304805 0
M  V30 630 O 63.7551 -1.73967 -0.0900369 0
M  V30 631 C 60.8871 -3.4084 -0.0637751 0
M  V30 632 H 62.0801 -2.57336 1.54007 0
M  V30 633 H 59.6331 -1.32152 0.834598 0
M  V30 634 H 60.3681 -3.09166 -0.979136 0
M  V30 635 H 60.1531 -3.8726 0.614198 0
M  V30 636 H 61.6431 -4.16274 -0.332512 0
M  V30 637 N 62.0802 -0.821533 -1.34494 0
M  V30 638 C 63.0122 -0.199946 -2.28326 0
M  V30 639 C 64.0252 0.609377 -1.50965 0
M  V30 640 O 65.2142 0.439285 -1.7301 0
M  V30 641 C 62.3142 0.738431 -3.30757 0
M  V30 642 C 61.4872 -0.0277632 -4.37391 0
M  V30 643 C 60.5462 0.831332 -5.19591 0
M  V30 644 O 59.5722 0.276822 -5.68526 0
M  V30 645 N 60.7742 2.15132 -5.39165 0
M  V30 646 H 63.5392 -1.00609 -2.82308 0
M  V30 647 H 61.1002 -0.678366 -1.47003 0
M  V30 648 H 63.0922 1.31773 -3.82646 0
M  V30 649 H 61.6622 1.44533 -2.7718 0
M  V30 650 H 60.8822 -0.788359 -3.86236 0
M  V30 651 H 62.1702 -0.555251 -5.05761 0
M  V30 652 H 61.5682 2.62559 -5.01078 0
M  V30 653 H 60.1252 2.6795 -5.94177 0
M  V30 654 N 63.5583 1.46682 -0.576371 0
M  V30 655 C 64.8043 2.02712 -0.0596221 0
M  V30 656 C 65.1373 1.44765 1.29448 0
M  V30 657 O 64.4123 0.610355 1.84675 0
M  V30 658 C 64.6953 3.60098 0.0129503 0
M  V30 659 C 64.5483 4.28441 -1.3696 0
M  V30 660 C 65.8673 4.34224 0.71678 0
M  V30 661 H 62.9863 0.736637 -0.0231407 0
M  V30 662 H 65.6283 1.74898 -0.742351 0
M  V30 663 H 63.7783 3.83926 0.594378 0
M  V30 664 H 65.4503 4.15896 -1.9957 0
M  V30 665 H 63.6933 3.8805 -1.93907 0
M  V30 666 H 64.3643 5.3716 -1.27135 0
M  V30 667 H 66.8403 4.15503 0.222908 0
M  V30 668 H 65.7163 5.43936 0.73657 0
M  V30 669 H 65.9773 4.04823 1.77682 0
M  V30 670 N 65.0364 0.313813 1.54444 0
M  V30 671 C 66.2844 -0.291099 1.99993 0
M  V30 672 C 66.6054 -1.53418 1.20366 0
M  V30 673 O 65.8754 -1.93544 0.302927 0
M  V30 674 H 64.4554 -0.110552 0.738774 0
M  V30 675 H 67.1174 0.428106 1.9014 0
M  V30 676 H 66.2134 -0.554268 3.07139 0
M  V30 677 N 66.5145 -1.57545 0.0417849 0
M  V30 678 C 67.4775 -2.09885 -0.92093 0
M  V30 679 C 68.4775 -1.01648 -1.24596 0
M  V30 680 O 69.6675 -1.27759 -1.1842 0
M  V30 681 C 66.7995 -2.57527 -2.23367 0
M  V30 682 H 67.9925 -2.96236 -0.467382 0
M  V30 683 H 65.5455 -1.5493 -0.206467 0
M  V30 684 H 66.2805 -1.74542 -2.73323 0
M  V30 685 H 66.0655 -3.36613 -2.01083 0
M  V30 686 H 67.5555 -2.98201 -2.92346 0
M  V30 687 N 67.9926 0.231505 -1.5589 0
M  V30 688 C 68.9396 1.28682 -1.91598 0
M  V30 689 C 69.9096 1.47071 -0.771974 0
M  V30 690 O 71.0946 1.60802 -1.027 0
M  V30 691 C 68.2346 2.6342 -2.22944 0
M  V30 692 C 67.3476 2.52912 -3.50228 0
M  V30 693 C 66.4826 3.80106 -3.7107 0
M  V30 694 C 65.5216 3.64279 -4.91902 0
M  V30 695 N 64.6586 4.834 -5.09184 0
M  V30 696 H 69.4986 0.975305 -2.81588 0
M  V30 697 H 67.0356 0.470299 -1.39379 0
M  V30 698 H 68.9936 3.41869 -2.39126 0
M  V30 699 H 67.6236 2.92687 -1.36139 0
M  V30 700 H 66.6756 1.6595 -3.42294 0
M  V30 701 H 67.9876 2.37133 -4.38827 0
M  V30 702 H 67.1416 4.66999 -3.87295 0
M  V30 703 H 65.8806 3.98799 -2.80733 0
M  V30 704 H 64.8856 2.7577 -4.75637 0
M  V30 705 H 66.1106 3.47067 -5.83714 0
M  V30 706 H 64.0566 5.02425 -4.21788 0
M  V30 707 H 63.9736 4.70311 -5.91898 0
M  V30 708 H 65.2416 5.71747 -5.29835 0
M  V30 709 N 69.4707 1.49531 0.497807 0
M  V30 710 C 70.7187 1.58865 1.24926 0
M  V30 711 C 71.0397 0.278721 1.92998 0
M  V30 712 O 70.3097 -0.702144 1.82885 0
M  V30 713 H 68.8897 0.585343 0.464094 0
M  V30 714 H 71.5517 1.86174 0.57666 0
M  V30 715 H 70.6477 2.38633 2.01149 0
M  V30 716 N 70.9488 -0.749086 1.3866 0
M  V30 717 C 72.2258 -1.4992 1.25632 0
M  V30 718 C 72.6058 -2.10633 -0.140317 0
M  V30 719 O 71.9538 -1.97437 -1.15025 0
M  V30 720 C 72.1638 -2.56195 2.36992 0
M  V30 721 C 73.5118 -3.22972 2.75634 0
M  V30 722 O 74.5358 -2.66502 2.36337 0
M  V30 723 O 73.3948 -4.25122 3.43415 0
M  V30 724 H 70.4888 -0.665067 0.491544 0
M  V30 725 H 73.0348 -0.784113 1.50498 0
M  V30 726 H 71.8068 -2.09612 3.30422 0
M  V30 727 H 71.4298 -3.35279 2.13714 0
M  V30 728 N 72.4269 -1.23603 -0.977757 0
M  V30 729 C 73.6549 -1.09646 -1.75458 0
M  V30 730 C 74.0699 0.351859 -1.85492 0
M  V30 731 O 73.4269 1.24327 -1.336 0
M  V30 732 C 73.4779 -1.71895 -3.18016 0
M  V30 733 O 73.1989 -3.11063 -3.08498 0
M  V30 734 C 74.6999 -1.63415 -4.12081 0
M  V30 735 H 71.9199 -0.38359 -0.550545 0
M  V30 736 H 74.4639 -1.63507 -1.22824 0
M  V30 737 H 72.6189 -1.22061 -3.67668 0
M  V30 738 H 73.0329 -3.41305 -3.9826 0
M  V30 739 H 74.5069 -2.11669 -5.09804 0
M  V30 740 H 74.9839 -0.593462 -4.35172 0
M  V30 741 H 75.5899 -2.12628 -3.68334 0
M  V30 742 N 73.905 1.17692 -1.04816 0
M  V30 743 C 74.868 2.19787 -0.650117 0
M  V30 744 C 75.868 1.58044 0.296427 0
M  V30 745 O 77.058 1.74012 0.0808097 0
M  V30 746 C 74.19 3.40869 0.0456987 0
M  V30 747 H 75.383 2.56516 -1.5537 0
M  V30 748 H 72.936 1.31708 -0.841594 0
M  V30 749 H 73.671 3.09681 0.962726 0
M  V30 750 H 73.456 3.86928 -0.634727 0
M  V30 751 H 74.946 4.16445 0.310432 0
M  V30 752 N 75.3831 0.828654 1.34056 0
M  V30 753 C 76.3311 0.242973 2.31327 0
M  V30 754 C 77.3251 -0.61944 1.57668 0
M  V30 755 O 78.5311 -0.51014 1.7262 0
M  V30 756 H 74.9061 0.059834 0.749616 0
M  V30 757 H 76.8771 1.07809 2.78244 0
M  V30 758 C 75.6261 -0.575733 3.429 0
M  V30 759 H 74.9491 0.0785582 3.99723 0
M  V30 760 H 76.3891 -0.951547 4.13185 0
M  V30 761 C 74.8481 -1.75044 2.87856 0
M  V30 762 O 75.3781 -2.84882 2.83205 0
M  V30 763 N 73.5841 -1.56903 2.44602 0
M  V30 764 H 73.1311 -0.675547 2.48584 0
M  V30 765 H 73.0891 -2.35652 2.08124 0
M  V30 766 N 76.8612 -1.46375 0.584142 0
M  V30 767 C 77.7712 -2.34115 -0.150728 0
M  V30 768 C 78.7872 -1.49838 -0.884567 0
M  V30 769 O 79.9632 -1.82704 -0.847429 0
M  V30 770 C 77.0282 -3.2705 -1.15062 0
M  V30 771 C 76.0892 -4.27228 -0.421293 0
M  V30 772 C 75.3222 -5.15722 -1.37355 0
M  V30 773 O 75.5452 -5.07176 -2.61014 0
M  V30 774 O 74.4792 -5.95383 -0.883355 0
M  V30 775 H 78.3052 -2.98309 0.569708 0
M  V30 776 H 75.8902 -1.45373 0.344535 0
M  V30 777 H 77.7722 -3.84381 -1.72712 0
M  V30 778 H 76.4472 -2.65451 -1.8525 0
M  V30 779 H 75.3542 -3.7358 0.197085 0
M  V30 780 H 76.6872 -4.91616 0.239641 0
M  V30 781 N 78.3393 -0.321999 -1.54275 0
M  V30 782 C 79.5883 0.281931 -1.9972 0
M  V30 783 C 79.9013 1.53369 -1.21397 0
M  V30 784 O 81.1073 2.21352 -1.57211 0
M  V30 785 C 79.5633 0.5529 -3.55628 0
M  V30 786 C 79.1713 -0.681721 -4.42783 0
M  V30 787 C 80.9153 1.11687 -4.09544 0
M  V30 788 C 78.8223 -0.382742 -5.9016 0
M  V30 789 H 77.7523 0.109124 -0.746062 0
M  V30 790 H 80.4033 -0.43398 -1.78294 0
M  V30 791 H 78.7853 1.32896 -3.73035 0
M  V30 792 H 79.9593 -1.45723 -4.37151 0
M  V30 793 H 78.2743 -1.1658 -3.99748 0
M  V30 794 H 80.8713 1.35515 -5.17242 0
M  V30 795 H 81.2143 2.06575 -3.61431 0
M  V30 796 H 81.7473 0.402032 -3.95763 0
M  V30 797 H 78.4863 -1.30076 -6.42464 0
M  V30 798 H 78.0063 0.355094 -5.98748 0
M  V30 799 H 79.6853 0.00800157 -6.47 0
M  V30 800 N 79.8174 1.5752 -0.0501392 0
M  V30 801 C 81.0654 1.9227 0.622642 0
M  V30 802 C 81.3864 0.929083 1.71444 0
M  V30 803 O 80.6564 -0.0262186 1.95882 0
M  V30 804 H 79.2364 0.709739 0.232981 0
M  V30 805 H 81.8984 1.94628 -0.102898 0
M  V30 806 H 80.9944 2.93479 1.06191 0
M  V30 807 N 81.2955 -0.223234 1.56011 0
M  V30 808 C 82.2275 -1.30006 1.88762 0
M  V30 809 C 83.2405 -1.43129 0.775746 0
M  V30 810 O 84.4295 -1.44057 1.05403 0
M  V30 811 C 81.5295 -2.67589 2.07965 0
M  V30 812 C 80.7025 -2.76434 3.38973 0
M  V30 813 C 79.7615 -3.95019 3.47629 0
M  V30 814 O 78.7875 -3.83436 4.20672 0
M  V30 815 N 79.9895 -5.09249 2.78649 0
M  V30 816 H 82.7545 -1.02238 2.81722 0
M  V30 817 H 80.3155 -0.413278 1.56536 0
M  V30 818 H 82.3075 -3.45297 2.11073 0
M  V30 819 H 80.8775 -2.87964 1.21638 0
M  V30 820 H 80.0975 -1.85216 3.47978 0
M  V30 821 H 81.3855 -2.79313 4.25278 0
M  V30 822 H 80.7835 -5.21556 2.19081 0
M  V30 823 H 79.3405 -5.85007 2.8742 0
M  V30 824 N 82.7736 -1.49793 -0.48987 0
M  V30 825 C 84.0196 -1.60078 -1.24511 0
M  V30 826 C 84.3526 -0.291608 -1.91998 0
M  V30 827 O 83.6276 0.705647 -1.81248 0
M  V30 828 C 83.9106 -2.76791 -2.30345 0
M  V30 829 C 83.7636 -4.17535 -1.67286 0
M  V30 830 C 85.0826 -2.89111 -3.31817 0
M  V30 831 H 82.2016 -0.582645 -0.451324 0
M  V30 832 H 84.8436 -1.82117 -0.541612 0
M  V30 833 H 82.9936 -2.5813 -2.90346 0
M  V30 834 H 84.6656 -4.4774 -1.11026 0
M  V30 835 H 82.9086 -4.22665 -0.976577 0
M  V30 836 H 83.5796 -4.95094 -2.44103 0
M  V30 837 H 86.0556 -3.06133 -2.81819 0
M  V30 838 H 84.9316 -3.72433 -4.03219 0
M  V30 839 H 85.1926 -1.9893 -3.94815 0
M  V30 840 N 84.2517 0.741722 -1.39055 0
M  V30 841 C 85.1817 1.869 -1.39966 0
M  V30 842 C 86.1627 1.6804 -0.26392 0
M  V30 843 O 87.3477 1.88458 -0.468755 0
M  V30 844 C 84.4777 3.24572 -1.23574 0
M  V30 845 C 83.4317 3.58056 -2.34477 0
M  V30 846 C 82.7577 4.94593 -2.0318 0
M  V30 847 C 84.0577 3.61716 -3.76774 0
M  V30 848 H 85.7517 1.86395 -2.34302 0
M  V30 849 H 83.2977 0.895361 -1.1278 0
M  V30 850 H 85.2507 4.031 -1.22834 0
M  V30 851 H 83.9747 3.25587 -0.257045 0
M  V30 852 H 82.6337 2.81854 -2.34423 0
M  V30 853 H 82.2817 4.92181 -1.03765 0
M  V30 854 H 81.9817 5.17964 -2.77465 0
M  V30 855 H 83.5057 5.75486 -2.04079 0
M  V30 856 H 84.9197 4.30335 -3.78794 0
M  V30 857 H 83.3167 3.96603 -4.50362 0
M  V30 858 H 84.3867 2.61672 -4.08235 0
M  V30 859 N 85.7298 1.2412 0.971189 0
M  V30 860 C 86.6798 0.997551 2.05019 0
M  V30 861 C 87.6638 -0.0597747 1.60789 0
M  V30 862 O 88.8558 0.153516 1.76333 0
M  V30 863 C 85.9848 0.600557 3.38006 0
M  V30 864 C 85.0708 1.69377 3.88809 0
M  V30 865 N 85.4618 2.92586 4.12586 0
M  V30 866 C 83.7598 1.57048 4.17435 0
M  V30 867 C 84.4608 3.63431 4.54195 0
M  V30 868 N 83.4368 2.90979 4.59165 0
M  V30 869 H 87.2388 1.93316 2.21374 0
M  V30 870 H 84.7528 1.14194 1.1547 0
M  V30 871 H 86.7498 0.40725 4.14906 0
M  V30 872 H 85.4098 -0.327903 3.2304 0
M  V30 873 H 86.4208 3.288 4.00139 0
M  V30 874 H 83.0978 0.709798 4.11422 0
M  V30 875 H 84.4878 4.69102 4.81033 0
M  V30 876 N 87.2079 -1.17134 1.05439 0
M  V30 877 C 88.4549 -1.87456 0.765942 0
M  V30 878 C 88.7829 -1.81189 -0.707153 0
M  V30 879 O 88.0379 -1.21633 -1.5331 0
M  V30 880 C 88.3369 -3.36833 1.19491 0
M  V30 881 C 88.0029 -3.63301 2.67063 0
M  V30 882 C 86.6649 -3.70234 3.07376 0
M  V30 883 C 89.0169 -3.74575 3.62413 0
M  V30 884 C 86.3449 -3.85933 4.41896 0
M  V30 885 C 88.6969 -3.91793 4.9667 0
M  V30 886 C 87.3609 -3.96966 5.36633 0
M  V30 887 H 86.6309 -0.685948 0.280278 0
M  V30 888 H 89.2779 -1.38556 1.32192 0
M  V30 889 H 87.5829 -3.87807 0.557969 0
M  V30 890 H 89.2799 -3.89611 0.948893 0
M  V30 891 H 85.8699 -3.58532 2.34846 0
M  V30 892 H 90.0539 -3.68537 3.32406 0
M  V30 893 H 85.3099 -3.88187 4.72357 0
M  V30 894 H 89.4839 -3.99458 5.70444 0
M  V30 895 H 87.1109 -4.08883 6.40874 0
M  V30 896 N 88.686 -0.835752 -1.33615 0
M  V30 897 C 89.596 -0.269088 -2.33052 0
M  V30 898 C 90.612 0.603251 -1.63208 0
M  V30 899 O 91.788 0.508112 -1.94885 0
M  V30 900 C 88.853 0.549091 -3.42324 0
M  V30 901 C 87.914 -0.347156 -4.27894 0
M  V30 902 C 87.147 0.43207 -5.31948 0
M  V30 903 O 87.37 1.66409 -5.45586 0
M  V30 904 O 86.304 -0.192298 -6.01593 0
M  V30 905 H 90.13 -1.09243 -2.83372 0
M  V30 906 H 87.715 -0.598198 -1.36901 0
M  V30 907 H 89.597 1.01414 -4.09015 0
M  V30 908 H 88.272 1.34955 -2.94226 0
M  V30 909 H 87.179 -0.859979 -3.64081 0
M  V30 910 H 88.512 -1.1123 -4.79467 0
M  V30 911 N 90.1641 1.46063 -0.591896 0
M  V30 912 C 91.1121 2.32124 0.148739 0
M  V30 913 C 92.1061 1.45035 0.875286 0
M  V30 914 O 93.3121 1.61609 0.792632 0
M  V30 915 H 89.6871 0.749024 0.066832 0
M  V30 916 H 91.6581 2.92392 -0.595783 0
M  V30 917 C 90.4071 3.28373 1.1431 0
M  V30 918 H 89.7301 3.95371 0.59346 0
M  V30 919 H 91.1701 3.91352 1.63155 0
M  V30 920 C 89.6291 2.54393 2.20875 0
M  V30 921 O 90.1591 2.31373 3.28374 0
M  V30 922 N 88.3651 2.14797 1.95731 0
M  V30 923 H 87.9121 2.33719 1.08319 0
M  V30 924 H 87.8701 1.65619 2.67241 0
M  V30 925 N 91.6422 0.330177 1.54103 0
M  V30 926 C 92.8882 -0.270806 2.00984 0
M  V30 927 C 93.2212 -1.51265 1.21789 0
M  V30 928 O 92.4962 -1.92142 0.301927 0
M  V30 929 C 92.7792 -0.598339 3.55094 0
M  V30 930 C 92.6322 0.654674 4.4501 0
M  V30 931 C 93.9512 -1.41334 4.16789 0
M  V30 932 H 91.0702 -0.0969531 0.730595 0
M  V30 933 H 93.7122 0.448066 1.84641 0
M  V30 934 H 91.8622 -1.21078 3.69151 0
M  V30 935 H 93.5342 1.29285 4.42813 0
M  V30 936 H 91.7772 1.28224 4.14416 0
M  V30 937 H 92.4482 0.380944 5.50684 0
M  V30 938 H 94.9242 -0.895597 4.06347 0
M  V30 939 H 93.8002 -1.61127 5.24718 0
M  V30 940 H 94.0612 -2.41146 3.70541 0
M  V30 941 N 93.1203 -1.57491 0.0584922 0
M  V30 942 C 94.0673 -2.11958 -0.913376 0
M  V30 943 C 95.0373 -1.02875 -1.30407 0
M  V30 944 O 96.2223 -1.30464 -1.39226 0
M  V30 945 C 93.3623 -2.67497 -2.18035 0
M  V30 946 C 92.4753 -3.90691 -1.84349 0
M  V30 947 C 91.6103 -4.3452 -3.05559 0
M  V30 948 C 90.6493 -5.50395 -2.67827 0
M  V30 949 N 89.7863 -5.89244 -3.81754 0
M  V30 950 H 94.6263 -2.94704 -0.442017 0
M  V30 951 H 92.1633 -1.45643 -0.206545 0
M  V30 952 H 94.1213 -2.978 -2.92183 0
M  V30 953 H 92.7513 -1.87537 -2.62735 0
M  V30 954 H 91.8033 -3.66934 -1.00319 0
M  V30 955 H 93.1153 -4.7489 -1.5258 0
M  V30 956 H 92.2693 -4.66414 -3.87998 0
M  V30 957 H 91.0083 -3.49147 -3.40511 0
M  V30 958 H 90.0133 -5.18165 -1.83806 0
M  V30 959 H 91.2383 -6.3749 -2.34059 0
M  V30 960 H 89.1843 -5.06823 -4.16493 0
M  V30 961 H 89.1013 -6.68151 -3.53708 0
M  V30 962 H 90.3693 -6.25756 -4.64811 0
M  V30 963 N 94.5984 0.214957 -1.56127 0
M  V30 964 C 95.8754 0.963093 -1.70247 0
M  V30 965 C 96.2554 2.02166 -0.60764 0
M  V30 966 O 95.6034 2.25244 0.384385 0
M  V30 967 C 95.8134 1.56756 -3.11815 0
M  V30 968 C 97.1614 2.0573 -3.7143 0
M  V30 969 O 98.1854 1.66637 -3.14818 0
M  V30 970 O 97.0444 2.77603 -4.70743 0
M  V30 971 H 94.1384 0.450321 -0.693643 0
M  V30 972 H 96.6844 0.206219 -1.68442 0
M  V30 973 H 95.4564 0.803533 -3.82961 0
M  V30 974 H 95.0794 2.3898 -3.17765 0
M  V30 975 N 96.0765 1.50051 0.48192 0
M  V30 976 C 97.3225 1.60736 1.2366 0
M  V30 977 C 97.6555 0.301786 1.91841 0
M  V30 978 O 96.9305 -0.696025 1.8162 0
M  V30 979 C 97.2135 2.78009 2.28874 0
M  V30 980 C 97.0665 4.18416 1.65069 0
M  V30 981 C 98.3855 2.90867 3.30279 0
M  V30 982 H 95.5045 0.585031 0.448228 0
M  V30 983 H 98.1465 1.82402 0.531946 0
M  V30 984 H 96.2965 2.59667 2.88973 0
M  V30 985 H 97.9685 4.48322 1.0865 0
M  V30 986 H 96.2115 4.23177 0.954148 0
M  V30 987 H 96.8825 4.96381 2.41474 0
M  V30 988 H 99.3585 3.07623 2.80191 0
M  V30 989 H 98.2345 3.74566 4.01238 0
M  V30 990 H 98.4955 2.01021 3.93755 0
M  V30 991 N 97.5546 -0.734337 1.39446 0
M  V30 992 C 98.9656 -1.31264 1.32766 0
M  V30 993 C 99.3166 -1.96198 -0.00767497 0
M  V30 994 O 98.4416 -1.96346 -0.909796 0
M  V30 995 C 99.0366 -2.38682 2.4045 0
M  V30 996 C 97.5956 -2.92184 2.37288 0
M  V30 997 C 96.7426 -1.6576 2.22304 0
M  V30 998 H 99.6936 -0.531799 1.49525 0
M  V30 999 H 99.7146 -3.19087 2.07276 0
M  V30 1000 H 99.2266 -1.91392 3.37625 0
M  V30 1001 H 97.3276 -3.43752 1.43754 0
M  V30 1002 H 97.4406 -3.45253 3.3217 0
M  V30 1003 H 95.8046 -1.9012 1.69489 0
M  V30 1004 H 96.5876 -1.20521 3.21449 0
M  V30 1005 N 99.0327 -1.24633 -0.964593 0
M  V30 1006 C 100.28 -1.08788 -1.70796 0
M  V30 1007 C 100.608 0.372783 -1.90894 0
M  V30 1008 O 99.8627 1.29167 -1.47018 0
M  V30 1009 C 100.162 -1.7763 -3.10133 0
M  V30 1010 C 99.8277 -3.27557 -3.09866 0
M  V30 1011 C 98.4897 -3.6846 -3.09501 0
M  V30 1012 C 100.842 -4.23389 -3.03959 0
M  V30 1013 C 98.1697 -5.03624 -3.00965 0
M  V30 1014 C 100.522 -5.58565 -2.96965 0
M  V30 1015 C 99.1857 -5.98809 -2.9493 0
M  V30 1016 H 98.4557 -0.398084 -0.624988 0
M  V30 1017 H 101.103 -1.54777 -1.12767 0
M  V30 1018 H 99.4077 -1.24044 -3.71645 0
M  V30 1019 H 101.105 -1.62832 -3.66451 0
M  V30 1020 H 97.6947 -2.95006 -3.10917 0
M  V30 1021 H 101.879 -3.92787 -3.03368 0
M  V30 1022 H 97.1347 -5.33998 -2.97752 0
M  V30 1023 H 101.309 -6.32523 -2.91354 0
M  V30 1024 H 98.9357 -7.03505 -2.88071 0
M  V30 1025 N 100.511 1.16574 -1.06058 0
M  V30 1026 C 101.759 1.86677 -0.77434 0
M  V30 1027 C 102.08 1.81959 0.701147 0
M  V30 1028 O 101.35 1.2515 1.50713 0
M  V30 1029 H 99.9298 0.691134 -0.283449 0
M  V30 1030 H 102.592 1.41378 -1.34158 0
M  V30 1031 H 101.688 2.92181 -1.09711 0
M  V30 1032 N 101.989 0.842826 1.3317 0
M  V30 1033 C 103.236 0.440447 1.97652 0
M  V30 1034 C 103.564 -1.00123 1.6675 0
M  V30 1035 O 102.819 -1.7155 0.941761 0
M  V30 1036 C 103.118 0.612607 3.52111 0
M  V30 1037 C 102.784 2.02297 4.02972 0
M  V30 1038 C 101.446 2.40874 4.16573 0
M  V30 1039 C 103.798 2.94402 4.30089 0
M  V30 1040 C 101.126 3.70852 4.54627 0
M  V30 1041 C 103.478 4.23865 4.69597 0
M  V30 1042 C 102.142 4.62392 4.81404 0
M  V30 1043 H 101.412 0.161171 0.72326 0
M  V30 1044 H 104.059 1.07061 1.58777 0
M  V30 1045 H 102.364 -0.100849 3.9167 0
M  V30 1046 H 104.061 0.2815 4.00011 0
M  V30 1047 H 100.651 1.71338 3.92863 0
M  V30 1048 H 104.835 2.65835 4.19101 0
M  V30 1049 H 100.091 4.00501 4.61962 0
M  V30 1050 H 104.265 4.95306 4.89536 0
M  V30 1051 H 101.892 5.63154 5.10648 0
M  V30 1052 N 103.467 -1.45747 0.599634 0
M  V30 1053 C 104.399 -2.28628 -0.161879 0
M  V30 1054 C 105.412 -1.39494 -0.839367 0
M  V30 1055 O 106.601 -1.63941 -0.706089 0
M  V30 1056 C 103.701 -3.15014 -1.24976 0
M  V30 1057 C 102.874 -4.32378 -0.660935 0
M  V30 1058 C 101.933 -5.00033 -1.63869 0
M  V30 1059 O 100.959 -5.57085 -1.1681 0
M  V30 1060 N 102.161 -4.98589 -2.97303 0
M  V30 1061 H 104.926 -2.94624 0.549265 0
M  V30 1062 H 102.487 -1.55847 0.438565 0
M  V30 1063 H 104.479 -3.5714 -1.9035 0
M  V30 1064 H 103.049 -2.5098 -1.86354 0
M  V30 1065 H 102.269 -3.9383 0.170688 0
M  V30 1066 H 103.557 -5.08197 -0.247619 0
M  V30 1067 H 102.955 -4.53514 -3.38145 0
M  V30 1068 H 101.512 -5.44603 -3.58121 0
M  V30 1069 N 104.945 -0.338344 -1.53925 0
M  V30 1070 C 106.173 0.261298 -2.05243 0
M  V30 1071 C 106.588 1.44625 -1.21363 0
M  V30 1072 O 105.945 1.80811 -0.247736 0
M  V30 1073 C 105.996 0.681412 -3.5502 0
M  V30 1074 O 105.717 -0.456414 -4.35716 0
M  V30 1075 C 107.218 1.34232 -4.22489 0
M  V30 1076 H 104.438 0.0513685 -0.669031 0
M  V30 1077 H 106.982 -0.488822 -1.98572 0
M  V30 1078 H 105.137 1.38148 -3.61931 0
M  V30 1079 H 105.551 -0.122564 -5.24357 0
M  V30 1080 H 107.025 1.58708 -5.28693 0
M  V30 1081 H 107.502 2.29426 -3.74514 0
M  V30 1082 H 108.108 0.684424 -4.19757 0
M  V30 1083 N 106.423 1.57458 -0.0668435 0
M  V30 1084 C 107.669 1.93587 0.6043 0
M  V30 1085 C 108.002 0.946722 1.69561 0
M  V30 1086 O 107.277 -0.0248516 1.94484 0
M  V30 1087 C 107.56 3.40014 1.18585 0
M  V30 1088 C 107.413 4.49685 0.101529 0
M  V30 1089 C 108.732 3.87154 2.09284 0
M  V30 1090 H 105.851 0.703958 0.218202 0
M  V30 1091 H 108.493 1.89542 -0.131804 0
M  V30 1092 H 106.643 3.43592 1.81319 0
M  V30 1093 H 108.315 4.5823 -0.531279 0
M  V30 1094 H 106.558 4.30059 -0.568487 0
M  V30 1095 H 107.229 5.49266 0.54874 0
M  V30 1096 H 109.705 3.85551 1.56491 0
M  V30 1097 H 108.581 4.90231 2.46911 0
M  V30 1098 H 108.842 3.2481 2.99918 0
M  V30 1099 N 107.901 -0.206675 1.56239 0
M  V30 1100 C 109.129 -0.945345 1.8404 0
M  V30 1101 C 109.544 -1.77336 0.647885 0
M  V30 1102 O 108.901 -1.78425 -0.383511 0
M  V30 1103 C 108.952 -1.8509 3.10522 0
M  V30 1104 O 108.673 -1.05634 4.25174 0
M  V30 1105 C 110.174 -2.70222 3.51418 0
M  V30 1106 H 107.394 -0.276372 0.61144 0
M  V30 1107 H 109.938 -0.217417 2.03341 0
M  V30 1108 H 108.093 -2.53259 2.93153 0
M  V30 1109 H 108.507 -1.67238 4.97124 0
M  V30 1110 H 109.981 -3.29438 4.42916 0
M  V30 1111 H 110.458 -3.43358 2.73864 0
M  V30 1112 H 111.064 -2.07443 3.71278 0
M  V30 1113 N 109.379 -1.50304 -0.473955 0
M  V30 1114 C 110.604 -1.65175 -1.25427 0
M  V30 1115 C 111.029 -0.333673 -1.85117 0
M  V30 1116 O 110.387 0.702114 -1.67153 0
M  V30 1117 C 110.435 -2.74295 -2.34082 0
M  V30 1118 O 109.539 -2.35349 -3.38651 0
M  V30 1119 H 108.88 -0.551944 -0.369126 0
M  V30 1120 H 111.41 -1.96662 -0.564364 0
M  V30 1121 H 111.42 -2.97285 -2.79438 0
M  V30 1122 H 110.095 -3.69959 -1.90008 0
M  V30 1123 H 108.672 -2.22794 -2.99027 0
M  V30 1124 N 110.857 0.726932 -1.39834 0
M  V30 1125 C 112.134 1.47902 -1.28001 0
M  V30 1126 C 112.514 2.1083 0.106789 0
M  V30 1127 O 111.862 1.99242 1.11869 0
M  V30 1128 C 112.072 2.52392 -2.41038 0
M  V30 1129 C 113.42 3.18546 -2.80737 0
M  V30 1130 O 114.444 2.62708 -2.40547 0
M  V30 1131 O 113.303 4.19604 -3.50135 0
M  V30 1132 H 110.397 0.657163 -0.502062 0
M  V30 1133 H 112.943 0.760071 -1.51727 0
M  V30 1134 H 111.715 2.04329 -3.33715 0
M  V30 1135 H 111.338 3.31837 -2.19021 0
M  V30 1136 N 112.336 1.25143 0.95797 0
M  V30 1137 C 113.582 1.09855 1.70469 0
M  V30 1138 C 113.915 -0.360187 1.90831 0
M  V30 1139 O 113.19 -1.26568 1.47685 0
M  V30 1140 C 113.473 1.8497 3.08963 0
M  V30 1141 C 113.326 3.38652 2.96032 0
M  V30 1142 C 114.645 1.63016 4.08795 0
M  V30 1143 H 111.764 0.400465 0.618706 0
M  V30 1144 H 114.406 1.53933 1.11376 0
M  V30 1145 H 112.556 1.47505 3.59409 0
M  V30 1146 H 114.228 3.85772 2.52938 0
M  V30 1147 H 112.471 3.66534 2.32025 0
M  V30 1148 H 113.142 3.8642 3.94187 0
M  V30 1149 H 115.618 1.95625 3.67247 0
M  V30 1150 H 114.494 2.18015 5.03747 0
M  V30 1151 H 114.755 0.570692 4.38401 0
M  V30 1152 N 113.814 -1.1601 1.06675 0
M  V30 1153 C 114.762 -2.22586 0.675157 0
M  V30 1154 C 115.756 -1.66525 -0.310766 0
M  V30 1155 O 116.962 -1.79145 -0.175215 0
M  V30 1156 H 113.337 -0.724855 0.200223 0
M  V30 1157 H 115.308 -2.52899 1.58381 0
M  V30 1158 C 114.057 -3.47604 0.0817162 0
M  V30 1159 H 113.38 -3.91058 0.831484 0
M  V30 1160 H 114.82 -4.23718 -0.154708 0
M  V30 1161 C 113.279 -3.15718 -1.17576 0
M  V30 1162 O 113.809 -3.31878 -2.26318 0
M  V30 1163 N 112.015 -2.69816 -1.07923 0
M  V30 1164 H 111.562 -2.56866 -0.194293 0
M  V30 1165 H 111.52 -2.48855 -1.92141 0
M  V30 1166 N 115.292 -0.849877 -1.32721 0
M  V30 1167 C 116.239 -0.289033 -2.28983 0
M  V30 1168 C 117.209 0.601324 -1.54833 0
M  V30 1169 O 118.394 0.537253 -1.8308 0
M  V30 1170 C 115.534 0.520623 -3.4115 0
M  V30 1171 C 114.647 -0.394989 -4.3019 0
M  V30 1172 C 113.782 0.426834 -5.29482 0
M  V30 1173 C 112.821 -0.486476 -6.10164 0
M  V30 1174 N 111.958 0.297879 -7.01468 0
M  V30 1175 H 116.798 -1.11519 -2.76347 0
M  V30 1176 H 114.335 -0.56138 -1.35967 0
M  V30 1177 H 116.293 1.00563 -4.04899 0
M  V30 1178 H 114.923 1.31165 -2.9495 0
M  V30 1179 H 113.975 -0.99836 -3.67065 0
M  V30 1180 H 115.287 -1.09612 -4.86607 0
M  V30 1181 H 114.441 0.975205 -5.98811 0
M  V30 1182 H 113.18 1.16136 -4.73671 0
M  V30 1183 H 112.185 -1.04677 -5.39743 0
M  V30 1184 H 113.41 -1.21953 -6.6806 0
M  V30 1185 H 111.356 1.01558 -6.48091 0
M  V30 1186 H 111.273 -0.344318 -7.55216 0
M  V30 1187 H 112.541 0.828131 -7.75089 0
M  V30 1188 N 116.77 1.45427 -0.607355 0
M  V30 1189 C 117.7 2.3329 0.0989352 0
M  V30 1190 C 118.681 1.46816 0.859007 0
M  V30 1191 O 119.866 1.75588 0.829604 0
M  V30 1192 C 116.996 3.29518 1.09705 0
M  V30 1193 C 115.95 4.25626 0.450206 0
M  V30 1194 C 115.276 5.11542 1.55655 0
M  V30 1195 C 116.576 5.18505 -0.628455 0
M  V30 1196 H 118.27 2.92595 -0.634716 0
M  V30 1197 H 115.816 1.40696 -0.306681 0
M  V30 1198 H 117.769 3.89855 1.59971 0
M  V30 1199 H 116.493 2.68372 1.86129 0
M  V30 1200 H 115.152 3.66586 -0.0315886 0
M  V30 1201 H 114.8 4.46765 2.31107 0
M  V30 1202 H 114.5 5.76647 1.12925 0
M  V30 1203 H 116.024 5.74748 2.06148 0
M  V30 1204 H 117.438 5.72916 -0.209877 0
M  V30 1205 H 115.835 5.92085 -0.977489 0
M  V30 1206 H 116.905 4.60948 -1.50514 0
M  V30 1207 N 118.248 0.346503 1.53744 0
M  V30 1208 C 119.473 -0.253074 2.0585 0
M  V30 1209 C 119.898 -1.43202 1.21962 0
M  V30 1210 O 119.256 -1.79783 0.234073 0
M  V30 1211 C 119.304 -0.643193 3.54817 0
M  V30 1212 O 118.408 -1.74286 3.73762 0
M  V30 1213 H 117.749 -0.0413583 0.662711 0
M  V30 1214 H 120.279 0.501574 1.98357 0
M  V30 1215 H 120.289 -0.919526 3.97503 0
M  V30 1216 H 118.964 0.218966 4.15323 0
M  V30 1217 H 117.541 -1.46356 3.42979 0
M  V30 1218 N 119.726 -1.57421 0.075193 0
M  V30 1219 C 120.951 -1.98364 -0.605515 0
M  V30 1220 C 121.376 -0.953383 -1.62149 0
M  V30 1221 O 120.734 0.0806053 -1.81121 0
M  V30 1222 C 120.782 -3.38332 -1.24756 0
M  V30 1223 O 119.886 -3.37959 -2.36342 0
M  V30 1224 H 119.227 -0.645553 -0.155428 0
M  V30 1225 H 121.757 -2.04044 0.150714 0
M  V30 1226 H 121.767 -3.75591 -1.5936 0
M  V30 1227 H 120.442 -4.12846 -0.503129 0
M  V30 1228 H 119.019 -3.12474 -2.03506 0
M  V30 1229 N 121.204 0.198386 -1.56346 0
M  V30 1230 C 122.451 0.919286 -1.80431 0
M  V30 1231 C 122.779 1.83393 -0.647866 0
M  V30 1232 O 122.034 1.92236 0.366556 0
M  V30 1233 C 122.333 1.77031 -3.10475 0
M  V30 1234 C 121.999 1.00693 -4.39513 0
M  V30 1235 C 120.661 0.796145 -4.74568 0
M  V30 1236 C 123.013 0.469559 -5.19081 0
M  V30 1237 C 120.341 0.0364588 -5.86689 0
M  V30 1238 C 122.693 -0.2769 -6.31994 0
M  V30 1239 C 121.357 -0.49873 -6.65634 0
M  V30 1240 H 120.627 0.336391 -0.660244 0
M  V30 1241 H 123.274 0.185872 -1.90596 0
M  V30 1242 H 121.579 2.5723 -2.95533 0
M  V30 1243 H 123.276 2.33065 -3.26315 0
M  V30 1244 H 119.866 1.18122 -4.12001 0
M  V30 1245 H 124.05 0.619816 -4.92414 0
M  V30 1246 H 119.306 -0.145412 -6.11227 0
M  V30 1247 H 123.48 -0.700684 -6.92866 0
M  V30 1248 H 121.107 -1.0893 -7.52355 0
M  V30 1249 N 122.682 1.50554 0.465978 0
M  V30 1250 C 123.912 1.65323 1.23903 0
M  V30 1251 C 124.32 0.338051 1.86155 0
M  V30 1252 O 123.663 -0.690518 1.70228 0
M  V30 1253 C 123.725 2.69048 2.3844 0
M  V30 1254 C 123.389 4.12462 1.96784 0
M  V30 1255 C 124.386 4.98168 1.48745 0
M  V30 1256 C 122.071 4.58407 2.05349 0
M  V30 1257 C 124.065 6.27868 1.0982 0
M  V30 1258 C 121.752 5.88112 1.66035 0
M  V30 1259 C 122.75 6.72668 1.18349 0
M  V30 1260 O 122.438 7.99951 0.795825 0
M  V30 1261 H 122.17 0.558629 0.38067 0
M  V30 1262 H 124.724 1.97561 0.562022 0
M  V30 1263 H 122.954 2.32062 3.09328 0
M  V30 1264 H 124.643 2.72985 3.0039 0
M  V30 1265 H 125.409 4.63885 1.41546 0
M  V30 1266 H 121.288 3.92735 2.41414 0
M  V30 1267 H 124.832 6.93819 0.725293 0
M  V30 1268 H 120.729 6.21914 1.72895 0
M  V30 1269 H 121.497 8.13265 0.924222 0
M  V30 1270 N 124.16 -0.719506 1.40217 0
M  V30 1271 C 125.385 -1.51371 1.4178 0
M  V30 1272 C 125.81 -1.88091 0.0182355 0
M  V30 1273 O 125.168 -1.52997 -0.972707 0
M  V30 1274 C 125.216 -2.768 2.31115 0
M  V30 1275 O 124.32 -3.73349 1.7517 0
M  V30 1276 H 123.661 -0.456529 0.482159 0
M  V30 1277 H 126.191 -0.88644 1.844 0
M  V30 1278 H 126.201 -3.25371 2.46167 0
M  V30 1279 H 124.876 -2.49407 3.3282 0
M  V30 1280 H 123.453 -3.32179 1.69444 0
M  V30 1281 N 125.638 -1.25649 -0.95132 0
M  V30 1282 C 126.568 -1.08808 -2.06599 0
M  V30 1283 C 127.549 0.00382547 -1.701 0
M  V30 1284 O 128.734 -0.166325 -1.93486 0
M  V30 1285 C 125.864 -0.709542 -3.39975 0
M  V30 1286 C 124.818 -1.75206 -3.90496 0
M  V30 1287 C 124.144 -1.22811 -5.20405 0
M  V30 1288 C 125.444 -3.15153 -4.16504 0
M  V30 1289 H 127.138 -2.02048 -2.20946 0
M  V30 1290 H 124.684 -0.972835 -1.06169 0
M  V30 1291 H 126.637 -0.578649 -4.17408 0
M  V30 1292 H 125.361 0.258556 -3.25575 0
M  V30 1293 H 124.02 -1.87145 -3.15234 0
M  V30 1294 H 123.668 -0.250145 -5.02378 0
M  V30 1295 H 123.368 -1.92492 -5.55176 0
M  V30 1296 H 124.892 -1.10968 -6.00432 0
M  V30 1297 H 126.306 -3.06349 -4.84586 0
M  V30 1298 H 124.703 -3.82333 -4.62538 0
M  V30 1299 H 125.773 -3.61966 -3.22658 0
M  V30 1300 N 127.117 1.15442 -1.07289 0
M  V30 1301 C 128.064 2.20161 -0.692653 0
M  V30 1302 C 129.034 1.63073 0.31564 0
M  V30 1303 O 130.219 1.89725 0.202235 0
M  V30 1304 C 127.359 3.44967 -0.0959509 0
M  V30 1305 C 126.472 4.16256 -1.15564 0
M  V30 1306 C 125.607 5.28609 -0.524011 0
M  V30 1307 C 124.646 5.91715 -1.56653 0
M  V30 1308 N 123.783 6.9554 -0.957531 0
M  V30 1309 H 128.623 2.52037 -1.59002 0
M  V30 1310 H 126.16 1.2378 -0.794798 0
M  V30 1311 H 128.118 4.16341 0.267628 0
M  V30 1312 H 126.748 3.1361 0.764772 0
M  V30 1313 H 125.8 3.43385 -1.6368 0
M  V30 1314 H 127.112 4.59268 -1.94613 0
M  V30 1315 H 126.266 6.06604 -0.108032 0
M  V30 1316 H 125.005 4.86787 0.29825 0
M  V30 1317 H 124.01 5.12433 -1.9923 0
M  V30 1318 H 125.235 6.35614 -2.39107 0
M  V30 1319 H 123.181 6.55814 -0.156162 0
M  V30 1320 H 123.098 7.36977 -1.68526 0
M  V30 1321 H 124.366 7.77435 -0.567032 0
M  V30 1322 N 128.595 0.856903 1.32268 0
M  V30 1323 C 129.525 0.31858 2.31316 0
M  V30 1324 C 130.506 -0.583487 1.59779 0
M  V30 1325 O 131.691 -0.503259 1.87566 0
M  V30 1326 C 128.821 -0.491979 3.43798 0
M  V30 1327 C 127.775 0.315849 4.26833 0
M  V30 1328 C 127.101 -0.619586 5.31098 0
M  V30 1329 C 128.401 1.54282 4.98993 0
M  V30 1330 H 130.095 1.14621 2.76591 0
M  V30 1331 H 127.641 0.552613 1.32974 0
M  V30 1332 H 129.594 -0.879012 4.1213 0
M  V30 1333 H 128.318 -1.35299 2.97257 0
M  V30 1334 H 126.977 0.684664 3.6015 0
M  V30 1335 H 126.625 -1.47751 4.8081 0
M  V30 1336 H 126.325 -0.0830621 5.87541 0
M  V30 1337 H 127.849 -1.00375 6.02293 0
M  V30 1338 H 129.263 1.22796 5.59995 0
M  V30 1339 H 127.66 2.01745 5.65172 0
M  V30 1340 H 128.73 2.30285 4.26728 0
M  V30 1341 N 130.073 -1.45103 0.615059 0
M  V30 1342 C 131.322 -2.01396 0.110718 0
M  V30 1343 C 131.635 -1.48834 -1.26916 0
M  V30 1344 O 132.841 -1.97152 -1.86664 0
M  V30 1345 C 131.297 -3.59599 0.14723 0
M  V30 1346 C 130.905 -4.21158 1.52743 0
M  V30 1347 C 132.649 -4.23428 -0.30148 0
M  V30 1348 C 130.556 -5.71535 1.51992 0
M  V30 1349 H 129.486 -0.753061 0.0376241 0
M  V30 1350 H 132.137 -1.66494 0.77149 0
M  V30 1351 H 130.519 -3.91724 -0.580339 0
M  V30 1352 H 131.693 -4.00594 2.2773 0
M  V30 1353 H 130.008 -3.69552 1.91886 0
M  V30 1354 H 132.605 -5.33703 -0.326392 0
M  V30 1355 H 132.948 -3.94629 -1.32565 0
M  V30 1356 H 133.481 -3.96047 0.373065 0
M  V30 1357 H 130.22 -6.05044 2.52193 0
M  V30 1358 H 129.74 -5.94268 0.81274 0
M  V30 1359 H 131.419 -6.34873 1.24681 0
M  V30 1360 N 131.551 -0.354651 -1.53558 0
M  V30 1361 C 132.498 0.496968 -2.25386 0
M  V30 1362 C 133.468 1.0865 -1.25636 0
M  V30 1363 O 134.653 1.12104 -1.54394 0
M  V30 1364 C 131.793 1.63637 -3.03837 0
M  V30 1365 C 130.906 1.07307 -4.18461 0
M  V30 1366 C 130.041 2.18068 -4.84376 0
M  V30 1367 C 129.08 1.59147 -5.91049 0
M  V30 1368 N 128.217 2.63695 -6.50699 0
M  V30 1369 H 133.057 -0.122075 -2.9775 0
M  V30 1370 H 130.594 -0.0720154 -1.46924 0
M  V30 1371 H 132.552 2.30734 -3.47589 0
M  V30 1372 H 131.182 2.22623 -2.33749 0
M  V30 1373 H 130.234 0.292708 -3.79272 0
M  V30 1374 H 131.546 0.602193 -4.95152 0
M  V30 1375 H 130.7 2.93007 -5.31255 0
M  V30 1376 H 129.439 2.68504 -4.07133 0
M  V30 1377 H 128.444 0.827175 -5.43542 0
M  V30 1378 H 129.669 1.09549 -6.70206 0
M  V30 1379 H 127.615 3.13365 -5.76315 0
M  V30 1380 H 127.532 2.21263 -7.22896 0
M  V30 1381 H 128.8 3.3837 -7.02229 0
M  V30 1382 N 133.029 1.57378 -0.0835403 0
M  V30 1383 C 134.445 1.57246 0.273109 0
M  V30 1384 C 134.645 1.09385 1.69225 0
M  V30 1385 O 133.701 0.765051 2.40631 0
M  V30 1386 C 135.014 3.00614 0.0720628 0
M  V30 1387 C 136.562 3.12684 0.1407 0
M  V30 1388 C 137.037 4.57989 -0.0322094 0
M  V30 1389 N 138.528 4.63194 0.0230085 0
M  V30 1390 C 139.263 5.73335 -0.0861941 0
M  V30 1391 N 138.759 6.9235 -0.24958 0
M  V30 1392 N 140.552 5.62093 -0.0282886 0
M  V30 1393 H 132.703 1.86801 -1.0109 0
M  V30 1394 H 134.966 0.861687 -0.395222 0
M  V30 1395 H 134.672 3.39786 -0.907662 0
M  V30 1396 H 134.546 3.68193 0.81936 0
M  V30 1397 H 136.933 2.73391 1.11092 0
M  V30 1398 H 137.014 2.47719 -0.637896 0
M  V30 1399 H 136.658 4.97973 -0.999247 0
M  V30 1400 H 136.588 5.21 0.765937 0
M  V30 1401 H 139.079 3.77613 0.14722 0
M  V30 1402 H 139.392 7.72117 -0.324733 0
M  V30 1403 H 137.737 6.94415 -0.285097 0
M  V30 1404 H 140.928 4.67997 0.0981408 0
M  V30 1405 H 141.101 6.47895 -0.116845 0
M  V30 1406 N 134.507 -0.190092 1.56449 0
M  V30 1407 C 135.437 -1.23816 1.97969 0
M  V30 1408 C 136.418 -1.47201 0.852395 0
M  V30 1409 O 137.603 -1.58854 1.1171 0
M  V30 1410 C 134.733 -2.5813 2.3235 0
M  V30 1411 C 133.687 -2.49348 3.47864 0
M  V30 1412 C 133.013 -3.8798 3.67934 0
M  V30 1413 C 134.313 -2.01424 4.81898 0
M  V30 1414 H 136.007 -0.89311 2.85769 0
M  V30 1415 H 133.553 -0.428177 1.37487 0
M  V30 1416 H 135.506 -3.31637 2.59991 0
M  V30 1417 H 134.23 -2.94386 1.41438 0
M  V30 1418 H 132.889 -1.78297 3.20321 0
M  V30 1419 H 132.537 -4.21597 2.74344 0
M  V30 1420 H 132.237 -3.82978 4.45648 0
M  V30 1421 H 133.761 -4.63101 3.97957 0
M  V30 1422 H 135.175 -2.64693 5.08538 0
M  V30 1423 H 133.572 -2.07413 5.63116 0
M  V30 1424 H 134.642 -0.967677 4.75146 0
M  V30 1425 N 135.985 -1.50799 -0.457987 0
M  V30 1426 C 137.215 -1.65977 -1.23025 0
M  V30 1427 C 137.623 -0.347918 -1.85974 0
M  V30 1428 O 136.966 0.68148 -1.70592 0
M  V30 1429 C 137.028 -2.70309 -2.3701 0
M  V30 1430 C 136.692 -4.135 -1.94594 0
M  V30 1431 C 137.689 -4.98949 -1.46101 0
M  V30 1432 C 135.374 -4.5949 -2.02915 0
M  V30 1433 C 137.368 -6.28442 -1.06489 0
M  V30 1434 C 135.055 -5.88984 -1.62914 0
M  V30 1435 C 136.053 -6.73286 -1.1478 0
M  V30 1436 O 135.741 -8.00362 -0.75339 0
M  V30 1437 H 135.473 -0.56064 -0.377702 0
M  V30 1438 H 138.027 -1.97857 -0.551537 0
M  V30 1439 H 136.257 -2.337 -3.08093 0
M  V30 1440 H 137.946 -2.74574 -2.98938 0
M  V30 1441 H 138.712 -4.6463 -1.39084 0
M  V30 1442 H 134.591 -3.94009 -2.39328 0
M  V30 1443 H 138.135 -6.94194 -0.688488 0
M  V30 1444 H 134.032 -6.22822 -1.69595 0
M  V30 1445 H 134.8 -8.13744 -0.88108 0
M  V30 1446 N 137.463 0.71206 -1.40597 0
M  V30 1447 C 138.709 1.47416 -1.39271 0
M  V30 1448 C 139.042 1.942 0.00388791 0
M  V30 1449 O 138.317 1.68403 0.973179 0
M  V30 1450 C 138.6 2.69774 -2.38525 0
M  V30 1451 C 138.453 2.28861 -3.87224 0
M  V30 1452 C 139.772 3.71939 -2.35264 0
M  V30 1453 H 136.891 0.534713 -0.5072 0
M  V30 1454 H 139.533 0.812375 -1.71757 0
M  V30 1455 H 137.683 3.26238 -2.10953 0
M  V30 1456 H 139.355 1.77852 -4.25636 0
M  V30 1457 H 137.598 1.60824 -4.02887 0
M  V30 1458 H 138.269 3.16584 -4.52193 0
M  V30 1459 H 140.745 3.25113 -2.59694 0
M  V30 1460 H 139.621 4.55186 -3.06753 0
M  V30 1461 H 139.882 4.20484 -1.36549 0
M  V30 1462 N 138.941 1.26152 0.944643 0
M  V30 1463 C 140.218 1.02247 1.66748 0
M  V30 1464 C 140.598 -0.448202 2.06287 0
M  V30 1465 O 139.946 -1.42779 1.78399 0
M  V30 1466 C 140.156 1.96788 2.88228 0
M  V30 1467 C 141.504 2.25201 3.59958 0
M  V30 1468 O 142.528 1.94626 2.98327 0
M  V30 1469 O 141.387 2.77242 4.70956 0
M  V30 1470 H 138.481 0.388517 0.730057 0
M  V30 1471 H 141.027 1.37348 0.99668 0
M  V30 1472 H 139.799 2.96047 2.55875 0
M  V30 1473 H 139.422 1.62145 3.63035 0
M  V30 1474 N 140.419 -1.14872 1.07899 0
M  V30 1475 C 141.366 -2.19791 0.704319 0
M  V30 1476 C 142.336 -1.63238 -0.306987 0
M  V30 1477 O 143.521 -1.8983 -0.192171 0
M  V30 1478 C 140.661 -3.44911 0.114244 0
M  V30 1479 C 139.774 -4.15637 1.1777 0
M  V30 1480 C 138.909 -5.28324 0.552037 0
M  V30 1481 C 137.948 -5.90875 1.59789 0
M  V30 1482 N 137.085 -6.95022 0.994404 0
M  V30 1483 H 141.925 -2.5119 1.60336 0
M  V30 1484 H 139.462 -1.23356 0.801352 0
M  V30 1485 H 141.42 -4.16477 -0.245544 0
M  V30 1486 H 140.05 -3.14011 -0.74813 0
M  V30 1487 H 139.102 -3.42512 1.65499 0
M  V30 1488 H 140.414 -4.5823 1.97046 0
M  V30 1489 H 139.568 -6.06538 0.1402 0
M  V30 1490 H 138.307 -4.86939 -0.272431 0
M  V30 1491 H 137.312 -5.11369 2.01945 0
M  V30 1492 H 138.537 -6.34337 2.42474 0
M  V30 1493 H 136.483 -6.55722 0.190939 0
M  V30 1494 H 136.4 -7.36073 1.72432 0
M  V30 1495 H 137.668 -7.77123 0.608253 0
M  V30 1496 N 141.898 -0.863906 -1.31812 0
M  V30 1497 C 143.123 -0.48527 -2.01643 0
M  V30 1498 C 143.548 0.913058 -1.64453 0
M  V30 1499 O 142.906 1.6014 -0.849985 0
M  V30 1500 C 142.954 -0.642625 -3.54828 0
M  V30 1501 O 142.058 0.320659 -4.11151 0
M  V30 1502 H 141.399 -0.193793 -0.635091 0
M  V30 1503 H 143.929 -1.16565 -1.68148 0
M  V30 1504 H 143.939 -0.533628 -4.04495 0
M  V30 1505 H 142.614 -1.66227 -3.81237 0
M  V30 1506 H 141.191 0.167126 -3.72525 0
M  V30 1507 N 143.376 1.44774 -0.622745 0
M  V30 1508 C 144.306 2.33382 0.0741861 0
M  V30 1509 C 145.287 1.47719 0.843387 0
M  V30 1510 O 146.472 1.76458 0.810934 0
M  V30 1511 C 143.602 3.30663 1.06204 0
M  V30 1512 C 142.556 4.26079 0.405037 0
M  V30 1513 C 141.882 5.13165 1.5022 0
M  V30 1514 C 143.182 5.1781 -0.683414 0
M  V30 1515 H 144.876 2.91905 -0.665713 0
M  V30 1516 H 142.422 1.40363 -0.321587 0
M  V30 1517 H 144.375 3.9153 1.55827 0
M  V30 1518 H 143.099 2.70331 1.83272 0
M  V30 1519 H 141.758 3.66532 -0.0704683 0
M  V30 1520 H 141.406 4.49191 2.26355 0
M  V30 1521 H 141.106 5.77812 1.06803 0
M  V30 1522 H 142.63 5.76902 2.00041 0
M  V30 1523 H 144.044 5.72661 -0.270631 0
M  V30 1524 H 142.441 5.91015 -1.04023 0
M  V30 1525 H 143.511 4.59326 -1.55395 0
M  V30 1526 N 144.854 0.36279 1.53368 0
M  V30 1527 C 145.802 -0.500155 2.27159 0
M  V30 1528 C 146.796 -1.08575 1.3003 0
M  V30 1529 O 148.002 -1.02927 1.47668 0
M  V30 1530 H 144.377 -0.180009 0.730138 0
M  V30 1531 H 146.348 0.14401 2.98052 0
M  V30 1532 C 145.097 -1.62937 3.07159 0
M  V30 1533 H 144.42 -1.18806 3.8174 0
M  V30 1534 H 145.86 -2.20795 3.61975 0
M  V30 1535 C 144.319 -2.57007 2.17829 0
M  V30 1536 O 144.849 -3.59752 1.78721 0
M  V30 1537 N 143.055 -2.26131 1.82518 0
M  V30 1538 H 142.602 -1.42616 2.14519 0
M  V30 1539 H 142.56 -2.89327 1.23034 0
M  V30 1540 N 146.332 -1.57332 0.0918853 0
M  V30 1541 C 147.262 -2.16872 -0.865371 0
M  V30 1542 C 148.243 -1.10118 -1.29646 0
M  V30 1543 O 149.428 -1.38242 -1.36392 0
M  V30 1544 C 146.558 -2.74649 -2.12569 0
M  V30 1545 C 145.512 -3.86747 -1.83333 0
M  V30 1546 C 144.838 -4.31212 -3.16166 0
M  V30 1547 C 146.138 -5.10089 -1.1228 0
M  V30 1548 H 147.832 -2.97114 -0.369307 0
M  V30 1549 H 145.378 -1.42918 -0.176194 0
M  V30 1550 H 147.331 -3.14952 -2.7997 0
M  V30 1551 H 146.055 -1.91657 -2.64452 0
M  V30 1552 H 144.714 -3.46978 -1.18331 0
M  V30 1553 H 144.362 -3.45115 -3.6593 0
M  V30 1554 H 144.062 -5.06788 -2.97388 0
M  V30 1555 H 145.586 -4.74146 -3.84731 0
M  V30 1556 H 147 -5.47582 -1.69785 0
M  V30 1557 H 145.397 -5.91073 -1.03693 0
M  V30 1558 H 146.467 -4.84786 -0.105041 0
M  V30 1559 N 147.81 0.181792 -1.56548 0
M  V30 1560 C 149.035 0.920019 -1.85877 0
M  V30 1561 C 149.46 1.75494 -0.677021 0
M  V30 1562 O 148.818 1.77399 0.374056 0
M  V30 1563 C 148.866 1.78112 -3.13542 0
M  V30 1564 O 147.97 2.88152 -2.95029 0
M  V30 1565 H 147.311 0.258334 -0.611686 0
M  V30 1566 H 149.841 0.183092 -2.03779 0
M  V30 1567 H 149.851 2.18314 -3.44678 0
M  V30 1568 H 148.526 1.16777 -3.99169 0
M  V30 1569 H 147.103 2.51609 -2.75222 0
M  V30 1570 N 149.288 1.51039 0.449983 0
M  V30 1571 C 150.516 1.66869 1.2232 0
M  V30 1572 C 150.931 0.360727 1.85322 0
M  V30 1573 O 150.288 -0.659531 1.70166 0
M  V30 1574 C 150.339 2.77524 2.31652 0
M  V30 1575 O 150.06 4.03252 1.7123 0
M  V30 1576 C 151.561 3.04512 3.2216 0
M  V30 1577 H 148.781 0.560326 0.369155 0
M  V30 1578 H 151.325 1.97385 0.534719 0
M  V30 1579 H 149.48 2.49642 2.96239 0
M  V30 1580 H 149.894 4.64609 2.43389 0
M  V30 1581 H 151.368 3.85551 3.95038 0
M  V30 1582 H 151.845 2.16415 3.8218 0
M  V30 1583 H 152.451 3.34005 2.63288 0
M  V30 1584 N 150.766 -0.704594 1.40972 0
M  V30 1585 C 151.676 -1.84856 1.44448 0
M  V30 1586 C 152.692 -1.70726 0.335961 0
M  V30 1587 O 153.868 -1.92799 0.582276 0
M  V30 1588 C 150.933 -3.20758 1.31587 0
M  V30 1589 C 149.994 -3.47063 2.52677 0
M  V30 1590 C 149.227 -4.76481 2.4042 0
M  V30 1591 O 149.45 -5.52341 1.42391 0
M  V30 1592 O 148.384 -5.03367 3.30007 0
M  V30 1593 H 152.21 -1.8488 2.40942 0
M  V30 1594 H 149.795 -0.85647 1.22413 0
M  V30 1595 H 151.677 -4.01913 1.26665 0
M  V30 1596 H 150.352 -3.21438 0.382049 0
M  V30 1597 H 149.259 -2.65873 2.63177 0
M  V30 1598 H 150.592 -3.5119 3.44858 0
M  V30 1599 N 152.244 -1.26651 -0.937939 0
M  V30 1600 C 153.491 -1.12387 -1.6845 0
M  V30 1601 C 153.819 0.332208 -1.91642 0
M  V30 1602 O 153.074 1.2602 -1.49725 0
M  V30 1603 C 153.373 -1.84168 -3.06295 0
M  V30 1604 C 153.039 -3.34056 -3.02849 0
M  V30 1605 C 151.701 -3.74942 -3.01616 0
M  V30 1606 C 154.053 -4.29741 -2.9491 0
M  V30 1607 C 151.381 -5.09894 -2.90215 0
M  V30 1608 C 153.733 -5.64738 -2.8505 0
M  V30 1609 C 152.397 -6.0493 -2.82162 0
M  V30 1610 H 151.667 -0.411252 -0.616403 0
M  V30 1611 H 154.314 -1.57134 -1.09459 0
M  V30 1612 H 152.619 -1.319 -3.6893 0
M  V30 1613 H 154.316 -1.70569 -3.62915 0
M  V30 1614 H 150.906 -3.01534 -3.0459 0
M  V30 1615 H 155.09 -3.99133 -2.94969 0
M  V30 1616 H 150.346 -5.40194 -2.86358 0
M  V30 1617 H 154.52 -6.38561 -2.77872 0
M  V30 1618 H 152.147 -7.09457 -2.73084 0
M  V30 1619 N 153.722 1.14298 -1.08507 0
M  V30 1620 C 154.971 1.84708 -0.810305 0
M  V30 1621 C 155.284 1.83903 0.666271 0
M  V30 1622 O 156.49 2.50112 1.05624 0
M  V30 1623 C 154.946 3.31572 -1.39957 0
M  V30 1624 C 154.554 3.40791 -2.90801 0
M  V30 1625 C 156.298 4.07087 -1.20334 0
M  V30 1626 C 154.205 4.81872 -3.4286 0
M  V30 1627 H 153.135 0.691985 -0.299454 0
M  V30 1628 H 155.786 1.28841 -1.30661 0
M  V30 1629 H 154.168 3.87183 -0.830976 0
M  V30 1630 H 155.342 2.95225 -3.53806 0
M  V30 1631 H 153.657 2.78732 -3.0935 0
M  V30 1632 H 156.254 5.11225 -1.56693 0
M  V30 1633 H 156.597 4.16054 -0.143237 0
M  V30 1634 H 157.13 3.57779 -1.73893 0
M  V30 1635 H 153.869 4.78094 -4.48449 0
M  V30 1636 H 153.389 5.27972 -2.84615 0
M  V30 1637 H 155.068 5.50765 -3.39509 0
M  V30 1638 N 155.201 0.870884 1.31352 0
M  V30 1639 C 156.426 0.495957 2.01383 0
M  V30 1640 C 156.851 -0.904324 1.64935 0
M  V30 1641 O 156.209 -1.59687 0.858466 0
M  V30 1642 C 156.257 0.661433 3.54482 0
M  V30 1643 O 155.361 -0.298851 4.11316 0
M  V30 1644 H 154.702 0.197158 0.634054 0
M  V30 1645 H 157.232 1.17455 1.67527 0
M  V30 1646 H 157.242 0.555072 4.04207 0
M  V30 1647 H 155.917 1.68246 3.8035 0
M  V30 1648 H 154.494 -0.147368 3.72609 0
M  V30 1649 N 156.679 -1.44442 0.630414 0
M  V30 1650 C 157.904 -2.06927 0.139944 0
M  V30 1651 C 158.329 -1.46795 -1.17613 0
M  V30 1652 O 157.687 -0.569144 -1.72135 0
M  V30 1653 C 157.735 -3.6058 0.0379581 0
M  V30 1654 O 156.839 -3.99937 -1.0062 0
M  V30 1655 H 156.18 -0.658608 0.0844483 0
M  V30 1656 H 158.71 -1.85327 0.866891 0
M  V30 1657 H 158.72 -4.07714 -0.152856 0
M  V30 1658 H 157.395 -4.03728 0.998809 0
M  V30 1659 H 155.972 -3.64436 -0.79001 0
M  V30 1660 N 158.157 -0.370918 -1.53173 0
M  V30 1661 C 159.385 0.217704 -2.05751 0
M  V30 1662 C 159.8 1.42018 -1.24404 0
M  V30 1663 O 159.157 1.80245 -0.286033 0
M  V30 1664 C 159.208 0.605954 -3.56385 0
M  V30 1665 O 158.929 -0.548734 -4.3465 0
M  V30 1666 C 160.43 1.2524 -4.25241 0
M  V30 1667 H 157.65 0.0371659 -0.66997 0
M  V30 1668 H 160.194 -0.530832 -1.9749 0
M  V30 1669 H 158.349 1.3044 -3.6478 0
M  V30 1670 H 158.763 -0.23376 -5.23979 0
M  V30 1671 H 160.237 1.47458 -5.3194 0
M  V30 1672 H 160.714 2.2143 -3.79296 0
M  V30 1673 H 161.32 0.595233 -4.21114 0
M  V30 1674 N 159.635 1.57281 -0.100228 0
M  V30 1675 C 160.582 2.14305 0.856858 0
M  V30 1676 C 161.552 1.06296 1.27634 0
M  V30 1677 O 162.737 1.34109 1.35718 0
M  V30 1678 C 159.877 2.73184 2.10866 0
M  V30 1679 C 158.99 3.95442 1.73925 0
M  V30 1680 C 158.125 4.42468 2.93931 0
M  V30 1681 C 157.164 5.57303 2.5314 0
M  V30 1682 N 156.301 5.99158 3.65997 0
M  V30 1683 H 161.141 2.95772 0.363726 0
M  V30 1684 H 158.678 1.46139 0.167858 0
M  V30 1685 H 160.636 3.05442 2.84185 0
M  V30 1686 H 159.266 1.94437 2.57671 0
M  V30 1687 H 158.318 3.69464 0.905554 0
M  V30 1688 H 159.63 4.78769 1.39935 0
M  V30 1689 H 158.784 4.76537 3.75496 0
M  V30 1690 H 157.523 3.58052 3.31134 0
M  V30 1691 H 156.528 5.22857 1.70003 0
M  V30 1692 H 157.753 6.43471 2.17075 0
M  V30 1693 H 155.699 5.17687 4.02909 0
M  V30 1694 H 155.616 6.77295 3.35869 0
M  V30 1695 H 156.884 6.3786 4.48057 0
M  V30 1696 N 161.113 -0.173488 1.56642 0
M  V30 1697 C 162.529 -0.525174 1.50712 0
M  V30 1698 C 162.729 -1.8476 0.804107 0
M  V30 1699 O 161.785 -2.49869 0.363574 0
M  V30 1700 C 163.098 -0.559937 2.95441 0
M  V30 1701 C 164.646 -0.647288 3.06234 0
M  V30 1702 C 165.121 -0.712963 4.52417 0
M  V30 1703 N 166.612 -0.775911 4.56655 0
M  V30 1704 C 167.347 -0.847264 5.67106 0
M  V30 1705 N 166.843 -0.879585 6.87194 0
M  V30 1706 N 168.636 -0.886117 5.55071 0
M  V30 1707 H 160.787 0.693681 2.00753 0
M  V30 1708 H 163.05 0.249841 0.914485 0
M  V30 1709 H 162.756 0.343049 3.50023 0
M  V30 1710 H 162.63 -1.40718 3.49969 0
M  V30 1711 H 165.017 -1.5407 2.51687 0
M  V30 1712 H 165.098 0.226586 2.54794 0
M  V30 1713 H 164.742 0.176183 5.07594 0
M  V30 1714 H 164.672 -1.60295 5.0161 0
M  V30 1715 H 167.163 -0.759304 3.70193 0
M  V30 1716 H 167.476 -0.935144 7.67121 0
M  V30 1717 H 165.821 -0.847898 6.89808 0
M  V30 1718 H 169.012 -0.857853 4.60172 0
M  V30 1719 H 169.185 -0.938263 6.41171 0
M  V30 1720 N 162.591 -1.51276 -0.441967 0
M  V30 1721 C 164.002 -1.56244 -1.02199 0
M  V30 1722 C 164.353 -0.383149 -1.92422 0
M  V30 1723 O 163.478 0.500613 -2.1053 0
M  V30 1724 C 164.073 -2.83162 -1.86024 0
M  V30 1725 C 162.632 -2.90716 -2.39084 0
M  V30 1726 C 161.779 -2.50858 -1.18175 0
M  V30 1727 H 164.73 -1.5712 -0.223416 0
M  V30 1728 H 164.751 -2.66663 -2.71425 0
M  V30 1729 H 164.263 -3.68974 -1.20331 0
M  V30 1730 H 162.364 -2.09323 -3.08244 0
M  V30 1731 H 162.477 -3.94266 -2.72198 0
M  V30 1732 H 160.841 -2.03951 -1.52565 0
M  V30 1733 H 161.624 -3.3901 -0.541001 0
M  V30 1734 N 164.069 0.697108 -1.41344 0
M  V30 1735 C 165.299 1.48377 -1.43763 0
M  V30 1736 C 165.707 1.89156 -0.0408726 0
M  V30 1737 O 165.05 1.57239 0.949812 0
M  V30 1738 C 165.112 2.7781 -2.2817 0
M  V30 1739 C 164.776 2.59244 -3.76353 0
M  V30 1740 C 165.773 2.25292 -4.68551 0
M  V30 1741 C 163.458 2.74933 -4.20378 0
M  V30 1742 C 165.452 2.07264 -6.02761 0
M  V30 1743 C 163.139 2.56521 -5.54653 0
M  V30 1744 C 164.137 2.22737 -6.4566 0
M  V30 1745 O 163.825 2.04485 -7.77458 0
M  V30 1746 H 163.557 0.463842 -0.491759 0
M  V30 1747 H 166.111 0.865934 -1.86255 0
M  V30 1748 H 164.341 3.41995 -1.8049 0
M  V30 1749 H 166.03 3.39608 -2.22309 0
M  V30 1750 H 166.796 2.12787 -4.35829 0
M  V30 1751 H 162.675 3.00213 -3.49848 0
M  V30 1752 H 166.219 1.80817 -6.73759 0
M  V30 1753 H 162.116 2.68616 -5.86955 0
M  V30 1754 H 162.884 2.1926 -7.88586 0
M  V30 1755 N 165.547 1.27147 0.931209 0
M  V30 1756 C 166.51 1.09615 2.01289 0
M  V30 1757 C 167.51 0.0412581 1.60747 0
M  V30 1758 O 168.7 0.285545 1.71844 0
M  V30 1759 C 165.832 0.669447 3.34262 0
M  V30 1760 H 167.025 2.05662 2.18273 0
M  V30 1761 H 164.578 1.09885 1.11153 0
M  V30 1762 H 165.313 -0.292572 3.22978 0
M  V30 1763 H 165.098 1.43127 3.65044 0
M  V30 1764 H 166.588 0.568921 4.13706 0
M  V30 1765 N 167.025 -1.13721 1.09112 0
M  V30 1766 C 167.972 -2.19031 0.727591 0
M  V30 1767 C 168.942 -1.63555 -0.289656 0
M  V30 1768 O 170.127 -1.90023 -0.172026 0
M  V30 1769 C 167.267 -3.4477 0.15082 0
M  V30 1770 C 166.38 -4.14365 1.22172 0
M  V30 1771 C 165.515 -5.27709 0.608042 0
M  V30 1772 C 164.554 -5.89147 1.66047 0
M  V30 1773 N 163.691 -6.93929 1.06806 0
M  V30 1774 H 168.531 -2.49475 1.62991 0
M  V30 1775 H 166.068 -1.22499 0.81439 0
M  V30 1776 H 168.026 -4.16714 -0.201358 0
M  V30 1777 H 166.656 -3.14787 -0.714783 0
M  V30 1778 H 165.708 -3.40737 1.69122 0
M  V30 1779 H 167.02 -4.56114 2.01895 0
M  V30 1780 H 166.174 -6.06355 0.204523 0
M  V30 1781 H 164.913 -4.872 -0.220769 0
M  V30 1782 H 163.918 -5.09198 2.07357 0
M  V30 1783 H 165.143 -6.31729 2.49189 0
M  V30 1784 H 163.089 -6.55483 0.260476 0
M  V30 1785 H 163.006 -7.34202 1.8023 0
M  V30 1786 H 164.274 -7.76434 0.690644 0
M  V30 1787 N 168.503 -0.877838 -1.30888 0
M  V30 1788 C 169.413 -0.343096 -2.32078 0
M  V30 1789 C 170.429 0.551022 -1.65045 0
M  V30 1790 O 171.605 0.445854 -1.96403 0
M  V30 1791 C 168.67 0.439905 -3.43898 0
M  V30 1792 C 167.731 -0.483111 -4.26573 0
M  V30 1793 C 166.964 0.262616 -5.33053 0
M  V30 1794 O 167.187 1.48967 -5.50604 0
M  V30 1795 O 166.121 -0.383593 -6.00676 0
M  V30 1796 H 169.947 -1.18203 -2.79753 0
M  V30 1797 H 167.532 -0.64145 -1.34929 0
M  V30 1798 H 169.414 0.883504 -4.12034 0
M  V30 1799 H 168.089 1.25526 -2.98371 0
M  V30 1800 H 166.996 -0.975374 -3.61161 0
M  V30 1801 H 168.329 -1.26427 -4.75686 0
M  V30 1802 N 169.982 1.44106 -0.638065 0
M  V30 1803 C 170.912 2.33448 0.0494287 0
M  V30 1804 C 171.893 1.48606 0.827672 0
M  V30 1805 O 173.078 1.77308 0.792173 0
M  V30 1806 C 170.208 3.31771 1.02691 0
M  V30 1807 C 169.162 4.26485 0.359823 0
M  V30 1808 C 168.488 5.14729 1.44769 0
M  V30 1809 C 169.788 5.17056 -0.738296 0
M  V30 1810 H 171.482 2.91183 -0.696636 0
M  V30 1811 H 169.028 1.40014 -0.336456 0
M  V30 1812 H 170.981 3.93161 1.51666 0
M  V30 1813 H 169.705 2.7226 1.80395 0
M  V30 1814 H 168.364 3.66437 -0.10934 0
M  V30 1815 H 168.012 4.51566 2.21578 0
M  V30 1816 H 167.712 5.78913 1.00668 0
M  V30 1817 H 169.236 5.78991 1.93911 0
M  V30 1818 H 170.65 5.72342 -0.331354 0
M  V30 1819 H 169.047 5.89879 -1.10286 0
M  V30 1820 H 170.117 4.57652 -1.60258 0
M  V30 1821 N 171.46 0.379036 1.52974 0
M  V30 1822 C 172.37 -0.468639 2.29872 0
M  V30 1823 C 173.386 -1.08067 1.36373 0
M  V30 1824 O 174.562 -1.08871 1.69438 0
M  V30 1825 C 171.627 -1.58594 3.083 0
M  V30 1826 C 170.688 -1.00007 4.17489 0
M  V30 1827 C 169.921 -2.06413 4.92168 0
M  V30 1828 O 170.144 -3.27751 4.66835 0
M  V30 1829 O 169.078 -1.68717 5.7777 0
M  V30 1830 H 172.904 0.157508 3.03291 0
M  V30 1831 H 170.489 0.143035 1.48714 0
M  V30 1832 H 172.371 -2.23525 3.57232 0
M  V30 1833 H 171.046 -2.19724 2.37703 0
M  V30 1834 H 169.953 -0.314299 3.72777 0
M  V30 1835 H 171.286 -0.433135 4.90291 0
M  V30 1836 N 172.938 -1.57226 0.108567 0
M  V30 1837 C 174.166 -1.99179 -0.559954 0
M  V30 1838 C 174.581 -0.988022 -1.60884 0
M  V30 1839 O 173.938 0.0205512 -1.82488 0
M  V30 1840 C 173.989 -3.41159 -1.19552 0
M  V30 1841 O 173.71 -4.37694 -0.188577 0
M  V30 1842 C 175.211 -3.98188 -1.94837 0
M  V30 1843 H 172.431 -0.654228 -0.149088 0
M  V30 1844 H 174.975 -2.03598 0.19183 0
M  V30 1845 H 173.13 -3.37711 -1.89815 0
M  V30 1846 H 173.544 -5.20469 -0.649014 0
M  V30 1847 H 175.018 -4.99644 -2.34648 0
M  V30 1848 H 175.495 -3.3675 -2.81951 0
M  V30 1849 H 176.101 -4.0515 -1.2936 0
M  V30 1850 N 174.416 0.165178 -1.56732 0
M  V30 1851 C 175.662 0.882112 -1.82611 0
M  V30 1852 C 175.995 1.81628 -0.687378 0
M  V30 1853 O 175.27 1.92009 0.310267 0
M  V30 1854 C 175.553 1.67245 -3.18906 0
M  V30 1855 C 175.406 0.760987 -4.43316 0
M  V30 1856 C 176.725 2.63884 -3.52212 0
M  V30 1857 H 173.844 0.319242 -0.664269 0
M  V30 1858 H 176.486 0.148052 -1.89422 0
M  V30 1859 H 174.636 2.29824 -3.1323 0
M  V30 1860 H 176.308 0.147596 -4.61064 0
M  V30 1861 H 174.551 0.0694102 -4.33744 0
M  V30 1862 H 175.222 1.34962 -5.35247 0
M  V30 1863 H 177.698 2.11429 -3.58381 0
M  V30 1864 H 176.574 3.16245 -4.48643 0
M  V30 1865 H 176.835 3.44377 -2.77231 0
M  V30 1866 N 175.894 1.51508 0.433938 0
M  V30 1867 C 177.171 1.54888 1.19453 0
M  V30 1868 C 177.551 0.315154 2.08734 0
M  V30 1869 O 176.899 -0.699558 2.17528 0
M  V30 1870 C 177.109 2.86467 1.99342 0
M  V30 1871 C 178.457 3.38545 2.56267 0
M  V30 1872 O 179.481 2.88041 2.0955 0
M  V30 1873 O 178.34 4.26675 3.41483 0
M  V30 1874 H 175.434 0.622863 0.544032 0
M  V30 1875 H 177.98 1.63823 0.442732 0
M  V30 1876 H 176.752 3.67718 1.33788 0
M  V30 1877 H 176.375 2.8071 2.8158 0
M  V30 1878 N 177.372 -0.689602 1.41712 0
M  V30 1879 C 178.619 -1.44966 1.4139 0
M  V30 1880 C 178.947 -1.94484 0.025105 0
M  V30 1881 O 178.202 -1.70307 -0.964048 0
M  V30 1882 C 178.501 -2.67298 2.37247 0
M  V30 1883 C 178.167 -2.36405 3.83958 0
M  V30 1884 C 176.829 -2.27691 4.23923 0
M  V30 1885 C 179.181 -2.11043 4.76561 0
M  V30 1886 C 176.509 -1.91719 5.54492 0
M  V30 1887 C 178.861 -1.76578 6.07456 0
M  V30 1888 C 177.525 -1.66363 6.46436 0
M  V30 1889 H 176.795 -0.53047 0.517381 0
M  V30 1890 H 179.442 -0.787655 1.74552 0
M  V30 1891 H 177.747 -3.38461 1.9736 0
M  V30 1892 H 179.444 -3.25452 2.34269 0
M  V30 1893 H 176.034 -2.44085 3.52308 0
M  V30 1894 H 180.218 -2.16717 4.46483 0
M  V30 1895 H 175.474 -1.82367 5.83568 0
M  V30 1896 H 179.648 -1.55974 6.78708 0
M  V30 1897 H 177.275 -1.38258 7.47522 0
M  V30 1898 N 178.85 -1.27639 -0.924453 0
M  V30 1899 C 179.797 -1.10644 -2.0255 0
M  V30 1900 C 180.767 -0.00658438 -1.66099 0
M  V30 1901 O 181.952 -0.16952 -1.90045 0
M  V30 1902 C 179.092 -0.76309 -3.36557 0
M  V30 1903 C 178.205 -1.94091 -3.85944 0
M  V30 1904 C 177.34 -1.53914 -5.08413 0
M  V30 1905 C 176.379 -2.68425 -5.50104 0
M  V30 1906 N 175.516 -2.28815 -6.63768 0
M  V30 1907 H 180.356 -2.04858 -2.16419 0
M  V30 1908 H 177.893 -1.01974 -1.06017 0
M  V30 1909 H 179.851 -0.544822 -4.13627 0
M  V30 1910 H 178.481 0.142102 -3.22487 0
M  V30 1911 H 177.533 -2.27162 -3.05125 0
M  V30 1912 H 178.845 -2.7998 -4.12811 0
M  V30 1913 H 177.999 -1.28231 -5.92994 0
M  V30 1914 H 176.738 -0.651391 -4.8333 0
M  V30 1915 H 175.743 -2.94819 -4.64071 0
M  V30 1916 H 176.968 -3.57826 -5.7718 0
M  V30 1917 H 174.914 -1.42495 -6.40337 0
M  V30 1918 H 174.831 -3.08242 -6.90306 0
M  V30 1919 H 176.099 -2.06387 -7.51681 0
M  V30 1920 N 180.328 1.1314 -1.09713 0
M  V30 1921 C 181.605 1.80762 -0.747302 0
M  V30 1922 C 181.985 1.96663 0.767265 0
M  V30 1923 O 181.333 1.53706 1.69076 0
M  V30 1924 C 181.543 3.15606 -1.48975 0
M  V30 1925 C 182.891 3.90914 -1.65746 0
M  V30 1926 O 183.915 3.25239 -1.45251 0
M  V30 1927 O 182.774 5.08718 -1.9967 0
M  V30 1928 H 179.868 0.782103 -0.268782 0
M  V30 1929 H 182.414 1.20041 -1.19951 0
M  V30 1930 H 181.186 2.99278 -2.52088 0
M  V30 1931 H 180.809 3.84029 -1.02991 0
M  V30 1932 N 181.806 0.884767 1.30421 0
M  V30 1933 C 182.753 0.349642 2.28136 0
M  V30 1934 C 183.723 -0.560061 1.56373 0
M  V30 1935 O 184.908 -0.488524 1.8444 0
M  V30 1936 C 182.048 -0.42999 3.42411 0
M  V30 1937 C 181.161 0.508907 4.28992 0
M  V30 1938 C 180.296 -0.286301 5.30428 0
M  V30 1939 C 179.335 0.648079 6.08659 0
M  V30 1940 N 178.472 -0.111792 7.02011 0
M  V30 1941 H 183.312 1.18807 2.73293 0
M  V30 1942 H 180.849 0.597231 1.3443 0
M  V30 1943 H 182.807 -0.897923 4.07423 0
M  V30 1944 H 181.437 -1.23299 2.98324 0
M  V30 1945 H 180.489 1.09533 3.64289 0
M  V30 1946 H 181.801 1.22475 4.8353 0
M  V30 1947 H 180.955 -0.816098 6.01186 0
M  V30 1948 H 179.694 -1.03536 4.76583 0
M  V30 1949 H 178.699 1.18951 5.36778 0
M  V30 1950 H 179.924 1.39623 6.64592 0
M  V30 1951 H 177.87 -0.843395 6.50556 0
M  V30 1952 H 177.787 0.544429 7.54037 0
M  V30 1953 H 179.055 -0.622339 7.77012 0
M  V30 1954 N 183.284 -1.43765 0.645699 0
M  V30 1955 C 184.214 -2.33471 -0.0370477 0
M  V30 1956 C 185.195 -1.49042 -0.819779 0
M  V30 1957 O 186.38 -1.77726 -0.782758 0
M  V30 1958 C 183.51 -3.32311 -1.0093 0
M  V30 1959 C 182.464 -4.2667 -0.337201 0
M  V30 1960 C 181.79 -5.1549 -1.42037 0
M  V30 1961 C 183.09 -5.16657 0.765706 0
M  V30 1962 H 184.784 -2.90809 0.712069 0
M  V30 1963 H 182.33 -1.39834 0.343876 0
M  V30 1964 H 184.283 -3.9396 -1.49578 0
M  V30 1965 H 183.007 -2.73213 -1.78948 0
M  V30 1966 H 181.666 -3.66374 0.128771 0
M  V30 1967 H 181.314 -4.52735 -2.1918 0
M  V30 1968 H 181.014 -5.79438 -0.975966 0
M  V30 1969 H 182.538 -5.80012 -1.90838 0
M  V30 1970 H 183.952 -5.72158 0.361702 0
M  V30 1971 H 182.349 -5.89286 1.13413 0
M  V30 1972 H 183.419 -4.56796 1.62683 0
M  V30 1973 N 184.763 -0.387143 -1.52771 0
M  V30 1974 C 185.673 0.456442 -2.30117 0
M  V30 1975 C 186.689 1.07342 -1.36944 0
M  V30 1976 O 187.865 1.07971 -1.70013 0
M  V30 1977 C 184.93 1.56957 -3.09136 0
M  V30 1978 C 183.991 0.977916 -4.18014 0
M  V30 1979 C 183.224 2.038 -4.93256 0
M  V30 1980 O 183.447 3.25271 -4.68567 0
M  V30 1981 O 182.381 1.6565 -5.78657 0
M  V30 1982 H 186.207 -0.17359 -3.03203 0
M  V30 1983 H 183.792 -0.150919 -1.48636 0
M  V30 1984 H 185.674 2.21628 -3.58412 0
M  V30 1985 H 184.349 2.18461 -2.38865 0
M  V30 1986 H 183.256 0.294525 -3.72939 0
M  V30 1987 H 184.589 0.407128 -4.90513 0
M  V30 1988 N 186.241 1.57166 -0.116904 0
M  V30 1989 C 187.151 2.18745 0.847812 0
M  V30 1990 C 188.167 1.163 1.29423 0
M  V30 1991 O 189.343 1.48761 1.35765 0
M  V30 1992 C 186.408 2.77307 2.0809 0
M  V30 1993 C 185.469 3.94781 1.68661 0
M  V30 1994 C 184.702 4.50541 2.86091 0
M  V30 1995 O 184.925 4.05202 4.01456 0
M  V30 1996 O 183.859 5.41256 2.63298 0
M  V30 1997 H 187.685 3.01632 0.353778 0
M  V30 1998 H 185.27 1.49005 0.108599 0
M  V30 1999 H 187.152 3.14647 2.80313 0
M  V30 2000 H 185.827 1.97452 2.56504 0
M  V30 2001 H 184.734 3.62214 0.935518 0
M  V30 2002 H 186.067 4.76065 1.24991 0
M  V30 2003 N 187.719 -0.156864 1.56817 0
M  V30 2004 C 188.947 -0.886316 1.86955 0
M  V30 2005 C 189.362 -1.75185 0.703975 0
M  V30 2006 O 188.719 -1.79555 -0.326552 0
M  V30 2007 C 188.77 -1.75117 3.16253 0
M  V30 2008 O 188.491 -0.920537 4.2832 0
M  V30 2009 C 189.992 -2.58905 3.59837 0
M  V30 2010 H 187.212 -0.25678 0.619923 0
M  V30 2011 H 189.756 -0.152615 2.0393 0
M  V30 2012 H 187.911 -2.43805 3.01062 0
M  V30 2013 H 188.325 -1.51337 5.02192 0
M  V30 2014 H 189.799 -3.1518 4.53172 0
M  V30 2015 H 190.276 -3.34472 2.84649 0
M  V30 2016 H 190.882 -1.95526 3.7769 0
M  V30 2017 N 189.197 -1.51736 -0.425897 0
M  V30 2018 C 190.144 -1.73875 -1.51776 0
M  V30 2019 C 191.114 -0.580702 -1.55618 0
M  V30 2020 O 192.299 -0.81641 -1.72451 0
M  V30 2021 C 189.439 -1.88012 -2.89388 0
M  V30 2022 C 188.552 -3.15606 -2.94986 0
M  V30 2023 C 187.687 -3.20271 -4.23793 0
M  V30 2024 C 186.726 -4.42134 -4.23302 0
M  V30 2025 N 185.863 -4.44284 -5.43651 0
M  V30 2026 H 190.703 -2.67071 -1.32201 0
M  V30 2027 H 188.24 -1.32351 -0.642008 0
M  V30 2028 H 190.198 -1.9419 -3.69251 0
M  V30 2029 H 188.828 -0.98213 -3.07496 0
M  V30 2030 H 187.88 -3.18681 -2.07717 0
M  V30 2031 H 189.192 -4.05486 -2.90486 0
M  V30 2032 H 188.346 -3.25428 -5.12036 0
M  V30 2033 H 187.085 -2.28299 -4.30965 0
M  V30 2034 H 186.09 -4.3714 -3.3345 0
M  V30 2035 H 187.315 -5.35382 -4.17783 0
M  V30 2036 H 185.261 -3.55188 -5.51523 0
M  V30 2037 H 185.178 -5.27988 -5.41078 0
M  V30 2038 H 186.446 -4.53649 -6.33895 0
M  V30 2039 N 190.675 0.682077 -1.42076 0
M  V30 2040 C 191.923 1.4393 -1.41876 0
M  V30 2041 C 192.244 1.94971 -0.0335599 0
M  V30 2042 O 191.514 1.72591 0.926773 0
M  V30 2043 H 190.094 0.534085 -0.522267 0
M  V30 2044 H 192.756 0.806427 -1.77434 0
M  V30 2045 H 191.852 2.29588 -2.11414 0
M  V30 2046 N 192.153 1.28127 0.917671 0
M  V30 2047 C 193.085 1.07517 2.02417 0
M  V30 2048 C 194.098 0.0281099 1.62776 0
M  V30 2049 O 195.287 0.270748 1.76435 0
M  V30 2050 C 192.387 0.610957 3.33347 0
M  V30 2051 C 191.56 1.73255 4.01624 0
M  V30 2052 C 190.619 1.26238 5.10833 0
M  V30 2053 O 189.645 1.96389 5.34247 0
M  V30 2054 N 190.847 0.123448 5.80369 0
M  V30 2055 H 193.612 2.02806 2.20658 0
M  V30 2056 H 191.173 1.19827 1.08871 0
M  V30 2057 H 193.165 0.280101 4.0373 0
M  V30 2058 H 191.735 -0.24898 3.11607 0
M  V30 2059 H 190.955 2.23319 3.24842 0
M  V30 2060 H 192.243 2.48503 4.43986 0
M  V30 2061 H 191.641 -0.461847 5.63812 0
M  V30 2062 H 190.198 -0.148158 6.51632 0
M  V30 2063 N 193.631 -1.12557 1.10312 0
M  V30 2064 C 194.88 -1.83395 0.839588 0
M  V30 2065 C 195.193 -1.84939 -0.636929 0
M  V30 2066 O 196.399 -2.51761 -1.01631 0
M  V30 2067 C 194.855 -3.29303 1.45215 0
M  V30 2068 C 194.463 -3.36122 2.96186 0
M  V30 2069 C 196.207 -4.05121 1.26796 0
M  V30 2070 C 194.114 -4.76357 3.50483 0
M  V30 2071 H 193.044 -0.687133 0.310425 0
M  V30 2072 H 195.695 -1.26746 1.32694 0
M  V30 2073 H 194.077 -3.85812 0.892469 0
M  V30 2074 H 195.251 -2.89559 3.58458 0
M  V30 2075 H 193.566 -2.73776 3.13745 0
M  V30 2076 H 196.163 -5.08668 1.64806 0
M  V30 2077 H 196.506 -4.15773 0.209409 0
M  V30 2078 H 197.039 -3.54967 1.79563 0
M  V30 2079 H 193.778 -4.70899 4.55998 0
M  V30 2080 H 193.298 -5.23377 2.92978 0
M  V30 2081 H 194.977 -5.45294 3.48228 0
M  V30 2082 N 195.109 -0.891671 -1.2995 0
M  V30 2083 C 196.057 -0.353066 -2.29905 0
M  V30 2084 C 197.051 0.543509 -1.60444 0
M  V30 2085 O 198.257 0.4272 -1.74857 0
M  V30 2086 H 194.632 -0.095531 -0.745907 0
M  V30 2087 H 196.603 -1.20961 -2.72784 0
M  V30 2088 C 195.352 0.411475 -3.45257 0
M  V30 2089 H 194.675 -0.269182 -3.98893 0
M  V30 2090 H 196.115 0.753328 -4.17254 0
M  V30 2091 C 194.574 1.6111 -2.9588 0
M  V30 2092 O 195.104 2.71045 -2.96475 0
M  V30 2093 N 193.31 1.45054 -2.51809 0
M  V30 2094 H 192.857 0.556175 -2.51524 0
M  V30 2095 H 192.815 2.25453 -2.1913 0
M  V30 2096 N 196.587 1.43421 -0.653314 0
M  V30 2097 C 197.535 2.32546 0.0501531 0
M  V30 2098 C 198.529 1.48617 0.812985 0
M  V30 2099 O 199.735 1.64825 0.723375 0
M  V30 2100 H 196.11 0.751185 0.0350032 0
M  V30 2101 H 198.081 2.89602 -0.719261 0
M  V30 2102 C 196.83 3.32925 1.00279 0
M  V30 2103 H 196.153 3.97532 0.425236 0
M  V30 2104 H 197.593 3.9792 1.46409 0
M  V30 2105 C 196.052 2.63532 2.09886 0
M  V30 2106 O 196.582 2.45092 3.18265 0
M  V30 2107 N 194.788 2.22905 1.86445 0
M  V30 2108 H 194.335 2.38103 0.98309 0
M  V30 2109 H 194.293 1.76805 2.59976 0
M  V30 2110 N 198.065 0.39524 1.52563 0
M  V30 2111 C 199.29 -0.187456 2.06551 0
M  V30 2112 C 199.715 -1.39249 1.26457 0
M  V30 2113 O 199.073 -1.78947 0.291151 0
M  V30 2114 C 199.121 -0.529985 3.56684 0
M  V30 2115 O 198.225 -1.62307 3.79118 0
M  V30 2116 H 197.566 -0.0202537 0.663691 0
M  V30 2117 H 200.096 0.564426 1.96661 0
M  V30 2118 H 200.106 -0.792598 4.00227 0
M  V30 2119 H 198.781 0.350987 4.14416 0
M  V30 2120 H 197.358 -1.3537 3.47461 0
M  V30 2121 N 199.544 -1.57102 0.125237 0
M  V30 2122 C 200.793 -1.94582 -0.531095 0
M  V30 2123 C 201.106 -1.01126 -1.6743 0
M  V30 2124 O 202.312 -1.28097 -2.39381 0
M  V30 2125 C 200.768 -3.45839 -0.996164 0
M  V30 2126 C 200.376 -4.47842 0.118926 0
M  V30 2127 C 202.12 -3.92227 -1.62352 0
M  V30 2128 C 200.027 -5.90284 -0.363192 0
M  V30 2129 H 198.957 -0.726391 -0.20217 0
M  V30 2130 H 201.608 -1.82339 0.206092 0
M  V30 2131 H 199.99 -3.53338 -1.78796 0
M  V30 2132 H 201.164 -4.52018 0.895358 0
M  V30 2133 H 199.479 -4.11243 0.653324 0
M  V30 2134 H 202.076 -4.96069 -1.99548 0
M  V30 2135 H 202.419 -3.32552 -2.50429 0
M  V30 2136 H 202.952 -3.87554 -0.897019 0
M  V30 2137 H 199.691 -6.53728 0.481679 0
M  V30 2138 H 199.211 -5.89515 -1.10597 0
M  V30 2139 H 200.89 -6.41752 -0.822377 0
M  V30 2140 N 201.022 0.148545 -1.56898 0
M  V30 2141 C 201.969 1.18345 -1.98149 0
M  V30 2142 C 202.939 1.42772 -0.848848 0
M  V30 2143 O 204.124 1.55132 -1.11079 0
M  V30 2144 C 201.264 2.51231 -2.36594 0
M  V30 2145 C 200.377 2.33991 -3.63142 0
M  V30 2146 C 199.512 3.59902 -3.90697 0
M  V30 2147 C 198.551 3.37692 -5.1052 0
M  V30 2148 N 197.688 4.5573 -5.34092 0
M  V30 2149 H 202.528 0.82467 -2.86362 0
M  V30 2150 H 200.065 0.395756 -1.41676 0
M  V30 2151 H 202.023 3.28713 -2.56912 0
M  V30 2152 H 200.653 2.85059 -1.51463 0
M  V30 2153 H 199.705 1.47572 -3.50609 0
M  V30 2154 H 201.017 2.13539 -4.5078 0
M  V30 2155 H 200.171 4.45813 -4.11505 0
M  V30 2156 H 198.91 3.83357 -3.01477 0
M  V30 2157 H 197.915 2.5017 -4.89587 0
M  V30 2158 H 199.14 3.15637 -6.0129 0
M  V30 2159 H 197.086 4.79361 -4.47827 0
M  V30 2160 H 197.003 4.38274 -6.15996 0
M  V30 2161 H 198.271 5.42858 -5.59397 0
M  V30 2162 N 202.5 1.5196 0.417844 0
M  V30 2163 C 203.777 1.56146 1.17803 0
M  V30 2164 C 204.157 0.337275 2.08388 0
M  V30 2165 O 203.505 -0.676447 2.18258 0
M  V30 2166 C 203.715 2.88566 1.96293 0
M  V30 2167 C 205.063 3.41244 2.52662 0
M  V30 2168 O 206.087 2.90247 2.06483 0
M  V30 2169 O 204.946 4.30273 3.36938 0
M  V30 2170 H 202.04 0.628598 0.537395 0
M  V30 2171 H 204.586 1.64283 0.425331 0
M  V30 2172 H 203.358 3.69116 1.2988 0
M  V30 2173 H 202.981 2.83681 2.78587 0
M  V30 2174 N 203.978 -0.674533 1.42435 0
M  V30 2175 C 204.908 -1.80009 1.48724 0
M  V30 2176 C 205.889 -1.6659 0.343793 0
M  V30 2177 O 207.074 -1.86007 0.558137 0
M  V30 2178 C 204.204 -3.18306 1.38919 0
M  V30 2179 C 203.158 -3.46461 2.51294 0
M  V30 2180 C 202.484 -4.84335 2.26547 0
M  V30 2181 C 203.784 -3.43328 3.93603 0
M  V30 2182 H 205.478 -1.75004 2.42928 0
M  V30 2183 H 203.024 -0.840533 1.16923 0
M  V30 2184 H 204.977 -3.9678 1.41927 0
M  V30 2185 H 203.701 -3.2399 0.412094 0
M  V30 2186 H 202.36 -2.70348 2.47604 0
M  V30 2187 H 202.008 -4.86669 1.2713 0
M  V30 2188 H 201.708 -5.04136 3.01861 0
M  V30 2189 H 203.232 -5.65094 2.31304 0
M  V30 2190 H 204.646 -4.11772 3.98894 0
M  V30 2191 H 203.043 -3.74664 4.68771 0
M  V30 2192 H 204.113 -2.41897 4.20255 0
M  V30 2193 N 205.456 -1.28612 -0.910864 0
M  V30 2194 C 206.684 -1.18792 -1.69399 0
M  V30 2195 C 207.099 0.253039 -1.87097 0
M  V30 2196 O 206.456 1.17071 -1.40003 0
M  V30 2197 C 206.507 -1.88511 -3.08457 0
M  V30 2198 O 206.228 -3.26979 -2.91576 0
M  V30 2199 C 207.729 -1.85029 -4.02839 0
M  V30 2200 H 204.949 -0.412233 -0.529438 0
M  V30 2201 H 207.493 -1.69788 -1.13984 0
M  V30 2202 H 205.648 -1.41379 -3.60681 0
M  V30 2203 H 206.062 -3.61936 -3.79608 0
M  V30 2204 H 207.536 -2.38395 -4.97867 0
M  V30 2205 H 208.013 -0.823303 -4.31414 0
M  V30 2206 H 208.619 -2.31853 -3.56545 0
M  V30 2207 N 206.934 1.1197 -1.10907 0
M  V30 2208 C 208.211 1.79959 -0.766432 0
M  V30 2209 C 208.591 1.97466 0.746363 0
M  V30 2210 O 207.939 1.55491 1.67436 0
M  V30 2211 C 208.149 3.14009 -1.52314 0
M  V30 2212 C 209.497 3.89134 -1.69883 0
M  V30 2213 O 210.521 3.2368 -1.48692 0
M  V30 2214 O 209.38 5.06572 -2.05054 0
M  V30 2215 H 206.474 0.779208 -0.277062 0
M  V30 2216 H 209.02 1.18762 -1.21217 0
M  V30 2217 H 207.792 2.96587 -2.55249 0
M  V30 2218 H 207.415 3.82915 -1.07059 0
M  V30 2219 N 208.412 0.89855 1.29475 0
M  V30 2220 C 209.66 0.522847 1.9522 0
M  V30 2221 C 209.981 -0.93371 1.71192 0
M  V30 2222 O 209.251 -1.65823 1.04305 0
M  V30 2223 H 207.831 0.190366 0.722336 0
M  V30 2224 H 210.493 1.14459 1.5775 0
M  V30 2225 H 209.589 0.704476 3.04045 0
M  V30 2226 N 209.89 -1.43072 0.660911 0
M  V30 2227 C 210.84 -2.27948 -0.04847 0
M  V30 2228 C 211.824 -1.40325 -0.787246 0
M  V30 2229 O 213.016 -1.63893 -0.668446 0
M  V30 2230 C 210.145 -3.28143 -1.00881 0
M  V30 2231 C 209.231 -4.23252 -0.268108 0
M  V30 2232 N 209.622 -5.00656 0.719528 0
M  V30 2233 C 207.92 -4.43092 -0.508493 0
M  V30 2234 C 208.621 -5.70019 1.15988 0
M  V30 2235 N 207.597 -5.41364 0.492584 0
M  V30 2236 H 211.399 -2.85213 0.709279 0
M  V30 2237 H 208.913 -1.54869 0.488822 0
M  V30 2238 H 210.91 -3.87736 -1.53188 0
M  V30 2239 H 209.57 -2.7244 -1.76654 0
M  V30 2240 H 210.581 -5.06115 1.09855 0
M  V30 2241 H 207.258 -3.98449 -1.24679 0
M  V30 2242 H 208.648 -6.4214 1.97751 0
M  V30 2243 N 211.368 -0.403325 -1.52352 0
M  V30 2244 C 212.615 0.174347 -2.01748 0
M  V30 2245 C 212.943 1.45636 -1.2892 0
M  V30 2246 O 212.198 1.9193 -0.382258 0
M  V30 2247 C 212.497 0.474665 -3.54234 0
M  V30 2248 C 212.163 -0.717458 -4.45155 0
M  V30 2249 C 210.825 -1.04447 -4.69728 0
M  V30 2250 C 213.177 -1.51432 -4.98716 0
M  V30 2251 C 210.505 -2.16963 -5.45109 0
M  V30 2252 C 212.857 -2.6302 -5.75329 0
M  V30 2253 C 211.521 -2.96213 -5.98175 0
M  V30 2254 H 210.791 0.0637981 -0.738248 0
M  V30 2255 H 213.438 -0.543553 -1.83624 0
M  V30 2256 H 211.743 1.27406 -3.70506 0
M  V30 2257 H 213.44 0.934496 -3.89959 0
M  V30 2258 H 210.03 -0.452596 -4.26204 0
M  V30 2259 H 214.214 -1.27491 -4.79645 0
M  V30 2260 H 209.47 -2.43034 -5.61021 0
M  V30 2261 H 213.644 -3.25158 -6.15829 0
M  V30 2262 H 211.271 -3.83516 -6.56368 0
M  V30 2263 N 212.846 1.57033 -0.133567 0
M  V30 2264 C 213.756 2.19632 0.824564 0
M  V30 2265 C 214.772 1.17666 1.28182 0
M  V30 2266 O 215.948 1.50193 1.3418 0
M  V30 2267 C 213.013 2.79499 2.05137 0
M  V30 2268 C 212.074 3.96548 1.64464 0
M  V30 2269 C 211.307 4.5355 2.81297 0
M  V30 2270 O 211.53 4.09438 3.97136 0
M  V30 2271 O 210.464 5.44018 2.57542 0
M  V30 2272 H 214.29 3.01991 0.321766 0
M  V30 2273 H 211.875 1.49112 0.0927889 0
M  V30 2274 H 213.757 3.17602 2.7696 0
M  V30 2275 H 212.432 2.00162 2.54395 0
M  V30 2276 H 211.339 3.63186 0.897048 0
M  V30 2277 H 212.672 4.77364 1.19934 0
M  V30 2278 N 214.325 -0.140222 1.56975 0
M  V30 2279 C 215.273 -1.19207 1.99731 0
M  V30 2280 C 216.267 -1.44089 0.890777 0
M  V30 2281 O 217.473 -1.44301 1.07597 0
M  V30 2282 H 213.848 -0.40142 0.635898 0
M  V30 2283 H 215.819 -0.804813 2.87342 0
M  V30 2284 C 214.568 -2.51617 2.39967 0
M  V30 2285 H 213.891 -2.33303 3.24669 0
M  V30 2286 H 215.331 -3.23827 2.73701 0
M  V30 2287 C 213.79 -3.12654 1.25496 0
M  V30 2288 O 214.32 -3.97786 0.559371 0
M  V30 2289 N 212.526 -2.72206 1.01746 0
M  V30 2290 H 212.073 -2.03074 1.58489 0
M  V30 2291 H 212.031 -3.13377 0.253461 0
M  V30 2292 N 215.803 -1.52179 -0.40978 0
M  V30 2293 C 217.052 -1.65434 -1.15388 0
M  V30 2294 C 217.365 -0.390056 -1.91671 0
M  V30 2295 O 218.571 -0.402399 -2.68501 0
M  V30 2296 C 217.027 -2.92279 -2.10003 0
M  V30 2297 C 216.635 -4.25813 -1.39239 0
M  V30 2298 C 218.379 -3.14897 -2.84675 0
M  V30 2299 C 216.286 -5.43782 -2.32498 0
M  V30 2300 H 215.216 -0.616267 -0.434432 0
M  V30 2301 H 217.867 -1.78666 -0.418401 0
M  V30 2302 H 216.249 -2.72744 -2.871 0
M  V30 2303 H 217.423 -4.55828 -0.675099 0
M  V30 2304 H 215.738 -4.09292 -0.766097 0
M  V30 2305 H 218.335 -4.0021 -3.54593 0
M  V30 2306 H 218.678 -2.29103 -3.47588 0
M  V30 2307 H 219.211 -3.34901 -2.14677 0
M  V30 2308 H 215.95 -6.3192 -1.74233 0
M  V30 2309 H 215.47 -5.18106 -3.02201 0
M  V30 2310 H 217.149 -5.76834 -2.93038 0
M  V30 2311 N 217.281 0.66697 -1.42791 0
M  V30 2312 C 218.211 1.79218 -1.49677 0
M  V30 2313 C 219.192 1.66405 -0.352623 0
M  V30 2314 O 220.377 1.85708 -0.567993 0
M  V30 2315 C 217.507 3.17565 -1.40605 0
M  V30 2316 C 216.461 3.45124 -2.53127 0
M  V30 2317 C 215.787 4.83127 -2.29112 0
M  V30 2318 C 217.087 3.41236 -3.95418 0
M  V30 2319 H 218.781 1.73713 -2.43853 0
M  V30 2320 H 216.327 0.83432 -1.17367 0
M  V30 2321 H 218.28 3.96022 -1.44029 0
M  V30 2322 H 217.004 3.23767 -0.429271 0
M  V30 2323 H 215.663 2.69031 -2.49034 0
M  V30 2324 H 215.311 4.85988 -1.29709 0
M  V30 2325 H 215.011 5.02528 -3.04531 0
M  V30 2326 H 216.535 5.63859 -2.34297 0
M  V30 2327 H 217.949 4.09651 -4.01073 0
M  V30 2328 H 216.346 3.72173 -4.70752 0
M  V30 2329 H 217.416 2.39665 -4.21532 0
M  V30 2330 N 218.759 1.29093 0.90403 0
M  V30 2331 C 219.722 1.1386 1.98919 0
M  V30 2332 C 220.722 0.0753457 1.60623 0
M  V30 2333 O 221.912 0.321931 1.71199 0
M  V30 2334 C 219.044 0.740198 3.32767 0
M  V30 2335 H 220.237 2.10246 2.13861 0
M  V30 2336 H 217.79 1.12218 1.08797 0
M  V30 2337 H 218.525 -0.223997 3.23525 0
M  V30 2338 H 218.31 1.50838 3.61926 0
M  V30 2339 H 219.8 0.656546 4.12407 0
M  V30 2340 N 220.237 -1.11381 1.11499 0
M  V30 2341 C 221.514 -1.7955 0.775965 0
M  V30 2342 C 221.894 -1.97859 -0.73588 0
M  V30 2343 O 221.242 -1.56376 -1.66609 0
M  V30 2344 C 221.452 -3.13196 1.53977 0
M  V30 2345 C 222.8 -3.88227 1.71944 0
M  V30 2346 O 223.824 -3.22887 1.50407 0
M  V30 2347 O 222.683 -5.05477 2.07738 0
M  V30 2348 H 219.777 -0.777728 0.28119 0
M  V30 2349 H 222.323 -1.18118 1.21845 0
M  V30 2350 H 221.095 -2.95229 2.56818 0
M  V30 2351 H 220.718 -3.82342 1.09088 0
M  V30 2352 N 221.715 -0.905404 -1.28997 0
M  V30 2353 C 222.663 -0.377431 -2.29517 0
M  V30 2354 C 223.657 0.526461 -1.61012 0
M  V30 2355 O 224.863 0.40863 -1.753 0
M  V30 2356 H 221.238 -0.103437 -0.744852 0
M  V30 2357 H 223.209 -1.23848 -2.71485 0
M  V30 2358 C 221.958 0.374833 -3.45674 0
M  V30 2359 H 221.281 -0.311474 -3.98585 0
M  V30 2360 H 222.721 0.70903 -4.1803 0
M  V30 2361 C 221.18 1.57963 -2.97572 0
M  V30 2362 O 221.71 2.67886 -2.99333 0
M  V30 2363 N 219.916 1.42375 -2.53333 0
M  V30 2364 H 219.463 0.529466 -2.521 0
M  V30 2365 H 219.421 2.23117 -2.21509 0
M  V30 2366 N 223.193 1.4272 -0.668489 0
M  V30 2367 C 224.418 2.06484 -0.194758 0
M  V30 2368 C 224.843 1.49862 1.13679 0
M  V30 2369 O 224.201 0.614582 1.70565 0
M  V30 2370 C 224.249 3.60353 -0.133546 0
M  V30 2371 O 223.353 4.02464 0.899806 0
M  V30 2372 H 222.694 0.656137 -0.10188 0
M  V30 2373 H 225.224 1.82964 -0.915722 0
M  V30 2374 H 225.234 4.07976 0.0447041 0
M  V30 2375 H 223.909 4.00938 -1.1055 0
M  V30 2376 H 222.486 3.66402 0.693109 0
M  V30 2377 N 224.671 0.411399 1.52136 0
M  V30 2378 C 225.917 -0.163888 2.02137 0
M  V30 2379 C 226.25 -1.44597 1.29636 0
M  V30 2380 O 225.525 -1.90272 0.403353 0
M  V30 2381 C 225.808 -0.40927 3.57767 0
M  V30 2382 C 225.661 0.889643 4.40914 0
M  V30 2383 C 226.98 -1.19042 4.23694 0
M  V30 2384 H 224.099 -0.0580896 0.734707 0
M  V30 2385 H 226.741 0.54531 1.82007 0
M  V30 2386 H 224.891 -1.0134 3.7505 0
M  V30 2387 H 226.563 1.52575 4.35337 0
M  V30 2388 H 224.806 1.50011 4.07037 0
M  V30 2389 H 225.477 0.672314 5.4789 0
M  V30 2390 H 227.953 -0.678942 4.10524 0
M  V30 2391 H 226.829 -1.33086 5.32522 0
M  V30 2392 H 227.09 -2.21166 3.82803 0
M  V30 2393 N 226.149 -1.5696 0.141893 0
M  V30 2394 C 227.097 -2.17784 -0.816874 0
M  V30 2395 C 228.091 -1.1334 -1.25899 0
M  V30 2396 O 229.297 -1.316 -1.22806 0
M  V30 2397 H 225.672 -0.697278 -0.281615 0
M  V30 2398 H 227.643 -2.97087 -0.279621 0
M  V30 2399 C 226.392 -2.80983 -2.04802 0
M  V30 2400 H 225.715 -3.61062 -1.7168 0
M  V30 2401 H 227.155 -3.2705 -2.69841 0
M  V30 2402 C 225.614 -1.79228 -2.8527 0
M  V30 2403 O 226.144 -1.25962 -3.8144 0
M  V30 2404 N 224.35 -1.48647 -2.49704 0
M  V30 2405 H 223.897 -1.92155 -1.71564 0
M  V30 2406 H 223.855 -0.808115 -3.03837 0
M  V30 2407 N 227.627 0.131896 -1.57047 0
M  V30 2408 C 228.904 0.871495 -1.75112 0
M  V30 2409 C 229.284 1.9866 -0.713949 0
M  V30 2410 O 228.632 2.26965 0.264447 0
M  V30 2411 C 228.842 1.40007 -3.19686 0
M  V30 2412 C 230.19 1.85752 -3.81813 0
M  V30 2413 O 231.214 1.49715 -3.23209 0
M  V30 2414 O 230.073 2.5226 -4.84796 0
M  V30 2415 H 227.167 0.412919 -0.716538 0
M  V30 2416 H 229.713 0.116641 -1.69299 0
M  V30 2417 H 228.485 0.599404 -3.86682 0
M  V30 2418 H 228.108 2.218 -3.29986 0
M  V30 2419 N 229.106 1.52395 0.401703 0
M  V30 2420 C 230.038 1.72505 1.50912 0
M  V30 2421 C 231.051 0.605468 1.51122 0
M  V30 2422 O 232.24 0.880828 1.55254 0
M  V30 2423 C 229.34 1.75711 2.89791 0
M  V30 2424 C 228.513 3.04824 3.1369 0
M  V30 2425 C 227.572 2.99743 4.32482 0
M  V30 2426 O 226.598 3.73635 4.29402 0
M  V30 2427 N 227.8 2.18047 5.37992 0
M  V30 2428 H 230.565 2.68049 1.34052 0
M  V30 2429 H 228.126 1.50724 0.591084 0
M  V30 2430 H 230.118 1.69834 3.6734 0
M  V30 2431 H 228.688 0.876092 3.00072 0
M  V30 2432 H 227.908 3.2429 2.24119 0
M  V30 2433 H 229.196 3.90221 3.26504 0
M  V30 2434 H 228.594 1.57456 5.43345 0
M  V30 2435 H 227.151 2.18021 6.14256 0
M  V30 2436 N 230.584 -0.659388 1.43143 0
M  V30 2437 C 231.812 -1.44723 1.47861 0
M  V30 2438 C 232.227 -1.88563 0.0945886 0
M  V30 2439 O 231.584 -1.59108 -0.893915 0
M  V30 2440 C 231.635 -2.68627 2.41913 0
M  V30 2441 O 231.356 -2.26623 3.74932 0
M  V30 2442 C 232.857 -3.62045 2.55809 0
M  V30 2443 H 230.077 -0.444801 0.502387 0
M  V30 2444 H 232.621 -0.808916 1.87821 0
M  V30 2445 H 230.776 -3.28613 2.05164 0
M  V30 2446 H 231.19 -3.06745 4.2545 0
M  V30 2447 H 232.664 -4.45666 3.25708 0
M  V30 2448 H 233.141 -4.08981 1.60099 0
M  V30 2449 H 233.747 -3.07944 2.93344 0
M  V30 2450 N 232.062 -1.29571 -0.897171 0
M  V30 2451 C 233.009 -1.14916 -2.00158 0
M  V30 2452 C 233.979 -0.0418149 -1.66047 0
M  V30 2453 O 235.164 -0.209793 -1.89643 0
M  V30 2454 C 232.304 -0.834307 -3.34863 0
M  V30 2455 C 231.417 -2.02234 -3.8174 0
M  V30 2456 C 230.552 -1.64664 -5.05034 0
M  V30 2457 C 229.591 -2.80033 -5.44286 0
M  V30 2458 N 228.728 -2.42843 -6.58765 0
M  V30 2459 H 233.568 -2.09403 -2.12025 0
M  V30 2460 H 231.105 -1.042 -1.0383 0
M  V30 2461 H 233.063 -0.632436 -4.12379 0
M  V30 2462 H 231.693 0.0736656 -3.22716 0
M  V30 2463 H 230.745 -2.33583 -3.00238 0
M  V30 2464 H 232.057 -2.88673 -4.06779 0
M  V30 2465 H 231.211 -1.4078 -5.9014 0
M  V30 2466 H 229.95 -0.753766 -4.8184 0
M  V30 2467 H 228.955 -3.04596 -4.57713 0
M  V30 2468 H 230.18 -3.69989 -5.6946 0
M  V30 2469 H 228.126 -1.56046 -6.3717 0
M  V30 2470 H 228.043 -3.22815 -6.83613 0
M  V30 2471 H 229.311 -2.22285 -7.47134 0
M  V30 2472 N 233.54 1.10788 -1.12088 0
M  V30 2473 C 234.789 1.82036 -0.868659 0
M  V30 2474 C 235.102 1.85929 0.607426 0
M  V30 2475 O 236.308 2.53346 0.97613 0
M  V30 2476 C 234.764 3.26951 -1.50435 0
M  V30 2477 C 234.372 3.31367 -3.01496 0
M  V30 2478 C 236.116 4.03053 -1.33225 0
M  V30 2479 C 234.023 4.7072 -3.58017 0
M  V30 2480 H 232.953 0.682108 -0.321318 0
M  V30 2481 H 235.604 1.24618 -1.34694 0
M  V30 2482 H 233.986 3.84343 -0.953735 0
M  V30 2483 H 235.16 2.83819 -3.6302 0
M  V30 2484 H 233.475 2.6875 -3.18061 0
M  V30 2485 H 236.072 5.05981 -1.72878 0
M  V30 2486 H 236.415 4.15387 -0.275529 0
M  V30 2487 H 236.948 3.52066 -1.85188 0
M  V30 2488 H 233.687 4.63585 -4.63432 0
M  V30 2489 H 233.207 5.1865 -3.01268 0
M  V30 2490 H 234.886 5.39685 -3.56859 0
M  V30 2491 N 235.018 0.912232 1.28515 0
M  V30 2492 C 235.948 0.416403 2.29757 0
M  V30 2493 C 236.929 -0.515194 1.6211 0
M  V30 2494 O 238.114 -0.423253 1.89532 0
M  V30 2495 C 235.244 -0.34572 3.45575 0
M  V30 2496 C 234.198 0.496599 4.25109 0
M  V30 2497 C 233.524 -0.393771 5.33248 0
M  V30 2498 C 234.824 1.75307 4.92001 0
M  V30 2499 H 236.518 1.26249 2.7148 0
M  V30 2500 H 234.064 0.608515 1.30511 0
M  V30 2501 H 236.017 -0.703422 4.15488 0
M  V30 2502 H 234.741 -1.2257 3.02728 0
M  V30 2503 H 233.4 0.8368 3.56922 0
M  V30 2504 H 233.048 -1.27225 4.86644 0
M  V30 2505 H 232.748 0.166209 5.87365 0
M  V30 2506 H 234.272 -0.747389 6.06009 0
M  V30 2507 H 235.686 1.46437 5.54283 0
M  V30 2508 H 234.083 2.25534 5.56106 0
M  V30 2509 H 235.153 2.48176 4.16577 0
M  V30 2510 N 236.496 -1.42363 0.676048 0
M  V30 2511 C 237.742 -2.0182 0.199125 0
M  V30 2512 C 238.075 -1.53339 -1.19168 0
M  V30 2513 O 237.35 -0.736124 -1.80032 0
M  V30 2514 C 237.633 -3.59331 0.235144 0
M  V30 2515 C 237.486 -4.17989 1.66149 0
M  V30 2516 C 238.805 -4.3813 -0.41595 0
M  V30 2517 H 235.924 -0.733293 0.0738311 0
M  V30 2518 H 238.566 -1.69368 0.86107 0
M  V30 2519 H 236.716 -3.87109 -0.328487 0
M  V30 2520 H 238.388 -4.0116 2.27747 0
M  V30 2521 H 236.631 -3.7377 2.20178 0
M  V30 2522 H 237.302 -5.27126 1.63837 0
M  V30 2523 H 239.778 -4.16051 0.0638529 0
M  V30 2524 H 238.654 -5.47717 -0.360115 0
M  V30 2525 H 238.915 -4.16101 -1.49373 0
M  V30 2526 N 237.974 -0.419461 -1.51915 0
M  V30 2527 C 239.22 0.153166 -2.02221 0
M  V30 2528 C 239.553 1.43907 -1.30401 0
M  V30 2529 O 238.828 1.90055 -0.413438 0
M  V30 2530 C 239.111 0.390291 -3.57979 0
M  V30 2531 C 238.964 -0.913014 -4.40436 0
M  V30 2532 C 240.283 1.16794 -4.2432 0
M  V30 2533 H 237.402 0.0541924 -0.735005 0
M  V30 2534 H 240.044 -0.554955 -1.81715 0
M  V30 2535 H 238.194 0.993491 -3.75582 0
M  V30 2536 H 239.866 -1.54882 -4.34522 0
M  V30 2537 H 238.109 -1.52168 -4.06236 0
M  V30 2538 H 238.78 -0.701361 -5.47526 0
M  V30 2539 H 241.256 0.657161 -4.10878 0
M  V30 2540 H 240.132 1.3026 -5.3322 0
M  V30 2541 H 240.393 2.19132 -3.83971 0
M  V30 2542 N 239.452 1.56882 -0.150215 0
M  V30 2543 C 240.4 2.18214 0.805313 0
M  V30 2544 C 241.394 1.14006 1.25296 0
M  V30 2545 O 242.6 1.3225 1.22107 0
M  V30 2546 H 238.975 0.698762 0.277913 0
M  V30 2547 H 240.946 2.97231 0.263862 0
M  V30 2548 C 239.695 2.82065 2.03309 0
M  V30 2549 H 239.018 3.61968 1.69763 0
M  V30 2550 H 240.458 3.28477 2.68103 0
M  V30 2551 C 238.917 1.80739 2.84315 0
M  V30 2552 O 239.447 1.27983 3.80767 0
M  V30 2553 N 237.653 1.4997 2.48913 0
M  V30 2554 H 237.2 1.93062 1.70542 0
M  V30 2555 H 237.158 0.824217 3.03404 0
M  V30 2556 N 240.93 -0.123565 1.57115 0
M  V30 2557 C 241.893 -1.13583 1.99076 0
M  V30 2558 C 242.893 -1.34564 0.880296 0
M  V30 2559 O 244.083 -1.31158 1.14644 0
M  V30 2560 C 241.215 -2.49128 2.32698 0
M  V30 2561 H 242.408 -0.775287 2.89706 0
M  V30 2562 H 239.961 -0.36771 1.51913 0
M  V30 2563 H 240.696 -2.90111 1.44934 0
M  V30 2564 H 240.481 -2.35255 3.13684 0
M  V30 2565 H 241.971 -3.2199 2.65918 0
M  V30 2566 N 242.408 -1.52605 -0.393616 0
M  V30 2567 C 243.371 -1.76415 -1.46323 0
M  V30 2568 C 244.371 -0.634126 -1.47768 0
M  V30 2569 O 245.561 -0.902142 -1.4902 0
M  V30 2570 C 242.693 -1.8607 -2.85641 0
M  V30 2571 H 243.886 -2.71916 -1.26498 0
M  V30 2572 H 241.439 -1.43257 -0.625073 0
M  V30 2573 H 242.174 -0.925378 -3.10817 0
M  V30 2574 H 241.959 -2.68235 -2.85993 0
M  V30 2575 H 243.449 -2.06179 -3.63153 0
M  V30 2576 N 243.887 0.651787 -1.4349 0
M  V30 2577 C 245.117 1.43728 -1.48411 0
M  V30 2578 C 245.525 1.8893 -0.10103 0
M  V30 2579 O 244.868 1.60182 0.899307 0
M  V30 2580 C 244.93 2.70411 -2.36893 0
M  V30 2581 C 244.594 2.4714 -3.8441 0
M  V30 2582 C 245.591 2.10271 -4.75481 0
M  V30 2583 C 243.276 2.6142 -4.28912 0
M  V30 2584 C 245.27 1.87982 -6.0905 0
M  V30 2585 C 242.957 2.38746 -5.62533 0
M  V30 2586 C 243.955 2.02083 -6.5242 0
M  V30 2587 O 243.643 1.79647 -7.8357 0
M  V30 2588 H 243.375 0.447962 -0.506267 0
M  V30 2589 H 245.929 0.80624 -1.88915 0
M  V30 2590 H 244.159 3.36079 -1.91278 0
M  V30 2591 H 245.848 3.32364 -2.33 0
M  V30 2592 H 246.614 1.98814 -4.42378 0
M  V30 2593 H 242.493 2.88931 -3.59222 0
M  V30 2594 H 246.037 1.5929 -6.7917 0
M  V30 2595 H 241.934 2.49806 -5.95203 0
M  V30 2596 H 242.702 1.9406 -7.95162 0
M  V30 2597 N 245.365 1.30045 0.890287 0
M  V30 2598 C 246.612 1.18561 1.64163 0
M  V30 2599 C 246.94 -0.260852 1.92743 0
M  V30 2600 O 246.195 -1.20376 1.54299 0
M  V30 2601 C 246.494 1.95409 2.99249 0
M  V30 2602 C 246.16 3.45066 2.90242 0
M  V30 2603 C 244.822 3.85878 2.87492 0
M  V30 2604 C 247.174 4.4039 2.78758 0
M  V30 2605 C 244.502 5.20314 2.7109 0
M  V30 2606 C 246.854 5.74928 2.63894 0
M  V30 2607 C 245.518 6.14986 2.59516 0
M  V30 2608 H 244.788 0.433846 0.600715 0
M  V30 2609 H 247.435 1.61088 1.03552 0
M  V30 2610 H 245.74 1.45501 3.63781 0
M  V30 2611 H 247.437 1.8392 3.56334 0
M  V30 2612 H 244.027 3.12631 2.93189 0
M  V30 2613 H 248.211 4.09806 2.79952 0
M  V30 2614 H 243.467 5.50449 2.66112 0
M  V30 2615 H 247.641 6.48434 2.53981 0
M  V30 2616 H 245.268 7.19104 2.46565 0
M  V30 2617 N 246.843 -1.10192 1.12674 0
M  V30 2618 C 248.089 -1.82475 0.884915 0
M  V30 2619 C 248.422 -1.85093 -0.58773 0
M  V30 2620 O 247.697 -1.3134 -1.43457 0
M  V30 2621 C 247.98 -3.29018 1.46353 0
M  V30 2622 C 247.833 -3.34718 3.00473 0
M  V30 2623 C 249.152 -4.25473 1.12519 0
M  V30 2624 H 246.271 -0.662492 0.322915 0
M  V30 2625 H 248.913 -1.2913 1.39375 0
M  V30 2626 H 247.063 -3.74576 1.03077 0
M  V30 2627 H 248.735 -2.97622 3.52447 0
M  V30 2628 H 246.978 -2.74541 3.35872 0
M  V30 2629 H 247.649 -4.37918 3.36053 0
M  V30 2630 H 250.125 -3.88161 1.499 0
M  V30 2631 H 249.001 -5.26365 1.55663 0
M  V30 2632 H 249.262 -4.42084 0.0377407 0
M  V30 2633 N 248.321 -0.919034 -1.28029 0
M  V30 2634 C 249.569 -0.553838 -1.94363 0
M  V30 2635 C 249.89 0.906357 -1.72656 0
M  V30 2636 O 249.16 1.64143 -1.0693 0
M  V30 2637 H 247.74 -0.201834 -0.719216 0
M  V30 2638 H 250.402 -1.16954 -1.55909 0
M  V30 2639 H 249.498 -0.752758 -3.02886 0
M  V30 2640 N 249.799 1.42003 -0.683588 0
M  V30 2641 C 250.746 2.30798 -0.0107309 0
M  V30 2642 C 251.716 1.4645 0.783688 0
M  V30 2643 O 252.901 1.75263 0.754156 0
M  V30 2644 C 250.041 3.3238 0.928306 0
M  V30 2645 C 249.154 4.31814 0.126776 0
M  V30 2646 C 248.289 5.20468 1.06236 0
M  V30 2647 C 247.328 6.11577 0.253035 0
M  V30 2648 N 246.465 6.92754 1.14179 0
M  V30 2649 H 251.305 2.8778 -0.773727 0
M  V30 2650 H 248.842 1.41745 -0.393283 0
M  V30 2651 H 250.8 3.89813 1.48666 0
M  V30 2652 H 249.43 2.76976 1.65783 0
M  V30 2653 H 248.482 3.76427 -0.54833 0
M  V30 2654 H 249.794 4.96276 -0.501192 0
M  V30 2655 H 248.948 5.82677 1.69035 0
M  V30 2656 H 247.687 4.56204 1.7242 0
M  V30 2657 H 246.692 5.48428 -0.388108 0
M  V30 2658 H 247.917 6.77892 -0.404839 0
M  V30 2659 H 245.863 6.3111 1.78987 0
M  V30 2660 H 245.78 7.53855 0.569111 0
M  V30 2661 H 247.048 7.59441 1.75697 0
M  V30 2662 N 251.277 0.427512 1.51691 0
M  V30 2663 C 252.523 -0.134744 2.02953 0
M  V30 2664 C 252.878 -1.41235 1.30654 0
M  V30 2665 O 252.171 -1.87168 0.409713 0
M  V30 2666 C 252.365 -0.418249 3.54944 0
M  V30 2667 C 252.194 0.830327 4.41968 0
M  V30 2668 C 250.964 1.36097 4.86627 0
M  V30 2669 C 253.162 1.7137 4.84909 0
M  V30 2670 N 251.144 2.56311 5.57833 0
M  V30 2671 C 252.515 2.76195 5.55082 0
M  V30 2672 C 254.57 1.72928 4.66905 0
M  V30 2673 C 253.273 3.82512 6.09161 0
M  V30 2674 C 255.299 2.78175 5.21894 0
M  V30 2675 C 254.661 3.8172 5.92004 0
M  V30 2676 H 250.76 -0.0103958 0.781931 0
M  V30 2677 H 253.344 0.585981 1.85673 0
M  V30 2678 H 251.515 -1.10801 3.7226 0
M  V30 2679 H 253.247 -0.970999 3.92879 0
M  V30 2680 H 250.002 0.916311 4.64651 0
M  V30 2681 H 250.426 3.17242 5.98069 0
M  V30 2682 H 255.068 0.942081 4.12171 0
M  V30 2683 H 252.786 4.62077 6.62956 0
M  V30 2684 H 256.372 2.8031 5.09821 0
M  V30 2685 H 255.252 4.61821 6.33791 0
M  V30 2686 N 252.755 -1.56801 0.158532 0
M  V30 2687 C 253.688 -2.13148 -0.815065 0
M  V30 2688 C 254.666 -1.0581 -1.23462 0
M  V30 2689 O 255.85 -1.3371 -1.32868 0
M  V30 2690 C 252.977 -2.6606 -2.09594 0
M  V30 2691 C 252.023 -3.85651 -1.82141 0
M  V30 2692 S 252.856 -5.26041 -1.00207 0
M  V30 2693 C 254.012 -5.8235 -2.29389 0
M  V30 2694 H 254.245 -2.95396 -0.335937 0
M  V30 2695 H 251.778 -1.54299 -0.0559391 0
M  V30 2696 H 253.736 -2.97195 -2.8317 0
M  V30 2697 H 252.397 -1.83921 -2.54621 0
M  V30 2698 H 251.59 -4.20958 -2.77147 0
M  V30 2699 H 251.192 -3.55338 -1.16667 0
M  V30 2700 H 253.484 -5.94485 -3.24952 0
M  V30 2701 H 254.427 -6.79688 -1.9857 0
M  V30 2702 H 254.835 -5.10675 -2.40564 0
M  V30 2703 N 254.233 0.115231 -1.57178 0
M  V30 2704 C 255.18 1.14115 -2.00615 0
M  V30 2705 C 256.15 1.40939 -0.878941 0
M  V30 2706 O 257.335 1.52741 -1.14345 0
M  V30 2707 C 254.475 2.46156 -2.4187 0
M  V30 2708 C 253.588 2.26236 -3.68024 0
M  V30 2709 C 252.723 3.51534 -3.98243 0
M  V30 2710 C 251.762 3.26787 -5.17568 0
M  V30 2711 N 250.899 4.44298 -5.43639 0
M  V30 2712 H 255.739 0.763743 -2.88047 0
M  V30 2713 H 253.276 0.365615 -1.42484 0
M  V30 2714 H 255.234 3.23189 -2.63827 0
M  V30 2715 H 253.864 2.81783 -1.57475 0
M  V30 2716 H 252.916 1.40102 -3.5366 0
M  V30 2717 H 254.228 2.03929 -4.55208 0
M  V30 2718 H 253.382 4.36984 -4.20868 0
M  V30 2719 H 252.121 3.76876 -3.09541 0
M  V30 2720 H 251.126 2.39729 -4.94783 0
M  V30 2721 H 252.351 3.02812 -6.0785 0
M  V30 2722 H 250.297 4.69754 -4.57895 0
M  V30 2723 H 250.214 4.25109 -6.25154 0
M  V30 2724 H 251.482 5.3087 -5.70786 0
M  V30 2725 N 255.711 1.52812 0.385517 0
M  V30 2726 C 256.658 1.77838 1.47113 0
M  V30 2727 C 257.628 0.621757 1.54024 0
M  V30 2728 O 258.813 0.861846 1.70226 0
M  V30 2729 C 255.953 1.95618 2.84302 0
M  V30 2730 C 255.066 3.23316 2.86515 0
M  V30 2731 C 254.201 3.31394 4.15152 0
M  V30 2732 C 253.24 4.53201 4.1143 0
M  V30 2733 N 252.377 4.58542 5.3168 0
M  V30 2734 H 257.217 2.70482 1.25073 0
M  V30 2735 H 254.754 1.34006 0.606692 0
M  V30 2736 H 256.712 2.03912 3.63972 0
M  V30 2737 H 255.342 1.06331 3.04784 0
M  V30 2738 H 254.394 3.24076 1.99195 0
M  V30 2739 H 255.706 4.13045 2.79634 0
M  V30 2740 H 254.86 3.3889 5.03228 0
M  V30 2741 H 253.599 2.39645 4.24761 0
M  V30 2742 H 252.604 4.45827 3.21742 0
M  V30 2743 H 253.829 5.46271 4.03442 0
M  V30 2744 H 251.775 3.69686 5.41912 0
M  V30 2745 H 251.692 5.42148 5.26889 0
M  V30 2746 H 252.96 4.70296 6.21644 0
M  V30 2747 N 257.189 -0.644168 1.43834 0
M  V30 2748 C 258.436 -1.40395 1.4593 0
M  V30 2749 C 258.764 -1.94305 0.0869658 0
M  V30 2750 O 258.019 -1.73288 -0.909378 0
M  V30 2751 C 258.318 -2.59615 2.45631 0
M  V30 2752 C 257.984 -2.2407 3.91284 0
M  V30 2753 C 256.646 -2.14089 4.30952 0
M  V30 2754 C 258.998 -1.95775 4.83034 0
M  V30 2755 C 256.326 -1.73981 5.6031 0
M  V30 2756 C 258.678 -1.57163 6.12766 0
M  V30 2757 C 257.342 -1.45713 6.51402 0
M  V30 2758 H 256.612 -0.513741 0.533995 0
M  V30 2759 H 259.259 -0.731724 1.76969 0
M  V30 2760 H 257.564 -3.32011 2.08028 0
M  V30 2761 H 259.261 -3.17834 2.44504 0
M  V30 2762 H 255.851 -2.32753 3.59895 0
M  V30 2763 H 260.035 -2.02403 4.53152 0
M  V30 2764 H 255.291 -1.63709 5.89075 0
M  V30 2765 H 259.465 -1.34303 6.83327 0
M  V30 2766 H 257.092 -1.14406 7.51542 0
M  V30 2767 N 258.668 -1.30515 -0.883378 0
M  V30 2768 C 259.893 -1.22487 -1.67367 0
M  V30 2769 C 260.318 0.208767 -1.86938 0
M  V30 2770 O 259.676 1.15015 -1.40148 0
M  V30 2771 C 259.724 -1.96041 -3.02655 0
M  V30 2772 O 258.828 -1.28859 -3.91751 0
M  V30 2773 H 258.169 -0.423573 -0.511353 0
M  V30 2774 H 260.699 -1.72362 -1.10239 0
M  V30 2775 H 260.709 -2.05124 -3.52687 0
M  V30 2776 H 259.384 -3.00307 -2.8773 0
M  V30 2777 H 257.961 -1.28141 -3.50192 0
M  V30 2778 N 260.146 1.09593 -1.13257 0
M  V30 2779 C 261.056 2.19739 -0.821691 0
M  V30 2780 C 262.072 1.72926 0.19302 0
M  V30 2781 O 263.248 2.01385 0.0244895 0
M  V30 2782 C 260.313 3.45482 -0.290333 0
M  V30 2783 C 259.374 4.06985 -1.36607 0
M  V30 2784 C 258.607 5.26726 -0.859975 0
M  V30 2785 O 258.83 5.69594 0.303082 0
M  V30 2786 O 257.764 5.7931 -1.63351 0
M  V30 2787 H 261.59 2.48781 -1.74189 0
M  V30 2788 H 259.175 1.18496 -0.909894 0
M  V30 2789 H 261.057 4.214 0.000674022 0
M  V30 2790 H 259.732 3.18047 0.602306 0
M  V30 2791 H 258.639 3.32712 -1.71037 0
M  V30 2792 H 259.972 4.38643 -2.23279 0
M  V30 2793 N 261.624 0.925811 1.2754 0
M  V30 2794 C 262.849 0.580924 1.99098 0
M  V30 2795 C 263.274 -0.833555 1.68622 0
M  V30 2796 O 262.632 -1.55903 0.925422 0
M  V30 2797 C 262.68 0.811186 3.51358 0
M  V30 2798 O 261.784 -0.124129 4.12213 0
M  V30 2799 H 261.125 0.223873 0.625122 0
M  V30 2800 H 263.655 1.24455 1.62395 0
M  V30 2801 H 263.665 0.72601 4.01489 0
M  V30 2802 H 262.34 1.84227 3.72872 0
M  V30 2803 H 260.917 0.0108006 3.72898 0
M  V30 2804 N 263.102 -1.41638 0.69111 0
M  V30 2805 C 264.012 -2.34588 0.0233487 0
M  V30 2806 C 265.028 -1.55987 -0.770984 0
M  V30 2807 O 266.204 -1.88486 -0.709569 0
M  V30 2808 C 263.269 -3.34684 -0.904851 0
M  V30 2809 C 262.33 -4.29176 -0.103225 0
M  V30 2810 C 261.563 -5.2449 -0.987216 0
M  V30 2811 O 261.786 -5.2514 -2.22674 0
M  V30 2812 O 260.72 -6.00295 -0.439281 0
M  V30 2813 H 264.546 -2.93261 0.789416 0
M  V30 2814 H 262.131 -1.42417 0.45142 0
M  V30 2815 H 264.013 -3.96133 -1.43724 0
M  V30 2816 H 262.688 -2.78461 -1.65049 0
M  V30 2817 H 261.595 -3.71089 0.473655 0
M  V30 2818 H 262.928 -4.88484 0.60365 0
M  V30 2819 N 264.58 -0.43555 -1.51462 0
M  V30 2820 C 265.808 0.130242 -2.0649 0
M  V30 2821 C 266.223 1.36614 -1.30315 0
M  V30 2822 O 265.58 1.78869 -0.362223 0
M  V30 2823 C 265.631 0.454253 -3.58635 0
M  V30 2824 O 265.352 -0.73259 -4.31931 0
M  V30 2825 C 266.853 1.07091 -4.3017 0
M  V30 2826 H 264.073 0.00871669 -0.670943 0
M  V30 2827 H 266.617 -0.614117 -1.95061 0
M  V30 2828 H 264.772 1.14851 -3.69984 0
M  V30 2829 H 265.186 -0.455787 -5.22516 0
M  V30 2830 H 266.66 1.24764 -5.37716 0
M  V30 2831 H 267.137 2.05144 -3.88346 0
M  V30 2832 H 267.743 0.416089 -4.2326 0
M  V30 2833 N 266.058 1.56714 -0.166846 0
M  V30 2834 C 267.005 2.17746 0.765193 0
M  V30 2835 C 267.975 1.11614 1.23011 0
M  V30 2836 O 269.16 1.39745 1.29908 0
M  V30 2837 C 266.3 2.81882 1.9909 0
M  V30 2838 C 265.413 4.02462 1.56997 0
M  V30 2839 C 264.548 4.54537 2.749 0
M  V30 2840 C 263.587 5.67538 2.29275 0
M  V30 2841 N 262.724 6.14142 3.40255 0
M  V30 2842 H 267.564 2.97048 0.237952 0
M  V30 2843 H 265.101 1.4672 0.105725 0
M  V30 2844 H 267.059 3.17221 2.70974 0
M  V30 2845 H 265.689 2.05191 2.49192 0
M  V30 2846 H 264.741 3.72973 0.748037 0
M  V30 2847 H 266.053 4.84273 1.19503 0
M  V30 2848 H 265.207 4.92035 3.54946 0
M  V30 2849 H 263.946 3.71774 3.1565 0
M  V30 2850 H 262.951 5.29597 1.47674 0
M  V30 2851 H 264.176 6.52099 1.89588 0
M  V30 2852 H 262.122 5.3431 3.8059 0
M  V30 2853 H 262.039 6.9093 3.06841 0
M  V30 2854 H 263.307 6.56289 4.206 0
M  V30 2855 N 267.536 -0.106894 1.57237 0
M  V30 2856 C 268.446 -1.14911 2.0453 0
M  V30 2857 C 269.462 -1.44592 0.96795 0
M  V30 2858 O 270.638 -1.55468 1.2803 0
M  V30 2859 C 267.703 -2.45272 2.45036 0
M  V30 2860 C 266.764 -2.22879 3.66911 0
M  V30 2861 C 265.997 -3.47024 4.05475 0
M  V30 2862 O 266.22 -4.54804 3.44252 0
M  V30 2863 O 265.154 -3.3731 4.98504 0
M  V30 2864 H 268.98 -0.777461 2.9358 0
M  V30 2865 H 266.565 -0.318563 1.45964 0
M  V30 2866 H 268.447 -3.22055 2.71769 0
M  V30 2867 H 267.122 -2.81886 1.59129 0
M  V30 2868 H 266.029 -1.43915 3.45311 0
M  V30 2869 H 267.362 -1.91163 4.53561 0
M  V30 2870 N 269.014 -1.53014 -0.377408 0
M  V30 2871 C 270.254 -1.70318 -1.1301 0
M  V30 2872 C 270.618 -0.439538 -1.86901 0
M  V30 2873 O 271.819 -0.489095 -2.64313 0
M  V30 2874 C 270.09 -2.91125 -2.07319 0
M  V30 2875 S 271.649 -3.29075 -2.90268 0
M  V30 2876 H 268.467 -0.599426 -0.382374 0
M  V30 2877 H 271.069 -1.91089 -0.412933 0
M  V30 2878 H 269.773 -3.81303 -1.51777 0
M  V30 2879 H 269.304 -2.7272 -2.83526 0
M  V30 2880 H 271.319 -2.80165 -4.09539 0
M  V30 2881 N 270.492 0.636531 -1.44174 0
M  V30 2882 C 271.903 1.21806 -1.41493 0
M  V30 2883 C 272.254 1.95785 -0.1275 0
M  V30 2884 O 271.379 2.02147 0.772376 0
M  V30 2885 C 271.974 2.21551 -2.56321 0
M  V30 2886 C 270.533 2.75143 -2.56853 0
M  V30 2887 C 269.68 1.50052 -2.33195 0
M  V30 2888 H 272.631 0.427531 -1.52833 0
M  V30 2889 H 272.652 3.0405 -2.28765 0
M  V30 2890 H 272.164 1.67679 -3.50008 0
M  V30 2891 H 270.265 3.33033 -1.67093 0
M  V30 2892 H 270.378 3.2155 -3.55165 0
M  V30 2893 H 268.742 1.77993 -1.82183 0
M  V30 2894 H 269.525 0.980903 -3.28988 0
M  V30 2895 N 271.97 1.30982 0.876444 0
M  V30 2896 C 273.217 1.20296 1.62896 0
M  V30 2897 C 273.545 -0.240395 1.93009 0
M  V30 2898 O 272.8 -1.18733 1.55567 0
M  V30 2899 C 273.099 1.98572 2.9716 0
M  V30 2900 C 272.765 3.48125 2.86566 0
M  V30 2901 C 271.427 3.88905 2.83383 0
M  V30 2902 C 273.779 4.43322 2.74071 0
M  V30 2903 C 271.107 5.2316 2.65556 0
M  V30 2904 C 273.459 5.77695 2.57781 0
M  V30 2905 C 272.123 6.17704 2.52979 0
M  V30 2906 H 271.393 0.440193 0.59608 0
M  V30 2907 H 274.04 1.62177 1.01837 0
M  V30 2908 H 272.345 1.49352 3.62217 0
M  V30 2909 H 274.042 1.8769 3.54364 0
M  V30 2910 H 270.632 3.15723 2.89856 0
M  V30 2911 H 274.816 4.12752 2.75589 0
M  V30 2912 H 270.072 5.53241 2.60259 0
M  V30 2913 H 274.246 6.51091 2.47089 0
M  V30 2914 H 271.873 7.21678 2.38924 0
M  V30 2915 N 273.449 -1.08991 1.13837 0
M  V30 2916 C 274.865 -1.33312 0.877506 0
M  V30 2917 C 275.065 -1.95587 -0.48456 0
M  V30 2918 O 274.121 -2.20509 -1.23013 0
M  V30 2919 C 275.434 -2.24045 2.0056 0
M  V30 2920 C 276.982 -2.37542 2.03821 0
M  V30 2921 C 277.457 -3.31614 3.15905 0
M  V30 2922 N 278.948 -3.39189 3.15445 0
M  V30 2923 C 279.683 -4.11992 3.98811 0
M  V30 2924 N 279.179 -4.87553 4.92203 0
M  V30 2925 N 280.972 -4.07762 3.86894 0
M  V30 2926 H 273.123 -0.669456 2.01574 0
M  V30 2927 H 275.386 -0.357482 0.878015 0
M  V30 2928 H 275.092 -1.85521 2.98789 0
M  V30 2929 H 274.966 -3.24466 1.92359 0
M  V30 2930 H 277.353 -2.75327 1.06202 0
M  V30 2931 H 277.434 -1.36884 2.16093 0
M  V30 2932 H 277.078 -2.94551 4.13766 0
M  V30 2933 H 277.008 -4.32186 3.0087 0
M  V30 2934 H 279.499 -2.85314 2.47799 0
M  V30 2935 H 279.812 -5.40549 5.52292 0
M  V30 2936 H 278.157 -4.86627 4.96205 0
M  V30 2937 H 281.348 -3.47833 3.13257 0
M  V30 2938 H 281.521 -4.64238 4.52092 0
M  V30 2939 N 274.927 -0.932562 -1.27047 0
M  V30 2940 C 276.173 -0.576412 -1.94436 0
M  V30 2941 C 276.506 0.880891 -1.73072 0
M  V30 2942 O 275.781 1.62905 -1.06264 0
M  V30 2943 C 276.064 -0.909031 -3.48437 0
M  V30 2944 C 275.917 -2.42044 -3.79123 0
M  V30 2945 C 277.236 -0.418341 -4.38107 0
M  V30 2946 H 274.355 -0.210888 -0.706184 0
M  V30 2947 H 276.997 -1.16522 -1.50075 0
M  V30 2948 H 275.147 -0.407947 -3.86352 0
M  V30 2949 H 276.819 -2.99359 -3.50973 0
M  V30 2950 H 275.062 -2.86758 -3.25503 0
M  V30 2951 H 275.733 -2.6037 -4.86736 0
M  V30 2952 H 278.209 -0.847856 -4.0737 0
M  V30 2953 H 277.085 -0.679981 -5.44672 0
M  V30 2954 H 277.346 0.681642 -4.36814 0
M  V30 2955 N 276.405 1.4127 -0.698611 0
M  V30 2956 C 277.353 2.32588 -0.023855 0
M  V30 2957 C 278.347 1.51128 0.765292 0
M  V30 2958 O 279.553 1.67043 0.670571 0
M  V30 2959 H 275.928 0.751918 0.0110871 0
M  V30 2960 H 277.899 2.87167 -0.811031 0
M  V30 2961 C 276.648 3.35947 0.896369 0
M  V30 2962 H 275.971 3.98684 0.298548 0
M  V30 2963 H 277.411 4.02376 1.33676 0
M  V30 2964 C 275.87 2.70076 2.01396 0
M  V30 2965 O 276.4 2.55093 3.10307 0
M  V30 2966 N 274.606 2.28724 1.79259 0
M  V30 2967 H 274.153 2.4111 0.906841 0
M  V30 2968 H 274.111 1.84986 2.54219 0
M  V30 2969 N 277.883 0.443576 1.51229 0
M  V30 2970 C 278.83 -0.364716 2.279 0
M  V30 2971 C 279.8 -1.0114 1.31757 0
M  V30 2972 O 280.985 -1.02912 1.60667 0
M  V30 2973 C 278.125 -1.45644 3.12861 0
M  V30 2974 C 277.238 -0.827269 4.24005 0
M  V30 2975 C 276.373 -1.89456 4.96266 0
M  V30 2976 C 275.412 -1.24416 5.99322 0
M  V30 2977 N 274.549 -2.25309 6.64966 0
M  V30 2978 H 279.389 0.295464 2.96532 0
M  V30 2979 H 276.926 0.157554 1.46254 0
M  V30 2980 H 278.884 -2.10076 3.6045 0
M  V30 2981 H 277.514 -2.08616 2.46331 0
M  V30 2982 H 276.566 -0.0710839 3.80334 0
M  V30 2983 H 277.878 -0.312481 4.9782 0
M  V30 2984 H 277.032 -2.61535 5.47434 0
M  V30 2985 H 275.771 -2.4431 4.22095 0
M  V30 2986 H 274.776 -0.508868 5.4744 0
M  V30 2987 H 276.001 -0.702882 6.75453 0
M  V30 2988 H 273.947 -2.79231 5.93604 0
M  V30 2989 H 273.864 -1.78739 7.34567 0
M  V30 2990 H 275.132 -2.96853 7.20763 0
M  V30 2991 N 279.361 -1.56624 0.175154 0
M  V30 2992 C 280.589 -2.01374 -0.474971 0
M  V30 2993 C 281.004 -1.05537 -1.56548 0
M  V30 2994 O 280.361 -0.0568668 -1.82411 0
M  V30 2995 C 280.412 -3.45923 -1.04975 0
M  V30 2996 O 280.133 -4.381 -0.00276605 0
M  V30 2997 C 281.634 -4.06093 -1.77773 0
M  V30 2998 H 278.854 -0.659962 -0.121206 0
M  V30 2999 H 281.398 -2.02601 0.27801 0
M  V30 3000 H 279.553 -3.45458 -1.75321 0
M  V30 3001 H 279.967 -5.22753 -0.427681 0
M  V30 3002 H 281.441 -5.09147 -2.13245 0
M  V30 3003 H 281.918 -3.48405 -2.67414 0
M  V30 3004 H 282.524 -4.10272 -1.12059 0
M  V30 3005 N 280.839 0.0985539 -1.57292 0
M  V30 3006 C 282.116 0.834155 -1.76921 0
M  V30 3007 C 282.496 1.97101 -0.755928 0
M  V30 3008 O 281.844 2.27474 0.216245 0
M  V30 3009 C 282.054 1.33194 -3.22584 0
M  V30 3010 C 283.402 1.77611 -3.85668 0
M  V30 3011 O 284.426 1.42825 -3.26312 0
M  V30 3012 O 283.285 2.4192 -4.90038 0
M  V30 3013 H 280.379 0.397628 -0.725135 0
M  V30 3014 H 282.925 0.0807044 -1.69508 0
M  V30 3015 H 281.697 0.517248 -3.87866 0
M  V30 3016 H 281.32 2.1475 -3.34616 0
M  V30 3017 N 282.317 1.53212 0.369288 0
M  V30 3018 C 283.545 1.73119 1.13303 0
M  V30 3019 C 283.96 0.458455 1.83149 0
M  V30 3020 O 283.317 -0.568403 1.73423 0
M  V30 3021 C 283.368 2.89413 2.16616 0
M  V30 3022 O 283.089 4.11761 1.49614 0
M  V30 3023 C 284.59 3.21161 3.05566 0
M  V30 3024 H 281.81 0.579107 0.338934 0
M  V30 3025 H 284.354 1.99942 0.429338 0
M  V30 3026 H 282.509 2.64994 2.82589 0
M  V30 3027 H 282.923 4.76858 2.18419 0
M  V30 3028 H 284.397 4.05949 3.74045 0
M  V30 3029 H 284.874 2.36369 3.70171 0
M  V30 3030 H 285.48 3.47492 2.45213 0
M  V30 3031 N 283.795 -0.628877 1.44509 0
M  V30 3032 C 284.742 -1.74074 1.51549 0
M  V30 3033 C 285.712 -1.62084 0.363021 0
M  V30 3034 O 286.897 -1.81975 0.573567 0
M  V30 3035 C 284.037 -3.12328 1.46784 0
M  V30 3036 C 283.15 -3.35277 2.72422 0
M  V30 3037 C 282.285 -4.63515 2.59475 0
M  V30 3038 C 281.324 -4.7965 3.80266 0
M  V30 3039 N 280.461 -5.99168 3.65981 0
M  V30 3040 H 285.301 -1.67392 2.46544 0
M  V30 3041 H 282.838 -0.816527 1.22357 0
M  V30 3042 H 284.796 -3.92286 1.42012 0
M  V30 3043 H 283.426 -3.18018 0.553544 0
M  V30 3044 H 282.478 -2.49242 2.87372 0
M  V30 3045 H 283.79 -3.43078 3.62076 0
M  V30 3046 H 282.944 -5.51638 2.52548 0
M  V30 3047 H 281.683 -4.58076 1.67384 0
M  V30 3048 H 280.688 -3.89957 3.87574 0
M  V30 3049 H 281.913 -4.86902 4.73395 0
M  V30 3050 H 279.859 -5.94814 2.76644 0
M  V30 3051 H 279.776 -6.08035 4.49254 0
M  V30 3052 H 281.044 -6.89846 3.6295 0
M  V30 3053 N 285.273 -1.31445 -0.869486 0
M  V30 3054 C 286.684 -1.19042 -1.43826 0
M  V30 3055 C 287.035 0.202919 -1.95148 0
M  V30 3056 O 286.16 1.10071 -1.86315 0
M  V30 3057 C 286.755 -2.15499 -2.6143 0
M  V30 3058 C 285.314 -2.07028 -3.14351 0
M  V30 3059 C 284.461 -2.04701 -1.87063 0
M  V30 3060 H 287.412 -1.43489 -0.677984 0
M  V30 3061 H 287.433 -1.74488 -3.38134 0
M  V30 3062 H 286.945 -3.16899 -2.24046 0
M  V30 3063 H 285.046 -1.08825 -3.56354 0
M  V30 3064 H 285.159 -2.96157 -3.766 0
M  V30 3065 H 283.523 -1.49724 -2.06046 0
M  V30 3066 H 284.306 -3.07857 -1.51917 0
M  V30 3067 N 286.751 1.08385 -1.14413 0
M  V30 3068 C 287.997 1.81044 -0.913834 0
M  V30 3069 C 288.33 1.86004 0.558209 0
M  V30 3070 O 287.605 1.33606 1.4135 0
M  V30 3071 C 287.888 3.26648 -1.51569 0
M  V30 3072 C 287.741 3.29895 -3.0576 0
M  V30 3073 C 289.06 4.23629 -1.19273 0
M  V30 3074 H 286.179 0.65727 -0.333414 0
M  V30 3075 H 288.821 1.26896 -1.41412 0
M  V30 3076 H 286.971 3.72889 -1.09023 0
M  V30 3077 H 288.643 2.91977 -3.57137 0
M  V30 3078 H 286.886 2.69163 -3.40197 0
M  V30 3079 H 287.557 4.32516 -3.42977 0
M  V30 3080 H 290.033 3.85727 -1.56057 0
M  V30 3081 H 288.909 5.23822 -1.64017 0
M  V30 3082 H 289.17 4.41968 -0.108068 0
M  V30 3083 N 288.23 0.939286 1.26551 0
M  V30 3084 C 289.162 0.404704 2.25599 0
M  V30 3085 C 290.175 -0.470983 1.55838 0
M  V30 3086 O 291.364 -0.281734 1.76263 0
M  V30 3087 C 288.464 -0.43764 3.36062 0
M  V30 3088 C 287.637 0.421449 4.35365 0
M  V30 3089 C 286.696 -0.36015 5.24966 0
M  V30 3090 O 285.722 0.236167 5.6871 0
M  V30 3091 N 286.924 -1.65715 5.56344 0
M  V30 3092 H 289.689 1.25618 2.72103 0
M  V30 3093 H 287.25 0.807963 1.40298 0
M  V30 3094 H 289.242 -0.967866 3.92956 0
M  V30 3095 H 287.812 -1.18991 2.89067 0
M  V30 3096 H 287.032 1.1329 3.7757 0
M  V30 3097 H 288.32 1.00835 4.98708 0
M  V30 3098 H 287.718 -2.16378 5.22682 0
M  V30 3099 H 286.275 -2.13366 6.15888 0
M  V30 3100 N 289.708 -1.40897 0.706093 0
M  V30 3101 C 290.641 -2.282 -0.00328781 0
M  V30 3102 C 291.619 -1.42816 -0.77732 0
M  V30 3103 O 292.803 -1.72237 -0.765944 0
M  V30 3104 C 289.93 -3.23226 -1.01205 0
M  V30 3105 C 288.976 -4.25222 -0.329955 0
M  V30 3106 S 289.809 -5.27269 0.935298 0
M  V30 3107 C 290.965 -6.25859 -0.0716061 0
M  V30 3108 H 291.198 -2.88016 0.737143 0
M  V30 3109 H 288.731 -1.46191 0.496756 0
M  V30 3110 H 290.689 -3.78503 -1.58888 0
M  V30 3111 H 289.35 -2.62485 -1.72513 0
M  V30 3112 H 288.543 -4.92023 -1.09221 0
M  V30 3113 H 288.145 -3.73595 0.174069 0
M  V30 3114 H 290.437 -6.71204 -0.921521 0
M  V30 3115 H 291.38 -7.0586 0.562765 0
M  V30 3116 H 291.788 -5.62852 -0.431088 0
M  V30 3117 N 291.186 -0.45159 -1.50991 0
M  V30 3118 C 292.119 0.398179 -2.24699 0
M  V30 3119 C 293.097 1.01276 -1.27208 0
M  V30 3120 O 294.281 1.05247 -1.56382 0
M  V30 3121 C 291.408 1.55618 -3.00833 0
M  V30 3122 C 290.454 1.0609 -4.13095 0
M  V30 3123 S 291.287 -0.00865136 -5.35499 0
M  V30 3124 C 292.443 1.15369 -6.15175 0
M  V30 3125 H 292.676 -0.227555 -2.96428 0
M  V30 3126 H 290.209 -0.236251 -1.52582 0
M  V30 3127 H 292.167 2.21997 -3.45293 0
M  V30 3128 H 290.828 2.15337 -2.28667 0
M  V30 3129 H 290.021 1.92726 -4.65696 0
M  V30 3130 H 289.623 0.47513 -3.7097 0
M  V30 3131 H 291.915 2.06925 -6.45126 0
M  V30 3132 H 292.858 0.667344 -7.04948 0
M  V30 3133 H 293.266 1.3987 -5.46897 0
M  V30 3134 N 292.664 1.56529 -0.183458 0
M  V30 3135 C 293.612 2.19873 0.758845 0
M  V30 3136 C 294.606 1.16638 1.22849 0
M  V30 3137 O 295.812 1.3481 1.19274 0
M  V30 3138 H 292.187 0.7045 0.263029 0
M  V30 3139 H 294.158 2.97724 0.200755 0
M  V30 3140 C 292.907 2.86314 1.9728 0
M  V30 3141 H 292.23 3.65487 1.62047 0
M  V30 3142 H 293.67 3.3409 2.61075 0
M  V30 3143 C 292.129 1.86729 2.80418 0
M  V30 3144 O 292.659 1.36031 3.77966 0
M  V30 3145 N 290.865 1.55216 2.45675 0
M  V30 3146 H 290.412 1.96636 1.66409 0
M  V30 3147 H 290.37 0.888388 3.01588 0
M  V30 3148 N 294.142 -0.090211 1.57342 0
M  V30 3149 C 295.075 -1.14035 1.97664 0
M  V30 3150 C 296.053 -1.38576 0.850616 0
M  V30 3151 O 297.237 -1.52255 1.11134 0
M  V30 3152 C 294.364 -2.48854 2.2976 0
M  V30 3153 C 293.41 -2.40564 3.52181 0
M  V30 3154 S 294.243 -1.81745 5.03715 0
M  V30 3155 C 295.399 -3.18178 5.38993 0
M  V30 3156 H 295.632 -0.796636 2.86428 0
M  V30 3157 H 293.165 -0.298072 1.51496 0
M  V30 3158 H 295.123 -3.26413 2.48927 0
M  V30 3159 H 293.784 -2.80393 1.41558 0
M  V30 3160 H 292.977 -3.39942 3.72096 0
M  V30 3161 H 292.579 -1.71135 3.32549 0
M  V30 3162 H 294.871 -4.14461 5.35937 0
M  V30 3163 H 295.814 -3.03062 6.39968 0
M  V30 3164 H 296.222 -3.17935 4.66452 0
M  V30 3165 N 295.62 -1.53406 -0.361157 0
M  V30 3166 C 296.53 -1.83122 -1.4664 0
M  V30 3167 C 297.546 -0.719943 -1.58407 0
M  V30 3168 O 298.722 -1.01046 -1.74218 0
M  V30 3169 C 295.787 -2.01891 -2.81853 0
M  V30 3170 C 294.848 -3.25784 -2.79577 0
M  V30 3171 C 294.081 -3.43648 -4.0834 0
M  V30 3172 O 294.304 -2.65714 -5.0473 0
M  V30 3173 O 293.238 -4.37018 -4.13883 0
M  V30 3174 H 297.064 -2.7703 -1.24451 0
M  V30 3175 H 294.649 -1.38841 -0.551678 0
M  V30 3176 H 296.531 -2.15782 -3.61962 0
M  V30 3177 H 295.206 -1.11173 -3.0401 0
M  V30 3178 H 294.113 -3.17312 -1.98151 0
M  V30 3179 H 295.446 -4.16439 -2.62373 0
M  V30 3180 N 297.098 0.621204 -1.44841 0
M  V30 3181 C 298.061 1.71459 -1.521 0
M  V30 3182 C 299.061 1.55696 -0.401933 0
M  V30 3183 O 300.251 1.61011 -0.664925 0
M  V30 3184 C 297.383 3.10624 -1.40447 0
M  V30 3185 H 298.576 1.66394 -2.49506 0
M  V30 3186 H 296.129 0.835745 -1.3208 0
M  V30 3187 H 296.864 3.21277 -0.441737 0
M  V30 3188 H 296.649 3.23473 -2.21602 0
M  V30 3189 H 298.139 3.90293 -1.4853 0
M  V30 3190 N 298.576 1.31904 0.862503 0
M  V30 3191 C 299.804 1.24998 1.64873 0
M  V30 3192 C 300.219 -0.183425 1.87907 0
M  V30 3193 O 299.576 -1.11794 1.44251 0
M  V30 3194 C 299.627 1.99829 3.01248 0
M  V30 3195 O 299.348 3.37575 2.79239 0
M  V30 3196 C 300.849 1.99852 3.95694 0
M  V30 3197 H 298.069 0.431599 0.513773 0
M  V30 3198 H 300.613 1.73901 1.07604 0
M  V30 3199 H 298.768 1.54668 3.55185 0
M  V30 3200 H 299.182 3.75776 3.65914 0
M  V30 3201 H 300.656 2.56709 4.88676 0
M  V30 3202 H 301.133 0.982852 4.28062 0
M  V30 3203 H 301.739 2.44926 3.47694 0
M  V30 3204 N 300.054 -1.07777 1.14986 0
M  V30 3205 C 301.301 -1.8029 0.922056 0
M  V30 3206 C 301.629 -1.86531 -0.55105 0
M  V30 3207 O 300.884 -1.34189 -1.42449 0
M  V30 3208 C 301.183 -3.25495 1.47608 0
M  V30 3209 C 300.849 -3.39361 2.96893 0
M  V30 3210 C 299.511 -3.42852 3.37647 0
M  V30 3211 C 301.863 -3.42512 3.92854 0
M  V30 3212 C 299.191 -3.47094 4.73015 0
M  V30 3213 C 301.543 -3.4829 5.28088 0
M  V30 3214 C 300.207 -3.50058 5.68345 0
M  V30 3215 H 299.477 -0.659727 0.337404 0
M  V30 3216 H 302.124 -1.26854 1.43459 0
M  V30 3217 H 300.429 -3.81683 0.88463 0
M  V30 3218 H 302.126 -3.80168 1.27568 0
M  V30 3219 H 298.716 -3.37339 2.64387 0
M  V30 3220 H 302.9 -3.3904 3.62444 0
M  V30 3221 H 298.156 -3.46758 5.03556 0
M  V30 3222 H 302.33 -3.49675 6.02246 0
M  V30 3223 H 299.957 -3.53097 6.73221 0
M  V30 3224 N 301.532 -0.945985 -1.26051 0
M  V30 3225 C 302.772 -0.603665 -1.95282 0
M  V30 3226 C 303.136 0.842377 -1.72534 0
M  V30 3227 O 304.337 1.29387 -2.35611 0
M  V30 3228 C 302.608 -0.942292 -3.44754 0
M  V30 3229 S 304.167 -0.711242 -4.32997 0
M  V30 3230 H 300.985 -0.222176 -0.675395 0
M  V30 3231 H 303.587 -1.21832 -1.52896 0
M  V30 3232 H 302.291 -1.99203 -3.58812 0
M  V30 3233 H 301.822 -0.317546 -3.92116 0
M  V30 3234 H 303.837 0.422221 -4.944 0
M  V30 3235 N 303.011 1.40521 -0.713556 0
M  V30 3236 C 303.944 2.28198 -0.00881422 0
M  V30 3237 C 304.922 1.43227 0.769735 0
M  V30 3238 O 306.106 1.72641 0.756799 0
M  V30 3239 C 303.233 3.23758 0.994899 0
M  V30 3240 C 302.279 4.25391 0.3074 0
M  V30 3241 S 303.112 5.26765 -0.963247 0
M  V30 3242 C 304.268 6.25888 0.0384143 0
M  V30 3243 H 304.501 2.87622 -0.752407 0
M  V30 3244 H 302.034 1.45925 -0.504502 0
M  V30 3245 H 303.992 3.79341 1.56879 0
M  V30 3246 H 302.653 2.63396 1.71118 0
M  V30 3247 H 301.846 4.92596 1.0661 0
M  V30 3248 H 301.448 3.73497 -0.193879 0
M  V30 3249 H 303.74 6.71683 0.885912 0
M  V30 3250 H 304.683 7.05552 -0.60019 0
M  V30 3251 H 305.091 5.63072 0.401233 0
M  V30 3252 N 304.489 0.459591 1.5075 0
M  V30 3253 C 305.737 -0.0991532 2.01857 0
M  V30 3254 C 306.058 -1.41247 1.34441 0
M  V30 3255 O 305.328 -1.89775 0.486022 0
M  V30 3256 H 303.908 -0.039633 0.745948 0
M  V30 3257 H 306.57 0.607387 1.85194 0
M  V30 3258 H 305.666 -0.258998 3.11023 0
M  V30 3259 N 305.967 -1.56429 0.191757 0
M  V30 3260 C 306.915 -2.20273 -0.747174 0
M  V30 3261 C 307.909 -1.17288 -1.22229 0
M  V30 3262 O 309.115 -1.35441 -1.18557 0
M  V30 3263 H 305.49 -0.705885 -0.259289 0
M  V30 3264 H 307.461 -2.97826 -0.184963 0
M  V30 3265 C 306.21 -2.87356 -1.95759 0
M  V30 3266 H 305.533 -3.66341 -1.60106 0
M  V30 3267 H 306.973 -3.3547 -2.59299 0
M  V30 3268 C 305.432 -1.88213 -2.79423 0
M  V30 3269 O 305.962 -1.38033 -3.7724 0
M  V30 3270 N 304.168 -1.56516 -2.44849 0
M  V30 3271 H 303.715 -1.97516 -1.65364 0
M  V30 3272 H 303.673 -0.904369 -3.01112 0
M  V30 3273 N 307.445 0.0818655 -1.57387 0
M  V30 3274 C 308.694 0.781681 -1.85937 0
M  V30 3275 C 309.007 1.79246 -0.782957 0
M  V30 3276 O 310.213 2.54112 -0.955987 0
M  V30 3277 C 308.669 1.44109 -3.29789 0
M  V30 3278 C 308.277 0.469396 -4.45534 0
M  V30 3279 C 310.021 2.12386 -3.67549 0
M  V30 3280 C 307.928 1.13415 -5.80423 0
M  V30 3281 H 306.858 0.295682 -0.693605 0
M  V30 3282 H 309.509 0.0348051 -1.83467 0
M  V30 3283 H 307.891 2.23588 -3.2684 0
M  V30 3284 H 309.065 -0.294856 -4.59856 0
M  V30 3285 H 307.38 -0.108383 -4.16259 0
M  V30 3286 H 309.977 2.62878 -4.65617 0
M  V30 3287 H 310.32 2.91877 -2.96839 0
M  V30 3288 H 310.853 1.39751 -3.72444 0
M  V30 3289 H 307.592 0.379771 -6.54399 0
M  V30 3290 H 307.112 1.8695 -5.69921 0
M  V30 3291 H 308.791 1.65686 -6.25426 0
M  V30 3292 N 308.923 1.53595 0.353017 0
M  V30 3293 C 310.2 1.61002 1.11075 0
M  V30 3294 C 310.58 0.425356 2.0677 0
M  V30 3295 O 309.928 -0.583267 2.2093 0
M  V30 3296 C 310.138 2.96631 1.83877 0
M  V30 3297 C 311.486 3.51653 2.37961 0
M  V30 3298 O 312.51 2.98743 1.93987 0
M  V30 3299 O 311.369 4.44177 3.18386 0
M  V30 3300 H 308.463 0.650825 0.510251 0
M  V30 3301 H 311.009 1.6594 0.35527 0
M  V30 3302 H 309.781 3.74293 1.14108 0
M  V30 3303 H 309.404 2.95242 2.66304 0
M  V30 3304 N 310.401 -0.613514 1.45168 0
M  V30 3305 C 311.626 -1.40437 1.52618 0
M  V30 3306 C 312.051 -1.87438 0.157707 0
M  V30 3307 O 311.409 -1.59791 -0.856537 0
M  V30 3308 C 311.457 -2.58894 2.51011 0
M  V30 3309 O 310.561 -3.59326 2.02382 0
M  V30 3310 H 309.902 -0.419506 0.514695 0
M  V30 3311 H 312.432 -0.747215 1.90467 0
M  V30 3312 H 312.442 -3.06214 2.69624 0
M  V30 3313 H 311.117 -2.24032 3.50403 0
M  V30 3314 H 309.694 -3.18695 1.93618 0
M  V30 3315 N 311.879 -1.3236 -0.855495 0
M  V30 3316 C 313.128 -1.22226 -1.60448 0
M  V30 3317 C 313.441 0.214733 -1.94418 0
M  V30 3318 O 314.647 0.437917 -2.67945 0
M  V30 3319 C 313.103 -2.14063 -2.89318 0
M  V30 3320 C 312.711 -3.62839 -2.62777 0
M  V30 3321 C 314.455 -2.12764 -3.67331 0
M  V30 3322 C 312.362 -4.4664 -3.87643 0
M  V30 3323 H 311.292 -0.453904 -0.602069 0
M  V30 3324 H 313.943 -1.57314 -0.944698 0
M  V30 3325 H 312.325 -1.71889 -3.5675 0
M  V30 3326 H 313.499 -4.1335 -2.03662 0
M  V30 3327 H 311.814 -3.66261 -1.98096 0
M  V30 3328 H 314.411 -2.72611 -4.59987 0
M  V30 3329 H 314.754 -1.11841 -4.00995 0
M  V30 3330 H 315.287 -2.53214 -3.06802 0
M  V30 3331 H 312.026 -5.48373 -3.5912 0
M  V30 3332 H 311.546 -4.0088 -4.46156 0
M  V30 3333 H 313.225 -4.59597 -4.55389 0
M  V30 3334 N 313.357 1.07166 -1.15556 0
M  V30 3335 C 314.305 2.16517 -0.8499 0
M  V30 3336 C 315.299 1.68468 0.177454 0
M  V30 3337 O 316.505 1.79971 0.0323026 0
M  V30 3338 H 312.88 0.706652 -0.25719 0
M  V30 3339 H 314.851 2.39514 -1.77976 0
M  V30 3340 C 313.6 3.45855 -0.357682 0
M  V30 3341 H 312.923 3.83214 -1.13961 0
M  V30 3342 H 314.363 4.23607 -0.182489 0
M  V30 3343 C 312.822 3.24062 0.921152 0
M  V30 3344 O 313.352 3.48813 1.9923 0
M  V30 3345 N 311.558 2.77539 0.86141 0
M  V30 3346 H 311.105 2.57598 -0.0104408 0
M  V30 3347 H 311.063 2.63337 1.71758 0
M  V30 3348 N 314.835 0.952656 1.25548 0
M  V30 3349 C 316.075 0.614013 1.9496 0
M  V30 3350 C 316.439 -0.833215 1.72978 0
M  V30 3351 O 317.64 -1.28135 2.36294 0
M  V30 3352 C 315.911 0.960562 3.4425 0
M  V30 3353 S 317.47 0.734195 4.32614 0
M  V30 3354 H 314.288 0.225754 0.674208 0
M  V30 3355 H 316.89 1.22641 1.52248 0
M  V30 3356 H 315.594 2.01103 3.57751 0
M  V30 3357 H 315.125 0.338336 3.91942 0
M  V30 3358 H 317.14 -0.395995 4.94617 0
M  V30 3359 N 316.313 -1.40141 0.720998 0
M  V30 3360 C 317.26 -2.30688 0.071919 0
M  V30 3361 C 318.23 -1.48476 -0.744584 0
M  V30 3362 O 319.415 -1.77201 -0.707423 0
M  V30 3363 C 316.555 -3.34724 -0.839855 0
M  V30 3364 C 315.668 -4.31998 -0.0122438 0
M  V30 3365 C 314.803 -5.23102 -0.923995 0
M  V30 3366 C 313.842 -6.12033 -0.0907969 0
M  V30 3367 N 312.979 -6.95537 -0.957718 0
M  V30 3368 H 317.819 -2.85628 0.849755 0
M  V30 3369 H 315.356 -1.40653 0.430726 0
M  V30 3370 H 317.314 -3.93618 -1.38279 0
M  V30 3371 H 315.944 -2.81274 -1.58381 0
M  V30 3372 H 314.996 -3.74841 0.64794 0
M  V30 3373 H 316.308 -4.94772 0.632595 0
M  V30 3374 H 315.462 -5.86953 -1.53527 0
M  V30 3375 H 314.201 -4.60615 -1.60264 0
M  V30 3376 H 313.206 -5.47207 0.533377 0
M  V30 3377 H 314.431 -6.76581 0.584428 0
M  V30 3378 H 312.377 -6.35633 -1.62192 0
M  V30 3379 H 312.294 -7.55099 -0.36904 0
M  V30 3380 H 313.562 -7.63832 -1.555 0
M  V30 3381 N 317.792 -0.46758 -1.50504 0
M  V30 3382 C 319.041 0.0902868 -2.01498 0
M  V30 3383 C 319.354 1.411 -1.35463 0
M  V30 3384 O 320.56 2.0536 -1.77594 0
M  V30 3385 C 319.016 0.21142 -3.59278 0
M  V30 3386 C 318.624 -1.10065 -4.34269 0
M  V30 3387 C 320.368 0.721433 -4.18325 0
M  V30 3388 C 318.275 -0.943505 -5.83825 0
M  V30 3389 H 317.205 0.037517 -0.753066 0
M  V30 3390 H 319.856 -0.601943 -1.73346 0
M  V30 3391 H 318.238 0.967352 -3.84003 0
M  V30 3392 H 319.412 -1.86726 -4.21272 0
M  V30 3393 H 317.727 -1.5415 -3.86816 0
M  V30 3394 H 320.324 0.85598 -5.27804 0
M  V30 3395 H 320.667 1.71186 -3.79475 0
M  V30 3396 H 321.2 0.0229843 -3.97793 0
M  V30 3397 H 317.939 -1.90719 -6.27141 0
M  V30 3398 H 317.459 -0.217213 -5.99407 0
M  V30 3399 H 319.138 -0.608715 -6.4413 0
M  V30 3400 N 319.27 1.56325 -0.20005 0
M  V30 3401 C 320.519 1.96895 0.437652 0
M  V30 3402 C 320.832 1.08999 1.62415 0
M  V30 3403 O 322.038 1.39372 2.32997 0
M  V30 3404 C 320.494 3.50198 0.830025 0
M  V30 3405 C 320.102 4.46765 -0.332461 0
M  V30 3406 C 321.846 3.99526 1.43453 0
M  V30 3407 C 319.753 5.91344 0.0811468 0
M  V30 3408 H 318.683 0.735209 0.167282 0
M  V30 3409 H 321.334 1.81148 -0.292853 0
M  V30 3410 H 319.716 3.61467 1.61734 0
M  V30 3411 H 320.89 4.47231 -1.11 0
M  V30 3412 H 319.205 4.07657 -0.848789 0
M  V30 3413 H 321.802 5.05025 1.75652 0
M  V30 3414 H 322.145 3.44122 2.34277 0
M  V30 3415 H 322.678 3.91393 0.71109 0
M  V30 3416 H 319.417 6.50685 -0.793033 0
M  V30 3417 H 318.937 5.94121 0.823445 0
M  V30 3418 H 320.616 6.44945 0.515252 0
M  V30 3419 N 320.748 -0.0735177 1.57428 0
M  V30 3420 C 321.658 -1.10547 2.06922 0
M  V30 3421 C 322.674 -1.42506 0.998402 0
M  V30 3422 O 323.85 -1.52717 1.31299 0
M  V30 3423 C 320.915 -2.40019 2.50184 0
M  V30 3424 C 319.976 -2.15046 3.71556 0
M  V30 3425 C 319.209 -3.38345 4.12745 0
M  V30 3426 O 319.432 -4.47399 3.53822 0
M  V30 3427 O 318.366 -3.2666 5.05546 0
M  V30 3428 H 322.192 -0.715013 2.95163 0
M  V30 3429 H 319.777 -0.287531 1.46607 0
M  V30 3430 H 321.659 -3.16218 2.78539 0
M  V30 3431 H 320.334 -2.78447 1.65072 0
M  V30 3432 H 319.241 -1.36558 3.48285 0
M  V30 3433 H 320.574 -1.81499 4.57514 0
M  V30 3434 N 322.226 -1.5378 -0.344866 0
M  V30 3435 C 323.156 -1.84662 -1.42906 0
M  V30 3436 C 324.137 -0.701648 -1.54955 0
M  V30 3437 O 325.322 -0.953438 -1.69184 0
M  V30 3438 C 322.452 -2.05503 -2.79974 0
M  V30 3439 C 321.406 -3.21318 -2.82734 0
M  V30 3440 C 320.732 -3.2749 -4.22675 0
M  V30 3441 C 322.032 -4.59456 -2.48389 0
M  V30 3442 H 323.726 -2.75461 -1.17311 0
M  V30 3443 H 321.272 -1.32542 -0.562896 0
M  V30 3444 H 323.225 -2.25691 -3.55867 0
M  V30 3445 H 321.949 -1.11434 -3.07002 0
M  V30 3446 H 320.608 -3.00984 -2.09294 0
M  V30 3447 H 320.256 -2.31019 -4.4681 0
M  V30 3448 H 319.956 -4.05316 -4.25433 0
M  V30 3449 H 321.48 -3.49887 -5.00412 0
M  V30 3450 H 322.894 -4.79667 -3.13995 0
M  V30 3451 H 321.291 -5.39675 -2.62432 0
M  V30 3452 H 322.361 -4.63155 -1.4358 0
M  V30 3453 N 323.704 0.605807 -1.45491 0
M  V30 3454 C 325.115 1.18777 -1.44045 0
M  V30 3455 C 325.466 1.95471 -0.169001 0
M  V30 3456 O 324.591 2.0374 0.729324 0
M  V30 3457 C 325.186 2.16064 -2.60963 0
M  V30 3458 C 323.745 2.69633 -2.62631 0
M  V30 3459 C 322.892 1.45072 -2.36325 0
M  V30 3460 H 325.843 0.395017 -1.53705 0
M  V30 3461 H 325.864 2.9913 -2.35163 0
M  V30 3462 H 325.376 1.60217 -3.53486 0
M  V30 3463 H 323.477 3.29414 -1.74119 0
M  V30 3464 H 323.59 3.13944 -3.61906 0
M  V30 3465 H 321.954 1.74089 -1.85917 0
M  V30 3466 H 322.737 0.910899 -3.30995 0
M  V30 3467 N 325.182 1.32811 0.848464 0
M  V30 3468 C 326.429 1.23724 1.60308 0
M  V30 3469 C 326.757 -0.1994 1.93475 0
M  V30 3470 O 326.012 -1.15406 1.5805 0
M  V30 3471 C 326.311 2.04831 2.92881 0
M  V30 3472 C 325.977 3.54125 2.79117 0
M  V30 3473 C 324.639 3.94829 2.7507 0
M  V30 3474 C 326.991 4.49036 2.64606 0
M  V30 3475 C 324.319 5.28675 2.544 0
M  V30 3476 C 326.671 5.83033 2.4547 0
M  V30 3477 C 325.335 6.22931 2.39819 0
M  V30 3478 H 324.605 0.452737 0.586609 0
M  V30 3479 H 327.252 1.64301 0.983743 0
M  V30 3480 H 325.557 1.57001 3.58968 0
M  V30 3481 H 327.254 1.95164 3.50303 0
M  V30 3482 H 323.844 3.21801 2.83094 0
M  V30 3483 H 328.028 4.18505 2.66772 0
M  V30 3484 H 323.284 5.58637 2.48465 0
M  V30 3485 H 327.458 6.56186 2.33222 0
M  V30 3486 H 325.085 7.26584 2.23562 0
M  V30 3487 N 326.66 -1.06551 1.16123 0
M  V30 3488 C 327.592 -2.13908 0.823171 0
M  V30 3489 C 328.605 -1.61926 -0.16843 0
M  V30 3490 O 329.794 -1.78412 0.055962 0
M  V30 3491 C 326.894 -3.38283 0.204424 0
M  V30 3492 C 326.067 -4.19589 1.23548 0
M  V30 3493 C 325.126 -5.2233 0.637011 0
M  V30 3494 O 324.152 -5.54034 1.30516 0
M  V30 3495 N 325.354 -5.77621 -0.577474 0
M  V30 3496 H 328.119 -2.43508 1.74711 0
M  V30 3497 H 325.68 -1.2253 1.05821 0
M  V30 3498 H 327.672 -4.0416 -0.208909 0
M  V30 3499 H 326.242 -3.06329 -0.623012 0
M  V30 3500 H 325.462 -3.49406 1.82507 0
M  V30 3501 H 326.75 -4.70718 1.93137 0
M  V30 3502 H 326.148 -5.54125 -1.13853 0
M  V30 3503 H 324.705 -6.45087 -0.933053 0
M  V30 3504 N 328.138 -0.959301 -1.25041 0
M  V30 3505 C 329.086 -0.474437 -2.2771 0
M  V30 3506 C 330.08 0.457697 -1.631 0
M  V30 3507 O 331.286 0.333912 -1.76876 0
M  V30 3508 H 327.661 -0.134936 -0.739795 0
M  V30 3509 H 329.632 -1.35251 -2.65988 0
M  V30 3510 C 328.381 0.227884 -3.46952 0
M  V30 3511 H 327.704 -0.480248 -3.96905 0
M  V30 3512 H 329.144 0.531091 -4.20661 0
M  V30 3513 C 327.603 1.452 -3.04004 0
M  V30 3514 O 328.133 2.54949 -3.10426 0
M  V30 3515 N 326.339 1.31502 -2.59144 0
M  V30 3516 H 325.886 0.422065 -2.54119 0
M  V30 3517 H 325.844 2.13521 -2.30773 0
M  V30 3518 N 329.616 1.39756 -0.72842 0
M  V30 3519 C 330.563 2.30647 -0.0841519 0
M  V30 3520 C 331.533 1.48869 0.7367 0
M  V30 3521 O 332.718 1.77574 0.698015 0
M  V30 3522 C 329.858 3.35165 0.822091 0
M  V30 3523 C 328.971 4.31999 -0.0106663 0
M  V30 3524 C 328.106 5.23585 0.896241 0
M  V30 3525 C 327.145 6.12072 0.0583381 0
M  V30 3526 N 326.282 6.96035 0.920818 0
M  V30 3527 H 331.122 2.85173 -0.864891 0
M  V30 3528 H 328.659 1.40422 -0.438179 0
M  V30 3529 H 330.617 3.94345 1.36189 0
M  V30 3530 H 329.247 2.8211 1.56888 0
M  V30 3531 H 328.299 3.74492 -0.66781 0
M  V30 3532 H 329.611 4.9443 -0.658825 0
M  V30 3533 H 328.765 5.87759 1.50412 0
M  V30 3534 H 327.504 4.61459 1.57819 0
M  V30 3535 H 326.509 5.46916 -0.562389 0
M  V30 3536 H 327.734 6.76261 -0.6203 0
M  V30 3537 H 325.68 6.36485 1.58818 0
M  V30 3538 H 325.597 7.55284 0.32899 0
M  V30 3539 H 326.865 7.64646 1.51447 0
M  V30 3540 N 331.094 0.475555 1.50254 0
M  V30 3541 C 332.044 -0.335025 2.25525 0
M  V30 3542 C 333.028 -0.957625 1.29299 0
M  V30 3543 O 334.22 -0.869436 1.54175 0
M  V30 3544 C 331.349 -1.41385 3.12834 0
M  V30 3545 C 330.435 -0.798762 4.1651 0
M  V30 3546 N 330.826 0.0835815 5.05731 0
M  V30 3547 C 329.124 -1.06221 4.33166 0
M  V30 3548 C 329.825 0.433113 5.80085 0
M  V30 3549 N 328.801 -0.1928 5.43258 0
M  V30 3550 H 332.603 0.344612 2.91873 0
M  V30 3551 H 330.117 0.289986 1.5979 0
M  V30 3552 H 332.114 -2.00777 3.65368 0
M  V30 3553 H 330.774 -2.09543 2.48036 0
M  V30 3554 H 331.785 0.452715 5.15918 0
M  V30 3555 H 328.462 -1.73844 3.79585 0
M  V30 3556 H 329.852 1.15346 6.61925 0
M  V30 3557 N 332.573 -1.56217 0.208337 0
M  V30 3558 C 333.503 -2.22694 -0.702116 0
M  V30 3559 C 334.484 -1.19432 -1.2112 0
M  V30 3560 O 335.669 -1.47978 -1.25762 0
M  V30 3561 C 332.799 -2.8966 -1.9161 0
M  V30 3562 C 331.753 -3.9928 -1.5414 0
M  V30 3563 C 331.079 -4.53476 -2.83308 0
M  V30 3564 C 332.379 -5.17012 -0.741339 0
M  V30 3565 H 334.073 -2.99034 -0.147898 0
M  V30 3566 H 331.619 -1.43831 -0.0696951 0
M  V30 3567 H 333.572 -3.34852 -2.55836 0
M  V30 3568 H 332.296 -2.10746 -2.49507 0
M  V30 3569 H 330.955 -3.54799 -0.922668 0
M  V30 3570 H 330.603 -3.71308 -3.39322 0
M  V30 3571 H 330.303 -5.27451 -2.58976 0
M  V30 3572 H 331.827 -5.01378 -3.485 0
M  V30 3573 H 333.241 -5.58667 -1.28699 0
M  V30 3574 H 331.638 -5.97137 -0.595627 0
M  V30 3575 H 332.708 -4.8423 0.254851 0
M  V30 3576 N 334.051 0.0651679 -1.57465 0
M  V30 3577 C 335.276 0.779605 -1.9219 0
M  V30 3578 C 335.701 1.69988 -0.805333 0
M  V30 3579 O 335.059 1.79685 0.241435 0
M  V30 3580 C 335.107 1.54364 -3.2589 0
M  V30 3581 O 334.211 2.65474 -3.1559 0
M  V30 3582 H 333.552 0.212249 -0.629163 0
M  V30 3583 H 336.082 0.0314294 -2.04576 0
M  V30 3584 H 336.092 1.92146 -3.59922 0
M  V30 3585 H 334.767 0.868457 -4.06732 0
M  V30 3586 H 333.344 2.30501 -2.93128 0
M  V30 3587 N 335.529 1.53961 0.336706 0
M  V30 3588 C 336.462 1.77255 1.43722 0
M  V30 3589 C 337.44 0.62193 1.50236 0
M  V30 3590 O 338.624 0.857874 1.67847 0
M  V30 3591 C 335.751 1.87733 2.81912 0
M  V30 3592 C 334.797 3.09933 2.92991 0
M  V30 3593 S 335.63 4.68836 2.58753 0
M  V30 3594 C 336.786 4.82202 3.99039 0
M  V30 3595 H 337.019 2.70322 1.23748 0
M  V30 3596 H 334.552 1.44917 0.532777 0
M  V30 3597 H 336.51 1.94455 3.61521 0
M  V30 3598 H 335.171 0.956666 2.99177 0
M  V30 3599 H 334.364 3.1396 3.94265 0
M  V30 3600 H 333.966 3.01472 2.21338 0
M  V30 3601 H 336.258 4.64032 4.9364 0
M  V30 3602 H 337.201 5.84298 4.00002 0
M  V30 3603 H 337.609 4.10604 3.87382 0
M  V30 3604 N 337.007 -0.598083 1.45811 0
M  V30 3605 C 338.254 -1.35681 1.50323 0
M  V30 3606 C 338.582 -1.9393 0.148739 0
M  V30 3607 O 337.837 -1.76094 -0.853787 0
M  V30 3608 C 338.136 -2.51669 2.53766 0
M  V30 3609 C 337.802 -2.11508 3.98215 0
M  V30 3610 C 336.464 -2.0027 4.37545 0
M  V30 3611 C 338.816 -1.80308 4.89018 0
M  V30 3612 C 336.144 -1.56067 5.65562 0
M  V30 3613 C 338.496 -1.37589 6.17456 0
M  V30 3614 C 337.16 -1.24916 6.55708 0
M  V30 3615 H 336.43 -0.496492 0.550069 0
M  V30 3616 H 339.077 -0.675052 1.79207 0
M  V30 3617 H 337.382 -3.25225 2.18486 0
M  V30 3618 H 339.079 -3.09895 2.54492 0
M  V30 3619 H 335.669 -2.21185 3.67117 0
M  V30 3620 H 339.853 -1.87884 4.59362 0
M  V30 3621 H 335.109 -1.44886 5.93985 0
M  V30 3622 H 339.283 -1.12495 6.87254 0
M  V30 3623 H 336.91 -0.904386 7.54801 0
M  V30 3624 N 338.485 -1.33259 -0.841409 0
M  V30 3625 C 339.734 -1.23921 -1.59143 0
M  V30 3626 C 340.047 0.1941 -1.94635 0
M  V30 3627 O 341.253 0.409474 -2.68394 0
M  V30 3628 C 339.709 -2.17119 -2.87032 0
M  V30 3629 C 339.317 -3.65606 -2.58914 0
M  V30 3630 C 341.061 -2.16648 -3.65053 0
M  V30 3631 C 338.968 -4.50726 -3.82884 0
M  V30 3632 H 337.898 -0.460264 -0.597221 0
M  V30 3633 H 340.549 -1.58307 -0.927959 0
M  V30 3634 H 338.931 -1.75663 -3.54906 0
M  V30 3635 H 340.105 -4.15487 -1.99267 0
M  V30 3636 H 338.42 -3.68341 -1.942 0
M  V30 3637 H 341.017 -2.77474 -4.57069 0
M  V30 3638 H 341.36 -1.16088 -3.99787 0
M  V30 3639 H 341.893 -2.56453 -3.041 0
M  V30 3640 H 338.632 -5.52151 -3.53283 0
M  V30 3641 H 338.152 -4.0559 -4.41879 0
M  V30 3642 H 339.831 -4.64401 -4.50489 0
M  V30 3643 N 339.963 1.05934 -1.16686 0
M  V30 3644 C 340.893 2.1546 -0.899949 0
M  V30 3645 C 341.874 1.69391 0.155154 0
M  V30 3646 O 343.059 1.94199 0.00648693 0
M  V30 3647 C 340.189 3.44939 -0.404241 0
M  V30 3648 C 339.143 4.04536 -1.39767 0
M  V30 3649 C 338.469 5.29268 -0.760216 0
M  V30 3650 C 339.769 4.42893 -2.76845 0
M  V30 3651 H 341.463 2.38046 -1.81588 0
M  V30 3652 H 339.009 1.14404 -0.874514 0
M  V30 3653 H 340.962 4.20901 -0.204971 0
M  V30 3654 H 339.686 3.21983 0.547206 0
M  V30 3655 H 338.345 3.30635 -1.58355 0
M  V30 3656 H 337.993 5.02611 0.197831 0
M  V30 3657 H 337.693 5.70101 -1.42332 0
M  V30 3658 H 339.217 6.07924 -0.57105 0
M  V30 3659 H 340.631 5.09921 -2.62019 0
M  V30 3660 H 339.028 4.94721 -3.39663 0
M  V30 3661 H 340.098 3.53584 -3.31823 0
M  V30 3662 N 341.441 0.965919 1.2453 0
M  V30 3663 C 342.371 0.513476 2.27784 0
M  V30 3664 C 343.352 -0.445974 1.6415 0
M  V30 3665 O 344.537 -0.342485 1.91156 0
M  V30 3666 C 341.667 -0.198839 3.4673 0
M  V30 3667 C 340.621 0.676456 4.2262 0
M  V30 3668 C 339.947 -0.167248 5.34438 0
M  V30 3669 C 341.247 1.96017 4.84123 0
M  V30 3670 H 342.941 1.3765 2.65881 0
M  V30 3671 H 340.487 0.663321 1.27813 0
M  V30 3672 H 342.44 -0.526567 4.18097 0
M  V30 3673 H 341.164 -1.0962 3.07654 0
M  V30 3674 H 339.823 0.98743 3.53052 0
M  V30 3675 H 339.471 -1.0647 4.91603 0
M  V30 3676 H 339.171 0.415181 5.86131 0
M  V30 3677 H 340.695 -0.489688 6.08633 0
M  V30 3678 H 342.109 1.69814 5.47573 0
M  V30 3679 H 340.506 2.48918 5.4604 0
M  V30 3680 H 341.576 2.65622 4.05676 0
M  V30 3681 N 342.919 -1.39368 0.735821 0
M  V30 3682 C 344.33 -1.83313 0.354015 0
M  V30 3683 C 344.681 -1.61461 -1.11466 0
M  V30 3684 O 343.806 -1.10621 -1.85989 0
M  V30 3685 C 344.401 -3.32781 0.635769 0
M  V30 3686 C 342.96 -3.75142 0.307448 0
M  V30 3687 C 342.107 -2.62358 0.897974 0
M  V30 3688 H 345.058 -1.28349 0.933398 0
M  V30 3689 H 345.079 -3.80388 -0.0921773 0
M  V30 3690 H 344.591 -3.48654 1.70476 0
M  V30 3691 H 342.692 -3.64857 -0.755674 0
M  V30 3692 H 342.805 -4.72532 0.790583 0
M  V30 3693 H 341.169 -2.52624 0.324551 0
M  V30 3694 H 341.952 -2.81036 1.97164 0
M  V30 3695 N 344.397 -0.483516 -1.5 0
M  V30 3696 C 345.344 0.304164 -2.28787 0
M  V30 3697 C 346.314 0.976114 -1.34392 0
M  V30 3698 O 347.499 0.986156 -1.63339 0
M  V30 3699 C 344.639 1.37298 -3.16612 0
M  V30 3700 C 343.752 0.714561 -4.26049 0
M  V30 3701 C 342.887 1.76232 -5.01114 0
M  V30 3702 C 341.926 1.08483 -6.0241 0
M  V30 3703 N 341.063 2.076 -6.70706 0
M  V30 3704 H 345.903 -0.373981 -2.95644 0
M  V30 3705 H 343.44 -0.196275 -1.45785 0
M  V30 3706 H 345.398 2.00445 -3.65893 0
M  V30 3707 H 344.028 2.02012 -2.51776 0
M  V30 3708 H 343.08 -0.0297798 -3.80388 0
M  V30 3709 H 344.392 0.180383 -4.98474 0
M  V30 3710 H 343.546 2.46929 -5.54176 0
M  V30 3711 H 342.285 2.33033 -4.28424 0
M  V30 3712 H 341.29 0.363545 -5.48597 0
M  V30 3713 H 342.515 0.523551 -6.77079 0
M  V30 3714 H 340.461 2.63394 -6.00799 0
M  V30 3715 H 340.378 1.59201 -7.39047 0
M  V30 3716 H 341.646 2.77639 -7.2838 0
M  V30 3717 N 345.875 1.56104 -0.216619 0
M  V30 3718 C 347.152 1.89988 0.465165 0
M  V30 3719 C 347.532 1.13326 1.78102 0
M  V30 3720 O 346.88 0.241033 2.27225 0
M  V30 3721 C 347.09 3.42646 0.662939 0
M  V30 3722 C 348.438 4.13311 0.972602 0
M  V30 3723 O 349.462 3.48217 0.749901 0
M  V30 3724 O 348.321 5.28396 1.39499 0
M  V30 3725 H 345.415 0.78979 0.245276 0
M  V30 3726 H 347.961 1.67721 -0.258436 0
M  V30 3727 H 346.733 3.90399 -0.26543 0
M  V30 3728 H 346.356 3.70677 1.43821 0
M  V30 3729 N 347.353 -0.0568162 1.57498 0
M  V30 3730 C 348.599 -0.75422 1.88253 0
M  V30 3731 C 348.932 -1.76461 0.810865 0
M  V30 3732 O 348.207 -1.93691 -0.177259 0
M  V30 3733 C 348.49 -1.44878 3.2967 0
M  V30 3734 C 348.343 -0.453789 4.47505 0
M  V30 3735 C 349.662 -2.38994 3.69554 0
M  V30 3736 H 346.781 -0.272724 0.684683 0
M  V30 3737 H 349.423 -0.0172113 1.89992 0
M  V30 3738 H 347.573 -2.077 3.28318 0
M  V30 3739 H 349.245 0.170371 4.60985 0
M  V30 3740 H 347.488 0.229552 4.33192 0
M  V30 3741 H 348.159 -0.977699 5.43273 0
M  V30 3742 H 350.635 -1.86239 3.72095 0
M  V30 3743 H 349.511 -2.84587 4.69363 0
M  V30 3744 H 349.772 -3.24461 3.00296 0
M  V30 3745 N 348.832 -1.54138 -0.328536 0
M  V30 3746 C 349.742 -1.86192 -1.42723 0
M  V30 3747 C 350.758 -0.753382 -1.56844 0
M  V30 3748 O 351.934 -1.04718 -1.72035 0
M  V30 3749 C 348.999 -2.07824 -2.77507 0
M  V30 3750 C 348.06 -3.31641 -2.72603 0
M  V30 3751 C 347.293 -3.52232 -4.00959 0
M  V30 3752 O 347.516 -2.7636 -4.9898 0
M  V30 3753 O 346.45 -4.45699 -4.0452 0
M  V30 3754 H 350.276 -2.79608 -1.18547 0
M  V30 3755 H 347.861 -1.3998 -0.522104 0
M  V30 3756 H 349.743 -2.23411 -3.57303 0
M  V30 3757 H 348.418 -1.17596 -3.01584 0
M  V30 3758 H 347.325 -3.21444 -1.91376 0
M  V30 3759 H 348.658 -4.2191 -2.53481 0
M  V30 3760 N 350.31 0.590341 -1.46126 0
M  V30 3761 C 351.587 1.35029 -1.41515 0
M  V30 3762 C 351.967 2.10888 -0.0946472 0
M  V30 3763 O 351.315 2.08998 0.923693 0
M  V30 3764 C 351.525 2.28269 -2.63997 0
M  V30 3765 C 352.873 2.90338 -3.09821 0
M  V30 3766 O 353.897 2.38585 -2.64492 0
M  V30 3767 O 352.756 3.84321 -3.88535 0
M  V30 3768 H 349.85 0.606317 -0.562413 0
M  V30 3769 H 352.396 0.611994 -1.58281 0
M  V30 3770 H 351.168 1.71591 -3.51671 0
M  V30 3771 H 350.791 3.0945 -2.49652 0
M  V30 3772 N 351.788 1.33704 0.83433 0
M  V30 3773 C 352.698 1.26382 1.97648 0
M  V30 3774 C 353.714 0.173548 1.73132 0
M  V30 3775 O 354.89 0.397962 1.97429 0
M  V30 3776 C 351.955 1.00769 3.31733 0
M  V30 3777 C 351.016 2.1884 3.69334 0
M  V30 3778 C 350.249 1.9444 4.9702 0
M  V30 3779 O 350.472 0.896961 5.63303 0
M  V30 3780 O 349.406 2.81093 5.32231 0
M  V30 3781 H 353.232 2.22444 2.06767 0
M  V30 3782 H 350.817 1.13795 0.968037 0
M  V30 3783 H 352.699 0.882186 4.12062 0
M  V30 3784 H 351.374 0.0773783 3.23608 0
M  V30 3785 H 350.281 2.36946 2.89495 0
M  V30 3786 H 351.614 3.10221 3.82131 0
M  V30 3787 N 353.266 -1.05314 1.17247 0
M  V30 3788 C 354.491 -1.82509 0.985148 0
M  V30 3789 C 354.916 -1.82343 -0.461788 0
M  V30 3790 O 354.274 -1.23151 -1.33055 0
M  V30 3791 C 354.322 -3.26566 1.52929 0
M  V30 3792 O 353.426 -4.05666 0.742225 0
M  V30 3793 H 352.767 -0.564347 0.349869 0
M  V30 3794 H 355.297 -1.32718 1.55715 0
M  V30 3795 H 355.307 -3.77369 1.55103 0
M  V30 3796 H 353.982 -3.26001 2.58256 0
M  V30 3797 H 352.559 -3.64397 0.791794 0
M  V30 3798 N 354.744 -0.972509 -1.24016 0
M  V30 3799 C 355.972 -0.654803 -1.96265 0
M  V30 3800 C 356.387 0.776708 -1.72083 0
M  V30 3801 O 355.744 1.52171 -1.00748 0
M  V30 3802 C 355.795 -0.92592 -3.49441 0
M  V30 3803 O 355.516 -2.30116 -3.72798 0
M  V30 3804 C 357.017 -0.623068 -4.38899 0
M  V30 3805 H 354.237 -0.243907 -0.6251 0
M  V30 3806 H 356.781 -1.30175 -1.57717 0
M  V30 3807 H 354.936 -0.325108 -3.86033 0
M  V30 3808 H 355.35 -2.38483 -4.67147 0
M  V30 3809 H 356.824 -0.863189 -5.45209 0
M  V30 3810 H 357.301 0.442754 -4.36963 0
M  V30 3811 H 357.907 -1.204 -4.07902 0
M  V30 3812 N 356.222 1.38976 -0.743202 0
M  V30 3813 C 357.47 1.99948 -0.29417 0
M  V30 3814 C 357.791 1.59279 1.12495 0
M  V30 3815 O 357.061 0.844808 1.76748 0
M  V30 3816 H 355.641 0.739473 -0.105774 0
M  V30 3817 H 358.303 1.699 -0.954986 0
M  V30 3818 H 357.399 3.10142 -0.349056 0
M  V30 3819 N 357.7 0.491464 1.49741 0
M  V30 3820 C 358.63 -0.28154 2.31796 0
M  V30 3821 C 359.611 -0.971473 1.3963 0
M  V30 3822 O 360.796 -0.964719 1.68543 0
M  V30 3823 C 357.926 -1.35203 3.19902 0
M  V30 3824 C 356.88 -0.782529 4.20786 0
M  V30 3825 C 356.206 -1.95283 4.97764 0
M  V30 3826 C 357.506 0.21999 5.21837 0
M  V30 3827 H 359.2 0.403355 2.96671 0
M  V30 3828 H 356.746 0.195425 1.42668 0
M  V30 3829 H 358.699 -1.90045 3.76113 0
M  V30 3830 H 357.423 -2.06598 2.52953 0
M  V30 3831 H 356.082 -0.255928 3.65706 0
M  V30 3832 H 355.73 -2.65423 4.2727 0
M  V30 3833 H 355.43 -1.57789 5.66018 0
M  V30 3834 H 356.954 -2.50577 5.56816 0
M  V30 3835 H 358.368 -0.23996 5.72798 0
M  V30 3836 H 356.765 0.51026 5.97927 0
M  V30 3837 H 357.835 1.13911 4.7133 0
M  V30 3838 N 359.178 -1.55987 0.224894 0
M  V30 3839 C 360.088 -2.24066 -0.69511 0
M  V30 3840 C 361.104 -1.24939 -1.21104 0
M  V30 3841 O 362.28 -1.5776 -1.25195 0
M  V30 3842 C 359.345 -2.90983 -1.88493 0
M  V30 3843 C 358.406 -4.05462 -1.41064 0
M  V30 3844 C 357.639 -4.69179 -2.54375 0
M  V30 3845 O 357.862 -4.31895 -3.72589 0
M  V30 3846 O 356.796 -5.58108 -2.25386 0
M  V30 3847 H 360.622 -3.03353 -0.145149 0
M  V30 3848 H 358.207 -1.49399 -0.00569476 0
M  V30 3849 H 360.089 -3.33209 -2.57972 0
M  V30 3850 H 358.764 -2.14653 -2.42293 0
M  V30 3851 H 357.671 -3.67798 -0.683774 0
M  V30 3852 H 359.004 -4.83545 -0.918985 0
M  V30 3853 N 360.656 0.0484629 -1.57525 0
M  V30 3854 C 361.603 1.05504 -2.05275 0
M  V30 3855 C 362.573 1.37084 -0.937927 0
M  V30 3856 O 363.758 1.47754 -1.2072 0
M  V30 3857 C 360.898 2.35676 -2.52093 0
M  V30 3858 C 360.011 2.10423 -3.77288 0
M  V30 3859 C 359.146 3.34327 -4.12794 0
M  V30 3860 C 358.185 3.04542 -5.30962 0
M  V30 3861 N 357.322 4.20841 -5.61994 0
M  V30 3862 H 362.162 0.640885 -2.91027 0
M  V30 3863 H 359.699 0.304854 -1.43906 0
M  V30 3864 H 361.657 3.11709 -2.77297 0
M  V30 3865 H 360.287 2.7485 -1.69285 0
M  V30 3866 H 359.339 1.24976 -3.59284 0
M  V30 3867 H 360.651 1.84438 -4.63448 0
M  V30 3868 H 359.805 4.1874 -4.39024 0
M  V30 3869 H 358.544 3.63408 -3.25247 0
M  V30 3870 H 357.549 2.18528 -5.04505 0
M  V30 3871 H 358.774 2.76758 -6.20146 0
M  V30 3872 H 356.72 4.4991 -4.77406 0
M  V30 3873 H 356.637 3.98212 -6.42622 0
M  V30 3874 H 357.905 5.06184 -5.92789 0
M  V30 3875 N 362.134 1.5431 0.320358 0
M  V30 3876 C 363.383 1.7188 1.05546 0
M  V30 3877 C 363.696 0.501143 1.89071 0
M  V30 3878 O 364.902 0.558258 2.65699 0
M  V30 3879 C 363.358 3.04025 1.92605 0
M  V30 3880 C 362.966 4.33207 1.14176 0
M  V30 3881 C 364.71 3.30959 2.65832 0
M  V30 3882 C 362.617 5.56412 2.00399 0
M  V30 3883 H 361.547 0.640547 0.397763 0
M  V30 3884 H 364.198 1.80802 0.313522 0
M  V30 3885 H 362.58 2.89019 2.7071 0
M  V30 3886 H 363.754 4.58989 0.40819 0
M  V30 3887 H 362.069 4.13062 0.526165 0
M  V30 3888 H 364.666 4.20203 3.30656 0
M  V30 3889 H 365.009 2.48979 3.33639 0
M  V30 3890 H 365.542 3.46847 1.94787 0
M  V30 3891 H 362.281 6.41004 1.37094 0
M  V30 3892 H 361.801 5.34844 2.7148 0
M  V30 3893 H 363.48 5.92938 2.58908 0
M  V30 3894 N 363.613 -0.582584 1.46437 0
M  V30 3895 C 364.523 -1.71949 1.59595 0
M  V30 3896 C 365.539 -1.67264 0.479443 0
M  V30 3897 O 366.715 -1.87171 0.743579 0
M  V30 3898 C 363.78 -3.08452 1.58298 0
M  V30 3899 C 362.841 -3.244 2.81182 0
M  V30 3900 C 362.074 -4.54391 2.79937 0
M  V30 3901 O 362.297 -5.38287 1.8869 0
M  V30 3902 O 361.231 -4.73588 3.71481 0
M  V30 3903 H 365.057 -1.63795 2.55744 0
M  V30 3904 H 362.642 -0.749643 1.29231 0
M  V30 3905 H 364.524 -3.89732 1.60271 0
M  V30 3906 H 363.199 -3.17043 0.653094 0
M  V30 3907 H 362.106 -2.42613 2.84763 0
M  V30 3908 H 363.439 -3.20699 3.7338 0
M  V30 3909 N 365.091 -1.34144 -0.827227 0
M  V30 3910 C 366.038 -1.25364 -1.93785 0
M  V30 3911 C 367.008 -0.129774 -1.65592 0
M  V30 3912 O 368.193 -0.310024 -1.88264 0
M  V30 3913 C 365.333 -1.01064 -3.2997 0
M  V30 3914 C 364.446 -2.22185 -3.70484 0
M  V30 3915 C 363.581 -1.91203 -4.95595 0
M  V30 3916 C 362.62 -3.08491 -5.28677 0
M  V30 3917 N 361.757 -2.77421 -6.44967 0
M  V30 3918 H 366.597 -2.20347 -2.00627 0
M  V30 3919 H 364.134 -1.09558 -0.981608 0
M  V30 3920 H 366.092 -0.850139 -4.08446 0
M  V30 3921 H 364.722 -0.0975026 -3.22653 0
M  V30 3922 H 363.774 -2.4917 -2.87434 0
M  V30 3923 H 365.086 -3.0983 -3.90905 0
M  V30 3924 H 364.24 -1.71864 -5.81848 0
M  V30 3925 H 362.979 -1.00812 -4.77167 0
M  V30 3926 H 361.984 -3.28431 -4.40923 0
M  V30 3927 H 363.209 -3.99655 -5.49047 0
M  V30 3928 H 361.155 -1.89601 -6.28003 0
M  V30 3929 H 361.072 -3.58598 -6.6554 0
M  V30 3930 H 362.34 -2.61577 -7.34301 0
M  V30 3931 N 366.569 1.04691 -1.17803 0
M  V30 3932 C 367.501 2.12571 -0.857097 0
M  V30 3933 C 368.514 1.62174 0.142647 0
M  V30 3934 O 369.703 1.78301 -0.0843387 0
M  V30 3935 C 366.803 3.37915 -0.258216 0
M  V30 3936 C 365.976 4.1757 -1.30207 0
M  V30 3937 C 365.035 5.2125 -0.720029 0
M  V30 3938 O 364.061 5.51888 -1.39314 0
M  V30 3939 N 365.263 5.78466 0.485507 0
M  V30 3940 H 368.028 2.40698 -1.78562 0
M  V30 3941 H 365.589 1.20831 -1.07757 0
M  V30 3942 H 367.581 4.04442 0.144584 0
M  V30 3943 H 366.151 3.07281 0.574199 0
M  V30 3944 H 365.371 3.46458 -1.88043 0
M  V30 3945 H 366.659 4.67586 -2.00601 0
M  V30 3946 H 366.057 5.55866 1.05022 0
M  V30 3947 H 364.614 6.4649 0.830307 0
M  V30 3948 N 368.047 0.979072 1.23499 0
M  V30 3949 C 368.977 0.537606 2.27227 0
M  V30 3950 C 369.958 -0.428539 1.64613 0
M  V30 3951 O 371.143 -0.322191 1.91509 0
M  V30 3952 C 368.273 -0.162052 3.46922 0
M  V30 3953 C 367.227 0.721242 4.21879 0
M  V30 3954 C 366.553 -0.110555 5.34586 0
M  V30 3955 C 367.853 2.01141 4.82016 0
M  V30 3956 H 369.547 1.40462 2.64406 0
M  V30 3957 H 367.093 0.67684 1.27102 0
M  V30 3958 H 369.046 -0.482192 4.18632 0
M  V30 3959 H 367.77 -1.06351 3.08799 0
M  V30 3960 H 366.429 1.02482 3.51984 0
M  V30 3961 H 366.077 -1.0125 4.92704 0
M  V30 3962 H 365.777 0.477325 5.85658 0
M  V30 3963 H 367.301 -0.425107 6.09118 0
M  V30 3964 H 368.715 1.75612 5.45741 0
M  V30 3965 H 367.112 2.54695 5.43369 0
M  V30 3966 H 368.182 2.69909 4.02836 0
M  V30 3967 N 369.525 -1.3858 0.750561 0
M  V30 3968 C 370.473 -2.32339 0.110162 0
M  V30 3969 C 371.467 -1.53864 -0.708674 0
M  V30 3970 O 372.673 -1.69417 -0.608112 0
M  V30 3971 H 369.048 -0.751812 0.0168275 0
M  V30 3972 H 371.019 -2.83959 0.917053 0
M  V30 3973 C 369.768 -3.39043 -0.771067 0
M  V30 3974 H 369.091 -3.99517 -0.150374 0
M  V30 3975 H 370.531 -4.07061 -1.1865 0
M  V30 3976 C 368.99 -2.77365 -1.91234 0
M  V30 3977 O 369.52 -2.66434 -3.00626 0
M  V30 3978 N 367.726 -2.35219 -1.70646 0
M  V30 3979 H 367.273 -2.4431 -0.81673 0
M  V30 3980 H 367.231 -1.94294 -2.47178 0
M  V30 3981 N 371.003 -0.499398 -1.49478 0
M  V30 3982 C 372.228 0.044722 -2.07352 0
M  V30 3983 C 372.653 1.30207 -1.35749 0
M  V30 3984 O 372.011 1.76516 -0.413732 0
M  V30 3985 C 372.059 0.283013 -3.59488 0
M  V30 3986 O 371.163 1.35804 -3.89398 0
M  V30 3987 H 370.504 -0.0255147 -0.66351 0
M  V30 3988 H 373.034 -0.698561 -1.92305 0
M  V30 3989 H 373.044 0.515007 -4.04737 0
M  V30 3990 H 371.719 -0.635636 -4.11014 0
M  V30 3991 H 370.296 1.11113 -3.55961 0
M  V30 3992 N 372.481 1.55866 -0.233164 0
M  V30 3993 C 373.391 2.24431 0.683217 0
M  V30 3994 C 374.407 1.2558 1.2044 0
M  V30 3995 O 375.583 1.58422 1.24356 0
M  V30 3996 C 372.648 2.91979 1.86947 0
M  V30 3997 C 371.709 4.06204 1.38912 0
M  V30 3998 C 370.942 4.70522 2.51883 0
M  V30 3999 O 371.165 4.33865 3.70293 0
M  V30 4000 O 370.099 5.59296 2.22423 0
M  V30 4001 H 373.925 3.03426 0.129059 0
M  V30 4002 H 371.51 1.494 -0.0022283 0
M  V30 4003 H 373.392 3.34573 2.56201 0
M  V30 4004 H 372.067 2.15935 2.41151 0
M  V30 4005 H 370.974 3.68155 0.664259 0
M  V30 4006 H 372.307 4.84025 0.893328 0
M  V30 4007 N 373.959 -0.0401083 1.57549 0
M  V30 4008 C 375.184 -0.748931 1.93406 0
M  V30 4009 C 375.609 -1.68686 0.832274 0
M  V30 4010 O 374.967 -1.80047 -0.212818 0
M  V30 4011 C 375.015 -1.4916 3.28304 0
M  V30 4012 O 374.119 -2.6042 3.19774 0
M  V30 4013 H 373.46 -0.202212 0.63246 0
M  V30 4014 H 375.99 0.00112086 2.046 0
M  V30 4015 H 376 -1.86395 3.62934 0
M  V30 4016 H 374.675 -0.80364 4.08062 0
M  V30 4017 H 373.252 -2.25808 2.96758 0
M  V30 4018 N 375.437 -1.54477 -0.31217 0
M  V30 4019 C 376.367 -1.87652 -1.38957 0
M  V30 4020 C 377.348 -0.734358 -1.53431 0
M  V30 4021 O 378.533 -0.98911 -1.67123 0
M  V30 4022 C 375.663 -2.11396 -2.75552 0
M  V30 4023 C 374.617 -3.27243 -2.75855 0
M  V30 4024 C 373.943 -3.36382 -4.15633 0
M  V30 4025 C 375.243 -4.64622 -2.38587 0
M  V30 4026 H 376.937 -2.77887 -1.11442 0
M  V30 4027 H 374.483 -1.33707 -0.534655 0
M  V30 4028 H 376.436 -2.33189 -3.51 0
M  V30 4029 H 375.16 -1.17921 -3.04569 0
M  V30 4030 H 373.819 -3.05356 -2.02863 0
M  V30 4031 H 373.467 -2.40445 -4.41809 0
M  V30 4032 H 373.167 -4.14249 -4.1674 0
M  V30 4033 H 374.691 -3.60422 -4.92877 0
M  V30 4034 H 376.105 -4.86219 -3.03749 0
M  V30 4035 H 374.502 -5.45121 -2.50925 0
M  V30 4036 H 375.572 -4.66097 -1.33723 0
M  V30 4037 N 376.915 0.57481 -1.46744 0
M  V30 4038 C 378.14 1.36341 -1.56288 0
M  V30 4039 C 378.565 1.86954 -0.207347 0
M  V30 4040 O 377.923 1.62006 0.813871 0
M  V30 4041 C 377.971 2.52147 -2.57787 0
M  V30 4042 O 377.075 3.53834 -2.11838 0
M  V30 4043 H 376.416 0.405713 -0.525636 0
M  V30 4044 H 378.946 0.696453 -1.92382 0
M  V30 4045 H 378.956 2.98958 -2.77648 0
M  V30 4046 H 377.631 2.14663 -3.5622 0
M  V30 4047 H 376.208 3.1345 -2.01999 0
M  V30 4048 N 378.394 1.34581 0.820102 0
M  V30 4049 C 379.326 1.22236 1.93884 0
M  V30 4050 C 380.339 0.148776 1.62119 0
M  V30 4051 O 381.528 0.400877 1.7394 0
M  V30 4052 C 378.628 0.856542 3.27897 0
M  V30 4053 C 377.801 2.02569 3.87666 0
M  V30 4054 C 376.86 1.63782 5.00062 0
M  V30 4055 O 375.886 2.35477 5.18208 0
M  V30 4056 N 377.088 0.553611 5.77854 0
M  V30 4057 H 379.853 2.18615 2.05006 0
M  V30 4058 H 377.414 1.27573 0.99683 0
M  V30 4059 H 379.406 0.578806 4.0054 0
M  V30 4060 H 377.976 -0.0171518 3.12595 0
M  V30 4061 H 377.196 2.468 3.07382 0
M  V30 4062 H 378.484 2.80752 4.24329 0
M  V30 4063 H 377.882 -0.0423528 5.65684 0
M  V30 4064 H 376.439 0.335614 6.50935 0
M  V30 4065 N 379.872 -1.04064 1.18357 0
M  V30 4066 C 381.118 -1.77658 0.990412 0
M  V30 4067 C 381.473 -1.86446 -0.474944 0
M  V30 4068 O 380.766 -1.36153 -1.34807 0
M  V30 4069 C 380.96 -3.20634 1.57888 0
M  V30 4070 C 380.789 -3.25782 3.09994 0
M  V30 4071 C 379.559 -3.34411 3.7881 0
M  V30 4072 C 381.757 -3.13791 4.0748 0
M  V30 4073 N 379.739 -3.28809 5.18418 0
M  V30 4074 C 381.11 -3.15689 5.33611 0
M  V30 4075 C 383.165 -2.97833 3.98998 0
M  V30 4076 C 381.868 -3.03268 6.52243 0
M  V30 4077 C 383.894 -2.86759 5.17227 0
M  V30 4078 C 383.256 -2.893 6.4225 0
M  V30 4079 H 379.355 -0.661901 0.416427 0
M  V30 4080 H 381.939 -1.23968 1.50133 0
M  V30 4081 H 380.11 -3.7267 1.09414 0
M  V30 4082 H 381.842 -3.82525 1.32124 0
M  V30 4083 H 378.597 -3.40144 3.29543 0
M  V30 4084 H 379.021 -3.29448 5.91433 0
M  V30 4085 H 383.663 -2.94698 3.03171 0
M  V30 4086 H 381.381 -3.05156 7.48268 0
M  V30 4087 H 384.967 -2.75465 5.12455 0
M  V30 4088 H 383.847 -2.80818 7.32196 0
M  V30 4089 N 381.35 -0.985608 -1.22978 0
M  V30 4090 C 382.578 -0.675582 -1.95559 0
M  V30 4091 C 382.993 0.758413 -1.72897 0
M  V30 4092 O 382.35 1.51094 -1.02357 0
M  V30 4093 C 382.401 -0.96293 -3.48439 0
M  V30 4094 O 382.122 -2.34057 -3.70336 0
M  V30 4095 C 383.623 -0.669585 -4.38214 0
M  V30 4096 H 380.843 -0.250523 -0.622478 0
M  V30 4097 H 383.387 -1.3184 -1.56328 0
M  V30 4098 H 381.542 -0.366033 -3.85667 0
M  V30 4099 H 381.956 -2.43424 -4.64591 0
M  V30 4100 H 383.43 -0.920967 -5.44263 0
M  V30 4101 H 383.907 0.396383 -4.37408 0
M  V30 4102 H 384.513 -1.2472 -4.06602 0
M  V30 4103 N 382.828 1.3818 -0.7579 0
M  V30 4104 C 383.776 2.32277 -0.122482 0
M  V30 4105 C 384.77 1.54238 0.700505 0
M  V30 4106 O 385.976 1.69737 0.599119 0
M  V30 4107 H 382.351 0.751712 -0.0208143 0
M  V30 4108 H 384.322 2.83469 -0.932099 0
M  V30 4109 C 383.071 3.39447 0.753076 0
M  V30 4110 H 382.394 3.99591 0.129184 0
M  V30 4111 H 383.834 4.07684 1.16489 0
M  V30 4112 C 382.293 2.78375 1.8976 0
M  V30 4113 O 382.823 2.68025 2.99208 0
M  V30 4114 N 381.029 2.36121 1.69397 0
M  V30 4115 H 380.576 2.4474 0.803762 0
M  V30 4116 H 380.534 1.95602 2.46145 0
M  V30 4117 N 384.306 0.507319 1.49211 0
M  V30 4118 C 385.717 0.0611118 1.866 0
M  V30 4119 C 386.068 -1.35488 1.41907 0
M  V30 4120 O 385.193 -2.0108 0.799726 0
M  V30 4121 C 385.788 0.104125 3.3864 0
M  V30 4122 C 384.347 -0.28677 3.75306 0
M  V30 4123 C 383.494 0.473893 2.73221 0
M  V30 4124 H 386.445 0.719775 1.41439 0
M  V30 4125 H 386.466 -0.689672 3.74198 0
M  V30 4126 H 385.978 1.13482 3.71138 0
M  V30 4127 H 384.079 -1.32046 3.48417 0
M  V30 4128 H 384.192 0.0370745 4.79086 0
M  V30 4129 H 382.556 -0.0770644 2.54583 0
M  V30 4130 H 383.339 1.50478 3.08563 0
M  V30 4131 N 385.784 -1.5574 0.241426 0
M  V30 4132 C 387.009 -2.0366 -0.392111 0
M  V30 4133 C 387.434 -1.11969 -1.51144 0
M  V30 4134 O 386.792 -0.111594 -1.80956 0
M  V30 4135 C 386.84 -3.49638 -0.882371 0
M  V30 4136 O 385.944 -3.6108 -1.99235 0
M  V30 4137 H 385.285 -0.658379 -0.0862122 0
M  V30 4138 H 387.815 -2.01302 0.365881 0
M  V30 4139 H 387.825 -3.90351 -1.18702 0
M  V30 4140 H 386.5 -4.15852 -0.0632361 0
M  V30 4141 H 385.077 -3.32262 -1.69282 0
M  V30 4142 N 387.262 0.0317525 -1.57568 0
M  V30 4143 C 388.49 0.734949 -1.93407 0
M  V30 4144 C 388.905 1.69036 -0.84096 0
M  V30 4145 O 388.262 1.81582 0.182836 0
M  V30 4146 C 388.313 1.49432 -3.29169 0
M  V30 4147 O 388.034 0.577261 -4.3428 0
M  V30 4148 C 389.535 2.29492 -3.79273 0
M  V30 4149 H 386.755 0.206706 -0.638368 0
M  V30 4150 H 389.299 -0.00992046 -2.04498 0
M  V30 4151 H 387.454 2.1911 -3.19483 0
M  V30 4152 H 387.868 1.10952 -5.1263 0
M  V30 4153 H 389.342 2.78172 -4.76785 0
M  V30 4154 H 389.819 3.10794 -3.10328 0
M  V30 4155 H 390.425 1.64894 -3.92033 0
M  V30 4156 N 388.74 1.54641 0.303973 0
M  V30 4157 C 389.673 1.80263 1.3993 0
M  V30 4158 C 390.651 0.653657 1.48883 0
M  V30 4159 O 391.835 0.893284 1.6599 0
M  V30 4160 C 388.962 1.9367 2.77866 0
M  V30 4161 C 388.008 3.16078 2.86351 0
M  V30 4162 S 388.841 4.74219 2.4875 0
M  V30 4163 C 389.997 4.90558 3.88721 0
M  V30 4164 H 390.23 2.72886 1.17986 0
M  V30 4165 H 387.763 1.46014 0.501918 0
M  V30 4166 H 389.721 2.0208 3.57315 0
M  V30 4167 H 388.382 1.01991 2.9708 0
M  V30 4168 H 387.575 3.22252 3.87517 0
M  V30 4169 H 387.177 3.06099 2.14893 0
M  V30 4170 H 389.469 4.74398 4.83687 0
M  V30 4171 H 390.412 5.92651 3.87518 0
M  V30 4172 H 390.82 4.18728 3.78585 0
M  V30 4173 N 390.218 -0.567019 1.47046 0
M  V30 4174 C 391.181 -1.65696 1.58359 0
M  V30 4175 C 392.181 -1.54097 0.459441 0
M  V30 4176 O 393.371 -1.58432 0.724225 0
M  V30 4177 C 390.503 -3.05197 1.51879 0
M  V30 4178 H 391.696 -1.57019 2.5551 0
M  V30 4179 H 389.249 -0.786148 1.3509 0
M  V30 4180 H 389.984 -3.19417 0.560673 0
M  V30 4181 H 389.769 -3.15025 2.33455 0
M  V30 4182 H 391.259 -3.84511 1.62913 0
M  V30 4183 N 391.696 -1.35014 -0.812953 0
M  V30 4184 C 392.644 -1.27435 -1.94585 0
M  V30 4185 C 393.638 -0.170494 -1.6854 0
M  V30 4186 O 394.844 -0.336085 -1.76835 0
M  V30 4187 H 391.219 -0.396144 -0.639198 0
M  V30 4188 H 393.19 -2.23158 -1.98098 0
M  V30 4189 C 391.939 -1.05677 -3.31252 0
M  V30 4190 H 391.262 -1.89853 -3.51846 0
M  V30 4191 H 392.702 -1.04413 -4.10943 0
M  V30 4192 C 391.161 0.239615 -3.36047 0
M  V30 4193 O 391.691 1.23759 -3.8216 0
M  V30 4194 N 389.897 0.276186 -2.89285 0
M  V30 4195 H 389.444 -0.53653 -2.51951 0
M  V30 4196 H 389.402 1.14332 -2.92875 0
M  V30 4197 N 393.175 1.03435 -1.18907 0
M  V30 4198 C 394.138 2.09756 -0.923844 0
M  V30 4199 C 395.138 1.60528 0.093416 0
M  V30 4200 O 396.328 1.73631 -0.140727 0
M  V30 4201 C 393.46 3.38692 -0.387354 0
M  V30 4202 H 394.653 2.34719 -1.86674 0
M  V30 4203 H 392.206 1.19959 -1.00197 0
M  V30 4204 H 392.941 3.19396 0.561845 0
M  V30 4205 H 392.726 3.75742 -1.12074 0
M  V30 4206 H 394.216 4.17016 -0.220694 0
M  V30 4207 N 394.653 0.992116 1.22453 0
M  V30 4208 C 395.6 0.541731 2.24352 0
M  V30 4209 C 396.57 -0.425519 1.60557 0
M  V30 4210 O 397.755 -0.330453 1.87917 0
M  V30 4211 C 394.895 -0.138248 3.44823 0
M  V30 4212 C 394.008 0.870649 4.23136 0
M  V30 4213 C 393.143 0.164269 5.30946 0
M  V30 4214 C 392.182 1.16159 6.00977 0
M  V30 4215 N 391.319 0.483568 7.00433 0
M  V30 4216 H 396.159 1.41541 2.62241 0
M  V30 4217 H 393.696 0.709013 1.28885 0
M  V30 4218 H 395.654 -0.5494 4.13567 0
M  V30 4219 H 394.284 -0.975721 3.077 0
M  V30 4220 H 393.336 1.40013 3.53696 0
M  V30 4221 H 394.648 1.63014 4.7141 0
M  V30 4222 H 393.802 -0.303653 6.0594 0
M  V30 4223 H 392.541 -0.627733 4.83643 0
M  V30 4224 H 391.546 1.64015 5.24766 0
M  V30 4225 H 392.771 1.95445 6.50368 0
M  V30 4226 H 390.717 -0.289012 6.55363 0
M  V30 4227 H 390.634 1.18152 7.4671 0
M  V30 4228 H 391.902 0.0384219 7.79491 0
M  V30 4229 N 396.131 -1.37776 0.765217 0
M  V30 4230 C 397.377 -2.00145 0.327072 0
M  V30 4231 C 397.71 -1.60607 -1.09175 0
M  V30 4232 O 396.985 -0.849127 -1.74986 0
M  V30 4233 C 397.268 -3.57109 0.46319 0
M  V30 4234 C 397.121 -4.06576 1.92395 0
M  V30 4235 C 398.44 -4.39888 -0.136473 0
M  V30 4236 H 395.559 -0.727113 0.120316 0
M  V30 4237 H 398.201 -1.63549 0.967039 0
M  V30 4238 H 396.351 -3.88414 -0.0816358 0
M  V30 4239 H 398.023 -3.85864 2.52798 0
M  V30 4240 H 396.266 -3.59011 2.43503 0
M  V30 4241 H 396.937 -5.15639 1.97028 0
M  V30 4242 H 399.413 -4.14803 0.328317 0
M  V30 4243 H 398.289 -5.48899 -0.0110582 0
M  V30 4244 H 398.55 -4.24758 -1.22608 0
M  V30 4245 N 397.609 -0.515225 -1.4894 0
M  V30 4246 C 398.556 0.255567 -2.29381 0
M  V30 4247 C 399.526 0.947387 -1.36432 0
M  V30 4248 O 400.711 0.951288 -1.65394 0
M  V30 4249 C 397.851 1.30551 -3.19453 0
M  V30 4250 C 396.964 0.624029 -4.27469 0
M  V30 4251 C 396.099 1.65563 -5.0474 0
M  V30 4252 C 395.138 0.956802 -6.04576 0
M  V30 4253 N 394.275 1.93326 -6.74959 0
M  V30 4254 H 399.115 -0.436607 -2.94784 0
M  V30 4255 H 396.652 -0.227154 -1.45336 0
M  V30 4256 H 398.61 1.92639 -3.70062 0
M  V30 4257 H 397.24 1.96626 -2.56004 0
M  V30 4258 H 396.292 -0.110459 -3.8024 0
M  V30 4259 H 397.604 0.0746092 -4.98744 0
M  V30 4260 H 396.758 2.35119 -5.59289 0
M  V30 4261 H 395.497 2.23893 -4.3327 0
M  V30 4262 H 394.502 0.247097 -5.49244 0
M  V30 4263 H 395.727 0.379814 -6.78037 0
M  V30 4264 H 393.673 2.50591 -6.06251 0
M  V30 4265 H 393.59 1.43489 -7.42258 0
M  V30 4266 H 394.858 2.62126 -7.34105 0
M  V30 4267 N 399.087 1.5561 -0.249682 0
M  V30 4268 C 400.017 2.24477 0.642826 0
M  V30 4269 C 400.998 1.22601 1.17911 0
M  V30 4270 O 402.183 1.5126 1.21795 0
M  V30 4271 C 399.313 2.94638 1.83863 0
M  V30 4272 C 398.267 4.03227 1.435 0
M  V30 4273 C 397.593 4.60828 2.71186 0
M  V30 4274 C 398.893 5.18796 0.604002 0
M  V30 4275 H 400.587 2.99321 0.0685625 0
M  V30 4276 H 398.133 1.43965 0.0315363 0
M  V30 4277 H 400.086 3.41517 2.46868 0
M  V30 4278 H 398.81 2.17287 2.43832 0
M  V30 4279 H 397.469 3.57121 0.828275 0
M  V30 4280 H 397.117 3.80174 3.29358 0
M  V30 4281 H 396.817 5.34132 2.44901 0
M  V30 4282 H 398.341 5.10442 3.35084 0
M  V30 4283 H 399.755 5.61883 1.13842 0
M  V30 4284 H 398.152 5.98506 0.437097 0
M  V30 4285 H 399.222 4.83384 -0.383147 0
M  V30 4286 N 400.565 -0.0233959 1.57583 0
M  V30 4287 C 401.79 -0.728376 1.94189 0
M  V30 4288 C 402.215 -1.67793 0.850119 0
M  V30 4289 O 401.573 -1.80262 -0.19371 0
M  V30 4290 C 401.621 -1.45669 3.29868 0
M  V30 4291 O 400.725 -2.57013 3.22518 0
M  V30 4292 H 400.066 -0.195493 0.63457 0
M  V30 4293 H 402.596 0.0228214 2.04587 0
M  V30 4294 H 402.606 -1.82535 3.6489 0
M  V30 4295 H 401.281 -0.760314 4.08891 0
M  V30 4296 H 399.858 -2.22648 2.99136 0
M  V30 4297 N 402.043 -1.548 -0.295768 0
M  V30 4298 C 403.292 -1.73538 -1.02798 0
M  V30 4299 C 403.605 -0.531159 -1.8825 0
M  V30 4300 O 404.811 -0.600458 -2.64777 0
M  V30 4301 C 403.267 -3.07051 -1.87744 0
M  V30 4302 C 402.875 -4.34968 -1.07269 0
M  V30 4303 C 404.619 -3.35146 -2.60533 0
M  V30 4304 C 402.526 -5.5953 -1.91521 0
M  V30 4305 H 401.456 -0.646794 -0.387522 0
M  V30 4306 H 404.107 -1.81278 -0.284718 0
M  V30 4307 H 402.489 -2.93289 -2.66078 0
M  V30 4308 H 403.663 -4.5958 -0.335117 0
M  V30 4309 H 401.978 -4.13847 -0.460384 0
M  V30 4310 H 404.575 -4.2541 -3.23929 0
M  V30 4311 H 404.918 -2.54255 -3.29636 0
M  V30 4312 H 405.451 -3.49902 -1.89244 0
M  V30 4313 H 402.19 -6.43103 -1.26878 0
M  V30 4314 H 401.71 -5.39096 -2.62937 0
M  V30 4315 H 403.389 -5.96982 -2.49442 0
M  V30 4316 N 403.521 0.559213 -1.47345 0
M  V30 4317 C 404.932 1.14134 -1.47751 0
M  V30 4318 C 405.283 1.94834 -0.231103 0
M  V30 4319 O 404.408 2.05957 0.664137 0
M  V30 4320 C 405.003 2.07653 -2.67705 0
M  V30 4321 C 403.562 2.61141 -2.71076 0
M  V30 4322 C 402.709 1.3748 -2.40821 0
M  V30 4323 H 405.66 0.345917 -1.54884 0
M  V30 4324 H 405.681 2.91497 -2.44561 0
M  V30 4325 H 405.193 1.4889 -3.58404 0
M  V30 4326 H 403.294 3.23707 -1.84511 0
M  V30 4327 H 403.407 3.02272 -3.7171 0
M  V30 4328 H 401.771 1.68086 -1.91362 0
M  V30 4329 H 402.554 0.805135 -3.33725 0
M  V30 4330 N 404.999 1.35443 0.805782 0
M  V30 4331 C 405.946 1.28431 1.91766 0
M  V30 4332 C 406.916 0.156102 1.65365 0
M  V30 4333 O 408.101 0.339936 1.87747 0
M  V30 4334 C 405.241 1.06301 3.2832 0
M  V30 4335 C 404.354 2.2805 3.66902 0
M  V30 4336 C 403.489 1.99064 4.92491 0
M  V30 4337 C 402.528 3.16863 5.23703 0
M  V30 4338 N 401.665 2.87647 6.40471 0
M  V30 4339 H 406.505 2.23511 1.97096 0
M  V30 4340 H 404.042 1.11105 0.964054 0
M  V30 4341 H 406 0.915012 4.07042 0
M  V30 4342 H 404.63 0.148822 3.22457 0
M  V30 4343 H 403.682 2.53711 2.83434 0
M  V30 4344 H 404.994 3.1601 3.85927 0
M  V30 4345 H 404.148 1.81099 5.7904 0
M  V30 4346 H 402.887 1.0839 4.75503 0
M  V30 4347 H 401.892 3.35404 4.35642 0
M  V30 4348 H 403.117 4.08339 5.4262 0
M  V30 4349 H 401.063 1.99568 6.24907 0
M  V30 4350 H 400.98 3.69141 6.59751 0
M  V30 4351 H 402.248 2.73226 7.30047 0
M  V30 4352 N 406.477 -1.02803 1.19454 0
M  V30 4353 C 407.724 -1.76217 0.997693 0
M  V30 4354 C 408.052 -1.887 -0.47144 0
M  V30 4355 O 407.307 -1.4011 -1.3663 0
M  V30 4356 C 407.606 -3.18941 1.6128 0
M  V30 4357 C 407.272 -3.26463 3.11019 0
M  V30 4358 C 405.934 -3.28223 3.51885 0
M  V30 4359 C 408.286 -3.25542 4.07028 0
M  V30 4360 C 405.614 -3.26719 4.8731 0
M  V30 4361 C 407.966 -3.25579 5.42385 0
M  V30 4362 C 406.63 -3.25637 5.82681 0
M  V30 4363 H 405.9 -0.644823 0.365082 0
M  V30 4364 H 408.547 -1.20655 1.4871 0
M  V30 4365 H 406.852 -3.77587 1.04572 0
M  V30 4366 H 408.549 -3.74415 1.43577 0
M  V30 4367 H 405.139 -3.25822 2.78457 0
M  V30 4368 H 409.323 -3.23362 3.76498 0
M  V30 4369 H 404.579 -3.25089 5.1781 0
M  V30 4370 H 408.753 -3.23817 6.16535 0
M  V30 4371 H 406.38 -3.24226 6.87591 0
M  V30 4372 N 407.956 -0.998596 -1.21925 0
M  V30 4373 C 408.903 -0.553621 -2.24062 0
M  V30 4374 C 409.873 0.416999 -1.6078 0
M  V30 4375 O 411.058 0.320482 -1.88089 0
M  V30 4376 C 408.198 0.119959 -3.44891 0
M  V30 4377 C 407.311 -0.893077 -4.22668 0
M  V30 4378 C 406.446 -0.192424 -5.30851 0
M  V30 4379 C 405.485 -1.19344 -6.00353 0
M  V30 4380 N 404.622 -0.520707 -7.00166 0
M  V30 4381 H 409.462 -1.4293 -2.61486 0
M  V30 4382 H 406.999 -0.715838 -1.28507 0
M  V30 4383 H 408.957 0.527459 -4.13852 0
M  V30 4384 H 407.587 0.959389 -3.08214 0
M  V30 4385 H 406.639 -1.41886 -3.52948 0
M  V30 4386 H 407.951 -1.65512 -4.70539 0
M  V30 4387 H 407.105 0.271515 -6.06092 0
M  V30 4388 H 405.844 0.602075 -4.83969 0
M  V30 4389 H 404.849 -1.66795 -5.23889 0
M  V30 4390 H 406.074 -1.98891 -6.49322 0
M  V30 4391 H 404.02 0.254252 -6.55507 0
M  V30 4392 H 403.937 -1.2211 -7.46073 0
M  V30 4393 H 405.205 -0.0797596 -7.79459 0
M  V30 4394 N 409.434 1.37368 -0.772513 0
M  V30 4395 C 410.68 1.99969 -0.337681 0
M  V30 4396 C 411.013 1.61184 1.08321 0
M  V30 4397 O 410.288 0.858395 1.74533 0
M  V30 4398 C 410.571 3.56858 -0.482121 0
M  V30 4399 C 410.424 4.0555 -1.94549 0
M  V30 4400 C 411.743 4.39955 0.113143 0
M  V30 4401 H 408.862 0.726464 -0.124171 0
M  V30 4402 H 411.504 1.63034 -0.975699 0
M  V30 4403 H 409.654 3.88452 0.0610361 0
M  V30 4404 H 411.326 3.84518 -2.54841 0
M  V30 4405 H 409.569 3.57715 -2.45403 0
M  V30 4406 H 410.24 5.14587 -1.9976 0
M  V30 4407 H 412.716 4.14623 -0.35031 0
M  V30 4408 H 411.592 5.48897 -0.0180514 0
M  V30 4409 H 411.853 4.25403 1.20354 0
M  V30 4410 N 410.912 0.523116 1.48665 0
M  V30 4411 C 411.822 -0.247406 2.33292 0
M  V30 4412 C 412.838 -0.945769 1.46052 0
M  V30 4413 O 414.014 -0.922253 1.79043 0
M  V30 4414 C 411.079 -1.28487 3.22012 0
M  V30 4415 C 410.14 -0.597592 4.2512 0
M  V30 4416 C 409.373 -1.58563 5.09601 0
M  V30 4417 O 409.596 -2.81763 4.95949 0
M  V30 4418 O 408.53 -1.12879 5.91221 0
M  V30 4419 H 412.356 0.445869 3.00409 0
M  V30 4420 H 409.941 0.284128 1.46673 0
M  V30 4421 H 411.823 -1.88459 3.7691 0
M  V30 4422 H 410.498 -1.96068 2.57564 0
M  V30 4423 H 409.405 0.0424407 3.74076 0
M  V30 4424 H 410.738 0.0361517 4.92187 0
M  V30 4425 N 412.39 -1.55475 0.257931 0
M  V30 4426 C 413.337 -2.21837 -0.636939 0
M  V30 4427 C 414.307 -1.18596 -1.16294 0
M  V30 4428 O 415.492 -1.47081 -1.21539 0
M  V30 4429 C 412.632 -2.9301 -1.82317 0
M  V30 4430 C 411.745 -4.10931 -1.33265 0
M  V30 4431 C 410.88 -4.69791 -2.47931 0
M  V30 4432 C 409.919 -5.7994 -1.95796 0
M  V30 4433 N 409.056 -6.32935 -3.0387 0
M  V30 4434 H 413.896 -2.9793 -0.0643591 0
M  V30 4435 H 411.433 -1.47086 -0.0200031 0
M  V30 4436 H 413.391 -3.3248 -2.52018 0
M  V30 4437 H 412.021 -2.1937 -2.36805 0
M  V30 4438 H 411.073 -3.76699 -0.52931 0
M  V30 4439 H 412.385 -4.90417 -0.910654 0
M  V30 4440 H 411.539 -5.11892 -3.25656 0
M  V30 4441 H 410.278 -3.89545 -2.93438 0
M  V30 4442 H 409.283 -5.37305 -1.16546 0
M  V30 4443 H 410.508 -6.62043 -1.51246 0
M  V30 4444 H 408.454 -5.55591 -3.48791 0
M  V30 4445 H 408.371 -7.07645 -2.66035 0
M  V30 4446 H 409.639 -6.79695 -3.81621 0
M  V30 4447 N 413.868 0.0150385 -1.57593 0
M  V30 4448 C 414.801 1.04475 -2.0288 0
M  V30 4449 C 415.779 1.3436 -0.915764 0
M  V30 4450 O 416.963 1.46779 -1.18271 0
M  V30 4451 C 414.09 2.37608 -2.41371 0
M  V30 4452 C 413.136 2.23487 -3.63257 0
M  V30 4453 S 413.969 1.57505 -5.11813 0
M  V30 4454 C 415.125 2.921 -5.5356 0
M  V30 4455 H 415.358 0.65907 -2.89903 0
M  V30 4456 H 412.891 0.225452 -1.52745 0
M  V30 4457 H 414.849 3.14165 -2.64217 0
M  V30 4458 H 413.51 2.7332 -1.54775 0
M  V30 4459 H 412.703 3.21802 -3.87891 0
M  V30 4460 H 412.305 1.55074 -3.40335 0
M  V30 4461 H 414.597 3.88419 -5.55101 0
M  V30 4462 H 415.54 2.72184 -6.53698 0
M  V30 4463 H 415.948 2.95318 -4.8109 0
M  V30 4464 N 415.346 1.54954 0.287554 0
M  V30 4465 C 416.595 1.74081 1.01877 0
M  V30 4466 C 416.908 0.541135 1.87966 0
M  V30 4467 O 418.114 0.614491 2.64455 0
M  V30 4468 C 416.57 3.08042 1.86113 0
M  V30 4469 C 416.178 4.35531 1.04961 0
M  V30 4470 C 417.922 3.36523 2.58752 0
M  V30 4471 C 415.829 5.60538 1.88551 0
M  V30 4472 H 414.759 0.64884 0.384087 0
M  V30 4473 H 417.41 1.81426 0.275101 0
M  V30 4474 H 415.792 2.94696 2.64519 0
M  V30 4475 H 416.966 4.59751 0.31074 0
M  V30 4476 H 415.281 4.14085 0.43843 0
M  V30 4477 H 417.878 4.27122 3.21668 0
M  V30 4478 H 418.221 2.56 3.28283 0
M  V30 4479 H 418.754 3.50901 1.87386 0
M  V30 4480 H 415.493 6.43767 1.23466 0
M  V30 4481 H 415.013 5.40483 2.60074 0
M  V30 4482 H 416.692 5.98297 2.46273 0
M  V30 4483 N 416.824 -0.551391 1.4764 0
M  V30 4484 C 418.101 -1.31229 1.45046 0
M  V30 4485 C 418.481 -2.10563 0.150527 0
M  V30 4486 O 417.829 -2.11374 -0.867956 0
M  V30 4487 C 418.039 -2.21189 2.69956 0
M  V30 4488 C 419.387 -2.82021 3.1741 0
M  V30 4489 O 420.411 -2.31488 2.70724 0
M  V30 4490 O 419.27 -3.73885 3.98588 0
M  V30 4491 H 416.364 -0.591193 0.578291 0
M  V30 4492 H 418.91 -0.569813 1.59847 0
M  V30 4493 H 417.682 -1.62207 3.56096 0
M  V30 4494 H 417.305 -3.02722 2.57769 0
M  V30 4495 N 418.302 -1.35869 -0.798587 0
M  V30 4496 C 419.713 -1.26498 -1.37314 0
M  V30 4497 C 420.064 0.0991899 -1.95949 0
M  V30 4498 O 419.189 1.0004 -1.91888 0
M  V30 4499 C 419.784 -2.29054 -2.49639 0
M  V30 4500 C 418.343 -2.234 -3.02935 0
M  V30 4501 C 417.49 -2.14329 -1.75949 0
M  V30 4502 H 420.441 -1.46881 -0.600971 0
M  V30 4503 H 420.462 -1.92166 -3.28409 0
M  V30 4504 H 419.974 -3.2833 -2.06933 0
M  V30 4505 H 418.075 -1.27562 -3.50084 0
M  V30 4506 H 418.188 -3.15703 -3.60372 0
M  V30 4507 H 416.552 -1.60435 -1.9782 0
M  V30 4508 H 417.335 -3.15477 -1.35384 0
M  V30 4509 N 419.78 1.02168 -1.19998 0
M  V30 4510 C 420.727 2.10601 -0.944228 0
M  V30 4511 C 421.697 1.65639 0.123664 0
M  V30 4512 O 422.882 1.9079 -0.0199941 0
M  V30 4513 C 420.022 3.41504 -0.496865 0
M  V30 4514 C 419.135 3.99973 -1.63234 0
M  V30 4515 C 418.27 5.18915 -1.13579 0
M  V30 4516 C 417.309 5.69456 -2.24468 0
M  V30 4517 N 416.446 6.79665 -1.76068 0
M  V30 4518 H 421.286 2.31814 -1.8726 0
M  V30 4519 H 418.823 1.13686 -0.933483 0
M  V30 4520 H 420.781 4.16626 -0.218843 0
M  V30 4521 H 419.411 3.2038 0.394508 0
M  V30 4522 H 418.463 3.21997 -2.0254 0
M  V30 4523 H 419.775 4.33492 -2.46752 0
M  V30 4524 H 418.929 6.01222 -0.813429 0
M  V30 4525 H 417.668 4.8695 -0.270434 0
M  V30 4526 H 416.673 4.85757 -2.57526 0
M  V30 4527 H 417.898 6.03459 -3.11472 0
M  V30 4528 H 415.844 6.49538 -0.918516 0
M  V30 4529 H 415.761 7.12349 -2.5317 0
M  V30 4530 H 417.029 7.65549 -1.46817 0
M  V30 4531 N 421.258 1.00505 1.21394 0
M  V30 4532 C 422.221 0.570459 2.21987 0
M  V30 4533 C 423.221 -0.353211 1.56873 0
M  V30 4534 O 424.411 -0.14349 1.73608 0
M  V30 4535 C 421.543 -0.168555 3.40483 0
M  V30 4536 H 422.736 1.46021 2.6195 0
M  V30 4537 H 420.289 0.793565 1.34656 0
M  V30 4538 H 421.024 -1.07374 3.06009 0
M  V30 4539 H 420.809 0.494823 3.88965 0
M  V30 4540 H 422.299 -0.460362 4.15055 0
M  V30 4541 N 422.737 -1.36956 0.779787 0
M  V30 4542 C 423.977 -2.01328 0.353043 0
M  V30 4543 C 424.341 -1.60558 -1.05286 0
M  V30 4544 O 425.542 -2.1745 -1.58016 0
M  V30 4545 C 423.813 -3.53874 0.500822 0
M  V30 4546 S 425.372 -4.38506 0.16053 0
M  V30 4547 H 422.19 -0.69799 0.13539 0
M  V30 4548 H 424.792 -1.67016 1.01617 0
M  V30 4549 H 423.496 -3.81034 1.52451 0
M  V30 4550 H 423.027 -3.92994 -0.178574 0
M  V30 4551 H 425.042 -4.85153 -1.04121 0
M  V30 4552 N 424.215 -0.530993 -1.48385 0
M  V30 4553 C 425.145 0.219985 -2.32461 0
M  V30 4554 C 426.126 0.934111 -1.42156 0
M  V30 4555 O 427.311 0.919694 -1.71042 0
M  V30 4556 C 424.441 1.26674 -3.23375 0
M  V30 4557 C 423.395 0.67069 -4.22712 0
M  V30 4558 C 422.721 1.82017 -5.02766 0
M  V30 4559 C 424.021 -0.358268 -5.2107 0
M  V30 4560 H 425.715 -0.48187 -2.95497 0
M  V30 4561 H 423.261 -0.233182 -1.42099 0
M  V30 4562 H 425.214 1.80006 -3.81019 0
M  V30 4563 H 423.938 1.99818 -2.58341 0
M  V30 4564 H 422.597 0.158878 -3.66256 0
M  V30 4565 H 422.245 2.54002 -4.34157 0
M  V30 4566 H 421.945 1.42727 -5.70003 0
M  V30 4567 H 423.469 2.35725 -5.63264 0
M  V30 4568 H 424.883 0.0880081 -5.73232 0
M  V30 4569 H 423.28 -0.66861 -5.96364 0
M  V30 4570 H 424.35 -1.26367 -4.68145 0
M  V30 4571 N 425.693 1.55336 -0.266172 0
M  V30 4572 C 426.603 2.2583 0.635458 0
M  V30 4573 C 427.619 1.28106 1.17749 0
M  V30 4574 O 428.795 1.61024 1.20968 0
M  V30 4575 C 425.86 2.95879 1.80712 0
M  V30 4576 C 424.921 4.09059 1.30265 0
M  V30 4577 C 424.154 4.75759 2.41846 0
M  V30 4578 O 424.377 4.41622 3.61007 0
M  V30 4579 O 423.311 5.63888 2.1051 0
M  V30 4580 H 427.137 3.03631 0.0646693 0
M  V30 4581 H 424.722 1.49361 -0.0339177 0
M  V30 4582 H 426.604 3.39932 2.49047 0
M  V30 4583 H 425.279 2.21002 2.36516 0
M  V30 4584 H 424.186 3.69482 0.586019 0
M  V30 4585 H 425.519 4.85811 0.790458 0
M  V30 4586 N 427.171 -0.0066808 1.57599 0
M  V30 4587 C 428.119 -1.01851 2.09115 0
M  V30 4588 C 429.113 -1.36021 1.00969 0
M  V30 4589 O 430.319 -1.34663 1.19439 0
M  V30 4590 H 426.694 -0.346083 0.667631 0
M  V30 4591 H 428.665 -0.558394 2.93129 0
M  V30 4592 C 427.414 -2.30374 2.60429 0
M  V30 4593 H 426.737 -2.04947 3.43273 0
M  V30 4594 H 428.177 -2.99466 3.00161 0
M  V30 4595 C 426.636 -3.00893 1.51542 0
M  V30 4596 O 427.166 -3.91614 0.894484 0
M  V30 4597 N 425.372 -2.62603 1.2445 0
M  V30 4598 H 424.919 -1.88911 1.75129 0
M  V30 4599 H 424.877 -3.10101 0.518137 0
M  V30 4600 N 428.649 -1.55105 -0.279332 0
M  V30 4601 C 429.579 -1.90557 -1.34945 0
M  V30 4602 C 430.56 -0.766738 -1.51839 0
M  V30 4603 O 431.745 -1.02434 -1.64988 0
M  V30 4604 C 428.875 -2.17193 -2.71006 0
M  V30 4605 C 427.829 -3.33021 -2.68851 0
M  V30 4606 C 427.155 -3.45123 -4.08405 0
M  V30 4607 C 428.455 -4.69578 -2.28678 0
M  V30 4608 H 430.149 -2.80188 -1.05522 0
M  V30 4609 H 427.695 -1.34811 -0.506173 0
M  V30 4610 H 429.648 -2.40581 -3.45975 0
M  V30 4611 H 428.372 -1.24355 -3.01999 0
M  V30 4612 H 427.031 -3.0959 -1.9634 0
M  V30 4613 H 426.679 -2.49762 -4.3661 0
M  V30 4614 H 426.379 -4.22995 -4.07859 0
M  V30 4615 H 427.903 -3.70796 -4.85121 0
M  V30 4616 H 429.317 -4.92553 -2.93368 0
M  V30 4617 H 427.714 -5.5032 -2.39306 0
M  V30 4618 H 428.784 -4.68828 -1.23807 0
M  V30 4619 N 430.127 0.543554 -1.4793 0
M  V30 4620 C 431.375 1.29752 -1.54948 0
M  V30 4621 C 431.696 1.93764 -0.219242 0
M  V30 4622 O 430.966 1.80639 0.75805 0
M  V30 4623 H 429.546 0.481874 -0.570795 0
M  V30 4624 H 432.208 0.633636 -1.84312 0
M  V30 4625 H 431.304 2.08392 -2.32334 0
M  V30 4626 N 431.605 1.3629 0.791371 0
M  V30 4627 C 432.535 1.33137 1.91825 0
M  V30 4628 C 433.516 0.203168 1.68882 0
M  V30 4629 O 434.701 0.400509 1.90025 0
M  V30 4630 C 431.831 1.11793 3.28816 0
M  V30 4631 C 430.785 2.21417 3.66277 0
M  V30 4632 C 430.111 1.85218 5.01596 0
M  V30 4633 C 431.411 3.63489 3.75064 0
M  V30 4634 H 433.105 2.2743 1.9472 0
M  V30 4635 H 430.651 1.09479 0.935437 0
M  V30 4636 H 432.604 1.08222 4.07266 0
M  V30 4637 H 431.328 0.139501 3.26302 0
M  V30 4638 H 429.987 2.2411 2.90121 0
M  V30 4639 H 429.635 0.859544 4.95602 0
M  V30 4640 H 429.335 2.58611 5.27631 0
M  V30 4641 H 430.859 1.832 5.82469 0
M  V30 4642 H 432.273 3.63034 4.43711 0
M  V30 4643 H 430.67 4.35771 4.12582 0
M  V30 4644 H 431.74 3.98536 2.76219 0
M  V30 4645 N 433.083 -1.0153 1.20538 0
M  V30 4646 C 434.03 -2.10098 0.955383 0
M  V30 4647 C 435 -1.65702 -0.114878 0
M  V30 4648 O 436.185 -1.90776 0.0301118 0
M  V30 4649 C 433.325 -3.41236 0.514969 0
M  V30 4650 C 432.438 -3.99102 1.65353 0
M  V30 4651 C 431.573 -5.18306 1.16329 0
M  V30 4652 C 430.612 -5.68258 2.27485 0
M  V30 4653 N 429.749 -6.78722 1.7967 0
M  V30 4654 H 434.589 -2.30818 1.88486 0
M  V30 4655 H 432.126 -1.13189 0.939499 0
M  V30 4656 H 434.084 -4.16504 0.240935 0
M  V30 4657 H 432.714 -3.20585 -0.377512 0
M  V30 4658 H 431.766 -3.20918 2.04245 0
M  V30 4659 H 433.078 -4.32177 2.49047 0
M  V30 4660 H 432.232 -6.00782 0.845302 0
M  V30 4661 H 430.971 -4.86799 0.296254 0
M  V30 4662 H 429.976 -4.84385 2.60099 0
M  V30 4663 H 431.201 -6.01798 3.14667 0
M  V30 4664 H 429.147 -6.49042 0.95295 0
M  V30 4665 H 429.064 -7.10996 2.56944 0
M  V30 4666 H 430.332 -7.64759 1.50875 0
M  V30 4667 N 434.561 -1.01147 -1.20859 0
M  V30 4668 C 435.511 -0.548247 -2.2131 0
M  V30 4669 C 436.495 0.393646 -1.5601 0
M  V30 4670 O 437.687 0.217445 -1.75659 0
M  V30 4671 C 434.816 0.117252 -3.431 0
M  V30 4672 C 433.902 -0.846043 -4.15575 0
M  V30 4673 N 434.293 -2.00149 -4.64515 0
M  V30 4674 C 432.591 -0.665783 -4.41003 0
M  V30 4675 C 433.292 -2.60764 -5.19978 0
M  V30 4676 N 432.268 -1.88868 -5.09735 0
M  V30 4677 H 436.07 -1.42921 -2.56809 0
M  V30 4678 H 433.584 -0.876142 -1.36739 0
M  V30 4679 H 435.581 0.46662 -4.1428 0
M  V30 4680 H 434.241 0.994115 -3.09107 0
M  V30 4681 H 435.252 -2.38162 -4.5989 0
M  V30 4682 H 431.929 0.163456 -4.1718 0
M  V30 4683 H 433.319 -3.58519 -5.68255 0
M  V30 4684 N 436.039 1.36541 -0.78704 0
M  V30 4685 C 437.288 1.98552 -0.35494 0
M  V30 4686 C 437.601 1.63171 1.07864 0
M  V30 4687 O 438.807 2.18399 1.61289 0
M  V30 4688 C 437.263 3.55136 -0.583671 0
M  V30 4689 C 436.871 3.99444 -2.02851 0
M  V30 4690 C 438.615 4.2395 -0.215957 0
M  V30 4691 C 436.522 5.48796 -2.20403 0
M  V30 4692 H 435.452 0.742888 -0.128972 0
M  V30 4693 H 438.103 1.5587 -0.968337 0
M  V30 4694 H 436.485 3.95875 0.0994046 0
M  V30 4695 H 437.659 3.6991 -2.74779 0
M  V30 4696 H 435.974 3.43459 -2.35425 0
M  V30 4697 H 438.571 5.33709 -0.325405 0
M  V30 4698 H 438.914 4.07827 0.835646 0
M  V30 4699 H 439.447 3.88565 -0.852175 0
M  V30 4700 H 436.186 5.69864 -3.23937 0
M  V30 4701 H 435.706 5.79964 -1.52977 0
M  V30 4702 H 437.385 6.14986 -2.01002 0
M  V30 4703 N 437.518 0.538854 1.48102 0
M  V30 4704 C 438.765 0.0080018 2.02498 0
M  V30 4705 C 439.093 -1.33437 1.41509 0
M  V30 4706 O 438.348 -1.87709 0.553507 0
M  V30 4707 C 438.647 -0.153808 3.57069 0
M  V30 4708 C 438.313 1.11533 4.36888 0
M  V30 4709 C 436.975 1.46314 4.58417 0
M  V30 4710 C 439.327 1.95718 4.83057 0
M  V30 4711 C 436.655 2.6516 5.23361 0
M  V30 4712 C 439.007 3.13751 5.49312 0
M  V30 4713 C 437.671 3.48866 5.69077 0
M  V30 4714 H 436.941 0.00292807 0.740994 0
M  V30 4715 H 439.588 0.706668 1.77984 0
M  V30 4716 H 437.893 -0.935309 3.80472 0
M  V30 4717 H 439.59 -0.579607 3.96789 0
M  V30 4718 H 436.18 0.834484 4.20398 0
M  V30 4719 H 440.364 1.70158 4.66219 0
M  V30 4720 H 435.62 2.92558 5.36861 0
M  V30 4721 H 439.794 3.79282 5.84053 0
M  V30 4722 H 437.421 4.41054 6.19173 0
M  V30 4723 N 438.996 -1.55193 0.274407 0
M  V30 4724 C 440.221 -2.04446 -0.348824 0
M  V30 4725 C 440.646 -1.15149 -1.48735 0
M  V30 4726 O 440.004 -0.149952 -1.80679 0
M  V30 4727 C 440.052 -3.51431 -0.808009 0
M  V30 4728 O 439.156 -3.65225 -1.91531 0
M  V30 4729 H 438.497 -0.66006 -0.0722276 0
M  V30 4730 H 441.027 -2.00481 0.408498 0
M  V30 4731 H 441.037 -3.92781 -1.10395 0
M  V30 4732 H 439.712 -4.15892 0.0249865 0
M  V30 4733 H 438.289 -3.35778 -1.62196 0
M  V30 4734 N 440.474 -0.00167713 -1.576 0
M  V30 4735 C 441.384 1.00548 -2.1196 0
M  V30 4736 C 442.4 1.3758 -1.06526 0
M  V30 4737 O 443.576 1.46278 -1.38436 0
M  V30 4738 C 440.641 2.27809 -2.6135 0
M  V30 4739 C 439.702 1.97074 -3.81393 0
M  V30 4740 C 438.935 3.18267 -4.28417 0
M  V30 4741 O 439.158 4.30009 -3.74765 0
M  V30 4742 O 438.092 3.02167 -5.20556 0
M  V30 4743 H 441.918 0.573373 -2.98238 0
M  V30 4744 H 439.503 0.217255 -1.47812 0
M  V30 4745 H 441.385 3.02568 -2.93309 0
M  V30 4746 H 440.06 2.70254 -1.78169 0
M  V30 4747 H 438.967 1.19785 -3.54404 0
M  V30 4748 H 440.3 1.59464 -4.65652 0
M  V30 4749 N 441.952 1.55251 0.271103 0
M  V30 4750 C 443.229 1.66664 1.02384 0
M  V30 4751 C 443.609 0.534363 2.04225 0
M  V30 4752 O 442.957 -0.465337 2.23712 0
M  V30 4753 C 443.167 3.05961 1.67895 0
M  V30 4754 C 444.515 3.63772 2.18986 0
M  V30 4755 O 445.539 3.08606 1.77878 0
M  V30 4756 O 444.398 4.60429 2.94393 0
M  V30 4757 H 441.492 0.676957 0.475035 0
M  V30 4758 H 444.038 1.67589 0.26681 0
M  V30 4759 H 442.81 3.79815 0.941071 0
M  V30 4760 H 442.433 3.08943 2.5028 0
M  V30 4761 N 443.43 -0.535701 1.48216 0
M  V30 4762 C 444.658 -1.31671 1.59594 0
M  V30 4763 C 445.073 -1.87083 0.254056 0
M  V30 4764 O 444.43 -1.66112 -0.755854 0
M  V30 4765 C 444.481 -2.47158 2.63809 0
M  V30 4766 O 444.202 -1.94032 3.92789 0
M  V30 4767 C 445.703 -3.39062 2.85573 0
M  V30 4768 H 442.923 -0.400623 0.538277 0
M  V30 4769 H 445.467 -0.646827 1.94001 0
M  V30 4770 H 443.622 -3.10043 2.32276 0
M  V30 4771 H 444.036 -2.69585 4.49916 0
M  V30 4772 H 445.51 -4.16459 3.62306 0
M  V30 4773 H 445.987 -3.93941 1.94184 0
M  V30 4774 H 446.593 -2.81975 3.18387 0
M  V30 4775 N 444.908 -1.36708 -0.784132 0
M  V30 4776 C 446.133 -1.34565 -1.5782 0
M  V30 4777 C 446.558 0.0695257 -1.87971 0
M  V30 4778 O 445.916 1.04302 -1.48293 0
M  V30 4779 C 445.964 -2.17952 -2.87279 0
M  V30 4780 O 445.068 -1.57563 -3.81114 0
M  V30 4781 H 444.409 -0.460337 -0.478524 0
M  V30 4782 H 446.939 -1.80064 -0.971495 0
M  V30 4783 H 446.949 -2.30721 -3.365 0
M  V30 4784 H 445.624 -3.20823 -2.64661 0
M  V30 4785 H 444.201 -1.53764 -3.39722 0
M  V30 4786 N 446.386 1.0089 -1.21074 0
M  V30 4787 C 447.663 1.71834 -0.934469 0
M  V30 4788 C 448.043 2.0368 0.554753 0
M  V30 4789 O 447.391 1.70742 1.51854 0
M  V30 4790 C 447.601 2.98061 -1.8155 0
M  V30 4791 C 448.949 3.7117 -2.06199 0
M  V30 4792 O 449.973 3.08034 -1.78867 0
M  V30 4793 O 448.832 4.84721 -2.52404 0
M  V30 4794 H 445.926 0.749253 -0.35007 0
M  V30 4795 H 448.472 1.06668 -1.31985 0
M  V30 4796 H 447.244 2.70908 -2.82355 0
M  V30 4797 H 446.867 3.70968 -1.43068 0
M  V30 4798 N 447.864 1.01787 1.20321 0
M  V30 4799 C 449.111 0.707936 1.89722 0
M  V30 4800 C 449.439 -0.762535 1.78929 0
M  V30 4801 O 448.694 -1.56977 1.16861 0
M  V30 4802 C 448.993 1.09076 3.40349 0
M  V30 4803 C 448.659 2.55765 3.71342 0
M  V30 4804 C 447.321 2.95845 3.79511 0
M  V30 4805 C 449.673 3.50723 3.85542 0
M  V30 4806 C 447.001 4.2982 3.99339 0
M  V30 4807 C 449.353 4.84387 4.06881 0
M  V30 4808 C 448.017 5.24172 4.1328 0
M  V30 4809 H 447.287 0.259052 0.694243 0
M  V30 4810 H 449.934 1.27868 1.42555 0
M  V30 4811 H 448.239 0.438453 3.89339 0
M  V30 4812 H 449.936 0.828636 3.92345 0
M  V30 4813 H 446.526 2.2371 3.65584 0
M  V30 4814 H 450.71 3.20916 3.78585 0
M  V30 4815 H 445.966 4.60196 4.02529 0
M  V30 4816 H 450.14 5.57891 4.1681 0
M  V30 4817 H 447.767 6.27997 4.28396 0
M  V30 4818 N 449.342 -1.36122 0.79427 0
M  V30 4819 C 450.567 -2.03891 0.379871 0
M  V30 4820 C 450.992 -1.59488 -0.997251 0
M  V30 4821 O 450.35 -0.765652 -1.64339 0
M  V30 4822 C 450.398 -3.57687 0.457442 0
M  V30 4823 O 449.502 -4.08931 -0.5338 0
M  V30 4824 H 448.843 -0.6443 0.160541 0
M  V30 4825 H 451.373 -1.73976 1.07673 0
M  V30 4826 H 451.383 -4.06721 0.322792 0
M  V30 4827 H 450.058 -3.89357 1.46199 0
M  V30 4828 H 448.635 -3.71154 -0.360409 0
M  V30 4829 N 450.82 -0.546701 -1.47814 0
M  V30 4830 C 452.068 -0.0187037 -2.02091 0
M  V30 4831 C 452.389 1.33168 -1.42447 0
M  V30 4832 O 451.659 1.86619 -0.595839 0
M  V30 4833 H 450.239 -0.00392531 -0.74699 0
M  V30 4834 H 452.901 -0.714327 -1.81338 0
M  V30 4835 H 451.997 0.0772219 -3.12004 0
M  V30 4836 N 452.299 1.55045 -0.282633 0
M  V30 4837 C 453.232 2.18951 0.64311 0
M  V30 4838 C 454.21 1.15287 1.14664 0
M  V30 4839 O 455.394 1.43846 1.21822 0
M  V30 4840 C 452.521 2.81874 1.87789 0
M  V30 4841 C 451.567 3.98906 1.50919 0
M  V30 4842 S 452.4 5.3234 0.580884 0
M  V30 4843 C 453.556 5.98737 1.82387 0
M  V30 4844 H 453.789 2.97131 0.100138 0
M  V30 4845 H 451.322 1.54255 -0.0668514 0
M  V30 4846 H 453.28 3.18757 2.58658 0
M  V30 4847 H 451.941 2.03573 2.392 0
M  V30 4848 H 451.134 4.4165 2.42819 0
M  V30 4849 H 450.736 3.63485 0.88061 0
M  V30 4850 H 453.028 6.18427 2.76684 0
M  V30 4851 H 453.971 6.93318 1.4393 0
M  V30 4852 H 454.379 5.28177 1.99223 0
M  V30 4853 N 453.777 0.010035 1.57597 0
M  V30 4854 C 455.002 -0.687021 1.95691 0
M  V30 4855 C 455.427 -1.65952 0.885519 0
M  V30 4856 O 454.785 -1.80633 -0.15543 0
M  V30 4857 C 454.833 -1.3864 3.32884 0
M  V30 4858 O 453.937 -2.50115 3.27897 0
M  V30 4859 H 453.278 -0.181989 0.638573 0
M  V30 4860 H 455.808 0.0662122 2.04493 0
M  V30 4861 H 455.818 -1.74754 3.6868 0
M  V30 4862 H 454.493 -0.673411 4.10412 0
M  V30 4863 H 453.07 -2.16253 3.03791 0
M  V30 4864 N 455.255 -1.55392 -0.262866 0
M  V30 4865 C 456.165 -1.92077 -1.34698 0
M  V30 4866 C 457.181 -0.819227 -1.53508 0
M  V30 4867 O 458.357 -1.11921 -1.67439 0
M  V30 4868 C 455.422 -2.19407 -2.68443 0
M  V30 4869 C 454.483 -3.42905 -2.58292 0
M  V30 4870 C 453.716 -3.68921 -3.85659 0
M  V30 4871 O 453.939 -2.97275 -4.8681 0
M  V30 4872 O 452.873 -4.62455 -3.85252 0
M  V30 4873 H 456.699 -2.84384 -1.06581 0
M  V30 4874 H 454.284 -1.42069 -0.462264 0
M  V30 4875 H 456.166 -2.38365 -3.47506 0
M  V30 4876 H 454.841 -1.30282 -2.96325 0
M  V30 4877 H 453.748 -3.29272 -1.7757 0
M  V30 4878 H 455.081 -4.32282 -2.35358 0
M  V30 4879 N 456.733 0.527833 -1.48498 0
M  V30 4880 C 457.961 1.30823 -1.6029 0
M  V30 4881 C 458.376 1.86945 -0.263974 0
M  V30 4882 O 457.733 1.6651 0.747034 0
M  V30 4883 C 457.784 2.45756 -2.65116 0
M  V30 4884 O 457.505 1.91946 -3.93813 0
M  V30 4885 C 459.006 3.37543 -2.87367 0
M  V30 4886 H 456.226 0.397763 -0.540394 0
M  V30 4887 H 458.77 0.636529 -1.94341 0
M  V30 4888 H 456.925 3.08806 -2.33917 0
M  V30 4889 H 457.339 2.67195 -4.51339 0
M  V30 4890 H 458.813 4.14532 -3.6451 0
M  V30 4891 H 459.29 3.92905 -1.9627 0
M  V30 4892 H 459.896 2.80283 -3.19878 0
M  V30 4893 N 458.211 1.37122 0.776871 0
M  V30 4894 C 459.158 1.3247 1.88998 0
M  V30 4895 C 460.128 0.191143 1.64997 0
M  V30 4896 O 461.313 0.379683 1.86984 0
M  V30 4897 C 458.453 1.13241 3.25992 0
M  V30 4898 C 457.566 2.35782 3.61982 0
M  V30 4899 C 456.701 2.09465 4.88158 0
M  V30 4900 C 455.74 3.279 5.16864 0
M  V30 4901 N 454.877 3.01167 6.34226 0
M  V30 4902 H 459.717 2.27642 1.9231 0
M  V30 4903 H 457.254 1.13125 0.94027 0
M  V30 4904 H 459.212 1.00115 4.0501 0
M  V30 4905 H 457.842 0.217186 3.22069 0
M  V30 4906 H 456.894 2.59666 2.77989 0
M  V30 4907 H 458.206 3.24125 3.79137 0
M  V30 4908 H 457.36 1.93341 5.75069 0
M  V30 4909 H 456.099 1.18452 4.73097 0
M  V30 4910 H 455.104 3.44569 4.2843 0
M  V30 4911 H 456.329 4.19757 5.33836 0
M  V30 4912 H 454.275 2.12779 6.20533 0
M  V30 4913 H 454.192 3.83052 6.51772 0
M  V30 4914 H 455.46 2.88649 7.24087 0
M  V30 4915 N 459.689 -1.00246 1.21608 0
M  V30 4916 C 460.937 -1.73717 1.0328 0
M  V30 4917 C 461.258 -1.90102 -0.434318 0
M  V30 4918 O 460.528 -1.45376 -1.31311 0
M  V30 4919 H 459.108 -0.643613 0.379172 0
M  V30 4920 H 461.77 -1.20787 1.52959 0
M  V30 4921 H 460.866 -2.73535 1.50283 0
M  V30 4922 N 461.167 -1.02423 -1.1978 0
M  V30 4923 C 462.413 -0.719051 -1.89625 0
M  V30 4924 C 462.746 0.750083 -1.7913 0
M  V30 4925 O 462.021 1.54574 -1.18056 0
M  V30 4926 C 462.304 -1.16499 -3.40735 0
M  V30 4927 C 462.157 -2.695 -3.60125 0
M  V30 4928 C 463.476 -0.742166 -4.33797 0
M  V30 4929 H 460.595 -0.26269 -0.688595 0
M  V30 4930 H 463.237 -1.27333 -1.41018 0
M  V30 4931 H 461.387 -0.69341 -3.82262 0
M  V30 4932 H 463.059 -3.24569 -3.278 0
M  V30 4933 H 461.302 -3.10113 -3.03336 0
M  V30 4934 H 461.973 -2.95757 -4.66081 0
M  V30 4935 H 464.449 -1.1477 -3.99959 0
M  V30 4936 H 463.325 -1.08213 -5.38127 0
M  V30 4937 H 463.586 0.355747 -4.40666 0
M  V30 4938 N 462.645 1.35699 -0.801477 0
M  V30 4939 C 463.608 2.28199 -0.213994 0
M  V30 4940 C 464.608 1.49359 0.595691 0
M  V30 4941 O 465.798 1.69186 0.414921 0
M  V30 4942 C 462.93 3.33587 0.702297 0
M  V30 4943 H 464.123 2.81666 -1.02976 0
M  V30 4944 H 461.676 1.45467 -0.571759 0
M  V30 4945 H 462.411 2.85297 1.54195 0
M  V30 4946 H 462.196 3.91906 0.123484 0
M  V30 4947 H 463.686 4.02638 1.10783 0
M  V30 4948 N 464.123 0.554532 1.47522 0
M  V30 4949 C 465.053 -0.182974 2.32782 0
M  V30 4950 C 466.034 -0.911377 1.43624 0
M  V30 4951 O 467.219 -0.892366 1.72483 0
M  V30 4952 C 464.349 -1.21513 3.25349 0
M  V30 4953 C 463.303 -0.603355 4.23726 0
M  V30 4954 C 462.629 -1.73995 5.05598 0
M  V30 4955 C 463.929 0.441121 5.20434 0
M  V30 4956 H 465.623 0.52882 2.94693 0
M  V30 4957 H 463.169 0.255759 1.41711 0
M  V30 4958 H 465.122 -1.73922 3.83835 0
M  V30 4959 H 463.846 -1.95683 2.61487 0
M  V30 4960 H 462.505 -0.10059 3.66462 0
M  V30 4961 H 462.153 -2.47063 4.38143 0
M  V30 4962 H 461.853 -1.3364 5.72201 0
M  V30 4963 H 463.377 -2.26735 5.66942 0
M  V30 4964 H 464.791 0.00319931 5.733 0
M  V30 4965 H 463.188 0.763402 5.95224 0
M  V30 4966 H 464.258 1.33799 4.66075 0
M  V30 4967 N 465.601 -1.54893 0.290851 0
M  V30 4968 C 466.826 -2.04804 -0.32712 0
M  V30 4969 C 467.251 -1.16721 -1.47506 0
M  V30 4970 O 466.609 -0.169107 -1.8051 0
M  V30 4971 C 466.657 -3.52268 -0.770689 0
M  V30 4972 O 465.761 -3.67236 -1.87647 0
M  V30 4973 H 465.102 -0.660789 -0.0652227 0
M  V30 4974 H 467.632 -2.00036 0.429739 0
M  V30 4975 H 467.642 -3.9393 -1.06223 0
M  V30 4976 H 466.317 -4.15843 0.069096 0
M  V30 4977 H 464.894 -3.37479 -1.58626 0
M  V30 4978 N 467.08 -0.0183926 -1.57589 0
M  V30 4979 C 468.028 0.985111 -2.10709 0
M  V30 4980 C 469.022 1.34397 -1.0312 0
M  V30 4981 O 470.228 1.32746 -1.21567 0
M  V30 4982 H 466.603 0.335418 -0.673052 0
M  V30 4983 H 468.574 0.511689 -2.9398 0
M  V30 4984 C 467.323 2.26202 -2.64061 0
M  V30 4985 H 466.646 1.9946 -3.4649 0
M  V30 4986 H 468.086 2.94652 -3.04887 0
M  V30 4987 C 466.545 2.98444 -1.5631 0
M  V30 4988 O 467.075 3.90142 -0.956674 0
M  V30 4989 N 465.281 2.6059 -1.28612 0
M  V30 4990 H 464.828 1.86101 -1.78112 0
M  V30 4991 H 464.786 3.09238 -0.567406 0
M  V30 4992 N 468.558 1.5553 0.254621 0
M  V30 4993 C 469.804 1.77262 0.985193 0
M  V30 4994 C 470.137 0.582286 1.85265 0
M  V30 4995 O 469.412 -0.419666 1.89919 0
M  V30 4996 C 469.695 3.0881 1.85225 0
M  V30 4997 C 469.548 4.38233 1.0135 0
M  V30 4998 C 470.867 3.3653 2.83612 0
M  V30 4999 H 467.986 0.644906 0.356742 0
M  V30 5000 H 470.628 1.88264 0.256236 0
M  V30 5001 H 468.778 2.99562 2.47376 0
M  V30 5002 H 470.45 4.59463 0.411269 0
M  V30 5003 H 468.693 4.32636 0.317574 0
M  V30 5004 H 469.364 5.26644 1.65379 0
M  V30 5005 H 471.84 3.45691 2.31596 0
M  V30 5006 H 470.716 4.29805 3.41407 0
M  V30 5007 H 470.977 2.57064 3.59681 0
M  V30 5008 N 470.036 -0.519951 1.48776 0
M  V30 5009 C 471.285 -1.27175 1.56555 0
M  V30 5010 C 471.598 -1.9401 0.248869 0
M  V30 5011 O 472.804 -2.70725 0.205004 0
M  V30 5012 C 471.26 -2.30811 2.76142 0
M  V30 5013 C 470.868 -1.7 4.14493 0
M  V30 5014 C 472.612 -3.06937 2.9324 0
M  V30 5015 C 470.519 -2.71635 5.25327 0
M  V30 5016 H 469.449 -0.478329 0.582853 0
M  V30 5017 H 472.1 -0.547916 1.75129 0
M  V30 5018 H 470.482 -3.06274 2.51023 0
M  V30 5019 H 471.656 -1.00658 4.49672 0
M  V30 5020 H 469.971 -1.06331 4.02595 0
M  V30 5021 H 472.568 -3.82905 3.73213 0
M  V30 5022 H 472.911 -3.63409 2.03075 0
M  V30 5023 H 473.444 -2.38589 3.18308 0
M  V30 5024 H 470.183 -2.1997 6.1749 0
M  V30 5025 H 469.703 -3.39275 4.94624 0
M  V30 5026 H 471.382 -3.34429 5.53865 0
M  V30 5027 N 471.514 -1.37532 -0.769588 0
M  V30 5028 C 472.464 -1.29984 -1.87318 0
M  V30 5029 C 473.448 -0.187242 -1.59807 0
M  V30 5030 O 474.64 -0.421827 -1.719 0
M  V30 5031 C 471.769 -1.11126 -3.24817 0
M  V30 5032 C 470.855 -2.26939 -3.58273 0
M  V30 5033 N 471.246 -3.52336 -3.62895 0
M  V30 5034 C 469.544 -2.19141 -3.8845 0
M  V30 5035 C 470.245 -4.28719 -3.9316 0
M  V30 5036 N 469.221 -3.57884 -4.0917 0
M  V30 5037 H 473.023 -2.24946 -1.89147 0
M  V30 5038 H 470.537 -1.30535 -0.966143 0
M  V30 5039 H 472.534 -1.03803 -4.0377 0
M  V30 5040 H 471.194 -0.17083 -3.2425 0
M  V30 5041 H 472.205 -3.86216 -3.45048 0
M  V30 5042 H 468.882 -1.33167 -3.95693 0
M  V30 5043 H 470.272 -5.37254 -4.03494 0
M  V30 5044 N 472.992 0.995999 -1.22138 0
M  V30 5045 C 473.939 2.08551 -0.988687 0
M  V30 5046 C 474.909 1.65864 0.0885021 0
M  V30 5047 O 476.094 1.90704 -0.0604589 0
M  V30 5048 C 473.234 3.40374 -0.569191 0
M  V30 5049 C 472.347 3.96421 -1.71681 0
M  V30 5050 C 471.482 5.1639 -1.2456 0
M  V30 5051 C 470.521 5.64567 -2.36497 0
M  V30 5052 N 469.658 6.75777 -1.90445 0
M  V30 5053 H 474.498 2.2779 -1.92135 0
M  V30 5054 H 472.035 1.1168 -0.957388 0
M  V30 5055 H 473.993 4.16068 -0.307166 0
M  V30 5056 H 472.623 3.21145 0.326462 0
M  V30 5057 H 471.675 3.17628 -2.09324 0
M  V30 5058 H 472.987 4.2816 -2.55891 0
M  V30 5059 H 472.141 5.99362 -0.940774 0
M  V30 5060 H 470.88 4.86266 -0.373662 0
M  V30 5061 H 469.885 4.80185 -2.67772 0
M  V30 5062 H 471.11 5.96716 -3.24202 0
M  V30 5063 H 469.056 6.47443 -1.05609 0
M  V30 5064 H 468.973 7.06818 -2.68223 0
M  V30 5065 H 470.241 7.62262 -1.63022 0
M  V30 5066 N 474.47 1.03057 1.19235 0
M  V30 5067 C 475.716 0.729098 1.89241 0
M  V30 5068 C 476.049 -0.740573 1.79525 0
M  V30 5069 O 475.324 -1.53946 1.18874 0
M  V30 5070 C 475.607 1.18304 3.40112 0
M  V30 5071 C 475.46 2.71406 3.5869 0
M  V30 5072 C 476.779 0.765161 4.33397 0
M  V30 5073 H 473.898 0.266338 0.687192 0
M  V30 5074 H 476.54 1.28079 1.40341 0
M  V30 5075 H 474.69 0.713672 3.81889 0
M  V30 5076 H 476.362 3.26303 3.26074 0
M  V30 5077 H 474.605 3.11717 3.01687 0
M  V30 5078 H 475.276 2.98225 4.64506 0
M  V30 5079 H 477.752 1.16889 3.99345 0
M  V30 5080 H 476.628 1.11065 5.37546 0
M  V30 5081 H 476.889 -0.332372 4.40849 0
M  V30 5082 N 475.948 -1.35272 0.808662 0
M  V30 5083 C 477.188 -2.00534 0.395668 0
M  V30 5084 C 477.552 -1.62755 -1.01857 0
M  V30 5085 O 478.753 -2.20752 -1.53368 0
M  V30 5086 C 477.024 -3.52732 0.575771 0
M  V30 5087 S 478.583 -4.38067 0.253507 0
M  V30 5088 H 475.401 -0.694962 0.150165 0
M  V30 5089 H 478.003 -1.64823 1.05137 0
M  V30 5090 H 476.707 -3.77714 1.60499 0
M  V30 5091 H 476.238 -3.93285 -0.0951739 0
M  V30 5092 H 478.253 -4.87252 -0.938068 0
M  V30 5093 N 477.426 -0.562348 -1.47226 0
M  V30 5094 C 478.356 0.170627 -2.32876 0
M  V30 5095 C 479.337 0.903748 -1.44106 0
M  V30 5096 O 480.522 0.883206 -1.72954 0
M  V30 5097 C 477.652 1.19786 -3.25989 0
M  V30 5098 C 476.606 0.580875 -4.2404 0
M  V30 5099 C 475.932 1.71311 -5.06514 0
M  V30 5100 C 477.232 -0.468714 -5.20193 0
M  V30 5101 H 478.926 -0.544441 -2.94408 0
M  V30 5102 H 476.472 -0.263271 -1.41573 0
M  V30 5103 H 478.425 1.71884 -3.84752 0
M  V30 5104 H 477.149 1.94294 -2.62521 0
M  V30 5105 H 475.808 0.0811538 -3.6651 0
M  V30 5106 H 475.456 2.44736 -4.39447 0
M  V30 5107 H 475.156 1.30604 -5.72902 0
M  V30 5108 H 476.68 2.23725 -5.68137 0
M  V30 5109 H 478.094 -0.0336028 -5.7329 0
M  V30 5110 H 476.491 -0.794957 -5.94811 0
M  V30 5111 H 477.561 -1.36269 -4.65359 0
M  V30 5112 N 478.904 1.54736 -0.299062 0
M  V30 5113 C 479.814 2.27127 0.587413 0
M  V30 5114 C 480.83 1.30575 1.15005 0
M  V30 5115 O 482.006 1.63554 1.17525 0
M  V30 5116 C 479.071 2.99645 1.74395 0
M  V30 5117 C 478.132 4.11731 1.21559 0
M  V30 5118 C 477.365 4.80781 2.317 0
M  V30 5119 O 477.588 4.4918 3.51558 0
M  V30 5120 O 476.522 5.68226 1.98501 0
M  V30 5121 H 480.348 3.037 0.000250109 0
M  V30 5122 H 477.933 1.49256 -0.0655919 0
M  V30 5123 H 479.815 3.45138 2.4178 0
M  V30 5124 H 478.49 2.25969 2.31775 0
M  V30 5125 H 477.397 3.70641 0.507514 0
M  V30 5126 H 478.73 4.87379 0.687233 0
M  V30 5127 N 480.382 0.0267497 1.57577 0
M  V30 5128 C 481.631 -0.651736 1.9088 0
M  V30 5129 C 481.944 -1.73427 0.904576 0
M  V30 5130 O 483.15 -2.46923 1.12877 0
M  V30 5131 C 481.606 -1.21048 3.38933 0
M  V30 5132 C 481.214 -0.161362 4.47709 0
M  V30 5133 C 482.958 -1.86562 3.81307 0
M  V30 5134 C 480.865 -0.731611 5.86857 0
M  V30 5135 H 479.795 -0.247198 0.712326 0
M  V30 5136 H 482.446 0.0916641 1.83271 0
M  V30 5137 H 480.828 -2.00542 3.41466 0
M  V30 5138 H 482.002 0.61094 4.56732 0
M  V30 5139 H 480.317 0.394877 4.14523 0
M  V30 5140 H 482.914 -2.30178 4.8262 0
M  V30 5141 H 483.257 -2.70735 3.16241 0
M  V30 5142 H 483.79 -1.13762 3.81186 0
M  V30 5143 H 480.529 0.0719329 6.55461 0
M  V30 5144 H 480.049 -1.47245 5.81445 0
M  V30 5145 H 481.728 -1.22208 6.35354 0
M  V30 5146 N 481.861 -1.55662 -0.24637 0
M  V30 5147 C 483.089 -1.81575 -0.991876 0
M  V30 5148 C 483.504 -0.602545 -1.78927 0
M  V30 5149 O 482.861 0.428795 -1.77391 0
M  V30 5150 C 482.912 -3.05711 -1.92933 0
M  V30 5151 O 482.633 -4.22348 -1.1642 0
M  V30 5152 C 484.134 -3.44428 -2.79078 0
M  V30 5153 H 481.354 -0.604209 -0.291844 0
M  V30 5154 H 483.898 -2.02722 -0.269095 0
M  V30 5155 H 482.053 -2.86612 -2.60638 0
M  V30 5156 H 482.467 -4.92706 -1.79835 0
M  V30 5157 H 483.941 -4.34388 -3.40603 0
M  V30 5158 H 484.418 -2.65037 -3.50217 0
M  V30 5159 H 485.024 -3.65879 -2.16824 0
M  V30 5160 N 483.339 0.512053 -1.4905 0
M  V30 5161 C 484.249 1.64139 -1.67617 0
M  V30 5162 C 485.265 1.64786 -0.558701 0
M  V30 5163 O 486.441 1.8341 -0.832034 0
M  V30 5164 C 483.506 3.00548 -1.72835 0
M  V30 5165 C 482.567 3.10615 -2.96339 0
M  V30 5166 C 481.8 4.40517 -3.01298 0
M  V30 5167 O 482.023 5.28671 -2.14157 0
M  V30 5168 O 480.957 4.55325 -3.93653 0
M  V30 5169 H 484.783 1.51407 -2.63267 0
M  V30 5170 H 482.368 0.687131 -1.32661 0
M  V30 5171 H 484.25 3.81641 -1.78683 0
M  V30 5172 H 482.925 3.13566 -0.803616 0
M  V30 5173 H 481.832 2.2875 -2.96014 0
M  V30 5174 H 483.165 3.0252 -3.88256 0
M  V30 5175 N 484.817 1.37938 0.762283 0
M  V30 5176 C 486.094 1.24196 1.51112 0
M  V30 5177 C 486.474 -0.160409 2.1049 0
M  V30 5178 O 485.822 -1.16904 1.96331 0
M  V30 5179 C 486.032 2.34537 2.58445 0
M  V30 5180 C 487.38 2.7254 3.25588 0
M  V30 5181 O 488.404 2.33783 2.68745 0
M  V30 5182 O 487.263 3.39343 4.28379 0
M  V30 5183 H 484.357 0.485175 0.669727 0
M  V30 5184 H 486.903 1.49743 0.798438 0
M  V30 5185 H 485.675 3.28406 2.12756 0
M  V30 5186 H 485.298 2.10505 3.37303 0
M  V30 5187 N 486.295 -0.989507 1.22664 0
M  V30 5188 C 487.543 -1.72612 1.05117 0
M  V30 5189 C 487.864 -1.90552 -0.414131 0
M  V30 5190 O 487.134 -1.4676 -1.29762 0
M  V30 5191 H 485.714 -0.639555 0.385977 0
M  V30 5192 H 488.376 -1.19158 1.54232 0
M  V30 5193 H 487.472 -2.71926 1.53175 0
M  V30 5194 N 487.773 -1.03688 -1.18687 0
M  V30 5195 C 489.021 -0.736572 -1.88199 0
M  V30 5196 C 489.342 0.737665 -1.80509 0
M  V30 5197 O 488.612 1.53204 -1.22088 0
M  V30 5198 H 487.192 -0.269466 -0.696704 0
M  V30 5199 H 489.854 -1.31282 -1.44052 0
M  V30 5200 H 488.95 -1.03802 -2.94332 0
M  V30 5201 N 489.251 1.34841 -0.815825 0
M  V30 5202 C 490.528 1.92908 -0.323416 0
M  V30 5203 C 490.908 1.74479 1.18828 0
M  V30 5204 O 490.256 1.11928 1.99209 0
M  V30 5205 C 490.466 3.40957 -0.744952 0
M  V30 5206 C 491.814 4.18107 -0.739716 0
M  V30 5207 O 492.838 3.49511 -0.68708 0
M  V30 5208 O 491.697 5.40517 -0.806456 0
M  V30 5209 H 488.791 0.822436 -0.0867646 0
M  V30 5210 H 491.337 1.4386 -0.90014 0
M  V30 5211 H 490.109 3.4814 -1.78646 0
M  V30 5212 H 489.732 3.97341 -0.143535 0
M  V30 5213 N 490.729 0.570148 1.46925 0
M  V30 5214 C 491.954 0.0542592 2.07329 0
M  V30 5215 C 492.379 -1.23582 1.41806 0
M  V30 5216 O 491.737 -1.74341 0.497479 0
M  V30 5217 C 491.785 -0.111175 3.60429 0
M  V30 5218 O 490.889 -1.17071 3.95434 0
M  V30 5219 H 490.23 0.0571425 0.661537 0
M  V30 5220 H 492.76 0.789516 1.88753 0
M  V30 5221 H 492.77 -0.321315 4.06733 0
M  V30 5222 H 491.445 0.831012 4.07513 0
M  V30 5223 H 490.022 -0.940029 3.60857 0
M  V30 5224 N 492.207 -1.54576 0.307264 0
M  V30 5225 C 493.456 -1.99442 -0.300976 0
M  V30 5226 C 493.769 -1.19928 -1.5452 0
M  V30 5227 O 494.975 -1.55092 -2.22842 0
M  V30 5228 C 493.431 -3.55084 -0.586809 0
M  V30 5229 C 493.039 -4.43413 0.639438 0
M  V30 5230 C 494.783 -4.0846 -1.1559 0
M  V30 5231 C 492.69 -5.90499 0.326411 0
M  V30 5232 H 491.62 -0.744986 -0.116238 0
M  V30 5233 H 494.271 -1.787 0.416947 0
M  V30 5234 H 492.653 -3.71749 -1.36449 0
M  V30 5235 H 493.827 -4.38522 1.41545 0
M  V30 5236 H 492.142 -4.00842 1.1276 0
M  V30 5237 H 494.739 -5.15926 -1.40445 0
M  V30 5238 H 495.082 -3.59443 -2.10015 0
M  V30 5239 H 495.615 -3.95362 -0.439778 0
M  V30 5240 H 492.354 -6.43676 1.23939 0
M  V30 5241 H 491.874 -5.98382 -0.412212 0
M  V30 5242 H 493.553 -6.46962 -0.0697393 0
M  V30 5243 N 493.685 -0.035106 -1.57561 0
M  V30 5244 C 494.595 0.960295 -2.14046 0
M  V30 5245 C 495.611 1.3529 -1.0942 0
M  V30 5246 O 496.787 1.43309 -1.41508 0
M  V30 5247 C 493.852 2.22214 -2.66124 0
M  V30 5248 C 492.913 1.8894 -3.85487 0
M  V30 5249 C 492.146 3.09109 -4.35072 0
M  V30 5250 O 492.369 4.21963 -3.83802 0
M  V30 5251 O 491.303 2.91058 -5.26848 0
M  V30 5252 H 495.129 0.509983 -2.99387 0
M  V30 5253 H 492.714 0.185853 -1.48239 0
M  V30 5254 H 494.596 2.96279 -2.99661 0
M  V30 5255 H 493.271 2.66414 -1.83862 0
M  V30 5256 H 492.178 1.12241 -3.56865 0
M  V30 5257 H 493.511 1.49551 -4.6893 0
M  V30 5258 N 495.163 1.55791 0.238111 0
M  V30 5259 C 496.409 1.78297 0.966337 0
M  V30 5260 C 496.742 0.601903 1.84637 0
M  V30 5261 O 496.017 -0.399499 1.90353 0
M  V30 5262 C 496.3 3.10758 1.81939 0
M  V30 5263 C 496.153 4.39283 0.966958 0
M  V30 5264 C 497.472 3.39519 2.80027 0
M  V30 5265 H 494.591 0.648654 0.349882 0
M  V30 5266 H 497.233 1.88525 0.236253 0
M  V30 5267 H 495.383 3.02168 2.44185 0
M  V30 5268 H 497.055 4.59873 0.362514 0
M  V30 5269 H 495.298 4.32948 0.271669 0
M  V30 5270 H 495.969 5.28368 1.59784 0
M  V30 5271 H 498.445 3.48128 2.27917 0
M  V30 5272 H 497.321 4.33402 3.36829 0
M  V30 5273 H 497.582 2.60864 3.56934 0
M  V30 5274 N 496.642 -0.504142 1.49319 0
M  V30 5275 C 498.053 -1.08572 1.51885 0
M  V30 5276 C 498.404 -1.93842 0.303255 0
M  V30 5277 O 497.529 -2.0828 -0.58724 0
M  V30 5278 C 498.124 -1.97574 2.75227 0
M  V30 5279 C 496.683 -2.509 2.80581 0
M  V30 5280 C 495.83 -1.28447 2.45757 0
M  V30 5281 H 498.781 -0.288194 1.56061 0
M  V30 5282 H 498.802 -2.82219 2.55211 0
M  V30 5283 H 498.314 -1.35486 3.63683 0
M  V30 5284 H 496.415 -3.16636 1.96398 0
M  V30 5285 H 496.528 -2.88268 3.82673 0
M  V30 5286 H 494.892 -1.60868 1.97468 0
M  V30 5287 H 495.675 -0.68072 3.36483 0
M  V30 5288 N 498.12 -1.38341 -0.754957 0
M  V30 5289 C 499.368 -1.34208 -1.51105 0
M  V30 5290 C 499.689 0.0677634 -1.94882 0
M  V30 5291 O 498.959 1.01517 -1.67544 0
M  V30 5292 H 497.539 -0.493819 -0.560493 0
M  V30 5293 H 500.201 -1.73005 -0.897507 0
M  V30 5294 H 499.297 -1.99203 -2.4026 0
M  V30 5295 N 499.598 0.982988 -1.23187 0
M  V30 5296 C 500.561 2.05649 -1.01198 0
M  V30 5297 C 501.561 1.6078 0.0252464 0
M  V30 5298 O 502.751 1.72878 -0.214243 0
M  V30 5299 C 499.883 3.36744 -0.530656 0
M  V30 5300 H 501.076 2.2659 -1.96461 0
M  V30 5301 H 498.629 1.15602 -1.05195 0
M  V30 5302 H 499.364 3.21492 0.425873 0
M  V30 5303 H 499.149 3.7065 -1.2791 0
M  V30 5304 H 500.639 4.15705 -0.397366 0
M  V30 5305 N 501.076 1.04316 1.18135 0
M  V30 5306 C 502.492 0.762858 1.40188 0
M  V30 5307 C 502.692 -0.646547 1.90846 0
M  V30 5308 O 501.748 -1.41036 2.0944 0
M  V30 5309 C 503.061 1.81106 2.40044 0
M  V30 5310 C 504.609 1.83226 2.53766 0
M  V30 5311 C 505.084 2.87044 3.56889 0
M  V30 5312 N 506.575 2.85951 3.64398 0
M  V30 5313 C 507.31 3.62932 4.43923 0
M  V30 5314 N 506.806 4.49672 5.27036 0
M  V30 5315 N 508.599 3.51411 4.38711 0
M  V30 5316 H 500.75 1.95264 0.835805 0
M  V30 5317 H 503.013 0.845017 0.429709 0
M  V30 5318 H 502.719 2.82214 2.09876 0
M  V30 5319 H 502.593 1.64529 3.39426 0
M  V30 5320 H 504.98 0.827869 2.8325 0
M  V30 5321 H 505.061 2.03879 1.54489 0
M  V30 5322 H 504.705 3.87663 3.28145 0
M  V30 5323 H 504.635 2.63645 4.5585 0
M  V30 5324 H 507.126 2.23051 3.05052 0
M  V30 5325 H 507.439 5.05116 5.84874 0
M  V30 5326 H 505.784 4.53738 5.26447 0
M  V30 5327 H 508.975 2.83047 3.72829 0
M  V30 5328 H 509.148 4.11654 5.00445 0
M  V30 5329 N 502.554 -1.34406 0.822964 0
M  V30 5330 C 503.803 -1.97542 0.407458 0
M  V30 5331 C 504.116 -1.65973 -1.035 0
M  V30 5332 O 505.322 -2.22598 -1.55442 0
M  V30 5333 C 503.778 -3.53463 0.677623 0
M  V30 5334 C 503.386 -3.93925 2.1337 0
M  V30 5335 C 505.13 -4.23229 0.328284 0
M  V30 5336 C 503.037 -5.42759 2.34876 0
M  V30 5337 H 501.967 -0.739207 0.148623 0
M  V30 5338 H 504.618 -1.53248 1.00932 0
M  V30 5339 H 503 -3.96 0.00558965 0
M  V30 5340 H 504.174 -3.62494 2.8449 0
M  V30 5341 H 502.489 -3.37097 2.44448 0
M  V30 5342 H 505.086 -5.32659 0.466794 0
M  V30 5343 H 505.429 -4.09899 -0.727224 0
M  V30 5344 H 505.962 -3.86169 0.954896 0
M  V30 5345 H 502.701 -5.61075 3.38932 0
M  V30 5346 H 502.221 -5.75704 1.68299 0
M  V30 5347 H 503.9 -6.0944 2.17236 0
M  V30 5348 N 504.032 -0.577932 -1.46621 0
M  V30 5349 C 504.962 0.145917 -2.33044 0
M  V30 5350 C 505.943 0.888412 -1.45056 0
M  V30 5351 O 507.128 0.864812 -1.73881 0
M  V30 5352 C 504.258 1.16322 -3.27241 0
M  V30 5353 C 503.212 0.535868 -4.24632 0
M  V30 5354 C 502.538 1.65929 -5.08303 0
M  V30 5355 C 503.838 -0.523861 -5.19666 0
M  V30 5356 H 505.532 -0.575636 -2.93814 0
M  V30 5357 H 503.078 -0.278272 -1.41286 0
M  V30 5358 H 505.031 1.67793 -3.86553 0
M  V30 5359 H 503.755 1.91498 -2.64567 0
M  V30 5360 H 502.414 0.0422759 -3.66576 0
M  V30 5361 H 502.062 2.40061 -4.42018 0
M  V30 5362 H 501.762 1.2452 -5.74255 0
M  V30 5363 H 503.286 2.17686 -5.70478 0
M  V30 5364 H 504.7 -0.0944059 -5.73222 0
M  V30 5365 H 503.097 -0.858 -5.93935 0
M  V30 5366 H 504.167 -1.41197 -4.63887 0
M  V30 5367 N 505.51 1.54411 -0.315457 0
M  V30 5368 C 506.442 2.21527 0.588067 0
M  V30 5369 C 507.455 1.21263 1.08624 0
M  V30 5370 O 508.644 1.47777 1.00121 0
M  V30 5371 C 505.744 2.85963 1.81875 0
M  V30 5372 C 504.917 4.12291 1.46063 0
M  V30 5373 C 503.976 4.60396 2.54799 0
M  V30 5374 O 503.002 5.25265 2.19283 0
M  V30 5375 N 504.204 4.33935 3.85591 0
M  V30 5376 H 506.969 2.99697 0.013414 0
M  V30 5377 H 504.53 1.61308 -0.138295 0
M  V30 5378 H 506.522 3.15071 2.53993 0
M  V30 5379 H 505.092 2.11548 2.30144 0
M  V30 5380 H 504.312 3.90036 0.571445 0
M  V30 5381 H 505.6 4.9452 1.19695 0
M  V30 5382 H 504.998 3.81996 4.17248 0
M  V30 5383 H 503.555 4.67718 4.53964 0
M  V30 5384 N 506.988 0.0434614 1.5754 0
M  V30 5385 C 507.938 -0.943039 2.07583 0
M  V30 5386 C 508.922 -1.27662 0.979342 0
M  V30 5387 O 510.114 -1.26034 1.24276 0
M  V30 5388 C 507.243 -2.22056 2.61813 0
M  V30 5389 C 506.329 -1.91471 3.78417 0
M  V30 5390 N 506.72 -1.31214 4.88484 0
M  V30 5391 C 505.018 -2.21384 3.87176 0
M  V30 5392 C 505.719 -1.18084 5.69588 0
M  V30 5393 N 504.695 -1.68116 5.16951 0
M  V30 5394 H 508.497 -0.472354 2.90079 0
M  V30 5395 H 506.011 -0.161191 1.61598 0
M  V30 5396 H 508.008 -2.93618 2.95963 0
M  V30 5397 H 506.668 -2.69738 1.80752 0
M  V30 5398 H 507.679 -0.985318 5.08441 0
M  V30 5399 H 504.356 -2.7164 3.17046 0
M  V30 5400 H 505.746 -0.713684 6.68099 0
M  V30 5401 N 508.466 -1.55915 -0.229846 0
M  V30 5402 C 509.413 -1.91734 -1.28478 0
M  V30 5403 C 510.383 -0.773539 -1.46988 0
M  V30 5404 O 511.568 -1.02871 -1.60693 0
M  V30 5405 C 508.708 -2.23224 -2.63182 0
M  V30 5406 C 507.821 -3.50497 -2.52539 0
M  V30 5407 C 506.956 -3.71474 -3.79711 0
M  V30 5408 C 505.995 -4.92289 -3.63755 0
M  V30 5409 N 505.132 -5.09698 -4.82858 0
M  V30 5410 H 509.972 -2.81692 -0.972308 0
M  V30 5411 H 507.509 -1.39429 -0.468815 0
M  V30 5412 H 509.467 -2.3949 -3.41614 0
M  V30 5413 H 508.097 -1.36451 -2.92542 0
M  V30 5414 H 507.149 -3.4247 -1.65585 0
M  V30 5415 H 508.461 -4.39079 -2.36666 0
M  V30 5416 H 507.615 -3.87791 -4.66586 0
M  V30 5417 H 506.354 -2.81157 -3.985 0
M  V30 5418 H 505.359 -4.7593 -2.75264 0
M  V30 5419 H 506.584 -5.84083 -3.46445 0
M  V30 5420 H 504.53 -4.22322 -5.01976 0
M  V30 5421 H 504.447 -5.92399 -4.69681 0
M  V30 5422 H 505.715 -5.30443 -5.71183 0
M  V30 5423 N 509.944 0.496216 -1.49584 0
M  V30 5424 C 511.221 1.25755 -1.49816 0
M  V30 5425 C 511.601 2.09859 -0.228572 0
M  V30 5426 O 510.949 2.14449 0.788908 0
M  V30 5427 C 511.159 2.11017 -2.7798 0
M  V30 5428 C 512.507 2.70047 -3.27658 0
M  V30 5429 O 513.531 2.21281 -2.79129 0
M  V30 5430 O 512.39 3.58834 -4.1219 0
M  V30 5431 H 509.484 0.569322 -0.599834 0
M  V30 5432 H 512.03 0.510094 -1.61852 0
M  V30 5433 H 510.802 1.48879 -3.61871 0
M  V30 5434 H 510.425 2.92947 -2.68827 0
M  V30 5435 N 511.423 1.38739 0.74761 0
M  V30 5436 C 512.333 1.38696 1.89211 0
M  V30 5437 C 513.349 0.283303 1.71678 0
M  V30 5438 O 514.525 0.522713 1.94498 0
M  V30 5439 C 511.59 1.21662 3.24653 0
M  V30 5440 C 510.651 2.41886 3.54669 0
M  V30 5441 C 509.884 2.25655 4.83648 0
M  V30 5442 O 510.107 1.25339 5.56459 0
M  V30 5443 O 509.041 3.14372 5.13277 0
M  V30 5444 H 512.867 2.35143 1.92202 0
M  V30 5445 H 510.452 1.19721 0.893708 0
M  V30 5446 H 512.334 1.14246 4.05618 0
M  V30 5447 H 511.009 0.283024 3.2246 0
M  V30 5448 H 509.916 2.54877 2.73841 0
M  V30 5449 H 511.249 3.33895 3.61628 0
M  V30 5450 N 512.901 -0.976442 1.23707 0
M  V30 5451 C 513.831 -2.08749 1.04624 0
M  V30 5452 C 514.812 -1.70057 -0.0380956 0
M  V30 5453 O 515.997 -1.93782 0.127308 0
M  V30 5454 C 513.127 -3.41335 0.640902 0
M  V30 5455 C 512.081 -3.93947 1.67302 0
M  V30 5456 C 511.407 -5.22774 1.12301 0
M  V30 5457 C 512.707 -4.22769 3.06697 0
M  V30 5458 H 514.401 -2.24972 1.97555 0
M  V30 5459 H 511.947 -1.08108 0.951247 0
M  V30 5460 H 513.9 -4.18489 0.494434 0
M  V30 5461 H 512.624 -3.24988 -0.324099 0
M  V30 5462 H 511.283 -3.18941 1.80755 0
M  V30 5463 H 510.931 -5.0278 0.148877 0
M  V30 5464 H 510.631 -5.58942 1.81267 0
M  V30 5465 H 512.155 -6.02546 0.988479 0
M  V30 5466 H 513.569 -4.90659 2.96524 0
M  V30 5467 H 511.966 -4.70147 3.72937 0
M  V30 5468 H 513.036 -3.29885 3.55392 0
M  V30 5469 N 514.379 -1.04941 -1.1758 0
M  V30 5470 C 515.327 -0.64204 -2.23563 0
M  V30 5471 C 516.321 0.335453 -1.66045 0
M  V30 5472 O 517.527 0.20179 -1.78865 0
M  V30 5473 H 513.902 -0.18944 -0.727748 0
M  V30 5474 H 515.873 -1.54609 -2.55223 0
M  V30 5475 C 514.622 -0.0301051 -3.47687 0
M  V30 5476 H 513.945 -0.773339 -3.92249 0
M  V30 5477 H 515.385 0.217592 -4.23441 0
M  V30 5478 C 513.844 1.2225 -3.13937 0
M  V30 5479 O 514.374 2.3122 -3.28482 0
M  V30 5480 N 512.58 1.11917 -2.68185 0
M  V30 5481 H 512.127 0.232403 -2.5655 0
M  V30 5482 H 512.085 1.95814 -2.45976 0
M  V30 5483 N 515.857 1.33968 -0.830081 0
M  V30 5484 C 516.82 2.27694 -0.26235 0
M  V30 5485 C 517.82 1.50589 0.563876 0
M  V30 5486 O 519.01 1.70028 0.378941 0
M  V30 5487 C 516.142 3.35002 0.63138 0
M  V30 5488 H 517.335 2.79419 -1.08928 0
M  V30 5489 H 514.888 1.44221 -0.602486 0
M  V30 5490 H 515.623 2.88504 1.48109 0
M  V30 5491 H 515.408 3.92079 0.0403276 0
M  V30 5492 H 516.898 4.04897 1.02217 0
M  V30 5493 N 517.335 0.585699 1.46312 0
M  V30 5494 C 518.612 0.00542031 1.95599 0
M  V30 5495 C 518.992 -1.45619 1.52834 0
M  V30 5496 O 518.34 -2.14759 0.780446 0
M  V30 5497 C 518.55 0.180601 3.48532 0
M  V30 5498 C 519.898 0.049979 4.24571 0
M  V30 5499 O 520.922 0.109589 3.56031 0
M  V30 5500 O 519.781 -0.0832226 5.46437 0
M  V30 5501 H 516.875 -0.0481281 0.825598 0
M  V30 5502 H 519.421 0.654227 1.56582 0
M  V30 5503 H 518.193 1.19657 3.72556 0
M  V30 5504 H 517.816 -0.504498 3.94386 0
M  V30 5505 N 518.813 -1.54241 0.323641 0
M  V30 5506 C 519.763 -2.21071 -0.557833 0
M  V30 5507 C 520.747 -1.19126 -1.08157 0
M  V30 5508 O 521.939 -1.44755 -1.01857 0
M  V30 5509 C 519.068 -2.97208 -1.71821 0
M  V30 5510 C 518.154 -4.06491 -1.20936 0
M  V30 5511 N 518.545 -5.04052 -0.420202 0
M  V30 5512 C 516.843 -4.20443 -1.48808 0
M  V30 5513 C 517.544 -5.81516 -0.146413 0
M  V30 5514 N 516.52 -5.38641 -0.732562 0
M  V30 5515 H 520.322 -2.93853 0.0523921 0
M  V30 5516 H 517.836 -1.61883 0.129502 0
M  V30 5517 H 519.833 -3.4357 -2.36146 0
M  V30 5518 H 518.493 -2.25947 -2.33191 0
M  V30 5519 H 519.504 -5.17862 -0.0630401 0
M  V30 5520 H 516.181 -3.60396 -2.10762 0
M  V30 5521 H 517.571 -6.70119 0.488895 0
M  V30 5522 N 520.291 -0.0518155 -1.57515 0
M  V30 5523 C 521.702 0.483787 -1.80323 0
M  V30 5524 C 522.053 1.70879 -0.964099 0
M  V30 5525 O 521.178 2.15643 -0.180872 0
M  V30 5526 C 521.773 0.884459 -3.27052 0
M  V30 5527 C 520.332 1.36504 -3.50776 0
M  V30 5528 C 519.479 0.340539 -2.75201 0
M  V30 5529 H 522.43 -0.277691 -1.56252 0
M  V30 5530 H 522.451 1.74733 -3.38007 0
M  V30 5531 H 521.963 -0.00731093 -3.88099 0
M  V30 5532 H 520.064 2.27598 -2.95009 0
M  V30 5533 H 520.177 1.35675 -4.59488 0
M  V30 5534 H 518.541 0.81356 -2.41357 0
M  V30 5535 H 519.324 -0.543156 -3.38976 0
M  V30 5536 N 521.769 1.56035 0.221574 0
M  V30 5537 C 523.016 1.79047 0.94597 0
M  V30 5538 C 523.344 0.62057 1.84334 0
M  V30 5539 O 522.599 -0.395053 1.91671 0
M  V30 5540 C 522.898 3.07813 1.8162 0
M  V30 5541 C 522.564 4.3797 1.07206 0
M  V30 5542 C 521.226 4.73334 0.866508 0
M  V30 5543 C 523.578 5.18326 0.546565 0
M  V30 5544 C 520.906 5.8657 0.123549 0
M  V30 5545 C 523.258 6.32335 -0.18305 0
M  V30 5546 C 521.922 6.66301 -0.399861 0
M  V30 5547 H 521.192 0.655178 0.346155 0
M  V30 5548 H 523.839 1.90299 0.214146 0
M  V30 5549 H 522.144 2.91682 2.61589 0
M  V30 5550 H 523.841 3.2282 2.37884 0
M  V30 5551 H 520.431 4.10202 1.24226 0
M  V30 5552 H 524.615 4.9144 0.692847 0
M  V30 5553 H 519.871 6.11376 -0.0546591 0
M  V30 5554 H 524.045 6.9383 -0.59775 0
M  V30 5555 H 521.672 7.53889 -0.977489 0
M  V30 5556 N 523.247 -0.488276 1.49845 0
M  V30 5557 C 524.496 -1.23826 1.59217 0
M  V30 5558 C 524.809 -1.93439 0.289966 0
M  V30 5559 O 526.015 -2.70229 0.262382 0
M  V30 5560 C 524.471 -2.24902 2.80976 0
M  V30 5561 C 524.079 -1.6117 4.18005 0
M  V30 5562 C 525.823 -3.00648 2.99685 0
M  V30 5563 C 523.73 -2.60431 5.3097 0
M  V30 5564 H 522.66 -0.465858 0.592868 0
M  V30 5565 H 525.311 -0.510645 1.76252 0
M  V30 5566 H 523.693 -3.0088 2.57463 0
M  V30 5567 H 524.867 -0.910968 4.51706 0
M  V30 5568 H 523.182 -0.97767 4.0476 0
M  V30 5569 H 525.779 -3.74903 3.81251 0
M  V30 5570 H 526.122 -3.5902 2.10738 0
M  V30 5571 H 526.655 -2.31784 3.23297 0
M  V30 5572 H 523.394 -2.06823 6.22017 0
M  V30 5573 H 522.914 -3.28707 5.01709 0
M  V30 5574 H 524.593 -3.22606 5.60834 0
M  V30 5575 N 524.725 -1.39134 -0.740242 0
M  V30 5576 C 525.955 -1.39132 -1.52728 0
M  V30 5577 C 526.363 0.0173133 -1.89192 0
M  V30 5578 O 525.706 0.997715 -1.54244 0
M  V30 5579 C 525.768 -2.1952 -2.84695 0
M  V30 5580 C 525.432 -3.68203 -2.70695 0
M  V30 5581 C 526.429 -4.61401 -2.39593 0
M  V30 5582 C 524.114 -4.11724 -2.8773 0
M  V30 5583 C 526.108 -5.96102 -2.25701 0
M  V30 5584 C 523.795 -5.46503 -2.73456 0
M  V30 5585 C 524.793 -6.38506 -2.42486 0
M  V30 5586 O 524.481 -7.70803 -2.28295 0
M  V30 5587 H 524.213 -0.477263 -0.478744 0
M  V30 5588 H 526.767 -1.83504 -0.922799 0
M  V30 5589 H 524.997 -1.69888 -3.47383 0
M  V30 5590 H 526.686 -2.1176 -3.46284 0
M  V30 5591 H 527.452 -4.29079 -2.26088 0
M  V30 5592 H 523.331 -3.4045 -3.10829 0
M  V30 5593 H 526.875 -6.6788 -2.0145 0
M  V30 5594 H 522.772 -5.78417 -2.86538 0
M  V30 5595 H 523.54 -7.8147 -2.43405 0
M  V30 5596 N 526.204 0.969867 -1.24223 0
M  V30 5597 C 527.453 1.70687 -1.07466 0
M  V30 5598 C 527.766 1.91736 0.386861 0
M  V30 5599 O 528.972 2.62986 0.674581 0
M  V30 5600 C 527.428 3.07217 -1.87472 0
M  V30 5601 C 527.036 2.94018 -3.3802 0
M  V30 5602 C 528.78 3.84804 -1.79237 0
M  V30 5603 C 526.687 4.25844 -4.10379 0
M  V30 5604 H 525.617 0.640067 -0.398536 0
M  V30 5605 H 528.268 1.08092 -1.48285 0
M  V30 5606 H 526.65 3.70628 -1.39466 0
M  V30 5607 H 527.824 2.39632 -3.9359 0
M  V30 5608 H 526.139 2.29898 -3.47183 0
M  V30 5609 H 528.736 4.82417 -2.30603 0
M  V30 5610 H 529.079 4.09356 -0.757197 0
M  V30 5611 H 529.612 3.28115 -2.24912 0
M  V30 5612 H 526.351 4.06486 -5.14246 0
M  V30 5613 H 525.871 4.80054 -3.59594 0
M  V30 5614 H 527.55 4.94475 -4.17257 0
M  V30 5615 N 527.682 1.05563 1.17022 0
M  V30 5616 C 528.931 0.763036 1.8671 0
M  V30 5617 C 529.244 -0.712857 1.82147 0
M  V30 5618 O 530.45 -1.11955 2.47343 0
M  V30 5619 C 528.906 1.31474 3.35026 0
M  V30 5620 C 528.514 2.82034 3.48081 0
M  V30 5621 C 530.258 1.09935 4.10018 0
M  V30 5622 C 528.165 3.30486 4.90442 0
M  V30 5623 H 527.095 0.281747 0.699382 0
M  V30 5624 H 529.746 1.2734 1.32124 0
M  V30 5625 H 528.128 0.732171 3.89173 0
M  V30 5626 H 529.302 3.46178 3.04133 0
M  V30 5627 H 527.617 3.02156 2.86515 0
M  V30 5628 H 530.214 1.43632 5.15048 0
M  V30 5629 H 530.557 0.0373072 4.16283 0
M  V30 5630 H 531.09 1.64732 3.62089 0
M  V30 5631 H 527.829 4.36137 4.89352 0
M  V30 5632 H 527.349 2.71086 5.35044 0
M  V30 5633 H 529.028 3.25382 5.59227 0
M  V30 5634 N 529.16 -1.33526 0.837174 0
M  V30 5635 C 530.576 -1.50727 0.524743 0
M  V30 5636 C 530.776 -1.77792 -0.948279 0
M  V30 5637 O 529.832 -1.83719 -1.73216 0
M  V30 5638 C 531.145 -2.66299 1.39661 0
M  V30 5639 C 532.693 -2.80183 1.39521 0
M  V30 5640 C 533.168 -3.98815 2.25189 0
M  V30 5641 N 534.659 -4.06047 2.2289 0
M  V30 5642 C 535.394 -4.97032 2.85915 0
M  V30 5643 N 534.89 -5.93143 3.57985 0
M  V30 5644 N 536.683 -4.90015 2.75394 0
M  V30 5645 H 528.834 -1.1422 1.79074 0
M  V30 5646 H 531.097 -0.561399 0.763894 0
M  V30 5647 H 530.803 -2.52974 2.4433 0
M  V30 5648 H 530.677 -3.61663 1.07145 0
M  V30 5649 H 533.064 -2.92942 0.356253 0
M  V30 5650 H 533.145 -1.85586 1.76044 0
M  V30 5651 H 532.789 -3.86817 3.29143 0
M  V30 5652 H 532.719 -4.92654 1.86009 0
M  V30 5653 H 535.21 -3.37262 1.70478 0
M  V30 5654 H 535.523 -6.59227 4.03286 0
M  V30 5655 H 533.868 -5.93223 3.62093 0
M  V30 5656 H 537.059 -4.13894 2.18654 0
M  V30 5657 H 537.232 -5.60724 3.24796 0
M  V30 5658 N 530.638 -0.59345 -1.46 0
M  V30 5659 C 531.588 0.154751 -2.27474 0
M  V30 5660 C 532.572 0.851849 -1.365 0
M  V30 5661 O 533.764 0.744171 -1.60596 0
M  V30 5662 C 530.893 1.16079 -3.2308 0
M  V30 5663 C 529.979 0.465256 -4.2154 0
M  V30 5664 N 530.37 -0.485197 -5.03467 0
M  V30 5665 C 528.668 0.714634 -4.40237 0
M  V30 5666 C 529.369 -0.892709 -5.74809 0
M  V30 5667 N 528.345 -0.239511 -5.43072 0
M  V30 5668 H 532.147 -0.57546 -2.88211 0
M  V30 5669 H 529.661 -0.416046 -1.5698 0
M  V30 5670 H 531.658 1.71108 -3.80168 0
M  V30 5671 H 530.318 1.89171 -2.63903 0
M  V30 5672 H 531.329 -0.861258 -5.10689 0
M  V30 5673 H 528.006 1.43131 -3.92199 0
M  V30 5674 H 529.396 -1.67581 -6.50666 0
M  V30 5675 N 532.116 1.54067 -0.331816 0
M  V30 5676 C 533.064 2.26105 0.54582 0
M  V30 5677 C 534.058 1.27816 1.11173 0
M  V30 5678 O 535.264 1.45565 1.05882 0
M  V30 5679 H 531.639 0.726363 0.194683 0
M  V30 5680 H 533.61 2.98282 -0.083931 0
M  V30 5681 C 532.359 3.03814 1.69092 0
M  V30 5682 H 531.682 3.79269 1.26473 0
M  V30 5683 H 533.122 3.57453 2.28043 0
M  V30 5684 C 531.581 2.12606 2.61343 0
M  V30 5685 O 532.111 1.71437 3.6328 0
M  V30 5686 N 530.317 1.77925 2.29763 0
M  V30 5687 H 529.864 2.11602 1.46909 0
M  V30 5688 H 529.822 1.1718 2.91747 0
M  V30 5689 N 533.594 0.0601682 1.57485 0
M  V30 5690 C 534.541 -0.91112 2.12055 0
M  V30 5691 C 535.511 -1.30298 1.03013 0
M  V30 5692 O 536.696 -1.39087 1.30612 0
M  V30 5693 C 533.836 -2.1775 2.67729 0
M  V30 5694 C 532.949 -1.83933 3.90887 0
M  V30 5695 C 532.084 -3.05096 4.34845 0
M  V30 5696 C 531.123 -2.67241 5.5068 0
M  V30 5697 N 530.26 -3.81127 5.8965 0
M  V30 5698 H 535.1 -0.43888 2.9475 0
M  V30 5699 H 532.637 -0.204995 1.45665 0
M  V30 5700 H 534.595 -2.91866 2.98111 0
M  V30 5701 H 533.225 -2.62535 1.87816 0
M  V30 5702 H 532.277 -0.999287 3.6704 0
M  V30 5703 H 533.589 -1.52074 4.75052 0
M  V30 5704 H 532.743 -3.87502 4.66827 0
M  V30 5705 H 531.482 -3.40139 3.49509 0
M  V30 5706 H 530.487 -1.83254 5.18361 0
M  V30 5707 H 531.712 -2.3338 6.37738 0
M  V30 5708 H 529.658 -4.15954 5.07266 0
M  V30 5709 H 529.575 -3.52997 6.68528 0
M  V30 5710 H 530.843 -4.64145 6.2625 0
M  V30 5711 N 535.072 -1.5615 -0.213296 0
M  V30 5712 C 536.3 -1.83638 -0.953139 0
M  V30 5713 C 536.715 -0.640362 -1.77609 0
M  V30 5714 O 536.072 0.391071 -1.78261 0
M  V30 5715 C 536.123 -3.09735 -1.86405 0
M  V30 5716 O 535.844 -4.24723 -1.07435 0
M  V30 5717 C 537.345 -3.5027 -2.71709 0
M  V30 5718 H 534.565 -0.610263 -0.278962 0
M  V30 5719 H 537.109 -2.03247 -0.226035 0
M  V30 5720 H 535.264 -2.92077 -2.545 0
M  V30 5721 H 535.678 -4.9641 -1.69343 0
M  V30 5722 H 537.152 -4.41515 -3.31313 0
M  V30 5723 H 537.629 -2.72406 -3.44516 0
M  V30 5724 H 538.235 -3.70396 -2.09015 0
M  V30 5725 N 536.55 0.480323 -1.50102 0
M  V30 5726 C 537.966 0.813295 -1.37323 0
M  V30 5727 C 538.166 1.97027 -0.422206 0
M  V30 5728 O 537.222 2.5212 0.138563 0
M  V30 5729 C 538.535 1.13404 -2.78496 0
M  V30 5730 C 540.083 1.24104 -2.87345 0
M  V30 5731 C 540.558 1.59497 -4.29331 0
M  V30 5732 N 542.049 1.66507 -4.32238 0
M  V30 5733 C 542.784 1.95378 -5.39087 0
M  V30 5734 N 542.28 2.22333 -6.56155 0
M  V30 5735 N 544.073 1.96803 -5.26522 0
M  V30 5736 H 536.224 -0.282291 -2.10516 0
M  V30 5737 H 538.487 -0.063752 -0.945854 0
M  V30 5738 H 538.193 0.357064 -3.49883 0
M  V30 5739 H 538.067 2.07251 -3.15162 0
M  V30 5740 H 540.454 2.00871 -2.16183 0
M  V30 5741 H 540.535 0.282593 -2.54234 0
M  V30 5742 H 540.179 0.832736 -5.01027 0
M  V30 5743 H 540.109 2.56477 -4.59921 0
M  V30 5744 H 542.6 1.47753 -3.47818 0
M  V30 5745 H 542.913 2.43611 -7.33399 0
M  V30 5746 H 541.258 2.19745 -6.59346 0
M  V30 5747 H 544.449 1.75235 -4.34062 0
M  V30 5748 H 544.622 2.18969 -6.09883 0
M  V30 5749 N 538.028 1.39524 0.732853 0
M  V30 5750 C 538.976 1.38563 1.86824 0
M  V30 5751 C 539.97 0.268467 1.67259 0
M  V30 5752 O 541.176 0.438613 1.74574 0
M  V30 5753 H 537.551 0.432737 0.615014 0
M  V30 5754 H 539.522 2.34328 1.84751 0
M  V30 5755 C 538.271 1.2481 3.24527 0
M  V30 5756 H 537.594 2.10044 3.40179 0
M  V30 5757 H 539.034 1.28194 4.04156 0
M  V30 5758 C 537.493 -0.0432825 3.36872 0
M  V30 5759 O 538.023 -1.01268 3.88726 0
M  V30 5760 N 536.229 -0.107055 2.90403 0
M  V30 5761 H 535.776 0.682512 2.48394 0
M  V30 5762 H 535.734 -0.970618 2.99042 0
M  V30 5763 N 539.506 -0.963266 1.24736 0
M  V30 5764 C 540.755 -1.70115 1.08369 0
M  V30 5765 C 541.068 -1.91939 -0.376688 0
M  V30 5766 O 542.274 -2.6334 -0.660624 0
M  V30 5767 C 540.73 -3.06218 1.89099 0
M  V30 5768 C 540.338 -2.92221 3.39574 0
M  V30 5769 C 542.082 -3.83848 1.81275 0
M  V30 5770 C 539.989 -4.23662 4.12631 0
M  V30 5771 H 538.919 -0.637944 0.401924 0
M  V30 5772 H 541.57 -1.07304 1.48856 0
M  V30 5773 H 539.952 -3.69884 1.41429 0
M  V30 5774 H 541.126 -2.37541 3.94856 0
M  V30 5775 H 539.441 -2.28054 3.48397 0
M  V30 5776 H 542.038 -4.81188 2.33158 0
M  V30 5777 H 542.381 -4.08949 0.778895 0
M  V30 5778 H 542.914 -3.26918 2.26649 0
M  V30 5779 H 539.653 -4.03753 5.16395 0
M  V30 5780 H 539.173 -4.78141 3.62135 0
M  V30 5781 H 540.852 -4.92256 4.19873 0
M  V30 5782 N 540.985 -1.06182 -1.16461 0
M  V30 5783 C 542.234 -0.772927 -1.86303 0
M  V30 5784 C 542.547 0.703187 -1.82523 0
M  V30 5785 O 543.753 1.10641 -2.47933 0
M  V30 5786 C 542.209 -1.33249 -3.34324 0
M  V30 5787 C 541.817 -2.83876 -3.46581 0
M  V30 5788 C 543.561 -1.12108 -4.09429 0
M  V30 5789 C 541.468 -3.33082 -4.88682 0
M  V30 5790 H 540.398 -0.285452 -0.697878 0
M  V30 5791 H 543.049 -1.28039 -1.31447 0
M  V30 5792 H 541.431 -0.7528 -3.88779 0
M  V30 5793 H 542.605 -3.47786 -3.02293 0
M  V30 5794 H 540.92 -3.03671 -2.84909 0
M  V30 5795 H 543.517 -1.46361 -5.14279 0
M  V30 5796 H 543.86 -0.0593832 -4.16258 0
M  V30 5797 H 544.393 -1.6665 -3.6121 0
M  V30 5798 H 541.132 -4.38726 -4.87032 0
M  V30 5799 H 540.652 -2.73919 -5.33599 0
M  V30 5800 H 542.331 -3.28344 -5.57494 0
M  V30 5801 N 542.463 1.3308 -0.844243 0
M  V30 5802 C 543.71 1.97605 -0.44255 0
M  V30 5803 C 544.038 1.66856 0.999458 0
M  V30 5804 O 543.293 0.943586 1.7145 0
M  V30 5805 C 543.592 3.52045 -0.616354 0
M  V30 5806 C 543.258 4.02757 -2.02726 0
M  V30 5807 C 541.92 4.16316 -2.41317 0
M  V30 5808 C 544.272 4.29776 -2.9486 0
M  V30 5809 C 541.6 4.54232 -3.71335 0
M  V30 5810 C 543.952 4.69146 -4.24364 0
M  V30 5811 C 542.616 4.80911 -4.62904 0
M  V30 5812 H 541.886 0.723088 -0.161941 0
M  V30 5813 H 544.533 1.58663 -1.0723 0
M  V30 5814 H 542.838 3.91681 0.0966812 0
M  V30 5815 H 544.535 3.99981 -0.285756 0
M  V30 5816 H 541.125 3.9268 -1.71756 0
M  V30 5817 H 545.309 4.18818 -2.6628 0
M  V30 5818 H 540.565 4.61535 -4.00993 0
M  V30 5819 H 544.739 4.89008 -4.95827 0
M  V30 5820 H 542.366 5.10048 -5.63698 0
M  V30 5821 N 543.941 0.601185 1.45683 0
M  V30 5822 C 545.188 0.0938811 2.02282 0
M  V30 5823 C 545.516 -1.27315 1.47041 0
M  V30 5824 O 544.771 -1.85193 0.632623 0
M  V30 5825 C 545.07 -0.00222425 3.574 0
M  V30 5826 C 544.736 1.29963 4.31764 0
M  V30 5827 C 543.398 1.65625 4.51798 0
M  V30 5828 C 545.75 2.1603 4.74321 0
M  V30 5829 C 543.078 2.87119 5.11644 0
M  V30 5830 C 545.43 3.36766 5.3551 0
M  V30 5831 C 544.094 3.72689 5.53768 0
M  V30 5832 H 543.364 0.0343535 0.740203 0
M  V30 5833 H 546.011 0.781522 1.74827 0
M  V30 5834 H 544.316 -0.773096 3.84097 0
M  V30 5835 H 546.013 -0.410794 3.9889 0
M  V30 5836 H 542.603 1.01204 4.1648 0
M  V30 5837 H 546.787 1.89778 4.58582 0
M  V30 5838 H 542.043 3.15065 5.2397 0
M  V30 5839 H 546.217 4.03713 5.67441 0
M  V30 5840 H 543.844 4.66918 5.99909 0
M  V30 5841 N 545.419 -1.53889 0.339982 0
M  V30 5842 C 546.667 -2.00458 -0.257112 0
M  V30 5843 C 546.988 -1.22953 -1.51353 0
M  V30 5844 O 546.258 -0.335734 -1.93002 0
M  V30 5845 H 544.838 -0.740544 -0.0979965 0
M  V30 5846 H 547.5 -1.89386 0.460317 0
M  V30 5847 H 546.596 -3.08035 -0.502057 0
M  V30 5848 N 546.897 -0.0685191 -1.57451 0
M  V30 5849 C 547.844 0.899861 -2.12535 0
M  V30 5850 C 548.814 1.29749 -1.03703 0
M  V30 5851 O 549.999 1.38392 -1.31348 0
M  V30 5852 C 547.139 2.16328 -2.6888 0
M  V30 5853 C 546.252 1.81857 -3.91857 0
M  V30 5854 C 545.387 3.02786 -4.36457 0
M  V30 5855 C 544.426 2.64317 -5.5209 0
M  V30 5856 N 543.563 3.77994 -5.91663 0
M  V30 5857 H 548.403 0.423243 -2.94979 0
M  V30 5858 H 545.94 0.197268 -1.45771 0
M  V30 5859 H 547.898 2.90281 -2.99655 0
M  V30 5860 H 546.528 2.61536 -1.89206 0
M  V30 5861 H 545.58 0.979808 -3.67565 0
M  V30 5862 H 546.892 1.49553 -4.75852 0
M  V30 5863 H 546.046 3.85021 -4.68875 0
M  V30 5864 H 544.785 3.38281 -3.51308 0
M  V30 5865 H 543.79 1.80503 -5.19325 0
M  V30 5866 H 545.015 2.29995 -6.38967 0
M  V30 5867 H 542.961 4.13258 -5.09464 0
M  V30 5868 H 542.878 3.49447 -6.7039 0
M  V30 5869 H 544.146 4.60818 -6.28703 0
M  V30 5870 N 548.375 1.56261 0.205012 0
M  V30 5871 C 549.622 1.8004 0.926927 0
M  V30 5872 C 549.95 0.640086 1.83666 0
M  V30 5873 O 549.205 -0.374702 1.92079 0
M  V30 5874 C 549.504 3.09722 1.78345 0
M  V30 5875 C 549.17 4.39082 1.02555 0
M  V30 5876 C 547.832 4.74226 0.816256 0
M  V30 5877 C 550.184 5.18877 0.491559 0
M  V30 5878 C 547.512 5.86668 0.0613287 0
M  V30 5879 C 549.864 6.32105 -0.250107 0
M  V30 5880 C 548.528 6.6584 -0.470508 0
M  V30 5881 H 547.798 0.658812 0.339187 0
M  V30 5882 H 550.445 1.90515 0.19395 0
M  V30 5883 H 548.75 2.9444 2.5848 0
M  V30 5884 H 550.447 3.25324 2.34446 0
M  V30 5885 H 547.037 4.11497 1.19868 0
M  V30 5886 H 551.221 4.92147 0.640684 0
M  V30 5887 H 546.477 6.11283 -0.119501 0
M  V30 5888 H 550.651 6.93157 -0.671307 0
M  V30 5889 H 548.278 7.5281 -1.05739 0
M  V30 5890 N 549.853 -0.472356 1.50355 0
M  V30 5891 C 551.093 -1.23439 1.62918 0
M  V30 5892 C 551.457 -1.89284 0.321801 0
M  V30 5893 O 552.658 -2.66854 0.322852 0
M  V30 5894 C 550.929 -2.25119 2.7759 0
M  V30 5895 S 552.488 -3.10278 3.10279 0
M  V30 5896 H 549.306 -0.41911 0.574341 0
M  V30 5897 H 551.908 -0.531621 1.88133 0
M  V30 5898 H 550.612 -1.75324 3.71066 0
M  V30 5899 H 550.143 -3.00026 2.54457 0
M  V30 5900 H 552.158 -4.26257 2.54007 0
M  V30 5901 N 551.331 -1.39911 -0.725443 0
M  V30 5902 C 552.556 -1.41137 -1.5197 0
M  V30 5903 C 552.981 -0.010262 -1.88097 0
M  V30 5904 O 552.339 0.979184 -1.52583 0
M  V30 5905 C 552.387 -2.2994 -2.77777 0
M  V30 5906 O 551.491 -1.73586 -3.74088 0
M  V30 5907 H 550.832 -0.480219 -0.458569 0
M  V30 5908 H 553.362 -1.84023 -0.894249 0
M  V30 5909 H 553.372 -2.44785 -3.26411 0
M  V30 5910 H 552.047 -3.31759 -2.50816 0
M  V30 5911 H 550.624 -1.68035 -3.32894 0
M  V30 5912 N 552.809 0.956637 -1.25245 0
M  V30 5913 C 554.22 1.51569 -1.09012 0
M  V30 5914 C 554.571 1.93322 0.334813 0
M  V30 5915 O 553.696 1.78421 1.22454 0
M  V30 5916 C 554.291 2.75444 -1.97271 0
M  V30 5917 C 552.85 3.27669 -1.8523 0
M  V30 5918 C 551.997 2.00517 -1.91542 0
M  V30 5919 H 554.948 0.773746 -1.3856 0
M  V30 5920 H 554.969 3.4919 -1.51151 0
M  V30 5921 H 554.481 2.45024 -3.00973 0
M  V30 5922 H 552.582 3.62914 -0.844045 0
M  V30 5923 H 552.695 3.9582 -2.69932 0
M  V30 5924 H 551.059 2.15727 -1.35404 0
M  V30 5925 H 551.842 1.72448 -2.96844 0
M  V30 5926 O 554.326 1.1921 1.08956 0
M  V30 5927 H 555.017 0.939352 1.69399 0
M  V30 END ATOM
M  V30 BEGIN BOND
M  V30 END BOND
M  V30 END CTAB
M  END
$$$$
